# generated using pymatgen
data_Fe(TeO3)2
_symmetry_space_group_name_H-M   'P 1'
_cell_length_a   11.23293062
_cell_length_b   11.23293062
_cell_length_c   11.23293062
_cell_angle_alpha   96.85706628
_cell_angle_beta   116.12325050
_cell_angle_gamma   116.12325050
_symmetry_Int_Tables_number   1
_chemical_formula_structural   Fe(TeO3)2
_chemical_formula_sum   'Fe8 Te16 O48'
_cell_volume   1052.78059314
_cell_formula_units_Z   8
loop_
 _symmetry_equiv_pos_site_id
 _symmetry_equiv_pos_as_xyz
  1  'x, y, z'
loop_
 _atom_site_type_symbol
 _atom_site_label
 _atom_site_symmetry_multiplicity
 _atom_site_fract_x
 _atom_site_fract_y
 _atom_site_fract_z
 _atom_site_occupancy
  Fe  Fe0  1  0.75000000  0.97939600  0.72939600  1
  Fe  Fe1  1  0.75000000  0.47939600  0.22939600  1
  Fe  Fe2  1  0.25000000  0.22939600  0.47939600  1
  Fe  Fe3  1  0.25000000  0.72939600  0.97939600  1
  Fe  Fe4  1  0.25000000  0.02060400  0.27060400  1
  Fe  Fe5  1  0.25000000  0.52060400  0.77060400  1
  Fe  Fe6  1  0.75000000  0.77060400  0.52060400  1
  Fe  Fe7  1  0.75000000  0.27060400  0.02060400  1
  Te  Te0  1  0.35674100  0.76494100  0.31564500  1
  Te  Te1  1  0.55070400  0.45890300  0.81564500  1
  Te  Te2  1  0.85674100  0.81564500  0.26494100  1
  Te  Te3  1  0.44929600  0.90820000  0.76494100  1
  Te  Te4  1  0.64325900  0.23505900  0.68435500  1
  Te  Te5  1  0.44929600  0.54109700  0.18435500  1
  Te  Te6  1  0.14325900  0.18435500  0.73505900  1
  Te  Te7  1  0.55070400  0.09180000  0.23505900  1
  Te  Te8  1  0.94929600  0.26494100  0.40820000  1
  Te  Te9  1  0.14325900  0.95890300  0.90820000  1
  Te  Te10  1  0.05070400  0.31564500  0.95890300  1
  Te  Te11  1  0.64325900  0.40820000  0.45890300  1
  Te  Te12  1  0.05070400  0.73505900  0.59180000  1
  Te  Te13  1  0.85674100  0.04109700  0.09180000  1
  Te  Te14  1  0.94929600  0.68435500  0.04109700  1
  Te  Te15  1  0.35674100  0.59180000  0.54109700  1
  O  O0  1  0.88056600  0.44028300  0.19028300  1
  O  O1  1  0.75000000  0.80971700  0.69028300  1
  O  O2  1  0.38056600  0.69028300  0.94028300  1
  O  O3  1  0.25000000  0.05971700  0.44028300  1
  O  O4  1  0.11943400  0.55971700  0.80971700  1
  O  O5  1  0.25000000  0.19028300  0.30971700  1
  O  O6  1  0.61943400  0.30971700  0.05971700  1
  O  O7  1  0.75000000  0.94028300  0.55971700  1
  O  O8  1  0.23197100  0.61598600  0.36598600  1
  O  O9  1  0.75000000  0.63401400  0.86598600  1
  O  O10  1  0.73197100  0.86598600  0.11598600  1
  O  O11  1  0.25000000  0.88401400  0.61598600  1
  O  O12  1  0.76802900  0.38401400  0.63401400  1
  O  O13  1  0.25000000  0.36598600  0.13401400  1
  O  O14  1  0.26802900  0.13401400  0.88401400  1
  O  O15  1  0.75000000  0.11598600  0.38401400  1
  O  O16  1  0.24152900  0.62603900  0.12336900  1
  O  O17  1  0.49733000  0.38184000  0.62336900  1
  O  O18  1  0.74152900  0.62336900  0.12603900  1
  O  O19  1  0.50267000  0.88451000  0.62603900  1
  O  O20  1  0.75847100  0.37396100  0.87663100  1
  O  O21  1  0.50267000  0.61816000  0.37663100  1
  O  O22  1  0.25847100  0.37663100  0.87396100  1
  O  O23  1  0.49733000  0.11549000  0.37396100  1
  O  O24  1  0.00267000  0.12603900  0.38451000  1
  O  O25  1  0.25847100  0.88184000  0.88451000  1
  O  O26  1  0.99733000  0.12336900  0.88184000  1
  O  O27  1  0.75847100  0.38451000  0.38184000  1
  O  O28  1  0.99733000  0.87396100  0.61549000  1
  O  O29  1  0.74152900  0.11816000  0.11549000  1
  O  O30  1  0.00267000  0.87663100  0.11816000  1
  O  O31  1  0.24152900  0.61549000  0.61816000  1
  O  O32  1  0.43532200  0.88496900  0.17188300  1
  O  O33  1  0.28691300  0.23656000  0.67188300  1
  O  O34  1  0.93532200  0.67188300  0.38496900  1
  O  O35  1  0.71308700  0.94964700  0.88496900  1
  O  O36  1  0.56467800  0.11503100  0.82811700  1
  O  O37  1  0.71308700  0.76344000  0.32811700  1
  O  O38  1  0.06467800  0.32811700  0.61503100  1
  O  O39  1  0.28691300  0.05035300  0.11503100  1
  O  O40  1  0.21308700  0.38496900  0.44964700  1
  O  O41  1  0.06467800  0.73656000  0.94964700  1
  O  O42  1  0.78691300  0.17188300  0.73656000  1
  O  O43  1  0.56467800  0.44964700  0.23656000  1
  O  O44  1  0.78691300  0.61503100  0.55035300  1
  O  O45  1  0.93532200  0.26344000  0.05035300  1
  O  O46  1  0.21308700  0.82811700  0.26344000  1
  O  O47  1  0.43532200  0.55035300  0.76344000  1
loop_
_geom_bond_atom_site_label_1
_geom_bond_atom_site_label_2
_geom_bond_distance
_geom_bond_site_symmetry_2
Fe0 O7 1.904174 1_555
Fe0 O1 1.904174 1_555
Fe0 O35 1.998252 1_555
Fe0 O42 1.998263 1_565
Fe0 O26 2.111639 1_565
Fe0 O19 2.111639 1_555
Fe1 O6 1.904174 1_555
Fe1 O0 1.904174 1_555
Fe1 O43 1.998252 1_555
Fe1 O34 1.998258 1_555
Fe1 O27 2.111639 1_555
Fe1 O18 2.111639 1_555
Fe2 O3 1.904174 1_555
Fe2 O5 1.904174 1_555
Fe2 O40 1.998252 1_555
Fe2 O33 1.998263 1_555
Fe2 O24 2.111639 1_555
Fe2 O17 2.111639 1_555
Fe3 O2 1.904174 1_555
Fe3 O4 1.904174 1_555
Fe3 O41 1.998252 1_555
Fe3 O32 1.998258 1_556
Fe3 O16 2.111639 1_556
Fe3 O25 2.111639 1_555
Fe4 O5 1.904174 1_555
Fe4 O3 1.904174 1_555
Fe4 O39 1.998252 1_555
Fe4 O46 1.998263 1_545
Fe4 O23 2.111639 1_555
Fe4 O30 2.111639 1_545
Fe5 O4 1.904174 1_555
Fe5 O2 1.904174 1_555
Fe5 O47 1.998252 1_555
Fe5 O38 1.998258 1_555
Fe5 O22 2.111639 1_555
Fe5 O31 2.111639 1_555
Fe6 O1 1.904174 1_555
Fe6 O7 1.904174 1_555
Fe6 O44 1.998252 1_555
Fe6 O37 1.998263 1_555
Fe6 O21 2.111639 1_555
Fe6 O28 2.111639 1_555
Fe7 O0 1.904174 1_555
Fe7 O6 1.904174 1_555
Fe7 O45 1.998252 1_555
Fe7 O36 1.998258 1_554
Fe7 O29 2.111639 1_555
Fe7 O20 2.111639 1_554
O8 Te0 1.985557 1_555
O8 Te15 1.985563 1_555
O9 Te14 1.985557 1_556
O9 Te1 1.985557 1_555
O10 Te2 1.985557 1_555
O10 Te13 1.985563 1_565
O11 Te3 1.985552 1_555
O11 Te12 1.985552 1_555
O12 Te4 1.985557 1_555
O12 Te11 1.985563 1_555
O13 Te5 1.985557 1_555
O13 Te10 1.985557 1_554
O14 Te6 1.985557 1_555
O14 Te9 1.985563 1_545
O15 Te8 1.985552 1_555
O15 Te7 1.985552 1_555
O16 Te0 1.931283 1_555
O17 Te1 1.931281 1_555
O18 Te2 1.931283 1_555
O19 Te3 1.931283 1_555
O20 Te4 1.931283 1_555
O21 Te5 1.931281 1_555
O22 Te6 1.931283 1_555
O23 Te7 1.931283 1_555
O24 Te8 1.931283 1_455
O25 Te9 1.931275 1_555
O26 Te10 1.931281 1_655
O27 Te11 1.931275 1_555
O28 Te12 1.931283 1_655
O29 Te13 1.931275 1_555
O30 Te14 1.931281 1_455
O31 Te15 1.931275 1_555
O32 Te7 1.930259 1_565
O32 Te0 2.435551 1_555
O33 Te6 1.930249 1_555
O33 Te1 2.435556 1_555
O34 Te12 1.930259 1_655
O34 Te2 2.435551 1_555
O35 Te13 1.930258 1_566
O35 Te3 2.435561 1_555
O36 Te3 1.930259 1_545
O36 Te4 2.435551 1_555
O37 Te2 1.930249 1_555
O37 Te5 2.435556 1_555
O38 Te8 1.930259 1_455
O38 Te6 2.435551 1_555
O39 Te9 1.930258 1_544
O39 Te7 2.435561 1_555
O40 Te15 1.930258 1_555
O40 Te8 2.435561 1_455
O41 Te14 1.930267 1_456
O41 Te9 2.435551 1_555
O42 Te4 1.930249 1_555
O42 Te10 2.435556 1_655
O43 Te5 1.930267 1_555
O43 Te11 2.435551 1_555
O44 Te11 1.930258 1_555
O44 Te12 2.435561 1_655
O45 Te10 1.930267 1_654
O45 Te13 2.435551 1_555
O46 Te0 1.930249 1_555
O46 Te14 2.435556 1_455
O47 Te1 1.930267 1_555
O47 Te15 2.435551 1_555
