# generated using pymatgen
data_Ba5Cd2Sb5F
_symmetry_space_group_name_H-M   'P 1'
_cell_length_a   12.02281719
_cell_length_b   12.02281719
_cell_length_c   15.56175300
_cell_angle_alpha   90.00000000
_cell_angle_beta   90.00000000
_cell_angle_gamma   156.05604763
_symmetry_Int_Tables_number   1
_chemical_formula_structural   Ba5Cd2Sb5F
_chemical_formula_sum   'Ba10 Cd4 Sb10 F2'
_cell_volume   912.91187267
_cell_formula_units_Z   2
loop_
 _symmetry_equiv_pos_site_id
 _symmetry_equiv_pos_as_xyz
  1  'x, y, z'
loop_
 _atom_site_type_symbol
 _atom_site_label
 _atom_site_symmetry_multiplicity
 _atom_site_fract_x
 _atom_site_fract_y
 _atom_site_fract_z
 _atom_site_occupancy
  Ba  Ba0  1  0.00000000  0.00000000  0.50000000  1
  Ba  Ba1  1  0.00000000  0.00000000  0.00000000  1
  Ba  Ba2  1  0.90449800  0.09550200  0.75000000  1
  Ba  Ba3  1  0.09550200  0.90449800  0.25000000  1
  Ba  Ba4  1  0.10143900  0.89856100  0.75000000  1
  Ba  Ba5  1  0.89856100  0.10143900  0.25000000  1
  Ba  Ba6  1  0.72532500  0.27467500  0.11791500  1
  Ba  Ba7  1  0.27467500  0.72532500  0.61791500  1
  Ba  Ba8  1  0.27467500  0.72532500  0.88208500  1
  Ba  Ba9  1  0.72532500  0.27467500  0.38208500  1
  Cd  Cd0  1  0.63348300  0.36651700  0.58925000  1
  Cd  Cd1  1  0.36651700  0.63348300  0.08925000  1
  Cd  Cd2  1  0.36651700  0.63348300  0.41075000  1
  Cd  Cd3  1  0.63348300  0.36651700  0.91075000  1
  Sb  Sb0  1  0.50947200  0.49052800  0.65847400  1
  Sb  Sb1  1  0.49052800  0.50947200  0.15847400  1
  Sb  Sb2  1  0.49052800  0.50947200  0.34152600  1
  Sb  Sb3  1  0.50947200  0.49052800  0.84152600  1
  Sb  Sb4  1  0.70809300  0.29190700  0.75000000  1
  Sb  Sb5  1  0.29190700  0.70809300  0.25000000  1
  Sb  Sb6  1  0.85117700  0.14882300  0.51014900  1
  Sb  Sb7  1  0.14882300  0.85117700  0.01014900  1
  Sb  Sb8  1  0.14882300  0.85117700  0.48985100  1
  Sb  Sb9  1  0.85117700  0.14882300  0.98985100  1
  F  F0  1  0.34989600  0.65010400  0.75000000  1
  F  F1  1  0.65010400  0.34989600  0.25000000  1
loop_
_geom_bond_atom_site_label_1
_geom_bond_atom_site_label_2
_geom_bond_distance
_geom_bond_site_symmetry_2
Ba0 Sb8 3.504268 1_545
Ba0 Sb6 3.504268 1_455
Ba0 Sb2 3.514421 1_555
Ba0 Sb0 3.514421 1_555
Ba0 Sb2 3.514421 1_445
Ba0 Sb0 3.514421 1_445
Ba1 Sb7 3.504268 1_545
Ba1 Sb9 3.504268 1_454
Ba1 Sb3 3.514421 1_554
Ba1 Sb1 3.514421 1_555
Ba1 Sb3 3.514421 1_444
Ba1 Sb1 3.514421 1_445
Ba2 F0 2.805233 1_545
Ba2 F0 2.805233 1_655
Ba2 Sb0 3.787559 1_545
Ba2 Sb3 3.787559 1_545
Ba2 Sb0 3.787559 1_655
Ba2 Sb3 3.787559 1_655
Ba2 Sb9 3.937603 1_555
Ba2 Sb6 3.937603 1_555
Ba3 F1 2.805233 1_455
Ba3 F1 2.805233 1_565
Ba3 Sb2 3.787559 1_455
Ba3 Sb1 3.787559 1_565
Ba3 Sb2 3.787559 1_565
Ba3 Sb1 3.787559 1_455
Ba3 Sb8 3.937603 1_555
Ba3 Sb7 3.937603 1_555
Ba4 Sb4 3.537468 1_455
Ba4 Sb4 3.537468 1_565
Ba4 Sb3 3.595585 1_565
Ba4 Sb0 3.595585 1_565
Ba4 Sb3 3.595585 1_455
Ba4 Sb0 3.595585 1_455
Ba4 Cd0 3.611871 1_455
Ba4 Cd3 3.611871 1_455
Ba4 Cd0 3.611871 1_565
Ba4 Cd3 3.611871 1_565
Ba5 Sb5 3.537468 1_545
Ba5 Sb5 3.537468 1_655
Ba5 Sb1 3.595585 1_655
Ba5 Sb2 3.595585 1_655
Ba5 Sb1 3.595585 1_545
Ba5 Sb2 3.595585 1_545
Ba5 Cd1 3.611871 1_545
Ba5 Cd2 3.611871 1_545
Ba5 Cd1 3.611871 1_655
Ba5 Cd2 3.611871 1_655
Ba6 F1 2.712145 1_555
Ba6 Sb7 3.502916 1_655
Ba6 Sb7 3.502916 1_545
Ba6 Sb9 3.568674 1_554
Ba6 Sb5 3.591323 1_655
Ba6 Sb5 3.591323 1_545
Ba7 F0 2.712145 1_555
Ba7 Sb6 3.502916 1_565
Ba7 Sb6 3.502916 1_455
Ba7 Sb8 3.568674 1_555
Ba7 Sb4 3.591323 1_565
Ba7 Sb4 3.591323 1_455
Ba8 F0 2.712145 1_555
Ba8 Sb9 3.502916 1_565
Ba8 Sb9 3.502916 1_455
Ba8 Sb7 3.568674 1_556
Ba8 Sb4 3.591323 1_565
Ba8 Sb4 3.591323 1_455
Ba9 F1 2.712145 1_555
Ba9 Sb8 3.502916 1_655
Ba9 Sb8 3.502916 1_545
Ba9 Sb6 3.568674 1_555
Ba9 Sb5 3.591323 1_655
Ba9 Sb5 3.591323 1_545
Cd0 Sb8 2.956782 1_655
Cd0 Sb8 2.956782 1_545
Cd0 Sb4 3.055792 1_555
Cd0 Sb0 3.109618 1_555
Cd1 Sb9 2.956782 1_564
Cd1 Sb9 2.956782 1_454
Cd1 Sb5 3.055792 1_555
Cd1 Sb1 3.109618 1_555
Cd2 Sb6 2.956782 1_565
Cd2 Sb6 2.956782 1_455
Cd2 Sb5 3.055792 1_555
Cd2 Sb2 3.109618 1_555
Cd3 Sb7 2.956782 1_656
Cd3 Sb7 2.956782 1_546
Cd3 Sb4 3.055792 1_555
Cd3 Sb3 3.109618 1_555
Sb0 Sb3 2.848610 1_555
Sb1 Sb2 2.848610 1_555
