# generated using pymatgen
data_Li8MnFe7(BO3)8
_symmetry_space_group_name_H-M   'P 1'
_cell_length_a   5.23191600
_cell_length_b   6.02793319
_cell_length_c   16.09255689
_cell_angle_alpha   81.48416542
_cell_angle_beta   89.53047187
_cell_angle_gamma   88.92184559
_symmetry_Int_Tables_number   1
_chemical_formula_structural   Li8MnFe7(BO3)8
_chemical_formula_sum   'Li8 Mn1 Fe7 B8 O24'
_cell_volume   501.82946540
_cell_formula_units_Z   1
loop_
 _symmetry_equiv_pos_site_id
 _symmetry_equiv_pos_as_xyz
  1  'x, y, z'
loop_
 _atom_site_type_symbol
 _atom_site_label
 _atom_site_symmetry_multiplicity
 _atom_site_fract_x
 _atom_site_fract_y
 _atom_site_fract_z
 _atom_site_occupancy
  Li  Li0  1  0.84770100  0.06612700  0.38899200  1
  Li  Li1  1  0.15123000  0.43573500  0.11095200  1
  Li  Li2  1  0.65322800  0.18261000  0.86102500  1
  Li  Li3  1  0.34899900  0.31630700  0.63929600  1
  Li  Li4  1  0.65233000  0.68710500  0.35860700  1
  Li  Li5  1  0.34861200  0.81324100  0.14121900  1
  Li  Li6  1  0.84923100  0.56399100  0.89122100  1
  Li  Li7  1  0.14980800  0.93426000  0.60905600  1
  Mn  Mn0  1  0.16839400  0.02707500  0.78992500  1
  Fe  Fe0  1  0.66274400  0.27741800  0.04020800  1
  Fe  Fe1  1  0.33774800  0.22218200  0.45993700  1
  Fe  Fe2  1  0.16402700  0.52275400  0.29267800  1
  Fe  Fe3  1  0.82105100  0.47471600  0.71027100  1
  Fe  Fe4  1  0.67347600  0.77536200  0.53891600  1
  Fe  Fe5  1  0.83702900  0.97683200  0.20737400  1
  Fe  Fe6  1  0.32431700  0.72243600  0.96153300  1
  B  B0  1  0.32894400  0.03879800  0.29689700  1
  B  B1  1  0.83007400  0.28754400  0.54626300  1
  B  B2  1  0.67088700  0.46166100  0.20298600  1
  B  B3  1  0.17276300  0.21252700  0.95443800  1
  B  B4  1  0.82750200  0.78686600  0.04663300  1
  B  B5  1  0.32960300  0.53501200  0.79672500  1
  B  B6  1  0.17350800  0.71281100  0.45350900  1
  B  B7  1  0.66849700  0.96489100  0.70193100  1
  O  O0  1  0.58992600  0.01302600  0.30818300  1
  O  O1  1  0.18339000  0.16894300  0.34556900  1
  O  O2  1  0.70590100  0.17454900  0.48879400  1
  O  O3  1  0.29413600  0.32753900  0.01150900  1
  O  O4  1  0.78633800  0.08070700  0.75947000  1
  O  O5  1  0.81644500  0.33089300  0.15437500  1
  O  O6  1  0.31994500  0.08045300  0.90717300  1
  O  O7  1  0.09013300  0.26207500  0.55713200  1
  O  O8  1  0.41006100  0.48727600  0.19166400  1
  O  O9  1  0.91264200  0.23661500  0.94254800  1
  O  O10  1  0.68710900  0.42018800  0.59459500  1
  O  O11  1  0.20559500  0.42187600  0.74004100  1
  O  O12  1  0.79524100  0.57487300  0.25998000  1
  O  O13  1  0.31591500  0.58113100  0.40457600  1
  O  O14  1  0.08936600  0.76470700  0.05834300  1
  O  O15  1  0.58985100  0.51275300  0.80859300  1
  O  O16  1  0.91235700  0.73669000  0.44228400  1
  O  O17  1  0.68447900  0.91876700  0.09505600  1
  O  O18  1  0.18664000  0.66700900  0.84590300  1
  O  O19  1  0.20473500  0.92560200  0.23959900  1
  O  O20  1  0.70663200  0.67210100  0.99014200  1
  O  O21  1  0.29585800  0.82590800  0.51031200  1
  O  O22  1  0.81664900  0.83031600  0.65522300  1
  O  O23  1  0.40895400  0.98774400  0.68834700  1
loop_
_geom_bond_atom_site_label_1
_geom_bond_atom_site_label_2
_geom_bond_distance
_geom_bond_site_symmetry_2
Li0 O0 1.944403 1_555
Li0 O2 1.957062 1_555
Li0 O1 1.962034 1_655
Li0 O16 2.066036 1_545
Li1 O8 1.944621 1_555
Li1 O3 1.953576 1_555
Li1 O5 1.961248 1_455
Li1 O14 2.058399 1_555
Li2 O4 1.948270 1_555
Li2 O9 1.959966 1_555
Li2 O6 1.963411 1_555
Li2 O15 2.065127 1_555
Li3 O7 1.965576 1_555
Li3 O11 1.965696 1_555
Li3 O10 1.981472 1_555
Li3 O23 2.040035 1_545
Li4 O12 1.953291 1_555
Li4 O16 1.979377 1_555
Li4 O13 1.983498 1_555
Li4 O0 2.032948 1_565
Li5 O19 1.952105 1_555
Li5 O14 1.965743 1_555
Li5 O17 1.981178 1_555
Li5 O8 2.032553 1_555
Li6 O20 1.945482 1_555
Li6 O15 1.967755 1_555
Li6 O18 1.979842 1_655
Li6 O9 2.045416 1_555
Li7 O23 1.933137 1_555
Li7 O21 1.950443 1_555
Li7 O22 1.965915 1_455
Li7 O7 2.047557 1_565
Mn0 O4 2.070040 1_455
Mn0 O23 2.093363 1_545
Mn0 O6 2.122790 1_555
Mn0 O18 2.223966 1_545
Mn0 O11 2.407277 1_555
Fe0 O3 1.993774 1_555
Fe0 O9 2.075701 1_554
Fe0 O5 2.082156 1_555
Fe0 O17 2.212048 1_545
Fe0 O20 2.410791 1_554
Fe1 O2 1.990600 1_555
Fe1 O7 2.061327 1_555
Fe1 O1 2.086043 1_555
Fe1 O13 2.215829 1_555
Fe1 O21 2.419595 1_545
Fe2 O12 2.010785 1_455
Fe2 O13 2.054161 1_555
Fe2 O8 2.098449 1_555
Fe2 O1 2.176923 1_555
Fe2 O19 2.464545 1_555
Fe3 O15 2.021116 1_555
Fe3 O10 2.067764 1_555
Fe3 O11 2.079712 1_655
Fe3 O22 2.194564 1_555
Fe3 O4 2.399521 1_555
Fe4 O16 2.024623 1_555
Fe4 O21 2.039287 1_555
Fe4 O22 2.095222 1_555
Fe4 O10 2.195181 1_555
Fe4 O2 2.430600 1_565
Fe5 O19 2.002970 1_655
Fe5 O17 2.061077 1_555
Fe5 O0 2.100143 1_565
Fe5 O5 2.178949 1_565
Fe5 O12 2.458601 1_555
Fe6 O14 2.019276 1_556
Fe6 O20 2.062975 1_555
Fe6 O18 2.075607 1_555
Fe6 O6 2.205115 1_565
Fe6 O3 2.404824 1_556
B0 O0 1.381760 1_555
B0 O19 1.396765 1_545
B0 O1 1.399496 1_555
B1 O7 1.376045 1_655
B1 O2 1.397982 1_555
B1 O10 1.398527 1_555
B2 O8 1.380956 1_555
B2 O12 1.393589 1_555
B2 O5 1.401262 1_555
B3 O9 1.377836 1_455
B3 O3 1.393585 1_556
B3 O6 1.397141 1_555
B4 O20 1.384582 1_554
B4 O14 1.385742 1_655
B4 O17 1.396739 1_555
B5 O15 1.377759 1_555
B5 O11 1.388783 1_555
B5 O18 1.404727 1_555
B6 O16 1.381710 1_455
B6 O21 1.385893 1_555
B6 O13 1.399466 1_555
B7 O23 1.378253 1_555
B7 O4 1.393517 1_565
B7 O22 1.404003 1_555
