# generated using pymatgen
data_Er2NiIr
_symmetry_space_group_name_H-M   'P 1'
_cell_length_a   4.73429565
_cell_length_b   4.73429565
_cell_length_c   4.73429565
_cell_angle_alpha   60.00000000
_cell_angle_beta   60.00000000
_cell_angle_gamma   60.00000000
_symmetry_Int_Tables_number   1
_chemical_formula_structural   Er2NiIr
_chemical_formula_sum   'Er2 Ni1 Ir1'
_cell_volume   75.03279586
_cell_formula_units_Z   1
loop_
 _symmetry_equiv_pos_site_id
 _symmetry_equiv_pos_as_xyz
  1  'x, y, z'
loop_
 _atom_site_type_symbol
 _atom_site_label
 _atom_site_symmetry_multiplicity
 _atom_site_fract_x
 _atom_site_fract_y
 _atom_site_fract_z
 _atom_site_occupancy
  Er  Er0  1  -0.00000000  -0.00000000  -0.00000000  1
  Er  Er1  1  0.50000000  0.50000000  0.50000000  1
  Ni  Ni0  1  0.74999900  0.74999900  0.74999900  1
  Ir  Ir0  1  0.24999900  0.24999900  0.24999900  1
loop_
_geom_bond_atom_site_label_1
_geom_bond_atom_site_label_2
_geom_bond_distance
_geom_bond_site_symmetry_2
Er0 Ir0 2.899141 1_555
Er0 Ni0 2.899148 1_454
Er0 Ni0 2.899148 1_544
Er0 Ni0 2.899148 1_445
Er0 Ir0 2.899156 1_455
Er0 Ir0 2.899156 1_545
Er0 Ir0 2.899156 1_554
Er0 Ni0 2.899164 1_444
Er1 Ni0 2.899141 1_555
Er1 Ir0 2.899148 1_556
Er1 Ir0 2.899148 1_565
Er1 Ir0 2.899148 1_655
Er1 Ni0 2.899156 1_545
Er1 Ni0 2.899156 1_455
Er1 Ni0 2.899156 1_554
Er1 Ir0 2.899164 1_555
