# generated using pymatgen
data_V5P3N
_symmetry_space_group_name_H-M   'P 1'
_cell_length_a   6.84816984
_cell_length_b   6.84816984
_cell_length_c   5.12748800
_cell_angle_alpha   90.00000000
_cell_angle_beta   90.00000000
_cell_angle_gamma   119.99999842
_symmetry_Int_Tables_number   1
_chemical_formula_structural   V5P3N
_chemical_formula_sum   'V10 P6 N2'
_cell_volume   208.24967680
_cell_formula_units_Z   2
loop_
 _symmetry_equiv_pos_site_id
 _symmetry_equiv_pos_as_xyz
  1  'x, y, z'
loop_
 _atom_site_type_symbol
 _atom_site_label
 _atom_site_symmetry_multiplicity
 _atom_site_fract_x
 _atom_site_fract_y
 _atom_site_fract_z
 _atom_site_occupancy
  V  V0  1  0.76868300  0.76868300  0.25000000  1
  V  V1  1  0.76868300  0.00000000  0.75000000  1
  V  V2  1  0.00000000  0.23131700  0.25000000  1
  V  V3  1  0.00000000  0.76868300  0.75000000  1
  V  V4  1  0.23131700  0.23131700  0.75000000  1
  V  V5  1  0.23131700  0.00000000  0.25000000  1
  V  V6  1  0.33333300  0.66666700  0.50000000  1
  V  V7  1  0.66666700  0.33333300  0.00000000  1
  V  V8  1  0.66666700  0.33333300  0.50000000  1
  V  V9  1  0.33333300  0.66666700  0.00000000  1
  P  P0  1  0.00000000  0.59535700  0.25000000  1
  P  P1  1  0.00000000  0.40464300  0.75000000  1
  P  P2  1  0.59535700  0.59535700  0.75000000  1
  P  P3  1  0.59535700  0.00000000  0.25000000  1
  P  P4  1  0.40464300  0.40464300  0.25000000  1
  P  P5  1  0.40464300  0.00000000  0.75000000  1
  N  N0  1  0.00000000  0.00000000  0.00000000  1
  N  N1  1  0.00000000  0.00000000  0.50000000  1
loop_
_geom_bond_atom_site_label_1
_geom_bond_atom_site_label_2
_geom_bond_distance
_geom_bond_site_symmetry_2
P0 V0 2.408013 1_455
P0 V5 2.408013 1_565
P0 V9 2.444942 1_555
P0 V6 2.444942 1_555
P0 V7 2.444943 1_455
P0 V8 2.444943 1_455
P0 V2 2.493008 1_555
P0 V3 2.825185 1_554
P0 V3 2.825185 1_555
P1 V4 2.408013 1_555
P1 V1 2.408013 1_455
P1 V7 2.444942 1_456
P1 V8 2.444942 1_455
P1 V6 2.444943 1_555
P1 V9 2.444943 1_556
P1 V3 2.493008 1_555
P1 V2 2.825185 1_555
P1 V2 2.825185 1_556
P2 V3 2.408013 1_655
P2 V1 2.408013 1_565
P2 V8 2.444947 1_555
P2 V9 2.444947 1_556
P2 V7 2.444947 1_556
P2 V6 2.444947 1_555
P2 V4 2.493008 1_555
P2 V0 2.825185 1_555
P2 V0 2.825185 1_556
P3 V0 2.408013 1_545
P3 V2 2.408013 1_655
P3 V8 2.444942 1_555
P3 V7 2.444942 1_555
P3 V9 2.444943 1_545
P3 V6 2.444943 1_545
P3 V5 2.493008 1_555
P3 V1 2.825185 1_554
P3 V1 2.825185 1_555
P4 V5 2.408013 1_555
P4 V2 2.408013 1_555
P4 V8 2.444947 1_555
P4 V9 2.444947 1_555
P4 V7 2.444947 1_555
P4 V6 2.444947 1_555
P4 V0 2.493008 1_555
P4 V4 2.825185 1_554
P4 V4 2.825185 1_555
P5 V4 2.408013 1_555
P5 V3 2.408013 1_545
P5 V9 2.444942 1_546
P5 V6 2.444942 1_545
P5 V7 2.444943 1_556
P5 V8 2.444943 1_555
P5 V1 2.493008 1_555
P5 V5 2.825185 1_556
P5 V5 2.825185 1_555
N0 V3 2.037784 1_544
N0 V2 2.037784 1_555
N0 V5 2.037784 1_555
N0 V1 2.037784 1_454
N0 V0 2.037784 1_445
N0 V4 2.037784 1_554
N1 V2 2.037784 1_555
N1 V3 2.037784 1_545
N1 V5 2.037784 1_555
N1 V1 2.037784 1_455
N1 V0 2.037784 1_445
N1 V4 2.037784 1_555
