# generated using pymatgen
data_Ce5Al2Ru3
_symmetry_space_group_name_H-M   'P 1'
_cell_length_a   8.38180782
_cell_length_b   8.38180782
_cell_length_c   8.38180782
_cell_angle_alpha   109.47122063
_cell_angle_beta   109.47122063
_cell_angle_gamma   109.47122063
_symmetry_Int_Tables_number   1
_chemical_formula_structural   Ce5Al2Ru3
_chemical_formula_sum   'Ce10 Al4 Ru6'
_cell_volume   453.30572705
_cell_formula_units_Z   2
loop_
 _symmetry_equiv_pos_site_id
 _symmetry_equiv_pos_as_xyz
  1  'x, y, z'
loop_
 _atom_site_type_symbol
 _atom_site_label
 _atom_site_symmetry_multiplicity
 _atom_site_fract_x
 _atom_site_fract_y
 _atom_site_fract_z
 _atom_site_occupancy
  Ce  Ce0  1  0.78967800  0.78967800  0.78967800  1
  Ce  Ce1  1  0.30684400  0.55684400  0.75000000  1
  Ce  Ce2  1  0.75000000  0.30684400  0.55684400  1
  Ce  Ce3  1  0.55684400  0.75000000  0.30684400  1
  Ce  Ce4  1  0.71032200  0.50000000  0.00000000  1
  Ce  Ce5  1  0.00000000  0.71032200  0.50000000  1
  Ce  Ce6  1  0.50000000  0.00000000  0.71032200  1
  Ce  Ce7  1  0.25000000  0.19315600  0.94315600  1
  Ce  Ce8  1  0.94315600  0.25000000  0.19315600  1
  Ce  Ce9  1  0.19315600  0.94315600  0.25000000  1
  Al  Al0  1  0.40328600  0.40328600  0.40328600  1
  Al  Al1  1  0.09671400  0.50000000  0.00000000  1
  Al  Al2  1  0.00000000  0.09671400  0.50000000  1
  Al  Al3  1  0.50000000  0.00000000  0.09671400  1
  Ru  Ru0  1  0.87392100  0.12392100  0.75000000  1
  Ru  Ru1  1  0.75000000  0.87392100  0.12392100  1
  Ru  Ru2  1  0.12392100  0.75000000  0.87392100  1
  Ru  Ru3  1  0.25000000  0.62607900  0.37607900  1
  Ru  Ru4  1  0.37607900  0.25000000  0.62607900  1
  Ru  Ru5  1  0.62607900  0.37607900  0.25000000  1
loop_
_geom_bond_atom_site_label_1
_geom_bond_atom_site_label_2
_geom_bond_distance
_geom_bond_site_symmetry_2
Ce0 Ru1 2.813687 1_556
Ce0 Ru0 2.813687 1_565
Ce0 Ru2 2.813687 1_655
Ce1 Ru4 2.765186 1_555
Ce1 Ru2 2.765186 1_555
Ce1 Ru3 3.284495 1_555
Ce1 Ru1 3.284495 1_556
Ce2 Ru5 2.765186 1_555
Ce2 Ru0 2.765186 1_555
Ce2 Ru4 3.284495 1_555
Ce2 Ru2 3.284495 1_655
Ce3 Ru3 2.765186 1_555
Ce3 Ru1 2.765186 1_555
Ce3 Ru5 3.284495 1_555
Ce3 Ru0 3.284495 1_565
Ce4 Ru1 2.813687 1_555
Ce4 Ru5 2.813687 1_555
Ce4 Ru4 2.813687 1_554
Ce5 Ru2 2.813687 1_555
Ce5 Ru3 2.813687 1_555
Ce5 Ru5 2.813687 1_455
Ce6 Ru0 2.813687 1_555
Ce6 Ru4 2.813687 1_555
Ce6 Ru3 2.813687 1_545
Ce7 Ru5 2.765186 1_556
Ce7 Ru0 2.765186 1_455
Ce7 Ru2 3.284495 1_545
Ce7 Ru4 3.284495 1_555
Ce8 Ru3 2.765186 1_655
Ce8 Ru1 2.765186 1_545
Ce8 Ru0 3.284495 1_554
Ce8 Ru5 3.284495 1_555
Ce9 Ru4 2.765186 1_565
Ce9 Ru2 2.765186 1_554
Ce9 Ru1 3.284495 1_455
Ce9 Ru3 3.284495 1_555
Al0 Ru4 2.622604 1_555
Al0 Ru5 2.622604 1_555
Al0 Ru3 2.622604 1_555
Al0 Ce9 3.207270 1_545
Al0 Ce7 3.207270 1_554
Al0 Ce8 3.207270 1_455
Al0 Ce0 3.238663 1_555
Al0 Ce3 3.243692 1_555
Al0 Ce1 3.243692 1_555
Al0 Ce2 3.243692 1_555
Al1 Ru2 2.622604 1_554
Al1 Ru3 2.622604 1_555
Al1 Ru0 2.622604 1_454
Al1 Ce1 3.207270 1_554
Al1 Ce7 3.207270 1_554
Al1 Ce3 3.207270 1_555
Al1 Ce4 3.238663 1_455
Al1 Ce2 3.243692 1_454
Al1 Ce8 3.243692 1_455
Al1 Ce9 3.243692 1_555
Al2 Ru0 2.622604 1_455
Al2 Ru4 2.622604 1_555
Al2 Ru1 2.622604 1_445
Al2 Ce2 3.207270 1_455
Al2 Ce8 3.207270 1_455
Al2 Ce1 3.207270 1_555
Al2 Ce5 3.238663 1_545
Al2 Ce3 3.243692 1_445
Al2 Ce7 3.243692 1_555
Al2 Ce9 3.243692 1_545
Al3 Ru1 2.622604 1_545
Al3 Ru5 2.622604 1_555
Al3 Ru2 2.622604 1_544
Al3 Ce9 3.207270 1_545
Al3 Ce3 3.207270 1_545
Al3 Ce2 3.207270 1_555
Al3 Ce6 3.238663 1_554
Al3 Ce7 3.243692 1_554
Al3 Ce8 3.243692 1_555
Al3 Ce1 3.243692 1_544
