# generated using pymatgen
data_LiBiPd2
_symmetry_space_group_name_H-M   'P 1'
_cell_length_a   4.59432306
_cell_length_b   4.59432306
_cell_length_c   4.59432306
_cell_angle_alpha   60.00000000
_cell_angle_beta   60.00000000
_cell_angle_gamma   60.00000000
_symmetry_Int_Tables_number   1
_chemical_formula_structural   LiBiPd2
_chemical_formula_sum   'Li1 Bi1 Pd2'
_cell_volume   68.57243837
_cell_formula_units_Z   1
loop_
 _symmetry_equiv_pos_site_id
 _symmetry_equiv_pos_as_xyz
  1  'x, y, z'
loop_
 _atom_site_type_symbol
 _atom_site_label
 _atom_site_symmetry_multiplicity
 _atom_site_fract_x
 _atom_site_fract_y
 _atom_site_fract_z
 _atom_site_occupancy
  Li  Li0  1  0.74999900  0.74999900  0.74999900  1
  Bi  Bi0  1  0.24999900  0.24999900  0.24999900  1
  Pd  Pd0  1  -0.00000000  0.00000000  -0.00000000  1
  Pd  Pd1  1  0.50000000  0.50000000  0.50000000  1
loop_
_geom_bond_atom_site_label_1
_geom_bond_atom_site_label_2
_geom_bond_distance
_geom_bond_site_symmetry_2
Li0 Pd1 2.813426 1_555
Li0 Pd0 2.813433 1_566
Li0 Pd0 2.813433 1_656
Li0 Pd0 2.813433 1_665
Li0 Pd1 2.813441 1_556
Li0 Pd1 2.813441 1_565
Li0 Pd1 2.813441 1_655
Li0 Pd0 2.813448 1_666
Bi0 Pd0 2.813426 1_555
Bi0 Pd1 2.813433 1_545
Bi0 Pd1 2.813433 1_554
Bi0 Pd1 2.813433 1_455
Bi0 Pd0 2.813441 1_565
Bi0 Pd0 2.813441 1_655
Bi0 Pd0 2.813441 1_556
Bi0 Pd1 2.813448 1_555
Bi0 Li0 3.248677 1_554
Bi0 Li0 3.248677 1_544
Bi0 Li0 3.248677 1_445
Bi0 Li0 3.248677 1_455
Bi0 Li0 3.248677 1_454
Bi0 Li0 3.248677 1_545
