# generated using pymatgen
data_Ti2ReNi
_symmetry_space_group_name_H-M   'P 1'
_cell_length_a   4.32157472
_cell_length_b   4.32157472
_cell_length_c   4.32157472
_cell_angle_alpha   60.00000000
_cell_angle_beta   60.00000000
_cell_angle_gamma   60.00000000
_symmetry_Int_Tables_number   1
_chemical_formula_structural   Ti2ReNi
_chemical_formula_sum   'Ti2 Re1 Ni1'
_cell_volume   57.07042165
_cell_formula_units_Z   1
loop_
 _symmetry_equiv_pos_site_id
 _symmetry_equiv_pos_as_xyz
  1  'x, y, z'
loop_
 _atom_site_type_symbol
 _atom_site_label
 _atom_site_symmetry_multiplicity
 _atom_site_fract_x
 _atom_site_fract_y
 _atom_site_fract_z
 _atom_site_occupancy
  Ti  Ti0  1  0.50000000  0.50000000  0.50000000  1
  Ti  Ti1  1  0.00000000  -0.00000000  -0.00000000  1
  Re  Re0  1  0.75000000  0.75000000  0.75000000  1
  Ni  Ni0  1  0.25000100  0.25000100  0.25000100  1
loop_
_geom_bond_atom_site_label_1
_geom_bond_atom_site_label_2
_geom_bond_distance
_geom_bond_site_symmetry_2
Re0 Ti1 2.646413 1_566
Re0 Ti1 2.646413 1_666
Re0 Ti0 2.646413 1_556
Re0 Ti1 2.646413 1_665
Re0 Ti0 2.646413 1_555
Re0 Ti1 2.646413 1_656
Re0 Ti0 2.646413 1_565
Re0 Ti0 2.646413 1_655
Ni0 Ti0 2.646403 1_555
Ni0 Ti1 2.646410 1_556
Ni0 Ti1 2.646410 1_565
Ni0 Ti1 2.646410 1_655
Ni0 Ti0 2.646417 1_545
Ni0 Ti0 2.646417 1_554
Ni0 Ti0 2.646417 1_455
Ni0 Ti1 2.646424 1_555
