# generated using pymatgen
data_HoAl3
_symmetry_space_group_name_H-M   'P 1'
_cell_length_a   12.39074847
_cell_length_b   12.39074847
_cell_length_c   12.39074842
_cell_angle_alpha   28.26785809
_cell_angle_beta   28.26785809
_cell_angle_gamma   28.26786089
_symmetry_Int_Tables_number   1
_chemical_formula_structural   HoAl3
_chemical_formula_sum   'Ho5 Al15'
_cell_volume   377.00521620
_cell_formula_units_Z   5
loop_
 _symmetry_equiv_pos_site_id
 _symmetry_equiv_pos_as_xyz
  1  'x, y, z'
loop_
 _atom_site_type_symbol
 _atom_site_label
 _atom_site_symmetry_multiplicity
 _atom_site_fract_x
 _atom_site_fract_y
 _atom_site_fract_z
 _atom_site_occupancy
  Ho  Ho0  1  0.59996251  0.59996251  0.59996251  1
  Ho  Ho1  1  0.40003749  0.40003749  0.40003749  1
  Ho  Ho2  1  0.86888956  0.86888956  0.86888956  1
  Ho  Ho3  1  0.13111044  0.13111044  0.13111044  1
  Ho  Ho4  1  -0.00000000  0.00000000  0.00000000  1
  Al  Al0  1  0.56614173  0.11761348  0.11761348  1
  Al  Al1  1  0.11761348  0.56614173  0.11761348  1
  Al  Al2  1  0.11761348  0.11761348  0.56614173  1
  Al  Al3  1  0.43385827  0.88238652  0.88238652  1
  Al  Al4  1  0.88238652  0.43385827  0.88238652  1
  Al  Al5  1  0.50000000  0.50000000  0.00000000  1
  Al  Al6  1  0.50000000  0.00000000  0.50000000  1
  Al  Al7  1  -0.00000000  0.50000000  0.50000000  1
  Al  Al8  1  0.63602886  0.63602886  0.12852752  1
  Al  Al9  1  0.63602886  0.12852752  0.63602886  1
  Al  Al10  1  0.12852752  0.63602886  0.63602886  1
  Al  Al11  1  0.36397114  0.36397114  0.87147248  1
  Al  Al12  1  0.36397114  0.87147248  0.36397114  1
  Al  Al13  1  0.87147248  0.36397114  0.36397114  1
  Al  Al14  1  0.88238652  0.88238652  0.43385827  1
loop_
_geom_bond_atom_site_label_1
_geom_bond_atom_site_label_2
_geom_bond_distance
_geom_bond_site_symmetry_2
Al0 Al2 2.714213 1_555
Al0 Al1 2.714214 1_555
Al0 Al6 2.888885 1_555
Al0 Al5 2.888885 1_555
Al0 Al12 2.912722 1_545
Al0 Al11 2.912722 1_554
Al0 Ho2 3.011570 1_544
Al0 Ho0 3.031079 1_554
Al0 Ho0 3.031079 1_545
Al0 Ho4 3.047636 1_655
Al1 Al2 2.714213 1_555
Al1 Al7 2.888885 1_555
Al1 Al5 2.888885 1_555
Al1 Al13 2.912722 1_455
Al1 Al11 2.912722 1_554
Al1 Ho2 3.011570 1_454
Al1 Ho0 3.031079 1_554
Al1 Ho0 3.031079 1_455
Al1 Ho4 3.047636 1_565
Al2 Al7 2.888885 1_555
Al2 Al6 2.888885 1_555
Al2 Ho2 3.011570 1_445
Al2 Ho0 3.031079 1_545
Al2 Ho0 3.031079 1_455
Al2 Ho4 3.047636 1_556
Al3 Al4 2.714214 1_555
Al3 Al6 2.888885 1_565
Al3 Al5 2.888885 1_556
Al3 Al9 2.912722 1_565
Al3 Al8 2.912722 1_556
Al3 Ho3 3.011570 1_566
Al3 Ho1 3.031079 1_556
Al3 Ho1 3.031079 1_565
Al3 Ho4 3.047636 1_566
Al4 Al7 2.888885 1_655
Al4 Al5 2.888885 1_556
Al4 Al8 2.912722 1_556
Al4 Ho3 3.011570 1_656
Al4 Ho1 3.031079 1_556
Al4 Ho1 3.031079 1_655
Al4 Ho4 3.047636 1_656
Al5 Ho0 2.951428 1_554
Al5 Ho1 2.951428 1_555
Al5 Al7 3.025688 1_555
Al5 Al7 3.025688 1_654
Al5 Al6 3.025688 1_555
Al5 Al6 3.025688 1_564
Al5 Ho4 3.025689 1_565
Al5 Ho4 3.025689 1_655
Al6 Ho1 2.951428 1_555
Al6 Ho0 2.951428 1_545
Al6 Ho4 3.025688 1_556
Al6 Ho4 3.025688 1_655
Al6 Al7 3.025689 1_555
Al6 Al7 3.025689 1_645
Al7 Ho1 2.951428 1_555
Al7 Ho0 2.951428 1_455
Al7 Ho4 3.025688 1_556
Al7 Ho4 3.025688 1_565
Al8 Ho1 2.970450 1_555
Al8 Al9 2.980295 1_564
Al8 Ho2 2.993796 1_554
Al8 Ho3 3.027031 1_655
Al8 Ho3 3.027031 1_565
Al8 Al9 3.071082 1_555
Al9 Ho1 2.970450 1_555
Al9 Ho2 2.993796 1_545
Al9 Ho3 3.027030 1_655
Al9 Ho3 3.027030 1_556
Al10 Al4 2.912722 1_455
Al10 Al14 2.912722 1_455
Al10 Al12 2.954800 1_555
Al10 Al11 2.954800 1_555
Al10 Ho1 2.970450 1_555
Al10 Al8 2.980295 1_456
Al10 Al9 2.980295 1_465
Al10 Ho2 2.993796 1_455
Al10 Ho3 3.027030 1_565
Al10 Ho3 3.027030 1_556
Al10 Al8 3.071082 1_555
Al10 Al9 3.071082 1_555
Al11 Al9 2.954800 1_555
Al11 Ho0 2.970450 1_555
Al11 Al12 2.980295 1_546
Al11 Al13 2.980295 1_456
Al11 Ho3 2.993796 1_556
Al11 Ho2 3.027031 1_545
Al11 Ho2 3.027031 1_455
Al11 Al13 3.071082 1_555
Al11 Al12 3.071082 1_555
Al12 Al2 2.912722 1_565
Al12 Al8 2.954800 1_555
Al12 Ho0 2.970450 1_555
Al12 Al13 2.980295 1_465
Al12 Ho3 2.993796 1_565
Al12 Ho2 3.027030 1_455
Al12 Ho2 3.027030 1_554
Al12 Al13 3.071082 1_555
Al13 Al2 2.912722 1_655
Al13 Al9 2.954800 1_555
Al13 Al8 2.954800 1_555
Al13 Ho0 2.970450 1_555
Al13 Ho3 2.993796 1_655
Al13 Ho2 3.027030 1_545
Al13 Ho2 3.027030 1_554
Al14 Al4 2.714213 1_555
Al14 Al3 2.714213 1_555
Al14 Al7 2.888885 1_655
Al14 Al6 2.888885 1_565
Al14 Al9 2.912722 1_565
Al14 Ho3 3.011570 1_665
Al14 Ho1 3.031079 1_565
Al14 Ho1 3.031079 1_655
Al14 Ho4 3.047636 1_665
