# generated using pymatgen
data_Li4Fe3Sn2Sb3O16
_symmetry_space_group_name_H-M   'P 1'
_cell_length_a   6.24651787
_cell_length_b   6.24651787
_cell_length_c   9.93564985
_cell_angle_alpha   89.32417420
_cell_angle_beta   89.32417420
_cell_angle_gamma   59.92250850
_symmetry_Int_Tables_number   1
_chemical_formula_structural   Li4Fe3Sn2Sb3O16
_chemical_formula_sum   'Li4 Fe3 Sn2 Sb3 O16'
_cell_volume   335.44627924
_cell_formula_units_Z   1
loop_
 _symmetry_equiv_pos_site_id
 _symmetry_equiv_pos_as_xyz
  1  'x, y, z'
loop_
 _atom_site_type_symbol
 _atom_site_label
 _atom_site_symmetry_multiplicity
 _atom_site_fract_x
 _atom_site_fract_y
 _atom_site_fract_z
 _atom_site_occupancy
  Li  Li0  1  0.66246900  0.66246900  0.11279200  1
  Li  Li1  1  0.98746000  0.98746000  0.01631300  1
  Li  Li2  1  0.99416600  0.99416600  0.49925500  1
  Li  Li3  1  0.32635000  0.32635000  0.59439300  1
  Fe  Fe0  1  0.83048800  0.83048800  0.78569100  1
  Fe  Fe1  1  0.17538900  0.66359600  0.28756300  1
  Fe  Fe2  1  0.66359600  0.17538900  0.28756300  1
  Sn  Sn0  1  0.67833500  0.67833500  0.49822400  1
  Sn  Sn1  1  0.34324100  0.34324100  0.02080900  1
  Sb  Sb0  1  0.33769400  0.83171000  0.78471700  1
  Sb  Sb1  1  0.83171000  0.33769400  0.78471700  1
  Sb  Sb2  1  0.17345100  0.17345100  0.28555300  1
  O  O0  1  0.32970100  0.85099400  0.40674500  1
  O  O1  1  0.51648600  0.51648600  0.66138600  1
  O  O2  1  0.66281500  0.66281500  0.89322200  1
  O  O3  1  0.00108300  0.00108300  0.68657700  1
  O  O4  1  0.01303600  0.01303600  0.19578100  1
  O  O5  1  0.85099400  0.32970100  0.40674500  1
  O  O6  1  0.51358300  0.95854700  0.66150300  1
  O  O7  1  0.95854700  0.51358300  0.66150300  1
  O  O8  1  0.16134900  0.16134900  0.89628200  1
  O  O9  1  0.84217100  0.84217100  0.40423800  1
  O  O10  1  0.03238600  0.46975400  0.15484100  1
  O  O11  1  0.46975400  0.03238600  0.15484100  1
  O  O12  1  0.32195300  0.32195300  0.39712000  1
  O  O13  1  0.16569400  0.67952300  0.89888400  1
  O  O14  1  0.48345600  0.48345600  0.15580800  1
  O  O15  1  0.67952300  0.16569400  0.89888400  1
loop_
_geom_bond_atom_site_label_1
_geom_bond_atom_site_label_2
_geom_bond_distance
_geom_bond_site_symmetry_2
Li0 O14 1.978436 1_555
Li0 O11 2.045914 1_565
Li0 O10 2.045914 1_655
Li0 O2 2.181523 1_554
Li1 O4 1.808211 1_665
Li1 O15 2.043652 1_564
Li1 O13 2.043652 1_654
Li1 O8 2.214363 1_664
Li2 O3 1.863689 1_665
Li2 O9 1.907864 1_555
Li2 O0 2.032897 1_655
Li2 O5 2.032897 1_565
Li3 O12 1.961261 1_555
Li3 O6 2.092806 1_545
Li3 O7 2.092806 1_455
Li3 O1 2.171511 1_555
Fe0 O3 2.080763 1_665
Fe0 O2 2.093370 1_555
Fe0 O6 2.127939 1_555
Fe0 O7 2.127939 1_555
Fe0 O13 2.142372 1_655
Fe0 O15 2.142372 1_565
Fe1 O4 2.092997 1_565
Fe1 O14 2.118453 1_555
Fe1 O9 2.137033 1_455
Fe1 O12 2.141889 1_555
Fe1 O0 2.211836 1_555
Fe1 O10 2.269927 1_555
Fe2 O4 2.092997 1_655
Fe2 O14 2.118453 1_555
Fe2 O9 2.137033 1_545
Fe2 O12 2.141889 1_555
Fe2 O5 2.211836 1_555
Fe2 O11 2.269927 1_555
O0 Sn0 2.097909 1_555
O0 Sb2 2.111784 1_565
O1 Sb0 2.108650 1_555
O1 Sb1 2.108650 1_555
O1 Sn0 2.370531 1_555
O2 Sb0 2.068075 1_555
O2 Sb1 2.068075 1_555
O3 Sb1 2.070144 1_455
O3 Sb0 2.070144 1_545
O4 Sb2 1.962729 1_555
O5 Sn0 2.097909 1_555
O5 Sb2 2.111784 1_655
O6 Sb0 2.037512 1_555
O6 Sn0 2.230847 1_555
O7 Sb1 2.037512 1_555
O7 Sn0 2.230847 1_555
O8 Sb0 2.105594 1_545
O8 Sb1 2.105594 1_455
O8 Sn1 2.339433 1_556
O9 Sn0 1.992847 1_555
O10 Sb2 2.055321 1_555
O10 Sn1 2.143384 1_555
O11 Sb2 2.055321 1_555
O11 Sn1 2.143384 1_555
O12 Sb2 1.964871 1_555
O13 Sb0 2.077092 1_555
O13 Sn1 2.178652 1_556
O14 Sn1 2.039040 1_555
O15 Sb1 2.077092 1_555
O15 Sn1 2.178652 1_556
