# generated using pymatgen
data_LaCrC6N6O5
_symmetry_space_group_name_H-M   'P 1'
_cell_length_a   13.56705100
_cell_length_b   8.08696100
_cell_length_c   8.14331293
_cell_angle_alpha   60.32492859
_cell_angle_beta   90.00000000
_cell_angle_gamma   90.00000000
_symmetry_Int_Tables_number   1
_chemical_formula_structural   LaCrC6N6O5
_chemical_formula_sum   'La2 Cr2 C12 N12 O10'
_cell_volume   776.27434903
_cell_formula_units_Z   2
loop_
 _symmetry_equiv_pos_site_id
 _symmetry_equiv_pos_as_xyz
  1  'x, y, z'
loop_
 _atom_site_type_symbol
 _atom_site_label
 _atom_site_symmetry_multiplicity
 _atom_site_fract_x
 _atom_site_fract_y
 _atom_site_fract_z
 _atom_site_occupancy
  La  La0  1  0.25000000  0.33267000  0.33595800  1
  La  La1  1  0.75000000  0.66733000  0.66404200  1
  Cr  Cr0  1  0.50000000  0.00000000  0.00000000  1
  Cr  Cr1  1  0.00000000  0.00000000  0.00000000  1
  C  C0  1  0.41392800  0.75335400  0.10329900  1
  C  C1  1  0.41335400  0.10912100  0.13767500  1
  C  C2  1  0.41531200  0.13836900  0.75556900  1
  C  C3  1  0.91392800  0.24664600  0.89670100  1
  C  C4  1  0.91335400  0.89087900  0.86232500  1
  C  C5  1  0.91531200  0.86163100  0.24443100  1
  C  C6  1  0.58607200  0.24664600  0.89670100  1
  C  C7  1  0.58664600  0.89087900  0.86232500  1
  C  C8  1  0.58468800  0.86163100  0.24443100  1
  C  C9  1  0.08607200  0.75335400  0.10329900  1
  C  C10  1  0.08664600  0.10912100  0.13767500  1
  C  C11  1  0.08468800  0.13836900  0.75556900  1
  N  N0  1  0.36642700  0.17167500  0.21542800  1
  N  N1  1  0.36960400  0.21759000  0.61569000  1
  N  N2  1  0.36740000  0.61277800  0.16813500  1
  N  N3  1  0.86642700  0.82832500  0.78457200  1
  N  N4  1  0.86960400  0.78241000  0.38431000  1
  N  N5  1  0.86740000  0.38722200  0.83186500  1
  N  N6  1  0.63357300  0.82832500  0.78457200  1
  N  N7  1  0.63039600  0.78241000  0.38431000  1
  N  N8  1  0.63260000  0.38722200  0.83186500  1
  N  N9  1  0.13357300  0.17167500  0.21542800  1
  N  N10  1  0.13039600  0.21759000  0.61569000  1
  N  N11  1  0.13260000  0.61277800  0.16813500  1
  O  O0  1  0.67008200  0.33427000  0.38274200  1
  O  O1  1  0.17008200  0.66573000  0.61725800  1
  O  O2  1  0.32991800  0.66573000  0.61725800  1
  O  O3  1  0.82991800  0.33427000  0.38274200  1
  O  O4  1  0.25000000  0.60689400  0.57487300  1
  O  O5  1  0.25000000  0.49511800  0.94284400  1
  O  O6  1  0.25000000  0.89558200  0.59345700  1
  O  O7  1  0.75000000  0.39310600  0.42512700  1
  O  O8  1  0.75000000  0.50488200  0.05715600  1
  O  O9  1  0.75000000  0.10441800  0.40654300  1
loop_
_geom_bond_atom_site_label_1
_geom_bond_atom_site_label_2
_geom_bond_distance
_geom_bond_site_symmetry_2
La0 N0 2.533542 1_555
La0 N9 2.533542 1_555
La0 N11 2.543732 1_555
La0 N2 2.543732 1_555
La0 N1 2.566925 1_555
La0 N10 2.566925 1_555
La0 O5 2.794584 1_554
La0 O6 3.090658 1_545
La1 N3 2.533542 1_555
La1 N6 2.533542 1_555
La1 N8 2.543732 1_555
La1 N5 2.543732 1_555
La1 N4 2.566925 1_555
La1 N7 2.566925 1_555
La1 O8 2.794584 1_556
La1 O9 3.090658 1_565
C0 N2 1.172734 1_555
C0 Cr0 2.094845 1_565
C1 N0 1.174433 1_555
C1 Cr0 2.096939 1_555
C2 N1 1.170434 1_555
C2 Cr0 2.080590 1_556
C3 N5 1.172734 1_555
C3 Cr1 2.094845 1_656
C4 N3 1.174433 1_555
C4 Cr1 2.096939 1_666
C5 N4 1.170434 1_555
C5 Cr1 2.080590 1_665
C6 N8 1.172734 1_555
C6 Cr0 2.094845 1_556
C7 N6 1.174433 1_555
C7 Cr0 2.096939 1_566
C8 N7 1.170434 1_555
C8 Cr0 2.080590 1_565
C9 N11 1.172734 1_555
C9 Cr1 2.094845 1_565
C10 N9 1.174433 1_555
C10 Cr1 2.096939 1_555
C11 N10 1.170434 1_555
C11 Cr1 2.080590 1_556
O0 O7 1.297587 1_555
O0 O9 2.076438 1_555
O1 O4 1.297587 1_555
O1 O6 2.076438 1_555
O2 O4 1.297587 1_555
O2 O6 2.076438 1_555
O3 O7 1.297587 1_555
O3 O9 2.076438 1_555
