# generated using pymatgen
data_PmMgCd2
_symmetry_space_group_name_H-M   'P 1'
_cell_length_a   5.13811417
_cell_length_b   5.13811417
_cell_length_c   5.13811417
_cell_angle_alpha   60.00000000
_cell_angle_beta   60.00000000
_cell_angle_gamma   60.00000000
_symmetry_Int_Tables_number   1
_chemical_formula_structural   PmMgCd2
_chemical_formula_sum   'Pm1 Mg1 Cd2'
_cell_volume   95.91714687
_cell_formula_units_Z   1
loop_
 _symmetry_equiv_pos_site_id
 _symmetry_equiv_pos_as_xyz
  1  'x, y, z'
loop_
 _atom_site_type_symbol
 _atom_site_label
 _atom_site_symmetry_multiplicity
 _atom_site_fract_x
 _atom_site_fract_y
 _atom_site_fract_z
 _atom_site_occupancy
  Pm  Pm0  1  0.75000000  0.75000000  0.75000000  1
  Mg  Mg0  1  0.25000100  0.25000100  0.25000100  1
  Cd  Cd0  1  0.49999900  0.49999900  0.49999900  1
  Cd  Cd1  1  -0.00000000  -0.00000000  0.00000000  1
loop_
_geom_bond_atom_site_label_1
_geom_bond_atom_site_label_2
_geom_bond_distance
_geom_bond_site_symmetry_2
Cd0 Mg0 3.146414 1_555
Cd0 Pm0 3.146435 1_545
Cd0 Pm0 3.146435 1_455
Cd0 Pm0 3.146435 1_554
Cd0 Mg0 3.146448 1_556
Cd0 Mg0 3.146448 1_655
Cd0 Mg0 3.146448 1_565
Cd0 Pm0 3.146452 1_555
Cd1 Mg0 3.146435 1_554
Cd1 Mg0 3.146435 1_455
Cd1 Mg0 3.146435 1_545
Cd1 Pm0 3.146439 1_445
Cd1 Pm0 3.146439 1_454
Cd1 Pm0 3.146439 1_444
Cd1 Pm0 3.146439 1_544
Cd1 Mg0 3.146452 1_555
