# generated using pymatgen
data_DyAgH2C2SO9
_symmetry_space_group_name_H-M   'P 1'
_cell_length_a   7.73725506
_cell_length_b   7.73725506
_cell_length_c   9.08685321
_cell_angle_alpha   65.99483862
_cell_angle_beta   65.99483862
_cell_angle_gamma   53.43510347
_symmetry_Int_Tables_number   1
_chemical_formula_structural   DyAgH2C2SO9
_chemical_formula_sum   'Dy2 Ag2 H4 C4 S2 O18'
_cell_volume   388.97382931
_cell_formula_units_Z   2
loop_
 _symmetry_equiv_pos_site_id
 _symmetry_equiv_pos_as_xyz
  1  'x, y, z'
loop_
 _atom_site_type_symbol
 _atom_site_label
 _atom_site_symmetry_multiplicity
 _atom_site_fract_x
 _atom_site_fract_y
 _atom_site_fract_z
 _atom_site_occupancy
  Dy  Dy0  1  0.75721200  0.75721200  0.26823500  1
  Dy  Dy1  1  0.24278800  0.24278800  0.73176500  1
  Ag  Ag0  1  0.91331800  0.91331800  0.66866400  1
  Ag  Ag1  1  0.08668200  0.08668200  0.33133600  1
  H  H0  1  0.58522300  0.58522300  0.14637100  1
  H  H1  1  0.41477700  0.41477700  0.85362900  1
  H  H2  1  0.69882100  0.69882100  0.98861800  1
  H  H3  1  0.30117900  0.30117900  0.01138200  1
  C  C0  1  0.98306300  0.98306300  0.93045100  1
  C  C1  1  0.01693700  0.01693700  0.06954900  1
  C  C2  1  0.39088900  0.60911100  0.50000000  1
  C  C3  1  0.60911100  0.39088900  0.50000000  1
  S  S0  1  0.66621600  0.66621600  0.71604500  1
  S  S1  1  0.33378400  0.33378400  0.28395500  1
  O  O0  1  0.66462300  0.66462300  0.10899600  1
  O  O1  1  0.33537700  0.33537700  0.89100400  1
  O  O2  1  0.55195100  0.55195100  0.75243800  1
  O  O3  1  0.44804900  0.44804900  0.24756200  1
  O  O4  1  0.52024300  0.86570600  0.79005400  1
  O  O5  1  0.13429400  0.47975700  0.20994600  1
  O  O6  1  0.47975700  0.13429400  0.20994600  1
  O  O7  1  0.86570600  0.52024300  0.79005400  1
  O  O8  1  0.73935300  0.73935300  0.53323300  1
  O  O9  1  0.26064700  0.26064700  0.46676700  1
  O  O10  1  0.39983400  0.78221800  0.41786300  1
  O  O11  1  0.21778200  0.60016600  0.58213700  1
  O  O12  1  0.60016600  0.21778200  0.58213700  1
  O  O13  1  0.78221800  0.39983400  0.41786300  1
  O  O14  1  0.05742900  0.05742900  0.78263400  1
  O  O15  1  0.94257100  0.94257100  0.21736600  1
  O  O16  1  0.88183900  0.88183900  0.97323500  1
  O  O17  1  0.11816100  0.11816100  0.02676500  1
loop_
_geom_bond_atom_site_label_1
_geom_bond_atom_site_label_2
_geom_bond_distance
_geom_bond_site_symmetry_2
Dy0 O8 2.306065 1_555
Dy0 O0 2.327760 1_555
Dy0 O5 2.367830 1_655
Dy0 O6 2.367830 1_565
Dy0 O15 2.387308 1_555
Dy0 O16 2.438639 1_554
Dy0 O13 2.459605 1_555
Dy0 O10 2.459605 1_555
Dy1 O9 2.306065 1_555
Dy1 O1 2.327760 1_555
Dy1 O4 2.367830 1_545
Dy1 O7 2.367830 1_455
Dy1 O14 2.387308 1_555
Dy1 O17 2.438639 1_556
Dy1 O11 2.459605 1_555
Dy1 O12 2.459605 1_555
Ag0 O12 2.297963 1_565
Ag0 O11 2.297963 1_655
Ag0 O16 2.598457 1_555
Ag0 O14 2.630495 1_665
Ag1 O10 2.297963 1_545
Ag1 O13 2.297963 1_455
Ag1 O17 2.598457 1_555
Ag1 O15 2.630495 1_445
H0 O0 0.990111 1_555
H0 O3 1.688928 1_555
H1 O1 0.990111 1_555
H1 O2 1.688928 1_555
H2 O0 0.974155 1_556
H3 O1 0.974155 1_554
C0 O14 1.266143 1_665
C0 O16 1.270156 1_555
C1 O15 1.266143 1_445
C1 O17 1.270156 1_555
C2 O11 1.269183 1_555
C2 O10 1.269183 1_555
C3 O12 1.269183 1_555
C3 O13 1.269183 1_555
O2 S0 1.458813 1_555
O3 S1 1.458813 1_555
O4 S0 1.503264 1_555
O5 S1 1.503264 1_555
O6 S1 1.503264 1_555
O7 S0 1.503264 1_555
O8 S0 1.500606 1_555
O9 S1 1.500606 1_555
