# generated using pymatgen
data_Yb11(Ni10C)6
_symmetry_space_group_name_H-M   'P 1'
_cell_length_a   10.67503789
_cell_length_b   10.67503789
_cell_length_c   10.67503789
_cell_angle_alpha   109.47122063
_cell_angle_beta   109.47122063
_cell_angle_gamma   109.47122063
_symmetry_Int_Tables_number   1
_chemical_formula_structural   Yb11(Ni10C)6
_chemical_formula_sum   'Yb11 Ni60 C6'
_cell_volume   936.45386174
_cell_formula_units_Z   1
loop_
 _symmetry_equiv_pos_site_id
 _symmetry_equiv_pos_as_xyz
  1  'x, y, z'
loop_
 _atom_site_type_symbol
 _atom_site_label
 _atom_site_symmetry_multiplicity
 _atom_site_fract_x
 _atom_site_fract_y
 _atom_site_fract_z
 _atom_site_occupancy
  Yb  Yb0  1  0.00000000  0.00000000  0.66530900  1
  Yb  Yb1  1  0.33469100  0.00000000  0.00000000  1
  Yb  Yb2  1  0.66530900  0.66530900  0.66530900  1
  Yb  Yb3  1  0.00000000  0.33469100  0.00000000  1
  Yb  Yb4  1  0.33469100  0.33469100  0.33469100  1
  Yb  Yb5  1  0.00000000  0.66530900  0.00000000  1
  Yb  Yb6  1  0.66530900  0.00000000  0.00000000  1
  Yb  Yb7  1  0.00000000  0.00000000  0.33469100  1
  Yb  Yb8  1  0.00000000  0.50000000  0.50000000  1
  Yb  Yb9  1  0.50000000  0.00000000  0.50000000  1
  Yb  Yb10  1  0.50000000  0.50000000  0.00000000  1
  Ni  Ni0  1  0.34759000  0.76716300  0.76716300  1
  Ni  Ni1  1  0.76716300  0.34759000  0.76716300  1
  Ni  Ni2  1  0.41957300  0.41957300  0.65241000  1
  Ni  Ni3  1  0.00000000  0.23283700  0.58042700  1
  Ni  Ni4  1  0.41957300  0.76716300  0.00000000  1
  Ni  Ni5  1  0.23283700  0.00000000  0.58042700  1
  Ni  Ni6  1  0.76716300  0.41957300  0.00000000  1
  Ni  Ni7  1  0.76716300  0.76716300  0.34759000  1
  Ni  Ni8  1  0.58042700  0.58042700  0.34759000  1
  Ni  Ni9  1  0.00000000  0.76716300  0.41957300  1
  Ni  Ni10  1  0.76716300  0.00000000  0.41957300  1
  Ni  Ni11  1  0.23283700  0.65241000  0.23283700  1
  Ni  Ni12  1  0.65241000  0.23283700  0.23283700  1
  Ni  Ni13  1  0.41957300  0.00000000  0.76716300  1
  Ni  Ni14  1  0.34759000  0.58042700  0.58042700  1
  Ni  Ni15  1  0.58042700  0.34759000  0.58042700  1
  Ni  Ni16  1  0.00000000  0.41957300  0.76716300  1
  Ni  Ni17  1  0.65241000  0.41957300  0.41957300  1
  Ni  Ni18  1  0.00000000  0.58042700  0.23283700  1
  Ni  Ni19  1  0.58042700  0.00000000  0.23283700  1
  Ni  Ni20  1  0.41957300  0.65241000  0.41957300  1
  Ni  Ni21  1  0.23283700  0.58042700  0.00000000  1
  Ni  Ni22  1  0.58042700  0.23283700  0.00000000  1
  Ni  Ni23  1  0.23283700  0.23283700  0.65241000  1
  Ni  Ni24  1  0.68396700  0.83251600  0.14854800  1
  Ni  Ni25  1  0.14854800  0.68396700  0.83251600  1
  Ni  Ni26  1  0.46458100  0.14854800  0.31603300  1
  Ni  Ni27  1  0.31603300  0.16748500  0.85145200  1
  Ni  Ni28  1  0.14854800  0.83251600  0.68396700  1
  Ni  Ni29  1  0.85145200  0.68396700  0.53541900  1
  Ni  Ni30  1  0.14854800  0.46458100  0.31603300  1
  Ni  Ni31  1  0.83251600  0.14854800  0.68396700  1
  Ni  Ni32  1  0.85145200  0.53541900  0.68396700  1
  Ni  Ni33  1  0.31603300  0.14854800  0.46458100  1
  Ni  Ni34  1  0.83251600  0.68396700  0.14854800  1
  Ni  Ni35  1  0.16748400  0.31603300  0.85145200  1
  Ni  Ni36  1  0.31603300  0.85145200  0.16748400  1
  Ni  Ni37  1  0.46458100  0.31603300  0.14854800  1
  Ni  Ni38  1  0.68396700  0.85145200  0.53541900  1
  Ni  Ni39  1  0.53541900  0.68396700  0.85145200  1
  Ni  Ni40  1  0.68396700  0.14854800  0.83251600  1
  Ni  Ni41  1  0.31603300  0.46458100  0.14854800  1
  Ni  Ni42  1  0.68396700  0.53541900  0.85145200  1
  Ni  Ni43  1  0.85145200  0.31603300  0.16748400  1
  Ni  Ni44  1  0.14854800  0.31603300  0.46458100  1
  Ni  Ni45  1  0.16748400  0.85145200  0.31603300  1
  Ni  Ni46  1  0.53541900  0.85145200  0.68396700  1
  Ni  Ni47  1  0.85145200  0.16748400  0.31603300  1
  Ni  Ni48  1  0.85752800  0.00000000  0.85752800  1
  Ni  Ni49  1  0.85752800  0.85752800  0.00000000  1
  Ni  Ni50  1  0.14247200  0.14247200  0.00000000  1
  Ni  Ni51  1  0.00000000  0.85752800  0.85752800  1
  Ni  Ni52  1  0.00000000  0.14247200  0.14247200  1
  Ni  Ni53  1  0.14247200  0.00000000  0.14247200  1
  Ni  Ni54  1  0.75000000  0.25000000  0.50000000  1
  Ni  Ni55  1  0.25000000  0.75000000  0.50000000  1
  Ni  Ni56  1  0.50000000  0.75000000  0.25000000  1
  Ni  Ni57  1  0.25000000  0.50000000  0.75000000  1
  Ni  Ni58  1  0.75000000  0.50000000  0.25000000  1
  Ni  Ni59  1  0.50000000  0.25000000  0.75000000  1
  C  C0  1  0.70941700  0.00000000  0.70941700  1
  C  C1  1  0.70941700  0.70941700  0.00000000  1
  C  C2  1  0.29058300  0.29058300  0.00000000  1
  C  C3  1  0.00000000  0.70941700  0.70941700  1
  C  C4  1  0.00000000  0.29058300  0.29058300  1
  C  C5  1  0.29058300  0.00000000  0.29058300  1
loop_
_geom_bond_atom_site_label_1
_geom_bond_atom_site_label_2
_geom_bond_distance
_geom_bond_site_symmetry_2
Ni0 Ni14 2.301796 1_555
Ni0 Ni13 2.344164 1_565
Ni0 Ni4 2.344164 1_556
Ni0 Ni25 2.435860 1_555
Ni0 Ni28 2.435860 1_555
Ni0 Ni46 2.477071 1_555
Ni0 Ni39 2.477071 1_555
Ni0 Ni55 2.606968 1_555
Ni0 Ni57 2.606968 1_555
Ni0 Yb6 2.915552 1_566
Ni0 Yb1 2.951700 1_566
Ni0 Yb8 3.240877 1_555
Ni1 Ni15 2.301796 1_555
Ni1 Ni6 2.344164 1_556
Ni1 Ni16 2.344164 1_655
Ni1 Ni40 2.435860 1_555
Ni1 Ni31 2.435860 1_555
Ni1 Ni32 2.477071 1_555
Ni1 Ni42 2.477071 1_555
Ni1 Ni54 2.606968 1_555
Ni1 Ni59 2.606968 1_555
Ni1 Yb5 2.915552 1_656
Ni1 Yb3 2.951700 1_656
Ni1 Yb9 3.240877 1_555
Ni2 Ni23 2.301796 1_555
Ni2 Ni42 2.435852 1_555
Ni2 Ni39 2.435852 1_555
Ni2 Ni33 2.477071 1_555
Ni2 Ni44 2.477071 1_555
Ni2 Ni57 2.606968 1_555
Ni2 Ni59 2.606968 1_555
Ni2 Yb4 2.915552 1_555
Ni2 Yb2 2.951700 1_555
Ni2 Yb10 3.240877 1_556
Ni3 Ni47 2.435849 1_455
Ni3 Ni44 2.435852 1_555
Ni3 Ni31 2.477063 1_455
Ni3 Ni35 2.477069 1_555
Ni3 Ni57 2.606968 1_555
Ni3 Ni54 2.606968 1_455
Ni3 Yb0 2.915552 1_555
Ni3 Yb7 2.951700 1_555
Ni3 Yb8 3.240877 1_555
Ni4 Ni56 2.606968 1_555
Ni4 Ni57 2.606968 1_554
Ni4 Yb1 2.915552 1_565
Ni4 Yb6 2.951700 1_565
Ni4 Yb10 3.240877 1_555
Ni5 Ni9 2.344164 1_545
Ni5 Ni55 2.606968 1_545
Ni5 Ni59 2.606968 1_555
Ni5 Yb0 2.915552 1_555
Ni5 Yb7 2.951700 1_555
Ni5 Yb9 3.240877 1_555
Ni6 Yb3 2.915552 1_655
Ni6 Yb5 2.951700 1_655
Ni6 Yb10 3.240877 1_555
Ni7 Ni8 2.301796 1_555
Ni7 Ni9 2.344164 1_655
Ni7 Yb0 2.915552 1_665
Ni7 Yb7 2.951700 1_665
Ni7 Yb10 3.240877 1_555
Ni8 Yb2 2.915552 1_555
Ni8 Yb4 2.951700 1_555
Ni8 Yb10 3.240877 1_555
Ni9 Yb7 2.915552 1_565
Ni9 Yb0 2.951700 1_565
Ni9 Yb8 3.240877 1_555
Ni10 Ni19 2.301796 1_555
Ni10 Ni7 2.344164 1_545
Ni10 Ni3 2.344164 1_655
Ni10 Ni31 2.435849 1_555
Ni10 Ni38 2.435852 1_545
Ni10 Ni47 2.477063 1_555
Ni10 Ni24 2.477069 1_545
Ni10 Ni54 2.606968 1_555
Ni10 Ni56 2.606968 1_545
Ni10 Yb7 2.915552 1_655
Ni10 Yb0 2.951700 1_655
Ni10 Yb9 3.240877 1_555
Ni11 Ni20 2.301796 1_555
Ni11 Ni18 2.344164 1_555
Ni11 Ni21 2.344164 1_555
Ni11 Ni36 2.435860 1_555
Ni11 Ni45 2.435860 1_555
Ni11 Ni41 2.477071 1_555
Ni11 Ni30 2.477071 1_555
Ni11 Ni55 2.606968 1_555
Ni11 Ni56 2.606968 1_555
Ni11 Yb3 2.915552 1_555
Ni11 Yb5 2.951700 1_555
Ni11 Yb9 3.240877 1_565
Ni12 Ni17 2.301796 1_555
Ni12 Ni19 2.344164 1_555
Ni12 Ni22 2.344164 1_555
Ni12 Ni43 2.435860 1_555
Ni12 Ni47 2.435860 1_555
Ni12 Ni26 2.477071 1_555
Ni12 Ni37 2.477071 1_555
Ni12 Ni54 2.606968 1_555
Ni12 Ni58 2.606968 1_555
Ni12 Yb1 2.915552 1_555
Ni12 Yb6 2.951700 1_555
Ni12 Yb8 3.240877 1_655
Ni13 Ni5 2.301796 1_555
Ni13 Ni22 2.344164 1_556
Ni13 Ni40 2.435849 1_555
Ni13 Ni46 2.435852 1_545
Ni13 Ni28 2.477069 1_545
Ni13 Ni27 2.477071 1_555
Ni13 Ni59 2.606968 1_555
Ni13 Ni55 2.606968 1_545
Ni13 Yb1 2.915552 1_556
Ni13 Yb6 2.951700 1_556
Ni13 Yb9 3.240877 1_555
Ni14 Ni2 2.344164 1_555
Ni14 Ni20 2.344164 1_555
Ni14 Ni30 2.435852 1_555
Ni14 Ni44 2.435852 1_555
Ni14 Ni46 2.477071 1_555
Ni14 Ni39 2.477071 1_555
Ni14 Ni57 2.606968 1_555
Ni14 Ni55 2.606968 1_555
Ni14 Yb2 2.915552 1_555
Ni14 Yb4 2.951700 1_555
Ni14 Yb8 3.240877 1_555
Ni15 Ni17 2.344164 1_555
Ni15 Ni2 2.344164 1_555
Ni15 Ni33 2.435852 1_555
Ni15 Ni26 2.435852 1_555
Ni15 Ni32 2.477071 1_555
Ni15 Ni42 2.477071 1_555
Ni15 Ni59 2.606968 1_555
Ni15 Ni54 2.606968 1_555
Ni15 Yb2 2.915552 1_555
Ni15 Yb4 2.951700 1_555
Ni15 Yb9 3.240877 1_555
Ni16 Ni3 2.301796 1_555
Ni16 Ni21 2.344164 1_556
Ni16 Ni25 2.435849 1_555
Ni16 Ni32 2.435852 1_455
Ni16 Ni35 2.477063 1_555
Ni16 Ni31 2.477069 1_455
Ni16 Ni54 2.606968 1_455
Ni16 Ni57 2.606968 1_555
Ni16 Yb3 2.915552 1_556
Ni16 Yb5 2.951700 1_556
Ni16 Yb8 3.240877 1_555
Ni17 Ni8 2.344164 1_555
Ni17 Ni29 2.435852 1_555
Ni17 Ni32 2.435852 1_555
Ni17 Ni26 2.477071 1_555
Ni17 Ni37 2.477071 1_555
Ni17 Ni58 2.606968 1_555
Ni17 Ni54 2.606968 1_555
Ni17 Yb4 2.915552 1_555
Ni17 Yb2 2.951700 1_555
Ni17 Yb8 3.240877 1_655
Ni18 Ni9 2.301796 1_555
Ni18 Ni6 2.344164 1_455
Ni18 Ni43 2.435849 1_455
Ni18 Ni30 2.435852 1_555
Ni18 Ni34 2.477063 1_455
Ni18 Ni45 2.477069 1_555
Ni18 Ni55 2.606968 1_555
Ni18 Ni58 2.606968 1_455
Ni18 Yb5 2.915552 1_555
Ni18 Yb3 2.951700 1_555
Ni18 Yb8 3.240877 1_555
Ni19 Ni4 2.344164 1_545
Ni19 Ni36 2.435849 1_545
Ni19 Ni26 2.435852 1_555
Ni19 Ni24 2.477063 1_545
Ni19 Ni47 2.477069 1_555
Ni19 Ni56 2.606968 1_545
Ni19 Ni54 2.606968 1_555
Ni19 Yb6 2.915552 1_555
Ni19 Yb1 2.951700 1_555
Ni19 Yb9 3.240877 1_555
Ni20 Ni8 2.344164 1_555
Ni20 Ni46 2.435852 1_555
Ni20 Ni38 2.435852 1_555
Ni20 Ni30 2.477071 1_555
Ni20 Ni41 2.477071 1_555
Ni20 Ni56 2.606968 1_555
Ni20 Ni55 2.606968 1_555
Ni20 Yb4 2.915552 1_555
Ni20 Yb2 2.951700 1_555
Ni20 Yb9 3.240877 1_565
Ni21 Ni4 2.301796 1_555
Ni21 Ni35 2.435849 1_554
Ni21 Ni41 2.435852 1_555
Ni21 Ni25 2.477063 1_554
Ni21 Ni36 2.477069 1_555
Ni21 Ni56 2.606968 1_555
Ni21 Ni57 2.606968 1_554
Ni21 Yb5 2.915552 1_555
Ni21 Yb3 2.951700 1_555
Ni21 Yb10 3.240877 1_555
Ni22 Ni6 2.301796 1_555
Ni22 Ni27 2.435852 1_554
Ni22 Ni37 2.435852 1_555
Ni22 Ni40 2.477063 1_554
Ni22 Ni43 2.477069 1_555
Ni22 Ni59 2.606968 1_554
Ni22 Ni58 2.606968 1_555
Ni22 Yb6 2.915552 1_555
Ni22 Yb1 2.951700 1_555
Ni22 Yb10 3.240877 1_555
Ni23 Ni5 2.344164 1_555
Ni23 Ni3 2.344164 1_555
Ni23 Ni27 2.435852 1_555
Ni23 Ni35 2.435860 1_555
Ni23 Ni44 2.477071 1_555
Ni23 Ni33 2.477071 1_555
Ni23 Ni59 2.606968 1_555
Ni23 Ni57 2.606968 1_555
Ni23 Yb7 2.915552 1_555
Ni23 Yb0 2.951700 1_555
Ni23 Yb10 3.240877 1_556
Ni24 Ni4 2.435849 1_555
Ni24 Ni7 2.435860 1_555
Ni24 Ni56 2.589629 1_555
Ni24 Yb6 2.769084 1_565
Ni24 Yb7 2.769093 1_665
Ni25 Ni4 2.477069 1_556
Ni25 Ni57 2.589629 1_555
Ni25 Yb5 2.769084 1_556
Ni25 Yb1 2.769093 1_566
Ni26 Ni54 2.589626 1_555
Ni26 Yb4 2.769093 1_555
Ni26 Yb1 2.769093 1_555
Ni27 Ni5 2.477071 1_555
Ni27 Ni59 2.589626 1_555
Ni27 Yb1 2.769093 1_556
Ni27 Yb0 2.769093 1_555
Ni28 Ni9 2.435849 1_555
Ni28 Ni5 2.477063 1_565
Ni28 Ni55 2.589629 1_555
Ni28 Yb0 2.769084 1_565
Ni28 Yb1 2.769093 1_566
Ni29 Ni9 2.435852 1_655
Ni29 Ni7 2.477071 1_555
Ni29 Ni8 2.477071 1_555
Ni29 Ni58 2.589626 1_555
Ni29 Yb0 2.769093 1_665
Ni29 Yb2 2.769093 1_555
Ni30 Ni55 2.589626 1_555
Ni30 Yb4 2.769093 1_555
Ni30 Yb3 2.769093 1_555
Ni31 Ni54 2.589629 1_555
Ni31 Yb0 2.769084 1_655
Ni31 Yb3 2.769093 1_656
Ni32 Ni54 2.589626 1_555
Ni32 Yb5 2.769093 1_656
Ni32 Yb2 2.769093 1_555
Ni33 Ni5 2.435852 1_555
Ni33 Ni59 2.589626 1_555
Ni33 Yb7 2.769093 1_555
Ni33 Yb4 2.769093 1_555
Ni34 Ni6 2.435849 1_555
Ni34 Ni7 2.435860 1_555
Ni34 Ni9 2.477069 1_655
Ni34 Ni58 2.589629 1_555
Ni34 Yb5 2.769084 1_655
Ni34 Yb7 2.769093 1_665
Ni35 Ni57 2.589629 1_555
Ni35 Yb3 2.769084 1_556
Ni35 Yb0 2.769093 1_555
Ni36 Ni4 2.477063 1_555
Ni36 Ni56 2.589629 1_555
Ni36 Yb1 2.769084 1_565
Ni36 Yb5 2.769093 1_555
Ni37 Ni8 2.435852 1_555
Ni37 Ni58 2.589626 1_555
Ni37 Yb4 2.769093 1_555
Ni37 Yb1 2.769093 1_555
Ni38 Ni8 2.477071 1_555
Ni38 Ni7 2.477071 1_555
Ni38 Ni56 2.589626 1_555
Ni38 Yb0 2.769093 1_665
Ni38 Yb2 2.769093 1_555
Ni39 Ni4 2.435852 1_556
Ni39 Ni57 2.589626 1_555
Ni39 Yb2 2.769093 1_555
Ni39 Yb6 2.769093 1_566
Ni40 Ni6 2.477069 1_556
Ni40 Ni59 2.589629 1_555
Ni40 Yb6 2.769084 1_556
Ni40 Yb3 2.769093 1_656
Ni41 Ni8 2.435852 1_555
Ni41 Ni56 2.589626 1_555
Ni41 Yb4 2.769093 1_555
Ni41 Yb3 2.769093 1_555
Ni42 Ni6 2.435852 1_556
Ni42 Ni59 2.589626 1_555
Ni42 Yb2 2.769093 1_555
Ni42 Yb5 2.769093 1_656
Ni43 Ni6 2.477063 1_555
Ni43 Ni58 2.589629 1_555
Ni43 Yb3 2.769084 1_655
Ni43 Yb6 2.769093 1_555
Ni44 Ni57 2.589626 1_555
Ni44 Yb7 2.769093 1_555
Ni44 Yb4 2.769093 1_555
Ni45 Ni5 2.435849 1_565
Ni45 Ni9 2.477063 1_555
Ni45 Ni55 2.589629 1_555
Ni45 Yb7 2.769084 1_565
Ni45 Yb5 2.769093 1_555
Ni46 Ni55 2.589626 1_555
Ni46 Yb2 2.769093 1_555
Ni46 Yb6 2.769093 1_566
Ni47 Ni54 2.589629 1_555
Ni47 Yb7 2.769084 1_655
Ni47 Yb6 2.769093 1_555
Ni48 Yb2 2.933279 1_545
Ni48 Yb6 2.933279 1_556
Ni48 Yb0 2.933279 1_655
Ni48 Yb3 2.933279 1_656
Ni49 Yb2 2.933279 1_554
Ni49 Yb5 2.933279 1_655
Ni49 Yb6 2.933279 1_565
Ni49 Yb7 2.933279 1_665
Ni50 Yb0 2.933279 1_554
Ni50 Yb4 2.933279 1_555
Ni50 Yb1 2.933279 1_555
Ni50 Yb3 2.933279 1_555
Ni51 Yb2 2.933279 1_455
Ni51 Yb0 2.933279 1_565
Ni51 Yb5 2.933279 1_556
Ni51 Yb1 2.933279 1_566
Ni52 Yb6 2.933279 1_455
Ni52 Yb3 2.933279 1_555
Ni52 Yb7 2.933279 1_555
Ni52 Yb4 2.933279 1_555
Ni53 Yb4 2.933279 1_555
Ni53 Yb5 2.933279 1_545
Ni53 Yb1 2.933279 1_555
Ni53 Yb7 2.933279 1_555
Ni54 Yb9 3.081618 1_555
Ni54 Yb8 3.081618 1_655
Ni55 Ni9 2.606968 1_555
Ni55 Yb9 3.081618 1_565
Ni55 Yb8 3.081618 1_555
Ni56 Ni8 2.606968 1_555
Ni56 Ni7 2.606968 1_555
Ni56 Yb9 3.081618 1_565
Ni56 Yb10 3.081618 1_555
Ni57 Yb10 3.081618 1_556
Ni57 Yb8 3.081618 1_555
Ni58 Ni9 2.606968 1_655
Ni58 Ni8 2.606968 1_555
Ni58 Ni7 2.606968 1_555
Ni58 Ni6 2.606968 1_555
Ni58 Yb10 3.081618 1_555
Ni58 Yb8 3.081618 1_655
Ni59 Ni6 2.606968 1_556
Ni59 Yb10 3.081618 1_556
Ni59 Yb9 3.081618 1_555
C0 Ni48 1.825686 1_555
C0 Ni46 1.857751 1_545
C0 Ni38 1.857751 1_545
C0 Ni40 1.857757 1_555
C0 Ni31 1.857757 1_555
C0 Yb9 2.581373 1_555
C1 Ni49 1.825686 1_555
C1 Ni39 1.857751 1_554
C1 Ni42 1.857751 1_554
C1 Ni24 1.857757 1_555
C1 Ni34 1.857757 1_555
C1 Yb10 2.581373 1_555
C2 Ni50 1.825686 1_555
C2 Ni41 1.857751 1_555
C2 Ni27 1.857751 1_554
C2 Ni37 1.857751 1_555
C2 Ni35 1.857757 1_554
C2 Yb10 2.581373 1_555
C3 Ni51 1.825686 1_555
C3 Ni32 1.857751 1_455
C3 Ni29 1.857751 1_455
C3 Ni28 1.857757 1_555
C3 Ni25 1.857757 1_555
C3 Yb8 2.581373 1_555
C4 Ni52 1.825686 1_555
C4 Ni44 1.857751 1_555
C4 Ni30 1.857751 1_555
C4 Ni47 1.857757 1_455
C4 Ni43 1.857757 1_455
C4 Yb8 2.581373 1_555
C5 Ni53 1.825686 1_555
C5 Ni26 1.857751 1_555
C5 Ni33 1.857751 1_555
C5 Ni45 1.857757 1_545
C5 Ni36 1.857757 1_545
C5 Yb9 2.581373 1_555
