# generated using pymatgen
data_FeOF
_symmetry_space_group_name_H-M   'P 1'
_cell_length_a   3.09626400
_cell_length_b   14.18934500
_cell_length_c   14.24142161
_cell_angle_alpha   89.98327967
_cell_angle_beta   90.00000000
_cell_angle_gamma   90.00000000
_symmetry_Int_Tables_number   1
_chemical_formula_structural   FeOF
_chemical_formula_sum   'Fe18 O18 F18'
_cell_volume   625.68199360
_cell_formula_units_Z   18
loop_
 _symmetry_equiv_pos_site_id
 _symmetry_equiv_pos_as_xyz
  1  'x, y, z'
loop_
 _atom_site_type_symbol
 _atom_site_label
 _atom_site_symmetry_multiplicity
 _atom_site_fract_x
 _atom_site_fract_y
 _atom_site_fract_z
 _atom_site_occupancy
  Fe  Fe0  1  0.00000000  0.98622200  0.99839100  1
  Fe  Fe1  1  0.00000000  0.99891600  0.33302100  1
  Fe  Fe2  1  0.00000000  0.98754500  0.66263800  1
  Fe  Fe3  1  0.50000000  0.83189400  0.15058100  1
  Fe  Fe4  1  0.50000000  0.82793600  0.51653800  1
  Fe  Fe5  1  0.50000000  0.84719000  0.82940200  1
  Fe  Fe6  1  0.00000000  0.66126700  0.00382200  1
  Fe  Fe7  1  0.00000000  0.65466800  0.33116700  1
  Fe  Fe8  1  0.00000000  0.66147200  0.65767100  1
  Fe  Fe9  1  0.50000000  0.51441300  0.49860800  1
  Fe  Fe10  1  0.50000000  0.51282100  0.16413900  1
  Fe  Fe11  1  0.50000000  0.49899400  0.85077200  1
  Fe  Fe12  1  0.00000000  0.32714800  0.99158000  1
  Fe  Fe13  1  0.00000000  0.32056900  0.33134600  1
  Fe  Fe14  1  0.00000000  0.32240600  0.66603200  1
  Fe  Fe15  1  0.50000000  0.18472300  0.15901700  1
  Fe  Fe16  1  0.50000000  0.18205500  0.50030800  1
  Fe  Fe17  1  0.50000000  0.17889500  0.83184700  1
  O  O0  1  0.50000000  0.93820800  0.59728300  1
  O  O1  1  0.50000000  0.93524400  0.93579100  1
  O  O2  1  0.00000000  0.90116600  0.10641500  1
  O  O3  1  0.00000000  0.89810700  0.76509800  1
  O  O4  1  0.00000000  0.76643800  0.56752400  1
  O  O5  1  0.50000000  0.72965700  0.06156600  1
  O  O6  1  0.50000000  0.60309700  0.26911500  1
  O  O7  1  0.50000000  0.59833200  0.60659400  1
  O  O8  1  0.50000000  0.60614400  0.93433500  1
  O  O9  1  0.00000000  0.56106100  0.10079900  1
  O  O10  1  0.00000000  0.56682800  0.43671400  1
  O  O11  1  0.00000000  0.43433400  0.89996800  1
  O  O12  1  0.50000000  0.26682500  0.26929400  1
  O  O13  1  0.50000000  0.27038500  0.60353100  1
  O  O14  1  0.50000000  0.26638900  0.93554200  1
  O  O15  1  0.00000000  0.23498800  0.09878400  1
  O  O16  1  0.00000000  0.23067300  0.43611300  1
  O  O17  1  0.00000000  0.23062800  0.76815700  1
  F  F0  1  0.50000000  0.92891400  0.26900600  1
  F  F1  1  0.00000000  0.89642300  0.43417300  1
  F  F2  1  0.00000000  0.77039400  0.23485600  1
  F  F3  1  0.00000000  0.76986000  0.89215100  1
  F  F4  1  0.50000000  0.72960200  0.73567100  1
  F  F5  1  0.50000000  0.73744700  0.39725300  1
  F  F6  1  0.00000000  0.56433600  0.76955400  1
  F  F7  1  0.00000000  0.43337400  0.23547700  1
  F  F8  1  0.00000000  0.43431900  0.56495400  1
  F  F9  1  0.50000000  0.39711200  0.06947400  1
  F  F10  1  0.50000000  0.39845900  0.39974000  1
  F  F11  1  0.50000000  0.40347800  0.73014300  1
  F  F12  1  0.00000000  0.09925500  0.22998200  1
  F  F13  1  0.00000000  0.10227900  0.56683000  1
  F  F14  1  0.00000000  0.09934000  0.89848000  1
  F  F15  1  0.50000000  0.06700600  0.06611500  1
  F  F16  1  0.50000000  0.06504900  0.40391500  1
  F  F17  1  0.50000000  0.06571900  0.73272400  1
loop_
_geom_bond_atom_site_label_1
_geom_bond_atom_site_label_2
_geom_bond_distance
_geom_bond_site_symmetry_2
Fe0 O1 1.927462 1_555
Fe0 O1 1.927462 1_455
Fe0 O2 1.955050 1_556
Fe2 O3 1.933557 1_555
Fe2 O0 1.937387 1_555
Fe2 O0 1.937387 1_455
Fe3 O5 1.926810 1_555
Fe3 O2 1.938586 1_555
Fe3 O2 1.938586 1_655
Fe4 O4 1.919646 1_555
Fe4 O4 1.919646 1_655
Fe4 O0 1.942066 1_555
Fe5 O3 1.938287 1_555
Fe5 O3 1.938287 1_655
Fe5 O1 1.964128 1_555
Fe6 O9 1.981904 1_555
Fe6 O8 1.997056 1_554
Fe6 O8 1.997056 1_454
Fe6 O5 2.003782 1_455
Fe6 O5 2.003782 1_555
Fe7 O6 1.927045 1_455
Fe7 O6 1.927045 1_555
Fe7 O10 1.952390 1_555
Fe8 O7 1.931031 1_555
Fe8 O7 1.931031 1_455
Fe8 O4 1.966060 1_555
Fe9 O10 1.930399 1_655
Fe9 O10 1.930399 1_555
Fe9 O7 1.945257 1_555
Fe10 O9 1.917963 1_555
Fe10 O9 1.917963 1_655
Fe10 O6 1.969014 1_555
Fe11 O8 1.931028 1_555
Fe11 O11 1.931057 1_555
Fe11 O11 1.931057 1_655
Fe12 O14 1.943524 1_555
Fe12 O14 1.943524 1_455
Fe12 O11 2.003542 1_555
Fe12 O15 2.009929 1_556
Fe13 O12 1.938967 1_455
Fe13 O12 1.938967 1_555
Fe13 O16 1.962680 1_555
Fe14 O13 1.932417 1_455
Fe14 O13 1.932417 1_555
Fe14 O17 1.951947 1_555
Fe15 O15 1.908108 1_655
Fe15 O15 1.908108 1_555
Fe15 O12 1.955685 1_555
Fe16 O16 1.925633 1_555
Fe16 O16 1.925633 1_655
Fe16 O13 1.932090 1_555
Fe17 O14 1.929555 1_555
Fe17 O17 1.938525 1_655
Fe17 O17 1.938525 1_555
F0 Fe1 2.053043 1_655
F0 Fe1 2.053043 1_555
F0 Fe3 2.177370 1_555
F1 Fe1 2.046697 1_555
F1 Fe4 2.171712 1_455
F1 Fe4 2.171712 1_555
F2 Fe7 2.139253 1_555
F2 Fe3 2.144313 1_555
F2 Fe3 2.144313 1_455
F3 Fe5 2.097310 1_555
F3 Fe5 2.097310 1_455
F3 Fe6 2.214059 1_556
F4 Fe8 2.136781 1_655
F4 Fe8 2.136781 1_555
F4 Fe5 2.137063 1_555
F5 Fe4 2.129732 1_555
F5 Fe7 2.159346 1_655
F5 Fe7 2.159346 1_555
F6 Fe8 2.106480 1_555
F6 Fe11 2.143263 1_455
F6 Fe11 2.143263 1_555
F7 Fe13 2.103524 1_555
F7 Fe10 2.167721 1_555
F7 Fe10 2.167721 1_455
F8 Fe9 2.140196 1_455
F8 Fe9 2.140196 1_555
F8 Fe14 2.143004 1_555
F9 Fe10 2.124726 1_555
F9 Fe12 2.147903 1_554
F9 Fe12 2.147903 1_654
F10 Fe13 2.137184 1_655
F10 Fe13 2.137184 1_555
F10 Fe9 2.165854 1_555
F11 Fe14 2.134075 1_555
F11 Fe14 2.134075 1_655
F11 Fe11 2.188493 1_555
F12 Fe1 2.044299 1_545
F12 Fe15 2.210910 1_455
F12 Fe15 2.210910 1_555
F13 Fe2 2.123862 1_545
F13 Fe16 2.138913 1_555
F13 Fe16 2.138913 1_455
F14 Fe17 2.137956 1_455
F14 Fe17 2.137956 1_555
F14 Fe0 2.144642 1_545
F15 Fe15 2.131141 1_555
F15 Fe0 2.154421 1_644
F15 Fe0 2.154421 1_544
F16 Fe1 2.072965 1_545
F16 Fe1 2.072965 1_645
F16 Fe16 2.154583 1_555
F17 Fe17 2.138452 1_555
F17 Fe2 2.150353 1_645
F17 Fe2 2.150353 1_545
