# generated using pymatgen
data_Ti7Cr12O48
_symmetry_space_group_name_H-M   'P 1'
_cell_length_a   5.04251900
_cell_length_b   10.48460031
_cell_length_c   17.45707513
_cell_angle_alpha   90.18952697
_cell_angle_beta   91.07304523
_cell_angle_gamma   90.16844587
_symmetry_Int_Tables_number   1
_chemical_formula_structural   Ti7Cr12O48
_chemical_formula_sum   'Ti7 Cr12 O48'
_cell_volume   922.76348845
_cell_formula_units_Z   1
loop_
 _symmetry_equiv_pos_site_id
 _symmetry_equiv_pos_as_xyz
  1  'x, y, z'
loop_
 _atom_site_type_symbol
 _atom_site_label
 _atom_site_symmetry_multiplicity
 _atom_site_fract_x
 _atom_site_fract_y
 _atom_site_fract_z
 _atom_site_occupancy
  Ti  Ti0  1  0.09389900  0.25880000  0.25202400  1
  Ti  Ti1  1  0.25718200  0.08018100  0.97312300  1
  Ti  Ti2  1  0.28550600  0.92993800  0.47642700  1
  Ti  Ti3  1  0.71517300  0.43262400  0.52380100  1
  Ti  Ti4  1  0.73655900  0.57267000  0.01943100  1
  Ti  Ti5  1  0.74437700  0.91544800  0.03536200  1
  Ti  Ti6  1  0.92525800  0.74729100  0.75206300  1
  Cr  Cr0  1  0.20256700  0.75570400  0.94317500  1
  Cr  Cr1  1  0.20556000  0.02200200  0.65704800  1
  Cr  Cr2  1  0.21037900  0.47473500  0.65332800  1
  Cr  Cr3  1  0.26862200  0.52728900  0.15417600  1
  Cr  Cr4  1  0.27103400  0.97308100  0.16044800  1
  Cr  Cr5  1  0.26251600  0.25204500  0.44546800  1
  Cr  Cr6  1  0.73522200  0.75157900  0.55399000  1
  Cr  Cr7  1  0.72100500  0.02514800  0.84682000  1
  Cr  Cr8  1  0.73418600  0.47924400  0.84211400  1
  Cr  Cr9  1  0.79399900  0.52467100  0.34348100  1
  Cr  Cr10  1  0.78537700  0.97803800  0.34567700  1
  Cr  Cr11  1  0.78685900  0.24698800  0.05894900  1
  O  O0  1  0.06003400  0.22193600  0.99533600  1
  O  O1  1  0.04640100  0.60782400  0.36819500  1
  O  O2  1  0.05182200  0.90064800  0.38467000  1
  O  O3  1  0.12885400  0.62599300  0.20893900  1
  O  O4  1  0.09127300  0.87374000  0.20407800  1
  O  O5  1  0.11760700  0.11668500  0.46674000  1
  O  O6  1  0.05383000  0.36637000  0.46756600  1
  O  O7  1  0.07823400  0.99721200  0.06886400  1
  O  O8  1  0.06231200  0.50638900  0.07899900  1
  O  O9  1  0.12038500  0.75254300  0.84533100  1
  O  O10  1  0.12568200  0.61324100  0.69771600  1
  O  O11  1  0.10946100  0.88195900  0.70317000  1
  O  O12  1  0.31033500  0.11739500  0.20405400  1
  O  O13  1  0.30490200  0.38195000  0.20119500  1
  O  O14  1  0.31719100  0.25518300  0.35051800  1
  O  O15  1  0.38127800  0.98885700  0.57233100  1
  O  O16  1  0.42863100  0.50067100  0.58001500  1
  O  O17  1  0.41695800  0.89435100  0.96872600  1
  O  O18  1  0.43898800  0.63860700  0.97329700  1
  O  O19  1  0.40377100  0.10265900  0.71123200  1
  O  O20  1  0.35897000  0.38148400  0.71025600  1
  O  O21  1  0.44036900  0.10250800  0.87944900  1
  O  O22  1  0.46464000  0.40878200  0.86354900  1
  O  O23  1  0.45447900  0.76947200  0.49709100  1
  O  O24  1  0.54216200  0.27019600  0.50164800  1
  O  O25  1  0.55663700  0.58776500  0.12051300  1
  O  O26  1  0.56707600  0.89455000  0.12051400  1
  O  O27  1  0.60037400  0.60795600  0.29074300  1
  O  O28  1  0.63338600  0.88864800  0.28597200  1
  O  O29  1  0.58216000  0.10650100  0.03327500  1
  O  O30  1  0.63126700  0.37692200  0.02904700  1
  O  O31  1  0.56711600  0.00288300  0.41921200  1
  O  O32  1  0.61768900  0.48833600  0.42655000  1
  O  O33  1  0.67928000  0.75469600  0.64715400  1
  O  O34  1  0.68947300  0.61945600  0.78935100  1
  O  O35  1  0.67979400  0.88675500  0.80063600  1
  O  O36  1  0.87581200  0.11479000  0.30244200  1
  O  O37  1  0.88253500  0.38209100  0.29530000  1
  O  O38  1  0.87882900  0.24125500  0.15177000  1
  O  O39  1  0.89814800  0.52241300  0.92913500  1
  O  O40  1  0.91961800  0.98985500  0.92782000  1
  O  O41  1  0.87933800  0.61439300  0.53301000  1
  O  O42  1  0.94562300  0.86567000  0.53191800  1
  O  O43  1  0.89204700  0.11921700  0.79717100  1
  O  O44  1  0.91722400  0.38364000  0.79526700  1
  O  O45  1  0.95632500  0.10764800  0.63356300  1
  O  O46  1  0.94244500  0.39777100  0.61432000  1
  O  O47  1  0.91877700  0.75126700  0.01200200  1
loop_
_geom_bond_atom_site_label_1
_geom_bond_atom_site_label_2
_geom_bond_distance
_geom_bond_site_symmetry_2
Cr0 O9 1.750247 1_555
Cr0 O18 1.787297 1_555
Cr0 O17 1.857203 1_555
Cr0 O47 1.886265 1_456
Cr1 O45 1.594889 1_455
Cr1 O19 1.600983 1_555
Cr1 O11 1.748495 1_545
Cr1 O15 1.772156 1_545
Cr2 O20 1.577271 1_555
Cr2 O46 1.701683 1_455
Cr2 O10 1.703019 1_555
Cr2 O16 1.725224 1_555
Cr3 O3 1.582592 1_555
Cr3 O8 1.672790 1_555
Cr3 O25 1.698716 1_555
Cr3 O13 1.741702 1_555
Cr4 O4 1.584975 1_555
Cr4 O12 1.700915 1_565
Cr4 O26 1.853314 1_555
Cr4 O7 1.873822 1_555
Cr5 O5 1.641188 1_555
Cr5 O6 1.646963 1_555
Cr5 O14 1.685819 1_555
Cr5 O24 1.712277 1_555
Cr6 O42 1.647990 1_555
Cr6 O33 1.656083 1_555
Cr6 O41 1.656410 1_555
Cr6 O23 1.725114 1_555
Cr7 O43 1.580026 1_555
Cr7 O35 1.668173 1_545
Cr7 O21 1.737453 1_555
Cr7 O40 1.758410 1_545
Cr8 O22 1.596298 1_555
Cr8 O44 1.598038 1_555
Cr8 O34 1.750275 1_555
Cr8 O39 1.772680 1_555
Cr9 O1 1.592642 1_655
Cr9 O27 1.593748 1_555
Cr9 O32 1.757383 1_555
Cr9 O37 1.775145 1_555
Cr10 O28 1.584773 1_555
Cr10 O36 1.688068 1_565
Cr10 O2 1.703725 1_655
Cr10 O31 1.726104 1_565
Cr11 O30 1.655165 1_555
Cr11 O38 1.678389 1_555
Cr11 O0 1.804762 1_654
Cr11 O29 1.845334 1_555
O0 Ti1 1.834907 1_555
O2 Ti2 1.993124 1_555
O5 Ti2 2.141401 1_545
O6 Ti3 2.104211 1_455
O7 Ti5 1.965292 1_455
O7 Ti1 2.103778 1_564
O8 Ti4 2.051825 1_455
O9 Ti6 1.887122 1_455
O10 Ti6 1.982994 1_455
O11 Ti6 1.901262 1_455
O12 Ti0 2.031241 1_555
O13 Ti0 1.903003 1_555
O14 Ti0 2.038082 1_555
O15 Ti2 1.838180 1_555
O16 Ti3 1.901124 1_555
O17 Ti5 2.013007 1_556
O17 Ti1 2.112259 1_565
O18 Ti4 1.828273 1_556
O21 Ti1 1.907884 1_555
O23 Ti2 1.920310 1_555
O24 Ti3 1.945537 1_555
O25 Ti4 2.005225 1_555
O26 Ti5 1.762895 1_555
O29 Ti1 1.948115 1_554
O29 Ti5 2.166077 1_545
O30 Ti4 2.126354 1_555
O31 Ti2 1.910704 1_545
O32 Ti3 1.855281 1_555
O33 Ti6 2.194302 1_555
O34 Ti6 1.912881 1_555
O35 Ti6 2.104970 1_555
O36 Ti0 2.073418 1_655
O37 Ti0 1.846468 1_655
O38 Ti0 2.049041 1_655
O39 Ti4 1.863181 1_556
O40 Ti1 2.086831 1_665
O40 Ti5 2.231979 1_556
O41 Ti3 2.080096 1_555
O42 Ti2 2.095111 1_655
O46 Ti3 1.970375 1_555
O47 Ti5 1.980020 1_555
O47 Ti4 2.088866 1_555
