# generated using pymatgen
data_Li5Mn6(BO3)6
_symmetry_space_group_name_H-M   'P 1'
_cell_length_a   5.26762200
_cell_length_b   8.29569705
_cell_length_c   9.34902929
_cell_angle_alpha   103.62365614
_cell_angle_beta   105.78068321
_cell_angle_gamma   90.95860994
_symmetry_Int_Tables_number   1
_chemical_formula_structural   Li5Mn6(BO3)6
_chemical_formula_sum   'Li5 Mn6 B6 O18'
_cell_volume   380.65181589
_cell_formula_units_Z   1
loop_
 _symmetry_equiv_pos_site_id
 _symmetry_equiv_pos_as_xyz
  1  'x, y, z'
loop_
 _atom_site_type_symbol
 _atom_site_label
 _atom_site_symmetry_multiplicity
 _atom_site_fract_x
 _atom_site_fract_y
 _atom_site_fract_z
 _atom_site_occupancy
  Li  Li0  1  0.98143500  0.36828900  0.29053000  1
  Li  Li1  1  0.33232100  0.95838400  0.36051400  1
  Li  Li2  1  0.66739900  0.04172300  0.64019800  1
  Li  Li3  1  0.00074600  0.62300300  0.69468400  1
  Li  Li4  1  0.33000400  0.70463300  0.97142300  1
  Mn  Mn0  1  0.77963400  0.02971500  0.20778100  1
  Mn  Mn1  1  0.87565400  0.63001800  0.11569900  1
  Mn  Mn2  1  0.54937900  0.30405000  0.45020100  1
  Mn  Mn3  1  0.44020300  0.69288400  0.54228600  1
  Mn  Mn4  1  0.12324500  0.35658700  0.89098100  1
  Mn  Mn5  1  0.22736600  0.97387600  0.78894500  1
  B  B0  1  0.22956500  0.14476700  0.11137200  1
  B  B1  1  0.44016700  0.51842900  0.22616500  1
  B  B2  1  0.10640900  0.18336900  0.55704800  1
  B  B3  1  0.88973900  0.81612900  0.44118300  1
  B  B4  1  0.56481000  0.49159800  0.77785400  1
  B  B5  1  0.77599200  0.84829000  0.88840600  1
  O  O0  1  0.98127600  0.17446100  0.12195600  1
  O  O1  1  0.68958900  0.81891700  0.01090700  1
  O  O2  1  0.25992300  0.56423800  0.10427800  1
  O  O3  1  0.41415400  0.09559100  0.22990600  1
  O  O4  1  0.70055800  0.50728300  0.23476500  1
  O  O5  1  0.34190600  0.48242800  0.34201100  1
  O  O6  1  0.92598300  0.23278800  0.43835500  1
  O  O7  1  0.97485600  0.84261800  0.31718600  1
  O  O8  1  0.35929600  0.15186700  0.54959400  1
  O  O9  1  0.63743500  0.84799100  0.44956200  1
  O  O10  1  0.02242100  0.15582900  0.68050900  1
  O  O11  1  0.07149400  0.76984100  0.56168400  1
  O  O12  1  0.63895000  0.51405700  0.64953700  1
  O  O13  1  0.30957600  0.51174400  0.78613100  1
  O  O14  1  0.59530900  0.89708700  0.77000200  1
  O  O15  1  0.76390400  0.45928000  0.89710400  1
  O  O16  1  0.30484600  0.17064400  0.98640400  1
  O  O17  1  0.02954300  0.81867300  0.88227000  1
loop_
_geom_bond_atom_site_label_1
_geom_bond_atom_site_label_2
_geom_bond_distance
_geom_bond_site_symmetry_2
Li0 O4 1.926430 1_555
Li0 O0 1.968426 1_555
Li0 O5 1.990429 1_655
Li0 O6 2.049210 1_555
Li1 O9 1.948217 1_555
Li1 O3 1.974075 1_565
Li1 O7 1.993337 1_455
Li1 O8 2.059223 1_565
Li2 O8 1.962884 1_555
Li2 O10 1.981107 1_655
Li2 O14 1.994464 1_545
Li2 O9 2.067226 1_545
Li3 O13 1.973515 1_555
Li3 O12 1.988015 1_455
Li3 O11 2.029578 1_555
Li3 O17 2.059003 1_555
Li4 O17 1.949035 1_555
Li4 O2 1.987953 1_556
Li4 O1 2.004412 1_556
Li4 O13 2.039594 1_555
Mn0 O0 2.022037 1_555
Mn0 O3 2.060685 1_555
Mn0 O1 2.156817 1_545
Mn0 O7 2.177586 1_545
Mn0 O6 2.328308 1_555
Mn1 O4 2.046320 1_555
Mn1 O15 2.117392 1_554
Mn1 O2 2.129218 1_655
Mn1 O1 2.151381 1_555
Mn1 O7 2.191037 1_555
Mn2 O6 2.103600 1_555
Mn2 O8 2.115718 1_555
Mn2 O5 2.136622 1_555
Mn2 O12 2.166908 1_555
Mn2 O3 2.285313 1_555
Mn3 O11 2.095520 1_555
Mn3 O9 2.111193 1_555
Mn3 O12 2.117530 1_555
Mn3 O5 2.173585 1_555
Mn3 O14 2.319094 1_555
Mn4 O16 2.079378 1_555
Mn4 O15 2.098074 1_455
Mn4 O13 2.157869 1_555
Mn4 O10 2.187646 1_555
Mn4 O2 2.240900 1_556
Mn5 O14 2.090115 1_555
Mn5 O16 2.094593 1_565
Mn5 O17 2.117466 1_555
Mn5 O10 2.156777 1_565
Mn5 O11 2.315992 1_555
B0 O0 1.360420 1_455
B0 O16 1.391268 1_554
B0 O3 1.407159 1_555
B1 O4 1.358004 1_555
B1 O2 1.404278 1_555
B1 O5 1.407910 1_555
B2 O8 1.378854 1_555
B2 O6 1.398724 1_455
B2 O10 1.406697 1_555
B3 O9 1.378761 1_555
B3 O11 1.400957 1_655
B3 O7 1.411594 1_555
B4 O13 1.378241 1_555
B4 O15 1.388869 1_555
B4 O12 1.408565 1_555
B5 O17 1.376055 1_655
B5 O14 1.395004 1_555
B5 O1 1.410471 1_556
