# generated using pymatgen
data_ScGaIr2
_symmetry_space_group_name_H-M   'P 1'
_cell_length_a   4.40219554
_cell_length_b   4.40201086
_cell_length_c   4.40213995
_cell_angle_alpha   59.95759534
_cell_angle_beta   59.96807072
_cell_angle_gamma   59.97156245
_symmetry_Int_Tables_number   1
_chemical_formula_structural   ScGaIr2
_chemical_formula_sum   'Sc1 Ga1 Ir2'
_cell_volume   60.27424148
_cell_formula_units_Z   1
loop_
 _symmetry_equiv_pos_site_id
 _symmetry_equiv_pos_as_xyz
  1  'x, y, z'
loop_
 _atom_site_type_symbol
 _atom_site_label
 _atom_site_symmetry_multiplicity
 _atom_site_fract_x
 _atom_site_fract_y
 _atom_site_fract_z
 _atom_site_occupancy
  Sc  Sc0  1  0.75000070  0.74999497  0.74999904  1
  Ga  Ga0  1  0.24999694  0.25000385  0.25000059  1
  Ir  Ir0  1  0.50022211  0.49993038  0.49992997  1
  Ir  Ir1  1  0.99977825  0.00006981  0.00006940  1
loop_
_geom_bond_atom_site_label_1
_geom_bond_atom_site_label_2
_geom_bond_distance
_geom_bond_site_symmetry_2
Ga0 Ir0 2.694032 1_455
Ga0 Ir1 2.694055 1_555
Ga0 Ir1 2.694675 1_456
Ga0 Ir1 2.694681 1_465
Ga0 Ir0 2.694682 1_554
Ga0 Ir0 2.694708 1_545
Ga0 Ir0 2.696723 1_555
Ga0 Ir1 2.696734 1_455
Ir0 Sc0 2.694180 1_554
Ir0 Sc0 2.694212 1_545
Ir0 Sc0 2.695637 1_455
Ir0 Sc0 2.696117 1_555
Ir1 Sc0 2.694175 1_554
Ir1 Sc0 2.694175 1_545
Ir1 Sc0 2.695641 1_644
Ir1 Sc0 2.696154 1_544
