# generated using pymatgen
data_SmPb3
_symmetry_space_group_name_H-M   'P 1'
_cell_length_a   4.88664227
_cell_length_b   4.88147863
_cell_length_c   4.88627996
_cell_angle_alpha   89.99020210
_cell_angle_beta   89.93845835
_cell_angle_gamma   89.90117514
_symmetry_Int_Tables_number   1
_chemical_formula_structural   SmPb3
_chemical_formula_sum   'Sm1 Pb3'
_cell_volume   116.55727459
_cell_formula_units_Z   1
loop_
 _symmetry_equiv_pos_site_id
 _symmetry_equiv_pos_as_xyz
  1  'x, y, z'
loop_
 _atom_site_type_symbol
 _atom_site_label
 _atom_site_symmetry_multiplicity
 _atom_site_fract_x
 _atom_site_fract_y
 _atom_site_fract_z
 _atom_site_occupancy
  Sm  Sm0  1  0.99988527  0.00007878  0.00003802  1
  Pb  Pb0  1  0.00015753  0.50018741  0.49971799  1
  Pb  Pb1  1  0.50004581  0.99988393  0.50010649  1
  Pb  Pb2  1  0.49991340  0.49985488  0.00014050  1
loop_
_geom_bond_atom_site_label_1
_geom_bond_atom_site_label_2
_geom_bond_distance
_geom_bond_site_symmetry_2
Pb0 Pb1 3.449913 1_455
Pb0 Pb2 3.451090 1_555
Pb0 Pb1 3.451235 1_545
Pb0 Sm0 3.451648 1_465
Pb0 Sm0 3.452991 1_455
Pb0 Sm0 3.454449 1_466
Pb0 Sm0 3.454611 1_456
Pb0 Pb1 3.455098 1_555
Pb0 Pb2 3.455698 1_456
Pb0 Pb2 3.456492 1_455
Pb0 Pb2 3.457720 1_556
Pb0 Pb1 3.457963 1_445
Pb1 Pb2 3.452911 1_565
Pb1 Sm0 3.453077 1_565
Pb1 Pb2 3.453347 1_556
Pb1 Pb2 3.453704 1_555
Pb1 Sm0 3.453711 1_466
Pb1 Pb2 3.453736 1_566
Pb1 Sm0 3.456315 1_566
Pb1 Sm0 3.457896 1_465
Pb2 Sm0 3.449704 1_555
Pb2 Sm0 3.451442 1_465
Pb2 Sm0 3.455855 1_455
Pb2 Sm0 3.457205 1_565
