# generated using pymatgen
data_LiYb2Rh
_symmetry_space_group_name_H-M   'P 1'
_cell_length_a   4.81439775
_cell_length_b   4.81439775
_cell_length_c   4.81439775
_cell_angle_alpha   60.00000000
_cell_angle_beta   60.00000000
_cell_angle_gamma   60.00000000
_symmetry_Int_Tables_number   1
_chemical_formula_structural   LiYb2Rh
_chemical_formula_sum   'Li1 Yb2 Rh1'
_cell_volume   78.90615934
_cell_formula_units_Z   1
loop_
 _symmetry_equiv_pos_site_id
 _symmetry_equiv_pos_as_xyz
  1  'x, y, z'
loop_
 _atom_site_type_symbol
 _atom_site_label
 _atom_site_symmetry_multiplicity
 _atom_site_fract_x
 _atom_site_fract_y
 _atom_site_fract_z
 _atom_site_occupancy
  Li  Li0  1  0.50000000  0.50000000  0.50000000  1
  Yb  Yb0  1  0.25000000  0.25000000  0.25000000  1
  Yb  Yb1  1  0.75000000  0.75000000  0.75000000  1
  Rh  Rh0  1  0.00000000  0.00000000  0.00000000  1
loop_
_geom_bond_atom_site_label_1
_geom_bond_atom_site_label_2
_geom_bond_distance
_geom_bond_site_symmetry_2
Li0 Yb0 2.948204 1_555
Li0 Yb1 2.948204 1_555
Li0 Yb0 2.948204 1_556
Li0 Yb1 2.948204 1_545
Li0 Yb1 2.948204 1_554
Li0 Yb0 2.948204 1_565
Li0 Yb0 2.948204 1_655
Li0 Yb1 2.948204 1_455
Rh0 Yb0 2.948204 1_555
Rh0 Yb1 2.948204 1_454
Rh0 Yb1 2.948204 1_445
Rh0 Yb1 2.948204 1_444
Rh0 Yb1 2.948204 1_544
Rh0 Yb0 2.948204 1_455
Rh0 Yb0 2.948204 1_554
Rh0 Yb0 2.948204 1_545
