# generated using pymatgen
data_Li3Si2BiO7
_symmetry_space_group_name_H-M   'P 1'
_cell_length_a   5.10786100
_cell_length_b   9.44608800
_cell_length_c   13.28535400
_cell_angle_alpha   90.00000000
_cell_angle_beta   90.00000000
_cell_angle_gamma   90.00000000
_symmetry_Int_Tables_number   1
_chemical_formula_structural   Li3Si2BiO7
_chemical_formula_sum   'Li12 Si8 Bi4 O28'
_cell_volume   641.00909051
_cell_formula_units_Z   4
loop_
 _symmetry_equiv_pos_site_id
 _symmetry_equiv_pos_as_xyz
  1  'x, y, z'
loop_
 _atom_site_type_symbol
 _atom_site_label
 _atom_site_symmetry_multiplicity
 _atom_site_fract_x
 _atom_site_fract_y
 _atom_site_fract_z
 _atom_site_occupancy
  Li  Li0  1  0.04423700  0.33220300  0.09287200  1
  Li  Li1  1  0.04423700  0.33220300  0.40712800  1
  Li  Li2  1  0.05106900  0.01611600  0.25000000  1
  Li  Li3  1  0.44893100  0.51611600  0.25000000  1
  Li  Li4  1  0.45576300  0.83220300  0.09287200  1
  Li  Li5  1  0.45576300  0.83220300  0.40712800  1
  Li  Li6  1  0.54423700  0.16779700  0.59287200  1
  Li  Li7  1  0.54423700  0.16779700  0.90712800  1
  Li  Li8  1  0.55106900  0.48388400  0.75000000  1
  Li  Li9  1  0.94893100  0.98388400  0.75000000  1
  Li  Li10  1  0.95576300  0.66779700  0.90712800  1
  Li  Li11  1  0.95576300  0.66779700  0.59287200  1
  Si  Si0  1  0.02602300  0.30982500  0.64015500  1
  Si  Si1  1  0.02602300  0.30982500  0.85984500  1
  Si  Si2  1  0.47397700  0.80982500  0.64015500  1
  Si  Si3  1  0.47397700  0.80982500  0.85984500  1
  Si  Si4  1  0.52602300  0.19017500  0.14015500  1
  Si  Si5  1  0.52602300  0.19017500  0.35984500  1
  Si  Si6  1  0.97397700  0.69017500  0.14015500  1
  Si  Si7  1  0.97397700  0.69017500  0.35984500  1
  Bi  Bi0  1  0.00000000  0.00000000  0.00000000  1
  Bi  Bi1  1  0.00000000  0.00000000  0.50000000  1
  Bi  Bi2  1  0.50000000  0.50000000  0.50000000  1
  Bi  Bi3  1  0.50000000  0.50000000  0.00000000  1
  O  O0  1  0.07563200  0.85700300  0.14155700  1
  O  O1  1  0.07563200  0.85700300  0.35844300  1
  O  O2  1  0.07496500  0.61678900  0.25000000  1
  O  O3  1  0.11093600  0.61450500  0.04331300  1
  O  O4  1  0.11093600  0.61450500  0.45668700  1
  O  O5  1  0.15563100  0.83188900  0.63118300  1
  O  O6  1  0.15563100  0.83188900  0.86881700  1
  O  O7  1  0.34436900  0.33188900  0.63118300  1
  O  O8  1  0.34436900  0.33188900  0.86881700  1
  O  O9  1  0.38906400  0.11450500  0.04331300  1
  O  O10  1  0.38906400  0.11450500  0.45668700  1
  O  O11  1  0.42503500  0.11678900  0.25000000  1
  O  O12  1  0.42436800  0.35700300  0.14155700  1
  O  O13  1  0.42436800  0.35700300  0.35844300  1
  O  O14  1  0.57563200  0.64299700  0.64155700  1
  O  O15  1  0.57563200  0.64299700  0.85844300  1
  O  O16  1  0.57496500  0.88321100  0.75000000  1
  O  O17  1  0.61093600  0.88549500  0.54331300  1
  O  O18  1  0.61093600  0.88549500  0.95668700  1
  O  O19  1  0.65563100  0.66811100  0.13118300  1
  O  O20  1  0.65563100  0.66811100  0.36881700  1
  O  O21  1  0.84436900  0.16811100  0.36881700  1
  O  O22  1  0.84436900  0.16811100  0.13118300  1
  O  O23  1  0.88906400  0.38549500  0.54331300  1
  O  O24  1  0.88906400  0.38549500  0.95668700  1
  O  O25  1  0.92503500  0.38321100  0.75000000  1
  O  O26  1  0.92436800  0.14299700  0.64155700  1
  O  O27  1  0.92436800  0.14299700  0.85844300  1
loop_
_geom_bond_atom_site_label_1
_geom_bond_atom_site_label_2
_geom_bond_distance
_geom_bond_site_symmetry_2
Li0 O22 1.924545 1_455
Li0 O24 2.038400 1_454
Li0 O12 2.059916 1_555
Li1 O21 1.924545 1_455
Li1 O23 2.038400 1_455
Li1 O13 2.059916 1_555
Li2 O1 2.085752 1_545
Li2 O0 2.085752 1_545
Li2 O11 2.133793 1_555
Li2 O22 2.380724 1_455
Li2 O21 2.380724 1_455
Li3 O12 2.085752 1_555
Li3 O13 2.085752 1_555
Li3 O2 2.133793 1_555
Li3 O20 2.380724 1_555
Li3 O19 2.380724 1_555
Li4 O19 1.924545 1_555
Li4 O18 2.038400 1_554
Li4 O0 2.059916 1_555
Li5 O20 1.924545 1_555
Li5 O17 2.038400 1_555
Li5 O1 2.059916 1_555
Li6 O7 1.924545 1_555
Li6 O10 2.038400 1_555
Li6 O26 2.059916 1_555
Li7 O8 1.924545 1_555
Li7 O9 2.038400 1_556
Li7 O27 2.059916 1_555
Li8 O15 2.085752 1_555
Li8 O14 2.085752 1_555
Li8 O25 2.133793 1_555
Li8 O7 2.380724 1_555
Li8 O8 2.380724 1_555
Li9 O27 2.085752 1_565
Li9 O26 2.085752 1_565
Li9 O16 2.133793 1_555
Li9 O5 2.380724 1_655
Li9 O6 2.380724 1_655
Li10 O6 1.924545 1_655
Li10 O3 2.038400 1_656
Li10 O15 2.059916 1_555
Li11 O5 1.924545 1_655
Li11 O4 2.038400 1_655
Li11 O14 2.059916 1_555
Bi0 O18 2.334594 1_444
Bi0 O9 2.334594 1_555
Bi0 O0 2.347464 1_545
Bi0 O27 2.347464 1_454
Bi0 O22 2.488181 1_455
Bi0 O6 2.488181 1_544
Bi1 O10 2.334594 1_555
Bi1 O17 2.334594 1_445
Bi1 O1 2.347464 1_545
Bi1 O26 2.347464 1_455
Bi1 O21 2.488181 1_455
Bi1 O5 2.488181 1_545
Bi2 O4 2.334594 1_555
Bi2 O23 2.334594 1_555
Bi2 O13 2.347464 1_555
Bi2 O14 2.347464 1_555
Bi2 O20 2.488181 1_555
Bi2 O7 2.488181 1_555
Bi3 O3 2.334594 1_555
Bi3 O24 2.334594 1_554
Bi3 O12 2.347464 1_555
Bi3 O15 2.347464 1_554
Bi3 O19 2.488181 1_555
Bi3 O8 2.488181 1_554
O0 Si6 1.659316 1_455
O1 Si7 1.659316 1_455
O2 Si6 1.695956 1_455
O2 Si7 1.695956 1_455
O3 Si6 1.629602 1_455
O4 Si7 1.629602 1_455
O5 Si2 1.643697 1_555
O6 Si3 1.643697 1_555
O7 Si0 1.643697 1_555
O8 Si1 1.643697 1_555
O9 Si4 1.629602 1_555
O10 Si5 1.629602 1_555
O11 Si4 1.695956 1_555
O11 Si5 1.695956 1_555
O12 Si4 1.659316 1_555
O13 Si5 1.659316 1_555
O14 Si2 1.659316 1_555
O15 Si3 1.659316 1_555
O16 Si3 1.695956 1_555
O16 Si2 1.695956 1_555
O17 Si2 1.629602 1_555
O18 Si3 1.629602 1_555
O19 Si6 1.643697 1_555
O20 Si7 1.643697 1_555
O21 Si5 1.643697 1_555
O22 Si4 1.643697 1_555
O23 Si0 1.629602 1_655
O24 Si1 1.629602 1_655
O25 Si1 1.695956 1_655
O25 Si0 1.695956 1_655
O26 Si0 1.659316 1_655
O27 Si1 1.659316 1_655
