# generated using pymatgen
data_Eu2Fe2O5
_symmetry_space_group_name_H-M   'P 1'
_cell_length_a   3.96124500
_cell_length_b   3.96124500
_cell_length_c   7.50145000
_cell_angle_alpha   90.00000000
_cell_angle_beta   90.00000000
_cell_angle_gamma   90.00000000
_symmetry_Int_Tables_number   1
_chemical_formula_structural   Eu2Fe2O5
_chemical_formula_sum   'Eu2 Fe2 O5'
_cell_volume   117.70871725
_cell_formula_units_Z   1
loop_
 _symmetry_equiv_pos_site_id
 _symmetry_equiv_pos_as_xyz
  1  'x, y, z'
loop_
 _atom_site_type_symbol
 _atom_site_label
 _atom_site_symmetry_multiplicity
 _atom_site_fract_x
 _atom_site_fract_y
 _atom_site_fract_z
 _atom_site_occupancy
  Eu  Eu0  1  0.00000000  0.00000000  0.00000000  1
  Eu  Eu1  1  0.00000000  0.00000000  0.50000000  1
  Fe  Fe0  1  0.50000000  0.50000000  0.24021800  1
  Fe  Fe1  1  0.50000000  0.50000000  0.75978200  1
  O  O0  1  0.50000000  0.00000000  0.21142300  1
  O  O1  1  0.50000000  0.00000000  0.78857700  1
  O  O2  1  0.50000000  0.50000000  0.50000000  1
  O  O3  1  0.00000000  0.50000000  0.21142300  1
  O  O4  1  0.00000000  0.50000000  0.78857700  1
loop_
_geom_bond_atom_site_label_1
_geom_bond_atom_site_label_2
_geom_bond_distance
_geom_bond_site_symmetry_2
Eu0 O4 2.537360 1_544
Eu0 O0 2.537360 1_455
Eu0 O3 2.537360 1_555
Eu0 O0 2.537360 1_555
Eu0 O4 2.537360 1_554
Eu0 O1 2.537360 1_554
Eu0 O3 2.537360 1_545
Eu0 O1 2.537360 1_454
Eu1 O2 2.801023 1_445
Eu1 O2 2.801023 1_455
Eu1 O2 2.801023 1_545
Eu1 O2 2.801023 1_555
Eu1 O0 2.934108 1_555
Eu1 O4 2.934108 1_555
Eu1 O1 2.934108 1_455
Eu1 O1 2.934108 1_555
Eu1 O3 2.934108 1_545
Eu1 O3 2.934108 1_555
Eu1 O4 2.934108 1_545
Eu1 O0 2.934108 1_455
Fe0 O2 1.948742 1_555
Fe0 O3 1.992366 1_555
Fe0 O0 1.992366 1_555
Fe0 O3 1.992366 1_655
Fe0 O0 1.992366 1_565
Fe1 O2 1.948742 1_555
Fe1 O1 1.992366 1_565
Fe1 O4 1.992366 1_555
Fe1 O1 1.992366 1_555
Fe1 O4 1.992366 1_655
