# generated using pymatgen
data_La2Si4CN6
_symmetry_space_group_name_H-M   'P 1'
_cell_length_a   6.04106200
_cell_length_b   10.22881600
_cell_length_c   10.59125900
_cell_angle_alpha   90.00000000
_cell_angle_beta   90.00000000
_cell_angle_gamma   90.00000000
_symmetry_Int_Tables_number   1
_chemical_formula_structural   La2Si4CN6
_chemical_formula_sum   'La8 Si16 C4 N24'
_cell_volume   654.46473157
_cell_formula_units_Z   4
loop_
 _symmetry_equiv_pos_site_id
 _symmetry_equiv_pos_as_xyz
  1  'x, y, z'
loop_
 _atom_site_type_symbol
 _atom_site_label
 _atom_site_symmetry_multiplicity
 _atom_site_fract_x
 _atom_site_fract_y
 _atom_site_fract_z
 _atom_site_occupancy
  La  La0  1  0.75000000  0.04909700  0.39589600  1
  La  La1  1  0.25000000  0.45090300  0.89589600  1
  La  La2  1  0.75000000  0.40732500  0.43926400  1
  La  La3  1  0.25000000  0.09267500  0.93926400  1
  La  La4  1  0.75000000  0.90732500  0.06073600  1
  La  La5  1  0.25000000  0.59267500  0.56073600  1
  La  La6  1  0.75000000  0.54909700  0.10410400  1
  La  La7  1  0.25000000  0.95090300  0.60410400  1
  Si  Si0  1  0.75000000  0.51763000  0.73869500  1
  Si  Si1  1  0.25000000  0.98237000  0.23869500  1
  Si  Si2  1  0.75000000  0.01763000  0.76130500  1
  Si  Si3  1  0.25000000  0.48237000  0.26130500  1
  Si  Si4  1  0.75000000  0.29815100  0.92453000  1
  Si  Si5  1  0.25000000  0.20184900  0.42453000  1
  Si  Si6  1  0.75000000  0.79815100  0.57547000  1
  Si  Si7  1  0.25000000  0.70184900  0.07547000  1
  Si  Si8  1  0.50338800  0.72740100  0.32989700  1
  Si  Si9  1  0.49661200  0.77259900  0.82989700  1
  Si  Si10  1  0.99661200  0.22740100  0.17010300  1
  Si  Si11  1  0.00338800  0.27259900  0.67010300  1
  Si  Si12  1  0.49661200  0.27259900  0.67010300  1
  Si  Si13  1  0.50338800  0.22740100  0.17010300  1
  Si  Si14  1  0.00338800  0.77259900  0.82989700  1
  Si  Si15  1  0.99661200  0.72740100  0.32989700  1
  C  C0  1  0.75000000  0.20514900  0.76412300  1
  C  C1  1  0.25000000  0.29485100  0.26412300  1
  C  C2  1  0.75000000  0.70514900  0.73587700  1
  C  C3  1  0.25000000  0.79485100  0.23587700  1
  N  N0  1  0.75000000  0.96600000  0.60730800  1
  N  N1  1  0.25000000  0.53400000  0.10730800  1
  N  N2  1  0.00915000  0.72030500  0.98647200  1
  N  N3  1  0.99085000  0.77969500  0.48647200  1
  N  N4  1  0.49085000  0.22030500  0.51352800  1
  N  N5  1  0.50915000  0.27969500  0.01352800  1
  N  N6  1  0.99085000  0.27969500  0.01352800  1
  N  N7  1  0.00915000  0.22030500  0.51352800  1
  N  N8  1  0.50915000  0.77969500  0.48647200  1
  N  N9  1  0.98015900  0.44577600  0.66477100  1
  N  N10  1  0.51984100  0.44577600  0.66477100  1
  N  N11  1  0.48015900  0.05422400  0.16477100  1
  N  N12  1  0.98015900  0.94577600  0.83522900  1
  N  N13  1  0.01984100  0.55422400  0.33522900  1
  N  N14  1  0.25000000  0.23122100  0.74698300  1
  N  N15  1  0.75000000  0.26877900  0.24698300  1
  N  N16  1  0.25000000  0.73122100  0.75301700  1
  N  N17  1  0.75000000  0.76877900  0.25301700  1
  N  N18  1  0.49085000  0.72030500  0.98647200  1
  N  N19  1  0.48015900  0.55422400  0.33522900  1
  N  N20  1  0.51984100  0.94577600  0.83522900  1
  N  N21  1  0.01984100  0.05422400  0.16477100  1
  N  N22  1  0.75000000  0.46600000  0.89269200  1
  N  N23  1  0.25000000  0.03400000  0.39269200  1
loop_
_geom_bond_atom_site_label_1
_geom_bond_atom_site_label_2
_geom_bond_distance
_geom_bond_site_symmetry_2
La0 N0 2.395021 1_545
La0 N4 2.658949 1_555
La0 N7 2.658949 1_655
La0 N15 2.745339 1_555
La0 N11 2.941479 1_555
La0 N21 2.941479 1_655
La0 N23 3.024666 1_655
La0 N23 3.024666 1_555
La0 N17 3.242146 1_545
La0 N8 3.260515 1_545
La0 N3 3.260515 1_545
La1 N1 2.395021 1_556
La1 N6 2.658949 1_456
La1 N5 2.658949 1_556
La1 N14 2.745339 1_555
La1 N10 2.941479 1_555
La1 N9 2.941479 1_455
La1 N22 3.024666 1_555
La1 N22 3.024666 1_455
La1 N16 3.242146 1_555
La1 N18 3.260515 1_555
La1 N2 3.260515 1_555
La2 N19 2.475727 1_555
La2 N13 2.475727 1_655
La2 N15 2.481062 1_555
La2 N7 2.594055 1_655
La2 N4 2.594055 1_555
La2 N9 2.791485 1_555
La2 N10 2.791485 1_555
La3 N12 2.475727 1_445
La3 N20 2.475727 1_545
La3 N14 2.481062 1_555
La3 N6 2.594055 1_456
La3 N5 2.594055 1_556
La3 N11 2.791485 1_556
La3 N21 2.791485 1_556
La4 N11 2.475727 1_565
La4 N21 2.475727 1_665
La4 N17 2.481062 1_555
La4 N18 2.594055 1_554
La4 N2 2.594055 1_654
La4 N20 2.791485 1_554
La4 N12 2.791485 1_554
La5 N10 2.475727 1_555
La5 N9 2.475727 1_455
La5 N16 2.481062 1_555
La5 N3 2.594055 1_455
La5 N8 2.594055 1_555
La5 N19 2.791485 1_555
La5 N13 2.791485 1_555
La6 N22 2.395021 1_554
La6 N2 2.658949 1_654
La6 N18 2.658949 1_554
La6 N17 2.745339 1_555
La6 N19 2.941479 1_555
La6 N13 2.941479 1_655
La6 N1 3.024666 1_655
La6 N1 3.024666 1_555
La6 N15 3.242146 1_555
La6 N5 3.260515 1_555
La6 N6 3.260515 1_555
La7 N23 2.395021 1_565
La7 N3 2.658949 1_455
La7 N8 2.658949 1_555
La7 N16 2.745339 1_555
La7 N20 2.941479 1_555
La7 N12 2.941479 1_455
La7 N0 3.024666 1_555
La7 N0 3.024666 1_455
La7 N14 3.242146 1_565
La7 N7 3.260515 1_565
La7 N4 3.260515 1_565
C0 Si2 1.918330 1_555
C0 Si4 1.947120 1_555
C0 Si11 1.952114 1_655
C0 Si12 1.952114 1_555
C1 Si3 1.918330 1_555
C1 Si5 1.947120 1_555
C1 Si13 1.952114 1_555
C1 Si10 1.952114 1_455
C2 Si0 1.918330 1_555
C2 Si6 1.947120 1_555
C2 Si14 1.952114 1_655
C2 Si9 1.952114 1_555
C3 Si1 1.918330 1_555
C3 Si7 1.947120 1_555
C3 Si15 1.952114 1_455
C3 Si8 1.952114 1_555
N0 Si2 1.714391 1_565
N0 Si6 1.749697 1_555
N1 Si3 1.714391 1_555
N1 Si7 1.749697 1_555
N2 Si14 1.742809 1_555
N2 Si7 1.743884 1_556
N3 Si15 1.742809 1_555
N3 Si6 1.743884 1_555
N4 Si12 1.742809 1_555
N4 Si5 1.743884 1_555
N5 Si13 1.742809 1_555
N5 Si4 1.743884 1_554
N6 Si10 1.742809 1_555
N6 Si4 1.743884 1_554
N7 Si11 1.742809 1_555
N7 Si5 1.743884 1_555
N8 Si8 1.742809 1_555
N8 Si6 1.743884 1_555
N9 Si0 1.756824 1_555
N9 Si11 1.777842 1_655
N10 Si0 1.756824 1_555
N10 Si12 1.777842 1_555
N11 Si1 1.756824 1_545
N11 Si13 1.777842 1_555
N12 Si2 1.756824 1_565
N12 Si14 1.777842 1_655
N13 Si3 1.756824 1_555
N13 Si15 1.777842 1_455
N14 Si11 1.749757 1_555
N14 Si12 1.749757 1_555
N15 Si13 1.749757 1_555
N15 Si10 1.749757 1_555
N16 Si9 1.749757 1_555
N16 Si14 1.749757 1_555
N17 Si15 1.749757 1_555
N17 Si8 1.749757 1_555
N18 Si9 1.742809 1_555
N18 Si7 1.743884 1_556
N19 Si3 1.756824 1_555
N19 Si8 1.777842 1_555
N20 Si2 1.756824 1_565
N20 Si9 1.777842 1_555
N21 Si1 1.756824 1_545
N21 Si10 1.777842 1_455
N22 Si0 1.714391 1_555
N22 Si4 1.749697 1_555
N23 Si1 1.714391 1_545
N23 Si5 1.749697 1_555
