# generated using pymatgen
data_CsVGa(PO5)2
_symmetry_space_group_name_H-M   'P 1'
_cell_length_a   8.20560700
_cell_length_b   8.09472400
_cell_length_c   14.46262817
_cell_angle_alpha   73.31828211
_cell_angle_beta   90.00000000
_cell_angle_gamma   90.00000000
_symmetry_Int_Tables_number   1
_chemical_formula_structural   CsVGa(PO5)2
_chemical_formula_sum   'Cs4 V4 Ga4 P8 O40'
_cell_volume   920.20918218
_cell_formula_units_Z   4
loop_
 _symmetry_equiv_pos_site_id
 _symmetry_equiv_pos_as_xyz
  1  'x, y, z'
loop_
 _atom_site_type_symbol
 _atom_site_label
 _atom_site_symmetry_multiplicity
 _atom_site_fract_x
 _atom_site_fract_y
 _atom_site_fract_z
 _atom_site_occupancy
  Cs  Cs0  1  0.02738300  0.17963900  0.70457800  1
  Cs  Cs1  1  0.52738300  0.82036100  0.79542200  1
  Cs  Cs2  1  0.97261700  0.82036100  0.29542200  1
  Cs  Cs3  1  0.47261700  0.17963900  0.20457800  1
  V  V0  1  0.04770700  0.70055100  0.63303000  1
  V  V1  1  0.54770700  0.29944900  0.86697000  1
  V  V2  1  0.95229300  0.29944900  0.36697000  1
  V  V3  1  0.45229300  0.70055100  0.13303000  1
  Ga  Ga0  1  0.96022100  0.77622600  0.97307700  1
  Ga  Ga1  1  0.46022100  0.22377400  0.52692300  1
  Ga  Ga2  1  0.03977900  0.22377400  0.02692300  1
  Ga  Ga3  1  0.53977900  0.77622600  0.47307700  1
  P  P0  1  0.89707700  0.49893100  0.85076100  1
  P  P1  1  0.39707700  0.50106900  0.64923900  1
  P  P2  1  0.10292300  0.50106900  0.14923900  1
  P  P3  1  0.60292300  0.49893100  0.35076100  1
  P  P4  1  0.22338700  0.00333800  0.46106600  1
  P  P5  1  0.72338700  0.99666200  0.03893400  1
  P  P6  1  0.77661300  0.99666200  0.53893400  1
  P  P7  1  0.27661300  0.00333800  0.96106600  1
  O  O0  1  0.92836900  0.54128200  0.74183500  1
  O  O1  1  0.42836900  0.45871800  0.75816500  1
  O  O2  1  0.07163100  0.45871800  0.25816500  1
  O  O3  1  0.57163100  0.54128200  0.24183500  1
  O  O4  1  0.11531100  0.84414300  0.50789700  1
  O  O5  1  0.61531100  0.15585700  0.99210300  1
  O  O6  1  0.88468900  0.15585700  0.49210300  1
  O  O7  1  0.38468900  0.84414300  0.00789700  1
  O  O8  1  0.90494700  0.57103200  0.57157500  1
  O  O9  1  0.40494700  0.42896800  0.92842500  1
  O  O10  1  0.09505300  0.42896800  0.42842500  1
  O  O11  1  0.59505300  0.57103200  0.07157500  1
  O  O12  1  0.21356100  0.52540300  0.62657600  1
  O  O13  1  0.71356100  0.47459700  0.87342400  1
  O  O14  1  0.78643900  0.47459700  0.37342400  1
  O  O15  1  0.28643900  0.52540300  0.12657600  1
  O  O16  1  0.86590400  0.87784300  0.62591200  1
  O  O17  1  0.36590400  0.12215700  0.87408800  1
  O  O18  1  0.13409600  0.12215700  0.37408800  1
  O  O19  1  0.63409600  0.87784300  0.12591200  1
  O  O20  1  0.96108300  0.64652700  0.88912100  1
  O  O21  1  0.46108300  0.35347300  0.61087900  1
  O  O22  1  0.03891700  0.35347300  0.11087900  1
  O  O23  1  0.53891700  0.64652700  0.38912100  1
  O  O24  1  0.99260100  0.32946800  0.89951000  1
  O  O25  1  0.49260100  0.67053200  0.60049000  1
  O  O26  1  0.00739900  0.67053200  0.10049000  1
  O  O27  1  0.50739900  0.32946800  0.39951000  1
  O  O28  1  0.38132700  0.94217400  0.42087600  1
  O  O29  1  0.88132700  0.05782600  0.07912400  1
  O  O30  1  0.61867300  0.05782600  0.57912400  1
  O  O31  1  0.11867300  0.94217400  0.92087600  1
  O  O32  1  0.16045700  0.78189300  0.70407700  1
  O  O33  1  0.66045700  0.21810700  0.79592300  1
  O  O34  1  0.83954300  0.21810700  0.29592300  1
  O  O35  1  0.33954300  0.78189300  0.20407700  1
  O  O36  1  0.27041100  0.09502300  0.53883600  1
  O  O37  1  0.77041100  0.90497700  0.96116400  1
  O  O38  1  0.72958900  0.90497700  0.46116400  1
  O  O39  1  0.22958900  0.09502300  0.03883600  1
loop_
_geom_bond_atom_site_label_1
_geom_bond_atom_site_label_2
_geom_bond_distance
_geom_bond_site_symmetry_2
Cs0 O12 3.102812 1_555
Cs0 O0 3.228887 1_455
Cs0 O31 3.254183 1_545
Cs0 O16 3.257886 1_445
Cs0 O36 3.336836 1_555
Cs0 O33 3.338208 1_455
Cs0 O6 3.345246 1_455
Cs0 O8 3.353847 1_455
Cs0 O24 3.385774 1_455
Cs0 O32 3.401752 1_545
Cs0 O17 3.645239 1_555
Cs1 O13 3.102812 1_555
Cs1 O1 3.228887 1_555
Cs1 O30 3.254183 1_565
Cs1 O17 3.257886 1_565
Cs1 O37 3.336836 1_555
Cs1 O32 3.338208 1_555
Cs1 O7 3.345246 1_556
Cs1 O9 3.353847 1_555
Cs1 O25 3.385774 1_555
Cs1 O33 3.401752 1_565
Cs1 O16 3.645239 1_555
Cs2 O14 3.102812 1_555
Cs2 O2 3.228887 1_655
Cs2 O29 3.254183 1_565
Cs2 O18 3.257886 1_665
Cs2 O38 3.336836 1_555
Cs2 O35 3.338208 1_655
Cs2 O4 3.345246 1_655
Cs2 O10 3.353847 1_655
Cs2 O26 3.385774 1_655
Cs2 O34 3.401752 1_565
Cs2 O19 3.645239 1_555
Cs3 O15 3.102812 1_555
Cs3 O3 3.228887 1_555
Cs3 O28 3.254183 1_545
Cs3 O19 3.257886 1_545
Cs3 O39 3.336836 1_555
Cs3 O34 3.338208 1_555
Cs3 O5 3.345246 1_554
Cs3 O11 3.353847 1_555
Cs3 O27 3.385774 1_555
Cs3 O35 3.401752 1_545
Cs3 O18 3.645239 1_555
Ga0 O20 1.818929 1_555
Ga0 O26 1.836402 1_656
Ga0 O37 1.854349 1_555
Ga0 O31 1.866202 1_655
Ga1 O21 1.818929 1_555
Ga1 O27 1.836402 1_555
Ga1 O36 1.854349 1_555
Ga1 O30 1.866202 1_555
Ga2 O22 1.818929 1_555
Ga2 O24 1.836402 1_454
Ga2 O39 1.854349 1_555
Ga2 O29 1.866202 1_455
Ga3 O23 1.818929 1_555
Ga3 O25 1.836402 1_555
Ga3 O38 1.854349 1_555
Ga3 O28 1.866202 1_555
O0 P0 1.534649 1_555
O0 V0 1.983068 1_655
O1 P1 1.534649 1_555
O1 V1 1.983068 1_555
O2 P2 1.534649 1_555
O2 V2 1.983068 1_455
O3 P3 1.534649 1_555
O3 V3 1.983068 1_555
O4 P4 1.550714 1_565
O4 V0 1.930361 1_555
O5 P5 1.550714 1_546
O5 V1 1.930361 1_555
O6 P6 1.550714 1_545
O6 V2 1.930361 1_555
O7 P7 1.550714 1_564
O7 V3 1.930361 1_555
O8 V0 1.948431 1_655
O9 V1 1.948431 1_555
O10 V2 1.948431 1_455
O11 V3 1.948431 1_555
O12 P1 1.541681 1_555
O12 V0 1.986684 1_555
O13 P0 1.541681 1_555
O13 V1 1.986684 1_555
O14 P3 1.541681 1_555
O14 V2 1.986684 1_555
O15 P2 1.541681 1_555
O15 V3 1.986684 1_555
O16 P6 1.532868 1_555
O16 V0 2.052037 1_655
O17 P7 1.532868 1_555
O17 V1 2.052037 1_555
O18 P4 1.532868 1_555
O18 V2 2.052037 1_455
O19 P5 1.532868 1_555
O19 V3 2.052037 1_555
O20 P0 1.546478 1_555
O21 P1 1.546478 1_555
O22 P2 1.546478 1_555
O23 P3 1.546478 1_555
O24 P0 1.561391 1_555
O25 P1 1.561391 1_555
O26 P2 1.561391 1_555
O27 P3 1.561391 1_555
O28 P4 1.558141 1_565
O29 P5 1.558141 1_545
O30 P6 1.558141 1_545
O31 P7 1.558141 1_565
O32 V0 1.653403 1_555
O33 V1 1.653403 1_555
O34 V2 1.653403 1_555
O35 V3 1.653403 1_555
O36 P4 1.563336 1_555
O37 P5 1.563336 1_556
O38 P6 1.563336 1_555
O39 P7 1.563336 1_554
