# generated using pymatgen
data_CaSnF6
_symmetry_space_group_name_H-M   'P 1'
_cell_length_a   5.96646057
_cell_length_b   5.96646115
_cell_length_c   5.96646011
_cell_angle_alpha   60.00000580
_cell_angle_beta   60.00000261
_cell_angle_gamma   60.00000496
_symmetry_Int_Tables_number   1
_chemical_formula_structural   CaSnF6
_chemical_formula_sum   'Ca1 Sn1 F6'
_cell_volume   150.18805020
_cell_formula_units_Z   1
loop_
 _symmetry_equiv_pos_site_id
 _symmetry_equiv_pos_as_xyz
  1  'x, y, z'
loop_
 _atom_site_type_symbol
 _atom_site_label
 _atom_site_symmetry_multiplicity
 _atom_site_fract_x
 _atom_site_fract_y
 _atom_site_fract_z
 _atom_site_occupancy
  Ca  Ca0  1  -0.00000000  -0.00000000  -0.00000000  1
  Sn  Sn0  1  0.50000000  0.50000000  0.50000000  1
  F  F0  1  0.26605945  0.73394055  0.73394055  1
  F  F1  1  0.26605945  0.73394055  0.26605945  1
  F  F2  1  0.73394055  0.26605945  0.26605945  1
  F  F3  1  0.73394055  0.73394055  0.26605945  1
  F  F4  1  0.26605945  0.26605945  0.73394055  1
  F  F5  1  0.73394055  0.26605945  0.73394055  1
loop_
_geom_bond_atom_site_label_1
_geom_bond_atom_site_label_2
_geom_bond_distance
_geom_bond_site_symmetry_2
Ca0 F5 2.244970 1_454
Ca0 F0 2.244970 1_544
Ca0 F2 2.244970 1_455
Ca0 F1 2.244970 1_545
Ca0 F3 2.244970 1_445
Ca0 F4 2.244970 1_554
F0 Sn0 1.973955 1_555
F1 Sn0 1.973955 1_555
F2 Sn0 1.973955 1_555
F3 Sn0 1.973955 1_555
F4 Sn0 1.973955 1_555
F5 Sn0 1.973955 1_555
