# generated using pymatgen
data_Li3V3P8O29
_symmetry_space_group_name_H-M   'P 1'
_cell_length_a   9.78216615
_cell_length_b   9.78216615
_cell_length_c   14.30669653
_cell_angle_alpha   89.36013152
_cell_angle_beta   89.36013152
_cell_angle_gamma   60.16441470
_symmetry_Int_Tables_number   1
_chemical_formula_structural   Li3V3P8O29
_chemical_formula_sum   'Li6 V6 P16 O58'
_cell_volume   1187.46558479
_cell_formula_units_Z   2
loop_
 _symmetry_equiv_pos_site_id
 _symmetry_equiv_pos_as_xyz
  1  'x, y, z'
loop_
 _atom_site_type_symbol
 _atom_site_label
 _atom_site_symmetry_multiplicity
 _atom_site_fract_x
 _atom_site_fract_y
 _atom_site_fract_z
 _atom_site_occupancy
  Li  Li0  1  0.30837000  0.91911500  0.43892000  1
  Li  Li1  1  0.91911500  0.30837000  0.93892000  1
  Li  Li2  1  0.08432700  0.69488200  0.05794300  1
  Li  Li3  1  0.22625200  0.68176100  0.55772400  1
  Li  Li4  1  0.69488200  0.08432700  0.55794400  1
  Li  Li5  1  0.68176100  0.22625200  0.05772400  1
  V  V0  1  0.56912900  0.43486700  0.25409800  1
  V  V1  1  0.42963200  0.00572200  0.24158000  1
  V  V2  1  0.00572200  0.42963200  0.74158000  1
  V  V3  1  0.99700200  0.56605200  0.25521700  1
  V  V4  1  0.56605200  0.99700200  0.75521700  1
  V  V5  1  0.43486700  0.56912900  0.75409800  1
  P  P0  1  0.31699100  0.76944500  0.16009400  1
  P  P1  1  0.31996400  0.91255600  0.65801500  1
  P  P2  1  0.76944500  0.31699100  0.66009400  1
  P  P3  1  0.65961900  0.67307400  0.36920400  1
  P  P4  1  0.67307400  0.65961900  0.86920400  1
  P  P5  1  0.91255600  0.31996400  0.15801500  1
  P  P6  1  0.08476800  0.22577100  0.33963700  1
  P  P7  1  0.77367600  0.91261300  0.16264100  1
  P  P8  1  0.22577100  0.08476800  0.83963700  1
  P  P9  1  0.91261300  0.77367600  0.66264100  1
  P  P10  1  0.08535800  0.67779400  0.84208200  1
  P  P11  1  0.33330000  0.34153300  0.13054600  1
  P  P12  1  0.34153300  0.33330000  0.63054600  1
  P  P13  1  0.23044000  0.68084600  0.34102200  1
  P  P14  1  0.67779400  0.08535800  0.34208200  1
  P  P15  1  0.68084600  0.23044000  0.84102200  1
  O  O0  1  0.24053300  0.75275700  0.43058800  1
  O  O1  1  0.33998100  0.74420700  0.66618800  1
  O  O2  1  0.20611800  0.00778500  0.74375300  1
  O  O3  1  0.23251500  0.99854600  0.92517300  1
  O  O4  1  0.47653300  0.61656000  0.17740000  1
  O  O5  1  0.34577500  0.91203800  0.16497700  1
  O  O6  1  0.52304100  0.66032300  0.82407200  1
  O  O7  1  0.61656000  0.47653300  0.67740000  1
  O  O8  1  0.75275700  0.24053300  0.93058800  1
  O  O9  1  0.74420700  0.33998100  0.16618800  1
  O  O10  1  0.51144100  0.82114700  0.32861500  1
  O  O11  1  0.66032300  0.52304100  0.32407200  1
  O  O12  1  0.47939200  0.90411300  0.68131800  1
  O  O13  1  0.65932600  0.66571600  0.47245400  1
  O  O14  1  0.66571600  0.65932600  0.97245400  1
  O  O15  1  0.61863100  0.90446300  0.17628200  1
  O  O16  1  0.82114700  0.51144100  0.82861500  1
  O  O17  1  0.66799200  0.81208200  0.82518600  1
  O  O18  1  0.91203800  0.34577500  0.66497700  1
  O  O19  1  0.00778500  0.20611800  0.24375300  1
  O  O20  1  0.98439500  0.25558900  0.06602900  1
  O  O21  1  0.99854600  0.23251500  0.42517300  1
  O  O22  1  0.90411300  0.47939200  0.18131800  1
  O  O23  1  0.81208200  0.66799200  0.32518600  1
  O  O24  1  0.74302700  0.91656500  0.66215500  1
  O  O25  1  0.08212000  0.25594800  0.83327500  1
  O  O26  1  0.90446300  0.61863100  0.67628200  1
  O  O27  1  0.25558900  0.98439500  0.56602900  1
  O  O28  1  0.74215800  0.01508100  0.43409200  1
  O  O29  1  0.09379400  0.38141400  0.32105200  1
  O  O30  1  0.91656500  0.74302700  0.16215500  1
  O  O31  1  0.79644300  0.98421200  0.25895000  1
  O  O32  1  0.25594800  0.08212000  0.33327500  1
  O  O33  1  0.18925600  0.33360800  0.67448700  1
  O  O34  1  0.09308200  0.51956500  0.81856200  1
  O  O35  1  0.01508100  0.74215800  0.93409200  1
  O  O36  1  0.00922200  0.76655900  0.58060700  1
  O  O37  1  0.98421200  0.79644300  0.75895000  1
  O  O38  1  0.08631300  0.65692900  0.33302600  1
  O  O39  1  0.33360800  0.18925600  0.17448700  1
  O  O40  1  0.38141400  0.09379400  0.82105200  1
  O  O41  1  0.18242900  0.48781400  0.17181500  1
  O  O42  1  0.33605900  0.33709600  0.52669300  1
  O  O43  1  0.33709600  0.33605900  0.02669300  1
  O  O44  1  0.51956500  0.09308200  0.31856200  1
  O  O45  1  0.33721900  0.48403200  0.67042400  1
  O  O46  1  0.48781400  0.18242900  0.67181500  1
  O  O47  1  0.25415200  0.65380500  0.82737000  1
  O  O48  1  0.21441900  0.79455800  0.25574600  1
  O  O49  1  0.22949900  0.76468600  0.07831700  1
  O  O50  1  0.38198800  0.51980100  0.32309100  1
  O  O51  1  0.48403200  0.33721900  0.17042400  1
  O  O52  1  0.65692900  0.08631300  0.83302600  1
  O  O53  1  0.51980100  0.38198800  0.82309100  1
  O  O54  1  0.76655900  0.00922200  0.08060700  1
  O  O55  1  0.65380500  0.25415200  0.32737000  1
  O  O56  1  0.76468600  0.22949900  0.57831700  1
  O  O57  1  0.79455800  0.21441900  0.75574600  1
loop_
_geom_bond_atom_site_label_1
_geom_bond_atom_site_label_2
_geom_bond_distance
_geom_bond_site_symmetry_2
Li0 O27 1.912653 1_555
Li0 O0 2.045342 1_555
Li0 O32 2.059082 1_565
Li0 O10 2.329036 1_555
Li1 O20 1.912653 1_556
Li1 O8 2.045342 1_555
Li1 O25 2.059082 1_655
Li1 O16 2.329036 1_555
Li2 O35 1.873269 1_554
Li2 O49 1.883204 1_555
Li2 O30 2.080817 1_455
Li2 O41 2.388512 1_555
Li3 O36 1.881682 1_555
Li3 O0 1.967961 1_555
Li3 O1 2.180537 1_555
Li3 O45 2.323686 1_555
Li4 O28 1.873283 1_555
Li4 O56 1.883202 1_555
Li4 O24 2.080807 1_545
Li4 O46 2.388502 1_555
Li5 O54 1.881682 1_555
Li5 O8 1.967961 1_554
Li5 O9 2.180537 1_555
Li5 O51 2.323686 1_555
O0 P13 1.496201 1_555
O1 P1 1.561850 1_555
O1 V5 1.942346 1_555
O2 P1 1.604798 1_545
O2 P8 1.630603 1_555
O3 P8 1.461731 1_565
O4 P0 1.552920 1_555
O4 V0 1.886857 1_555
O5 P0 1.556674 1_555
O5 V1 1.871990 1_565
O6 P4 1.606849 1_555
O6 V5 1.829427 1_555
O7 P2 1.552920 1_555
O7 V5 1.886857 1_555
O8 P15 1.496201 1_555
O9 P5 1.561850 1_555
O9 V0 1.942346 1_555
O10 P3 1.564363 1_555
O10 V1 1.996299 1_565
O11 P3 1.606849 1_555
O11 V0 1.829427 1_555
O12 P1 1.559809 1_555
O12 V4 1.862793 1_555
O13 P3 1.478156 1_555
O14 P4 1.478156 1_555
O15 P7 1.567834 1_555
O15 V1 1.852539 1_565
O16 P4 1.564363 1_555
O16 V2 1.996299 1_655
O17 P4 1.590388 1_555
O17 V4 1.858928 1_555
O18 P2 1.556674 1_555
O18 V2 1.871990 1_655
O19 P5 1.604798 1_455
O19 P6 1.630603 1_555
O20 P5 1.476421 1_555
O21 P6 1.461731 1_655
O22 P5 1.559809 1_555
O22 V3 1.862793 1_555
O23 P3 1.590388 1_555
O23 V3 1.858928 1_555
O24 P9 1.548742 1_555
O24 V4 2.001333 1_555
O25 P8 1.563654 1_555
O25 V2 1.968449 1_555
O26 P9 1.567834 1_555
O26 V2 1.852539 1_655
O27 P1 1.476421 1_555
O28 P14 1.472901 1_555
O29 P6 1.587694 1_555
O29 V3 1.823772 1_455
O30 P7 1.548742 1_555
O30 V3 2.001333 1_555
O31 P14 1.610401 1_565
O31 P7 1.619344 1_555
O32 P6 1.563654 1_555
O32 V1 1.968449 1_555
O33 P12 1.608968 1_555
O33 V2 1.825000 1_555
O34 P10 1.552220 1_555
O34 V2 1.872950 1_555
O35 P10 1.472901 1_555
O36 P9 1.478839 1_455
O37 P10 1.610401 1_655
O37 P9 1.619344 1_555
O38 P13 1.545310 1_555
O38 V3 1.899831 1_455
O39 P11 1.608968 1_555
O39 V1 1.825000 1_555
O40 P8 1.587694 1_555
O40 V4 1.823772 1_545
O41 P11 1.572381 1_555
O41 V3 1.972402 1_455
O42 P12 1.486739 1_555
O43 P11 1.486739 1_555
O44 P14 1.552220 1_555
O44 V1 1.872950 1_555
O45 P12 1.567712 1_555
O45 V5 1.969112 1_555
O46 P12 1.572381 1_555
O46 V4 1.972402 1_545
O47 P10 1.559978 1_555
O47 V5 1.852313 1_555
O48 P13 1.597131 1_555
O48 P0 1.634437 1_555
O49 P0 1.471970 1_555
O50 P13 1.556285 1_555
O50 V0 1.865582 1_555
O51 P11 1.567712 1_555
O51 V0 1.969112 1_555
O52 P15 1.545310 1_555
O52 V4 1.899831 1_545
O53 P15 1.556285 1_555
O53 V5 1.865582 1_555
O54 P7 1.478839 1_545
O55 P14 1.559978 1_555
O55 V0 1.852313 1_555
O56 P2 1.471970 1_555
O57 P15 1.597131 1_555
O57 P2 1.634437 1_555
