# generated using pymatgen
data_La20Cu9O40
_symmetry_space_group_name_H-M   'P 1'
_cell_length_a   8.94350300
_cell_length_b   10.36551721
_cell_length_c   11.68715535
_cell_angle_alpha   100.01033174
_cell_angle_beta   109.68082471
_cell_angle_gamma   103.70893891
_symmetry_Int_Tables_number   1
_chemical_formula_structural   La20Cu9O40
_chemical_formula_sum   'La20 Cu9 O40'
_cell_volume   952.23315590
_cell_formula_units_Z   1
loop_
 _symmetry_equiv_pos_site_id
 _symmetry_equiv_pos_as_xyz
  1  'x, y, z'
loop_
 _atom_site_type_symbol
 _atom_site_label
 _atom_site_symmetry_multiplicity
 _atom_site_fract_x
 _atom_site_fract_y
 _atom_site_fract_z
 _atom_site_occupancy
  La  La0  1  0.27669800  0.78606900  0.71270000  1
  La  La1  1  0.07941000  0.38632100  0.91102900  1
  La  La2  1  0.12220800  0.01434400  0.88883800  1
  La  La3  1  0.32640900  0.41774800  0.68115500  1
  La  La4  1  0.92059000  0.61367900  0.08897100  1
  La  La5  1  0.70338500  0.70271200  0.77089600  1
  La  La6  1  0.50999400  0.31020000  0.98007400  1
  La  La7  1  0.12006000  0.50976000  0.38352400  1
  La  La8  1  0.90850700  0.11020200  0.57966500  1
  La  La9  1  0.31175800  0.91124800  0.18127700  1
  La  La10  1  0.49000600  0.68980000  0.01992600  1
  La  La11  1  0.29661500  0.29728800  0.22910400  1
  La  La12  1  0.09149300  0.88979800  0.42033500  1
  La  La13  1  0.87994000  0.49024000  0.61647600  1
  La  La14  1  0.68824200  0.08875200  0.81872300  1
  La  La15  1  0.67359100  0.58225200  0.31884500  1
  La  La16  1  0.48001300  0.19610400  0.51147600  1
  La  La17  1  0.87779200  0.98565600  0.11116200  1
  La  La18  1  0.51998700  0.80389600  0.48852400  1
  La  La19  1  0.72330200  0.21393100  0.28730000  1
  Cu  Cu0  1  0.29945100  0.09988800  0.69895600  1
  Cu  Cu1  1  0.09949300  0.69937100  0.89976100  1
  Cu  Cu2  1  0.90091400  0.80053700  0.59992700  1
  Cu  Cu3  1  0.29926300  0.60022400  0.19982000  1
  Cu  Cu4  1  0.70073700  0.39977600  0.80018000  1
  Cu  Cu5  1  0.09908600  0.19946300  0.40007300  1
  Cu  Cu6  1  0.50000000  0.00000000  0.00000000  1
  Cu  Cu7  1  0.90050700  0.30062900  0.10023900  1
  Cu  Cu8  1  0.70054900  0.90011200  0.30104400  1
  O  O0  1  0.09283200  0.95519900  0.65404200  1
  O  O1  1  0.99410200  0.75628700  0.75355900  1
  O  O2  1  0.18821300  0.54525000  0.77489900  1
  O  O3  1  0.98536100  0.14477500  0.97331600  1
  O  O4  1  0.41002000  0.65689500  0.62718000  1
  O  O5  1  0.21176000  0.25247400  0.82578700  1
  O  O6  1  0.01463900  0.85522500  0.02668400  1
  O  O7  1  0.10509700  0.44437200  0.14559300  1
  O  O8  1  0.40446100  0.04401000  0.84564200  1
  O  O9  1  0.00589800  0.24371300  0.24644100  1
  O  O10  1  0.20541800  0.64348500  0.04697600  1
  O  O11  1  0.60737100  0.44356000  0.65021100  1
  O  O12  1  0.90716800  0.04480100  0.34595800  1
  O  O13  1  0.30441000  0.84411300  0.94535600  1
  O  O14  1  0.50473300  0.24509300  0.74505100  1
  O  O15  1  0.76585600  0.94114400  0.69565000  1
  O  O16  1  0.36584900  0.14028400  0.09553500  1
  O  O17  1  0.96332900  0.33995400  0.49584500  1
  O  O18  1  0.56614900  0.54044800  0.89662000  1
  O  O19  1  0.16465500  0.74116300  0.29415800  1
  O  O20  1  0.03667100  0.66004600  0.50415500  1
  O  O21  1  0.43385100  0.45955200  0.10338000  1
  O  O22  1  0.83534500  0.25883700  0.70584200  1
  O  O23  1  0.23414400  0.05885600  0.30435000  1
  O  O24  1  0.63415100  0.85971600  0.90446500  1
  O  O25  1  0.89490300  0.55562800  0.85440700  1
  O  O26  1  0.49526700  0.75490700  0.25494900  1
  O  O27  1  0.69559000  0.15588700  0.05464400  1
  O  O28  1  0.39262900  0.55644000  0.34978900  1
  O  O29  1  0.59553900  0.95599000  0.15435800  1
  O  O30  1  0.28909000  0.35062500  0.45158400  1
  O  O31  1  0.19525200  0.15706500  0.55368500  1
  O  O32  1  0.79458200  0.35651500  0.95302400  1
  O  O33  1  0.78824000  0.74752600  0.17421300  1
  O  O34  1  0.38590800  0.94318200  0.57460800  1
  O  O35  1  0.58998000  0.34310500  0.37282000  1
  O  O36  1  0.81178700  0.45475000  0.22510100  1
  O  O37  1  0.61409200  0.05681800  0.42539200  1
  O  O38  1  0.71091000  0.64937500  0.54841600  1
  O  O39  1  0.80474800  0.84293500  0.44631500  1
loop_
_geom_bond_atom_site_label_1
_geom_bond_atom_site_label_2
_geom_bond_distance
_geom_bond_site_symmetry_2
La0 O4 2.303844 1_555
La0 O20 2.508971 1_555
La0 O13 2.592974 1_555
La0 O8 2.603891 1_565
La0 O1 2.684293 1_455
La0 O0 2.696737 1_555
La0 O34 2.726248 1_555
La0 O2 2.732723 1_555
La0 O24 3.041098 1_555
La1 O5 2.326063 1_555
La1 O22 2.503378 1_455
La1 O10 2.607250 1_556
La1 O7 2.620469 1_556
La1 O25 2.698439 1_455
La1 O32 2.710570 1_455
La1 O2 2.717734 1_555
La1 O3 2.748464 1_455
La1 O21 3.024032 1_556
La2 O3 2.331241 1_455
La2 O16 2.509529 1_556
La2 O1 2.612363 1_445
La2 O0 2.613072 1_545
La2 O13 2.692266 1_545
La2 O8 2.695567 1_555
La2 O5 2.714775 1_555
La2 O6 2.730734 1_546
La2 O15 3.040088 1_445
La3 O2 2.378558 1_555
La3 O30 2.536124 1_555
La3 O18 2.552122 1_555
La3 O31 2.611113 1_555
La3 O11 2.616014 1_555
La3 O4 2.661712 1_555
La3 O14 2.705425 1_555
La3 O5 2.860953 1_555
La3 O17 3.049576 1_455
La4 O33 2.326063 1_555
La4 O19 2.503378 1_655
La4 O32 2.607250 1_554
La4 O25 2.620469 1_554
La4 O7 2.698439 1_655
La4 O10 2.710570 1_655
La4 O36 2.717734 1_555
La4 O6 2.748464 1_655
La4 O18 3.024032 1_554
La5 O24 2.390450 1_555
La5 O4 2.468676 1_555
La5 O38 2.589740 1_555
La5 O11 2.591597 1_555
La5 O1 2.611358 1_555
La5 O25 2.615314 1_555
La5 O18 2.754966 1_555
La5 O15 2.761476 1_555
La5 O6 3.138615 1_656
La6 O21 2.306998 1_556
La6 O5 2.520450 1_555
La6 O32 2.612300 1_555
La6 O27 2.615707 1_556
La6 O8 2.689272 1_555
La6 O14 2.693651 1_555
La6 O18 2.733246 1_555
La6 O16 2.739835 1_556
La6 O36 3.019274 1_556
La7 O20 2.337926 1_555
La7 O30 2.543037 1_555
La7 O28 2.546895 1_555
La7 O36 2.608452 1_455
La7 O9 2.691074 1_555
La7 O7 2.694610 1_555
La7 O17 2.767551 1_455
La7 O19 2.775127 1_555
La7 O4 2.966748 1_555
La8 O22 2.305279 1_555
La8 O37 2.501016 1_555
La8 O0 2.613499 1_645
La8 O31 2.624908 1_655
La8 O12 2.692674 1_555
La8 O39 2.696527 1_545
La8 O17 2.729965 1_555
La8 O15 2.732572 1_545
La8 O5 3.029751 1_655
La9 O23 2.302727 1_565
La9 O6 2.516502 1_555
La9 O29 2.605020 1_555
La9 O26 2.618212 1_555
La9 O13 2.698186 1_554
La9 O10 2.701929 1_555
La9 O19 2.730897 1_555
La9 O16 2.735628 1_565
La9 O37 3.016816 1_565
La10 O18 2.306998 1_554
La10 O33 2.520450 1_555
La10 O10 2.612300 1_555
La10 O13 2.615707 1_554
La10 O29 2.689272 1_555
La10 O26 2.693651 1_555
La10 O21 2.733246 1_555
La10 O24 2.739835 1_554
La10 O2 3.019274 1_554
La11 O16 2.390450 1_555
La11 O35 2.468676 1_555
La11 O30 2.589740 1_555
La11 O28 2.591597 1_555
La11 O9 2.611358 1_555
La11 O7 2.615314 1_555
La11 O21 2.754966 1_555
La11 O23 2.761476 1_555
La11 O3 3.138615 1_454
La12 O19 2.305279 1_555
La12 O34 2.501016 1_555
La12 O12 2.613499 1_465
La12 O39 2.624908 1_455
La12 O0 2.692674 1_555
La12 O31 2.696527 1_565
La12 O20 2.729965 1_555
La12 O23 2.732572 1_565
La12 O33 3.029751 1_455
La13 O17 2.337926 1_555
La13 O38 2.543037 1_555
La13 O11 2.546895 1_555
La13 O2 2.608452 1_655
La13 O1 2.691074 1_555
La13 O25 2.694610 1_555
La13 O20 2.767551 1_655
La13 O22 2.775127 1_555
La13 O35 2.966748 1_555
La14 O15 2.302727 1_545
La14 O3 2.516502 1_555
La14 O8 2.605020 1_555
La14 O14 2.618212 1_555
La14 O27 2.698186 1_556
La14 O32 2.701929 1_555
La14 O22 2.730897 1_555
La14 O24 2.735628 1_545
La14 O34 3.016816 1_545
La15 O36 2.378558 1_555
La15 O38 2.536124 1_555
La15 O21 2.552122 1_555
La15 O39 2.611113 1_555
La15 O28 2.616014 1_555
La15 O35 2.661712 1_555
La15 O26 2.705425 1_555
La15 O33 2.860953 1_555
La15 O20 3.049576 1_655
La16 O37 2.379665 1_555
La16 O11 2.535950 1_555
La16 O23 2.540418 1_555
La16 O14 2.610950 1_555
La16 O30 2.617633 1_555
La16 O35 2.671451 1_555
La16 O31 2.705592 1_555
La16 O34 2.858462 1_545
La16 O22 3.053967 1_555
La17 O6 2.331241 1_655
La17 O24 2.509529 1_554
La17 O9 2.612363 1_665
La17 O12 2.613072 1_565
La17 O27 2.692266 1_565
La17 O29 2.695567 1_555
La17 O33 2.714775 1_555
La17 O3 2.730734 1_564
La17 O23 3.040088 1_665
La18 O34 2.379665 1_555
La18 O28 2.535950 1_555
La18 O15 2.540418 1_555
La18 O26 2.610950 1_555
La18 O38 2.617633 1_555
La18 O4 2.671451 1_555
La18 O39 2.705592 1_555
La18 O37 2.858462 1_565
La18 O19 3.053967 1_555
La19 O35 2.303844 1_555
La19 O17 2.508971 1_555
La19 O27 2.592974 1_555
La19 O29 2.603891 1_545
La19 O9 2.684293 1_655
La19 O12 2.696737 1_555
La19 O37 2.726248 1_555
La19 O36 2.732723 1_555
La19 O16 3.041098 1_555
Cu0 O31 1.910012 1_555
Cu0 O14 1.915323 1_555
Cu0 O8 1.917038 1_555
Cu0 O0 1.923265 1_545
Cu0 O5 2.422753 1_555
Cu0 O34 2.424849 1_545
Cu1 O25 1.904975 1_455
Cu1 O13 1.911712 1_555
Cu1 O1 1.919718 1_455
Cu1 O10 1.924056 1_556
Cu1 O2 2.425180 1_555
Cu1 O6 2.427424 1_556
Cu2 O38 1.850982 1_555
Cu2 O0 1.878369 1_655
Cu2 O39 1.889268 1_555
Cu2 O1 1.894318 1_555
Cu2 O15 2.452044 1_555
Cu2 O20 2.456506 1_655
Cu3 O28 1.856234 1_555
Cu3 O10 1.882404 1_555
Cu3 O7 1.897388 1_555
Cu3 O26 1.899137 1_555
Cu3 O19 2.442705 1_555
Cu3 O21 2.453520 1_555
Cu4 O11 1.856234 1_555
Cu4 O32 1.882404 1_555
Cu4 O25 1.897388 1_555
Cu4 O14 1.899137 1_555
Cu4 O22 2.442705 1_555
Cu4 O18 2.453520 1_555
Cu5 O30 1.850982 1_555
Cu5 O12 1.878369 1_455
Cu5 O31 1.889268 1_555
Cu5 O9 1.894318 1_555
Cu5 O23 2.452044 1_555
Cu5 O17 2.456506 1_455
Cu6 O8 1.904006 1_554
Cu6 O29 1.904006 1_545
Cu6 O13 1.904678 1_544
Cu6 O27 1.904678 1_555
Cu6 O16 2.442406 1_555
Cu6 O24 2.442406 1_544
Cu7 O7 1.904975 1_655
Cu7 O27 1.911712 1_555
Cu7 O9 1.919718 1_655
Cu7 O32 1.924056 1_554
Cu7 O36 2.425180 1_555
Cu7 O3 2.427424 1_554
Cu8 O39 1.910012 1_555
Cu8 O26 1.915323 1_555
Cu8 O29 1.917038 1_555
Cu8 O12 1.923265 1_565
Cu8 O33 2.422753 1_555
Cu8 O37 2.424849 1_565
