# generated using pymatgen
data_ScVRu2
_symmetry_space_group_name_H-M   'P 1'
_cell_length_a   4.36306420
_cell_length_b   4.36305841
_cell_length_c   4.36306275
_cell_angle_alpha   60.00002203
_cell_angle_beta   60.00006594
_cell_angle_gamma   59.99989015
_symmetry_Int_Tables_number   1
_chemical_formula_structural   ScVRu2
_chemical_formula_sum   'Sc1 V1 Ru2'
_cell_volume   58.72986730
_cell_formula_units_Z   1
loop_
 _symmetry_equiv_pos_site_id
 _symmetry_equiv_pos_as_xyz
  1  'x, y, z'
loop_
 _atom_site_type_symbol
 _atom_site_label
 _atom_site_symmetry_multiplicity
 _atom_site_fract_x
 _atom_site_fract_y
 _atom_site_fract_z
 _atom_site_occupancy
  Sc  Sc0  1  0.24999900  0.25000100  0.25000000  1
  V  V0  1  0.75000000  0.75000000  0.75000000  1
  Ru  Ru0  1  0.50000000  0.50000000  0.50000000  1
  Ru  Ru1  1  0.00000000  0.00000000  -0.00000000  1
loop_
_geom_bond_atom_site_label_1
_geom_bond_atom_site_label_2
_geom_bond_distance
_geom_bond_site_symmetry_2
Ru0 V0 2.671814 1_545
Ru0 Sc0 2.671816 1_655
Ru0 Sc0 2.671818 1_565
Ru0 V0 2.671819 1_555
Ru0 Sc0 2.671819 1_555
Ru0 V0 2.671819 1_455
Ru0 V0 2.671822 1_554
Ru0 Sc0 2.671822 1_556
Ru1 Sc0 2.671811 1_545
Ru1 V0 2.671814 1_454
Ru1 Sc0 2.671819 1_555
Ru1 V0 2.671819 1_444
Ru1 V0 2.671819 1_544
Ru1 Sc0 2.671822 1_554
Ru1 V0 2.671822 1_445
Ru1 Sc0 2.671823 1_455
