# generated using pymatgen
data_LiGaAg2
_symmetry_space_group_name_H-M   'P 1'
_cell_length_a   4.44975619
_cell_length_b   4.44975619
_cell_length_c   4.44975619
_cell_angle_alpha   60.00000000
_cell_angle_beta   60.00000000
_cell_angle_gamma   60.00000000
_symmetry_Int_Tables_number   1
_chemical_formula_structural   LiGaAg2
_chemical_formula_sum   'Li1 Ga1 Ag2'
_cell_volume   62.30080398
_cell_formula_units_Z   1
loop_
 _symmetry_equiv_pos_site_id
 _symmetry_equiv_pos_as_xyz
  1  'x, y, z'
loop_
 _atom_site_type_symbol
 _atom_site_label
 _atom_site_symmetry_multiplicity
 _atom_site_fract_x
 _atom_site_fract_y
 _atom_site_fract_z
 _atom_site_occupancy
  Li  Li0  1  0.75000000  0.75000000  0.75000000  1
  Ga  Ga0  1  0.25000000  0.25000000  0.25000000  1
  Ag  Ag0  1  0.50000100  0.50000100  0.50000100  1
  Ag  Ag1  1  0.00000000  0.00000000  -0.00000000  1
loop_
_geom_bond_atom_site_label_1
_geom_bond_atom_site_label_2
_geom_bond_distance
_geom_bond_site_symmetry_2
Ag0 Li0 2.724897 1_555
Ag0 Ga0 2.724904 1_655
Ag0 Ga0 2.724904 1_556
Ag0 Ga0 2.724904 1_565
Ag0 Li0 2.724912 1_545
Ag0 Li0 2.724912 1_455
Ag0 Li0 2.724912 1_554
Ag0 Ga0 2.724919 1_555
Ag1 Ga0 2.724908 1_545
Ag1 Ga0 2.724908 1_455
Ag1 Li0 2.724908 1_544
Ag1 Li0 2.724908 1_454
Ag1 Li0 2.724908 1_444
Ag1 Li0 2.724908 1_445
Ag1 Ga0 2.724908 1_554
Ag1 Ga0 2.724908 1_555
