# generated using pymatgen
data_Nd5(FeB3)2
_symmetry_space_group_name_H-M   'P 1'
_cell_length_a   8.83922358
_cell_length_b   8.83922192
_cell_length_c   8.83922236
_cell_angle_alpha   35.94923526
_cell_angle_beta   35.94923288
_cell_angle_gamma   35.94922776
_symmetry_Int_Tables_number   1
_chemical_formula_structural   Nd5(FeB3)2
_chemical_formula_sum   'Nd5 Fe2 B6'
_cell_volume   212.87549654
_cell_formula_units_Z   1
loop_
 _symmetry_equiv_pos_site_id
 _symmetry_equiv_pos_as_xyz
  1  'x, y, z'
loop_
 _atom_site_type_symbol
 _atom_site_label
 _atom_site_symmetry_multiplicity
 _atom_site_fract_x
 _atom_site_fract_y
 _atom_site_fract_z
 _atom_site_occupancy
  Nd  Nd0  1  0.58288607  0.58288607  0.58288607  1
  Nd  Nd1  1  0.41711393  0.41711393  0.41711393  1
  Nd  Nd2  1  0.74941921  0.74941921  0.74941921  1
  Nd  Nd3  1  0.25058079  0.25058079  0.25058079  1
  Nd  Nd4  1  0.00000000  -0.00000000  -0.00000000  1
  Fe  Fe0  1  0.87948447  0.87948447  0.87948447  1
  Fe  Fe1  1  0.12051553  0.12051553  0.12051553  1
  B  B0  1  0.50000000  0.83498266  0.16501734  1
  B  B1  1  0.16501734  0.50000000  0.83498266  1
  B  B2  1  0.83498266  0.16501734  0.50000000  1
  B  B3  1  0.50000000  0.16501734  0.83498266  1
  B  B4  1  0.83498266  0.50000000  0.16501734  1
  B  B5  1  0.16501734  0.83498266  0.50000000  1
loop_
_geom_bond_atom_site_label_1
_geom_bond_atom_site_label_2
_geom_bond_distance
_geom_bond_site_symmetry_2
Fe0 Nd4 2.986013 1_666
Fe1 Nd4 2.986013 1_555
B0 B3 1.800501 1_564
B0 B4 1.827495 1_555
B0 B5 1.827495 1_555
B0 Fe1 2.144344 1_565
B0 Fe0 2.144344 1_554
B0 Nd1 2.749052 1_555
B0 Nd0 2.749052 1_555
B0 Nd3 2.759252 1_565
B0 Nd2 2.759252 1_554
B1 B4 1.800501 1_456
B1 B3 1.827495 1_555
B1 B5 1.827495 1_555
B1 Fe0 2.144343 1_455
B1 Fe1 2.144344 1_556
B1 Nd1 2.749052 1_555
B1 Nd0 2.749053 1_555
B1 Nd3 2.759252 1_556
B1 Nd2 2.759252 1_455
B2 B5 1.800501 1_645
B2 B4 1.827495 1_555
B2 B3 1.827495 1_555
B2 Fe1 2.144344 1_655
B2 Fe0 2.144344 1_545
B2 Nd0 2.749052 1_555
B2 Nd1 2.749053 1_555
B2 Nd2 2.759252 1_545
B2 Nd3 2.759253 1_655
B3 Fe0 2.144344 1_545
B3 Fe1 2.144344 1_556
B3 Nd0 2.749052 1_555
B3 Nd1 2.749052 1_555
B3 Nd2 2.759252 1_545
B3 Nd3 2.759252 1_556
B4 Fe1 2.144343 1_655
B4 Fe0 2.144344 1_554
B4 Nd0 2.749052 1_555
B4 Nd1 2.749053 1_555
B4 Nd2 2.759252 1_554
B4 Nd3 2.759252 1_655
B5 Fe0 2.144344 1_455
B5 Fe1 2.144344 1_565
B5 Nd1 2.749052 1_555
B5 Nd0 2.749053 1_555
B5 Nd3 2.759252 1_565
B5 Nd2 2.759253 1_455
