# generated using pymatgen
data_Ho2AlZn
_symmetry_space_group_name_H-M   'P 1'
_cell_length_a   5.02472985
_cell_length_b   5.02472985
_cell_length_c   5.02472985
_cell_angle_alpha   60.00000000
_cell_angle_beta   60.00000000
_cell_angle_gamma   60.00000000
_symmetry_Int_Tables_number   1
_chemical_formula_structural   Ho2AlZn
_chemical_formula_sum   'Ho2 Al1 Zn1'
_cell_volume   89.70634328
_cell_formula_units_Z   1
loop_
 _symmetry_equiv_pos_site_id
 _symmetry_equiv_pos_as_xyz
  1  'x, y, z'
loop_
 _atom_site_type_symbol
 _atom_site_label
 _atom_site_symmetry_multiplicity
 _atom_site_fract_x
 _atom_site_fract_y
 _atom_site_fract_z
 _atom_site_occupancy
  Ho  Ho0  1  -0.00000000  0.00000000  0.00000000  1
  Ho  Ho1  1  0.49999900  0.49999900  0.49999900  1
  Al  Al0  1  0.25000000  0.25000000  0.25000000  1
  Zn  Zn0  1  0.74999900  0.74999900  0.74999900  1
loop_
_geom_bond_atom_site_label_1
_geom_bond_atom_site_label_2
_geom_bond_distance
_geom_bond_site_symmetry_2
Ho0 Zn0 3.077002 1_544
Ho0 Zn0 3.077002 1_445
Ho0 Zn0 3.077002 1_454
Ho0 Zn0 3.077018 1_444
Ho1 Zn0 3.077006 1_554
Ho1 Zn0 3.077006 1_455
Ho1 Zn0 3.077006 1_545
Ho1 Zn0 3.077006 1_555
Al0 Ho1 3.076994 1_555
Al0 Ho0 3.077006 1_556
Al0 Ho0 3.077006 1_565
Al0 Ho0 3.077006 1_555
Al0 Ho0 3.077006 1_655
Al0 Ho1 3.077010 1_455
Al0 Ho1 3.077010 1_545
Al0 Ho1 3.077010 1_554
