# generated using pymatgen
data_Li6Fe5CuO12
_symmetry_space_group_name_H-M   'P 1'
_cell_length_a   5.17397741
_cell_length_b   5.17397741
_cell_length_c   10.16114886
_cell_angle_alpha   89.80705411
_cell_angle_beta   89.80705411
_cell_angle_gamma   120.19936913
_symmetry_Int_Tables_number   1
_chemical_formula_structural   Li6Fe5CuO12
_chemical_formula_sum   'Li6 Fe5 Cu1 O12'
_cell_volume   235.09132046
_cell_formula_units_Z   1
loop_
 _symmetry_equiv_pos_site_id
 _symmetry_equiv_pos_as_xyz
  1  'x, y, z'
loop_
 _atom_site_type_symbol
 _atom_site_label
 _atom_site_symmetry_multiplicity
 _atom_site_fract_x
 _atom_site_fract_y
 _atom_site_fract_z
 _atom_site_occupancy
  Li  Li0  1  0.98474200  0.66294900  0.27481100  1
  Li  Li1  1  0.66294900  0.98474300  0.27481100  1
  Li  Li2  1  0.69412200  0.69412200  0.72179700  1
  Li  Li3  1  0.30587800  0.30587800  0.27820300  1
  Li  Li4  1  0.33705100  0.01525700  0.72518900  1
  Li  Li5  1  0.01525700  0.33705100  0.72518900  1
  Fe  Fe0  1  0.50000000  0.50000000  0.00000000  1
  Fe  Fe1  1  0.66345500  0.33654500  0.50000000  1
  Fe  Fe2  1  0.33654500  0.66345500  0.50000000  1
  Fe  Fe3  1  0.83248600  0.16751400  0.00000000  1
  Fe  Fe4  1  0.16751400  0.83248600  0.00000000  1
  Cu  Cu0  1  0.00000000  0.00000000  0.50000000  1
  O  O0  1  0.84386500  0.84386500  0.89494700  1
  O  O1  1  0.84143800  0.51023500  0.10179700  1
  O  O2  1  0.51023500  0.84143800  0.10179700  1
  O  O3  1  0.99208700  0.32929200  0.38899100  1
  O  O4  1  0.32929200  0.99208700  0.38899100  1
  O  O5  1  0.63539700  0.63539700  0.37918300  1
  O  O6  1  0.36460300  0.36460300  0.62081700  1
  O  O7  1  0.67070800  0.00791300  0.61100900  1
  O  O8  1  0.00791300  0.67070800  0.61100900  1
  O  O9  1  0.48976500  0.15856200  0.89820300  1
  O  O10  1  0.15856200  0.48976500  0.89820300  1
  O  O11  1  0.15613500  0.15613500  0.10505300  1
loop_
_geom_bond_atom_site_label_1
_geom_bond_atom_site_label_2
_geom_bond_distance
_geom_bond_site_symmetry_2
Li0 O1 1.921839 1_555
Li0 O5 2.034450 1_555
Li0 O3 2.092975 1_555
Li0 O4 2.096956 1_655
Li1 O2 1.921840 1_555
Li1 O5 2.034454 1_555
Li1 O4 2.092973 1_555
Li1 O3 2.096954 1_565
Li2 O0 1.926268 1_555
Li2 O6 1.991395 1_555
Li2 O8 2.025915 1_655
Li2 O7 2.025915 1_565
Li3 O11 1.926268 1_555
Li3 O5 1.991395 1_555
Li3 O3 2.025915 1_455
Li3 O4 2.025915 1_545
Li4 O9 1.921840 1_555
Li4 O6 2.034454 1_555
Li4 O7 2.092973 1_555
Li4 O8 2.096954 1_545
Li5 O10 1.921840 1_555
Li5 O6 2.034454 1_555
Li5 O8 2.092973 1_555
Li5 O7 2.096954 1_455
Fe0 O1 2.027843 1_555
Fe0 O2 2.027843 1_555
Fe0 O10 2.027843 1_554
Fe0 O9 2.027843 1_554
Fe0 O11 2.064026 1_555
Fe0 O0 2.064026 1_554
Fe1 O6 2.033055 1_555
Fe1 O5 2.033055 1_555
Fe1 O3 2.053398 1_555
Fe1 O7 2.053398 1_555
Fe1 O8 2.089178 1_655
Fe1 O4 2.089178 1_545
Fe2 O6 2.033055 1_555
Fe2 O5 2.033055 1_555
Fe2 O4 2.053398 1_555
Fe2 O8 2.053398 1_555
Fe2 O7 2.089178 1_565
Fe2 O3 2.089178 1_455
Fe3 O10 1.960349 1_654
Fe3 O2 1.960349 1_545
Fe3 O11 2.014413 1_655
Fe3 O0 2.014413 1_544
Fe3 O1 2.036289 1_555
Fe3 O9 2.036289 1_554
Fe4 O9 1.960349 1_564
Fe4 O1 1.960349 1_455
Fe4 O11 2.014413 1_565
Fe4 O0 2.014413 1_454
Fe4 O2 2.036289 1_555
Fe4 O10 2.036289 1_554
Cu0 O8 2.057746 1_545
Cu0 O7 2.057746 1_455
Cu0 O4 2.057746 1_545
Cu0 O3 2.057746 1_455
Cu0 O6 2.252899 1_555
Cu0 O5 2.252899 1_445
