# generated using pymatgen
data_HfSnRh2
_symmetry_space_group_name_H-M   'P 1'
_cell_length_a   4.56272909
_cell_length_b   4.56272909
_cell_length_c   4.56272909
_cell_angle_alpha   60.00000000
_cell_angle_beta   60.00000000
_cell_angle_gamma   60.00000000
_symmetry_Int_Tables_number   1
_chemical_formula_structural   HfSnRh2
_chemical_formula_sum   'Hf1 Sn1 Rh2'
_cell_volume   67.16747967
_cell_formula_units_Z   1
loop_
 _symmetry_equiv_pos_site_id
 _symmetry_equiv_pos_as_xyz
  1  'x, y, z'
loop_
 _atom_site_type_symbol
 _atom_site_label
 _atom_site_symmetry_multiplicity
 _atom_site_fract_x
 _atom_site_fract_y
 _atom_site_fract_z
 _atom_site_occupancy
  Hf  Hf0  1  0.25000100  0.25000100  0.25000100  1
  Sn  Sn0  1  0.75000000  0.75000000  0.75000000  1
  Rh  Rh0  1  0.00000000  -0.00000000  0.00000000  1
  Rh  Rh1  1  0.50000000  0.50000000  0.50000000  1
loop_
_geom_bond_atom_site_label_1
_geom_bond_atom_site_label_2
_geom_bond_distance
_geom_bond_site_symmetry_2
Hf0 Rh1 2.794078 1_555
Hf0 Rh0 2.794086 1_655
Hf0 Rh0 2.794086 1_556
Hf0 Rh0 2.794086 1_565
Hf0 Rh1 2.794093 1_545
Hf0 Rh1 2.794093 1_455
Hf0 Rh1 2.794093 1_554
Hf0 Rh0 2.794101 1_555
Hf0 Sn0 3.226330 1_554
Hf0 Sn0 3.226330 1_545
Hf0 Sn0 3.226330 1_455
Hf0 Sn0 3.226343 1_445
Hf0 Sn0 3.226343 1_544
Hf0 Sn0 3.226343 1_454
Rh0 Sn0 2.794090 1_444
Rh0 Sn0 2.794090 1_445
Rh0 Sn0 2.794090 1_454
Rh0 Sn0 2.794090 1_544
Rh1 Sn0 2.794090 1_545
Rh1 Sn0 2.794090 1_555
Rh1 Sn0 2.794090 1_554
Rh1 Sn0 2.794090 1_455
