# generated using pymatgen
data_Li2Fe2Si3O10
_symmetry_space_group_name_H-M   'P 1'
_cell_length_a   12.53859128
_cell_length_b   9.81775811
_cell_length_c   9.18317579
_cell_angle_alpha   82.51063775
_cell_angle_beta   50.92518392
_cell_angle_gamma   46.56417833
_symmetry_Int_Tables_number   1
_chemical_formula_structural   Li2Fe2Si3O10
_chemical_formula_sum   'Li4 Fe4 Si6 O20'
_cell_volume   537.35517747
_cell_formula_units_Z   2
loop_
 _symmetry_equiv_pos_site_id
 _symmetry_equiv_pos_as_xyz
  1  'x, y, z'
loop_
 _atom_site_type_symbol
 _atom_site_label
 _atom_site_symmetry_multiplicity
 _atom_site_fract_x
 _atom_site_fract_y
 _atom_site_fract_z
 _atom_site_occupancy
  Li  Li0  1  0.32053800  0.08033400  0.50443700  1
  Li  Li1  1  0.16966600  0.92946200  0.15531000  1
  Li  Li2  1  0.74556300  0.15531000  0.92946200  1
  Li  Li3  1  0.09469000  0.50443700  0.08033400  1
  Fe  Fe0  1  0.48393500  0.97253600  0.78694600  1
  Fe  Fe1  1  0.27746400  0.76606500  0.49341700  1
  Fe  Fe2  1  0.46305400  0.49341700  0.76606500  1
  Fe  Fe3  1  0.75658300  0.78694600  0.97253600  1
  Si  Si0  1  0.28055700  0.01238600  0.26318300  1
  Si  Si1  1  0.23761400  0.96944300  0.80612600  1
  Si  Si2  1  0.75008100  0.24991900  0.24991900  1
  Si  Si3  1  0.98681700  0.80612600  0.96944300  1
  Si  Si4  1  0.44387400  0.26318300  0.01238600  1
  Si  Si5  1  0.00008100  0.49991900  0.49991900  1
  O  O0  1  0.77988500  0.68499400  0.56325000  1
  O  O1  1  0.33168600  0.05389000  0.72836700  1
  O  O2  1  0.50313300  0.87069600  0.18888400  1
  O  O3  1  0.09350600  0.26651300  0.45670100  1
  O  O4  1  0.30503100  0.01076100  0.06713000  1
  O  O5  1  0.23923900  0.94496900  0.63292200  1
  O  O6  1  0.98348700  0.15649400  0.06672100  1
  O  O7  1  0.37930400  0.74686700  0.81271200  1
  O  O8  1  0.19611000  0.91831400  0.36394300  1
  O  O9  1  0.56500600  0.47011500  0.27812800  1
  O  O10  1  0.68675000  0.27812800  0.47011500  1
  O  O11  1  0.52163300  0.36394300  0.91831400  1
  O  O12  1  0.06111600  0.81271200  0.74686700  1
  O  O13  1  0.79329900  0.06672100  0.15649400  1
  O  O14  1  0.18287000  0.63292200  0.94496900  1
  O  O15  1  0.61707800  0.06713000  0.01076100  1
  O  O16  1  0.18327900  0.45670100  0.26651300  1
  O  O17  1  0.43728800  0.18888400  0.87069600  1
  O  O18  1  0.88605700  0.72836700  0.05389000  1
  O  O19  1  0.97187200  0.56325000  0.68499400  1
loop_
_geom_bond_atom_site_label_1
_geom_bond_atom_site_label_2
_geom_bond_distance
_geom_bond_site_symmetry_2
Li0 O5 2.033542 1_545
Li0 O1 2.118719 1_555
Li0 O2 2.141560 1_545
Li0 O3 2.417859 1_555
Li1 O4 2.033540 1_565
Li1 O8 2.118710 1_555
Li1 O7 2.141575 1_554
Li1 O6 2.417859 1_465
Li2 O15 2.033551 1_556
Li2 O11 2.118718 1_555
Li2 O12 2.141568 1_645
Li2 O13 2.417859 1_556
Li3 O14 2.033549 1_554
Li3 O18 2.118711 1_455
Li3 O17 2.141572 1_554
Li3 O16 2.417859 1_555
Fe0 O0 1.859111 1_555
Fe0 O17 1.896219 1_565
Fe0 O4 1.900241 1_566
Fe0 O1 1.912466 1_565
Fe1 O9 1.859111 1_555
Fe1 O12 1.896215 1_555
Fe1 O5 1.900241 1_555
Fe1 O8 1.912466 1_555
Fe2 O10 1.859114 1_555
Fe2 O7 1.896209 1_555
Fe2 O14 1.900241 1_555
Fe2 O11 1.912466 1_555
Fe3 O19 1.859108 1_555
Fe3 O2 1.896210 1_556
Fe3 O15 1.900241 1_566
Fe3 O18 1.912466 1_556
O0 Si5 1.617238 1_655
O1 Si1 1.648374 1_545
O2 Si0 1.642465 1_565
O3 Si0 1.654887 1_555
O3 Si5 1.655481 1_555
O4 Si0 1.624832 1_555
O5 Si1 1.624832 1_555
O6 Si1 1.654891 1_644
O6 Si2 1.655481 1_555
O7 Si1 1.642460 1_555
O8 Si0 1.648374 1_565
O9 Si2 1.617243 1_555
O10 Si2 1.617238 1_555
O11 Si4 1.648374 1_556
O12 Si3 1.642463 1_455
O13 Si3 1.654894 1_544
O13 Si2 1.655471 1_555
O14 Si3 1.624832 1_455
O15 Si4 1.624832 1_555
O16 Si4 1.654891 1_555
O16 Si5 1.655476 1_555
O17 Si4 1.642455 1_556
O18 Si3 1.648374 1_554
O19 Si5 1.617247 1_655
