# generated using pymatgen
data_Li2Cu2F7
_symmetry_space_group_name_H-M   'P 1'
_cell_length_a   3.91955100
_cell_length_b   13.06897620
_cell_length_c   5.24549752
_cell_angle_alpha   90.09119864
_cell_angle_beta   90.00074768
_cell_angle_gamma   98.62035674
_symmetry_Int_Tables_number   1
_chemical_formula_structural   Li2Cu2F7
_chemical_formula_sum   'Li4 Cu4 F14'
_cell_volume   265.66230923
_cell_formula_units_Z   2
loop_
 _symmetry_equiv_pos_site_id
 _symmetry_equiv_pos_as_xyz
  1  'x, y, z'
loop_
 _atom_site_type_symbol
 _atom_site_label
 _atom_site_symmetry_multiplicity
 _atom_site_fract_x
 _atom_site_fract_y
 _atom_site_fract_z
 _atom_site_occupancy
  Li  Li0  1  0.42597000  0.85424900  0.04917400  1
  Li  Li1  1  0.27697500  0.54212800  0.52407600  1
  Li  Li2  1  0.72238600  0.45778200  0.02333800  1
  Li  Li3  1  0.57381000  0.14583500  0.55037400  1
  Cu  Cu0  1  0.05228100  0.10330300  0.97636600  1
  Cu  Cu1  1  0.15952100  0.31735800  0.45825000  1
  Cu  Cu2  1  0.84049500  0.68246400  0.95858400  1
  Cu  Cu3  1  0.94786200  0.89705200  0.47736700  1
  F  F0  1  0.01444100  0.03073900  0.30280900  1
  F  F1  1  0.09169100  0.18180900  0.65074000  1
  F  F2  1  0.11646500  0.23102900  0.16002800  1
  F  F3  1  0.20375800  0.40776000  0.74187000  1
  F  F4  1  0.35065400  0.70294000  0.96756000  1
  F  F5  1  0.44833100  0.89799000  0.43200700  1
  F  F6  1  0.22359800  0.43863400  0.24721100  1
  F  F7  1  0.77672700  0.56123300  0.74690900  1
  F  F8  1  0.55173500  0.10219900  0.93051500  1
  F  F9  1  0.64922500  0.29660600  0.46701400  1
  F  F10  1  0.79640400  0.59210400  0.24170600  1
  F  F11  1  0.90813600  0.81810400  0.15118400  1
  F  F12  1  0.88395500  0.76942500  0.66087200  1
  F  F13  1  0.98558000  0.96925400  0.80288000  1
loop_
_geom_bond_atom_site_label_1
_geom_bond_atom_site_label_2
_geom_bond_distance
_geom_bond_site_symmetry_2
Cu0 F2 1.909660 1_556
Cu0 F0 1.953591 1_556
Cu0 F13 1.955301 1_445
Cu0 F8 1.974502 1_455
Cu0 F8 1.974553 1_555
Cu0 F1 1.987990 1_555
Cu1 F3 1.890037 1_555
Cu1 F2 1.919841 1_555
Cu1 F6 1.920124 1_555
Cu1 F9 1.978288 1_455
Cu1 F9 1.978870 1_555
Cu1 F1 2.023084 1_555
Cu2 F10 1.890609 1_556
Cu2 F7 1.918651 1_555
Cu2 F12 1.925356 1_555
Cu2 F4 1.977816 1_655
Cu2 F4 1.978394 1_555
Cu2 F11 2.021570 1_556
Cu3 F12 1.910821 1_555
Cu3 F13 1.944421 1_555
Cu3 F0 1.956391 1_665
Cu3 F5 1.974202 1_555
Cu3 F5 1.974210 1_655
Cu3 F11 1.990603 1_555
F1 Li3 2.081260 1_455
F1 Li3 2.081994 1_555
F3 Li1 2.080040 1_555
F3 Li2 2.517529 1_556
F3 Li2 2.556144 1_456
F4 Li0 2.000763 1_556
F5 Li0 2.085294 1_555
F6 Li1 1.972628 1_555
F6 Li2 2.262326 1_555
F6 Li2 2.334368 1_455
F7 Li2 1.973756 1_556
F7 Li1 2.262279 1_555
F7 Li1 2.327879 1_655
F8 Li3 2.073086 1_555
F9 Li3 1.997320 1_555
F10 Li2 2.078160 1_555
F10 Li1 2.523885 1_555
F10 Li1 2.557400 1_655
F11 Li0 2.083860 1_655
F11 Li0 2.085542 1_555
