# generated using pymatgen
data_Li9V5(Si5O16)2
_symmetry_space_group_name_H-M   'P 1'
_cell_length_a   8.05978314
_cell_length_b   8.05978314
_cell_length_c   8.11086187
_cell_angle_alpha   88.74520181
_cell_angle_beta   88.74520181
_cell_angle_gamma   89.04765774
_symmetry_Int_Tables_number   1
_chemical_formula_structural   Li9V5(Si5O16)2
_chemical_formula_sum   'Li9 V5 Si10 O32'
_cell_volume   526.56109300
_cell_formula_units_Z   1
loop_
 _symmetry_equiv_pos_site_id
 _symmetry_equiv_pos_as_xyz
  1  'x, y, z'
loop_
 _atom_site_type_symbol
 _atom_site_label
 _atom_site_symmetry_multiplicity
 _atom_site_fract_x
 _atom_site_fract_y
 _atom_site_fract_z
 _atom_site_occupancy
  Li  Li0  1  0.49329200  0.74640500  0.63361000  1
  Li  Li1  1  0.25359500  0.50670800  0.36639000  1
  Li  Li2  1  0.75391200  0.00388500  0.37665900  1
  Li  Li3  1  0.49814500  0.25523900  0.11720000  1
  Li  Li4  1  0.00663800  0.74192000  0.12228000  1
  Li  Li5  1  0.37549000  0.62451000  0.00000000  1
  Li  Li6  1  0.25808000  0.99336200  0.87772000  1
  Li  Li7  1  0.74476100  0.50185500  0.88280000  1
  Li  Li8  1  0.99611500  0.24608800  0.62334100  1
  V  V0  1  0.86586000  0.62805300  0.51018200  1
  V  V1  1  0.12810100  0.87189900  0.50000000  1
  V  V2  1  0.37194700  0.13414000  0.48981800  1
  V  V3  1  0.87043600  0.37645100  0.24768200  1
  V  V4  1  0.62354900  0.12956400  0.75231800  1
  Si  Si0  1  0.61152100  0.38847900  0.50000000  1
  Si  Si1  1  0.61543700  0.63101900  0.24920000  1
  Si  Si2  1  0.38027100  0.87741800  0.23681500  1
  Si  Si3  1  0.13282500  0.11903900  0.23294300  1
  Si  Si4  1  0.63036900  0.86833800  0.00882500  1
  Si  Si5  1  0.88393900  0.11606100  0.00000000  1
  Si  Si6  1  0.13166200  0.36963100  0.99117500  1
  Si  Si7  1  0.88096100  0.86717500  0.76705700  1
  Si  Si8  1  0.12258200  0.61972900  0.76318500  1
  Si  Si9  1  0.36898100  0.38456300  0.75080000  1
  O  O0  1  0.87873800  0.87442900  0.54644700  1
  O  O1  1  0.38757000  0.38071500  0.52118000  1
  O  O2  1  0.61940200  0.16452500  0.50576600  1
  O  O3  1  0.37361600  0.88987200  0.46380900  1
  O  O4  1  0.11012800  0.62638400  0.53619100  1
  O  O5  1  0.83547500  0.38059800  0.49423400  1
  O  O6  1  0.61928500  0.61243000  0.47882000  1
  O  O7  1  0.12557100  0.12126200  0.45355300  1
  O  O8  1  0.84245500  0.62000400  0.25929800  1
  O  O9  1  0.35550300  0.10551700  0.23815000  1
  O  O10  1  0.15472600  0.89289100  0.23959600  1
  O  O11  1  0.90634300  0.11859800  0.22214600  1
  O  O12  1  0.61257800  0.40601700  0.27299800  1
  O  O13  1  0.39732300  0.66068900  0.24910000  1
  O  O14  1  0.61502300  0.86548800  0.23726500  1
  O  O15  1  0.12908600  0.34598500  0.21208400  1
  O  O16  1  0.63372800  0.65124100  0.03311600  1
  O  O17  1  0.11230300  0.13235300  0.00717700  1
  O  O18  1  0.89624300  0.33882700  0.99685500  1
  O  O19  1  0.11400500  0.58512200  0.97985600  1
  O  O20  1  0.41487800  0.88599500  0.02014400  1
  O  O21  1  0.66117300  0.10375700  0.00314500  1
  O  O22  1  0.86764700  0.88769700  0.99282300  1
  O  O23  1  0.34875900  0.36627200  0.96688400  1
  O  O24  1  0.65401500  0.87091400  0.78791600  1
  O  O25  1  0.13451200  0.38497700  0.76273500  1
  O  O26  1  0.33931100  0.60267700  0.75090000  1
  O  O27  1  0.59398300  0.38742200  0.72700200  1
  O  O28  1  0.88140200  0.09365700  0.77785400  1
  O  O29  1  0.10710900  0.84527400  0.76040400  1
  O  O30  1  0.89448300  0.64449700  0.76185000  1
  O  O31  1  0.37999600  0.15754500  0.74070200  1
loop_
_geom_bond_atom_site_label_1
_geom_bond_atom_site_label_2
_geom_bond_distance
_geom_bond_site_symmetry_2
Li0 O26 1.932608 1_555
Li0 O6 1.934037 1_555
Li0 O3 2.028686 1_555
Li0 O24 2.102546 1_555
Li1 O13 1.932608 1_555
Li1 O1 1.934037 1_555
Li1 O4 2.028686 1_555
Li1 O15 2.102546 1_555
Li2 O11 1.963249 1_555
Li2 O2 1.977673 1_555
Li2 O14 1.981857 1_545
Li2 O0 1.990017 1_545
Li3 O9 1.919679 1_555
Li3 O23 1.928116 1_554
Li3 O21 2.003953 1_555
Li3 O12 2.019860 1_555
Li4 O19 1.914202 1_554
Li4 O22 1.921365 1_454
Li4 O8 1.970445 1_455
Li4 O10 1.989801 1_555
Li5 O26 2.059406 1_554
Li5 O13 2.059406 1_555
Li5 O16 2.119546 1_555
Li5 O23 2.119546 1_554
Li5 O20 2.146783 1_555
Li5 O19 2.146783 1_554
Li6 O20 1.914202 1_556
Li6 O17 1.921365 1_566
Li6 O31 1.970445 1_565
Li6 O29 1.989801 1_555
Li7 O30 1.919679 1_555
Li7 O16 1.928116 1_556
Li7 O18 2.003953 1_555
Li7 O27 2.019860 1_555
Li8 O28 1.963249 1_555
Li8 O5 1.977673 1_555
Li8 O25 1.981857 1_655
Li8 O7 1.990017 1_655
O0 Si7 1.789484 1_555
O0 V0 2.018468 1_555
O0 V1 2.036540 1_655
O1 Si0 1.811392 1_555
O1 Si9 1.866054 1_555
O1 V2 2.015427 1_555
O2 Si0 1.804700 1_555
O2 V4 2.014311 1_555
O2 V2 2.020741 1_555
O3 Si2 1.845604 1_555
O3 V2 1.984398 1_565
O3 V1 2.001254 1_555
O4 Si8 1.845604 1_555
O4 V0 1.984398 1_455
O4 V1 2.001254 1_555
O5 Si0 1.804700 1_555
O5 V3 2.014311 1_555
O5 V0 2.020741 1_555
O6 Si0 1.811392 1_555
O6 Si1 1.866054 1_555
O6 V0 2.015427 1_555
O7 Si3 1.789484 1_555
O7 V2 2.018468 1_555
O7 V1 2.036540 1_545
O8 Si1 1.833929 1_555
O8 V3 1.976233 1_555
O8 V0 2.050257 1_555
O9 Si3 1.797597 1_555
O9 Si2 1.846176 1_545
O9 V2 2.066629 1_555
O10 Si2 1.819728 1_555
O10 Si3 1.828041 1_565
O10 V1 2.121639 1_555
O11 Si5 1.815345 1_555
O11 Si3 1.829476 1_655
O11 V3 2.107597 1_555
O12 Si1 1.819977 1_555
O12 Si0 1.843355 1_555
O12 V3 2.094083 1_555
O13 Si2 1.750738 1_555
O13 Si1 1.770214 1_555
O14 Si4 1.853930 1_555
O14 Si1 1.890080 1_555
O14 Si2 1.892974 1_555
O15 Si6 1.797418 1_554
O15 Si3 1.833059 1_555
O15 V3 2.109314 1_455
O16 Si4 1.756346 1_555
O16 Si1 1.759822 1_555
O17 Si3 1.842845 1_555
O17 Si5 1.849694 1_455
O17 Si6 1.922670 1_554
O18 Si5 1.799420 1_556
O18 Si6 1.917112 1_655
O18 V3 2.068934 1_556
O19 Si6 1.740852 1_555
O19 Si8 1.773371 1_555
O20 Si4 1.740852 1_555
O20 Si2 1.773371 1_555
O21 Si5 1.799420 1_555
O21 Si4 1.917112 1_545
O21 V4 2.068934 1_554
O22 Si7 1.842845 1_555
O22 Si5 1.849694 1_566
O22 Si4 1.922670 1_556
O23 Si6 1.756346 1_555
O23 Si9 1.759822 1_555
O24 Si4 1.797418 1_556
O24 Si7 1.833059 1_555
O24 V4 2.109314 1_565
O25 Si6 1.853930 1_555
O25 Si9 1.890080 1_555
O25 Si8 1.892974 1_555
O26 Si8 1.750738 1_555
O26 Si9 1.770214 1_555
O27 Si9 1.819977 1_555
O27 Si0 1.843355 1_555
O27 V4 2.094083 1_555
O28 Si5 1.815345 1_556
O28 Si7 1.829476 1_545
O28 V4 2.107597 1_555
O29 Si8 1.819728 1_555
O29 Si7 1.828041 1_455
O29 V1 2.121639 1_555
O30 Si7 1.797597 1_555
O30 Si8 1.846176 1_655
O30 V0 2.066629 1_555
O31 Si9 1.833929 1_555
O31 V4 1.976233 1_555
O31 V2 2.050257 1_555
