# generated using pymatgen
data_KAlSiO4
_symmetry_space_group_name_H-M   'P 1'
_cell_length_a   5.22899878
_cell_length_b   5.22899878
_cell_length_c   8.85985300
_cell_angle_alpha   90.00000000
_cell_angle_beta   90.00000000
_cell_angle_gamma   120.00000981
_symmetry_Int_Tables_number   1
_chemical_formula_structural   KAlSiO4
_chemical_formula_sum   'K2 Al2 Si2 O8'
_cell_volume   209.79454194
_cell_formula_units_Z   2
loop_
 _symmetry_equiv_pos_site_id
 _symmetry_equiv_pos_as_xyz
  1  'x, y, z'
loop_
 _atom_site_type_symbol
 _atom_site_label
 _atom_site_symmetry_multiplicity
 _atom_site_fract_x
 _atom_site_fract_y
 _atom_site_fract_z
 _atom_site_occupancy
  K  K0  1  0.00000000  0.00000000  0.24314400  1
  K  K1  1  0.00000000  0.00000000  0.74314400  1
  Al  Al0  1  0.66666700  0.33333300  0.54953300  1
  Al  Al1  1  0.33333300  0.66666700  0.04953300  1
  Si  Si0  1  0.33333300  0.66666700  0.43158400  1
  Si  Si1  1  0.66666700  0.33333300  0.93158400  1
  O  O0  1  0.38189000  0.98549600  0.48971000  1
  O  O1  1  0.39639400  0.38189000  0.98971000  1
  O  O2  1  0.98549600  0.60360600  0.98971000  1
  O  O3  1  0.01450400  0.39639400  0.48971000  1
  O  O4  1  0.60360600  0.61811000  0.48971000  1
  O  O5  1  0.61811000  0.01450400  0.98971000  1
  O  O6  1  0.33333300  0.66666700  0.24720800  1
  O  O7  1  0.66666700  0.33333300  0.74720800  1
loop_
_geom_bond_atom_site_label_1
_geom_bond_atom_site_label_2
_geom_bond_distance
_geom_bond_site_symmetry_2
K0 O4 2.986139 1_445
K0 O3 2.986139 1_555
K0 O0 2.986139 1_545
K0 O6 3.019176 1_545
K0 O6 3.019180 1_445
K0 O6 3.019180 1_555
K0 O1 3.030938 1_554
K0 O2 3.030938 1_444
K0 O5 3.030938 1_454
K1 O1 2.986139 1_555
K1 O2 2.986139 1_445
K1 O5 2.986139 1_455
K1 O7 3.019176 1_455
K1 O7 3.019180 1_555
K1 O7 3.019180 1_445
K1 O4 3.030938 1_445
K1 O3 3.030938 1_555
K1 O0 3.030938 1_545
Al0 O7 1.751371 1_555
Al0 O3 1.760136 1_655
Al0 O0 1.760137 1_545
Al0 O4 1.760141 1_555
Al1 O6 1.751371 1_555
Al1 O2 1.760136 1_454
Al1 O5 1.760137 1_564
Al1 O1 1.760141 1_554
O0 Si0 1.638839 1_555
O1 Si1 1.638844 1_555
O2 Si1 1.638840 1_555
O3 Si0 1.638840 1_555
O4 Si0 1.638844 1_555
O5 Si1 1.638839 1_555
O6 Si0 1.633544 1_555
O7 Si1 1.633544 1_555
