# generated using pymatgen
data_CaSiPt
_symmetry_space_group_name_H-M   'P 1'
_cell_length_a   5.92467584
_cell_length_b   5.91257695
_cell_length_c   7.12785156
_cell_angle_alpha   109.11707372
_cell_angle_beta   90.00000000
_cell_angle_gamma   90.00000000
_symmetry_Int_Tables_number   1
_chemical_formula_structural   CaSiPt
_chemical_formula_sum   'Ca4 Si4 Pt4'
_cell_volume   235.91933715
_cell_formula_units_Z   4
loop_
 _symmetry_equiv_pos_site_id
 _symmetry_equiv_pos_as_xyz
  1  'x, y, z'
loop_
 _atom_site_type_symbol
 _atom_site_label
 _atom_site_symmetry_multiplicity
 _atom_site_fract_x
 _atom_site_fract_y
 _atom_site_fract_z
 _atom_site_occupancy
  Ca  Ca0  1  0.12880929  0.31644009  0.11254696  1
  Ca  Ca1  1  0.37119071  0.81644009  0.61254696  1
  Ca  Ca2  1  0.87119071  0.68355991  0.88745304  1
  Ca  Ca3  1  0.62880929  0.18355991  0.38745304  1
  Si  Si0  1  0.62367421  0.18612457  0.94283999  1
  Si  Si1  1  0.37632579  0.81387543  0.05716001  1
  Si  Si2  1  0.12367421  0.31387543  0.55716001  1
  Si  Si3  1  0.87632579  0.68612457  0.44283999  1
  Pt  Pt0  1  0.60611081  0.56764733  0.19072666  1
  Pt  Pt1  1  0.39388919  0.43235267  0.80927334  1
  Pt  Pt2  1  0.89388919  0.06764733  0.69072666  1
  Pt  Pt3  1  0.10611081  0.93235267  0.30927334  1
loop_
_geom_bond_atom_site_label_1
_geom_bond_atom_site_label_2
_geom_bond_distance
_geom_bond_site_symmetry_2
Ca0 Pt1 2.929075 1_554
Ca0 Si3 3.031068 1_455
Ca0 Pt3 3.037652 1_545
Ca0 Pt0 3.157727 1_555
Ca0 Si0 3.168999 1_554
Ca0 Si2 3.174280 1_555
Ca0 Pt2 3.200651 1_454
Ca0 Si1 3.219860 1_545
Ca0 Si0 3.225377 1_454
Ca1 Pt3 2.929075 1_555
Ca1 Si0 3.031068 1_565
Ca1 Pt1 3.037652 1_555
Ca1 Pt2 3.157727 1_465
Ca1 Si3 3.168999 1_455
Ca1 Si1 3.174280 1_556
Ca1 Pt0 3.200651 1_555
Ca1 Si2 3.219860 1_555
Ca1 Si3 3.225377 1_555
Ca2 Pt0 2.929075 1_556
Ca2 Si2 3.031068 1_655
Ca2 Pt2 3.037652 1_565
Ca2 Pt1 3.157727 1_555
Ca2 Si1 3.168999 1_556
Ca2 Si3 3.174280 1_555
Ca2 Pt3 3.200651 1_656
Ca2 Si0 3.219860 1_565
Ca2 Si1 3.225377 1_656
Ca3 Pt2 2.929075 1_555
Ca3 Si1 3.031068 1_545
Ca3 Pt0 3.037652 1_555
Ca3 Pt3 3.157727 1_645
Ca3 Si2 3.168999 1_655
Ca3 Si0 3.174280 1_554
Ca3 Pt1 3.200651 1_555
Ca3 Si3 3.219860 1_555
Ca3 Si2 3.225377 1_555
Pt0 Si3 2.336339 1_555
Pt0 Si0 2.368683 1_554
Pt0 Si1 2.405644 1_555
Pt1 Si2 2.336339 1_555
Pt1 Si1 2.368683 1_556
Pt1 Si0 2.405644 1_555
Pt2 Si0 2.336339 1_555
Pt2 Si3 2.368683 1_545
Pt2 Si2 2.405644 1_655
Pt3 Si1 2.336339 1_555
Pt3 Si2 2.368683 1_565
Pt3 Si3 2.405644 1_455
