# generated using pymatgen
data_V2OF5
_symmetry_space_group_name_H-M   'P 1'
_cell_length_a   5.42189400
_cell_length_b   7.59419422
_cell_length_c   9.06247628
_cell_angle_alpha   113.85550271
_cell_angle_beta   105.88555836
_cell_angle_gamma   92.89503972
_symmetry_Int_Tables_number   1
_chemical_formula_structural   V2OF5
_chemical_formula_sum   'V6 O3 F15'
_cell_volume   322.67618432
_cell_formula_units_Z   3
loop_
 _symmetry_equiv_pos_site_id
 _symmetry_equiv_pos_as_xyz
  1  'x, y, z'
loop_
 _atom_site_type_symbol
 _atom_site_label
 _atom_site_symmetry_multiplicity
 _atom_site_fract_x
 _atom_site_fract_y
 _atom_site_fract_z
 _atom_site_occupancy
  V  V0  1  0.00855500  0.00696700  0.99585600  1
  V  V1  1  0.01828100  0.49367400  0.00723000  1
  V  V2  1  0.04277400  0.01537000  0.66001100  1
  V  V3  1  0.95549200  0.48174600  0.68200900  1
  V  V4  1  0.99415900  0.49609100  0.33745100  1
  V  V5  1  0.99448300  0.00575300  0.33079900  1
  O  O0  1  0.51944300  0.26087800  0.85203900  1
  O  O1  1  0.47953900  0.23605900  0.53537000  1
  O  O2  1  0.07608500  0.34018400  0.13305300  1
  F  F0  1  0.51712700  0.75761900  0.79788000  1
  F  F1  1  0.09208800  0.84689500  0.60244600  1
  F  F2  1  0.90810200  0.64987200  0.86929300  1
  F  F3  1  0.09408600  0.34495700  0.47027200  1
  F  F4  1  0.90218200  0.14830200  0.73417600  1
  F  F5  1  0.09736500  0.85030000  0.93180500  1
  F  F6  1  0.90445900  0.65263300  0.19816400  1
  F  F7  1  0.09870900  0.35357500  0.79852100  1
  F  F8  1  0.90140000  0.15728100  0.06217300  1
  F  F9  1  0.48350700  0.73897600  0.47678600  1
  F  F10  1  0.50133200  0.75113500  0.13387400  1
  F  F11  1  0.09540400  0.84895900  0.26775400  1
  F  F12  1  0.91423400  0.65625900  0.52814000  1
  F  F13  1  0.90318500  0.15150900  0.39908700  1
  F  F14  1  0.49801400  0.25500800  0.19581000  1
loop_
_geom_bond_atom_site_label_1
_geom_bond_atom_site_label_2
_geom_bond_distance
_geom_bond_site_symmetry_2
O0 V2 2.758745 1_555
O0 V1 2.800370 1_656
O1 V3 2.745408 1_555
O1 V5 2.766950 1_455
O2 V1 1.916635 1_555
O2 V4 1.939054 1_455
F0 V0 2.833624 1_665
F1 V2 1.245641 1_565
F1 F12 1.481285 1_455
F2 V3 1.759522 1_555
F2 V1 2.046637 1_656
F3 V4 1.970527 1_455
F3 V3 2.140487 1_455
F4 V2 1.364295 1_655
F5 V0 1.279294 1_565
F6 V1 1.949982 1_655
F6 V4 2.044331 1_555
F7 V3 1.767512 1_455
F7 V1 1.941716 1_556
F8 V0 1.305761 1_654
F8 O2 1.432255 1_655
F9 V4 2.797111 1_455
F10 V1 2.832245 1_555
F10 V5 2.854359 1_565
F11 V5 1.315426 1_465
F12 V4 1.848418 1_555
F12 V3 2.259392 1_555
F13 V5 1.233779 1_555
F13 F3 1.536223 1_655
F14 V4 2.819094 1_555
F14 V0 2.824188 1_554
