# generated using pymatgen
data_Li3V2P5O18
_symmetry_space_group_name_H-M   'P 1'
_cell_length_a   9.33155300
_cell_length_b   10.57703957
_cell_length_c   6.43949532
_cell_angle_alpha   93.06072214
_cell_angle_beta   91.90268306
_cell_angle_gamma   95.75780136
_symmetry_Int_Tables_number   1
_chemical_formula_structural   Li3V2P5O18
_chemical_formula_sum   'Li6 V4 P10 O36'
_cell_volume   630.99511824
_cell_formula_units_Z   2
loop_
 _symmetry_equiv_pos_site_id
 _symmetry_equiv_pos_as_xyz
  1  'x, y, z'
loop_
 _atom_site_type_symbol
 _atom_site_label
 _atom_site_symmetry_multiplicity
 _atom_site_fract_x
 _atom_site_fract_y
 _atom_site_fract_z
 _atom_site_occupancy
  Li  Li0  1  0.66706600  0.12612000  0.20859400  1
  Li  Li1  1  0.40132800  0.44693800  0.73107400  1
  Li  Li2  1  0.86854200  0.99419900  0.06088000  1
  Li  Li3  1  0.33293400  0.87388000  0.79140600  1
  Li  Li4  1  0.59867200  0.55306200  0.26892600  1
  Li  Li5  1  0.13145800  0.00580100  0.93912000  1
  V  V0  1  0.40937500  0.22737500  0.34564700  1
  V  V1  1  0.04767000  0.66951700  0.22808100  1
  V  V2  1  0.95233000  0.33048300  0.77191900  1
  V  V3  1  0.59062500  0.77262500  0.65435300  1
  P  P0  1  0.89690900  0.82966700  0.72749500  1
  P  P1  1  0.35146000  0.72187200  0.41474500  1
  P  P2  1  0.20237400  0.51509400  0.95548700  1
  P  P3  1  0.60244300  0.77999400  0.99092200  1
  P  P4  1  0.82584500  0.83018600  0.41651900  1
  P  P5  1  0.39755700  0.22000600  0.00907800  1
  P  P6  1  0.10309100  0.17033300  0.27250500  1
  P  P7  1  0.17415500  0.16981400  0.58348100  1
  P  P8  1  0.79762600  0.48490600  0.04451300  1
  P  P9  1  0.64854000  0.27812800  0.58525500  1
  O  O0  1  0.68390900  0.58142000  0.95320800  1
  O  O1  1  0.51976700  0.78193400  0.83661800  1
  O  O2  1  0.90361800  0.90988600  0.56960700  1
  O  O3  1  0.10038500  0.33160500  0.91858000  1
  O  O4  1  0.24963800  0.60972600  0.82540000  1
  O  O5  1  0.89961500  0.66839500  0.08142000  1
  O  O6  1  0.52638400  0.72460400  0.11236000  1
  O  O7  1  0.19035300  0.99438100  0.68243900  1
  O  O8  1  0.59785800  0.06313900  0.64044400  1
  O  O9  1  0.95521200  0.01642900  0.82361800  1
  O  O10  1  0.06897500  0.31344300  0.63545500  1
  O  O11  1  0.59904300  0.26247800  0.42189900  1
  O  O12  1  0.93102500  0.68655700  0.36454500  1
  O  O13  1  0.04478800  0.98357100  0.17638200  1
  O  O14  1  0.47361600  0.27539600  0.88764000  1
  O  O15  1  0.48023300  0.21806600  0.16338200  1
  O  O16  1  0.70113600  0.71881500  0.45303500  1
  O  O17  1  0.31046200  0.02692300  0.98219800  1
  O  O18  1  0.79253600  0.30688100  0.62478200  1
  O  O19  1  0.20746400  0.69311900  0.37521800  1
  O  O20  1  0.09638200  0.09011400  0.43039300  1
  O  O21  1  0.24250800  0.21461100  0.25142400  1
  O  O22  1  0.03046800  0.36441400  0.24025200  1
  O  O23  1  0.75749200  0.78538900  0.74857600  1
  O  O24  1  0.29886400  0.28118500  0.54696500  1
  O  O25  1  0.85023800  0.33458500  0.93297000  1
  O  O26  1  0.14976200  0.66541500  0.06703000  1
  O  O27  1  0.75036200  0.39027400  0.17460000  1
  O  O28  1  0.68953800  0.97307700  0.01780200  1
  O  O29  1  0.58088100  0.46509900  0.64981000  1
  O  O30  1  0.80964700  0.00561900  0.31756100  1
  O  O31  1  0.96953200  0.63558600  0.75974800  1
  O  O32  1  0.40095700  0.73752200  0.57810100  1
  O  O33  1  0.31609100  0.41858000  0.04679200  1
  O  O34  1  0.41911900  0.53490100  0.35019000  1
  O  O35  1  0.40214200  0.93686100  0.35955600  1
loop_
_geom_bond_atom_site_label_1
_geom_bond_atom_site_label_2
_geom_bond_distance
_geom_bond_site_symmetry_2
Li0 O28 2.011617 1_545
Li0 O30 2.064179 1_555
Li0 O11 2.097568 1_555
Li0 O15 2.099256 1_555
Li1 O29 1.767045 1_555
Li1 O24 2.181706 1_555
Li1 O33 2.231726 1_556
Li1 O14 2.271419 1_555
Li1 O4 2.402432 1_555
Li2 O28 1.674749 1_555
Li2 O30 1.760970 1_565
Li2 O9 1.768040 1_564
Li2 O13 1.798750 1_655
Li3 O17 2.011617 1_565
Li3 O7 2.064179 1_555
Li3 O32 2.097568 1_555
Li3 O1 2.099256 1_555
Li4 O34 1.767045 1_555
Li4 O16 2.181706 1_555
Li4 O0 2.231726 1_554
Li4 O6 2.271419 1_555
Li4 O27 2.402432 1_555
Li5 O17 1.674749 1_555
Li5 O7 1.760970 1_545
Li5 O13 1.768040 1_546
Li5 O9 1.798750 1_455
O0 P8 1.659477 1_556
O0 P3 2.307902 1_555
O1 P3 1.239918 1_555
O1 V3 1.369933 1_555
O2 P0 1.357662 1_555
O2 P4 1.396477 1_555
O3 V2 1.646122 1_455
O3 P2 2.072186 1_555
O4 P2 1.386941 1_555
O5 V1 1.646122 1_655
O5 P8 2.072186 1_555
O6 P3 1.208656 1_554
O7 P7 2.012009 1_565
O8 P9 2.324325 1_555
O10 V2 1.440644 1_455
O10 P7 1.910474 1_555
O11 P9 1.131855 1_555
O11 V0 1.817268 1_555
O12 V1 1.440644 1_655
O12 P4 1.910474 1_555
O14 P5 1.208656 1_556
O15 P5 1.239918 1_555
O15 V0 1.369933 1_555
O16 P4 1.603084 1_555
O16 V3 1.787667 1_555
O17 P5 2.116870 1_556
O18 P9 1.360093 1_555
O18 V2 1.729088 1_555
O19 P1 1.360093 1_555
O19 V1 1.729088 1_555
O20 P6 1.357662 1_555
O20 P7 1.396477 1_555
O21 P6 1.351506 1_555
O21 V0 1.642362 1_555
O22 P6 2.243146 1_555
O23 P0 1.351506 1_555
O23 V3 1.642362 1_555
O24 P7 1.603084 1_555
O24 V0 1.787667 1_555
O25 V2 1.433221 1_555
O25 P8 1.828384 1_556
O26 V1 1.433221 1_555
O26 P2 1.828384 1_554
O27 P8 1.386941 1_555
O28 P3 2.116870 1_554
O30 P4 2.012009 1_545
O31 P0 2.243146 1_555
O32 P1 1.131855 1_555
O32 V3 1.817268 1_555
O33 P2 1.659477 1_554
O33 P5 2.307902 1_555
O35 P1 2.324325 1_555
