# generated using pymatgen
data_Li5Mn4(P2O7)4
_symmetry_space_group_name_H-M   'P 1'
_cell_length_a   9.71042603
_cell_length_b   9.71920964
_cell_length_c   11.26777943
_cell_angle_alpha   90.19477807
_cell_angle_beta   102.66668805
_cell_angle_gamma   89.40213088
_symmetry_Int_Tables_number   1
_chemical_formula_structural   Li5Mn4(P2O7)4
_chemical_formula_sum   'Li10 Mn8 P16 O56'
_cell_volume   1037.48809984
_cell_formula_units_Z   2
loop_
 _symmetry_equiv_pos_site_id
 _symmetry_equiv_pos_as_xyz
  1  'x, y, z'
loop_
 _atom_site_type_symbol
 _atom_site_label
 _atom_site_symmetry_multiplicity
 _atom_site_fract_x
 _atom_site_fract_y
 _atom_site_fract_z
 _atom_site_occupancy
  Li  Li0  1  0.17040900  0.42436500  0.54009800  1
  Li  Li1  1  0.40895000  0.60846600  0.97368600  1
  Li  Li2  1  0.33727900  0.92216400  0.46087000  1
  Li  Li3  1  0.64667800  0.06070200  0.52610400  1
  Li  Li4  1  0.58950100  0.39260200  0.03053700  1
  Li  Li5  1  0.85278000  0.58727700  0.95683100  1
  Li  Li6  1  0.64926600  0.08904800  0.04409500  1
  Li  Li7  1  0.91843800  0.90603200  0.97233100  1
  Li  Li8  1  0.82518900  0.58743700  0.45318200  1
  Li  Li9  1  0.88349300  0.28068600  0.54813900  1
  Mn  Mn0  1  0.19950000  0.92372800  0.67251800  1
  Mn  Mn1  1  0.25970000  0.21186100  0.82956600  1
  Mn  Mn2  1  0.23267100  0.72074600  0.17235500  1
  Mn  Mn3  1  0.29975200  0.42526600  0.32392700  1
  Mn  Mn4  1  0.70071700  0.57672300  0.67271100  1
  Mn  Mn5  1  0.76612500  0.27848500  0.83155000  1
  Mn  Mn6  1  0.74026800  0.78536500  0.17433100  1
  Mn  Mn7  1  0.79989400  0.07472800  0.32491300  1
  P  P0  1  0.02876200  0.44632600  0.75764100  1
  P  P1  1  0.11886700  0.71276000  0.88756100  1
  P  P2  1  0.06646700  0.92677800  0.24250300  1
  P  P3  1  0.12349700  0.14838900  0.42562300  1
  P  P4  1  0.37776800  0.64620700  0.57491800  1
  P  P5  1  0.43684900  0.42821000  0.75927100  1
  P  P6  1  0.52137600  0.05424300  0.75597100  1
  P  P7  1  0.37773400  0.21029500  0.11047700  1
  P  P8  1  0.61531200  0.79256400  0.89286400  1
  P  P9  1  0.47253800  0.94471100  0.24506200  1
  P  P10  1  0.56361800  0.57284000  0.23973500  1
  P  P11  1  0.62087200  0.35087500  0.41866000  1
  P  P12  1  0.87884000  0.85036400  0.57941100  1
  P  P13  1  0.93226100  0.07244800  0.75758300  1
  P  P14  1  0.89107900  0.28852000  0.10817900  1
  P  P15  1  0.97554700  0.55216700  0.24596500  1
  O  O0  1  0.01970600  0.41901100  0.62403300  1
  O  O1  1  0.03527200  0.84156000  0.57342700  1
  O  O2  1  0.08032200  0.08487100  0.72917600  1
  O  O3  1  0.11640500  0.34089200  0.84503800  1
  O  O4  1  0.10558700  0.58980200  0.78716100  1
  O  O5  1  0.17739300  0.82988300  0.82516200  1
  O  O6  1  0.22594800  0.65970500  0.00370700  1
  O  O7  1  0.02858600  0.26528700  0.07692000  1
  O  O8  1  0.12197300  0.07399600  0.29582900  1
  O  O9  1  0.06808000  0.91538500  0.10938700  1
  O  O10  1  0.12874200  0.55068400  0.21753300  1
  O  O11  1  0.18282300  0.29088300  0.41326900  1
  O  O12  1  0.17962900  0.81953900  0.30865600  1
  O  O13  1  0.21313300  0.05464400  0.52239900  1
  O  O14  1  0.28841700  0.55704300  0.47550100  1
  O  O15  1  0.32696500  0.31724300  0.70205100  1
  O  O16  1  0.32084500  0.79166300  0.58830100  1
  O  O17  1  0.36662600  0.04663900  0.78183100  1
  O  O18  1  0.36991400  0.57197000  0.70197100  1
  O  O19  1  0.44176200  0.43708500  0.89403700  1
  O  O20  1  0.47603300  0.76923400  0.92286100  1
  O  O21  1  0.27438100  0.15941600  0.99405000  1
  O  O22  1  0.32158100  0.33127000  0.17389300  1
  O  O23  1  0.39446100  0.08871500  0.21024500  1
  O  O24  1  0.41973100  0.59076900  0.27279900  1
  O  O25  1  0.38553300  0.83783600  0.15995300  1
  O  O26  1  0.52142100  0.08322000  0.62660300  1
  O  O27  1  0.46650300  0.34537000  0.42712400  1
  O  O28  1  0.53463200  0.65382000  0.57025900  1
  O  O29  1  0.48654800  0.92932000  0.37925300  1
  O  O30  1  0.60949300  0.15099600  0.85358400  1
  O  O31  1  0.58373600  0.41290900  0.72653600  1
  O  O32  1  0.59483100  0.90493700  0.78425900  1
  O  O33  1  0.68761300  0.67058700  0.84308200  1
  O  O34  1  0.72459000  0.85968400  0.00497500  1
  O  O35  1  0.52374600  0.22909700  0.08643500  1
  O  O36  1  0.56440200  0.56689900  0.10587900  1
  O  O37  1  0.62796000  0.42566500  0.29275900  1
  O  O38  1  0.62384500  0.95067000  0.20956400  1
  O  O39  1  0.68229800  0.20510800  0.41025000  1
  O  O40  1  0.67580400  0.68080400  0.30085500  1
  O  O41  1  0.72146900  0.43264500  0.51744900  1
  O  O42  1  0.78924400  0.93895200  0.47998500  1
  O  O43  1  0.83033700  0.18604200  0.68812500  1
  O  O44  1  0.82250100  0.70497900  0.59249800  1
  O  O45  1  0.87622800  0.45855400  0.78702000  1
  O  O46  1  0.91725300  0.07837600  0.88815800  1
  O  O47  1  0.87101100  0.92562800  0.70647900  1
  O  O48  1  0.97472100  0.73111300  0.91514900  1
  O  O49  1  0.77715700  0.35632900  0.99788100  1
  O  O50  1  0.81572600  0.17083000  0.16036000  1
  O  O51  1  0.90628600  0.40426000  0.21697100  1
  O  O52  1  0.88179700  0.65058600  0.14939900  1
  O  O53  1  0.91760000  0.91126200  0.27150500  1
  O  O54  1  0.96863900  0.16166400  0.43724300  1
  O  O55  1  0.97617000  0.58032200  0.37640500  1
loop_
_geom_bond_atom_site_label_1
_geom_bond_atom_site_label_2
_geom_bond_distance
_geom_bond_site_symmetry_2
Li0 O0 1.909864 1_555
Li0 O11 1.949250 1_555
Li0 O14 1.977062 1_555
Li0 O15 2.342731 1_555
Li1 O20 1.839769 1_555
Li1 O36 1.914625 1_556
Li1 O6 1.940173 1_556
Li1 O19 1.945674 1_555
Li2 O29 1.881133 1_555
Li2 O16 1.952696 1_555
Li2 O13 1.979874 1_565
Li2 O12 2.269086 1_555
Li3 O26 1.845647 1_555
Li3 O42 1.965682 1_545
Li3 O39 2.003548 1_555
Li3 O29 2.384331 1_545
Li3 O43 2.569007 1_555
Li4 O35 1.879925 1_555
Li4 O19 1.906442 1_554
Li4 O36 1.929294 1_555
Li4 O49 1.964672 1_554
Li5 O48 1.964664 1_555
Li5 O33 1.987240 1_555
Li5 O52 2.211902 1_556
Li5 O45 2.333875 1_555
Li5 O49 2.445809 1_555
Li6 O35 1.944725 1_555
Li6 O50 2.012915 1_555
Li6 O30 2.181756 1_554
Li6 O38 2.360470 1_545
Li6 O34 2.408209 1_545
Li7 O9 1.876781 1_656
Li7 O46 1.926415 1_565
Li7 O48 1.931757 1_555
Li7 O34 2.050345 1_556
Li8 O55 1.859118 1_555
Li8 O44 1.942978 1_555
Li8 O41 2.039863 1_555
Li8 O40 2.182861 1_555
Li9 O0 1.954858 1_655
Li9 O43 1.994339 1_555
Li9 O54 2.001617 1_555
Li9 O41 2.119575 1_555
Li9 O39 2.336972 1_555
Mn0 O1 1.914995 1_555
Mn0 O5 2.003233 1_555
Mn0 O16 2.094511 1_555
Mn0 O2 2.116402 1_565
Mn0 O13 2.148041 1_565
Mn0 O17 2.175245 1_565
Mn1 O21 1.898461 1_555
Mn1 O3 1.899405 1_555
Mn1 O15 1.993904 1_555
Mn1 O17 2.037227 1_555
Mn1 O2 2.237895 1_555
Mn2 O25 1.909250 1_555
Mn2 O12 1.967875 1_555
Mn2 O6 1.976377 1_555
Mn2 O10 2.067709 1_555
Mn2 O24 2.288331 1_555
Mn2 O9 2.466817 1_555
Mn3 O27 1.931618 1_555
Mn3 O22 1.969799 1_555
Mn3 O11 2.132997 1_555
Mn3 O24 2.148592 1_555
Mn3 O14 2.152682 1_555
Mn3 O10 2.185226 1_555
Mn4 O28 1.912926 1_555
Mn4 O44 2.067953 1_555
Mn4 O31 2.130620 1_555
Mn4 O33 2.150932 1_555
Mn4 O45 2.211142 1_555
Mn4 O41 2.279074 1_555
Mn5 O49 2.000112 1_555
Mn5 O30 2.029125 1_555
Mn5 O43 2.056238 1_555
Mn5 O45 2.176710 1_555
Mn5 O31 2.299331 1_555
Mn5 O46 2.425171 1_555
Mn6 O52 1.952651 1_555
Mn6 O40 1.967631 1_555
Mn6 O34 2.016451 1_555
Mn6 O38 2.042434 1_555
Mn6 O53 2.206647 1_555
Mn7 O54 2.028050 1_555
Mn7 O39 2.068182 1_555
Mn7 O53 2.109493 1_545
Mn7 O50 2.115112 1_555
Mn7 O42 2.214277 1_545
Mn7 O38 2.263509 1_545
O0 P0 1.511406 1_555
O1 P12 1.536704 1_455
O2 P13 1.545905 1_455
O3 P0 1.537938 1_555
O4 P0 1.587907 1_555
O4 P1 1.629305 1_555
O5 P1 1.518991 1_555
O6 P1 1.567294 1_554
O7 P14 1.468797 1_455
O8 P2 1.602209 1_545
O8 P3 1.626477 1_555
O9 P2 1.507120 1_555
O10 P15 1.588801 1_455
O11 P3 1.523944 1_555
O12 P2 1.572133 1_555
O13 P3 1.533230 1_555
O14 P4 1.530197 1_555
O15 P5 1.560447 1_555
O16 P4 1.531556 1_555
O17 P6 1.594657 1_555
O18 P5 1.610812 1_555
O18 P4 1.622332 1_555
O19 P5 1.510968 1_555
O20 P8 1.483982 1_555
O21 P7 1.549614 1_556
O22 P7 1.530410 1_555
O23 P9 1.593347 1_545
O23 P7 1.615982 1_555
O24 P10 1.531048 1_555
O25 P9 1.539039 1_555
O26 P6 1.485682 1_555
O27 P11 1.524247 1_555
O28 P4 1.538137 1_555
O29 P9 1.496006 1_555
O30 P6 1.556660 1_555
O31 P5 1.555161 1_555
O32 P6 1.611831 1_565
O32 P8 1.621035 1_555
O33 P8 1.537475 1_555
O34 P8 1.602599 1_554
O35 P7 1.513684 1_555
O36 P10 1.510852 1_555
O37 P11 1.611364 1_555
O37 P10 1.617680 1_555
O38 P9 1.606772 1_555
O39 P11 1.542126 1_555
O40 P10 1.565895 1_555
O41 P11 1.535647 1_555
O42 P12 1.522111 1_555
O43 P13 1.566639 1_555
O44 P12 1.539679 1_555
O45 P0 1.590178 1_655
O46 P13 1.510806 1_555
O47 P13 1.607329 1_565
O47 P12 1.621824 1_555
O48 P1 1.507613 1_655
O49 P14 1.609375 1_556
O50 P14 1.549264 1_555
O51 P15 1.595682 1_555
O51 P14 1.644569 1_555
O52 P15 1.575487 1_555
O53 P2 1.559243 1_655
O54 P3 1.541816 1_655
O55 P15 1.492829 1_555
