# generated using pymatgen
data_BaPt5
_symmetry_space_group_name_H-M   'P 1'
_cell_length_a   5.59198406
_cell_length_b   5.59198504
_cell_length_c   4.31913748
_cell_angle_alpha   90.00000000
_cell_angle_beta   90.00000000
_cell_angle_gamma   119.99999418
_symmetry_Int_Tables_number   1
_chemical_formula_structural   BaPt5
_chemical_formula_sum   'Ba1 Pt5'
_cell_volume   116.96599274
_cell_formula_units_Z   1
loop_
 _symmetry_equiv_pos_site_id
 _symmetry_equiv_pos_as_xyz
  1  'x, y, z'
loop_
 _atom_site_type_symbol
 _atom_site_label
 _atom_site_symmetry_multiplicity
 _atom_site_fract_x
 _atom_site_fract_y
 _atom_site_fract_z
 _atom_site_occupancy
  Ba  Ba0  1  0.00000000  0.00000000  -0.00000000  1
  Pt  Pt0  1  0.33333300  0.66666700  0.00000000  1
  Pt  Pt1  1  0.66666700  0.33333300  -0.00000000  1
  Pt  Pt2  1  0.50000000  0.00000000  0.50000000  1
  Pt  Pt3  1  0.50000000  0.50000000  0.50000000  1
  Pt  Pt4  1  0.00000000  0.50000000  0.50000000  1
loop_
_geom_bond_atom_site_label_1
_geom_bond_atom_site_label_2
_geom_bond_distance
_geom_bond_site_symmetry_2
Ba0 Pt0 3.228530 1_545
Ba0 Pt1 3.228530 1_455
Ba0 Pt0 3.228535 1_445
Ba0 Pt1 3.228535 1_555
Ba0 Pt0 3.228536 1_555
Ba0 Pt1 3.228536 1_445
Ba0 Pt2 3.532890 1_554
Ba0 Pt2 3.532890 1_555
Ba0 Pt2 3.532890 1_455
Ba0 Pt2 3.532890 1_454
Ba0 Pt3 3.532890 1_444
Ba0 Pt4 3.532890 1_554
Ba0 Pt3 3.532890 1_554
Ba0 Pt3 3.532890 1_445
Ba0 Pt4 3.532890 1_555
Ba0 Pt4 3.532890 1_545
Ba0 Pt4 3.532890 1_544
Ba0 Pt3 3.532890 1_555
Pt0 Pt4 2.696218 1_554
Pt0 Pt4 2.696218 1_555
Pt0 Pt2 2.696218 1_564
Pt0 Pt2 2.696218 1_565
Pt0 Pt3 2.696221 1_555
Pt0 Pt3 2.696221 1_554
Pt0 Pt1 3.228530 1_455
Pt0 Pt1 3.228531 1_565
Pt0 Pt1 3.228540 1_555
Pt1 Pt4 2.696218 1_655
Pt1 Pt4 2.696218 1_654
Pt1 Pt2 2.696218 1_554
Pt1 Pt2 2.696218 1_555
Pt1 Pt3 2.696221 1_555
Pt1 Pt3 2.696221 1_554
Pt2 Pt3 2.795993 1_555
Pt2 Pt3 2.795993 1_545
Pt2 Pt4 2.795993 1_655
Pt2 Pt4 2.795993 1_545
Pt3 Pt4 2.795992 1_555
Pt3 Pt4 2.795992 1_655
