# generated using pymatgen
data_Li5Fe3(CuO5)2
_symmetry_space_group_name_H-M   'P 1'
_cell_length_a   5.11735500
_cell_length_b   5.13252734
_cell_length_c   7.90227963
_cell_angle_alpha   108.75993853
_cell_angle_beta   102.21008405
_cell_angle_gamma   100.00627970
_symmetry_Int_Tables_number   1
_chemical_formula_structural   Li5Fe3(CuO5)2
_chemical_formula_sum   'Li5 Fe3 Cu2 O10'
_cell_volume   185.41030646
_cell_formula_units_Z   1
loop_
 _symmetry_equiv_pos_site_id
 _symmetry_equiv_pos_as_xyz
  1  'x, y, z'
loop_
 _atom_site_type_symbol
 _atom_site_label
 _atom_site_symmetry_multiplicity
 _atom_site_fract_x
 _atom_site_fract_y
 _atom_site_fract_z
 _atom_site_occupancy
  Li  Li0  1  0.38382500  0.07371800  0.41448000  1
  Li  Li1  1  0.83043500  0.73232100  0.77637700  1
  Li  Li2  1  0.50000000  0.50000000  0.50000000  1
  Li  Li3  1  0.16956500  0.26767900  0.22362300  1
  Li  Li4  1  0.61617500  0.92628200  0.58552000  1
  Fe  Fe0  1  0.00000000  0.50000000  0.00000000  1
  Fe  Fe1  1  0.91615100  0.11937700  0.88566500  1
  Fe  Fe2  1  0.08384900  0.88062300  0.11433500  1
  Cu  Cu0  1  0.71768000  0.31686400  0.68952400  1
  Cu  Cu1  1  0.28232000  0.68313600  0.31047600  1
  O  O0  1  0.32488000  0.38311600  0.86177600  1
  O  O1  1  0.44440000  0.82118100  0.94546100  1
  O  O2  1  0.04661100  0.22378600  0.54457400  1
  O  O3  1  0.76709500  0.01639500  0.23270800  1
  O  O4  1  0.12451800  0.57312900  0.66191800  1
  O  O5  1  0.87548200  0.42687100  0.33808200  1
  O  O6  1  0.23290500  0.98360500  0.76729200  1
  O  O7  1  0.95338900  0.77621400  0.45542600  1
  O  O8  1  0.55560000  0.17881900  0.05453900  1
  O  O9  1  0.67512000  0.61688400  0.13822400  1
loop_
_geom_bond_atom_site_label_1
_geom_bond_atom_site_label_2
_geom_bond_distance
_geom_bond_site_symmetry_2
Li0 Li2 2.006008 1_555
Li0 O2 2.308885 1_555
Li1 O4 2.068386 1_655
Li1 O6 2.260403 1_655
Li1 Li2 2.261229 1_555
Li1 O1 2.633146 1_555
Li2 Li4 2.006008 1_555
Li2 Li3 2.261229 1_555
Li2 O4 2.540039 1_555
Li2 O5 2.540039 1_555
Li2 O2 2.653453 1_555
Li2 O7 2.653453 1_555
Li3 O5 2.068386 1_455
Li3 O3 2.260403 1_455
Li3 O8 2.633146 1_555
Li4 O7 2.308885 1_555
Fe0 O0 2.238354 1_554
Fe0 O9 2.238354 1_455
Fe1 Li1 1.821580 1_545
Fe1 O6 2.145389 1_645
Fe1 O0 2.364383 1_655
Fe1 O8 2.500693 1_556
Fe2 Li3 1.821580 1_565
Fe2 O3 2.145389 1_465
Fe2 O9 2.364383 1_455
Fe2 O1 2.500693 1_554
Cu0 Li4 1.833526 1_545
Cu0 Li1 1.953065 1_555
Cu0 Li2 2.220595 1_555
Cu0 O2 2.261998 1_655
Cu0 Li0 2.268027 1_555
Cu0 Fe1 2.272378 1_555
Cu0 Fe0 2.352802 1_656
Cu0 O4 2.353101 1_655
Cu0 O0 2.665729 1_555
Cu1 Li0 1.833526 1_565
Cu1 Li3 1.953065 1_555
Cu1 Li2 2.220595 1_555
Cu1 O7 2.261998 1_455
Cu1 Li4 2.268027 1_555
Cu1 Fe2 2.272378 1_555
Cu1 Fe0 2.352802 1_555
Cu1 O5 2.353101 1_455
Cu1 O9 2.665729 1_555
O0 O6 1.874774 1_545
O1 O8 1.687608 1_566
O2 O4 1.661171 1_555
O3 O9 1.874774 1_545
O3 O5 1.926062 1_555
O4 O6 1.926062 1_555
O5 O7 1.661171 1_555
