# generated using pymatgen
data_DyPaTc2
_symmetry_space_group_name_H-M   'P 1'
_cell_length_a   4.82578766
_cell_length_b   4.82578766
_cell_length_c   4.82578766
_cell_angle_alpha   60.00000000
_cell_angle_beta   60.00000000
_cell_angle_gamma   60.00000000
_symmetry_Int_Tables_number   1
_chemical_formula_structural   DyPaTc2
_chemical_formula_sum   'Dy1 Pa1 Tc2'
_cell_volume   79.46751421
_cell_formula_units_Z   1
loop_
 _symmetry_equiv_pos_site_id
 _symmetry_equiv_pos_as_xyz
  1  'x, y, z'
loop_
 _atom_site_type_symbol
 _atom_site_label
 _atom_site_symmetry_multiplicity
 _atom_site_fract_x
 _atom_site_fract_y
 _atom_site_fract_z
 _atom_site_occupancy
  Dy  Dy0  1  0.25000000  0.25000000  0.25000000  1
  Pa  Pa0  1  0.75000100  0.75000100  0.75000100  1
  Tc  Tc0  1  0.00000000  -0.00000000  0.00000000  1
  Tc  Tc1  1  0.50000100  0.50000100  0.50000100  1
loop_
_geom_bond_atom_site_label_1
_geom_bond_atom_site_label_2
_geom_bond_distance
_geom_bond_site_symmetry_2
Dy0 Tc1 2.955175 1_545
Dy0 Tc1 2.955175 1_455
Dy0 Tc1 2.955175 1_554
Dy0 Tc0 2.955179 1_556
Dy0 Tc0 2.955179 1_555
Dy0 Tc0 2.955179 1_565
Dy0 Tc0 2.955179 1_655
Dy0 Tc1 2.955191 1_555
Pa0 Tc0 2.955168 1_666
Pa0 Tc1 2.955179 1_555
Pa0 Tc1 2.955179 1_556
Pa0 Tc1 2.955179 1_565
Pa0 Tc1 2.955179 1_655
Pa0 Tc0 2.955183 1_656
Pa0 Tc0 2.955183 1_566
Pa0 Tc0 2.955183 1_665
