# generated using pymatgen
data_Ca3SnS5
_symmetry_space_group_name_H-M   'P 1'
_cell_length_a   8.96043145
_cell_length_b   8.96043145
_cell_length_c   8.96043145
_cell_angle_alpha   129.08051068
_cell_angle_beta   129.08051068
_cell_angle_gamma   74.88106315
_symmetry_Int_Tables_number   1
_chemical_formula_structural   Ca3SnS5
_chemical_formula_sum   'Ca6 Sn2 S10'
_cell_volume   422.22799727
_cell_formula_units_Z   2
loop_
 _symmetry_equiv_pos_site_id
 _symmetry_equiv_pos_as_xyz
  1  'x, y, z'
loop_
 _atom_site_type_symbol
 _atom_site_label
 _atom_site_symmetry_multiplicity
 _atom_site_fract_x
 _atom_site_fract_y
 _atom_site_fract_z
 _atom_site_occupancy
  Ca  Ca0  1  0.75000000  0.75000000  0.00000000  1
  Ca  Ca1  1  0.25000000  0.25000000  0.00000000  1
  Ca  Ca2  1  0.33723600  0.83723600  0.17447200  1
  Ca  Ca3  1  0.66276400  0.16276400  0.82552800  1
  Ca  Ca4  1  0.83723600  0.66276400  0.50000000  1
  Ca  Ca5  1  0.16276400  0.33723600  0.50000000  1
  Sn  Sn0  1  0.75000000  0.25000000  0.50000000  1
  Sn  Sn1  1  0.25000000  0.75000000  0.50000000  1
  S  S0  1  0.00000000  0.00000000  0.00000000  1
  S  S1  1  0.50000000  0.50000000  0.00000000  1
  S  S2  1  0.02204000  0.52204000  0.82881000  1
  S  S3  1  0.69323000  0.19323000  0.17119000  1
  S  S4  1  0.52204000  0.69323000  0.50000000  1
  S  S5  1  0.19323000  0.02204000  0.50000000  1
  S  S6  1  0.97796000  0.47796000  0.17119000  1
  S  S7  1  0.30677000  0.80677000  0.82881000  1
  S  S8  1  0.47796000  0.30677000  0.50000000  1
  S  S9  1  0.80677000  0.97796000  0.50000000  1
loop_
_geom_bond_atom_site_label_1
_geom_bond_atom_site_label_2
_geom_bond_distance
_geom_bond_site_symmetry_2
Ca0 S9 3.260935 1_555
Ca0 S6 3.260935 1_555
Ca0 S4 3.260935 1_554
Ca0 S8 3.260935 1_554
Ca0 S7 3.260935 1_554
Ca0 S3 3.260935 1_565
Ca0 S2 3.260935 1_654
Ca0 S5 3.260935 1_665
Ca1 S7 3.260935 1_544
Ca1 S9 3.260935 1_444
Ca1 S5 3.260935 1_554
Ca1 S8 3.260935 1_555
Ca1 S2 3.260935 1_554
Ca1 S6 3.260935 1_455
Ca1 S3 3.260935 1_555
Ca1 S4 3.260935 1_555
Ca2 S2 2.765675 1_554
Ca2 S7 2.765675 1_554
Ca2 S1 2.884751 1_555
Ca2 S0 2.884751 1_565
Ca2 S4 3.233603 1_555
Ca2 S8 3.233603 1_565
Ca2 S5 3.233603 1_565
Ca2 S9 3.233603 1_555
Ca3 S6 2.765675 1_556
Ca3 S3 2.765675 1_556
Ca3 S0 2.884751 1_656
Ca3 S1 2.884751 1_556
Ca3 S9 3.233603 1_545
Ca3 S8 3.233603 1_555
Ca3 S4 3.233603 1_545
Ca3 S5 3.233603 1_555
Ca4 S4 2.765675 1_555
Ca4 S9 2.765675 1_555
Ca4 S1 2.884751 1_555
Ca4 S0 2.884751 1_666
Ca4 S2 3.233603 1_655
Ca4 S3 3.233603 1_555
Ca4 S7 3.233603 1_655
Ca4 S6 3.233603 1_555
Ca5 S5 2.765675 1_555
Ca5 S8 2.765675 1_555
Ca5 S0 2.884751 1_555
Ca5 S1 2.884751 1_556
Ca5 S2 3.233603 1_555
Ca5 S3 3.233603 1_455
Ca5 S6 3.233603 1_455
Ca5 S7 3.233603 1_555
S2 Sn0 2.356652 1_455
S3 Sn0 2.356652 1_555
S4 Sn1 2.356652 1_555
S5 Sn1 2.356652 1_545
S6 Sn1 2.356652 1_655
S7 Sn1 2.356652 1_555
S8 Sn0 2.356652 1_555
S9 Sn0 2.356652 1_565
