# generated using pymatgen
data_LiMnP2O7
_symmetry_space_group_name_H-M   'P 1'
_cell_length_a   8.14196500
_cell_length_b   6.16358599
_cell_length_c   5.95664877
_cell_angle_alpha   107.55498774
_cell_angle_beta   101.06280575
_cell_angle_gamma   98.38682322
_symmetry_Int_Tables_number   1
_chemical_formula_structural   LiMnP2O7
_chemical_formula_sum   'Li2 Mn2 P4 O14'
_cell_volume   272.99845418
_cell_formula_units_Z   2
loop_
 _symmetry_equiv_pos_site_id
 _symmetry_equiv_pos_as_xyz
  1  'x, y, z'
loop_
 _atom_site_type_symbol
 _atom_site_label
 _atom_site_symmetry_multiplicity
 _atom_site_fract_x
 _atom_site_fract_y
 _atom_site_fract_z
 _atom_site_occupancy
  Li  Li0  1  0.00000000  0.00000000  0.00000000  1
  Li  Li1  1  0.00000000  0.50000000  0.00000000  1
  Mn  Mn0  1  0.36603700  0.22519300  0.68106100  1
  Mn  Mn1  1  0.63396300  0.77480700  0.31893900  1
  P  P0  1  0.82209100  0.20941900  0.53372500  1
  P  P1  1  0.44470100  0.32142600  0.22863200  1
  P  P2  1  0.55529900  0.67857400  0.77136800  1
  P  P3  1  0.17790900  0.79058100  0.46627500  1
  O  O0  1  0.80266800  0.05036200  0.36540200  1
  O  O1  1  0.68389600  0.18276100  0.70754400  1
  O  O2  1  0.41206300  0.20263800  0.99876700  1
  O  O3  1  0.28547100  0.21419000  0.34261700  1
  O  O4  1  0.72418300  0.34915400  0.39072600  1
  O  O5  1  0.08300400  0.31031500  0.68936400  1
  O  O6  1  0.60810800  0.50579200  0.79248200  1
  O  O7  1  0.39189200  0.49420800  0.20751800  1
  O  O8  1  0.91699600  0.68968500  0.31063600  1
  O  O9  1  0.27581700  0.65084600  0.60927400  1
  O  O10  1  0.71452900  0.78581000  0.65738300  1
  O  O11  1  0.58793700  0.79736200  0.00123300  1
  O  O12  1  0.31610400  0.81723900  0.29245600  1
  O  O13  1  0.19733200  0.94963800  0.63459800  1
loop_
_geom_bond_atom_site_label_1
_geom_bond_atom_site_label_2
_geom_bond_distance
_geom_bond_site_symmetry_2
Li0 O3 2.639970 1_555
Li0 O10 2.639970 1_444
Li1 O8 2.157034 1_455
Li1 O5 2.157034 1_554
Mn0 O2 1.908642 1_555
Mn0 O13 1.933377 1_545
Mn0 O3 1.973868 1_555
Mn0 O6 2.264381 1_555
Mn0 O5 2.443144 1_555
Mn0 O1 2.618524 1_555
Mn1 O11 1.908642 1_555
Mn1 O0 1.933377 1_565
Mn1 O10 1.973868 1_555
Mn1 O7 2.264381 1_555
Mn1 O8 2.443144 1_555
Mn1 O12 2.618524 1_555
O0 P0 1.136826 1_555
O1 P0 1.691394 1_555
O2 P1 1.296269 1_556
O3 P1 1.713825 1_555
O4 P0 1.576405 1_555
O4 P1 2.254627 1_555
O5 P0 2.066418 1_455
O6 P2 1.236302 1_555
O7 P1 1.236302 1_555
O8 P3 2.066418 1_655
O9 P3 1.576405 1_555
O9 P2 2.254627 1_555
O10 P2 1.713825 1_555
O11 P2 1.296269 1_554
O12 P3 1.691394 1_555
O13 P3 1.136826 1_555
