# generated using pymatgen
data_YbH2
_symmetry_space_group_name_H-M   'P 1'
_cell_length_a   3.54151500
_cell_length_b   5.77732300
_cell_length_c   6.70668600
_cell_angle_alpha   90.00000000
_cell_angle_beta   90.00000000
_cell_angle_gamma   90.00000000
_symmetry_Int_Tables_number   1
_chemical_formula_structural   YbH2
_chemical_formula_sum   'Yb4 H8'
_cell_volume   137.22198837
_cell_formula_units_Z   4
loop_
 _symmetry_equiv_pos_site_id
 _symmetry_equiv_pos_as_xyz
  1  'x, y, z'
loop_
 _atom_site_type_symbol
 _atom_site_label
 _atom_site_symmetry_multiplicity
 _atom_site_fract_x
 _atom_site_fract_y
 _atom_site_fract_z
 _atom_site_occupancy
  Yb  Yb0  1  0.75000000  0.23941100  0.61159000  1
  Yb  Yb1  1  0.75000000  0.73941100  0.88841000  1
  Yb  Yb2  1  0.25000000  0.26058900  0.11159000  1
  Yb  Yb3  1  0.25000000  0.76058900  0.38841000  1
  H  H0  1  0.75000000  0.85243200  0.57156900  1
  H  H1  1  0.25000000  0.52704900  0.68270000  1
  H  H2  1  0.25000000  0.02704900  0.81730000  1
  H  H3  1  0.75000000  0.35243200  0.92843100  1
  H  H4  1  0.25000000  0.64756800  0.07156900  1
  H  H5  1  0.75000000  0.97295100  0.18270000  1
  H  H6  1  0.75000000  0.47295100  0.31730000  1
  H  H7  1  0.25000000  0.14756800  0.42843100  1
loop_
_geom_bond_atom_site_label_1
_geom_bond_atom_site_label_2
_geom_bond_distance
_geom_bond_site_symmetry_2
H0 Yb3 2.219475 1_555
H0 Yb3 2.219475 1_655
H0 Yb1 2.223012 1_555
H0 Yb0 2.251757 1_565
H1 Yb3 2.390810 1_555
H1 Yb0 2.474779 1_455
H1 Yb0 2.474779 1_555
H1 Yb1 2.558166 1_555
H1 Yb1 2.558166 1_455
H2 Yb2 2.390810 1_556
H2 Yb1 2.474779 1_545
H2 Yb1 2.474779 1_445
H2 Yb0 2.558166 1_455
H2 Yb0 2.558166 1_555
H3 Yb2 2.219475 1_556
H3 Yb2 2.219475 1_656
H3 Yb0 2.223012 1_555
H3 Yb1 2.251757 1_555
H4 Yb1 2.219475 1_454
H4 Yb1 2.219475 1_554
H4 Yb3 2.223012 1_555
H4 Yb2 2.251757 1_555
H5 Yb1 2.390810 1_554
H5 Yb2 2.474779 1_565
H5 Yb2 2.474779 1_665
H5 Yb3 2.558166 1_555
H5 Yb3 2.558166 1_655
H6 Yb0 2.390810 1_555
H6 Yb3 2.474779 1_555
H6 Yb3 2.474779 1_655
H6 Yb2 2.558166 1_555
H6 Yb2 2.558166 1_655
H7 Yb0 2.219475 1_555
H7 Yb0 2.219475 1_455
H7 Yb2 2.223012 1_555
H7 Yb3 2.251757 1_545
