# generated using pymatgen
data_AlInSe3
_symmetry_space_group_name_H-M   'P 1'
_cell_length_a   7.07435842
_cell_length_b   7.06821192
_cell_length_c   18.84396187
_cell_angle_alpha   89.99924068
_cell_angle_beta   90.00046465
_cell_angle_gamma   120.05817094
_symmetry_Int_Tables_number   1
_chemical_formula_structural   AlInSe3
_chemical_formula_sum   'Al6 In6 Se18'
_cell_volume   815.53875027
_cell_formula_units_Z   6
loop_
 _symmetry_equiv_pos_site_id
 _symmetry_equiv_pos_as_xyz
  1  'x, y, z'
loop_
 _atom_site_type_symbol
 _atom_site_label
 _atom_site_symmetry_multiplicity
 _atom_site_fract_x
 _atom_site_fract_y
 _atom_site_fract_z
 _atom_site_occupancy
  Al  Al0  1  0.32951858  0.01724919  0.19218763  1
  Al  Al1  1  0.67048572  0.98277885  0.69218586  1
  Al  Al2  1  0.98269971  0.31209987  0.52557938  1
  Al  Al3  1  0.68734567  0.67044479  0.85891209  1
  Al  Al4  1  0.31265614  0.32954147  0.35891405  1
  Al  Al5  1  0.01731440  0.68792749  0.02558137  1
  In  In0  1  0.99408723  0.33101757  0.16278996  1
  In  In1  1  0.00590458  0.66899348  0.66278501  1
  In  In2  1  0.66883719  0.66285701  0.49611475  1
  In  In3  1  0.33694432  0.00592788  0.82938943  1
  In  In4  1  0.66303546  0.99403302  0.32937709  1
  In  In5  1  0.33114408  0.33713395  0.99610875  1
  Se  Se0  1  0.36992649  0.04206912  0.67814519  1
  Se  Se1  1  0.63006143  0.95792387  0.17814076  1
  Se  Se2  1  0.95860213  0.32778247  0.01150908  1
  Se  Se3  1  0.67283995  0.63063720  0.34483946  1
  Se  Se4  1  0.32713839  0.36933339  0.84485654  1
  Se  Se5  1  0.04138266  0.67219717  0.51150124  1
  Se  Se6  1  0.28361197  0.99053672  0.32002828  1
  Se  Se7  1  0.71637894  0.00945244  0.82002993  1
  Se  Se8  1  0.00969757  0.29305167  0.65340261  1
  Se  Se9  1  0.70765940  0.71681929  0.98666538  1
  Se  Se10  1  0.29237405  0.28322005  0.48666456  1
  Se  Se11  1  0.99032370  0.70699210  0.15340413  1
  Se  Se12  1  0.02387709  0.37151740  0.31280849  1
  Se  Se13  1  0.97613700  0.62845357  0.81281595  1
  Se  Se14  1  0.62894460  0.65175395  0.64618736  1
  Se  Se15  1  0.34848195  0.97685954  0.97944550  1
  Se  Se16  1  0.65152453  0.02314142  0.47944653  1
  Se  Se17  1  0.37106709  0.34825506  0.14618263  1
loop_
_geom_bond_atom_site_label_1
_geom_bond_atom_site_label_2
_geom_bond_distance
_geom_bond_site_symmetry_2
Al0 Se17 2.371248 1_555
Al0 Se1 2.378976 1_545
Al0 Se11 2.414494 1_445
Al0 Se6 2.425508 1_545
Al1 Se14 2.371368 1_555
Al1 Se0 2.378917 1_565
Al1 Se8 2.414597 1_665
Al1 Se7 2.425560 1_565
Al2 Se16 2.371218 1_555
Al2 Se5 2.379595 1_655
Al2 Se10 2.413876 1_655
Al2 Se8 2.425318 1_655
Al3 Se13 2.371496 1_555
Al3 Se4 2.379162 1_555
Al3 Se7 2.414049 1_565
Al3 Se9 2.424127 1_555
Al4 Se12 2.371406 1_555
Al4 Se3 2.379057 1_555
Al4 Se6 2.414036 1_545
Al4 Se10 2.424031 1_555
Al5 Se15 2.371135 1_554
Al5 Se2 2.379846 1_455
Al5 Se9 2.413786 1_454
Al5 Se11 2.425321 1_455
In0 Se1 2.620450 1_545
In0 Se17 2.626709 1_655
In0 Se11 2.676750 1_555
In0 Se12 2.838582 1_655
In0 Se2 2.860848 1_555
In1 Se0 2.620394 1_565
In1 Se14 2.626536 1_455
In1 Se8 2.676625 1_555
In1 Se13 2.838825 1_455
In1 Se5 2.860909 1_555
In2 Se5 2.619176 1_655
In2 Se16 2.628893 1_565
In2 Se10 2.676932 1_555
In2 Se14 2.839189 1_555
In2 Se3 2.860981 1_555
In3 Se4 2.620330 1_555
In3 Se13 2.628522 1_445
In3 Se7 2.677682 1_555
In3 Se15 2.839237 1_545
In3 Se0 2.860544 1_555
In4 Se3 2.620239 1_555
In4 Se12 2.628657 1_665
In4 Se6 2.677685 1_555
In4 Se16 2.839507 1_565
In4 Se1 2.860385 1_555
In5 Se2 2.619146 1_456
In5 Se15 2.628915 1_545
In5 Se9 2.677275 1_555
In5 Se17 2.839226 1_556
In5 Se4 2.860530 1_555
