# generated using pymatgen
data_Li4V3P8O29
_symmetry_space_group_name_H-M   'P 1'
_cell_length_a   9.74220300
_cell_length_b   9.77317387
_cell_length_c   14.18125936
_cell_angle_alpha   90.81429904
_cell_angle_beta   89.68206331
_cell_angle_gamma   119.58216944
_symmetry_Int_Tables_number   1
_chemical_formula_structural   Li4V3P8O29
_chemical_formula_sum   'Li8 V6 P16 O58'
_cell_volume   1174.10496131
_cell_formula_units_Z   2
loop_
 _symmetry_equiv_pos_site_id
 _symmetry_equiv_pos_as_xyz
  1  'x, y, z'
loop_
 _atom_site_type_symbol
 _atom_site_label
 _atom_site_symmetry_multiplicity
 _atom_site_fract_x
 _atom_site_fract_y
 _atom_site_fract_z
 _atom_site_occupancy
  Li  Li0  1  0.68529800  0.77096200  0.05616700  1
  Li  Li1  1  0.09249300  0.31572700  0.06025800  1
  Li  Li2  1  0.76745400  0.67079200  0.44425500  1
  Li  Li3  1  0.23182000  0.33651300  0.55922700  1
  Li  Li4  1  0.91976700  0.68827900  0.93514400  1
  Li  Li5  1  0.32833300  0.09445700  0.44312000  1
  Li  Li6  1  0.77124500  0.09375400  0.93807500  1
  Li  Li7  1  0.95306500  0.98871100  0.50990600  1
  V  V0  1  0.56602400  0.56214700  0.25020400  1
  V  V1  1  0.43135100  0.42904500  0.75468400  1
  V  V2  1  0.00928400  0.57105500  0.74354800  1
  V  V3  1  0.99582200  0.43216500  0.25398800  1
  V  V4  1  0.43333500  0.99866900  0.25037300  1
  V  V5  1  0.56428500  0.99878400  0.74733400  1
  P  P0  1  0.22764900  0.91826300  0.83974300  1
  P  P1  1  0.08255700  0.77864500  0.33726100  1
  P  P2  1  0.69448200  0.91537000  0.34137300  1
  P  P3  1  0.33547400  0.66382900  0.13260300  1
  P  P4  1  0.33802600  0.66096200  0.63008300  1
  P  P5  1  0.68009100  0.77026500  0.84000100  1
  P  P6  1  0.77059900  0.68266600  0.65873800  1
  P  P7  1  0.08759400  0.32009100  0.84403400  1
  P  P8  1  0.91264300  0.67914600  0.15439900  1
  P  P9  1  0.22849500  0.31670900  0.34163200  1
  P  P10  1  0.31434000  0.22375800  0.16025400  1
  P  P11  1  0.66321200  0.33277800  0.37003800  1
  P  P12  1  0.67703400  0.34084200  0.86905300  1
  P  P13  1  0.30999000  0.08524200  0.65660300  1
  P  P14  1  0.91471500  0.22029300  0.66209200  1
  P  P15  1  0.76986600  0.08522700  0.15835700  1
  O  O0  1  0.22508000  0.02035400  0.56506100  1
  O  O1  1  0.25646400  0.92060400  0.33799200  1
  O  O2  1  0.98154900  0.74446000  0.06142100  1
  O  O3  1  0.08597700  0.74384400  0.83323700  1
  O  O4  1  0.38288300  0.91301700  0.82041500  1
  O  O5  1  0.34076800  0.81397400  0.18285100  1
  O  O6  1  0.53979700  0.92388300  0.33155900  1
  O  O7  1  0.75306300  0.99844700  0.06681300  1
  O  O8  1  0.66347100  0.91856600  0.84116500  1
  O  O9  1  0.18835100  0.66681700  0.67492200  1
  O  O10  1  0.08461000  0.62354900  0.32963900  1
  O  O11  1  0.48322600  0.80491100  0.67178500  1
  O  O12  1  0.35244900  0.67765900  0.02846900  1
  O  O13  1  0.32103500  0.64074400  0.52580700  1
  O  O14  1  0.48761400  0.66563200  0.17508600  1
  O  O15  1  0.09623200  0.47869500  0.82332500  1
  O  O16  1  0.18625000  0.51640900  0.16873300  1
  O  O17  1  0.65555000  0.73913200  0.33629900  1
  O  O18  1  0.79073100  0.79170700  0.74995600  1
  O  O19  1  0.78730500  0.77017600  0.56994700  1
  O  O20  1  0.75631800  0.75390500  0.92781900  1
  O  O21  1  0.51848000  0.62101900  0.82119700  1
  O  O22  1  0.32519200  0.50616200  0.67354800  1
  O  O23  1  0.74287500  0.65936900  0.16408700  1
  O  O24  1  0.38307700  0.47450900  0.32474600  1
  O  O25  1  0.08714800  0.34453100  0.33372800  1
  O  O26  1  0.01267500  0.79967900  0.23785400  1
  O  O27  1  0.99008300  0.79546800  0.41651300  1
  O  O28  1  0.00453800  0.20276000  0.58121000  1
  O  O29  1  0.91157500  0.65062100  0.66779200  1
  O  O30  1  0.61316800  0.52926700  0.67070700  1
  O  O31  1  0.25665900  0.34287700  0.83807400  1
  O  O32  1  0.67166200  0.48769900  0.32528500  1
  O  O33  1  0.47555300  0.37815200  0.17877300  1
  O  O34  1  0.23061900  0.23350900  0.07676500  1
  O  O35  1  0.23341000  0.24103200  0.43212100  1
  O  O36  1  0.21103100  0.20194400  0.25513400  1
  O  O37  1  0.33732300  0.25797800  0.66830200  1
  O  O38  1  0.82419900  0.48740100  0.82558300  1
  O  O39  1  0.90455400  0.52092200  0.17784500  1
  O  O40  1  0.52911300  0.34411300  0.82060300  1
  O  O41  1  0.67381200  0.35501100  0.97350100  1
  O  O42  1  0.65255500  0.34655200  0.47425900  1
  O  O43  1  0.50716800  0.18533100  0.33059200  1
  O  O44  1  0.92166200  0.38217100  0.66992600  1
  O  O45  1  0.80471700  0.32429600  0.32804600  1
  O  O46  1  0.34417700  0.08229900  0.16563500  1
  O  O47  1  0.19970900  0.99294200  0.74418800  1
  O  O48  1  0.22395300  0.00032200  0.92647500  1
  O  O49  1  0.46681100  0.08797200  0.66838200  1
  O  O50  1  0.67340900  0.18835000  0.83263800  1
  O  O51  1  0.61923300  0.09743400  0.18028000  1
  O  O52  1  0.91675300  0.24989400  0.16074000  1
  O  O53  1  0.00343300  0.24812600  0.93428300  1
  O  O54  1  0.99155800  0.20175900  0.75920100  1
  O  O55  1  0.74255500  0.08745500  0.66644400  1
  O  O56  1  0.79699800  0.99430000  0.42362600  1
  O  O57  1  0.78881800  0.98853300  0.24317100  1
loop_
_geom_bond_atom_site_label_1
_geom_bond_atom_site_label_2
_geom_bond_distance
_geom_bond_site_symmetry_2
Li0 O20 1.977543 1_554
Li0 O7 1.985918 1_555
Li0 O23 2.123045 1_555
Li0 O14 2.380878 1_555
Li1 O34 1.894114 1_555
Li1 O53 1.948974 1_554
Li1 O52 2.070534 1_455
Li1 O16 2.282206 1_555
Li2 O27 1.933503 1_555
Li2 O19 1.981710 1_555
Li2 O17 2.178286 1_555
Li2 O32 2.280834 1_555
Li3 O28 1.963384 1_555
Li3 O35 2.021449 1_555
Li3 O22 2.157694 1_555
Li3 O37 2.206469 1_555
Li4 O2 1.878381 1_556
Li4 O20 1.992445 1_555
Li4 O3 2.033108 1_655
Li4 O38 2.293411 1_555
Li5 O0 1.955445 1_555
Li5 O35 2.060941 1_555
Li5 O1 2.089206 1_545
Li5 O43 2.202819 1_555
Li6 O53 2.006802 1_655
Li6 O8 2.024048 1_545
Li6 O7 2.028271 1_546
Li6 O50 2.219014 1_555
Li7 O56 1.978977 1_555
Li7 O19 2.127303 1_555
Li7 O28 2.135395 1_665
Li7 O27 2.459076 1_555
Li7 O0 2.633825 1_665
O0 P13 1.497426 1_555
O1 P1 1.573013 1_555
O1 V4 1.949439 1_555
O2 P8 1.479080 1_555
O3 P0 1.578991 1_555
O3 V2 1.931689 1_555
O4 P0 1.560906 1_555
O4 V5 1.855170 1_555
O5 P3 1.599887 1_555
O5 V4 1.828012 1_555
O6 P2 1.556826 1_555
O6 V4 1.929021 1_555
O7 P15 1.505135 1_565
O8 P5 1.535631 1_555
O8 V5 2.027522 1_555
O9 P4 1.613974 1_555
O9 V2 1.805925 1_555
O10 P1 1.528046 1_555
O10 V3 1.937397 1_455
O11 P4 1.533197 1_555
O11 V5 1.958550 1_555
O12 P3 1.485700 1_555
O13 P4 1.488391 1_555
O14 P3 1.594975 1_555
O14 V0 1.882459 1_555
O15 P7 1.542693 1_555
O15 V2 1.899160 1_555
O16 P3 1.548049 1_555
O16 V3 2.019068 1_455
O17 P2 1.570822 1_555
O17 V0 1.924976 1_555
O18 P6 1.613929 1_555
O18 P5 1.614203 1_555
O19 P6 1.494774 1_555
O20 P5 1.503712 1_555
O21 P5 1.550387 1_555
O21 V1 1.875231 1_555
O22 P4 1.588484 1_555
O22 V1 1.941394 1_555
O23 P8 1.572981 1_555
O23 V0 1.938041 1_555
O24 P9 1.554691 1_555
O24 V0 1.877570 1_555
O25 P9 1.534595 1_555
O25 V3 1.896027 1_455
O26 P8 1.605538 1_455
O26 P1 1.627920 1_555
O27 P1 1.493836 1_655
O28 P14 1.497354 1_455
O29 P6 1.558405 1_555
O29 V2 1.852265 1_655
O30 P6 1.537141 1_555
O30 V1 1.952402 1_555
O31 P7 1.551259 1_555
O31 V1 1.896044 1_555
O32 P11 1.614199 1_555
O32 V0 1.869683 1_555
O33 P10 1.570333 1_555
O33 V0 1.851978 1_555
O34 P10 1.472007 1_555
O35 P9 1.502883 1_555
O36 P9 1.602012 1_555
O36 P10 1.627912 1_555
O37 P13 1.580210 1_555
O37 V1 1.891306 1_555
O38 P12 1.573174 1_555
O38 V2 1.954827 1_655
O39 P8 1.549829 1_555
O39 V3 1.872916 1_555
O40 P12 1.614591 1_555
O40 V1 1.811755 1_555
O41 P12 1.487304 1_555
O42 P11 1.489893 1_555
O43 P11 1.588745 1_555
O43 V4 1.947829 1_545
O44 P14 1.552164 1_555
O44 V2 1.904124 1_655
O45 P11 1.537617 1_555
O45 V3 1.937136 1_555
O46 P10 1.549727 1_555
O46 V4 1.899209 1_545
O47 P13 1.603397 1_565
O47 P0 1.634441 1_555
O48 P0 1.468765 1_545
O49 P13 1.524858 1_555
O49 V5 1.942142 1_545
O50 P12 1.554148 1_555
O50 V5 2.007957 1_545
O51 P15 1.559223 1_555
O51 V4 1.865738 1_545
O52 P15 1.537537 1_555
O52 V3 2.026038 1_555
O53 P7 1.499833 1_555
O54 P7 1.601479 1_655
O54 P14 1.625466 1_555
O55 P14 1.534132 1_555
O55 V5 1.898234 1_545
O56 P2 1.476419 1_555
O57 P15 1.606495 1_565
O57 P2 1.631133 1_555
