# generated using pymatgen
data_UGaTc2
_symmetry_space_group_name_H-M   'P 1'
_cell_length_a   4.54203515
_cell_length_b   4.54835884
_cell_length_c   4.54877248
_cell_angle_alpha   60.12720072
_cell_angle_beta   59.85146681
_cell_angle_gamma   59.98651795
_symmetry_Int_Tables_number   1
_chemical_formula_structural   UGaTc2
_chemical_formula_sum   'U1 Ga1 Tc2'
_cell_volume   66.43013058
_cell_formula_units_Z   1
loop_
 _symmetry_equiv_pos_site_id
 _symmetry_equiv_pos_as_xyz
  1  'x, y, z'
loop_
 _atom_site_type_symbol
 _atom_site_label
 _atom_site_symmetry_multiplicity
 _atom_site_fract_x
 _atom_site_fract_y
 _atom_site_fract_z
 _atom_site_occupancy
  U  U0  1  0.75000194  0.74999826  0.74999803  1
  Ga  Ga0  1  0.25000194  0.25000061  0.24999502  1
  Tc  Tc0  1  0.49749211  0.50189232  0.50035625  1
  Tc  Tc1  1  0.00250401  0.99810781  0.99964970  1
loop_
_geom_bond_atom_site_label_1
_geom_bond_atom_site_label_2
_geom_bond_distance
_geom_bond_site_symmetry_2
Ga0 Tc1 2.781708 1_554
Ga0 Tc0 2.781713 1_545
Ga0 Tc1 2.783362 1_544
Ga0 Tc0 2.783388 1_555
Ga0 Tc0 2.783929 1_554
Ga0 Tc1 2.783988 1_545
Ga0 Tc1 2.786385 1_644
Ga0 Tc0 2.786414 1_455
Ga0 U0 3.209290 1_544
Ga0 U0 3.209294 1_455
Ga0 U0 3.213751 1_554
Ga0 U0 3.213766 1_445
Ga0 U0 3.220444 1_454
Ga0 U0 3.220464 1_545
Tc0 U0 2.767817 1_455
Tc0 U0 2.785301 1_555
Tc0 U0 2.786491 1_554
Tc0 U0 2.795764 1_545
Tc1 U0 2.767846 1_555
Tc1 U0 2.785322 1_455
Tc1 U0 2.786454 1_456
Tc1 U0 2.795751 1_465
