# generated using pymatgen
data_LiFe(SO4)2
_symmetry_space_group_name_H-M   'P 1'
_cell_length_a   8.39709000
_cell_length_b   8.40534572
_cell_length_c   8.93003917
_cell_angle_alpha   62.28129779
_cell_angle_beta   62.42477044
_cell_angle_gamma   60.22302883
_symmetry_Int_Tables_number   1
_chemical_formula_structural   LiFe(SO4)2
_chemical_formula_sum   'Li3 Fe3 S6 O24'
_cell_volume   461.69915478
_cell_formula_units_Z   3
loop_
 _symmetry_equiv_pos_site_id
 _symmetry_equiv_pos_as_xyz
  1  'x, y, z'
loop_
 _atom_site_type_symbol
 _atom_site_label
 _atom_site_symmetry_multiplicity
 _atom_site_fract_x
 _atom_site_fract_y
 _atom_site_fract_z
 _atom_site_occupancy
  Li  Li0  1  0.35668600  0.35141000  0.93461400  1
  Li  Li1  1  0.17280600  0.76601300  0.62942300  1
  Li  Li2  1  0.76414200  0.43106400  0.62861500  1
  Fe  Fe0  1  0.16572900  0.15724900  0.53883000  1
  Fe  Fe1  1  0.64338700  0.64478500  0.07012800  1
  Fe  Fe2  1  0.84738400  0.85923000  0.44285400  1
  S  S0  1  0.04198300  0.46151500  0.75002700  1
  S  S1  1  0.45763500  0.75253000  0.74771600  1
  S  S2  1  0.75284800  0.04177500  0.74477500  1
  S  S3  1  0.25314700  0.95874800  0.24664400  1
  S  S4  1  0.54161200  0.25604600  0.24472300  1
  S  S5  1  0.95894000  0.54245600  0.24779800  1
  O  O0  1  0.10758500  0.51020700  0.08615000  1
  O  O1  1  0.29786300  0.10809000  0.08661000  1
  O  O2  1  0.00480100  0.33951500  0.69623700  1
  O  O3  1  0.51453000  0.29940000  0.08008400  1
  O  O4  1  0.02324100  0.65638500  0.60787000  1
  O  O5  1  0.23342000  0.37549200  0.76533100  1
  O  O6  1  0.36945300  0.63357600  0.75669000  1
  O  O7  1  0.33521800  0.95962800  0.69673000  1
  O  O8  1  0.64017500  0.23805500  0.75543500  1
  O  O9  1  0.04986000  0.97664400  0.29833700  1
  O  O10  1  0.27512000  0.96571900  0.40441800  1
  O  O11  1  0.35226500  0.28287100  0.39226000  1
  O  O12  1  0.65346000  0.71299700  0.60811400  1
  O  O13  1  0.72102500  0.02185600  0.60399600  1
  O  O14  1  0.96438500  0.00380700  0.69783200  1
  O  O15  1  0.38307900  0.76111300  0.23322800  1
  O  O16  1  0.67150000  0.05106700  0.29942700  1
  O  O17  1  0.62365200  0.38411300  0.23390900  1
  O  O18  1  0.76079400  0.62241700  0.23444900  1
  O  O19  1  0.96798700  0.35612500  0.40342900  1
  O  O20  1  0.48569100  0.70127100  0.91797500  1
  O  O21  1  0.97511000  0.67623400  0.30152500  1
  O  O22  1  0.70037300  0.89599100  0.91590700  1
  O  O23  1  0.88761800  0.49090600  0.91711000  1
loop_
_geom_bond_atom_site_label_1
_geom_bond_atom_site_label_2
_geom_bond_distance
_geom_bond_site_symmetry_2
Li0 O1 2.017273 1_556
Li0 O3 2.031181 1_556
Li0 O0 2.067516 1_556
Li0 O5 2.086506 1_555
Li0 O6 2.179515 1_555
Li0 O8 2.184891 1_555
Li1 O6 1.998069 1_555
Li1 O4 2.000422 1_555
Li1 O14 2.025511 1_465
Li1 O10 2.071160 1_555
Li2 O8 1.968456 1_555
Li2 O12 2.019742 1_555
Li2 O2 2.047817 1_655
Li2 O19 2.071502 1_555
Fe0 O11 1.934050 1_555
Fe0 O7 2.025818 1_545
Fe0 O10 2.045533 1_545
Fe0 O19 2.057927 1_455
Fe0 O2 2.082645 1_555
Fe0 O14 2.185794 1_455
Fe1 O18 2.014735 1_555
Fe1 O15 2.027251 1_555
Fe1 O17 2.030369 1_555
Fe1 O23 2.039847 1_554
Fe1 O20 2.065485 1_554
Fe1 O22 2.066948 1_554
Fe2 O16 1.971417 1_565
Fe2 O9 1.995132 1_655
Fe2 O21 2.005775 1_555
Fe2 O13 2.010150 1_565
Fe2 O12 2.101443 1_555
Fe2 O4 2.106116 1_655
O0 S5 1.440489 1_455
O1 S3 1.435821 1_545
O2 S0 1.514875 1_555
O3 S4 1.440461 1_555
O4 S0 1.521121 1_555
O5 S0 1.443115 1_555
O6 S1 1.469798 1_555
O7 S1 1.487562 1_555
O8 S2 1.462324 1_555
O9 S3 1.493199 1_555
O10 S3 1.533221 1_555
O11 S4 1.515096 1_555
O12 S1 1.520931 1_555
O13 S2 1.493706 1_555
O14 S2 1.518160 1_555
O15 S3 1.492719 1_555
O16 S4 1.496839 1_555
O17 S4 1.490270 1_555
O18 S5 1.494222 1_555
O19 S5 1.531309 1_555
O20 S1 1.474526 1_555
O21 S5 1.492263 1_555
O22 S2 1.483897 1_565
O23 S0 1.483815 1_655
