# generated using pymatgen
data_LiNi4(PO4)3
_symmetry_space_group_name_H-M   'P 1'
_cell_length_a   6.13742900
_cell_length_b   9.53058700
_cell_length_c   16.16092900
_cell_angle_alpha   90.00000000
_cell_angle_beta   90.00000000
_cell_angle_gamma   90.00000000
_symmetry_Int_Tables_number   1
_chemical_formula_structural   LiNi4(PO4)3
_chemical_formula_sum   'Li4 Ni16 P12 O48'
_cell_volume   945.30608510
_cell_formula_units_Z   4
loop_
 _symmetry_equiv_pos_site_id
 _symmetry_equiv_pos_as_xyz
  1  'x, y, z'
loop_
 _atom_site_type_symbol
 _atom_site_label
 _atom_site_symmetry_multiplicity
 _atom_site_fract_x
 _atom_site_fract_y
 _atom_site_fract_z
 _atom_site_occupancy
  Li  Li0  1  0.00000000  0.24893400  0.45234900  1
  Li  Li1  1  0.00000000  0.75106600  0.54765100  1
  Li  Li2  1  0.50000000  0.25106600  0.95234900  1
  Li  Li3  1  0.50000000  0.74893400  0.04765100  1
  Ni  Ni0  1  0.00000000  0.53891000  0.09208600  1
  Ni  Ni1  1  0.00000000  0.99333200  0.14073100  1
  Ni  Ni2  1  0.00000000  0.00666800  0.85926900  1
  Ni  Ni3  1  0.00000000  0.46109000  0.90791400  1
  Ni  Ni4  1  0.75131400  0.75471100  0.29901800  1
  Ni  Ni5  1  0.75131400  0.24528900  0.70098200  1
  Ni  Ni6  1  0.74868600  0.25471100  0.20098200  1
  Ni  Ni7  1  0.74868600  0.74528900  0.79901800  1
  Ni  Ni8  1  0.50000000  0.96109000  0.59208600  1
  Ni  Ni9  1  0.50000000  0.50666800  0.64073100  1
  Ni  Ni10  1  0.50000000  0.03891000  0.40791400  1
  Ni  Ni11  1  0.50000000  0.49333200  0.35926900  1
  Ni  Ni12  1  0.25131400  0.74528900  0.79901800  1
  Ni  Ni13  1  0.25131400  0.25471100  0.20098200  1
  Ni  Ni14  1  0.24868600  0.75471100  0.29901800  1
  Ni  Ni15  1  0.24868600  0.24528900  0.70098200  1
  P  P0  1  0.00000000  0.20786300  0.03369400  1
  P  P1  1  0.00000000  0.05010600  0.33963900  1
  P  P2  1  0.00000000  0.45665600  0.28217000  1
  P  P3  1  0.00000000  0.54334400  0.71783000  1
  P  P4  1  0.00000000  0.94989400  0.66036100  1
  P  P5  1  0.00000000  0.79213700  0.96630600  1
  P  P6  1  0.50000000  0.95665600  0.21783000  1
  P  P7  1  0.50000000  0.29213700  0.53369400  1
  P  P8  1  0.50000000  0.55010600  0.16036100  1
  P  P9  1  0.50000000  0.70786300  0.46630600  1
  P  P10  1  0.50000000  0.04334400  0.78217000  1
  P  P11  1  0.50000000  0.44989400  0.83963900  1
  O  O0  1  0.00000000  0.36919900  0.02025700  1
  O  O1  1  0.00000000  0.11816800  0.24843600  1
  O  O2  1  0.00000000  0.39845700  0.18890300  1
  O  O3  1  0.00000000  0.85981000  0.05010900  1
  O  O4  1  0.00000000  0.61905600  0.27761500  1
  O  O5  1  0.00000000  0.11237000  0.66926200  1
  O  O6  1  0.00000000  0.88763000  0.33073800  1
  O  O7  1  0.00000000  0.38094400  0.72238500  1
  O  O8  1  0.00000000  0.14019000  0.94989100  1
  O  O9  1  0.00000000  0.60154300  0.81109700  1
  O  O10  1  0.00000000  0.88183200  0.75156400  1
  O  O11  1  0.00000000  0.63080100  0.97974300  1
  O  O12  1  0.79712800  0.16257500  0.08731300  1
  O  O13  1  0.79712800  0.83742500  0.91268700  1
  O  O14  1  0.80224300  0.89612000  0.61178500  1
  O  O15  1  0.80224300  0.10388000  0.38821500  1
  O  O16  1  0.78931400  0.39383900  0.31850000  1
  O  O17  1  0.78931400  0.60616100  0.68150000  1
  O  O18  1  0.71068600  0.89383900  0.18150000  1
  O  O19  1  0.71068600  0.10616100  0.81850000  1
  O  O20  1  0.69775700  0.39612000  0.88821500  1
  O  O21  1  0.69775700  0.60388000  0.11178500  1
  O  O22  1  0.70287200  0.33742500  0.58731300  1
  O  O23  1  0.70287200  0.66257500  0.41268700  1
  O  O24  1  0.50000000  0.38763000  0.16926200  1
  O  O25  1  0.50000000  0.35981000  0.44989100  1
  O  O26  1  0.50000000  0.13080100  0.52025700  1
  O  O27  1  0.50000000  0.64019000  0.55010900  1
  O  O28  1  0.50000000  0.11905600  0.22238500  1
  O  O29  1  0.50000000  0.86919900  0.47974300  1
  O  O30  1  0.50000000  0.88094400  0.77761500  1
  O  O31  1  0.50000000  0.61816800  0.25156400  1
  O  O32  1  0.50000000  0.89845700  0.31109700  1
  O  O33  1  0.50000000  0.10154300  0.68890300  1
  O  O34  1  0.50000000  0.61237000  0.83073800  1
  O  O35  1  0.50000000  0.38183200  0.74843600  1
  O  O36  1  0.29712800  0.66257500  0.41268700  1
  O  O37  1  0.29712800  0.33742500  0.58731300  1
  O  O38  1  0.30224300  0.60388000  0.11178500  1
  O  O39  1  0.30224300  0.39612000  0.88821500  1
  O  O40  1  0.28931400  0.89383900  0.18150000  1
  O  O41  1  0.28931400  0.10616100  0.81850000  1
  O  O42  1  0.21068600  0.39383900  0.31850000  1
  O  O43  1  0.21068600  0.60616100  0.68150000  1
  O  O44  1  0.19775700  0.10388000  0.38821500  1
  O  O45  1  0.19775700  0.89612000  0.61178500  1
  O  O46  1  0.20287200  0.16257500  0.08731300  1
  O  O47  1  0.20287200  0.83742500  0.91268700  1
loop_
_geom_bond_atom_site_label_1
_geom_bond_atom_site_label_2
_geom_bond_distance
_geom_bond_site_symmetry_2
Li0 O15 2.111526 1_455
Li0 O44 2.111526 1_555
Li1 O45 2.111526 1_555
Li1 O14 2.111526 1_455
Li2 O20 2.111526 1_555
Li2 O39 2.111526 1_555
Li3 O38 2.111526 1_555
Li3 O21 2.111526 1_555
Ni0 O38 1.981355 1_555
Ni0 O21 1.981355 1_455
Ni0 O0 1.990889 1_555
Ni0 O11 2.015755 1_554
Ni0 O2 2.059123 1_555
Ni1 O3 1.940163 1_555
Ni1 O1 2.108379 1_565
Ni1 O18 2.118053 1_455
Ni1 O40 2.118053 1_555
Ni1 O46 2.212981 1_565
Ni1 O12 2.212981 1_465
Ni2 O8 1.940163 1_555
Ni2 O10 2.108379 1_545
Ni2 O19 2.118053 1_455
Ni2 O41 2.118053 1_555
Ni2 O13 2.212981 1_445
Ni2 O47 2.212981 1_545
Ni3 O39 1.981355 1_555
Ni3 O20 1.981355 1_455
Ni3 O11 1.990889 1_555
Ni3 O0 2.015755 1_556
Ni3 O9 2.059123 1_555
Ni4 O4 2.029958 1_655
Ni4 O6 2.048689 1_655
Ni4 O23 2.057675 1_555
Ni4 O32 2.072203 1_555
Ni4 O31 2.158860 1_555
Ni4 O18 2.329665 1_555
Ni5 O7 2.029958 1_655
Ni5 O5 2.048689 1_655
Ni5 O22 2.057675 1_555
Ni5 O33 2.072203 1_555
Ni5 O35 2.158860 1_555
Ni5 O19 2.329665 1_555
Ni6 O28 2.029958 1_555
Ni6 O24 2.048689 1_555
Ni6 O12 2.057675 1_555
Ni6 O2 2.072203 1_655
Ni6 O1 2.158860 1_655
Ni6 O16 2.329665 1_555
Ni7 O30 2.029958 1_555
Ni7 O34 2.048689 1_555
Ni7 O13 2.057675 1_555
Ni7 O9 2.072203 1_655
Ni7 O10 2.158860 1_655
Ni7 O17 2.329665 1_555
Ni8 O45 1.981355 1_555
Ni8 O14 1.981355 1_555
Ni8 O26 1.990889 1_565
Ni8 O29 2.015755 1_555
Ni8 O33 2.059123 1_565
Ni9 O27 1.940163 1_555
Ni9 O35 2.108379 1_555
Ni9 O17 2.118053 1_555
Ni9 O43 2.118053 1_555
Ni9 O22 2.212981 1_555
Ni9 O37 2.212981 1_555
Ni10 O15 1.981355 1_555
Ni10 O44 1.981355 1_555
Ni10 O29 1.990889 1_545
Ni10 O26 2.015755 1_555
Ni10 O32 2.059123 1_545
Ni11 O25 1.940163 1_555
Ni11 O31 2.108379 1_555
Ni11 O16 2.118053 1_555
Ni11 O42 2.118053 1_555
Ni11 O36 2.212981 1_555
Ni11 O23 2.212981 1_555
Ni12 O30 2.029958 1_555
Ni12 O34 2.048689 1_555
Ni12 O47 2.057675 1_555
Ni12 O9 2.072203 1_555
Ni12 O10 2.158860 1_555
Ni12 O43 2.329665 1_555
Ni13 O28 2.029958 1_555
Ni13 O24 2.048689 1_555
Ni13 O46 2.057675 1_555
Ni13 O2 2.072203 1_555
Ni13 O1 2.158860 1_555
Ni13 O42 2.329665 1_555
Ni14 O4 2.029958 1_555
Ni14 O6 2.048689 1_555
Ni14 O36 2.057675 1_555
Ni14 O32 2.072203 1_555
Ni14 O31 2.158860 1_555
Ni14 O40 2.329665 1_555
Ni15 O7 2.029958 1_555
Ni15 O5 2.048689 1_555
Ni15 O37 2.057675 1_555
Ni15 O33 2.072203 1_555
Ni15 O35 2.158860 1_555
Ni15 O41 2.329665 1_555
O0 P0 1.552885 1_555
O1 P1 1.610351 1_555
O2 P2 1.606100 1_555
O3 P5 1.500066 1_554
O4 P2 1.549517 1_555
O5 P4 1.555159 1_545
O6 P1 1.555159 1_565
O7 P3 1.549517 1_555
O8 P0 1.500066 1_556
O9 P3 1.606100 1_555
O10 P4 1.610351 1_555
O11 P5 1.552885 1_555
O12 P0 1.577175 1_655
O13 P5 1.577175 1_655
O14 P4 1.533638 1_655
O15 P1 1.533638 1_655
O16 P2 1.541159 1_655
O17 P3 1.541159 1_655
O18 P6 1.541159 1_555
O19 P10 1.541159 1_555
O20 P11 1.533638 1_555
O21 P8 1.533638 1_555
O22 P7 1.577175 1_555
O23 P9 1.577175 1_555
O24 P8 1.555159 1_555
O25 P7 1.500066 1_555
O26 P7 1.552885 1_555
O27 P9 1.500066 1_555
O28 P6 1.549517 1_545
O29 P9 1.552885 1_555
O30 P10 1.549517 1_565
O31 P8 1.610351 1_555
O32 P6 1.606100 1_555
O33 P10 1.606100 1_555
O34 P11 1.555159 1_555
O35 P11 1.610351 1_555
O36 P9 1.577175 1_555
O37 P7 1.577175 1_555
O38 P8 1.533638 1_555
O39 P11 1.533638 1_555
O40 P6 1.541159 1_555
O41 P10 1.541159 1_555
O42 P2 1.541159 1_555
O43 P3 1.541159 1_555
O44 P1 1.533638 1_555
O45 P4 1.533638 1_555
O46 P0 1.577175 1_555
O47 P5 1.577175 1_555
