# generated using pymatgen
data_Co3(AsO4)2
_symmetry_space_group_name_H-M   'P 1'
_cell_length_a   10.65690880
_cell_length_b   10.65690880
_cell_length_c   10.65690880
_cell_angle_alpha   141.87000115
_cell_angle_beta   141.87000115
_cell_angle_gamma   55.02466889
_symmetry_Int_Tables_number   1
_chemical_formula_structural   Co3(AsO4)2
_chemical_formula_sum   'Co9 As6 O24'
_cell_volume   458.11476438
_cell_formula_units_Z   3
loop_
 _symmetry_equiv_pos_site_id
 _symmetry_equiv_pos_as_xyz
  1  'x, y, z'
loop_
 _atom_site_type_symbol
 _atom_site_label
 _atom_site_symmetry_multiplicity
 _atom_site_fract_x
 _atom_site_fract_y
 _atom_site_fract_z
 _atom_site_occupancy
  Co  Co0  1  0.12993100  0.63012700  0.00783000  1
  Co  Co1  1  0.22559000  0.22559000  0.00000000  1
  Co  Co2  1  0.75000000  0.25000000  0.50000000  1
  Co  Co3  1  0.87790000  0.87006900  0.50019600  1
  Co  Co4  1  0.62229700  0.12210000  0.99217000  1
  Co  Co5  1  0.47850800  0.97850800  0.50000000  1
  Co  Co6  1  0.02149200  0.52149200  0.50000000  1
  Co  Co7  1  0.77441000  0.77441000  0.00000000  1
  Co  Co8  1  0.36987300  0.37770300  0.49980400  1
  As  As0  1  0.00000000  0.00000000  0.00000000  1
  As  As1  1  0.62820000  0.53170300  0.40670800  1
  As  As2  1  0.12499500  0.22149200  0.59329200  1
  As  As3  1  0.46829700  0.87500500  0.09649700  1
  As  As4  1  0.25000000  0.75000000  0.50000000  1
  As  As5  1  0.77850800  0.37180000  0.90350300  1
  O  O0  1  0.16633700  0.90245800  0.15740200  1
  O  O1  1  0.44167700  0.67637100  0.32889200  1
  O  O2  1  0.80700800  0.62387400  0.73173300  1
  O  O3  1  0.92472500  0.19299200  0.81686500  1
  O  O4  1  0.14563500  0.45562400  0.71841500  1
  O  O5  1  0.07726700  0.30808200  0.77870400  1
  O  O6  1  0.52937800  0.29856300  0.22129600  1
  O  O7  1  0.73720900  0.42722000  0.28158500  1
  O  O8  1  0.37612600  0.10786000  0.18313500  1
  O  O9  1  0.99106500  0.83366300  0.73612100  1
  O  O10  1  0.57278000  0.85436500  0.30998900  1
  O  O11  1  0.34747900  0.11278600  0.67110800  1
  O  O12  1  0.89214000  0.07527500  0.26826700  1
  O  O13  1  0.70143700  0.92273300  0.23081500  1
  O  O14  1  0.14662600  0.91763800  0.65102000  1
  O  O15  1  0.74505600  0.00893500  0.84259800  1
  O  O16  1  0.50439400  0.85337400  0.77101200  1
  O  O17  1  0.32362900  0.65252100  0.76530600  1
  O  O18  1  0.88721400  0.55832300  0.23469400  1
  O  O19  1  0.08236200  0.73338200  0.22898800  1
  O  O20  1  0.26661800  0.49560600  0.34898000  1
  O  O21  1  0.69191800  0.47062200  0.76918500  1
  O  O22  1  0.54437600  0.26279100  0.69001100  1
  O  O23  1  0.09754200  0.25494400  0.26387900  1
loop_
_geom_bond_atom_site_label_1
_geom_bond_atom_site_label_2
_geom_bond_distance
_geom_bond_site_symmetry_2
Co0 O0 2.038197 1_555
Co0 O19 2.045164 1_555
Co0 O1 2.080444 1_555
Co0 O4 2.104942 1_554
Co0 O2 2.128215 1_454
Co0 O5 2.219073 1_554
Co1 O14 2.085845 1_544
Co1 O20 2.085845 1_555
Co1 O3 2.139091 1_454
Co1 O8 2.139095 1_555
Co1 O6 2.153390 1_555
Co1 O5 2.153390 1_554
Co2 O5 2.157428 1_655
Co2 O13 2.157428 1_545
Co2 O21 2.157428 1_555
Co2 O6 2.157428 1_555
Co3 O9 2.038202 1_555
Co3 O14 2.045154 1_655
Co3 O18 2.080439 1_555
Co3 O10 2.104951 1_555
Co3 O3 2.128214 1_565
Co3 O13 2.219069 1_555
Co4 O15 2.038201 1_555
Co4 O16 2.045155 1_545
Co4 O11 2.080453 1_555
Co4 O7 2.104949 1_556
Co4 O12 2.128207 1_556
Co4 O6 2.219070 1_556
Co5 O22 2.078956 1_565
Co5 O10 2.078956 1_555
Co5 O0 2.093220 1_555
Co5 O15 2.093220 1_565
Co5 O11 2.220926 1_565
Co5 O1 2.220930 1_555
Co6 O7 2.078956 1_455
Co6 O4 2.078956 1_555
Co6 O23 2.093220 1_555
Co6 O9 2.093220 1_455
Co6 O18 2.220925 1_455
Co6 O17 2.220930 1_555
Co7 O16 2.085845 1_554
Co7 O19 2.085845 1_655
Co7 O12 2.139091 1_565
Co7 O2 2.139096 1_554
Co7 O13 2.153390 1_555
Co7 O21 2.153390 1_554
Co8 O23 2.038197 1_555
Co8 O20 2.045164 1_555
Co8 O17 2.080444 1_555
Co8 O22 2.104942 1_555
Co8 O8 2.128208 1_555
Co8 O21 2.219073 1_555
As0 O15 1.728960 1_454
As0 O9 1.728960 1_444
As0 O23 1.728960 1_555
As0 O0 1.728960 1_545
As1 O1 1.708944 1_555
As1 O7 1.727892 1_555
As1 O2 1.732918 1_555
As1 O6 1.785774 1_555
As2 O11 1.708941 1_555
As2 O4 1.727892 1_555
As2 O12 1.732922 1_455
As2 O5 1.785774 1_555
As3 O17 1.708944 1_554
As3 O10 1.727892 1_555
As3 O8 1.732924 1_565
As3 O13 1.785774 1_555
As4 O20 1.733512 1_555
As4 O19 1.733512 1_555
As4 O16 1.733512 1_555
As4 O14 1.733512 1_555
As5 O18 1.708947 1_556
As5 O22 1.727892 1_555
As5 O3 1.732922 1_555
As5 O21 1.785774 1_555
