# generated using pymatgen
data_Li3MnP2O9
_symmetry_space_group_name_H-M   'P 1'
_cell_length_a   6.86595100
_cell_length_b   7.12109644
_cell_length_c   7.89938362
_cell_angle_alpha   89.54649962
_cell_angle_beta   115.67569735
_cell_angle_gamma   92.18940951
_symmetry_Int_Tables_number   1
_chemical_formula_structural   Li3MnP2O9
_chemical_formula_sum   'Li6 Mn2 P4 O18'
_cell_volume   347.81969123
_cell_formula_units_Z   2
loop_
 _symmetry_equiv_pos_site_id
 _symmetry_equiv_pos_as_xyz
  1  'x, y, z'
loop_
 _atom_site_type_symbol
 _atom_site_label
 _atom_site_symmetry_multiplicity
 _atom_site_fract_x
 _atom_site_fract_y
 _atom_site_fract_z
 _atom_site_occupancy
  Li  Li0  1  0.14262400  0.23881900  0.20749500  1
  Li  Li1  1  0.38480500  0.30065800  0.72880700  1
  Li  Li2  1  0.60119000  0.69755400  0.26770200  1
  Li  Li3  1  0.91271000  0.76570000  0.79232800  1
  Li  Li4  1  0.00052900  0.49986100  0.50511500  1
  Li  Li5  1  0.76038100  0.99540700  0.00060000  1
  Mn  Mn0  1  0.49634700  0.00173400  0.49753700  1
  Mn  Mn1  1  0.00046900  0.99802300  0.50499200  1
  P  P0  1  0.10942200  0.71044400  0.25071800  1
  P  P1  1  0.38660200  0.76032600  0.79449400  1
  P  P2  1  0.61848400  0.23871300  0.20488300  1
  P  P3  1  0.87738200  0.28930000  0.74995400  1
  O  O0  1  0.00917000  0.22884400  0.63697300  1
  O  O1  1  0.17635500  0.87578500  0.74154500  1
  O  O2  1  0.99487600  0.80229900  0.05899300  1
  O  O3  1  0.32349700  0.56715900  0.70092200  1
  O  O4  1  0.51491000  0.23806500  0.99149300  1
  O  O5  1  0.11075800  0.49709600  0.25368200  1
  O  O6  1  0.23776900  0.09879100  0.47404300  1
  O  O7  1  0.54708400  0.87449100  0.73013100  1
  O  O8  1  0.35410200  0.78146900  0.34239400  1
  O  O9  1  0.62999900  0.22755500  0.63955500  1
  O  O10  1  0.45031300  0.14315900  0.26821600  1
  O  O11  1  0.75586500  0.90084600  0.52497000  1
  O  O12  1  0.89294100  0.50215300  0.74514900  1
  O  O13  1  0.51206400  0.76362800  0.00777500  1
  O  O14  1  0.68607800  0.43284200  0.29859700  1
  O  O15  1  0.95762100  0.19479000  0.94105900  1
  O  O16  1  0.82101100  0.11104700  0.26256500  1
  O  O17  1  0.99283500  0.76343800  0.37731600  1
loop_
_geom_bond_atom_site_label_1
_geom_bond_atom_site_label_2
_geom_bond_distance
_geom_bond_site_symmetry_2
Li0 O5 1.916830 1_555
Li0 O15 1.950592 1_454
Li0 O10 2.093749 1_555
Li0 O6 2.163116 1_555
Li0 O16 2.562383 1_455
Li1 O4 1.926660 1_555
Li1 O3 1.949704 1_555
Li1 O9 2.168758 1_555
Li1 O6 2.304353 1_555
Li1 O0 2.392343 1_555
Li2 O13 1.931232 1_555
Li2 O14 1.976370 1_555
Li2 O8 2.129257 1_555
Li2 O11 2.326478 1_555
Li2 O17 2.468411 1_555
Li3 O12 1.904536 1_555
Li3 O2 1.947089 1_556
Li3 O1 2.137299 1_655
Li3 O11 2.149985 1_555
Li3 O7 2.493452 1_555
Li4 O14 2.105210 1_455
Li4 O17 2.115723 1_455
Li4 O3 2.120776 1_555
Li4 O0 2.176346 1_555
Li4 O12 2.314381 1_455
Li4 O5 2.412960 1_555
Li5 O2 2.052207 1_555
Li5 O16 2.094750 1_565
Li5 O15 2.113186 1_564
Li5 O7 2.161555 1_554
Li5 O13 2.345522 1_555
Li5 O4 2.438680 1_564
Mn0 O6 1.862881 1_555
Mn0 O11 1.870507 1_545
Mn0 O9 1.926219 1_555
Mn0 O7 1.939423 1_545
Mn0 O8 1.947369 1_545
Mn0 O10 1.973564 1_555
Mn1 O11 1.861031 1_455
Mn1 O6 1.866103 1_565
Mn1 O0 1.938534 1_565
Mn1 O17 1.945429 1_455
Mn1 O1 1.951136 1_555
Mn1 O16 1.959581 1_465
O0 P3 1.592563 1_455
O1 P1 1.580127 1_555
O2 P0 1.526954 1_655
O3 P1 1.522921 1_555
O4 P2 1.519297 1_556
O5 P0 1.519584 1_555
O7 P1 1.594994 1_555
O8 P0 1.577703 1_555
O9 P3 1.582483 1_555
O10 P2 1.575336 1_555
O12 P3 1.516764 1_555
O13 P1 1.523991 1_554
O14 P2 1.530990 1_555
O15 P3 1.525433 1_555
O16 P2 1.583890 1_555
O17 P0 1.583041 1_655
