# generated using pymatgen
data_Hf2MoRh
_symmetry_space_group_name_H-M   'P 1'
_cell_length_a   4.61269917
_cell_length_b   4.61269917
_cell_length_c   4.61269917
_cell_angle_alpha   60.00000000
_cell_angle_beta   60.00000000
_cell_angle_gamma   60.00000000
_symmetry_Int_Tables_number   1
_chemical_formula_structural   Hf2MoRh
_chemical_formula_sum   'Hf2 Mo1 Rh1'
_cell_volume   69.39855001
_cell_formula_units_Z   1
loop_
 _symmetry_equiv_pos_site_id
 _symmetry_equiv_pos_as_xyz
  1  'x, y, z'
loop_
 _atom_site_type_symbol
 _atom_site_label
 _atom_site_symmetry_multiplicity
 _atom_site_fract_x
 _atom_site_fract_y
 _atom_site_fract_z
 _atom_site_occupancy
  Hf  Hf0  1  0.00000000  -0.00000000  -0.00000000  1
  Hf  Hf1  1  0.49999900  0.49999900  0.49999900  1
  Mo  Mo0  1  0.24999900  0.24999900  0.24999900  1
  Rh  Rh0  1  0.75000100  0.75000100  0.75000100  1
loop_
_geom_bond_atom_site_label_1
_geom_bond_atom_site_label_2
_geom_bond_distance
_geom_bond_site_symmetry_2
Hf0 Mo0 2.824679 1_555
Hf0 Rh0 2.824679 1_444
Hf0 Rh0 2.824694 1_445
Hf0 Rh0 2.824694 1_544
Hf0 Rh0 2.824694 1_454
Hf0 Mo0 2.824694 1_554
Hf0 Mo0 2.824694 1_545
Hf0 Mo0 2.824694 1_455
Hf1 Rh0 2.824682 1_545
Hf1 Rh0 2.824682 1_554
Hf1 Rh0 2.824682 1_455
Hf1 Mo0 2.824690 1_555
Hf1 Mo0 2.824690 1_565
Hf1 Mo0 2.824690 1_655
Hf1 Mo0 2.824690 1_556
Hf1 Rh0 2.824712 1_555
