# generated using pymatgen
data_DyAl2
_symmetry_space_group_name_H-M   'P 1'
_cell_length_a   5.53360712
_cell_length_b   5.53360638
_cell_length_c   5.53360695
_cell_angle_alpha   59.99999667
_cell_angle_beta   60.00000106
_cell_angle_gamma   59.99999629
_symmetry_Int_Tables_number   1
_chemical_formula_structural   DyAl2
_chemical_formula_sum   'Dy2 Al4'
_cell_volume   119.81463682
_cell_formula_units_Z   2
loop_
 _symmetry_equiv_pos_site_id
 _symmetry_equiv_pos_as_xyz
  1  'x, y, z'
loop_
 _atom_site_type_symbol
 _atom_site_label
 _atom_site_symmetry_multiplicity
 _atom_site_fract_x
 _atom_site_fract_y
 _atom_site_fract_z
 _atom_site_occupancy
  Dy  Dy0  1  0.12500000  0.12500000  0.12500000  1
  Dy  Dy1  1  0.87500000  0.87500000  0.87500000  1
  Al  Al0  1  0.50000000  -0.00000000  0.50000000  1
  Al  Al1  1  -0.00000000  0.50000000  0.50000000  1
  Al  Al2  1  0.50000000  0.50000000  0.50000000  1
  Al  Al3  1  0.50000000  0.50000000  -0.00000000  1
loop_
_geom_bond_atom_site_label_1
_geom_bond_atom_site_label_2
_geom_bond_distance
_geom_bond_site_symmetry_2
Dy0 Dy1 3.388628 1_454
Dy0 Dy1 3.388628 1_444
Dy0 Dy1 3.388628 1_445
Dy0 Dy1 3.388628 1_544
Al0 Al2 2.766803 1_555
Al0 Al2 2.766803 1_545
Al0 Al3 2.766803 1_555
Al0 Al3 2.766803 1_546
Al0 Al1 2.766803 1_555
Al0 Al1 2.766803 1_645
Al0 Dy1 3.244365 1_545
Al0 Dy0 3.244365 1_555
Al0 Dy1 3.244365 1_544
Al0 Dy0 3.244365 1_556
Al0 Dy1 3.244365 1_445
Al0 Dy0 3.244365 1_655
Al1 Al2 2.766804 1_555
Al1 Al2 2.766804 1_455
Al1 Al3 2.766804 1_456
Al1 Al3 2.766804 1_555
Al1 Dy1 3.244364 1_445
Al1 Dy0 3.244364 1_565
Al1 Dy0 3.244365 1_555
Al1 Dy1 3.244365 1_455
Al1 Dy1 3.244365 1_454
Al1 Dy0 3.244365 1_556
Al2 Al3 2.766803 1_555
Al2 Al3 2.766803 1_556
Al2 Dy1 3.244364 1_545
Al2 Dy0 3.244364 1_565
Al2 Dy0 3.244365 1_655
Al2 Dy1 3.244365 1_455
Al2 Dy0 3.244365 1_556
Al2 Dy1 3.244365 1_554
Al3 Dy0 3.244364 1_565
Al3 Dy1 3.244364 1_544
Al3 Dy1 3.244365 1_454
Al3 Dy0 3.244365 1_655
Al3 Dy1 3.244365 1_554
Al3 Dy0 3.244365 1_555
