# generated using pymatgen
data_ZrSnRh2
_symmetry_space_group_name_H-M   'P 1'
_cell_length_a   4.59053988
_cell_length_b   4.59054637
_cell_length_c   4.59054277
_cell_angle_alpha   60.00007786
_cell_angle_beta   60.00013513
_cell_angle_gamma   60.00014023
_symmetry_Int_Tables_number   1
_chemical_formula_structural   ZrSnRh2
_chemical_formula_sum   'Zr1 Sn1 Rh2'
_cell_volume   68.40350304
_cell_formula_units_Z   1
loop_
 _symmetry_equiv_pos_site_id
 _symmetry_equiv_pos_as_xyz
  1  'x, y, z'
loop_
 _atom_site_type_symbol
 _atom_site_label
 _atom_site_symmetry_multiplicity
 _atom_site_fract_x
 _atom_site_fract_y
 _atom_site_fract_z
 _atom_site_occupancy
  Zr  Zr0  1  0.75000000  0.75000000  0.75000000  1
  Sn  Sn0  1  0.25000100  0.25000000  0.25000000  1
  Rh  Rh0  1  0.99999900  -0.00000000  -0.00000000  1
  Rh  Rh1  1  0.50000100  0.50000000  0.50000100  1
loop_
_geom_bond_atom_site_label_1
_geom_bond_atom_site_label_2
_geom_bond_distance
_geom_bond_site_symmetry_2
Rh0 Zr0 2.811116 1_544
Rh0 Sn0 2.811118 1_555
Rh0 Zr0 2.811125 1_545
Rh0 Sn0 2.811125 1_654
Rh0 Sn0 2.811127 1_655
Rh0 Zr0 2.811128 1_554
Rh0 Sn0 2.811128 1_645
Rh0 Zr0 2.811129 1_644
Rh1 Zr0 2.811112 1_555
Rh1 Sn0 2.811122 1_556
Rh1 Sn0 2.811123 1_555
Rh1 Sn0 2.811125 1_655
Rh1 Sn0 2.811128 1_565
Rh1 Zr0 2.811128 1_545
Rh1 Zr0 2.811129 1_455
Rh1 Zr0 2.811129 1_554
