# generated using pymatgen
data_Fe10O9F11
_symmetry_space_group_name_H-M   'P 1'
_cell_length_a   15.56703400
_cell_length_b   4.74708700
_cell_length_c   4.76514150
_cell_angle_alpha   88.06631552
_cell_angle_beta   90.00000000
_cell_angle_gamma   90.00000000
_symmetry_Int_Tables_number   1
_chemical_formula_structural   Fe10O9F11
_chemical_formula_sum   'Fe10 O9 F11'
_cell_volume   351.93421262
_cell_formula_units_Z   1
loop_
 _symmetry_equiv_pos_site_id
 _symmetry_equiv_pos_as_xyz
  1  'x, y, z'
loop_
 _atom_site_type_symbol
 _atom_site_label
 _atom_site_symmetry_multiplicity
 _atom_site_fract_x
 _atom_site_fract_y
 _atom_site_fract_z
 _atom_site_occupancy
  Fe  Fe0  1  0.00000000  0.00983400  0.99053500  1
  Fe  Fe1  1  0.20636600  0.97302600  0.01301300  1
  Fe  Fe2  1  0.40032000  0.95761200  0.98882600  1
  Fe  Fe3  1  0.59968000  0.95761200  0.98882600  1
  Fe  Fe4  1  0.79363400  0.97302600  0.01301300  1
  Fe  Fe5  1  0.09430900  0.50997300  0.48589900  1
  Fe  Fe6  1  0.50000000  0.54087100  0.49337600  1
  Fe  Fe7  1  0.29798100  0.54493200  0.50114500  1
  Fe  Fe8  1  0.70201900  0.54493200  0.50114500  1
  Fe  Fe9  1  0.90569100  0.50997300  0.48589900  1
  O  O0  1  0.30055800  0.80465600  0.80532800  1
  O  O1  1  0.50000000  0.80190100  0.80342500  1
  O  O2  1  0.69944200  0.80465600  0.80532800  1
  O  O3  1  0.00000000  0.70740300  0.28994600  1
  O  O4  1  0.19482900  0.68619300  0.31541500  1
  O  O5  1  0.39904500  0.69337800  0.30800600  1
  O  O6  1  0.60095500  0.69337800  0.30800600  1
  O  O7  1  0.80517100  0.68619300  0.31541500  1
  O  O8  1  0.00000000  0.30306400  0.69321900  1
  F  F0  1  0.09809700  0.80501700  0.80201600  1
  F  F1  1  0.90190300  0.80501700  0.80201600  1
  F  F2  1  0.19614700  0.29782600  0.70505300  1
  F  F3  1  0.39905100  0.30307300  0.69997000  1
  F  F4  1  0.60094900  0.30307300  0.69997000  1
  F  F5  1  0.80385300  0.29782600  0.70505300  1
  F  F6  1  0.09967700  0.19515800  0.19036700  1
  F  F7  1  0.50000000  0.19287300  0.19209200  1
  F  F8  1  0.30134900  0.20118200  0.20366500  1
  F  F9  1  0.90032300  0.19515800  0.19036700  1
  F  F10  1  0.69865100  0.20118200  0.20366500  1
loop_
_geom_bond_atom_site_label_1
_geom_bond_atom_site_label_2
_geom_bond_distance
_geom_bond_site_symmetry_2
Fe0 O8 1.952366 1_555
Fe0 O3 1.989593 1_546
Fe1 O0 1.954896 1_554
Fe1 O4 1.957116 1_555
Fe2 O0 1.935570 1_555
Fe2 O5 1.938626 1_556
Fe2 O1 1.943912 1_555
Fe3 O2 1.935570 1_555
Fe3 O6 1.938626 1_556
Fe3 O1 1.943912 1_555
Fe4 O2 1.954896 1_554
Fe4 O7 1.957116 1_555
Fe5 O4 1.939711 1_555
Fe5 O3 1.961262 1_555
Fe5 O8 2.007630 1_555
Fe6 O5 1.931591 1_555
Fe6 O6 1.931591 1_555
Fe6 O1 1.960048 1_555
Fe7 O0 1.934764 1_555
Fe7 O4 1.942010 1_555
Fe7 O5 1.942936 1_555
Fe8 O2 1.934764 1_555
Fe8 O7 1.942010 1_555
Fe8 O6 1.942936 1_555
Fe9 O7 1.939711 1_555
Fe9 O3 1.961262 1_655
Fe9 O8 2.007630 1_655
F0 Fe0 2.035492 1_565
F0 Fe5 2.092033 1_555
F0 Fe1 2.131141 1_556
F1 Fe0 2.035492 1_665
F1 Fe9 2.092033 1_555
F1 Fe4 2.131141 1_556
F2 Fe1 2.098428 1_546
F2 Fe5 2.132375 1_555
F2 Fe7 2.180876 1_555
F3 Fe2 2.105238 1_545
F3 Fe7 2.148923 1_555
F3 Fe6 2.153597 1_555
F4 Fe3 2.105238 1_545
F4 Fe8 2.148923 1_555
F4 Fe6 2.153597 1_555
F5 Fe4 2.098428 1_546
F5 Fe9 2.132375 1_555
F5 Fe8 2.180876 1_555
F6 Fe0 2.035909 1_554
F6 Fe5 2.089396 1_555
F6 Fe1 2.155145 1_545
F7 Fe2 2.160153 1_544
F7 Fe3 2.160153 1_544
F7 Fe6 2.224905 1_555
F8 Fe1 2.061812 1_545
F8 Fe7 2.197968 1_555
F8 Fe2 2.199669 1_544
F9 Fe0 2.035909 1_654
F9 Fe9 2.089396 1_555
F9 Fe4 2.155145 1_545
F10 Fe4 2.061812 1_545
F10 Fe8 2.197968 1_555
F10 Fe3 2.199669 1_544
