# generated using pymatgen
data_LiMn2(BO3)2
_symmetry_space_group_name_H-M   'P 1'
_cell_length_a   5.25285500
_cell_length_b   11.59501525
_cell_length_c   13.93360151
_cell_angle_alpha   113.76639443
_cell_angle_beta   90.88920247
_cell_angle_gamma   102.28115854
_symmetry_Int_Tables_number   1
_chemical_formula_structural   LiMn2(BO3)2
_chemical_formula_sum   'Li6 Mn12 B12 O36'
_cell_volume   754.03061506
_cell_formula_units_Z   6
loop_
 _symmetry_equiv_pos_site_id
 _symmetry_equiv_pos_as_xyz
  1  'x, y, z'
loop_
 _atom_site_type_symbol
 _atom_site_label
 _atom_site_symmetry_multiplicity
 _atom_site_fract_x
 _atom_site_fract_y
 _atom_site_fract_z
 _atom_site_occupancy
  Li  Li0  1  0.98015200  0.52326700  0.62334700  1
  Li  Li1  1  0.46408500  0.44207100  0.89614400  1
  Li  Li2  1  0.01647100  0.15036300  0.70651800  1
  Li  Li3  1  0.55001700  0.24429300  0.43081600  1
  Li  Li4  1  0.02208900  0.88935000  0.28408500  1
  Li  Li5  1  0.53815700  0.55434000  0.10825900  1
  Mn  Mn0  1  0.35737600  0.04779300  0.82620100  1
  Mn  Mn1  1  0.19774500  0.94084200  0.43726700  1
  Mn  Mn2  1  0.64748500  0.28607600  0.84518000  1
  Mn  Mn3  1  0.80491800  0.38144100  0.24512100  1
  Mn  Mn4  1  0.39273900  0.40988200  0.47578200  1
  Mn  Mn5  1  0.20684300  0.28984200  0.09493300  1
  Mn  Mn6  1  0.81197500  0.73625400  0.89186500  1
  Mn  Mn7  1  0.63355400  0.61081500  0.51718000  1
  Mn  Mn8  1  0.21527600  0.62278300  0.76040400  1
  Mn  Mn9  1  0.39268500  0.73955900  0.14160500  1
  Mn  Mn10  1  0.81077600  0.06550400  0.57158800  1
  Mn  Mn11  1  0.66034300  0.96752200  0.16735800  1
  B  B0  1  0.30515500  0.72238400  0.39910000  1
  B  B1  1  0.10856600  0.59670900  0.02442900  1
  B  B2  1  0.85332100  0.70535800  0.66480900  1
  B  B3  1  0.71294600  0.95103700  0.92344700  1
  B  B4  1  0.73177500  0.62636800  0.25101400  1
  B  B5  1  0.86431200  0.05316700  0.32391500  1
  B  B6  1  0.16563700  0.98458100  0.65955300  1
  B  B7  1  0.28615700  0.38984800  0.73740400  1
  B  B8  1  0.29064100  0.06644300  0.07256700  1
  B  B9  1  0.14350800  0.28525700  0.34827700  1
  B  B10  1  0.86064100  0.38925000  0.98421000  1
  B  B11  1  0.69599100  0.27530100  0.59964000  1
  O  O0  1  0.48901500  0.32765100  0.75859800  1
  O  O1  1  0.35564100  0.22759600  0.36421500  1
  O  O2  1  0.15680100  0.74405200  0.92779400  1
  O  O3  1  0.10990100  0.68371200  0.47563100  1
  O  O4  1  0.85901800  0.50242700  0.11408300  1
  O  O5  1  0.70882900  0.20717100  0.67995500  1
  O  O6  1  0.03044600  0.73937600  0.59155600  1
  O  O7  1  0.56361400  0.05280000  0.89635700  1
  O  O8  1  0.64693700  0.75849400  0.19922900  1
  O  O9  1  0.68008500  0.12601400  0.31983600  1
  O  O10  1  0.51755500  0.65788000  0.41509200  1
  O  O11  1  0.33125300  0.54073600  0.03027400  1
  O  O12  1  0.34534900  0.18074900  0.97779500  1
  O  O13  1  0.95266700  0.92680300  0.73882800  1
  O  O14  1  0.23119500  0.13882700  0.55518600  1
  O  O15  1  0.26708500  0.45376100  0.65811800  1
  O  O16  1  0.10259100  0.38141300  0.80089100  1
  O  O17  1  0.77563900  0.55009500  0.76952000  1
  O  O18  1  0.09493000  0.05149400  0.14099300  1
  O  O19  1  0.90724100  0.98650300  0.84787500  1
  O  O20  1  0.65250900  0.50701700  0.34983100  1
  O  O21  1  0.90484300  0.61653000  0.19590900  1
  O  O22  1  0.20798300  0.42322200  0.24611800  1
  O  O23  1  0.06241000  0.11565800  0.23915400  1
  O  O24  1  0.83115500  0.90717600  0.41770700  1
  O  O25  1  0.65472200  0.81592700  0.02028400  1
  O  O26  1  0.64468800  0.44640700  0.97089300  1
  O  O27  1  0.49303400  0.33932300  0.57768200  1
  O  O28  1  0.34327300  0.90887700  0.66577800  1
  O  O29  1  0.41394200  0.95575200  0.11463200  1
  O  O30  1  0.88720100  0.20837800  0.42960400  1
  O  O31  1  0.31307500  0.81767000  0.31148900  1
  O  O32  1  0.13426800  0.48613000  0.89964300  1
  O  O33  1  0.89212100  0.29239900  0.53240200  1
  O  O34  1  0.78833500  0.23415300  0.08690200  1
  O  O35  1  0.71500400  0.80528000  0.65183900  1
loop_
_geom_bond_atom_site_label_1
_geom_bond_atom_site_label_2
_geom_bond_distance
_geom_bond_site_symmetry_2
Li0 O15 1.991168 1_655
Li0 Mn8 2.012014 1_655
Li0 O17 2.257977 1_555
Li0 O33 2.388840 1_555
Li1 O26 1.376274 1_555
Li1 O0 1.866170 1_555
Li1 O32 1.903659 1_555
Li2 Mn10 1.914123 1_455
Li2 O5 1.952711 1_455
Li2 O14 2.376329 1_555
Li2 O16 2.395301 1_555
Li3 O1 1.297243 1_555
Li3 O9 1.860358 1_555
Li3 O30 1.902582 1_555
Li3 O27 1.957866 1_555
Li4 O31 1.987722 1_555
Li4 O24 2.085912 1_455
Li4 Mn1 2.107316 1_555
Li4 O8 2.189328 1_455
Li5 O11 1.462560 1_555
Li5 O4 1.917374 1_555
Li5 O26 1.985761 1_554
Mn0 O7 1.423791 1_555
Mn0 O12 2.064739 1_555
Mn0 O28 2.153712 1_545
Mn1 O24 1.874284 1_455
Mn1 O31 1.965126 1_555
Mn1 O14 2.186251 1_565
Mn2 O0 1.728871 1_555
Mn2 O26 1.977930 1_555
Mn2 O5 2.166025 1_555
Mn3 O20 1.926021 1_555
Mn3 O22 2.067586 1_655
Mn3 O34 2.163425 1_555
Mn4 O27 2.014759 1_555
Mn5 O12 1.886164 1_554
Mn5 O22 2.049185 1_555
Mn5 O34 2.143012 1_455
Mn6 O2 1.845367 1_655
Mn6 O25 1.943099 1_556
Mn6 O17 2.109604 1_555
Mn7 O10 1.852755 1_555
Mn7 O20 2.166053 1_555
Mn8 O15 1.983373 1_555
Mn8 O2 2.252543 1_555
Mn8 O17 2.308018 1_455
Mn9 O8 1.475279 1_555
Mn9 O31 2.249923 1_555
Mn9 O25 2.509277 1_555
Mn10 O5 1.914447 1_555
Mn10 O24 2.212915 1_545
Mn10 O14 2.241786 1_655
Mn11 O29 1.431125 1_555
Mn11 O25 2.088718 1_555
Mn11 O9 2.160291 1_565
Mn11 O23 2.327610 1_665
B0 O10 1.528219 1_555
B0 O3 1.616728 1_555
B0 O31 1.944665 1_555
B1 O11 1.469270 1_555
B1 O32 1.723186 1_554
B2 O6 1.503623 1_655
B2 O35 1.557465 1_555
B2 Li0 2.205132 1_555
B3 O19 1.588508 1_555
B3 O7 1.701061 1_565
B4 O21 1.193397 1_555
B5 O9 1.427544 1_555
B5 O30 1.785559 1_555
B5 O23 1.846561 1_655
B5 Li4 2.106452 1_645
B5 Mn11 2.149745 1_545
B6 O28 1.433877 1_555
B6 O13 1.798998 1_455
B6 Li2 2.092839 1_565
B7 O16 1.333396 1_555
B7 O0 1.493848 1_555
B7 O15 1.570892 1_555
B8 O18 1.443517 1_555
B8 O29 1.832620 1_545
B8 O12 2.200773 1_554
B9 O1 1.472046 1_555
B9 O23 1.890492 1_555
B9 O30 2.059689 1_455
B10 O26 1.474060 1_555
B10 O4 1.757270 1_556
B11 O33 1.439165 1_555
B11 O27 1.513561 1_555
B11 O5 1.616725 1_555
O16 O32 1.398423 1_555
O18 O23 1.301741 1_555
O30 O33 1.365577 1_555
O30 O9 1.662519 1_555
