# generated using pymatgen
data_Pm2AgGe
_symmetry_space_group_name_H-M   'P 1'
_cell_length_a   5.18552975
_cell_length_b   5.18552975
_cell_length_c   5.18552975
_cell_angle_alpha   60.00000000
_cell_angle_beta   60.00000000
_cell_angle_gamma   60.00000000
_symmetry_Int_Tables_number   1
_chemical_formula_structural   Pm2AgGe
_chemical_formula_sum   'Pm2 Ag1 Ge1'
_cell_volume   98.59715705
_cell_formula_units_Z   1
loop_
 _symmetry_equiv_pos_site_id
 _symmetry_equiv_pos_as_xyz
  1  'x, y, z'
loop_
 _atom_site_type_symbol
 _atom_site_label
 _atom_site_symmetry_multiplicity
 _atom_site_fract_x
 _atom_site_fract_y
 _atom_site_fract_z
 _atom_site_occupancy
  Pm  Pm0  1  -0.00000000  -0.00000000  -0.00000000  1
  Pm  Pm1  1  0.49999900  0.49999900  0.49999900  1
  Ag  Ag0  1  0.25000000  0.25000000  0.25000000  1
  Ge  Ge0  1  0.75000000  0.75000000  0.75000000  1
loop_
_geom_bond_atom_site_label_1
_geom_bond_atom_site_label_2
_geom_bond_distance
_geom_bond_site_symmetry_2
Ag0 Pm1 3.175463 1_555
Ag0 Pm0 3.175475 1_556
Ag0 Pm0 3.175475 1_565
Ag0 Pm0 3.175475 1_655
Ag0 Pm0 3.175475 1_555
Ag0 Pm1 3.175480 1_455
Ag0 Pm1 3.175480 1_545
Ag0 Pm1 3.175480 1_554
Ge0 Pm1 3.175471 1_556
Ge0 Pm1 3.175471 1_565
Ge0 Pm1 3.175471 1_655
Ge0 Pm0 3.175475 1_656
Ge0 Pm0 3.175475 1_665
Ge0 Pm0 3.175475 1_566
Ge0 Pm0 3.175475 1_666
Ge0 Pm1 3.175488 1_555
