# generated using pymatgen
data_Li2V3P4H4O19
_symmetry_space_group_name_H-M   'P 1'
_cell_length_a   9.25708500
_cell_length_b   8.82335400
_cell_length_c   10.59314222
_cell_angle_alpha   64.78754542
_cell_angle_beta   90.00000000
_cell_angle_gamma   90.00000000
_symmetry_Int_Tables_number   1
_chemical_formula_structural   Li2V3P4H4O19
_chemical_formula_sum   'Li4 V6 P8 H8 O38'
_cell_volume   782.80555595
_cell_formula_units_Z   2
loop_
 _symmetry_equiv_pos_site_id
 _symmetry_equiv_pos_as_xyz
  1  'x, y, z'
loop_
 _atom_site_type_symbol
 _atom_site_label
 _atom_site_symmetry_multiplicity
 _atom_site_fract_x
 _atom_site_fract_y
 _atom_site_fract_z
 _atom_site_occupancy
  Li  Li0  1  0.46996600  0.24062000  0.00462800  1
  Li  Li1  1  0.53003400  0.74062000  0.00462800  1
  Li  Li2  1  0.21971200  0.24941000  0.54061700  1
  Li  Li3  1  0.78028800  0.74941000  0.54061700  1
  V  V0  1  0.24674500  0.11751500  0.21095700  1
  V  V1  1  0.75325500  0.61751500  0.21095700  1
  V  V2  1  0.74435100  0.22804100  0.50496100  1
  V  V3  1  0.25564900  0.72804100  0.50496100  1
  V  V4  1  0.24372400  0.36243300  0.82110300  1
  V  V5  1  0.75627600  0.86243300  0.82110300  1
  P  P0  1  0.95464400  0.30383600  0.23716000  1
  P  P1  1  0.49914900  0.35089500  0.26172700  1
  P  P2  1  0.04535600  0.80383600  0.23716000  1
  P  P3  1  0.50085100  0.85089500  0.26172700  1
  P  P4  1  0.50274300  0.14949000  0.73640100  1
  P  P5  1  0.95535000  0.19960300  0.75495100  1
  P  P6  1  0.49725700  0.64949000  0.73640100  1
  P  P7  1  0.04465000  0.69960300  0.75495100  1
  H  H0  1  0.92851900  0.13543100  0.14029500  1
  H  H1  1  0.59659400  0.02084500  0.34917200  1
  H  H2  1  0.07148100  0.63543100  0.14029500  1
  H  H3  1  0.40340600  0.52084500  0.34917200  1
  H  H4  1  0.59765400  0.48042600  0.64706100  1
  H  H5  1  0.93142000  0.37001000  0.85255000  1
  H  H6  1  0.40234600  0.98042600  0.64706100  1
  H  H7  1  0.06858000  0.87001000  0.85255000  1
  O  O0  1  0.23377600  0.24656000  0.99730000  1
  O  O1  1  0.87594700  0.23427900  0.13971400  1
  O  O2  1  0.76622400  0.74656000  0.99730000  1
  O  O3  1  0.41145100  0.27785100  0.17812000  1
  O  O4  1  0.58700700  0.49809000  0.15580400  1
  O  O5  1  0.11926800  0.28049000  0.23360100  1
  O  O6  1  0.92159400  0.49303700  0.17869700  1
  O  O7  1  0.12405300  0.73427900  0.13971400  1
  O  O8  1  0.58854900  0.77785100  0.17812000  1
  O  O9  1  0.59393400  0.21073800  0.36833800  1
  O  O10  1  0.90219200  0.21053800  0.38793800  1
  O  O11  1  0.38561400  0.41009200  0.34643200  1
  O  O12  1  0.41299300  0.99809000  0.15580400  1
  O  O13  1  0.88073200  0.78049000  0.23360100  1
  O  O14  1  0.07840600  0.99303700  0.17869700  1
  O  O15  1  0.73195900  0.47911900  0.38183900  1
  O  O16  1  0.40606600  0.71073800  0.36833800  1
  O  O17  1  0.09780800  0.71053800  0.38793800  1
  O  O18  1  0.73042700  0.01712900  0.61502600  1
  O  O19  1  0.61438600  0.91009200  0.34643200  1
  O  O20  1  0.38255800  0.08527300  0.65885200  1
  O  O21  1  0.26804100  0.97911900  0.38183900  1
  O  O22  1  0.89847400  0.28666900  0.60564700  1
  O  O23  1  0.59388900  0.28599500  0.62310800  1
  O  O24  1  0.26957300  0.51712900  0.61502600  1
  O  O25  1  0.92504100  0.00947100  0.81930900  1
  O  O26  1  0.12106800  0.22974900  0.74841900  1
  O  O27  1  0.59115500  0.00427300  0.84285100  1
  O  O28  1  0.61744200  0.58527300  0.65885200  1
  O  O29  1  0.10152600  0.78666900  0.60564700  1
  O  O30  1  0.40611100  0.78599500  0.62310800  1
  O  O31  1  0.41745300  0.22700900  0.81725300  1
  O  O32  1  0.88045000  0.26995100  0.85321500  1
  O  O33  1  0.07495900  0.50947100  0.81930900  1
  O  O34  1  0.87893200  0.72974900  0.74841900  1
  O  O35  1  0.40884500  0.50427300  0.84285100  1
  O  O36  1  0.58254700  0.72700900  0.81725300  1
  O  O37  1  0.11955000  0.76995100  0.85321500  1
loop_
_geom_bond_atom_site_label_1
_geom_bond_atom_site_label_2
_geom_bond_distance
_geom_bond_site_symmetry_2
Li0 O3 2.072023 1_555
Li0 O31 2.096093 1_554
Li0 O12 2.121893 1_545
Li0 O0 2.187644 1_554
Li0 O35 2.296138 1_554
Li1 O8 2.072023 1_555
Li1 O36 2.096093 1_554
Li1 O4 2.121893 1_555
Li1 O2 2.187644 1_554
Li1 O27 2.296138 1_564
Li2 O20 2.096008 1_555
Li2 O26 2.320394 1_555
Li2 O11 2.472930 1_555
Li3 O28 2.096008 1_555
Li3 O34 2.320394 1_555
Li3 O19 2.472930 1_555
H0 O1 0.996488 1_555
H1 O19 1.003533 1_545
H2 O7 0.996488 1_555
H3 O11 1.003533 1_555
H4 O28 1.001704 1_555
H5 O32 0.998405 1_555
H5 O33 1.742008 1_655
H6 O20 1.001704 1_565
H7 O37 0.998405 1_555
H7 O25 1.742008 1_465
O0 V4 1.706386 1_555
O0 V0 2.058610 1_556
O1 P0 1.585141 1_555
O2 V5 1.706386 1_555
O2 V1 2.058610 1_556
O3 P1 1.531381 1_555
O3 V0 2.006947 1_555
O4 P1 1.538088 1_555
O4 V1 2.084373 1_555
O5 P0 1.540408 1_455
O5 V0 1.952373 1_555
O6 P0 1.543761 1_555
O6 V1 2.017728 1_555
O7 P2 1.585141 1_555
O8 P3 1.531381 1_555
O8 V1 2.006947 1_555
O9 P1 1.544273 1_555
O9 V2 2.060334 1_555
O10 P0 1.531124 1_555
O10 V2 1.964336 1_555
O11 P1 1.606810 1_555
O12 P3 1.538088 1_555
O12 V0 2.084373 1_565
O13 P2 1.540408 1_655
O13 V1 1.952373 1_555
O14 P2 1.543761 1_555
O14 V0 2.017728 1_565
O15 V1 1.709838 1_555
O15 V2 2.039705 1_555
O16 P3 1.544273 1_555
O16 V3 2.060334 1_555
O17 P2 1.531124 1_555
O17 V3 1.964336 1_555
O18 V2 1.729346 1_555
O18 V5 2.036488 1_545
O19 P3 1.606810 1_555
O20 P4 1.621800 1_555
O21 V0 1.709838 1_565
O21 V3 2.039705 1_555
O22 P5 1.527641 1_555
O22 V2 1.977575 1_555
O23 P4 1.539935 1_555
O23 V2 2.076796 1_555
O24 V3 1.729346 1_555
O24 V4 2.036488 1_555
O25 P5 1.543849 1_555
O25 V5 2.025639 1_545
O26 P5 1.553453 1_455
O26 V4 2.005136 1_555
O27 P4 1.533690 1_555
O27 V5 2.049733 1_545
O28 P6 1.621800 1_555
O29 P7 1.527641 1_555
O29 V3 1.977575 1_555
O30 P6 1.539935 1_555
O30 V3 2.076796 1_555
O31 P4 1.524411 1_555
O31 V4 2.014283 1_555
O32 P5 1.581137 1_555
O33 P7 1.543849 1_555
O33 V4 2.025639 1_555
O34 P7 1.553453 1_655
O34 V5 2.005136 1_555
O35 P6 1.533690 1_555
O35 V4 2.049733 1_555
O36 P6 1.524411 1_555
O36 V5 2.014283 1_555
O37 P7 1.581137 1_555
