# generated using pymatgen
data_Li4Co5O9F
_symmetry_space_group_name_H-M   'P 1'
_cell_length_a   2.87559200
_cell_length_b   5.13384131
_cell_length_c   13.05902233
_cell_angle_alpha   80.02330301
_cell_angle_beta   84.19088635
_cell_angle_gamma   74.06690336
_symmetry_Int_Tables_number   1
_chemical_formula_structural   Li4Co5O9F
_chemical_formula_sum   'Li4 Co5 O9 F1'
_cell_volume   182.28525036
_cell_formula_units_Z   1
loop_
 _symmetry_equiv_pos_site_id
 _symmetry_equiv_pos_as_xyz
  1  'x, y, z'
loop_
 _atom_site_type_symbol
 _atom_site_label
 _atom_site_symmetry_multiplicity
 _atom_site_fract_x
 _atom_site_fract_y
 _atom_site_fract_z
 _atom_site_occupancy
  Li  Li0  1  0.19615200  0.00308900  0.60845600  1
  Li  Li1  1  0.40506100  0.99626000  0.19245900  1
  Li  Li2  1  0.60152900  0.98020500  0.81921400  1
  Li  Li3  1  0.79326400  0.00901600  0.40020100  1
  Co  Co0  1  0.10092000  0.49943900  0.29987000  1
  Co  Co1  1  0.30906500  0.47859400  0.89648100  1
  Co  Co2  1  0.50371300  0.50885600  0.49875900  1
  Co  Co3  1  0.68278600  0.53229000  0.10011700  1
  Co  Co4  1  0.90583600  0.51063500  0.69767100  1
  O  O0  1  0.13984000  0.28633800  0.43834800  1
  O  O1  1  0.05408900  0.72133700  0.17070900  1
  O  O2  1  0.24220300  0.74033100  0.74418600  1
  O  O3  1  0.47434300  0.71276700  0.34639500  1
  O  O4  1  0.55550000  0.28400300  0.64072800  1
  O  O5  1  0.72635100  0.28382900  0.25764800  1
  O  O6  1  0.93205300  0.27887400  0.84147300  1
  O  O7  1  0.68917200  0.67479600  0.94754300  1
  O  O8  1  0.85618300  0.74511300  0.54294700  1
  F  F0  1  0.34518500  0.24678000  0.06173800  1
loop_
_geom_bond_atom_site_label_1
_geom_bond_atom_site_label_2
_geom_bond_distance
_geom_bond_site_symmetry_2
Li0 O2 2.024831 1_545
Li0 O4 2.060608 1_455
Li0 O4 2.107650 1_555
Li0 O8 2.171261 1_445
Li0 O8 2.184500 1_545
Li0 O0 2.428960 1_555
Li1 O1 2.017513 1_555
Li1 O1 2.035028 1_655
Li1 O5 2.258634 1_565
Li1 O3 2.259900 1_555
Li1 O5 2.287047 1_465
Li2 O7 2.070861 1_555
Li2 O6 2.085524 1_565
Li2 O6 2.135937 1_465
Li2 O2 2.162802 1_655
Li2 O2 2.205858 1_555
Li2 O4 2.563669 1_565
Li3 O0 2.096011 1_555
Li3 O0 2.096108 1_655
Li3 O8 2.098061 1_545
Li3 O5 2.122851 1_555
Li3 O3 2.216846 1_545
Li3 O3 2.258078 1_645
Co0 O1 1.859265 1_555
Co0 O5 1.917212 1_455
Co0 O5 1.918740 1_555
Co0 O3 1.931312 1_555
Co0 O3 1.934053 1_455
Co0 O0 1.941112 1_555
Co1 O7 1.907538 1_555
Co1 O7 1.908685 1_455
Co1 O6 1.939815 1_555
Co1 O6 1.940575 1_455
Co1 O2 2.192611 1_555
Co1 F0 2.274221 1_556
Co2 O8 1.966544 1_555
Co2 O4 2.002974 1_555
Co2 O8 2.014034 1_455
Co2 O0 2.036263 1_655
Co2 O0 2.039087 1_555
Co2 O3 2.079850 1_555
Co3 O7 2.000098 1_554
Co3 O1 2.002495 1_655
Co3 O1 2.017299 1_555
Co3 F0 2.115751 1_555
Co3 F0 2.134548 1_655
Co3 O5 2.220366 1_555
Co4 O2 1.920545 1_655
Co4 O4 2.004135 1_555
Co4 O6 2.037923 1_555
Co4 O2 2.044342 1_555
Co4 O4 2.054736 1_655
Co4 O8 2.161786 1_555
F0 Li1 1.942962 1_545
