# generated using pymatgen
data_Sc2ZnIr
_symmetry_space_group_name_H-M   'P 1'
_cell_length_a   4.61690038
_cell_length_b   4.61690038
_cell_length_c   4.61690038
_cell_angle_alpha   60.00000000
_cell_angle_beta   60.00000000
_cell_angle_gamma   60.00000000
_symmetry_Int_Tables_number   1
_chemical_formula_structural   Sc2ZnIr
_chemical_formula_sum   'Sc2 Zn1 Ir1'
_cell_volume   69.58834610
_cell_formula_units_Z   1
loop_
 _symmetry_equiv_pos_site_id
 _symmetry_equiv_pos_as_xyz
  1  'x, y, z'
loop_
 _atom_site_type_symbol
 _atom_site_label
 _atom_site_symmetry_multiplicity
 _atom_site_fract_x
 _atom_site_fract_y
 _atom_site_fract_z
 _atom_site_occupancy
  Sc  Sc0  1  0.00000000  -0.00000000  0.00000000  1
  Sc  Sc1  1  0.50000000  0.50000000  0.50000000  1
  Zn  Zn0  1  0.75000100  0.75000100  0.75000100  1
  Ir  Ir0  1  0.25000100  0.25000100  0.25000100  1
loop_
_geom_bond_atom_site_label_1
_geom_bond_atom_site_label_2
_geom_bond_distance
_geom_bond_site_symmetry_2
Sc0 Zn0 2.827251 1_444
Sc0 Zn0 2.827266 1_454
Sc0 Zn0 2.827266 1_445
Sc0 Zn0 2.827266 1_544
Sc1 Zn0 2.827259 1_455
Sc1 Zn0 2.827259 1_545
Sc1 Zn0 2.827259 1_554
Sc1 Zn0 2.827274 1_555
Ir0 Sc1 2.827251 1_555
Ir0 Sc0 2.827259 1_556
Ir0 Sc0 2.827259 1_565
Ir0 Sc0 2.827259 1_655
Ir0 Sc1 2.827266 1_455
Ir0 Sc1 2.827266 1_554
Ir0 Sc1 2.827266 1_545
Ir0 Sc0 2.827274 1_555
