# generated using pymatgen
data_PmZn2Cd
_symmetry_space_group_name_H-M   'P 1'
_cell_length_a   4.84845403
_cell_length_b   4.84845403
_cell_length_c   4.84845403
_cell_angle_alpha   60.00000000
_cell_angle_beta   60.00000000
_cell_angle_gamma   60.00000000
_symmetry_Int_Tables_number   1
_chemical_formula_structural   PmZn2Cd
_chemical_formula_sum   'Pm1 Zn2 Cd1'
_cell_volume   80.59254081
_cell_formula_units_Z   1
loop_
 _symmetry_equiv_pos_site_id
 _symmetry_equiv_pos_as_xyz
  1  'x, y, z'
loop_
 _atom_site_type_symbol
 _atom_site_label
 _atom_site_symmetry_multiplicity
 _atom_site_fract_x
 _atom_site_fract_y
 _atom_site_fract_z
 _atom_site_occupancy
  Pm  Pm0  1  0.75000000  0.75000000  0.75000000  1
  Zn  Zn0  1  0.50000000  0.50000000  0.50000000  1
  Zn  Zn1  1  -0.00000000  -0.00000000  0.00000000  1
  Cd  Cd0  1  0.24999900  0.24999900  0.24999900  1
loop_
_geom_bond_atom_site_label_1
_geom_bond_atom_site_label_2
_geom_bond_distance
_geom_bond_site_symmetry_2
Pm0 Zn0 2.969060 1_565
Pm0 Zn0 2.969060 1_655
Pm0 Zn1 2.969060 1_656
Pm0 Zn1 2.969060 1_566
Pm0 Zn1 2.969060 1_665
Pm0 Zn1 2.969060 1_666
Pm0 Zn0 2.969060 1_555
Pm0 Zn0 2.969060 1_556
Cd0 Zn1 2.969048 1_555
Cd0 Zn0 2.969056 1_554
Cd0 Zn0 2.969056 1_455
Cd0 Zn0 2.969056 1_545
Cd0 Zn1 2.969064 1_565
Cd0 Zn1 2.969064 1_655
Cd0 Zn1 2.969064 1_556
Cd0 Zn0 2.969071 1_555
Cd0 Pm0 3.428368 1_454
Cd0 Pm0 3.428368 1_544
Cd0 Pm0 3.428368 1_445
Cd0 Pm0 3.428382 1_545
Cd0 Pm0 3.428382 1_455
Cd0 Pm0 3.428382 1_554
