# generated using pymatgen
data_Li4FeO3F
_symmetry_space_group_name_H-M   'P 1'
_cell_length_a   5.28221800
_cell_length_b   5.35723801
_cell_length_c   7.82918234
_cell_angle_alpha   109.59256290
_cell_angle_beta   83.30448356
_cell_angle_gamma   113.25263317
_symmetry_Int_Tables_number   1
_chemical_formula_structural   Li4FeO3F
_chemical_formula_sum   'Li8 Fe2 O6 F2'
_cell_volume   191.73752125
_cell_formula_units_Z   2
loop_
 _symmetry_equiv_pos_site_id
 _symmetry_equiv_pos_as_xyz
  1  'x, y, z'
loop_
 _atom_site_type_symbol
 _atom_site_label
 _atom_site_symmetry_multiplicity
 _atom_site_fract_x
 _atom_site_fract_y
 _atom_site_fract_z
 _atom_site_occupancy
  Li  Li0  1  0.76061800  0.12788700  0.92156900  1
  Li  Li1  1  0.25666200  0.57692800  0.91690300  1
  Li  Li2  1  0.21640500  0.46111000  0.71487800  1
  Li  Li3  1  0.74669900  0.75391400  0.50425000  1
  Li  Li4  1  0.23770900  0.26272700  0.50035200  1
  Li  Li5  1  0.78488400  0.53416000  0.27915300  1
  Li  Li6  1  0.74373800  0.43499000  0.08174600  1
  Li  Li7  1  0.26033100  0.87769400  0.05186200  1
  Fe  Fe0  1  0.78084500  0.85690300  0.73799300  1
  Fe  Fe1  1  0.23501500  0.11717800  0.28899700  1
  O  O0  1  0.97096900  0.94694200  0.87880600  1
  O  O1  1  0.50683500  0.40767800  0.89661100  1
  O  O2  1  0.00206000  0.72731600  0.69761700  1
  O  O3  1  0.34281700  0.67683500  0.49192500  1
  O  O4  1  0.99806300  0.27167200  0.30657200  1
  O  O5  1  0.48876100  0.57718800  0.11031000  1
  F  F0  1  0.65746800  0.33190300  0.49908800  1
  F  F1  1  0.01012100  0.05697800  0.12136600  1
loop_
_geom_bond_atom_site_label_1
_geom_bond_atom_site_label_2
_geom_bond_distance
_geom_bond_site_symmetry_2
Li0 O0 1.682967 1_545
Li0 Li6 1.730149 1_556
Li0 O1 2.434332 1_555
Li1 Li2 1.499340 1_555
Li1 Li7 1.597293 1_556
Li1 O1 1.842320 1_555
Li1 O5 2.055738 1_556
Li2 Li4 1.678193 1_555
Li2 O2 2.184918 1_555
Li2 O3 2.302221 1_555
Li2 O1 2.364050 1_555
Li3 Li5 1.801557 1_555
Li3 O3 2.014175 1_555
Li3 O2 2.214562 1_655
Li4 O3 2.085986 1_555
Li4 O4 2.109716 1_455
Li5 Li6 1.467872 1_555
Li5 O4 2.191028 1_555
Li5 O5 2.284392 1_555
Li6 O5 1.752125 1_555
Li6 O1 1.955612 1_554
Li7 O5 2.532511 1_555
Fe0 O0 1.405591 1_555
Fe0 O2 1.534432 1_655
Fe0 Li0 1.694682 1_565
Fe0 Li3 1.734112 1_555
Fe1 Li4 1.574088 1_555
Fe1 O4 1.723932 1_455
Fe1 Li7 1.894960 1_545
O0 O2 1.550007 1_655
O1 O5 1.626420 1_556
F0 Li4 2.098148 1_555
F0 Li3 2.106386 1_555
F0 Li5 2.235454 1_555
F1 O4 1.532085 1_455
F1 Fe1 1.736326 1_555
F1 O0 1.800330 1_444
F1 Li7 1.857275 1_545
F1 Li0 2.366994 1_454
