# generated using pymatgen
data_LiMn2PO6
_symmetry_space_group_name_H-M   'P 1'
_cell_length_a   5.10250903
_cell_length_b   7.62372177
_cell_length_c   11.60405971
_cell_angle_alpha   90.00000000
_cell_angle_beta   90.00000000
_cell_angle_gamma   90.00000000
_symmetry_Int_Tables_number   1
_chemical_formula_structural   LiMn2PO6
_chemical_formula_sum   'Li4 Mn8 P4 O24'
_cell_volume   451.39918958
_cell_formula_units_Z   4
loop_
 _symmetry_equiv_pos_site_id
 _symmetry_equiv_pos_as_xyz
  1  'x, y, z'
loop_
 _atom_site_type_symbol
 _atom_site_label
 _atom_site_symmetry_multiplicity
 _atom_site_fract_x
 _atom_site_fract_y
 _atom_site_fract_z
 _atom_site_occupancy
  Li  Li0  1  0.25000000  0.01352016  0.05822970  1
  Li  Li1  1  0.75000000  0.51352016  0.44177030  1
  Li  Li2  1  0.25000000  0.48647984  0.55822970  1
  Li  Li3  1  0.75000000  0.98647984  0.94177030  1
  Mn  Mn0  1  0.75000000  0.29099821  0.07531976  1
  Mn  Mn1  1  0.75000000  0.68699532  0.08826151  1
  Mn  Mn2  1  0.25000000  0.18699532  0.41173849  1
  Mn  Mn3  1  0.25000000  0.79099821  0.42468024  1
  Mn  Mn4  1  0.75000000  0.20900179  0.57531976  1
  Mn  Mn5  1  0.75000000  0.81300468  0.58826151  1
  Mn  Mn6  1  0.25000000  0.31300468  0.91173849  1
  Mn  Mn7  1  0.25000000  0.70900179  0.92468024  1
  P  P0  1  0.25000000  0.46985984  0.20524917  1
  P  P1  1  0.75000000  0.96985984  0.29475083  1
  P  P2  1  0.25000000  0.03014016  0.70524917  1
  P  P3  1  0.75000000  0.53014016  0.79475083  1
  O  O0  1  0.49979564  0.81869649  0.01395347  1
  O  O1  1  0.00020436  0.81869649  0.01395347  1
  O  O2  1  0.00223137  0.48652253  0.12461775  1
  O  O3  1  0.49776863  0.48652253  0.12461775  1
  O  O4  1  0.75000000  0.11470097  0.20793012  1
  O  O5  1  0.25000000  0.28516445  0.25131134  1
  O  O6  1  0.75000000  0.78516445  0.24868866  1
  O  O7  1  0.25000000  0.61470097  0.29206988  1
  O  O8  1  0.50223137  0.98652253  0.37538225  1
  O  O9  1  -0.00223137  0.98652253  0.37538225  1
  O  O10  1  0.99979564  0.31869649  0.48604653  1
  O  O11  1  0.50020436  0.31869649  0.48604653  1
  O  O12  1  0.49979564  0.68130351  0.51395347  1
  O  O13  1  0.00020436  0.68130351  0.51395347  1
  O  O14  1  0.00223137  0.01347747  0.62461775  1
  O  O15  1  0.49776863  0.01347747  0.62461775  1
  O  O16  1  0.75000000  0.38529903  0.70793012  1
  O  O17  1  0.25000000  0.21483555  0.75131134  1
  O  O18  1  0.75000000  0.71483555  0.74868866  1
  O  O19  1  0.25000000  0.88529903  0.79206988  1
  O  O20  1  0.50223137  0.51347747  0.87538225  1
  O  O21  1  -0.00223137  0.51347747  0.87538225  1
  O  O22  1  0.99979564  0.18130351  0.98604653  1
  O  O23  1  0.50020436  0.18130351  0.98604653  1
loop_
_geom_bond_atom_site_label_1
_geom_bond_atom_site_label_2
_geom_bond_distance
_geom_bond_site_symmetry_2
Li0 O23 1.991902 1_554
Li0 O22 1.991902 1_454
Li0 O0 2.023512 1_545
Li0 O1 2.023512 1_545
Li1 O13 1.991902 1_655
Li1 O12 1.991902 1_555
Li1 O10 2.023512 1_555
Li1 O11 2.023512 1_555
Li2 O10 1.991902 1_455
Li2 O11 1.991902 1_555
Li2 O13 2.023512 1_555
Li2 O12 2.023512 1_555
Li3 O1 1.991902 1_656
Li3 O0 1.991902 1_556
Li3 O23 2.023512 1_565
Li3 O22 2.023512 1_565
Mn0 O22 1.843119 1_554
Mn0 O23 1.843119 1_554
Mn0 O4 2.043137 1_555
Mn0 O3 2.050758 1_555
Mn0 O2 2.050758 1_655
Mn1 O1 1.838893 1_655
Mn1 O0 1.838893 1_555
Mn1 O6 2.006415 1_555
Mn1 O3 2.042115 1_555
Mn1 O2 2.042115 1_655
Mn2 O11 1.838893 1_555
Mn2 O10 1.838893 1_455
Mn2 O5 2.006415 1_555
Mn2 O9 2.042115 1_545
Mn2 O8 2.042115 1_545
Mn3 O13 1.843119 1_555
Mn3 O12 1.843119 1_555
Mn3 O7 2.043137 1_555
Mn3 O9 2.050758 1_555
Mn3 O8 2.050758 1_555
Mn4 O10 1.843119 1_555
Mn4 O11 1.843119 1_555
Mn4 O16 2.043137 1_555
Mn4 O15 2.050758 1_555
Mn4 O14 2.050758 1_655
Mn5 O13 1.838893 1_655
Mn5 O12 1.838893 1_555
Mn5 O18 2.006415 1_555
Mn5 O15 2.042115 1_565
Mn5 O14 2.042115 1_665
Mn6 O22 1.838893 1_455
Mn6 O23 1.838893 1_555
Mn6 O17 2.006415 1_555
Mn6 O21 2.042115 1_555
Mn6 O20 2.042115 1_555
Mn7 O0 1.843119 1_556
Mn7 O1 1.843119 1_556
Mn7 O19 2.043137 1_555
Mn7 O21 2.050758 1_555
Mn7 O20 2.050758 1_555
O2 P0 1.577938 1_555
O3 P0 1.577938 1_555
O4 P1 1.494765 1_545
O5 P0 1.506104 1_555
O6 P1 1.506104 1_555
O7 P0 1.494765 1_555
O8 P1 1.577938 1_555
O9 P1 1.577938 1_455
O14 P2 1.577938 1_555
O15 P2 1.577938 1_555
O16 P3 1.494765 1_555
O17 P2 1.506104 1_555
O18 P3 1.506104 1_555
O19 P2 1.494765 1_565
O20 P3 1.577938 1_555
O21 P3 1.577938 1_455
