# generated using pymatgen
data_Li2Mn2(SiO3)3
_symmetry_space_group_name_H-M   'P 1'
_cell_length_a   7.32028400
_cell_length_b   10.26990900
_cell_length_c   12.76451000
_cell_angle_alpha   90.00000000
_cell_angle_beta   90.00000000
_cell_angle_gamma   90.00000000
_symmetry_Int_Tables_number   1
_chemical_formula_structural   Li2Mn2(SiO3)3
_chemical_formula_sum   'Li8 Mn8 Si12 O36'
_cell_volume   959.61863653
_cell_formula_units_Z   4
loop_
 _symmetry_equiv_pos_site_id
 _symmetry_equiv_pos_as_xyz
  1  'x, y, z'
loop_
 _atom_site_type_symbol
 _atom_site_label
 _atom_site_symmetry_multiplicity
 _atom_site_fract_x
 _atom_site_fract_y
 _atom_site_fract_z
 _atom_site_occupancy
  Li  Li0  1  0.55381000  0.51024600  0.15801900  1
  Li  Li1  1  0.55381000  0.98975400  0.15801900  1
  Li  Li2  1  0.05381000  0.01024600  0.34198100  1
  Li  Li3  1  0.05381000  0.48975400  0.34198100  1
  Li  Li4  1  0.94619000  0.51024600  0.65801900  1
  Li  Li5  1  0.94619000  0.98975400  0.65801900  1
  Li  Li6  1  0.44619000  0.01024600  0.84198100  1
  Li  Li7  1  0.44619000  0.48975400  0.84198100  1
  Mn  Mn0  1  0.11901500  0.56529800  0.08995000  1
  Mn  Mn1  1  0.11901500  0.93470200  0.08995000  1
  Mn  Mn2  1  0.61901500  0.06529800  0.41005000  1
  Mn  Mn3  1  0.61901500  0.43470200  0.41005000  1
  Mn  Mn4  1  0.38098500  0.56529800  0.58995000  1
  Mn  Mn5  1  0.38098500  0.93470200  0.58995000  1
  Mn  Mn6  1  0.88098500  0.06529800  0.91005000  1
  Mn  Mn7  1  0.88098500  0.43470200  0.91005000  1
  Si  Si0  1  0.46713400  0.75000000  0.02888400  1
  Si  Si1  1  0.14574000  0.25000000  0.05803500  1
  Si  Si2  1  0.46538500  0.25000000  0.20904800  1
  Si  Si3  1  0.96538500  0.75000000  0.29095200  1
  Si  Si4  1  0.64574000  0.75000000  0.44196500  1
  Si  Si5  1  0.96713400  0.25000000  0.47111600  1
  Si  Si6  1  0.03286600  0.75000000  0.52888400  1
  Si  Si7  1  0.35426000  0.25000000  0.55803500  1
  Si  Si8  1  0.03461500  0.25000000  0.70904800  1
  Si  Si9  1  0.53461500  0.75000000  0.79095200  1
  Si  Si10  1  0.85426000  0.75000000  0.94196500  1
  Si  Si11  1  0.53286600  0.25000000  0.97111600  1
  O  O0  1  0.69386200  0.75000000  0.03475500  1
  O  O1  1  0.02462900  0.11895500  0.04536100  1
  O  O2  1  0.02462900  0.38104500  0.04536100  1
  O  O3  1  0.39117600  0.61661300  0.08239200  1
  O  O4  1  0.39117600  0.88338700  0.08239200  1
  O  O5  1  0.58373400  0.25000000  0.09772100  1
  O  O6  1  0.01094700  0.88624600  0.23221500  1
  O  O7  1  0.01094700  0.61375400  0.23221500  1
  O  O8  1  0.24601700  0.25000000  0.17412200  1
  O  O9  1  0.74601700  0.75000000  0.32587800  1
  O  O10  1  0.51094700  0.11375400  0.26778500  1
  O  O11  1  0.51094700  0.38624600  0.26778500  1
  O  O12  1  0.08373400  0.75000000  0.40227900  1
  O  O13  1  0.89117600  0.11661300  0.41760800  1
  O  O14  1  0.89117600  0.38338700  0.41760800  1
  O  O15  1  0.52462900  0.61895500  0.45463900  1
  O  O16  1  0.52462900  0.88104500  0.45463900  1
  O  O17  1  0.19386200  0.25000000  0.46524500  1
  O  O18  1  0.80613800  0.75000000  0.53475500  1
  O  O19  1  0.47537100  0.11895500  0.54536100  1
  O  O20  1  0.47537100  0.38104500  0.54536100  1
  O  O21  1  0.10882400  0.61661300  0.58239200  1
  O  O22  1  0.10882400  0.88338700  0.58239200  1
  O  O23  1  0.91626600  0.25000000  0.59772100  1
  O  O24  1  0.48905300  0.61375400  0.73221500  1
  O  O25  1  0.48905300  0.88624600  0.73221500  1
  O  O26  1  0.25398300  0.25000000  0.67412200  1
  O  O27  1  0.75398300  0.75000000  0.82587800  1
  O  O28  1  0.98905300  0.11375400  0.76778500  1
  O  O29  1  0.98905300  0.38624600  0.76778500  1
  O  O30  1  0.41626600  0.75000000  0.90227900  1
  O  O31  1  0.60882400  0.11661300  0.91760800  1
  O  O32  1  0.60882400  0.38338700  0.91760800  1
  O  O33  1  0.97537100  0.61895500  0.95463900  1
  O  O34  1  0.97537100  0.88104500  0.95463900  1
  O  O35  1  0.30613800  0.25000000  0.96524500  1
loop_
_geom_bond_atom_site_label_1
_geom_bond_atom_site_label_2
_geom_bond_distance
_geom_bond_site_symmetry_2
Li0 O3 1.882161 1_555
Li0 O11 1.919188 1_555
Li1 O4 1.882161 1_555
Li1 O10 1.919188 1_565
Li2 O13 1.882161 1_455
Li2 O6 1.919188 1_545
Li3 O14 1.882161 1_455
Li3 O7 1.919188 1_555
Li4 O21 1.882161 1_655
Li4 O29 1.919188 1_555
Li5 O22 1.882161 1_655
Li5 O28 1.919188 1_565
Li6 O31 1.882161 1_555
Li6 O25 1.919188 1_545
Li7 O32 1.882161 1_555
Li7 O24 1.919188 1_555
Mn0 O7 2.042331 1_555
Mn0 O3 2.063075 1_555
Mn0 O2 2.093318 1_555
Mn0 O33 2.095826 1_454
Mn1 O6 2.042331 1_555
Mn1 O4 2.063075 1_555
Mn1 O1 2.093318 1_565
Mn1 O34 2.095826 1_454
Mn2 O10 2.042331 1_555
Mn2 O13 2.063075 1_555
Mn2 O16 2.093318 1_545
Mn2 O19 2.095826 1_555
Mn3 O11 2.042331 1_555
Mn3 O14 2.063075 1_555
Mn3 O15 2.093318 1_555
Mn3 O20 2.095826 1_555
Mn4 O24 2.042331 1_555
Mn4 O21 2.063075 1_555
Mn4 O20 2.093318 1_555
Mn4 O15 2.095826 1_555
Mn5 O25 2.042331 1_555
Mn5 O22 2.063075 1_555
Mn5 O19 2.093318 1_565
Mn5 O16 2.095826 1_555
Mn6 O28 2.042331 1_555
Mn6 O31 2.063075 1_555
Mn6 O34 2.093318 1_545
Mn6 O1 2.095826 1_656
Mn7 O29 2.042331 1_555
Mn7 O32 2.063075 1_555
Mn7 O33 2.093318 1_555
Mn7 O2 2.095826 1_656
O0 Si0 1.661404 1_555
O0 Si10 1.667782 1_554
O1 Si1 1.619693 1_555
O2 Si1 1.619693 1_555
O3 Si0 1.628563 1_555
O4 Si0 1.628563 1_555
O5 Si11 1.658396 1_554
O5 Si2 1.664301 1_555
O6 Si3 1.622103 1_455
O7 Si3 1.622103 1_455
O8 Si1 1.653648 1_555
O8 Si2 1.666571 1_555
O9 Si4 1.653648 1_555
O9 Si3 1.666571 1_555
O10 Si2 1.622103 1_555
O11 Si2 1.622103 1_555
O12 Si6 1.658396 1_555
O12 Si3 1.664301 1_455
O13 Si5 1.628563 1_555
O14 Si5 1.628563 1_555
O15 Si4 1.619693 1_555
O16 Si4 1.619693 1_555
O17 Si5 1.661404 1_455
O17 Si7 1.667782 1_555
O18 Si6 1.661404 1_655
O18 Si4 1.667782 1_555
O19 Si7 1.619693 1_555
O20 Si7 1.619693 1_555
O21 Si6 1.628563 1_555
O22 Si6 1.628563 1_555
O23 Si5 1.658396 1_555
O23 Si8 1.664301 1_655
O24 Si9 1.622103 1_555
O25 Si9 1.622103 1_555
O26 Si7 1.653648 1_555
O26 Si8 1.666571 1_555
O27 Si10 1.653648 1_555
O27 Si9 1.666571 1_555
O28 Si8 1.622103 1_655
O29 Si8 1.622103 1_655
O30 Si0 1.658396 1_556
O30 Si9 1.664301 1_555
O31 Si11 1.628563 1_555
O32 Si11 1.628563 1_555
O33 Si10 1.619693 1_555
O34 Si10 1.619693 1_555
O35 Si11 1.661404 1_555
O35 Si1 1.667782 1_556
