# generated using pymatgen
data_ReH8(I3N)2
_symmetry_space_group_name_H-M   'P 1'
_cell_length_a   7.90872800
_cell_length_b   7.90872800
_cell_length_c   12.17277900
_cell_angle_alpha   90.00000000
_cell_angle_beta   90.00000000
_cell_angle_gamma   90.00000000
_symmetry_Int_Tables_number   1
_chemical_formula_structural   ReH8(I3N)2
_chemical_formula_sum   'Re2 H16 I12 N4'
_cell_volume   761.38272013
_cell_formula_units_Z   2
loop_
 _symmetry_equiv_pos_site_id
 _symmetry_equiv_pos_as_xyz
  1  'x, y, z'
loop_
 _atom_site_type_symbol
 _atom_site_label
 _atom_site_symmetry_multiplicity
 _atom_site_fract_x
 _atom_site_fract_y
 _atom_site_fract_z
 _atom_site_occupancy
  Re  Re0  1  0.00000000  0.00000000  0.50000000  1
  Re  Re1  1  0.50000000  0.50000000  0.00000000  1
  H  H0  1  0.00135000  0.60669400  0.29924200  1
  H  H1  1  0.00135000  0.60669400  0.70075800  1
  H  H2  1  0.10669400  0.50135000  0.20075800  1
  H  H3  1  0.10669400  0.50135000  0.79924200  1
  H  H4  1  0.39330600  0.00135000  0.29924200  1
  H  H5  1  0.39330600  0.00135000  0.70075800  1
  H  H6  1  0.49865000  0.10669400  0.20075800  1
  H  H7  1  0.49865000  0.10669400  0.79924200  1
  H  H8  1  0.50135000  0.89330600  0.20075800  1
  H  H9  1  0.50135000  0.89330600  0.79924200  1
  H  H10  1  0.60669400  0.99865000  0.29924200  1
  H  H11  1  0.60669400  0.99865000  0.70075800  1
  H  H12  1  0.89330600  0.49865000  0.20075800  1
  H  H13  1  0.89330600  0.49865000  0.79924200  1
  H  H14  1  0.99865000  0.39330600  0.29924200  1
  H  H15  1  0.99865000  0.39330600  0.70075800  1
  I  I0  1  0.00000000  0.00000000  0.27298900  1
  I  I1  1  0.00000000  0.00000000  0.72701100  1
  I  I2  1  0.19642100  0.71352700  0.50000000  1
  I  I3  1  0.21352700  0.69642100  0.00000000  1
  I  I4  1  0.28647300  0.19642100  0.50000000  1
  I  I5  1  0.30357900  0.21352700  0.00000000  1
  I  I6  1  0.50000000  0.50000000  0.22701100  1
  I  I7  1  0.50000000  0.50000000  0.77298900  1
  I  I8  1  0.69642100  0.78647300  0.00000000  1
  I  I9  1  0.71352700  0.80357900  0.50000000  1
  I  I10  1  0.78647300  0.30357900  0.00000000  1
  I  I11  1  0.80357900  0.28647300  0.50000000  1
  N  N0  1  0.00000000  0.50000000  0.25000000  1
  N  N1  1  0.00000000  0.50000000  0.75000000  1
  N  N2  1  0.50000000  0.00000000  0.25000000  1
  N  N3  1  0.50000000  0.00000000  0.75000000  1
loop_
_geom_bond_atom_site_label_1
_geom_bond_atom_site_label_2
_geom_bond_distance
_geom_bond_site_symmetry_2
H0 N0 1.035099 1_555
H1 N1 1.035099 1_555
H2 N0 1.035099 1_555
H3 N1 1.035099 1_555
H4 N2 1.035099 1_555
H5 N3 1.035099 1_555
H6 N2 1.035099 1_555
H7 N3 1.035099 1_555
H8 N2 1.035099 1_565
H9 N3 1.035099 1_565
H10 N2 1.035099 1_565
H11 N3 1.035099 1_565
H12 N0 1.035099 1_655
H13 N1 1.035099 1_655
H14 N0 1.035099 1_655
H15 N1 1.035099 1_655
I0 Re0 2.763355 1_555
I1 Re0 2.763355 1_555
I2 Re0 2.747051 1_565
I3 Re1 2.747051 1_555
I4 Re0 2.747051 1_555
I5 Re1 2.747051 1_555
I6 Re1 2.763355 1_555
I7 Re1 2.763355 1_556
I8 Re1 2.747051 1_555
I9 Re0 2.747051 1_665
I10 Re1 2.747051 1_555
I11 Re0 2.747051 1_655
