# generated using pymatgen
data_TlAg3Te2
_symmetry_space_group_name_H-M   'P 1'
_cell_length_a   8.54351129
_cell_length_b   8.54351129
_cell_length_c   4.37941400
_cell_angle_alpha   90.00000000
_cell_angle_beta   90.00000000
_cell_angle_gamma   152.17091353
_symmetry_Int_Tables_number   1
_chemical_formula_structural   TlAg3Te2
_chemical_formula_sum   'Tl1 Ag3 Te2'
_cell_volume   149.22885399
_cell_formula_units_Z   1
loop_
 _symmetry_equiv_pos_site_id
 _symmetry_equiv_pos_as_xyz
  1  'x, y, z'
loop_
 _atom_site_type_symbol
 _atom_site_label
 _atom_site_symmetry_multiplicity
 _atom_site_fract_x
 _atom_site_fract_y
 _atom_site_fract_z
 _atom_site_occupancy
  Tl  Tl0  1  0.00000000  0.00000000  0.00000000  1
  Ag  Ag0  1  0.31750600  0.68249400  0.00000000  1
  Ag  Ag1  1  0.68249400  0.31750600  0.00000000  1
  Ag  Ag2  1  0.50000000  0.50000000  0.50000000  1
  Te  Te0  1  0.15165500  0.84834500  0.50000000  1
  Te  Te1  1  0.84834500  0.15165500  0.50000000  1
loop_
_geom_bond_atom_site_label_1
_geom_bond_atom_site_label_2
_geom_bond_distance
_geom_bond_site_symmetry_2
Ag0 Te1 3.045880 1_564
Ag0 Te1 3.045880 1_565
Ag0 Te1 3.045880 1_454
Ag0 Te1 3.045880 1_455
Ag1 Te0 3.045880 1_655
Ag1 Te0 3.045880 1_545
Ag1 Te0 3.045880 1_544
Ag1 Te0 3.045880 1_654
Ag2 Tl0 3.002627 1_666
Ag2 Tl0 3.002627 1_555
Ag2 Tl0 3.002627 1_556
Ag2 Tl0 3.002627 1_665
Ag2 Te0 3.247713 1_655
Ag2 Te1 3.247713 1_565
Ag2 Te1 3.247713 1_455
Ag2 Te0 3.247713 1_545
Te0 Tl0 3.334892 1_565
Te0 Tl0 3.334892 1_566
Te1 Tl0 3.334892 1_656
Te1 Tl0 3.334892 1_655
