# generated using pymatgen
data_Fe10OF19
_symmetry_space_group_name_H-M   'P 1'
_cell_length_a   4.79519811
_cell_length_b   4.79519811
_cell_length_c   16.56307700
_cell_angle_alpha   90.00000000
_cell_angle_beta   90.00000000
_cell_angle_gamma   90.61670638
_symmetry_Int_Tables_number   1
_chemical_formula_structural   Fe10OF19
_chemical_formula_sum   'Fe10 O1 F19'
_cell_volume   380.82808818
_cell_formula_units_Z   1
loop_
 _symmetry_equiv_pos_site_id
 _symmetry_equiv_pos_as_xyz
  1  'x, y, z'
loop_
 _atom_site_type_symbol
 _atom_site_label
 _atom_site_symmetry_multiplicity
 _atom_site_fract_x
 _atom_site_fract_y
 _atom_site_fract_z
 _atom_site_occupancy
  Fe  Fe0  1  0.00936900  0.00936900  0.59528900  1
  Fe  Fe1  1  0.00936900  0.00936900  0.40471100  1
  Fe  Fe2  1  0.99950300  0.99950300  0.20085900  1
  Fe  Fe3  1  0.00008600  0.00008600  0.00000000  1
  Fe  Fe4  1  0.99950300  0.99950300  0.79914100  1
  Fe  Fe5  1  0.47524600  0.47524600  0.50000000  1
  Fe  Fe6  1  0.49985400  0.49985400  0.09987400  1
  Fe  Fe7  1  0.50238100  0.50238100  0.30013500  1
  Fe  Fe8  1  0.49985400  0.49985400  0.90012600  1
  Fe  Fe9  1  0.50238100  0.50238100  0.69986500  1
  O  O0  1  0.20471700  0.20471700  0.50000000  1
  F  F0  1  0.20100100  0.20100100  0.30002900  1
  F  F1  1  0.19885900  0.19885900  0.10013900  1
  F  F2  1  0.19885900  0.19885900  0.89986100  1
  F  F3  1  0.20100100  0.20100100  0.69997100  1
  F  F4  1  0.69468800  0.30836900  0.59633100  1
  F  F5  1  0.69468800  0.30836900  0.40366900  1
  F  F6  1  0.69977600  0.30046000  0.20010800  1
  F  F7  1  0.70003200  0.29990800  0.00000000  1
  F  F8  1  0.69977600  0.30046000  0.79989200  1
  F  F9  1  0.30836900  0.69468800  0.59633100  1
  F  F10  1  0.30836900  0.69468800  0.40366900  1
  F  F11  1  0.30046000  0.69977600  0.20010800  1
  F  F12  1  0.29990800  0.70003200  0.00000000  1
  F  F13  1  0.30046000  0.69977600  0.79989200  1
  F  F14  1  0.78205500  0.78205500  0.50000000  1
  F  F15  1  0.80090400  0.80090400  0.10017300  1
  F  F16  1  0.80381600  0.80381600  0.30260000  1
  F  F17  1  0.80381600  0.80381600  0.69740000  1
  F  F18  1  0.80090400  0.80090400  0.89982700  1
loop_
_geom_bond_atom_site_label_1
_geom_bond_atom_site_label_2
_geom_bond_distance
_geom_bond_site_symmetry_2
Fe0 O0 2.055970 1_555
Fe1 O0 2.055970 1_555
Fe5 O0 1.824675 1_555
F0 Fe7 2.032761 1_555
F0 Fe2 2.131919 1_445
F0 Fe1 2.162610 1_555
F1 Fe6 2.030168 1_555
F1 Fe3 2.132708 1_555
F1 Fe2 2.142666 1_445
F2 Fe8 2.030168 1_555
F2 Fe3 2.132708 1_556
F2 Fe4 2.142666 1_445
F3 Fe9 2.032761 1_555
F3 Fe4 2.131919 1_445
F3 Fe0 2.162610 1_555
F4 Fe5 2.076407 1_555
F4 Fe0 2.092726 1_655
F4 Fe9 2.162179 1_555
F5 Fe5 2.076407 1_555
F5 Fe1 2.092726 1_655
F5 Fe7 2.162179 1_555
F6 Fe2 2.047723 1_545
F6 Fe7 2.144302 1_555
F6 Fe6 2.146898 1_555
F7 Fe3 2.044927 1_655
F7 Fe8 2.144041 1_554
F7 Fe6 2.144041 1_555
F8 Fe4 2.047723 1_545
F8 Fe9 2.144302 1_555
F8 Fe8 2.146898 1_555
F9 Fe5 2.076407 1_555
F9 Fe0 2.092726 1_565
F9 Fe9 2.162179 1_555
F10 Fe5 2.076407 1_555
F10 Fe1 2.092726 1_565
F10 Fe7 2.162179 1_555
F11 Fe2 2.047723 1_455
F11 Fe7 2.144302 1_555
F11 Fe6 2.146898 1_555
F12 Fe3 2.044927 1_565
F12 Fe8 2.144041 1_554
F12 Fe6 2.144041 1_555
F13 Fe4 2.047723 1_455
F13 Fe9 2.144302 1_555
F13 Fe8 2.146898 1_555
F14 Fe5 2.069378 1_555
F14 Fe0 2.200376 1_665
F14 Fe1 2.200376 1_665
F15 Fe6 2.030540 1_555
F15 Fe3 2.134881 1_665
F15 Fe2 2.139026 1_555
F16 Fe7 2.033541 1_555
F16 Fe2 2.140511 1_555
F16 Fe1 2.186908 1_665
F17 Fe9 2.033541 1_555
F17 Fe4 2.140511 1_555
F17 Fe0 2.186908 1_665
F18 Fe8 2.030540 1_555
F18 Fe3 2.134881 1_666
F18 Fe4 2.139026 1_555
