# generated using pymatgen
data_Li5Mn6(BO3)6
_symmetry_space_group_name_H-M   'P 1'
_cell_length_a   8.81138800
_cell_length_b   8.87269035
_cell_length_c   10.47346944
_cell_angle_alpha   98.84830475
_cell_angle_beta   98.50440655
_cell_angle_gamma   107.88670603
_symmetry_Int_Tables_number   1
_chemical_formula_structural   Li5Mn6(BO3)6
_chemical_formula_sum   'Li10 Mn12 B12 O36'
_cell_volume   753.21246109
_cell_formula_units_Z   2
loop_
 _symmetry_equiv_pos_site_id
 _symmetry_equiv_pos_as_xyz
  1  'x, y, z'
loop_
 _atom_site_type_symbol
 _atom_site_label
 _atom_site_symmetry_multiplicity
 _atom_site_fract_x
 _atom_site_fract_y
 _atom_site_fract_z
 _atom_site_occupancy
  Li  Li0  1  0.20745700  0.91372500  0.18924600  1
  Li  Li1  1  0.90630500  0.18788000  0.20587200  1
  Li  Li2  1  0.50580400  0.52274800  0.22731600  1
  Li  Li3  1  0.45543100  0.15257100  0.43875600  1
  Li  Li4  1  0.15252600  0.43720100  0.45258100  1
  Li  Li5  1  0.70385800  0.40586500  0.69003000  1
  Li  Li6  1  0.39946000  0.68357000  0.70492600  1
  Li  Li7  1  0.01361200  0.02882200  0.73380000  1
  Li  Li8  1  0.65989300  0.93866100  0.95330000  1
  Li  Li9  1  0.25889000  0.27885900  0.98123600  1
  Mn  Mn0  1  0.82010400  0.80552700  0.18963100  1
  Mn  Mn1  1  0.52363700  0.16745300  0.15192400  1
  Mn  Mn2  1  0.14649600  0.53765800  0.15574400  1
  Mn  Mn3  1  0.76933600  0.42527900  0.41045900  1
  Mn  Mn4  1  0.41809900  0.76744400  0.41430400  1
  Mn  Mn5  1  0.06887300  0.06017300  0.43649000  1
  Mn  Mn6  1  0.01543300  0.66540200  0.65994100  1
  Mn  Mn7  1  0.65502300  0.02241100  0.66001800  1
  Mn  Mn8  1  0.32311100  0.30773800  0.68500700  1
  Mn  Mn9  1  0.27176000  0.90884900  0.90540100  1
  Mn  Mn10  1  0.89931100  0.27756100  0.90915200  1
  Mn  Mn11  1  0.59101600  0.56426200  0.92627900  1
  B  B0  1  0.46404700  0.79169300  0.12400400  1
  B  B1  1  0.79741800  0.47166800  0.13342900  1
  B  B2  1  0.00286700  0.00608500  0.00507900  1
  B  B3  1  0.24626200  0.25372500  0.25094500  1
  B  B4  1  0.70719200  0.04491400  0.36281700  1
  B  B5  1  0.04124700  0.70251500  0.36694600  1
  B  B6  1  0.48983500  0.48715600  0.49900200  1
  B  B7  1  0.29020600  0.95205400  0.62279800  1
  B  B8  1  0.95767400  0.29289300  0.62480100  1
  B  B9  1  0.74416200  0.75278300  0.74917800  1
  B  B10  1  0.21911900  0.54099400  0.88177900  1
  B  B11  1  0.54221300  0.20654500  0.87754600  1
  O  O0  1  0.87362900  0.98437500  0.07305000  1
  O  O1  1  0.47903900  0.91559700  0.05811400  1
  O  O2  1  0.10533700  0.91817800  0.01902000  1
  O  O3  1  0.81496000  0.60478100  0.07373400  1
  O  O4  1  0.57428500  0.70746800  0.12710600  1
  O  O5  1  0.90944400  0.38884700  0.12416900  1
  O  O6  1  0.33652000  0.74738200  0.19171900  1
  O  O7  1  0.67334000  0.42325500  0.19973300  1
  O  O8  1  0.27517000  0.36925700  0.17201700  1
  O  O9  1  0.81260900  0.95671500  0.34381800  1
  O  O10  1  0.04337500  0.82559700  0.29557800  1
  O  O11  1  0.72229600  0.17540200  0.30276700  1
  O  O12  1  0.33972500  0.15200600  0.25932400  1
  O  O13  1  0.94010500  0.66859200  0.45184900  1
  O  O14  1  0.14754800  0.61349000  0.34618900  1
  O  O15  1  0.51841900  0.58948800  0.41239500  1
  O  O16  1  0.12275300  0.23827000  0.32194000  1
  O  O17  1  0.59361300  0.00476900  0.44094100  1
  O  O18  1  0.97413300  0.41392200  0.55368800  1
  O  O19  1  0.57826300  0.38155200  0.51113100  1
  O  O20  1  0.39575500  0.86358200  0.61148800  1
  O  O21  1  0.36877400  0.48476800  0.57231500  1
  O  O22  1  0.79481900  0.88224600  0.68971900  1
  O  O23  1  0.29872300  0.07465500  0.55227600  1
  O  O24  1  0.81537200  0.63413800  0.74390900  1
  O  O25  1  0.83858100  0.26318600  0.70018700  1
  O  O26  1  0.17824300  0.91994600  0.70420500  1
  O  O27  1  0.05887700  0.19916200  0.62185500  1
  O  O28  1  0.61636300  0.74155700  0.81854000  1
  O  O29  1  0.21996900  0.65830200  0.80948400  1
  O  O30  1  0.55607900  0.32992800  0.80762500  1
  O  O31  1  0.32455000  0.45399400  0.87418300  1
  O  O32  1  0.64949900  0.12045300  0.87171900  1
  O  O33  1  0.42327700  0.17077400  0.95253400  1
  O  O34  1  0.10701400  0.50190700  0.96440400  1
  O  O35  1  0.03098900  0.12253200  0.92659700  1
loop_
_geom_bond_atom_site_label_1
_geom_bond_atom_site_label_2
_geom_bond_distance
_geom_bond_site_symmetry_2
Li0 O2 1.886487 1_555
Li0 O10 1.997914 1_555
Li0 O12 2.030485 1_565
Li0 O6 2.122811 1_555
Li1 O16 1.984533 1_655
Li1 O0 2.016892 1_545
Li1 O11 2.020384 1_555
Li1 O5 2.087734 1_555
Li2 O15 1.913948 1_555
Li2 O7 1.972349 1_555
Li2 O8 2.007279 1_555
Li2 O4 2.064185 1_555
Li3 O19 1.951038 1_555
Li3 O23 1.987520 1_555
Li3 O12 1.999604 1_555
Li3 O17 2.045630 1_555
Li4 O16 1.980610 1_555
Li4 O18 1.998757 1_455
Li4 O21 2.004467 1_555
Li4 O14 2.062533 1_555
Li5 O24 1.909989 1_555
Li5 O30 1.963959 1_555
Li5 O19 1.974255 1_555
Li5 O25 1.987547 1_555
Li6 O28 1.966820 1_555
Li6 O21 1.988919 1_555
Li6 O20 2.003300 1_555
Li6 O29 2.029976 1_555
Li7 O22 1.906069 1_445
Li7 O26 2.008799 1_545
Li7 O35 2.026328 1_555
Li7 O27 2.032520 1_555
Li8 O32 1.957485 1_565
Li8 O28 1.966245 1_555
Li8 O0 1.989984 1_556
Li8 O1 2.042707 1_556
Li9 O35 1.997220 1_555
Li9 O33 2.000381 1_555
Li9 O8 2.001991 1_556
Li9 O31 2.045024 1_555
Mn0 O9 1.957342 1_555
Mn0 O3 1.979141 1_555
Mn0 O4 2.031006 1_555
Mn0 O10 2.052246 1_655
Mn0 O0 2.130280 1_555
Mn1 O12 2.088133 1_555
Mn1 O33 2.152353 1_554
Mn1 O11 2.153359 1_555
Mn1 O7 2.181287 1_555
Mn1 O1 2.187309 1_545
Mn2 O34 1.941157 1_554
Mn2 O14 2.002283 1_555
Mn2 O6 2.022859 1_555
Mn2 O5 2.045207 1_455
Mn2 O8 2.146836 1_555
Mn3 O19 2.084820 1_555
Mn3 O13 2.153235 1_555
Mn3 O18 2.207804 1_555
Mn3 O11 2.210739 1_555
Mn3 O7 2.238998 1_555
Mn4 O15 2.031682 1_555
Mn4 O17 2.143561 1_565
Mn4 O20 2.170924 1_555
Mn4 O14 2.292346 1_555
Mn4 O6 2.298078 1_555
Mn5 O16 2.110131 1_555
Mn5 O23 2.157479 1_555
Mn5 O27 2.162963 1_555
Mn5 O9 2.165151 1_445
Mn5 O10 2.286960 1_545
Mn6 O24 2.047211 1_455
Mn6 O13 2.189519 1_455
Mn6 O26 2.205602 1_555
Mn6 O18 2.228700 1_455
Mn6 O29 2.229430 1_555
Mn7 O22 2.026678 1_545
Mn7 O25 2.180966 1_555
Mn7 O20 2.218535 1_545
Mn7 O17 2.247726 1_555
Mn7 O32 2.267118 1_555
Mn8 O21 2.084398 1_555
Mn8 O27 2.181075 1_555
Mn8 O30 2.190005 1_555
Mn8 O31 2.191185 1_555
Mn8 O23 2.238269 1_555
Mn9 O2 2.033145 1_556
Mn9 O29 2.171061 1_555
Mn9 O26 2.174665 1_555
Mn9 O1 2.221919 1_556
Mn9 O33 2.230076 1_565
Mn10 O35 2.065586 1_655
Mn10 O25 2.149033 1_555
Mn10 O32 2.152649 1_555
Mn10 O34 2.177434 1_655
Mn10 O5 2.292736 1_556
Mn11 O28 2.050016 1_555
Mn11 O30 2.158906 1_555
Mn11 O31 2.193971 1_555
Mn11 O3 2.213626 1_556
Mn11 O4 2.333434 1_556
B0 O1 1.368733 1_555
B0 O4 1.395373 1_555
B0 O6 1.403689 1_555
B1 O7 1.374736 1_555
B1 O3 1.397613 1_555
B1 O5 1.405611 1_555
B2 O2 1.368775 1_545
B2 O35 1.403137 1_554
B2 O0 1.409929 1_445
B3 O16 1.391077 1_555
B3 O12 1.400006 1_555
B3 O8 1.400570 1_555
B4 O11 1.381245 1_555
B4 O17 1.382331 1_555
B4 O9 1.402881 1_545
B5 O13 1.351858 1_455
B5 O10 1.412220 1_555
B5 O14 1.417884 1_555
B6 O15 1.375165 1_555
B6 O19 1.398932 1_555
B6 O21 1.400460 1_555
B7 O26 1.390056 1_555
B7 O20 1.395575 1_555
B7 O23 1.395676 1_565
B8 O18 1.382481 1_555
B8 O25 1.390407 1_555
B8 O27 1.394123 1_655
B9 O22 1.376171 1_555
B9 O24 1.379507 1_555
B9 O28 1.414587 1_555
B10 O29 1.376974 1_555
B10 O31 1.381555 1_555
B10 O34 1.406987 1_555
B11 O32 1.388229 1_555
B11 O33 1.389841 1_555
B11 O30 1.393055 1_555
