# generated using pymatgen
data_CsSn3
_symmetry_space_group_name_H-M   'P 1'
_cell_length_a   8.21290086
_cell_length_b   8.21289993
_cell_length_c   5.50429601
_cell_angle_alpha   90.00000000
_cell_angle_beta   90.00000000
_cell_angle_gamma   120.00000817
_symmetry_Int_Tables_number   1
_chemical_formula_structural   CsSn3
_chemical_formula_sum   'Cs2 Sn6'
_cell_volume   321.53295267
_cell_formula_units_Z   2
loop_
 _symmetry_equiv_pos_site_id
 _symmetry_equiv_pos_as_xyz
  1  'x, y, z'
loop_
 _atom_site_type_symbol
 _atom_site_label
 _atom_site_symmetry_multiplicity
 _atom_site_fract_x
 _atom_site_fract_y
 _atom_site_fract_z
 _atom_site_occupancy
  Cs  Cs0  1  0.33333300  0.66666700  0.75000000  1
  Cs  Cs1  1  0.66666600  0.33333300  0.25000100  1
  Sn  Sn0  1  0.12223032  0.24445964  0.25000100  1
  Sn  Sn1  1  0.75554236  0.87777068  0.25000100  1
  Sn  Sn2  1  0.12223132  0.87777068  0.25000100  1
  Sn  Sn3  1  0.87776868  0.75554036  0.75000000  1
  Sn  Sn4  1  0.24445664  0.12222932  0.75000000  1
  Sn  Sn5  1  0.87776968  0.12222932  0.75000000  1
loop_
_geom_bond_atom_site_label_1
_geom_bond_atom_site_label_2
_geom_bond_distance
_geom_bond_site_symmetry_2
Cs0 Sn2 4.073342 1_555
Cs0 Sn2 4.073349 1_556
Cs0 Sn0 4.073352 1_555
Cs0 Sn0 4.073360 1_556
Cs0 Sn1 4.073363 1_555
Cs0 Sn1 4.073370 1_556
Cs0 Sn3 4.154809 1_555
Cs0 Sn5 4.154814 1_565
Cs0 Sn4 4.154816 1_555
Cs0 Sn5 4.154822 1_455
Cs0 Sn4 4.154825 1_565
Cs0 Sn3 4.154826 1_455
Cs1 Sn3 4.073352 1_555
Cs1 Sn5 4.073353 1_555
Cs1 Sn3 4.073360 1_554
Cs1 Sn5 4.073360 1_554
Cs1 Sn4 4.073363 1_555
Cs1 Sn4 4.073370 1_554
Cs1 Sn2 4.154804 1_545
Cs1 Sn0 4.154809 1_555
Cs1 Sn1 4.154816 1_555
Cs1 Sn1 4.154825 1_545
Cs1 Sn0 4.154826 1_655
Cs1 Sn2 4.154828 1_655
Sn0 Sn1 3.011575 1_445
Sn0 Sn2 3.011584 1_545
Sn0 Sn4 3.255369 1_555
Sn0 Sn4 3.255378 1_554
Sn0 Sn5 3.255384 1_455
Sn0 Sn5 3.255393 1_454
Sn1 Sn2 3.011580 1_655
Sn1 Sn3 3.255369 1_555
Sn1 Sn5 3.255376 1_565
Sn1 Sn3 3.255378 1_554
Sn1 Sn5 3.255386 1_564
Sn2 Sn4 3.255376 1_565
Sn2 Sn4 3.255386 1_564
Sn2 Sn3 3.255392 1_455
Sn2 Sn3 3.255401 1_454
Sn3 Sn4 3.011575 1_665
Sn3 Sn5 3.011576 1_565
Sn4 Sn5 3.011564 1_455
