# generated using pymatgen
data_Cs2Sr2(CO3)3
_symmetry_space_group_name_H-M   'P 1'
_cell_length_a   8.81137027
_cell_length_b   8.81137027
_cell_length_c   8.81137027
_cell_angle_alpha   109.47122063
_cell_angle_beta   109.47122063
_cell_angle_gamma   109.47122063
_symmetry_Int_Tables_number   1
_chemical_formula_structural   Cs2Sr2(CO3)3
_chemical_formula_sum   'Cs4 Sr4 C6 O18'
_cell_volume   526.63347885
_cell_formula_units_Z   2
loop_
 _symmetry_equiv_pos_site_id
 _symmetry_equiv_pos_as_xyz
  1  'x, y, z'
loop_
 _atom_site_type_symbol
 _atom_site_label
 _atom_site_symmetry_multiplicity
 _atom_site_fract_x
 _atom_site_fract_y
 _atom_site_fract_z
 _atom_site_occupancy
  Cs  Cs0  1  0.88365700  0.88365700  0.88365700  1
  Cs  Cs1  1  0.50000000  0.00000000  0.61634300  1
  Cs  Cs2  1  0.61634300  0.50000000  0.00000000  1
  Cs  Cs3  1  0.00000000  0.61634300  0.50000000  1
  Sr  Sr0  1  0.40644600  0.40644600  0.40644600  1
  Sr  Sr1  1  0.50000000  0.00000000  0.09355400  1
  Sr  Sr2  1  0.09355400  0.50000000  0.00000000  1
  Sr  Sr3  1  0.00000000  0.09355400  0.50000000  1
  C  C0  1  0.58998200  0.75000000  0.33998200  1
  C  C1  1  0.91001800  0.25000000  0.16001800  1
  C  C2  1  0.33998200  0.58998200  0.75000000  1
  C  C3  1  0.75000000  0.33998200  0.58998200  1
  C  C4  1  0.25000000  0.16001800  0.91001800  1
  C  C5  1  0.16001800  0.91001800  0.25000000  1
  O  O0  1  0.41586700  0.64441400  0.28277400  1
  O  O1  1  0.86164000  0.13309300  0.21722600  1
  O  O2  1  0.08413300  0.36690700  0.22854700  1
  O  O3  1  0.63836000  0.85558600  0.27145300  1
  O  O4  1  0.28277400  0.41586700  0.64441400  1
  O  O5  1  0.64441400  0.28277400  0.41586700  1
  O  O6  1  0.27145300  0.63836000  0.85558600  1
  O  O7  1  0.13309300  0.21722600  0.86164000  1
  O  O8  1  0.21722600  0.86164000  0.13309300  1
  O  O9  1  0.36690700  0.22854700  0.08413300  1
  O  O10  1  0.22854700  0.08413300  0.36690700  1
  O  O11  1  0.85558600  0.27145300  0.63836000  1
  O  O12  1  0.71827900  0.75000000  0.46827900  1
  O  O13  1  0.78172100  0.25000000  0.03172100  1
  O  O14  1  0.46827900  0.71827900  0.75000000  1
  O  O15  1  0.75000000  0.46827900  0.71827900  1
  O  O16  1  0.25000000  0.03172100  0.78172100  1
  O  O17  1  0.03172100  0.78172100  0.25000000  1
loop_
_geom_bond_atom_site_label_1
_geom_bond_atom_site_label_2
_geom_bond_distance
_geom_bond_site_symmetry_2
Cs0 O12 3.055000 1_555
Cs0 O14 3.055000 1_555
Cs0 O15 3.055000 1_555
Cs0 O8 3.140846 1_656
Cs0 O1 3.140846 1_566
Cs0 O7 3.140846 1_665
Cs1 O16 3.055000 1_555
Cs1 O14 3.055000 1_545
Cs1 O13 3.055000 1_556
Cs1 O10 3.140846 1_555
Cs1 O11 3.140846 1_555
Cs1 O0 3.140846 1_545
Cs2 O13 3.055000 1_555
Cs2 O15 3.055000 1_554
Cs2 O17 3.055000 1_655
Cs2 O3 3.140846 1_555
Cs2 O9 3.140846 1_555
Cs2 O4 3.140846 1_554
Cs3 O12 3.055000 1_455
Cs3 O17 3.055000 1_555
Cs3 O16 3.055000 1_565
Cs3 O6 3.140846 1_555
Cs3 O2 3.140846 1_555
Cs3 O5 3.140846 1_455
C0 O0 1.301392 1_555
C0 O3 1.301392 1_555
C0 O12 1.305357 1_555
C1 O1 1.301392 1_555
C1 O2 1.301392 1_655
C1 O13 1.305357 1_555
C2 O4 1.301392 1_555
C2 O6 1.301392 1_555
C2 O14 1.305357 1_555
C3 O5 1.301392 1_555
C3 O11 1.301392 1_555
C3 O15 1.305357 1_555
C4 O9 1.301392 1_556
C4 O7 1.301392 1_555
C4 O16 1.305357 1_555
C5 O10 1.301392 1_565
C5 O8 1.301392 1_555
C5 O17 1.305357 1_555
O0 Sr2 2.579275 1_555
O0 Sr0 2.656806 1_555
O1 Sr3 2.579275 1_655
O1 Sr1 2.656806 1_555
O2 Sr0 2.579275 1_555
O2 Sr2 2.656806 1_555
O3 Sr1 2.579275 1_565
O3 Sr3 2.656806 1_665
O4 Sr3 2.579275 1_555
O4 Sr0 2.656806 1_555
O5 Sr1 2.579275 1_555
O5 Sr0 2.656806 1_555
O6 Sr2 2.579275 1_556
O6 Sr1 2.656806 1_566
O7 Sr2 2.579275 1_556
O7 Sr3 2.656806 1_555
O8 Sr1 2.579275 1_565
O8 Sr2 2.656806 1_555
O9 Sr0 2.579275 1_555
O9 Sr1 2.656806 1_555
O10 Sr0 2.579275 1_555
O10 Sr3 2.656806 1_555
O11 Sr3 2.579275 1_655
O11 Sr2 2.656806 1_656
O12 Sr3 3.060669 1_665
O12 Sr0 3.060669 1_555
O13 Sr2 3.060669 1_655
O13 Sr1 3.060669 1_555
O14 Sr1 3.060669 1_566
O14 Sr0 3.060669 1_555
O15 Sr2 3.060669 1_656
O15 Sr0 3.060669 1_555
O16 Sr1 3.060669 1_556
O16 Sr3 3.060669 1_555
O17 Sr3 3.060669 1_565
O17 Sr2 3.060669 1_555
