# generated using pymatgen
data_V3FeSn2(PO4)6
_symmetry_space_group_name_H-M   'P 1'
_cell_length_a   9.00172008
_cell_length_b   9.00172008
_cell_length_c   9.00172032
_cell_angle_alpha   57.16733841
_cell_angle_beta   57.16733841
_cell_angle_gamma   57.16733447
_symmetry_Int_Tables_number   1
_chemical_formula_structural   V3FeSn2(PO4)6
_chemical_formula_sum   'V3 Fe1 Sn2 P6 O24'
_cell_volume   482.11677101
_cell_formula_units_Z   1
loop_
 _symmetry_equiv_pos_site_id
 _symmetry_equiv_pos_as_xyz
  1  'x, y, z'
loop_
 _atom_site_type_symbol
 _atom_site_label
 _atom_site_symmetry_multiplicity
 _atom_site_fract_x
 _atom_site_fract_y
 _atom_site_fract_z
 _atom_site_occupancy
  V  V0  1  0.35196800  0.35196800  0.35196800  1
  V  V1  1  0.14708200  0.14708200  0.14708200  1
  V  V2  1  0.64841400  0.64841400  0.64841400  1
  Fe  Fe0  1  0.85044200  0.85044200  0.85044200  1
  Sn  Sn0  1  0.99584500  0.99584500  0.99584500  1
  Sn  Sn1  1  0.49981000  0.49981000  0.49981000  1
  P  P0  1  0.03778200  0.46258800  0.75002400  1
  P  P1  1  0.46258800  0.75002400  0.03778200  1
  P  P2  1  0.75002400  0.03778200  0.46258800  1
  P  P3  1  0.25114700  0.96368400  0.53639900  1
  P  P4  1  0.53639900  0.25114700  0.96368400  1
  P  P5  1  0.96368400  0.53639900  0.25114700  1
  O  O0  1  0.49031500  0.71813100  0.87054700  1
  O  O1  1  0.71813100  0.87054700  0.49031500  1
  O  O2  1  0.87054700  0.49031500  0.71813100  1
  O  O3  1  0.06432400  0.27865600  0.92328500  1
  O  O4  1  0.01433300  0.62776000  0.77771800  1
  O  O5  1  0.22112300  0.43413800  0.57442900  1
  O  O6  1  0.27865600  0.92328500  0.06432400  1
  O  O7  1  0.43413800  0.57442900  0.22112300  1
  O  O8  1  0.21760200  0.99155100  0.37108700  1
  O  O9  1  0.57442900  0.22112300  0.43413800  1
  O  O10  1  0.07760900  0.94268600  0.72017100  1
  O  O11  1  0.37108700  0.21760200  0.99155100  1
  O  O12  1  0.62776000  0.77771800  0.01433300  1
  O  O13  1  0.92328500  0.06432400  0.27865600  1
  O  O14  1  0.42556400  0.77943200  0.56201100  1
  O  O15  1  0.77771800  0.01433300  0.62776000  1
  O  O16  1  0.56201100  0.42556400  0.77943200  1
  O  O17  1  0.72017100  0.07760900  0.94268600  1
  O  O18  1  0.77943200  0.56201100  0.42556400  1
  O  O19  1  0.99155100  0.37108700  0.21760200  1
  O  O20  1  0.94268600  0.72017100  0.07760900  1
  O  O21  1  0.12846600  0.50419000  0.28970400  1
  O  O22  1  0.28970400  0.12846600  0.50419000  1
  O  O23  1  0.50419000  0.28970400  0.12846600  1
loop_
_geom_bond_atom_site_label_1
_geom_bond_atom_site_label_2
_geom_bond_distance
_geom_bond_site_symmetry_2
Fe0 O4 1.947322 1_655
Fe0 O15 1.947322 1_565
Fe0 O12 1.947322 1_556
Fe0 O17 2.105063 1_565
Fe0 O20 2.105063 1_556
Fe0 O10 2.105063 1_655
O0 P1 1.547408 1_556
O0 V2 1.929764 1_555
O1 P2 1.547408 1_565
O1 V2 1.929764 1_555
O2 P0 1.547408 1_655
O2 V2 1.929764 1_555
O3 P0 1.551083 1_555
O3 V1 2.024717 1_556
O3 Sn0 2.598003 1_445
O4 P0 1.523785 1_555
O5 P0 1.561944 1_555
O5 V0 2.012053 1_555
O5 Sn1 2.538575 1_555
O6 P1 1.551083 1_555
O6 V1 2.024717 1_565
O6 Sn0 2.598003 1_454
O7 P1 1.561944 1_555
O7 V0 2.012053 1_555
O7 Sn1 2.538575 1_555
O8 P3 1.539112 1_555
O8 V1 1.947330 1_565
O9 P2 1.561944 1_555
O9 V0 2.012053 1_555
O9 Sn1 2.538575 1_555
O10 P3 1.546443 1_555
O10 Sn0 2.419490 1_455
O11 P4 1.539112 1_555
O11 V1 1.947330 1_556
O12 P1 1.523785 1_555
O13 P2 1.551083 1_555
O13 V1 2.024717 1_655
O13 Sn0 2.598003 1_544
O14 P3 1.556666 1_555
O14 V2 2.037582 1_555
O14 Sn1 2.528664 1_555
O15 P2 1.523785 1_555
O16 P4 1.556666 1_555
O16 V2 2.037582 1_555
O16 Sn1 2.528664 1_555
O17 P4 1.546443 1_555
O17 Sn0 2.419490 1_545
O18 P5 1.556666 1_555
O18 V2 2.037582 1_555
O18 Sn1 2.528664 1_555
O19 P5 1.539111 1_555
O19 V1 1.947330 1_655
O20 P5 1.546443 1_555
O20 Sn0 2.419490 1_554
O21 P5 1.545173 1_455
O21 V0 1.907890 1_555
O22 P3 1.545173 1_545
O22 V0 1.907890 1_555
O23 P4 1.545174 1_554
O23 V0 1.907890 1_555
