# generated using pymatgen
data_Er2TlCd
_symmetry_space_group_name_H-M   'P 1'
_cell_length_a   5.24021414
_cell_length_b   5.24021414
_cell_length_c   5.24021414
_cell_angle_alpha   60.00000000
_cell_angle_beta   60.00000000
_cell_angle_gamma   60.00000000
_symmetry_Int_Tables_number   1
_chemical_formula_structural   Er2TlCd
_chemical_formula_sum   'Er2 Tl1 Cd1'
_cell_volume   101.74945813
_cell_formula_units_Z   1
loop_
 _symmetry_equiv_pos_site_id
 _symmetry_equiv_pos_as_xyz
  1  'x, y, z'
loop_
 _atom_site_type_symbol
 _atom_site_label
 _atom_site_symmetry_multiplicity
 _atom_site_fract_x
 _atom_site_fract_y
 _atom_site_fract_z
 _atom_site_occupancy
  Er  Er0  1  -0.00000000  -0.00000000  -0.00000000  1
  Er  Er1  1  0.49999900  0.49999900  0.49999900  1
  Tl  Tl0  1  0.74999900  0.74999900  0.74999900  1
  Cd  Cd0  1  0.25000000  0.25000000  0.25000000  1
loop_
_geom_bond_atom_site_label_1
_geom_bond_atom_site_label_2
_geom_bond_distance
_geom_bond_site_symmetry_2
Er0 Tl0 3.208958 1_445
Er0 Tl0 3.208958 1_544
Er0 Tl0 3.208958 1_454
Er0 Tl0 3.208976 1_444
Er1 Tl0 3.208963 1_545
Er1 Tl0 3.208963 1_554
Er1 Tl0 3.208963 1_455
Er1 Tl0 3.208963 1_555
Cd0 Er1 3.208950 1_555
Cd0 Er0 3.208963 1_655
Cd0 Er0 3.208963 1_556
Cd0 Er0 3.208963 1_555
Cd0 Er0 3.208963 1_565
Cd0 Er1 3.208967 1_554
Cd0 Er1 3.208967 1_455
Cd0 Er1 3.208967 1_545
