# generated using pymatgen
data_Li4Cr3(FeO4)3
_symmetry_space_group_name_H-M   'P 1'
_cell_length_a   9.62850991
_cell_length_b   8.98114956
_cell_length_c   5.31464266
_cell_angle_alpha   80.23074028
_cell_angle_beta   66.81527446
_cell_angle_gamma   32.95398526
_symmetry_Int_Tables_number   1
_chemical_formula_structural   Li4Cr3(FeO4)3
_chemical_formula_sum   'Li4 Cr3 Fe3 O12'
_cell_volume   217.62121842
_cell_formula_units_Z   1
loop_
 _symmetry_equiv_pos_site_id
 _symmetry_equiv_pos_as_xyz
  1  'x, y, z'
loop_
 _atom_site_type_symbol
 _atom_site_label
 _atom_site_symmetry_multiplicity
 _atom_site_fract_x
 _atom_site_fract_y
 _atom_site_fract_z
 _atom_site_occupancy
  Li  Li0  1  0.57990000  0.57990000  0.92010000  1
  Li  Li1  1  0.92010000  0.92010000  0.57990000  1
  Li  Li2  1  0.33034600  0.33034600  0.66965400  1
  Li  Li3  1  0.66965400  0.66965400  0.33034600  1
  Cr  Cr0  1  0.83561100  0.83561100  0.16438900  1
  Cr  Cr1  1  0.16438900  0.16438900  0.83561100  1
  Cr  Cr2  1  0.50000000  0.50000000  0.50000000  1
  Fe  Fe0  1  0.75000000  0.75000000  0.75000000  1
  Fe  Fe1  1  0.41448500  0.41448500  0.08551500  1
  Fe  Fe2  1  0.08551500  0.08551500  0.41448500  1
  O  O0  1  0.96933000  0.53067000  0.96933000  1
  O  O1  1  0.20121300  0.62527300  0.85424500  1
  O  O2  1  0.62287100  0.05052300  0.92999300  1
  O  O3  1  0.85424500  0.31926900  0.20121300  1
  O  O4  1  0.05052300  0.62287100  0.39661300  1
  O  O5  1  0.39661300  0.92999300  0.05052300  1
  O  O6  1  0.27895200  0.72104800  0.27895200  1
  O  O7  1  0.62527300  0.20121300  0.31926900  1
  O  O8  1  0.53067000  0.96933000  0.53067000  1
  O  O9  1  0.92999300  0.39661300  0.62287100  1
  O  O10  1  0.31926900  0.85424500  0.62527300  1
  O  O11  1  0.72104800  0.27895200  0.72104800  1
loop_
_geom_bond_atom_site_label_1
_geom_bond_atom_site_label_2
_geom_bond_distance
_geom_bond_site_symmetry_2
Li0 O6 1.986272 1_556
Li0 O11 1.986272 1_555
Li0 O9 1.986287 1_555
Li0 O5 1.986287 1_556
Li0 O10 2.496568 1_555
Li0 O3 2.496568 1_556
Li1 O11 1.986272 1_565
Li1 O6 1.986272 1_655
Li1 O4 1.986287 1_655
Li1 O2 1.986287 1_565
Li1 O7 2.496568 1_565
Li1 O1 2.496568 1_655
Li2 O7 1.979599 1_555
Li2 O1 1.979599 1_555
Li2 O0 1.993558 1_455
Li2 O8 1.993558 1_545
Li2 O4 2.484486 1_555
Li2 O2 2.484486 1_555
Li3 O10 1.979599 1_555
Li3 O3 1.979599 1_555
Li3 O0 1.993558 1_554
Li3 O8 1.993558 1_555
Li3 O5 2.484486 1_555
Li3 O9 2.484486 1_555
Cr0 O1 2.001318 1_654
Cr0 O7 2.001318 1_565
Cr0 O2 2.007804 1_564
Cr0 O4 2.007804 1_655
Cr0 O0 2.056181 1_554
Cr0 O8 2.056181 1_555
Cr1 O3 2.001318 1_456
Cr1 O10 2.001318 1_545
Cr1 O9 2.007804 1_455
Cr1 O5 2.007804 1_546
Cr1 O0 2.056181 1_455
Cr1 O8 2.056181 1_545
Cr2 O11 1.984331 1_555
Cr2 O6 1.984331 1_555
Cr2 O3 2.027039 1_555
Cr2 O1 2.027039 1_555
Cr2 O10 2.027039 1_555
Cr2 O7 2.027039 1_555
Fe0 O0 1.968909 1_555
Fe0 O8 1.968909 1_555
Fe0 O5 2.026811 1_556
Fe0 O4 2.026811 1_655
Fe0 O2 2.026811 1_565
Fe0 O9 2.026811 1_555
Fe1 O1 1.996273 1_554
Fe1 O7 1.996273 1_555
Fe1 O4 1.999561 1_555
Fe1 O2 1.999561 1_554
Fe1 O11 2.053012 1_554
Fe1 O6 2.053012 1_555
Fe2 O3 1.996273 1_455
Fe2 O10 1.996273 1_545
Fe2 O9 1.999561 1_455
Fe2 O5 1.999561 1_545
Fe2 O11 2.053012 1_455
Fe2 O6 2.053012 1_545
