# generated using pymatgen
data_LiMnVO4
_symmetry_space_group_name_H-M   'P 1'
_cell_length_a   6.01148684
_cell_length_b   6.01150514
_cell_length_c   6.01154090
_cell_angle_alpha   61.80589553
_cell_angle_beta   88.62227707
_cell_angle_gamma   120.23222999
_symmetry_Int_Tables_number   1
_chemical_formula_structural   LiMnVO4
_chemical_formula_sum   'Li2 Mn2 V2 O8'
_cell_volume   155.33374461
_cell_formula_units_Z   2
loop_
 _symmetry_equiv_pos_site_id
 _symmetry_equiv_pos_as_xyz
  1  'x, y, z'
loop_
 _atom_site_type_symbol
 _atom_site_label
 _atom_site_symmetry_multiplicity
 _atom_site_fract_x
 _atom_site_fract_y
 _atom_site_fract_z
 _atom_site_occupancy
  Li  Li0  1  0.49994100  0.99993000  0.50000900  1
  Li  Li1  1  0.00005300  0.50004200  0.50000600  1
  Mn  Mn0  1  0.50020400  0.00036200  0.99958400  1
  Mn  Mn1  1  0.49999600  0.49980900  0.50015400  1
  V  V0  1  0.12154300  0.24997500  0.12847600  1
  V  V1  1  0.87839000  0.74997600  0.87162300  1
  O  O0  1  0.75518700  0.00531000  0.25014700  1
  O  O1  1  0.75871100  0.51919800  0.22207600  1
  O  O2  1  0.24125400  0.01920500  0.23953500  1
  O  O3  1  0.24453600  0.49466200  0.25014000  1
  O  O4  1  0.75547200  0.50535200  0.74989100  1
  O  O5  1  0.75871600  0.98077900  0.76049500  1
  O  O6  1  0.24125000  0.48077900  0.77796600  1
  O  O7  1  0.24474800  0.99462100  0.74989900  1
loop_
_geom_bond_atom_site_label_1
_geom_bond_atom_site_label_2
_geom_bond_distance
_geom_bond_site_symmetry_2
Li0 O0 2.098790 1_565
Li0 O7 2.098976 1_555
Li0 O6 2.238399 1_555
Li0 O2 2.238467 1_565
Li0 O5 2.238854 1_555
Li0 O1 2.238863 1_565
Li1 O3 2.098795 1_555
Li1 O4 2.098985 1_455
Li1 O6 2.238449 1_555
Li1 O2 2.238452 1_565
Li1 O5 2.238840 1_445
Li1 O1 2.238903 1_455
Mn0 O4 2.171637 1_555
Mn0 O7 2.172296 1_545
Mn0 O0 2.174107 1_556
Mn0 O3 2.174731 1_546
Mn0 O5 2.175183 1_545
Mn0 O2 2.177335 1_556
Mn1 O7 2.172495 1_545
Mn1 O4 2.172622 1_555
Mn1 O3 2.173779 1_555
Mn1 O0 2.173868 1_565
Mn1 O1 2.176062 1_555
Mn1 O6 2.176472 1_555
O0 V0 1.786798 1_655
O1 V1 1.743833 1_554
O2 V0 1.743966 1_555
O3 V0 1.786794 1_555
O4 V1 1.786814 1_555
O5 V1 1.743953 1_555
O6 V0 1.744114 1_556
O7 V1 1.786804 1_455
