# generated using pymatgen
data_Li3V3P8O29
_symmetry_space_group_name_H-M   'P 1'
_cell_length_a   9.74019400
_cell_length_b   9.76778820
_cell_length_c   14.34304848
_cell_angle_alpha   90.02963858
_cell_angle_beta   90.24242940
_cell_angle_gamma   119.73528112
_symmetry_Int_Tables_number   1
_chemical_formula_structural   Li3V3P8O29
_chemical_formula_sum   'Li6 V6 P16 O58'
_cell_volume   1184.90186848
_cell_formula_units_Z   2
loop_
 _symmetry_equiv_pos_site_id
 _symmetry_equiv_pos_as_xyz
  1  'x, y, z'
loop_
 _atom_site_type_symbol
 _atom_site_label
 _atom_site_symmetry_multiplicity
 _atom_site_fract_x
 _atom_site_fract_y
 _atom_site_fract_z
 _atom_site_occupancy
  Li  Li0  1  0.78414300  0.07859900  0.45016300  1
  Li  Li1  1  0.77031700  0.67318100  0.94077500  1
  Li  Li2  1  0.91201100  0.68635600  0.44405000  1
  Li  Li3  1  0.22351200  0.91777200  0.56148600  1
  Li  Li4  1  0.68208200  0.91215800  0.05316700  1
  Li  Li5  1  0.07899900  0.05774600  0.00181500  1
  V  V0  1  0.99713700  0.43041300  0.75439100  1
  V  V1  1  0.00365500  0.56314300  0.24037600  1
  V  V2  1  0.42938900  0.43224800  0.25425300  1
  V  V3  1  0.56080000  0.56174300  0.74388600  1
  V  V4  1  0.43487600  0.00608600  0.75738500  1
  V  V5  1  0.56156600  0.99960800  0.24838300  1
  P  P0  1  0.30292400  0.08613100  0.16377300  1
  P  P1  1  0.30951300  0.22451000  0.65568500  1
  P  P2  1  0.77045300  0.08938300  0.66302400  1
  P  P3  1  0.66941200  0.33870300  0.86907300  1
  P  P4  1  0.67147400  0.33558700  0.36476900  1
  P  P5  1  0.91575800  0.21759600  0.15594800  1
  P  P6  1  0.08356900  0.31307300  0.33972200  1
  P  P7  1  0.76626500  0.68239700  0.15864700  1
  P  P8  1  0.22678300  0.30824300  0.83837900  1
  P  P9  1  0.91038400  0.67910000  0.65826500  1
  P  P10  1  0.08212800  0.77746000  0.83895200  1
  P  P11  1  0.32685200  0.67077400  0.63476500  1
  P  P12  1  0.33940900  0.66749600  0.13264100  1
  P  P13  1  0.22565600  0.90516500  0.34196400  1
  P  P14  1  0.68632800  0.77374500  0.33920800  1
  P  P15  1  0.68408000  0.90658200  0.83979900  1
  O  O0  1  0.23712100  0.97742000  0.43441300  1
  O  O1  1  0.33934200  0.08154200  0.66494300  1
  O  O2  1  0.21466100  0.21670800  0.92250300  1
  O  O3  1  0.34267000  0.26001700  0.17280900  1
  O  O4  1  0.46095800  0.08075300  0.17363100  1
  O  O5  1  0.51669200  0.18879600  0.82715200  1
  O  O6  1  0.61846700  0.09770800  0.68484500  1
  O  O7  1  0.76351900  0.98018300  0.92963400  1
  O  O8  1  0.73894400  0.08221700  0.16389800  1
  O  O9  1  0.52402300  0.33973500  0.32327200  1
  O  O10  1  0.47287600  0.37850800  0.67654200  1
  O  O11  1  0.66244400  0.18123200  0.32100800  1
  O  O12  1  0.67338000  0.34209600  0.97250400  1
  O  O13  1  0.67722200  0.33373300  0.46803700  1
  O  O14  1  0.81238300  0.32979000  0.82440100  1
  O  O15  1  0.61211900  0.52653700  0.17532100  1
  O  O16  1  0.67419900  0.48921300  0.82675600  1
  O  O17  1  0.91585000  0.25715200  0.67200000  1
  O  O18  1  0.99783400  0.20238700  0.24987500  1
  O  O19  1  0.99381300  0.23437300  0.42445800  1
  O  O20  1  0.99018100  0.19436800  0.07250700  1
  O  O21  1  0.92001300  0.38020200  0.16696500  1
  O  O22  1  0.81975900  0.47919500  0.32041000  1
  O  O23  1  0.09144000  0.34926200  0.83130300  1
  O  O24  1  0.90225700  0.52052800  0.67814300  1
  O  O25  1  0.74114500  0.65561300  0.66595600  1
  O  O26  1  0.20374200  0.20465100  0.74630700  1
  O  O27  1  0.23315900  0.22779700  0.56785200  1
  O  O28  1  0.77816700  0.77007500  0.42088400  1
  O  O29  1  0.25539900  0.34271200  0.33490200  1
  O  O30  1  0.09258900  0.47387100  0.31708000  1
  O  O31  1  0.90944700  0.65374000  0.16640000  1
  O  O32  1  0.18035300  0.52982300  0.68218000  1
  O  O33  1  0.07543500  0.61645500  0.83299200  1
  O  O34  1  0.99396400  0.79779400  0.91744400  1
  O  O35  1  0.99201600  0.75290900  0.56849400  1
  O  O36  1  0.01015100  0.79861500  0.74082200  1
  O  O37  1  0.07874100  0.73767400  0.33267900  1
  O  O38  1  0.33193500  0.51959300  0.17920100  1
  O  O39  1  0.38671200  0.46330000  0.82577900  1
  O  O40  1  0.19009900  0.67212200  0.17369700  1
  O  O41  1  0.35001600  0.67532800  0.02958500  1
  O  O42  1  0.32564600  0.67023100  0.53149300  1
  O  O43  1  0.33541000  0.82444600  0.67502900  1
  O  O44  1  0.52583000  0.62002000  0.32491500  1
  O  O45  1  0.47244800  0.66036300  0.67911700  1
  O  O46  1  0.25699900  0.91360200  0.83474300  1
  O  O47  1  0.20754400  0.00503700  0.25879900  1
  O  O48  1  0.20630300  0.00701100  0.08063700  1
  O  O49  1  0.37886700  0.89831600  0.31747800  1
  O  O50  1  0.49258800  0.81639100  0.17469000  1
  O  O51  1  0.52547600  0.90751400  0.82589200  1
  O  O52  1  0.65515500  0.73544700  0.83391600  1
  O  O53  1  0.76674700  0.76183700  0.06893200  1
  O  O54  1  0.78646100  0.79810700  0.24376500  1
  O  O55  1  0.66111200  0.91940700  0.33916300  1
  O  O56  1  0.76102500  0.01083100  0.57307900  1
  O  O57  1  0.79026900  0.99417600  0.75013300  1
loop_
_geom_bond_atom_site_label_1
_geom_bond_atom_site_label_2
_geom_bond_distance
_geom_bond_site_symmetry_2
Li0 O56 1.858417 1_555
Li0 O19 1.883150 1_555
Li0 O55 2.126377 1_545
Li1 O34 1.927476 1_555
Li1 O53 2.039295 1_556
Li1 O52 2.154161 1_555
Li1 O16 2.257250 1_555
Li2 O28 1.879577 1_555
Li2 O35 1.923603 1_555
Li2 O37 2.157668 1_655
Li2 O22 2.495190 1_555
Li3 O0 1.898811 1_555
Li3 O35 2.021796 1_455
Li3 O1 2.055919 1_565
Li3 O43 2.375538 1_555
Li4 O7 1.923638 1_554
Li4 O53 2.021634 1_555
Li4 O8 2.160011 1_565
Li4 O50 2.374019 1_555
Li5 O2 1.852104 1_554
Li5 O48 1.912988 1_555
Li5 O20 2.169932 1_455
Li5 O34 2.549485 1_444
O0 P13 1.479343 1_555
O1 P1 1.566702 1_555
O1 V4 1.959083 1_555
O2 P8 1.472011 1_555
O3 P0 1.548737 1_555
O3 V2 1.867684 1_555
O4 P0 1.571788 1_555
O4 V5 1.870972 1_545
O5 P3 1.596611 1_555
O5 V4 1.844463 1_555
O6 P2 1.555436 1_555
O6 V4 1.873589 1_555
O7 P15 1.488148 1_555
O8 P5 1.571722 1_555
O8 V5 1.933969 1_545
O9 P4 1.571333 1_555
O9 V2 1.861630 1_555
O10 P1 1.582794 1_555
O10 V3 1.827707 1_555
O11 P4 1.594330 1_555
O11 V5 1.859587 1_545
O12 P3 1.483781 1_555
O13 P4 1.482458 1_555
O14 P3 1.576425 1_555
O14 V0 1.863995 1_555
O15 P7 1.537897 1_555
O15 V2 1.920878 1_555
O16 P3 1.570055 1_555
O16 V3 1.975016 1_555
O17 P2 1.550386 1_555
O17 V0 1.883699 1_555
O18 P5 1.607799 1_555
O18 P6 1.618884 1_655
O19 P6 1.475011 1_655
O20 P5 1.476308 1_555
O21 P5 1.575999 1_555
O21 V1 1.874081 1_655
O22 P4 1.567632 1_555
O22 V1 1.939035 1_655
O23 P8 1.559334 1_555
O23 V0 1.844870 1_455
O24 P9 1.538070 1_555
O24 V0 1.903748 1_555
O25 P9 1.551938 1_555
O25 V3 1.896224 1_555
O26 P8 1.609051 1_555
O26 P1 1.613016 1_555
O27 P1 1.468674 1_555
O28 P14 1.482169 1_555
O29 P6 1.552440 1_555
O29 V2 1.876786 1_555
O30 P6 1.563324 1_555
O30 V1 1.861001 1_555
O31 P7 1.556166 1_555
O31 V1 1.883920 1_655
O32 P11 1.566687 1_555
O32 V0 1.870290 1_455
O33 P10 1.543677 1_555
O33 V0 1.941832 1_455
O34 P10 1.490462 1_655
O35 P9 1.500280 1_555
O36 P9 1.603981 1_455
O36 P10 1.628148 1_555
O37 P13 1.554929 1_555
O37 V1 1.986593 1_555
O38 P12 1.560599 1_555
O38 V2 1.892979 1_555
O39 P8 1.554153 1_555
O39 V3 1.892122 1_555
O40 P12 1.592554 1_555
O40 V1 1.855744 1_555
O41 P12 1.481548 1_555
O42 P11 1.481218 1_555
O43 P11 1.571034 1_555
O43 V4 1.940312 1_565
O44 P14 1.552085 1_555
O44 V2 1.885341 1_555
O45 P11 1.600504 1_555
O45 V3 1.829763 1_555
O46 P10 1.557966 1_555
O46 V4 1.874469 1_565
O47 P13 1.604925 1_545
O47 P0 1.621735 1_555
O48 P0 1.474071 1_555
O49 P13 1.567877 1_555
O49 V5 1.843136 1_555
O50 P12 1.594974 1_555
O50 V5 1.889618 1_555
O51 P15 1.561322 1_555
O51 V4 1.872906 1_565
O52 P15 1.553464 1_555
O52 V3 1.957486 1_555
O53 P7 1.501804 1_555
O54 P7 1.607043 1_555
O54 P14 1.631955 1_555
O55 P14 1.559270 1_555
O55 V5 1.998258 1_555
O56 P2 1.479713 1_555
O57 P15 1.609466 1_555
O57 P2 1.624906 1_565
