# generated using pymatgen
data_Tm2MgAl
_symmetry_space_group_name_H-M   'P 1'
_cell_length_a   5.10571678
_cell_length_b   5.10571678
_cell_length_c   5.10571678
_cell_angle_alpha   60.00000000
_cell_angle_beta   60.00000000
_cell_angle_gamma   60.00000000
_symmetry_Int_Tables_number   1
_chemical_formula_structural   Tm2MgAl
_chemical_formula_sum   'Tm2 Mg1 Al1'
_cell_volume   94.11420193
_cell_formula_units_Z   1
loop_
 _symmetry_equiv_pos_site_id
 _symmetry_equiv_pos_as_xyz
  1  'x, y, z'
loop_
 _atom_site_type_symbol
 _atom_site_label
 _atom_site_symmetry_multiplicity
 _atom_site_fract_x
 _atom_site_fract_y
 _atom_site_fract_z
 _atom_site_occupancy
  Tm  Tm0  1  0.50000100  0.50000100  0.50000100  1
  Tm  Tm1  1  0.00000000  -0.00000000  0.00000000  1
  Mg  Mg0  1  0.75000000  0.75000000  0.75000000  1
  Al  Al0  1  0.25000000  0.25000000  0.25000000  1
loop_
_geom_bond_atom_site_label_1
_geom_bond_atom_site_label_2
_geom_bond_distance
_geom_bond_site_symmetry_2
Mg0 Tm0 3.126588 1_555
Mg0 Tm1 3.126600 1_656
Mg0 Tm1 3.126600 1_665
Mg0 Tm1 3.126600 1_566
Mg0 Tm1 3.126600 1_666
Mg0 Tm0 3.126604 1_556
Mg0 Tm0 3.126604 1_565
Mg0 Tm0 3.126604 1_655
Al0 Tm0 3.126596 1_554
Al0 Tm0 3.126596 1_545
Al0 Tm0 3.126596 1_455
Al0 Tm1 3.126600 1_556
Al0 Tm1 3.126600 1_655
Al0 Tm1 3.126600 1_565
Al0 Tm1 3.126600 1_555
Al0 Tm0 3.126613 1_555
