# generated using pymatgen
data_LiMn2P2H9O13
_symmetry_space_group_name_H-M   'P 1'
_cell_length_a   5.62939700
_cell_length_b   9.06396200
_cell_length_c   10.16317800
_cell_angle_alpha   90.00000000
_cell_angle_beta   90.00000000
_cell_angle_gamma   90.00000000
_symmetry_Int_Tables_number   1
_chemical_formula_structural   LiMn2P2H9O13
_chemical_formula_sum   'Li2 Mn4 P4 H18 O26'
_cell_volume   518.57250370
_cell_formula_units_Z   2
loop_
 _symmetry_equiv_pos_site_id
 _symmetry_equiv_pos_as_xyz
  1  'x, y, z'
loop_
 _atom_site_type_symbol
 _atom_site_label
 _atom_site_symmetry_multiplicity
 _atom_site_fract_x
 _atom_site_fract_y
 _atom_site_fract_z
 _atom_site_occupancy
  Li  Li0  1  0.12801200  0.00000000  0.00000000  1
  Li  Li1  1  0.12801200  0.50000000  0.50000000  1
  Mn  Mn0  1  0.05152200  0.15185300  0.60420000  1
  Mn  Mn1  1  0.05152200  0.34814700  0.10420000  1
  Mn  Mn2  1  0.05152200  0.65185300  0.89580000  1
  Mn  Mn3  1  0.05152200  0.84814700  0.39580000  1
  P  P0  1  0.78507700  0.14932900  0.31964500  1
  P  P1  1  0.78507700  0.35067100  0.81964500  1
  P  P2  1  0.78507700  0.64932900  0.18035500  1
  P  P3  1  0.78507700  0.85067100  0.68035500  1
  H  H0  1  0.38355600  0.00000000  0.50000000  1
  H  H1  1  0.35983400  0.98030200  0.75123200  1
  H  H2  1  0.39318000  0.14997100  0.78868300  1
  H  H3  1  0.43844900  0.19342900  0.13118500  1
  H  H4  1  0.43994700  0.24238800  0.97775500  1
  H  H5  1  0.43994700  0.25761200  0.47775500  1
  H  H6  1  0.43844900  0.30657100  0.63118500  1
  H  H7  1  0.39318000  0.35002900  0.28868300  1
  H  H8  1  0.35983400  0.51969800  0.25123200  1
  H  H9  1  0.38355600  0.50000000  0.00000000  1
  H  H10  1  0.35983400  0.48030200  0.74876800  1
  H  H11  1  0.39318000  0.64997100  0.71131700  1
  H  H12  1  0.43844900  0.69342900  0.36881500  1
  H  H13  1  0.43994700  0.74238800  0.52224500  1
  H  H14  1  0.43994700  0.75761200  0.02224500  1
  H  H15  1  0.43844900  0.80657100  0.86881500  1
  H  H16  1  0.39318000  0.85002900  0.21131700  1
  H  H17  1  0.35983400  0.01969800  0.24876800  1
  O  O0  1  0.20933300  0.00000000  0.50000000  1
  O  O1  1  0.79460600  0.02058600  0.65534400  1
  O  O2  1  0.27183700  0.06983000  0.78094000  1
  O  O3  1  0.52231900  0.18286900  0.28154300  1
  O  O4  1  0.95261000  0.17980400  0.20003800  1
  O  O5  1  0.85498700  0.23912500  0.44128200  1
  O  O6  1  0.33602600  0.20538000  0.04884000  1
  O  O7  1  0.33602600  0.29462000  0.54884000  1
  O  O8  1  0.85498700  0.26087500  0.94128200  1
  O  O9  1  0.95261000  0.32019600  0.70003800  1
  O  O10  1  0.52231900  0.31713100  0.78154300  1
  O  O11  1  0.27183700  0.43017000  0.28094000  1
  O  O12  1  0.79460600  0.47941400  0.15534400  1
  O  O13  1  0.20933300  0.50000000  0.00000000  1
  O  O14  1  0.79460600  0.52058600  0.84465600  1
  O  O15  1  0.27183700  0.56983000  0.71906000  1
  O  O16  1  0.52231900  0.68286900  0.21845700  1
  O  O17  1  0.95261000  0.67980400  0.29996200  1
  O  O18  1  0.85498700  0.73912500  0.05871800  1
  O  O19  1  0.33602600  0.70538000  0.45116000  1
  O  O20  1  0.33602600  0.79462000  0.95116000  1
  O  O21  1  0.85498700  0.76087500  0.55871800  1
  O  O22  1  0.95261000  0.82019600  0.79996200  1
  O  O23  1  0.52231900  0.81713100  0.71845700  1
  O  O24  1  0.27183700  0.93017000  0.21906000  1
  O  O25  1  0.79460600  0.97941400  0.34465600  1
loop_
_geom_bond_atom_site_label_1
_geom_bond_atom_site_label_2
_geom_bond_distance
_geom_bond_site_symmetry_2
Li0 O6 2.254551 1_555
Li0 O20 2.254551 1_544
Li0 O2 2.452092 1_554
Li0 O24 2.452092 1_545
Li1 O19 2.254551 1_555
Li1 O7 2.254551 1_555
Li1 O11 2.452092 1_555
Li1 O15 2.452092 1_555
Mn0 O9 1.893934 1_455
Mn0 O1 1.943587 1_455
Mn0 O0 1.950681 1_555
Mn0 O7 2.134516 1_555
Mn0 O5 2.142743 1_455
Mn0 O2 2.305948 1_555
Mn1 O4 1.893934 1_455
Mn1 O12 1.943587 1_455
Mn1 O13 1.950681 1_555
Mn1 O6 2.134516 1_555
Mn1 O8 2.142743 1_454
Mn1 O11 2.305948 1_555
Mn2 O22 1.893934 1_455
Mn2 O14 1.943587 1_455
Mn2 O13 1.950681 1_556
Mn2 O20 2.134516 1_555
Mn2 O18 2.142743 1_456
Mn2 O15 2.305948 1_555
Mn3 O17 1.893934 1_455
Mn3 O25 1.943587 1_455
Mn3 O0 1.950681 1_565
Mn3 O19 2.134516 1_555
Mn3 O21 2.142743 1_455
Mn3 O24 2.305948 1_555
H0 O0 0.980770 1_555
H1 O2 0.997521 1_565
H1 O23 1.770589 1_555
H2 O2 1.000226 1_555
H2 O10 1.682077 1_555
H3 O6 1.022036 1_555
H3 O3 1.602252 1_555
H4 O6 0.988277 1_556
H5 O7 0.988277 1_555
H6 O7 1.022036 1_555
H6 O10 1.602252 1_555
H7 O11 1.000226 1_555
H7 O3 1.682077 1_555
H8 O11 0.997521 1_555
H8 O16 1.770589 1_555
H9 O13 0.980770 1_555
H10 O15 0.997521 1_555
H10 O10 1.770589 1_555
H11 O15 1.000226 1_555
H11 O23 1.682077 1_555
H12 O19 1.022036 1_555
H12 O16 1.602252 1_555
H13 O19 0.988277 1_555
H14 O20 0.988277 1_554
H15 O20 1.022036 1_555
H15 O23 1.602252 1_555
H16 O24 1.000226 1_555
H16 O16 1.682077 1_555
H17 O24 0.997521 1_545
H17 O3 1.770589 1_555
O1 P3 1.561861 1_545
O3 P0 1.558946 1_555
O4 P0 1.563140 1_555
O5 P0 1.531523 1_555
O8 P1 1.531523 1_555
O9 P1 1.563140 1_555
O10 P1 1.558946 1_555
O12 P2 1.561861 1_555
O14 P1 1.561861 1_555
O16 P2 1.558946 1_555
O17 P2 1.563140 1_555
O18 P2 1.531523 1_555
O21 P3 1.531523 1_555
O22 P3 1.563140 1_555
O23 P3 1.558946 1_555
O25 P0 1.561861 1_565
