# generated using pymatgen
data_ScMnRh2
_symmetry_space_group_name_H-M   'P 1'
_cell_length_a   4.42598768
_cell_length_b   4.42598768
_cell_length_c   4.42598768
_cell_angle_alpha   59.89101927
_cell_angle_beta   59.89101927
_cell_angle_gamma   59.89101927
_symmetry_Int_Tables_number   1
_chemical_formula_structural   ScMnRh2
_chemical_formula_sum   'Sc1 Mn1 Rh2'
_cell_volume   61.15619518
_cell_formula_units_Z   1
loop_
 _symmetry_equiv_pos_site_id
 _symmetry_equiv_pos_as_xyz
  1  'x, y, z'
loop_
 _atom_site_type_symbol
 _atom_site_label
 _atom_site_symmetry_multiplicity
 _atom_site_fract_x
 _atom_site_fract_y
 _atom_site_fract_z
 _atom_site_occupancy
  Sc  Sc0  1  0.74999628  0.74999628  0.74999628  1
  Mn  Mn0  1  0.25000371  0.25000371  0.25000371  1
  Rh  Rh0  1  0.99997557  0.99997557  0.99997557  1
  Rh  Rh1  1  0.50002444  0.50002444  0.50002444  1
loop_
_geom_bond_atom_site_label_1
_geom_bond_atom_site_label_2
_geom_bond_distance
_geom_bond_site_symmetry_2
Mn0 Rh0 2.706530 1_445
Mn0 Rh0 2.706530 1_454
Mn0 Rh0 2.706530 1_544
Mn0 Rh1 2.706557 1_554
Mn0 Rh1 2.706557 1_545
Mn0 Rh1 2.706557 1_455
Mn0 Rh1 2.712808 1_555
Mn0 Rh0 2.712888 1_444
Rh0 Sc0 2.706707 1_556
Rh0 Sc0 2.706707 1_565
Rh0 Sc0 2.706707 1_655
Rh0 Sc0 2.712358 1_555
Rh1 Sc0 2.706734 1_545
Rh1 Sc0 2.706734 1_455
Rh1 Sc0 2.706734 1_554
Rh1 Sc0 2.712277 1_555
