# generated using pymatgen
data_DyThTc2
_symmetry_space_group_name_H-M   'P 1'
_cell_length_a   4.91850325
_cell_length_b   4.91850325
_cell_length_c   4.91850325
_cell_angle_alpha   60.00000000
_cell_angle_beta   60.00000000
_cell_angle_gamma   60.00000000
_symmetry_Int_Tables_number   1
_chemical_formula_structural   DyThTc2
_chemical_formula_sum   'Dy1 Th1 Tc2'
_cell_volume   84.13639305
_cell_formula_units_Z   1
loop_
 _symmetry_equiv_pos_site_id
 _symmetry_equiv_pos_as_xyz
  1  'x, y, z'
loop_
 _atom_site_type_symbol
 _atom_site_label
 _atom_site_symmetry_multiplicity
 _atom_site_fract_x
 _atom_site_fract_y
 _atom_site_fract_z
 _atom_site_occupancy
  Dy  Dy0  1  0.50000000  0.50000000  0.50000000  1
  Th  Th0  1  0.00000000  0.00000000  0.00000000  1
  Tc  Tc0  1  0.25000000  0.25000000  0.25000000  1
  Tc  Tc1  1  0.75000000  0.75000000  0.75000000  1
loop_
_geom_bond_atom_site_label_1
_geom_bond_atom_site_label_2
_geom_bond_distance
_geom_bond_site_symmetry_2
Dy0 Tc0 3.011956 1_655
Dy0 Tc1 3.011956 1_545
Dy0 Tc1 3.011956 1_455
Dy0 Tc0 3.011956 1_565
Dy0 Tc0 3.011956 1_556
Dy0 Tc0 3.011956 1_555
Dy0 Tc1 3.011956 1_555
Dy0 Tc1 3.011956 1_554
Tc0 Th0 3.011956 1_655
Tc0 Th0 3.011956 1_556
Tc0 Th0 3.011956 1_565
Tc0 Th0 3.011956 1_555
Tc1 Th0 3.011956 1_665
Tc1 Th0 3.011956 1_566
Tc1 Th0 3.011956 1_666
Tc1 Th0 3.011956 1_656
