# generated using pymatgen
data_Ce2AgPb
_symmetry_space_group_name_H-M   'P 1'
_cell_length_a   5.45107345
_cell_length_b   5.45107345
_cell_length_c   5.45107345
_cell_angle_alpha   60.00000000
_cell_angle_beta   60.00000000
_cell_angle_gamma   60.00000000
_symmetry_Int_Tables_number   1
_chemical_formula_structural   Ce2AgPb
_chemical_formula_sum   'Ce2 Ag1 Pb1'
_cell_volume   114.53312317
_cell_formula_units_Z   1
loop_
 _symmetry_equiv_pos_site_id
 _symmetry_equiv_pos_as_xyz
  1  'x, y, z'
loop_
 _atom_site_type_symbol
 _atom_site_label
 _atom_site_symmetry_multiplicity
 _atom_site_fract_x
 _atom_site_fract_y
 _atom_site_fract_z
 _atom_site_occupancy
  Ce  Ce0  1  0.25000000  0.25000000  0.25000000  1
  Ce  Ce1  1  0.75000000  0.75000000  0.75000000  1
  Ag  Ag0  1  0.00000000  0.00000000  0.00000000  1
  Pb  Pb0  1  0.50000000  0.50000000  0.50000000  1
loop_
_geom_bond_atom_site_label_1
_geom_bond_atom_site_label_2
_geom_bond_distance
_geom_bond_site_symmetry_2
Ce0 Pb0 3.338087 1_554
Ce0 Pb0 3.338087 1_555
Ce0 Pb0 3.338087 1_545
Ce0 Pb0 3.338087 1_455
Ce1 Pb0 3.338087 1_556
Ce1 Pb0 3.338087 1_565
Ce1 Pb0 3.338087 1_555
Ce1 Pb0 3.338087 1_655
Ag0 Ce0 3.338087 1_555
Ag0 Ce0 3.338087 1_545
Ag0 Ce1 3.338087 1_444
Ag0 Ce1 3.338087 1_445
Ag0 Ce1 3.338087 1_454
Ag0 Ce0 3.338087 1_554
Ag0 Ce1 3.338087 1_544
Ag0 Ce0 3.338087 1_455
