# generated using pymatgen
data_PaAgTe2
_symmetry_space_group_name_H-M   'P 1'
_cell_length_a   5.29714026
_cell_length_b   5.29714026
_cell_length_c   5.29714026
_cell_angle_alpha   60.00000000
_cell_angle_beta   60.00000000
_cell_angle_gamma   60.00000000
_symmetry_Int_Tables_number   1
_chemical_formula_structural   PaAgTe2
_chemical_formula_sum   'Pa1 Ag1 Te2'
_cell_volume   105.10162243
_cell_formula_units_Z   1
loop_
 _symmetry_equiv_pos_site_id
 _symmetry_equiv_pos_as_xyz
  1  'x, y, z'
loop_
 _atom_site_type_symbol
 _atom_site_label
 _atom_site_symmetry_multiplicity
 _atom_site_fract_x
 _atom_site_fract_y
 _atom_site_fract_z
 _atom_site_occupancy
  Pa  Pa0  1  -0.00000000  0.00000000  0.00000000  1
  Ag  Ag0  1  0.50000000  0.50000000  0.50000000  1
  Te  Te0  1  0.25000000  0.25000000  0.25000000  1
  Te  Te1  1  0.75000000  0.75000000  0.75000000  1
loop_
_geom_bond_atom_site_label_1
_geom_bond_atom_site_label_2
_geom_bond_distance
_geom_bond_site_symmetry_2
Pa0 Te0 3.243823 1_455
Pa0 Te0 3.243823 1_555
Pa0 Te0 3.243823 1_545
Pa0 Te1 3.243823 1_445
Pa0 Te1 3.243823 1_454
Pa0 Te1 3.243823 1_444
Pa0 Te1 3.243823 1_544
Pa0 Te0 3.243823 1_554
Ag0 Te0 3.243823 1_555
Ag0 Te1 3.243823 1_554
Ag0 Te0 3.243823 1_556
Ag0 Te1 3.243823 1_455
Ag0 Te1 3.243823 1_545
Ag0 Te0 3.243823 1_565
Ag0 Te0 3.243823 1_655
Ag0 Te1 3.243823 1_555
Ag0 Pa0 3.745644 1_556
Ag0 Pa0 3.745644 1_566
Ag0 Pa0 3.745644 1_565
Ag0 Pa0 3.745644 1_656
Ag0 Pa0 3.745644 1_655
Ag0 Pa0 3.745644 1_665
