# generated using pymatgen
data_Mn12O7F17
_symmetry_space_group_name_H-M   'P 1'
_cell_length_a   4.79426500
_cell_length_b   5.80726100
_cell_length_c   15.86193875
_cell_angle_alpha   90.51606209
_cell_angle_beta   90.22276576
_cell_angle_gamma   90.55556632
_symmetry_Int_Tables_number   1
_chemical_formula_structural   Mn12O7F17
_chemical_formula_sum   'Mn12 O7 F17'
_cell_volume   441.57876876
_cell_formula_units_Z   1
loop_
 _symmetry_equiv_pos_site_id
 _symmetry_equiv_pos_as_xyz
  1  'x, y, z'
loop_
 _atom_site_type_symbol
 _atom_site_label
 _atom_site_symmetry_multiplicity
 _atom_site_fract_x
 _atom_site_fract_y
 _atom_site_fract_z
 _atom_site_occupancy
  Mn  Mn0  1  0.00698500  0.16473900  0.59198900  1
  Mn  Mn1  1  0.97151900  0.86101700  0.75742500  1
  Mn  Mn2  1  0.01436600  0.16341800  0.91920800  1
  Mn  Mn3  1  0.95218000  0.17189300  0.25131500  1
  Mn  Mn4  1  0.97133900  0.84033200  0.40950600  1
  Mn  Mn5  1  0.00544600  0.83429800  0.08343000  1
  Mn  Mn6  1  0.52389800  0.33522800  0.41204300  1
  Mn  Mn7  1  0.48697000  0.34395900  0.08111200  1
  Mn  Mn8  1  0.50919600  0.32844600  0.73999400  1
  Mn  Mn9  1  0.50487300  0.65610100  0.91234100  1
  Mn  Mn10  1  0.48025400  0.64966800  0.58397600  1
  Mn  Mn11  1  0.51622500  0.63570200  0.25339100  1
  O  O0  1  0.78571800  0.11714400  0.69636300  1
  O  O1  1  0.77187200  0.11027500  0.35687500  1
  O  O2  1  0.79252500  0.89397200  0.86564900  1
  O  O3  1  0.71476700  0.60071600  0.35781300  1
  O  O4  1  0.70199800  0.38662200  0.19401400  1
  O  O5  1  0.27739800  0.38702400  0.97061700  1
  O  O6  1  0.29092200  0.36689600  0.63848200  1
  F  F0  1  0.78068500  0.11950300  0.02611900  1
  F  F1  1  0.77046300  0.89954100  0.53170300  1
  F  F2  1  0.75401800  0.88806100  0.18994600  1
  F  F3  1  0.73574900  0.38739300  0.85007800  1
  F  F4  1  0.73878900  0.61768700  0.69168900  1
  F  F5  1  0.74691000  0.39666300  0.52631100  1
  F  F6  1  0.73200100  0.60683200  0.02487800  1
  F  F7  1  0.27041000  0.61341400  0.79893300  1
  F  F8  1  0.26012100  0.61229200  0.46788100  1
  F  F9  1  0.28128700  0.62470100  0.14669700  1
  F  F10  1  0.24574400  0.37726800  0.30901000  1
  F  F11  1  0.24925200  0.11987500  0.81332800  1
  F  F12  1  0.23874600  0.11234200  0.47620200  1
  F  F13  1  0.21974300  0.87189200  0.65073200  1
  F  F14  1  0.26006100  0.89460400  0.97753200  1
  F  F15  1  0.19940600  0.13515800  0.14495300  1
  F  F16  1  0.23816300  0.87532500  0.29846500  1
loop_
_geom_bond_atom_site_label_1
_geom_bond_atom_site_label_2
_geom_bond_distance
_geom_bond_site_symmetry_2
Mn0 O6 1.928924 1_555
Mn0 O0 1.989688 1_455
Mn1 O2 1.930964 1_555
Mn1 O0 1.997219 1_565
Mn2 O5 1.970422 1_555
Mn2 O2 2.058660 1_445
Mn3 O1 1.922219 1_555
Mn3 O4 1.964862 1_555
Mn4 O3 2.014974 1_555
Mn4 O1 2.028632 1_565
Mn6 O1 1.975681 1_555
Mn6 O3 1.989212 1_555
Mn7 O5 2.035427 1_554
Mn7 O4 2.074599 1_555
Mn8 O6 1.932749 1_555
Mn8 O0 1.940521 1_555
Mn9 O2 2.085192 1_555
Mn9 O5 2.118100 1_555
Mn10 O6 2.066587 1_555
Mn11 O3 1.920500 1_555
Mn11 O4 1.944106 1_555
F0 Mn2 2.052557 1_654
F0 Mn7 2.113644 1_555
F0 Mn5 2.187431 1_645
F1 Mn0 2.122089 1_665
F1 Mn10 2.172656 1_555
F1 Mn4 2.193528 1_555
F2 Mn5 2.102073 1_655
F2 Mn11 2.112648 1_555
F2 Mn3 2.121446 1_565
F3 Mn8 2.076828 1_555
F3 Mn9 2.156345 1_555
F3 Mn2 2.174034 1_655
F4 Mn1 2.064655 1_555
F4 Mn10 2.117458 1_555
F4 Mn8 2.148012 1_555
F5 Mn0 2.121725 1_655
F5 Mn6 2.126385 1_555
F5 Mn10 2.156628 1_555
F6 Mn5 2.064214 1_655
F6 Mn9 2.110484 1_554
F6 Mn7 2.122257 1_555
F7 Mn9 2.128797 1_555
F7 Mn1 2.145714 1_455
F7 Mn8 2.222706 1_555
F8 Mn10 2.127268 1_555
F8 Mn4 2.139068 1_455
F8 Mn6 2.234959 1_555
F9 Mn11 2.029463 1_555
F9 Mn5 2.068916 1_555
F9 Mn7 2.172842 1_555
F10 Mn3 2.044156 1_455
F10 Mn6 2.122603 1_555
F10 Mn11 2.169629 1_555
F11 Mn2 2.040889 1_555
F11 Mn8 2.092999 1_555
F11 Mn1 2.178766 1_445
F12 Mn6 2.140146 1_555
F12 Mn0 2.170867 1_555
F12 Mn4 2.275545 1_445
F13 Mn1 2.073744 1_455
F13 Mn10 2.088893 1_555
F13 Mn0 2.203546 1_565
F14 Mn9 2.092929 1_555
F14 Mn5 2.110104 1_556
F14 Mn2 2.175668 1_565
F15 Mn3 2.076215 1_455
F15 Mn7 2.096903 1_555
F15 Mn5 2.190975 1_545
F16 Mn11 2.061606 1_555
F16 Mn4 2.190641 1_455
F16 Mn3 2.338024 1_465
