# generated using pymatgen
data_NaV10O15
_symmetry_space_group_name_H-M   'P 1'
_cell_length_a   7.86244136
_cell_length_b   7.86244136
_cell_length_c   9.72592200
_cell_angle_alpha   90.00000000
_cell_angle_beta   90.00000000
_cell_angle_gamma   97.51042508
_symmetry_Int_Tables_number   1
_chemical_formula_structural   NaV10O15
_chemical_formula_sum   'Na2 V20 O30'
_cell_volume   596.07893811
_cell_formula_units_Z   2
loop_
 _symmetry_equiv_pos_site_id
 _symmetry_equiv_pos_as_xyz
  1  'x, y, z'
loop_
 _atom_site_type_symbol
 _atom_site_label
 _atom_site_symmetry_multiplicity
 _atom_site_fract_x
 _atom_site_fract_y
 _atom_site_fract_z
 _atom_site_occupancy
  Na  Na0  1  0.00000000  0.00000000  0.00000000  1
  Na  Na1  1  0.50000000  0.50000000  0.50000000  1
  V  V0  1  0.18414400  0.18414400  0.63246500  1
  V  V1  1  0.31585600  0.31585600  0.13246500  1
  V  V2  1  0.07913100  0.59861500  0.11548400  1
  V  V3  1  0.09861500  0.57913100  0.38451600  1
  V  V4  1  0.57913100  0.09861500  0.38451600  1
  V  V5  1  0.59861500  0.07913100  0.11548400  1
  V  V6  1  0.28894600  0.54112100  0.85493900  1
  V  V7  1  0.04112100  0.78894600  0.64506100  1
  V  V8  1  0.78894600  0.04112100  0.64506100  1
  V  V9  1  0.54112100  0.28894600  0.85493900  1
  V  V10  1  0.71105400  0.45887900  0.14506100  1
  V  V11  1  0.21105400  0.95887900  0.35493900  1
  V  V12  1  0.95887900  0.21105400  0.35493900  1
  V  V13  1  0.45887900  0.71105400  0.14506100  1
  V  V14  1  0.40138500  0.92086900  0.88451600  1
  V  V15  1  0.92086900  0.40138500  0.88451600  1
  V  V16  1  0.90138500  0.42086900  0.61548400  1
  V  V17  1  0.42086900  0.90138500  0.61548400  1
  V  V18  1  0.68414400  0.68414400  0.86753500  1
  V  V19  1  0.81585600  0.81585600  0.36753500  1
  O  O0  1  0.15483000  0.15483000  0.24431900  1
  O  O1  1  0.13842500  0.39354300  0.99521500  1
  O  O2  1  0.39354300  0.13842500  0.99521500  1
  O  O3  1  0.10645700  0.36157500  0.49521500  1
  O  O4  1  0.36157500  0.10645700  0.49521500  1
  O  O5  1  0.56866500  0.06866500  0.75000000  1
  O  O6  1  0.06866500  0.56866500  0.75000000  1
  O  O7  1  0.34517000  0.34517000  0.74431900  1
  O  O8  1  0.03823200  0.78213700  0.26367400  1
  O  O9  1  0.28213700  0.53823200  0.23632600  1
  O  O10  1  0.53823200  0.28213700  0.23632600  1
  O  O11  1  0.78213700  0.03823200  0.26367400  1
  O  O12  1  0.25977200  0.74022800  0.00000000  1
  O  O13  1  0.74022800  0.25977200  0.00000000  1
  O  O14  1  0.00000000  0.00000000  0.50000000  1
  O  O15  1  0.50000000  0.50000000  0.00000000  1
  O  O16  1  0.75977200  0.24022800  0.50000000  1
  O  O17  1  0.24022800  0.75977200  0.50000000  1
  O  O18  1  0.96176800  0.21786300  0.73632600  1
  O  O19  1  0.71786300  0.46176800  0.76367400  1
  O  O20  1  0.46176800  0.71786300  0.76367400  1
  O  O21  1  0.21786300  0.96176800  0.73632600  1
  O  O22  1  0.65483000  0.65483000  0.25568100  1
  O  O23  1  0.43133500  0.93133500  0.25000000  1
  O  O24  1  0.93133500  0.43133500  0.25000000  1
  O  O25  1  0.89354300  0.63842500  0.50478500  1
  O  O26  1  0.63842500  0.89354300  0.50478500  1
  O  O27  1  0.86157500  0.60645700  0.00478500  1
  O  O28  1  0.60645700  0.86157500  0.00478500  1
  O  O29  1  0.84517000  0.84517000  0.75568100  1
loop_
_geom_bond_atom_site_label_1
_geom_bond_atom_site_label_2
_geom_bond_distance
_geom_bond_site_symmetry_2
Na0 O0 2.867561 1_555
Na0 O29 2.867561 1_444
Na1 O7 2.867561 1_555
Na1 O22 2.867561 1_555
O0 V12 1.976003 1_455
O0 V11 1.976003 1_545
O0 V1 1.992555 1_555
O1 V15 2.028899 1_455
O1 V6 2.061386 1_555
O1 V1 2.079397 1_556
O1 V2 2.093281 1_556
O2 V14 2.028899 1_545
O2 V9 2.061386 1_555
O2 V1 2.079397 1_556
O2 V5 2.093281 1_556
O3 V3 2.028899 1_555
O3 V12 2.061386 1_455
O3 V0 2.079397 1_555
O3 V16 2.093281 1_455
O4 V4 2.028899 1_555
O4 V11 2.061386 1_545
O4 V0 2.079397 1_555
O4 V17 2.093281 1_545
O5 V8 2.046038 1_555
O5 V9 2.046038 1_555
O5 V14 2.095771 1_545
O5 V17 2.095771 1_545
O6 V7 2.046038 1_555
O6 V6 2.046038 1_555
O6 V15 2.095771 1_455
O6 V16 2.095771 1_455
O7 V6 1.976003 1_555
O7 V9 1.976003 1_555
O7 V0 1.992555 1_555
O8 V11 2.017843 1_555
O8 V19 2.066111 1_455
O8 V3 2.086246 1_555
O8 V2 2.093812 1_555
O9 V13 2.017843 1_555
O9 V1 2.066111 1_555
O9 V2 2.086246 1_555
O9 V3 2.093812 1_555
O10 V10 2.017843 1_555
O10 V1 2.066111 1_555
O10 V5 2.086246 1_555
O10 V4 2.093812 1_555
O11 V12 2.017843 1_555
O11 V19 2.066111 1_545
O11 V4 2.086246 1_555
O11 V5 2.093812 1_555
O12 V14 2.026096 1_554
O12 V2 2.026096 1_555
O12 V13 2.141886 1_555
O12 V6 2.141886 1_554
O13 V15 2.026096 1_554
O13 V5 2.026096 1_555
O13 V10 2.141886 1_555
O13 V9 2.141886 1_554
O14 V12 2.233582 1_455
O14 V11 2.233582 1_545
O14 V7 2.233582 1_545
O14 V8 2.233582 1_455
O14 V0 2.303092 1_555
O14 V19 2.303092 1_445
O15 V13 2.233582 1_555
O15 V9 2.233582 1_554
O15 V10 2.233582 1_555
O15 V6 2.233582 1_554
O15 V18 2.303092 1_554
O15 V1 2.303092 1_555
O16 V16 2.026096 1_555
O16 V4 2.026096 1_555
O16 V12 2.141886 1_555
O16 V8 2.141886 1_555
O17 V17 2.026096 1_555
O17 V3 2.026096 1_555
O17 V11 2.141886 1_555
O17 V7 2.141886 1_555
O18 V8 2.017843 1_555
O18 V0 2.066111 1_655
O18 V16 2.086246 1_555
O18 V15 2.093812 1_555
O19 V9 2.017843 1_555
O19 V18 2.066111 1_555
O19 V15 2.086246 1_555
O19 V16 2.093812 1_555
O20 V6 2.017843 1_555
O20 V18 2.066111 1_555
O20 V14 2.086246 1_555
O20 V17 2.093812 1_555
O21 V7 2.017843 1_555
O21 V0 2.066111 1_565
O21 V17 2.086246 1_555
O21 V14 2.093812 1_555
O22 V13 1.976003 1_555
O22 V10 1.976003 1_555
O22 V19 1.992555 1_555
O23 V11 2.046038 1_555
O23 V13 2.046038 1_555
O23 V4 2.095771 1_565
O23 V5 2.095771 1_565
O24 V12 2.046038 1_555
O24 V10 2.046038 1_555
O24 V3 2.095771 1_655
O24 V2 2.095771 1_655
O25 V16 2.028899 1_555
O25 V7 2.061386 1_655
O25 V19 2.079397 1_555
O25 V3 2.093281 1_655
O26 V17 2.028899 1_555
O26 V8 2.061386 1_565
O26 V19 2.079397 1_555
O26 V4 2.093281 1_565
O27 V2 2.028899 1_655
O27 V10 2.061386 1_555
O27 V18 2.079397 1_554
O27 V15 2.093281 1_554
O28 V5 2.028899 1_565
O28 V13 2.061386 1_555
O28 V18 2.079397 1_554
O28 V14 2.093281 1_554
O29 V7 1.976003 1_655
O29 V8 1.976003 1_565
O29 V18 1.992555 1_555
