# generated using pymatgen
data_LiCo3(SiO4)2
_symmetry_space_group_name_H-M   'P 1'
_cell_length_a   5.02877500
_cell_length_b   8.81065494
_cell_length_c   13.38341999
_cell_angle_alpha   108.99503842
_cell_angle_beta   98.93452016
_cell_angle_gamma   91.01664293
_symmetry_Int_Tables_number   1
_chemical_formula_structural   LiCo3(SiO4)2
_chemical_formula_sum   'Li3 Co9 Si6 O24'
_cell_volume   552.40156185
_cell_formula_units_Z   3
loop_
 _symmetry_equiv_pos_site_id
 _symmetry_equiv_pos_as_xyz
  1  'x, y, z'
loop_
 _atom_site_type_symbol
 _atom_site_label
 _atom_site_symmetry_multiplicity
 _atom_site_fract_x
 _atom_site_fract_y
 _atom_site_fract_z
 _atom_site_occupancy
  Li  Li0  1  0.38789900  0.61319800  0.68314100  1
  Li  Li1  1  0.48805700  0.11285500  0.85330900  1
  Li  Li2  1  0.71274400  0.34658000  0.36126000  1
  Co  Co0  1  0.26776200  0.21450700  0.49207600  1
  Co  Co1  1  0.27960500  0.86593500  0.33792100  1
  Co  Co2  1  0.21188200  0.45058400  0.18259500  1
  Co  Co3  1  0.91627900  0.59784200  0.84212000  1
  Co  Co4  1  0.99043300  0.01408400  0.99711700  1
  Co  Co5  1  0.68545500  0.92329100  0.18756400  1
  Co  Co6  1  0.61028400  0.52184200  0.03908800  1
  Co  Co7  1  0.87522700  0.70613500  0.53565200  1
  Co  Co8  1  0.95101300  0.12544200  0.68855700  1
  Si  Si0  1  0.03522800  0.31506900  0.93367700  1
  Si  Si1  1  0.47059500  0.79601800  0.94078800  1
  Si  Si2  1  0.18729300  0.14730300  0.25331800  1
  Si  Si3  1  0.40664100  0.93276600  0.59505700  1
  Si  Si4  1  0.83019700  0.41001700  0.59950800  1
  Si  Si5  1  0.75467500  0.64832500  0.28279600  1
  O  O0  1  0.02359300  0.26046700  0.60193300  1
  O  O1  1  0.03446800  0.55177000  0.58873400  1
  O  O2  1  0.09190300  0.90670000  0.61586900  1
  O  O3  1  0.16358000  0.23042600  0.82686300  1
  O  O4  1  0.03488400  0.20356600  0.35830700  1
  O  O5  1  0.33673500  0.96913000  0.96058300  1
  O  O6  1  0.27747900  0.65535700  0.84208800  1
  O  O7  1  0.38327200  0.99574800  0.49018100  1
  O  O8  1  0.53633000  0.75590200  0.57263800  1
  O  O9  1  0.58474500  0.06526500  0.70031800  1
  O  O10  1  0.40228100  0.01352600  0.26804700  1
  O  O11  1  0.28554300  0.39246700  0.03484700  1
  O  O12  1  0.36158600  0.29644100  0.24181000  1
  O  O13  1  0.42463100  0.65820100  0.26484500  1
  O  O14  1  0.58268100  0.34757600  0.49808300  1
  O  O15  1  0.76639100  0.81072000  0.90236600  1
  O  O16  1  0.70202100  0.48860100  0.70915400  1
  O  O17  1  0.83649300  0.18535500  0.95733300  1
  O  O18  1  0.84803700  0.46672900  0.92696800  1
  O  O19  1  0.52692100  0.74711800  0.05093900  1
  O  O20  1  0.85623200  0.59771800  0.38954300  1
  O  O21  1  0.83528600  0.51234000  0.17603000  1
  O  O22  1  0.88700300  0.82496300  0.29200500  1
  O  O23  1  0.95400300  0.05377300  0.14603300  1
loop_
_geom_bond_atom_site_label_1
_geom_bond_atom_site_label_2
_geom_bond_distance
_geom_bond_site_symmetry_2
Li0 O1 1.967588 1_555
Li0 O16 1.990258 1_555
Li0 O6 2.198036 1_555
Li0 O8 2.417684 1_555
Li1 O3 1.995017 1_555
Li1 O17 2.010008 1_555
Li1 O9 2.088598 1_555
Li1 O5 2.394257 1_545
Li2 O14 2.035380 1_555
Li2 O4 2.067241 1_655
Li2 O12 2.122483 1_555
Li2 O20 2.207537 1_555
Co0 O14 1.929306 1_555
Co0 O4 1.954047 1_555
Co0 O0 2.006025 1_555
Co0 O7 2.016296 1_545
Co1 O22 1.964506 1_455
Co1 O7 1.965718 1_555
Co1 O10 1.971903 1_565
Co1 O13 1.985432 1_555
Co2 O12 1.894953 1_555
Co2 O11 1.970924 1_555
Co2 O21 1.976441 1_455
Co2 O13 1.989075 1_555
Co3 O16 1.872623 1_555
Co3 O6 1.877178 1_655
Co3 O18 1.924223 1_555
Co3 O15 1.997648 1_555
Co4 O5 1.895145 1_645
Co4 O17 1.896403 1_555
Co4 O23 1.946770 1_556
Co4 O15 2.023204 1_545
Co5 O10 1.944035 1_565
Co5 O19 2.010982 1_555
Co5 O23 2.012061 1_565
Co5 O22 2.027556 1_555
Co6 O11 1.957660 1_555
Co6 O19 1.996420 1_555
Co6 O18 2.005105 1_554
Co6 O21 2.026171 1_555
Co7 O20 1.862289 1_555
Co7 O1 1.867252 1_655
Co7 O8 1.867878 1_555
Co7 O2 1.948294 1_655
Co8 O3 1.913175 1_655
Co8 O9 1.951443 1_555
Co8 O0 1.976458 1_655
Co8 O2 2.050544 1_645
O0 Si4 1.657276 1_455
O1 Si4 1.659384 1_455
O2 Si3 1.673645 1_555
O3 Si0 1.620503 1_555
O4 Si2 1.643791 1_555
O5 Si1 1.636592 1_555
O6 Si1 1.648348 1_555
O7 Si3 1.658293 1_555
O8 Si3 1.654116 1_555
O9 Si3 1.627882 1_545
O10 Si2 1.651427 1_555
O11 Si0 1.649830 1_554
O12 Si2 1.628296 1_555
O13 Si5 1.647674 1_555
O14 Si4 1.630731 1_555
O15 Si1 1.663712 1_555
O16 Si4 1.642090 1_555
O17 Si0 1.642697 1_655
O18 Si0 1.666183 1_655
O19 Si1 1.651425 1_554
O20 Si5 1.642184 1_555
O21 Si5 1.650530 1_555
O22 Si5 1.641031 1_555
O23 Si2 1.670107 1_655
