# generated using pymatgen
data_LuThRu2
_symmetry_space_group_name_H-M   'P 1'
_cell_length_a   4.85484299
_cell_length_b   4.85484299
_cell_length_c   4.85484299
_cell_angle_alpha   60.00000000
_cell_angle_beta   60.00000000
_cell_angle_gamma   60.00000000
_symmetry_Int_Tables_number   1
_chemical_formula_structural   LuThRu2
_chemical_formula_sum   'Lu1 Th1 Ru2'
_cell_volume   80.91155900
_cell_formula_units_Z   1
loop_
 _symmetry_equiv_pos_site_id
 _symmetry_equiv_pos_as_xyz
  1  'x, y, z'
loop_
 _atom_site_type_symbol
 _atom_site_label
 _atom_site_symmetry_multiplicity
 _atom_site_fract_x
 _atom_site_fract_y
 _atom_site_fract_z
 _atom_site_occupancy
  Lu  Lu0  1  0.25000000  0.25000000  0.25000000  1
  Th  Th0  1  0.75000000  0.75000000  0.75000000  1
  Ru  Ru0  1  -0.00000000  0.00000000  0.00000000  1
  Ru  Ru1  1  0.49999900  0.49999900  0.49999900  1
loop_
_geom_bond_atom_site_label_1
_geom_bond_atom_site_label_2
_geom_bond_distance
_geom_bond_site_symmetry_2
Lu0 Ru1 2.972960 1_555
Lu0 Ru0 2.972972 1_555
Lu0 Ru0 2.972972 1_565
Lu0 Ru0 2.972972 1_655
Lu0 Ru0 2.972972 1_556
Lu0 Ru1 2.972976 1_455
Lu0 Ru1 2.972976 1_545
Lu0 Ru1 2.972976 1_554
Ru0 Th0 2.972972 1_454
Ru0 Th0 2.972972 1_445
Ru0 Th0 2.972972 1_544
Ru0 Th0 2.972972 1_444
Ru1 Th0 2.972968 1_545
Ru1 Th0 2.972968 1_554
Ru1 Th0 2.972968 1_455
Ru1 Th0 2.972984 1_555
