# generated using pymatgen
data_Na4V2C4SO16
_symmetry_space_group_name_H-M   'P 1'
_cell_length_a   10.00972053
_cell_length_b   9.98926192
_cell_length_c   9.80560557
_cell_angle_alpha   60.74359621
_cell_angle_beta   60.53522029
_cell_angle_gamma   58.72118350
_symmetry_Int_Tables_number   1
_chemical_formula_structural   Na4V2C4SO16
_chemical_formula_sum   'Na8 V4 C8 S2 O32'
_cell_volume   692.77347248
_cell_formula_units_Z   2
loop_
 _symmetry_equiv_pos_site_id
 _symmetry_equiv_pos_as_xyz
  1  'x, y, z'
loop_
 _atom_site_type_symbol
 _atom_site_label
 _atom_site_symmetry_multiplicity
 _atom_site_fract_x
 _atom_site_fract_y
 _atom_site_fract_z
 _atom_site_occupancy
  Na  Na0  1  0.29072800  0.70927200  0.70927200  1
  Na  Na1  1  0.70884200  0.29115800  0.70884200  1
  Na  Na2  1  0.95884200  0.54115800  0.95884200  1
  Na  Na3  1  0.54072800  0.95927200  0.95927200  1
  Na  Na4  1  0.70927200  0.29072800  0.29072800  1
  Na  Na5  1  0.29115800  0.70884200  0.29115800  1
  Na  Na6  1  0.54115800  0.95884200  0.54115800  1
  Na  Na7  1  0.95927200  0.54072800  0.54072800  1
  V  V0  1  0.12500000  0.12500000  0.62500000  1
  V  V1  1  0.12500000  0.12500000  0.12500000  1
  V  V2  1  0.12500000  0.62500000  0.12500000  1
  V  V3  1  0.62500000  0.12500000  0.12500000  1
  C  C0  1  0.33267400  0.33567300  0.98494500  1
  C  C1  1  0.91432700  0.91732600  0.90329100  1
  C  C2  1  0.34670900  0.98494500  0.33567300  1
  C  C3  1  0.98494500  0.34670900  0.33267400  1
  C  C4  1  0.26505500  0.90329100  0.91732600  1
  C  C5  1  0.90329100  0.26505500  0.91432700  1
  C  C6  1  0.33567300  0.33267400  0.34670900  1
  C  C7  1  0.91732600  0.91432700  0.26505500  1
  S  S0  1  0.75000000  0.75000000  0.75000000  1
  S  S1  1  0.50000000  0.50000000  0.50000000  1
  O  O0  1  0.30081300  0.48098100  0.98110600  1
  O  O1  1  0.93476100  0.68199800  0.69120500  1
  O  O2  1  0.21846900  0.30754500  0.98867300  1
  O  O3  1  0.94245500  0.03153100  0.76468600  1
  O  O4  1  0.48531400  0.98867300  0.30754500  1
  O  O5  1  0.02683400  0.77111400  0.93024800  1
  O  O6  1  0.69203600  0.69120500  0.68199800  1
  O  O7  1  0.68199800  0.93476100  0.69203600  1
  O  O8  1  0.93024800  0.27180400  0.02683400  1
  O  O9  1  0.98867300  0.48531400  0.21846900  1
  O  O10  1  0.76901900  0.94918700  0.01290000  1
  O  O11  1  0.69120500  0.69203600  0.93476100  1
  O  O12  1  0.23710000  0.98110600  0.48098100  1
  O  O13  1  0.98110600  0.23710000  0.30081300  1
  O  O14  1  0.47888600  0.22316600  0.97819600  1
  O  O15  1  0.27180400  0.93024800  0.77111400  1
  O  O16  1  0.97819600  0.31975200  0.47888600  1
  O  O17  1  0.77111400  0.02683400  0.27180400  1
  O  O18  1  0.26889400  0.01290000  0.94918700  1
  O  O19  1  0.01290000  0.26889400  0.76901900  1
  O  O20  1  0.55879500  0.55796400  0.31523900  1
  O  O21  1  0.48098100  0.30081300  0.23710000  1
  O  O22  1  0.26132700  0.76468600  0.03153100  1
  O  O23  1  0.31975200  0.97819600  0.22316600  1
  O  O24  1  0.56800200  0.31523900  0.55796400  1
  O  O25  1  0.55796400  0.55879500  0.56800200  1
  O  O26  1  0.22316600  0.47888600  0.31975200  1
  O  O27  1  0.76468600  0.26132700  0.94245500  1
  O  O28  1  0.30754500  0.21846900  0.48531400  1
  O  O29  1  0.03153100  0.94245500  0.26132700  1
  O  O30  1  0.31523900  0.56800200  0.55879500  1
  O  O31  1  0.94918700  0.76901900  0.26889400  1
loop_
_geom_bond_atom_site_label_1
_geom_bond_atom_site_label_2
_geom_bond_distance
_geom_bond_site_symmetry_2
Na0 O25 2.355496 1_555
Na0 O30 2.355496 1_555
Na0 O15 2.457096 1_555
Na0 O5 2.457096 1_555
Na0 O0 2.529785 1_555
Na0 O12 2.529785 1_555
Na1 O25 2.363458 1_555
Na1 O24 2.363458 1_555
Na1 O27 2.463365 1_555
Na1 O3 2.463369 1_555
Na1 O14 2.573824 1_555
Na1 O16 2.573824 1_555
Na2 O1 2.363458 1_555
Na2 O11 2.363458 1_555
Na2 O2 2.463371 1_655
Na2 O9 2.463374 1_556
Na2 O5 2.573824 1_655
Na2 O8 2.573824 1_556
Na3 O7 2.355496 1_555
Na3 O11 2.355496 1_555
Na3 O23 2.457096 1_556
Na3 O14 2.457096 1_565
Na3 O18 2.529785 1_565
Na3 O10 2.529785 1_556
Na4 O24 2.355496 1_555
Na4 O20 2.355496 1_555
Na4 O8 2.457096 1_555
Na4 O17 2.457096 1_555
Na4 O13 2.529785 1_555
Na4 O21 2.529785 1_555
Na5 O20 2.363458 1_555
Na5 O30 2.363458 1_555
Na5 O29 2.463371 1_555
Na5 O22 2.463374 1_555
Na5 O26 2.573824 1_555
Na5 O23 2.573824 1_555
Na6 O7 2.363458 1_555
Na6 O6 2.363458 1_555
Na6 O4 2.463365 1_555
Na6 O28 2.463369 1_565
Na6 O17 2.573824 1_565
Na6 O15 2.573824 1_555
Na7 O6 2.355496 1_555
Na7 O1 2.355496 1_555
Na7 O16 2.457096 1_555
Na7 O26 2.457096 1_655
Na7 O31 2.529785 1_555
Na7 O19 2.529785 1_655
C0 O2 1.292087 1_555
C0 O14 1.295694 1_555
C0 O0 1.299131 1_555
C1 O3 1.292087 1_565
C1 O5 1.295695 1_655
C1 O10 1.299135 1_556
C2 O4 1.292087 1_555
C2 O23 1.295700 1_555
C2 O12 1.299134 1_555
C3 O9 1.292087 1_555
C3 O16 1.295691 1_555
C3 O13 1.299141 1_555
C4 O22 1.292087 1_556
C4 O15 1.295691 1_555
C4 O18 1.299141 1_565
C5 O27 1.292087 1_555
C5 O8 1.295700 1_556
C5 O19 1.299134 1_655
C6 O28 1.292087 1_555
C6 O26 1.295695 1_555
C6 O21 1.299135 1_555
C7 O29 1.292087 1_655
C7 O17 1.295694 1_565
C7 O31 1.299131 1_555
O0 V2 2.017382 1_556
O1 S0 1.497814 1_555
O2 V1 2.036176 1_556
O3 V0 2.036176 1_655
O4 V3 2.036170 1_565
O5 V2 2.091657 1_556
O6 S0 1.497814 1_555
O7 S0 1.497814 1_555
O8 V1 2.091657 1_655
O9 V2 2.036168 1_655
O10 V3 2.017382 1_565
O11 S0 1.497814 1_555
O12 V0 2.017382 1_565
O13 V1 2.017382 1_655
O14 V3 2.091657 1_556
O15 V0 2.091657 1_565
O16 V0 2.091657 1_655
O17 V3 2.091657 1_555
O18 V1 2.017382 1_556
O19 V0 2.017382 1_555
O20 S1 1.497814 1_555
O21 V3 2.017382 1_555
O22 V2 2.036168 1_555
O23 V1 2.091657 1_565
O24 S1 1.497814 1_555
O25 S1 1.497814 1_555
O26 V2 2.091657 1_555
O27 V3 2.036170 1_556
O28 V0 2.036176 1_555
O29 V1 2.036176 1_565
O30 S1 1.497814 1_555
O31 V2 2.017382 1_655
