# generated using pymatgen
data_LiMn4(BO3)4
_symmetry_space_group_name_H-M   'P 1'
_cell_length_a   6.17643000
_cell_length_b   7.77212534
_cell_length_c   10.36268726
_cell_angle_alpha   91.13179400
_cell_angle_beta   90.33528882
_cell_angle_gamma   96.20729281
_symmetry_Int_Tables_number   1
_chemical_formula_structural   LiMn4(BO3)4
_chemical_formula_sum   'Li2 Mn8 B8 O24'
_cell_volume   494.42142250
_cell_formula_units_Z   2
loop_
 _symmetry_equiv_pos_site_id
 _symmetry_equiv_pos_as_xyz
  1  'x, y, z'
loop_
 _atom_site_type_symbol
 _atom_site_label
 _atom_site_symmetry_multiplicity
 _atom_site_fract_x
 _atom_site_fract_y
 _atom_site_fract_z
 _atom_site_occupancy
  Li  Li0  1  0.36828400  0.69109000  0.79338300  1
  Li  Li1  1  0.63171600  0.30891000  0.20661700  1
  Mn  Mn0  1  0.54494900  0.81470900  0.53145800  1
  Mn  Mn1  1  0.92239100  0.67422600  0.70008100  1
  Mn  Mn2  1  0.07760900  0.32577400  0.29991900  1
  Mn  Mn3  1  0.56166500  0.81424000  0.05635100  1
  Mn  Mn4  1  0.45505100  0.18529100  0.46854200  1
  Mn  Mn5  1  0.95887100  0.69760000  0.20965800  1
  Mn  Mn6  1  0.04112900  0.30240000  0.79034200  1
  Mn  Mn7  1  0.43833500  0.18576000  0.94364900  1
  B  B0  1  0.25462700  0.48491900  0.55556300  1
  B  B1  1  0.74733700  0.00533800  0.29475800  1
  B  B2  1  0.24560500  0.50326000  0.03577000  1
  B  B3  1  0.71812300  0.98720100  0.78726700  1
  B  B4  1  0.25266300  0.99466200  0.70524200  1
  B  B5  1  0.74537300  0.51508100  0.44443700  1
  B  B6  1  0.28187700  0.01279900  0.21273300  1
  B  B7  1  0.75439500  0.49674000  0.96423000  1
  O  O0  1  0.34091100  0.98509600  0.58066100  1
  O  O1  1  0.15954100  0.88420500  0.27369400  1
  O  O2  1  0.65609500  0.82568500  0.72763900  1
  O  O3  1  0.18849300  0.50429400  0.68298300  1
  O  O4  1  0.36442800  0.98976400  0.08891100  1
  O  O5  1  0.34001200  0.62203100  0.48562000  1
  O  O6  1  0.16211600  0.85531400  0.76666700  1
  O  O7  1  0.21171700  0.32253400  0.49291700  1
  O  O8  1  0.71400400  0.84108700  0.23096800  1
  O  O9  1  0.15630100  0.52333900  0.15785300  1
  O  O10  1  0.78828300  0.67746600  0.50708300  1
  O  O11  1  0.35783400  0.63718200  0.97259000  1
  O  O12  1  0.65998800  0.37796900  0.51438000  1
  O  O13  1  0.20907700  0.33907500  0.97458000  1
  O  O14  1  0.81150700  0.49570600  0.31701700  1
  O  O15  1  0.34390500  0.17431500  0.27236100  1
  O  O16  1  0.79092300  0.66092500  0.02542000  1
  O  O17  1  0.84045900  0.11579500  0.72630600  1
  O  O18  1  0.64216600  0.36281800  0.02741000  1
  O  O19  1  0.65908900  0.01490400  0.41933900  1
  O  O20  1  0.84369900  0.47666100  0.84214700  1
  O  O21  1  0.28599600  0.15891300  0.76903200  1
  O  O22  1  0.83788400  0.14468600  0.23333300  1
  O  O23  1  0.63557200  0.01023600  0.91108900  1
loop_
_geom_bond_atom_site_label_1
_geom_bond_atom_site_label_2
_geom_bond_distance
_geom_bond_site_symmetry_2
Li0 O11 1.911726 1_555
Li0 O6 1.920567 1_555
Li0 O3 2.054404 1_555
Li0 O2 2.087741 1_555
Li1 O18 1.911726 1_555
Li1 O22 1.920567 1_555
Li1 O14 2.054404 1_555
Li1 O15 2.087741 1_555
Mn0 O5 1.904032 1_555
Mn0 O10 1.949585 1_555
Mn0 O0 1.985844 1_555
Mn0 O19 2.027719 1_565
Mn0 O2 2.139071 1_555
Mn1 O6 2.036746 1_655
Mn1 O2 2.140887 1_555
Mn1 O10 2.161886 1_555
Mn1 O20 2.167396 1_555
Mn1 O3 2.222746 1_655
Mn2 O22 2.036746 1_455
Mn2 O15 2.140887 1_555
Mn2 O7 2.161886 1_555
Mn2 O9 2.167396 1_555
Mn2 O14 2.222746 1_455
Mn3 O11 1.948699 1_554
Mn3 O4 1.950627 1_555
Mn3 O16 1.970471 1_555
Mn3 O8 2.031219 1_555
Mn3 O23 2.177850 1_564
Mn4 O12 1.904032 1_555
Mn4 O7 1.949585 1_555
Mn4 O19 1.985844 1_555
Mn4 O0 2.027719 1_545
Mn4 O15 2.139071 1_555
Mn5 O1 1.908813 1_655
Mn5 O8 1.984620 1_555
Mn5 O9 1.986351 1_655
Mn5 O14 2.073724 1_555
Mn5 O16 2.166497 1_555
Mn6 O17 1.908813 1_455
Mn6 O21 1.984620 1_555
Mn6 O20 1.986351 1_455
Mn6 O3 2.073724 1_555
Mn6 O13 2.166497 1_555
Mn7 O18 1.948699 1_556
Mn7 O23 1.950627 1_555
Mn7 O13 1.970471 1_555
Mn7 O21 2.031219 1_555
Mn7 O4 2.177850 1_546
B0 O5 1.361074 1_555
B0 O3 1.394552 1_555
B0 O7 1.406343 1_555
B1 O22 1.338398 1_555
B1 O19 1.408008 1_555
B1 O8 1.420297 1_545
B2 O11 1.367017 1_554
B2 O9 1.395734 1_555
B2 O13 1.409050 1_554
B3 O17 1.355034 1_565
B3 O23 1.398843 1_565
B3 O2 1.402499 1_555
B4 O6 1.338398 1_555
B4 O0 1.408008 1_555
B4 O21 1.420297 1_565
B5 O12 1.361074 1_555
B5 O14 1.394552 1_555
B5 O10 1.406343 1_555
B6 O1 1.355034 1_545
B6 O4 1.398843 1_545
B6 O15 1.402499 1_555
B7 O18 1.367017 1_556
B7 O20 1.395734 1_555
B7 O16 1.409050 1_556
