# generated using pymatgen
data_Sb16Cl4O21
_symmetry_space_group_name_H-M   'P 1'
_cell_length_a   8.33428400
_cell_length_b   10.01318468
_cell_length_c   10.47096962
_cell_angle_alpha   108.32898571
_cell_angle_beta   91.27334319
_cell_angle_gamma   102.50597927
_symmetry_Int_Tables_number   1
_chemical_formula_structural   Sb16Cl4O21
_chemical_formula_sum   'Sb16 Cl4 O21'
_cell_volume   805.96226209
_cell_formula_units_Z   1
loop_
 _symmetry_equiv_pos_site_id
 _symmetry_equiv_pos_as_xyz
  1  'x, y, z'
loop_
 _atom_site_type_symbol
 _atom_site_label
 _atom_site_symmetry_multiplicity
 _atom_site_fract_x
 _atom_site_fract_y
 _atom_site_fract_z
 _atom_site_occupancy
  Sb  Sb0  1  0.75687500  0.02680400  0.71311900  1
  Sb  Sb1  1  0.25625700  0.03101600  0.72085300  1
  Sb  Sb2  1  0.50206700  0.15833900  0.96624500  1
  Sb  Sb3  1  0.02632000  0.17521500  0.98503900  1
  Sb  Sb4  1  0.90822800  0.46739300  0.83834000  1
  Sb  Sb5  1  0.34115900  0.46139500  0.82819600  1
  Sb  Sb6  1  0.84730500  0.35450700  0.36846100  1
  Sb  Sb7  1  0.39312900  0.35660600  0.35740500  1
  Sb  Sb8  1  0.65243800  0.64415200  0.62810500  1
  Sb  Sb9  1  0.11195800  0.64837500  0.64343600  1
  Sb  Sb10  1  0.16044100  0.53973400  0.17214800  1
  Sb  Sb11  1  0.59174700  0.53061800  0.15506100  1
  Sb  Sb12  1  0.95863800  0.83538400  0.02435300  1
  Sb  Sb13  1  0.45906900  0.83171900  0.02378200  1
  Sb  Sb14  1  0.74956100  0.97349400  0.29189100  1
  Sb  Sb15  1  0.25157500  0.97990900  0.29078800  1
  Cl  Cl0  1  0.55035800  0.25374700  0.52059700  1
  Cl  Cl1  1  0.07032000  0.26178600  0.52190500  1
  Cl  Cl2  1  0.43615600  0.73928000  0.47714500  1
  Cl  Cl3  1  0.95087700  0.74731400  0.48014500  1
  O  O0  1  0.52690500  0.05948400  0.76790100  1
  O  O1  1  0.02610900  0.07710600  0.78567700  1
  O  O2  1  0.79215400  0.15079400  0.91621500  1
  O  O3  1  0.58525400  0.37351000  0.98081300  1
  O  O4  1  0.08724900  0.38888100  0.98278100  1
  O  O5  1  0.78874900  0.15437700  0.24246800  1
  O  O6  1  0.30442500  0.15831800  0.23253300  1
  O  O7  1  0.14793900  0.55514900  0.81088000  1
  O  O8  1  0.62161900  0.39631300  0.27508200  1
  O  O9  1  0.02107900  0.40083600  0.24768200  1
  O  O10  1  0.88037000  0.60233700  0.72210700  1
  O  O11  1  0.47604100  0.59337800  0.74519000  1
  O  O12  1  0.35269500  0.44402700  0.18791500  1
  O  O13  1  0.71635900  0.84265200  0.75699000  1
  O  O14  1  0.19886900  0.84509400  0.77139800  1
  O  O15  1  0.90159600  0.62179900  0.01201300  1
  O  O16  1  0.41233400  0.61281200  0.01793800  1
  O  O17  1  0.71127600  0.84336600  0.09275600  1
  O  O18  1  0.21094700  0.84390000  0.09365500  1
  O  O19  1  0.98878700  0.93898400  0.22636700  1
  O  O20  1  0.48771700  0.93190300  0.22582500  1
loop_
_geom_bond_atom_site_label_1
_geom_bond_atom_site_label_2
_geom_bond_distance
_geom_bond_site_symmetry_2
Cl0 Sb7 2.699951 1_555
Cl1 Sb6 2.907058 1_455
Cl2 Sb8 2.866894 1_555
Cl3 Sb9 2.691949 1_655
O0 Sb2 2.037366 1_555
O0 Sb0 2.076545 1_555
O0 Sb1 2.235120 1_555
O1 Sb3 2.008004 1_555
O1 Sb1 2.144089 1_555
O1 Sb0 2.249436 1_455
O2 Sb3 2.001969 1_655
O2 Sb0 2.074578 1_555
O2 Sb2 2.497150 1_555
O3 Sb11 1.990023 1_556
O3 Sb2 2.070672 1_555
O4 Sb10 2.061286 1_556
O4 Sb3 2.097050 1_555
O4 Sb4 2.507413 1_455
O5 Sb6 1.969641 1_555
O5 Sb14 1.998956 1_545
O6 Sb7 1.971523 1_555
O6 Sb15 2.028299 1_545
O7 Sb5 2.063056 1_555
O7 Sb4 2.066460 1_455
O7 Sb9 2.272145 1_555
O8 Sb7 2.118513 1_555
O8 Sb11 2.154989 1_555
O8 Sb6 2.277249 1_555
O9 Sb10 1.985451 1_555
O9 Sb6 2.017808 1_455
O10 Sb4 2.125698 1_555
O10 Sb9 2.130873 1_655
O10 Sb8 2.296384 1_555
O11 Sb5 1.971835 1_555
O11 Sb8 2.017744 1_555
O12 Sb10 2.065378 1_555
O12 Sb11 2.075915 1_555
O12 Sb7 2.260028 1_555
O13 Sb8 1.969291 1_555
O13 Sb0 1.998794 1_565
O14 Sb9 1.969515 1_555
O14 Sb1 2.054268 1_565
O15 Sb4 1.993395 1_554
O15 Sb12 2.049326 1_555
O16 Sb5 2.064338 1_554
O16 Sb13 2.122488 1_555
O16 Sb11 2.481041 1_555
O17 Sb14 2.056448 1_555
O17 Sb13 2.174133 1_555
O17 Sb12 2.206924 1_555
O18 Sb15 2.057024 1_555
O18 Sb12 2.184328 1_455
O18 Sb13 2.224143 1_555
O19 Sb12 2.024121 1_555
O19 Sb14 2.185257 1_555
O19 Sb15 2.188948 1_655
O20 Sb13 2.019423 1_555
O20 Sb14 2.184595 1_555
O20 Sb15 2.197874 1_555
