# generated using pymatgen
data_LiYbGe
_symmetry_space_group_name_H-M   'P 1'
_cell_length_a   7.03850240
_cell_length_b   7.03850240
_cell_length_c   4.53596900
_cell_angle_alpha   90.00000000
_cell_angle_beta   90.00000000
_cell_angle_gamma   120.00000377
_symmetry_Int_Tables_number   1
_chemical_formula_structural   LiYbGe
_chemical_formula_sum   'Li3 Yb3 Ge3'
_cell_volume   194.60823742
_cell_formula_units_Z   3
loop_
 _symmetry_equiv_pos_site_id
 _symmetry_equiv_pos_as_xyz
  1  'x, y, z'
loop_
 _atom_site_type_symbol
 _atom_site_label
 _atom_site_symmetry_multiplicity
 _atom_site_fract_x
 _atom_site_fract_y
 _atom_site_fract_z
 _atom_site_occupancy
  Li  Li0  1  0.77395200  0.77395200  0.50000000  1
  Li  Li1  1  0.22604800  0.00000000  0.50000000  1
  Li  Li2  1  0.00000000  0.22604800  0.50000000  1
  Yb  Yb0  1  0.00000000  0.56817800  0.00000000  1
  Yb  Yb1  1  0.43182200  0.43182200  0.00000000  1
  Yb  Yb2  1  0.56817800  0.00000000  0.00000000  1
  Ge  Ge0  1  0.33333300  0.66666700  0.50000000  1
  Ge  Ge1  1  0.66666700  0.33333300  0.50000000  1
  Ge  Ge2  1  0.00000000  0.00000000  0.00000000  1
loop_
_geom_bond_atom_site_label_1
_geom_bond_atom_site_label_2
_geom_bond_distance
_geom_bond_site_symmetry_2
Ge0 Li1 2.801135 1_565
Ge0 Li2 2.801139 1_555
Ge0 Li0 2.801141 1_555
Ge0 Yb0 3.082595 1_555
Ge0 Yb0 3.082595 1_556
Ge0 Yb2 3.082596 1_566
Ge0 Yb2 3.082596 1_565
Ge0 Yb1 3.082600 1_555
Ge0 Yb1 3.082600 1_556
Ge1 Li2 2.801135 1_655
Ge1 Li1 2.801139 1_555
Ge1 Li0 2.801141 1_555
Ge1 Yb2 3.082595 1_556
Ge1 Yb2 3.082595 1_555
Ge1 Yb0 3.082596 1_656
Ge1 Yb0 3.082596 1_655
Ge1 Yb1 3.082600 1_555
Ge1 Yb1 3.082600 1_556
Ge2 Li0 2.770408 1_445
Ge2 Li0 2.770408 1_444
Ge2 Li1 2.770408 1_555
Ge2 Li1 2.770408 1_554
Ge2 Li2 2.770408 1_554
Ge2 Li2 2.770408 1_555
Ge2 Yb1 3.039380 1_555
Ge2 Yb2 3.039380 1_455
Ge2 Yb0 3.039380 1_545
