# generated using pymatgen
data_Li2Cu2(SO4)3
_symmetry_space_group_name_H-M   'P 1'
_cell_length_a   8.64649600
_cell_length_b   8.68090300
_cell_length_c   24.13149000
_cell_angle_alpha   90.00000000
_cell_angle_beta   90.00000000
_cell_angle_gamma   90.00000000
_symmetry_Int_Tables_number   1
_chemical_formula_structural   Li2Cu2(SO4)3
_chemical_formula_sum   'Li16 Cu16 S24 O96'
_cell_volume   1811.29499318
_cell_formula_units_Z   8
loop_
 _symmetry_equiv_pos_site_id
 _symmetry_equiv_pos_as_xyz
  1  'x, y, z'
loop_
 _atom_site_type_symbol
 _atom_site_label
 _atom_site_symmetry_multiplicity
 _atom_site_fract_x
 _atom_site_fract_y
 _atom_site_fract_z
 _atom_site_occupancy
  Li  Li0  1  0.03756200  0.62353200  0.29093100  1
  Li  Li1  1  0.03756200  0.87646800  0.79093100  1
  Li  Li2  1  0.14650200  0.93114200  0.00816900  1
  Li  Li3  1  0.14650200  0.56885800  0.50816900  1
  Li  Li4  1  0.35349800  0.06885800  0.50816900  1
  Li  Li5  1  0.35349800  0.43114200  0.00816900  1
  Li  Li6  1  0.46243800  0.12353200  0.29093100  1
  Li  Li7  1  0.46243800  0.37646800  0.79093100  1
  Li  Li8  1  0.53756200  0.62353200  0.20906900  1
  Li  Li9  1  0.53756200  0.87646800  0.70906900  1
  Li  Li10  1  0.64650200  0.56885800  0.99183100  1
  Li  Li11  1  0.64650200  0.93114200  0.49183100  1
  Li  Li12  1  0.85349800  0.43114200  0.49183100  1
  Li  Li13  1  0.85349800  0.06885800  0.99183100  1
  Li  Li14  1  0.96243800  0.12353200  0.20906900  1
  Li  Li15  1  0.96243800  0.37646800  0.70906900  1
  Cu  Cu0  1  0.00626500  0.40160400  0.06567400  1
  Cu  Cu1  1  0.00626500  0.09839600  0.56567400  1
  Cu  Cu2  1  0.99763000  0.79716900  0.17940400  1
  Cu  Cu3  1  0.99763000  0.70283100  0.67940400  1
  Cu  Cu4  1  0.50237000  0.29716900  0.17940400  1
  Cu  Cu5  1  0.50237000  0.20283100  0.67940400  1
  Cu  Cu6  1  0.49373500  0.59839600  0.56567400  1
  Cu  Cu7  1  0.49373500  0.90160400  0.06567400  1
  Cu  Cu8  1  0.50626500  0.40160400  0.43432600  1
  Cu  Cu9  1  0.50626500  0.09839600  0.93432600  1
  Cu  Cu10  1  0.49763000  0.70283100  0.82059600  1
  Cu  Cu11  1  0.49763000  0.79716900  0.32059600  1
  Cu  Cu12  1  0.00237000  0.29716900  0.32059600  1
  Cu  Cu13  1  0.00237000  0.20283100  0.82059600  1
  Cu  Cu14  1  0.99373500  0.90160400  0.43432600  1
  Cu  Cu15  1  0.99373500  0.59839600  0.93432600  1
  S  S0  1  0.14245500  0.94792800  0.29791100  1
  S  S1  1  0.14245500  0.55207200  0.79791100  1
  S  S2  1  0.14773900  0.25288100  0.44454000  1
  S  S3  1  0.14773900  0.24711900  0.94454000  1
  S  S4  1  0.19579700  0.09414900  0.11574600  1
  S  S5  1  0.19579700  0.40585100  0.61574600  1
  S  S6  1  0.30420300  0.59414900  0.11574600  1
  S  S7  1  0.30420300  0.90585100  0.61574600  1
  S  S8  1  0.35226100  0.75288100  0.44454000  1
  S  S9  1  0.35226100  0.74711900  0.94454000  1
  S  S10  1  0.35754500  0.44792800  0.29791100  1
  S  S11  1  0.35754500  0.05207200  0.79791100  1
  S  S12  1  0.64245500  0.55207200  0.70208900  1
  S  S13  1  0.64245500  0.94792800  0.20208900  1
  S  S14  1  0.64773900  0.25288100  0.05546000  1
  S  S15  1  0.64773900  0.24711900  0.55546000  1
  S  S16  1  0.69579700  0.09414900  0.38425400  1
  S  S17  1  0.69579700  0.40585100  0.88425400  1
  S  S18  1  0.80420300  0.59414900  0.38425400  1
  S  S19  1  0.80420300  0.90585100  0.88425400  1
  S  S20  1  0.85226100  0.75288100  0.05546000  1
  S  S21  1  0.85226100  0.74711900  0.55546000  1
  S  S22  1  0.85754500  0.44792800  0.20208900  1
  S  S23  1  0.85754500  0.05207200  0.70208900  1
  O  O0  1  0.06196000  0.38882600  0.46401200  1
  O  O1  1  0.06196000  0.11117400  0.96401200  1
  O  O2  1  0.07997500  0.09837800  0.27775300  1
  O  O3  1  0.07997500  0.40162200  0.77775300  1
  O  O4  1  0.08479100  0.10585900  0.47105200  1
  O  O5  1  0.08479100  0.39414100  0.97105200  1
  O  O6  1  0.08558400  0.90798000  0.35326800  1
  O  O7  1  0.08558400  0.59202000  0.85326800  1
  O  O8  1  0.09309400  0.18932800  0.08025300  1
  O  O9  1  0.09309400  0.31067200  0.58025300  1
  O  O10  1  0.09074400  0.82285000  0.25897800  1
  O  O11  1  0.09074400  0.67715000  0.75897800  1
  O  O12  1  0.09659300  0.00855600  0.15643000  1
  O  O13  1  0.09659300  0.49144400  0.65643000  1
  O  O14  1  0.13959400  0.23581700  0.38371100  1
  O  O15  1  0.13959400  0.26418300  0.88371100  1
  O  O16  1  0.18556800  0.45794500  0.29582700  1
  O  O17  1  0.18556800  0.04205500  0.79582700  1
  O  O18  1  0.19028000  0.68383200  0.14670100  1
  O  O19  1  0.19028000  0.81616800  0.64670100  1
  O  O20  1  0.18729500  0.76368300  0.46302200  1
  O  O21  1  0.18729500  0.73631700  0.96302200  1
  O  O22  1  0.22786400  0.01743900  0.57623400  1
  O  O23  1  0.22786400  0.48256100  0.07623400  1
  O  O24  1  0.27213600  0.98256100  0.07623400  1
  O  O25  1  0.27213600  0.51743900  0.57623400  1
  O  O26  1  0.31270500  0.23631700  0.96302200  1
  O  O27  1  0.31270500  0.26368300  0.46302200  1
  O  O28  1  0.30972000  0.18383200  0.14670100  1
  O  O29  1  0.30972000  0.31616800  0.64670100  1
  O  O30  1  0.31443200  0.95794500  0.29582700  1
  O  O31  1  0.31443200  0.54205500  0.79582700  1
  O  O32  1  0.36040600  0.73581700  0.38371100  1
  O  O33  1  0.36040600  0.76418300  0.88371100  1
  O  O34  1  0.40340700  0.99144400  0.65643000  1
  O  O35  1  0.40340700  0.50855600  0.15643000  1
  O  O36  1  0.40925600  0.32285000  0.25897800  1
  O  O37  1  0.40925600  0.17715000  0.75897800  1
  O  O38  1  0.40690600  0.68932800  0.08025300  1
  O  O39  1  0.40690600  0.81067200  0.58025300  1
  O  O40  1  0.41441600  0.09202000  0.85326800  1
  O  O41  1  0.41441600  0.40798000  0.35326800  1
  O  O42  1  0.41520900  0.89414100  0.97105200  1
  O  O43  1  0.41520900  0.60585900  0.47105200  1
  O  O44  1  0.42002500  0.59837800  0.27775300  1
  O  O45  1  0.42002500  0.90162200  0.77775300  1
  O  O46  1  0.43804000  0.61117400  0.96401200  1
  O  O47  1  0.43804000  0.88882600  0.46401200  1
  O  O48  1  0.56196000  0.38882600  0.03598800  1
  O  O49  1  0.56196000  0.11117400  0.53598800  1
  O  O50  1  0.57997500  0.09837800  0.22224700  1
  O  O51  1  0.57997500  0.40162200  0.72224700  1
  O  O52  1  0.58479100  0.10585900  0.02894800  1
  O  O53  1  0.58479100  0.39414100  0.52894800  1
  O  O54  1  0.58558400  0.59202000  0.64673200  1
  O  O55  1  0.58558400  0.90798000  0.14673200  1
  O  O56  1  0.59309400  0.18932800  0.41974700  1
  O  O57  1  0.59309400  0.31067200  0.91974700  1
  O  O58  1  0.59074400  0.82285000  0.24102200  1
  O  O59  1  0.59074400  0.67715000  0.74102200  1
  O  O60  1  0.59659300  0.00855600  0.34357000  1
  O  O61  1  0.59659300  0.49144400  0.84357000  1
  O  O62  1  0.63959400  0.23581700  0.11628900  1
  O  O63  1  0.63959400  0.26418300  0.61628900  1
  O  O64  1  0.68556800  0.45794500  0.20417300  1
  O  O65  1  0.68556800  0.04205500  0.70417300  1
  O  O66  1  0.69028000  0.68383200  0.35329900  1
  O  O67  1  0.69028000  0.81616800  0.85329900  1
  O  O68  1  0.68729500  0.76368300  0.03697800  1
  O  O69  1  0.68729500  0.73631700  0.53697800  1
  O  O70  1  0.72786400  0.48256100  0.42376600  1
  O  O71  1  0.72786400  0.01743900  0.92376600  1
  O  O72  1  0.77213600  0.98256100  0.42376600  1
  O  O73  1  0.77213600  0.51743900  0.92376600  1
  O  O74  1  0.81270500  0.26368300  0.03697800  1
  O  O75  1  0.81270500  0.23631700  0.53697800  1
  O  O76  1  0.80972000  0.18383200  0.35329900  1
  O  O77  1  0.80972000  0.31616800  0.85329900  1
  O  O78  1  0.81443200  0.54205500  0.70417300  1
  O  O79  1  0.81443200  0.95794500  0.20417300  1
  O  O80  1  0.86040600  0.73581700  0.11628900  1
  O  O81  1  0.86040600  0.76418300  0.61628900  1
  O  O82  1  0.90340700  0.50855600  0.34357000  1
  O  O83  1  0.90340700  0.99144400  0.84357000  1
  O  O84  1  0.90925600  0.32285000  0.24102200  1
  O  O85  1  0.90925600  0.17715000  0.74102200  1
  O  O86  1  0.90690600  0.68932800  0.41974700  1
  O  O87  1  0.90690600  0.81067200  0.91974700  1
  O  O88  1  0.91441600  0.40798000  0.14673200  1
  O  O89  1  0.91441600  0.09202000  0.64673200  1
  O  O90  1  0.91520900  0.60585900  0.02894800  1
  O  O91  1  0.91520900  0.89414100  0.52894800  1
  O  O92  1  0.92002500  0.59837800  0.22224700  1
  O  O93  1  0.92002500  0.90162200  0.72224700  1
  O  O94  1  0.93804000  0.61117400  0.53598800  1
  O  O95  1  0.93804000  0.88882600  0.03598800  1
loop_
_geom_bond_atom_site_label_1
_geom_bond_atom_site_label_2
_geom_bond_distance
_geom_bond_site_symmetry_2
Li0 O16 1.928192 1_555
Li0 O10 1.949309 1_555
Li0 O92 1.956437 1_455
Li0 O82 1.988789 1_455
Li1 O17 1.928192 1_565
Li1 O11 1.949309 1_555
Li1 O93 1.956437 1_455
Li1 O83 1.988789 1_455
Li2 O95 1.958184 1_455
Li2 O24 2.019186 1_555
Li2 O1 2.027873 1_564
Li2 O21 2.042472 1_554
Li2 O42 2.510676 1_554
Li3 O94 1.958184 1_455
Li3 O25 2.019186 1_555
Li3 O0 2.027873 1_555
Li3 O20 2.042472 1_555
Li3 O43 2.510676 1_555
Li4 O49 1.958184 1_555
Li4 O22 2.019186 1_555
Li4 O47 2.027873 1_545
Li4 O27 2.042472 1_555
Li4 O4 2.510676 1_555
Li5 O48 1.958184 1_555
Li5 O23 2.019186 1_555
Li5 O46 2.027873 1_554
Li5 O26 2.042472 1_554
Li5 O5 2.510676 1_554
Li6 O30 1.928192 1_545
Li6 O36 1.949309 1_555
Li6 O50 1.956437 1_555
Li6 O60 1.988789 1_555
Li7 O31 1.928192 1_555
Li7 O37 1.949309 1_555
Li7 O51 1.956437 1_555
Li7 O61 1.988789 1_555
Li8 O64 1.928192 1_555
Li8 O58 1.949309 1_555
Li8 O44 1.956437 1_555
Li8 O35 1.988789 1_555
Li9 O65 1.928192 1_565
Li9 O59 1.949309 1_555
Li9 O45 1.956437 1_555
Li9 O34 1.988789 1_555
Li10 O46 1.958184 1_555
Li10 O73 2.019186 1_555
Li10 O48 2.027873 1_556
Li10 O68 2.042472 1_556
Li10 O90 2.510676 1_556
Li11 O47 1.958184 1_555
Li11 O72 2.019186 1_555
Li11 O49 2.027873 1_565
Li11 O69 2.042472 1_555
Li11 O91 2.510676 1_555
Li12 O0 1.958184 1_655
Li12 O70 2.019186 1_555
Li12 O94 2.027873 1_555
Li12 O75 2.042472 1_555
Li12 O53 2.510676 1_555
Li13 O1 1.958184 1_655
Li13 O71 2.019186 1_555
Li13 O95 2.027873 1_546
Li13 O74 2.042472 1_556
Li13 O52 2.510676 1_556
Li14 O79 1.928192 1_545
Li14 O84 1.949309 1_555
Li14 O2 1.956437 1_655
Li14 O12 1.988789 1_655
Li15 O78 1.928192 1_555
Li15 O85 1.949309 1_555
Li15 O3 1.956437 1_655
Li15 O13 1.988789 1_655
Cu0 O8 2.020678 1_555
Cu0 O23 2.056722 1_555
Cu0 O88 2.111849 1_455
Cu0 O90 2.132899 1_455
Cu0 O74 2.171173 1_455
Cu0 O5 2.383061 1_554
Cu1 O9 2.020678 1_555
Cu1 O22 2.056722 1_555
Cu1 O89 2.111849 1_455
Cu1 O91 2.132899 1_445
Cu1 O75 2.171173 1_455
Cu1 O4 2.383061 1_555
Cu2 O80 2.002788 1_555
Cu2 O18 2.089378 1_655
Cu2 O10 2.094092 1_655
Cu2 O12 2.099258 1_665
Cu2 O92 2.120642 1_555
Cu2 O79 2.194153 1_555
Cu3 O81 2.002788 1_555
Cu3 O19 2.089378 1_655
Cu3 O11 2.094092 1_655
Cu3 O13 2.099258 1_655
Cu3 O93 2.120642 1_555
Cu3 O78 2.194153 1_555
Cu4 O62 2.002788 1_555
Cu4 O28 2.089378 1_555
Cu4 O36 2.094092 1_555
Cu4 O35 2.099258 1_555
Cu4 O50 2.120642 1_555
Cu4 O64 2.194153 1_555
Cu5 O63 2.002788 1_555
Cu5 O29 2.089378 1_555
Cu5 O37 2.094092 1_555
Cu5 O34 2.099258 1_545
Cu5 O51 2.120642 1_555
Cu5 O65 2.194153 1_555
Cu6 O39 2.020678 1_555
Cu6 O25 2.056722 1_555
Cu6 O54 2.111849 1_555
Cu6 O53 2.132899 1_555
Cu6 O69 2.171173 1_555
Cu6 O43 2.383061 1_555
Cu7 O38 2.020678 1_555
Cu7 O24 2.056722 1_555
Cu7 O55 2.111849 1_555
Cu7 O52 2.132899 1_565
Cu7 O68 2.171173 1_555
Cu7 O42 2.383061 1_554
Cu8 O56 2.020678 1_555
Cu8 O70 2.056722 1_555
Cu8 O41 2.111849 1_555
Cu8 O43 2.132899 1_555
Cu8 O27 2.171173 1_555
Cu8 O53 2.383061 1_555
Cu9 O57 2.020678 1_555
Cu9 O71 2.056722 1_555
Cu9 O40 2.111849 1_555
Cu9 O42 2.132899 1_545
Cu9 O26 2.171173 1_555
Cu9 O52 2.383061 1_556
Cu10 O33 2.002788 1_555
Cu10 O67 2.089378 1_555
Cu10 O59 2.094092 1_555
Cu10 O61 2.099258 1_555
Cu10 O45 2.120642 1_555
Cu10 O31 2.194153 1_555
Cu11 O32 2.002788 1_555
Cu11 O66 2.089378 1_555
Cu11 O58 2.094092 1_555
Cu11 O60 2.099258 1_565
Cu11 O44 2.120642 1_555
Cu11 O30 2.194153 1_555
Cu12 O14 2.002788 1_555
Cu12 O76 2.089378 1_455
Cu12 O84 2.094092 1_455
Cu12 O82 2.099258 1_455
Cu12 O2 2.120642 1_555
Cu12 O16 2.194153 1_555
Cu13 O15 2.002788 1_555
Cu13 O77 2.089378 1_455
Cu13 O85 2.094092 1_455
Cu13 O83 2.099258 1_445
Cu13 O3 2.120642 1_555
Cu13 O17 2.194153 1_555
Cu14 O86 2.020678 1_555
Cu14 O72 2.056722 1_555
Cu14 O6 2.111849 1_655
Cu14 O4 2.132899 1_665
Cu14 O20 2.171173 1_655
Cu14 O91 2.383061 1_555
Cu15 O87 2.020678 1_555
Cu15 O73 2.056722 1_555
Cu15 O7 2.111849 1_655
Cu15 O5 2.132899 1_655
Cu15 O21 2.171173 1_655
Cu15 O90 2.383061 1_556
O0 S2 1.470915 1_555
O1 S3 1.470915 1_555
O2 S0 1.494732 1_545
O3 S1 1.494732 1_555
O4 S2 1.527891 1_555
O5 S3 1.527891 1_555
O6 S0 1.465111 1_555
O7 S1 1.465111 1_555
O8 S4 1.484872 1_555
O9 S5 1.484872 1_555
O10 S0 1.503841 1_555
O11 S1 1.503841 1_555
O12 S4 1.500571 1_555
O13 S5 1.500571 1_555
O14 S2 1.477030 1_555
O15 S3 1.477030 1_555
O16 S10 1.490388 1_555
O17 S11 1.490388 1_555
O18 S6 1.460957 1_555
O19 S7 1.460957 1_555
O20 S8 1.497418 1_555
O21 S9 1.497418 1_555
O22 S7 1.511015 1_545
O23 S6 1.511015 1_555
O24 S4 1.511015 1_565
O25 S5 1.511015 1_555
O26 S3 1.497418 1_555
O27 S2 1.497418 1_555
O28 S4 1.460957 1_555
O29 S5 1.460957 1_555
O30 S0 1.490388 1_555
O31 S1 1.490388 1_555
O32 S8 1.477030 1_555
O33 S9 1.477030 1_555
O34 S7 1.500571 1_555
O35 S6 1.500571 1_555
O36 S10 1.503841 1_555
O37 S11 1.503841 1_555
O38 S6 1.484872 1_555
O39 S7 1.484872 1_555
O40 S11 1.465111 1_555
O41 S10 1.465111 1_555
O42 S9 1.527891 1_555
O43 S8 1.527891 1_555
O44 S10 1.494732 1_555
O45 S11 1.494732 1_565
O46 S9 1.470915 1_555
O47 S8 1.470915 1_555
O48 S14 1.470915 1_555
O49 S15 1.470915 1_555
O50 S13 1.494732 1_545
O51 S12 1.494732 1_555
O52 S14 1.527891 1_555
O53 S15 1.527891 1_555
O54 S12 1.465111 1_555
O55 S13 1.465111 1_555
O56 S16 1.484872 1_555
O57 S17 1.484872 1_555
O58 S13 1.503841 1_555
O59 S12 1.503841 1_555
O60 S16 1.500571 1_555
O61 S17 1.500571 1_555
O62 S14 1.477030 1_555
O63 S15 1.477030 1_555
O64 S22 1.490388 1_555
O65 S23 1.490388 1_555
O66 S18 1.460957 1_555
O67 S19 1.460957 1_555
O68 S20 1.497418 1_555
O69 S21 1.497418 1_555
O70 S18 1.511015 1_555
O71 S19 1.511015 1_545
O72 S16 1.511015 1_565
O73 S17 1.511015 1_555
O74 S14 1.497418 1_555
O75 S15 1.497418 1_555
O76 S16 1.460957 1_555
O77 S17 1.460957 1_555
O78 S12 1.490388 1_555
O79 S13 1.490388 1_555
O80 S20 1.477030 1_555
O81 S21 1.477030 1_555
O82 S18 1.500571 1_555
O83 S19 1.500571 1_555
O84 S22 1.503841 1_555
O85 S23 1.503841 1_555
O86 S18 1.484872 1_555
O87 S19 1.484872 1_555
O88 S22 1.465111 1_555
O89 S23 1.465111 1_555
O90 S20 1.527891 1_555
O91 S21 1.527891 1_555
O92 S22 1.494732 1_555
O93 S23 1.494732 1_565
O94 S21 1.470915 1_555
O95 S20 1.470915 1_555
