# generated using pymatgen
data_Y2MgAl
_symmetry_space_group_name_H-M   'P 1'
_cell_length_a   5.20546996
_cell_length_b   5.20546996
_cell_length_c   5.20546996
_cell_angle_alpha   59.99954341
_cell_angle_beta   59.99954346
_cell_angle_gamma   59.99954314
_symmetry_Int_Tables_number   1
_chemical_formula_structural   Y2MgAl
_chemical_formula_sum   'Y2 Mg1 Al1'
_cell_volume   99.73792747
_cell_formula_units_Z   1
loop_
 _symmetry_equiv_pos_site_id
 _symmetry_equiv_pos_as_xyz
  1  'x, y, z'
loop_
 _atom_site_type_symbol
 _atom_site_label
 _atom_site_symmetry_multiplicity
 _atom_site_fract_x
 _atom_site_fract_y
 _atom_site_fract_z
 _atom_site_occupancy
  Y  Y0  1  0.49999930  0.49999930  0.49999930  1
  Y  Y1  1  0.00000006  0.00000006  0.00000006  1
  Mg  Mg0  1  0.75000073  0.75000073  0.75000073  1
  Al  Al0  1  0.24999992  0.24999992  0.24999992  1
loop_
_geom_bond_atom_site_label_1
_geom_bond_atom_site_label_2
_geom_bond_distance
_geom_bond_site_symmetry_2
Mg0 Y0 3.187662 1_565
Mg0 Y0 3.187662 1_655
Mg0 Y0 3.187662 1_556
Mg0 Y1 3.187671 1_656
Mg0 Y1 3.187671 1_566
Mg0 Y1 3.187671 1_665
Mg0 Y1 3.187689 1_666
Mg0 Y0 3.187716 1_555
Al0 Y1 3.187669 1_565
Al0 Y1 3.187669 1_655
Al0 Y1 3.187669 1_556
Al0 Y0 3.187671 1_545
Al0 Y0 3.187671 1_455
Al0 Y0 3.187671 1_554
Al0 Y0 3.187689 1_555
Al0 Y1 3.187696 1_555
