# generated using pymatgen
data_Ca3Sn2S7
_symmetry_space_group_name_H-M   'P 1'
_cell_length_a   4.96641300
_cell_length_b   5.04209600
_cell_length_c   23.47872800
_cell_angle_alpha   90.00000000
_cell_angle_beta   90.00000000
_cell_angle_gamma   90.00000000
_symmetry_Int_Tables_number   1
_chemical_formula_structural   Ca3Sn2S7
_chemical_formula_sum   'Ca6 Sn4 S14'
_cell_volume   587.93390642
_cell_formula_units_Z   2
loop_
 _symmetry_equiv_pos_site_id
 _symmetry_equiv_pos_as_xyz
  1  'x, y, z'
loop_
 _atom_site_type_symbol
 _atom_site_label
 _atom_site_symmetry_multiplicity
 _atom_site_fract_x
 _atom_site_fract_y
 _atom_site_fract_z
 _atom_site_occupancy
  Ca  Ca0  1  0.50000000  0.50000000  0.50000000  1
  Ca  Ca1  1  0.00000000  0.00000000  0.00000000  1
  Ca  Ca2  1  0.50000000  0.50000000  0.32724400  1
  Ca  Ca3  1  0.50000000  0.50000000  0.67275600  1
  Ca  Ca4  1  0.00000000  0.00000000  0.16951600  1
  Ca  Ca5  1  0.00000000  0.00000000  0.83048400  1
  Sn  Sn0  1  0.50000000  0.50000000  0.11085400  1
  Sn  Sn1  1  0.50000000  0.50000000  0.88914600  1
  Sn  Sn2  1  0.00000000  0.00000000  0.38696700  1
  Sn  Sn3  1  0.00000000  0.00000000  0.61303300  1
  S  S0  1  0.50000000  0.50000000  0.00000000  1
  S  S1  1  0.00000000  0.00000000  0.50000000  1
  S  S2  1  0.50000000  0.50000000  0.21253100  1
  S  S3  1  0.50000000  0.50000000  0.78746900  1
  S  S4  1  0.00000000  0.00000000  0.28425700  1
  S  S5  1  0.00000000  0.00000000  0.71574300  1
  S  S6  1  0.50000000  0.00000000  0.08862500  1
  S  S7  1  0.50000000  0.00000000  0.91137500  1
  S  S8  1  0.00000000  0.50000000  0.08777500  1
  S  S9  1  0.00000000  0.50000000  0.91222500  1
  S  S10  1  0.00000000  0.50000000  0.40169800  1
  S  S11  1  0.00000000  0.50000000  0.59830200  1
  S  S12  1  0.50000000  0.00000000  0.41146400  1
  S  S13  1  0.50000000  0.00000000  0.58853600  1
loop_
_geom_bond_atom_site_label_1
_geom_bond_atom_site_label_2
_geom_bond_distance
_geom_bond_site_symmetry_2
Ca0 S13 3.267526 1_565
Ca0 S13 3.267526 1_555
Ca0 S12 3.267526 1_565
Ca0 S12 3.267526 1_555
Ca0 S10 3.390163 1_555
Ca0 S11 3.390163 1_555
Ca0 S10 3.390163 1_655
Ca0 S11 3.390163 1_655
Ca1 S7 3.239761 1_554
Ca1 S7 3.239761 1_454
Ca1 S6 3.239761 1_555
Ca1 S6 3.239761 1_455
Ca1 S8 3.256189 1_555
Ca1 S8 3.256189 1_545
Ca1 S9 3.256189 1_554
Ca1 S9 3.256189 1_544
Ca2 S2 2.693315 1_555
Ca2 S10 3.036794 1_655
Ca2 S10 3.036794 1_555
Ca2 S12 3.204014 1_555
Ca2 S12 3.204014 1_565
Ca3 S3 2.693315 1_555
Ca3 S11 3.036794 1_655
Ca3 S11 3.036794 1_555
Ca3 S13 3.204014 1_565
Ca3 S13 3.204014 1_555
Ca4 S4 2.693973 1_555
Ca4 S6 3.126235 1_555
Ca4 S6 3.126235 1_455
Ca4 S8 3.168425 1_545
Ca4 S8 3.168425 1_555
Ca5 S5 2.693973 1_555
Ca5 S7 3.126235 1_455
Ca5 S7 3.126235 1_555
Ca5 S9 3.168425 1_555
Ca5 S9 3.168425 1_545
S0 Sn0 2.602711 1_555
S0 Sn1 2.602711 1_554
S1 Sn2 2.653871 1_555
S1 Sn3 2.653871 1_555
S2 Sn0 2.387247 1_555
S3 Sn1 2.387247 1_555
S4 Sn2 2.411500 1_555
S5 Sn3 2.411500 1_555
S6 Sn0 2.574504 1_555
S6 Sn0 2.574504 1_545
S7 Sn1 2.574504 1_555
S7 Sn1 2.574504 1_545
S8 Sn0 2.541640 1_455
S8 Sn0 2.541640 1_555
S9 Sn1 2.541640 1_455
S9 Sn1 2.541640 1_555
S10 Sn2 2.544662 1_555
S10 Sn2 2.544662 1_565
S11 Sn3 2.544662 1_555
S11 Sn3 2.544662 1_565
S12 Sn2 2.548945 1_655
S12 Sn2 2.548945 1_555
S13 Sn3 2.548945 1_655
S13 Sn3 2.548945 1_555
