# generated using pymatgen
data_Tc2As3
_symmetry_space_group_name_H-M   'P 1'
_cell_length_a   6.65010791
_cell_length_b   6.63752992
_cell_length_c   8.00430200
_cell_angle_alpha   95.51669182
_cell_angle_beta   101.69859196
_cell_angle_gamma   104.55957605
_symmetry_Int_Tables_number   1
_chemical_formula_structural   Tc2As3
_chemical_formula_sum   'Tc8 As12'
_cell_volume   330.80465085
_cell_formula_units_Z   4
loop_
 _symmetry_equiv_pos_site_id
 _symmetry_equiv_pos_as_xyz
  1  'x, y, z'
loop_
 _atom_site_type_symbol
 _atom_site_label
 _atom_site_symmetry_multiplicity
 _atom_site_fract_x
 _atom_site_fract_y
 _atom_site_fract_z
 _atom_site_occupancy
  Tc  Tc0  1  0.91444222  0.42417841  0.14255622  1
  Tc  Tc1  1  0.08555778  0.57582159  0.85744378  1
  Tc  Tc2  1  0.36863445  0.42702350  0.13367776  1
  Tc  Tc3  1  0.63136555  0.57297650  0.86632224  1
  Tc  Tc4  1  0.53025021  0.86335124  0.36471303  1
  Tc  Tc5  1  0.46974979  0.13664876  0.63528697  1
  Tc  Tc6  1  0.08949579  0.87441921  0.37494623  1
  Tc  Tc7  1  0.91050421  0.12558079  0.62505377  1
  As  As0  1  0.73663004  0.59197396  0.34849637  1
  As  As1  1  0.26336996  0.40802604  0.65150363  1
  As  As2  1  0.23575332  0.56513065  0.38419571  1
  As  As3  1  0.76424668  0.43486935  0.61580429  1
  As  As4  1  0.85881884  0.12638314  0.31475494  1
  As  As5  1  0.14118116  0.87361686  0.68524606  1
  As  As6  1  0.37174054  0.15299470  0.32110817  1
  As  As7  1  0.62825946  0.84700530  0.67889183  1
  As  As8  1  0.54540016  0.20634067  0.96414382  1
  As  As9  1  0.45459984  0.79365933  0.03585618  1
  As  As10  1  0.03325288  0.19116621  0.95139683  1
  As  As11  1  0.96674712  0.80883379  0.04860317  1
loop_
_geom_bond_atom_site_label_1
_geom_bond_atom_site_label_2
_geom_bond_distance
_geom_bond_site_symmetry_2
As0 As3 2.462723 1_555
As0 Tc4 2.532839 1_555
As0 Tc0 2.540770 1_555
As0 Tc6 2.564443 1_655
As0 Tc2 2.593965 1_555
As1 As2 2.462723 1_555
As1 Tc5 2.532839 1_555
As1 Tc1 2.540770 1_555
As1 Tc7 2.564443 1_455
As1 Tc3 2.593965 1_555
As2 Tc4 2.451968 1_555
As2 Tc0 2.480523 1_455
As2 Tc6 2.483919 1_555
As2 Tc2 2.532694 1_555
As3 Tc5 2.451968 1_555
As3 Tc1 2.480523 1_655
As3 Tc7 2.483919 1_555
As3 Tc3 2.532694 1_555
As4 Tc7 2.438100 1_555
As4 Tc0 2.511305 1_555
As4 Tc6 2.554884 1_645
As4 Tc4 2.559863 1_545
As5 Tc6 2.438108 1_555
As5 Tc1 2.511300 1_555
As5 Tc7 2.554885 1_465
As5 Tc5 2.559866 1_565
As6 Tc6 2.421563 1_545
As6 Tc4 2.434695 1_545
As6 Tc2 2.467887 1_555
As6 Tc5 2.486772 1_555
As7 Tc7 2.421563 1_565
As7 Tc5 2.434695 1_565
As7 Tc3 2.467887 1_555
As7 Tc4 2.486772 1_555
As8 Tc2 2.549372 1_556
As8 Tc5 2.551035 1_555
As8 Tc0 2.559415 1_556
As8 Tc3 2.590466 1_555
As8 As9 2.794371 1_546
As9 Tc3 2.549372 1_554
As9 Tc4 2.551035 1_555
As9 Tc1 2.559415 1_554
As9 Tc2 2.590466 1_555
As10 Tc0 2.450948 1_456
As10 Tc2 2.457571 1_556
As10 Tc7 2.533212 1_455
As10 As11 2.682542 1_446
As10 Tc1 2.689594 1_555
As11 Tc1 2.450948 1_654
As11 Tc3 2.457571 1_554
As11 Tc6 2.533212 1_655
As11 Tc0 2.689594 1_555
