# generated using pymatgen
data_ScTc2W
_symmetry_space_group_name_H-M   'P 1'
_cell_length_a   4.45992139
_cell_length_b   4.45991849
_cell_length_c   4.45991705
_cell_angle_alpha   60.00000000
_cell_angle_beta   60.00000000
_cell_angle_gamma   59.99995699
_symmetry_Int_Tables_number   1
_chemical_formula_structural   ScTc2W
_chemical_formula_sum   'Sc1 Tc2 W1'
_cell_volume   62.72862507
_cell_formula_units_Z   1
loop_
 _symmetry_equiv_pos_site_id
 _symmetry_equiv_pos_as_xyz
  1  'x, y, z'
loop_
 _atom_site_type_symbol
 _atom_site_label
 _atom_site_symmetry_multiplicity
 _atom_site_fract_x
 _atom_site_fract_y
 _atom_site_fract_z
 _atom_site_occupancy
  Sc  Sc0  1  0.25000100  0.25000100  0.25000100  1
  Tc  Tc0  1  -0.00000000  0.00000000  -0.00000000  1
  Tc  Tc1  1  0.50000000  0.50000000  0.50000000  1
  W  W0  1  0.75000100  0.75000100  0.75000100  1
loop_
_geom_bond_atom_site_label_1
_geom_bond_atom_site_label_2
_geom_bond_distance
_geom_bond_site_symmetry_2
Sc0 Tc1 2.731121 1_555
Sc0 Tc0 2.731127 1_565
Sc0 Tc0 2.731127 1_556
Sc0 Tc0 2.731128 1_655
Sc0 Tc1 2.731134 1_545
Sc0 Tc1 2.731134 1_554
Sc0 Tc1 2.731136 1_455
Sc0 Tc0 2.731143 1_555
Sc0 W0 3.153637 1_455
Sc0 W0 3.153637 1_544
Sc0 W0 3.153638 1_454
Sc0 W0 3.153638 1_545
Sc0 W0 3.153641 1_445
Sc0 W0 3.153641 1_554
Tc0 W0 2.731121 1_444
Tc0 W0 2.731134 1_454
Tc0 W0 2.731134 1_445
Tc0 W0 2.731136 1_544
Tc1 W0 2.731127 1_545
Tc1 W0 2.731127 1_554
Tc1 W0 2.731128 1_455
Tc1 W0 2.731143 1_555
