# generated using pymatgen
data_Th2BiTe
_symmetry_space_group_name_H-M   'P 1'
_cell_length_a   5.51917101
_cell_length_b   5.51917101
_cell_length_c   5.51917101
_cell_angle_alpha   60.00000000
_cell_angle_beta   60.00000000
_cell_angle_gamma   60.00000000
_symmetry_Int_Tables_number   1
_chemical_formula_structural   Th2BiTe
_chemical_formula_sum   'Th2 Bi1 Te1'
_cell_volume   118.87938652
_cell_formula_units_Z   1
loop_
 _symmetry_equiv_pos_site_id
 _symmetry_equiv_pos_as_xyz
  1  'x, y, z'
loop_
 _atom_site_type_symbol
 _atom_site_label
 _atom_site_symmetry_multiplicity
 _atom_site_fract_x
 _atom_site_fract_y
 _atom_site_fract_z
 _atom_site_occupancy
  Th  Th0  1  -0.00000000  -0.00000000  0.00000000  1
  Th  Th1  1  0.50000000  0.50000000  0.50000000  1
  Bi  Bi0  1  0.25000100  0.25000100  0.25000100  1
  Te  Te0  1  0.75000000  0.75000000  0.75000000  1
loop_
_geom_bond_atom_site_label_1
_geom_bond_atom_site_label_2
_geom_bond_distance
_geom_bond_site_symmetry_2
Bi0 Th1 3.379775 1_555
Bi0 Th0 3.379784 1_556
Bi0 Th0 3.379784 1_565
Bi0 Th0 3.379784 1_655
Bi0 Th1 3.379793 1_455
Bi0 Th1 3.379793 1_545
Bi0 Th1 3.379793 1_554
Bi0 Th0 3.379802 1_555
Te0 Th0 3.379788 1_665
Te0 Th0 3.379788 1_666
Te0 Th0 3.379788 1_656
Te0 Th1 3.379788 1_556
Te0 Th0 3.379788 1_566
Te0 Th1 3.379788 1_565
Te0 Th1 3.379788 1_555
Te0 Th1 3.379788 1_655
