# generated using pymatgen
data_TcIr3
_symmetry_space_group_name_H-M   'P 1'
_cell_length_a   5.48248726
_cell_length_b   5.48248697
_cell_length_c   4.36594059
_cell_angle_alpha   90.00000000
_cell_angle_beta   90.00000000
_cell_angle_gamma   119.99999637
_symmetry_Int_Tables_number   1
_chemical_formula_structural   TcIr3
_chemical_formula_sum   'Tc2 Ir6'
_cell_volume   113.64850014
_cell_formula_units_Z   2
loop_
 _symmetry_equiv_pos_site_id
 _symmetry_equiv_pos_as_xyz
  1  'x, y, z'
loop_
 _atom_site_type_symbol
 _atom_site_label
 _atom_site_symmetry_multiplicity
 _atom_site_fract_x
 _atom_site_fract_y
 _atom_site_fract_z
 _atom_site_occupancy
  Tc  Tc0  1  0.33333408  0.66666489  0.75000000  1
  Tc  Tc1  1  0.66666775  0.33333376  0.25000000  1
  Ir  Ir0  1  0.16646858  0.33294019  0.25000000  1
  Ir  Ir1  1  0.66705853  0.83352809  0.25000000  1
  Ir  Ir2  1  0.16646887  0.83352802  0.25000000  1
  Ir  Ir3  1  0.83352875  0.66705971  0.75000000  1
  Ir  Ir4  1  0.33294085  0.16647227  0.75000000  1
  Ir  Ir5  1  0.83352959  0.16646806  0.75000000  1
loop_
_geom_bond_atom_site_label_1
_geom_bond_atom_site_label_2
_geom_bond_distance
_geom_bond_site_symmetry_2
Ir0 Ir5 2.695226 1_455
Ir0 Ir5 2.695226 1_454
Ir0 Ir4 2.695229 1_555
Ir0 Ir4 2.695229 1_554
Ir0 Tc0 2.697415 1_555
Ir0 Tc0 2.697415 1_554
Ir0 Ir1 2.738015 1_445
Ir0 Ir2 2.738022 1_545
Ir0 Tc1 2.741231 1_455
Ir0 Tc1 2.741257 1_555
Ir0 Ir2 2.744465 1_555
Ir0 Ir1 2.744472 1_555
Ir1 Ir3 2.695225 1_554
Ir1 Ir3 2.695225 1_555
Ir1 Ir5 2.695228 1_565
Ir1 Ir5 2.695228 1_564
Ir1 Tc0 2.697415 1_554
Ir1 Tc0 2.697415 1_555
Ir1 Ir2 2.738011 1_655
Ir1 Tc1 2.741238 1_555
Ir1 Tc1 2.741250 1_565
Ir1 Ir2 2.744476 1_555
Ir2 Ir3 2.695229 1_455
Ir2 Ir3 2.695229 1_454
Ir2 Ir4 2.695240 1_564
Ir2 Ir4 2.695240 1_565
Ir2 Tc0 2.697426 1_555
Ir2 Tc0 2.697426 1_554
Ir2 Tc1 2.741232 1_455
Ir2 Tc1 2.741257 1_565
Ir3 Tc1 2.697419 1_556
Ir3 Tc1 2.697419 1_555
Ir3 Ir5 2.737997 1_565
Ir3 Ir4 2.738022 1_665
Ir3 Tc0 2.741229 1_555
Ir3 Tc0 2.741259 1_655
Ir3 Ir4 2.744466 1_555
Ir3 Ir5 2.744490 1_555
Ir4 Tc1 2.697422 1_555
Ir4 Tc1 2.697422 1_556
Ir4 Ir5 2.738004 1_455
Ir4 Tc0 2.741222 1_555
Ir4 Tc0 2.741266 1_545
Ir4 Ir5 2.744483 1_555
Ir5 Tc1 2.697423 1_555
Ir5 Tc1 2.697423 1_556
Ir5 Tc0 2.741241 1_545
Ir5 Tc0 2.741248 1_655
