# generated using pymatgen
data_Mn12O5F19
_symmetry_space_group_name_H-M   'P 1'
_cell_length_a   4.88054700
_cell_length_b   5.86318013
_cell_length_c   15.95311867
_cell_angle_alpha   89.39107149
_cell_angle_beta   89.74371261
_cell_angle_gamma   87.34892970
_symmetry_Int_Tables_number   1
_chemical_formula_structural   Mn12O5F19
_chemical_formula_sum   'Mn12 O5 F19'
_cell_volume   455.98892805
_cell_formula_units_Z   1
loop_
 _symmetry_equiv_pos_site_id
 _symmetry_equiv_pos_as_xyz
  1  'x, y, z'
loop_
 _atom_site_type_symbol
 _atom_site_label
 _atom_site_symmetry_multiplicity
 _atom_site_fract_x
 _atom_site_fract_y
 _atom_site_fract_z
 _atom_site_occupancy
  Mn  Mn0  1  0.04489800  0.19858400  0.42505900  1
  Mn  Mn1  1  0.98645300  0.85340300  0.25031400  1
  Mn  Mn2  1  0.97274400  0.16109600  0.08468400  1
  Mn  Mn3  1  0.99249700  0.16427100  0.74646600  1
  Mn  Mn4  1  0.99080600  0.83705900  0.58358200  1
  Mn  Mn5  1  0.01728000  0.83971900  0.90501700  1
  Mn  Mn6  1  0.50708500  0.35152400  0.58800500  1
  Mn  Mn7  1  0.50717600  0.33149200  0.92483500  1
  Mn  Mn8  1  0.51175100  0.32108000  0.24491500  1
  Mn  Mn9  1  0.52105000  0.64943500  0.08098900  1
  Mn  Mn10  1  0.49354600  0.64550700  0.41707800  1
  Mn  Mn11  1  0.49024400  0.65200200  0.75232700  1
  O  O0  1  0.22142700  0.88270500  0.80017000  1
  O  O1  1  0.30952500  0.40096500  0.48234700  1
  O  O2  1  0.71866900  0.37364300  0.03195500  1
  O  O3  1  0.70461100  0.38941700  0.69539900  1
  O  O4  1  0.78483300  0.10920400  0.18791400  1
  F  F0  1  0.23745000  0.10353000  0.30772500  1
  F  F1  1  0.22351500  0.11976300  0.63674200  1
  F  F2  1  0.20477300  0.12317600  0.97811400  1
  F  F3  1  0.23580600  0.89174100  0.13098300  1
  F  F4  1  0.23724000  0.89231600  0.47342300  1
  F  F5  1  0.26280100  0.39685000  0.13961300  1
  F  F6  1  0.26250900  0.60503500  0.30267300  1
  F  F7  1  0.26495300  0.61253800  0.64416100  1
  F  F8  1  0.26155500  0.38274700  0.81428700  1
  F  F9  1  0.27261600  0.62286400  0.97109300  1
  F  F10  1  0.72863300  0.61832800  0.19567000  1
  F  F11  1  0.74202300  0.38501300  0.35708200  1
  F  F12  1  0.74207600  0.60838100  0.52731900  1
  F  F13  1  0.72404500  0.60995700  0.85998200  1
  F  F14  1  0.77039800  0.12069500  0.52904900  1
  F  F15  1  0.75931200  0.87527500  0.36487800  1
  F  F16  1  0.77787700  0.86974500  0.01349400  1
  F  F17  1  0.76998600  0.11131800  0.85874900  1
  F  F18  1  0.74783400  0.88962100  0.69390600  1
loop_
_geom_bond_atom_site_label_1
_geom_bond_atom_site_label_2
_geom_bond_distance
_geom_bond_site_symmetry_2
Mn0 O1 2.021553 1_555
Mn1 O4 2.012258 1_565
Mn2 O2 1.908502 1_555
Mn2 O4 1.909815 1_555
Mn3 O3 2.048471 1_555
Mn3 O0 2.125001 1_645
Mn5 O0 1.962984 1_555
Mn6 O1 1.957849 1_555
Mn6 O3 1.989144 1_555
Mn7 O2 2.023661 1_556
Mn8 O4 2.001616 1_555
Mn9 O2 2.008173 1_555
Mn10 O1 2.006391 1_555
Mn11 O0 1.995572 1_555
Mn11 O3 2.040077 1_555
F0 Mn8 2.131207 1_555
F0 Mn0 2.157669 1_555
F0 Mn1 2.166793 1_445
F1 Mn3 2.090028 1_455
F1 Mn6 2.123273 1_555
F1 Mn4 2.229179 1_445
F2 Mn2 2.046892 1_456
F2 Mn7 2.127433 1_555
F2 Mn5 2.269522 1_545
F3 Mn9 2.103261 1_555
F3 Mn2 2.117582 1_465
F3 Mn1 2.269610 1_455
F4 Mn10 2.077729 1_555
F4 Mn0 2.126539 1_565
F4 Mn4 2.155214 1_455
F5 Mn8 2.109059 1_555
F5 Mn9 2.188417 1_555
F5 Mn2 2.213693 1_455
F6 Mn1 2.106241 1_455
F6 Mn10 2.170525 1_555
F6 Mn8 2.221664 1_555
F7 Mn4 2.068503 1_455
F7 Mn11 2.071032 1_555
F7 Mn6 2.096064 1_555
F8 Mn7 2.147534 1_555
F8 Mn3 2.175692 1_455
F8 Mn11 2.198865 1_555
F9 Mn5 2.029145 1_555
F9 Mn9 2.147175 1_556
F9 Mn7 2.147544 1_555
F10 Mn9 2.097430 1_555
F10 Mn1 2.106827 1_555
F10 Mn8 2.215659 1_555
F11 Mn0 2.096558 1_655
F11 Mn10 2.137475 1_555
F11 Mn8 2.162586 1_555
F12 Mn4 2.064671 1_555
F12 Mn10 2.144333 1_555
F12 Mn6 2.153952 1_555
F13 Mn11 2.072417 1_555
F13 Mn5 2.141785 1_655
F13 Mn7 2.229472 1_555
F14 Mn6 2.055026 1_555
F14 Mn4 2.119372 1_545
F14 Mn0 2.185441 1_655
F15 Mn10 2.078199 1_555
F15 Mn1 2.135275 1_555
F15 Mn0 2.598636 1_665
F16 Mn5 2.088143 1_654
F16 Mn9 2.123024 1_555
F16 Mn2 2.305128 1_565
F17 Mn7 2.070469 1_555
F17 Mn5 2.083876 1_645
F17 Mn3 2.118096 1_555
F18 Mn11 2.124637 1_555
F18 Mn4 2.134918 1_555
F18 Mn3 2.222071 1_565
