# generated using pymatgen
data_Li2Ni2S3
_symmetry_space_group_name_H-M   'P 1'
_cell_length_a   8.83888480
_cell_length_b   8.83888480
_cell_length_c   6.40988418
_cell_angle_alpha   69.72774802
_cell_angle_beta   69.72774802
_cell_angle_gamma   84.68451347
_symmetry_Int_Tables_number   1
_chemical_formula_structural   Li2Ni2S3
_chemical_formula_sum   'Li8 Ni8 S12'
_cell_volume   440.44597897
_cell_formula_units_Z   4
loop_
 _symmetry_equiv_pos_site_id
 _symmetry_equiv_pos_as_xyz
  1  'x, y, z'
loop_
 _atom_site_type_symbol
 _atom_site_label
 _atom_site_symmetry_multiplicity
 _atom_site_fract_x
 _atom_site_fract_y
 _atom_site_fract_z
 _atom_site_occupancy
  Li  Li0  1  0.79673500  0.95940700  0.07780600  1
  Li  Li1  1  0.95940700  0.79673500  0.57780600  1
  Li  Li2  1  0.27980000  0.72020000  0.25000000  1
  Li  Li3  1  0.56299700  0.43700300  0.25000000  1
  Li  Li4  1  0.43700300  0.56299700  0.75000000  1
  Li  Li5  1  0.72020000  0.27980000  0.75000000  1
  Li  Li6  1  0.04059300  0.20326500  0.42219400  1
  Li  Li7  1  0.20326500  0.04059300  0.92219400  1
  Ni  Ni0  1  0.78286600  0.61515200  0.39194600  1
  Ni  Ni1  1  0.43870100  0.92289500  0.39692600  1
  Ni  Ni2  1  0.61515200  0.78286600  0.89194600  1
  Ni  Ni3  1  0.92289500  0.43870100  0.89692600  1
  Ni  Ni4  1  0.07710500  0.56129900  0.10307400  1
  Ni  Ni5  1  0.38484800  0.21713400  0.10805400  1
  Ni  Ni6  1  0.56129900  0.07710500  0.60307400  1
  Ni  Ni7  1  0.21713400  0.38484800  0.60805400  1
  S  S0  1  0.57834500  0.72797900  0.27033600  1
  S  S1  1  0.85305600  0.40816400  0.27443000  1
  S  S2  1  0.72797900  0.57834500  0.77033600  1
  S  S3  1  0.40816400  0.85305600  0.77443000  1
  S  S4  1  0.00313700  0.78057600  0.18760800  1
  S  S5  1  0.99686300  0.21942400  0.81239200  1
  S  S6  1  0.59183600  0.14694400  0.22557000  1
  S  S7  1  0.27202100  0.42165500  0.22966400  1
  S  S8  1  0.78057600  0.00313700  0.68760800  1
  S  S9  1  0.14694400  0.59183600  0.72557000  1
  S  S10  1  0.42165500  0.27202100  0.72966400  1
  S  S11  1  0.21942400  0.99686300  0.31239200  1
loop_
_geom_bond_atom_site_label_1
_geom_bond_atom_site_label_2
_geom_bond_distance
_geom_bond_site_symmetry_2
Li0 S4 2.430377 1_655
Li0 S8 2.448024 1_564
Li0 S6 2.503568 1_565
Li0 S0 2.600955 1_555
Li0 S5 2.695133 1_564
Li1 S8 2.430377 1_565
Li1 S4 2.448024 1_655
Li1 S9 2.503568 1_655
Li1 S2 2.600955 1_555
Li1 S11 2.695133 1_655
Li2 S4 2.590886 1_555
Li2 S11 2.590886 1_555
Li2 S7 2.695032 1_555
Li2 S0 2.695032 1_555
Li2 S3 2.707080 1_554
Li2 S9 2.707080 1_555
Li3 S6 2.606150 1_555
Li3 S1 2.606150 1_555
Li3 S7 2.638048 1_555
Li3 S0 2.638048 1_555
Li3 S10 2.776555 1_555
Li3 S2 2.776555 1_554
Li4 S9 2.606150 1_555
Li4 S3 2.606150 1_555
Li4 S10 2.638048 1_555
Li4 S2 2.638048 1_555
Li4 S0 2.776555 1_555
Li4 S7 2.776555 1_556
Li5 S8 2.590886 1_555
Li5 S5 2.590886 1_555
Li5 S10 2.695032 1_555
Li5 S2 2.695032 1_555
Li5 S1 2.707080 1_555
Li5 S6 2.707080 1_556
Li6 S11 2.430377 1_545
Li6 S5 2.448024 1_455
Li6 S1 2.503568 1_455
Li6 S7 2.600955 1_555
Li6 S8 2.695133 1_455
Li7 S5 2.430377 1_455
Li7 S11 2.448024 1_546
Li7 S3 2.503568 1_545
Li7 S10 2.600955 1_555
Li7 S4 2.695133 1_546
Ni0 S1 2.172644 1_555
Ni0 S2 2.211559 1_555
Ni0 S0 2.230214 1_555
Ni0 S4 2.253286 1_655
Ni1 S11 2.173710 1_555
Ni1 S3 2.202800 1_555
Ni1 S6 2.217966 1_565
Ni1 S0 2.242942 1_555
Ni2 S3 2.172644 1_555
Ni2 S0 2.211559 1_556
Ni2 S2 2.230214 1_555
Ni2 S8 2.253286 1_565
Ni3 S5 2.173710 1_555
Ni3 S1 2.202800 1_556
Ni3 S9 2.217966 1_655
Ni3 S2 2.242942 1_555
Ni4 S4 2.173710 1_555
Ni4 S9 2.202800 1_554
Ni4 S1 2.217966 1_455
Ni4 S7 2.242942 1_555
Ni5 S6 2.172644 1_555
Ni5 S10 2.211559 1_554
Ni5 S7 2.230214 1_555
Ni5 S11 2.253286 1_545
Ni6 S8 2.173710 1_555
Ni6 S6 2.202800 1_555
Ni6 S3 2.217966 1_545
Ni6 S10 2.242942 1_555
Ni7 S9 2.172644 1_555
Ni7 S7 2.211559 1_555
Ni7 S10 2.230214 1_555
Ni7 S5 2.253286 1_455
