# generated using pymatgen
data_Fe3(SiO4)2
_symmetry_space_group_name_H-M   'P 1'
_cell_length_a   5.16432700
_cell_length_b   8.94192511
_cell_length_c   13.65960987
_cell_angle_alpha   106.39940245
_cell_angle_beta   100.88504131
_cell_angle_gamma   90.63612842
_symmetry_Int_Tables_number   1
_chemical_formula_structural   Fe3(SiO4)2
_chemical_formula_sum   'Fe9 Si6 O24'
_cell_volume   592.84682142
_cell_formula_units_Z   3
loop_
 _symmetry_equiv_pos_site_id
 _symmetry_equiv_pos_as_xyz
  1  'x, y, z'
loop_
 _atom_site_type_symbol
 _atom_site_label
 _atom_site_symmetry_multiplicity
 _atom_site_fract_x
 _atom_site_fract_y
 _atom_site_fract_z
 _atom_site_occupancy
  Fe  Fe0  1  0.03295400  0.01327300  0.00073300  1
  Fe  Fe1  1  0.77171100  0.72771600  0.51155900  1
  Fe  Fe2  1  0.77997200  0.27034200  0.82025600  1
  Fe  Fe3  1  0.71656600  0.53701500  0.67173700  1
  Fe  Fe4  1  0.10242900  0.74846800  0.14881400  1
  Fe  Fe5  1  0.37946300  0.47577600  0.95742100  1
  Fe  Fe6  1  0.30711800  0.74538600  0.81147800  1
  Fe  Fe7  1  0.10485500  0.17287300  0.46730300  1
  Fe  Fe8  1  0.02857000  0.44326700  0.31360500  1
  Si  Si0  1  0.95751800  0.38115800  0.06286400  1
  Si  Si1  1  0.55162700  0.84109700  0.04773100  1
  Si  Si2  1  0.81424800  0.89279600  0.75156300  1
  Si  Si3  1  0.58310200  0.35737000  0.42019700  1
  Si  Si4  1  0.19586800  0.80470300  0.39724000  1
  Si  Si5  1  0.22167100  0.36806500  0.71708900  1
  O  O0  1  0.99723500  0.65701700  0.40587500  1
  O  O1  1  0.87483500  0.30593600  0.38586800  1
  O  O2  1  0.02623300  0.95834200  0.41964900  1
  O  O3  1  0.86919700  0.41475000  0.17453400  1
  O  O4  1  0.94879900  0.83008400  0.64905200  1
  O  O5  1  0.68536500  0.98059000  0.01508700  1
  O  O6  1  0.74689300  0.78826100  0.13821100  1
  O  O7  1  0.66099500  0.52009500  0.51951400  1
  O  O8  1  0.45055900  0.22087800  0.45468400  1
  O  O9  1  0.70929600  0.35973600  0.96033900  1
  O  O10  1  0.59942600  0.75042300  0.74116900  1
  O  O11  1  0.38475800  0.40403300  0.32689900  1
  O  O12  1  0.55190600  0.38510200  0.74054500  1
  O  O13  1  0.68777700  0.06101000  0.77048300  1
  O  O14  1  0.46668300  0.82288900  0.48264900  1
  O  O15  1  0.25862300  0.74984800  0.28029200  1
  O  O16  1  0.26388700  0.89742600  0.08589600  1
  O  O17  1  0.12034100  0.22603700  0.02902200  1
  O  O18  1  0.13794200  0.53723300  0.06266600  1
  O  O19  1  0.45959400  0.68881000  0.94523100  1
  O  O20  1  0.08400800  0.24474600  0.60788800  1
  O  O21  1  0.14068800  0.32382600  0.81924500  1
  O  O22  1  0.11194200  0.53946900  0.72068300  1
  O  O23  1  0.04691100  0.90489900  0.85810100  1
loop_
_geom_bond_atom_site_label_1
_geom_bond_atom_site_label_2
_geom_bond_distance
_geom_bond_site_symmetry_2
Fe0 O17 1.863469 1_555
Fe0 O5 1.870759 1_445
Fe0 O23 1.930969 1_544
Fe0 O16 2.008124 1_545
Fe1 O14 1.829275 1_555
Fe1 O4 1.887727 1_555
Fe1 O7 1.974651 1_555
Fe1 O0 1.994029 1_555
Fe2 O13 1.825386 1_555
Fe2 O21 1.921668 1_655
Fe2 O12 1.949154 1_555
Fe2 O9 1.959633 1_555
Fe3 O7 2.006189 1_555
Fe3 O22 2.022814 1_655
Fe3 O10 2.031589 1_555
Fe3 O12 2.109236 1_555
Fe4 O15 1.821083 1_555
Fe4 O6 1.860656 1_455
Fe4 O18 1.954544 1_555
Fe4 O16 2.024949 1_555
Fe5 O19 2.003840 1_555
Fe5 O9 2.004160 1_555
Fe5 O18 2.042251 1_556
Fe5 O21 2.136539 1_555
Fe6 O10 1.942593 1_555
Fe6 O23 2.024524 1_555
Fe6 O22 2.035110 1_555
Fe6 O19 2.049725 1_555
Fe7 O2 1.856426 1_545
Fe7 O20 1.869506 1_555
Fe7 O8 1.882116 1_555
Fe7 O1 2.084195 1_455
Fe8 O11 1.861144 1_555
Fe8 O3 1.866130 1_455
Fe8 O0 1.997889 1_455
Fe8 O1 2.017783 1_455
O0 Si4 1.706968 1_655
O1 Si3 1.691656 1_555
O2 Si4 1.624534 1_555
O3 Si0 1.622378 1_555
O4 Si2 1.640357 1_555
O5 Si1 1.625713 1_555
O6 Si1 1.623948 1_555
O7 Si3 1.669059 1_555
O8 Si3 1.614918 1_555
O9 Si0 1.675193 1_556
O10 Si2 1.636702 1_555
O11 Si3 1.632234 1_555
O12 Si5 1.671733 1_555
O13 Si2 1.619237 1_545
O14 Si4 1.617135 1_555
O15 Si4 1.629150 1_555
O16 Si1 1.701337 1_555
O17 Si0 1.629537 1_455
O18 Si0 1.670371 1_455
O19 Si1 1.642639 1_556
O20 Si5 1.612356 1_555
O21 Si5 1.675410 1_555
O22 Si5 1.630936 1_555
O23 Si2 1.679588 1_455
