# generated using pymatgen
data_Li3(CoO2)4
_symmetry_space_group_name_H-M   'P 1'
_cell_length_a   5.78862159
_cell_length_b   5.95171849
_cell_length_c   8.27827828
_cell_angle_alpha   87.77059753
_cell_angle_beta   89.99939975
_cell_angle_gamma   90.02214701
_symmetry_Int_Tables_number   1
_chemical_formula_structural   Li3(CoO2)4
_chemical_formula_sum   'Li6 Co8 O16'
_cell_volume   284.98938320
_cell_formula_units_Z   2
loop_
 _symmetry_equiv_pos_site_id
 _symmetry_equiv_pos_as_xyz
  1  'x, y, z'
loop_
 _atom_site_type_symbol
 _atom_site_label
 _atom_site_symmetry_multiplicity
 _atom_site_fract_x
 _atom_site_fract_y
 _atom_site_fract_z
 _atom_site_occupancy
  Li  Li0  1  0.50003200  0.00001200  0.99997200  1
  Li  Li1  1  0.99995400  0.49998300  0.50002600  1
  Li  Li2  1  0.24990600  0.74997100  0.25102000  1
  Li  Li3  1  0.75010000  0.25001800  0.74897600  1
  Li  Li4  1  0.75009300  0.74999200  0.25104500  1
  Li  Li5  1  0.24989500  0.24999000  0.74896000  1
  Co  Co0  1  0.50003300  0.49998200  0.00000000  1
  Co  Co1  1  0.99996200  0.00000700  0.49999400  1
  Co  Co2  1  0.75275600  0.24649200  0.25335000  1
  Co  Co3  1  0.24727900  0.75349200  0.74662500  1
  Co  Co4  1  0.24728600  0.24647600  0.25347300  1
  Co  Co5  1  0.75272800  0.75354700  0.74654300  1
  Co  Co6  1  0.50002300  0.00003700  0.49999500  1
  Co  Co7  1  0.99999400  0.49997800  0.00000600  1
  O  O0  1  0.50025900  0.01359200  0.25894200  1
  O  O1  1  0.00029400  0.51651800  0.75746300  1
  O  O2  1  0.49972600  0.98640200  0.74106000  1
  O  O3  1  0.99971600  0.48350800  0.24254200  1
  O  O4  1  0.99991000  0.01235900  0.26496800  1
  O  O5  1  0.50007800  0.51367500  0.77217400  1
  O  O6  1  0.24092000  0.22621900  0.49271600  1
  O  O7  1  0.73756600  0.72318400  0.99237500  1
  O  O8  1  0.24091600  0.77383500  0.50739600  1
  O  O9  1  0.73775400  0.27676500  0.00769600  1
  O  O10  1  0.75903800  0.22616200  0.49268500  1
  O  O11  1  0.26227900  0.72324400  0.99222700  1
  O  O12  1  0.75902700  0.77378400  0.50726500  1
  O  O13  1  0.26247300  0.27681600  0.00764900  1
  O  O14  1  0.99994600  0.98768100  0.73503200  1
  O  O15  1  0.50005600  0.48627900  0.22782500  1
loop_
_geom_bond_atom_site_label_1
_geom_bond_atom_site_label_2
_geom_bond_distance
_geom_bond_site_symmetry_2
Li0 O2 2.148023 1_545
Li0 O0 2.148489 1_556
Li0 O9 2.148781 1_556
Li0 O11 2.148974 1_545
Li0 O7 2.149179 1_545
Li0 O13 2.149201 1_556
Li1 O1 2.137228 1_655
Li1 O3 2.137586 1_555
Li1 O10 2.147187 1_555
Li1 O8 2.147514 1_655
Li1 O12 2.147907 1_555
Li1 O6 2.147920 1_655
Li2 O8 2.133240 1_555
Li2 O4 2.135902 1_465
Li2 O0 2.138336 1_565
Li2 O15 2.149865 1_555
Li2 O3 2.150436 1_455
Li2 O11 2.155612 1_554
Li3 O10 2.132526 1_555
Li3 O14 2.135088 1_545
Li3 O2 2.138394 1_545
Li3 O5 2.149216 1_555
Li3 O1 2.150619 1_655
Li3 O9 2.155017 1_556
Li4 O12 2.131898 1_555
Li4 O4 2.134275 1_565
Li4 O0 2.137018 1_565
Li4 O15 2.148726 1_555
Li4 O3 2.149156 1_555
Li4 O7 2.154678 1_554
Li5 O6 2.132088 1_555
Li5 O14 2.134543 1_445
Li5 O2 2.136955 1_545
Li5 O5 2.149167 1_555
Li5 O1 2.149264 1_555
Li5 O13 2.154857 1_556
Co0 O15 1.884589 1_555
Co0 O5 1.884597 1_554
Co0 O13 1.910824 1_555
Co0 O7 1.910859 1_554
Co0 O9 1.912447 1_555
Co0 O11 1.912775 1_554
Co1 O12 1.937482 1_545
Co1 O6 1.937532 1_655
Co1 O10 1.937907 1_555
Co1 O8 1.938105 1_645
Co1 O4 1.944139 1_555
Co1 O14 1.944239 1_545
Co2 O10 1.980604 1_555
Co2 O4 1.997258 1_555
Co2 O3 2.007536 1_555
Co2 O0 2.013284 1_555
Co2 O9 2.036421 1_555
Co2 O15 2.049217 1_555
Co3 O8 1.979739 1_555
Co3 O14 1.998228 1_455
Co3 O1 2.007468 1_555
Co3 O2 2.013116 1_555
Co3 O11 2.035985 1_555
Co3 O5 2.049765 1_555
Co4 O6 1.979841 1_555
Co4 O4 1.997318 1_455
Co4 O3 2.010914 1_455
Co4 O0 2.016002 1_555
Co4 O13 2.037880 1_555
Co4 O15 2.048859 1_555
Co5 O12 1.980121 1_555
Co5 O14 1.996736 1_555
Co5 O1 2.010883 1_655
Co5 O2 2.016005 1_555
Co5 O7 2.037946 1_555
Co5 O5 2.048636 1_555
Co6 O0 1.993996 1_555
Co6 O2 1.994096 1_545
Co6 O10 2.013715 1_555
Co6 O8 2.014420 1_545
Co6 O12 2.014950 1_545
Co6 O6 2.015095 1_555
Co7 O3 2.006360 1_555
Co7 O1 2.006422 1_654
Co7 O9 2.016228 1_555
Co7 O11 2.016636 1_654
Co7 O7 2.017791 1_554
Co7 O13 2.017842 1_655
