# generated using pymatgen
data_LiCrPO4
_symmetry_space_group_name_H-M   'P 1'
_cell_length_a   10.09264000
_cell_length_b   10.14694348
_cell_length_c   17.62388559
_cell_angle_alpha   106.57813001
_cell_angle_beta   90.01005544
_cell_angle_gamma   119.78756776
_symmetry_Int_Tables_number   1
_chemical_formula_structural   LiCrPO4
_chemical_formula_sum   'Li16 Cr16 P16 O64'
_cell_volume   1479.25823789
_cell_formula_units_Z   16
loop_
 _symmetry_equiv_pos_site_id
 _symmetry_equiv_pos_as_xyz
  1  'x, y, z'
loop_
 _atom_site_type_symbol
 _atom_site_label
 _atom_site_symmetry_multiplicity
 _atom_site_fract_x
 _atom_site_fract_y
 _atom_site_fract_z
 _atom_site_occupancy
  Li  Li0  1  0.36584300  0.18297800  0.81515900  1
  Li  Li1  1  0.93979500  0.68132600  0.31286700  1
  Li  Li2  1  0.18187700  0.31936800  0.56136300  1
  Li  Li3  1  0.62219000  0.25781800  0.56267300  1
  Li  Li4  1  0.25684500  0.81527600  0.06188900  1
  Li  Li5  1  0.76137200  0.75891100  0.06232700  1
  Li  Li6  1  0.87104400  0.75040900  0.81263400  1
  Li  Li7  1  0.36745600  0.68291800  0.81429000  1
  Li  Li8  1  0.99996300  0.24350100  0.31441200  1
  Li  Li9  1  0.44437500  0.17966000  0.31410200  1
  Li  Li10  1  0.67849300  0.81707200  0.56144200  1
  Li  Li11  1  0.12524500  0.75627500  0.56290200  1
  Li  Li12  1  0.26074700  0.31793800  0.06126200  1
  Li  Li13  1  0.75649600  0.25552800  0.06224800  1
  Li  Li14  1  0.87354900  0.24524700  0.81343800  1
  Li  Li15  1  0.49968500  0.74532300  0.31283600  1
  Cr  Cr0  1  0.49868300  0.24154000  0.69173100  1
  Cr  Cr1  1  0.63078000  0.80707100  0.18328700  1
  Cr  Cr2  1  0.12985400  0.75376200  0.18835000  1
  Cr  Cr3  1  0.24076500  0.73598800  0.93776300  1
  Cr  Cr4  1  0.73909800  0.68657200  0.93843400  1
  Cr  Cr5  1  0.86985700  0.23285400  0.43996000  1
  Cr  Cr6  1  0.32259000  0.19029600  0.43652600  1
  Cr  Cr7  1  0.54214700  0.80948400  0.68367100  1
  Cr  Cr8  1  0.99969400  0.75100100  0.68955200  1
  Cr  Cr9  1  0.63478300  0.31372100  0.18400700  1
  Cr  Cr10  1  0.12549000  0.24397500  0.19026300  1
  Cr  Cr11  1  0.24144400  0.23481400  0.93930800  1
  Cr  Cr12  1  0.74066900  0.19320000  0.93534000  1
  Cr  Cr13  1  0.37233800  0.73342300  0.43964200  1
  Cr  Cr14  1  0.82470800  0.68774400  0.43814700  1
  Cr  Cr15  1  0.04276300  0.31105100  0.68412900  1
  P  P0  1  0.05890700  0.99676300  0.87631800  1
  P  P1  1  0.56313500  0.94163900  0.87563200  1
  P  P2  1  0.18855300  0.50148300  0.37517500  1
  P  P3  1  0.62707000  0.43817400  0.37447700  1
  P  P4  1  0.87089100  0.05255700  0.62860000  1
  P  P5  1  0.31464700  0.00085400  0.62661200  1
  P  P6  1  0.43481000  0.55107300  0.12729100  1
  P  P7  1  0.93899300  0.50054600  0.12744600  1
  P  P8  1  0.06129200  0.50238200  0.87502400  1
  P  P9  1  0.55795800  0.43915900  0.87452600  1
  P  P10  1  0.69032500  0.99597000  0.37624300  1
  P  P11  1  0.12852800  0.94032300  0.37475700  1
  P  P12  1  0.37158100  0.54934500  0.62954900  1
  P  P13  1  0.81582500  0.50228500  0.62683300  1
  P  P14  1  0.43959600  0.05239200  0.12872700  1
  P  P15  1  0.93757200  0.00104800  0.12578400  1
  O  O0  1  0.65347800  0.37226500  0.61612500  1
  O  O1  1  0.66547900  0.92754700  0.95325900  1
  O  O2  1  0.13197700  0.11618200  0.80081700  1
  O  O3  1  0.64144700  0.13013600  0.80283500  1
  O  O4  1  0.16752600  0.88324100  0.95148000  1
  O  O5  1  0.39865800  0.94255400  0.86291100  1
  O  O6  1  0.01414900  0.22533000  0.61724900  1
  O  O7  1  0.94930200  0.87128300  0.11518300  1
  O  O8  1  0.66433300  0.42566500  0.45174300  1
  O  O9  1  0.59018600  0.62344300  0.30102000  1
  O  O10  1  0.08685400  0.62713300  0.29991600  1
  O  O11  1  0.89679000  0.86733700  0.86463300  1
  O  O12  1  0.11598600  0.38634700  0.45009100  1
  O  O13  1  0.29988700  0.13817700  0.63143000  1
  O  O14  1  0.76943800  0.43805100  0.36365800  1
  O  O15  1  0.54421400  0.77316000  0.88031700  1
  O  O16  1  0.43841700  0.71879200  0.11879600  1
  O  O17  1  0.73152100  0.06529700  0.63478200  1
  O  O18  1  0.19605200  0.37322600  0.36195900  1
  O  O19  1  0.39439600  0.10797700  0.55451900  1
  O  O20  1  0.10057500  0.63857800  0.13182200  1
  O  O21  1  0.90799300  0.86845500  0.70577900  1
  O  O22  1  0.42235200  0.88781700  0.70461400  1
  O  O23  1  0.83146600  0.04614400  0.55606700  1
  O  O24  1  0.03537800  0.62549600  0.88472200  1
  O  O25  1  0.48719600  0.26867000  0.37984400  1
  O  O26  1  0.60096900  0.57001700  0.13263500  1
  O  O27  1  0.82140800  0.60697900  0.05628100  1
  O  O28  1  0.15397200  0.86857500  0.61671900  1
  O  O29  1  0.65946600  0.42507300  0.95227600  1
  O  O30  1  0.63461900  0.62499300  0.80156600  1
  O  O31  1  0.14062200  0.62958800  0.80025000  1
  O  O32  1  0.87605300  0.38567700  0.20613200  1
  O  O33  1  0.36719400  0.36174700  0.20304800  1
  O  O34  1  0.85752100  0.11929600  0.38685800  1
  O  O35  1  0.32534600  0.55080600  0.05325300  1
  O  O36  1  0.16822100  0.38721500  0.95035400  1
  O  O37  1  0.39314700  0.43919100  0.86249400  1
  O  O38  1  0.94810200  0.37040700  0.11615200  1
  O  O39  1  0.51747500  0.71822000  0.62042900  1
  O  O40  1  0.16615700  0.92441000  0.45296900  1
  O  O41  1  0.58731900  0.11761600  0.30041700  1
  O  O42  1  0.09638500  0.13081900  0.30238900  1
  O  O43  1  0.90100900  0.37462700  0.86080400  1
  O  O44  1  0.80229600  0.64331500  0.62981700  1
  O  O45  1  0.61767700  0.88460800  0.45094000  1
  O  O46  1  0.54063900  0.27016500  0.87987400  1
  O  O47  1  0.26796400  0.93820800  0.36308900  1
  O  O48  1  0.44608900  0.22426400  0.11787100  1
  O  O49  1  0.23482600  0.56599100  0.63587400  1
  O  O50  1  0.69621100  0.86412800  0.36476500  1
  O  O51  1  0.89789200  0.60386500  0.55643200  1
  O  O52  1  0.09978700  0.13765800  0.13137800  1
  O  O53  1  0.92116700  0.38803700  0.70568900  1
  O  O54  1  0.40194700  0.36059300  0.70445200  1
  O  O55  1  0.03800200  0.12376900  0.88561000  1
  O  O56  1  0.33280800  0.55103800  0.55476100  1
  O  O57  1  0.98635700  0.77468500  0.37807100  1
  O  O58  1  0.60409700  0.06448000  0.13535800  1
  O  O59  1  0.82199400  0.10899300  0.05349000  1
  O  O60  1  0.37164500  0.86719600  0.20516300  1
  O  O61  1  0.87078900  0.88491000  0.20320800  1
  O  O62  1  0.32826600  0.04905000  0.05518500  1
  O  O63  1  0.35631800  0.62519700  0.38513100  1
loop_
_geom_bond_atom_site_label_1
_geom_bond_atom_site_label_2
_geom_bond_distance
_geom_bond_site_symmetry_2
Li0 O46 1.751723 1_555
Li0 O2 2.099273 1_555
Li0 P9 2.247409 1_555
Li1 O57 1.172633 1_555
Li1 O10 1.815703 1_655
Li2 O6 1.917863 1_555
Li2 O12 2.441105 1_555
Li3 O0 1.160605 1_555
Li3 O19 2.005017 1_555
Li4 P14 2.133334 1_565
Li4 O62 2.149757 1_565
Li4 O20 2.381858 1_555
Li5 O7 1.734895 1_555
Li5 O27 1.894614 1_555
Li5 O61 2.409052 1_555
Li5 O26 2.470405 1_555
Li6 O11 1.178212 1_555
Li6 O30 2.047527 1_555
Li7 O15 1.772922 1_555
Li7 O31 2.070676 1_555
Li7 P1 2.278002 1_555
Li8 O18 1.770084 1_655
Li8 O42 1.807370 1_655
Li8 O34 2.098564 1_555
Li8 O12 2.350476 1_655
Li9 O25 1.166096 1_555
Li9 O41 1.830774 1_555
Li10 O39 1.924534 1_555
Li10 O45 2.412070 1_555
Li11 O28 1.156296 1_555
Li11 O51 2.010801 1_455
Li12 P6 2.082252 1_555
Li12 O35 2.165177 1_555
Li12 O52 2.418755 1_555
Li13 O38 1.768797 1_555
Li13 O59 1.875442 1_555
Li13 O58 2.499493 1_555
Li14 O43 1.228893 1_555
Li14 O3 2.010813 1_555
Li15 O50 1.794167 1_555
Li15 O9 1.839171 1_555
Li15 O63 2.082620 1_555
Li15 O45 2.388176 1_555
Cr0 O54 1.865517 1_555
Cr0 O13 1.878132 1_555
Cr0 O0 2.219473 1_555
Cr0 O19 2.346046 1_555
Cr1 O16 1.885149 1_555
Cr1 O61 2.134312 1_555
Cr1 O26 2.174573 1_555
Cr2 O20 1.199222 1_555
Cr2 O60 2.093345 1_555
Cr3 O24 1.876135 1_555
Cr3 O4 1.930971 1_555
Cr3 Li4 2.079651 1_556
Cr3 P8 2.088057 1_555
Cr3 O31 2.341457 1_555
Cr3 Li7 2.583917 1_555
Cr3 O5 2.633037 1_555
Cr4 Li5 2.068378 1_556
Cr4 P9 2.176917 1_555
Cr4 O30 2.409392 1_555
Cr4 O29 2.448810 1_555
Cr4 O11 2.459815 1_555
Cr5 O34 1.208767 1_555
Cr5 O12 2.150684 1_655
Cr6 O25 1.879239 1_555
Cr6 O19 2.671952 1_555
Cr7 O39 1.159156 1_555
Cr7 O22 1.737057 1_555
Cr8 O21 1.805617 1_555
Cr8 O44 1.857768 1_555
Cr8 O28 2.127037 1_655
Cr9 O48 1.867416 1_555
Cr9 O32 2.164563 1_555
Cr9 O58 2.282843 1_555
Cr10 O52 1.179435 1_555
Cr10 O33 2.092700 1_555
Cr11 O55 1.863668 1_555
Cr11 O36 1.984725 1_555
Cr11 Li12 2.042297 1_556
Cr11 P0 2.123362 1_545
Cr11 O2 2.372337 1_555
Cr11 Li0 2.576943 1_555
Cr11 O37 2.631647 1_555
Cr12 Li13 2.126086 1_556
Cr12 P1 2.180766 1_545
Cr12 O3 2.318504 1_555
Cr12 O43 2.480752 1_555
Cr12 O1 2.528857 1_545
Cr12 Li14 2.576394 1_555
Cr12 O59 2.729663 1_556
Cr12 O46 2.764519 1_555
Cr12 O29 2.794929 1_555
Cr13 O63 1.173261 1_555
Cr13 O45 2.139060 1_555
Cr14 O57 1.914297 1_555
Cr15 O6 1.180900 1_555
Cr15 O53 1.744701 1_455
O0 P13 1.473402 1_555
O1 P1 1.793579 1_555
O2 O55 1.773716 1_555
O2 P0 1.953274 1_545
O3 P1 2.414051 1_545
O5 P1 1.679983 1_555
O6 P4 1.698737 1_455
O7 P15 1.340587 1_565
O8 P3 1.468921 1_555
O11 P0 1.467929 1_655
O12 O18 1.752872 1_555
O12 P2 1.917006 1_555
O13 P5 1.452486 1_555
O13 O19 1.701431 1_555
O14 P3 1.450066 1_555
O15 P1 1.649857 1_555
O16 P6 1.733154 1_555
O17 P4 1.476421 1_555
O18 P2 1.295592 1_555
O19 P5 1.833809 1_555
O20 P7 1.515263 1_455
O23 P4 1.312735 1_555
O24 P8 1.364182 1_555
O24 O31 1.827097 1_555
O25 P3 1.624962 1_555
O26 P6 1.589787 1_555
O28 P5 1.471537 1_565
O29 P9 1.790072 1_555
O30 P9 2.396261 1_555
O31 P8 1.996978 1_555
O32 P7 1.967786 1_555
O34 P10 1.488848 1_545
O35 P6 1.708113 1_555
O37 P9 1.676975 1_555
O38 P7 1.327578 1_555
O39 P12 1.667509 1_555
O40 P11 1.502677 1_555
O43 P8 1.446050 1_655
O44 P13 1.490113 1_555
O45 O50 1.721036 1_555
O45 P10 1.890378 1_555
O46 P9 1.665626 1_555
O47 P11 1.432050 1_555
O48 P14 1.777416 1_555
O49 P12 1.472039 1_555
O50 P10 1.326152 1_555
O51 P13 1.780385 1_555
O52 P15 1.509531 1_455
O55 P0 1.371815 1_545
O56 P12 1.382070 1_555
O57 P11 1.595941 1_655
O58 P14 1.604541 1_555
O61 O7 1.743724 1_555
O61 P15 1.957974 1_565
O62 P14 1.697077 1_555
O63 P2 1.495287 1_555
