# generated using pymatgen
data_Li5Mn6(BO3)6
_symmetry_space_group_name_H-M   'P 1'
_cell_length_a   8.28395300
_cell_length_b   8.80141213
_cell_length_c   12.63403627
_cell_angle_alpha   70.22015359
_cell_angle_beta   71.06586896
_cell_angle_gamma   62.49720999
_symmetry_Int_Tables_number   1
_chemical_formula_structural   Li5Mn6(BO3)6
_chemical_formula_sum   'Li10 Mn12 B12 O36'
_cell_volume   753.07161283
_cell_formula_units_Z   2
loop_
 _symmetry_equiv_pos_site_id
 _symmetry_equiv_pos_as_xyz
  1  'x, y, z'
loop_
 _atom_site_type_symbol
 _atom_site_label
 _atom_site_symmetry_multiplicity
 _atom_site_fract_x
 _atom_site_fract_y
 _atom_site_fract_z
 _atom_site_occupancy
  Li  Li0  1  0.01044100  0.09371500  0.19481800  1
  Li  Li1  1  0.27699400  0.40231500  0.30335000  1
  Li  Li2  1  0.28422500  0.15038200  0.55153500  1
  Li  Li3  1  0.00943800  0.84006200  0.44834800  1
  Li  Li4  1  0.02170600  0.33491100  0.94405200  1
  Li  Li5  1  0.02352500  0.58122300  0.69688600  1
  Li  Li6  1  0.28113200  0.90059200  0.79671900  1
  Li  Li7  1  0.69716800  0.88965200  0.12607600  1
  Li  Li8  1  0.69954400  0.63824300  0.37476000  1
  Li  Li9  1  0.70979700  0.13446900  0.88379300  1
  Mn  Mn0  1  0.61944500  0.29765000  0.09735000  1
  Mn  Mn1  1  0.63482000  0.02807400  0.34200400  1
  Mn  Mn2  1  0.35524800  0.74350300  0.24589100  1
  Mn  Mn3  1  0.37467100  0.49331400  0.49929400  1
  Mn  Mn4  1  0.40071300  0.23379600  0.74373400  1
  Mn  Mn5  1  0.98205600  0.23773300  0.41633400  1
  Mn  Mn6  1  0.00007900  0.48104500  0.15882300  1
  Mn  Mn7  1  0.64368500  0.51957300  0.83880600  1
  Mn  Mn8  1  0.63722100  0.76907500  0.59058400  1
  Mn  Mn9  1  0.36348600  0.97836800  0.99583800  1
  Mn  Mn10  1  0.98393100  0.99131000  0.66149100  1
  Mn  Mn11  1  0.99760900  0.73005000  0.91056700  1
  B  B0  1  0.33101800  0.13005600  0.20242200  1
  B  B1  1  0.01935700  0.24145500  0.75400800  1
  B  B2  1  0.00578600  0.50532000  0.49651700  1
  B  B3  1  0.32467900  0.62026800  0.71453400  1
  B  B4  1  0.32760200  0.87820000  0.45650800  1
  B  B5  1  0.34334700  0.36175500  0.95562400  1
  B  B6  1  0.66813300  0.12117300  0.54433800  1
  B  B7  1  0.66116900  0.37947700  0.28871600  1
  B  B8  1  0.67152700  0.62007400  0.04503700  1
  B  B9  1  0.98798700  0.75409000  0.25455900  1
  B  B10  1  0.66940000  0.87496300  0.78885000  1
  B  B11  1  0.98863200  0.01404500  0.00041800  1
  O  O0  1  0.07638900  0.09128500  0.03137700  1
  O  O1  1  0.14081700  0.20659100  0.23758800  1
  O  O2  1  0.10201500  0.59950800  0.21994600  1
  O  O3  1  0.12538100  0.10371100  0.69743500  1
  O  O4  1  0.12079600  0.35210200  0.45519100  1
  O  O5  1  0.06406100  0.84677600  0.28120500  1
  O  O6  1  0.08583500  0.58639700  0.53066900  1
  O  O7  1  0.10836800  0.32530200  0.77773500  1
  O  O8  1  0.44142900  0.20150900  0.21878100  1
  O  O9  1  0.79486600  0.07052500  0.03134300  1
  O  O10  1  0.13595300  0.95643800  0.48478400  1
  O  O11  1  0.13420700  0.71084400  0.73688000  1
  O  O12  1  0.15473900  0.44928300  0.98352700  1
  O  O13  1  0.47036300  0.45504700  0.32394400  1
  O  O14  1  0.47242500  0.20312100  0.58230100  1
  O  O15  1  0.48263700  0.70679700  0.07257500  1
  O  O16  1  0.39895200  0.46930200  0.67158000  1
  O  O17  1  0.42128800  0.22339300  0.89909400  1
  O  O18  1  0.73648200  0.24266000  0.22915000  1
  O  O19  1  0.41608700  0.73263600  0.40707700  1
  O  O20  1  0.41604700  0.98583200  0.15439600  1
  O  O21  1  0.09465400  0.88605200  0.93814000  1
  O  O22  1  0.43982300  0.68045200  0.73164600  1
  O  O23  1  0.43531000  0.94380800  0.47777300  1
  O  O24  1  0.46928600  0.40309600  0.97941100  1
  O  O25  1  0.78035500  0.18020300  0.56269900  1
  O  O26  1  0.77905900  0.43133300  0.30949600  1
  O  O27  1  0.79285400  0.67822500  0.05754500  1
  O  O28  1  0.79541800  0.81841300  0.26508800  1
  O  O29  1  0.81738600  0.57839200  0.50139100  1
  O  O30  1  0.83000700  0.29300000  0.78827800  1
  O  O31  1  0.47346100  0.97181600  0.80652000  1
  O  O32  1  0.73719500  0.98387200  0.49026600  1
  O  O33  1  0.74483500  0.72531100  0.74607400  1
  O  O34  1  0.74517100  0.46530600  0.00326800  1
  O  O35  1  0.77679300  0.93444800  0.81415500  1
loop_
_geom_bond_atom_site_label_1
_geom_bond_atom_site_label_2
_geom_bond_distance
_geom_bond_site_symmetry_2
Li0 O0 1.962095 1_555
Li0 O5 1.982354 1_545
Li0 O18 2.013802 1_455
Li0 O1 2.044132 1_555
Li1 O2 1.911444 1_555
Li1 O13 1.971775 1_555
Li1 O4 1.973112 1_555
Li1 O8 2.056883 1_555
Li2 O3 1.926307 1_555
Li2 O4 1.963018 1_555
Li2 O14 1.995221 1_555
Li2 O23 2.007169 1_545
Li3 O10 1.995772 1_555
Li3 O5 1.996902 1_555
Li3 O32 2.002716 1_455
Li3 O6 2.004338 1_555
Li4 O0 1.961204 1_556
Li4 O7 2.005755 1_555
Li4 O34 2.040920 1_456
Li4 O12 2.048800 1_555
Li5 O6 1.982930 1_555
Li5 O11 2.013560 1_555
Li5 O7 2.014324 1_555
Li5 O33 2.054905 1_455
Li6 O21 1.957476 1_555
Li6 O3 1.958657 1_565
Li6 O31 2.012395 1_555
Li6 O22 2.045097 1_555
Li7 O28 1.962426 1_555
Li7 O9 1.973201 1_565
Li7 O20 2.027665 1_555
Li7 O27 2.030644 1_555
Li8 O29 1.938610 1_555
Li8 O26 1.996522 1_555
Li8 O28 2.006786 1_555
Li8 O19 2.043613 1_555
Li9 O30 1.938700 1_555
Li9 O35 2.002589 1_545
Li9 O9 2.016079 1_556
Li9 O17 2.106409 1_555
Mn0 O24 1.956921 1_554
Mn0 O18 2.003963 1_555
Mn0 O8 2.012460 1_555
Mn0 O34 2.025816 1_555
Mn0 O9 2.112379 1_555
Mn1 O28 2.055899 1_545
Mn1 O32 2.147612 1_545
Mn1 O23 2.157584 1_545
Mn1 O8 2.252078 1_555
Mn1 O18 2.275169 1_555
Mn2 O5 2.096403 1_555
Mn2 O15 2.162644 1_555
Mn2 O19 2.213573 1_555
Mn2 O13 2.237674 1_555
Mn2 O20 2.254891 1_555
Mn3 O6 2.084989 1_555
Mn3 O19 2.158471 1_555
Mn3 O16 2.180946 1_555
Mn3 O13 2.183682 1_555
Mn3 O14 2.259878 1_555
Mn4 O16 1.956909 1_555
Mn4 O17 1.992780 1_555
Mn4 O14 2.005948 1_555
Mn4 O31 2.024356 1_545
Mn4 O7 2.110870 1_555
Mn5 O4 2.084301 1_655
Mn5 O25 2.147146 1_555
Mn5 O26 2.196175 1_555
Mn5 O10 2.203177 1_645
Mn5 O1 2.250158 1_655
Mn6 O2 2.043966 1_555
Mn6 O1 2.170138 1_555
Mn6 O27 2.183335 1_455
Mn6 O12 2.207108 1_554
Mn6 O26 2.254268 1_455
Mn7 O30 2.036162 1_555
Mn7 O22 2.160479 1_555
Mn7 O33 2.163811 1_555
Mn7 O24 2.182572 1_555
Mn7 O34 2.311564 1_556
Mn8 O29 2.046730 1_555
Mn8 O22 2.191916 1_555
Mn8 O23 2.209516 1_555
Mn8 O32 2.238180 1_555
Mn8 O33 2.260407 1_555
Mn9 O0 2.066788 1_566
Mn9 O15 2.121545 1_556
Mn9 O20 2.210962 1_556
Mn9 O17 2.272418 1_565
Mn9 O31 2.277051 1_555
Mn10 O3 2.068323 1_665
Mn10 O25 2.130244 1_565
Mn10 O11 2.211429 1_655
Mn10 O35 2.215173 1_555
Mn10 O10 2.224077 1_655
Mn11 O21 2.043965 1_655
Mn11 O11 2.141785 1_655
Mn11 O27 2.151867 1_556
Mn11 O12 2.217371 1_655
Mn11 O35 2.233769 1_555
B0 O20 1.376138 1_545
B0 O1 1.379031 1_555
B0 O8 1.420099 1_555
B1 O30 1.374283 1_455
B1 O3 1.395596 1_555
B1 O7 1.404959 1_555
B2 O29 1.374986 1_455
B2 O4 1.402126 1_555
B2 O6 1.402223 1_555
B3 O11 1.380713 1_555
B3 O22 1.383883 1_555
B3 O16 1.398155 1_555
B4 O10 1.382404 1_555
B4 O23 1.392172 1_555
B4 O19 1.394924 1_555
B5 O12 1.368795 1_555
B5 O24 1.392552 1_555
B5 O17 1.404692 1_555
B6 O25 1.362197 1_555
B6 O32 1.385968 1_545
B6 O14 1.424147 1_555
B7 O26 1.374816 1_555
B7 O13 1.382643 1_555
B7 O18 1.421414 1_555
B8 O15 1.369475 1_555
B8 O27 1.389241 1_555
B8 O34 1.419952 1_555
B9 O2 1.371942 1_655
B9 O28 1.400759 1_555
B9 O5 1.405100 1_655
B10 O35 1.376887 1_555
B10 O33 1.385595 1_555
B10 O31 1.423673 1_555
B11 O21 1.377375 1_644
B11 O9 1.401348 1_555
B11 O0 1.401635 1_655
