# generated using pymatgen
data_Nd3MnAlS7
_symmetry_space_group_name_H-M   'P 1'
_cell_length_a   10.00314552
_cell_length_b   10.00314552
_cell_length_c   6.11143300
_cell_angle_alpha   90.00000000
_cell_angle_beta   90.00000000
_cell_angle_gamma   119.99999683
_symmetry_Int_Tables_number   1
_chemical_formula_structural   Nd3MnAlS7
_chemical_formula_sum   'Nd6 Mn2 Al2 S14'
_cell_volume   529.59865561
_cell_formula_units_Z   2
loop_
 _symmetry_equiv_pos_site_id
 _symmetry_equiv_pos_as_xyz
  1  'x, y, z'
loop_
 _atom_site_type_symbol
 _atom_site_label
 _atom_site_symmetry_multiplicity
 _atom_site_fract_x
 _atom_site_fract_y
 _atom_site_fract_z
 _atom_site_occupancy
  Nd  Nd0  1  0.14655900  0.37672100  0.24128400  1
  Nd  Nd1  1  0.85344100  0.62327900  0.74128400  1
  Nd  Nd2  1  0.62327900  0.76983800  0.24128400  1
  Nd  Nd3  1  0.23016200  0.85344100  0.24128400  1
  Nd  Nd4  1  0.76983800  0.14655900  0.74128400  1
  Nd  Nd5  1  0.37672100  0.23016200  0.74128400  1
  Mn  Mn0  1  0.00000000  0.00000000  0.02091000  1
  Mn  Mn1  1  0.00000000  0.00000000  0.52091000  1
  Al  Al0  1  0.33333300  0.66666700  0.66295600  1
  Al  Al1  1  0.66666700  0.33333300  0.16295600  1
  S  S0  1  0.33333300  0.66666700  0.02821600  1
  S  S1  1  0.66666700  0.33333300  0.52821600  1
  S  S2  1  0.09525700  0.23944100  0.79466200  1
  S  S3  1  0.90474300  0.76055900  0.29466200  1
  S  S4  1  0.76055900  0.85581600  0.79466200  1
  S  S5  1  0.14418400  0.90474300  0.79466200  1
  S  S6  1  0.85581600  0.09525700  0.29466200  1
  S  S7  1  0.23944100  0.14418400  0.29466200  1
  S  S8  1  0.42320200  0.52085100  0.51475900  1
  S  S9  1  0.57679800  0.47914900  0.01475900  1
  S  S10  1  0.47914900  0.90235100  0.51475900  1
  S  S11  1  0.09764900  0.57679800  0.51475900  1
  S  S12  1  0.90235100  0.42320200  0.01475900  1
  S  S13  1  0.52085100  0.09764900  0.01475900  1
loop_
_geom_bond_atom_site_label_1
_geom_bond_atom_site_label_2
_geom_bond_distance
_geom_bond_site_symmetry_2
Nd0 S11 2.831516 1_555
Nd0 S0 2.859993 1_555
Nd0 S6 2.881588 1_455
Nd0 S8 2.922356 1_555
Nd0 S7 2.922606 1_555
Nd0 S2 2.982378 1_554
Nd0 S12 3.039087 1_455
Nd1 S12 2.831516 1_556
Nd1 S1 2.859993 1_555
Nd1 S5 2.881588 1_655
Nd1 S9 2.922356 1_556
Nd1 S4 2.922606 1_555
Nd1 S3 2.982378 1_555
Nd1 S11 3.039087 1_655
Nd2 S8 2.831517 1_555
Nd2 S0 2.859994 1_555
Nd2 S3 2.881588 1_555
Nd2 S10 2.922356 1_555
Nd2 S6 2.922606 1_565
Nd2 S4 2.982378 1_554
Nd2 S9 3.039087 1_555
Nd3 S10 2.831516 1_555
Nd3 S0 2.859986 1_555
Nd3 S7 2.881588 1_565
Nd3 S11 2.922356 1_555
Nd3 S3 2.922606 1_455
Nd3 S5 2.982378 1_554
Nd3 S13 3.039087 1_565
Nd4 S13 2.831516 1_556
Nd4 S1 2.859986 1_555
Nd4 S4 2.881588 1_545
Nd4 S12 2.922356 1_556
Nd4 S2 2.922606 1_655
Nd4 S6 2.982378 1_555
Nd4 S10 3.039087 1_545
Nd5 S9 2.831517 1_556
Nd5 S1 2.859994 1_555
Nd5 S2 2.881588 1_555
Nd5 S13 2.922356 1_556
Nd5 S5 2.922606 1_545
Nd5 S7 2.982378 1_555
Nd5 S8 3.039087 1_555
Mn0 S5 2.504865 1_544
Mn0 S2 2.504865 1_554
Mn0 S4 2.504865 1_444
Mn0 S6 2.676093 1_455
Mn0 S3 2.676093 1_445
Mn0 S7 2.676093 1_555
Mn1 S6 2.504865 1_455
Mn1 S3 2.504865 1_445
Mn1 S7 2.504865 1_555
Mn1 S5 2.676093 1_545
Mn1 S2 2.676093 1_555
Mn1 S4 2.676093 1_445
Al0 S0 2.232262 1_556
Al0 S11 2.251050 1_555
Al0 S10 2.251051 1_555
Al0 S8 2.251058 1_555
Al1 S1 2.232262 1_555
Al1 S12 2.251050 1_555
Al1 S13 2.251051 1_555
Al1 S9 2.251058 1_555
