# generated using pymatgen
data_Li5Mn3(CoO5)2
_symmetry_space_group_name_H-M   'P 1'
_cell_length_a   5.25062900
_cell_length_b   5.23982134
_cell_length_c   7.71986636
_cell_angle_alpha   107.95901567
_cell_angle_beta   104.54293269
_cell_angle_gamma   99.37397843
_symmetry_Int_Tables_number   1
_chemical_formula_structural   Li5Mn3(CoO5)2
_chemical_formula_sum   'Li5 Mn3 Co2 O10'
_cell_volume   188.79268406
_cell_formula_units_Z   1
loop_
 _symmetry_equiv_pos_site_id
 _symmetry_equiv_pos_as_xyz
  1  'x, y, z'
loop_
 _atom_site_type_symbol
 _atom_site_label
 _atom_site_symmetry_multiplicity
 _atom_site_fract_x
 _atom_site_fract_y
 _atom_site_fract_z
 _atom_site_occupancy
  Li  Li0  1  0.39239400  0.08643300  0.41165600  1
  Li  Li1  1  0.82992700  0.71478700  0.78225900  1
  Li  Li2  1  0.50000000  0.50000000  0.50000000  1
  Li  Li3  1  0.17007300  0.28521300  0.21774100  1
  Li  Li4  1  0.60760600  0.91356700  0.58834400  1
  Mn  Mn0  1  0.00000000  0.50000000  0.00000000  1
  Mn  Mn1  1  0.90301200  0.10046800  0.89625600  1
  Mn  Mn2  1  0.09698800  0.89953200  0.10374400  1
  Co  Co0  1  0.72408900  0.33710800  0.68501300  1
  Co  Co1  1  0.27591100  0.66289200  0.31498700  1
  O  O0  1  0.36245400  0.38339900  0.85502100  1
  O  O1  1  0.41247000  0.81166500  0.95223700  1
  O  O2  1  0.04488200  0.22473500  0.54327200  1
  O  O3  1  0.78113600  0.01482000  0.22908400  1
  O  O4  1  0.12951500  0.56337100  0.66297800  1
  O  O5  1  0.87048500  0.43662900  0.33702200  1
  O  O6  1  0.21886400  0.98518000  0.77091600  1
  O  O7  1  0.95511800  0.77526500  0.45672800  1
  O  O8  1  0.58753000  0.18833500  0.04776300  1
  O  O9  1  0.63754600  0.61660100  0.14497900  1
loop_
_geom_bond_atom_site_label_1
_geom_bond_atom_site_label_2
_geom_bond_distance
_geom_bond_site_symmetry_2
Li0 Li2 1.994133 1_555
Li0 O2 2.407210 1_555
Li1 Mn1 1.867298 1_565
Li1 O4 2.152971 1_655
Li1 O6 2.325778 1_655
Li1 Mn0 2.372710 1_656
Li2 Li4 1.994133 1_555
Li2 O5 2.580562 1_555
Li2 O4 2.580562 1_555
Li3 Mn2 1.867298 1_545
Li3 O5 2.152971 1_455
Li3 O3 2.325778 1_455
Li3 Mn0 2.372710 1_555
Li4 O7 2.407210 1_555
Mn0 Mn2 1.922848 1_555
Mn0 Mn1 1.922848 1_454
Mn0 O0 2.504907 1_554
Mn0 O9 2.504907 1_455
Mn0 O8 2.667113 1_455
Mn0 O1 2.667113 1_554
Mn1 O6 2.196211 1_645
Mn1 O8 2.283256 1_556
Mn2 O3 2.196211 1_465
Mn2 O1 2.283256 1_554
Co0 Li1 1.817910 1_555
Co0 Li4 2.040461 1_545
Co0 Li2 2.094712 1_555
Co0 Li0 2.216182 1_555
Co0 O2 2.287461 1_655
Co0 Mn0 2.299642 1_656
Co0 O4 2.334557 1_655
Co0 Mn1 2.436490 1_555
Co0 O0 2.567505 1_555
Co1 Li3 1.817910 1_555
Co1 Li0 2.040461 1_565
Co1 Li2 2.094712 1_555
Co1 Li4 2.216182 1_555
Co1 O7 2.287461 1_455
Co1 Mn0 2.299642 1_555
Co1 O5 2.334557 1_455
Co1 Mn2 2.436490 1_555
Co1 O9 2.567505 1_555
O0 O6 1.936519 1_545
O2 O4 1.650954 1_555
O3 O9 1.936519 1_545
O5 O7 1.650954 1_555
