# generated using pymatgen
data_AlAs
_symmetry_space_group_name_H-M   'P 1'
_cell_length_a   4.00239400
_cell_length_b   4.00239410
_cell_length_c   6.57780500
_cell_angle_alpha   90.00000000
_cell_angle_beta   90.00000000
_cell_angle_gamma   119.99999914
_symmetry_Int_Tables_number   1
_chemical_formula_structural   AlAs
_chemical_formula_sum   'Al2 As2'
_cell_volume   91.25387576
_cell_formula_units_Z   2
loop_
 _symmetry_equiv_pos_site_id
 _symmetry_equiv_pos_as_xyz
  1  'x, y, z'
loop_
 _atom_site_type_symbol
 _atom_site_label
 _atom_site_symmetry_multiplicity
 _atom_site_fract_x
 _atom_site_fract_y
 _atom_site_fract_z
 _atom_site_occupancy
  Al  Al0  1  0.33333300  0.66666700  0.00068300  1
  Al  Al1  1  0.66666700  0.33333300  0.50068300  1
  As  As0  1  0.33333300  0.66666700  0.37531700  1
  As  As1  1  0.66666700  0.33333300  0.87531700  1
loop_
_geom_bond_atom_site_label_1
_geom_bond_atom_site_label_2
_geom_bond_distance
_geom_bond_site_symmetry_2
Al0 As1 2.453513 1_454
Al0 As1 2.453514 1_564
Al0 As1 2.453520 1_554
Al0 As0 2.464269 1_555
Al1 As0 2.453513 1_655
Al1 As0 2.453514 1_545
Al1 As0 2.453520 1_555
Al1 As1 2.464269 1_555
