# generated using pymatgen
data_Li4V3P8O29
_symmetry_space_group_name_H-M   'P 1'
_cell_length_a   9.72638100
_cell_length_b   9.73904581
_cell_length_c   14.17419861
_cell_angle_alpha   89.81037746
_cell_angle_beta   90.72960297
_cell_angle_gamma   119.61315781
_symmetry_Int_Tables_number   1
_chemical_formula_structural   Li4V3P8O29
_chemical_formula_sum   'Li8 V6 P16 O58'
_cell_volume   1167.18262233
_cell_formula_units_Z   2
loop_
 _symmetry_equiv_pos_site_id
 _symmetry_equiv_pos_as_xyz
  1  'x, y, z'
loop_
 _atom_site_type_symbol
 _atom_site_label
 _atom_site_symmetry_multiplicity
 _atom_site_fract_x
 _atom_site_fract_y
 _atom_site_fract_z
 _atom_site_occupancy
  Li  Li0  1  0.90491100  0.66920400  0.05444900  1
  Li  Li1  1  0.76814600  0.09181500  0.05411700  1
  Li  Li2  1  0.32566100  0.23259300  0.05936700  1
  Li  Li3  1  0.68560100  0.91767600  0.44229500  1
  Li  Li4  1  0.33304500  0.09951900  0.56234600  1
  Li  Li5  1  0.31892200  0.65462300  0.60784800  1
  Li  Li6  1  0.00250300  0.00041200  0.98373600  1
  Li  Li7  1  0.00202800  0.98936500  0.51429200  1
  V  V0  1  0.56547700  0.00182400  0.24645500  1
  V  V1  1  0.43081500  0.99925300  0.75273900  1
  V  V2  1  0.56990800  0.56712100  0.75300000  1
  V  V3  1  0.43678500  0.43869000  0.25247200  1
  V  V4  1  0.99929900  0.56070400  0.25593200  1
  V  V5  1  0.99868300  0.43092500  0.74690900  1
  P  P0  1  0.92142500  0.69413300  0.84098100  1
  P  P1  1  0.77882600  0.69497300  0.34203600  1
  P  P2  1  0.91886600  0.22067700  0.34644900  1
  P  P3  1  0.66823900  0.33732600  0.13214500  1
  P  P4  1  0.66181600  0.33236600  0.62976400  1
  P  P5  1  0.77965400  0.08685600  0.83891300  1
  P  P6  1  0.68339200  0.90544300  0.65863100  1
  P  P7  1  0.31075800  0.22781400  0.84490100  1
  P  P8  1  0.69137900  0.77440900  0.15553900  1
  P  P9  1  0.31625700  0.08906400  0.34500400  1
  P  P10  1  0.21586200  0.91267100  0.16391100  1
  P  P11  1  0.33835300  0.66970900  0.36902200  1
  P  P12  1  0.33072200  0.66352500  0.86685400  1
  P  P13  1  0.08597000  0.78255900  0.65638400  1
  P  P14  1  0.21770400  0.30668100  0.66112400  1
  P  P15  1  0.08253100  0.30486000  0.16064000  1
  O  O0  1  0.99841900  0.80245100  0.57647600  1
  O  O1  1  0.91439200  0.65471000  0.33531200  1
  O  O2  1  0.78721900  0.77975100  0.07330700  1
  O  O3  1  0.74647300  0.65927200  0.82981100  1
  O  O4  1  0.92378300  0.53863000  0.82664600  1
  O  O5  1  0.81425100  0.48773800  0.17777000  1
  O  O6  1  0.91872800  0.38144700  0.32939300  1
  O  O7  1  0.99321600  0.20545500  0.07796400  1
  O  O8  1  0.91946000  0.25916900  0.82635900  1
  O  O9  1  0.65269200  0.47232100  0.67996200  1
  O  O10  1  0.61869100  0.53693100  0.32861800  1
  O  O11  1  0.81294600  0.34143800  0.67818600  1
  O  O12  1  0.67053800  0.34813400  0.02727900  1
  O  O13  1  0.66752600  0.34264900  0.52578400  1
  O  O14  1  0.67595600  0.18849300  0.16785700  1
  O  O15  1  0.46620100  0.38444800  0.83030300  1
  O  O16  1  0.51510200  0.32961300  0.17390400  1
  O  O17  1  0.74410600  0.08412200  0.33474600  1
  O  O18  1  0.79426000  0.99342400  0.74915600  1
  O  O19  1  0.76912500  0.97998400  0.57023500  1
  O  O20  1  0.80382200  0.02053000  0.92863100  1
  O  O21  1  0.62234300  0.08504500  0.82844400  1
  O  O22  1  0.51467400  0.18042100  0.66638500  1
  O  O23  1  0.65764200  0.91434300  0.15688200  1
  O  O24  1  0.47154400  0.08979000  0.32778500  1
  O  O25  1  0.34546100  0.26050200  0.32609500  1
  O  O26  1  0.79625900  0.79856400  0.25005300  1
  O  O27  1  0.78856500  0.79079200  0.42569300  1
  O  O28  1  0.20388800  0.19643000  0.58426400  1
  O  O29  1  0.65085700  0.73242900  0.66642800  1
  O  O30  1  0.52150000  0.89786400  0.67042000  1
  O  O31  1  0.34489400  0.08984600  0.83005100  1
  O  O32  1  0.48890300  0.81632400  0.33286500  1
  O  O33  1  0.37886600  0.91793800  0.17270200  1
  O  O34  1  0.20222100  0.00492500  0.08389000  1
  O  O35  1  0.24146000  0.02975100  0.43765900  1
  O  O36  1  0.19461100  0.98347400  0.26232600  1
  O  O37  1  0.26119100  0.91944800  0.65918300  1
  O  O38  1  0.47734000  0.66142000  0.81992800  1
  O  O39  1  0.53489300  0.61614400  0.17109200  1
  O  O40  1  0.32897500  0.80943800  0.82444700  1
  O  O41  1  0.32899700  0.65104900  0.97048600  1
  O  O42  1  0.33281200  0.66121600  0.47386300  1
  O  O43  1  0.18866800  0.66811700  0.32311900  1
  O  O44  1  0.37183200  0.46832400  0.66752200  1
  O  O45  1  0.33541000  0.52095800  0.32218900  1
  O  O46  1  0.08003900  0.73809900  0.16322600  1
  O  O47  1  0.01450200  0.80556400  0.75495200  1
  O  O48  1  0.98751300  0.77838600  0.93240800  1
  O  O49  1  0.09198600  0.62572200  0.66448500  1
  O  O50  1  0.18512100  0.51843300  0.81555300  1
  O  O51  1  0.07593200  0.46048800  0.17407900  1
  O  O52  1  0.25823700  0.34423700  0.16097800  1
  O  O53  1  0.22894400  0.21074100  0.93597600  1
  O  O54  1  0.19459800  0.21463400  0.76011300  1
  O  O55  1  0.07900800  0.34423000  0.65917500  1
  O  O56  1  0.99522400  0.20905200  0.43387700  1
  O  O57  1  0.00781100  0.20483000  0.25529700  1
loop_
_geom_bond_atom_site_label_1
_geom_bond_atom_site_label_2
_geom_bond_distance
_geom_bond_site_symmetry_2
Li0 O2 1.941295 1_555
Li0 O48 1.986807 1_554
Li0 O46 2.130568 1_655
Li0 O5 2.331312 1_555
Li1 O7 1.928884 1_555
Li1 O20 2.006989 1_554
Li1 O23 2.109879 1_545
Li1 O14 2.273958 1_555
Li2 O53 1.936962 1_554
Li2 O34 1.962960 1_555
Li2 O52 2.103744 1_555
Li2 O16 2.266472 1_555
Li3 O19 1.949195 1_555
Li3 O27 1.953537 1_555
Li3 O17 2.090336 1_565
Li3 O32 2.260223 1_555
Li4 O35 1.936067 1_555
Li4 O28 1.936252 1_555
Li4 O37 2.060383 1_545
Li4 O22 2.117083 1_555
Li5 O42 1.904265 1_555
Li5 O49 2.241728 1_555
Li5 O44 2.274589 1_555
Li5 O30 2.374279 1_555
Li6 O20 2.171991 1_455
Li6 O48 2.218634 1_445
Li6 O53 2.252813 1_555
Li6 O34 2.374120 1_556
Li6 O7 2.445138 1_456
Li6 O2 2.493432 1_446
Li7 O0 2.004708 1_455
Li7 O28 2.226183 1_565
Li7 O27 2.368393 1_455
Li7 O19 2.368426 1_455
Li7 O35 2.431924 1_565
Li7 O56 2.450117 1_465
O0 P13 1.477347 1_655
O1 P1 1.554314 1_555
O1 V4 1.887819 1_555
O2 P8 1.486459 1_555
O3 P0 1.567954 1_555
O3 V2 1.837307 1_555
O4 P0 1.540083 1_555
O4 V5 1.921562 1_555
O5 P3 1.583614 1_555
O5 V4 1.913699 1_555
O6 P2 1.584163 1_555
O6 V4 1.844665 1_555
O7 P15 1.488488 1_655
O8 P5 1.563943 1_555
O8 V5 1.842770 1_555
O9 P4 1.580995 1_555
O9 V2 1.826127 1_555
O10 P1 1.567263 1_555
O10 V3 1.869740 1_555
O11 P4 1.576698 1_555
O11 V5 1.837616 1_555
O12 P3 1.489437 1_555
O13 P4 1.476790 1_555
O14 P3 1.569899 1_555
O14 V0 1.946100 1_555
O15 P7 1.543453 1_555
O15 V2 1.903901 1_555
O16 P3 1.576734 1_555
O16 V3 1.943731 1_555
O17 P2 1.563858 1_555
O17 V0 1.949921 1_555
O18 P6 1.613165 1_555
O18 P5 1.614549 1_565
O19 P6 1.488135 1_555
O20 P5 1.492212 1_555
O21 P5 1.526761 1_555
O21 V1 1.933039 1_545
O22 P4 1.558294 1_555
O22 V1 1.966071 1_545
O23 P8 1.551648 1_555
O23 V0 1.983016 1_565
O24 P9 1.529604 1_555
O24 V0 1.924702 1_555
O25 P9 1.571782 1_555
O25 V3 1.837867 1_555
O26 P1 1.604464 1_555
O26 P8 1.618876 1_555
O27 P1 1.484239 1_555
O28 P14 1.489713 1_555
O29 P6 1.556998 1_555
O29 V2 1.864504 1_555
O30 P6 1.550666 1_555
O30 V1 2.002256 1_555
O31 P7 1.550665 1_555
O31 V1 1.853671 1_545
O32 P11 1.547131 1_555
O32 V0 1.999356 1_565
O33 P10 1.564101 1_555
O33 V0 1.883228 1_565
O34 P10 1.489484 1_545
O35 P9 1.480446 1_555
O36 P9 1.612744 1_565
O36 P10 1.618231 1_555
O37 P13 1.560965 1_555
O37 V1 1.941222 1_555
O38 P12 1.590479 1_555
O38 V2 1.843555 1_555
O39 P8 1.558447 1_555
O39 V3 1.900770 1_555
O40 P12 1.548849 1_555
O40 V1 1.906609 1_555
O41 P12 1.473141 1_555
O42 P11 1.488245 1_555
O43 P11 1.580136 1_555
O43 V4 1.857810 1_455
O44 P14 1.548862 1_555
O44 V2 2.054667 1_555
O45 P11 1.582746 1_555
O45 V3 1.844307 1_555
O46 P10 1.554329 1_555
O46 V4 1.999650 1_455
O47 P0 1.591421 1_455
O47 P13 1.632810 1_555
O48 P0 1.493456 1_555
O49 P13 1.560989 1_555
O49 V5 2.024462 1_455
O50 P12 1.591826 1_555
O50 V5 1.842425 1_455
O51 P15 1.560775 1_555
O51 V4 1.898077 1_455
O52 P15 1.555575 1_555
O52 V3 1.978800 1_555
O53 P7 1.490406 1_555
O54 P7 1.600127 1_555
O54 P14 1.619688 1_555
O55 P14 1.562321 1_555
O55 V5 1.885026 1_455
O56 P2 1.469287 1_555
O57 P15 1.610537 1_555
O57 P2 1.613462 1_455
