# generated using pymatgen
data_LiMn2(BO3)2
_symmetry_space_group_name_H-M   'P 1'
_cell_length_a   5.35828400
_cell_length_b   9.09079943
_cell_length_c   11.39419616
_cell_angle_alpha   112.57606298
_cell_angle_beta   101.84190558
_cell_angle_gamma   89.62817481
_symmetry_Int_Tables_number   1
_chemical_formula_structural   LiMn2(BO3)2
_chemical_formula_sum   'Li4 Mn8 B8 O24'
_cell_volume   499.97802366
_cell_formula_units_Z   4
loop_
 _symmetry_equiv_pos_site_id
 _symmetry_equiv_pos_as_xyz
  1  'x, y, z'
loop_
 _atom_site_type_symbol
 _atom_site_label
 _atom_site_symmetry_multiplicity
 _atom_site_fract_x
 _atom_site_fract_y
 _atom_site_fract_z
 _atom_site_occupancy
  Li  Li0  1  0.28726300  0.18115100  0.32739600  1
  Li  Li1  1  0.56982100  0.40932800  0.85097800  1
  Li  Li2  1  0.07590100  0.91479600  0.83666300  1
  Li  Li3  1  0.66068300  0.79765500  0.58427800  1
  Mn  Mn0  1  0.08434400  0.60911400  0.86879500  1
  Mn  Mn1  1  0.64728900  0.46006700  0.61454700  1
  Mn  Mn2  1  0.39713800  0.90560100  0.11270900  1
  Mn  Mn3  1  0.16774900  0.99462900  0.62454800  1
  Mn  Mn4  1  0.82306400  0.98547000  0.36431700  1
  Mn  Mn5  1  0.59919800  0.09245200  0.88185000  1
  Mn  Mn6  1  0.34210500  0.54040100  0.36935500  1
  Mn  Mn7  1  0.91075200  0.38044400  0.12664500  1
  B  B0  1  0.60554500  0.75816100  0.86682200  1
  B  B1  1  0.83844500  0.33358100  0.36364300  1
  B  B2  1  0.10234200  0.27348800  0.87829100  1
  B  B3  1  0.65266800  0.12788100  0.62913600  1
  B  B4  1  0.36513900  0.87137900  0.37717200  1
  B  B5  1  0.89560100  0.72173100  0.11809000  1
  B  B6  1  0.15377100  0.65194600  0.63173800  1
  B  B7  1  0.38717800  0.25447200  0.12991500  1
  O  O0  1  0.36471700  0.78492300  0.90155300  1
  O  O1  1  0.05518400  0.54515600  0.67792300  1
  O  O2  1  0.95305100  0.20244600  0.36709000  1
  O  O3  1  0.68945700  0.60358300  0.83115400  1
  O  O4  1  0.61158900  0.37769200  0.40877400  1
  O  O5  1  0.21758800  0.40058400  0.87088900  1
  O  O6  1  0.27116000  0.12914800  0.13959900  1
  O  O7  1  0.56844900  0.27470500  0.66211600  1
  O  O8  1  0.19128900  0.11977100  0.83022800  1
  O  O9  1  0.44374400  0.97838300  0.32650100  1
  O  O10  1  0.88199200  0.28530300  0.93131800  1
  O  O11  1  0.13637600  0.89598000  0.41840300  1
  O  O12  1  0.83969200  0.07728300  0.55553300  1
  O  O13  1  0.09401100  0.72796000  0.05398300  1
  O  O14  1  0.56173400  0.01563000  0.67093200  1
  O  O15  1  0.79370900  0.87088000  0.17626600  1
  O  O16  1  0.03469900  0.78886100  0.64234000  1
  O  O17  1  0.51268900  0.75669800  0.39456900  1
  O  O18  1  0.75095100  0.88108000  0.87063000  1
  O  O19  1  0.80339000  0.58962700  0.12212000  1
  O  O20  1  0.36960300  0.61627000  0.57703100  1
  O  O21  1  0.28925500  0.40594500  0.16586900  1
  O  O22  1  0.95114300  0.43501900  0.31609700  1
  O  O23  1  0.60593000  0.23648700  0.07928800  1
loop_
_geom_bond_atom_site_label_1
_geom_bond_atom_site_label_2
_geom_bond_distance
_geom_bond_site_symmetry_2
Li0 O2 1.926059 1_455
Li0 O6 1.989397 1_555
Li0 O9 2.017422 1_545
Li0 O4 2.275758 1_555
Li1 O5 1.952297 1_555
Li1 O3 1.990194 1_555
Li1 O7 2.024875 1_555
Li1 O10 2.246482 1_555
Li2 O18 1.910500 1_455
Li2 O8 1.999580 1_565
Li2 O16 2.029343 1_555
Li2 O0 2.124256 1_555
Li3 O14 1.970167 1_565
Li3 O16 1.988666 1_655
Li3 O17 2.030335 1_555
Li3 O20 2.243749 1_555
Mn0 O13 1.956475 1_556
Mn0 O1 1.995787 1_555
Mn0 O5 2.028342 1_555
Mn0 O3 2.067835 1_455
Mn0 O0 2.072111 1_555
Mn1 O7 2.028855 1_555
Mn1 O4 2.136416 1_555
Mn1 O20 2.142584 1_555
Mn1 O1 2.200458 1_655
Mn1 O3 2.268727 1_555
Mn2 O6 2.066023 1_565
Mn2 O13 2.109996 1_555
Mn2 O15 2.162097 1_555
Mn2 O0 2.196957 1_554
Mn2 O9 2.224658 1_555
Mn3 O12 2.035219 1_465
Mn3 O14 2.059680 1_565
Mn3 O16 2.101494 1_555
Mn3 O11 2.138261 1_555
Mn3 O8 2.153100 1_565
Mn4 O11 1.950037 1_655
Mn4 O15 1.962398 1_555
Mn4 O9 1.985405 1_555
Mn4 O12 1.994131 1_565
Mn4 O2 2.082730 1_565
Mn5 O18 2.050273 1_545
Mn5 O23 2.117141 1_556
Mn5 O10 2.147699 1_555
Mn5 O8 2.182286 1_555
Mn5 O14 2.195161 1_555
Mn6 O17 2.065476 1_555
Mn6 O21 2.123434 1_555
Mn6 O4 2.165846 1_555
Mn6 O20 2.168383 1_555
Mn6 O22 2.175430 1_455
Mn7 O23 1.948174 1_555
Mn7 O21 1.980231 1_655
Mn7 O22 1.984969 1_555
Mn7 O19 1.999687 1_555
Mn7 O10 2.026832 1_554
B0 O18 1.348248 1_555
B0 O3 1.403680 1_555
B0 O0 1.418654 1_555
B1 O2 1.347722 1_555
B1 O4 1.412342 1_555
B1 O22 1.426040 1_555
B2 O5 1.352354 1_555
B2 O8 1.410922 1_555
B2 O10 1.418434 1_455
B3 O7 1.342785 1_555
B3 O12 1.400687 1_555
B3 O14 1.407252 1_555
B4 O17 1.354590 1_555
B4 O11 1.387577 1_555
B4 O9 1.411854 1_555
B5 O19 1.322054 1_555
B5 O13 1.420663 1_655
B5 O15 1.422929 1_555
B6 O16 1.369941 1_555
B6 O20 1.402492 1_555
B6 O1 1.418260 1_555
B7 O6 1.352958 1_555
B7 O23 1.391401 1_555
B7 O21 1.408900 1_555
