# generated using pymatgen
data_Fe7(OF3)3
_symmetry_space_group_name_H-M   'P 1'
_cell_length_a   5.49466800
_cell_length_b   5.70534910
_cell_length_c   9.13027394
_cell_angle_alpha   104.57634488
_cell_angle_beta   89.50847620
_cell_angle_gamma   117.85924825
_symmetry_Int_Tables_number   1
_chemical_formula_structural   Fe7(OF3)3
_chemical_formula_sum   'Fe7 O3 F9'
_cell_volume   242.90975196
_cell_formula_units_Z   1
loop_
 _symmetry_equiv_pos_site_id
 _symmetry_equiv_pos_as_xyz
  1  'x, y, z'
loop_
 _atom_site_type_symbol
 _atom_site_label
 _atom_site_symmetry_multiplicity
 _atom_site_fract_x
 _atom_site_fract_y
 _atom_site_fract_z
 _atom_site_occupancy
  Fe  Fe0  1  0.21181700  0.29158600  0.07104500  1
  Fe  Fe1  1  0.03593600  0.71235900  0.66504700  1
  Fe  Fe2  1  0.47790200  0.32119500  0.81458900  1
  Fe  Fe3  1  0.32050900  0.70887800  0.43153500  1
  Fe  Fe4  1  0.49020400  0.72292400  0.17424400  1
  Fe  Fe5  1  0.94951600  0.31090100  0.31594600  1
  Fe  Fe6  1  0.78004600  0.32597200  0.58512700  1
  O  O0  1  0.18167600  0.48193400  0.62149600  1
  O  O1  1  0.24991400  0.78167400  0.23505300  1
  O  O2  1  0.75459500  0.80003900  0.47567500  1
  F  F0  1  0.19775300  0.18926200  0.27693600  1
  F  F1  1  0.24824100  0.80704200  0.96934500  1
  F  F2  1  0.35148200  0.17805600  0.54830500  1
  F  F3  1  0.28009400  0.47798500  0.86791700  1
  F  F4  1  0.63242600  0.48586700  0.14324700  1
  F  F5  1  0.72029200  0.20131900  0.77051100  1
  F  F6  1  0.76819400  0.18242000  0.01973800  1
  F  F7  1  0.77862500  0.83384900  0.69971100  1
  F  F8  1  0.78718700  0.48003800  0.38448400  1
loop_
_geom_bond_atom_site_label_1
_geom_bond_atom_site_label_2
_geom_bond_distance
_geom_bond_site_symmetry_2
Fe1 O0 1.800842 1_555
Fe3 O1 2.019577 1_555
Fe3 O2 2.207598 1_555
Fe3 O0 2.334752 1_555
Fe4 O1 1.572004 1_555
Fe6 O0 1.949540 1_655
F0 Fe5 1.794676 1_455
F0 Fe0 2.094832 1_555
F1 Fe4 2.566840 1_556
F2 Fe6 2.093766 1_555
F2 Fe2 2.357927 1_555
F2 Fe3 2.543991 1_545
F3 Fe2 1.702638 1_555
F3 Fe0 2.306349 1_556
F4 Fe4 1.819714 1_555
F4 Fe0 2.066055 1_555
F5 Fe2 1.762711 1_555
F5 Fe6 1.963833 1_555
F6 Fe0 2.236716 1_655
F7 Fe1 1.837759 1_655
F8 Fe5 1.615318 1_555
F8 O2 1.896425 1_555
F8 Fe6 2.215214 1_555
