# generated using pymatgen
data_Li4V5Sn3O16
_symmetry_space_group_name_H-M   'P 1'
_cell_length_a   6.11463400
_cell_length_b   6.14425374
_cell_length_c   9.73347956
_cell_angle_alpha   90.64389024
_cell_angle_beta   89.70247910
_cell_angle_gamma   119.72390223
_symmetry_Int_Tables_number   1
_chemical_formula_structural   Li4V5Sn3O16
_chemical_formula_sum   'Li4 V5 Sn3 O16'
_cell_volume   317.55024714
_cell_formula_units_Z   1
loop_
 _symmetry_equiv_pos_site_id
 _symmetry_equiv_pos_as_xyz
  1  'x, y, z'
loop_
 _atom_site_type_symbol
 _atom_site_label
 _atom_site_symmetry_multiplicity
 _atom_site_fract_x
 _atom_site_fract_y
 _atom_site_fract_z
 _atom_site_occupancy
  Li  Li0  1  0.32788800  0.65190500  0.89088300  1
  Li  Li1  1  0.01230000  0.02507300  0.99241000  1
  Li  Li2  1  0.00502500  0.01214200  0.49972100  1
  Li  Li3  1  0.66661800  0.33148600  0.39578700  1
  V  V0  1  0.32825900  0.66346100  0.49019500  1
  V  V1  1  0.16901300  0.33778000  0.21433500  1
  V  V2  1  0.66584300  0.32713000  0.98598100  1
  V  V3  1  0.33811600  0.16883000  0.71140900  1
  V  V4  1  0.82515000  0.16565500  0.71354000  1
  Sn  Sn0  1  0.66087400  0.82995800  0.21356900  1
  Sn  Sn1  1  0.16878700  0.83043600  0.21326100  1
  Sn  Sn2  1  0.82982500  0.66008700  0.71420000  1
  O  O0  1  0.66949600  0.84187600  0.59972400  1
  O  O1  1  0.48048200  0.96390500  0.34620500  1
  O  O2  1  0.33361700  0.66553300  0.09701100  1
  O  O3  1  0.99905500  0.00063800  0.31650700  1
  O  O4  1  0.99326100  0.00511200  0.80983900  1
  O  O5  1  0.16950300  0.84255900  0.59986600  1
  O  O6  1  0.47494000  0.51568200  0.34241700  1
  O  O7  1  0.04038700  0.51715900  0.34207700  1
  O  O8  1  0.83853500  0.67580200  0.09135300  1
  O  O9  1  0.14804000  0.32068800  0.60959700  1
  O  O10  1  0.95919500  0.46936100  0.84069400  1
  O  O11  1  0.51199300  0.46727400  0.84114500  1
  O  O12  1  0.67712800  0.32888600  0.60126900  1
  O  O13  1  0.84166900  0.16996800  0.10184600  1
  O  O14  1  0.53756300  0.04370600  0.83260100  1
  O  O15  1  0.32773700  0.16790400  0.10039700  1
loop_
_geom_bond_atom_site_label_1
_geom_bond_atom_site_label_2
_geom_bond_distance
_geom_bond_site_symmetry_2
Li0 O2 2.006912 1_556
Li0 O11 2.009214 1_555
Li0 O10 2.017610 1_455
Li0 O14 2.173318 1_565
Li1 O4 1.780336 1_455
Li1 O13 1.975863 1_456
Li1 O15 1.979127 1_556
Li1 O8 2.106299 1_446
Li2 O3 1.783762 1_455
Li2 O9 1.955164 1_555
Li2 O5 2.029653 1_545
Li2 O0 2.030979 1_445
Li3 O12 2.001918 1_555
Li3 O1 2.015275 1_545
Li3 O7 2.052704 1_655
Li3 O6 2.063805 1_555
O0 V4 2.043181 1_565
O0 V0 2.102512 1_555
O0 Sn2 2.139023 1_555
O1 Sn0 2.102918 1_555
O1 Sn1 2.105061 1_555
O1 V0 2.139881 1_555
O2 Sn1 2.073106 1_555
O2 Sn0 2.074874 1_555
O2 V1 2.098172 1_555
O3 Sn1 2.054869 1_645
O3 Sn0 2.056003 1_545
O3 V1 2.064188 1_655
O4 V4 1.986086 1_555
O4 Sn2 2.055192 1_545
O4 V3 2.067241 1_655
O5 V3 2.042950 1_565
O5 V0 2.077234 1_555
O5 Sn2 2.122327 1_455
O6 V1 2.052861 1_555
O6 Sn0 2.111106 1_555
O6 V0 2.112505 1_555
O7 V1 2.048887 1_555
O7 V0 2.100744 1_555
O7 Sn1 2.106886 1_555
O8 Sn0 2.115177 1_555
O8 V2 2.115446 1_554
O8 Sn1 2.117904 1_655
O9 V4 1.991226 1_455
O9 V3 2.076433 1_555
O9 V0 2.177361 1_555
O10 V4 2.031661 1_555
O10 V2 2.104282 1_555
O10 Sn2 2.115835 1_555
O11 V3 2.028821 1_555
O11 Sn2 2.105230 1_555
O11 V2 2.111445 1_555
O12 V4 1.988552 1_555
O12 Sn2 2.073022 1_555
O12 V3 2.095839 1_555
O13 V1 2.054056 1_655
O13 V2 2.103987 1_554
O13 Sn0 2.125424 1_545
O14 V4 1.920538 1_555
O14 V3 2.105921 1_555
O14 V2 2.115619 1_555
O15 V1 2.056367 1_555
O15 V2 2.113383 1_554
O15 Sn1 2.119553 1_545
