# generated using pymatgen
data_Tb2Ni12As7
_symmetry_space_group_name_H-M   'P 1'
_cell_length_a   9.29204739
_cell_length_b   9.29178335
_cell_length_c   3.81034455
_cell_angle_alpha   89.99999840
_cell_angle_beta   89.99999904
_cell_angle_gamma   119.99374032
_symmetry_Int_Tables_number   1
_chemical_formula_structural   Tb2Ni12As7
_chemical_formula_sum   'Tb2 Ni12 As7'
_cell_volume   284.92644634
_cell_formula_units_Z   1
loop_
 _symmetry_equiv_pos_site_id
 _symmetry_equiv_pos_as_xyz
  1  'x, y, z'
loop_
 _atom_site_type_symbol
 _atom_site_label
 _atom_site_symmetry_multiplicity
 _atom_site_fract_x
 _atom_site_fract_y
 _atom_site_fract_z
 _atom_site_occupancy
  Tb  Tb0  1  0.66662567  0.33328142  0.00000001  1
  Tb  Tb1  1  0.00009355  0.00011781  0.50000000  1
  Ni  Ni0  1  0.70949464  0.09256495  0.50000019  1
  Ni  Ni1  1  0.90755940  0.61687808  0.49999989  1
  Ni  Ni2  1  0.38300955  0.29056918  0.50000008  1
  Ni  Ni3  1  0.76965436  0.72560923  0.00000038  1
  Ni  Ni4  1  0.27443971  0.04407194  0.00000015  1
  Ni  Ni5  1  0.95604264  0.23038329  -0.00000011  1
  Ni  Ni6  1  0.54333416  0.76242113  0.50000005  1
  Ni  Ni7  1  0.23765147  0.78099724  0.49999965  1
  Ni  Ni8  1  0.21895960  0.45658098  0.49999980  1
  Ni  Ni9  1  0.48303295  0.94524457  -0.00000005  1
  Ni  Ni10  1  0.05478622  0.53773003  -0.00000007  1
  Ni  Ni11  1  0.46197701  0.51685545  0.00000008  1
  As  As0  1  0.33327264  0.66664293  -0.00000016  1
  As  As1  1  0.44068429  0.07239658  0.49999993  1
  As  As2  1  0.92759009  0.36822745  0.50000002  1
  As  As3  1  0.63170560  0.55930286  0.50000022  1
  As  As4  1  0.73741899  0.95696574  0.00000023  1
  As  As5  1  0.04313392  0.78053335  -0.00000032  1
  As  As6  1  0.21953455  0.26262476  0.00000003  1
loop_
_geom_bond_atom_site_label_1
_geom_bond_atom_site_label_2
_geom_bond_distance
_geom_bond_site_symmetry_2
Ni0 Tb0 3.111577 1_556
Ni0 Tb0 3.111577 1_555
Ni0 Tb1 3.216886 1_655
Ni1 Tb0 3.112444 1_555
Ni1 Tb0 3.112445 1_556
Ni1 Tb1 3.218482 1_665
Ni2 Tb0 3.112343 1_556
Ni2 Tb0 3.112343 1_555
Ni2 Tb1 3.216010 1_555
Ni3 Tb1 3.043020 1_665
Ni3 Tb1 3.043022 1_664
Ni3 Tb0 3.273585 1_555
Ni4 Tb1 3.042063 1_555
Ni4 Tb1 3.042064 1_554
Ni4 Tb0 3.272701 1_555
Ni5 Tb1 3.041484 1_654
Ni5 Tb1 3.041485 1_655
Ni5 Tb0 3.273698 1_555
Ni9 Tb0 3.124189 1_565
Ni10 Tb0 3.125277 1_455
Ni11 Tb0 3.125480 1_555
As0 Ni11 2.243100 1_555
As0 Ni10 2.243209 1_555
As0 Ni9 2.244144 1_555
As0 Ni7 2.547957 1_555
As0 Ni7 2.547958 1_554
As0 Ni8 2.548491 1_555
As0 Ni8 2.548491 1_554
As0 Ni6 2.548498 1_554
As0 Ni6 2.548499 1_555
As1 Ni2 2.341582 1_555
As1 Ni9 2.375968 1_545
As1 Ni9 2.375968 1_546
As1 Ni4 2.383008 1_555
As1 Ni4 2.383009 1_556
As1 Ni7 2.404834 1_545
As1 Ni0 2.409589 1_555
As1 Tb0 2.970739 1_555
As1 Tb0 2.970740 1_556
As2 Ni0 2.340480 1_555
As2 Ni10 2.376137 1_656
As2 Ni10 2.376137 1_655
As2 Ni5 2.382988 1_556
As2 Ni5 2.382989 1_555
As2 Ni8 2.404544 1_655
As2 Ni1 2.408853 1_555
As2 Tb0 2.971193 1_556
As2 Tb0 2.971193 1_555
As3 Ni1 2.342096 1_555
As3 Ni11 2.377109 1_556
As3 Ni11 2.377110 1_555
As3 Ni3 2.383327 1_555
As3 Ni3 2.383328 1_556
As3 Ni6 2.405369 1_555
As3 Ni2 2.409580 1_555
As3 Tb0 2.971007 1_556
As3 Tb0 2.971009 1_555
As4 Ni9 2.311248 1_555
As4 Ni3 2.314040 1_555
As4 Ni5 2.328333 1_565
As4 Ni0 2.368833 1_565
As4 Ni0 2.368833 1_564
As4 Ni6 2.624946 1_555
As4 Ni6 2.624947 1_554
As4 Tb1 2.961318 1_665
As4 Tb1 2.961319 1_664
As5 Ni10 2.312105 1_555
As5 Ni4 2.313818 1_565
As5 Ni3 2.328399 1_455
As5 Ni1 2.369338 1_454
As5 Ni1 2.369339 1_455
As5 Ni7 2.624661 1_555
As5 Ni7 2.624661 1_554
As5 Tb1 2.961151 1_564
As5 Tb1 2.961153 1_565
As6 Ni11 2.309686 1_555
As6 Ni5 2.313215 1_455
As6 Ni4 2.328103 1_555
As6 Ni2 2.368580 1_554
As6 Ni2 2.368580 1_555
As6 Ni8 2.624358 1_555
As6 Ni8 2.624359 1_554
As6 Tb1 2.960453 1_555
As6 Tb1 2.960453 1_554
