# generated using pymatgen
data_Lu2NiIr
_symmetry_space_group_name_H-M   'P 1'
_cell_length_a   4.67235106
_cell_length_b   4.67235106
_cell_length_c   4.67235106
_cell_angle_alpha   60.00000000
_cell_angle_beta   60.00000000
_cell_angle_gamma   60.00000000
_symmetry_Int_Tables_number   1
_chemical_formula_structural   Lu2NiIr
_chemical_formula_sum   'Lu2 Ni1 Ir1'
_cell_volume   72.12592595
_cell_formula_units_Z   1
loop_
 _symmetry_equiv_pos_site_id
 _symmetry_equiv_pos_as_xyz
  1  'x, y, z'
loop_
 _atom_site_type_symbol
 _atom_site_label
 _atom_site_symmetry_multiplicity
 _atom_site_fract_x
 _atom_site_fract_y
 _atom_site_fract_z
 _atom_site_occupancy
  Lu  Lu0  1  0.00000000  -0.00000000  -0.00000000  1
  Lu  Lu1  1  0.50000100  0.50000100  0.50000100  1
  Ni  Ni0  1  0.75000000  0.75000000  0.75000000  1
  Ir  Ir0  1  0.25000000  0.25000000  0.25000000  1
loop_
_geom_bond_atom_site_label_1
_geom_bond_atom_site_label_2
_geom_bond_distance
_geom_bond_site_symmetry_2
Lu0 Ni0 2.861219 1_544
Lu0 Ni0 2.861219 1_445
Lu0 Ni0 2.861219 1_454
Lu0 Ni0 2.861219 1_444
Lu1 Ni0 2.861208 1_555
Lu1 Ni0 2.861223 1_545
Lu1 Ni0 2.861223 1_554
Lu1 Ni0 2.861223 1_455
Ir0 Lu1 2.861215 1_554
Ir0 Lu1 2.861215 1_455
Ir0 Lu1 2.861215 1_545
Ir0 Lu0 2.861219 1_655
Ir0 Lu0 2.861219 1_556
Ir0 Lu0 2.861219 1_555
Ir0 Lu0 2.861219 1_565
Ir0 Lu1 2.861230 1_555
