# generated using pymatgen
data_TiCo(PO4)2
_symmetry_space_group_name_H-M   'P 1'
_cell_length_a   8.52975762
_cell_length_b   8.52975762
_cell_length_c   8.52975698
_cell_angle_alpha   60.81538560
_cell_angle_beta   60.81538560
_cell_angle_gamma   60.81538398
_symmetry_Int_Tables_number   1
_chemical_formula_structural   TiCo(PO4)2
_chemical_formula_sum   'Ti3 Co3 P6 O24'
_cell_volume   446.89845343
_cell_formula_units_Z   3
loop_
 _symmetry_equiv_pos_site_id
 _symmetry_equiv_pos_as_xyz
  1  'x, y, z'
loop_
 _atom_site_type_symbol
 _atom_site_label
 _atom_site_symmetry_multiplicity
 _atom_site_fract_x
 _atom_site_fract_y
 _atom_site_fract_z
 _atom_site_occupancy
  Ti  Ti0  1  0.35582100  0.35582100  0.35582100  1
  Ti  Ti1  1  0.14188500  0.14188500  0.14188500  1
  Ti  Ti2  1  0.64415800  0.64415800  0.64415800  1
  Co  Co0  1  0.99769800  0.99769800  0.99769800  1
  Co  Co1  1  0.85786000  0.85786000  0.85786000  1
  Co  Co2  1  0.49838300  0.49838300  0.49838300  1
  P  P0  1  0.75147400  0.04383800  0.45951500  1
  P  P1  1  0.04383800  0.45951500  0.75147400  1
  P  P2  1  0.45951500  0.75147400  0.04383800  1
  P  P3  1  0.54558900  0.24778300  0.95561100  1
  P  P4  1  0.95561100  0.54558900  0.24778300  1
  P  P5  1  0.24778300  0.95561100  0.54558900  1
  O  O0  1  0.88069000  0.50519800  0.68488100  1
  O  O1  1  0.50519800  0.68488100  0.88069000  1
  O  O2  1  0.68488100  0.88069000  0.50519800  1
  O  O3  1  0.91237100  0.05465500  0.26171400  1
  O  O4  1  0.81258300  0.00995900  0.61452000  1
  O  O5  1  0.58813900  0.23908600  0.43551200  1
  O  O6  1  0.05465500  0.26171400  0.91237100  1
  O  O7  1  0.23908600  0.43551200  0.58813900  1
  O  O8  1  0.38168800  0.18240400  0.00405000  1
  O  O9  1  0.43551200  0.58813900  0.23908600  1
  O  O10  1  0.73890700  0.08995600  0.94679600  1
  O  O11  1  0.00405000  0.38168800  0.18240400  1
  O  O12  1  0.00995900  0.61452000  0.81258300  1
  O  O13  1  0.26171400  0.91237100  0.05465500  1
  O  O14  1  0.55676000  0.41065500  0.76100500  1
  O  O15  1  0.61452000  0.81258300  0.00995900  1
  O  O16  1  0.76100500  0.55676000  0.41065500  1
  O  O17  1  0.94679600  0.73890700  0.08995600  1
  O  O18  1  0.41065500  0.76100500  0.55676000  1
  O  O19  1  0.18240400  0.00405000  0.38168800  1
  O  O20  1  0.08995600  0.94679600  0.73890700  1
  O  O21  1  0.31880000  0.11658100  0.49346400  1
  O  O22  1  0.49346400  0.31880000  0.11658100  1
  O  O23  1  0.11658100  0.49346400  0.31880000  1
loop_
_geom_bond_atom_site_label_1
_geom_bond_atom_site_label_2
_geom_bond_distance
_geom_bond_site_symmetry_2
Co0 O20 2.141933 1_655
Co0 O10 2.141933 1_565
Co0 O17 2.141934 1_556
Co0 O3 2.227309 1_566
Co0 O13 2.227309 1_656
Co0 O6 2.227309 1_665
Co1 O4 1.951276 1_565
Co1 O12 1.951276 1_655
Co1 O15 1.951276 1_556
Co1 O17 2.068641 1_556
Co1 O10 2.068641 1_565
Co1 O20 2.068641 1_655
Co2 O9 2.206913 1_555
Co2 O5 2.206914 1_555
Co2 O7 2.206914 1_555
Co2 O14 2.217120 1_555
Co2 O18 2.217120 1_555
Co2 O16 2.217120 1_555
O0 P1 1.561178 1_655
O0 Ti2 1.883043 1_555
O1 P2 1.561177 1_556
O1 Ti2 1.883043 1_555
O2 P0 1.561178 1_565
O2 Ti2 1.883043 1_555
O3 P0 1.565922 1_555
O3 Ti1 2.039201 1_655
O4 P0 1.501962 1_555
O5 P0 1.561846 1_555
O5 Ti0 2.027211 1_555
O6 P1 1.565922 1_555
O6 Ti1 2.039201 1_556
O7 P1 1.561846 1_555
O7 Ti0 2.027211 1_555
O8 P3 1.551936 1_554
O8 Ti1 1.906166 1_555
O9 P2 1.561846 1_555
O9 Ti0 2.027211 1_555
O10 P3 1.532941 1_555
O11 P4 1.551936 1_455
O11 Ti1 1.906166 1_555
O12 P1 1.501962 1_555
O13 P2 1.565922 1_555
O13 Ti1 2.039201 1_565
O14 P3 1.555750 1_555
O14 Ti2 2.074496 1_555
O15 P2 1.501962 1_555
O16 P4 1.555750 1_555
O16 Ti2 2.074496 1_555
O17 P4 1.532941 1_555
O18 P5 1.555750 1_555
O18 Ti2 2.074496 1_555
O19 P5 1.551936 1_545
O19 Ti1 1.906166 1_555
O20 P5 1.532941 1_555
O21 P5 1.550151 1_545
O21 Ti0 1.890171 1_555
O22 P3 1.550151 1_554
O22 Ti0 1.890171 1_555
O23 P4 1.550151 1_455
O23 Ti0 1.890171 1_555
