# generated using pymatgen
data_NdCoC2
_symmetry_space_group_name_H-M   'P 1'
_cell_length_a   3.78838703
_cell_length_b   3.78838703
_cell_length_c   7.35775873
_cell_angle_alpha   81.63015704
_cell_angle_beta   81.63015704
_cell_angle_gamma   90.05412926
_symmetry_Int_Tables_number   1
_chemical_formula_structural   NdCoC2
_chemical_formula_sum   'Nd2 Co2 C4'
_cell_volume   103.33377087
_cell_formula_units_Z   2
loop_
 _symmetry_equiv_pos_site_id
 _symmetry_equiv_pos_as_xyz
  1  'x, y, z'
loop_
 _atom_site_type_symbol
 _atom_site_label
 _atom_site_symmetry_multiplicity
 _atom_site_fract_x
 _atom_site_fract_y
 _atom_site_fract_z
 _atom_site_occupancy
  Nd  Nd0  1  0.06990998  0.92352009  0.45097377  1
  Nd  Nd1  1  0.92352009  0.06990998  0.95097377  1
  Co  Co0  1  0.62499003  0.48289532  0.25764683  1
  Co  Co1  1  0.48289532  0.62499003  0.75764683  1
  C  C0  1  0.40372729  0.55513425  0.02550624  1
  C  C1  1  0.55513425  0.40372729  0.52550524  1
  C  C2  1  0.50641043  0.14541261  0.67887416  1
  C  C3  1  0.14541261  0.50641043  0.17887416  1
loop_
_geom_bond_atom_site_label_1
_geom_bond_atom_site_label_2
_geom_bond_distance
_geom_bond_site_symmetry_2
C0 C3 1.372094 1_555
C0 Co1 1.928767 1_554
C0 Co0 1.994007 1_555
C0 Nd1 2.710825 1_564
C0 Nd1 2.720151 1_464
C0 Nd1 2.746518 1_554
C0 Nd1 2.750799 1_454
C1 C2 1.372099 1_555
C1 Co0 1.928760 1_555
C1 Co1 1.994014 1_555
C1 Nd0 2.710825 1_655
C1 Nd0 2.720149 1_645
C1 Nd0 2.746517 1_555
C1 Nd0 2.750796 1_545
C2 Co1 1.970504 1_545
C2 Co1 1.984073 1_555
C2 Nd1 2.709626 1_555
C2 Nd0 2.728960 1_645
C2 Nd0 2.732746 1_545
C2 Nd1 2.740666 1_455
C3 Co0 1.970504 1_455
C3 Co0 1.984073 1_555
C3 Nd0 2.709626 1_555
C3 Nd1 2.728960 1_464
C3 Nd1 2.732746 1_454
C3 Nd0 2.740666 1_545
