# generated using pymatgen
data_LiMnPO4
_symmetry_space_group_name_H-M   'P 1'
_cell_length_a   5.15847000
_cell_length_b   10.25369100
_cell_length_c   13.93172000
_cell_angle_alpha   90.00000000
_cell_angle_beta   90.00000000
_cell_angle_gamma   90.00000000
_symmetry_Int_Tables_number   1
_chemical_formula_structural   LiMnPO4
_chemical_formula_sum   'Li8 Mn8 P8 O32'
_cell_volume   736.89544533
_cell_formula_units_Z   8
loop_
 _symmetry_equiv_pos_site_id
 _symmetry_equiv_pos_as_xyz
  1  'x, y, z'
loop_
 _atom_site_type_symbol
 _atom_site_label
 _atom_site_symmetry_multiplicity
 _atom_site_fract_x
 _atom_site_fract_y
 _atom_site_fract_z
 _atom_site_occupancy
  Li  Li0  1  0.92888300  0.03060200  0.49828300  1
  Li  Li1  1  0.55318800  0.22236900  0.24933300  1
  Li  Li2  1  0.55318800  0.27763100  0.74933300  1
  Li  Li3  1  0.92888300  0.46939800  0.99828300  1
  Li  Li4  1  0.07111700  0.53060200  0.49828300  1
  Li  Li5  1  0.44681200  0.72236900  0.24933300  1
  Li  Li6  1  0.44681200  0.77763100  0.74933300  1
  Li  Li7  1  0.07111700  0.96939800  0.99828300  1
  Mn  Mn0  1  0.05919800  0.03436200  0.24712700  1
  Mn  Mn1  1  0.55668100  0.21635600  0.99872200  1
  Mn  Mn2  1  0.55668100  0.28364400  0.49872200  1
  Mn  Mn3  1  0.05919800  0.46563800  0.74712700  1
  Mn  Mn4  1  0.94080200  0.53436200  0.24712700  1
  Mn  Mn5  1  0.44331900  0.71635600  0.99872200  1
  Mn  Mn6  1  0.44331900  0.78364400  0.49872200  1
  Mn  Mn7  1  0.94080200  0.96563800  0.74712700  1
  P  P0  1  0.43451500  0.03164600  0.62381100  1
  P  P1  1  0.05329500  0.21629300  0.87248900  1
  P  P2  1  0.05329500  0.28370700  0.37248900  1
  P  P3  1  0.43451500  0.46835400  0.12381100  1
  P  P4  1  0.56548500  0.53164600  0.62381100  1
  P  P5  1  0.94670500  0.71629300  0.87248900  1
  P  P6  1  0.94670500  0.78370700  0.37248900  1
  P  P7  1  0.56548500  0.96835400  0.12381100  1
  O  O0  1  0.86162100  0.99794300  0.11921600  1
  O  O1  1  0.56497400  0.97359400  0.53229100  1
  O  O2  1  0.45499100  0.03466900  0.21580700  1
  O  O3  1  0.99617300  0.06710600  0.87525900  1
  O  O4  1  0.48909200  0.18059300  0.62659500  1
  O  O5  1  0.93189800  0.22123200  0.46416100  1
  O  O6  1  0.93128600  0.27585800  0.78031200  1
  O  O7  1  0.34992600  0.24422500  0.87099400  1
  O  O8  1  0.34992600  0.25577500  0.37099400  1
  O  O9  1  0.93128600  0.22414200  0.28031200  1
  O  O10  1  0.93189800  0.27876800  0.96416100  1
  O  O11  1  0.48909200  0.31940700  0.12659500  1
  O  O12  1  0.99617300  0.43289400  0.37525900  1
  O  O13  1  0.45499100  0.46533100  0.71580700  1
  O  O14  1  0.56497400  0.52640600  0.03229100  1
  O  O15  1  0.86162100  0.50205700  0.61921600  1
  O  O16  1  0.13837900  0.49794300  0.11921600  1
  O  O17  1  0.43502600  0.47359400  0.53229100  1
  O  O18  1  0.54500900  0.53466900  0.21580700  1
  O  O19  1  0.00382700  0.56710600  0.87525900  1
  O  O20  1  0.51090800  0.68059300  0.62659500  1
  O  O21  1  0.06810200  0.72123200  0.46416100  1
  O  O22  1  0.06871400  0.77585800  0.78031200  1
  O  O23  1  0.65007400  0.74422500  0.87099400  1
  O  O24  1  0.65007400  0.75577500  0.37099400  1
  O  O25  1  0.06871400  0.72414200  0.28031200  1
  O  O26  1  0.06810200  0.77876800  0.96416100  1
  O  O27  1  0.51090800  0.81940700  0.12659500  1
  O  O28  1  0.00382700  0.93289400  0.37525900  1
  O  O29  1  0.54500900  0.96533100  0.71580700  1
  O  O30  1  0.43502600  0.02640600  0.03229100  1
  O  O31  1  0.13837900  0.00205700  0.61921600  1
loop_
_geom_bond_atom_site_label_1
_geom_bond_atom_site_label_2
_geom_bond_distance
_geom_bond_site_symmetry_2
Li0 O5 2.011697 1_555
Li0 O1 2.022399 1_545
Li0 O28 2.022566 1_645
Li0 O31 2.022894 1_655
Li1 O9 1.997671 1_555
Li1 O11 2.005810 1_555
Li1 O8 2.022269 1_555
Li1 O2 2.044236 1_555
Li2 O6 1.997671 1_555
Li2 O4 2.005810 1_555
Li2 O7 2.022269 1_555
Li2 O13 2.044236 1_555
Li3 O10 2.011697 1_555
Li3 O14 2.022399 1_556
Li3 O19 2.022566 1_655
Li3 O16 2.022894 1_656
Li4 O21 2.011697 1_555
Li4 O17 2.022399 1_555
Li4 O12 2.022566 1_455
Li4 O15 2.022894 1_455
Li5 O25 1.997671 1_555
Li5 O27 2.005810 1_555
Li5 O24 2.022269 1_555
Li5 O18 2.044236 1_555
Li6 O22 1.997671 1_555
Li6 O20 2.005810 1_555
Li6 O23 2.022269 1_555
Li6 O29 2.044236 1_555
Li7 O26 2.011697 1_555
Li7 O30 2.022399 1_566
Li7 O3 2.022566 1_465
Li7 O0 2.022894 1_456
Mn0 O28 2.085819 1_545
Mn0 O0 2.086577 1_445
Mn0 O2 2.087795 1_555
Mn0 O9 2.106139 1_455
Mn1 O7 2.094202 1_555
Mn1 O10 2.094687 1_555
Mn1 O30 2.099055 1_556
Mn1 O11 2.100425 1_556
Mn2 O8 2.094202 1_555
Mn2 O5 2.094687 1_555
Mn2 O17 2.099055 1_555
Mn2 O4 2.100425 1_555
Mn3 O19 2.085819 1_555
Mn3 O15 2.086577 1_455
Mn3 O13 2.087795 1_555
Mn3 O6 2.106139 1_455
Mn4 O12 2.085819 1_555
Mn4 O16 2.086577 1_655
Mn4 O18 2.087795 1_555
Mn4 O25 2.106139 1_655
Mn5 O23 2.094202 1_555
Mn5 O26 2.094687 1_555
Mn5 O14 2.099055 1_556
Mn5 O27 2.100425 1_556
Mn6 O24 2.094202 1_555
Mn6 O21 2.094687 1_555
Mn6 O1 2.099055 1_555
Mn6 O20 2.100425 1_555
Mn7 O3 2.085819 1_565
Mn7 O31 2.086577 1_665
Mn7 O29 2.087795 1_555
Mn7 O22 2.106139 1_655
O0 P7 1.558761 1_555
O1 P0 1.559779 1_565
O2 P7 1.558814 1_545
O3 P1 1.558317 1_655
O4 P0 1.553473 1_555
O5 P2 1.560010 1_655
O6 P1 1.555081 1_655
O7 P1 1.556875 1_555
O8 P2 1.556875 1_555
O9 P2 1.555081 1_655
O10 P1 1.560010 1_655
O11 P3 1.553473 1_555
O12 P2 1.558317 1_655
O13 P4 1.558814 1_555
O14 P3 1.559779 1_555
O15 P4 1.558761 1_555
O16 P3 1.558761 1_555
O17 P4 1.559779 1_555
O18 P3 1.558814 1_555
O19 P5 1.558317 1_455
O20 P4 1.553473 1_555
O21 P6 1.560010 1_455
O22 P5 1.555081 1_455
O23 P5 1.556875 1_555
O24 P6 1.556875 1_555
O25 P6 1.555081 1_455
O26 P5 1.560010 1_455
O27 P7 1.553473 1_555
O28 P6 1.558317 1_455
O29 P0 1.558814 1_565
O30 P7 1.559779 1_545
O31 P0 1.558761 1_555
