# generated using pymatgen
data_LiMnVP2(HO5)2
_symmetry_space_group_name_H-M   'P 1'
_cell_length_a   5.22392800
_cell_length_b   5.34525080
_cell_length_c   7.35147171
_cell_angle_alpha   110.79571597
_cell_angle_beta   103.58289215
_cell_angle_gamma   100.14947622
_symmetry_Int_Tables_number   1
_chemical_formula_structural   LiMnVP2(HO5)2
_chemical_formula_sum   'Li1 Mn1 V1 P2 H2 O10'
_cell_volume   178.76221360
_cell_formula_units_Z   1
loop_
 _symmetry_equiv_pos_site_id
 _symmetry_equiv_pos_as_xyz
  1  'x, y, z'
loop_
 _atom_site_type_symbol
 _atom_site_label
 _atom_site_symmetry_multiplicity
 _atom_site_fract_x
 _atom_site_fract_y
 _atom_site_fract_z
 _atom_site_occupancy
  Li  Li0  1  0.62230000  0.25623300  0.15227900  1
  Mn  Mn0  1  0.00411100  0.00858100  0.99651600  1
  V  V0  1  0.49345000  0.49282300  0.50462200  1
  P  P0  1  0.08776300  0.41058600  0.23140500  1
  P  P1  1  0.90020200  0.58383800  0.77343800  1
  H  H0  1  0.30127400  0.59617500  0.34277100  1
  H  H1  1  0.69108500  0.37437400  0.66223100  1
  O  O0  1  0.42391800  0.25719100  0.71853300  1
  O  O1  1  0.90244000  0.42994600  0.38076300  1
  O  O2  1  0.07560900  0.01154500  0.64668500  1
  O  O3  1  0.56203300  0.67550300  0.07139400  1
  O  O4  1  0.97003900  0.51702500  0.13539600  1
  O  O5  1  0.98251500  0.45911200  0.88608300  1
  O  O6  1  0.43190500  0.31259700  0.93087800  1
  O  O7  1  0.94549800  0.99564100  0.34646500  1
  O  O8  1  0.10827700  0.57711800  0.61848600  1
  O  O9  1  0.57106800  0.76807800  0.27752600  1
loop_
_geom_bond_atom_site_label_1
_geom_bond_atom_site_label_2
_geom_bond_distance
_geom_bond_site_symmetry_2
Li0 O1 1.756195 1_555
Li0 O6 1.850028 1_554
Li0 O4 2.143556 1_555
Mn0 P0 2.114242 1_556
Mn0 P1 2.154612 1_445
Mn0 O7 2.684380 1_446
Mn0 O2 2.689199 1_555
H0 P0 1.225909 1_555
H0 V0 1.682233 1_555
H1 P1 1.270750 1_555
H1 O0 1.630599 1_555
H1 V0 1.731668 1_555
O0 O2 1.878271 1_555
O1 P0 1.614768 1_655
O1 O8 1.634701 1_655
O3 O9 1.403269 1_555
O3 O6 1.753471 1_554
O4 P0 1.185174 1_655
O5 P1 1.280993 1_555
O7 O9 1.954603 1_555
O8 P1 1.745476 1_455
O8 V0 2.407308 1_555
