# generated using pymatgen
data_LiMn(PO3)4
_symmetry_space_group_name_H-M   'P 1'
_cell_length_a   13.05249600
_cell_length_b   7.37103600
_cell_length_c   11.94926887
_cell_angle_alpha   52.39469594
_cell_angle_beta   90.00000000
_cell_angle_gamma   90.00000000
_symmetry_Int_Tables_number   1
_chemical_formula_structural   LiMn(PO3)4
_chemical_formula_sum   'Li4 Mn4 P16 O48'
_cell_volume   910.78621562
_cell_formula_units_Z   4
loop_
 _symmetry_equiv_pos_site_id
 _symmetry_equiv_pos_as_xyz
  1  'x, y, z'
loop_
 _atom_site_type_symbol
 _atom_site_label
 _atom_site_symmetry_multiplicity
 _atom_site_fract_x
 _atom_site_fract_y
 _atom_site_fract_z
 _atom_site_occupancy
  Li  Li0  1  0.21245900  0.95200000  0.02552500  1
  Li  Li1  1  0.71245900  0.04800000  0.47447500  1
  Li  Li2  1  0.28754100  0.95200000  0.52552500  1
  Li  Li3  1  0.78754100  0.04800000  0.97447500  1
  Mn  Mn0  1  0.28894800  0.56470300  0.43109100  1
  Mn  Mn1  1  0.78894800  0.43529700  0.06890900  1
  Mn  Mn2  1  0.21105200  0.56470300  0.93109100  1
  Mn  Mn3  1  0.71105200  0.43529700  0.56890900  1
  P  P0  1  0.62208100  0.81970600  0.25590800  1
  P  P1  1  0.12659800  0.41759200  0.69592600  1
  P  P2  1  0.90739700  0.46037100  0.70855200  1
  P  P3  1  0.90211000  0.06473800  0.22985300  1
  P  P4  1  0.40211000  0.93526200  0.27014700  1
  P  P5  1  0.40739700  0.53962900  0.79144800  1
  P  P6  1  0.62659800  0.58240800  0.80407400  1
  P  P7  1  0.12208100  0.18029400  0.24409200  1
  P  P8  1  0.87791900  0.81970600  0.75590800  1
  P  P9  1  0.37340200  0.41759200  0.19592600  1
  P  P10  1  0.59260300  0.46037100  0.20855200  1
  P  P11  1  0.59789000  0.06473800  0.72985300  1
  P  P12  1  0.09789000  0.93526200  0.77014700  1
  P  P13  1  0.09260300  0.53962900  0.29144800  1
  P  P14  1  0.87340200  0.58240800  0.30407400  1
  P  P15  1  0.37791900  0.18029400  0.74409200  1
  O  O0  1  0.87784600  0.81318900  0.29402400  1
  O  O1  1  0.89546900  0.21210800  0.82588100  1
  O  O2  1  0.41606600  0.39821700  0.73126700  1
  O  O3  1  0.32506000  0.84062500  0.22027500  1
  O  O4  1  0.69378800  0.96688500  0.13655000  1
  O  O5  1  0.13570400  0.35543600  0.83929900  1
  O  O6  1  0.64988500  0.73490500  0.40316900  1
  O  O7  1  0.89269100  0.23730300  0.06783100  1
  O  O8  1  0.51432000  0.96036000  0.21398200  1
  O  O9  1  0.01554400  0.52697300  0.62581000  1
  O  O10  1  0.20631000  0.56690400  0.58485300  1
  O  O11  1  0.32802400  0.42611300  0.91012600  1
  O  O12  1  0.82802400  0.57388700  0.58987400  1
  O  O13  1  0.01432000  0.03964000  0.28601800  1
  O  O14  1  0.70631000  0.43309600  0.91514700  1
  O  O15  1  0.39269100  0.76269700  0.43216900  1
  O  O16  1  0.51554400  0.47302700  0.87419000  1
  O  O17  1  0.14988500  0.26509500  0.09683100  1
  O  O18  1  0.63570400  0.64456400  0.66070100  1
  O  O19  1  0.19378800  0.03311500  0.36345000  1
  O  O20  1  0.82506000  0.15937500  0.27972500  1
  O  O21  1  0.91606600  0.60178300  0.76873300  1
  O  O22  1  0.37784600  0.18681100  0.20597600  1
  O  O23  1  0.39546900  0.78789200  0.67411900  1
  O  O24  1  0.60453100  0.21210800  0.32588100  1
  O  O25  1  0.62215400  0.81318900  0.79402400  1
  O  O26  1  0.08393400  0.39821700  0.23126700  1
  O  O27  1  0.17494000  0.84062500  0.72027500  1
  O  O28  1  0.80621200  0.96688500  0.63655000  1
  O  O29  1  0.36429600  0.35543600  0.33929900  1
  O  O30  1  0.85011500  0.73490500  0.90316900  1
  O  O31  1  0.48445600  0.52697300  0.12581000  1
  O  O32  1  0.60730900  0.23730300  0.56783100  1
  O  O33  1  0.29369000  0.56690400  0.08485300  1
  O  O34  1  0.98568000  0.96036000  0.71398200  1
  O  O35  1  0.17197600  0.42611300  0.41012600  1
  O  O36  1  0.67197600  0.57388700  0.08987400  1
  O  O37  1  0.79369000  0.43309600  0.41514700  1
  O  O38  1  0.98445600  0.47302700  0.37419000  1
  O  O39  1  0.48568000  0.03964000  0.78601800  1
  O  O40  1  0.10730900  0.76269700  0.93216900  1
  O  O41  1  0.35011500  0.26509500  0.59683100  1
  O  O42  1  0.86429600  0.64456400  0.16070100  1
  O  O43  1  0.30621200  0.03311500  0.86345000  1
  O  O44  1  0.67494000  0.15937500  0.77972500  1
  O  O45  1  0.58393400  0.60178300  0.26873300  1
  O  O46  1  0.10453100  0.78789200  0.17411900  1
  O  O47  1  0.12215400  0.18681100  0.70597600  1
loop_
_geom_bond_atom_site_label_1
_geom_bond_atom_site_label_2
_geom_bond_distance
_geom_bond_site_symmetry_2
Li0 O46 1.994789 1_555
Li0 O43 2.047554 1_564
Li0 O3 2.432685 1_555
Li0 O5 2.592790 1_564
Li0 O40 2.640989 1_554
Li0 O33 2.688536 1_555
Li1 O24 1.994789 1_555
Li1 O28 2.047554 1_545
Li1 O20 2.432685 1_555
Li1 O18 2.592790 1_545
Li1 O32 2.640989 1_555
Li1 O37 2.688536 1_555
Li2 O23 1.994789 1_555
Li2 O19 2.047554 1_565
Li2 O27 2.432685 1_555
Li2 O29 2.592790 1_565
Li2 O15 2.640989 1_555
Li2 O10 2.688536 1_555
Li3 O1 1.994789 1_555
Li3 O4 2.047554 1_546
Li3 O44 2.432685 1_555
Li3 O42 2.592790 1_546
Li3 O7 2.640989 1_556
Li3 O14 2.688536 1_555
Mn0 O35 1.936415 1_555
Mn0 O15 1.996652 1_555
Mn0 O41 2.024589 1_555
Mn0 O3 2.109901 1_555
Mn0 O10 2.139140 1_555
Mn0 O29 2.571871 1_555
Mn1 O36 1.936415 1_555
Mn1 O7 1.996652 1_555
Mn1 O30 2.024589 1_554
Mn1 O20 2.109901 1_555
Mn1 O14 2.139140 1_554
Mn1 O42 2.571871 1_555
Mn2 O11 1.936415 1_555
Mn2 O40 1.996652 1_555
Mn2 O17 2.024589 1_556
Mn2 O27 2.109901 1_555
Mn2 O33 2.139140 1_556
Mn2 O5 2.571871 1_555
Mn3 O12 1.936415 1_555
Mn3 O32 1.996652 1_555
Mn3 O6 2.024589 1_555
Mn3 O44 2.109901 1_555
Mn3 O37 2.139140 1_555
Mn3 O18 2.571871 1_555
O0 P3 1.546306 1_565
O0 P14 1.631623 1_555
O1 P2 1.485742 1_555
O2 P5 1.590989 1_555
O2 P15 1.597257 1_555
O3 P4 1.536396 1_555
O4 P0 1.482818 1_555
O5 P1 1.483631 1_555
O6 P0 1.508791 1_555
O7 P3 1.541381 1_555
O8 P4 1.574239 1_555
O8 P0 1.634121 1_555
O9 P2 1.618256 1_455
O9 P1 1.621339 1_555
O10 P1 1.507524 1_555
O11 P5 1.528513 1_555
O12 P2 1.528513 1_555
O13 P3 1.574239 1_455
O13 P7 1.634121 1_555
O14 P6 1.507524 1_555
O15 P4 1.541381 1_555
O16 P5 1.618256 1_555
O16 P6 1.621339 1_555
O17 P7 1.508791 1_555
O18 P6 1.483631 1_555
O19 P7 1.482818 1_555
O20 P3 1.536396 1_555
O21 P2 1.590989 1_555
O21 P8 1.597257 1_555
O22 P4 1.546306 1_545
O22 P9 1.631623 1_555
O23 P5 1.485742 1_555
O24 P10 1.485742 1_555
O25 P11 1.546306 1_565
O25 P6 1.631623 1_555
O26 P13 1.590989 1_555
O26 P7 1.597257 1_555
O27 P12 1.536396 1_555
O28 P8 1.482818 1_555
O29 P9 1.483631 1_555
O30 P8 1.508791 1_555
O31 P10 1.618256 1_555
O31 P9 1.621339 1_555
O32 P11 1.541381 1_555
O33 P9 1.507524 1_555
O34 P12 1.574239 1_655
O34 P8 1.634121 1_555
O35 P13 1.528513 1_555
O36 P10 1.528513 1_555
O37 P14 1.507524 1_555
O38 P13 1.618256 1_655
O38 P14 1.621339 1_555
O39 P11 1.574239 1_555
O39 P15 1.634121 1_555
O40 P12 1.541381 1_555
O41 P15 1.508791 1_555
O42 P14 1.483631 1_555
O43 P15 1.482818 1_555
O44 P11 1.536396 1_555
O45 P10 1.590989 1_555
O45 P0 1.597257 1_555
O46 P13 1.485742 1_555
O47 P12 1.546306 1_545
O47 P1 1.631623 1_555
