# generated using pymatgen
data_YThRu2
_symmetry_space_group_name_H-M   'P 1'
_cell_length_a   4.91117806
_cell_length_b   4.91117368
_cell_length_c   4.91117513
_cell_angle_alpha   60.00000000
_cell_angle_beta   59.99998028
_cell_angle_gamma   60.00001972
_symmetry_Int_Tables_number   1
_chemical_formula_structural   YThRu2
_chemical_formula_sum   'Y1 Th1 Ru2'
_cell_volume   83.76091181
_cell_formula_units_Z   1
loop_
 _symmetry_equiv_pos_site_id
 _symmetry_equiv_pos_as_xyz
  1  'x, y, z'
loop_
 _atom_site_type_symbol
 _atom_site_label
 _atom_site_symmetry_multiplicity
 _atom_site_fract_x
 _atom_site_fract_y
 _atom_site_fract_z
 _atom_site_occupancy
  Y  Y0  1  0.75000100  0.75000100  0.75000100  1
  Th  Th0  1  0.25000000  0.25000000  0.25000000  1
  Ru  Ru0  1  -0.00000000  0.00000000  0.00000000  1
  Ru  Ru1  1  0.50000000  0.50000000  0.50000000  1
loop_
_geom_bond_atom_site_label_1
_geom_bond_atom_site_label_2
_geom_bond_distance
_geom_bond_site_symmetry_2
Ru0 Y0 3.007457 1_444
Ru0 Th0 3.007468 1_554
Ru0 Th0 3.007468 1_545
Ru0 Th0 3.007469 1_555
Ru0 Th0 3.007470 1_455
Ru0 Y0 3.007472 1_445
Ru0 Y0 3.007472 1_454
Ru0 Y0 3.007474 1_544
Ru1 Y0 3.007464 1_554
Ru1 Y0 3.007464 1_545
Ru1 Y0 3.007466 1_455
Ru1 Th0 3.007468 1_556
Ru1 Th0 3.007468 1_565
Ru1 Th0 3.007469 1_555
Ru1 Th0 3.007470 1_655
Ru1 Y0 3.007481 1_555
