# generated using pymatgen
data_Li3CuS2
_symmetry_space_group_name_H-M   'P 1'
_cell_length_a   6.41034348
_cell_length_b   6.41034348
_cell_length_c   6.41034288
_cell_angle_alpha   62.36902893
_cell_angle_beta   62.36902893
_cell_angle_gamma   62.36902933
_symmetry_Int_Tables_number   1
_chemical_formula_structural   Li3CuS2
_chemical_formula_sum   'Li6 Cu2 S4'
_cell_volume   196.10729287
_cell_formula_units_Z   2
loop_
 _symmetry_equiv_pos_site_id
 _symmetry_equiv_pos_as_xyz
  1  'x, y, z'
loop_
 _atom_site_type_symbol
 _atom_site_label
 _atom_site_symmetry_multiplicity
 _atom_site_fract_x
 _atom_site_fract_y
 _atom_site_fract_z
 _atom_site_occupancy
  Li  Li0  1  0.97321100  0.25000000  0.52678900  1
  Li  Li1  1  0.47321100  0.02678900  0.75000000  1
  Li  Li2  1  0.75000000  0.47321100  0.02678900  1
  Li  Li3  1  0.25000000  0.52678900  0.97321100  1
  Li  Li4  1  0.52678900  0.97321100  0.25000000  1
  Li  Li5  1  0.02678900  0.75000000  0.47321100  1
  Cu  Cu0  1  0.00000000  0.00000000  0.00000000  1
  Cu  Cu1  1  0.50000000  0.50000000  0.50000000  1
  S  S0  1  0.36200900  0.36200900  0.36200900  1
  S  S1  1  0.63799100  0.63799100  0.63799100  1
  S  S2  1  0.13799100  0.13799100  0.13799100  1
  S  S3  1  0.86200900  0.86200900  0.86200900  1
loop_
_geom_bond_atom_site_label_1
_geom_bond_atom_site_label_2
_geom_bond_distance
_geom_bond_site_symmetry_2
Li0 S2 2.521408 1_655
Li0 S0 2.521408 1_655
Li0 S3 2.564771 1_545
Li0 S1 2.564771 1_555
Li1 S3 2.521408 1_545
Li1 S1 2.521408 1_545
Li1 S2 2.564771 1_556
Li1 S0 2.564771 1_555
Li2 S1 2.521408 1_554
Li2 S3 2.521408 1_554
Li2 S0 2.564771 1_555
Li2 S2 2.564771 1_655
Li3 S0 2.521408 1_556
Li3 S2 2.521408 1_556
Li3 S1 2.564771 1_555
Li3 S3 2.564771 1_455
Li4 S0 2.521408 1_565
Li4 S2 2.521408 1_565
Li4 S1 2.564771 1_555
Li4 S3 2.564771 1_554
Li5 S3 2.521408 1_455
Li5 S1 2.521408 1_455
Li5 S2 2.564771 1_565
Li5 S0 2.564771 1_555
Cu0 S2 2.127137 1_555
Cu0 S3 2.127137 1_444
Cu0 Li5 2.741956 1_545
Cu0 Li0 2.741956 1_454
Cu0 Li1 2.741956 1_554
Cu0 Li4 2.741956 1_445
Cu0 Li2 2.741956 1_455
Cu0 Li3 2.741956 1_544
Cu1 S1 2.127137 1_555
Cu1 S0 2.127137 1_555
Cu1 Li3 2.741956 1_555
Cu1 Li2 2.741956 1_555
Cu1 Li4 2.741956 1_555
Cu1 Li1 2.741956 1_555
Cu1 Li0 2.741956 1_555
Cu1 Li5 2.741956 1_555
