# generated using pymatgen
data_NaAl6Fe3Si6B3O31
_symmetry_space_group_name_H-M   'P 1'
_cell_length_a   9.56266217
_cell_length_b   9.56266217
_cell_length_c   9.56266215
_cell_angle_alpha   113.72685597
_cell_angle_beta   113.72685597
_cell_angle_gamma   113.72685344
_symmetry_Int_Tables_number   1
_chemical_formula_structural   NaAl6Fe3Si6B3O31
_chemical_formula_sum   'Na1 Al6 Fe3 Si6 B3 O31'
_cell_volume   541.86669486
_cell_formula_units_Z   1
loop_
 _symmetry_equiv_pos_site_id
 _symmetry_equiv_pos_as_xyz
  1  'x, y, z'
loop_
 _atom_site_type_symbol
 _atom_site_label
 _atom_site_symmetry_multiplicity
 _atom_site_fract_x
 _atom_site_fract_y
 _atom_site_fract_z
 _atom_site_occupancy
  Na  Na0  1  0.21955200  0.21955200  0.21955200  1
  Al  Al0  1  0.90486400  0.56639100  0.34893200  1
  Al  Al1  1  0.34893200  0.90486400  0.56639100  1
  Al  Al2  1  0.56639100  0.34893200  0.90486400  1
  Al  Al3  1  0.34893200  0.56639100  0.90486400  1
  Al  Al4  1  0.90486400  0.34893200  0.56639100  1
  Al  Al5  1  0.56639100  0.90486400  0.34893200  1
  Fe  Fe0  1  0.76023500  0.56598700  0.56598700  1
  Fe  Fe1  1  0.56598700  0.76023500  0.56598700  1
  Fe  Fe2  1  0.56598700  0.56598700  0.76023500  1
  Si  Si0  1  0.19329100  0.00036100  0.80974400  1
  Si  Si1  1  0.80974400  0.19329100  0.00036100  1
  Si  Si2  1  0.00036100  0.80974400  0.19329100  1
  Si  Si3  1  0.80974400  0.00036100  0.19329100  1
  Si  Si4  1  0.19329100  0.80974400  0.00036100  1
  Si  Si5  1  0.00036100  0.19329100  0.80974400  1
  B  B0  1  0.56537900  0.56537900  0.23144300  1
  B  B1  1  0.23144300  0.56537900  0.56537900  1
  B  B2  1  0.56537900  0.23144300  0.56537900  1
  O  O0  1  0.75613000  0.75613000  0.75613000  1
  O  O1  1  0.54428800  0.54428800  0.35907000  1
  O  O2  1  0.35907000  0.54428800  0.54428800  1
  O  O3  1  0.54428800  0.35907000  0.54428800  1
  O  O4  1  0.79056900  0.39875000  0.39875000  1
  O  O5  1  0.39875000  0.79056900  0.39875000  1
  O  O6  1  0.39875000  0.39875000  0.79056900  1
  O  O7  1  0.16978700  0.16978700  0.88988400  1
  O  O8  1  0.88988400  0.16978800  0.16978800  1
  O  O9  1  0.16978700  0.88988400  0.16978700  1
  O  O10  1  0.26676000  0.99113400  0.99113400  1
  O  O11  1  0.99113400  0.26676000  0.99113400  1
  O  O12  1  0.99113400  0.99113400  0.26676000  1
  O  O13  1  0.97267900  0.77410900  0.58864200  1
  O  O14  1  0.58864200  0.97267900  0.77410900  1
  O  O15  1  0.77410900  0.58864200  0.97267900  1
  O  O16  1  0.58864200  0.77410900  0.97267900  1
  O  O17  1  0.97267900  0.58864200  0.77410900  1
  O  O18  1  0.77410900  0.97267900  0.58864200  1
  O  O19  1  0.36409100  0.07925300  0.79117400  1
  O  O20  1  0.79117400  0.36409100  0.07925300  1
  O  O21  1  0.07925300  0.79117400  0.36409100  1
  O  O22  1  0.79117400  0.07925300  0.36409100  1
  O  O23  1  0.36409100  0.79117400  0.07925300  1
  O  O24  1  0.07925300  0.36409100  0.79117400  1
  O  O25  1  0.65273400  0.50336700  0.17115800  1
  O  O26  1  0.17115800  0.65273400  0.50336700  1
  O  O27  1  0.50336700  0.17115800  0.65273400  1
  O  O28  1  0.17115800  0.50336700  0.65273400  1
  O  O29  1  0.65273400  0.17115800  0.50336700  1
  O  O30  1  0.50336700  0.65273400  0.17115800  1
loop_
_geom_bond_atom_site_label_1
_geom_bond_atom_site_label_2
_geom_bond_distance
_geom_bond_site_symmetry_2
Na0 O3 2.576369 1_555
Na0 O2 2.576369 1_555
Na0 O1 2.576369 1_555
Na0 O11 2.737426 1_454
Na0 O10 2.737426 1_544
Na0 O12 2.737426 1_445
Na0 O7 2.791833 1_554
Na0 O9 2.791833 1_545
Na0 O8 2.791839 1_455
Al0 O20 1.900319 1_555
Al0 O4 1.901319 1_555
Al0 O26 1.909850 1_655
Al0 O13 1.929622 1_555
Al0 O25 1.942660 1_555
Al0 O21 2.022973 1_655
Al1 O21 1.900319 1_555
Al1 O5 1.901319 1_555
Al1 O27 1.909850 1_565
Al1 O14 1.929622 1_555
Al1 O26 1.942660 1_555
Al1 O19 2.022972 1_565
Al2 O19 1.900319 1_555
Al2 O6 1.901319 1_555
Al2 O25 1.909850 1_556
Al2 O15 1.929622 1_555
Al2 O27 1.942660 1_555
Al2 O20 2.022972 1_556
Al3 O24 1.900319 1_555
Al3 O6 1.901319 1_555
Al3 O30 1.909850 1_556
Al3 O16 1.929622 1_555
Al3 O28 1.942660 1_555
Al3 O23 2.022972 1_556
Al4 O22 1.900319 1_555
Al4 O4 1.901319 1_555
Al4 O28 1.909850 1_655
Al4 O17 1.929622 1_555
Al4 O29 1.942660 1_555
Al4 O24 2.022972 1_655
Al5 O23 1.900319 1_555
Al5 O5 1.901319 1_555
Al5 O29 1.909850 1_565
Al5 O18 1.929622 1_555
Al5 O30 1.942660 1_555
Al5 O22 2.022973 1_565
Fe0 O4 1.971719 1_555
Fe0 O0 2.016940 1_555
Fe0 O17 2.044515 1_555
Fe0 O13 2.044515 1_555
Fe0 O1 2.063752 1_555
Fe0 O3 2.063752 1_555
Fe1 O5 1.971719 1_555
Fe1 O0 2.016940 1_555
Fe1 O14 2.044515 1_555
Fe1 O18 2.044515 1_555
Fe1 O1 2.063752 1_555
Fe1 O2 2.063752 1_555
Fe2 O6 1.971719 1_555
Fe2 O0 2.016940 1_555
Fe2 O16 2.044515 1_555
Fe2 O15 2.044515 1_555
Fe2 O2 2.063752 1_555
Fe2 O3 2.063752 1_555
B0 O25 1.375813 1_555
B0 O30 1.375813 1_555
B0 O1 1.390793 1_555
B1 O26 1.375813 1_555
B1 O28 1.375813 1_555
B1 O2 1.390793 1_555
B2 O29 1.375813 1_555
B2 O27 1.375813 1_555
B2 O3 1.390793 1_555
O7 Si5 1.641711 1_555
O7 Si0 1.641711 1_555
O8 Si1 1.641712 1_555
O8 Si3 1.641712 1_555
O9 Si4 1.641711 1_555
O9 Si2 1.641711 1_555
O10 Si0 1.643917 1_565
O10 Si4 1.643917 1_556
O11 Si5 1.643917 1_655
O11 Si1 1.643917 1_556
O12 Si3 1.643917 1_565
O12 Si2 1.643917 1_655
O13 Si0 1.630303 1_665
O14 Si1 1.630303 1_566
O15 Si2 1.630303 1_656
O16 Si3 1.630303 1_566
O17 Si4 1.630303 1_656
O18 Si5 1.630303 1_665
O19 Si0 1.618014 1_555
O20 Si1 1.618014 1_555
O21 Si2 1.618014 1_555
O22 Si3 1.618014 1_555
O23 Si4 1.618014 1_555
O24 Si5 1.618014 1_555
