# generated using pymatgen
data_Sr2LiSc(B2O5)2
_symmetry_space_group_name_H-M   'P 1'
_cell_length_a   5.27331800
_cell_length_b   12.75864500
_cell_length_c   13.93453151
_cell_angle_alpha   62.42623108
_cell_angle_beta   90.00000000
_cell_angle_gamma   90.00000000
_symmetry_Int_Tables_number   1
_chemical_formula_structural   Sr2LiSc(B2O5)2
_chemical_formula_sum   'Sr8 Li4 Sc4 B16 O40'
_cell_volume   831.03300811
_cell_formula_units_Z   4
loop_
 _symmetry_equiv_pos_site_id
 _symmetry_equiv_pos_as_xyz
  1  'x, y, z'
loop_
 _atom_site_type_symbol
 _atom_site_label
 _atom_site_symmetry_multiplicity
 _atom_site_fract_x
 _atom_site_fract_y
 _atom_site_fract_z
 _atom_site_occupancy
  Sr  Sr0  1  0.93267900  0.97183700  0.87638400  1
  Sr  Sr1  1  0.56732100  0.97183700  0.37638400  1
  Sr  Sr2  1  0.06732100  0.02816300  0.12361600  1
  Sr  Sr3  1  0.43267900  0.02816300  0.62361600  1
  Sr  Sr4  1  0.11692100  0.33091100  0.85083400  1
  Sr  Sr5  1  0.61692100  0.66908900  0.64916600  1
  Sr  Sr6  1  0.88307900  0.66908900  0.14916600  1
  Sr  Sr7  1  0.38307900  0.33091100  0.35083400  1
  Li  Li0  1  0.10299700  0.52196700  0.59952100  1
  Li  Li1  1  0.39700300  0.52196700  0.09952100  1
  Li  Li2  1  0.89700300  0.47803300  0.40047900  1
  Li  Li3  1  0.60299700  0.47803300  0.90047900  1
  Sc  Sc0  1  0.06891500  0.75221000  0.38268700  1
  Sc  Sc1  1  0.56891500  0.24779000  0.11731300  1
  Sc  Sc2  1  0.93108500  0.24779000  0.61731300  1
  Sc  Sc3  1  0.43108500  0.75221000  0.88268700  1
  B  B0  1  0.36090200  0.60418700  0.29431000  1
  B  B1  1  0.10902900  0.85691500  0.55053900  1
  B  B2  1  0.39097100  0.85691500  0.05053900  1
  B  B3  1  0.89097100  0.14308500  0.44946100  1
  B  B4  1  0.63909800  0.39581300  0.70569000  1
  B  B5  1  0.13909800  0.60418700  0.79431000  1
  B  B6  1  0.60902900  0.14308500  0.94946100  1
  B  B7  1  0.86090200  0.39581300  0.20569000  1
  B  B8  1  0.92009000  0.62791200  0.94933100  1
  B  B9  1  0.42009000  0.37208800  0.55066900  1
  B  B10  1  0.57991000  0.62791200  0.44933100  1
  B  B11  1  0.07991000  0.37208800  0.05066900  1
  B  B12  1  0.44058000  0.14400100  0.77163100  1
  B  B13  1  0.94058000  0.85599900  0.72836900  1
  B  B14  1  0.55942000  0.85599900  0.22836900  1
  B  B15  1  0.05942000  0.14400100  0.27163100  1
  O  O0  1  0.59143800  0.42678900  0.78446200  1
  O  O1  1  0.57326000  0.60094500  0.36112500  1
  O  O2  1  0.92674000  0.60094500  0.86112500  1
  O  O3  1  0.42674000  0.39905500  0.63887500  1
  O  O4  1  0.21163400  0.14071500  0.72645700  1
  O  O5  1  0.71163400  0.85928500  0.77354300  1
  O  O6  1  0.78836600  0.85928500  0.27354300  1
  O  O7  1  0.28836600  0.14071500  0.22645700  1
  O  O8  1  0.90856200  0.42678900  0.28446200  1
  O  O9  1  0.07326000  0.39905500  0.13887500  1
  O  O10  1  0.40856200  0.57321100  0.21553800  1
  O  O11  1  0.09143800  0.57321100  0.71553800  1
  O  O12  1  0.16142600  0.87329900  0.77100400  1
  O  O13  1  0.66142600  0.12670100  0.72899600  1
  O  O14  1  0.83857400  0.12670100  0.22899600  1
  O  O15  1  0.33857400  0.87329900  0.27100400  1
  O  O16  1  0.18526800  0.37672200  0.50578200  1
  O  O17  1  0.68526800  0.62327800  0.99421800  1
  O  O18  1  0.81473200  0.62327800  0.49421800  1
  O  O19  1  0.31473200  0.37672200  0.00578200  1
  O  O20  1  0.00256500  0.14273400  0.53877900  1
  O  O21  1  0.50256500  0.85726600  0.96122100  1
  O  O22  1  0.99743500  0.85726600  0.46122100  1
  O  O23  1  0.49743500  0.14273400  0.03877900  1
  O  O24  1  0.62669600  0.36297400  0.18533100  1
  O  O25  1  0.12669600  0.63702600  0.31466900  1
  O  O26  1  0.37330400  0.63702600  0.81466900  1
  O  O27  1  0.87330400  0.36297400  0.68533100  1
  O  O28  1  0.63993900  0.12812400  0.43949600  1
  O  O29  1  0.13993900  0.87187600  0.06050400  1
  O  O30  1  0.36006100  0.87187600  0.56050400  1
  O  O31  1  0.86006100  0.12812400  0.93949600  1
  O  O32  1  0.63095200  0.34063100  0.51248300  1
  O  O33  1  0.13095200  0.65936900  0.98751700  1
  O  O34  1  0.42959900  0.15785700  0.86622800  1
  O  O35  1  0.86904800  0.34063100  0.01248300  1
  O  O36  1  0.07040100  0.15785700  0.36622800  1
  O  O37  1  0.57040100  0.84214300  0.13377200  1
  O  O38  1  0.92959900  0.84214300  0.63377200  1
  O  O39  1  0.36904800  0.65936900  0.48751700  1
loop_
_geom_bond_atom_site_label_1
_geom_bond_atom_site_label_2
_geom_bond_distance
_geom_bond_site_symmetry_2
Li0 O11 2.005799 1_555
Li0 O18 2.092543 1_455
Li0 O27 2.183181 1_455
Li0 O3 2.208695 1_555
Li0 O39 2.223609 1_555
Li1 O10 2.005799 1_555
Li1 O17 2.092543 1_554
Li1 O24 2.183181 1_555
Li1 O9 2.208695 1_555
Li1 O33 2.223609 1_554
Li2 O8 2.005799 1_555
Li2 O16 2.092543 1_655
Li2 O25 2.183181 1_655
Li2 O1 2.208695 1_555
Li2 O32 2.223609 1_555
Li3 O0 2.005799 1_555
Li3 O19 2.092543 1_556
Li3 O26 2.183181 1_555
Li3 O2 2.208695 1_555
Li3 O35 2.223609 1_556
B0 O10 1.351223 1_555
B0 O25 1.375281 1_555
B0 O1 1.444613 1_555
B1 O30 1.353745 1_555
B1 O22 1.374845 1_455
B1 O38 1.439999 1_455
B2 O29 1.353745 1_555
B2 O21 1.374845 1_554
B2 O37 1.439999 1_555
B3 O28 1.353745 1_555
B3 O20 1.374845 1_655
B3 O36 1.439999 1_655
B4 O0 1.351223 1_555
B4 O27 1.375281 1_555
B4 O3 1.444613 1_555
B5 O11 1.351223 1_555
B5 O26 1.375281 1_555
B5 O2 1.444613 1_455
B6 O31 1.353745 1_555
B6 O23 1.374845 1_556
B6 O34 1.439999 1_555
B7 O8 1.351223 1_555
B7 O24 1.375281 1_555
B7 O9 1.444613 1_655
B8 O33 1.370526 1_655
B8 O17 1.376172 1_555
B8 O2 1.421908 1_555
B9 O32 1.370526 1_555
B9 O16 1.376172 1_555
B9 O3 1.421908 1_555
B10 O39 1.370526 1_555
B10 O18 1.376172 1_555
B10 O1 1.421908 1_555
B11 O35 1.370526 1_455
B11 O19 1.376172 1_555
B11 O9 1.421908 1_555
B12 O13 1.370892 1_555
B12 O4 1.371138 1_555
B12 O34 1.409929 1_555
B13 O12 1.370892 1_655
B13 O5 1.371138 1_555
B13 O38 1.409929 1_555
B14 O15 1.370892 1_555
B14 O6 1.371138 1_555
B14 O37 1.409929 1_555
B15 O14 1.370892 1_455
B15 O7 1.371138 1_555
B15 O36 1.409929 1_555
O0 Sr4 2.750596 1_555
O0 Sr5 2.780934 1_555
O4 Sc2 2.108212 1_455
O4 Sr0 2.646451 1_445
O4 Sr3 2.716539 1_555
O5 Sc3 2.108212 1_555
O5 Sr3 2.646451 1_565
O5 Sr0 2.716539 1_555
O6 Sc0 2.108212 1_655
O6 Sr2 2.646451 1_665
O6 Sr1 2.716539 1_555
O7 Sc1 2.108212 1_555
O7 Sr1 2.646451 1_545
O7 Sr2 2.716539 1_555
O8 Sr7 2.750596 1_655
O8 Sr6 2.780934 1_555
O10 Sr6 2.750596 1_555
O10 Sr7 2.780934 1_555
O11 Sr5 2.750596 1_455
O11 Sr4 2.780934 1_555
O12 Sc3 2.145915 1_555
O12 Sr3 2.532051 1_565
O12 Sr0 2.626974 1_455
O13 Sc2 2.145915 1_555
O13 Sr0 2.532051 1_545
O13 Sr3 2.626974 1_555
O14 Sc1 2.145915 1_555
O14 Sr1 2.532051 1_545
O14 Sr2 2.626974 1_655
O15 Sc0 2.145915 1_555
O15 Sr2 2.532051 1_565
O15 Sr1 2.626974 1_555
O16 Sc2 2.133351 1_455
O16 Sr7 2.694415 1_555
O17 Sc3 2.133351 1_555
O17 Sr6 2.694415 1_556
O18 Sc0 2.133351 1_655
O18 Sr5 2.694415 1_555
O19 Sc1 2.133351 1_555
O19 Sr4 2.694415 1_554
O20 Sc2 2.119952 1_455
O20 Sr3 2.660619 1_555
O21 Sc3 2.119952 1_555
O21 Sr0 2.660619 1_555
O22 Sc0 2.119952 1_655
O22 Sr1 2.660619 1_555
O23 Sc1 2.119952 1_555
O23 Sr2 2.660619 1_555
O24 Sc1 2.107217 1_555
O24 Sr7 2.502581 1_555
O25 Sc0 2.107217 1_555
O25 Sr6 2.502581 1_455
O26 Sc3 2.107217 1_555
O26 Sr5 2.502581 1_555
O27 Sc2 2.107217 1_555
O27 Sr4 2.502581 1_655
O28 Sr3 2.524732 1_555
O28 Sr1 2.553347 1_545
O28 Sr7 2.663804 1_555
O29 Sr0 2.524732 1_454
O29 Sr2 2.553347 1_565
O29 Sr6 2.663804 1_455
O30 Sr1 2.524732 1_555
O30 Sr3 2.553347 1_565
O30 Sr5 2.663804 1_555
O31 Sr2 2.524732 1_656
O31 Sr0 2.553347 1_545
O31 Sr4 2.663804 1_655
O32 Sc2 2.107121 1_555
O32 Sr7 2.656370 1_555
O33 Sc3 2.107121 1_555
O33 Sr6 2.656370 1_456
O34 Sr4 2.683511 1_555
O35 Sc1 2.107121 1_555
O35 Sr4 2.656370 1_654
O36 Sr7 2.683511 1_555
O37 Sr6 2.683511 1_555
O38 Sr5 2.683511 1_555
O39 Sc0 2.107121 1_555
O39 Sr5 2.656370 1_555
