# generated using pymatgen
data_Li3Mn4(BO3)4
_symmetry_space_group_name_H-M   'P 1'
_cell_length_a   6.16147400
_cell_length_b   9.11857457
_cell_length_c   9.69452066
_cell_angle_alpha   79.64897480
_cell_angle_beta   80.20318777
_cell_angle_gamma   72.17157729
_symmetry_Int_Tables_number   1
_chemical_formula_structural   Li3Mn4(BO3)4
_chemical_formula_sum   'Li6 Mn8 B8 O24'
_cell_volume   506.21010162
_cell_formula_units_Z   2
loop_
 _symmetry_equiv_pos_site_id
 _symmetry_equiv_pos_as_xyz
  1  'x, y, z'
loop_
 _atom_site_type_symbol
 _atom_site_label
 _atom_site_symmetry_multiplicity
 _atom_site_fract_x
 _atom_site_fract_y
 _atom_site_fract_z
 _atom_site_occupancy
  Li  Li0  1  0.02571600  0.87036300  0.78187500  1
  Li  Li1  1  0.29869900  0.35243000  0.53784600  1
  Li  Li2  1  0.97428400  0.12963700  0.21812500  1
  Li  Li3  1  0.70130100  0.64757000  0.46215400  1
  Li  Li4  1  0.21595000  0.63149200  0.96460900  1
  Li  Li5  1  0.78405000  0.36850800  0.03539100  1
  Mn  Mn0  1  0.53113000  0.43512100  0.72739200  1
  Mn  Mn1  1  0.22479900  0.04328900  0.52481800  1
  Mn  Mn2  1  0.77520100  0.95671100  0.47518200  1
  Mn  Mn3  1  0.28448000  0.95480300  0.96357700  1
  Mn  Mn4  1  0.96572300  0.54234000  0.77492600  1
  Mn  Mn5  1  0.46887000  0.56487900  0.27260800  1
  Mn  Mn6  1  0.03427700  0.45766000  0.22507400  1
  Mn  Mn7  1  0.71552000  0.04519700  0.03642300  1
  B  B0  1  0.50707500  0.77666500  0.71653700  1
  B  B1  1  0.98336500  0.21098100  0.77714700  1
  B  B2  1  0.49292500  0.22333500  0.28346300  1
  B  B3  1  0.01663500  0.78901900  0.22285300  1
  B  B4  1  0.22234400  0.71131900  0.52935000  1
  B  B5  1  0.77765600  0.28868100  0.47065000  1
  B  B6  1  0.26620700  0.28534000  0.98377200  1
  B  B7  1  0.73379300  0.71466000  0.01622800  1
  O  O0  1  0.35468600  0.77795000  0.83903700  1
  O  O1  1  0.50947200  0.91326200  0.62588900  1
  O  O2  1  0.61957500  0.27883100  0.58518300  1
  O  O3  1  0.07238800  0.85226000  0.57835100  1
  O  O4  1  0.58666600  0.85553500  0.05387600  1
  O  O5  1  0.98567400  0.06684900  0.86141500  1
  O  O6  1  0.49052800  0.08673800  0.37411100  1
  O  O7  1  0.11396000  0.22200000  0.64983300  1
  O  O8  1  0.88604000  0.77800000  0.35016700  1
  O  O9  1  0.84148000  0.34460800  0.83387500  1
  O  O10  1  0.34543200  0.36251300  0.32404900  1
  O  O11  1  0.21521200  0.56830600  0.60900700  1
  O  O12  1  0.01432600  0.93315100  0.13858500  1
  O  O13  1  0.92761200  0.14774000  0.42164900  1
  O  O14  1  0.41333400  0.14446500  0.94612400  1
  O  O15  1  0.38042500  0.72116900  0.41481700  1
  O  O16  1  0.10051900  0.28238800  0.09849700  1
  O  O17  1  0.78478800  0.43169400  0.39099300  1
  O  O18  1  0.28084700  0.42544800  0.90316500  1
  O  O19  1  0.65456800  0.63748700  0.67595100  1
  O  O20  1  0.15852000  0.65539200  0.16612500  1
  O  O21  1  0.64531400  0.22205000  0.16096300  1
  O  O22  1  0.71915300  0.57455200  0.09683500  1
  O  O23  1  0.89948100  0.71761200  0.90150300  1
loop_
_geom_bond_atom_site_label_1
_geom_bond_atom_site_label_2
_geom_bond_distance
_geom_bond_site_symmetry_2
Li0 O23 1.914670 1_455
Li0 O3 1.974292 1_555
Li0 O5 2.006643 1_465
Li0 O0 2.072250 1_555
Li1 O7 1.957866 1_555
Li1 O2 1.988821 1_555
Li1 O10 2.032711 1_555
Li1 O11 2.088695 1_555
Li2 O16 1.914670 1_655
Li2 O13 1.974292 1_555
Li2 O12 2.006643 1_645
Li2 O21 2.072250 1_555
Li3 O8 1.957866 1_555
Li3 O15 1.988821 1_555
Li3 O19 2.032711 1_555
Li3 O17 2.088695 1_555
Li4 O0 1.938269 1_555
Li4 O20 1.964635 1_556
Li4 O18 1.976309 1_555
Li4 O23 2.022081 1_455
Li5 O21 1.938269 1_555
Li5 O9 1.964635 1_554
Li5 O22 1.976309 1_555
Li5 O16 2.022081 1_655
Mn0 O2 2.050242 1_555
Mn0 O18 2.103481 1_555
Mn0 O19 2.152175 1_555
Mn0 O9 2.191480 1_555
Mn0 O11 2.322254 1_555
Mn1 O1 2.082388 1_545
Mn1 O7 2.082642 1_555
Mn1 O6 2.085045 1_555
Mn1 O13 2.115055 1_455
Mn1 O3 2.167117 1_545
Mn2 O6 2.082388 1_565
Mn2 O8 2.082642 1_555
Mn2 O1 2.085045 1_555
Mn2 O3 2.115055 1_655
Mn2 O13 2.167117 1_565
Mn3 O4 2.071308 1_556
Mn3 O14 2.083230 1_565
Mn3 O0 2.083326 1_555
Mn3 O5 2.125901 1_465
Mn3 O12 2.192717 1_556
Mn4 O11 2.061783 1_655
Mn4 O23 2.088445 1_555
Mn4 O9 2.118859 1_555
Mn4 O19 2.158077 1_555
Mn4 O18 2.351516 1_655
Mn5 O15 2.050242 1_555
Mn5 O22 2.103481 1_555
Mn5 O10 2.152175 1_555
Mn5 O20 2.191480 1_555
Mn5 O17 2.322254 1_555
Mn6 O17 2.061783 1_455
Mn6 O16 2.088445 1_555
Mn6 O20 2.118859 1_555
Mn6 O10 2.158077 1_555
Mn6 O22 2.351516 1_455
Mn7 O14 2.071308 1_554
Mn7 O4 2.083230 1_545
Mn7 O21 2.083326 1_555
Mn7 O12 2.125901 1_645
Mn7 O5 2.192717 1_554
B0 O0 1.382348 1_555
B0 O1 1.391916 1_555
B0 O19 1.393860 1_555
B1 O7 1.359376 1_655
B1 O9 1.405823 1_555
B1 O5 1.414775 1_555
B2 O21 1.382348 1_555
B2 O6 1.391916 1_555
B2 O10 1.393860 1_555
B3 O8 1.359376 1_455
B3 O20 1.405823 1_555
B3 O12 1.414775 1_555
B4 O15 1.356215 1_555
B4 O11 1.400193 1_555
B4 O3 1.440122 1_555
B5 O2 1.356215 1_555
B5 O17 1.400193 1_555
B5 O13 1.440122 1_555
B6 O16 1.378258 1_556
B6 O18 1.392419 1_555
B6 O14 1.395692 1_555
B7 O23 1.378258 1_554
B7 O22 1.392419 1_555
B7 O4 1.395692 1_555
