# generated using pymatgen
data_Mn6O5F7
_symmetry_space_group_name_H-M   'P 1'
_cell_length_a   4.70856629
_cell_length_b   5.71971780
_cell_length_c   15.68255291
_cell_angle_alpha   90.25470323
_cell_angle_beta   89.95224726
_cell_angle_gamma   88.34944370
_symmetry_Int_Tables_number   1
_chemical_formula_structural   Mn6O5F7
_chemical_formula_sum   'Mn12 O10 F14'
_cell_volume   422.17773834
_cell_formula_units_Z   2
loop_
 _symmetry_equiv_pos_site_id
 _symmetry_equiv_pos_as_xyz
  1  'x, y, z'
loop_
 _atom_site_type_symbol
 _atom_site_label
 _atom_site_symmetry_multiplicity
 _atom_site_fract_x
 _atom_site_fract_y
 _atom_site_fract_z
 _atom_site_occupancy
  Mn  Mn0  1  0.01035100  0.16970000  0.41536200  1
  Mn  Mn1  1  0.98347200  0.82541000  0.23707900  1
  Mn  Mn2  1  0.99168300  0.14977400  0.08053800  1
  Mn  Mn3  1  0.05909100  0.16891100  0.75315900  1
  Mn  Mn4  1  0.01455400  0.85805700  0.57939700  1
  Mn  Mn5  1  0.05368100  0.83385100  0.91307700  1
  Mn  Mn6  1  0.45904800  0.32985200  0.58140700  1
  Mn  Mn7  1  0.52421600  0.36453700  0.92236000  1
  Mn  Mn8  1  0.51678000  0.35944400  0.25502500  1
  Mn  Mn9  1  0.49373900  0.64743600  0.08343500  1
  Mn  Mn10  1  0.48729900  0.64927900  0.42140100  1
  Mn  Mn11  1  0.49367000  0.64928400  0.75576700  1
  O  O0  1  0.21302800  0.10548900  0.63397900  1
  O  O1  1  0.20609100  0.88438700  0.13185600  1
  O  O2  1  0.21765100  0.89188100  0.46953400  1
  O  O3  1  0.25501500  0.88407600  0.81116900  1
  O  O4  1  0.26208900  0.39632600  0.47742800  1
  O  O5  1  0.31354800  0.40057800  0.81477500  1
  O  O6  1  0.29883700  0.61484000  0.97504700  1
  O  O7  1  0.72882800  0.38061300  0.03132500  1
  O  O8  1  0.69974400  0.62063300  0.19263700  1
  O  O9  1  0.72274500  0.39448900  0.36600500  1
  F  F0  1  0.21984800  0.10684100  0.29781100  1
  F  F1  1  0.24105600  0.11931900  0.97534200  1
  F  F2  1  0.24414500  0.37744800  0.14905300  1
  F  F3  1  0.24167700  0.61278900  0.31057100  1
  F  F4  1  0.24185100  0.60452700  0.64567500  1
  F  F5  1  0.72831600  0.62015000  0.53811000  1
  F  F6  1  0.78339700  0.61622000  0.85669700  1
  F  F7  1  0.70918900  0.37268600  0.69068700  1
  F  F8  1  0.74538900  0.11411300  0.18572200  1
  F  F9  1  0.75003600  0.11520800  0.52234700  1
  F  F10  1  0.75424900  0.88754800  0.35574300  1
  F  F11  1  0.78701300  0.88030400  0.01252500  1
  F  F12  1  0.79224400  0.12653500  0.86468100  1
  F  F13  1  0.75643200  0.86746300  0.69327600  1
loop_
_geom_bond_atom_site_label_1
_geom_bond_atom_site_label_2
_geom_bond_distance
_geom_bond_site_symmetry_2
Mn0 O9 1.999107 1_455
Mn0 O4 2.027772 1_555
Mn0 O2 2.030662 1_545
Mn1 O8 1.930499 1_555
Mn1 O1 1.989480 1_655
Mn2 O7 1.946092 1_555
Mn2 O1 1.973568 1_645
Mn3 O0 2.031468 1_555
Mn3 O5 2.051110 1_555
Mn3 O3 2.064192 1_545
Mn4 O0 1.917215 1_565
Mn4 O2 1.982751 1_555
Mn5 O3 1.884844 1_555
Mn5 O6 1.943084 1_555
Mn6 O4 1.910859 1_555
Mn6 O0 1.939569 1_555
Mn7 O6 1.938825 1_555
Mn7 O7 1.965520 1_556
Mn7 O5 1.966525 1_555
Mn8 O8 2.004246 1_555
Mn8 O9 2.005185 1_555
Mn9 O6 1.943170 1_554
Mn9 O8 1.973271 1_555
Mn9 O7 2.027898 1_555
Mn9 O1 2.032552 1_555
Mn10 O2 1.998723 1_555
Mn10 O9 2.000405 1_555
Mn10 O4 2.021861 1_555
Mn11 O5 1.918109 1_555
Mn11 O3 1.929302 1_555
F0 Mn0 2.114580 1_555
F0 Mn8 2.148466 1_555
F0 Mn1 2.197357 1_445
F1 Mn2 2.028089 1_456
F1 Mn5 2.113805 1_545
F1 Mn7 2.133419 1_555
F2 Mn2 2.083816 1_455
F2 Mn8 2.101893 1_555
F2 Mn9 2.222951 1_555
F3 Mn1 2.053062 1_455
F3 Mn8 2.101255 1_555
F3 Mn10 2.101459 1_555
F4 Mn4 2.062641 1_555
F4 Mn6 2.102762 1_555
F4 Mn11 2.114069 1_555
F5 Mn4 2.046134 1_655
F5 Mn10 2.158910 1_555
F5 Mn6 2.226073 1_555
F6 Mn5 2.008548 1_655
F6 Mn11 2.096088 1_555
F6 Mn7 2.175851 1_555
F7 Mn6 2.097756 1_555
F7 Mn11 2.113246 1_555
F7 Mn3 2.221469 1_655
F8 Mn2 2.030011 1_555
F8 Mn8 2.050959 1_555
F8 Mn1 2.130463 1_545
F9 Mn6 2.033044 1_555
F9 Mn4 2.103119 1_645
F9 Mn0 2.106596 1_655
F10 Mn10 2.146273 1_555
F10 Mn1 2.173259 1_555
F10 Mn0 2.243509 1_665
F11 Mn5 2.013298 1_654
F11 Mn2 2.124768 1_565
F11 Mn9 2.243695 1_555
F12 Mn7 2.037710 1_555
F12 Mn3 2.171159 1_655
F12 Mn5 2.188157 1_645
F13 Mn11 2.036243 1_555
F13 Mn4 2.159005 1_655
F13 Mn3 2.452563 1_665
