# generated using pymatgen
data_Sc3Al
_symmetry_space_group_name_H-M   'P 1'
_cell_length_a   6.31206687
_cell_length_b   6.31195623
_cell_length_c   5.07970298
_cell_angle_alpha   90.00000000
_cell_angle_beta   90.00000000
_cell_angle_gamma   120.00146599
_symmetry_Int_Tables_number   1
_chemical_formula_structural   Sc3Al
_chemical_formula_sum   'Sc6 Al2'
_cell_volume   175.26617350
_cell_formula_units_Z   2
loop_
 _symmetry_equiv_pos_site_id
 _symmetry_equiv_pos_as_xyz
  1  'x, y, z'
loop_
 _atom_site_type_symbol
 _atom_site_label
 _atom_site_symmetry_multiplicity
 _atom_site_fract_x
 _atom_site_fract_y
 _atom_site_fract_z
 _atom_site_occupancy
  Sc  Sc0  1  0.82872481  0.17136336  0.75000100  1
  Sc  Sc1  1  0.34266911  0.17133078  0.75000100  1
  Sc  Sc2  1  0.82872624  0.65735291  0.75000100  1
  Sc  Sc3  1  0.17134594  0.82864868  0.24999900  1
  Sc  Sc4  1  0.65739335  0.82865511  0.24999900  1
  Sc  Sc5  1  0.17135820  0.34264593  0.24999900  1
  Al  Al0  1  0.66649432  0.33326833  0.24999900  1
  Al  Al1  1  0.33329104  0.66673891  0.75000100  1
loop_
_geom_bond_atom_site_label_1
_geom_bond_atom_site_label_2
_geom_bond_distance
_geom_bond_site_symmetry_2
Sc0 Sc2 3.067540 1_555
Sc0 Sc1 3.067913 1_555
Sc0 Sc5 3.155745 1_656
Sc0 Sc5 3.155761 1_655
Sc0 Sc4 3.155968 1_546
Sc0 Sc4 3.155984 1_545
Sc0 Sc1 3.244154 1_655
Sc0 Sc2 3.244416 1_545
Sc1 Sc2 3.067820 1_555
Sc1 Sc5 3.155736 1_556
Sc1 Sc5 3.155752 1_555
Sc1 Sc3 3.155883 1_546
Sc1 Sc3 3.155900 1_545
Sc1 Sc2 3.244052 1_445
Sc2 Sc3 3.155700 1_656
Sc2 Sc3 3.155717 1_655
Sc2 Sc4 3.155765 1_556
Sc2 Sc4 3.155781 1_555
Sc3 Sc5 3.067667 1_555
Sc3 Sc4 3.067943 1_555
Sc3 Sc4 3.244123 1_455
Sc3 Sc5 3.244289 1_565
Sc4 Sc5 3.067710 1_555
Sc4 Sc5 3.244162 1_665
Al0 Sc1 3.095832 1_554
Al0 Sc1 3.095848 1_555
Al0 Sc2 3.096625 1_554
Al0 Sc2 3.096642 1_555
Al0 Sc0 3.096815 1_554
Al0 Sc0 3.096832 1_555
Al0 Sc5 3.155346 1_555
Al0 Sc3 3.155627 1_545
Al0 Sc4 3.155976 1_555
Al0 Sc4 3.156764 1_545
Al0 Sc3 3.157094 1_655
Al0 Sc5 3.157554 1_655
Al1 Sc3 3.095938 1_556
Al1 Sc3 3.095954 1_555
Al1 Sc5 3.096651 1_556
Al1 Sc5 3.096668 1_555
Al1 Sc4 3.096698 1_556
Al1 Sc4 3.096715 1_555
Al1 Sc2 3.155641 1_455
Al1 Sc1 3.155779 1_565
Al1 Sc0 3.156153 1_455
Al1 Sc0 3.156518 1_565
Al1 Sc1 3.157009 1_555
Al1 Sc2 3.157260 1_555
