# generated using pymatgen
data_Li8VO5F
_symmetry_space_group_name_H-M   'P 1'
_cell_length_a   5.64671197
_cell_length_b   5.64671197
_cell_length_c   10.92071300
_cell_angle_alpha   90.00000000
_cell_angle_beta   90.00000000
_cell_angle_gamma   119.99999960
_symmetry_Int_Tables_number   1
_chemical_formula_structural   Li8VO5F
_chemical_formula_sum   'Li16 V2 O10 F2'
_cell_volume   301.55941896
_cell_formula_units_Z   2
loop_
 _symmetry_equiv_pos_site_id
 _symmetry_equiv_pos_as_xyz
  1  'x, y, z'
loop_
 _atom_site_type_symbol
 _atom_site_label
 _atom_site_symmetry_multiplicity
 _atom_site_fract_x
 _atom_site_fract_y
 _atom_site_fract_z
 _atom_site_occupancy
  Li  Li0  1  0.97591100  0.68491200  0.77207300  1
  Li  Li1  1  0.01976800  0.63000900  0.12114000  1
  Li  Li2  1  0.98023200  0.36999100  0.62114000  1
  Li  Li3  1  0.02408900  0.31508800  0.27207300  1
  Li  Li4  1  0.33333300  0.66666700  0.41383100  1
  Li  Li5  1  0.33333300  0.66666700  0.92411900  1
  Li  Li6  1  0.31508800  0.29099900  0.77207300  1
  Li  Li7  1  0.36999100  0.38976000  0.12114000  1
  Li  Li8  1  0.63000900  0.61024000  0.62114000  1
  Li  Li9  1  0.29099900  0.97591100  0.27207300  1
  Li  Li10  1  0.68491200  0.70900100  0.27207300  1
  Li  Li11  1  0.38976000  0.01976800  0.62114000  1
  Li  Li12  1  0.66666700  0.33333300  0.91383100  1
  Li  Li13  1  0.66666700  0.33333300  0.42411900  1
  Li  Li14  1  0.61024000  0.98023200  0.12114000  1
  Li  Li15  1  0.70900100  0.02408900  0.77207300  1
  V  V0  1  0.00000000  0.00000000  0.98786600  1
  V  V1  1  0.00000000  0.00000000  0.48786600  1
  O  O0  1  0.00192100  0.67350100  0.94775200  1
  O  O1  1  0.99807900  0.32649900  0.44775200  1
  O  O2  1  0.33333300  0.66666700  0.21225700  1
  O  O3  1  0.00000000  0.00000000  0.67534300  1
  O  O4  1  0.00000000  0.00000000  0.17534300  1
  O  O5  1  0.32649900  0.32842000  0.94775200  1
  O  O6  1  0.32842000  0.00192100  0.44775200  1
  O  O7  1  0.67350100  0.67158000  0.44775200  1
  O  O8  1  0.66666700  0.33333300  0.71225700  1
  O  O9  1  0.67158000  0.99807900  0.94775200  1
  F  F0  1  0.33333300  0.66666700  0.70933100  1
  F  F1  1  0.66666700  0.33333300  0.20933100  1
loop_
_geom_bond_atom_site_label_1
_geom_bond_atom_site_label_2
_geom_bond_distance
_geom_bond_site_symmetry_2
Li0 O0 1.927688 1_655
Li0 O8 1.987600 1_555
Li0 O3 2.014442 1_665
Li1 O0 1.918499 1_554
Li1 O2 1.949756 1_555
Li1 O4 2.227319 1_565
Li2 O1 1.918499 1_555
Li2 O8 1.949756 1_555
Li2 O3 2.227319 1_655
Li3 O1 1.927688 1_455
Li3 O2 1.987600 1_555
Li3 O4 2.014442 1_555
Li4 O6 1.942750 1_565
Li4 O1 1.942753 1_455
Li4 O7 1.942755 1_555
Li4 O2 2.201332 1_555
Li5 O0 1.908510 1_555
Li5 O9 1.908512 1_555
Li5 O5 1.908515 1_555
Li6 O5 1.927688 1_555
Li6 O8 1.987602 1_555
Li6 O3 2.014442 1_555
Li7 O5 1.918500 1_554
Li7 O2 1.949756 1_555
Li7 O4 2.227322 1_555
Li8 O7 1.918500 1_555
Li8 O8 1.949756 1_555
Li8 O3 2.227322 1_665
Li9 O6 1.927688 1_565
Li9 O2 1.987597 1_555
Li9 O4 2.014442 1_565
Li10 O7 1.927688 1_555
Li10 O2 1.987602 1_555
Li10 O4 2.014442 1_665
Li11 O6 1.918500 1_555
Li11 O8 1.949756 1_555
Li11 O3 2.227324 1_555
Li12 O9 1.942750 1_545
Li12 O0 1.942753 1_655
Li12 O5 1.942755 1_555
Li12 O8 2.201332 1_555
Li13 O1 1.908510 1_555
Li13 O6 1.908512 1_555
Li13 O7 1.908515 1_555
Li14 O9 1.918500 1_554
Li14 O2 1.949756 1_555
Li14 O4 2.227324 1_665
Li15 O9 1.927688 1_545
Li15 O8 1.987597 1_555
Li15 O3 2.014442 1_655
O0 V0 1.900277 1_565
O1 V1 1.900277 1_655
O3 V1 2.047383 1_555
O4 V0 2.047383 1_554
O5 V0 1.900278 1_555
O6 V1 1.900277 1_555
O7 V1 1.900278 1_665
O9 V0 1.900277 1_665
F0 Li11 2.090282 1_565
F0 Li2 2.090286 1_455
F0 Li8 2.090292 1_555
F0 Li0 2.182062 1_455
F0 Li15 2.182065 1_565
F0 Li6 2.182067 1_555
F0 Li5 2.345638 1_555
F1 Li14 2.090282 1_545
F1 Li1 2.090286 1_655
F1 Li7 2.090292 1_555
F1 Li3 2.182062 1_655
F1 Li9 2.182065 1_545
F1 Li10 2.182067 1_555
F1 Li13 2.345638 1_555
