# generated using pymatgen
data_Li6V2OF11
_symmetry_space_group_name_H-M   'P 1'
_cell_length_a   5.14474100
_cell_length_b   5.52156223
_cell_length_c   8.77855204
_cell_angle_alpha   106.27604111
_cell_angle_beta   89.67021245
_cell_angle_gamma   117.55140720
_symmetry_Int_Tables_number   1
_chemical_formula_structural   Li6V2OF11
_chemical_formula_sum   'Li6 V2 O1 F11'
_cell_volume   209.97145645
_cell_formula_units_Z   1
loop_
 _symmetry_equiv_pos_site_id
 _symmetry_equiv_pos_as_xyz
  1  'x, y, z'
loop_
 _atom_site_type_symbol
 _atom_site_label
 _atom_site_symmetry_multiplicity
 _atom_site_fract_x
 _atom_site_fract_y
 _atom_site_fract_z
 _atom_site_occupancy
  Li  Li0  1  0.20118000  0.28565800  0.05805100  1
  Li  Li1  1  0.05347300  0.71597500  0.69157200  1
  Li  Li2  1  0.98129100  0.27349500  0.33257200  1
  Li  Li3  1  0.75400200  0.67988000  0.93258900  1
  Li  Li4  1  0.29533100  0.74204300  0.41183800  1
  Li  Li5  1  0.45684200  0.31994100  0.81547300  1
  V  V0  1  0.73731300  0.32917500  0.56609400  1
  V  V1  1  0.51335400  0.68531100  0.17166900  1
  O  O0  1  0.76972300  0.49372500  0.38194800  1
  F  F0  1  0.77815300  0.84609000  0.70703000  1
  F  F1  1  0.28681600  0.80719400  0.21832000  1
  F  F2  1  0.69829400  0.51144800  0.13337100  1
  F  F3  1  0.72186300  0.79864700  0.47259900  1
  F  F4  1  0.23323100  0.80682000  0.97630300  1
  F  F5  1  0.30101600  0.19491600  0.53241200  1
  F  F6  1  0.77247400  0.17037900  0.03570100  1
  F  F7  1  0.32858800  0.50090700  0.87379500  1
  F  F8  1  0.16497600  0.49232900  0.61463200  1
  F  F9  1  0.22541300  0.20267600  0.27554900  1
  F  F10  1  0.72078700  0.20684400  0.76270300  1
loop_
_geom_bond_atom_site_label_1
_geom_bond_atom_site_label_2
_geom_bond_distance
_geom_bond_site_symmetry_2
Li0 V1 1.987438 1_555
Li1 V0 1.977042 1_455
Li2 O0 1.942904 1_555
Li4 O0 2.374374 1_455
O0 V0 2.036300 1_555
F0 Li1 1.850794 1_655
F0 Li3 2.385096 1_555
F1 V1 1.595173 1_555
F1 Li4 1.837189 1_555
F2 V1 1.612545 1_555
F2 Li3 2.172594 1_554
F2 Li0 2.267193 1_555
F3 O0 1.777302 1_555
F3 Li4 2.117341 1_555
F4 Li3 2.231312 1_455
F5 V0 2.005194 1_555
F5 Li4 2.413119 1_545
F5 Li5 2.417282 1_555
F6 Li0 1.986074 1_655
F7 Li5 1.419583 1_555
F7 Li3 1.938918 1_555
F7 Li0 2.191621 1_556
F8 Li1 1.579094 1_555
F8 V0 1.948352 1_455
F8 Li2 2.403663 1_455
F8 Li4 2.454964 1_555
F9 Li2 1.522580 1_455
F9 Li0 2.101649 1_555
F10 Li5 1.750315 1_555
F10 V0 2.010224 1_555
