# generated using pymatgen
data_KLiSb3O8
_symmetry_space_group_name_H-M   'P 1'
_cell_length_a   8.80373800
_cell_length_b   8.80678330
_cell_length_c   8.96492193
_cell_angle_alpha   108.19695581
_cell_angle_beta   107.47258040
_cell_angle_gamma   112.08219702
_symmetry_Int_Tables_number   1
_chemical_formula_structural   KLiSb3O8
_chemical_formula_sum   'K3 Li3 Sb9 O24'
_cell_volume   538.62732775
_cell_formula_units_Z   3
loop_
 _symmetry_equiv_pos_site_id
 _symmetry_equiv_pos_as_xyz
  1  'x, y, z'
loop_
 _atom_site_type_symbol
 _atom_site_label
 _atom_site_symmetry_multiplicity
 _atom_site_fract_x
 _atom_site_fract_y
 _atom_site_fract_z
 _atom_site_occupancy
  K  K0  1  0.95125000  0.91236400  0.92906900  1
  K  K1  1  0.47830600  0.47343800  0.01697700  1
  K  K2  1  0.09094600  0.08136200  0.03855500  1
  Li  Li0  1  0.81234100  0.60776200  0.54266000  1
  Li  Li1  1  0.42754900  0.22310000  0.54164600  1
  Li  Li2  1  0.45109200  0.97005500  0.74722600  1
  Sb  Sb0  1  0.67064900  0.15330200  0.16634700  1
  Sb  Sb1  1  0.55626800  0.67347000  0.47777500  1
  Sb  Sb2  1  0.12893100  0.31700200  0.51722300  1
  Sb  Sb3  1  0.18598800  0.00106500  0.49173200  1
  Sb  Sb4  1  0.00045200  0.50869000  0.82379800  1
  Sb  Sb5  1  0.68151800  0.18992900  0.82392900  1
  Sb  Sb6  1  0.03510600  0.67436700  0.31768000  1
  Sb  Sb7  1  0.00979100  0.49167200  0.16648800  1
  Sb  Sb8  1  0.79240400  0.98028400  0.51802100  1
  O  O0  1  0.48516800  0.76304600  0.34664600  1
  O  O1  1  0.17174700  0.22180300  0.63549800  1
  O  O2  1  0.81612800  0.87490700  0.65726400  1
  O  O3  1  0.58467600  0.20688400  0.29018300  1
  O  O4  1  0.06632600  0.43006900  0.72181300  1
  O  O5  1  0.78407400  0.17833500  0.68871500  1
  O  O6  1  0.44570100  0.40745500  0.36452900  1
  O  O7  1  0.16448800  0.86867400  0.63997400  1
  O  O8  1  0.87400400  0.57777800  0.63985300  1
  O  O9  1  0.05063400  0.41021900  0.06701400  1
  O  O10  1  0.43195400  0.76603500  0.02450800  1
  O  O11  1  0.82057900  0.15578900  0.02510300  1
  O  O12  1  0.26359700  0.91689300  0.95329800  1
  O  O13  1  0.88287400  0.53716800  0.95376000  1
  O  O14  1  0.57469300  0.20607400  0.96029100  1
  O  O15  1  0.05293300  0.37309900  0.41190900  1
  O  O16  1  0.85679900  0.13532900  0.34783200  1
  O  O17  1  0.53320800  0.58346900  0.63535400  1
  O  O18  1  0.25861800  0.89568000  0.30909100  1
  O  O19  1  0.84192200  0.48016000  0.30690600  1
  O  O20  1  0.41741600  0.81169100  0.68890500  1
  O  O21  1  0.95775200  0.87441700  0.27666200  1
  O  O22  1  0.16076700  0.12257700  0.36477800  1
  O  O23  1  0.61755500  0.33078800  0.57098800  1
loop_
_geom_bond_atom_site_label_1
_geom_bond_atom_site_label_2
_geom_bond_distance
_geom_bond_site_symmetry_2
K0 K2 1.295196 1_666
K0 O2 2.218953 1_555
K0 O12 2.676516 1_655
K0 O11 2.820767 1_566
K0 O8 2.920702 1_555
K0 O17 3.204701 1_555
K0 O13 3.220384 1_555
K0 O21 3.222267 1_556
K1 O10 2.740379 1_555
K1 O14 2.745254 1_554
K1 O1 3.019580 1_554
K1 O0 3.211305 1_555
K2 O12 2.579535 1_544
K2 O22 2.674397 1_555
K2 O11 2.675772 1_455
K2 O9 2.990742 1_555
K2 O6 3.012564 1_555
Li0 O8 1.044550 1_555
Li0 O19 2.205621 1_555
Li0 O2 2.236647 1_555
Li1 O23 1.467629 1_555
Li1 O22 2.034163 1_555
Li1 Sb3 2.074102 1_555
Li1 O18 2.456029 1_545
Li2 O20 1.202905 1_555
Li2 Sb5 1.927409 1_565
Li2 O14 1.929924 1_565
Li2 O7 2.097924 1_555
Sb6 Sb7 1.631718 1_555
O0 Sb1 1.704314 1_555
O0 Sb8 2.261567 1_555
O1 Sb2 1.588117 1_555
O1 Sb3 2.042395 1_555
O2 Sb8 1.782089 1_555
O2 Sb1 1.981209 1_555
O3 Sb0 1.572888 1_555
O4 Sb4 1.369889 1_555
O4 Sb2 2.130341 1_555
O5 Sb5 1.715875 1_555
O5 Sb8 1.971249 1_545
O5 Sb4 2.409756 1_655
O6 Sb1 1.916537 1_555
O7 Sb3 2.028379 1_565
O7 Sb6 2.458479 1_555
O8 Sb4 2.088633 1_655
O9 Sb7 1.194186 1_555
O11 Sb5 2.032585 1_554
O11 Sb0 2.084548 1_555
O11 Sb7 2.411849 1_655
O13 Sb4 1.796872 1_655
O13 Sb5 2.512155 1_555
O14 Sb5 1.755417 1_555
O14 Sb0 2.058244 1_556
O15 Sb2 1.320463 1_555
O16 Sb2 2.005355 1_655
O16 Sb0 2.027963 1_555
O16 Sb8 2.398386 1_545
O17 Sb1 1.848164 1_555
O18 Sb3 2.019146 1_565
O18 Sb6 2.231112 1_555
O19 Sb6 1.854240 1_655
O19 Sb7 2.205286 1_655
O19 Sb0 2.340446 1_555
O21 Sb3 1.909015 1_665
O21 Sb6 2.204372 1_655
O22 Sb3 1.810365 1_555
O22 Sb2 2.001860 1_555
