# generated using pymatgen
data_Sm2IrPd
_symmetry_space_group_name_H-M   'P 1'
_cell_length_a   4.97298061
_cell_length_b   4.97298061
_cell_length_c   4.97298061
_cell_angle_alpha   60.00000000
_cell_angle_beta   60.00000000
_cell_angle_gamma   60.00000000
_symmetry_Int_Tables_number   1
_chemical_formula_structural   Sm2IrPd
_chemical_formula_sum   'Sm2 Ir1 Pd1'
_cell_volume   86.96315733
_cell_formula_units_Z   1
loop_
 _symmetry_equiv_pos_site_id
 _symmetry_equiv_pos_as_xyz
  1  'x, y, z'
loop_
 _atom_site_type_symbol
 _atom_site_label
 _atom_site_symmetry_multiplicity
 _atom_site_fract_x
 _atom_site_fract_y
 _atom_site_fract_z
 _atom_site_occupancy
  Sm  Sm0  1  -0.00000000  -0.00000000  -0.00000000  1
  Sm  Sm1  1  0.49999900  0.49999900  0.49999900  1
  Ir  Ir0  1  0.25000000  0.25000000  0.25000000  1
  Pd  Pd0  1  0.74999900  0.74999900  0.74999900  1
loop_
_geom_bond_atom_site_label_1
_geom_bond_atom_site_label_2
_geom_bond_distance
_geom_bond_site_symmetry_2
Ir0 Sm1 3.045304 1_555
Ir0 Sm0 3.045316 1_655
Ir0 Sm0 3.045316 1_565
Ir0 Sm0 3.045316 1_556
Ir0 Sm0 3.045316 1_555
Ir0 Sm1 3.045320 1_554
Ir0 Sm1 3.045320 1_545
Ir0 Sm1 3.045320 1_455
Pd0 Sm0 3.045312 1_656
Pd0 Sm0 3.045312 1_665
Pd0 Sm0 3.045312 1_566
Pd0 Sm1 3.045316 1_556
Pd0 Sm1 3.045316 1_565
Pd0 Sm1 3.045316 1_655
Pd0 Sm1 3.045316 1_555
Pd0 Sm0 3.045328 1_666
