# generated using pymatgen
data_Hf2Ni
_symmetry_space_group_name_H-M   'P 1'
_cell_length_a   5.23608484
_cell_length_b   5.20114253
_cell_length_c   5.20114143
_cell_angle_alpha   75.32295600
_cell_angle_beta   59.77750131
_cell_angle_gamma   59.77751706
_symmetry_Int_Tables_number   1
_chemical_formula_structural   Hf2Ni
_chemical_formula_sum   'Hf4 Ni2'
_cell_volume   105.75703483
_cell_formula_units_Z   2
loop_
 _symmetry_equiv_pos_site_id
 _symmetry_equiv_pos_as_xyz
  1  'x, y, z'
loop_
 _atom_site_type_symbol
 _atom_site_label
 _atom_site_symmetry_multiplicity
 _atom_site_fract_x
 _atom_site_fract_y
 _atom_site_fract_z
 _atom_site_occupancy
  Hf  Hf0  1  0.66561080  0.16877940  0.50000000  1
  Hf  Hf1  1  0.83438920  0.50000000  0.83122060  1
  Hf  Hf2  1  0.33438920  0.83122060  0.50000000  1
  Hf  Hf3  1  0.16561080  0.50000000  0.16877940  1
  Ni  Ni0  1  0.75000000  -0.00000000  0.00000000  1
  Ni  Ni1  1  0.25000000  -0.00000000  0.00000000  1
loop_
_geom_bond_atom_site_label_1
_geom_bond_atom_site_label_2
_geom_bond_distance
_geom_bond_site_symmetry_2
Hf0 Ni1 2.708934 1_655
Hf0 Ni0 2.708934 1_556
Hf0 Ni1 2.708936 1_556
Hf0 Ni0 2.708937 1_555
Hf0 Hf2 2.977136 1_555
Hf0 Hf2 3.025817 1_645
Hf0 Hf2 3.025826 1_545
Hf0 Hf3 3.354040 1_556
Hf0 Hf1 3.354041 1_554
Hf0 Hf3 3.354041 1_645
Hf0 Hf1 3.354041 1_545
Hf0 Hf1 3.359433 1_555
Hf0 Hf3 3.359437 1_655
Hf0 Hf3 3.359437 1_555
Hf0 Hf1 3.359441 1_455
Hf1 Ni0 2.708935 1_556
Hf1 Ni1 2.708935 1_566
Hf1 Ni0 2.708937 1_566
Hf1 Ni1 2.708937 1_656
Hf1 Hf3 2.977135 1_655
Hf1 Hf3 3.025817 1_556
Hf1 Hf3 3.025826 1_656
Hf1 Hf2 3.354040 1_556
Hf1 Hf2 3.354041 1_645
Hf1 Hf2 3.359437 1_655
Hf1 Hf2 3.359437 1_555
Hf2 Ni0 2.708934 1_466
Hf2 Ni1 2.708934 1_565
Hf2 Ni0 2.708936 1_565
Hf2 Ni1 2.708937 1_566
Hf2 Hf3 3.354041 1_556
Hf2 Hf3 3.354041 1_565
Hf2 Hf3 3.359433 1_555
Hf2 Hf3 3.359441 1_655
Hf3 Ni1 2.708935 1_565
Hf3 Ni0 2.708935 1_555
Hf3 Ni1 2.708937 1_555
Hf3 Ni0 2.708937 1_465
Ni0 Ni1 2.618042 1_655
Ni0 Ni1 2.618042 1_555
