# generated using pymatgen
data_Cu3As
_symmetry_space_group_name_H-M   'P 1'
_cell_length_a   7.19066203
_cell_length_b   7.19066203
_cell_length_c   7.40477200
_cell_angle_alpha   90.00000000
_cell_angle_beta   90.00000000
_cell_angle_gamma   120.00000030
_symmetry_Int_Tables_number   1
_chemical_formula_structural   Cu3As
_chemical_formula_sum   'Cu18 As6'
_cell_volume   331.57369969
_cell_formula_units_Z   6
loop_
 _symmetry_equiv_pos_site_id
 _symmetry_equiv_pos_as_xyz
  1  'x, y, z'
loop_
 _atom_site_type_symbol
 _atom_site_label
 _atom_site_symmetry_multiplicity
 _atom_site_fract_x
 _atom_site_fract_y
 _atom_site_fract_z
 _atom_site_occupancy
  Cu  Cu0  1  0.00000000  0.00000000  0.75000000  1
  Cu  Cu1  1  0.00000000  0.00000000  0.25000000  1
  Cu  Cu2  1  0.33333300  0.66666700  0.65355400  1
  Cu  Cu3  1  0.66666700  0.33333300  0.84644600  1
  Cu  Cu4  1  0.66666700  0.33333300  0.34644600  1
  Cu  Cu5  1  0.33333300  0.66666700  0.15355400  1
  Cu  Cu6  1  0.37005400  0.05402700  0.08092000  1
  Cu  Cu7  1  0.94597300  0.31602700  0.08092000  1
  Cu  Cu8  1  0.68397300  0.62994600  0.08092000  1
  Cu  Cu9  1  0.31602700  0.94597300  0.41908000  1
  Cu  Cu10  1  0.62994600  0.68397300  0.41908000  1
  Cu  Cu11  1  0.05402700  0.37005400  0.41908000  1
  Cu  Cu12  1  0.62994600  0.94597300  0.91908000  1
  Cu  Cu13  1  0.05402700  0.68397300  0.91908000  1
  Cu  Cu14  1  0.31602700  0.37005400  0.91908000  1
  Cu  Cu15  1  0.68397300  0.05402700  0.58092000  1
  Cu  Cu16  1  0.37005400  0.31602700  0.58092000  1
  Cu  Cu17  1  0.94597300  0.62994600  0.58092000  1
  As  As0  1  0.66327000  0.66327000  0.75000000  1
  As  As1  1  0.00000000  0.33673000  0.75000000  1
  As  As2  1  0.33673000  0.00000000  0.75000000  1
  As  As3  1  0.33673000  0.33673000  0.25000000  1
  As  As4  1  0.00000000  0.66327000  0.25000000  1
  As  As5  1  0.66327000  0.00000000  0.25000000  1
loop_
_geom_bond_atom_site_label_1
_geom_bond_atom_site_label_2
_geom_bond_distance
_geom_bond_site_symmetry_2
Cu0 Cu16 2.786619 1_555
Cu0 Cu14 2.786619 1_555
Cu0 Cu17 2.786619 1_445
Cu0 Cu12 2.786619 1_445
Cu0 Cu13 2.786619 1_545
Cu0 Cu15 2.786619 1_455
Cu1 Cu10 2.786619 1_445
Cu1 Cu8 2.786619 1_445
Cu1 Cu11 2.786619 1_555
Cu1 Cu6 2.786619 1_555
Cu1 Cu7 2.786619 1_455
Cu1 Cu9 2.786619 1_545
Cu2 Cu9 2.704357 1_555
Cu3 Cu7 2.704357 1_556
Cu3 Cu6 2.704360 1_556
Cu3 Cu8 2.704363 1_556
Cu4 Cu9 2.716955 1_545
Cu4 Cu7 2.857420 1_555
Cu4 Cu6 2.857423 1_555
Cu4 Cu8 2.857425 1_555
Cu5 Cu6 2.716953 1_565
Cu5 Cu7 2.716955 1_455
Cu5 Cu8 2.716960 1_555
Cu5 Cu9 2.857420 1_555
Cu6 Cu9 2.592832 1_545
Cu10 Cu8 2.592832 1_555
Cu10 Cu16 2.642772 1_555
Cu10 Cu2 2.704363 1_555
Cu10 Cu4 2.716960 1_555
Cu10 Cu15 2.762948 1_565
Cu10 Cu17 2.762948 1_555
Cu10 Cu5 2.857425 1_555
Cu11 Cu7 2.592832 1_455
Cu11 Cu17 2.642772 1_455
Cu11 Cu2 2.704360 1_555
Cu11 Cu4 2.716953 1_455
Cu11 Cu15 2.762948 1_455
Cu11 Cu16 2.762948 1_555
Cu11 Cu5 2.857423 1_555
Cu12 Cu15 2.592832 1_565
Cu12 Cu6 2.642772 1_566
Cu12 Cu5 2.704360 1_556
Cu12 Cu3 2.716953 1_565
Cu12 Cu7 2.762948 1_566
Cu12 Cu8 2.762948 1_556
Cu12 Cu2 2.857423 1_555
Cu13 Cu17 2.592832 1_455
Cu13 Cu7 2.642772 1_456
Cu13 Cu5 2.704357 1_556
Cu13 Cu3 2.716955 1_455
Cu13 Cu6 2.762948 1_566
Cu13 Cu8 2.762948 1_456
Cu13 Cu2 2.857420 1_555
Cu14 Cu16 2.592832 1_555
Cu14 Cu8 2.642772 1_556
Cu14 Cu5 2.704363 1_556
Cu14 Cu3 2.716960 1_555
Cu14 Cu7 2.762948 1_456
Cu14 Cu6 2.762948 1_556
Cu14 Cu2 2.857425 1_555
Cu15 Cu9 2.642772 1_545
Cu15 Cu4 2.704357 1_555
Cu15 Cu2 2.716955 1_545
Cu15 Cu3 2.857420 1_555
Cu16 Cu4 2.704363 1_555
Cu16 Cu2 2.716960 1_555
Cu16 Cu9 2.762948 1_545
Cu16 Cu3 2.857425 1_555
Cu17 Cu4 2.704360 1_555
Cu17 Cu2 2.716953 1_655
Cu17 Cu9 2.762948 1_655
Cu17 Cu3 2.857423 1_555
As0 Cu0 2.421312 1_665
As0 Cu10 2.473793 1_555
As0 Cu8 2.473793 1_556
As0 Cu2 2.489411 1_555
As0 Cu3 2.489411 1_555
As0 Cu12 2.498878 1_555
As0 Cu17 2.498878 1_555
As0 Cu16 2.642527 1_555
As0 Cu14 2.642527 1_555
As0 Cu15 3.011039 1_565
As0 Cu13 3.011039 1_655
As1 Cu0 2.421312 1_555
As1 Cu11 2.473793 1_555
As1 Cu7 2.473793 1_456
As1 Cu3 2.489404 1_455
As1 Cu2 2.489407 1_555
As1 Cu15 2.498878 1_455
As1 Cu14 2.498878 1_555
As1 Cu13 2.642527 1_555
As1 Cu17 2.642527 1_455
As1 Cu12 3.011039 1_445
As1 Cu16 3.011039 1_555
As2 Cu0 2.421312 1_555
As2 Cu6 2.473793 1_556
As2 Cu9 2.473793 1_545
As2 Cu2 2.489404 1_545
As2 Cu3 2.489407 1_555
As2 Cu13 2.498878 1_545
As2 Cu16 2.498878 1_555
As2 Cu15 2.642527 1_555
As2 Cu12 2.642527 1_545
As2 Cu17 3.011039 1_445
As2 Cu14 3.011039 1_555
As3 Cu1 2.421312 1_555
As3 Cu14 2.473793 1_554
As3 Cu16 2.473793 1_555
As3 Cu4 2.489411 1_555
As3 Cu5 2.489411 1_555
As3 Cu11 2.498878 1_555
As3 Cu6 2.498878 1_555
As3 Cu10 2.642527 1_555
As3 Cu8 2.642527 1_555
As3 Cu9 3.011039 1_545
As3 Cu7 3.011039 1_455
As4 Cu1 2.421312 1_565
As4 Cu17 2.473793 1_455
As4 Cu13 2.473793 1_554
As4 Cu5 2.489404 1_555
As4 Cu4 2.489407 1_455
As4 Cu9 2.498878 1_555
As4 Cu8 2.498878 1_455
As4 Cu7 2.642527 1_455
As4 Cu11 2.642527 1_555
As4 Cu6 3.011039 1_565
As4 Cu10 3.011039 1_455
As5 Cu1 2.421312 1_655
As5 Cu12 2.473793 1_544
As5 Cu15 2.473793 1_555
As5 Cu4 2.489404 1_555
As5 Cu5 2.489407 1_545
As5 Cu7 2.498878 1_555
As5 Cu10 2.498878 1_545
As5 Cu9 2.642527 1_545
As5 Cu6 2.642527 1_555
As5 Cu11 3.011039 1_655
As5 Cu8 3.011039 1_545
