# generated using pymatgen
data_MgGeRh2
_symmetry_space_group_name_H-M   'P 1'
_cell_length_a   4.28090335
_cell_length_b   4.28090328
_cell_length_c   4.28090328
_cell_angle_alpha   59.99980876
_cell_angle_beta   59.99980756
_cell_angle_gamma   59.99980756
_symmetry_Int_Tables_number   1
_chemical_formula_structural   MgGeRh2
_chemical_formula_sum   'Mg1 Ge1 Rh2'
_cell_volume   55.47398518
_cell_formula_units_Z   1
loop_
 _symmetry_equiv_pos_site_id
 _symmetry_equiv_pos_as_xyz
  1  'x, y, z'
loop_
 _atom_site_type_symbol
 _atom_site_label
 _atom_site_symmetry_multiplicity
 _atom_site_fract_x
 _atom_site_fract_y
 _atom_site_fract_z
 _atom_site_occupancy
  Mg  Mg0  1  0.75000082  0.75000083  0.75000082  1
  Ge  Ge0  1  0.24999992  0.24999993  0.24999992  1
  Rh  Rh0  1  0.00000058  0.00000058  0.00000059  1
  Rh  Rh1  1  0.49999868  0.49999867  0.49999867  1
loop_
_geom_bond_atom_site_label_1
_geom_bond_atom_site_label_2
_geom_bond_distance
_geom_bond_site_symmetry_2
Mg0 Rh1 2.621493 1_565
Mg0 Rh1 2.621493 1_556
Mg0 Rh1 2.621493 1_655
Mg0 Rh0 2.621502 1_665
Mg0 Rh0 2.621502 1_566
Mg0 Rh0 2.621502 1_656
Mg0 Rh0 2.621508 1_666
Mg0 Rh1 2.621534 1_555
Ge0 Rh1 2.621498 1_555
Ge0 Rh0 2.621503 1_565
Ge0 Rh0 2.621503 1_655
Ge0 Rh0 2.621503 1_556
Ge0 Rh0 2.621504 1_555
Ge0 Rh1 2.621505 1_455
Ge0 Rh1 2.621505 1_554
Ge0 Rh1 2.621505 1_545
Ge0 Mg0 3.027046 1_544
Ge0 Mg0 3.027046 1_445
Ge0 Mg0 3.027046 1_454
Ge0 Mg0 3.027057 1_455
Ge0 Mg0 3.027057 1_554
Ge0 Mg0 3.027057 1_545
