# generated using pymatgen
data_Ca2SnS4
_symmetry_space_group_name_H-M   'P 1'
_cell_length_a   8.92552000
_cell_length_b   9.95644400
_cell_length_c   10.22828500
_cell_angle_alpha   90.00000000
_cell_angle_beta   90.00000000
_cell_angle_gamma   90.00000000
_symmetry_Int_Tables_number   1
_chemical_formula_structural   Ca2SnS4
_chemical_formula_sum   'Ca8 Sn4 S16'
_cell_volume   908.95127578
_cell_formula_units_Z   4
loop_
 _symmetry_equiv_pos_site_id
 _symmetry_equiv_pos_as_xyz
  1  'x, y, z'
loop_
 _atom_site_type_symbol
 _atom_site_label
 _atom_site_symmetry_multiplicity
 _atom_site_fract_x
 _atom_site_fract_y
 _atom_site_fract_z
 _atom_site_occupancy
  Ca  Ca0  1  0.00000000  0.69600700  0.35264200  1
  Ca  Ca1  1  0.00000000  0.30399300  0.64735800  1
  Ca  Ca2  1  0.00000000  0.80399300  0.85264200  1
  Ca  Ca3  1  0.00000000  0.19600700  0.14735800  1
  Ca  Ca4  1  0.50000000  0.35936300  0.29957600  1
  Ca  Ca5  1  0.50000000  0.64063700  0.70042400  1
  Ca  Ca6  1  0.50000000  0.14063700  0.79957600  1
  Ca  Ca7  1  0.50000000  0.85936300  0.20042400  1
  Sn  Sn0  1  0.75046500  0.00000000  0.50000000  1
  Sn  Sn1  1  0.24953500  0.50000000  0.00000000  1
  Sn  Sn2  1  0.24953500  0.00000000  0.50000000  1
  Sn  Sn3  1  0.75046500  0.50000000  0.00000000  1
  S  S0  1  0.74883200  0.67384700  0.82932300  1
  S  S1  1  0.74883200  0.32615300  0.17067700  1
  S  S2  1  0.25116800  0.82615300  0.32932300  1
  S  S3  1  0.25116800  0.17384700  0.67067700  1
  S  S4  1  0.25116800  0.32615300  0.17067700  1
  S  S5  1  0.25116800  0.67384700  0.82932300  1
  S  S6  1  0.74883200  0.17384700  0.67067700  1
  S  S7  1  0.74883200  0.82615300  0.32932300  1
  S  S8  1  0.00000000  0.14353000  0.40780100  1
  S  S9  1  0.00000000  0.85647000  0.59219900  1
  S  S10  1  0.00000000  0.35647000  0.90780100  1
  S  S11  1  0.00000000  0.64353000  0.09219900  1
  S  S12  1  0.50000000  0.09562000  0.36183400  1
  S  S13  1  0.50000000  0.90438000  0.63816600  1
  S  S14  1  0.50000000  0.40438000  0.86183400  1
  S  S15  1  0.50000000  0.59562000  0.13816600  1
loop_
_geom_bond_atom_site_label_1
_geom_bond_atom_site_label_2
_geom_bond_distance
_geom_bond_site_symmetry_2
Ca0 S7 2.600318 1_455
Ca0 S2 2.600318 1_555
Ca0 S11 2.714641 1_555
Ca0 S9 2.925101 1_555
Ca1 S6 2.600318 1_455
Ca1 S3 2.600318 1_555
Ca1 S10 2.714641 1_555
Ca1 S8 2.925101 1_555
Ca2 S0 2.600318 1_455
Ca2 S5 2.600318 1_555
Ca2 S9 2.714641 1_555
Ca2 S11 2.925101 1_556
Ca3 S1 2.600318 1_455
Ca3 S4 2.600318 1_555
Ca3 S8 2.714641 1_555
Ca3 S10 2.925101 1_554
Ca4 S4 2.603880 1_555
Ca4 S1 2.603880 1_555
Ca4 S12 2.702051 1_555
Ca4 S15 2.873821 1_555
Ca5 S5 2.603880 1_555
Ca5 S0 2.603880 1_555
Ca5 S13 2.702051 1_555
Ca5 S14 2.873821 1_555
Ca6 S3 2.603880 1_555
Ca6 S6 2.603880 1_555
Ca6 S14 2.702051 1_555
Ca6 S13 2.873821 1_545
Ca7 S2 2.603880 1_555
Ca7 S7 2.603880 1_555
Ca7 S15 2.702051 1_555
Ca7 S12 2.873821 1_565
S0 Sn3 2.458415 1_556
S1 Sn3 2.458415 1_555
S2 Sn2 2.458415 1_565
S3 Sn2 2.458415 1_555
S4 Sn1 2.458415 1_555
S5 Sn1 2.458415 1_556
S6 Sn0 2.458415 1_555
S7 Sn0 2.458415 1_565
S8 Sn0 2.809279 1_455
S8 Sn2 2.809279 1_555
S9 Sn0 2.809279 1_465
S9 Sn2 2.809279 1_565
S10 Sn1 2.809279 1_556
S10 Sn3 2.809279 1_456
S11 Sn3 2.809279 1_455
S11 Sn1 2.809279 1_555
S12 Sn2 2.810890 1_555
S12 Sn0 2.810890 1_555
S13 Sn2 2.810890 1_565
S13 Sn0 2.810890 1_565
S14 Sn1 2.810890 1_556
S14 Sn3 2.810890 1_556
S15 Sn1 2.810890 1_555
S15 Sn3 2.810890 1_555
