# generated using pymatgen
data_LiCoOF2
_symmetry_space_group_name_H-M   'P 1'
_cell_length_a   5.05055541
_cell_length_b   5.05055541
_cell_length_c   5.68733308
_cell_angle_alpha   60.21565578
_cell_angle_beta   60.21565578
_cell_angle_gamma   63.14260643
_symmetry_Int_Tables_number   1
_chemical_formula_structural   LiCoOF2
_chemical_formula_sum   'Li2 Co2 O2 F4'
_cell_volume   105.15094719
_cell_formula_units_Z   2
loop_
 _symmetry_equiv_pos_site_id
 _symmetry_equiv_pos_as_xyz
  1  'x, y, z'
loop_
 _atom_site_type_symbol
 _atom_site_label
 _atom_site_symmetry_multiplicity
 _atom_site_fract_x
 _atom_site_fract_y
 _atom_site_fract_z
 _atom_site_occupancy
  Li  Li0  1  0.54029400  0.08066700  0.34314200  1
  Li  Li1  1  0.08066700  0.54029400  0.84314200  1
  Co  Co0  1  0.26214400  0.77473700  0.21184400  1
  Co  Co1  1  0.77473700  0.26214400  0.71184400  1
  O  O0  1  0.39737400  0.12554900  0.98331200  1
  O  O1  1  0.12554900  0.39737400  0.48331200  1
  F  F0  1  0.65804100  0.47611500  0.00701800  1
  F  F1  1  0.99951400  0.86073100  0.98569900  1
  F  F2  1  0.86073100  0.99951400  0.48569900  1
  F  F3  1  0.47611500  0.65804100  0.50701800  1
loop_
_geom_bond_atom_site_label_1
_geom_bond_atom_site_label_2
_geom_bond_distance
_geom_bond_site_symmetry_2
Li0 O1 2.040166 1_555
Li0 O0 2.370510 1_554
Li1 O0 2.040166 1_555
Li1 O1 2.370510 1_555
Co0 O0 1.794070 1_564
Co0 O1 1.923163 1_555
Co0 F1 2.054663 1_454
Co0 F0 2.082392 1_555
Co0 F2 2.089220 1_455
Co0 F3 2.139467 1_555
Co1 O1 1.794070 1_655
Co1 O0 1.923163 1_555
Co1 F2 2.054663 1_545
Co1 F3 2.082392 1_555
Co1 F1 2.089220 1_545
Co1 F0 2.139467 1_556
F0 Li1 1.969365 1_654
F0 Li0 2.036578 1_555
F1 Li1 1.954124 1_655
F1 Li0 2.444836 1_566
F2 Li0 1.954124 1_565
F2 Li1 2.444836 1_655
F3 Li0 1.969365 1_565
F3 Li1 2.036578 1_555
