# generated using pymatgen
data_KNaGdTaO5
_symmetry_space_group_name_H-M   'P 1'
_cell_length_a   5.66517340
_cell_length_b   5.66517340
_cell_length_c   8.20498092
_cell_angle_alpha   90.00000000
_cell_angle_beta   90.00000000
_cell_angle_gamma   89.99999616
_symmetry_Int_Tables_number   1
_chemical_formula_structural   KNaGdTaO5
_chemical_formula_sum   'K2 Na2 Gd2 Ta2 O10'
_cell_volume   263.33221374
_cell_formula_units_Z   2
loop_
 _symmetry_equiv_pos_site_id
 _symmetry_equiv_pos_as_xyz
  1  'x, y, z'
loop_
 _atom_site_type_symbol
 _atom_site_label
 _atom_site_symmetry_multiplicity
 _atom_site_fract_x
 _atom_site_fract_y
 _atom_site_fract_z
 _atom_site_occupancy
  K  K0  1  0.00000000  -0.00000000  0.00000000  1
  K  K1  1  0.50000000  0.50000000  0.00000000  1
  Na  Na0  1  0.00000000  0.50000000  0.24167540  1
  Na  Na1  1  0.50000000  -0.00000000  0.75832460  1
  Gd  Gd0  1  0.00000000  -0.00000000  0.50000000  1
  Gd  Gd1  1  0.50000000  0.50000000  0.50000000  1
  Ta  Ta0  1  0.50000000  -0.00000000  0.26035711  1
  Ta  Ta1  1  0.00000000  0.50000000  0.73964289  1
  O  O0  1  0.50000000  -0.00000000  0.03479836  1
  O  O1  1  0.26740926  0.76740926  0.33205076  1
  O  O2  1  0.73259080  0.76740920  0.33205066  1
  O  O3  1  0.26740920  0.23259080  0.33205066  1
  O  O4  1  0.73259074  0.23259074  0.33205076  1
  O  O5  1  0.76740926  0.26740926  0.66794924  1
  O  O6  1  0.23259080  0.26740920  0.66794934  1
  O  O7  1  0.76740920  0.73259080  0.66794934  1
  O  O8  1  0.23259074  0.73259074  0.66794924  1
  O  O9  1  0.00000000  0.50000000  0.96520164  1
loop_
_geom_bond_atom_site_label_1
_geom_bond_atom_site_label_2
_geom_bond_distance
_geom_bond_site_symmetry_2
K0 O0 2.846940 1_555
K0 O0 2.846940 1_455
K0 O9 2.846940 1_544
K0 O9 2.846940 1_554
K1 O9 2.846940 1_654
K1 O0 2.846940 1_555
K1 O0 2.846940 1_565
K1 O9 2.846940 1_554
Na0 O3 2.267118 1_555
Na0 O2 2.267118 1_455
Na0 O4 2.267119 1_455
Na0 O1 2.267119 1_555
Na0 O9 2.268462 1_554
Na1 O7 2.267118 1_545
Na1 O6 2.267118 1_555
Na1 O8 2.267119 1_545
Na1 O5 2.267119 1_555
Na1 O0 2.268462 1_556
Gd0 O4 2.435194 1_455
Gd0 O8 2.435194 1_545
Gd0 O1 2.435194 1_545
Gd0 O5 2.435194 1_455
Gd0 O6 2.435194 1_555
Gd0 O7 2.435194 1_445
Gd0 O3 2.435194 1_555
Gd0 O2 2.435194 1_445
Gd1 O4 2.435194 1_555
Gd1 O1 2.435194 1_555
Gd1 O8 2.435194 1_555
Gd1 O5 2.435194 1_555
Gd1 O6 2.435194 1_555
Gd1 O7 2.435194 1_555
Gd1 O2 2.435194 1_555
Gd1 O3 2.435194 1_555
O0 Ta0 1.850705 1_555
O1 Ta0 1.954105 1_565
O2 Ta0 1.954105 1_565
O3 Ta0 1.954105 1_555
O4 Ta0 1.954105 1_555
O5 Ta1 1.954105 1_655
O6 Ta1 1.954105 1_555
O7 Ta1 1.954105 1_655
O8 Ta1 1.954105 1_555
O9 Ta1 1.850705 1_555
