# generated using pymatgen
data_V2CrRe
_symmetry_space_group_name_H-M   'P 1'
_cell_length_a   4.19926718
_cell_length_b   4.19926718
_cell_length_c   4.19926718
_cell_angle_alpha   60.00000000
_cell_angle_beta   60.00000000
_cell_angle_gamma   60.00000000
_symmetry_Int_Tables_number   1
_chemical_formula_structural   V2CrRe
_chemical_formula_sum   'V2 Cr1 Re1'
_cell_volume   52.36070985
_cell_formula_units_Z   1
loop_
 _symmetry_equiv_pos_site_id
 _symmetry_equiv_pos_as_xyz
  1  'x, y, z'
loop_
 _atom_site_type_symbol
 _atom_site_label
 _atom_site_symmetry_multiplicity
 _atom_site_fract_x
 _atom_site_fract_y
 _atom_site_fract_z
 _atom_site_occupancy
  V  V0  1  0.50000000  0.50000000  0.50000000  1
  V  V1  1  0.00000000  0.00000000  0.00000000  1
  Cr  Cr0  1  0.25000100  0.25000100  0.25000100  1
  Re  Re0  1  0.75000000  0.75000000  0.75000000  1
loop_
_geom_bond_atom_site_label_1
_geom_bond_atom_site_label_2
_geom_bond_distance
_geom_bond_site_symmetry_2
Cr0 V0 2.571505 1_555
Cr0 V1 2.571512 1_556
Cr0 V1 2.571512 1_565
Cr0 V1 2.571512 1_655
Cr0 V0 2.571519 1_455
Cr0 V0 2.571519 1_545
Cr0 V0 2.571519 1_554
Cr0 V1 2.571526 1_555
Re0 V1 2.571515 1_665
Re0 V0 2.571515 1_556
Re0 V1 2.571515 1_566
Re0 V1 2.571515 1_666
Re0 V0 2.571515 1_565
Re0 V0 2.571515 1_655
Re0 V0 2.571515 1_555
Re0 V1 2.571515 1_656
