# generated using pymatgen
data_Mg2PdRh
_symmetry_space_group_name_H-M   'P 1'
_cell_length_a   4.39717597
_cell_length_b   4.39717597
_cell_length_c   4.39717597
_cell_angle_alpha   60.02415227
_cell_angle_beta   60.02415227
_cell_angle_gamma   60.02415227
_symmetry_Int_Tables_number   1
_chemical_formula_structural   Mg2PdRh
_chemical_formula_sum   'Mg2 Pd1 Rh1'
_cell_volume   60.15119417
_cell_formula_units_Z   1
loop_
 _symmetry_equiv_pos_site_id
 _symmetry_equiv_pos_as_xyz
  1  'x, y, z'
loop_
 _atom_site_type_symbol
 _atom_site_label
 _atom_site_symmetry_multiplicity
 _atom_site_fract_x
 _atom_site_fract_y
 _atom_site_fract_z
 _atom_site_occupancy
  Mg  Mg0  1  0.50002930  0.50002930  0.50002930  1
  Mg  Mg1  1  0.99996980  0.99996980  0.99996980  1
  Pd  Pd0  1  0.24999756  0.24999756  0.24999756  1
  Rh  Rh0  1  0.75000335  0.75000335  0.75000335  1
loop_
_geom_bond_atom_site_label_1
_geom_bond_atom_site_label_2
_geom_bond_distance
_geom_bond_site_symmetry_2
Mg0 Rh0 2.691938 1_555
Mg0 Pd0 2.692560 1_555
Mg0 Pd0 2.693415 1_556
Mg0 Pd0 2.693415 1_565
Mg0 Pd0 2.693415 1_655
Mg0 Rh0 2.693622 1_545
Mg0 Rh0 2.693622 1_554
Mg0 Rh0 2.693622 1_455
Mg1 Rh0 2.691856 1_555
Mg1 Pd0 2.692517 1_666
Mg1 Pd0 2.693429 1_656
Mg1 Pd0 2.693429 1_665
Mg1 Pd0 2.693429 1_566
Mg1 Rh0 2.693649 1_655
Mg1 Rh0 2.693649 1_556
Mg1 Rh0 2.693649 1_565
