# generated using pymatgen
data_Li3Co5OF11
_symmetry_space_group_name_H-M   'P 1'
_cell_length_a   5.23416600
_cell_length_b   5.57849376
_cell_length_c   9.07155572
_cell_angle_alpha   105.96628145
_cell_angle_beta   89.96304519
_cell_angle_gamma   117.42631457
_symmetry_Int_Tables_number   1
_chemical_formula_structural   Li3Co5OF11
_chemical_formula_sum   'Li3 Co5 O1 F11'
_cell_volume   223.55773026
_cell_formula_units_Z   1
loop_
 _symmetry_equiv_pos_site_id
 _symmetry_equiv_pos_as_xyz
  1  'x, y, z'
loop_
 _atom_site_type_symbol
 _atom_site_label
 _atom_site_symmetry_multiplicity
 _atom_site_fract_x
 _atom_site_fract_y
 _atom_site_fract_z
 _atom_site_occupancy
  Li  Li0  1  0.79017900  0.69431600  0.94165400  1
  Li  Li1  1  0.27805400  0.70996900  0.42299600  1
  Li  Li2  1  0.21190700  0.27718700  0.07288100  1
  Co  Co0  1  0.47882500  0.30024400  0.82624300  1
  Co  Co1  1  0.96858400  0.29880300  0.33500000  1
  Co  Co2  1  0.02258300  0.73106800  0.66881500  1
  Co  Co3  1  0.51831300  0.69333000  0.17203800  1
  Co  Co4  1  0.74385400  0.28734700  0.57345800  1
  O  O0  1  0.97159400  0.19421200  0.52431500  1
  F  F0  1  0.02847300  0.20252700  0.77901700  1
  F  F1  1  0.51994500  0.19891700  0.27140800  1
  F  F2  1  0.57050000  0.48168000  0.62895000  1
  F  F3  1  0.92455600  0.49694300  0.87654500  1
  F  F4  1  0.46524300  0.18523300  0.02673300  1
  F  F5  1  0.52326700  0.81169200  0.96747700  1
  F  F6  1  0.04169700  0.81039100  0.47067100  1
  F  F7  1  0.06928300  0.50402800  0.13352100  1
  F  F8  1  0.44599700  0.50754200  0.37477300  1
  F  F9  1  0.46914700  0.79721600  0.72164900  1
  F  F10  1  0.95799900  0.81735600  0.21185500  1
loop_
_geom_bond_atom_site_label_1
_geom_bond_atom_site_label_2
_geom_bond_distance
_geom_bond_site_symmetry_2
Co0 Li0 2.005073 1_555
Co0 F3 2.054967 1_555
Co0 F4 2.079504 1_556
Co0 F0 2.173998 1_555
Co0 F2 2.237400 1_555
Co1 O0 1.962099 1_555
Co1 Li1 2.023306 1_655
Co1 F1 2.185652 1_555
Co1 F8 2.195427 1_655
Co1 F7 2.350129 1_655
Co1 F10 2.583927 1_545
Co2 F6 1.957880 1_555
Co2 F2 2.087392 1_455
Co2 F9 2.222355 1_555
Co2 F3 2.501117 1_455
Co2 F0 2.529091 1_565
Co3 Li2 2.047843 1_555
Co3 F7 2.067078 1_555
Co3 F10 2.074201 1_555
Co3 F5 2.130366 1_554
Co3 F8 2.299161 1_555
Co4 O0 1.527098 1_555
Co4 F2 1.690356 1_555
F3 Li0 1.552727 1_555
F4 Li2 1.644511 1_555
F5 Li0 1.786978 1_555
F6 Li1 1.592430 1_555
F7 Li2 1.716963 1_555
F8 Li1 1.697480 1_555
F10 Li0 2.402623 1_554
