# generated using pymatgen
data_LiZn3
_symmetry_space_group_name_H-M   'P 1'
_cell_length_a   4.25835428
_cell_length_b   4.25835428
_cell_length_c   4.25835428
_cell_angle_alpha   60.00000000
_cell_angle_beta   60.00000000
_cell_angle_gamma   60.00000000
_symmetry_Int_Tables_number   1
_chemical_formula_structural   LiZn3
_chemical_formula_sum   'Li1 Zn3'
_cell_volume   54.60222926
_cell_formula_units_Z   1
loop_
 _symmetry_equiv_pos_site_id
 _symmetry_equiv_pos_as_xyz
  1  'x, y, z'
loop_
 _atom_site_type_symbol
 _atom_site_label
 _atom_site_symmetry_multiplicity
 _atom_site_fract_x
 _atom_site_fract_y
 _atom_site_fract_z
 _atom_site_occupancy
  Li  Li0  1  0.75000000  0.75000000  0.75000000  1
  Zn  Zn0  1  0.00000000  0.00000000  -0.00000000  1
  Zn  Zn1  1  0.49999900  0.49999900  0.49999900  1
  Zn  Zn2  1  0.24999900  0.24999900  0.24999900  1
loop_
_geom_bond_atom_site_label_1
_geom_bond_atom_site_label_2
_geom_bond_distance
_geom_bond_site_symmetry_2
Li0 Zn1 2.607695 1_556
Li0 Zn1 2.607695 1_565
Li0 Zn1 2.607695 1_655
Li0 Zn0 2.607699 1_666
Li0 Zn0 2.607699 1_665
Li0 Zn0 2.607699 1_656
Li0 Zn0 2.607699 1_566
Li0 Zn1 2.607709 1_555
Zn0 Zn2 2.607688 1_555
Zn0 Zn2 2.607702 1_545
Zn0 Zn2 2.607702 1_554
Zn0 Zn2 2.607702 1_455
Zn1 Zn2 2.607699 1_555
Zn1 Zn2 2.607699 1_565
Zn1 Zn2 2.607699 1_655
Zn1 Zn2 2.607699 1_556
