# generated using pymatgen
data_Be2CoPt
_symmetry_space_group_name_H-M   'P 1'
_cell_length_a   3.83099706
_cell_length_b   3.83099706
_cell_length_c   3.83099706
_cell_angle_alpha   60.00000000
_cell_angle_beta   60.00000000
_cell_angle_gamma   60.00000000
_symmetry_Int_Tables_number   1
_chemical_formula_structural   Be2CoPt
_chemical_formula_sum   'Be2 Co1 Pt1'
_cell_volume   39.75762731
_cell_formula_units_Z   1
loop_
 _symmetry_equiv_pos_site_id
 _symmetry_equiv_pos_as_xyz
  1  'x, y, z'
loop_
 _atom_site_type_symbol
 _atom_site_label
 _atom_site_symmetry_multiplicity
 _atom_site_fract_x
 _atom_site_fract_y
 _atom_site_fract_z
 _atom_site_occupancy
  Be  Be0  1  -0.00000000  0.00000000  -0.00000000  1
  Be  Be1  1  0.50000100  0.50000100  0.50000100  1
  Co  Co0  1  0.25000100  0.25000100  0.25000100  1
  Pt  Pt0  1  0.75000000  0.75000000  0.75000000  1
loop_
_geom_bond_atom_site_label_1
_geom_bond_atom_site_label_2
_geom_bond_distance
_geom_bond_site_symmetry_2
Be0 Co0 2.345994 1_545
Be0 Co0 2.345994 1_554
Be0 Co0 2.345994 1_455
Be0 Pt0 2.345997 1_444
Be0 Pt0 2.345997 1_445
Be0 Pt0 2.345997 1_544
Be0 Pt0 2.345997 1_454
Be0 Co0 2.346006 1_555
Be1 Pt0 2.345988 1_555
Be1 Co0 2.345997 1_655
Be1 Co0 2.345997 1_556
Be1 Co0 2.345997 1_565
Be1 Co0 2.345997 1_555
Be1 Pt0 2.346000 1_455
Be1 Pt0 2.346000 1_545
Be1 Pt0 2.346000 1_554
