# generated using pymatgen
data_GaBi25O39
_symmetry_space_group_name_H-M   'P 1'
_cell_length_a   8.94251200
_cell_length_b   8.94511526
_cell_length_c   14.56740001
_cell_angle_alpha   90.19178182
_cell_angle_beta   90.08603770
_cell_angle_gamma   109.55918294
_symmetry_Int_Tables_number   1
_chemical_formula_structural   GaBi25O39
_chemical_formula_sum   'Ga1 Bi25 O39'
_cell_volume   1098.02148364
_cell_formula_units_Z   1
loop_
 _symmetry_equiv_pos_site_id
 _symmetry_equiv_pos_as_xyz
  1  'x, y, z'
loop_
 _atom_site_type_symbol
 _atom_site_label
 _atom_site_symmetry_multiplicity
 _atom_site_fract_x
 _atom_site_fract_y
 _atom_site_fract_z
 _atom_site_occupancy
  Ga  Ga0  1  0.50031900  0.50173900  0.50012500  1
  Bi  Bi0  1  0.56593000  0.76768100  0.91750000  1
  Bi  Bi1  1  0.23450800  0.38882700  0.90803600  1
  Bi  Bi2  1  0.17243500  0.49246500  0.64711800  1
  Bi  Bi3  1  0.52893700  0.82934300  0.65959900  1
  Bi  Bi4  1  0.33240900  0.02467500  0.83030400  1
  Bi  Bi5  1  0.99201300  0.64048400  0.84159500  1
  Bi  Bi6  1  0.73421700  0.23480600  0.92917600  1
  Bi  Bi7  1  0.57935100  0.44462900  0.74419900  1
  Bi  Bi8  1  0.24217600  0.73557100  0.43014000  1
  Bi  Bi9  1  0.08265900  0.94235300  0.24903400  1
  Bi  Bi10  1  0.90046200  0.73051400  0.59427000  1
  Bi  Bi11  1  0.08985400  0.27597900  0.41648800  1
  Bi  Bi12  1  0.27870400  0.08833000  0.57965100  1
  Bi  Bi13  1  0.73339400  0.90070900  0.40652200  1
  Bi  Bi14  1  0.93673200  0.09034600  0.73973800  1
  Bi  Bi15  1  0.44372400  0.57938400  0.25718000  1
  Bi  Bi16  1  0.23142200  0.73567800  0.07626300  1
  Bi  Bi17  1  0.73243000  0.25260200  0.56579800  1
  Bi  Bi18  1  0.65339200  0.98667100  0.15598700  1
  Bi  Bi19  1  0.02268500  0.32682700  0.16708000  1
  Bi  Bi20  1  0.48631100  0.16155500  0.34744400  1
  Bi  Bi21  1  0.83019200  0.52468300  0.33747200  1
  Bi  Bi22  1  0.98197900  0.97930700  0.98476200  1
  Bi  Bi23  1  0.39346000  0.23265700  0.09634400  1
  Bi  Bi24  1  0.77282100  0.58093900  0.08587600  1
  O  O0  1  0.99801300  0.62992700  0.99937400  1
  O  O1  1  0.31647000  0.70283900  0.94275000  1
  O  O2  1  0.04358400  0.92850600  0.69203800  1
  O  O3  1  0.00572700  0.22260100  0.00122100  1
  O  O4  1  0.06007800  0.43445900  0.82344600  1
  O  O5  1  0.57019800  0.92667700  0.81057000  1
  O  O6  1  0.22292400  0.00284300  0.00499300  1
  O  O7  1  0.20487000  0.82122700  0.56083600  1
  O  O8  1  0.42651900  0.54756800  0.81092900  1
  O  O9  1  0.18375000  0.18439400  0.81296900  1
  O  O10  1  0.49695800  0.23840100  0.88068000  1
  O  O11  1  0.75148900  0.51447700  0.86669300  1
  O  O12  1  0.02007000  0.25350800  0.62947700  1
  O  O13  1  0.74381100  0.00526800  0.62042700  1
  O  O14  1  0.11743400  0.50045400  0.50043800  1
  O  O15  1  0.62966700  0.99886800  0.99948200  1
  O  O16  1  0.69179400  0.69225900  0.69090300  1
  O  O17  1  0.50215900  0.71412000  0.50288500  1
  O  O18  1  0.39112100  0.39760000  0.60637600  1
  O  O19  1  0.42971100  0.07756200  0.68958900  1
  O  O20  1  0.55997100  0.94126900  0.32153100  1
  O  O21  1  0.94472400  0.55942500  0.68036900  1
  O  O22  1  0.07508800  0.42973200  0.31045200  1
  O  O23  1  0.39660500  0.39539300  0.39369800  1
  O  O24  1  0.71119800  0.49658100  0.50316900  1
  O  O25  1  0.69236000  0.69124500  0.31073100  1
  O  O26  1  0.50171700  0.11840800  0.50051800  1
  O  O27  1  0.00078900  0.73738400  0.38357700  1
  O  O28  1  0.25116500  0.01372100  0.37256400  1
  O  O29  1  0.23425700  0.49598000  0.11833100  1
  O  O30  1  0.50659200  0.75056200  0.13127700  1
  O  O31  1  0.19129600  0.19129100  0.19405100  1
  O  O32  1  0.82222500  0.20588600  0.43982100  1
  O  O33  1  0.54907400  0.42878300  0.19170300  1
  O  O34  1  0.89368700  0.89461600  0.11571900  1
  O  O35  1  0.92875300  0.56748800  0.19150100  1
  O  O36  1  0.43734000  0.05985900  0.17991000  1
  O  O37  1  0.70136000  0.31964200  0.05978600  1
  O  O38  1  0.93129100  0.04877600  0.31226700  1
loop_
_geom_bond_atom_site_label_1
_geom_bond_atom_site_label_2
_geom_bond_distance
_geom_bond_site_symmetry_2
Ga0 O23 1.887808 1_555
Ga0 O17 1.894619 1_555
Ga0 O24 1.902186 1_555
Ga0 O18 1.903190 1_555
Bi0 O5 2.104587 1_555
Bi0 O1 2.141431 1_555
Bi0 O15 2.284721 1_555
Bi0 O8 2.484203 1_555
Bi1 O4 2.131216 1_555
Bi1 O9 2.212097 1_555
Bi1 O8 2.313851 1_555
Bi1 O3 2.494844 1_556
Bi1 O1 2.700671 1_555
Bi2 O12 2.129944 1_555
Bi2 O14 2.198660 1_555
Bi2 O21 2.357457 1_455
Bi2 O18 2.451112 1_555
Bi2 O4 2.746685 1_555
Bi3 O13 2.116351 1_565
Bi3 O16 2.242771 1_555
Bi3 O5 2.345329 1_555
Bi3 O17 2.479658 1_555
Bi3 O19 2.687375 1_565
Bi4 O10 2.112475 1_555
Bi4 O19 2.217892 1_555
Bi4 O9 2.268333 1_555
Bi4 O5 2.573134 1_545
Bi4 O6 2.712072 1_556
Bi5 O11 2.100551 1_555
Bi5 O4 2.141265 1_655
Bi5 O0 2.301967 1_555
Bi5 O21 2.449697 1_555
Bi6 O37 2.103233 1_556
Bi6 O10 2.245669 1_555
Bi6 O15 2.252422 1_545
Bi6 O11 2.620638 1_555
Bi6 O3 2.679380 1_656
Bi7 O8 2.121629 1_555
Bi7 O16 2.245653 1_555
Bi7 O11 2.298788 1_555
Bi7 O18 2.559555 1_555
Bi7 O10 2.649082 1_555
Bi8 O7 2.118134 1_555
Bi8 O27 2.266948 1_555
Bi8 O14 2.272288 1_555
Bi8 O28 2.603988 1_565
Bi8 O17 2.618705 1_555
Bi9 O38 2.108948 1_465
Bi9 O31 2.260463 1_565
Bi9 O28 2.292706 1_565
Bi9 O34 2.512181 1_455
Bi9 O27 2.620799 1_555
Bi10 O21 2.118700 1_555
Bi10 O16 2.272505 1_555
Bi10 O2 2.294138 1_655
Bi10 O24 2.570576 1_555
Bi10 O7 2.614100 1_655
Bi11 O22 2.104804 1_555
Bi11 O32 2.288137 1_455
Bi11 O14 2.288961 1_555
Bi11 O38 2.547436 1_455
Bi11 O23 2.611350 1_555
Bi12 O19 2.116429 1_555
Bi12 O26 2.242361 1_555
Bi12 O7 2.271228 1_545
Bi12 O18 2.635329 1_555
Bi12 O2 2.675518 1_545
Bi13 O20 2.107984 1_555
Bi13 O25 2.261227 1_555
Bi13 O38 2.285039 1_565
Bi13 O17 2.597253 1_555
Bi13 O32 2.618473 1_565
Bi14 O2 2.100737 1_645
Bi14 O12 2.134593 1_655
Bi14 O9 2.338359 1_655
Bi14 O13 2.383139 1_555
Bi15 O33 2.110921 1_555
Bi15 O25 2.247966 1_555
Bi15 O30 2.338807 1_555
Bi15 O23 2.530088 1_555
Bi15 O29 2.683159 1_555
Bi16 O1 2.144224 1_554
Bi16 O29 2.240227 1_555
Bi16 O0 2.273747 1_454
Bi16 O30 2.547369 1_555
Bi16 O6 2.633039 1_565
Bi17 O32 2.100283 1_555
Bi17 O26 2.220381 1_555
Bi17 O13 2.387639 1_555
Bi17 O24 2.433440 1_555
Bi17 O12 2.730520 1_655
Bi18 O30 2.109652 1_555
Bi18 O36 2.265007 1_565
Bi18 O15 2.295744 1_554
Bi18 O20 2.542410 1_555
Bi18 O34 2.612466 1_555
Bi19 O29 2.113719 1_555
Bi19 O31 2.263431 1_555
Bi19 O22 2.263704 1_555
Bi19 O3 2.572755 1_555
Bi19 O35 2.583206 1_455
Bi20 O28 2.109044 1_555
Bi20 O26 2.276135 1_555
Bi20 O20 2.307386 1_545
Bi20 O23 2.566798 1_555
Bi20 O36 2.586639 1_555
Bi21 O27 2.107928 1_655
Bi21 O25 2.263371 1_555
Bi21 O35 2.286966 1_555
Bi21 O24 2.618108 1_555
Bi21 O22 2.630234 1_655
Bi22 O34 2.109584 1_556
Bi22 O6 2.113684 1_666
Bi22 O3 2.127378 1_666
Bi23 O36 2.107687 1_555
Bi23 O31 2.234836 1_555
Bi23 O33 2.299402 1_555
Bi23 O6 2.489788 1_555
Bi23 O37 2.653858 1_555
Bi24 O35 2.105604 1_555
Bi24 O37 2.238119 1_555
Bi24 O0 2.292528 1_554
Bi24 O33 2.536222 1_555
Bi24 O34 2.681417 1_555
