# generated using pymatgen
data_Ca6Sn5S16
_symmetry_space_group_name_H-M   'P 1'
_cell_length_a   26.85326456
_cell_length_b   26.85326456
_cell_length_c   26.85326456
_cell_angle_alpha   169.31116317
_cell_angle_beta   169.31116317
_cell_angle_gamma   15.13838203
_symmetry_Int_Tables_number   1
_chemical_formula_structural   Ca6Sn5S16
_chemical_formula_sum   'Ca6 Sn5 S16'
_cell_volume   666.11033824
_cell_formula_units_Z   1
loop_
 _symmetry_equiv_pos_site_id
 _symmetry_equiv_pos_as_xyz
  1  'x, y, z'
loop_
 _atom_site_type_symbol
 _atom_site_label
 _atom_site_symmetry_multiplicity
 _atom_site_fract_x
 _atom_site_fract_y
 _atom_site_fract_z
 _atom_site_occupancy
  Ca  Ca0  1  0.54573000  0.54573000  0.00000000  1
  Ca  Ca1  1  0.45427000  0.45427000  0.00000000  1
  Ca  Ca2  1  0.63184600  0.63184600  0.00000000  1
  Ca  Ca3  1  0.36815400  0.36815400  0.00000000  1
  Ca  Ca4  1  0.71316100  0.71316100  0.00000000  1
  Ca  Ca5  1  0.28683900  0.28683900  0.00000000  1
  Sn  Sn0  1  0.00000000  0.00000000  0.00000000  1
  Sn  Sn1  1  0.09447400  0.09447400  0.00000000  1
  Sn  Sn2  1  0.90552600  0.90552600  0.00000000  1
  Sn  Sn3  1  0.19087900  0.19087900  0.00000000  1
  Sn  Sn4  1  0.80912100  0.80912100  0.00000000  1
  S  S0  1  0.04653600  0.04653600  0.00000000  1
  S  S1  1  0.95346400  0.95346400  0.00000000  1
  S  S2  1  0.13986800  0.13986800  0.00000000  1
  S  S3  1  0.86013200  0.86013200  0.00000000  1
  S  S4  1  0.23531700  0.23531700  0.00000000  1
  S  S5  1  0.76468300  0.76468300  0.00000000  1
  S  S6  1  0.68026300  0.18026300  0.50000000  1
  S  S7  1  0.81973700  0.31973700  0.50000000  1
  S  S8  1  0.31973700  0.81973700  0.50000000  1
  S  S9  1  0.18026300  0.68026300  0.50000000  1
  S  S10  1  0.58995700  0.08995700  0.50000000  1
  S  S11  1  0.91004300  0.41004300  0.50000000  1
  S  S12  1  0.41004300  0.91004300  0.50000000  1
  S  S13  1  0.08995700  0.58995700  0.50000000  1
  S  S14  1  0.50000000  0.00000000  0.50000000  1
  S  S15  1  0.00000000  0.50000000  0.50000000  1
loop_
_geom_bond_atom_site_label_1
_geom_bond_atom_site_label_2
_geom_bond_distance
_geom_bond_site_symmetry_2
Ca0 S10 3.435106 1_554
Ca0 S13 3.435106 1_554
Ca0 S13 3.435106 1_655
Ca0 S10 3.435106 1_565
Ca0 S14 3.490441 1_565
Ca0 S14 3.490441 1_554
Ca0 S15 3.490441 1_655
Ca0 S15 3.490441 1_554
Ca0 S0 3.537463 1_565
Ca0 S0 3.537463 1_554
Ca0 S0 3.537463 1_666
Ca0 S0 3.537463 1_655
Ca1 S12 3.435106 1_555
Ca1 S11 3.435106 1_555
Ca1 S11 3.435106 1_454
Ca1 S12 3.435106 1_544
Ca1 S14 3.490441 1_554
Ca1 S15 3.490441 1_554
Ca1 S14 3.490441 1_565
Ca1 S15 3.490441 1_655
Ca1 S1 3.537463 1_455
Ca1 S1 3.537463 1_556
Ca1 S1 3.537463 1_545
Ca1 S1 3.537463 1_444
Ca2 S13 3.351014 1_655
Ca2 S10 3.351014 1_565
Ca2 S13 3.351014 1_554
Ca2 S10 3.351014 1_554
Ca3 S12 3.351014 1_555
Ca3 S11 3.351014 1_555
Ca3 S12 3.351014 1_544
Ca3 S11 3.351014 1_454
Ca4 S5 2.742957 1_555
Ca4 S6 3.053433 1_565
Ca4 S9 3.053433 1_655
Ca4 S6 3.053433 1_554
Ca4 S9 3.053433 1_554
Ca5 S4 2.742957 1_555
Ca5 S7 3.053433 1_555
Ca5 S8 3.053433 1_555
Ca5 S7 3.053433 1_454
Ca5 S8 3.053433 1_544
S0 Sn0 2.477510 1_555
S0 Sn1 2.552150 1_555
S1 Sn0 2.477510 1_665
S1 Sn2 2.552150 1_555
S2 Sn1 2.416711 1_555
S2 Sn3 2.715752 1_555
S3 Sn2 2.416711 1_555
S3 Sn4 2.715752 1_555
S4 Sn3 2.365815 1_555
S5 Sn4 2.365815 1_555
S6 Sn3 2.564241 1_656
S6 Sn3 2.564241 1_555
S7 Sn4 2.564241 1_556
S7 Sn4 2.564241 1_545
S8 Sn4 2.564241 1_556
S8 Sn4 2.564241 1_455
S9 Sn3 2.564241 1_566
S9 Sn3 2.564241 1_555
S10 Sn1 2.512714 1_555
S10 Sn1 2.512714 1_656
S11 Sn2 2.512714 1_556
S11 Sn2 2.512714 1_545
S12 Sn2 2.512714 1_556
S12 Sn2 2.512714 1_455
S13 Sn1 2.512714 1_555
S13 Sn1 2.512714 1_566
S14 Sn0 2.501180 1_656
S14 Sn0 2.501180 1_555
S15 Sn0 2.501180 1_555
S15 Sn0 2.501180 1_566
