# generated using pymatgen
data_LiVP2O7
_symmetry_space_group_name_H-M   'P 1'
_cell_length_a   5.81443200
_cell_length_b   11.15884044
_cell_length_c   8.79645471
_cell_angle_alpha   97.22263503
_cell_angle_beta   103.23794758
_cell_angle_gamma   78.16993487
_symmetry_Int_Tables_number   1
_chemical_formula_structural   LiVP2O7
_chemical_formula_sum   'Li4 V4 P8 O28'
_cell_volume   541.90617406
_cell_formula_units_Z   4
loop_
 _symmetry_equiv_pos_site_id
 _symmetry_equiv_pos_as_xyz
  1  'x, y, z'
loop_
 _atom_site_type_symbol
 _atom_site_label
 _atom_site_symmetry_multiplicity
 _atom_site_fract_x
 _atom_site_fract_y
 _atom_site_fract_z
 _atom_site_occupancy
  Li  Li0  1  0.67628800  0.23451300  0.58792800  1
  Li  Li1  1  0.17659400  0.73456400  0.08818200  1
  Li  Li2  1  0.32372200  0.76548900  0.41207900  1
  Li  Li3  1  0.82340700  0.26543800  0.91182300  1
  V  V0  1  0.25129900  0.45032900  0.64662900  1
  V  V1  1  0.74869800  0.54966100  0.35336600  1
  V  V2  1  0.75136000  0.95039300  0.14663000  1
  V  V3  1  0.24862800  0.04961100  0.85336300  1
  P  P0  1  0.19938400  0.01868200  0.21292600  1
  P  P1  1  0.69914200  0.51869900  0.71287100  1
  P  P2  1  0.80061400  0.98131600  0.78707400  1
  P  P3  1  0.30085800  0.48129900  0.28713000  1
  P  P4  1  0.17433600  0.16615900  0.51737200  1
  P  P5  1  0.67451400  0.66629300  0.01732600  1
  P  P6  1  0.82566600  0.83384400  0.48262700  1
  P  P7  1  0.32548400  0.33370800  0.98267300  1
  O  O0  1  0.05812200  0.92096900  0.86390400  1
  O  O1  1  0.55839600  0.42098500  0.36387700  1
  O  O2  1  0.94187000  0.07902900  0.13609600  1
  O  O3  1  0.44160400  0.57900900  0.63612200  1
  O  O4  1  0.38178000  0.01991700  0.10833700  1
  O  O5  1  0.88155400  0.51996700  0.60827700  1
  O  O6  1  0.61821500  0.98008500  0.89165900  1
  O  O7  1  0.11843800  0.48003200  0.39172100  1
  O  O8  1  0.29214800  0.09937400  0.36872600  1
  O  O9  1  0.79187800  0.59943400  0.86867500  1
  O  O10  1  0.70785100  0.90062900  0.63127300  1
  O  O11  1  0.20811700  0.40056800  0.13132200  1
  O  O12  1  0.90991300  0.20383000  0.46802900  1
  O  O13  1  0.41009200  0.70413900  0.96823300  1
  O  O14  1  0.09008900  0.79617800  0.53197400  1
  O  O15  1  0.58990600  0.29586000  0.03176900  1
  O  O16  1  0.17822500  0.88952800  0.24372000  1
  O  O17  1  0.67798500  0.38948900  0.74353500  1
  O  O18  1  0.82178700  0.11046800  0.75628700  1
  O  O19  1  0.32202700  0.61050900  0.25647000  1
  O  O20  1  0.31774900  0.27284000  0.56899600  1
  O  O21  1  0.81803500  0.77291500  0.06894300  1
  O  O22  1  0.68226200  0.72715900  0.43100400  1
  O  O23  1  0.18196100  0.22708800  0.93105400  1
  O  O24  1  0.73351400  0.92927000  0.35941200  1
  O  O25  1  0.23324200  0.42920100  0.85937300  1
  O  O26  1  0.26648600  0.07073100  0.64058600  1
  O  O27  1  0.76676200  0.57080000  0.14062700  1
loop_
_geom_bond_atom_site_label_1
_geom_bond_atom_site_label_2
_geom_bond_distance
_geom_bond_site_symmetry_2
Li0 O12 1.857280 1_555
Li0 O20 2.012451 1_555
Li0 O17 2.066384 1_555
Li0 O18 2.070378 1_555
Li1 O13 1.857094 1_554
Li1 O21 2.012224 1_455
Li1 O16 2.065936 1_555
Li1 O19 2.069972 1_555
Li2 O14 1.857291 1_555
Li2 O22 2.012465 1_555
Li2 O19 2.066427 1_555
Li2 O16 2.070332 1_555
Li3 O15 1.857091 1_556
Li3 O23 2.012205 1_655
Li3 O18 2.065975 1_555
Li3 O17 2.069935 1_555
O0 P2 1.545835 1_455
O0 V3 2.007157 1_565
O1 P3 1.545666 1_555
O1 V1 2.006564 1_555
O2 P0 1.545862 1_655
O2 V2 2.007102 1_545
O3 P1 1.545658 1_555
O3 V0 2.006604 1_555
O4 P0 1.558004 1_555
O4 V2 2.093739 1_545
O4 V3 2.241886 1_554
O5 P1 1.558195 1_555
O5 V0 2.094831 1_655
O5 V1 2.241218 1_555
O6 P2 1.557982 1_555
O6 V3 2.093780 1_565
O6 V2 2.241853 1_556
O7 P3 1.558211 1_555
O7 V1 2.094785 1_455
O7 V0 2.241216 1_555
O8 P0 1.590666 1_555
O8 P4 1.640186 1_555
O9 P1 1.590902 1_555
O9 P5 1.639126 1_556
O10 P2 1.590641 1_555
O10 P6 1.640195 1_555
O11 P3 1.590911 1_555
O11 P7 1.639123 1_554
O12 P4 1.484643 1_655
O13 P5 1.484651 1_556
O14 P6 1.484641 1_455
O15 P7 1.484656 1_554
O16 P0 1.533532 1_565
O16 V2 2.415525 1_455
O17 P1 1.533782 1_555
O17 V0 2.414319 1_555
O18 P2 1.533516 1_545
O18 V3 2.415372 1_655
O19 P3 1.533793 1_555
O19 V1 2.414239 1_555
O20 P4 1.554458 1_555
O20 V0 2.001319 1_555
O21 P5 1.554294 1_555
O21 V2 2.001422 1_555
O22 P6 1.554462 1_555
O22 V1 2.001416 1_555
O23 P7 1.554284 1_555
O23 V3 2.001418 1_555
O24 P6 1.544675 1_555
O24 V2 1.944120 1_555
O25 P7 1.545757 1_555
O25 V0 1.944170 1_555
O26 P4 1.544684 1_555
O26 V3 1.944089 1_555
O27 P5 1.545765 1_555
O27 V1 1.944170 1_555
