# generated using pymatgen
data_Ca(BRh)2
_symmetry_space_group_name_H-M   'P 1'
_cell_length_a   5.48587461
_cell_length_b   5.48587526
_cell_length_c   6.04370138
_cell_angle_alpha   105.28817681
_cell_angle_beta   105.28818575
_cell_angle_gamma   114.77330627
_symmetry_Int_Tables_number   1
_chemical_formula_structural   Ca(BRh)2
_chemical_formula_sum   'Ca2 B4 Rh4'
_cell_volume   144.03355620
_cell_formula_units_Z   2
loop_
 _symmetry_equiv_pos_site_id
 _symmetry_equiv_pos_as_xyz
  1  'x, y, z'
loop_
 _atom_site_type_symbol
 _atom_site_label
 _atom_site_symmetry_multiplicity
 _atom_site_fract_x
 _atom_site_fract_y
 _atom_site_fract_z
 _atom_site_occupancy
  Ca  Ca0  1  0.87500000  0.12500000  0.25000000  1
  Ca  Ca1  1  0.12500000  0.87500000  0.75000000  1
  B  B0  1  0.55068314  0.44931686  0.25000000  1
  B  B1  1  0.80068314  0.19931686  0.75000000  1
  B  B2  1  0.19931686  0.80068314  0.25000000  1
  B  B3  1  0.44931686  0.55068314  0.75000000  1
  Rh  Rh0  1  0.50533615  0.75533615  0.51067329  1
  Rh  Rh1  1  0.75533615  0.50533615  0.01067329  1
  Rh  Rh2  1  0.49466385  0.24466385  0.48932671  1
  Rh  Rh3  1  0.24466385  0.49466385  0.98932671  1
loop_
_geom_bond_atom_site_label_1
_geom_bond_atom_site_label_2
_geom_bond_distance
_geom_bond_site_symmetry_2
Ca0 Rh1 3.019123 1_555
Ca0 Rh2 3.019123 1_555
Ca0 Rh2 3.019125 1_655
Ca0 Rh1 3.019126 1_545
Ca0 Rh0 3.260375 1_655
Ca0 Rh3 3.260375 1_544
Ca0 Rh3 3.260380 1_654
Ca0 Rh0 3.260380 1_545
Ca1 Rh3 3.019123 1_555
Ca1 Rh0 3.019123 1_555
Ca1 Rh0 3.019125 1_455
Ca1 Rh3 3.019126 1_565
Ca1 Rh2 3.260375 1_455
Ca1 Rh1 3.260375 1_566
Ca1 Rh2 3.260380 1_565
Ca1 Rh1 3.260380 1_456
B0 Rh2 2.061225 1_555
B0 Rh1 2.061225 1_555
B0 Rh3 2.126998 1_554
B0 Rh0 2.126999 1_555
B0 Ca0 2.997271 1_555
B0 Ca1 3.098919 1_655
B0 Ca1 3.098920 1_544
B1 Rh3 2.061228 1_655
B1 Rh0 2.061229 1_545
B1 Rh2 2.126998 1_555
B1 Rh1 2.126999 1_556
B1 Ca1 2.997271 1_645
B1 Ca0 3.098920 1_556
B1 Ca0 3.098920 1_555
B2 Rh1 2.061228 1_455
B2 Rh2 2.061229 1_565
B2 Rh0 2.126998 1_555
B2 Rh3 2.126999 1_554
B2 Ca0 2.997271 1_465
B2 Ca1 3.098920 1_554
B2 Ca1 3.098920 1_555
B3 Rh0 2.061225 1_555
B3 Rh3 2.061225 1_555
B3 Rh1 2.126998 1_556
B3 Rh2 2.126999 1_555
B3 Ca1 2.997271 1_555
B3 Ca0 3.098919 1_455
B3 Ca0 3.098920 1_566
