# generated using pymatgen
data_Ti2Co3Te3O16
_symmetry_space_group_name_H-M   'P 1'
_cell_length_a   6.17369211
_cell_length_b   6.17369211
_cell_length_c   9.30657253
_cell_angle_alpha   88.43887314
_cell_angle_beta   88.43887314
_cell_angle_gamma   58.95992272
_symmetry_Int_Tables_number   1
_chemical_formula_structural   Ti2Co3Te3O16
_chemical_formula_sum   'Ti2 Co3 Te3 O16'
_cell_volume   303.77347085
_cell_formula_units_Z   1
loop_
 _symmetry_equiv_pos_site_id
 _symmetry_equiv_pos_as_xyz
  1  'x, y, z'
loop_
 _atom_site_type_symbol
 _atom_site_label
 _atom_site_symmetry_multiplicity
 _atom_site_fract_x
 _atom_site_fract_y
 _atom_site_fract_z
 _atom_site_occupancy
  Ti  Ti0  1  0.67862000  0.67862000  0.48770600  1
  Ti  Ti1  1  0.35948600  0.35948600  0.03819500  1
  Co  Co0  1  0.82652400  0.82652400  0.79101300  1
  Co  Co1  1  0.16969100  0.67003300  0.29903600  1
  Co  Co2  1  0.67003300  0.16969100  0.29903600  1
  Te  Te0  1  0.32881800  0.82656500  0.78508800  1
  Te  Te1  1  0.82656500  0.32881800  0.78508800  1
  Te  Te2  1  0.17167700  0.17167700  0.28506100  1
  O  O0  1  0.35167900  0.84593700  0.40123400  1
  O  O1  1  0.51354300  0.51354300  0.66283200  1
  O  O2  1  0.64643600  0.64643600  0.90413700  1
  O  O3  1  0.00414200  0.00414200  0.67521700  1
  O  O4  1  0.01331000  0.01331000  0.19659400  1
  O  O5  1  0.84593700  0.35167900  0.40123400  1
  O  O6  1  0.50473400  0.94675900  0.66711400  1
  O  O7  1  0.94675900  0.50473400  0.66711400  1
  O  O8  1  0.15202400  0.15202400  0.89369800  1
  O  O9  1  0.82798100  0.82798100  0.40979800  1
  O  O10  1  0.04901200  0.46706600  0.15047200  1
  O  O11  1  0.46706600  0.04901200  0.15047200  1
  O  O12  1  0.32136100  0.32136100  0.39525100  1
  O  O13  1  0.17335400  0.66944500  0.89218900  1
  O  O14  1  0.48213200  0.48213200  0.15448500  1
  O  O15  1  0.66944500  0.17335400  0.89218900  1
loop_
_geom_bond_atom_site_label_1
_geom_bond_atom_site_label_2
_geom_bond_distance
_geom_bond_site_symmetry_2
Co0 O15 2.081002 1_565
Co0 O13 2.081002 1_655
Co0 O6 2.093964 1_555
Co0 O7 2.093964 1_555
Co0 O3 2.162756 1_665
Co0 O2 2.174359 1_555
Co1 O4 2.040200 1_565
Co1 O12 2.043097 1_555
Co1 O9 2.068507 1_455
Co1 O14 2.124196 1_555
Co1 O0 2.172349 1_555
Co1 O10 2.269397 1_555
Co2 O4 2.040200 1_655
Co2 O12 2.043097 1_555
Co2 O9 2.068507 1_545
Co2 O14 2.124196 1_555
Co2 O5 2.172349 1_555
Co2 O11 2.269397 1_555
O0 Ti0 1.918791 1_555
O0 Te2 2.022466 1_565
O1 Te1 2.026325 1_555
O1 Te0 2.026325 1_555
O1 Ti0 2.371435 1_555
O2 Te1 2.027725 1_555
O2 Te0 2.027725 1_555
O3 Te0 2.012371 1_545
O3 Te1 2.012371 1_455
O4 Te2 1.913955 1_555
O5 Ti0 1.918791 1_555
O5 Te2 2.022466 1_655
O6 Te0 1.912414 1_555
O6 Ti0 2.213792 1_555
O7 Te1 1.912414 1_555
O7 Ti0 2.213792 1_555
O8 Te1 2.009752 1_455
O8 Te0 2.009752 1_545
O8 Ti1 2.639850 1_556
O9 Ti0 1.740774 1_555
O10 Ti1 1.955195 1_555
O10 Te2 1.992755 1_555
O11 Ti1 1.955195 1_555
O11 Te2 1.992755 1_555
O12 Te2 1.934815 1_555
O13 Te0 1.926376 1_555
O13 Ti1 2.122350 1_556
O14 Ti1 1.731612 1_555
O15 Te1 1.926376 1_555
O15 Ti1 2.122350 1_556
