# generated using pymatgen
data_RbNaSnF6
_symmetry_space_group_name_H-M   'P 1'
_cell_length_a   8.33737700
_cell_length_b   11.17223800
_cell_length_c   13.38459000
_cell_angle_alpha   90.00000000
_cell_angle_beta   90.00000000
_cell_angle_gamma   90.00000000
_symmetry_Int_Tables_number   1
_chemical_formula_structural   RbNaSnF6
_chemical_formula_sum   'Rb8 Na8 Sn8 F48'
_cell_volume   1246.73654813
_cell_formula_units_Z   8
loop_
 _symmetry_equiv_pos_site_id
 _symmetry_equiv_pos_as_xyz
  1  'x, y, z'
loop_
 _atom_site_type_symbol
 _atom_site_label
 _atom_site_symmetry_multiplicity
 _atom_site_fract_x
 _atom_site_fract_y
 _atom_site_fract_z
 _atom_site_occupancy
  Rb  Rb0  1  0.50000000  0.75000000  0.57503500  1
  Rb  Rb1  1  0.00000000  0.25000000  0.92496500  1
  Rb  Rb2  1  0.50000000  0.25000000  0.42496500  1
  Rb  Rb3  1  0.00000000  0.75000000  0.07503500  1
  Rb  Rb4  1  0.00000000  0.75000000  0.63148300  1
  Rb  Rb5  1  0.50000000  0.25000000  0.86851700  1
  Rb  Rb6  1  0.00000000  0.25000000  0.36851700  1
  Rb  Rb7  1  0.50000000  0.75000000  0.13148300  1
  Na  Na0  1  0.75497500  0.07507700  0.64253900  1
  Na  Na1  1  0.25497500  0.92492300  0.85746100  1
  Na  Na2  1  0.74502500  0.57507700  0.85746100  1
  Na  Na3  1  0.24502500  0.42492300  0.64253900  1
  Na  Na4  1  0.24502500  0.92492300  0.35746100  1
  Na  Na5  1  0.74502500  0.07507700  0.14253900  1
  Na  Na6  1  0.25497500  0.42492300  0.14253900  1
  Na  Na7  1  0.75497500  0.57507700  0.35746100  1
  Sn  Sn0  1  0.75105000  0.42541000  0.13513600  1
  Sn  Sn1  1  0.25105000  0.57459000  0.36486400  1
  Sn  Sn2  1  0.74895000  0.92541000  0.36486400  1
  Sn  Sn3  1  0.24895000  0.07459000  0.13513600  1
  Sn  Sn4  1  0.24895000  0.57459000  0.86486400  1
  Sn  Sn5  1  0.74895000  0.42541000  0.63513600  1
  Sn  Sn6  1  0.25105000  0.07459000  0.63513600  1
  Sn  Sn7  1  0.75105000  0.92541000  0.86486400  1
  F  F0  1  0.71046400  0.87643900  0.72232500  1
  F  F1  1  0.21046400  0.12356100  0.77767500  1
  F  F2  1  0.78953600  0.37643900  0.77767500  1
  F  F3  1  0.28953600  0.62356100  0.72232500  1
  F  F4  1  0.28953600  0.12356100  0.27767500  1
  F  F5  1  0.78953600  0.87643900  0.22232500  1
  F  F6  1  0.21046400  0.62356100  0.22232500  1
  F  F7  1  0.71046400  0.37643900  0.27767500  1
  F  F8  1  0.81139800  0.97843400  0.00234600  1
  F  F9  1  0.31139800  0.02156600  0.49765400  1
  F  F10  1  0.68860200  0.47843400  0.49765400  1
  F  F11  1  0.18860200  0.52156600  0.00234600  1
  F  F12  1  0.18860200  0.02156600  0.99765400  1
  F  F13  1  0.68860200  0.97843400  0.50234600  1
  F  F14  1  0.31139800  0.52156600  0.50234600  1
  F  F15  1  0.81139800  0.47843400  0.99765400  1
  F  F16  1  0.98110100  0.88351400  0.83976000  1
  F  F17  1  0.52139100  0.97046100  0.88394500  1
  F  F18  1  0.48110100  0.11648600  0.66024000  1
  F  F19  1  0.01889900  0.61648600  0.83976000  1
  F  F20  1  0.01889900  0.11648600  0.16024000  1
  F  F21  1  0.51889900  0.88351400  0.33976000  1
  F  F22  1  0.48110100  0.61648600  0.33976000  1
  F  F23  1  0.98110100  0.38351400  0.16024000  1
  F  F24  1  0.78821800  0.76224800  0.42372300  1
  F  F25  1  0.28821800  0.23775200  0.07627700  1
  F  F26  1  0.71178200  0.26224800  0.07627700  1
  F  F27  1  0.21178200  0.73775200  0.42372300  1
  F  F28  1  0.21178200  0.23775200  0.57627700  1
  F  F29  1  0.71178200  0.76224800  0.92372300  1
  F  F30  1  0.28821800  0.73775200  0.92372300  1
  F  F31  1  0.78821800  0.26224800  0.57627700  1
  F  F32  1  0.78529200  0.59492500  0.18443200  1
  F  F33  1  0.28529200  0.40507500  0.31556800  1
  F  F34  1  0.71470800  0.09492500  0.31556800  1
  F  F35  1  0.21470800  0.90507500  0.18443200  1
  F  F36  1  0.21470800  0.40507500  0.81556800  1
  F  F37  1  0.71470800  0.59492500  0.68443200  1
  F  F38  1  0.28529200  0.90507500  0.68443200  1
  F  F39  1  0.78529200  0.09492500  0.81556800  1
  F  F40  1  0.52139100  0.47046100  0.11605500  1
  F  F41  1  0.02139100  0.52953900  0.38394500  1
  F  F42  1  0.97860900  0.97046100  0.38394500  1
  F  F43  1  0.47860900  0.02953900  0.11605500  1
  F  F44  1  0.47860900  0.52953900  0.88394500  1
  F  F45  1  0.97860900  0.47046100  0.61605500  1
  F  F46  1  0.02139100  0.02953900  0.61605500  1
  F  F47  1  0.51889900  0.38351400  0.66024000  1
loop_
_geom_bond_atom_site_label_1
_geom_bond_atom_site_label_2
_geom_bond_distance
_geom_bond_site_symmetry_2
F0 Sn7 2.013365 1_555
F0 Na0 2.490607 1_565
F0 Rb0 2.993489 1_555
F0 Rb4 3.049768 1_655
F1 Sn6 2.013365 1_555
F1 Na1 2.490607 1_545
F1 Rb1 2.993489 1_555
F1 Rb5 3.049768 1_555
F2 Sn5 2.013365 1_555
F2 Na2 2.490607 1_555
F2 Rb1 2.993489 1_655
F2 Rb5 3.049768 1_555
F3 Sn4 2.013365 1_555
F3 Na3 2.490607 1_555
F3 Rb0 2.993489 1_555
F3 Rb4 3.049768 1_555
F4 Sn3 2.013365 1_555
F4 Na4 2.490607 1_545
F4 Rb2 2.993489 1_555
F4 Rb6 3.049768 1_555
F5 Sn2 2.013365 1_555
F5 Na5 2.490607 1_565
F5 Rb3 2.993489 1_655
F5 Rb7 3.049768 1_555
F6 Sn1 2.013365 1_555
F6 Na6 2.490607 1_555
F6 Rb3 2.993489 1_555
F6 Rb7 3.049768 1_555
F7 Sn0 2.013365 1_555
F7 Na7 2.490607 1_555
F7 Rb2 2.993489 1_555
F7 Rb6 3.049768 1_655
F8 Sn7 1.997549 1_554
F8 Na5 2.234500 1_565
F8 Rb3 3.151580 1_655
F9 Sn6 1.997549 1_555
F9 Na4 2.234500 1_545
F9 Rb2 3.151580 1_555
F10 Sn5 1.997549 1_555
F10 Na7 2.234500 1_555
F10 Rb2 3.151580 1_555
F11 Sn4 1.997549 1_554
F11 Na6 2.234500 1_555
F11 Rb3 3.151580 1_555
F12 Sn3 1.997549 1_556
F12 Na1 2.234500 1_545
F12 Rb1 3.151580 1_555
F13 Sn2 1.997549 1_555
F13 Na0 2.234500 1_565
F13 Rb0 3.151580 1_555
F14 Sn1 1.997549 1_555
F14 Na3 2.234500 1_555
F14 Rb0 3.151580 1_555
F15 Sn0 1.997549 1_556
F15 Na2 2.234500 1_555
F15 Rb1 3.151580 1_655
F16 Sn7 2.002698 1_555
F16 Na1 2.341801 1_655
F16 Rb4 3.165617 1_655
F17 Sn7 1.996206 1_555
F17 Na1 2.306137 1_555
F17 Rb5 3.134973 1_565
F18 Sn6 2.002698 1_555
F18 Na0 2.341801 1_555
F18 Rb5 3.165617 1_555
F19 Sn4 2.002698 1_555
F19 Na2 2.341801 1_455
F19 Rb4 3.165617 1_555
F20 Sn3 2.002698 1_555
F20 Na5 2.341801 1_455
F20 Rb6 3.165617 1_555
F21 Sn2 2.002698 1_555
F21 Na4 2.341801 1_555
F21 Rb7 3.165617 1_555
F22 Sn1 2.002698 1_555
F22 Na7 2.341801 1_555
F22 Rb7 3.165617 1_555
F23 Sn0 2.002698 1_555
F23 Na6 2.341801 1_655
F23 Rb6 3.165617 1_655
F24 Sn2 2.012642 1_555
F24 Na7 2.288268 1_555
F24 Rb0 3.145581 1_555
F24 Rb4 3.296846 1_655
F25 Sn3 2.012642 1_555
F25 Na6 2.288268 1_555
F25 Rb1 3.145581 1_554
F25 Rb5 3.296846 1_554
F26 Sn0 2.012642 1_555
F26 Na5 2.288268 1_555
F26 Rb1 3.145581 1_654
F26 Rb5 3.296846 1_554
F27 Sn1 2.012642 1_555
F27 Na4 2.288268 1_555
F27 Rb0 3.145581 1_555
F27 Rb4 3.296846 1_555
F28 Sn6 2.012642 1_555
F28 Na3 2.288268 1_555
F28 Rb2 3.145581 1_555
F28 Rb6 3.296846 1_555
F29 Sn7 2.012642 1_555
F29 Na2 2.288268 1_555
F29 Rb3 3.145581 1_656
F29 Rb7 3.296846 1_556
F30 Sn4 2.012642 1_555
F30 Na1 2.288268 1_555
F30 Rb3 3.145581 1_556
F30 Rb7 3.296846 1_556
F31 Sn5 2.012642 1_555
F31 Na0 2.288268 1_555
F31 Rb2 3.145581 1_555
F31 Rb6 3.296846 1_655
F32 Sn0 2.025725 1_555
F32 Na7 2.340204 1_555
F32 Rb3 2.889658 1_655
F32 Rb7 3.026815 1_555
F33 Sn1 2.025725 1_555
F33 Na6 2.340204 1_555
F33 Rb2 2.889658 1_555
F33 Rb6 3.026815 1_555
F34 Sn2 2.025725 1_545
F34 Na5 2.340204 1_555
F34 Rb2 2.889658 1_555
F34 Rb6 3.026815 1_655
F35 Sn3 2.025725 1_565
F35 Na4 2.340204 1_555
F35 Rb3 2.889658 1_555
F35 Rb7 3.026815 1_555
F36 Sn4 2.025725 1_555
F36 Na3 2.340204 1_555
F36 Rb1 2.889658 1_555
F36 Rb5 3.026815 1_555
F37 Sn5 2.025725 1_555
F37 Na2 2.340204 1_555
F37 Rb0 2.889658 1_555
F37 Rb4 3.026815 1_655
F38 Sn6 2.025725 1_565
F38 Na1 2.340204 1_555
F38 Rb0 2.889658 1_555
F38 Rb4 3.026815 1_555
F39 Sn7 2.025725 1_545
F39 Na0 2.340204 1_555
F39 Rb1 2.889658 1_655
F39 Rb5 3.026815 1_555
F40 Sn0 1.996206 1_555
F40 Na6 2.306137 1_555
F40 Rb7 3.134973 1_555
F41 Sn1 1.996206 1_555
F41 Na7 2.306137 1_455
F41 Rb6 3.134973 1_555
F42 Sn2 1.996206 1_555
F42 Na4 2.306137 1_655
F42 Rb6 3.134973 1_665
F43 Sn3 1.996206 1_555
F43 Na5 2.306137 1_555
F43 Rb7 3.134973 1_545
F44 Sn4 1.996206 1_555
F44 Na2 2.306137 1_555
F44 Rb5 3.134973 1_555
F45 Sn5 1.996206 1_555
F45 Na3 2.306137 1_655
F45 Rb4 3.134973 1_655
F46 Sn6 1.996206 1_555
F46 Na0 2.306137 1_455
F46 Rb4 3.134973 1_545
F47 Sn5 2.002698 1_555
F47 Na3 2.341801 1_555
F47 Rb5 3.165617 1_555
