# generated using pymatgen
data_Li3FeO4
_symmetry_space_group_name_H-M   'P 1'
_cell_length_a   6.94711506
_cell_length_b   6.94711506
_cell_length_c   6.94711506
_cell_angle_alpha   109.47122063
_cell_angle_beta   109.47122063
_cell_angle_gamma   109.47122063
_symmetry_Int_Tables_number   1
_chemical_formula_structural   Li3FeO4
_chemical_formula_sum   'Li12 Fe4 O16'
_cell_volume   258.10212772
_cell_formula_units_Z   4
loop_
 _symmetry_equiv_pos_site_id
 _symmetry_equiv_pos_as_xyz
  1  'x, y, z'
loop_
 _atom_site_type_symbol
 _atom_site_label
 _atom_site_symmetry_multiplicity
 _atom_site_fract_x
 _atom_site_fract_y
 _atom_site_fract_z
 _atom_site_occupancy
  Li  Li0  1  0.25423113  0.50724026  0.50724026  1
  Li  Li1  1  0.25300913  0.25300913  0.74576887  1
  Li  Li2  1  0.00000000  0.74699087  0.49275974  1
  Li  Li3  1  0.49275974  0.74699087  -0.00000000  1
  Li  Li4  1  0.50724026  0.25423113  0.50724026  1
  Li  Li5  1  0.25300913  0.74576887  0.25300913  1
  Li  Li6  1  0.49275974  0.00000000  0.74699087  1
  Li  Li7  1  0.74699087  0.00000000  0.49275974  1
  Li  Li8  1  0.50724026  0.50724026  0.25423113  1
  Li  Li9  1  0.74576887  0.25300913  0.25300913  1
  Li  Li10  1  0.74699087  0.49275974  0.00000000  1
  Li  Li11  1  0.00000000  0.49275974  0.74699087  1
  Fe  Fe0  1  -0.00000000  -0.00000000  0.26669085  1
  Fe  Fe1  1  -0.00000000  0.26669085  -0.00000000  1
  Fe  Fe2  1  0.26669085  0.00000000  0.00000000  1
  Fe  Fe3  1  0.73330915  0.73330915  0.73330915  1
  O  O0  1  0.00000000  0.22880290  0.47422281  1
  O  O1  1  0.22880290  0.00000000  0.47422281  1
  O  O2  1  0.22880290  0.47422281  0.00000000  1
  O  O3  1  0.52577719  0.75458010  0.52577719  1
  O  O4  1  0.24541990  0.77119710  0.77119710  1
  O  O5  1  0.00000000  -0.00000000  0.77547868  1
  O  O6  1  0.00000000  0.77547868  0.00000000  1
  O  O7  1  0.22452132  0.22452132  0.22452132  1
  O  O8  1  0.47422281  0.22880290  0.00000000  1
  O  O9  1  0.47422281  0.00000000  0.22880290  1
  O  O10  1  0.52577719  0.52577719  0.75458010  1
  O  O11  1  0.77119710  0.77119710  0.24541990  1
  O  O12  1  0.77547868  -0.00000000  -0.00000000  1
  O  O13  1  0.00000000  0.47422281  0.22880290  1
  O  O14  1  0.75458010  0.52577719  0.52577719  1
  O  O15  1  0.77119710  0.24541990  0.77119710  1
loop_
_geom_bond_atom_site_label_1
_geom_bond_atom_site_label_2
_geom_bond_distance
_geom_bond_site_symmetry_2
Li0 O10 2.014297 1_555
Li0 O3 2.014297 1_555
Li0 O0 2.017470 1_555
Li0 O13 2.017470 1_555
Li0 O4 2.153340 1_555
Li0 O7 2.155360 1_555
Li1 O0 2.014297 1_555
Li1 O1 2.014297 1_555
Li1 O8 2.017470 1_556
Li1 O2 2.017470 1_556
Li1 O10 2.153340 1_555
Li1 O5 2.155360 1_555
Li2 O1 2.014297 1_565
Li2 O11 2.014297 1_455
Li2 O14 2.017470 1_455
Li2 O4 2.017470 1_555
Li2 O13 2.153340 1_555
Li2 O5 2.155360 1_565
Li3 O9 2.014297 1_565
Li3 O4 2.014297 1_554
Li3 O10 2.017470 1_554
Li3 O11 2.017470 1_555
Li3 O2 2.153340 1_555
Li3 O12 2.155360 1_565
Li4 O14 2.014297 1_555
Li4 O10 2.014297 1_555
Li4 O1 2.017470 1_555
Li4 O9 2.017470 1_555
Li4 O15 2.153340 1_555
Li4 O7 2.155360 1_555
Li5 O13 2.014297 1_555
Li5 O2 2.014297 1_555
Li5 O9 2.017470 1_565
Li5 O1 2.017470 1_565
Li5 O3 2.153340 1_555
Li5 O6 2.155360 1_555
Li6 O8 2.014297 1_556
Li6 O4 2.014297 1_545
Li6 O3 2.017470 1_545
Li6 O15 2.017470 1_555
Li6 O1 2.153340 1_555
Li6 O12 2.155360 1_556
Li7 O0 2.014297 1_655
Li7 O11 2.014297 1_545
Li7 O3 2.017470 1_545
Li7 O15 2.017470 1_555
Li7 O9 2.153340 1_555
Li7 O5 2.155360 1_655
Li8 O14 2.014297 1_555
Li8 O3 2.014297 1_555
Li8 O2 2.017470 1_555
Li8 O8 2.017470 1_555
Li8 O11 2.153340 1_555
Li8 O7 2.155360 1_555
Li9 O8 2.014297 1_555
Li9 O9 2.014297 1_555
Li9 O13 2.017470 1_655
Li9 O0 2.017470 1_655
Li9 O14 2.153340 1_555
Li9 O12 2.155360 1_555
Li10 O13 2.014297 1_655
Li10 O15 2.014297 1_554
Li10 O10 2.017470 1_554
Li10 O11 2.017470 1_555
Li10 O8 2.153340 1_555
Li10 O6 2.155360 1_655
Li11 O2 2.014297 1_556
Li11 O15 2.014297 1_455
Li11 O14 2.017470 1_455
Li11 O4 2.017470 1_555
Li11 O0 2.153340 1_555
Li11 O6 2.155360 1_556
Fe0 O11 1.754258 1_445
Fe0 O0 1.754258 1_555
Fe0 O1 1.754258 1_555
Fe0 O12 1.984679 1_455
Fe0 O6 1.984679 1_545
Fe0 O7 1.984679 1_555
Fe1 O15 1.754258 1_454
Fe1 O13 1.754258 1_555
Fe1 O2 1.754258 1_555
Fe1 O12 1.984679 1_455
Fe1 O7 1.984679 1_555
Fe1 O5 1.984679 1_554
Fe2 O4 1.754258 1_544
Fe2 O8 1.754258 1_555
Fe2 O9 1.754258 1_555
Fe2 O7 1.984679 1_555
Fe2 O5 1.984679 1_554
Fe2 O6 1.984679 1_545
Fe3 O10 1.754258 1_555
Fe3 O3 1.754258 1_555
Fe3 O14 1.754258 1_555
Fe3 O12 1.984679 1_566
Fe3 O6 1.984679 1_656
Fe3 O5 1.984679 1_665
