# generated using pymatgen
data_Na2Ti9O19
_symmetry_space_group_name_H-M   'P 1'
_cell_length_a   6.54900436
_cell_length_b   6.54900436
_cell_length_c   15.89394799
_cell_angle_alpha   76.42587735
_cell_angle_beta   76.42587735
_cell_angle_gamma   33.65985493
_symmetry_Int_Tables_number   1
_chemical_formula_structural   Na2Ti9O19
_chemical_formula_sum   'Na2 Ti9 O19'
_cell_volume   366.29569881
_cell_formula_units_Z   1
loop_
 _symmetry_equiv_pos_site_id
 _symmetry_equiv_pos_as_xyz
  1  'x, y, z'
loop_
 _atom_site_type_symbol
 _atom_site_label
 _atom_site_symmetry_multiplicity
 _atom_site_fract_x
 _atom_site_fract_y
 _atom_site_fract_z
 _atom_site_occupancy
  Na  Na0  1  0.00031400  0.00031400  0.00030000  1
  Na  Na1  1  0.71176700  0.71176700  0.50138800  1
  Ti  Ti0  1  0.78663900  0.78663900  0.70248200  1
  Ti  Ti1  1  0.20050600  0.20050600  0.88040100  1
  Ti  Ti2  1  0.91633000  0.91633000  0.29924300  1
  Ti  Ti3  1  0.10625900  0.10625900  0.13199300  1
  Ti  Ti4  1  0.99651700  0.99651700  0.50017300  1
  Ti  Ti5  1  0.89513700  0.89513700  0.86817600  1
  Ti  Ti6  1  0.08687200  0.08687200  0.69953400  1
  Ti  Ti7  1  0.80029300  0.80029300  0.11960100  1
  Ti  Ti8  1  0.21632300  0.21632300  0.29857200  1
  O  O0  1  0.16293300  0.16293300  0.99604400  1
  O  O1  1  0.37759000  0.37759000  0.29239800  1
  O  O2  1  0.24666100  0.24666100  0.73062800  1
  O  O3  1  0.95497600  0.95497600  0.14019600  1
  O  O4  1  0.73171300  0.73171300  0.85309000  1
  O  O5  1  0.90934000  0.90934000  0.41148700  1
  O  O6  1  0.85284900  0.85284900  0.59081400  1
  O  O7  1  0.36208700  0.36208700  0.87409500  1
  O  O8  1  0.92860100  0.92860100  0.74153900  1
  O  O9  1  0.50835300  0.50835300  0.49983700  1
  O  O10  1  0.83783600  0.83783600  0.00388200  1
  O  O11  1  0.07398600  0.07398600  0.25836300  1
  O  O12  1  0.63897000  0.63897000  0.12578000  1
  O  O13  1  0.15322800  0.15322800  0.40991300  1
  O  O14  1  0.09573100  0.09573100  0.58785300  1
  O  O15  1  0.26977300  0.26977300  0.14613000  1
  O  O16  1  0.04615400  0.04615400  0.86037000  1
  O  O17  1  0.75556000  0.75556000  0.27017600  1
  O  O18  1  0.62668500  0.62668500  0.70554300  1
loop_
_geom_bond_atom_site_label_1
_geom_bond_atom_site_label_2
_geom_bond_distance
_geom_bond_site_symmetry_2
Na0 O0 2.023231 1_554
Na0 O10 2.023779 1_445
Na0 O3 2.155743 1_445
Na0 O16 2.156342 1_554
Na1 O6 2.526168 1_555
Na1 O5 2.537988 1_555
Na1 O9 2.556358 1_555
Na1 O14 2.572902 1_565
Na1 O14 2.572902 1_655
Na1 O13 2.602130 1_565
Na1 O13 2.602130 1_655
O0 Ti1 1.782027 1_555
O0 Ti3 2.102579 1_556
O1 Ti2 1.966978 1_545
O1 Ti2 1.966978 1_455
O1 Ti8 2.000006 1_555
O2 Ti0 1.984121 1_455
O2 Ti0 1.984121 1_545
O2 Ti6 2.177814 1_555
O2 Ti1 2.307816 1_555
O3 Ti3 1.868945 1_665
O3 Ti7 2.044307 1_555
O3 Ti2 2.454446 1_555
O4 Ti1 1.963052 1_655
O4 Ti1 1.963052 1_565
O4 Ti5 2.120421 1_555
O4 Ti0 2.322902 1_555
O5 Ti2 1.764558 1_555
O5 Ti4 1.984167 1_555
O6 Ti0 1.765389 1_555
O6 Ti4 2.011744 1_555
O7 Ti5 1.938242 1_455
O7 Ti5 1.938242 1_545
O7 Ti1 2.003522 1_555
O8 Ti6 1.932170 1_665
O8 Ti5 1.952717 1_555
O8 Ti0 2.023558 1_555
O9 Ti4 1.901848 1_455
O9 Ti4 1.901848 1_545
O10 Ti7 1.783191 1_555
O10 Ti5 2.099625 1_554
O11 Ti2 1.923290 1_445
O11 Ti3 1.949183 1_555
O11 Ti8 2.037662 1_555
O12 Ti3 1.937379 1_565
O12 Ti3 1.937379 1_655
O12 Ti7 2.000692 1_555
O13 Ti8 1.752392 1_555
O13 Ti4 2.129742 1_445
O14 Ti6 1.751132 1_555
O14 Ti4 2.083099 1_445
O15 Ti7 1.959704 1_545
O15 Ti7 1.959704 1_455
O15 Ti3 2.116312 1_555
O15 Ti8 2.350165 1_555
O16 Ti5 1.866757 1_445
O16 Ti1 2.036701 1_555
O16 Ti6 2.481007 1_555
O17 Ti8 1.982968 1_565
O17 Ti8 1.982968 1_655
O17 Ti2 2.175461 1_555
O17 Ti7 2.320314 1_555
O18 Ti6 1.969010 1_655
O18 Ti6 1.969010 1_565
O18 Ti0 1.993972 1_555
