# generated using pymatgen
data_SmB4
_symmetry_space_group_name_H-M   'P 1'
_cell_length_a   4.07860057
_cell_length_b   7.18469143
_cell_length_c   7.18469143
_cell_angle_alpha   90.00000000
_cell_angle_beta   90.00000000
_cell_angle_gamma   90.00000000
_symmetry_Int_Tables_number   1
_chemical_formula_structural   SmB4
_chemical_formula_sum   'Sm4 B16'
_cell_volume   210.53650877
_cell_formula_units_Z   4
loop_
 _symmetry_equiv_pos_site_id
 _symmetry_equiv_pos_as_xyz
  1  'x, y, z'
loop_
 _atom_site_type_symbol
 _atom_site_label
 _atom_site_symmetry_multiplicity
 _atom_site_fract_x
 _atom_site_fract_y
 _atom_site_fract_z
 _atom_site_occupancy
  Sm  Sm0  1  0.00000000  0.68290683  0.18290683  1
  Sm  Sm1  1  0.00000000  0.81709317  0.68290683  1
  Sm  Sm2  1  0.00000000  0.18290683  0.31709317  1
  Sm  Sm3  1  0.00000000  0.31709317  0.81709317  1
  B  B0  1  0.50000000  0.46139891  0.32542662  1
  B  B1  1  0.50000000  0.53860109  0.67457338  1
  B  B2  1  0.50000000  0.32542662  0.53860109  1
  B  B3  1  0.50000000  0.67457338  0.46139891  1
  B  B4  1  0.20405087  -0.00000000  0.00000000  1
  B  B5  1  0.79594913  0.50000000  0.50000000  1
  B  B6  1  0.79594913  -0.00000000  0.00000000  1
  B  B7  1  0.20405087  0.50000000  0.50000000  1
  B  B8  1  0.50000000  0.08777872  0.58777872  1
  B  B9  1  0.50000000  0.41222128  0.08777872  1
  B  B10  1  0.50000000  0.58777872  0.91222128  1
  B  B11  1  0.50000000  0.91222128  0.41222128  1
  B  B12  1  0.50000000  0.17457338  0.03860109  1
  B  B13  1  0.50000000  0.96139891  0.17457338  1
  B  B14  1  0.50000000  0.03860109  0.82542662  1
  B  B15  1  0.50000000  0.82542662  0.96139891  1
loop_
_geom_bond_atom_site_label_1
_geom_bond_atom_site_label_2
_geom_bond_distance
_geom_bond_site_symmetry_2
B0 B9 1.743601 1_555
B0 B7 1.762686 1_555
B0 B5 1.762686 1_555
B0 B3 1.816631 1_555
B0 B2 1.816631 1_555
B0 Sm0 2.782087 1_555
B0 Sm0 2.782087 1_655
B0 Sm2 2.857595 1_655
B0 Sm2 2.857595 1_555
B1 B10 1.743601 1_555
B1 B7 1.762686 1_555
B1 B5 1.762686 1_555
B1 B3 1.816631 1_555
B1 B2 1.816631 1_555
B1 Sm3 2.782087 1_655
B1 Sm3 2.782087 1_555
B1 Sm1 2.857595 1_655
B1 Sm1 2.857595 1_555
B2 B8 1.743601 1_555
B2 B7 1.762686 1_555
B2 B5 1.762686 1_555
B2 Sm2 2.782087 1_555
B2 Sm2 2.782087 1_655
B2 Sm3 2.857595 1_555
B2 Sm3 2.857595 1_655
B3 B7 1.762686 1_555
B3 B5 1.762686 1_555
B3 Sm1 2.782087 1_655
B3 Sm1 2.782087 1_555
B3 Sm0 2.857595 1_555
B3 Sm0 2.857595 1_655
B4 B6 1.664484 1_455
B4 Sm2 2.758593 1_555
B4 Sm3 2.758593 1_554
B4 Sm1 2.758593 1_544
B4 Sm0 2.758593 1_545
B5 B7 1.664484 1_655
B5 Sm2 2.758593 1_655
B5 Sm3 2.758593 1_655
B5 Sm0 2.758593 1_655
B5 Sm1 2.758593 1_655
B6 Sm3 2.758593 1_654
B6 Sm2 2.758593 1_655
B6 Sm0 2.758593 1_645
B6 Sm1 2.758593 1_644
B7 Sm2 2.758593 1_555
B7 Sm1 2.758593 1_555
B7 Sm3 2.758593 1_555
B7 Sm0 2.758593 1_555
B8 Sm2 2.899670 1_655
B8 Sm1 2.899670 1_545
B8 Sm1 2.899670 1_645
B8 Sm2 2.899670 1_555
B8 Sm3 3.096387 1_555
B8 Sm3 3.096387 1_655
B9 Sm3 2.899670 1_554
B9 Sm0 2.899670 1_555
B9 Sm0 2.899670 1_655
B9 Sm3 2.899670 1_654
B9 Sm2 3.096387 1_555
B9 Sm2 3.096387 1_655
B10 B15 1.743601 1_555
B10 B9 1.783784 1_556
B10 Sm3 2.899670 1_655
B10 Sm3 2.899670 1_555
B10 Sm0 2.899670 1_556
B10 Sm0 2.899670 1_656
B10 Sm1 3.096387 1_655
B10 Sm1 3.096387 1_555
B11 B3 1.743601 1_555
B11 B13 1.743601 1_555
B11 B8 1.783784 1_565
B11 Sm1 2.899670 1_555
B11 Sm1 2.899670 1_655
B11 Sm2 2.899670 1_565
B11 Sm2 2.899670 1_665
B11 Sm0 3.096387 1_555
B11 Sm0 3.096387 1_655
B12 B9 1.743601 1_555
B12 B4 1.762686 1_555
B12 B6 1.762686 1_555
B12 B14 1.816631 1_554
B12 B13 1.816631 1_545
B12 Sm3 2.782087 1_654
B12 Sm3 2.782087 1_554
B12 Sm2 2.857595 1_555
B12 Sm2 2.857595 1_655
B13 B4 1.762686 1_565
B13 B6 1.762686 1_565
B13 B15 1.816631 1_554
B13 Sm2 2.782087 1_565
B13 Sm2 2.782087 1_665
B13 Sm0 2.857595 1_555
B13 Sm0 2.857595 1_655
B14 B8 1.743601 1_555
B14 B4 1.762686 1_556
B14 B6 1.762686 1_556
B14 B15 1.816631 1_545
B14 Sm1 2.782087 1_545
B14 Sm1 2.782087 1_645
B14 Sm3 2.857595 1_555
B14 Sm3 2.857595 1_655
B15 B6 1.762686 1_566
B15 B4 1.762686 1_566
B15 Sm0 2.782087 1_556
B15 Sm0 2.782087 1_656
B15 Sm1 2.857595 1_655
B15 Sm1 2.857595 1_555
