# generated using pymatgen
data_LiB3H3SeO9
_symmetry_space_group_name_H-M   'P 1'
_cell_length_a   8.96324800
_cell_length_b   11.48451200
_cell_length_c   14.65539200
_cell_angle_alpha   90.00000000
_cell_angle_beta   90.00000000
_cell_angle_gamma   90.00000000
_symmetry_Int_Tables_number   1
_chemical_formula_structural   LiB3H3SeO9
_chemical_formula_sum   'Li8 B24 H24 Se8 O72'
_cell_volume   1508.60449755
_cell_formula_units_Z   8
loop_
 _symmetry_equiv_pos_site_id
 _symmetry_equiv_pos_as_xyz
  1  'x, y, z'
loop_
 _atom_site_type_symbol
 _atom_site_label
 _atom_site_symmetry_multiplicity
 _atom_site_fract_x
 _atom_site_fract_y
 _atom_site_fract_z
 _atom_site_occupancy
  Li  Li0  1  0.17462000  0.00000000  0.25000000  1
  Li  Li1  1  0.50004700  0.00000000  0.25000000  1
  Li  Li2  1  0.49995300  0.00000000  0.75000000  1
  Li  Li3  1  0.82538000  0.00000000  0.75000000  1
  Li  Li4  1  0.67462000  0.50000000  0.25000000  1
  Li  Li5  1  0.99995300  0.50000000  0.75000000  1
  Li  Li6  1  0.32538000  0.50000000  0.75000000  1
  Li  Li7  1  0.00004700  0.50000000  0.25000000  1
  B  B0  1  0.04391300  0.14672800  0.08325200  1
  B  B1  1  0.95608700  0.14672800  0.58325200  1
  B  B2  1  0.53470400  0.14342300  0.07480500  1
  B  B3  1  0.46529600  0.14342300  0.57480500  1
  B  B4  1  0.08249900  0.23939800  0.45096900  1
  B  B5  1  0.91750100  0.23939800  0.95096900  1
  B  B6  1  0.41750100  0.26060200  0.95096900  1
  B  B7  1  0.58249900  0.26060200  0.45096900  1
  B  B8  1  0.03470400  0.35657700  0.07480500  1
  B  B9  1  0.96529600  0.35657700  0.57480500  1
  B  B10  1  0.54391300  0.35327200  0.08325200  1
  B  B11  1  0.45608700  0.35327200  0.58325200  1
  B  B12  1  0.45608700  0.64672800  0.91674800  1
  B  B13  1  0.54391300  0.64672800  0.41674800  1
  B  B14  1  0.03470400  0.64342300  0.42519500  1
  B  B15  1  0.96529600  0.64342300  0.92519500  1
  B  B16  1  0.41750100  0.73939800  0.54903100  1
  B  B17  1  0.58249900  0.73939800  0.04903100  1
  B  B18  1  0.08249900  0.76060200  0.04903100  1
  B  B19  1  0.91750100  0.76060200  0.54903100  1
  B  B20  1  0.46529600  0.85657700  0.92519500  1
  B  B21  1  0.53470400  0.85657700  0.42519500  1
  B  B22  1  0.04391300  0.85327200  0.41674800  1
  B  B23  1  0.95608700  0.85327200  0.91674800  1
  H  H0  1  0.06778000  0.97962100  0.08648300  1
  H  H1  1  0.93222000  0.97962100  0.58648300  1
  H  H2  1  0.55597000  0.02960100  0.42296400  1
  H  H3  1  0.44403000  0.02960100  0.92296400  1
  H  H4  1  0.26151500  0.18861900  0.68562500  1
  H  H5  1  0.73848500  0.18861900  0.18562500  1
  H  H6  1  0.23848500  0.31138100  0.18562500  1
  H  H7  1  0.76151500  0.31138100  0.68562500  1
  H  H8  1  0.05597000  0.47039900  0.42296400  1
  H  H9  1  0.94403000  0.47039900  0.92296400  1
  H  H10  1  0.56778000  0.52037900  0.08648300  1
  H  H11  1  0.43222000  0.52037900  0.58648300  1
  H  H12  1  0.43222000  0.47962100  0.91351700  1
  H  H13  1  0.56778000  0.47962100  0.41351700  1
  H  H14  1  0.05597000  0.52960100  0.07703600  1
  H  H15  1  0.94403000  0.52960100  0.57703600  1
  H  H16  1  0.76151500  0.68861900  0.81437500  1
  H  H17  1  0.23848500  0.68861900  0.31437500  1
  H  H18  1  0.26151500  0.81138100  0.81437500  1
  H  H19  1  0.73848500  0.81138100  0.31437500  1
  H  H20  1  0.44403000  0.97039900  0.57703600  1
  H  H21  1  0.55597000  0.97039900  0.07703600  1
  H  H22  1  0.06778000  0.02037900  0.41351700  1
  H  H23  1  0.93222000  0.02037900  0.91351700  1
  Se  Se0  1  0.33015700  0.24542300  0.32539400  1
  Se  Se1  1  0.66984300  0.24542300  0.82539400  1
  Se  Se2  1  0.16984300  0.25457700  0.82539400  1
  Se  Se3  1  0.83015700  0.25457700  0.32539400  1
  Se  Se4  1  0.16984300  0.74542300  0.67460600  1
  Se  Se5  1  0.83015700  0.74542300  0.17460600  1
  Se  Se6  1  0.33015700  0.75457700  0.17460600  1
  Se  Se7  1  0.66984300  0.75457700  0.67460600  1
  O  O0  1  0.56833900  0.04001100  0.11745600  1
  O  O1  1  0.43166100  0.04001100  0.61745600  1
  O  O2  1  0.09139500  0.04691300  0.12617400  1
  O  O3  1  0.90860500  0.04691300  0.62617400  1
  O  O4  1  0.33436800  0.11046800  0.28360100  1
  O  O5  1  0.66563200  0.11046800  0.78360100  1
  O  O6  1  0.96772500  0.13874000  0.00268400  1
  O  O7  1  0.03227500  0.13874000  0.50268400  1
  O  O8  1  0.54112100  0.14851400  0.49349500  1
  O  O9  1  0.45887900  0.14851400  0.99349500  1
  O  O10  1  0.82750100  0.15802200  0.21895100  1
  O  O11  1  0.17249900  0.15802200  0.71895100  1
  O  O12  1  0.02037000  0.23174400  0.35362700  1
  O  O13  1  0.97963000  0.23174400  0.85362700  1
  O  O14  1  0.24622600  0.22946100  0.44323100  1
  O  O15  1  0.75377400  0.22946100  0.94323100  1
  O  O16  1  0.42080500  0.24429100  0.62036400  1
  O  O17  1  0.57919500  0.24429100  0.12036400  1
  O  O18  1  0.07919500  0.25570900  0.12036400  1
  O  O19  1  0.92080500  0.25570900  0.62036400  1
  O  O20  1  0.74622600  0.27053900  0.44323100  1
  O  O21  1  0.25377400  0.27053900  0.94323100  1
  O  O22  1  0.47963000  0.26825600  0.85362700  1
  O  O23  1  0.52037000  0.26825600  0.35362700  1
  O  O24  1  0.32750100  0.34197800  0.21895100  1
  O  O25  1  0.67249900  0.34197800  0.71895100  1
  O  O26  1  0.04112100  0.35148600  0.49349500  1
  O  O27  1  0.95887900  0.35148600  0.99349500  1
  O  O28  1  0.53227500  0.36126000  0.50268400  1
  O  O29  1  0.46772500  0.36126000  0.00268400  1
  O  O30  1  0.83436800  0.38953200  0.28360100  1
  O  O31  1  0.16563200  0.38953200  0.78360100  1
  O  O32  1  0.59139500  0.45308700  0.12617400  1
  O  O33  1  0.40860500  0.45308700  0.62617400  1
  O  O34  1  0.06833900  0.45998900  0.11745600  1
  O  O35  1  0.93166100  0.45998900  0.61745600  1
  O  O36  1  0.06833900  0.54001100  0.38254400  1
  O  O37  1  0.93166100  0.54001100  0.88254400  1
  O  O38  1  0.59139500  0.54691300  0.37382600  1
  O  O39  1  0.40860500  0.54691300  0.87382600  1
  O  O40  1  0.83436800  0.61046800  0.21639900  1
  O  O41  1  0.16563200  0.61046800  0.71639900  1
  O  O42  1  0.46772500  0.63874000  0.49731600  1
  O  O43  1  0.53227500  0.63874000  0.99731600  1
  O  O44  1  0.04112100  0.64851400  0.00650500  1
  O  O45  1  0.95887900  0.64851400  0.50650500  1
  O  O46  1  0.32750100  0.65802200  0.28104900  1
  O  O47  1  0.67249900  0.65802200  0.78104900  1
  O  O48  1  0.47963000  0.73174400  0.64637300  1
  O  O49  1  0.52037000  0.73174400  0.14637300  1
  O  O50  1  0.25377400  0.72946100  0.55676900  1
  O  O51  1  0.74622600  0.72946100  0.05676900  1
  O  O52  1  0.92080500  0.74429100  0.87963600  1
  O  O53  1  0.07919500  0.74429100  0.37963600  1
  O  O54  1  0.42080500  0.75570900  0.87963600  1
  O  O55  1  0.57919500  0.75570900  0.37963600  1
  O  O56  1  0.24622600  0.77053900  0.05676900  1
  O  O57  1  0.75377400  0.77053900  0.55676900  1
  O  O58  1  0.02037000  0.76825600  0.14637300  1
  O  O59  1  0.97963000  0.76825600  0.64637300  1
  O  O60  1  0.17249900  0.84197800  0.78104900  1
  O  O61  1  0.82750100  0.84197800  0.28104900  1
  O  O62  1  0.45887900  0.85148600  0.50650500  1
  O  O63  1  0.54112100  0.85148600  0.00650500  1
  O  O64  1  0.03227500  0.86126000  0.99731600  1
  O  O65  1  0.96772500  0.86126000  0.49731600  1
  O  O66  1  0.33436800  0.88953200  0.21639900  1
  O  O67  1  0.66563200  0.88953200  0.71639900  1
  O  O68  1  0.09139500  0.95308700  0.37382600  1
  O  O69  1  0.90860500  0.95308700  0.87382600  1
  O  O70  1  0.43166100  0.95998900  0.88254400  1
  O  O71  1  0.56833900  0.95998900  0.38254400  1
loop_
_geom_bond_atom_site_label_1
_geom_bond_atom_site_label_2
_geom_bond_distance
_geom_bond_site_symmetry_2
Li0 O4 1.975410 1_555
Li0 O66 1.975410 1_545
Li0 O68 2.034686 1_545
Li0 O2 2.034686 1_555
Li1 O4 2.014276 1_555
Li1 O66 2.014276 1_545
Li1 O71 2.087841 1_545
Li1 O0 2.087841 1_555
Li2 O5 2.014276 1_555
Li2 O67 2.014276 1_545
Li2 O1 2.087841 1_555
Li2 O70 2.087841 1_545
Li3 O67 1.975410 1_545
Li3 O5 1.975410 1_555
Li3 O3 2.034686 1_555
Li3 O69 2.034686 1_545
Li4 O30 1.975410 1_555
Li4 O40 1.975410 1_555
Li4 O38 2.034686 1_555
Li4 O32 2.034686 1_555
Li5 O41 2.014276 1_655
Li5 O31 2.014276 1_655
Li5 O37 2.087841 1_555
Li5 O35 2.087841 1_555
Li6 O41 1.975410 1_555
Li6 O31 1.975410 1_555
Li6 O39 2.034686 1_555
Li6 O33 2.034686 1_555
Li7 O30 2.014276 1_455
Li7 O40 2.014276 1_455
Li7 O36 2.087841 1_555
Li7 O34 2.087841 1_555
B0 O6 1.367092 1_455
B0 O2 1.375094 1_555
B0 O18 1.400826 1_555
B1 O7 1.367092 1_655
B1 O3 1.375094 1_555
B1 O19 1.400826 1_555
B2 O9 1.373065 1_554
B2 O0 1.375528 1_555
B2 O17 1.395266 1_555
B3 O8 1.373065 1_555
B3 O1 1.375528 1_555
B3 O16 1.395266 1_555
B4 O7 1.453763 1_555
B4 O14 1.476318 1_555
B4 O26 1.477516 1_555
B4 O12 1.533944 1_555
B5 O6 1.453763 1_556
B5 O15 1.476318 1_555
B5 O27 1.477516 1_555
B5 O13 1.533944 1_555
B6 O29 1.453763 1_556
B6 O21 1.476318 1_555
B6 O9 1.477516 1_555
B6 O22 1.533944 1_555
B7 O28 1.453763 1_555
B7 O20 1.476318 1_555
B7 O8 1.477516 1_555
B7 O23 1.533944 1_555
B8 O27 1.373065 1_454
B8 O34 1.375528 1_555
B8 O18 1.395266 1_555
B9 O26 1.373065 1_655
B9 O35 1.375528 1_555
B9 O19 1.395266 1_555
B10 O29 1.367092 1_555
B10 O32 1.375094 1_555
B10 O17 1.400826 1_555
B11 O28 1.367092 1_555
B11 O33 1.375094 1_555
B11 O16 1.400826 1_555
B12 O43 1.367092 1_555
B12 O39 1.375094 1_555
B12 O54 1.400826 1_555
B13 O42 1.367092 1_555
B13 O38 1.375094 1_555
B13 O55 1.400826 1_555
B14 O45 1.373065 1_455
B14 O36 1.375528 1_555
B14 O53 1.395266 1_555
B15 O44 1.373065 1_656
B15 O37 1.375528 1_555
B15 O52 1.395266 1_555
B16 O42 1.453763 1_555
B16 O50 1.476318 1_555
B16 O62 1.477516 1_555
B16 O48 1.533944 1_555
B17 O43 1.453763 1_554
B17 O51 1.476318 1_555
B17 O63 1.477516 1_555
B17 O49 1.533944 1_555
B18 O64 1.453763 1_554
B18 O56 1.476318 1_555
B18 O44 1.477516 1_555
B18 O58 1.533944 1_555
B19 O65 1.453763 1_555
B19 O57 1.476318 1_555
B19 O45 1.477516 1_555
B19 O59 1.533944 1_555
B20 O63 1.373065 1_556
B20 O70 1.375528 1_555
B20 O54 1.395266 1_555
B21 O62 1.373065 1_555
B21 O71 1.375528 1_555
B21 O55 1.395266 1_555
B22 O65 1.367092 1_455
B22 O68 1.375094 1_555
B22 O53 1.400826 1_555
B23 O64 1.367092 1_655
B23 O69 1.375094 1_555
B23 O52 1.400826 1_555
H0 O2 0.990155 1_565
H1 O3 0.990155 1_565
H2 O71 1.001165 1_545
H3 O70 1.001165 1_545
H4 O11 0.999308 1_555
H5 O10 0.999308 1_555
H6 O24 0.999308 1_555
H7 O25 0.999308 1_555
H8 O36 1.001165 1_555
H9 O37 1.001165 1_555
H10 O32 0.990155 1_555
H11 O33 0.990155 1_555
H12 O39 0.990155 1_555
H13 O38 0.990155 1_555
H14 O34 1.001165 1_555
H15 O35 1.001165 1_555
H16 O47 0.999308 1_555
H17 O46 0.999308 1_555
H18 O60 0.999308 1_555
H19 O61 0.999308 1_555
H20 O1 1.001165 1_565
H21 O0 1.001165 1_565
H22 O68 0.990155 1_545
H23 O69 0.990155 1_545
O4 Se0 1.666955 1_555
O5 Se1 1.666955 1_555
O10 Se3 1.914075 1_555
O11 Se2 1.914075 1_555
O12 Se3 1.773905 1_455
O13 Se2 1.773905 1_655
O14 Se0 1.892591 1_555
O15 Se1 1.892591 1_555
O20 Se3 1.892591 1_555
O21 Se2 1.892591 1_555
O22 Se1 1.773905 1_555
O23 Se0 1.773905 1_555
O24 Se0 1.914075 1_555
O25 Se1 1.914075 1_555
O30 Se3 1.666955 1_555
O31 Se2 1.666955 1_555
O40 Se5 1.666955 1_555
O41 Se4 1.666955 1_555
O46 Se6 1.914075 1_555
O47 Se7 1.914075 1_555
O48 Se7 1.773905 1_555
O49 Se6 1.773905 1_555
O50 Se4 1.892591 1_555
O51 Se5 1.892591 1_555
O56 Se6 1.892591 1_555
O57 Se7 1.892591 1_555
O58 Se5 1.773905 1_455
O59 Se4 1.773905 1_655
O60 Se4 1.914075 1_555
O61 Se5 1.914075 1_555
O66 Se6 1.666955 1_555
O67 Se7 1.666955 1_555
