# generated using pymatgen
data_Li5Fe5(CoO6)2
_symmetry_space_group_name_H-M   'P 1'
_cell_length_a   5.17616882
_cell_length_b   5.17616882
_cell_length_c   9.87180400
_cell_angle_alpha   84.96378133
_cell_angle_beta   84.96378133
_cell_angle_gamma   119.61160741
_symmetry_Int_Tables_number   1
_chemical_formula_structural   Li5Fe5(CoO6)2
_chemical_formula_sum   'Li5 Fe5 Co2 O12'
_cell_volume   226.41844711
_cell_formula_units_Z   1
loop_
 _symmetry_equiv_pos_site_id
 _symmetry_equiv_pos_as_xyz
  1  'x, y, z'
loop_
 _atom_site_type_symbol
 _atom_site_label
 _atom_site_symmetry_multiplicity
 _atom_site_fract_x
 _atom_site_fract_y
 _atom_site_fract_z
 _atom_site_occupancy
  Li  Li0  1  0.83271700  0.66300600  0.25772700  1
  Li  Li1  1  0.67689100  0.84302800  0.74075200  1
  Li  Li2  1  0.33699400  0.16728300  0.74227300  1
  Li  Li3  1  0.15697200  0.32310900  0.25924800  1
  Li  Li4  1  0.08077100  0.91922900  0.50000000  1
  Fe  Fe0  1  0.91636500  0.08363500  0.00000000  1
  Fe  Fe1  1  0.00260900  0.51189500  0.73576200  1
  Fe  Fe2  1  0.48810500  0.99739100  0.26423800  1
  Fe  Fe3  1  0.57933100  0.42066900  0.00000000  1
  Fe  Fe4  1  0.42458600  0.57541400  0.50000000  1
  Co  Co0  1  0.75130100  0.24869900  0.50000000  1
  Co  Co1  1  0.24883600  0.75116400  0.00000000  1
  O  O0  1  0.05485300  0.23389800  0.62524400  1
  O  O1  1  0.76610200  0.94514700  0.37475600  1
  O  O2  1  0.84744100  0.35095700  0.12191500  1
  O  O3  1  0.64904300  0.15255900  0.87808500  1
  O  O4  1  0.71257600  0.54071200  0.62417200  1
  O  O5  1  0.45928800  0.28742400  0.37582800  1
  O  O6  1  0.55359700  0.72266900  0.11594200  1
  O  O7  1  0.27733100  0.44640300  0.88405800  1
  O  O8  1  0.37129500  0.85198000  0.62678200  1
  O  O9  1  0.14802000  0.62870500  0.37321800  1
  O  O10  1  0.21806100  0.05308300  0.11909200  1
  O  O11  1  0.94691700  0.78193900  0.88090800  1
loop_
_geom_bond_atom_site_label_1
_geom_bond_atom_site_label_2
_geom_bond_distance
_geom_bond_site_symmetry_2
Li0 O1 2.076127 1_555
Li0 O5 2.089917 1_555
Li0 O9 2.138339 1_655
Li0 O6 2.204974 1_555
Li0 O2 2.212727 1_555
Li0 O10 2.232459 1_665
Li1 O8 2.036138 1_555
Li1 O4 2.090888 1_555
Li1 O0 2.124320 1_665
Li1 O11 2.160407 1_555
Li1 O3 2.236302 1_565
Li1 O7 2.296498 1_555
Li2 O0 2.076127 1_555
Li2 O4 2.089917 1_555
Li2 O8 2.138339 1_545
Li2 O7 2.204974 1_555
Li2 O3 2.212727 1_555
Li2 O11 2.232459 1_445
Li3 O9 2.036138 1_555
Li3 O5 2.090888 1_555
Li3 O1 2.124320 1_445
Li3 O10 2.160407 1_555
Li3 O2 2.236302 1_455
Li3 O6 2.296498 1_555
Li4 O4 2.109880 1_455
Li4 O5 2.109880 1_565
Li4 O8 2.172617 1_555
Li4 O9 2.172617 1_555
Li4 O0 2.177143 1_565
Li4 O1 2.177143 1_455
Fe0 O6 2.026573 1_545
Fe0 O7 2.026573 1_654
Fe0 O2 2.048224 1_555
Fe0 O3 2.048224 1_554
Fe0 O10 2.092750 1_655
Fe0 O11 2.092750 1_544
Fe1 O8 1.971110 1_555
Fe1 O0 1.985554 1_555
Fe1 O4 1.993074 1_455
Fe1 O3 2.123359 1_455
Fe1 O11 2.183419 1_455
Fe1 O7 2.243863 1_555
Fe2 O9 1.971110 1_555
Fe2 O1 1.985554 1_555
Fe2 O5 1.993074 1_565
Fe2 O2 2.123359 1_565
Fe2 O10 2.183419 1_565
Fe2 O6 2.243863 1_555
Fe3 O10 2.050458 1_555
Fe3 O11 2.050458 1_554
Fe3 O3 2.053408 1_554
Fe3 O2 2.053408 1_555
Fe3 O6 2.065064 1_555
Fe3 O7 2.065064 1_554
Fe4 O0 2.042969 1_555
Fe4 O1 2.042969 1_555
Fe4 O5 2.074552 1_555
Fe4 O4 2.074552 1_555
Fe4 O9 2.082317 1_555
Fe4 O8 2.082317 1_555
Co0 O5 2.099762 1_555
Co0 O4 2.099762 1_555
Co0 O1 2.108720 1_545
Co0 O0 2.108720 1_655
Co0 O8 2.185663 1_545
Co0 O9 2.185663 1_655
Co1 O6 2.082678 1_555
Co1 O7 2.082678 1_554
Co1 O10 2.094168 1_565
Co1 O11 2.094168 1_454
Co1 O3 2.219549 1_564
Co1 O2 2.219549 1_455
