# generated using pymatgen
data_TmZnRh2
_symmetry_space_group_name_H-M   'P 1'
_cell_length_a   4.48579129
_cell_length_b   4.48579490
_cell_length_c   4.48579273
_cell_angle_alpha   60.00000532
_cell_angle_beta   59.99995745
_cell_angle_gamma   59.99999468
_symmetry_Int_Tables_number   1
_chemical_formula_structural   TmZnRh2
_chemical_formula_sum   'Tm1 Zn1 Rh2'
_cell_volume   63.82672210
_cell_formula_units_Z   1
loop_
 _symmetry_equiv_pos_site_id
 _symmetry_equiv_pos_as_xyz
  1  'x, y, z'
loop_
 _atom_site_type_symbol
 _atom_site_label
 _atom_site_symmetry_multiplicity
 _atom_site_fract_x
 _atom_site_fract_y
 _atom_site_fract_z
 _atom_site_occupancy
  Tm  Tm0  1  0.24999900  0.24999900  0.24999900  1
  Zn  Zn0  1  0.75000100  0.75000100  0.75000100  1
  Rh  Rh0  1  0.99999900  0.00000100  0.00000000  1
  Rh  Rh1  1  0.50000100  0.49999900  0.49999900  1
loop_
_geom_bond_atom_site_label_1
_geom_bond_atom_site_label_2
_geom_bond_distance
_geom_bond_site_symmetry_2
Rh0 Tm0 2.746965 1_655
Rh0 Zn0 2.746965 1_544
Rh0 Tm0 2.746974 1_555
Rh0 Zn0 2.746977 1_554
Rh0 Tm0 2.746979 1_654
Rh0 Zn0 2.746979 1_545
Rh0 Zn0 2.746981 1_644
Rh0 Tm0 2.746985 1_645
Rh1 Tm0 2.746967 1_655
Rh1 Zn0 2.746968 1_554
Rh1 Zn0 2.746970 1_545
Rh1 Zn0 2.746974 1_455
Rh1 Tm0 2.746975 1_556
Rh1 Tm0 2.746977 1_565
Rh1 Tm0 2.746984 1_555
Rh1 Zn0 2.746991 1_555
