# generated using pymatgen
data_Ho2S3
_symmetry_space_group_name_H-M   'P 1'
_cell_length_a   3.83663402
_cell_length_b   10.44553772
_cell_length_c   10.55771936
_cell_angle_alpha   90.00000000
_cell_angle_beta   90.00000000
_cell_angle_gamma   90.00000000
_symmetry_Int_Tables_number   1
_chemical_formula_structural   Ho2S3
_chemical_formula_sum   'Ho8 S12'
_cell_volume   423.10805049
_cell_formula_units_Z   4
loop_
 _symmetry_equiv_pos_site_id
 _symmetry_equiv_pos_as_xyz
  1  'x, y, z'
loop_
 _atom_site_type_symbol
 _atom_site_label
 _atom_site_symmetry_multiplicity
 _atom_site_fract_x
 _atom_site_fract_y
 _atom_site_fract_z
 _atom_site_occupancy
  Ho  Ho0  1  0.25000000  0.99582947  0.80803764  1
  Ho  Ho1  1  0.75000000  0.00417053  0.19196236  1
  Ho  Ho2  1  0.75000000  0.49582947  0.69196236  1
  Ho  Ho3  1  0.25000000  0.50417053  0.30803764  1
  Ho  Ho4  1  0.25000000  0.18686671  0.48974809  1
  Ho  Ho5  1  0.75000000  0.81313329  0.51025191  1
  Ho  Ho6  1  0.75000000  0.68686671  0.01025191  1
  Ho  Ho7  1  0.25000000  0.31313329  0.98974809  1
  S  S0  1  0.25000000  0.30520990  0.72710620  1
  S  S1  1  0.75000000  0.69479010  0.27289380  1
  S  S2  1  0.75000000  0.80520990  0.77289380  1
  S  S3  1  0.25000000  0.19479010  0.22710620  1
  S  S4  1  0.25000000  0.94452403  0.38127537  1
  S  S5  1  0.75000000  0.05547597  0.61872463  1
  S  S6  1  0.75000000  0.44452403  0.11872463  1
  S  S7  1  0.25000000  0.55547597  0.88127537  1
  S  S8  1  0.25000000  0.87312110  0.04602639  1
  S  S9  1  0.75000000  0.12687890  0.95397361  1
  S  S10  1  0.75000000  0.37312110  0.45397361  1
  S  S11  1  0.25000000  0.62687890  0.54602639  1
loop_
_geom_bond_atom_site_label_1
_geom_bond_atom_site_label_2
_geom_bond_distance
_geom_bond_site_symmetry_2
Ho0 S2 2.789657 1_455
Ho0 S2 2.789657 1_555
Ho0 S9 2.815616 1_465
Ho0 S9 2.815616 1_565
Ho0 S8 2.820664 1_556
Ho0 S5 2.839538 1_465
Ho0 S5 2.839538 1_565
Ho0 S0 3.342696 1_565
Ho1 S3 2.789657 1_555
Ho1 S3 2.789657 1_655
Ho1 S8 2.815616 1_645
Ho1 S8 2.815616 1_545
Ho1 S9 2.820664 1_554
Ho1 S4 2.839538 1_645
Ho1 S4 2.839538 1_545
Ho1 S1 3.342696 1_545
Ho2 S0 2.789657 1_655
Ho2 S0 2.789657 1_555
Ho2 S11 2.815616 1_655
Ho2 S11 2.815616 1_555
Ho2 S10 2.820664 1_555
Ho2 S7 2.839538 1_555
Ho2 S7 2.839538 1_655
Ho2 S2 3.342696 1_555
Ho3 S1 2.789657 1_455
Ho3 S1 2.789657 1_555
Ho3 S10 2.815616 1_455
Ho3 S10 2.815616 1_555
Ho3 S11 2.820664 1_555
Ho3 S6 2.839538 1_555
Ho3 S6 2.839538 1_455
Ho3 S3 3.342696 1_555
Ho4 S5 2.723559 1_455
Ho4 S5 2.723559 1_555
Ho4 S10 2.758201 1_455
Ho4 S10 2.758201 1_555
Ho4 S3 2.774134 1_555
Ho4 S4 2.778403 1_545
Ho4 S0 2.794266 1_555
Ho5 S4 2.723559 1_655
Ho5 S4 2.723559 1_555
Ho5 S11 2.758201 1_555
Ho5 S11 2.758201 1_655
Ho5 S2 2.774134 1_555
Ho5 S5 2.778403 1_565
Ho5 S1 2.794266 1_555
Ho6 S7 2.723559 1_654
Ho6 S7 2.723559 1_554
Ho6 S8 2.758201 1_555
Ho6 S8 2.758201 1_655
Ho6 S1 2.774134 1_555
Ho6 S6 2.778403 1_555
Ho6 S2 2.794266 1_554
Ho7 S6 2.723559 1_456
Ho7 S6 2.723559 1_556
Ho7 S9 2.758201 1_455
Ho7 S9 2.758201 1_555
Ho7 S0 2.774134 1_555
Ho7 S7 2.778403 1_555
Ho7 S3 2.794266 1_556
