# generated using pymatgen
data_TmSnRu2
_symmetry_space_group_name_H-M   'P 1'
_cell_length_a   4.60948579
_cell_length_b   4.60948579
_cell_length_c   4.60948579
_cell_angle_alpha   60.00000000
_cell_angle_beta   60.00000000
_cell_angle_gamma   60.00000000
_symmetry_Int_Tables_number   1
_chemical_formula_structural   TmSnRu2
_chemical_formula_sum   'Tm1 Sn1 Ru2'
_cell_volume   69.25361427
_cell_formula_units_Z   1
loop_
 _symmetry_equiv_pos_site_id
 _symmetry_equiv_pos_as_xyz
  1  'x, y, z'
loop_
 _atom_site_type_symbol
 _atom_site_label
 _atom_site_symmetry_multiplicity
 _atom_site_fract_x
 _atom_site_fract_y
 _atom_site_fract_z
 _atom_site_occupancy
  Tm  Tm0  1  0.74999900  0.74999900  0.74999900  1
  Sn  Sn0  1  0.24999900  0.24999900  0.24999900  1
  Ru  Ru0  1  0.00000000  0.00000000  0.00000000  1
  Ru  Ru1  1  0.50000000  0.50000000  0.50000000  1
loop_
_geom_bond_atom_site_label_1
_geom_bond_atom_site_label_2
_geom_bond_distance
_geom_bond_site_symmetry_2
Sn0 Tm0 3.259399 1_455
Sn0 Tm0 3.259399 1_554
Sn0 Tm0 3.259399 1_454
Sn0 Tm0 3.259399 1_544
Sn0 Tm0 3.259399 1_545
Sn0 Tm0 3.259399 1_445
Ru0 Sn0 2.822711 1_555
Ru0 Tm0 2.822718 1_454
Ru0 Tm0 2.822718 1_544
Ru0 Tm0 2.822718 1_445
Ru0 Sn0 2.822726 1_455
Ru0 Sn0 2.822726 1_554
Ru0 Sn0 2.822726 1_545
Ru0 Tm0 2.822733 1_444
Ru1 Tm0 2.822711 1_555
Ru1 Sn0 2.822718 1_556
Ru1 Sn0 2.822718 1_565
Ru1 Sn0 2.822718 1_655
Ru1 Tm0 2.822726 1_554
Ru1 Tm0 2.822726 1_545
Ru1 Tm0 2.822726 1_455
Ru1 Sn0 2.822733 1_555
