# generated using pymatgen
data_K3TaF8
_symmetry_space_group_name_H-M   'P 1'
_cell_length_a   8.21167670
_cell_length_b   8.21169379
_cell_length_c   6.21952323
_cell_angle_alpha   89.99974431
_cell_angle_beta   90.00032267
_cell_angle_gamma   120.00037749
_symmetry_Int_Tables_number   1
_chemical_formula_structural   K3TaF8
_chemical_formula_sum   'K6 Ta2 F16'
_cell_volume   363.20403342
_cell_formula_units_Z   2
loop_
 _symmetry_equiv_pos_site_id
 _symmetry_equiv_pos_as_xyz
  1  'x, y, z'
loop_
 _atom_site_type_symbol
 _atom_site_label
 _atom_site_symmetry_multiplicity
 _atom_site_fract_x
 _atom_site_fract_y
 _atom_site_fract_z
 _atom_site_occupancy
  K  K0  1  0.15427737  0.30855751  0.24521711  1
  K  K1  1  0.84572432  0.69144445  0.74521774  1
  K  K2  1  0.69144246  0.84572183  0.24521762  1
  K  K3  1  0.15427808  0.84572246  0.24521740  1
  K  K4  1  0.84572054  0.15427871  0.74521804  1
  K  K5  1  0.30855777  0.15427916  0.74521691  1
  Ta  Ta0  1  0.33334754  0.66666438  0.73958762  1
  Ta  Ta1  1  0.66665494  0.33333641  0.23958497  1
  F  F0  1  -0.00000059  0.00000055  0.00404391  1
  F  F1  1  -0.00000047  0.00000073  0.50404378  1
  F  F2  1  0.43855531  0.56144246  0.53177836  1
  F  F3  1  0.56144538  0.43855366  0.03178122  1
  F  F4  1  0.43855777  0.87711670  0.53177058  1
  F  F5  1  0.12287970  0.56144026  0.53176821  1
  F  F6  1  0.87711664  0.43855797  0.03177043  1
  F  F7  1  0.56144267  0.12288529  0.03177469  1
  F  F8  1  0.33333214  0.66666695  0.05636297  1
  F  F9  1  0.66666705  0.33333250  0.55637019  1
  F  F10  1  0.20021948  0.79978036  0.81806259  1
  F  F11  1  0.79978270  0.20021767  0.31806381  1
  F  F12  1  0.20022212  0.40044852  0.81805997  1
  F  F13  1  0.59954558  0.79977351  0.81805890  1
  F  F14  1  0.40045471  0.20022611  0.31805832  1
  F  F15  1  0.79977677  0.59955187  0.31806065  1
loop_
_geom_bond_atom_site_label_1
_geom_bond_atom_site_label_2
_geom_bond_distance
_geom_bond_site_symmetry_2
F0 K3 2.657993 1_545
F0 K0 2.657995 1_555
F0 K2 2.657995 1_445
F0 K1 2.721459 1_444
F0 K4 2.721462 1_454
F0 K5 2.721474 1_554
F1 K1 2.657989 1_445
F1 K5 2.657991 1_555
F1 K4 2.658012 1_455
F1 K2 2.721453 1_445
F1 K0 2.721460 1_555
F1 K3 2.721477 1_545
F2 Ta0 1.977363 1_555
F2 K0 2.844386 1_555
F2 K2 2.844399 1_555
F3 Ta1 1.977314 1_555
F3 K5 2.844394 1_554
F3 K1 2.844418 1_554
F4 Ta0 1.977503 1_555
F4 K3 2.844364 1_555
F4 K2 2.844379 1_555
F5 Ta0 1.977592 1_555
F5 K3 2.844366 1_555
F5 K0 2.844372 1_555
F6 Ta1 1.977547 1_555
F6 K1 2.844368 1_554
F6 K4 2.844370 1_554
F7 Ta1 1.977473 1_555
F7 K5 2.844379 1_554
F7 K4 2.844383 1_554
F8 Ta0 1.970192 1_554
F8 K0 2.804515 1_555
F8 K2 2.804515 1_555
F8 K3 2.804536 1_555
F9 Ta1 1.970253 1_555
F9 K4 2.804491 1_555
F9 K5 2.804496 1_555
F9 K1 2.804518 1_555
F10 Ta0 1.955304 1_555
F10 K1 2.623143 1_455
F10 K5 2.623175 1_565
F10 K3 2.735881 1_556
F11 Ta1 1.955322 1_555
F11 K0 2.623139 1_655
F11 K2 2.623152 1_545
F11 K4 2.735859 1_555
F12 Ta0 1.955094 1_555
F12 K4 2.623192 1_455
F12 K5 2.623236 1_555
F12 K0 2.735902 1_556
F13 Ta0 1.954965 1_555
F13 K4 2.623226 1_565
F13 K1 2.623265 1_555
F13 K2 2.735920 1_556
F14 Ta1 1.954987 1_555
F14 K3 2.623220 1_545
F14 K0 2.623263 1_555
F14 K5 2.735925 1_555
F15 Ta1 1.955098 1_555
F15 K3 2.623196 1_655
F15 K2 2.623228 1_555
F15 K1 2.735907 1_555
