# generated using pymatgen
data_Pm3Pb
_symmetry_space_group_name_H-M   'P 1'
_cell_length_a   4.94401984
_cell_length_b   4.94408272
_cell_length_c   4.94407644
_cell_angle_alpha   89.99990289
_cell_angle_beta   89.99975710
_cell_angle_gamma   90.00002434
_symmetry_Int_Tables_number   1
_chemical_formula_structural   Pm3Pb
_chemical_formula_sum   'Pm3 Pb1'
_cell_volume   120.85123975
_cell_formula_units_Z   1
loop_
 _symmetry_equiv_pos_site_id
 _symmetry_equiv_pos_as_xyz
  1  'x, y, z'
loop_
 _atom_site_type_symbol
 _atom_site_label
 _atom_site_symmetry_multiplicity
 _atom_site_fract_x
 _atom_site_fract_y
 _atom_site_fract_z
 _atom_site_occupancy
  Pm  Pm0  1  -0.00000000  0.50000000  0.50000000  1
  Pm  Pm1  1  0.50000000  0.50000000  -0.00000000  1
  Pm  Pm2  1  0.50000000  -0.00000000  0.50000000  1
  Pb  Pb0  1  -0.00000000  -0.00000000  0.00000000  1
loop_
_geom_bond_atom_site_label_1
_geom_bond_atom_site_label_2
_geom_bond_distance
_geom_bond_site_symmetry_2
Pb0 Pm2 3.495963 1_455
Pb0 Pm2 3.495963 1_554
Pb0 Pm1 3.495971 1_445
Pb0 Pm1 3.495971 1_555
Pb0 Pm1 3.495973 1_455
Pb0 Pm1 3.495973 1_545
Pb0 Pm2 3.495977 1_555
Pb0 Pm2 3.495977 1_454
Pb0 Pm0 3.495989 1_545
Pb0 Pm0 3.495989 1_554
Pb0 Pm0 3.495995 1_544
Pb0 Pm0 3.495995 1_555
