# generated using pymatgen
data_K2Sn2Se5
_symmetry_space_group_name_H-M   'P 1'
_cell_length_a   7.14338346
_cell_length_b   7.14338328
_cell_length_c   12.09595942
_cell_angle_alpha   75.06865752
_cell_angle_beta   75.06865434
_cell_angle_gamma   70.45398751
_symmetry_Int_Tables_number   1
_chemical_formula_structural   K2Sn2Se5
_chemical_formula_sum   'K4 Sn4 Se10'
_cell_volume   551.96919777
_cell_formula_units_Z   2
loop_
 _symmetry_equiv_pos_site_id
 _symmetry_equiv_pos_as_xyz
  1  'x, y, z'
loop_
 _atom_site_type_symbol
 _atom_site_label
 _atom_site_symmetry_multiplicity
 _atom_site_fract_x
 _atom_site_fract_y
 _atom_site_fract_z
 _atom_site_occupancy
  K  K0  1  0.56258820  0.89793844  0.68055552  1
  K  K1  1  0.10206156  0.43741180  0.81944448  1
  K  K2  1  0.43741180  0.10206156  0.31944448  1
  K  K3  1  0.89793844  0.56258820  0.18055552  1
  Sn  Sn0  1  0.75245665  0.05725740  0.94171681  1
  Sn  Sn1  1  0.05725740  0.75245665  0.44171681  1
  Sn  Sn2  1  0.24754335  0.94274260  0.05828319  1
  Sn  Sn3  1  0.94274260  0.24754335  0.55828319  1
  Se  Se0  1  0.32005385  0.67994615  0.25000000  1
  Se  Se1  1  0.67994615  0.32005385  0.75000000  1
  Se  Se2  1  0.74116606  0.64824789  0.46194876  1
  Se  Se3  1  0.88226944  0.15526179  0.38015570  1
  Se  Se4  1  0.35175211  0.25883394  0.03805124  1
  Se  Se5  1  0.25883394  0.35175211  0.53805124  1
  Se  Se6  1  0.64824789  0.74116606  0.96194876  1
  Se  Se7  1  0.11773056  0.84473821  0.61984430  1
  Se  Se8  1  0.15526179  0.88226944  0.88015570  1
  Se  Se9  1  0.84473821  0.11773056  0.11984430  1
loop_
_geom_bond_atom_site_label_1
_geom_bond_atom_site_label_2
_geom_bond_distance
_geom_bond_site_symmetry_2
K0 Se8 3.281225 1_555
K0 Se2 3.312172 1_555
K0 Se6 3.444466 1_555
K0 Se5 3.539714 1_565
K0 Se7 3.596737 1_555
K0 Se1 3.722931 1_565
K0 Se7 3.747579 1_655
K0 Se1 3.835303 1_555
K1 Se7 3.281225 1_555
K1 Se4 3.312172 1_556
K1 Se5 3.444466 1_555
K1 Se6 3.539714 1_455
K1 Se8 3.596737 1_555
K1 Se1 3.722931 1_455
K1 Se8 3.747579 1_545
K1 Se1 3.835303 1_555
K2 Se9 3.281225 1_555
K2 Se5 3.312172 1_555
K2 Se4 3.444466 1_555
K2 Se2 3.539714 1_545
K2 Se3 3.596737 1_555
K2 Se0 3.722931 1_545
K2 Se3 3.747579 1_455
K2 Se0 3.835303 1_555
K3 Se3 3.281225 1_555
K3 Se6 3.312172 1_554
K3 Se2 3.444466 1_555
K3 Se4 3.539714 1_655
K3 Se9 3.596737 1_555
K3 Se0 3.722931 1_655
K3 Se9 3.747579 1_565
K3 Se0 3.835303 1_555
Se0 Sn1 2.625854 1_555
Se0 Sn2 2.625855 1_555
Se1 Sn3 2.625854 1_555
Se1 Sn0 2.625855 1_555
Se2 Sn1 2.541353 1_655
Se2 Sn3 2.830624 1_555
Se3 Sn3 2.581796 1_555
Se3 Sn1 2.713894 1_645
Se4 Sn2 2.541353 1_545
Se4 Sn0 2.830623 1_554
Se5 Sn3 2.541353 1_455
Se5 Sn1 2.830624 1_555
Se6 Sn0 2.541353 1_565
Se6 Sn2 2.830623 1_556
Se7 Sn1 2.581796 1_555
Se7 Sn3 2.713894 1_465
Se8 Sn2 2.581796 1_556
Se8 Sn0 2.713894 1_465
Se9 Sn0 2.581796 1_554
Se9 Sn2 2.713894 1_645
