# generated using pymatgen
data_Li9Mn5(SiO8)2
_symmetry_space_group_name_H-M   'P 1'
_cell_length_a   5.07702900
_cell_length_b   5.32971205
_cell_length_c   10.97995468
_cell_angle_alpha   87.29489465
_cell_angle_beta   80.09576086
_cell_angle_gamma   84.00861087
_symmetry_Int_Tables_number   1
_chemical_formula_structural   Li9Mn5(SiO8)2
_chemical_formula_sum   'Li9 Mn5 Si2 O16'
_cell_volume   290.95138343
_cell_formula_units_Z   1
loop_
 _symmetry_equiv_pos_site_id
 _symmetry_equiv_pos_as_xyz
  1  'x, y, z'
loop_
 _atom_site_type_symbol
 _atom_site_label
 _atom_site_symmetry_multiplicity
 _atom_site_fract_x
 _atom_site_fract_y
 _atom_site_fract_z
 _atom_site_occupancy
  Li  Li0  1  0.58476300  0.73648200  0.94220900  1
  Li  Li1  1  0.67304600  0.26992600  0.81750400  1
  Li  Li2  1  0.81783300  0.75051500  0.69127000  1
  Li  Li3  1  0.93452700  0.24574800  0.56245700  1
  Li  Li4  1  0.06547300  0.75425200  0.43754300  1
  Li  Li5  1  0.18216700  0.24948500  0.30873000  1
  Li  Li6  1  0.32695400  0.73007400  0.18249600  1
  Li  Li7  1  0.41523700  0.26351800  0.05779100  1
  Li  Li8  1  0.00000000  0.00000000  0.00000000  1
  Mn  Mn0  1  0.24442100  0.00030400  0.75785800  1
  Mn  Mn1  1  0.37095700  0.50023100  0.62880600  1
  Mn  Mn2  1  0.50000000  0.00000000  0.50000000  1
  Mn  Mn3  1  0.62904300  0.49976900  0.37119400  1
  Mn  Mn4  1  0.75557900  0.99969600  0.24214200  1
  Si  Si0  1  0.12022800  0.50194900  0.87978400  1
  Si  Si1  1  0.87977200  0.49805100  0.12021600  1
  O  O0  1  0.95473300  0.81889200  0.84842600  1
  O  O1  1  0.30272200  0.18210400  0.89829300  1
  O  O2  1  0.58044800  0.10637200  0.65759700  1
  O  O3  1  0.43274400  0.60480600  0.79099500  1
  O  O4  1  0.04192600  0.39651500  0.73431700  1
  O  O5  1  0.70602800  0.60296100  0.53017400  1
  O  O6  1  0.16969600  0.89371300  0.59725400  1
  O  O7  1  0.29397200  0.39703900  0.46982600  1
  O  O8  1  0.83030400  0.10628700  0.40274600  1
  O  O9  1  0.95807400  0.60348500  0.26568300  1
  O  O10  1  0.41955200  0.89362800  0.34240300  1
  O  O11  1  0.69727800  0.81789600  0.10170700  1
  O  O12  1  0.04526700  0.18110800  0.15157400  1
  O  O13  1  0.56725600  0.39519400  0.20900500  1
  O  O14  1  0.81319700  0.40570400  0.97251900  1
  O  O15  1  0.18680300  0.59429600  0.02748100  1
loop_
_geom_bond_atom_site_label_1
_geom_bond_atom_site_label_2
_geom_bond_distance
_geom_bond_site_symmetry_2
Li0 O11 2.012262 1_556
Li0 O14 2.052895 1_555
Li0 O0 2.060491 1_555
Li0 O3 2.123382 1_555
Li0 O15 2.266063 1_556
Li1 O1 2.027733 1_555
Li1 O3 2.092195 1_555
Li1 O4 2.100967 1_655
Li1 O14 2.137139 1_555
Li1 O2 2.139525 1_555
Li2 O0 2.029357 1_555
Li2 O6 2.101255 1_655
Li2 O5 2.153905 1_555
Li2 O4 2.174909 1_655
Li2 O2 2.190045 1_565
Li2 O3 2.263793 1_555
Li3 O8 2.105230 1_555
Li3 O2 2.105752 1_555
Li3 O7 2.146211 1_655
Li3 O5 2.170892 1_555
Li3 O6 2.171042 1_645
Li3 O4 2.256629 1_655
Li4 O6 2.105230 1_555
Li4 O10 2.105752 1_555
Li4 O5 2.146211 1_455
Li4 O7 2.170892 1_555
Li4 O8 2.171042 1_465
Li4 O9 2.256629 1_455
Li5 O12 2.029357 1_555
Li5 O8 2.101255 1_455
Li5 O7 2.153905 1_555
Li5 O9 2.174909 1_455
Li5 O10 2.190045 1_545
Li5 O13 2.263793 1_555
Li6 O11 2.027733 1_555
Li6 O13 2.092195 1_555
Li6 O9 2.100967 1_455
Li6 O15 2.137139 1_555
Li6 O10 2.139525 1_555
Li7 O1 2.012262 1_554
Li7 O15 2.052895 1_555
Li7 O12 2.060491 1_555
Li7 O13 2.123382 1_555
Li7 O14 2.266063 1_554
Li8 O12 2.020858 1_555
Li8 O0 2.020858 1_444
Li8 O1 2.042035 1_554
Li8 O11 2.042035 1_445
Li8 O15 2.296683 1_545
Li8 O14 2.296683 1_454
Mn0 O1 1.939598 1_555
Mn0 O0 1.946750 1_445
Mn0 O2 1.984564 1_555
Mn0 O6 1.986461 1_545
Mn0 O3 2.261924 1_545
Mn0 O4 2.273690 1_555
Mn1 O5 1.967558 1_555
Mn1 O7 1.967878 1_555
Mn1 O3 1.975539 1_555
Mn1 O4 1.976068 1_555
Mn1 O6 2.273321 1_555
Mn1 O2 2.285729 1_555
Mn2 O6 1.948997 1_545
Mn2 O8 1.948997 1_555
Mn2 O2 1.966370 1_555
Mn2 O10 1.966370 1_545
Mn2 O7 2.296249 1_555
Mn2 O5 2.296249 1_545
Mn3 O7 1.967558 1_555
Mn3 O5 1.967878 1_555
Mn3 O13 1.975539 1_555
Mn3 O9 1.976068 1_555
Mn3 O8 2.273321 1_555
Mn3 O10 2.285729 1_555
Mn4 O11 1.939598 1_555
Mn4 O12 1.946750 1_665
Mn4 O10 1.984564 1_555
Mn4 O8 1.986461 1_565
Mn4 O13 2.261924 1_565
Mn4 O9 2.273690 1_555
O0 Si0 1.851026 1_655
O1 Si0 1.872979 1_555
O3 Si0 1.835057 1_555
O4 Si0 1.837037 1_555
O9 Si1 1.837037 1_555
O11 Si1 1.872979 1_555
O12 Si1 1.851026 1_455
O13 Si1 1.835057 1_555
O14 Si1 1.812472 1_556
O14 Si0 1.816975 1_655
O15 Si0 1.812472 1_554
O15 Si1 1.816975 1_455
