# generated using pymatgen
data_Ba3Yb4O9
_symmetry_space_group_name_H-M   'P 1'
_cell_length_a   9.03865765
_cell_length_b   9.03865765
_cell_length_c   9.03865794
_cell_angle_alpha   40.37356208
_cell_angle_beta   40.37356208
_cell_angle_gamma   40.37356152
_symmetry_Int_Tables_number   1
_chemical_formula_structural   Ba3Yb4O9
_chemical_formula_sum   'Ba3 Yb4 O9'
_cell_volume   279.38447331
_cell_formula_units_Z   1
loop_
 _symmetry_equiv_pos_site_id
 _symmetry_equiv_pos_as_xyz
  1  'x, y, z'
loop_
 _atom_site_type_symbol
 _atom_site_label
 _atom_site_symmetry_multiplicity
 _atom_site_fract_x
 _atom_site_fract_y
 _atom_site_fract_z
 _atom_site_occupancy
  Ba  Ba0  1  0.00916000  0.00916000  0.00916000  1
  Ba  Ba1  1  0.17572000  0.17572000  0.17572000  1
  Ba  Ba2  1  0.58526200  0.58526200  0.58526200  1
  Yb  Yb0  1  0.43439300  0.43439300  0.43439300  1
  Yb  Yb1  1  0.87382800  0.87382800  0.87382800  1
  Yb  Yb2  1  0.75205300  0.75205300  0.75205300  1
  Yb  Yb3  1  0.31310800  0.31310800  0.31310800  1
  O  O0  1  0.61856400  0.44391600  0.05822600  1
  O  O1  1  0.05822600  0.61856400  0.44391600  1
  O  O2  1  0.44391600  0.05822600  0.61856400  1
  O  O3  1  0.73342700  0.57797500  0.13543700  1
  O  O4  1  0.13543700  0.73342700  0.57797500  1
  O  O5  1  0.57797500  0.13543700  0.73342700  1
  O  O6  1  0.59054300  0.02054500  0.16734100  1
  O  O7  1  0.02054500  0.16734100  0.59054300  1
  O  O8  1  0.16734100  0.59054300  0.02054500  1
loop_
_geom_bond_atom_site_label_1
_geom_bond_atom_site_label_2
_geom_bond_distance
_geom_bond_site_symmetry_2
Ba0 O0 2.689600 1_455
Ba0 O2 2.689600 1_554
Ba0 O1 2.689600 1_545
Ba0 O6 2.785604 1_455
Ba0 O8 2.785604 1_545
Ba0 O7 2.785604 1_554
Ba1 O3 2.718044 1_455
Ba1 O4 2.718044 1_545
Ba1 O5 2.718044 1_554
Ba1 O8 2.783460 1_555
Ba1 O6 2.783460 1_555
Ba1 O7 2.783460 1_555
Ba2 O7 2.667847 1_655
Ba2 O6 2.667848 1_565
Ba2 O8 2.667848 1_556
Ba2 O5 3.210282 1_555
Ba2 O4 3.210282 1_555
Ba2 O3 3.210282 1_555
O0 Yb2 2.271577 1_554
O0 Yb3 2.336676 1_555
O0 Yb0 2.342507 1_555
O1 Yb2 2.271577 1_455
O1 Yb3 2.336676 1_555
O1 Yb0 2.342507 1_555
O2 Yb2 2.271577 1_545
O2 Yb3 2.336676 1_555
O2 Yb0 2.342507 1_555
O3 Yb0 2.272560 1_555
O3 Yb1 2.305784 1_554
O3 Yb2 2.391493 1_554
O4 Yb0 2.272560 1_555
O4 Yb1 2.305784 1_455
O4 Yb2 2.391493 1_455
O5 Yb0 2.272560 1_555
O5 Yb1 2.305784 1_545
O5 Yb2 2.391493 1_545
O6 Yb3 2.277649 1_555
O6 Yb1 2.278071 1_544
O7 Yb3 2.277649 1_555
O7 Yb1 2.278071 1_445
O8 Yb3 2.277649 1_555
O8 Yb1 2.278071 1_454
