# generated using pymatgen
data_RbF2
_symmetry_space_group_name_H-M   'P 1'
_cell_length_a   5.13662251
_cell_length_b   5.13662251
_cell_length_c   5.28887122
_cell_angle_alpha   90.00000000
_cell_angle_beta   90.00000000
_cell_angle_gamma   89.99816555
_symmetry_Int_Tables_number   1
_chemical_formula_structural   RbF2
_chemical_formula_sum   'Rb2 F4'
_cell_volume   139.54628961
_cell_formula_units_Z   2
loop_
 _symmetry_equiv_pos_site_id
 _symmetry_equiv_pos_as_xyz
  1  'x, y, z'
loop_
 _atom_site_type_symbol
 _atom_site_label
 _atom_site_symmetry_multiplicity
 _atom_site_fract_x
 _atom_site_fract_y
 _atom_site_fract_z
 _atom_site_occupancy
  Rb  Rb0  1  -0.00000000  -0.00000000  -0.00000000  1
  Rb  Rb1  1  0.50000000  0.50000000  0.50000000  1
  F  F0  1  0.36656575  0.36656575  0.00000000  1
  F  F1  1  0.63343425  0.63343425  0.00000000  1
  F  F2  1  0.86668431  0.13331569  0.50000000  1
  F  F3  1  0.13331569  0.86668431  0.50000000  1
loop_
_geom_bond_atom_site_label_1
_geom_bond_atom_site_label_2
_geom_bond_distance
_geom_bond_site_symmetry_2
F0 Rb0 2.662879 1_555
F0 Rb1 2.816491 1_555
F0 Rb1 2.816491 1_554
F1 Rb0 2.662879 1_665
F1 Rb1 2.816491 1_554
F1 Rb1 2.816491 1_555
F2 Rb1 2.663655 1_555
F2 Rb0 2.816184 1_656
F2 Rb0 2.816184 1_655
F3 Rb1 2.663655 1_555
F3 Rb0 2.816184 1_565
F3 Rb0 2.816184 1_566
