# generated using pymatgen
data_SmCuP2
_symmetry_space_group_name_H-M   'P 1'
_cell_length_a   3.75986401
_cell_length_b   3.75986389
_cell_length_c   10.29612927
_cell_angle_alpha   100.52045453
_cell_angle_beta   100.52045008
_cell_angle_gamma   89.99999125
_symmetry_Int_Tables_number   1
_chemical_formula_structural   SmCuP2
_chemical_formula_sum   'Sm2 Cu2 P4'
_cell_volume   140.61593760
_cell_formula_units_Z   2
loop_
 _symmetry_equiv_pos_site_id
 _symmetry_equiv_pos_as_xyz
  1  'x, y, z'
loop_
 _atom_site_type_symbol
 _atom_site_label
 _atom_site_symmetry_multiplicity
 _atom_site_fract_x
 _atom_site_fract_y
 _atom_site_fract_z
 _atom_site_occupancy
  Sm  Sm0  1  0.88371003  0.88371003  0.76742007  1
  Sm  Sm1  1  0.11628997  0.11628997  0.23257993  1
  Cu  Cu0  1  0.75000000  0.25000000  0.50000000  1
  Cu  Cu1  1  0.25000000  0.75000000  0.50000000  1
  P  P0  1  0.67658541  0.67658541  0.35317082  1
  P  P1  1  0.32341459  0.32341459  0.64682918  1
  P  P2  1  0.50000000  -0.00000000  0.00000000  1
  P  P3  1  0.00000000  0.50000000  0.00000000  1
loop_
_geom_bond_atom_site_label_1
_geom_bond_atom_site_label_2
_geom_bond_distance
_geom_bond_site_symmetry_2
Cu0 P0 2.380591 1_545
Cu0 P1 2.380591 1_655
Cu0 P1 2.380592 1_555
Cu0 P0 2.380592 1_555
Cu1 P1 2.380591 1_565
Cu1 P0 2.380591 1_455
Cu1 P0 2.380592 1_555
Cu1 P1 2.380592 1_555
P0 Sm1 2.916696 1_655
P0 Sm1 2.916696 1_555
P0 Sm1 2.916696 1_565
P0 Sm1 2.916697 1_665
P1 Sm0 2.916696 1_455
P1 Sm0 2.916696 1_555
P1 Sm0 2.916696 1_545
P1 Sm0 2.916697 1_445
P2 P3 2.658625 1_555
P2 P3 2.658625 1_645
P2 P3 2.658626 1_545
P2 P3 2.658626 1_655
P2 Sm0 2.980982 1_444
P2 Sm1 2.980982 1_655
P2 Sm1 2.980982 1_555
P2 Sm0 2.980982 1_544
P3 Sm1 2.980982 1_565
P3 Sm0 2.980982 1_444
P3 Sm0 2.980982 1_454
P3 Sm1 2.980982 1_555
