# generated using pymatgen
data_Ag2B8O13
_symmetry_space_group_name_H-M   'P 1'
_cell_length_a   7.89822600
_cell_length_b   10.66395313
_cell_length_c   12.03895635
_cell_angle_alpha   80.22461852
_cell_angle_beta   89.99327049
_cell_angle_gamma   89.99107033
_symmetry_Int_Tables_number   1
_chemical_formula_structural   Ag2B8O13
_chemical_formula_sum   'Ag8 B32 O52'
_cell_volume   999.27459656
_cell_formula_units_Z   4
loop_
 _symmetry_equiv_pos_site_id
 _symmetry_equiv_pos_as_xyz
  1  'x, y, z'
loop_
 _atom_site_type_symbol
 _atom_site_label
 _atom_site_symmetry_multiplicity
 _atom_site_fract_x
 _atom_site_fract_y
 _atom_site_fract_z
 _atom_site_occupancy
  Ag  Ag0  1  0.91540000  0.46399200  0.86262400  1
  Ag  Ag1  1  0.91483700  0.96390800  0.63746300  1
  Ag  Ag2  1  0.61728400  0.31164700  0.60917300  1
  Ag  Ag3  1  0.61008400  0.80210700  0.92884500  1
  Ag  Ag4  1  0.38966600  0.19769000  0.07253600  1
  Ag  Ag5  1  0.38978900  0.69768900  0.42846000  1
  Ag  Ag6  1  0.08524100  0.03616500  0.36252400  1
  Ag  Ag7  1  0.08515100  0.53615300  0.13765000  1
  B  B0  1  0.99580100  0.27825400  0.34082300  1
  B  B1  1  0.99572000  0.77827900  0.15905800  1
  B  B2  1  0.86223200  0.23735900  0.58590700  1
  B  B3  1  0.87531400  0.43472700  0.40524200  1
  B  B4  1  0.86208900  0.73771800  0.91400600  1
  B  B5  1  0.76070000  0.11080800  0.08175900  1
  B  B6  1  0.87533600  0.93474600  0.09475500  1
  B  B7  1  0.70306500  0.04179400  0.51034700  1
  B  B8  1  0.76076800  0.61100100  0.41848000  1
  B  B9  1  0.67286100  0.30496700  0.05103000  1
  B  B10  1  0.70327400  0.54176100  0.98975300  1
  B  B11  1  0.60271100  0.10222500  0.89313200  1
  B  B12  1  0.67278700  0.80502400  0.44969100  1
  B  B13  1  0.60281500  0.60358500  0.60690200  1
  B  B14  1  0.55845000  0.45177800  0.18642400  1
  B  B15  1  0.44155700  0.04817500  0.68578900  1
  B  B16  1  0.55853900  0.95206700  0.31398500  1
  B  B17  1  0.44145300  0.54799100  0.81402000  1
  B  B18  1  0.39723600  0.39667500  0.39317100  1
  B  B19  1  0.32744000  0.19559000  0.54965900  1
  B  B20  1  0.39719400  0.89707900  0.10702200  1
  B  B21  1  0.29671800  0.45838100  0.01063100  1
  B  B22  1  0.32720100  0.69537000  0.94989800  1
  B  B23  1  0.23946600  0.38925800  0.58150300  1
  B  B24  1  0.29674500  0.95851100  0.48939800  1
  B  B25  1  0.12470400  0.06526800  0.90522600  1
  B  B26  1  0.23934600  0.88930300  0.91848600  1
  B  B27  1  0.13796100  0.26232800  0.08592900  1
  B  B28  1  0.12469200  0.56521200  0.59471100  1
  B  B29  1  0.13800600  0.76237900  0.41407000  1
  B  B30  1  0.00435800  0.22172300  0.84100000  1
  B  B31  1  0.00429500  0.72178700  0.65905000  1
  O  O0  1  0.94176500  0.19960400  0.46312000  1
  O  O1  1  0.96338100  0.39753500  0.31169900  1
  O  O2  1  0.91585900  0.25575100  0.75581100  1
  O  O3  1  0.84636200  0.05055100  0.14021100  1
  O  O4  1  0.94163800  0.69966300  0.03676300  1
  O  O5  1  0.96347000  0.89759500  0.18815100  1
  O  O6  1  0.91578500  0.75572700  0.74422000  1
  O  O7  1  0.82929700  0.36194200  0.53670300  1
  O  O8  1  0.84627900  0.55040400  0.35971500  1
  O  O9  1  0.75681200  0.14496000  0.59826300  1
  O  O10  1  0.75563700  0.23331200  0.12189800  1
  O  O11  1  0.82880700  0.86186200  0.96369600  1
  O  O12  1  0.67742500  0.03979000  0.98014000  1
  O  O13  1  0.73376400  0.42384400  0.97252200  1
  O  O14  1  0.75643000  0.64514400  0.90219600  1
  O  O15  1  0.75556200  0.73328300  0.37803800  1
  O  O16  1  0.61169700  0.05537000  0.40736800  1
  O  O17  1  0.67769000  0.54050500  0.52081900  1
  O  O18  1  0.73386500  0.92406200  0.52690800  1
  O  O19  1  0.60234100  0.22884100  0.91584100  1
  O  O20  1  0.59212200  0.33616200  0.17951700  1
  O  O21  1  0.61187400  0.55539400  0.09294400  1
  O  O22  1  0.52991900  0.02428300  0.78761600  1
  O  O23  1  0.60188800  0.72949200  0.58374000  1
  O  O24  1  0.59232000  0.83630000  0.31945500  1
  O  O25  1  0.53022900  0.52474300  0.71260600  1
  O  O26  1  0.47009100  0.47523800  0.28783500  1
  O  O27  1  0.40770500  0.16374100  0.68053100  1
  O  O28  1  0.39718800  0.27057200  0.41560500  1
  O  O29  1  0.47004800  0.97541500  0.21228200  1
  O  O30  1  0.38839800  0.44465800  0.90756600  1
  O  O31  1  0.40766000  0.66364300  0.81953500  1
  O  O32  1  0.39794900  0.77087100  0.08360600  1
  O  O33  1  0.26602600  0.07605400  0.47312800  1
  O  O34  1  0.32274700  0.46018800  0.48005400  1
  O  O35  1  0.38838700  0.94473200  0.59231700  1
  O  O36  1  0.24446700  0.26687700  0.62197500  1
  O  O37  1  0.24356300  0.35485400  0.09762400  1
  O  O38  1  0.26608700  0.57614000  0.02692500  1
  O  O39  1  0.32248100  0.96005700  0.02031800  1
  O  O40  1  0.17112300  0.13811400  0.03629100  1
  O  O41  1  0.24442500  0.76676400  0.87811600  1
  O  O42  1  0.24360400  0.85475700  0.40223000  1
  O  O43  1  0.15363500  0.44955700  0.64021700  1
  O  O44  1  0.17110400  0.63811000  0.46362300  1
  O  O45  1  0.08420000  0.24429500  0.25572900  1
  O  O46  1  0.03651600  0.10240400  0.81182800  1
  O  O47  1  0.05829600  0.30033700  0.96325800  1
  O  O48  1  0.15364700  0.94947200  0.85976200  1
  O  O49  1  0.08418300  0.74424600  0.24423100  1
  O  O50  1  0.03652900  0.60244200  0.68814900  1
  O  O51  1  0.05831200  0.80033700  0.53675500  1
loop_
_geom_bond_atom_site_label_1
_geom_bond_atom_site_label_2
_geom_bond_distance
_geom_bond_site_symmetry_2
Ag0 O13 1.949169 1_555
Ag0 O47 2.251461 1_655
Ag0 O14 2.418037 1_555
Ag0 O50 2.540488 1_655
Ag1 O18 2.046404 1_555
Ag1 O9 2.279959 1_565
Ag1 O6 2.368871 1_555
Ag1 O51 2.552240 1_655
Ag2 O7 1.921961 1_555
Ag2 O9 2.114238 1_555
Ag2 O27 2.346520 1_555
Ag2 O17 2.536529 1_555
Ag3 O11 1.912520 1_555
Ag3 O14 2.102950 1_555
Ag3 B4 2.122781 1_555
Ag3 O32 2.485616 1_556
Ag3 B22 2.500900 1_555
Ag3 O31 2.670068 1_555
Ag3 O22 2.745373 1_565
Ag3 O12 2.760553 1_565
Ag4 O40 1.915232 1_555
Ag4 O37 2.098329 1_555
Ag4 B27 2.119104 1_555
Ag4 O19 2.505441 1_554
Ag4 B9 2.505762 1_555
Ag4 O20 2.653919 1_555
Ag4 O29 2.738177 1_545
Ag4 O39 2.764044 1_545
Ag5 O44 1.864138 1_555
Ag5 O42 2.014500 1_555
Ag5 O24 2.409862 1_555
Ag5 O34 2.558692 1_555
Ag5 O23 2.575311 1_555
Ag6 O33 2.045924 1_555
Ag6 O42 2.284892 1_545
Ag6 O45 2.368590 1_555
Ag6 O0 2.550371 1_455
Ag7 O38 1.951341 1_555
Ag7 O4 2.254091 1_455
Ag7 O37 2.418883 1_555
Ag7 O1 2.539461 1_455
B0 O1 1.286459 1_555
B0 O45 1.339341 1_655
B0 O0 1.622956 1_555
B1 O49 1.243001 1_655
B1 O5 1.399184 1_555
B1 O4 1.863432 1_555
B2 O9 1.279355 1_555
B2 O7 1.384302 1_555
B2 O0 1.715709 1_555
B2 O2 2.130320 1_555
B3 O8 1.282597 1_555
B3 O1 1.435535 1_555
B3 O7 1.679927 1_555
B4 O14 1.318771 1_555
B4 O11 1.564725 1_555
B4 O4 1.593742 1_556
B4 O6 2.064314 1_555
B5 O3 1.101039 1_555
B5 O10 1.468359 1_555
B5 O12 1.678628 1_554
B6 O5 1.324614 1_555
B6 O3 1.451306 1_565
B6 O11 1.909264 1_554
B7 O18 1.260990 1_545
B7 O16 1.420551 1_555
B7 O9 1.704833 1_555
B8 O8 1.236621 1_555
B8 O15 1.312851 1_555
B8 O17 1.482941 1_555
B9 O10 1.232002 1_555
B9 O13 1.524789 1_554
B9 O20 1.756275 1_555
B9 O19 2.016714 1_554
B10 O13 1.330679 1_555
B10 O14 1.451979 1_555
B10 O21 1.465161 1_556
B11 O12 1.285281 1_555
B11 O19 1.422397 1_555
B11 O22 1.730291 1_555
B12 O15 1.407356 1_555
B12 O24 1.672148 1_555
B12 O18 1.763328 1_555
B12 O23 1.767842 1_555
B13 O23 1.324169 1_555
B13 O17 1.453517 1_555
B13 O25 1.513819 1_555
B14 O20 1.277674 1_555
B14 O26 1.464118 1_555
B14 O21 1.497756 1_555
B15 O27 1.252075 1_555
B15 O22 1.396022 1_555
B15 O35 1.755364 1_545
B16 O24 1.253752 1_555
B16 O29 1.395085 1_555
B16 O16 1.753439 1_565
B17 O31 1.274517 1_555
B17 O25 1.465017 1_555
B17 O30 1.495595 1_555
B18 O28 1.325890 1_555
B18 O34 1.462615 1_555
B18 O26 1.510094 1_555
B19 O36 1.410599 1_555
B19 O27 1.678720 1_555
B19 O33 1.763015 1_555
B19 O28 1.763277 1_555
B20 O39 1.284835 1_555
B20 O32 1.421169 1_555
B20 O29 1.730489 1_555
B21 O38 1.325718 1_555
B21 O37 1.448915 1_555
B21 O30 1.465175 1_554
B22 O41 1.237111 1_555
B22 O38 1.519622 1_556
B22 O31 1.778045 1_555
B22 O32 1.998021 1_556
B23 O43 1.235633 1_555
B23 O36 1.313857 1_555
B23 O34 1.477407 1_555
B24 O33 1.258957 1_565
B24 O35 1.420936 1_555
B24 O42 1.701804 1_555
B25 O46 1.324832 1_555
B25 O48 1.451229 1_545
B25 O40 1.908940 1_556
B26 O48 1.102546 1_555
B26 O41 1.470052 1_555
B26 O39 1.678645 1_556
B27 O37 1.317769 1_555
B27 O40 1.564917 1_555
B27 O47 1.593141 1_554
B27 O45 2.064564 1_555
B28 O43 1.282192 1_555
B28 O50 1.435018 1_555
B28 O44 1.677095 1_555
B29 O42 1.280208 1_555
B29 O44 1.382698 1_555
B29 O51 1.715894 1_555
B29 O49 2.129162 1_555
B30 O2 1.243302 1_455
B30 O46 1.399468 1_555
B30 O47 1.862773 1_555
B31 O50 1.286780 1_555
B31 O6 1.340459 1_455
B31 O51 1.622510 1_555
