# generated using pymatgen
data_Ho2O3
_symmetry_space_group_name_H-M   'P 1'
_cell_length_a   9.11408048
_cell_length_b   9.11407923
_cell_length_c   9.11408003
_cell_angle_alpha   109.47122919
_cell_angle_beta   109.47122645
_cell_angle_gamma   109.47121441
_symmetry_Int_Tables_number   1
_chemical_formula_structural   Ho2O3
_chemical_formula_sum   'Ho16 O24'
_cell_volume   582.79600013
_cell_formula_units_Z   8
loop_
 _symmetry_equiv_pos_site_id
 _symmetry_equiv_pos_as_xyz
  1  'x, y, z'
loop_
 _atom_site_type_symbol
 _atom_site_label
 _atom_site_symmetry_multiplicity
 _atom_site_fract_x
 _atom_site_fract_y
 _atom_site_fract_z
 _atom_site_occupancy
  Ho  Ho0  1  0.75000000  0.78232138  0.03232138  1
  Ho  Ho1  1  0.46767862  0.25000000  0.71767862  1
  Ho  Ho2  1  0.71767862  0.46767862  0.25000000  1
  Ho  Ho3  1  0.03232138  0.75000000  0.78232138  1
  Ho  Ho4  1  0.78232138  0.03232138  0.75000000  1
  Ho  Ho5  1  0.25000000  0.71767862  0.46767862  1
  Ho  Ho6  1  0.75000000  0.28233510  0.53233510  1
  Ho  Ho7  1  0.96766490  0.25000000  0.21766490  1
  Ho  Ho8  1  0.21766490  0.96766490  0.25000000  1
  Ho  Ho9  1  0.53233510  0.75000000  0.28233510  1
  Ho  Ho10  1  0.28233510  0.53233510  0.75000000  1
  Ho  Ho11  1  0.25000000  0.21766490  0.96766490  1
  Ho  Ho12  1  0.00002235  0.50000000  0.00000000  1
  Ho  Ho13  1  0.50000000  0.00000000  0.00002235  1
  Ho  Ho14  1  0.00000000  0.00002235  0.50000000  1
  Ho  Ho15  1  0.49997765  0.49997765  0.49997765  1
  O  O0  1  0.72919048  0.26020354  0.77217575  1
  O  O1  1  0.98802779  0.95701674  0.72782425  1
  O  O2  1  0.51197221  0.23979646  0.96898794  1
  O  O3  1  0.54298326  0.53101206  0.77080952  1
  O  O4  1  0.53101206  0.77080952  0.54298326  1
  O  O5  1  0.77217575  0.72919048  0.26020354  1
  O  O6  1  0.95701674  0.72782425  0.98802779  1
  O  O7  1  0.96898794  0.51197221  0.23979646  1
  O  O8  1  0.26020354  0.77217575  0.72919048  1
  O  O9  1  0.72782425  0.98802779  0.95701674  1
  O  O10  1  0.23979646  0.96898794  0.51197221  1
  O  O11  1  0.77080952  0.54298326  0.53101206  1
  O  O12  1  0.04298231  0.27215108  0.01196174  1
  O  O13  1  0.76018935  0.03102057  0.48803826  1
  O  O14  1  0.73981065  0.22784892  0.27083223  1
  O  O15  1  0.46897943  0.22916777  0.45701769  1
  O  O16  1  0.45701769  0.46897943  0.22916777  1
  O  O17  1  0.22784892  0.27083223  0.73981065  1
  O  O18  1  0.48803826  0.76018935  0.03102057  1
  O  O19  1  0.27215108  0.01196174  0.04298231  1
  O  O20  1  0.27083223  0.73981065  0.22784892  1
  O  O21  1  0.03102057  0.48803826  0.76018935  1
  O  O22  1  0.01196174  0.04298231  0.27215108  1
  O  O23  1  0.22916777  0.45701769  0.46897943  1
loop_
_geom_bond_atom_site_label_1
_geom_bond_atom_site_label_2
_geom_bond_distance
_geom_bond_site_symmetry_2
Ho0 O3 2.228986 1_554
Ho0 O6 2.228999 1_554
Ho0 O9 2.246073 1_554
Ho0 O5 2.246083 1_555
Ho0 O22 2.323714 1_665
Ho0 O18 2.323714 1_555
Ho1 O0 2.228981 1_555
Ho1 O2 2.228989 1_555
Ho1 O3 2.246077 1_555
Ho1 O10 2.246078 1_545
Ho1 O15 2.323712 1_555
Ho1 O17 2.323717 1_555
Ho2 O5 2.228980 1_555
Ho2 O7 2.228990 1_555
Ho2 O11 2.246077 1_555
Ho2 O2 2.246078 1_554
Ho2 O16 2.323712 1_555
Ho2 O14 2.323717 1_555
Ho3 O11 2.228986 1_455
Ho3 O1 2.228998 1_455
Ho3 O6 2.246073 1_455
Ho3 O8 2.246083 1_555
Ho3 O19 2.323714 1_566
Ho3 O21 2.323714 1_555
Ho4 O4 2.228986 1_545
Ho4 O9 2.228999 1_545
Ho4 O1 2.246073 1_545
Ho4 O0 2.246083 1_555
Ho4 O12 2.323714 1_656
Ho4 O13 2.323714 1_555
Ho5 O8 2.228980 1_555
Ho5 O10 2.228989 1_555
Ho5 O4 2.246077 1_555
Ho5 O7 2.246078 1_455
Ho5 O23 2.323711 1_555
Ho5 O20 2.323717 1_555
Ho6 O14 2.228965 1_555
Ho6 O13 2.228974 1_555
Ho6 O15 2.246046 1_555
Ho6 O21 2.246049 1_655
Ho6 O11 2.323724 1_555
Ho6 O0 2.323739 1_555
Ho7 O23 2.228970 1_655
Ho7 O22 2.228974 1_655
Ho7 O12 2.246049 1_655
Ho7 O14 2.246054 1_555
Ho7 O9 2.323732 1_544
Ho7 O7 2.323736 1_555
Ho8 O15 2.228970 1_565
Ho8 O19 2.228974 1_565
Ho8 O22 2.246049 1_565
Ho8 O20 2.246054 1_555
Ho8 O6 2.323732 1_454
Ho8 O10 2.323736 1_555
Ho9 O20 2.228965 1_555
Ho9 O18 2.228974 1_555
Ho9 O16 2.246046 1_555
Ho9 O13 2.246048 1_565
Ho9 O4 2.323725 1_555
Ho9 O5 2.323739 1_555
Ho10 O17 2.228965 1_555
Ho10 O21 2.228974 1_555
Ho10 O23 2.246046 1_555
Ho10 O18 2.246048 1_556
Ho10 O3 2.323725 1_555
Ho10 O8 2.323739 1_555
Ho11 O16 2.228970 1_556
Ho11 O12 2.228974 1_556
Ho11 O19 2.246049 1_556
Ho11 O17 2.246054 1_555
Ho11 O1 2.323732 1_445
Ho11 O2 2.323736 1_555
Ho12 O6 2.267623 1_454
Ho12 O12 2.267625 1_555
Ho12 O21 2.267625 1_554
Ho12 O7 2.267628 1_455
Ho12 O20 2.267629 1_555
Ho12 O0 2.267632 1_454
Ho13 O9 2.267624 1_544
Ho13 O18 2.267625 1_545
Ho13 O19 2.267626 1_555
Ho13 O2 2.267628 1_554
Ho13 O14 2.267629 1_555
Ho13 O8 2.267632 1_544
Ho14 O1 2.267624 1_445
Ho14 O13 2.267625 1_455
Ho14 O22 2.267626 1_555
Ho14 O10 2.267628 1_545
Ho14 O17 2.267629 1_555
Ho14 O5 2.267632 1_445
Ho15 O15 2.267634 1_555
Ho15 O16 2.267634 1_555
Ho15 O23 2.267635 1_555
Ho15 O4 2.267639 1_555
Ho15 O3 2.267639 1_555
Ho15 O11 2.267639 1_555
