# generated using pymatgen
data_Re3Ni
_symmetry_space_group_name_H-M   'P 1'
_cell_length_a   5.38807649
_cell_length_b   5.38807288
_cell_length_c   4.35246041
_cell_angle_alpha   90.00002742
_cell_angle_beta   89.99996832
_cell_angle_gamma   119.99904260
_symmetry_Int_Tables_number   1
_chemical_formula_structural   Re3Ni
_chemical_formula_sum   'Re6 Ni2'
_cell_volume   109.43011734
_cell_formula_units_Z   2
loop_
 _symmetry_equiv_pos_site_id
 _symmetry_equiv_pos_as_xyz
  1  'x, y, z'
loop_
 _atom_site_type_symbol
 _atom_site_label
 _atom_site_symmetry_multiplicity
 _atom_site_fract_x
 _atom_site_fract_y
 _atom_site_fract_z
 _atom_site_occupancy
  Re  Re0  1  0.83391373  0.16613458  0.74999932  1
  Re  Re1  1  0.33217162  0.16604558  0.74999984  1
  Re  Re2  1  0.83396490  0.66780931  0.74999984  1
  Re  Re3  1  0.16608591  0.83386538  0.24999935  1
  Re  Re4  1  0.66783165  0.83395406  0.24999931  1
  Re  Re5  1  0.16603402  0.33218570  0.24999943  1
  Ni  Ni0  1  0.66657719  0.33335122  0.25000019  1
  Ni  Ni1  1  0.33342499  0.66664816  0.74999871  1
loop_
_geom_bond_atom_site_label_1
_geom_bond_atom_site_label_2
_geom_bond_distance
_geom_bond_site_symmetry_2
Re0 Re5 2.671652 1_655
Re0 Re5 2.671654 1_656
Re0 Re4 2.671815 1_545
Re0 Re4 2.671816 1_546
Re0 Re1 2.684891 1_655
Re0 Re2 2.685151 1_545
Re0 Re2 2.702922 1_555
Re0 Re1 2.703185 1_555
Re1 Re3 2.671813 1_546
Re1 Re3 2.671816 1_545
Re1 Re5 2.672063 1_556
Re1 Re5 2.672068 1_555
Re1 Re2 2.684493 1_445
Re1 Re2 2.703659 1_555
Re2 Re3 2.671653 1_656
Re2 Re3 2.671656 1_655
Re2 Re4 2.672064 1_556
Re2 Re4 2.672069 1_555
Re3 Re4 2.684871 1_455
Re3 Re5 2.685126 1_565
Re3 Re5 2.702947 1_555
Re3 Re4 2.703206 1_555
Re4 Re5 2.684469 1_665
Re4 Re5 2.703683 1_555
Ni0 Re1 2.677851 1_555
Ni0 Re1 2.677854 1_554
Ni0 Re2 2.677993 1_555
Ni0 Re2 2.677997 1_554
Ni0 Re0 2.678238 1_555
Ni0 Re0 2.678243 1_554
Ni0 Re5 2.693831 1_555
Ni0 Re4 2.693911 1_555
Ni0 Re3 2.694019 1_545
Ni0 Re3 2.694142 1_655
Ni0 Re4 2.694174 1_545
Ni0 Re5 2.694257 1_655
Ni1 Re4 2.677853 1_555
Ni1 Re4 2.677858 1_556
Ni1 Re5 2.678004 1_555
Ni1 Re5 2.678010 1_556
Ni1 Re3 2.678248 1_555
Ni1 Re3 2.678251 1_556
Ni1 Re2 2.693825 1_555
Ni1 Re1 2.693913 1_555
Ni1 Re0 2.694013 1_565
Ni1 Re0 2.694147 1_455
Ni1 Re1 2.694173 1_565
Ni1 Re2 2.694263 1_455
