# generated using pymatgen
data_LiAc2Ge
_symmetry_space_group_name_H-M   'P 1'
_cell_length_a   5.55547290
_cell_length_b   5.55547290
_cell_length_c   5.55547290
_cell_angle_alpha   60.00000000
_cell_angle_beta   60.00000000
_cell_angle_gamma   60.00000000
_symmetry_Int_Tables_number   1
_chemical_formula_structural   LiAc2Ge
_chemical_formula_sum   'Li1 Ac2 Ge1'
_cell_volume   121.24060708
_cell_formula_units_Z   1
loop_
 _symmetry_equiv_pos_site_id
 _symmetry_equiv_pos_as_xyz
  1  'x, y, z'
loop_
 _atom_site_type_symbol
 _atom_site_label
 _atom_site_symmetry_multiplicity
 _atom_site_fract_x
 _atom_site_fract_y
 _atom_site_fract_z
 _atom_site_occupancy
  Li  Li0  1  0.74999900  0.74999900  0.74999900  1
  Ac  Ac0  1  0.50000000  0.50000000  0.50000000  1
  Ac  Ac1  1  0.00000000  0.00000000  0.00000000  1
  Ge  Ge0  1  0.24999900  0.24999900  0.24999900  1
loop_
_geom_bond_atom_site_label_1
_geom_bond_atom_site_label_2
_geom_bond_distance
_geom_bond_site_symmetry_2
Ac0 Li0 3.402005 1_555
Ac0 Ge0 3.402014 1_556
Ac0 Ge0 3.402014 1_655
Ac0 Ge0 3.402014 1_565
Ac0 Li0 3.402023 1_545
Ac0 Li0 3.402023 1_455
Ac0 Li0 3.402023 1_554
Ac0 Ge0 3.402032 1_555
Ac1 Ge0 3.402005 1_555
Ac1 Li0 3.402014 1_445
Ac1 Li0 3.402014 1_544
Ac1 Li0 3.402014 1_454
Ac1 Ge0 3.402023 1_455
Ac1 Ge0 3.402023 1_554
Ac1 Ge0 3.402023 1_545
Ac1 Li0 3.402032 1_444
