# generated using pymatgen
data_K2TeH6SeO10
_symmetry_space_group_name_H-M   'P 1'
_cell_length_a   6.70553107
_cell_length_b   6.70553107
_cell_length_c   13.99733196
_cell_angle_alpha   75.63564530
_cell_angle_beta   75.63564530
_cell_angle_gamma   58.23385731
_symmetry_Int_Tables_number   1
_chemical_formula_structural   K2TeH6SeO10
_chemical_formula_sum   'K4 Te2 H12 Se2 O20'
_cell_volume   513.07082818
_cell_formula_units_Z   2
loop_
 _symmetry_equiv_pos_site_id
 _symmetry_equiv_pos_as_xyz
  1  'x, y, z'
loop_
 _atom_site_type_symbol
 _atom_site_label
 _atom_site_symmetry_multiplicity
 _atom_site_fract_x
 _atom_site_fract_y
 _atom_site_fract_z
 _atom_site_occupancy
  K  K0  1  0.36672400  0.75662300  0.61655600  1
  K  K1  1  0.75662300  0.36672400  0.11655600  1
  K  K2  1  0.04972600  0.47577900  0.40196800  1
  K  K3  1  0.47577900  0.04972600  0.90196800  1
  Te  Te0  1  0.41199100  0.91462300  0.26203400  1
  Te  Te1  1  0.91462300  0.41199100  0.76203400  1
  H  H0  1  0.31511900  0.29572100  0.15632900  1
  H  H1  1  0.29572100  0.31511900  0.65632900  1
  H  H2  1  0.27573400  0.87647700  0.12392700  1
  H  H3  1  0.87647700  0.27573400  0.62392700  1
  H  H4  1  0.98498100  0.02681400  0.32816000  1
  H  H5  1  0.02681400  0.98498100  0.82816000  1
  H  H6  1  0.83670100  0.79782300  0.19278500  1
  H  H7  1  0.79782300  0.83670100  0.69278500  1
  H  H8  1  0.54606500  0.95733000  0.40104300  1
  H  H9  1  0.95733000  0.54606500  0.90104300  1
  H  H10  1  0.50527500  0.53462800  0.37045300  1
  H  H11  1  0.53462800  0.50527500  0.87045300  1
  Se  Se0  1  0.69543200  0.12985900  0.51245400  1
  Se  Se1  1  0.12985900  0.69543200  0.01245400  1
  O  O0  1  0.42120700  0.20897800  0.21029400  1
  O  O1  1  0.20897800  0.42120700  0.71029400  1
  O  O2  1  0.42654300  0.86920100  0.12646100  1
  O  O3  1  0.86920100  0.42654300  0.62646100  1
  O  O4  1  0.06656000  0.09527300  0.27168900  1
  O  O5  1  0.09527300  0.06656000  0.77168900  1
  O  O6  1  0.75771900  0.72701500  0.24941000  1
  O  O7  1  0.72701500  0.75771900  0.74941000  1
  O  O8  1  0.39836600  0.95898600  0.39739000  1
  O  O9  1  0.95898600  0.39836600  0.89739000  1
  O  O10  1  0.40014500  0.62287000  0.31619000  1
  O  O11  1  0.62287000  0.40014500  0.81619000  1
  O  O12  1  0.66195200  0.39806600  0.46430700  1
  O  O13  1  0.39806600  0.66195200  0.96430700  1
  O  O14  1  0.88293900  0.01411400  0.59698200  1
  O  O15  1  0.01411400  0.88293900  0.09698200  1
  O  O16  1  0.80031800  0.95604000  0.42239100  1
  O  O17  1  0.95604000  0.80031800  0.92239100  1
  O  O18  1  0.43362800  0.15325700  0.56527600  1
  O  O19  1  0.15325700  0.43362800  0.06527600  1
loop_
_geom_bond_atom_site_label_1
_geom_bond_atom_site_label_2
_geom_bond_distance
_geom_bond_site_symmetry_2
K0 O14 2.808696 1_465
K0 O18 2.817710 1_565
K0 O1 2.872482 1_555
K0 O3 2.915167 1_555
K0 O5 2.939838 1_565
K0 O8 3.035141 1_555
K0 O12 3.111071 1_555
K1 O15 2.808696 1_645
K1 O19 2.817710 1_655
K1 O0 2.872482 1_555
K1 O2 2.915167 1_555
K1 O4 2.939838 1_655
K1 O9 3.035141 1_554
K1 O13 3.111071 1_554
K2 O16 2.792573 1_455
K2 O12 2.805253 1_455
K2 O6 2.836993 1_455
K2 O10 2.896296 1_555
K2 O8 2.997352 1_545
K2 O3 3.076868 1_455
K3 O17 2.792573 1_545
K3 O13 2.805253 1_545
K3 O7 2.836993 1_545
K3 O11 2.896296 1_555
K3 O9 2.997352 1_455
K3 O2 3.076868 1_546
H0 O0 1.013858 1_555
H0 O19 1.643871 1_555
H1 O1 1.013858 1_555
H1 O18 1.643871 1_555
H2 O2 0.995622 1_555
H3 O3 0.995622 1_555
H4 O4 1.002293 1_655
H5 O5 1.002293 1_565
H6 O6 1.001953 1_555
H7 O7 1.001953 1_555
H8 O8 0.998447 1_555
H9 O9 0.998447 1_555
H10 O10 1.013635 1_555
H10 O12 1.656229 1_555
H11 O11 1.013635 1_555
H11 O13 1.656229 1_555
O0 Te0 1.954785 1_545
O1 Te1 1.954785 1_455
O2 Te0 1.966473 1_555
O3 Te1 1.966473 1_555
O4 Te0 1.955117 1_545
O5 Te1 1.955117 1_455
O6 Te0 1.955656 1_555
O7 Te1 1.955656 1_555
O8 Te0 1.962544 1_555
O9 Te1 1.962544 1_555
O10 Te0 1.950947 1_555
O11 Te1 1.950947 1_555
O12 Se0 1.669624 1_555
O13 Se1 1.669624 1_556
O14 Se0 1.684684 1_555
O15 Se1 1.684684 1_555
O16 Se0 1.693629 1_565
O17 Se1 1.693629 1_656
O18 Se0 1.666345 1_555
O19 Se1 1.666345 1_555
