# generated using pymatgen
data_Fe10O9F11
_symmetry_space_group_name_H-M   'P 1'
_cell_length_a   15.38027600
_cell_length_b   4.78838900
_cell_length_c   4.79200993
_cell_angle_alpha   86.57165735
_cell_angle_beta   90.00000000
_cell_angle_gamma   90.00000000
_symmetry_Int_Tables_number   1
_chemical_formula_structural   Fe10O9F11
_chemical_formula_sum   'Fe10 O9 F11'
_cell_volume   352.28434123
_cell_formula_units_Z   1
loop_
 _symmetry_equiv_pos_site_id
 _symmetry_equiv_pos_as_xyz
  1  'x, y, z'
loop_
 _atom_site_type_symbol
 _atom_site_label
 _atom_site_symmetry_multiplicity
 _atom_site_fract_x
 _atom_site_fract_y
 _atom_site_fract_z
 _atom_site_occupancy
  Fe  Fe0  1  0.40290200  0.00689600  0.99290800  1
  Fe  Fe1  1  0.59709800  0.00689600  0.99290800  1
  Fe  Fe2  1  0.80489800  0.95833500  0.02283100  1
  Fe  Fe3  1  0.00000000  0.01036700  0.94368500  1
  Fe  Fe4  1  0.19510200  0.95833500  0.02283100  1
  Fe  Fe5  1  0.50000000  0.50184500  0.49813500  1
  Fe  Fe6  1  0.89772200  0.52755000  0.53204400  1
  Fe  Fe7  1  0.68960200  0.50739400  0.48354600  1
  Fe  Fe8  1  0.10227800  0.52755000  0.53204400  1
  Fe  Fe9  1  0.31039800  0.50739400  0.48354600  1
  O  O0  1  0.89964100  0.81041600  0.80797400  1
  O  O1  1  0.10035900  0.81041600  0.80797400  1
  O  O2  1  0.40138200  0.70400000  0.29350700  1
  O  O3  1  0.59861800  0.70400000  0.29350700  1
  O  O4  1  0.79941100  0.67861700  0.31921000  1
  O  O5  1  0.20058900  0.67861700  0.31921000  1
  O  O6  1  0.39880200  0.30510500  0.69174300  1
  O  O7  1  0.60119800  0.30510500  0.69174300  1
  O  O8  1  0.00000000  0.32341400  0.67681400  1
  F  F0  1  0.50000000  0.80101300  0.79030100  1
  F  F1  1  0.70511600  0.80040700  0.80745900  1
  F  F2  1  0.29488400  0.80040700  0.80745900  1
  F  F3  1  0.00000000  0.71425100  0.29689800  1
  F  F4  1  0.79918400  0.29220100  0.71335400  1
  F  F5  1  0.20081600  0.29220100  0.71335400  1
  F  F6  1  0.50000000  0.20934400  0.19798500  1
  F  F7  1  0.90124400  0.19109000  0.18936000  1
  F  F8  1  0.70702100  0.18787000  0.19415800  1
  F  F9  1  0.29297900  0.18787000  0.19415800  1
  F  F10  1  0.09875600  0.19109000  0.18936000  1
loop_
_geom_bond_atom_site_label_1
_geom_bond_atom_site_label_2
_geom_bond_distance
_geom_bond_site_symmetry_2
Fe0 O6 1.969595 1_555
Fe0 O2 1.982234 1_546
Fe1 O7 1.969595 1_555
Fe1 O3 1.982234 1_546
Fe2 O4 1.894917 1_555
Fe2 O0 1.942247 1_554
Fe3 O8 1.911323 1_555
Fe3 O1 1.948496 1_545
Fe3 O0 1.948496 1_445
Fe4 O5 1.894917 1_555
Fe4 O1 1.942247 1_554
Fe5 O6 2.016498 1_555
Fe5 O7 2.016498 1_555
Fe5 O3 2.021293 1_555
Fe5 O2 2.021293 1_555
Fe6 O4 1.939464 1_555
Fe6 O0 1.948855 1_555
Fe6 O8 1.957083 1_655
Fe7 O3 1.889780 1_555
Fe7 O7 1.914882 1_555
Fe7 O4 2.016805 1_555
Fe8 O5 1.939464 1_555
Fe8 O1 1.948855 1_555
Fe8 O8 1.957083 1_555
Fe9 O2 1.889780 1_555
Fe9 O6 1.914882 1_555
Fe9 O5 2.016805 1_555
F0 Fe5 2.062086 1_555
F0 Fe1 2.063791 1_565
F0 Fe0 2.063791 1_565
F1 Fe2 2.021286 1_556
F1 Fe1 2.152331 1_565
F1 Fe7 2.166861 1_555
F2 Fe4 2.021286 1_556
F2 Fe0 2.152331 1_565
F2 Fe9 2.166861 1_555
F3 Fe8 2.103094 1_555
F3 Fe6 2.103094 1_455
F3 Fe3 2.142044 1_564
F4 Fe6 2.050523 1_555
F4 Fe2 2.116432 1_546
F4 Fe7 2.231452 1_555
F5 Fe8 2.050523 1_555
F5 Fe4 2.116432 1_546
F5 Fe9 2.231452 1_555
F6 Fe1 2.061470 1_554
F6 Fe0 2.061470 1_554
F6 Fe5 2.066739 1_555
F7 Fe2 2.044789 1_545
F7 Fe3 2.136291 1_654
F7 Fe6 2.368891 1_555
F8 Fe2 2.063043 1_545
F8 Fe7 2.142318 1_555
F8 Fe1 2.153889 1_554
F9 Fe4 2.063043 1_545
F9 Fe9 2.142318 1_555
F9 Fe0 2.153889 1_554
F10 Fe4 2.044789 1_545
F10 Fe3 2.136291 1_554
F10 Fe8 2.368891 1_555
