# generated using pymatgen
data_Li4FeCo3(PO4)4
_symmetry_space_group_name_H-M   'P 1'
_cell_length_a   6.00885900
_cell_length_b   4.76369600
_cell_length_c   10.32723874
_cell_angle_alpha   89.97834606
_cell_angle_beta   90.00000000
_cell_angle_gamma   90.00000000
_symmetry_Int_Tables_number   1
_chemical_formula_structural   Li4FeCo3(PO4)4
_chemical_formula_sum   'Li4 Fe1 Co3 P4 O16'
_cell_volume   295.61075990
_cell_formula_units_Z   1
loop_
 _symmetry_equiv_pos_site_id
 _symmetry_equiv_pos_as_xyz
  1  'x, y, z'
loop_
 _atom_site_type_symbol
 _atom_site_label
 _atom_site_symmetry_multiplicity
 _atom_site_fract_x
 _atom_site_fract_y
 _atom_site_fract_z
 _atom_site_occupancy
  Li  Li0  1  0.25022300  0.00097100  0.99893000  1
  Li  Li1  1  0.74977700  0.00097100  0.99893000  1
  Li  Li2  1  0.74937900  0.49968400  0.50088500  1
  Li  Li3  1  0.25062100  0.49968400  0.50088500  1
  Fe  Fe0  1  0.00000000  0.97286500  0.28024500  1
  Co  Co0  1  0.50000000  0.02173800  0.71944500  1
  Co  Co1  1  0.50000000  0.47838500  0.21878400  1
  Co  Co2  1  0.00000000  0.52191900  0.78036300  1
  P  P0  1  0.00000000  0.08400800  0.59541600  1
  P  P1  1  0.00000000  0.41533500  0.09473200  1
  P  P2  1  0.50000000  0.58390300  0.90469700  1
  P  P3  1  0.50000000  0.91604600  0.40578500  1
  O  O0  1  0.00000000  0.20683800  0.45617500  1
  O  O1  1  0.20505500  0.22142700  0.66647900  1
  O  O2  1  0.79494500  0.22142700  0.66647900  1
  O  O3  1  0.50000000  0.23908200  0.40187600  1
  O  O4  1  0.50000000  0.26186600  0.90168800  1
  O  O5  1  0.20602600  0.27942000  0.16535800  1
  O  O6  1  0.79397400  0.27942000  0.16535800  1
  O  O7  1  0.00000000  0.29476800  0.95469900  1
  O  O8  1  0.50000000  0.70526200  0.04502200  1
  O  O9  1  0.70454400  0.72197400  0.83366200  1
  O  O10  1  0.29545600  0.72197400  0.83366200  1
  O  O11  1  0.00000000  0.73710400  0.09751600  1
  O  O12  1  0.00000000  0.76146000  0.59836200  1
  O  O13  1  0.70315700  0.77826600  0.33440300  1
  O  O14  1  0.29684300  0.77826600  0.33440300  1
  O  O15  1  0.50000000  0.79594200  0.54576200  1
loop_
_geom_bond_atom_site_label_1
_geom_bond_atom_site_label_2
_geom_bond_distance
_geom_bond_site_symmetry_2
Li0 O7 2.104189 1_555
Li0 O8 2.112591 1_546
Li0 O10 2.180600 1_545
Li0 O5 2.187644 1_556
Li0 O4 2.191984 1_555
Li0 O11 2.208231 1_546
Li1 O7 2.104189 1_655
Li1 O8 2.112591 1_546
Li1 O9 2.180600 1_545
Li1 O6 2.187644 1_556
Li1 O4 2.191984 1_555
Li1 O11 2.208231 1_646
Li2 O0 2.104201 1_655
Li2 O15 2.110085 1_555
Li2 O2 2.180557 1_555
Li2 O13 2.189189 1_555
Li2 O3 2.198418 1_555
Li2 O12 2.199379 1_655
Li3 O0 2.104201 1_555
Li3 O15 2.110085 1_555
Li3 O1 2.180557 1_555
Li3 O14 2.189189 1_555
Li3 O3 2.198418 1_555
Li3 O12 2.199379 1_555
Fe0 O14 2.086461 1_555
Fe0 O13 2.086461 1_455
Fe0 O0 2.131861 1_565
Fe0 O11 2.196369 1_555
Fe0 O5 2.252014 1_565
Fe0 O6 2.252014 1_465
Co0 O2 2.084391 1_555
Co0 O1 2.084391 1_555
Co0 O15 2.091808 1_545
Co0 O4 2.202794 1_555
Co0 O9 2.222571 1_545
Co0 O10 2.222571 1_545
Co1 O5 2.079302 1_555
Co1 O6 2.079302 1_555
Co1 O8 2.094461 1_555
Co1 O3 2.207521 1_555
Co1 O13 2.226640 1_555
Co1 O14 2.226640 1_555
Co2 O10 2.088890 1_555
Co2 O9 2.088890 1_455
Co2 O7 2.100213 1_555
Co2 O12 2.198469 1_555
Co2 O1 2.225251 1_555
Co2 O2 2.225251 1_455
O0 P0 1.552259 1_555
O1 P0 1.576599 1_555
O2 P0 1.576599 1_655
O3 P3 1.539359 1_545
O4 P2 1.534413 1_555
O5 P1 1.575889 1_555
O6 P1 1.575889 1_655
O7 P1 1.556233 1_556
O8 P2 1.560431 1_554
O9 P2 1.575129 1_555
O10 P2 1.575129 1_555
O11 P1 1.533090 1_555
O12 P0 1.536810 1_565
O13 P3 1.569966 1_555
O14 P3 1.569966 1_555
O15 P3 1.554480 1_555
