# generated using pymatgen
data_LaYbS3
_symmetry_space_group_name_H-M   'P 1'
_cell_length_a   7.26855023
_cell_length_b   7.26855023
_cell_length_c   8.87231700
_cell_angle_alpha   90.00000000
_cell_angle_beta   90.00000000
_cell_angle_gamma   147.54061212
_symmetry_Int_Tables_number   1
_chemical_formula_structural   LaYbS3
_chemical_formula_sum   'La2 Yb2 S6'
_cell_volume   251.57390140
_cell_formula_units_Z   2
loop_
 _symmetry_equiv_pos_site_id
 _symmetry_equiv_pos_as_xyz
  1  'x, y, z'
loop_
 _atom_site_type_symbol
 _atom_site_label
 _atom_site_symmetry_multiplicity
 _atom_site_fract_x
 _atom_site_fract_y
 _atom_site_fract_z
 _atom_site_occupancy
  La  La0  1  0.25304000  0.74696000  0.75000000  1
  La  La1  1  0.74696000  0.25304000  0.25000000  1
  Yb  Yb0  1  0.00000000  0.00000000  0.00000000  1
  Yb  Yb1  1  0.00000000  0.00000000  0.50000000  1
  S  S0  1  0.10860700  0.89139300  0.25000000  1
  S  S1  1  0.89139300  0.10860700  0.75000000  1
  S  S2  1  0.63657700  0.36342300  0.58510100  1
  S  S3  1  0.36342300  0.63657700  0.41489900  1
  S  S4  1  0.63657700  0.36342300  0.91489900  1
  S  S5  1  0.36342300  0.63657700  0.08510100  1
loop_
_geom_bond_atom_site_label_1
_geom_bond_atom_site_label_2
_geom_bond_distance
_geom_bond_site_symmetry_2
La0 S1 2.802865 1_455
La0 S1 2.802865 1_565
La0 S4 2.984935 1_455
La0 S2 2.984935 1_455
La0 S4 2.984935 1_565
La0 S2 2.984935 1_565
La0 S3 3.348614 1_555
La0 S5 3.348614 1_556
La1 S0 2.802865 1_545
La1 S0 2.802865 1_655
La1 S5 2.984935 1_655
La1 S5 2.984935 1_545
La1 S3 2.984935 1_545
La1 S3 2.984935 1_655
La1 S4 3.348614 1_554
La1 S2 3.348614 1_555
S0 Yb0 2.686609 1_565
S0 Yb1 2.686609 1_565
S1 Yb1 2.686609 1_655
S1 Yb0 2.686609 1_656
S2 Yb1 2.886350 1_665
S2 Yb1 2.886350 1_555
S3 Yb1 2.886350 1_665
S3 Yb1 2.886350 1_555
S4 Yb0 2.886350 1_666
S4 Yb0 2.886350 1_556
S5 Yb0 2.886350 1_665
S5 Yb0 2.886350 1_555
