# generated using pymatgen
data_Li5V3P8O29
_symmetry_space_group_name_H-M   'P 1'
_cell_length_a   9.77913119
_cell_length_b   9.77913119
_cell_length_c   14.07686925
_cell_angle_alpha   89.72555713
_cell_angle_beta   89.72555713
_cell_angle_gamma   59.97201237
_symmetry_Int_Tables_number   1
_chemical_formula_structural   Li5V3P8O29
_chemical_formula_sum   'Li10 V6 P16 O58'
_cell_volume   1165.48868693
_cell_formula_units_Z   2
loop_
 _symmetry_equiv_pos_site_id
 _symmetry_equiv_pos_as_xyz
  1  'x, y, z'
loop_
 _atom_site_type_symbol
 _atom_site_label
 _atom_site_symmetry_multiplicity
 _atom_site_fract_x
 _atom_site_fract_y
 _atom_site_fract_z
 _atom_site_occupancy
  Li  Li0  1  0.33369100  0.76314700  0.94103000  1
  Li  Li1  1  0.33598800  0.90344900  0.44027500  1
  Li  Li2  1  0.76314700  0.33369100  0.44103000  1
  Li  Li3  1  0.90344900  0.33598800  0.94027500  1
  Li  Li4  1  0.76358000  0.89919300  0.93984500  1
  Li  Li5  1  0.89919300  0.76358000  0.43984500  1
  Li  Li6  1  0.23488100  0.66560400  0.55981700  1
  Li  Li7  1  0.66560400  0.23488100  0.05981700  1
  Li  Li8  1  0.04389400  0.97861600  0.00534100  1
  Li  Li9  1  0.97861600  0.04389400  0.50534100  1
  V  V0  1  0.00271800  0.43434300  0.74887400  1
  V  V1  1  0.00037700  0.56285300  0.24785800  1
  V  V2  1  0.43434300  0.00271800  0.24887400  1
  V  V3  1  0.56285300  0.00037700  0.74785800  1
  V  V4  1  0.43483100  0.56410800  0.75363000  1
  V  V5  1  0.56410800  0.43483100  0.25363000  1
  P  P0  1  0.31369300  0.77541000  0.15895800  1
  P  P1  1  0.31085000  0.91134100  0.65496100  1
  P  P2  1  0.77541000  0.31369300  0.65895800  1
  P  P3  1  0.66852100  0.66561300  0.86904500  1
  P  P4  1  0.66561300  0.66852100  0.36904500  1
  P  P5  1  0.91134100  0.31085000  0.15496100  1
  P  P6  1  0.08239500  0.21986400  0.33817600  1
  P  P7  1  0.77291700  0.91283600  0.15789800  1
  P  P8  1  0.21986400  0.08239500  0.83817600  1
  P  P9  1  0.91283600  0.77291700  0.65789800  1
  P  P10  1  0.08354300  0.69271900  0.84224300  1
  P  P11  1  0.33160000  0.33561400  0.63122100  1
  P  P12  1  0.33561400  0.33160000  0.13122100  1
  P  P13  1  0.22556100  0.68415600  0.34049400  1
  P  P14  1  0.69271900  0.08354300  0.34224300  1
  P  P15  1  0.68415600  0.22556100  0.84049400  1
  O  O0  1  0.23028100  0.76848500  0.42898900  1
  O  O1  1  0.33644400  0.74085200  0.66690700  1
  O  O2  1  0.20107200  0.98976400  0.91808800  1
  O  O3  1  0.34293500  0.91744300  0.17097700  1
  O  O4  1  0.46686100  0.61846600  0.16943900  1
  O  O5  1  0.51248900  0.67430400  0.83237600  1
  O  O6  1  0.61846600  0.46686100  0.66943900  1
  O  O7  1  0.76848500  0.23028100  0.92898900  1
  O  O8  1  0.74085200  0.33644400  0.16690700  1
  O  O9  1  0.51095400  0.81332300  0.32711900  1
  O  O10  1  0.46978500  0.90453400  0.66864400  1
  O  O11  1  0.67430400  0.51248900  0.33237600  1
  O  O12  1  0.67524900  0.66061500  0.97523100  1
  O  O13  1  0.66061500  0.67524900  0.47523100  1
  O  O14  1  0.81332300  0.51095400  0.82711900  1
  O  O15  1  0.61619600  0.91194600  0.17344900  1
  O  O16  1  0.67386900  0.81199000  0.82684200  1
  O  O17  1  0.91744300  0.34293500  0.67097700  1
  O  O18  1  0.01318200  0.19414800  0.23999700  1
  O  O19  1  0.98976400  0.20107200  0.41808800  1
  O  O20  1  0.98146300  0.22683000  0.06221500  1
  O  O21  1  0.90453400  0.46978500  0.16864400  1
  O  O22  1  0.81199000  0.67386900  0.32684200  1
  O  O23  1  0.08192000  0.25678300  0.84011200  1
  O  O24  1  0.91194600  0.61619600  0.67344900  1
  O  O25  1  0.74621900  0.91113500  0.66115600  1
  O  O26  1  0.19414800  0.01318200  0.73999700  1
  O  O27  1  0.22683000  0.98146300  0.56221500  1
  O  O28  1  0.79896000  0.98805800  0.42362100  1
  O  O29  1  0.25678300  0.08192000  0.34011200  1
  O  O30  1  0.07381800  0.38123600  0.33003500  1
  O  O31  1  0.91113500  0.74621900  0.16115600  1
  O  O32  1  0.18576900  0.33349300  0.68195800  1
  O  O33  1  0.07898400  0.53707200  0.83073700  1
  O  O34  1  0.98805800  0.79896000  0.92362100  1
  O  O35  1  0.00025400  0.76822200  0.56607500  1
  O  O36  1  0.01329700  0.78879800  0.74320500  1
  O  O37  1  0.08257600  0.65855300  0.34108300  1
  O  O38  1  0.33349300  0.18576900  0.18195800  1
  O  O39  1  0.38123600  0.07381800  0.83003500  1
  O  O40  1  0.19372800  0.47795400  0.17698100  1
  O  O41  1  0.34241400  0.31759500  0.02630100  1
  O  O42  1  0.31759500  0.34241400  0.52630100  1
  O  O43  1  0.32611300  0.48724600  0.66937800  1
  O  O44  1  0.53707200  0.07898400  0.33073700  1
  O  O45  1  0.47795400  0.19372800  0.67698100  1
  O  O46  1  0.25625400  0.65776100  0.84505700  1
  O  O47  1  0.20112200  0.79326400  0.24827800  1
  O  O48  1  0.22634900  0.79563200  0.06802400  1
  O  O49  1  0.38148000  0.52648000  0.32608400  1
  O  O50  1  0.48724600  0.32611300  0.16937800  1
  O  O51  1  0.52648000  0.38148000  0.82608400  1
  O  O52  1  0.65855300  0.08257600  0.84108300  1
  O  O53  1  0.76822200  0.00025400  0.06607500  1
  O  O54  1  0.78879800  0.01329700  0.24320500  1
  O  O55  1  0.65776100  0.25625400  0.34505700  1
  O  O56  1  0.79563200  0.22634900  0.56802400  1
  O  O57  1  0.79326400  0.20112200  0.74827800  1
loop_
_geom_bond_atom_site_label_1
_geom_bond_atom_site_label_2
_geom_bond_distance
_geom_bond_site_symmetry_2
Li0 O2 1.953987 1_555
Li0 O48 2.013037 1_556
Li0 O46 2.065183 1_555
Li0 O5 2.148991 1_555
Li1 O27 1.961614 1_555
Li1 O0 2.050573 1_555
Li1 O29 2.065901 1_565
Li1 O9 2.172484 1_555
Li2 O19 1.953987 1_555
Li2 O56 2.013037 1_555
Li2 O55 2.065183 1_555
Li2 O11 2.148991 1_555
Li3 O20 1.961614 1_556
Li3 O7 2.050573 1_555
Li3 O23 2.065901 1_655
Li3 O14 2.172484 1_555
Li4 O34 1.917196 1_555
Li4 O53 2.049080 1_566
Li4 O52 2.085685 1_565
Li4 O16 2.191440 1_555
Li5 O28 1.917196 1_555
Li5 O35 2.049080 1_655
Li5 O37 2.085685 1_655
Li5 O22 2.191440 1_555
Li6 O35 1.993425 1_555
Li6 O0 2.084143 1_555
Li6 O1 2.134691 1_555
Li6 O43 2.155633 1_555
Li7 O53 1.993425 1_555
Li7 O7 2.084143 1_554
Li7 O8 2.134691 1_555
Li7 O50 2.155633 1_555
Li8 O48 1.992150 1_555
Li8 O2 2.007832 1_554
Li8 O20 2.331594 1_465
Li8 O34 2.386126 1_454
Li9 O56 1.992150 1_555
Li9 O19 2.007832 1_555
Li9 O27 2.331594 1_645
Li9 O28 2.386126 1_545
O0 P13 1.510808 1_555
O1 P1 1.565461 1_555
O1 V4 1.931341 1_555
O2 P8 1.508187 1_565
O3 P0 1.562001 1_555
O3 V2 1.860397 1_565
O4 P0 1.523154 1_555
O4 V5 1.953203 1_555
O5 P3 1.574561 1_555
O5 V4 1.950728 1_555
O6 P2 1.523154 1_555
O6 V4 1.953203 1_555
O7 P15 1.510808 1_555
O8 P5 1.565461 1_555
O8 V5 1.931341 1_555
O9 P4 1.580508 1_555
O9 V2 1.950489 1_565
O10 P1 1.535060 1_555
O10 V3 1.955423 1_565
O11 P4 1.574561 1_555
O11 V5 1.950728 1_555
O12 P3 1.496017 1_555
O13 P4 1.496017 1_555
O14 P3 1.580508 1_555
O14 V0 1.950489 1_655
O15 P7 1.551439 1_555
O15 V2 1.867847 1_565
O16 P3 1.571997 1_555
O16 V3 1.949093 1_565
O17 P2 1.562001 1_555
O17 V0 1.860397 1_655
O18 P5 1.608721 1_455
O18 P6 1.616811 1_555
O19 P6 1.508187 1_655
O20 P5 1.512496 1_555
O21 P5 1.535060 1_555
O21 V1 1.955423 1_655
O22 P4 1.571997 1_555
O22 V1 1.949093 1_655
O23 P8 1.557688 1_555
O23 V0 1.976515 1_555
O24 P9 1.551439 1_555
O24 V0 1.867847 1_655
O25 P9 1.509830 1_555
O25 V3 1.972221 1_565
O26 P1 1.608721 1_545
O26 P8 1.616811 1_555
O27 P1 1.512496 1_555
O28 P14 1.514530 1_565
O29 P6 1.557688 1_555
O29 V2 1.976515 1_555
O30 P6 1.541552 1_555
O30 V1 1.928730 1_555
O31 P7 1.509830 1_555
O31 V1 1.972221 1_655
O32 P11 1.601251 1_555
O32 V0 1.813880 1_555
O33 P10 1.554135 1_555
O33 V0 1.913801 1_555
O34 P10 1.514530 1_655
O35 P9 1.534398 1_455
O36 P9 1.611556 1_455
O36 P10 1.627566 1_555
O37 P13 1.538886 1_555
O37 V1 2.004732 1_555
O38 P12 1.601251 1_555
O38 V2 1.813880 1_555
O39 P8 1.541552 1_555
O39 V3 1.928730 1_555
O40 P12 1.549606 1_555
O40 V1 1.917971 1_555
O41 P12 1.482035 1_555
O42 P11 1.482035 1_555
O43 P11 1.554957 1_555
O43 V4 1.980484 1_555
O44 P14 1.554135 1_555
O44 V2 1.913801 1_555
O45 P11 1.549606 1_555
O45 V3 1.917971 1_555
O46 P10 1.547149 1_555
O46 V4 1.983396 1_555
O47 P13 1.617143 1_555
O47 P0 1.618562 1_555
O48 P0 1.498746 1_555
O49 P13 1.546142 1_555
O49 V5 1.849975 1_555
O50 P12 1.554957 1_555
O50 V5 1.980484 1_555
O51 P15 1.546142 1_555
O51 V4 1.849975 1_555
O52 P15 1.538886 1_555
O52 V3 2.004732 1_555
O53 P7 1.534398 1_545
O54 P7 1.611556 1_545
O54 P14 1.627566 1_555
O55 P14 1.547149 1_555
O55 V5 1.983396 1_555
O56 P2 1.498746 1_555
O57 P15 1.617143 1_555
O57 P2 1.618562 1_555
