# generated using pymatgen
data_Li7(CoO3)2
_symmetry_space_group_name_H-M   'P 1'
_cell_length_a   8.74802700
_cell_length_b   8.74802700
_cell_length_c   3.74096900
_cell_angle_alpha   90.00000000
_cell_angle_beta   90.00000000
_cell_angle_gamma   90.00000000
_symmetry_Int_Tables_number   1
_chemical_formula_structural   Li7(CoO3)2
_chemical_formula_sum   'Li14 Co4 O12'
_cell_volume   286.28878732
_cell_formula_units_Z   2
loop_
 _symmetry_equiv_pos_site_id
 _symmetry_equiv_pos_as_xyz
  1  'x, y, z'
loop_
 _atom_site_type_symbol
 _atom_site_label
 _atom_site_symmetry_multiplicity
 _atom_site_fract_x
 _atom_site_fract_y
 _atom_site_fract_z
 _atom_site_occupancy
  Li  Li0  1  0.50000000  0.50000000  0.50000000  1
  Li  Li1  1  0.32522000  0.61151100  0.21202300  1
  Li  Li2  1  0.15629600  0.65629600  0.75000000  1
  Li  Li3  1  0.61151100  0.67478000  0.78797700  1
  Li  Li4  1  0.65629600  0.84370400  0.25000000  1
  Li  Li5  1  0.11151100  0.82522000  0.28797700  1
  Li  Li6  1  0.82522000  0.88848900  0.71202300  1
  Li  Li7  1  0.00000000  0.00000000  0.00000000  1
  Li  Li8  1  0.17478000  0.11151100  0.71202300  1
  Li  Li9  1  0.88848900  0.17478000  0.28797700  1
  Li  Li10  1  0.34370400  0.15629600  0.25000000  1
  Li  Li11  1  0.38848900  0.32522000  0.78797700  1
  Li  Li12  1  0.84370400  0.34370400  0.75000000  1
  Li  Li13  1  0.67478000  0.38848900  0.21202300  1
  Co  Co0  1  0.38420900  0.88420900  0.75000000  1
  Co  Co1  1  0.61579100  0.11579100  0.75000000  1
  Co  Co2  1  0.88420900  0.61579100  0.25000000  1
  Co  Co3  1  0.11579100  0.38420900  0.25000000  1
  O  O0  1  0.10112100  0.60112100  0.25000000  1
  O  O1  1  0.66988500  0.61517100  0.27996600  1
  O  O2  1  0.38482900  0.66988500  0.72003400  1
  O  O3  1  0.88482900  0.83011500  0.22003400  1
  O  O4  1  0.16988500  0.88482900  0.77996600  1
  O  O5  1  0.60112100  0.89887900  0.75000000  1
  O  O6  1  0.39887900  0.10112100  0.75000000  1
  O  O7  1  0.83011500  0.11517100  0.77996600  1
  O  O8  1  0.11517100  0.16988500  0.22003400  1
  O  O9  1  0.61517100  0.33011500  0.72003400  1
  O  O10  1  0.33011500  0.38482900  0.27996600  1
  O  O11  1  0.89887900  0.39887900  0.25000000  1
loop_
_geom_bond_atom_site_label_1
_geom_bond_atom_site_label_2
_geom_bond_distance
_geom_bond_site_symmetry_2
Li0 O1 1.975176 1_555
Li0 O2 1.975176 1_555
Li0 O10 1.975176 1_555
Li0 O9 1.975176 1_555
Li1 O0 1.967666 1_555
Li1 O2 1.979947 1_554
Li1 O10 1.999702 1_555
Li1 O2 2.035784 1_555
Li2 O0 1.991145 1_556
Li2 O0 1.991145 1_555
Li2 O4 2.005879 1_555
Li2 O2 2.005879 1_555
Li3 O5 1.967666 1_555
Li3 O1 1.979947 1_556
Li3 O2 1.999702 1_555
Li3 O1 2.035784 1_555
Li4 O5 1.991145 1_554
Li4 O5 1.991145 1_555
Li4 O1 2.005879 1_555
Li4 O3 2.005879 1_555
Li5 O0 1.967666 1_555
Li5 O4 1.979947 1_555
Li5 O3 1.999702 1_455
Li5 O4 2.035784 1_554
Li6 O5 1.967666 1_555
Li6 O3 1.979947 1_555
Li6 O7 1.999702 1_565
Li6 O3 2.035784 1_556
Li7 O8 1.975176 1_555
Li7 O4 1.975176 1_544
Li7 O3 1.975176 1_445
Li7 O7 1.975176 1_454
Li8 O6 1.967666 1_555
Li8 O8 1.979947 1_555
Li8 O4 1.999702 1_545
Li8 O8 2.035784 1_556
Li9 O11 1.967666 1_555
Li9 O7 1.979947 1_555
Li9 O8 1.999702 1_655
Li9 O7 2.035784 1_554
Li10 O6 1.991145 1_554
Li10 O6 1.991145 1_555
Li10 O8 2.005879 1_555
Li10 O10 2.005879 1_555
Li11 O6 1.967666 1_555
Li11 O10 1.979947 1_556
Li11 O9 1.999702 1_555
Li11 O10 2.035784 1_555
Li12 O11 1.991145 1_555
Li12 O11 1.991145 1_556
Li12 O9 2.005879 1_555
Li12 O7 2.005879 1_555
Li13 O11 1.967666 1_555
Li13 O9 1.979947 1_554
Li13 O1 1.999702 1_555
Li13 O9 2.035784 1_555
Co0 O2 1.878268 1_555
Co0 O4 1.878268 1_555
Co0 O6 1.901887 1_565
Co0 O5 1.901887 1_555
Co1 O7 1.878268 1_555
Co1 O9 1.878268 1_555
Co1 O5 1.901887 1_545
Co1 O6 1.901887 1_555
Co2 O1 1.878268 1_555
Co2 O3 1.878268 1_555
Co2 O0 1.901887 1_655
Co2 O11 1.901887 1_555
Co3 O8 1.878268 1_555
Co3 O10 1.878268 1_555
Co3 O11 1.901887 1_455
Co3 O0 1.901887 1_555
