# generated using pymatgen
data_KB6(HO)6
_symmetry_space_group_name_H-M   'P 1'
_cell_length_a   10.98397500
_cell_length_b   7.98054700
_cell_length_c   12.39583772
_cell_angle_alpha   54.14194344
_cell_angle_beta   90.00000000
_cell_angle_gamma   90.00000000
_symmetry_Int_Tables_number   1
_chemical_formula_structural   KB6(HO)6
_chemical_formula_sum   'K4 B24 H24 O24'
_cell_volume   880.65414698
_cell_formula_units_Z   4
loop_
 _symmetry_equiv_pos_site_id
 _symmetry_equiv_pos_as_xyz
  1  'x, y, z'
loop_
 _atom_site_type_symbol
 _atom_site_label
 _atom_site_symmetry_multiplicity
 _atom_site_fract_x
 _atom_site_fract_y
 _atom_site_fract_z
 _atom_site_occupancy
  K  K0  1  0.04408500  0.72831800  0.01418100  1
  K  K1  1  0.45591500  0.72831800  0.51418100  1
  K  K2  1  0.95591500  0.27168200  0.98581900  1
  K  K3  1  0.54408500  0.27168200  0.48581900  1
  B  B0  1  0.11139900  0.54252800  0.33862600  1
  B  B1  1  0.38860100  0.54252800  0.83862600  1
  B  B2  1  0.88860100  0.45747200  0.66137400  1
  B  B3  1  0.61139900  0.45747200  0.16137400  1
  B  B4  1  0.04876400  0.59421800  0.43513900  1
  B  B5  1  0.45123600  0.59421800  0.93513900  1
  B  B6  1  0.95123600  0.40578200  0.56486100  1
  B  B7  1  0.54876400  0.40578200  0.06486100  1
  B  B8  1  0.24920200  0.26776000  0.59180300  1
  B  B9  1  0.25079800  0.26776000  0.09180300  1
  B  B10  1  0.75079800  0.73224000  0.40819700  1
  B  B11  1  0.74920200  0.73224000  0.90819700  1
  B  B12  1  0.08704300  0.30944900  0.55179400  1
  B  B13  1  0.41295700  0.30944900  0.05179400  1
  B  B14  1  0.91295700  0.69055100  0.44820600  1
  B  B15  1  0.58704300  0.69055100  0.94820600  1
  B  B16  1  0.85226800  0.32913100  0.49767500  1
  B  B17  1  0.64773200  0.32913100  0.99767500  1
  B  B18  1  0.14773200  0.67086900  0.50232500  1
  B  B19  1  0.35226800  0.67086900  0.00232500  1
  B  B20  1  0.90939800  0.69440500  0.30118900  1
  B  B21  1  0.59060200  0.69440500  0.80118900  1
  B  B22  1  0.09060200  0.30559500  0.69881100  1
  B  B23  1  0.40939800  0.30559500  0.19881100  1
  H  H0  1  0.63813600  0.97470200  0.33000800  1
  H  H1  1  0.86186400  0.97470200  0.83000800  1
  H  H2  1  0.36186400  0.02529800  0.66999200  1
  H  H3  1  0.13813600  0.02529800  0.16999200  1
  H  H4  1  0.37181000  0.82654700  0.21577400  1
  H  H5  1  0.12819000  0.82654700  0.71577400  1
  H  H6  1  0.62819000  0.17345300  0.78422600  1
  H  H7  1  0.87181000  0.17345300  0.28422600  1
  H  H8  1  0.28216500  0.52430500  0.19878900  1
  H  H9  1  0.21783500  0.52430500  0.69878900  1
  H  H10  1  0.71783500  0.47569500  0.80121100  1
  H  H11  1  0.78216500  0.47569500  0.30121100  1
  H  H12  1  0.58263200  0.25875500  0.76016600  1
  H  H13  1  0.91736800  0.25875500  0.26016600  1
  H  H14  1  0.41736800  0.74124500  0.23983400  1
  H  H15  1  0.08263200  0.74124500  0.73983400  1
  H  H16  1  0.93436200  0.80802100  0.47717900  1
  H  H17  1  0.56563800  0.80802100  0.97717900  1
  H  H18  1  0.06563800  0.19197900  0.52282100  1
  H  H19  1  0.43436200  0.19197900  0.02282100  1
  H  H20  1  0.71910800  0.06612900  0.14632600  1
  H  H21  1  0.78089200  0.06612900  0.64632600  1
  H  H22  1  0.28089200  0.93387100  0.85367400  1
  H  H23  1  0.21910800  0.93387100  0.35367400  1
  O  O0  1  0.66169100  0.46538200  0.24729500  1
  O  O1  1  0.83830900  0.46538200  0.74729500  1
  O  O2  1  0.33830900  0.53461800  0.75270500  1
  O  O3  1  0.16169100  0.53461800  0.25270500  1
  O  O4  1  0.92293100  0.84234000  0.17672400  1
  O  O5  1  0.57706900  0.84234000  0.67672400  1
  O  O6  1  0.07706900  0.15766000  0.82327600  1
  O  O7  1  0.42293100  0.15766000  0.32327600  1
  O  O8  1  0.32416300  0.42092300  0.51957300  1
  O  O9  1  0.17583700  0.42092300  0.01957300  1
  O  O10  1  0.67583700  0.57907700  0.48042700  1
  O  O11  1  0.82416300  0.57907700  0.98042700  1
  O  O12  1  0.72040000  0.94504400  0.31559900  1
  O  O13  1  0.77960000  0.94504400  0.81559900  1
  O  O14  1  0.27960000  0.05495600  0.68440100  1
  O  O15  1  0.22040000  0.05495600  0.18440100  1
  O  O16  1  0.78462600  0.15896400  0.54697500  1
  O  O17  1  0.71537400  0.15896400  0.04697500  1
  O  O18  1  0.21537400  0.84103600  0.45302500  1
  O  O19  1  0.28462600  0.84103600  0.95302500  1
  O  O20  1  0.85580900  0.47454700  0.35435500  1
  O  O21  1  0.64419100  0.47454700  0.85435500  1
  O  O22  1  0.14419100  0.52545300  0.64564500  1
  O  O23  1  0.35580900  0.52545300  0.14564500  1
loop_
_geom_bond_atom_site_label_1
_geom_bond_atom_site_label_2
_geom_bond_distance
_geom_bond_site_symmetry_2
K0 O3 2.728683 1_555
K0 O19 2.750569 1_554
K0 O9 2.815091 1_555
K0 O6 2.823475 1_564
K0 O11 2.830662 1_454
K0 O4 2.967583 1_455
K1 O2 2.728683 1_555
K1 O18 2.750569 1_555
K1 O8 2.815091 1_555
K1 O7 2.823475 1_565
K1 O10 2.830662 1_555
K1 O5 2.967583 1_555
K2 O1 2.728683 1_555
K2 O17 2.750569 1_556
K2 O11 2.815091 1_555
K2 O4 2.823475 1_546
K2 O9 2.830662 1_656
K2 O6 2.967583 1_655
K3 O0 2.728683 1_555
K3 O16 2.750569 1_555
K3 O10 2.815091 1_555
K3 O5 2.823475 1_545
K3 O8 2.830662 1_555
K3 O7 2.967583 1_555
B0 O3 1.233801 1_555
B0 B4 1.628786 1_555
B1 O2 1.233801 1_555
B1 B5 1.628786 1_555
B2 O1 1.233801 1_555
B2 B6 1.628786 1_555
B3 O0 1.233801 1_555
B3 B7 1.628786 1_555
B4 B6 1.778126 1_455
B5 B7 1.778126 1_556
B8 O8 1.300578 1_555
B8 O14 1.424575 1_555
B9 O9 1.300578 1_555
B9 O15 1.424575 1_555
B10 O10 1.300578 1_555
B10 O12 1.424575 1_555
B11 O11 1.300578 1_555
B11 O13 1.424575 1_555
B12 H18 1.207300 1_555
B12 B6 1.728680 1_455
B12 B4 1.892750 1_555
B13 H19 1.207300 1_555
B13 B7 1.728680 1_555
B13 B5 1.892750 1_554
B14 H16 1.207300 1_555
B14 B4 1.728680 1_655
B14 B6 1.892750 1_555
B15 H17 1.207300 1_555
B15 B5 1.728680 1_555
B15 B7 1.892750 1_556
B16 O16 1.340680 1_555
B16 O20 1.445359 1_555
B16 B6 1.687115 1_555
B17 O17 1.340680 1_556
B17 O21 1.445359 1_555
B17 B7 1.687115 1_556
B18 O18 1.340680 1_555
B18 O22 1.445359 1_555
B18 B4 1.687115 1_555
B19 O19 1.340680 1_554
B19 O23 1.445359 1_555
B19 B5 1.687115 1_554
B20 O4 1.289308 1_555
B20 O20 1.582612 1_555
B20 B4 2.045546 1_655
B21 O5 1.289308 1_555
B21 O21 1.582612 1_555
B21 B5 2.045546 1_555
B22 O6 1.289308 1_555
B22 O22 1.582612 1_555
B22 B6 2.045546 1_455
B23 O7 1.289308 1_555
B23 O23 1.582612 1_555
B23 B7 2.045546 1_555
H0 O12 0.976687 1_555
H0 K1 2.797355 1_555
H1 O13 0.976687 1_555
H1 K0 2.797355 1_656
H2 O14 0.976687 1_555
H2 K3 2.797355 1_555
H3 O15 0.976687 1_555
H3 K2 2.797355 1_454
H8 O23 1.039860 1_555
H8 O3 1.506309 1_555
H9 O22 1.039860 1_555
H9 O2 1.506309 1_555
H10 O21 1.039860 1_555
H10 O1 1.506309 1_555
H11 O20 1.039860 1_555
H11 O0 1.506309 1_555
H12 H6 0.751614 1_555
H13 H7 0.751614 1_555
H14 H4 0.751614 1_555
H15 H5 0.751614 1_555
H20 O17 0.999158 1_555
H21 O16 0.999158 1_555
H22 O19 0.999158 1_555
H23 O18 0.999158 1_555
