# generated using pymatgen
data_LiZr2Tc
_symmetry_space_group_name_H-M   'P 1'
_cell_length_a   4.67070171
_cell_length_b   4.67070171
_cell_length_c   4.67070171
_cell_angle_alpha   60.00000000
_cell_angle_beta   60.00000000
_cell_angle_gamma   60.00000000
_symmetry_Int_Tables_number   1
_chemical_formula_structural   LiZr2Tc
_chemical_formula_sum   'Li1 Zr2 Tc1'
_cell_volume   72.04957086
_cell_formula_units_Z   1
loop_
 _symmetry_equiv_pos_site_id
 _symmetry_equiv_pos_as_xyz
  1  'x, y, z'
loop_
 _atom_site_type_symbol
 _atom_site_label
 _atom_site_symmetry_multiplicity
 _atom_site_fract_x
 _atom_site_fract_y
 _atom_site_fract_z
 _atom_site_occupancy
  Li  Li0  1  0.25000100  0.25000100  0.25000100  1
  Zr  Zr0  1  -0.00000000  -0.00000000  -0.00000000  1
  Zr  Zr1  1  0.50000000  0.50000000  0.50000000  1
  Tc  Tc0  1  0.75000100  0.75000100  0.75000100  1
loop_
_geom_bond_atom_site_label_1
_geom_bond_atom_site_label_2
_geom_bond_distance
_geom_bond_site_symmetry_2
Li0 Zr1 2.860198 1_555
Li0 Zr0 2.860205 1_556
Li0 Zr0 2.860205 1_565
Li0 Zr0 2.860205 1_655
Li0 Zr1 2.860213 1_554
Li0 Zr1 2.860213 1_545
Li0 Zr1 2.860213 1_455
Li0 Zr0 2.860220 1_555
Li0 Tc0 3.302685 1_544
Li0 Tc0 3.302685 1_445
Li0 Tc0 3.302685 1_454
Li0 Tc0 3.302685 1_554
Li0 Tc0 3.302685 1_545
Li0 Tc0 3.302685 1_455
Tc0 Zr0 2.860198 1_666
Tc0 Zr1 2.860205 1_565
Tc0 Zr1 2.860205 1_655
Tc0 Zr1 2.860205 1_556
Tc0 Zr0 2.860213 1_665
Tc0 Zr0 2.860213 1_656
Tc0 Zr0 2.860213 1_566
Tc0 Zr1 2.860220 1_555
