# generated using pymatgen
data_LiFeP2O7
_symmetry_space_group_name_H-M   'P 1'
_cell_length_a   9.72838900
_cell_length_b   9.81278743
_cell_length_c   11.23481526
_cell_angle_alpha   89.73797848
_cell_angle_beta   78.03177316
_cell_angle_gamma   89.92491186
_symmetry_Int_Tables_number   1
_chemical_formula_structural   LiFeP2O7
_chemical_formula_sum   'Li8 Fe8 P16 O56'
_cell_volume   1049.18047275
_cell_formula_units_Z   8
loop_
 _symmetry_equiv_pos_site_id
 _symmetry_equiv_pos_as_xyz
  1  'x, y, z'
loop_
 _atom_site_type_symbol
 _atom_site_label
 _atom_site_symmetry_multiplicity
 _atom_site_fract_x
 _atom_site_fract_y
 _atom_site_fract_z
 _atom_site_occupancy
  Li  Li0  1  0.09027400  0.89288400  0.97514200  1
  Li  Li1  1  0.40461500  0.38933400  0.02672600  1
  Li  Li2  1  0.39791200  0.03663300  0.49660200  1
  Li  Li3  1  0.59125600  0.60189400  0.97058000  1
  Li  Li4  1  0.64922000  0.89819800  0.94664200  1
  Li  Li5  1  0.90714500  0.11134500  0.02903500  1
  Li  Li6  1  0.86515800  0.43303200  0.51152100  1
  Li  Li7  1  0.88576300  0.71574200  0.45338000  1
  Fe  Fe0  1  0.20482500  0.08981500  0.32838600  1
  Fe  Fe1  1  0.24532600  0.79733300  0.17743400  1
  Fe  Fe2  1  0.25279300  0.29584800  0.82298500  1
  Fe  Fe3  1  0.29308900  0.58200200  0.66166300  1
  Fe  Fe4  1  0.70343800  0.40959100  0.31908500  1
  Fe  Fe5  1  0.74649400  0.70444500  0.17903700  1
  Fe  Fe6  1  0.75531300  0.21243800  0.82422000  1
  Fe  Fe7  1  0.79299100  0.92649500  0.66281100  1
  P  P0  1  0.01829900  0.55333500  0.24916400  1
  P  P1  1  0.11327100  0.29055100  0.11716900  1
  P  P2  1  0.06150800  0.07572800  0.76485900  1
  P  P3  1  0.12630600  0.85825200  0.57361400  1
  P  P4  1  0.37588800  0.35763900  0.42806400  1
  P  P5  1  0.43456500  0.57423900  0.23675000  1
  P  P6  1  0.51819800  0.94713500  0.25144300  1
  P  P7  1  0.38128700  0.78714800  0.88257000  1
  P  P8  1  0.61152500  0.20765600  0.11542100  1
  P  P9  1  0.47562100  0.05583100  0.75540400  1
  P  P10  1  0.56380500  0.42248000  0.76365300  1
  P  P11  1  0.62483700  0.64395500  0.57799800  1
  P  P12  1  0.87387600  0.14354600  0.42721200  1
  P  P13  1  0.93308600  0.92648500  0.23979900  1
  P  P14  1  0.88626900  0.71462400  0.88307500  1
  P  P15  1  0.97742100  0.44755300  0.75471400  1
  O  O0  1  0.00913100  0.57062300  0.38312200  1
  O  O1  1  0.02977600  0.15252900  0.42961300  1
  O  O2  1  0.08559900  0.92008600  0.26526700  1
  O  O3  1  0.10532800  0.41766500  0.20936800  1
  O  O4  1  0.09848100  0.66518700  0.16614600  1
  O  O5  1  0.18610300  0.18079300  0.18021000  1
  O  O6  1  0.21517600  0.33851200  0.99686600  1
  O  O7  1  0.02918400  0.74411000  0.90302700  1
  O  O8  1  0.12366800  0.93890900  0.69954100  1
  O  O9  1  0.05785600  0.06004300  0.89854800  1
  O  O10  1  0.13102800  0.46550500  0.77683300  1
  O  O11  1  0.18378500  0.71835200  0.59642200  1
  O  O12  1  0.16003000  0.19342900  0.71258700  1
  O  O13  1  0.21581000  0.94321800  0.47286400  1
  O  O14  1  0.29105300  0.43244400  0.53636800  1
  O  O15  1  0.34271600  0.69770300  0.28509600  1
  O  O16  1  0.32281600  0.21331000  0.40682500  1
  O  O17  1  0.36681100  0.96502000  0.22161800  1
  O  O18  1  0.36321700  0.44275500  0.30639500  1
  O  O19  1  0.43931700  0.55609100  0.10337400  1
  O  O20  1  0.46914600  0.24029700  0.09652200  1
  O  O21  1  0.27692600  0.83220800  0.00250500  1
  O  O22  1  0.32313200  0.67292000  0.81622000  1
  O  O23  1  0.38964300  0.91620600  0.79269400  1
  O  O24  1  0.41312600  0.41369600  0.73605200  1
  O  O25  1  0.39724600  0.16298500  0.84450500  1
  O  O26  1  0.47251700  0.65260900  0.56630900  1
  O  O27  1  0.51848200  0.92535200  0.38233000  1
  O  O28  1  0.47752500  0.08132500  0.62489800  1
  O  O29  1  0.53372900  0.35159800  0.42717000  1
  O  O30  1  0.60365000  0.84366100  0.15937300  1
  O  O31  1  0.58749200  0.58342500  0.26466500  1
  O  O32  1  0.60307400  0.08687300  0.21311100  1
  O  O33  1  0.68669800  0.32105400  0.17140500  1
  O  O34  1  0.71325800  0.15042400  0.99674200  1
  O  O35  1  0.52463500  0.76330500  0.90927300  1
  O  O36  1  0.56497000  0.43157100  0.89722300  1
  O  O37  1  0.62903600  0.56144500  0.70261400  1
  O  O38  1  0.62759200  0.03201200  0.78539600  1
  O  O39  1  0.69121300  0.78226400  0.59635000  1
  O  O40  1  0.66402500  0.30665900  0.70781400  1
  O  O41  1  0.72252200  0.56637800  0.47576300  1
  O  O42  1  0.78820800  0.06798500  0.53594800  1
  O  O43  1  0.84313300  0.80246600  0.29592000  1
  O  O44  1  0.81681000  0.28632600  0.40566400  1
  O  O45  1  0.86586100  0.53675200  0.21933300  1
  O  O46  1  0.92901800  0.93770900  0.10706500  1
  O  O47  1  0.86107000  0.05855800  0.30669300  1
  O  O48  1  0.96954500  0.25759000  0.10167800  1
  O  O49  1  0.77774400  0.67317400  0.00363200  1
  O  O50  1  0.81332500  0.82896500  0.82263800  1
  O  O51  1  0.89829700  0.34070700  0.84659300  1
  O  O52  1  0.89101500  0.58740700  0.79378100  1
  O  O53  1  0.90949000  0.08785500  0.73685200  1
  O  O54  1  0.97083700  0.84572100  0.56176900  1
  O  O55  1  0.96945000  0.42288600  0.62642200  1
loop_
_geom_bond_atom_site_label_1
_geom_bond_atom_site_label_2
_geom_bond_distance
_geom_bond_site_symmetry_2
Li0 O7 1.831307 1_555
Li0 O9 1.904945 1_565
Li0 O46 1.972572 1_456
Li0 O21 1.993296 1_556
Li1 O20 1.827314 1_555
Li1 O19 1.915217 1_555
Li1 O36 1.943468 1_554
Li1 O6 2.004499 1_554
Li2 O28 1.827413 1_555
Li2 O27 1.897725 1_545
Li2 O13 2.062100 1_545
Li2 O16 2.200691 1_555
Li3 O35 1.890938 1_555
Li3 O36 1.907652 1_555
Li3 O19 1.921895 1_556
Li3 O49 2.050281 1_556
Li4 O35 1.902019 1_555
Li4 O50 2.008620 1_555
Li4 O38 2.277248 1_565
Li4 O30 2.396767 1_556
Li5 O48 1.820022 1_555
Li5 O9 1.914580 1_654
Li5 O46 1.944137 1_545
Li5 O34 2.029066 1_554
Li6 O55 1.802073 1_555
Li6 O44 1.989343 1_555
Li6 O41 2.005160 1_555
Li6 O0 2.239366 1_655
Li7 O0 1.924631 1_655
Li7 O54 2.056597 1_555
Li7 O43 2.077321 1_555
Li7 O41 2.137878 1_555
Li7 O39 2.309500 1_555
Fe0 O5 1.926974 1_555
Fe0 O1 1.942303 1_555
Fe0 O16 1.998915 1_555
Fe0 O17 2.155506 1_545
Fe0 O13 2.183044 1_545
Fe0 O2 2.231392 1_545
Fe1 O15 1.943847 1_555
Fe1 O21 1.953857 1_555
Fe1 O4 1.954447 1_555
Fe1 O2 2.051652 1_555
Fe1 O17 2.146315 1_555
Fe2 O6 1.958576 1_555
Fe2 O12 1.959792 1_555
Fe2 O25 1.966295 1_555
Fe2 O24 2.021559 1_555
Fe2 O10 2.164563 1_555
Fe3 O11 1.941311 1_555
Fe3 O26 1.973690 1_555
Fe3 O22 2.030235 1_555
Fe3 O14 2.041138 1_555
Fe3 O10 2.147513 1_555
Fe3 O24 2.275271 1_555
Fe4 O33 1.913046 1_555
Fe4 O29 1.920639 1_555
Fe4 O44 2.014036 1_555
Fe4 O45 2.137213 1_555
Fe4 O31 2.197111 1_555
Fe4 O41 2.379293 1_555
Fe5 O49 1.956229 1_555
Fe5 O30 1.991412 1_555
Fe5 O43 2.014787 1_555
Fe5 O31 2.026235 1_555
Fe5 O45 2.113635 1_555
Fe6 O51 1.932571 1_555
Fe6 O40 1.955083 1_555
Fe6 O34 1.988843 1_555
Fe6 O53 2.025647 1_555
Fe6 O38 2.259716 1_555
Fe7 O39 1.964931 1_555
Fe7 O42 1.992616 1_565
Fe7 O54 2.024944 1_555
Fe7 O50 2.076160 1_555
Fe7 O38 2.155809 1_565
Fe7 O53 2.211630 1_565
O0 P0 1.499455 1_555
O1 P12 1.525150 1_455
O2 P13 1.569349 1_455
O3 P0 1.592035 1_555
O3 P1 1.616529 1_555
O4 P0 1.540845 1_555
O5 P1 1.537139 1_555
O6 P1 1.571869 1_556
O7 P14 1.482529 1_455
O8 P2 1.590454 1_565
O8 P3 1.619808 1_555
O9 P2 1.502211 1_555
O10 P15 1.575109 1_455
O11 P3 1.522216 1_555
O12 P2 1.536473 1_555
O13 P3 1.522840 1_555
O14 P4 1.513471 1_555
O15 P5 1.537247 1_555
O16 P4 1.544484 1_555
O17 P6 1.586042 1_555
O18 P5 1.589513 1_555
O18 P4 1.624950 1_555
O19 P5 1.500968 1_555
O20 P8 1.478653 1_555
O21 P7 1.574417 1_554
O22 P7 1.521960 1_555
O23 P7 1.607648 1_555
O23 P9 1.613924 1_565
O24 P10 1.562511 1_555
O25 P9 1.542726 1_555
O26 P11 1.516756 1_555
O27 P6 1.485547 1_555
O28 P9 1.482597 1_555
O29 P4 1.534557 1_555
O30 P6 1.562937 1_555
O31 P5 1.585545 1_555
O32 P8 1.602188 1_555
O32 P6 1.611702 1_545
O33 P8 1.538810 1_555
O34 P8 1.590846 1_556
O35 P7 1.503833 1_555
O36 P10 1.506078 1_555
O37 P10 1.595526 1_555
O37 P11 1.621905 1_555
O38 P9 1.599661 1_555
O39 P11 1.536729 1_555
O40 P10 1.544597 1_555
O41 P11 1.534687 1_555
O42 P12 1.519145 1_555
O43 P13 1.552835 1_555
O44 P12 1.542856 1_555
O45 P0 1.595394 1_655
O46 P13 1.503483 1_555
O47 P13 1.588533 1_545
O47 P12 1.620162 1_555
O48 P1 1.480727 1_655
O49 P14 1.586698 1_554
O50 P14 1.553797 1_555
O51 P15 1.555629 1_555
O52 P14 1.599695 1_555
O52 P15 1.622366 1_555
O53 P2 1.578757 1_655
O54 P3 1.550641 1_655
O55 P15 1.480422 1_555
