# generated using pymatgen
data_Mn2AlRe
_symmetry_space_group_name_H-M   'P 1'
_cell_length_a   4.09977450
_cell_length_b   4.09977450
_cell_length_c   4.09977450
_cell_angle_alpha   60.00000000
_cell_angle_beta   60.00000000
_cell_angle_gamma   60.00000000
_symmetry_Int_Tables_number   1
_chemical_formula_structural   Mn2AlRe
_chemical_formula_sum   'Mn2 Al1 Re1'
_cell_volume   48.72646570
_cell_formula_units_Z   1
loop_
 _symmetry_equiv_pos_site_id
 _symmetry_equiv_pos_as_xyz
  1  'x, y, z'
loop_
 _atom_site_type_symbol
 _atom_site_label
 _atom_site_symmetry_multiplicity
 _atom_site_fract_x
 _atom_site_fract_y
 _atom_site_fract_z
 _atom_site_occupancy
  Mn  Mn0  1  -0.00000000  0.00000000  -0.00000000  1
  Mn  Mn1  1  0.50000000  0.50000000  0.50000000  1
  Al  Al0  1  0.24999900  0.24999900  0.24999900  1
  Re  Re0  1  0.74999900  0.74999900  0.74999900  1
loop_
_geom_bond_atom_site_label_1
_geom_bond_atom_site_label_2
_geom_bond_distance
_geom_bond_site_symmetry_2
Mn0 Re0 2.510586 1_454
Mn0 Re0 2.510586 1_544
Mn0 Re0 2.510586 1_445
Mn0 Re0 2.510599 1_444
Mn1 Re0 2.510579 1_555
Mn1 Re0 2.510592 1_554
Mn1 Re0 2.510592 1_455
Mn1 Re0 2.510592 1_545
Al0 Mn0 2.510579 1_555
Al0 Mn1 2.510586 1_455
Al0 Mn1 2.510586 1_545
Al0 Mn1 2.510586 1_554
Al0 Mn0 2.510592 1_556
Al0 Mn0 2.510592 1_655
Al0 Mn0 2.510592 1_565
Al0 Mn1 2.510599 1_555
