# generated using pymatgen
data_CeCdAu2
_symmetry_space_group_name_H-M   'P 1'
_cell_length_a   5.03237543
_cell_length_b   5.03237543
_cell_length_c   5.03237543
_cell_angle_alpha   60.00000000
_cell_angle_beta   60.00000000
_cell_angle_gamma   60.00000000
_symmetry_Int_Tables_number   1
_chemical_formula_structural   CeCdAu2
_chemical_formula_sum   'Ce1 Cd1 Au2'
_cell_volume   90.11645545
_cell_formula_units_Z   1
loop_
 _symmetry_equiv_pos_site_id
 _symmetry_equiv_pos_as_xyz
  1  'x, y, z'
loop_
 _atom_site_type_symbol
 _atom_site_label
 _atom_site_symmetry_multiplicity
 _atom_site_fract_x
 _atom_site_fract_y
 _atom_site_fract_z
 _atom_site_occupancy
  Ce  Ce0  1  0.75000000  0.75000000  0.75000000  1
  Cd  Cd0  1  0.25000100  0.25000100  0.25000100  1
  Au  Au0  1  0.50000000  0.50000000  0.50000000  1
  Au  Au1  1  -0.00000000  -0.00000000  0.00000000  1
loop_
_geom_bond_atom_site_label_1
_geom_bond_atom_site_label_2
_geom_bond_distance
_geom_bond_site_symmetry_2
Au0 Cd0 3.081676 1_555
Au0 Ce0 3.081688 1_554
Au0 Ce0 3.081688 1_455
Au0 Ce0 3.081688 1_555
Au0 Ce0 3.081688 1_545
Au0 Cd0 3.081692 1_565
Au0 Cd0 3.081692 1_655
Au0 Cd0 3.081692 1_556
Au1 Cd0 3.081684 1_455
Au1 Cd0 3.081684 1_545
Au1 Cd0 3.081684 1_554
Au1 Ce0 3.081688 1_444
Au1 Ce0 3.081688 1_445
Au1 Ce0 3.081688 1_454
Au1 Ce0 3.081688 1_544
Au1 Cd0 3.081700 1_555
