# generated using pymatgen
data_Nb
_symmetry_space_group_name_H-M   'P 1'
_cell_length_a   5.97270445
_cell_length_b   5.97270581
_cell_length_c   5.97270526
_cell_angle_alpha   60.00000315
_cell_angle_beta   59.99999565
_cell_angle_gamma   60.00001733
_symmetry_Int_Tables_number   1
_chemical_formula_structural   Nb
_chemical_formula_sum   Nb8
_cell_volume   150.66011264
_cell_formula_units_Z   8
loop_
 _symmetry_equiv_pos_site_id
 _symmetry_equiv_pos_as_xyz
  1  'x, y, z'
loop_
 _atom_site_type_symbol
 _atom_site_label
 _atom_site_symmetry_multiplicity
 _atom_site_fract_x
 _atom_site_fract_y
 _atom_site_fract_z
 _atom_site_occupancy
  Nb  Nb0_0  1  0.00000000  0.00000000  0.00000000  1
  Nb  Nb0_1  1  0.00000000  0.00000000  0.50000000  1
  Nb  Nb0_2  1  0.00000000  0.50000000  0.00000000  1
  Nb  Nb0_3  1  0.00000000  0.50000000  0.50000000  1
  Nb  Nb0_4  1  0.50000000  0.00000000  0.00000000  1
  Nb  Nb0_5  1  0.50000000  0.00000000  0.50000000  1
  Nb  Nb0_6  1  0.50000000  0.50000000  0.00000000  1
  Nb  Nb0_7  1  0.50000000  0.50000000  0.50000000  1
loop_
_geom_bond_atom_site_label_1
_geom_bond_atom_site_label_2
_geom_bond_distance
_geom_bond_site_symmetry_2
Nb0_0 Nb0_4 2.986352 1_555
Nb0_0 Nb0_4 2.986352 1_455
Nb0_0 Nb0_5 2.986352 1_455
Nb0_0 Nb0_5 2.986352 1_554
Nb0_0 Nb0_1 2.986353 1_555
Nb0_0 Nb0_1 2.986353 1_554
Nb0_0 Nb0_2 2.986353 1_545
Nb0_0 Nb0_2 2.986353 1_555
Nb0_0 Nb0_3 2.986353 1_545
Nb0_0 Nb0_3 2.986353 1_554
Nb0_0 Nb0_6 2.986353 1_455
Nb0_0 Nb0_6 2.986353 1_545
Nb0_1 Nb0_5 2.986352 1_455
Nb0_1 Nb0_5 2.986352 1_555
Nb0_1 Nb0_4 2.986352 1_555
Nb0_1 Nb0_4 2.986352 1_456
Nb0_1 Nb0_3 2.986353 1_555
Nb0_1 Nb0_3 2.986353 1_545
Nb0_1 Nb0_2 2.986353 1_546
Nb0_1 Nb0_2 2.986353 1_555
Nb0_1 Nb0_7 2.986353 1_545
Nb0_1 Nb0_7 2.986353 1_455
Nb0_2 Nb0_6 2.986352 1_455
Nb0_2 Nb0_6 2.986352 1_555
Nb0_2 Nb0_7 2.986352 1_554
Nb0_2 Nb0_7 2.986352 1_455
Nb0_2 Nb0_3 2.986353 1_554
Nb0_2 Nb0_3 2.986353 1_555
Nb0_2 Nb0_4 2.986353 1_555
Nb0_2 Nb0_4 2.986353 1_465
Nb0_3 Nb0_7 2.986352 1_455
Nb0_3 Nb0_7 2.986352 1_555
Nb0_3 Nb0_6 2.986352 1_456
Nb0_3 Nb0_6 2.986352 1_555
Nb0_3 Nb0_5 2.986353 1_555
Nb0_3 Nb0_5 2.986353 1_465
Nb0_4 Nb0_5 2.986353 1_555
Nb0_4 Nb0_5 2.986353 1_554
Nb0_4 Nb0_6 2.986353 1_545
Nb0_4 Nb0_6 2.986353 1_555
Nb0_4 Nb0_7 2.986353 1_554
Nb0_4 Nb0_7 2.986353 1_545
Nb0_5 Nb0_7 2.986353 1_545
Nb0_5 Nb0_7 2.986353 1_555
Nb0_5 Nb0_6 2.986353 1_546
Nb0_5 Nb0_6 2.986353 1_555
Nb0_6 Nb0_7 2.986353 1_554
Nb0_6 Nb0_7 2.986353 1_555
