# generated using pymatgen
data_Sc3Si3Ni
_symmetry_space_group_name_H-M   'P 1'
_cell_length_a   3.98069514
_cell_length_b   5.28804510
_cell_length_c   12.17288030
_cell_angle_alpha   84.46838068
_cell_angle_beta   80.58949862
_cell_angle_gamma   67.88998580
_symmetry_Int_Tables_number   1
_chemical_formula_structural   Sc3Si3Ni
_chemical_formula_sum   'Sc6 Si6 Ni2'
_cell_volume   234.03193146
_cell_formula_units_Z   2
loop_
 _symmetry_equiv_pos_site_id
 _symmetry_equiv_pos_as_xyz
  1  'x, y, z'
loop_
 _atom_site_type_symbol
 _atom_site_label
 _atom_site_symmetry_multiplicity
 _atom_site_fract_x
 _atom_site_fract_y
 _atom_site_fract_z
 _atom_site_occupancy
  Sc  Sc0  1  0.59996588  0.72079628  0.07927096  1
  Sc  Sc1  1  0.47404025  0.67262667  0.37929283  1
  Sc  Sc2  1  0.74334776  0.73988968  0.77341580  1
  Sc  Sc3  1  0.52595975  0.32737333  0.62070717  1
  Sc  Sc4  1  0.40003412  0.27920372  0.92072904  1
  Sc  Sc5  1  0.25665224  0.26011032  0.22658420  1
  Si  Si0  1  0.95921589  0.84431517  0.23725304  1
  Si  Si1  1  0.86635728  0.72201928  0.54526516  1
  Si  Si2  1  0.13364272  0.27798072  0.45473484  1
  Si  Si3  1  0.11801877  0.83992395  0.92403851  1
  Si  Si4  1  0.04078411  0.15568483  0.76274696  1
  Si  Si5  1  0.88198123  0.16007605  0.07596149  1
  Ni  Ni0  1  0.24449992  0.91582912  0.59517204  1
  Ni  Ni1  1  0.75550008  0.08417088  0.40482796  1
loop_
_geom_bond_atom_site_label_1
_geom_bond_atom_site_label_2
_geom_bond_distance
_geom_bond_site_symmetry_2
Sc0 Si5 2.748870 1_555
Sc0 Si3 2.773868 1_554
Sc0 Si3 2.773871 1_654
Sc0 Si0 2.831018 1_455
Sc0 Si0 2.831020 1_555
Sc0 Si5 2.930547 1_465
Sc0 Si5 2.930550 1_565
Sc1 Si0 2.732983 1_555
Sc1 Si0 2.732983 1_455
Sc1 Si1 2.833646 1_555
Sc1 Si1 2.833649 1_455
Sc1 Si2 2.896012 1_555
Sc1 Si2 2.896015 1_655
Sc1 Si2 3.133900 1_565
Sc2 Si1 2.744608 1_555
Sc2 Si3 2.746117 1_655
Sc2 Si3 2.746120 1_555
Sc2 Si4 2.847380 1_665
Sc2 Si4 2.847383 1_565
Sc2 Si4 2.869866 1_655
Sc3 Si4 2.732983 1_555
Sc3 Si4 2.732983 1_655
Sc3 Si2 2.833646 1_555
Sc3 Si2 2.833649 1_655
Sc3 Si1 2.896012 1_555
Sc3 Si1 2.896015 1_455
Sc3 Si1 3.133900 1_545
Sc4 Si3 2.748870 1_555
Sc4 Si5 2.773868 1_556
Sc4 Si5 2.773871 1_456
Sc4 Si4 2.831018 1_655
Sc4 Si4 2.831020 1_555
Sc4 Si3 2.930547 1_645
Sc4 Si3 2.930550 1_545
Sc5 Si2 2.744608 1_555
Sc5 Si5 2.746117 1_455
Sc5 Si5 2.746120 1_555
Sc5 Si0 2.847380 1_445
Sc5 Si0 2.847383 1_545
Sc5 Si0 2.869866 1_455
Si0 Si5 2.432365 1_565
Si1 Si2 2.468768 1_655
Si3 Si4 2.432365 1_565
Si3 Si5 2.450919 1_466
Ni0 Si1 2.294698 1_555
Ni0 Si1 2.294705 1_455
Ni0 Si4 2.368760 1_565
Ni0 Si2 2.400850 1_565
Ni0 Sc3 2.857943 1_565
Ni0 Sc3 2.857946 1_465
Ni0 Sc3 2.887561 1_555
Ni0 Sc1 2.894188 1_555
Ni0 Sc2 3.024178 1_455
Ni0 Sc2 3.024178 1_555
Ni1 Si2 2.294698 1_555
Ni1 Si2 2.294705 1_655
Ni1 Si0 2.368760 1_545
Ni1 Si1 2.400850 1_545
Ni1 Sc1 2.857943 1_545
Ni1 Sc1 2.857946 1_645
Ni1 Sc1 2.887561 1_555
Ni1 Sc3 2.894188 1_555
Ni1 Sc5 3.024178 1_655
Ni1 Sc5 3.024178 1_555
