# generated using pymatgen
data_LuZrCo2
_symmetry_space_group_name_H-M   'P 1'
_cell_length_a   4.57155428
_cell_length_b   4.57076926
_cell_length_c   4.57368005
_cell_angle_alpha   60.02062104
_cell_angle_beta   60.01998410
_cell_angle_gamma   60.00250423
_symmetry_Int_Tables_number   1
_chemical_formula_structural   LuZrCo2
_chemical_formula_sum   'Lu1 Zr1 Co2'
_cell_volume   67.59979671
_cell_formula_units_Z   1
loop_
 _symmetry_equiv_pos_site_id
 _symmetry_equiv_pos_as_xyz
  1  'x, y, z'
loop_
 _atom_site_type_symbol
 _atom_site_label
 _atom_site_symmetry_multiplicity
 _atom_site_fract_x
 _atom_site_fract_y
 _atom_site_fract_z
 _atom_site_occupancy
  Lu  Lu0  1  0.24999826  0.25000067  0.25000104  1
  Zr  Zr0  1  0.74999697  0.75000270  0.75000038  1
  Co  Co0  1  0.49993992  0.49984723  0.50033286  1
  Co  Co1  1  0.00006385  0.00014839  0.99966572  1
loop_
_geom_bond_atom_site_label_1
_geom_bond_atom_site_label_2
_geom_bond_distance
_geom_bond_site_symmetry_2
Co0 Zr0 2.798781 1_545
Co0 Zr0 2.799015 1_555
Co0 Zr0 2.799611 1_455
Co0 Lu0 2.799912 1_555
Co0 Lu0 2.799935 1_565
Co0 Lu0 2.800043 1_655
Co0 Lu0 2.800398 1_556
Co0 Zr0 2.802879 1_554
Co1 Zr0 2.798817 1_455
Co1 Zr0 2.799007 1_445
Co1 Zr0 2.799574 1_545
Co1 Lu0 2.799914 1_546
Co1 Lu0 2.799920 1_556
Co1 Lu0 2.800070 1_456
Co1 Lu0 2.800385 1_555
Co1 Zr0 2.802887 1_446
