# generated using pymatgen
data_KSr2Cd2Sb3
_symmetry_space_group_name_H-M   'P 1'
_cell_length_a   4.90539900
_cell_length_b   12.96770500
_cell_length_c   16.57581700
_cell_angle_alpha   90.00000000
_cell_angle_beta   90.00000000
_cell_angle_gamma   90.00000000
_symmetry_Int_Tables_number   1
_chemical_formula_structural   KSr2Cd2Sb3
_chemical_formula_sum   'K4 Sr8 Cd8 Sb12'
_cell_volume   1054.41701115
_cell_formula_units_Z   4
loop_
 _symmetry_equiv_pos_site_id
 _symmetry_equiv_pos_as_xyz
  1  'x, y, z'
loop_
 _atom_site_type_symbol
 _atom_site_label
 _atom_site_symmetry_multiplicity
 _atom_site_fract_x
 _atom_site_fract_y
 _atom_site_fract_z
 _atom_site_occupancy
  K  K0  1  0.25000000  0.40697700  0.54198900  1
  K  K1  1  0.75000000  0.09302300  0.04198900  1
  K  K2  1  0.25000000  0.90697700  0.95801100  1
  K  K3  1  0.75000000  0.59302300  0.45801100  1
  Sr  Sr0  1  0.25000000  0.36312900  0.27768300  1
  Sr  Sr1  1  0.75000000  0.13687100  0.77768300  1
  Sr  Sr2  1  0.25000000  0.86312900  0.22231700  1
  Sr  Sr3  1  0.75000000  0.63687100  0.72231700  1
  Sr  Sr4  1  0.25000000  0.10136500  0.42268900  1
  Sr  Sr5  1  0.75000000  0.39863500  0.92268900  1
  Sr  Sr6  1  0.25000000  0.60136500  0.07731100  1
  Sr  Sr7  1  0.75000000  0.89863500  0.57731100  1
  Cd  Cd0  1  0.25000000  0.30018300  0.07301500  1
  Cd  Cd1  1  0.75000000  0.19981700  0.57301500  1
  Cd  Cd2  1  0.25000000  0.80018300  0.42698500  1
  Cd  Cd3  1  0.75000000  0.69981700  0.92698500  1
  Cd  Cd4  1  0.25000000  0.37058700  0.77737500  1
  Cd  Cd5  1  0.75000000  0.12941300  0.27737500  1
  Cd  Cd6  1  0.25000000  0.87058700  0.72262500  1
  Cd  Cd7  1  0.75000000  0.62941300  0.22262500  1
  Sb  Sb0  1  0.25000000  0.12142000  0.18798200  1
  Sb  Sb1  1  0.75000000  0.37858000  0.68798200  1
  Sb  Sb2  1  0.25000000  0.62142000  0.31201800  1
  Sb  Sb3  1  0.75000000  0.87858000  0.81201800  1
  Sb  Sb4  1  0.25000000  0.71177900  0.58892200  1
  Sb  Sb5  1  0.75000000  0.78822100  0.08892200  1
  Sb  Sb6  1  0.25000000  0.21177900  0.91107800  1
  Sb  Sb7  1  0.75000000  0.28822100  0.41107800  1
  Sb  Sb8  1  0.25000000  0.07987100  0.62678100  1
  Sb  Sb9  1  0.75000000  0.42012900  0.12678100  1
  Sb  Sb10  1  0.25000000  0.57987100  0.87321900  1
  Sb  Sb11  1  0.75000000  0.92012900  0.37321900  1
loop_
_geom_bond_atom_site_label_1
_geom_bond_atom_site_label_2
_geom_bond_distance
_geom_bond_site_symmetry_2
K0 Sb1 3.465186 1_455
K0 Sb1 3.465186 1_555
K0 Sb7 3.618843 1_455
K0 Sb7 3.618843 1_555
K0 Sb4 4.028414 1_555
K1 Sb0 3.465186 1_555
K1 Sb0 3.465186 1_655
K1 Sb6 3.618843 1_654
K1 Sb6 3.618843 1_554
K1 Sb5 4.028414 1_545
K2 Sb3 3.465186 1_455
K2 Sb3 3.465186 1_555
K2 Sb5 3.618843 1_556
K2 Sb5 3.618843 1_456
K2 Sb6 4.028414 1_565
K3 Sb2 3.465186 1_555
K3 Sb2 3.465186 1_655
K3 Sb4 3.618843 1_555
K3 Sb4 3.618843 1_655
K3 Sb7 4.028414 1_555
Cd0 Sb6 2.918794 1_554
Cd0 Sb0 3.000897 1_555
Cd0 Sb9 3.037984 1_555
Cd0 Sb9 3.037984 1_455
Cd0 Sr0 3.489357 1_555
Cd0 K1 3.673814 1_455
Cd0 K1 3.673814 1_555
Cd0 Sr5 3.722182 1_554
Cd0 Sr5 3.722182 1_454
Cd0 Sr6 3.906288 1_555
Cd1 Sb7 2.918794 1_555
Cd1 Sb1 3.000897 1_555
Cd1 Sb8 3.037984 1_555
Cd1 Sb8 3.037984 1_655
Cd1 Sr1 3.489357 1_555
Cd1 K0 3.673814 1_555
Cd1 K0 3.673814 1_655
Cd1 Sr4 3.722182 1_555
Cd1 Sr4 3.722182 1_655
Cd1 Sr7 3.906288 1_545
Cd2 Sb4 2.918794 1_555
Cd2 Sb2 3.000897 1_555
Cd2 Sb11 3.037984 1_555
Cd2 Sb11 3.037984 1_455
Cd2 Sr2 3.489357 1_555
Cd2 K3 3.673814 1_455
Cd2 K3 3.673814 1_555
Cd2 Sr7 3.722182 1_555
Cd2 Sr7 3.722182 1_455
Cd2 Sr4 3.906288 1_565
Cd3 Sb5 2.918794 1_556
Cd3 Sb3 3.000897 1_555
Cd3 Sb10 3.037984 1_655
Cd3 Sb10 3.037984 1_555
Cd3 Sr3 3.489357 1_555
Cd3 K2 3.673814 1_555
Cd3 K2 3.673814 1_655
Cd3 Sr6 3.722182 1_556
Cd3 Sr6 3.722182 1_656
Cd3 Sr5 3.906288 1_555
Cd4 Sb1 2.867420 1_455
Cd4 Sb1 2.867420 1_555
Cd4 Sb6 3.025348 1_555
Cd4 Sb10 3.144738 1_555
Cd4 Sr5 3.456856 1_455
Cd4 Sr5 3.456856 1_555
Cd4 Sr1 3.898880 1_555
Cd4 Sr1 3.898880 1_455
Cd4 K0 3.930148 1_555
Cd5 Sb0 2.867420 1_555
Cd5 Sb0 2.867420 1_655
Cd5 Sb7 3.025348 1_555
Cd5 Sb11 3.144738 1_545
Cd5 Sr4 3.456856 1_555
Cd5 Sr4 3.456856 1_655
Cd5 Sr0 3.898880 1_655
Cd5 Sr0 3.898880 1_555
Cd5 K1 3.930148 1_555
Cd6 Sb3 2.867420 1_455
Cd6 Sb3 2.867420 1_555
Cd6 Sb4 3.025348 1_555
Cd6 Sb8 3.144738 1_565
Cd6 Sr7 3.456856 1_555
Cd6 Sr7 3.456856 1_455
Cd6 Sr3 3.898880 1_455
Cd6 Sr3 3.898880 1_555
Cd6 K2 3.930148 1_555
Cd7 Sb2 2.867420 1_555
Cd7 Sb2 2.867420 1_655
Cd7 Sb5 3.025348 1_555
Cd7 Sb9 3.144738 1_555
Cd7 Sr6 3.456856 1_655
Cd7 Sr6 3.456856 1_555
Cd7 Sr2 3.898880 1_555
Cd7 Sr2 3.898880 1_655
Cd7 K3 3.930148 1_555
Sb0 Sr2 3.397450 1_545
Sb0 Sr0 3.469194 1_555
Sb0 Sr4 3.899143 1_555
Sb1 Sr3 3.397450 1_555
Sb1 Sr1 3.469194 1_555
Sb1 Sr5 3.899143 1_555
Sb2 Sr0 3.397450 1_555
Sb2 Sr2 3.469194 1_555
Sb2 Sr6 3.899143 1_555
Sb3 Sr1 3.397450 1_565
Sb3 Sr3 3.469194 1_555
Sb3 Sr7 3.899143 1_555
Sb4 Sr3 3.442154 1_455
Sb4 Sr3 3.442154 1_555
Sb4 Sr7 3.453137 1_555
Sb4 Sr7 3.453137 1_455
Sb5 Sr2 3.442154 1_655
Sb5 Sr2 3.442154 1_555
Sb5 Sr6 3.453137 1_655
Sb5 Sr6 3.453137 1_555
Sb6 Sr1 3.442154 1_455
Sb6 Sr1 3.442154 1_555
Sb6 Sr5 3.453137 1_555
Sb6 Sr5 3.453137 1_455
Sb7 Sr0 3.442154 1_655
Sb7 Sr0 3.442154 1_555
Sb7 Sr4 3.453137 1_555
Sb7 Sr4 3.453137 1_655
Sb8 Sr4 3.394455 1_555
Sb8 Sr7 3.494518 1_445
Sb8 Sr7 3.494518 1_545
Sb8 Sr1 3.580323 1_455
Sb8 Sr1 3.580323 1_555
Sb9 Sr5 3.394455 1_554
Sb9 Sr6 3.494518 1_655
Sb9 Sr6 3.494518 1_555
Sb9 Sr0 3.580323 1_555
Sb9 Sr0 3.580323 1_655
Sb10 Sr6 3.394455 1_556
Sb10 Sr5 3.494518 1_555
Sb10 Sr5 3.494518 1_455
Sb10 Sr3 3.580323 1_455
Sb10 Sr3 3.580323 1_555
Sb11 Sr7 3.394455 1_555
Sb11 Sr4 3.494518 1_565
Sb11 Sr4 3.494518 1_665
Sb11 Sr2 3.580323 1_555
Sb11 Sr2 3.580323 1_655
