# generated using pymatgen
data_Ca3Sn2S7
_symmetry_space_group_name_H-M   'P 1'
_cell_length_a   12.50822258
_cell_length_b   12.50822258
_cell_length_c   6.92868200
_cell_angle_alpha   90.00000000
_cell_angle_beta   90.00000000
_cell_angle_gamma   147.34634093
_symmetry_Int_Tables_number   1
_chemical_formula_structural   Ca3Sn2S7
_chemical_formula_sum   'Ca6 Sn4 S14'
_cell_volume   584.89942849
_cell_formula_units_Z   2
loop_
 _symmetry_equiv_pos_site_id
 _symmetry_equiv_pos_as_xyz
  1  'x, y, z'
loop_
 _atom_site_type_symbol
 _atom_site_label
 _atom_site_symmetry_multiplicity
 _atom_site_fract_x
 _atom_site_fract_y
 _atom_site_fract_z
 _atom_site_occupancy
  Ca  Ca0  1  0.79114300  0.79114300  0.25000000  1
  Ca  Ca1  1  0.20885700  0.20885700  0.75000000  1
  Ca  Ca2  1  0.95936900  0.58443100  0.25000000  1
  Ca  Ca3  1  0.41556900  0.04063100  0.75000000  1
  Ca  Ca4  1  0.04063100  0.41556900  0.75000000  1
  Ca  Ca5  1  0.58443100  0.95936900  0.25000000  1
  Sn  Sn0  1  0.36013500  0.15337300  0.25000000  1
  Sn  Sn1  1  0.84662700  0.63986500  0.75000000  1
  Sn  Sn2  1  0.63986500  0.84662700  0.75000000  1
  Sn  Sn3  1  0.15337300  0.36013500  0.25000000  1
  S  S0  1  0.37931600  0.37931600  0.25000000  1
  S  S1  1  0.62068400  0.62068400  0.75000000  1
  S  S2  1  0.35752600  0.95005800  0.25000000  1
  S  S3  1  0.04994200  0.64247400  0.75000000  1
  S  S4  1  0.64247400  0.04994200  0.75000000  1
  S  S5  1  0.95005800  0.35752600  0.25000000  1
  S  S6  1  0.36308300  0.63691700  0.00000000  1
  S  S7  1  0.36308300  0.63691700  0.50000000  1
  S  S8  1  0.63691700  0.36308300  0.00000000  1
  S  S9  1  0.63691700  0.36308300  0.50000000  1
  S  S10  1  0.07322600  0.92677400  0.50000000  1
  S  S11  1  0.07322600  0.92677400  0.00000000  1
  S  S12  1  0.92677400  0.07322600  0.50000000  1
  S  S13  1  0.92677400  0.07322600  0.00000000  1
loop_
_geom_bond_atom_site_label_1
_geom_bond_atom_site_label_2
_geom_bond_distance
_geom_bond_site_symmetry_2
Ca0 S10 2.871980 1_655
Ca0 S11 2.871980 1_655
Ca0 S12 2.871980 1_565
Ca0 S13 2.871980 1_565
Ca0 S0 2.896184 1_555
Ca1 S10 2.871980 1_545
Ca1 S12 2.871980 1_455
Ca1 S11 2.871980 1_546
Ca1 S13 2.871980 1_456
Ca1 S1 2.896184 1_555
Ca2 S2 2.713904 1_655
Ca2 S5 2.740842 1_555
Ca2 S9 2.851248 1_555
Ca2 S8 2.851248 1_555
Ca3 S3 2.713904 1_545
Ca3 S4 2.740842 1_555
Ca3 S9 2.851248 1_555
Ca3 S8 2.851248 1_556
Ca4 S4 2.713904 1_455
Ca4 S3 2.740842 1_555
Ca4 S7 2.851248 1_555
Ca4 S6 2.851248 1_556
Ca5 S5 2.713904 1_565
Ca5 S2 2.740842 1_555
Ca5 S7 2.851248 1_555
Ca5 S6 2.851248 1_555
S0 Sn0 2.627336 1_555
S0 Sn3 2.627336 1_555
S1 Sn2 2.627336 1_555
S1 Sn1 2.627336 1_555
S2 Sn0 2.515695 1_565
S3 Sn1 2.515695 1_455
S4 Sn2 2.515695 1_545
S5 Sn3 2.515695 1_655
S6 Sn3 2.564157 1_555
S6 Sn2 2.564157 1_554
S7 Sn3 2.564157 1_555
S7 Sn2 2.564157 1_555
S8 Sn0 2.564157 1_555
S8 Sn1 2.564157 1_554
S9 Sn0 2.564157 1_555
S9 Sn1 2.564157 1_555
S10 Sn1 2.604768 1_455
S10 Sn0 2.604768 1_565
S11 Sn1 2.604768 1_454
S11 Sn0 2.604768 1_565
S12 Sn2 2.604768 1_545
S12 Sn3 2.604768 1_655
S13 Sn2 2.604768 1_544
S13 Sn3 2.604768 1_655
