# generated using pymatgen
data_TaCuRh2
_symmetry_space_group_name_H-M   'P 1'
_cell_length_a   4.31455060
_cell_length_b   4.31455205
_cell_length_c   4.31455276
_cell_angle_alpha   60.00001643
_cell_angle_beta   59.99999452
_cell_angle_gamma   59.99998905
_symmetry_Int_Tables_number   1
_chemical_formula_structural   TaCuRh2
_chemical_formula_sum   'Ta1 Cu1 Rh2'
_cell_volume   56.79264110
_cell_formula_units_Z   1
loop_
 _symmetry_equiv_pos_site_id
 _symmetry_equiv_pos_as_xyz
  1  'x, y, z'
loop_
 _atom_site_type_symbol
 _atom_site_label
 _atom_site_symmetry_multiplicity
 _atom_site_fract_x
 _atom_site_fract_y
 _atom_site_fract_z
 _atom_site_occupancy
  Ta  Ta0  1  0.75000100  0.75000100  0.75000100  1
  Cu  Cu0  1  0.25000000  0.25000000  0.25000000  1
  Rh  Rh0  1  0.00000000  0.00000000  0.00000100  1
  Rh  Rh1  1  0.50000000  0.50000000  0.50000000  1
loop_
_geom_bond_atom_site_label_1
_geom_bond_atom_site_label_2
_geom_bond_distance
_geom_bond_site_symmetry_2
Cu0 Rh0 2.642109 1_555
Cu0 Rh1 2.642111 1_455
Cu0 Rh0 2.642111 1_655
Cu0 Rh1 2.642113 1_555
Cu0 Rh1 2.642113 1_545
Cu0 Rh0 2.642113 1_565
Cu0 Rh1 2.642113 1_554
Cu0 Rh0 2.642117 1_556
Rh0 Ta0 2.642106 1_444
Rh0 Ta0 2.642113 1_445
Rh0 Ta0 2.642115 1_544
Rh0 Ta0 2.642116 1_454
Rh1 Ta0 2.642108 1_455
Rh1 Ta0 2.642109 1_545
Rh1 Ta0 2.642110 1_554
Rh1 Ta0 2.642123 1_555
