# generated using pymatgen
data_BaNaP3H3(NO2)3
_symmetry_space_group_name_H-M   'P 1'
_cell_length_a   7.57886334
_cell_length_b   7.57886334
_cell_length_c   7.99592748
_cell_angle_alpha   71.87273891
_cell_angle_beta   71.87273891
_cell_angle_gamma   87.71847026
_symmetry_Int_Tables_number   1
_chemical_formula_structural   BaNaP3H3(NO2)3
_chemical_formula_sum   'Ba2 Na2 P6 H6 N6 O12'
_cell_volume   413.99407406
_cell_formula_units_Z   2
loop_
 _symmetry_equiv_pos_site_id
 _symmetry_equiv_pos_as_xyz
  1  'x, y, z'
loop_
 _atom_site_type_symbol
 _atom_site_label
 _atom_site_symmetry_multiplicity
 _atom_site_fract_x
 _atom_site_fract_y
 _atom_site_fract_z
 _atom_site_occupancy
  Ba  Ba0  1  0.56881700  0.56881700  0.69657900  1
  Ba  Ba1  1  0.43118300  0.43118300  0.30342100  1
  Na  Na0  1  0.81798300  0.18201700  0.50000000  1
  Na  Na1  1  0.18201700  0.81798300  0.50000000  1
  P  P0  1  0.65662300  0.93943300  0.23484800  1
  P  P1  1  0.06056700  0.34337700  0.76515200  1
  P  P2  1  0.34337700  0.06056700  0.76515200  1
  P  P3  1  0.93943300  0.65662300  0.23484800  1
  P  P4  1  0.79977100  0.79977100  0.91349900  1
  P  P5  1  0.20022900  0.20022900  0.08650100  1
  H  H0  1  0.93553100  0.93553100  0.29290600  1
  H  H1  1  0.06446900  0.06446900  0.70709400  1
  H  H2  1  0.74116700  0.10242900  0.91797900  1
  H  H3  1  0.89757100  0.25883300  0.08202100  1
  H  H4  1  0.25883300  0.89757100  0.08202100  1
  H  H5  1  0.10242900  0.74116700  0.91797900  1
  N  N0  1  0.71338600  0.96821100  0.00672400  1
  N  N1  1  0.03178900  0.28661400  0.99327600  1
  N  N2  1  0.28661400  0.03178900  0.99327600  1
  N  N3  1  0.96821100  0.71338600  0.00672400  1
  N  N4  1  0.83715400  0.83715400  0.30584300  1
  N  N5  1  0.16284600  0.16284600  0.69415700  1
  O  O0  1  0.64800500  0.12927100  0.26054400  1
  O  O1  1  0.87072900  0.35199500  0.73945600  1
  O  O2  1  0.35199500  0.87072900  0.73945600  1
  O  O3  1  0.12927100  0.64800500  0.26054400  1
  O  O4  1  0.49379200  0.79482600  0.33870900  1
  O  O5  1  0.20517400  0.50620800  0.66129000  1
  O  O6  1  0.50620800  0.20517400  0.66129000  1
  O  O7  1  0.79482600  0.49379200  0.33870900  1
  O  O8  1  0.64762100  0.64762100  0.97553900  1
  O  O9  1  0.35237900  0.35237900  0.02446100  1
  O  O10  1  0.88817200  0.88817200  0.70522600  1
  O  O11  1  0.11182800  0.11182800  0.29477400  1
loop_
_geom_bond_atom_site_label_1
_geom_bond_atom_site_label_2
_geom_bond_distance
_geom_bond_site_symmetry_2
Ba0 O9 2.667786 1_556
Ba0 O8 2.715704 1_555
Ba0 O2 2.809216 1_555
Ba0 O1 2.809216 1_555
Ba0 O6 2.927738 1_555
Ba0 O5 2.927738 1_555
Ba0 O7 3.054579 1_555
Ba0 O4 3.054579 1_555
Ba0 N4 3.233397 1_555
Ba1 O8 2.667786 1_554
Ba1 O9 2.715704 1_555
Ba1 O0 2.809216 1_555
Ba1 O3 2.809216 1_555
Ba1 O4 2.927735 1_555
Ba1 O7 2.927735 1_555
Ba1 O5 3.054572 1_555
Ba1 O6 3.054572 1_555
Ba1 N5 3.233397 1_555
Na0 O6 2.342845 1_555
Na0 O7 2.342847 1_555
Na0 O10 2.471879 1_545
Na0 O11 2.471879 1_655
Na0 O0 2.745442 1_555
Na0 O1 2.745442 1_555
Na1 O5 2.342845 1_555
Na1 O4 2.342847 1_555
Na1 O10 2.471879 1_455
Na1 O11 2.471879 1_565
Na1 O3 2.745442 1_555
Na1 O2 2.745442 1_555
H0 N4 1.034782 1_555
H1 N5 1.034782 1_555
H2 N0 1.028360 1_546
H3 N1 1.028360 1_654
H4 N2 1.028360 1_564
H5 N3 1.028360 1_456
N0 P0 1.682697 1_555
N0 P4 1.684002 1_554
N1 P1 1.682697 1_555
N1 P5 1.684002 1_556
N2 P2 1.682697 1_555
N2 P5 1.684002 1_556
N3 P3 1.682697 1_555
N3 P4 1.684002 1_554
N4 P3 1.708858 1_555
N4 P0 1.708858 1_555
N5 P1 1.708858 1_555
N5 P2 1.708858 1_555
O0 P0 1.511494 1_545
O1 P1 1.511494 1_655
O2 P2 1.511494 1_565
O3 P3 1.511494 1_455
O4 P0 1.522282 1_555
O5 P1 1.522283 1_555
O6 P2 1.522283 1_555
O7 P3 1.522282 1_555
O8 P4 1.516393 1_555
O9 P5 1.516393 1_555
O10 P4 1.522587 1_555
O11 P5 1.522587 1_555
