# generated using pymatgen
data_Cu3Si
_symmetry_space_group_name_H-M   'P 1'
_cell_length_a   5.13505607
_cell_length_b   5.13507996
_cell_length_c   4.07458361
_cell_angle_alpha   89.99015763
_cell_angle_beta   90.01000251
_cell_angle_gamma   119.98246147
_symmetry_Int_Tables_number   1
_chemical_formula_structural   Cu3Si
_chemical_formula_sum   'Cu6 Si2'
_cell_volume   93.06427166
_cell_formula_units_Z   2
loop_
 _symmetry_equiv_pos_site_id
 _symmetry_equiv_pos_as_xyz
  1  'x, y, z'
loop_
 _atom_site_type_symbol
 _atom_site_label
 _atom_site_symmetry_multiplicity
 _atom_site_fract_x
 _atom_site_fract_y
 _atom_site_fract_z
 _atom_site_occupancy
  Cu  Cu0  1  0.16793441  0.33589107  0.25001675  1
  Cu  Cu1  1  0.66411235  0.83206662  0.25002147  1
  Cu  Cu2  1  0.16791422  0.83208522  0.24996044  1
  Cu  Cu3  1  0.83206371  0.66410785  0.74998440  1
  Cu  Cu4  1  0.33588918  0.16793307  0.74997965  1
  Cu  Cu5  1  0.83208583  0.16791397  0.75003453  1
  Si  Si0  1  0.33334654  0.66665185  0.75000062  1
  Si  Si1  1  0.66665176  0.33334635  0.24999915  1
loop_
_geom_bond_atom_site_label_1
_geom_bond_atom_site_label_2
_geom_bond_distance
_geom_bond_site_symmetry_2
Cu0 Si0 2.512895 1_554
Cu0 Si0 2.513021 1_555
Cu0 Cu4 2.525843 1_555
Cu0 Cu5 2.526087 1_454
Cu0 Cu5 2.526451 1_455
Cu0 Cu4 2.526568 1_554
Cu0 Cu2 2.548048 1_555
Cu0 Cu1 2.548577 1_555
Cu0 Si1 2.567497 1_555
Cu0 Si1 2.567609 1_455
Cu0 Cu2 2.587032 1_545
Cu0 Cu1 2.587852 1_445
Cu1 Si0 2.512914 1_554
Cu1 Si0 2.513020 1_555
Cu1 Cu3 2.525836 1_555
Cu1 Cu5 2.526109 1_564
Cu1 Cu5 2.526430 1_565
Cu1 Cu3 2.526561 1_554
Cu1 Cu2 2.548053 1_555
Cu1 Si1 2.567510 1_555
Cu1 Si1 2.567620 1_565
Cu1 Cu2 2.587003 1_655
Cu2 Si0 2.512895 1_555
Cu2 Si0 2.513106 1_554
Cu2 Cu3 2.526072 1_454
Cu2 Cu4 2.526090 1_564
Cu2 Cu4 2.526452 1_565
Cu2 Cu3 2.526476 1_455
Cu2 Si1 2.568236 1_565
Cu2 Si1 2.568242 1_455
Cu3 Si1 2.512892 1_556
Cu3 Si1 2.513027 1_555
Cu3 Cu5 2.548052 1_555
Cu3 Cu4 2.548566 1_555
Cu3 Si0 2.567494 1_555
Cu3 Si0 2.567612 1_655
Cu3 Cu5 2.587028 1_565
Cu3 Cu4 2.587863 1_665
Cu4 Si1 2.512901 1_556
Cu4 Si1 2.513016 1_555
Cu4 Cu5 2.548047 1_555
Cu4 Si0 2.567511 1_555
Cu4 Si0 2.567619 1_545
Cu4 Cu5 2.587009 1_455
Cu5 Si1 2.512881 1_555
Cu5 Si1 2.513124 1_556
Cu5 Si0 2.568235 1_655
Cu5 Si0 2.568243 1_545
