# generated using pymatgen
data_P4WO12
_symmetry_space_group_name_H-M   'P 1'
_cell_length_a   8.42362600
_cell_length_b   9.59297300
_cell_length_c   12.96770300
_cell_angle_alpha   90.00000000
_cell_angle_beta   90.00000000
_cell_angle_gamma   90.00000000
_symmetry_Int_Tables_number   1
_chemical_formula_structural   P4WO12
_chemical_formula_sum   'P16 W4 O48'
_cell_volume   1047.88917454
_cell_formula_units_Z   4
loop_
 _symmetry_equiv_pos_site_id
 _symmetry_equiv_pos_as_xyz
  1  'x, y, z'
loop_
 _atom_site_type_symbol
 _atom_site_label
 _atom_site_symmetry_multiplicity
 _atom_site_fract_x
 _atom_site_fract_y
 _atom_site_fract_z
 _atom_site_occupancy
  P  P0  1  0.17591800  0.50214100  0.13927400  1
  P  P1  1  0.82408200  0.00214100  0.13927400  1
  P  P2  1  0.46871800  0.01241500  0.15375700  1
  P  P3  1  0.53128200  0.51241500  0.15375700  1
  P  P4  1  0.03128200  0.51241500  0.34624300  1
  P  P5  1  0.96871800  0.01241500  0.34624300  1
  P  P6  1  0.32408200  0.00214100  0.36072600  1
  P  P7  1  0.67591800  0.50214100  0.36072600  1
  P  P8  1  0.32408200  0.49785900  0.63927400  1
  P  P9  1  0.67591800  0.99785900  0.63927400  1
  P  P10  1  0.03128200  0.98758500  0.65375700  1
  P  P11  1  0.96871800  0.48758500  0.65375700  1
  P  P12  1  0.46871800  0.48758500  0.84624300  1
  P  P13  1  0.53128200  0.98758500  0.84624300  1
  P  P14  1  0.17591800  0.99785900  0.86072600  1
  P  P15  1  0.82408200  0.49785900  0.86072600  1
  W  W0  1  0.63999800  0.25000000  0.00000000  1
  W  W1  1  0.36000200  0.75000000  0.00000000  1
  W  W2  1  0.13999800  0.25000000  0.50000000  1
  W  W3  1  0.86000200  0.75000000  0.50000000  1
  O  O0  1  0.19165000  0.62793000  0.06789400  1
  O  O1  1  0.80835000  0.12793000  0.06789400  1
  O  O2  1  0.53386400  0.62654400  0.07263900  1
  O  O3  1  0.46613600  0.12654400  0.07263900  1
  O  O4  1  0.09106200  0.37661800  0.10784800  1
  O  O5  1  0.90893800  0.87661800  0.10784800  1
  O  O6  1  0.62406900  0.38193800  0.12467100  1
  O  O7  1  0.37593100  0.88193800  0.12467100  1
  O  O8  1  0.64367400  0.96563800  0.18109100  1
  O  O9  1  0.35632600  0.46563800  0.18109100  1
  O  O10  1  0.10505700  0.57491400  0.24466800  1
  O  O11  1  0.89494300  0.07491400  0.24466800  1
  O  O12  1  0.39494300  0.07491400  0.25533200  1
  O  O13  1  0.60505700  0.57491400  0.25533200  1
  O  O14  1  0.85632600  0.46563800  0.31890900  1
  O  O15  1  0.14367400  0.96563800  0.31890900  1
  O  O16  1  0.87593100  0.88193800  0.37532900  1
  O  O17  1  0.12406900  0.38193800  0.37532900  1
  O  O18  1  0.59106200  0.37661800  0.39215200  1
  O  O19  1  0.40893800  0.87661800  0.39215200  1
  O  O20  1  0.03386400  0.62654400  0.42736100  1
  O  O21  1  0.96613600  0.12654400  0.42736100  1
  O  O22  1  0.69165000  0.62793000  0.43210600  1
  O  O23  1  0.30835000  0.12793000  0.43210600  1
  O  O24  1  0.30835000  0.37207000  0.56789400  1
  O  O25  1  0.69165000  0.87207000  0.56789400  1
  O  O26  1  0.03386400  0.87345600  0.57263900  1
  O  O27  1  0.96613600  0.37345600  0.57263900  1
  O  O28  1  0.40893800  0.62338200  0.60784800  1
  O  O29  1  0.59106200  0.12338200  0.60784800  1
  O  O30  1  0.12406900  0.11806200  0.62467100  1
  O  O31  1  0.87593100  0.61806200  0.62467100  1
  O  O32  1  0.14367400  0.53436200  0.68109100  1
  O  O33  1  0.85632600  0.03436200  0.68109100  1
  O  O34  1  0.39494300  0.42508600  0.74466800  1
  O  O35  1  0.60505700  0.92508600  0.74466800  1
  O  O36  1  0.10505700  0.92508600  0.75533200  1
  O  O37  1  0.89494300  0.42508600  0.75533200  1
  O  O38  1  0.35632600  0.03436200  0.81890900  1
  O  O39  1  0.64367400  0.53436200  0.81890900  1
  O  O40  1  0.37593100  0.61806200  0.87532900  1
  O  O41  1  0.62406900  0.11806200  0.87532900  1
  O  O42  1  0.09106200  0.12338200  0.89215200  1
  O  O43  1  0.90893800  0.62338200  0.89215200  1
  O  O44  1  0.46613600  0.37345600  0.92736100  1
  O  O45  1  0.53386400  0.87345600  0.92736100  1
  O  O46  1  0.19165000  0.87207000  0.93210600  1
  O  O47  1  0.80835000  0.37207000  0.93210600  1
loop_
_geom_bond_atom_site_label_1
_geom_bond_atom_site_label_2
_geom_bond_distance
_geom_bond_site_symmetry_2
O0 P0 1.526585 1_555
O0 W1 2.039003 1_555
O1 P1 1.526585 1_555
O1 W0 2.039003 1_555
O2 P3 1.518441 1_555
O2 W1 2.105892 1_555
O3 P2 1.518441 1_555
O3 W0 2.105892 1_555
O4 P0 1.458409 1_555
O5 P1 1.458409 1_565
O6 P3 1.523097 1_555
O6 W0 2.057584 1_555
O7 P2 1.523097 1_565
O7 W1 2.057584 1_555
O8 P2 1.580816 1_565
O8 P1 1.651101 1_565
O9 P3 1.580816 1_555
O9 P0 1.651101 1_555
O10 P4 1.575013 1_555
O10 P0 1.646685 1_555
O11 P5 1.575013 1_555
O11 P1 1.646685 1_555
O12 P2 1.575013 1_555
O12 P6 1.646685 1_555
O13 P3 1.575013 1_555
O13 P7 1.646685 1_555
O14 P4 1.580816 1_655
O14 P7 1.651101 1_555
O15 P5 1.580816 1_465
O15 P6 1.651101 1_565
O16 P5 1.523097 1_565
O16 W3 2.057584 1_555
O17 P4 1.523097 1_555
O17 W2 2.057584 1_555
O18 P7 1.458409 1_555
O19 P6 1.458409 1_565
O20 P4 1.518441 1_555
O20 W3 2.105892 1_455
O21 P5 1.518441 1_555
O21 W2 2.105892 1_655
O22 P7 1.526585 1_555
O22 W3 2.039003 1_555
O23 P6 1.526585 1_555
O23 W2 2.039003 1_555
O24 P8 1.526585 1_555
O24 W2 2.039003 1_555
O25 P9 1.526585 1_555
O25 W3 2.039003 1_555
O26 P10 1.518441 1_555
O26 W3 2.105892 1_455
O27 P11 1.518441 1_555
O27 W2 2.105892 1_655
O28 P8 1.458409 1_555
O29 P9 1.458409 1_545
O30 P10 1.523097 1_545
O30 W2 2.057584 1_555
O31 P11 1.523097 1_555
O31 W3 2.057584 1_555
O32 P11 1.580816 1_455
O32 P8 1.651101 1_555
O33 P10 1.580816 1_645
O33 P9 1.651101 1_545
O34 P12 1.575013 1_555
O34 P8 1.646685 1_555
O35 P13 1.575013 1_555
O35 P9 1.646685 1_555
O36 P10 1.575013 1_555
O36 P14 1.646685 1_555
O37 P11 1.575013 1_555
O37 P15 1.646685 1_555
O38 P13 1.580816 1_545
O38 P14 1.651101 1_545
O39 P12 1.580816 1_555
O39 P15 1.651101 1_555
O40 P12 1.523097 1_555
O40 W1 2.057584 1_556
O41 P13 1.523097 1_545
O41 W0 2.057584 1_556
O42 P14 1.458409 1_545
O43 P15 1.458409 1_555
O44 P12 1.518441 1_555
O44 W0 2.105892 1_556
O45 P13 1.518441 1_555
O45 W1 2.105892 1_556
O46 P14 1.526585 1_555
O46 W1 2.039003 1_556
O47 P15 1.526585 1_555
O47 W0 2.039003 1_556
