# generated using pymatgen
data_Cs2ZrO3
_symmetry_space_group_name_H-M   'P 1'
_cell_length_a   5.95184647
_cell_length_b   6.87147581
_cell_length_c   6.87147462
_cell_angle_alpha   111.52867750
_cell_angle_beta   90.00000000
_cell_angle_gamma   90.00000000
_symmetry_Int_Tables_number   1
_chemical_formula_structural   Cs2ZrO3
_chemical_formula_sum   'Cs4 Zr2 O6'
_cell_volume   261.42306536
_cell_formula_units_Z   2
loop_
 _symmetry_equiv_pos_site_id
 _symmetry_equiv_pos_as_xyz
  1  'x, y, z'
loop_
 _atom_site_type_symbol
 _atom_site_label
 _atom_site_symmetry_multiplicity
 _atom_site_fract_x
 _atom_site_fract_y
 _atom_site_fract_z
 _atom_site_occupancy
  Cs  Cs0  1  0.25000000  0.80900884  0.48261464  1
  Cs  Cs1  1  0.75000000  0.19099116  0.51738536  1
  Cs  Cs2  1  0.75000000  0.51738536  0.19099116  1
  Cs  Cs3  1  0.25000000  0.48261464  0.80900884  1
  Zr  Zr0  1  0.25000000  0.08360847  0.08360847  1
  Zr  Zr1  1  0.75000000  0.91639153  0.91639153  1
  O  O0  1  0.75000000  0.66795340  0.66795340  1
  O  O1  1  0.25000000  0.33204660  0.33204660  1
  O  O2  1  0.50000000  0.11751907  0.88248093  1
  O  O3  1  0.00000000  0.11751907  0.88248093  1
  O  O4  1  0.50000000  0.88248093  0.11751907  1
  O  O5  1  -0.00000000  0.88248093  0.11751907  1
loop_
_geom_bond_atom_site_label_1
_geom_bond_atom_site_label_2
_geom_bond_distance
_geom_bond_site_symmetry_2
Cs0 O1 3.053411 1_555
Cs0 O5 3.113245 1_555
Cs0 O4 3.113245 1_555
Cs0 O2 3.159547 1_565
Cs0 O3 3.159547 1_565
Cs0 O0 3.510482 1_455
Cs0 O0 3.510482 1_555
Cs1 O0 3.053411 1_555
Cs1 O3 3.113245 1_655
Cs1 O2 3.113245 1_555
Cs1 O5 3.159547 1_645
Cs1 O4 3.159547 1_545
Cs1 O1 3.510482 1_555
Cs1 O1 3.510482 1_655
Cs2 O0 3.053410 1_555
Cs2 O4 3.113245 1_555
Cs2 O5 3.113245 1_655
Cs2 O3 3.159548 1_654
Cs2 O2 3.159548 1_554
Cs2 O1 3.510482 1_555
Cs2 O1 3.510482 1_655
Cs3 O1 3.053410 1_555
Cs3 O2 3.113245 1_555
Cs3 O3 3.113245 1_555
Cs3 O4 3.159548 1_556
Cs3 O5 3.159548 1_556
Cs3 O0 3.510482 1_455
Cs3 O0 3.510482 1_555
O0 Zr1 1.920863 1_555
O1 Zr0 1.920863 1_555
O2 Zr0 2.101124 1_556
O2 Zr1 2.101124 1_545
O3 Zr0 2.101124 1_556
O3 Zr1 2.101124 1_445
O4 Zr1 2.101124 1_554
O4 Zr0 2.101124 1_565
O5 Zr1 2.101124 1_454
O5 Zr0 2.101124 1_565
