# generated using pymatgen
data_La3CrW(SO2)3
_symmetry_space_group_name_H-M   'P 1'
_cell_length_a   9.49775962
_cell_length_b   9.49775962
_cell_length_c   5.63067900
_cell_angle_alpha   90.00000000
_cell_angle_beta   90.00000000
_cell_angle_gamma   119.99999735
_symmetry_Int_Tables_number   1
_chemical_formula_structural   La3CrW(SO2)3
_chemical_formula_sum   'La6 Cr2 W2 S6 O12'
_cell_volume   439.87953786
_cell_formula_units_Z   2
loop_
 _symmetry_equiv_pos_site_id
 _symmetry_equiv_pos_as_xyz
  1  'x, y, z'
loop_
 _atom_site_type_symbol
 _atom_site_label
 _atom_site_symmetry_multiplicity
 _atom_site_fract_x
 _atom_site_fract_y
 _atom_site_fract_z
 _atom_site_occupancy
  La  La0  1  0.68037300  0.08889000  0.25000000  1
  La  La1  1  0.31962700  0.91111000  0.75000000  1
  La  La2  1  0.91111000  0.59148300  0.25000000  1
  La  La3  1  0.40851700  0.31962700  0.25000000  1
  La  La4  1  0.59148300  0.68037300  0.75000000  1
  La  La5  1  0.08889000  0.40851700  0.75000000  1
  Cr  Cr0  1  0.00000000  0.00000000  0.00000000  1
  Cr  Cr1  1  0.00000000  0.00000000  0.50000000  1
  W  W0  1  0.66666700  0.33333300  0.75000000  1
  W  W1  1  0.33333300  0.66666700  0.25000000  1
  S  S0  1  0.04550400  0.22679300  0.25000000  1
  S  S1  1  0.95449600  0.77320700  0.75000000  1
  S  S2  1  0.77320700  0.81871200  0.25000000  1
  S  S3  1  0.18128800  0.95449600  0.25000000  1
  S  S4  1  0.81871200  0.04550400  0.75000000  1
  S  S5  1  0.22679300  0.18128800  0.75000000  1
  O  O0  1  0.83951400  0.36592500  0.97518900  1
  O  O1  1  0.16048600  0.63407500  0.47518900  1
  O  O2  1  0.63407500  0.47358900  0.97518900  1
  O  O3  1  0.52641100  0.16048600  0.97518900  1
  O  O4  1  0.47358900  0.83951400  0.47518900  1
  O  O5  1  0.36592500  0.52641100  0.47518900  1
  O  O6  1  0.16048600  0.63407500  0.02481100  1
  O  O7  1  0.83951400  0.36592500  0.52481100  1
  O  O8  1  0.36592500  0.52641100  0.02481100  1
  O  O9  1  0.47358900  0.83951400  0.02481100  1
  O  O10  1  0.52641100  0.16048600  0.52481100  1
  O  O11  1  0.63407500  0.47358900  0.52481100  1
loop_
_geom_bond_atom_site_label_1
_geom_bond_atom_site_label_2
_geom_bond_distance
_geom_bond_site_symmetry_2
La0 O3 2.447331 1_554
La0 O10 2.447331 1_555
La0 O9 2.534385 1_545
La0 O4 2.534385 1_545
La0 O0 2.761374 1_554
La0 O7 2.761374 1_555
La0 S0 3.033122 1_655
La0 S2 3.102382 1_545
La0 S4 3.219273 1_555
La0 S4 3.219273 1_554
La1 O9 2.447331 1_556
La1 O4 2.447331 1_555
La1 O10 2.534385 1_565
La1 O3 2.534385 1_565
La1 O6 2.761374 1_556
La1 O1 2.761374 1_555
La1 S1 3.033122 1_455
La1 S5 3.102382 1_565
La1 S3 3.219273 1_556
La1 S3 3.219273 1_555
La2 O7 2.447331 1_555
La2 O0 2.447331 1_554
La2 O6 2.534385 1_655
La2 O1 2.534385 1_655
La2 O11 2.761374 1_555
La2 O2 2.761374 1_554
La2 S2 3.033130 1_555
La2 S3 3.102389 1_655
La2 S1 3.219269 1_554
La2 S1 3.219269 1_555
La3 O11 2.447331 1_555
La3 O2 2.447331 1_554
La3 O8 2.534385 1_555
La3 O5 2.534385 1_555
La3 O3 2.761374 1_554
La3 O10 2.761374 1_555
La3 S3 3.033123 1_545
La3 S0 3.102391 1_555
La3 S5 3.219270 1_554
La3 S5 3.219270 1_555
La4 O5 2.447331 1_555
La4 O8 2.447331 1_556
La4 O11 2.534385 1_555
La4 O2 2.534385 1_555
La4 O9 2.761374 1_556
La4 O4 2.761374 1_555
La4 S4 3.033123 1_565
La4 S1 3.102391 1_555
La4 S2 3.219270 1_556
La4 S2 3.219270 1_555
La5 O6 2.447331 1_556
La5 O1 2.447331 1_555
La5 O7 2.534385 1_455
La5 O0 2.534385 1_455
La5 O8 2.761374 1_556
La5 O5 2.761374 1_555
La5 S5 3.033130 1_555
La5 S4 3.102389 1_455
La5 S0 3.219269 1_555
La5 S0 3.219269 1_556
Cr0 S3 2.424287 1_545
Cr0 S4 2.424287 1_454
Cr0 S5 2.424292 1_554
Cr0 S2 2.424292 1_445
Cr0 S0 2.424295 1_555
Cr0 S1 2.424295 1_444
Cr1 S3 2.424287 1_545
Cr1 S4 2.424287 1_455
Cr1 S2 2.424292 1_445
Cr1 S5 2.424292 1_555
Cr1 S0 2.424295 1_555
Cr1 S1 2.424295 1_445
O0 W0 1.972417 1_555
O1 W1 1.972417 1_555
O2 W0 1.972424 1_555
O3 W0 1.972420 1_555
O4 W1 1.972420 1_555
O5 W1 1.972424 1_555
O6 W1 1.972417 1_555
O7 W0 1.972417 1_555
O8 W1 1.972424 1_555
O9 W1 1.972420 1_555
O10 W0 1.972420 1_555
O11 W0 1.972424 1_555
