# generated using pymatgen
data_SmGa3
_symmetry_space_group_name_H-M   'P 1'
_cell_length_a   6.38238041
_cell_length_b   6.38238130
_cell_length_c   4.50629770
_cell_angle_alpha   90.00000000
_cell_angle_beta   90.00000000
_cell_angle_gamma   119.99999542
_symmetry_Int_Tables_number   1
_chemical_formula_structural   SmGa3
_chemical_formula_sum   'Sm2 Ga6'
_cell_volume   158.97028893
_cell_formula_units_Z   2
loop_
 _symmetry_equiv_pos_site_id
 _symmetry_equiv_pos_as_xyz
  1  'x, y, z'
loop_
 _atom_site_type_symbol
 _atom_site_label
 _atom_site_symmetry_multiplicity
 _atom_site_fract_x
 _atom_site_fract_y
 _atom_site_fract_z
 _atom_site_occupancy
  Sm  Sm0  1  0.33333400  0.66666800  0.75000000  1
  Sm  Sm1  1  0.66666700  0.33333400  0.25000100  1
  Ga  Ga0  1  0.14215707  0.28431113  0.25000100  1
  Ga  Ga1  1  0.71569187  0.85784493  0.25000100  1
  Ga  Ga2  1  0.14215607  0.85784493  0.25000100  1
  Ga  Ga3  1  0.85784393  0.71569087  0.75000000  1
  Ga  Ga4  1  0.28430913  0.14215707  0.75000000  1
  Ga  Ga5  1  0.85784493  0.14215707  0.75000000  1
loop_
_geom_bond_atom_site_label_1
_geom_bond_atom_site_label_2
_geom_bond_distance
_geom_bond_site_symmetry_2
Ga0 Ga1 2.721867 1_445
Ga0 Ga2 2.721867 1_545
Ga0 Ga4 2.747017 1_555
Ga0 Ga4 2.747024 1_554
Ga0 Ga5 2.747036 1_455
Ga0 Ga5 2.747044 1_454
Ga0 Sm0 3.089196 1_555
Ga0 Sm0 3.089202 1_554
Ga0 Sm1 3.202664 1_555
Ga0 Sm1 3.202683 1_455
Ga1 Ga2 2.721857 1_655
Ga1 Ga3 2.747017 1_555
Ga1 Ga3 2.747024 1_554
Ga1 Ga5 2.747036 1_565
Ga1 Ga5 2.747044 1_564
Ga1 Sm0 3.089199 1_555
Ga1 Sm0 3.089206 1_554
Ga1 Sm1 3.202665 1_555
Ga1 Sm1 3.202684 1_565
Ga2 Ga3 2.747036 1_455
Ga2 Ga4 2.747036 1_565
Ga2 Ga3 2.747044 1_454
Ga2 Ga4 2.747044 1_564
Ga2 Sm0 3.089188 1_555
Ga2 Sm0 3.089195 1_554
Ga2 Sm1 3.202673 1_565
Ga2 Sm1 3.202673 1_455
Ga3 Ga4 2.721867 1_665
Ga3 Ga5 2.721867 1_565
Ga3 Sm1 3.089196 1_555
Ga3 Sm1 3.089202 1_556
Ga3 Sm0 3.202664 1_555
Ga3 Sm0 3.202683 1_655
Ga4 Ga5 2.721857 1_455
Ga4 Sm1 3.089199 1_555
Ga4 Sm1 3.089206 1_556
Ga4 Sm0 3.202665 1_555
Ga4 Sm0 3.202684 1_545
Ga5 Sm1 3.089188 1_555
Ga5 Sm1 3.089195 1_556
Ga5 Sm0 3.202673 1_545
Ga5 Sm0 3.202673 1_655
