# generated using pymatgen
data_Tc
_symmetry_space_group_name_H-M   'P 1'
_cell_length_a   5.47871124
_cell_length_b   5.47870992
_cell_length_c   17.53936888
_cell_angle_alpha   90.00000000
_cell_angle_beta   90.00000000
_cell_angle_gamma   119.99998335
_symmetry_Int_Tables_number   1
_chemical_formula_structural   Tc
_chemical_formula_sum   Tc32
_cell_volume   455.93337532
_cell_formula_units_Z   32
loop_
 _symmetry_equiv_pos_site_id
 _symmetry_equiv_pos_as_xyz
  1  'x, y, z'
loop_
 _atom_site_type_symbol
 _atom_site_label
 _atom_site_symmetry_multiplicity
 _atom_site_fract_x
 _atom_site_fract_y
 _atom_site_fract_z
 _atom_site_occupancy
  Tc  Tc0_0  1  0.00000000  0.00000000  0.00000000  1
  Tc  Tc0_1  1  0.00000000  0.00000000  0.50000000  1
  Tc  Tc0_2  1  0.00000000  0.50000000  0.00000000  1
  Tc  Tc0_3  1  0.00000000  0.50000000  0.50000000  1
  Tc  Tc0_4  1  0.50000000  0.00000000  0.00000000  1
  Tc  Tc0_5  1  0.50000000  0.00000000  0.50000000  1
  Tc  Tc0_6  1  0.50000000  0.50000000  0.00000000  1
  Tc  Tc0_7  1  0.50000000  0.50000000  0.50000000  1
  Tc  Tc1_0  1  0.16666650  0.33333300  0.12500000  1
  Tc  Tc1_1  1  0.16666650  0.33333300  0.62500000  1
  Tc  Tc1_2  1  0.16666650  0.83333300  0.12500000  1
  Tc  Tc1_3  1  0.16666650  0.83333300  0.62500000  1
  Tc  Tc1_4  1  0.66666650  0.33333300  0.12500000  1
  Tc  Tc1_5  1  0.66666650  0.33333300  0.62500000  1
  Tc  Tc1_6  1  0.66666650  0.83333300  0.12500000  1
  Tc  Tc1_7  1  0.66666650  0.83333300  0.62500000  1
  Tc  Tc2_0  1  0.00000000  0.00000000  0.25000000  1
  Tc  Tc2_1  1  0.00000000  0.00000000  0.75000000  1
  Tc  Tc2_2  1  0.00000000  0.50000000  0.25000000  1
  Tc  Tc2_3  1  0.00000000  0.50000000  0.75000000  1
  Tc  Tc2_4  1  0.50000000  0.00000000  0.25000000  1
  Tc  Tc2_5  1  0.50000000  0.00000000  0.75000000  1
  Tc  Tc2_6  1  0.50000000  0.50000000  0.25000000  1
  Tc  Tc2_7  1  0.50000000  0.50000000  0.75000000  1
  Tc  Tc3_0  1  0.33333300  0.16666650  0.37500000  1
  Tc  Tc3_1  1  0.33333300  0.16666650  0.87500000  1
  Tc  Tc3_2  1  0.33333300  0.66666650  0.37500000  1
  Tc  Tc3_3  1  0.33333300  0.66666650  0.87500000  1
  Tc  Tc3_4  1  0.83333300  0.16666650  0.37500000  1
  Tc  Tc3_5  1  0.83333300  0.16666650  0.87500000  1
  Tc  Tc3_6  1  0.83333300  0.66666650  0.37500000  1
  Tc  Tc3_7  1  0.83333300  0.66666650  0.87500000  1
loop_
_geom_bond_atom_site_label_1
_geom_bond_atom_site_label_2
_geom_bond_distance
_geom_bond_site_symmetry_2
Tc0_0 Tc1_0 2.703343 1_555
Tc0_0 Tc3_1 2.703343 1_554
Tc0_0 Tc1_2 2.703344 1_545
Tc0_0 Tc3_5 2.703344 1_454
Tc0_0 Tc3_7 2.703344 1_444
Tc0_0 Tc1_6 2.703344 1_445
Tc0_0 Tc0_2 2.739355 1_555
Tc0_0 Tc0_2 2.739355 1_545
Tc0_0 Tc0_4 2.739356 1_455
Tc0_0 Tc0_4 2.739356 1_555
Tc0_0 Tc0_6 2.739356 1_445
Tc0_0 Tc0_6 2.739356 1_555
Tc0_1 Tc1_1 2.703343 1_555
Tc0_1 Tc3_0 2.703343 1_555
Tc0_1 Tc1_3 2.703344 1_545
Tc0_1 Tc3_4 2.703344 1_455
Tc0_1 Tc3_6 2.703344 1_445
Tc0_1 Tc1_7 2.703344 1_445
Tc0_1 Tc0_3 2.739355 1_555
Tc0_1 Tc0_3 2.739355 1_545
Tc0_1 Tc0_5 2.739356 1_455
Tc0_1 Tc0_5 2.739356 1_555
Tc0_1 Tc0_7 2.739356 1_555
Tc0_1 Tc0_7 2.739356 1_445
Tc0_2 Tc1_2 2.703343 1_555
Tc0_2 Tc3_3 2.703343 1_554
Tc0_2 Tc1_0 2.703344 1_555
Tc0_2 Tc3_7 2.703344 1_454
Tc0_2 Tc3_5 2.703344 1_454
Tc0_2 Tc1_4 2.703344 1_455
Tc0_2 Tc0_6 2.739356 1_455
Tc0_2 Tc0_6 2.739356 1_555
Tc0_2 Tc0_4 2.739356 1_455
Tc0_2 Tc0_4 2.739356 1_565
Tc0_3 Tc1_3 2.703343 1_555
Tc0_3 Tc3_2 2.703343 1_555
Tc0_3 Tc1_1 2.703344 1_555
Tc0_3 Tc3_6 2.703344 1_455
Tc0_3 Tc3_4 2.703344 1_455
Tc0_3 Tc1_5 2.703344 1_455
Tc0_3 Tc0_7 2.739356 1_455
Tc0_3 Tc0_7 2.739356 1_555
Tc0_3 Tc0_5 2.739356 1_455
Tc0_3 Tc0_5 2.739356 1_565
Tc0_4 Tc1_4 2.703343 1_555
Tc0_4 Tc3_5 2.703343 1_554
Tc0_4 Tc1_6 2.703344 1_545
Tc0_4 Tc3_1 2.703344 1_554
Tc0_4 Tc3_3 2.703344 1_544
Tc0_4 Tc1_2 2.703344 1_545
Tc0_4 Tc0_6 2.739355 1_545
Tc0_4 Tc0_6 2.739355 1_555
Tc0_5 Tc1_5 2.703343 1_555
Tc0_5 Tc3_4 2.703343 1_555
Tc0_5 Tc1_7 2.703344 1_545
Tc0_5 Tc3_0 2.703344 1_555
Tc0_5 Tc3_2 2.703344 1_545
Tc0_5 Tc1_3 2.703344 1_545
Tc0_5 Tc0_7 2.739355 1_545
Tc0_5 Tc0_7 2.739355 1_555
Tc0_6 Tc1_6 2.703343 1_555
Tc0_6 Tc3_7 2.703343 1_554
Tc0_6 Tc1_4 2.703344 1_555
Tc0_6 Tc3_3 2.703344 1_554
Tc0_6 Tc3_1 2.703344 1_554
Tc0_6 Tc1_0 2.703344 1_555
Tc0_7 Tc1_7 2.703343 1_555
Tc0_7 Tc3_6 2.703343 1_555
Tc0_7 Tc1_5 2.703344 1_555
Tc0_7 Tc3_2 2.703344 1_555
Tc0_7 Tc3_0 2.703344 1_555
Tc0_7 Tc1_1 2.703344 1_555
Tc1_0 Tc2_0 2.703343 1_555
Tc1_0 Tc2_2 2.703344 1_555
Tc1_0 Tc2_6 2.703344 1_555
Tc1_0 Tc1_2 2.739355 1_555
Tc1_0 Tc1_2 2.739355 1_545
Tc1_0 Tc1_4 2.739356 1_455
Tc1_0 Tc1_4 2.739356 1_555
Tc1_0 Tc1_6 2.739356 1_445
Tc1_0 Tc1_6 2.739356 1_555
Tc1_1 Tc2_1 2.703343 1_555
Tc1_1 Tc2_3 2.703344 1_555
Tc1_1 Tc2_7 2.703344 1_555
Tc1_1 Tc1_3 2.739355 1_555
Tc1_1 Tc1_3 2.739355 1_545
Tc1_1 Tc1_5 2.739356 1_455
Tc1_1 Tc1_5 2.739356 1_555
Tc1_1 Tc1_7 2.739356 1_445
Tc1_1 Tc1_7 2.739356 1_555
Tc1_2 Tc2_2 2.703343 1_555
Tc1_2 Tc2_0 2.703344 1_565
Tc1_2 Tc2_4 2.703344 1_565
Tc1_2 Tc1_6 2.739356 1_455
Tc1_2 Tc1_6 2.739356 1_555
Tc1_2 Tc1_4 2.739356 1_565
Tc1_2 Tc1_4 2.739356 1_455
Tc1_3 Tc2_3 2.703343 1_555
Tc1_3 Tc2_1 2.703344 1_565
Tc1_3 Tc2_5 2.703344 1_565
Tc1_3 Tc1_7 2.739356 1_455
Tc1_3 Tc1_7 2.739356 1_555
Tc1_3 Tc1_5 2.739356 1_565
Tc1_3 Tc1_5 2.739356 1_455
Tc1_4 Tc2_4 2.703343 1_555
Tc1_4 Tc2_6 2.703344 1_555
Tc1_4 Tc2_2 2.703344 1_655
Tc1_4 Tc1_6 2.739355 1_555
Tc1_4 Tc1_6 2.739355 1_545
Tc1_5 Tc2_5 2.703343 1_555
Tc1_5 Tc2_7 2.703344 1_555
Tc1_5 Tc2_3 2.703344 1_655
Tc1_5 Tc1_7 2.739355 1_555
Tc1_5 Tc1_7 2.739355 1_545
Tc1_6 Tc2_6 2.703343 1_555
Tc1_6 Tc2_4 2.703344 1_565
Tc1_6 Tc2_0 2.703344 1_665
Tc1_7 Tc2_7 2.703343 1_555
Tc1_7 Tc2_5 2.703344 1_565
Tc1_7 Tc2_1 2.703344 1_665
Tc2_0 Tc3_0 2.703343 1_555
Tc2_0 Tc3_4 2.703344 1_455
Tc2_0 Tc3_6 2.703344 1_445
Tc2_0 Tc2_2 2.739355 1_555
Tc2_0 Tc2_2 2.739355 1_545
Tc2_0 Tc2_4 2.739356 1_455
Tc2_0 Tc2_4 2.739356 1_555
Tc2_0 Tc2_6 2.739356 1_445
Tc2_0 Tc2_6 2.739356 1_555
Tc2_1 Tc3_1 2.703343 1_555
Tc2_1 Tc3_5 2.703344 1_455
Tc2_1 Tc3_7 2.703344 1_445
Tc2_1 Tc2_3 2.739355 1_555
Tc2_1 Tc2_3 2.739355 1_545
Tc2_1 Tc2_5 2.739356 1_455
Tc2_1 Tc2_5 2.739356 1_555
Tc2_1 Tc2_7 2.739356 1_555
Tc2_1 Tc2_7 2.739356 1_445
Tc2_2 Tc3_2 2.703343 1_555
Tc2_2 Tc3_6 2.703344 1_455
Tc2_2 Tc3_4 2.703344 1_455
Tc2_2 Tc2_6 2.739356 1_555
Tc2_2 Tc2_6 2.739356 1_455
Tc2_2 Tc2_4 2.739356 1_455
Tc2_2 Tc2_4 2.739356 1_565
Tc2_3 Tc3_3 2.703343 1_555
Tc2_3 Tc3_7 2.703344 1_455
Tc2_3 Tc3_5 2.703344 1_455
Tc2_3 Tc2_7 2.739356 1_455
Tc2_3 Tc2_7 2.739356 1_555
Tc2_3 Tc2_5 2.739356 1_455
Tc2_3 Tc2_5 2.739356 1_565
Tc2_4 Tc3_4 2.703343 1_555
Tc2_4 Tc3_0 2.703344 1_555
Tc2_4 Tc3_2 2.703344 1_545
Tc2_4 Tc2_6 2.739355 1_545
Tc2_4 Tc2_6 2.739355 1_555
Tc2_5 Tc3_5 2.703343 1_555
Tc2_5 Tc3_1 2.703344 1_555
Tc2_5 Tc3_3 2.703344 1_545
Tc2_5 Tc2_7 2.739355 1_545
Tc2_5 Tc2_7 2.739355 1_555
Tc2_6 Tc3_6 2.703343 1_555
Tc2_6 Tc3_2 2.703344 1_555
Tc2_6 Tc3_0 2.703344 1_555
Tc2_7 Tc3_7 2.703343 1_555
Tc2_7 Tc3_3 2.703344 1_555
Tc2_7 Tc3_1 2.703344 1_555
Tc3_0 Tc3_2 2.739355 1_555
Tc3_0 Tc3_2 2.739355 1_545
Tc3_0 Tc3_4 2.739356 1_555
Tc3_0 Tc3_4 2.739356 1_455
Tc3_0 Tc3_6 2.739356 1_445
Tc3_0 Tc3_6 2.739356 1_555
Tc3_1 Tc3_3 2.739355 1_545
Tc3_1 Tc3_3 2.739355 1_555
Tc3_1 Tc3_5 2.739356 1_455
Tc3_1 Tc3_5 2.739356 1_555
Tc3_1 Tc3_7 2.739356 1_555
Tc3_1 Tc3_7 2.739356 1_445
Tc3_2 Tc3_6 2.739356 1_455
Tc3_2 Tc3_6 2.739356 1_555
Tc3_2 Tc3_4 2.739356 1_455
Tc3_2 Tc3_4 2.739356 1_565
Tc3_3 Tc3_7 2.739356 1_555
Tc3_3 Tc3_7 2.739356 1_455
Tc3_3 Tc3_5 2.739356 1_565
Tc3_3 Tc3_5 2.739356 1_455
Tc3_4 Tc3_6 2.739355 1_555
Tc3_4 Tc3_6 2.739355 1_545
Tc3_5 Tc3_7 2.739355 1_555
Tc3_5 Tc3_7 2.739355 1_545
