# generated using pymatgen
data_LiMn2(BO3)2
_symmetry_space_group_name_H-M   'P 1'
_cell_length_a   5.29727900
_cell_length_b   5.80025559
_cell_length_c   16.43565739
_cell_angle_alpha   99.18152285
_cell_angle_beta   89.96322549
_cell_angle_gamma   90.62454836
_symmetry_Int_Tables_number   1
_chemical_formula_structural   LiMn2(BO3)2
_chemical_formula_sum   'Li4 Mn8 B8 O24'
_cell_volume   498.49494155
_cell_formula_units_Z   4
loop_
 _symmetry_equiv_pos_site_id
 _symmetry_equiv_pos_as_xyz
  1  'x, y, z'
loop_
 _atom_site_type_symbol
 _atom_site_label
 _atom_site_symmetry_multiplicity
 _atom_site_fract_x
 _atom_site_fract_y
 _atom_site_fract_z
 _atom_site_occupancy
  Li  Li0  1  0.16993400  0.05210300  0.61135100  1
  Li  Li1  1  0.33948800  0.18607000  0.13112000  1
  Li  Li2  1  0.66368800  0.30633700  0.36418300  1
  Li  Li3  1  0.66825200  0.80380500  0.86473400  1
  Mn  Mn0  1  0.30391700  0.30104500  0.95866700  1
  Mn  Mn1  1  0.82332900  0.02319400  0.21427500  1
  Mn  Mn2  1  0.69460800  0.20681100  0.53816700  1
  Mn  Mn3  1  0.81186900  0.54119200  0.70862000  1
  Mn  Mn4  1  0.18806200  0.46222600  0.28521400  1
  Mn  Mn5  1  0.31035000  0.79018400  0.45698500  1
  Mn  Mn6  1  0.19294800  0.96415300  0.78748200  1
  Mn  Mn7  1  0.70219700  0.69834000  0.04244800  1
  B  B0  1  0.67298600  0.04330600  0.70444700  1
  B  B1  1  0.17320700  0.29302300  0.45402100  1
  B  B2  1  0.32229500  0.46822000  0.79576600  1
  B  B3  1  0.82593600  0.20341100  0.04984100  1
  B  B4  1  0.17822800  0.79329000  0.95210700  1
  B  B5  1  0.67658000  0.53189300  0.20718400  1
  B  B6  1  0.82259500  0.71225500  0.54538400  1
  B  B7  1  0.32798200  0.96180100  0.29301500  1
  O  O0  1  0.41472300  0.03251700  0.69578300  1
  O  O1  1  0.81693400  0.16980200  0.65359100  1
  O  O2  1  0.30383500  0.17262000  0.50653200  1
  O  O3  1  0.67931900  0.35518600  0.01213900  1
  O  O4  1  0.19614100  0.10759000  0.24602400  1
  O  O5  1  0.19160800  0.29703000  0.83177300  1
  O  O6  1  0.68217400  0.04316500  0.08983300  1
  O  O7  1  0.91445000  0.27834600  0.44607300  1
  O  O8  1  0.57418400  0.49701800  0.80323000  1
  O  O9  1  0.07924700  0.21206400  0.05422500  1
  O  O10  1  0.31237400  0.42101800  0.40274500  1
  O  O11  1  0.80706600  0.41224600  0.26062900  1
  O  O12  1  0.17233400  0.61959600  0.75856000  1
  O  O13  1  0.69597000  0.53995200  0.58221400  1
  O  O14  1  0.91771400  0.77822300  0.94944100  1
  O  O15  1  0.41996500  0.49845100  0.19580500  1
  O  O16  1  0.07451900  0.74355700  0.55207900  1
  O  O17  1  0.30884300  0.93663100  0.90382600  1
  O  O18  1  0.80383200  0.67214600  0.16019200  1
  O  O19  1  0.80122900  0.92478100  0.75783300  1
  O  O20  1  0.32551200  0.66376900  0.99612400  1
  O  O21  1  0.67111200  0.86240100  0.50789400  1
  O  O22  1  0.18869100  0.79755700  0.32927200  1
  O  O23  1  0.57703300  0.99133500  0.30653600  1
loop_
_geom_bond_atom_site_label_1
_geom_bond_atom_site_label_2
_geom_bond_distance
_geom_bond_site_symmetry_2
Li0 O0 1.917265 1_555
Li0 O16 1.957513 1_545
Li0 O1 2.078369 1_455
Li0 O2 2.081257 1_555
Li1 O9 1.894202 1_555
Li1 O15 1.990971 1_555
Li1 O6 2.072335 1_555
Li1 O4 2.148326 1_555
Li2 O7 1.918101 1_555
Li2 O23 1.968884 1_545
Li2 O11 2.042737 1_555
Li2 O10 2.049010 1_555
Li3 O14 1.943997 1_555
Li3 O8 1.960572 1_555
Li3 O19 2.111079 1_555
Li3 O17 2.122169 1_555
Mn0 O9 2.095793 1_556
Mn0 O20 2.097607 1_555
Mn0 O17 2.161942 1_545
Mn0 O5 2.165629 1_555
Mn0 O3 2.173962 1_556
Mn1 O23 2.029136 1_545
Mn1 O4 2.076256 1_655
Mn1 O18 2.089189 1_545
Mn1 O6 2.198905 1_555
Mn1 O11 2.266188 1_555
Mn2 O13 1.952236 1_555
Mn2 O21 1.982722 1_545
Mn2 O7 2.001764 1_555
Mn2 O1 2.049248 1_555
Mn2 O2 2.134065 1_555
Mn3 O8 2.046093 1_555
Mn3 O12 2.095377 1_655
Mn3 O13 2.165649 1_555
Mn3 O1 2.199681 1_555
Mn3 O19 2.244109 1_555
Mn4 O15 1.950194 1_555
Mn4 O22 1.964131 1_555
Mn4 O4 2.055953 1_555
Mn4 O11 2.066767 1_455
Mn4 O10 2.091564 1_555
Mn5 O16 2.049775 1_555
Mn5 O21 2.097726 1_555
Mn5 O10 2.184293 1_555
Mn5 O22 2.203212 1_555
Mn5 O2 2.238311 1_565
Mn6 O5 1.951820 1_565
Mn6 O12 1.980934 1_555
Mn6 O0 1.996782 1_565
Mn6 O17 2.039588 1_555
Mn6 O19 2.133279 1_455
Mn7 O3 1.975566 1_555
Mn7 O14 2.016688 1_554
Mn7 O6 2.031134 1_565
Mn7 O18 2.038356 1_555
Mn7 O20 2.132143 1_554
B0 O0 1.375284 1_555
B0 O19 1.381109 1_545
B0 O1 1.414613 1_555
B1 O7 1.377421 1_455
B1 O2 1.383854 1_555
B1 O10 1.411315 1_555
B2 O8 1.346176 1_555
B2 O12 1.401098 1_555
B2 O5 1.409766 1_555
B3 O9 1.343800 1_655
B3 O3 1.397064 1_555
B3 O6 1.433455 1_555
B4 O20 1.372380 1_555
B4 O14 1.382109 1_455
B4 O17 1.413142 1_555
B5 O18 1.378617 1_555
B5 O15 1.379662 1_555
B5 O11 1.391678 1_555
B6 O16 1.347043 1_655
B6 O21 1.403264 1_555
B6 O13 1.411763 1_555
B7 O23 1.342596 1_555
B7 O22 1.404415 1_555
B7 O4 1.421724 1_565
