# generated using pymatgen
data_FeSCl7
_symmetry_space_group_name_H-M   'P 1'
_cell_length_a   12.59944500
_cell_length_b   7.12579900
_cell_length_c   12.17156760
_cell_angle_alpha   72.37020133
_cell_angle_beta   90.00000000
_cell_angle_gamma   90.00000000
_symmetry_Int_Tables_number   1
_chemical_formula_structural   FeSCl7
_chemical_formula_sum   'Fe4 S4 Cl28'
_cell_volume   1041.45273586
_cell_formula_units_Z   4
loop_
 _symmetry_equiv_pos_site_id
 _symmetry_equiv_pos_as_xyz
  1  'x, y, z'
loop_
 _atom_site_type_symbol
 _atom_site_label
 _atom_site_symmetry_multiplicity
 _atom_site_fract_x
 _atom_site_fract_y
 _atom_site_fract_z
 _atom_site_occupancy
  Fe  Fe0  1  0.47559700  0.86450000  0.15990400  1
  Fe  Fe1  1  0.97559700  0.13550000  0.34009600  1
  Fe  Fe2  1  0.52440300  0.13550000  0.84009600  1
  Fe  Fe3  1  0.02440300  0.86450000  0.65990400  1
  S  S0  1  0.75379100  0.54197400  0.04483300  1
  S  S1  1  0.25379100  0.45802600  0.45516700  1
  S  S2  1  0.24620900  0.45802600  0.95516700  1
  S  S3  1  0.74620900  0.54197400  0.54483300  1
  Cl  Cl0  1  0.57062300  0.59177800  0.19131400  1
  Cl  Cl1  1  0.07062300  0.40822200  0.30868600  1
  Cl  Cl2  1  0.42937700  0.40822200  0.80868600  1
  Cl  Cl3  1  0.92937700  0.59177800  0.69131400  1
  Cl  Cl4  1  0.67261400  0.70627300  0.90336000  1
  Cl  Cl5  1  0.17261400  0.29372700  0.59664000  1
  Cl  Cl6  1  0.32738600  0.29372700  0.09664000  1
  Cl  Cl7  1  0.82738600  0.70627300  0.40336000  1
  Cl  Cl8  1  0.86266200  0.41582100  0.96963300  1
  Cl  Cl9  1  0.36266200  0.58417900  0.53036700  1
  Cl  Cl10  1  0.13733800  0.58417900  0.03036700  1
  Cl  Cl11  1  0.63733800  0.41582100  0.46963300  1
  Cl  Cl12  1  0.84037400  0.74627600  0.08876900  1
  Cl  Cl13  1  0.34037400  0.25372400  0.41123100  1
  Cl  Cl14  1  0.15962600  0.25372400  0.91123100  1
  Cl  Cl15  1  0.65962600  0.74627600  0.58876900  1
  Cl  Cl16  1  0.59893300  0.10456800  0.02831300  1
  Cl  Cl17  1  0.09893300  0.89543200  0.47168700  1
  Cl  Cl18  1  0.40106700  0.89543200  0.97168700  1
  Cl  Cl19  1  0.90106700  0.10456800  0.52831300  1
  Cl  Cl20  1  0.31139400  0.75288700  0.23460000  1
  Cl  Cl21  1  0.81139400  0.24711300  0.26540000  1
  Cl  Cl22  1  0.68860600  0.24711300  0.76540000  1
  Cl  Cl23  1  0.18860600  0.75288700  0.73460000  1
  Cl  Cl24  1  0.51131700  0.01408200  0.29390200  1
  Cl  Cl25  1  0.01131700  0.98591800  0.20609800  1
  Cl  Cl26  1  0.48868300  0.98591800  0.70609800  1
  Cl  Cl27  1  0.98868300  0.01408200  0.79390200  1
loop_
_geom_bond_atom_site_label_1
_geom_bond_atom_site_label_2
_geom_bond_distance
_geom_bond_site_symmetry_2
Cl0 Fe0 2.215005 1_555
Cl1 Fe1 2.215005 1_455
Cl2 Fe2 2.215005 1_555
Cl3 Fe3 2.215005 1_655
Cl4 S0 2.039787 1_556
Cl5 S1 2.039787 1_555
Cl6 S2 2.039787 1_554
Cl7 S3 2.039787 1_555
Cl8 S0 2.006457 1_556
Cl9 S1 2.006457 1_555
Cl10 S2 2.006457 1_554
Cl11 S3 2.006457 1_555
Cl12 S0 2.016683 1_555
Cl13 S1 2.016683 1_555
Cl14 S2 2.016683 1_555
Cl15 S3 2.016683 1_555
Cl16 Fe2 2.423368 1_554
Cl16 Fe0 2.499380 1_545
Cl17 Fe3 2.423368 1_555
Cl17 Fe1 2.499380 1_465
Cl18 Fe0 2.423368 1_556
Cl18 Fe2 2.499380 1_565
Cl19 Fe1 2.423368 1_555
Cl19 Fe3 2.499380 1_645
Cl20 Fe0 2.302466 1_555
Cl21 Fe1 2.302466 1_555
Cl22 Fe2 2.302466 1_555
Cl23 Fe3 2.302466 1_555
Cl24 Fe0 2.247608 1_545
Cl25 Fe1 2.247608 1_465
Cl26 Fe2 2.247608 1_565
Cl27 Fe3 2.247608 1_645
