# generated using pymatgen
data_LiFe4(BO3)4
_symmetry_space_group_name_H-M   'P 1'
_cell_length_a   5.22650451
_cell_length_b   9.15915514
_cell_length_c   11.37299086
_cell_angle_alpha   66.21105416
_cell_angle_beta   76.73859190
_cell_angle_gamma   89.13152626
_symmetry_Int_Tables_number   1
_chemical_formula_structural   LiFe4(BO3)4
_chemical_formula_sum   'Li2 Fe8 B8 O24'
_cell_volume   483.05546221
_cell_formula_units_Z   2
loop_
 _symmetry_equiv_pos_site_id
 _symmetry_equiv_pos_as_xyz
  1  'x, y, z'
loop_
 _atom_site_type_symbol
 _atom_site_label
 _atom_site_symmetry_multiplicity
 _atom_site_fract_x
 _atom_site_fract_y
 _atom_site_fract_z
 _atom_site_occupancy
  Li  Li0  1  0.71526900  0.72784400  0.89860800  1
  Li  Li1  1  0.51602700  0.49555100  0.65324500  1
  Fe  Fe0  1  0.98074200  0.64618700  0.37864500  1
  Fe  Fe1  1  0.74003000  0.07396900  0.87676500  1
  Fe  Fe2  1  0.51089000  0.85161000  0.62951500  1
  Fe  Fe3  1  0.76200600  0.43303800  0.12915000  1
  Fe  Fe4  1  0.23562300  0.55138700  0.88294400  1
  Fe  Fe5  1  0.47048100  0.14921900  0.37865000  1
  Fe  Fe6  1  0.03722900  0.33980100  0.62614100  1
  Fe  Fe7  1  0.26578300  0.93616000  0.12871700  1
  B  B0  1  0.96886300  0.31546600  0.37325700  1
  B  B1  1  0.73768700  0.39650200  0.87325500  1
  B  B2  1  0.53667500  0.18699300  0.62803200  1
  B  B3  1  0.76537500  0.10592600  0.12831000  1
  B  B4  1  0.47309000  0.81238700  0.38051200  1
  B  B5  1  0.23235600  0.89297100  0.88014400  1
  B  B6  1  0.01432600  0.68193200  0.62813300  1
  B  B7  1  0.26636400  0.60732600  0.12697100  1
  O  O0  1  0.97070000  0.90380500  0.88218200  1
  O  O1  1  0.89401500  0.28487200  0.84306100  1
  O  O2  1  0.83583300  0.49095700  0.92847000  1
  O  O3  1  0.84990300  0.78984800  0.65147500  1
  O  O4  1  0.93354600  0.57732400  0.57918400  1
  O  O5  1  0.75099200  0.15138900  0.68629300  1
  O  O6  1  0.73389600  0.33090600  0.32947900  1
  O  O7  1  0.50081200  0.41792500  0.84392700  1
  O  O8  1  0.38071700  0.79257500  0.82969100  1
  O  O9  1  0.53299900  0.92224000  0.43019700  1
  O  O10  1  0.62950800  0.69380300  0.38046600  1
  O  O11  1  0.36452700  0.97601100  0.93126900  1
  O  O12  1  0.63298300  0.02275700  0.07695200  1
  O  O13  1  0.41113000  0.31870400  0.61912100  1
  O  O14  1  0.46235400  0.08098800  0.57691300  1
  O  O15  1  0.62360600  0.21098600  0.17480100  1
  O  O16  1  0.53437600  0.60262100  0.10747600  1
  O  O17  1  0.26140200  0.66868000  0.65900000  1
  O  O18  1  0.24523200  0.82926100  0.33273100  1
  O  O19  1  0.03450700  0.42437400  0.41975200  1
  O  O20  1  0.12441100  0.19525200  0.37281100  1
  O  O21  1  0.12609500  0.51396000  0.08853600  1
  O  O22  1  0.13231500  0.71216800  0.17604100  1
  O  O23  1  0.01970900  0.08365200  0.13310500  1
loop_
_geom_bond_atom_site_label_1
_geom_bond_atom_site_label_2
_geom_bond_distance
_geom_bond_site_symmetry_2
Li0 O0 2.030393 1_555
Li0 O8 2.060503 1_555
Li0 O16 2.157927 1_556
Li0 O2 2.163842 1_555
Li0 O3 2.556250 1_555
Li1 O13 1.925229 1_555
Li1 O7 1.973189 1_555
Li1 O17 2.066301 1_555
Li1 O4 2.174766 1_555
Fe0 O10 1.877790 1_555
Fe0 O19 1.923988 1_655
Fe0 O18 2.006982 1_655
Fe0 O4 2.060700 1_555
Fe0 O22 2.087067 1_655
Fe1 O0 1.945770 1_545
Fe1 O1 1.958143 1_555
Fe1 O5 1.975794 1_555
Fe1 O11 2.021751 1_545
Fe1 O12 2.068463 1_556
Fe2 O3 1.892222 1_555
Fe2 O14 1.968649 1_565
Fe2 O17 2.008069 1_555
Fe2 O8 2.060489 1_555
Fe2 O9 2.066270 1_555
Fe3 O16 1.912686 1_555
Fe3 O21 1.935739 1_655
Fe3 O15 1.987362 1_555
Fe3 O6 2.053948 1_555
Fe3 O2 2.065128 1_554
Fe4 O7 1.927761 1_555
Fe4 O2 2.061061 1_455
Fe4 O8 2.140707 1_555
Fe4 O21 2.158148 1_556
Fe4 O17 2.301877 1_555
Fe5 O20 1.860942 1_555
Fe5 O9 1.963795 1_545
Fe5 O6 1.985660 1_555
Fe5 O14 2.072855 1_555
Fe5 O15 2.107079 1_555
Fe6 O13 1.947308 1_555
Fe6 O5 2.083366 1_455
Fe6 O4 2.114582 1_455
Fe6 O19 2.158244 1_555
Fe6 O1 2.250007 1_455
Fe7 O23 1.858432 1_565
Fe7 O12 1.951918 1_565
Fe7 O22 1.991380 1_555
Fe7 O11 2.062755 1_554
Fe7 O18 2.099969 1_555
B0 O20 1.359691 1_655
B0 O19 1.382563 1_655
B0 O6 1.412255 1_555
B1 O7 1.346016 1_555
B1 O1 1.400023 1_555
B1 O2 1.416128 1_555
B2 O13 1.343134 1_555
B2 O5 1.398283 1_555
B2 O14 1.414913 1_555
B3 O23 1.351901 1_655
B3 O12 1.400209 1_555
B3 O15 1.401297 1_555
B4 O10 1.349578 1_555
B4 O18 1.400357 1_555
B4 O9 1.406803 1_555
B5 O0 1.365198 1_455
B5 O11 1.396680 1_555
B5 O8 1.405697 1_555
B6 O3 1.366459 1_455
B6 O4 1.398768 1_455
B6 O17 1.405131 1_555
B7 O16 1.369873 1_555
B7 O21 1.388313 1_555
B7 O22 1.398912 1_555
