# generated using pymatgen
data_Li3Fe4O3F5
_symmetry_space_group_name_H-M   'P 1'
_cell_length_a   6.12085062
_cell_length_b   6.00198778
_cell_length_c   6.16259512
_cell_angle_alpha   60.47051805
_cell_angle_beta   88.26064818
_cell_angle_gamma   118.65132751
_symmetry_Int_Tables_number   1
_chemical_formula_structural   Li3Fe4O3F5
_chemical_formula_sum   'Li3 Fe4 O3 F5'
_cell_volume   161.98240722
_cell_formula_units_Z   1
loop_
 _symmetry_equiv_pos_site_id
 _symmetry_equiv_pos_as_xyz
  1  'x, y, z'
loop_
 _atom_site_type_symbol
 _atom_site_label
 _atom_site_symmetry_multiplicity
 _atom_site_fract_x
 _atom_site_fract_y
 _atom_site_fract_z
 _atom_site_occupancy
  Li  Li0  1  0.49245500  0.98711800  0.00447500  1
  Li  Li1  1  0.49516900  0.99747900  0.49989500  1
  Li  Li2  1  0.49672700  0.50254600  0.49389800  1
  Fe  Fe0  1  0.48085500  0.50312600  0.01427600  1
  Fe  Fe1  1  0.99942700  0.99862800  0.00011700  1
  Fe  Fe2  1  0.00898300  0.01911000  0.49090600  1
  Fe  Fe3  1  0.01752900  0.50092600  0.47744700  1
  O  O0  1  0.77511700  0.99991600  0.76944500  1
  O  O1  1  0.27222400  0.50470300  0.26576100  1
  O  O2  1  0.22598400  0.99981300  0.23188400  1
  F  F0  1  0.72595900  0.47241000  0.27900600  1
  F  F1  1  0.26837300  0.02298300  0.72837200  1
  F  F2  1  0.72841300  0.49433200  0.73635100  1
  F  F3  1  0.73643800  0.97326500  0.28121800  1
  F  F4  1  0.27634400  0.52364500  0.72694700  1
loop_
_geom_bond_atom_site_label_1
_geom_bond_atom_site_label_2
_geom_bond_distance
_geom_bond_site_symmetry_2
Li0 O1 2.079196 1_555
Li0 O0 2.169762 1_554
Li0 O2 2.171576 1_555
Li1 O2 2.367988 1_555
Li1 O0 2.422481 1_555
Li2 O1 1.995357 1_555
Fe0 O1 1.984592 1_555
Fe0 O0 2.159059 1_554
Fe0 O2 2.172141 1_545
Fe1 O0 2.005916 1_554
Fe1 O2 2.020851 1_655
Fe2 O1 2.095350 1_555
Fe2 O0 2.122868 1_445
Fe2 O2 2.127598 1_545
Fe3 O1 1.986492 1_555
Fe3 O2 2.153221 1_555
Fe3 O0 2.169644 1_445
F0 Li2 2.030229 1_555
F0 Li1 2.042273 1_545
F0 Fe3 2.180757 1_655
F0 Fe0 2.250244 1_555
F0 Fe1 2.266222 1_555
F1 Li1 2.056833 1_545
F1 Li2 2.060573 1_555
F1 Fe2 2.191355 1_555
F1 Li0 2.210529 1_546
F1 Fe1 2.212763 1_446
F2 Li2 2.090214 1_555
F2 Li0 2.182700 1_546
F2 Fe2 2.262026 1_665
F2 Fe0 2.289225 1_556
F2 Fe3 2.319063 1_655
F3 Li2 2.027459 1_555
F3 Li1 2.072706 1_555
F3 Fe2 2.137673 1_665
F3 Fe1 2.225096 1_555
F3 Li0 2.297735 1_555
F4 Li2 2.030707 1_555
F4 Li1 2.037316 1_555
F4 Fe0 2.187443 1_556
F4 Fe3 2.244924 1_555
F4 Fe1 2.261058 1_446
