# generated using pymatgen
data_LiFe4(BO3)4
_symmetry_space_group_name_H-M   'P 1'
_cell_length_a   5.23208400
_cell_length_b   9.12214192
_cell_length_c   10.14419290
_cell_angle_alpha   89.79450844
_cell_angle_beta   89.68625013
_cell_angle_gamma   88.99369502
_symmetry_Int_Tables_number   1
_chemical_formula_structural   LiFe4(BO3)4
_chemical_formula_sum   'Li2 Fe8 B8 O24'
_cell_volume   484.07525953
_cell_formula_units_Z   2
loop_
 _symmetry_equiv_pos_site_id
 _symmetry_equiv_pos_as_xyz
  1  'x, y, z'
loop_
 _atom_site_type_symbol
 _atom_site_label
 _atom_site_symmetry_multiplicity
 _atom_site_fract_x
 _atom_site_fract_y
 _atom_site_fract_z
 _atom_site_occupancy
  Li  Li0  1  0.18495600  0.16825900  0.15263000  1
  Li  Li1  1  0.65267600  0.67606800  0.65241800  1
  Fe  Fe0  1  0.14619200  0.85040800  0.62660600  1
  Fe  Fe1  1  0.16976900  0.51362200  0.12846200  1
  Fe  Fe2  1  0.32669800  0.00020100  0.87820100  1
  Fe  Fe3  1  0.33121600  0.66792300  0.37683700  1
  Fe  Fe4  1  0.67007700  0.33036900  0.62875200  1
  Fe  Fe5  1  0.68740500  0.97948600  0.12721100  1
  Fe  Fe6  1  0.82382700  0.15790100  0.37844600  1
  Fe  Fe7  1  0.83615700  0.49133700  0.87952300  1
  B  B0  1  0.17212300  0.50310500  0.62674000  1
  B  B1  1  0.17283900  0.82736400  0.12643700  1
  B  B2  1  0.33499000  0.99636400  0.36990000  1
  B  B3  1  0.32903700  0.66729500  0.87394100  1
  B  B4  1  0.64240600  0.99936200  0.62951700  1
  B  B5  1  0.67062500  0.33177100  0.13034900  1
  B  B6  1  0.83808400  0.49889800  0.38119900  1
  B  B7  1  0.82866300  0.16693500  0.88117700  1
  O  O0  1  0.08434800  0.51121500  0.32561100  1
  O  O1  1  0.08521000  0.15515000  0.89356700  1
  O  O2  1  0.22153400  0.79990200  0.83946800  1
  O  O3  1  0.24334700  0.86668500  0.42111100  1
  O  O4  1  0.17428600  0.11416700  0.34884100  1
  O  O5  1  0.17409800  0.55943700  0.93195300  1
  O  O6  1  0.32093900  0.38097600  0.63519400  1
  O  O7  1  0.30141100  0.95433100  0.08616300  1
  O  O8  1  0.26913200  0.63444700  0.57813300  1
  O  O9  1  0.32379600  0.70314600  0.17212500  1
  O  O10  1  0.40984700  0.34872200  0.13623900  1
  O  O11  1  0.39728400  0.01225700  0.68143100  1
  O  O12  1  0.59145900  0.00485200  0.33662600  1
  O  O13  1  0.57981100  0.63425500  0.84636200  1
  O  O14  1  0.72143800  0.29714000  0.82526000  1
  O  O15  1  0.76712800  0.36314200  0.43414600  1
  O  O16  1  0.67825600  0.61578300  0.38700200  1
  O  O17  1  0.66555800  0.06086200  0.92602000  1
  O  O18  1  0.82372800  0.44144800  0.07327600  1
  O  O19  1  0.77309700  0.87016000  0.62701400  1
  O  O20  1  0.75415900  0.12839200  0.57713600  1
  O  O21  1  0.79904700  0.20819900  0.17848800  1
  O  O22  1  0.91985200  0.81384200  0.12469700  1
  O  O23  1  0.91166000  0.50298700  0.67011500  1
loop_
_geom_bond_atom_site_label_1
_geom_bond_atom_site_label_2
_geom_bond_distance
_geom_bond_site_symmetry_2
Li0 O10 2.045992 1_555
Li0 O4 2.049634 1_555
Li0 O21 2.060920 1_455
Li0 O7 2.144137 1_545
Li1 O19 1.905860 1_555
Li1 O13 2.037896 1_555
Li1 O23 2.070420 1_555
Li1 O8 2.187319 1_555
Fe0 O19 1.957192 1_455
Fe0 O11 2.072924 1_565
Fe0 O8 2.120263 1_555
Fe0 O3 2.148195 1_555
Fe0 O2 2.241896 1_555
Fe1 O10 1.944387 1_555
Fe1 O9 1.973054 1_555
Fe1 O18 2.020010 1_455
Fe1 O5 2.035383 1_554
Fe1 O0 2.046983 1_555
Fe2 O1 1.885544 1_555
Fe2 O17 1.931488 1_555
Fe2 O2 1.959199 1_545
Fe2 O11 2.030904 1_555
Fe2 O7 2.153041 1_546
Fe3 O16 1.872202 1_555
Fe3 O3 1.916985 1_555
Fe3 O0 2.014793 1_555
Fe3 O8 2.088113 1_555
Fe3 O9 2.100674 1_555
Fe4 O6 1.877120 1_555
Fe4 O20 1.959155 1_555
Fe4 O14 2.033831 1_555
Fe4 O15 2.057788 1_555
Fe4 O23 2.081749 1_555
Fe5 O22 1.923108 1_555
Fe5 O7 2.081060 1_555
Fe5 O17 2.172136 1_564
Fe5 O12 2.192295 1_565
Fe5 O21 2.240212 1_565
Fe6 O4 1.892270 1_655
Fe6 O12 1.917492 1_555
Fe6 O15 1.974533 1_555
Fe6 O20 2.063801 1_555
Fe6 O21 2.082283 1_555
Fe7 O13 1.884701 1_555
Fe7 O5 1.961209 1_655
Fe7 O14 1.961991 1_555
Fe7 O18 2.016836 1_556
Fe7 O23 2.161148 1_555
B0 O6 1.350684 1_555
B0 O8 1.396645 1_555
B0 O23 1.429760 1_455
B1 O22 1.331758 1_455
B1 O7 1.407782 1_555
B1 O9 1.446173 1_555
B2 O4 1.369668 1_565
B2 O3 1.382728 1_555
B2 O12 1.385293 1_565
B3 O13 1.368697 1_555
B3 O2 1.370093 1_555
B3 O5 1.410731 1_555
B4 O19 1.352413 1_555
B4 O11 1.386984 1_565
B4 O20 1.423343 1_565
B5 O10 1.371446 1_555
B5 O21 1.390558 1_555
B5 O18 1.413070 1_555
B6 O16 1.344699 1_555
B6 O15 1.403246 1_555
B6 O0 1.409766 1_655
B7 O1 1.351199 1_655
B7 O17 1.375884 1_555
B7 O14 1.422139 1_555
