# generated using pymatgen
data_Mg17Al11Pd
_symmetry_space_group_name_H-M   'P 1'
_cell_length_a   9.00170131
_cell_length_b   9.00170131
_cell_length_c   8.96472988
_cell_angle_alpha   70.52901098
_cell_angle_beta   70.52901098
_cell_angle_gamma   109.29198392
_symmetry_Int_Tables_number   1
_chemical_formula_structural   Mg17Al11Pd
_chemical_formula_sum   'Mg17 Al11 Pd1'
_cell_volume   560.43194274
_cell_formula_units_Z   1
loop_
 _symmetry_equiv_pos_site_id
 _symmetry_equiv_pos_as_xyz
  1  'x, y, z'
loop_
 _atom_site_type_symbol
 _atom_site_label
 _atom_site_symmetry_multiplicity
 _atom_site_fract_x
 _atom_site_fract_y
 _atom_site_fract_z
 _atom_site_occupancy
  Mg  Mg0  1  0.31560724  0.31560724  0.29205973  1
  Mg  Mg1  1  0.60924551  0.60924551  0.71482412  1
  Mg  Mg2  1  0.99884728  0.99884728  0.34794720  1
  Mg  Mg3  1  0.99844273  0.99844273  0.99754047  1
  Mg  Mg4  1  0.34767203  0.34767203  0.65467274  1
  Mg  Mg5  1  0.40451616  0.68399173  0.99864548  1
  Mg  Mg6  1  0.68474908  0.99543078  0.60826991  1
  Mg  Mg7  1  0.28524336  0.60043528  0.39804749  1
  Mg  Mg8  1  0.65812801  0.99724943  0.99543709  1
  Mg  Mg9  1  0.31714399  0.71408283  0.68411564  1
  Mg  Mg10  1  0.00046827  0.39812070  0.31607457  1
  Mg  Mg11  1  0.39812070  0.00046827  0.31607457  1
  Mg  Mg12  1  0.71408283  0.31714399  0.68411564  1
  Mg  Mg13  1  0.99724943  0.65812801  0.99543709  1
  Mg  Mg14  1  0.60043528  0.28524336  0.39804749  1
  Mg  Mg15  1  0.99543078  0.68474908  0.60826991  1
  Mg  Mg16  1  0.68399173  0.40451616  0.99864548  1
  Al  Al0  1  0.63853122  0.63853122  0.16684482  1
  Al  Al1  1  0.18505412  0.36565055  0.00177617  1
  Al  Al2  1  0.99447254  0.17653398  0.63823891  1
  Al  Al3  1  0.63259135  0.81714829  0.36469274  1
  Al  Al4  1  0.81448619  0.18004958  0.18536417  1
  Al  Al5  1  0.00090919  0.36644063  0.81282512  1
  Al  Al6  1  0.36644063  0.00090919  0.81282512  1
  Al  Al7  1  0.18004958  0.81448619  0.18536417  1
  Al  Al8  1  0.81714829  0.63259135  0.36469274  1
  Al  Al9  1  0.17653398  0.99447254  0.63823891  1
  Al  Al10  1  0.36565055  0.18505412  0.00177617  1
  Pd  Pd0  1  0.81854393  0.81854393  0.81904934  1
loop_
_geom_bond_atom_site_label_1
_geom_bond_atom_site_label_2
_geom_bond_distance
_geom_bond_site_symmetry_2
Mg0 Mg2 3.038868 1_445
Mg0 Mg7 3.076567 1_555
Mg0 Mg14 3.076567 1_555
Mg0 Mg5 3.095771 1_554
Mg0 Mg16 3.095771 1_554
Mg0 Mg11 3.120438 1_555
Mg0 Mg10 3.120438 1_555
Mg1 Pd0 2.823809 1_555
Mg1 Mg5 3.026145 1_555
Mg1 Mg16 3.026145 1_555
Mg1 Mg15 3.041619 1_555
Mg1 Mg6 3.041619 1_555
Mg1 Mg4 3.067351 1_555
Mg1 Mg9 3.135153 1_555
Mg1 Mg12 3.135153 1_555
Mg1 Mg2 3.451081 1_555
Mg2 Mg6 2.989533 1_555
Mg2 Mg3 3.143731 1_554
Mg3 Mg8 3.066246 1_555
Mg3 Pd0 3.086649 1_555
Mg3 Mg4 3.130394 1_665
Mg4 Mg7 3.000429 1_555
Mg5 Mg8 2.968611 1_555
Mg5 Mg6 3.061259 1_555
Mg5 Mg7 3.105943 1_556
Mg5 Pd0 3.109070 1_555
Mg5 Mg9 3.122906 1_555
Mg6 Pd0 2.887028 1_555
Mg6 Mg9 3.104969 1_555
Mg6 Mg8 3.404479 1_555
Mg7 Mg9 3.122766 1_555
Mg8 Pd0 2.980238 1_555
Mg10 Mg13 3.058833 1_454
Mg10 Mg7 3.080795 1_555
Mg10 Mg12 3.089947 1_455
Mg10 Mg14 3.140048 1_455
Mg10 Mg6 3.158827 1_445
Mg10 Mg5 3.159472 1_554
Mg11 Mg8 3.058833 1_544
Mg11 Mg14 3.080795 1_555
Mg11 Mg9 3.089947 1_545
Mg11 Mg7 3.140048 1_545
Mg11 Mg15 3.158827 1_445
Mg11 Mg16 3.159472 1_554
Mg12 Mg8 3.013583 1_545
Mg12 Mg15 3.104969 1_555
Mg12 Mg14 3.122766 1_555
Mg12 Mg16 3.122906 1_555
Mg12 Mg6 3.137797 1_545
Mg13 Mg16 2.968611 1_555
Mg13 Pd0 2.980238 1_555
Mg13 Mg9 3.013583 1_655
Mg13 Mg3 3.066246 1_555
Mg13 Mg15 3.404479 1_555
Mg14 Mg4 3.000429 1_555
Mg14 Mg16 3.105943 1_554
Mg14 Mg6 3.149252 1_545
Mg15 Pd0 2.887028 1_555
Mg15 Mg2 2.989533 1_555
Mg15 Mg16 3.061259 1_555
Mg15 Mg9 3.137797 1_655
Mg15 Mg7 3.149252 1_655
Mg16 Pd0 3.109070 1_555
Al0 Pd0 2.549794 1_554
Al0 Al8 2.762003 1_555
Al0 Al3 2.762003 1_555
Al0 Mg0 2.868061 1_555
Al0 Mg14 2.989723 1_555
Al0 Mg7 2.989723 1_555
Al0 Mg8 2.992370 1_554
Al0 Mg13 2.992370 1_554
Al0 Mg16 3.025622 1_554
Al0 Mg5 3.025622 1_554
Al0 Mg3 3.131209 1_554
Al1 Al10 2.651777 1_555
Al1 Al4 2.729763 1_455
Al1 Al5 2.736540 1_554
Al1 Mg5 2.878195 1_554
Al1 Mg10 2.921304 1_555
Al1 Mg9 2.947005 1_554
Al1 Mg4 3.050777 1_554
Al1 Mg2 3.063756 1_445
Al1 Mg0 3.156448 1_555
Al1 Mg1 3.188225 1_554
Al1 Mg3 3.194800 1_444
Al2 Pd0 2.637101 1_545
Al2 Al9 2.673288 1_645
Al2 Al5 2.674690 1_655
Al2 Mg6 2.879422 1_545
Al2 Mg10 2.882229 1_655
Al2 Mg0 2.931346 1_655
Al2 Mg8 2.981290 1_545
Al2 Mg3 3.101378 1_545
Al2 Mg4 3.119403 1_655
Al2 Mg12 3.147643 1_555
Al2 Mg7 3.195882 1_655
Al3 Al4 2.673335 1_565
Al3 Al8 2.709931 1_555
Al3 Mg9 2.862015 1_555
Al3 Mg7 2.937488 1_555
Al3 Mg1 2.963632 1_555
Al3 Mg8 3.050875 1_554
Al3 Mg2 3.083937 1_555
Al3 Mg11 3.130986 1_565
Al3 Mg3 3.159737 1_554
Al3 Mg6 3.175829 1_555
Al4 Al5 2.729941 1_654
Al4 Mg14 2.864381 1_555
Al4 Mg10 2.949413 1_655
Al4 Mg16 2.981420 1_554
Al4 Mg2 3.058655 1_545
Al4 Mg8 3.085902 1_544
Al4 Mg11 3.136824 1_555
Al4 Mg3 3.164598 1_544
Al4 Mg6 3.172494 1_545
Al5 Mg15 2.868104 1_455
Al5 Mg9 2.957130 1_555
Al5 Mg16 2.981523 1_455
Al5 Mg4 3.056136 1_555
Al5 Mg8 3.078193 1_445
Al5 Mg7 3.112168 1_555
Al5 Mg12 3.124895 1_455
Al5 Mg3 3.160052 1_445
Al6 Al9 2.674690 1_545
Al6 Al7 2.729941 1_546
Al6 Mg6 2.868104 1_545
Al6 Mg12 2.957130 1_555
Al6 Mg5 2.981523 1_545
Al6 Mg4 3.056136 1_555
Al6 Mg13 3.078193 1_445
Al6 Mg14 3.112168 1_555
Al6 Mg9 3.124895 1_545
Al6 Mg3 3.160052 1_445
Al7 Al8 2.673335 1_455
Al7 Mg7 2.864381 1_555
Al7 Mg11 2.949413 1_565
Al7 Mg5 2.981420 1_554
Al7 Mg2 3.058655 1_455
Al7 Mg13 3.085902 1_454
Al7 Mg10 3.136824 1_555
Al7 Mg3 3.164598 1_454
Al7 Mg15 3.172494 1_455
Al8 Mg12 2.862015 1_555
Al8 Mg14 2.937488 1_555
Al8 Mg1 2.963632 1_555
Al8 Mg13 3.050875 1_554
Al8 Mg2 3.083937 1_555
Al8 Mg10 3.130986 1_655
Al8 Mg3 3.159737 1_554
Al8 Mg15 3.175829 1_555
Al9 Pd0 2.637101 1_455
Al9 Mg15 2.879422 1_455
Al9 Mg11 2.882229 1_565
Al9 Mg0 2.931346 1_565
Al9 Mg13 2.981290 1_455
Al9 Mg3 3.101378 1_455
Al9 Mg4 3.119403 1_565
Al9 Mg9 3.147643 1_555
Al9 Mg14 3.195882 1_565
Al10 Al7 2.729763 1_545
Al10 Al6 2.736540 1_554
Al10 Mg16 2.878195 1_554
Al10 Mg11 2.921304 1_555
Al10 Mg12 2.947005 1_554
Al10 Mg4 3.050777 1_554
Al10 Mg2 3.063756 1_445
Al10 Mg0 3.156448 1_555
Al10 Mg1 3.188225 1_554
Al10 Mg3 3.194800 1_444
