# generated using pymatgen
data_Li16Mn15Fe(PO4)16
_symmetry_space_group_name_H-M   'P 1'
_cell_length_a   24.66398100
_cell_length_b   4.78781100
_cell_length_c   10.56261670
_cell_angle_alpha   89.97917033
_cell_angle_beta   90.00000000
_cell_angle_gamma   90.00000000
_symmetry_Int_Tables_number   1
_chemical_formula_structural   Li16Mn15Fe(PO4)16
_chemical_formula_sum   'Li16 Mn15 Fe1 P16 O64'
_cell_volume   1247.30213813
_cell_formula_units_Z   1
loop_
 _symmetry_equiv_pos_site_id
 _symmetry_equiv_pos_as_xyz
  1  'x, y, z'
loop_
 _atom_site_type_symbol
 _atom_site_label
 _atom_site_symmetry_multiplicity
 _atom_site_fract_x
 _atom_site_fract_y
 _atom_site_fract_z
 _atom_site_occupancy
  Li  Li0  1  0.31252100  0.99998000  0.00001400  1
  Li  Li1  1  0.18751300  0.00001400  0.99998700  1
  Li  Li2  1  0.06250800  0.99999500  0.99999800  1
  Li  Li3  1  0.93749200  0.99999500  0.99999800  1
  Li  Li4  1  0.81248700  0.00001400  0.99998700  1
  Li  Li5  1  0.68747900  0.99998000  0.00001400  1
  Li  Li6  1  0.56241500  0.00034000  0.99969300  1
  Li  Li7  1  0.43758500  0.00034000  0.99969300  1
  Li  Li8  1  0.18750900  0.49999200  0.49998600  1
  Li  Li9  1  0.31259300  0.49988300  0.50008300  1
  Li  Li10  1  0.93749400  0.50000700  0.50000500  1
  Li  Li11  1  0.06250600  0.50000700  0.50000500  1
  Li  Li12  1  0.68740700  0.49988300  0.50008300  1
  Li  Li13  1  0.43769300  0.50044200  0.50021800  1
  Li  Li14  1  0.56230700  0.50044200  0.50021800  1
  Li  Li15  1  0.81249100  0.49999200  0.49998600  1
  Mn  Mn0  1  0.12500300  0.97238400  0.28114500  1
  Mn  Mn1  1  0.87499700  0.97238400  0.28114500  1
  Mn  Mn2  1  0.62489500  0.97236900  0.28126300  1
  Mn  Mn3  1  0.37510500  0.97236900  0.28126300  1
  Mn  Mn4  1  0.87499300  0.52762100  0.78112900  1
  Mn  Mn5  1  0.62472500  0.52763300  0.78098800  1
  Mn  Mn6  1  0.12500700  0.52762100  0.78112900  1
  Mn  Mn7  1  0.37527500  0.52763300  0.78098800  1
  Mn  Mn8  1  0.25000900  0.47239900  0.21886200  1
  Mn  Mn9  1  0.74999100  0.47239900  0.21886200  1
  Mn  Mn10  1  0.00000000  0.47248900  0.21885600  1
  Mn  Mn11  1  0.50000000  0.47263000  0.21907300  1
  Mn  Mn12  1  0.25011100  0.02769600  0.71883500  1
  Mn  Mn13  1  0.74988900  0.02769600  0.71883500  1
  Mn  Mn14  1  0.00000000  0.02759400  0.71884400  1
  Fe  Fe0  1  0.50000000  0.02590900  0.71940600  1
  P  P0  1  0.25001100  0.90930200  0.40806200  1
  P  P1  1  0.00000000  0.90930200  0.40807800  1
  P  P2  1  0.74998900  0.90930200  0.40806200  1
  P  P3  1  0.50000000  0.91030700  0.40870200  1
  P  P4  1  0.25000600  0.59075100  0.90809100  1
  P  P5  1  0.00000000  0.59068800  0.90806200  1
  P  P6  1  0.50000000  0.59133700  0.90674700  1
  P  P7  1  0.74999400  0.59075100  0.90809100  1
  P  P8  1  0.87500300  0.40931300  0.09190800  1
  P  P9  1  0.12499700  0.40931300  0.09190800  1
  P  P10  1  0.62498500  0.40942000  0.09197800  1
  P  P11  1  0.37501500  0.40942000  0.09197800  1
  P  P12  1  0.12500000  0.09070100  0.59192700  1
  P  P13  1  0.62449400  0.08975000  0.59212600  1
  P  P14  1  0.87500000  0.09070100  0.59192700  1
  P  P15  1  0.37550600  0.08975000  0.59212600  1
  O  O0  1  0.24999600  0.78756700  0.54477000  1
  O  O1  1  0.00000000  0.78750000  0.54472400  1
  O  O2  1  0.75000400  0.78756700  0.54477000  1
  O  O3  1  0.50000000  0.79020700  0.54587400  1
  O  O4  1  0.30018900  0.77664100  0.33884400  1
  O  O5  1  0.19981600  0.77651200  0.33885600  1
  O  O6  1  0.05018800  0.77650500  0.33884300  1
  O  O7  1  0.94981200  0.77650500  0.33884300  1
  O  O8  1  0.80018400  0.77651200  0.33885600  1
  O  O9  1  0.69981100  0.77664100  0.33884400  1
  O  O10  1  0.55010800  0.77658900  0.33934700  1
  O  O11  1  0.44989200  0.77658900  0.33934700  1
  O  O12  1  0.37498100  0.76844300  0.59585200  1
  O  O13  1  0.12499000  0.76943700  0.59597100  1
  O  O14  1  0.87501000  0.76943700  0.59597100  1
  O  O15  1  0.62501900  0.76844300  0.59585200  1
  O  O16  1  0.12499100  0.73058400  0.09593100  1
  O  O17  1  0.62500900  0.73062500  0.09597100  1
  O  O18  1  0.37499100  0.73062500  0.09597100  1
  O  O19  1  0.87500900  0.73058400  0.09593100  1
  O  O20  1  0.30020800  0.72343900  0.83875800  1
  O  O21  1  0.19981300  0.72354200  0.83881400  1
  O  O22  1  0.80018700  0.72354200  0.83881400  1
  O  O23  1  0.94980900  0.72351800  0.83881100  1
  O  O24  1  0.05019100  0.72351800  0.83881100  1
  O  O25  1  0.69979200  0.72343900  0.83875800  1
  O  O26  1  0.55005700  0.72693900  0.83755900  1
  O  O27  1  0.44994300  0.72693900  0.83755900  1
  O  O28  1  0.24999100  0.71243600  0.04466100  1
  O  O29  1  0.00000000  0.71242400  0.04467600  1
  O  O30  1  0.50000000  0.71097500  0.04378000  1
  O  O31  1  0.75000900  0.71243600  0.04466100  1
  O  O32  1  0.12498900  0.28755000  0.95530700  1
  O  O33  1  0.87501100  0.28755000  0.95530700  1
  O  O34  1  0.62497500  0.28796100  0.95519900  1
  O  O35  1  0.37502500  0.28796100  0.95519900  1
  O  O36  1  0.17517800  0.27652400  0.16118100  1
  O  O37  1  0.07480000  0.27653900  0.16117300  1
  O  O38  1  0.92520000  0.27653900  0.16117300  1
  O  O39  1  0.67519000  0.27646700  0.16115300  1
  O  O40  1  0.57483400  0.27649000  0.16118600  1
  O  O41  1  0.42516600  0.27649000  0.16118600  1
  O  O42  1  0.32481000  0.27646700  0.16115300  1
  O  O43  1  0.82482200  0.27652400  0.16118100  1
  O  O44  1  0.24998600  0.26942400  0.90401300  1
  O  O45  1  0.00000000  0.26945000  0.90402100  1
  O  O46  1  0.75001400  0.26942400  0.90401300  1
  O  O47  1  0.50000000  0.26978800  0.90292100  1
  O  O48  1  0.24999600  0.23056800  0.40408400  1
  O  O49  1  0.75000400  0.23056800  0.40408400  1
  O  O50  1  0.00000000  0.23053700  0.40402900  1
  O  O51  1  0.50000000  0.23133800  0.40370500  1
  O  O52  1  0.17519900  0.22342300  0.66118700  1
  O  O53  1  0.07481000  0.22345400  0.66118100  1
  O  O54  1  0.92519000  0.22345400  0.66118100  1
  O  O55  1  0.32543200  0.22360500  0.66155100  1
  O  O56  1  0.57379600  0.21883100  0.66162900  1
  O  O57  1  0.67456800  0.22360500  0.66155100  1
  O  O58  1  0.42620400  0.21883100  0.66162900  1
  O  O59  1  0.82480100  0.22342300  0.66118700  1
  O  O60  1  0.12499300  0.21252800  0.45531000  1
  O  O61  1  0.87500700  0.21252800  0.45531000  1
  O  O62  1  0.62473500  0.21263000  0.45581000  1
  O  O63  1  0.37526500  0.21263000  0.45581000  1
loop_
_geom_bond_atom_site_label_1
_geom_bond_atom_site_label_2
_geom_bond_distance
_geom_bond_site_symmetry_2
Li0 O28 2.120317 1_555
Li0 O35 2.121605 1_564
Li0 O42 2.177806 1_565
Li0 O20 2.179012 1_554
Li0 O18 2.250202 1_555
Li0 O44 2.251753 1_564
Li1 O28 2.119554 1_546
Li1 O32 2.120262 1_555
Li1 O21 2.178081 1_545
Li1 O36 2.178485 1_556
Li1 O44 2.250484 1_555
Li1 O16 2.251224 1_546
Li2 O32 2.119576 1_565
Li2 O29 2.120079 1_556
Li2 O24 2.178269 1_555
Li2 O37 2.178279 1_566
Li2 O16 2.250461 1_556
Li2 O45 2.251213 1_565
Li3 O33 2.119576 1_565
Li3 O29 2.120079 1_656
Li3 O23 2.178269 1_555
Li3 O38 2.178279 1_566
Li3 O19 2.250461 1_556
Li3 O45 2.251213 1_665
Li4 O31 2.119554 1_546
Li4 O33 2.120262 1_555
Li4 O22 2.178081 1_545
Li4 O43 2.178485 1_556
Li4 O46 2.250484 1_555
Li4 O19 2.251224 1_546
Li5 O31 2.120317 1_555
Li5 O34 2.121605 1_564
Li5 O39 2.177806 1_565
Li5 O25 2.179012 1_554
Li5 O17 2.250202 1_555
Li5 O46 2.251753 1_564
Li6 O34 2.120736 1_555
Li6 O30 2.122627 1_546
Li6 O26 2.177350 1_545
Li6 O40 2.180199 1_556
Li6 O47 2.253418 1_555
Li6 O17 2.254810 1_546
Li7 O35 2.120736 1_555
Li7 O30 2.122627 1_546
Li7 O27 2.177350 1_545
Li7 O41 2.180199 1_556
Li7 O47 2.253418 1_555
Li7 O18 2.254810 1_546
Li8 O60 2.120108 1_555
Li8 O0 2.120188 1_555
Li8 O5 2.177137 1_555
Li8 O52 2.177876 1_555
Li8 O48 2.250839 1_555
Li8 O13 2.251832 1_555
Li9 O63 2.121310 1_555
Li9 O0 2.122271 1_555
Li9 O4 2.179064 1_555
Li9 O55 2.181091 1_555
Li9 O12 2.246164 1_555
Li9 O48 2.252860 1_555
Li10 O61 2.119679 1_555
Li10 O1 2.120120 1_655
Li10 O7 2.177375 1_555
Li10 O54 2.177602 1_555
Li10 O14 2.251109 1_555
Li10 O50 2.251638 1_655
Li11 O60 2.119679 1_555
Li11 O1 2.120120 1_555
Li11 O6 2.177375 1_555
Li11 O53 2.177602 1_555
Li11 O13 2.251109 1_555
Li11 O50 2.251638 1_555
Li12 O62 2.121310 1_555
Li12 O2 2.122271 1_555
Li12 O9 2.179064 1_555
Li12 O57 2.181091 1_555
Li12 O15 2.246164 1_555
Li12 O49 2.252860 1_555
Li13 O63 2.118984 1_555
Li13 O3 2.125871 1_555
Li13 O11 2.173543 1_555
Li13 O58 2.191643 1_555
Li13 O12 2.249477 1_555
Li13 O51 2.249840 1_555
Li14 O62 2.118984 1_555
Li14 O3 2.125871 1_555
Li14 O10 2.173543 1_555
Li14 O56 2.191643 1_555
Li14 O15 2.249477 1_555
Li14 O51 2.249840 1_555
Li15 O61 2.120108 1_555
Li15 O2 2.120188 1_555
Li15 O8 2.177137 1_555
Li15 O59 2.177876 1_555
Li15 O49 2.250839 1_555
Li15 O14 2.251832 1_555
Mn0 O5 2.157626 1_555
Mn0 O6 2.157644 1_555
Mn0 O60 2.169738 1_565
Mn0 O16 2.273584 1_555
Mn0 O36 2.292629 1_565
Mn0 O37 2.293094 1_565
Mn1 O8 2.157626 1_555
Mn1 O7 2.157644 1_555
Mn1 O61 2.169738 1_565
Mn1 O19 2.273584 1_555
Mn1 O43 2.292629 1_565
Mn1 O38 2.293094 1_565
Mn2 O10 2.158002 1_555
Mn2 O9 2.159113 1_555
Mn2 O62 2.173461 1_565
Mn2 O17 2.274158 1_555
Mn2 O40 2.291715 1_565
Mn2 O39 2.294952 1_565
Mn3 O11 2.158002 1_555
Mn3 O4 2.159113 1_555
Mn3 O63 2.173461 1_565
Mn3 O18 2.274158 1_555
Mn3 O41 2.291715 1_565
Mn3 O42 2.294952 1_565
Mn4 O22 2.157695 1_555
Mn4 O23 2.157847 1_555
Mn4 O33 2.168961 1_555
Mn4 O14 2.272389 1_555
Mn4 O59 2.293488 1_555
Mn4 O54 2.293495 1_555
Mn5 O26 2.158603 1_555
Mn5 O25 2.163217 1_555
Mn5 O34 2.168254 1_555
Mn5 O15 2.269752 1_555
Mn5 O57 2.285385 1_555
Mn5 O56 2.313993 1_555
Mn6 O21 2.157695 1_555
Mn6 O24 2.157847 1_555
Mn6 O32 2.168961 1_555
Mn6 O13 2.272389 1_555
Mn6 O52 2.293488 1_555
Mn6 O53 2.293495 1_555
Mn7 O27 2.158603 1_555
Mn7 O20 2.163217 1_555
Mn7 O35 2.168254 1_555
Mn7 O12 2.269752 1_555
Mn7 O55 2.285385 1_555
Mn7 O58 2.313993 1_555
Mn8 O42 2.157684 1_555
Mn8 O36 2.158115 1_555
Mn8 O28 2.169080 1_555
Mn8 O48 2.273008 1_555
Mn8 O5 2.293546 1_555
Mn8 O4 2.293696 1_555
Mn9 O39 2.157684 1_555
Mn9 O43 2.158115 1_555
Mn9 O31 2.169080 1_555
Mn9 O49 2.273008 1_555
Mn9 O8 2.293546 1_555
Mn9 O9 2.293696 1_555
Mn10 O38 2.157623 1_455
Mn10 O37 2.157623 1_555
Mn10 O29 2.168634 1_555
Mn10 O50 2.272857 1_555
Mn10 O6 2.293144 1_555
Mn10 O7 2.293144 1_455
Mn11 O40 2.159345 1_555
Mn11 O41 2.159345 1_555
Mn11 O30 2.174612 1_555
Mn11 O51 2.266331 1_555
Mn11 O10 2.293585 1_555
Mn11 O11 2.293585 1_555
Mn12 O52 2.159225 1_555
Mn12 O55 2.167164 1_555
Mn12 O0 2.168806 1_545
Mn12 O44 2.273083 1_555
Mn12 O20 2.291707 1_545
Mn12 O21 2.294398 1_545
Mn13 O59 2.159225 1_555
Mn13 O57 2.167164 1_555
Mn13 O2 2.168806 1_545
Mn13 O46 2.273083 1_555
Mn13 O25 2.291707 1_545
Mn13 O22 2.294398 1_545
Mn14 O54 2.157394 1_455
Mn14 O53 2.157394 1_555
Mn14 O1 2.169208 1_545
Mn14 O45 2.273384 1_555
Mn14 O24 2.292665 1_545
Mn14 O23 2.292665 1_445
Fe0 O56 2.130253 1_555
Fe0 O58 2.130253 1_555
Fe0 O3 2.152840 1_545
Fe0 O47 2.263279 1_555
Fe0 O27 2.264819 1_545
Fe0 O26 2.264819 1_545
O0 P0 1.556989 1_555
O1 P1 1.556502 1_555
O2 P2 1.556989 1_555
O3 P3 1.558632 1_555
O4 P0 1.571601 1_555
O5 P0 1.572122 1_555
O6 P1 1.572142 1_555
O7 P1 1.572142 1_655
O8 P2 1.572122 1_555
O9 P2 1.571601 1_555
O10 P3 1.572970 1_555
O11 P3 1.572970 1_555
O12 P15 1.538901 1_565
O13 P12 1.538729 1_565
O14 P14 1.538729 1_565
O15 P13 1.538901 1_565
O16 P9 1.538787 1_555
O17 P10 1.538463 1_555
O18 P11 1.538463 1_555
O19 P8 1.538787 1_555
O20 P4 1.572469 1_555
O21 P4 1.572219 1_555
O22 P7 1.572219 1_555
O23 P5 1.572128 1_655
O24 P5 1.572128 1_555
O25 P7 1.572469 1_555
O26 P6 1.574640 1_555
O27 P6 1.574640 1_555
O28 P4 1.555941 1_554
O29 P5 1.556463 1_554
O30 P6 1.556841 1_554
O31 P7 1.555941 1_554
O32 P9 1.556384 1_556
O33 P8 1.556384 1_556
O34 P10 1.557583 1_556
O35 P11 1.557583 1_556
O36 P9 1.571962 1_555
O37 P9 1.572204 1_555
O38 P8 1.572204 1_555
O39 P10 1.572265 1_555
O40 P10 1.571333 1_555
O41 P11 1.571333 1_555
O42 P11 1.572265 1_555
O43 P8 1.571962 1_555
O44 P4 1.539072 1_555
O45 P5 1.538635 1_555
O46 P7 1.539072 1_555
O47 P6 1.540061 1_555
O48 P0 1.538719 1_545
O49 P2 1.538719 1_545
O50 P1 1.538591 1_545
O51 P3 1.537923 1_545
O52 P12 1.572333 1_555
O53 P12 1.572189 1_555
O54 P14 1.572189 1_555
O55 P15 1.572923 1_555
O56 P13 1.576313 1_555
O57 P13 1.572923 1_555
O58 P15 1.576313 1_555
O59 P14 1.572333 1_555
O60 P12 1.556263 1_555
O61 P14 1.556263 1_555
O62 P13 1.555225 1_555
O63 P15 1.555225 1_555
