# generated using pymatgen
data_Lu5Ni19B6
_symmetry_space_group_name_H-M   'P 1'
_cell_length_a   4.91599787
_cell_length_b   4.91599787
_cell_length_c   16.97113600
_cell_angle_alpha   90.00000000
_cell_angle_beta   90.00000000
_cell_angle_gamma   119.99999822
_symmetry_Int_Tables_number   1
_chemical_formula_structural   Lu5Ni19B6
_chemical_formula_sum   'Lu5 Ni19 B6'
_cell_volume   355.19343068
_cell_formula_units_Z   1
loop_
 _symmetry_equiv_pos_site_id
 _symmetry_equiv_pos_as_xyz
  1  'x, y, z'
loop_
 _atom_site_type_symbol
 _atom_site_label
 _atom_site_symmetry_multiplicity
 _atom_site_fract_x
 _atom_site_fract_y
 _atom_site_fract_z
 _atom_site_occupancy
  Lu  Lu0  1  0.00000000  0.00000000  0.70197100  1
  Lu  Lu1  1  0.00000000  0.00000000  0.29802900  1
  Lu  Lu2  1  0.00000000  0.00000000  0.90372200  1
  Lu  Lu3  1  0.00000000  0.00000000  0.09627800  1
  Lu  Lu4  1  0.00000000  0.00000000  0.50000000  1
  Ni  Ni0  1  0.50000000  0.50000000  0.00000000  1
  Ni  Ni1  1  0.00000000  0.50000000  0.00000000  1
  Ni  Ni2  1  0.33333300  0.66666700  0.29541500  1
  Ni  Ni3  1  0.66666700  0.33333300  0.29541500  1
  Ni  Ni4  1  0.66666700  0.33333300  0.70458500  1
  Ni  Ni5  1  0.33333300  0.66666700  0.70458500  1
  Ni  Ni6  1  0.50000000  0.00000000  0.17676000  1
  Ni  Ni7  1  0.50000000  0.50000000  0.17676000  1
  Ni  Ni8  1  0.00000000  0.50000000  0.17676000  1
  Ni  Ni9  1  0.50000000  0.00000000  0.82324000  1
  Ni  Ni10  1  0.50000000  0.50000000  0.82324000  1
  Ni  Ni11  1  0.00000000  0.50000000  0.82324000  1
  Ni  Ni12  1  0.50000000  0.00000000  0.41470700  1
  Ni  Ni13  1  0.50000000  0.50000000  0.41470700  1
  Ni  Ni14  1  0.00000000  0.50000000  0.41470700  1
  Ni  Ni15  1  0.50000000  0.00000000  0.58529300  1
  Ni  Ni16  1  0.50000000  0.50000000  0.58529300  1
  Ni  Ni17  1  0.00000000  0.50000000  0.58529300  1
  Ni  Ni18  1  0.50000000  0.00000000  0.00000000  1
  B  B0  1  0.33333300  0.66666700  0.90933100  1
  B  B1  1  0.66666700  0.33333300  0.90933100  1
  B  B2  1  0.66666700  0.33333300  0.09066900  1
  B  B3  1  0.33333300  0.66666700  0.09066900  1
  B  B4  1  0.66666700  0.33333300  0.50000000  1
  B  B5  1  0.33333300  0.66666700  0.50000000  1
loop_
_geom_bond_atom_site_label_1
_geom_bond_atom_site_label_2
_geom_bond_distance
_geom_bond_site_symmetry_2
Lu0 Ni4 2.838597 1_455
Lu0 Ni5 2.838597 1_545
Lu0 Ni5 2.838601 1_555
Lu0 Ni4 2.838601 1_445
Lu0 Ni4 2.838601 1_555
Lu0 Ni5 2.838601 1_445
Lu1 Ni3 2.838597 1_455
Lu1 Ni2 2.838597 1_545
Lu1 Ni2 2.838601 1_445
Lu1 Ni3 2.838601 1_445
Lu1 Ni3 2.838601 1_555
Lu1 Ni2 2.838601 1_555
Lu2 Ni9 2.812003 1_555
Lu2 Ni9 2.812003 1_455
Lu2 Ni11 2.812003 1_555
Lu2 Ni11 2.812003 1_545
Lu2 Ni10 2.812003 1_555
Lu2 Ni10 2.812003 1_445
Lu2 Ni18 2.951532 1_456
Lu2 Ni1 2.951532 1_556
Lu2 Ni18 2.951532 1_556
Lu2 Ni1 2.951532 1_546
Lu2 Ni0 2.951532 1_446
Lu2 Ni0 2.951532 1_556
Lu3 Ni8 2.812003 1_555
Lu3 Ni6 2.812003 1_455
Lu3 Ni8 2.812003 1_545
Lu3 Ni6 2.812003 1_555
Lu3 Ni7 2.812003 1_445
Lu3 Ni7 2.812003 1_555
Lu3 Ni1 2.951532 1_545
Lu3 Ni18 2.951532 1_455
Lu3 Ni18 2.951532 1_555
Lu3 Ni1 2.951532 1_555
Lu3 Ni0 2.951532 1_445
Lu3 Ni0 2.951532 1_555
Lu4 Ni17 2.852555 1_545
Lu4 Ni15 2.852555 1_555
Lu4 Ni15 2.852555 1_455
Lu4 Ni17 2.852555 1_555
Lu4 Ni12 2.852555 1_555
Lu4 Ni12 2.852555 1_455
Lu4 Ni14 2.852555 1_545
Lu4 Ni14 2.852555 1_555
Lu4 Ni16 2.852555 1_445
Lu4 Ni16 2.852555 1_555
Lu4 Ni13 2.852555 1_445
Lu4 Ni13 2.852555 1_555
Ni2 Ni8 2.463523 1_555
Ni2 Ni6 2.463523 1_565
Ni2 Ni7 2.463525 1_555
Ni2 Ni3 2.838250 1_455
Ni2 Ni3 2.838250 1_565
Ni2 Ni3 2.838258 1_555
Ni3 Ni8 2.463523 1_655
Ni3 Ni6 2.463523 1_555
Ni3 Ni7 2.463525 1_555
Ni4 Ni9 2.463523 1_555
Ni4 Ni5 2.838250 1_545
Ni4 Ni5 2.838250 1_655
Ni4 Ni5 2.838258 1_555
Ni5 Ni9 2.463523 1_565
Ni10 Ni5 2.463525 1_555
Ni10 Ni4 2.463525 1_555
Ni11 Ni4 2.463523 1_455
Ni11 Ni5 2.463523 1_555
Ni12 Ni2 2.472367 1_545
Ni12 Ni3 2.472367 1_555
Ni13 Ni3 2.472370 1_555
Ni13 Ni2 2.472370 1_555
Ni14 Ni3 2.472367 1_455
Ni14 Ni2 2.472367 1_555
Ni15 Ni4 2.472367 1_555
Ni15 Ni5 2.472367 1_545
Ni16 Ni5 2.472370 1_555
Ni16 Ni4 2.472370 1_555
Ni17 Ni4 2.472367 1_455
Ni17 Ni5 2.472367 1_555
B0 Ni11 2.036816 1_555
B0 Ni9 2.036816 1_565
B0 Ni10 2.036819 1_555
B0 Ni18 2.093248 1_566
B0 Ni1 2.093248 1_556
B0 Ni0 2.093250 1_556
B0 Lu2 2.839846 1_565
B0 Lu2 2.839850 1_555
B0 Lu2 2.839850 1_665
B1 Ni11 2.036816 1_655
B1 Ni9 2.036816 1_555
B1 Ni10 2.036819 1_555
B1 Ni1 2.093248 1_656
B1 Ni18 2.093248 1_556
B1 Ni0 2.093250 1_556
B1 Lu2 2.839846 1_655
B1 Lu2 2.839850 1_555
B1 Lu2 2.839850 1_665
B2 Ni8 2.036816 1_655
B2 Ni6 2.036816 1_555
B2 Ni7 2.036819 1_555
B2 Ni18 2.093248 1_555
B2 Ni1 2.093248 1_655
B2 Ni0 2.093250 1_555
B2 Lu3 2.839846 1_655
B2 Lu3 2.839850 1_665
B2 Lu3 2.839850 1_555
B3 Ni8 2.036816 1_555
B3 Ni6 2.036816 1_565
B3 Ni7 2.036819 1_555
B3 Ni18 2.093248 1_565
B3 Ni1 2.093248 1_555
B3 Ni0 2.093250 1_555
B3 Lu3 2.839846 1_565
B3 Lu3 2.839850 1_665
B3 Lu3 2.839850 1_555
B4 Ni17 2.027123 1_655
B4 Ni15 2.027123 1_555
B4 Ni12 2.027123 1_555
B4 Ni14 2.027123 1_655
B4 Ni16 2.027126 1_555
B4 Ni13 2.027126 1_555
B4 Lu4 2.838250 1_655
B4 Lu4 2.838254 1_665
B4 Lu4 2.838254 1_555
B5 Ni17 2.027123 1_555
B5 Ni15 2.027123 1_565
B5 Ni14 2.027123 1_555
B5 Ni12 2.027123 1_565
B5 Ni16 2.027126 1_555
B5 Ni13 2.027126 1_555
B5 Lu4 2.838250 1_565
B5 Lu4 2.838254 1_665
B5 Lu4 2.838254 1_555
