# generated using pymatgen
data_Na3AsSe3
_symmetry_space_group_name_H-M   'P 1'
_cell_length_a   8.88473564
_cell_length_b   8.88473564
_cell_length_c   8.88473564
_cell_angle_alpha   90.00000000
_cell_angle_beta   90.00000000
_cell_angle_gamma   90.00000000
_symmetry_Int_Tables_number   1
_chemical_formula_structural   Na3AsSe3
_chemical_formula_sum   'Na12 As4 Se12'
_cell_volume   701.34794769
_cell_formula_units_Z   4
loop_
 _symmetry_equiv_pos_site_id
 _symmetry_equiv_pos_as_xyz
  1  'x, y, z'
loop_
 _atom_site_type_symbol
 _atom_site_label
 _atom_site_symmetry_multiplicity
 _atom_site_fract_x
 _atom_site_fract_y
 _atom_site_fract_z
 _atom_site_occupancy
  Na  Na0  1  0.82169073  0.17830927  0.67830927  1
  Na  Na1  1  0.67830927  0.82169073  0.17830927  1
  Na  Na2  1  0.17830927  0.67830927  0.82169073  1
  Na  Na3  1  0.32169073  0.32169073  0.32169073  1
  Na  Na4  1  0.18550575  0.31449425  0.68550575  1
  Na  Na5  1  0.31449425  0.68550575  0.18550575  1
  Na  Na6  1  0.68550575  0.18550575  0.31449425  1
  Na  Na7  1  0.81449425  0.81449425  0.81449425  1
  Na  Na8  1  0.41507675  0.08492325  0.91507675  1
  Na  Na9  1  0.08492325  0.91507675  0.41507675  1
  Na  Na10  1  0.91507675  0.41507675  0.08492325  1
  Na  Na11  1  0.58492325  0.58492325  0.58492325  1
  As  As0  1  0.02839625  0.02839625  0.02839625  1
  As  As1  1  0.47160375  0.97160375  0.52839625  1
  As  As2  1  0.97160375  0.52839625  0.47160375  1
  As  As3  1  0.52839625  0.47160375  0.97160375  1
  Se  Se0  1  0.27145050  0.39014846  0.99973317  1
  Se  Se1  1  0.77145050  0.10985154  0.00026683  1
  Se  Se2  1  0.72854950  0.89014846  0.50026683  1
  Se  Se3  1  0.10985154  0.00026683  0.77145050  1
  Se  Se4  1  0.50026683  0.72854950  0.89014846  1
  Se  Se5  1  0.00026683  0.77145050  0.10985154  1
  Se  Se6  1  0.39014846  0.99973317  0.27145050  1
  Se  Se7  1  0.99973317  0.27145050  0.39014846  1
  Se  Se8  1  0.89014846  0.50026683  0.72854950  1
  Se  Se9  1  0.60985154  0.49973317  0.22854950  1
  Se  Se10  1  0.49973317  0.22854950  0.60985154  1
  Se  Se11  1  0.22854950  0.60985154  0.49973317  1
loop_
_geom_bond_atom_site_label_1
_geom_bond_atom_site_label_2
_geom_bond_distance
_geom_bond_site_symmetry_2
Na0 Se10 2.958326 1_555
Na0 Se8 2.958326 1_555
Na0 Se1 2.958326 1_556
Na0 Se3 3.121200 1_655
Na0 Se2 3.121200 1_545
Na0 Se7 3.121200 1_555
Na1 Se9 2.958326 1_555
Na1 Se2 2.958326 1_555
Na1 Se5 2.958326 1_655
Na1 Se1 3.121200 1_565
Na1 Se4 3.121200 1_554
Na1 Se6 3.121200 1_555
Na2 Se4 2.958326 1_555
Na2 Se11 2.958326 1_555
Na2 Se3 2.958326 1_565
Na2 Se5 3.121200 1_556
Na2 Se0 3.121200 1_555
Na2 Se8 3.121200 1_455
Na3 Se0 2.958326 1_554
Na3 Se6 2.958326 1_545
Na3 Se7 2.958326 1_455
Na3 Se11 3.121200 1_555
Na3 Se9 3.121200 1_555
Na3 Se10 3.121200 1_555
Na4 Se3 2.971395 1_555
Na4 Se0 2.971395 1_555
Na4 Se10 2.971395 1_555
Na4 Se7 3.123590 1_455
Na4 Se11 3.123590 1_555
Na4 Se8 3.123590 1_455
Na5 Se5 2.971395 1_555
Na5 Se6 2.971395 1_555
Na5 Se11 2.971395 1_555
Na5 Se0 3.123590 1_554
Na5 Se4 3.123590 1_554
Na5 Se9 3.123590 1_555
Na6 Se1 2.971395 1_555
Na6 Se9 2.971395 1_555
Na6 Se7 2.971395 1_555
Na6 Se2 3.123590 1_545
Na6 Se6 3.123590 1_545
Na6 Se10 3.123590 1_555
Na7 Se2 2.971395 1_555
Na7 Se4 2.971395 1_555
Na7 Se8 2.971395 1_555
Na7 Se5 3.123590 1_656
Na7 Se3 3.123590 1_665
Na7 Se1 3.123590 1_566
Na8 Se10 3.090019 1_555
Na8 Se0 3.090019 1_555
Na8 Se3 3.090019 1_555
Na8 Se1 3.263021 1_556
Na8 Se6 3.263021 1_546
Na8 Se4 3.263021 1_545
Na9 Se6 3.090019 1_555
Na9 Se11 3.090019 1_555
Na9 Se5 3.090019 1_555
Na9 Se3 3.263021 1_565
Na9 Se7 3.263021 1_465
Na9 Se2 3.263021 1_455
Na10 Se9 3.090019 1_555
Na10 Se7 3.090019 1_555
Na10 Se1 3.090019 1_555
Na10 Se5 3.263021 1_655
Na10 Se0 3.263021 1_654
Na10 Se8 3.263021 1_554
Na11 Se8 3.090019 1_555
Na11 Se2 3.090019 1_555
Na11 Se4 3.090019 1_555
Na11 Se9 3.263021 1_555
Na11 Se10 3.263021 1_555
Na11 Se11 3.263021 1_555
As0 Se3 2.407867 1_554
As0 Se1 2.407867 1_455
As0 Se5 2.407867 1_545
As1 Se10 2.407867 1_565
As1 Se2 2.407867 1_555
As1 Se6 2.407867 1_555
As2 Se11 2.407867 1_655
As2 Se8 2.407867 1_555
As2 Se7 2.407867 1_555
As3 Se4 2.407867 1_555
As3 Se9 2.407867 1_556
As3 Se0 2.407867 1_555
