# generated using pymatgen
data_Li3VPCO7
_symmetry_space_group_name_H-M   'P 1'
_cell_length_a   4.98557300
_cell_length_b   8.51075496
_cell_length_c   13.24247694
_cell_angle_alpha   89.11612858
_cell_angle_beta   89.66231039
_cell_angle_gamma   85.07392818
_symmetry_Int_Tables_number   1
_chemical_formula_structural   Li3VPCO7
_chemical_formula_sum   'Li12 V4 P4 C4 O28'
_cell_volume   559.74346656
_cell_formula_units_Z   4
loop_
 _symmetry_equiv_pos_site_id
 _symmetry_equiv_pos_as_xyz
  1  'x, y, z'
loop_
 _atom_site_type_symbol
 _atom_site_label
 _atom_site_symmetry_multiplicity
 _atom_site_fract_x
 _atom_site_fract_y
 _atom_site_fract_z
 _atom_site_occupancy
  Li  Li0  1  0.77240700  0.09707600  0.87235300  1
  Li  Li1  1  0.77392400  0.10090600  0.36992300  1
  Li  Li2  1  0.24844300  0.28099500  0.48099700  1
  Li  Li3  1  0.25401400  0.27749500  0.75783800  1
  Li  Li4  1  0.23379200  0.28701700  0.26394600  1
  Li  Li5  1  0.77479900  0.35325700  0.13368700  1
  Li  Li6  1  0.75351600  0.71774500  0.02197900  1
  Li  Li7  1  0.75037200  0.71594900  0.73268300  1
  Li  Li8  1  0.74519600  0.72072000  0.50941400  1
  Li  Li9  1  0.74975900  0.71708500  0.23483500  1
  Li  Li10  1  0.22558500  0.90103600  0.62238800  1
  Li  Li11  1  0.23548500  0.89496400  0.13003000  1
  V  V0  1  0.24329500  0.25985400  0.00755200  1
  V  V1  1  0.79044800  0.32789000  0.62440900  1
  V  V2  1  0.20542300  0.66952500  0.87515900  1
  V  V3  1  0.20723700  0.67121600  0.37479100  1
  P  P0  1  0.72123200  0.41024200  0.87709600  1
  P  P1  1  0.72090100  0.40908100  0.37304100  1
  P  P2  1  0.27839200  0.58921900  0.62508300  1
  P  P3  1  0.27923700  0.58857800  0.12586100  1
  C  C0  1  0.69159300  0.03451200  0.62629400  1
  C  C1  1  0.71633400  0.04117900  0.11730000  1
  C  C2  1  0.30719000  0.96522400  0.37497500  1
  C  C3  1  0.30506400  0.96221200  0.87439600  1
  O  O0  1  0.96756900  0.06895000  0.11293500  1
  O  O1  1  0.93860400  0.07259100  0.62710500  1
  O  O2  1  0.36154700  0.10967000  0.87772000  1
  O  O3  1  0.36417100  0.11035800  0.37385700  1
  O  O4  1  0.49930100  0.14856200  0.62750000  1
  O  O5  1  0.52979000  0.15757500  0.11561600  1
  O  O6  1  0.82768400  0.30689600  0.46576000  1
  O  O7  1  0.83304100  0.31268800  0.96925000  1
  O  O8  1  0.81379200  0.30703300  0.78506200  1
  O  O9  1  0.82016700  0.30916000  0.28165900  1
  O  O10  1  0.17609500  0.42287400  0.62755100  1
  O  O11  1  0.17380600  0.42234500  0.12983200  1
  O  O12  1  0.40536200  0.43156100  0.37613000  1
  O  O13  1  0.40386700  0.42597300  0.88508100  1
  O  O14  1  0.59303200  0.56822600  0.62444700  1
  O  O15  1  0.59113700  0.57355000  0.12476400  1
  O  O16  1  0.81617500  0.57787300  0.87085500  1
  O  O17  1  0.82216500  0.57642500  0.37365100  1
  O  O18  1  0.17168600  0.69234600  0.53379500  1
  O  O19  1  0.17519100  0.69161900  0.71616400  1
  O  O20  1  0.17019500  0.69152100  0.21580000  1
  O  O21  1  0.16700900  0.68914100  0.03342700  1
  O  O22  1  0.49812900  0.85085100  0.87244900  1
  O  O23  1  0.49874100  0.85021900  0.37685500  1
  O  O24  1  0.63506100  0.88882400  0.62441200  1
  O  O25  1  0.64480000  0.89689900  0.12533600  1
  O  O26  1  0.05858100  0.92602700  0.87317400  1
  O  O27  1  0.05966000  0.92726400  0.37377900  1
loop_
_geom_bond_atom_site_label_1
_geom_bond_atom_site_label_2
_geom_bond_distance
_geom_bond_site_symmetry_2
Li0 O26 1.948827 1_645
Li0 O2 2.042837 1_555
Li0 O8 2.137418 1_555
Li0 O7 2.297315 1_555
Li1 O27 1.962883 1_645
Li1 O3 2.037913 1_555
Li1 O9 2.136307 1_555
Li1 O6 2.215698 1_555
Li2 O12 2.070520 1_555
Li2 O3 2.089242 1_555
Li2 O6 2.100942 1_455
Li2 O10 2.311680 1_555
Li2 O4 2.513450 1_555
Li3 O10 2.125562 1_555
Li3 O2 2.157856 1_555
Li3 O8 2.215592 1_455
Li3 O13 2.288435 1_555
Li3 O4 2.341312 1_555
Li4 O9 2.066869 1_455
Li4 O11 2.110482 1_555
Li4 O3 2.139461 1_555
Li4 O12 2.168888 1_555
Li5 O9 1.999917 1_555
Li5 O15 2.016706 1_555
Li5 O11 2.122340 1_655
Li5 O5 2.165186 1_555
Li5 O7 2.223464 1_554
Li5 O0 2.544010 1_555
Li6 O15 2.029824 1_555
Li6 O21 2.061161 1_655
Li6 O25 2.098965 1_555
Li6 O16 2.349887 1_554
Li6 O22 2.557002 1_554
Li7 O24 2.085737 1_555
Li7 O14 2.118626 1_555
Li7 O19 2.120643 1_655
Li7 O16 2.170492 1_555
Li7 O22 2.472947 1_555
Li8 O24 2.142410 1_555
Li8 O18 2.145041 1_655
Li8 O14 2.162147 1_555
Li8 O17 2.206050 1_555
Li8 O23 2.353524 1_555
Li9 O20 2.102787 1_655
Li9 O15 2.115834 1_555
Li9 O25 2.126350 1_555
Li9 O17 2.192796 1_555
Li9 O23 2.486265 1_555
Li10 O1 1.955956 1_465
Li10 O24 2.035498 1_555
Li10 O18 2.180165 1_555
Li10 O19 2.187871 1_555
Li11 O0 1.918737 1_465
Li11 O25 2.042722 1_555
Li11 O20 2.103737 1_555
Li11 O21 2.235740 1_555
C0 O24 1.295569 1_545
C0 O1 1.300200 1_555
C0 O4 1.304601 1_555
C1 O0 1.295243 1_555
C1 O5 1.299274 1_555
C1 O25 1.310367 1_545
C2 O3 1.290849 1_565
C2 O27 1.302472 1_555
C2 O23 1.307530 1_555
C3 O22 1.291974 1_555
C3 O26 1.292509 1_555
C3 O2 1.311012 1_565
O0 V0 2.601530 1_655
O1 V1 2.233867 1_555
O2 V0 2.205387 1_556
O4 V1 2.194494 1_555
O5 V0 2.148924 1_555
O6 P1 1.562870 1_555
O6 V1 2.116951 1_555
O7 P0 1.544857 1_555
O7 V0 2.119000 1_656
O8 P0 1.557777 1_555
O8 V1 2.135132 1_555
O9 P1 1.544319 1_555
O10 P2 1.545258 1_555
O10 V1 2.149603 1_455
O11 P3 1.551038 1_555
O11 V0 2.152856 1_555
O12 P1 1.568709 1_555
O12 V3 2.188432 1_555
O13 P0 1.579460 1_555
O13 V2 2.221164 1_555
O13 V0 2.319122 1_556
O14 P2 1.563473 1_555
O14 V1 2.192446 1_555
O15 P3 1.549267 1_555
O16 P0 1.542122 1_555
O16 V2 2.154150 1_655
O17 P1 1.551532 1_555
O17 V3 2.145558 1_655
O18 P2 1.552223 1_555
O18 V3 2.121118 1_555
O19 P2 1.557921 1_555
O19 V2 2.116084 1_555
O20 P3 1.557052 1_555
O20 V3 2.117711 1_555
O21 P3 1.561215 1_555
O21 V2 2.111339 1_554
O22 V2 2.212880 1_555
O23 V3 2.194486 1_555
O26 V2 2.241927 1_555
O27 V3 2.239223 1_555
