# generated using pymatgen
data_Li2DyIn
_symmetry_space_group_name_H-M   'P 1'
_cell_length_a   4.81793953
_cell_length_b   4.81793953
_cell_length_c   4.81793953
_cell_angle_alpha   60.00000000
_cell_angle_beta   60.00000000
_cell_angle_gamma   60.00000000
_symmetry_Int_Tables_number   1
_chemical_formula_structural   Li2DyIn
_chemical_formula_sum   'Li2 Dy1 In1'
_cell_volume   79.08043245
_cell_formula_units_Z   1
loop_
 _symmetry_equiv_pos_site_id
 _symmetry_equiv_pos_as_xyz
  1  'x, y, z'
loop_
 _atom_site_type_symbol
 _atom_site_label
 _atom_site_symmetry_multiplicity
 _atom_site_fract_x
 _atom_site_fract_y
 _atom_site_fract_z
 _atom_site_occupancy
  Li  Li0  1  0.50000000  0.50000000  0.50000000  1
  Li  Li1  1  0.00000000  0.00000000  0.00000000  1
  Dy  Dy0  1  0.25000100  0.25000100  0.25000100  1
  In  In0  1  0.75000000  0.75000000  0.75000000  1
loop_
_geom_bond_atom_site_label_1
_geom_bond_atom_site_label_2
_geom_bond_distance
_geom_bond_site_symmetry_2
Dy0 Li0 2.950362 1_555
Dy0 Li1 2.950369 1_565
Dy0 Li1 2.950369 1_655
Dy0 Li1 2.950369 1_556
Dy0 Li0 2.950377 1_554
Dy0 Li0 2.950377 1_545
Dy0 Li0 2.950377 1_455
Dy0 Li1 2.950385 1_555
In0 Li0 2.950373 1_556
In0 Li0 2.950373 1_555
In0 Li0 2.950373 1_565
In0 Li1 2.950373 1_656
In0 Li0 2.950373 1_655
In0 Li1 2.950373 1_566
In0 Li1 2.950373 1_666
In0 Li1 2.950373 1_665
