# generated using pymatgen
data_CaSn2S5
_symmetry_space_group_name_H-M   'P 1'
_cell_length_a   10.84292175
_cell_length_b   10.84292175
_cell_length_c   10.84292175
_cell_angle_alpha   60.00000000
_cell_angle_beta   60.00000431
_cell_angle_gamma   59.99999569
_symmetry_Int_Tables_number   1
_chemical_formula_structural   CaSn2S5
_chemical_formula_sum   'Ca4 Sn8 S20'
_cell_volume   901.41332459
_cell_formula_units_Z   4
loop_
 _symmetry_equiv_pos_site_id
 _symmetry_equiv_pos_as_xyz
  1  'x, y, z'
loop_
 _atom_site_type_symbol
 _atom_site_label
 _atom_site_symmetry_multiplicity
 _atom_site_fract_x
 _atom_site_fract_y
 _atom_site_fract_z
 _atom_site_occupancy
  Ca  Ca0  1  0.62500000  0.12500000  0.12500000  1
  Ca  Ca1  1  0.12500000  0.62500000  0.12500000  1
  Ca  Ca2  1  0.12500000  0.12500000  0.62500000  1
  Ca  Ca3  1  0.12500000  0.12500000  0.12500000  1
  Sn  Sn0  1  0.48575600  0.83808100  0.83808100  1
  Sn  Sn1  1  0.83808100  0.48575600  0.83808100  1
  Sn  Sn2  1  0.83808100  0.83808100  0.48575600  1
  Sn  Sn3  1  0.83808100  0.83808100  0.83808100  1
  Sn  Sn4  1  0.76424400  0.41191900  0.41191900  1
  Sn  Sn5  1  0.41191900  0.76424400  0.41191900  1
  Sn  Sn6  1  0.41191900  0.41191900  0.76424400  1
  Sn  Sn7  1  0.41191900  0.41191900  0.41191900  1
  S  S0  1  0.22196900  0.92601000  0.92601000  1
  S  S1  1  0.92601000  0.22196900  0.92601000  1
  S  S2  1  0.92601000  0.92601000  0.22196900  1
  S  S3  1  0.92601000  0.92601000  0.92601000  1
  S  S4  1  0.02803100  0.32399000  0.32399000  1
  S  S5  1  0.32399000  0.02803100  0.32399000  1
  S  S6  1  0.32399000  0.32399000  0.02803100  1
  S  S7  1  0.32399000  0.32399000  0.32399000  1
  S  S8  1  0.56437000  0.93563000  0.93563000  1
  S  S9  1  0.93563000  0.56437000  0.56437000  1
  S  S10  1  0.93563000  0.93563000  0.56437000  1
  S  S11  1  0.56437000  0.56437000  0.93563000  1
  S  S12  1  0.93563000  0.56437000  0.93563000  1
  S  S13  1  0.56437000  0.93563000  0.56437000  1
  S  S14  1  0.68563000  0.31437000  0.31437000  1
  S  S15  1  0.31437000  0.68563000  0.68563000  1
  S  S16  1  0.31437000  0.31437000  0.68563000  1
  S  S17  1  0.68563000  0.68563000  0.31437000  1
  S  S18  1  0.31437000  0.68563000  0.31437000  1
  S  S19  1  0.68563000  0.31437000  0.68563000  1
loop_
_geom_bond_atom_site_label_1
_geom_bond_atom_site_label_2
_geom_bond_distance
_geom_bond_site_symmetry_2
Ca0 S6 3.245673 1_555
Ca0 S2 3.245673 1_545
Ca0 S5 3.245673 1_555
Ca0 S1 3.245673 1_554
Ca0 S7 3.245678 1_555
Ca0 S3 3.245678 1_544
Ca1 S2 3.245673 1_455
Ca1 S6 3.245673 1_555
Ca1 S4 3.245673 1_555
Ca1 S0 3.245673 1_554
Ca1 S3 3.245678 1_454
Ca1 S7 3.245678 1_555
Ca2 S0 3.245673 1_545
Ca2 S4 3.245673 1_555
Ca2 S5 3.245673 1_555
Ca2 S1 3.245673 1_455
Ca2 S3 3.245679 1_445
Ca2 S7 3.245679 1_555
Ca3 S1 3.245682 1_454
Ca3 S5 3.245682 1_555
Ca3 S4 3.245682 1_555
Ca3 S0 3.245682 1_544
Ca3 S6 3.245682 1_555
Ca3 S2 3.245682 1_445
S0 Sn0 2.335361 1_555
S1 Sn1 2.335361 1_555
S2 Sn2 2.335361 1_555
S3 Sn3 2.335361 1_555
S4 Sn4 2.335361 1_455
S5 Sn5 2.335361 1_545
S6 Sn6 2.335361 1_554
S7 Sn7 2.335361 1_555
S8 Sn3 2.426118 1_555
S8 Sn0 2.426127 1_555
S9 Sn2 2.426118 1_555
S9 Sn1 2.426118 1_555
S10 Sn3 2.426118 1_555
S10 Sn2 2.426127 1_555
S11 Sn0 2.426118 1_555
S11 Sn1 2.426118 1_555
S12 Sn3 2.426118 1_555
S12 Sn1 2.426127 1_555
S13 Sn2 2.426118 1_555
S13 Sn0 2.426118 1_555
S14 Sn7 2.426118 1_555
S14 Sn4 2.426127 1_555
S15 Sn6 2.426118 1_555
S15 Sn5 2.426118 1_555
S16 Sn7 2.426118 1_555
S16 Sn6 2.426127 1_555
S17 Sn4 2.426118 1_555
S17 Sn5 2.426118 1_555
S18 Sn7 2.426118 1_555
S18 Sn5 2.426127 1_555
S19 Sn6 2.426118 1_555
S19 Sn4 2.426118 1_555
