# generated using pymatgen
data_PmInHg2
_symmetry_space_group_name_H-M   'P 1'
_cell_length_a   5.19047087
_cell_length_b   5.18607542
_cell_length_c   5.18393954
_cell_angle_alpha   59.96354481
_cell_angle_beta   59.98859804
_cell_angle_gamma   59.99184426
_symmetry_Int_Tables_number   1
_chemical_formula_structural   PmInHg2
_chemical_formula_sum   'Pm1 In1 Hg2'
_cell_volume   98.62943554
_cell_formula_units_Z   1
loop_
 _symmetry_equiv_pos_site_id
 _symmetry_equiv_pos_as_xyz
  1  'x, y, z'
loop_
 _atom_site_type_symbol
 _atom_site_label
 _atom_site_symmetry_multiplicity
 _atom_site_fract_x
 _atom_site_fract_y
 _atom_site_fract_z
 _atom_site_occupancy
  Pm  Pm0  1  0.74998852  0.75001647  0.74998731  1
  In  In0  1  0.25001349  0.25000671  0.25000034  1
  Hg  Hg0  1  -0.00001046  0.99998165  0.00004121  1
  Hg  Hg1  1  0.50001046  0.49999517  0.49997314  1
loop_
_geom_bond_atom_site_label_1
_geom_bond_atom_site_label_2
_geom_bond_distance
_geom_bond_site_symmetry_2
In0 Pm0 3.666811 1_455
In0 Pm0 3.666834 1_544
In0 Pm0 3.666849 1_545
In0 Pm0 3.667128 1_454
In0 Pm0 3.667509 1_554
In0 Pm0 3.667621 1_445
Hg0 Pm0 3.173191 1_455
Hg0 In0 3.173592 1_564
Hg0 In0 3.174725 1_555
Hg0 Pm0 3.174978 1_464
Hg0 In0 3.176754 1_565
Hg0 Pm0 3.176804 1_454
Hg0 In0 3.178223 1_465
Hg0 Pm0 3.178320 1_554
Hg1 Pm0 3.173359 1_554
Hg1 In0 3.173534 1_556
Hg1 Pm0 3.174740 1_545
Hg1 In0 3.174879 1_565
Hg1 In0 3.176542 1_555
Hg1 Pm0 3.176776 1_555
Hg1 In0 3.178337 1_655
Hg1 Pm0 3.178417 1_455
