# generated using pymatgen
data_Sc2CuIr
_symmetry_space_group_name_H-M   'P 1'
_cell_length_a   4.56407456
_cell_length_b   4.56578822
_cell_length_c   4.56595914
_cell_angle_alpha   59.97337323
_cell_angle_beta   59.98050410
_cell_angle_gamma   59.98311108
_symmetry_Int_Tables_number   1
_chemical_formula_structural   Sc2CuIr
_chemical_formula_sum   'Sc2 Cu1 Ir1'
_cell_volume   67.24788308
_cell_formula_units_Z   1
loop_
 _symmetry_equiv_pos_site_id
 _symmetry_equiv_pos_as_xyz
  1  'x, y, z'
loop_
 _atom_site_type_symbol
 _atom_site_label
 _atom_site_symmetry_multiplicity
 _atom_site_fract_x
 _atom_site_fract_y
 _atom_site_fract_z
 _atom_site_occupancy
  Sc  Sc0  1  0.00002004  0.00000170  0.99999360  1
  Sc  Sc1  1  0.49997897  0.50000034  0.50000543  1
  Cu  Cu0  1  0.24999819  0.24999752  0.24999818  1
  Ir  Ir0  1  0.75000079  0.74999843  0.75000079  1
loop_
_geom_bond_atom_site_label_1
_geom_bond_atom_site_label_2
_geom_bond_distance
_geom_bond_site_symmetry_2
Cu0 Sc1 2.794404 1_455
Cu0 Sc0 2.794414 1_654
Cu0 Sc1 2.795170 1_545
Cu0 Sc1 2.795185 1_554
Cu0 Sc0 2.795195 1_555
Cu0 Sc0 2.795196 1_564
Cu0 Sc0 2.796012 1_554
Cu0 Sc1 2.796058 1_555
Ir0 Sc1 2.794251 1_655
Ir0 Sc0 2.794261 1_565
Ir0 Sc0 2.795169 1_655
Ir0 Sc1 2.795188 1_565
Ir0 Sc1 2.795229 1_556
Ir0 Sc0 2.795239 1_664
Ir0 Sc1 2.796149 1_555
Ir0 Sc0 2.796149 1_665
