# generated using pymatgen
data_Li7(CoO3)2
_symmetry_space_group_name_H-M   'P 1'
_cell_length_a   6.55240239
_cell_length_b   6.55240239
_cell_length_c   9.97988750
_cell_angle_alpha   74.85065008
_cell_angle_beta   74.85065008
_cell_angle_gamma   46.04631199
_symmetry_Int_Tables_number   1
_chemical_formula_structural   Li7(CoO3)2
_chemical_formula_sum   'Li14 Co4 O12'
_cell_volume   295.76364977
_cell_formula_units_Z   2
loop_
 _symmetry_equiv_pos_site_id
 _symmetry_equiv_pos_as_xyz
  1  'x, y, z'
loop_
 _atom_site_type_symbol
 _atom_site_label
 _atom_site_symmetry_multiplicity
 _atom_site_fract_x
 _atom_site_fract_y
 _atom_site_fract_z
 _atom_site_occupancy
  Li  Li0  1  0.32736800  0.54881900  0.16938200  1
  Li  Li1  1  0.43699100  0.22638800  0.40739800  1
  Li  Li2  1  0.54881900  0.32736800  0.66938200  1
  Li  Li3  1  0.82145500  0.72711600  0.29586500  1
  Li  Li4  1  0.22638800  0.43699100  0.90739800  1
  Li  Li5  1  0.27288400  0.17854500  0.20413500  1
  Li  Li6  1  0.72711600  0.82145500  0.79586500  1
  Li  Li7  1  0.77361200  0.56300900  0.09260200  1
  Li  Li8  1  0.17854500  0.27288400  0.70413500  1
  Li  Li9  1  0.45118100  0.67263200  0.33061800  1
  Li  Li10  1  0.56300900  0.77361200  0.59260200  1
  Li  Li11  1  0.95455100  0.04544900  0.25000000  1
  Li  Li12  1  0.67263200  0.45118100  0.83061800  1
  Li  Li13  1  0.04544900  0.95455100  0.75000000  1
  Co  Co0  1  0.82551400  0.98598800  0.03142700  1
  Co  Co1  1  0.98598800  0.82551400  0.53142700  1
  Co  Co2  1  0.01401200  0.17448600  0.46857300  1
  Co  Co3  1  0.17448600  0.01401200  0.96857300  1
  O  O0  1  0.14373100  0.65452100  0.36982700  1
  O  O1  1  0.62699800  0.14368600  0.19855300  1
  O  O2  1  0.65452100  0.14373100  0.86982700  1
  O  O3  1  0.05473800  0.60225700  0.08563400  1
  O  O4  1  0.14368600  0.62699800  0.69855300  1
  O  O5  1  0.39774300  0.94526200  0.41436600  1
  O  O6  1  0.60225700  0.05473800  0.58563400  1
  O  O7  1  0.85631400  0.37300200  0.30144700  1
  O  O8  1  0.94526200  0.39774300  0.91436600  1
  O  O9  1  0.34547900  0.85626900  0.13017300  1
  O  O10  1  0.37300200  0.85631400  0.80144700  1
  O  O11  1  0.85626900  0.34547900  0.63017300  1
loop_
_geom_bond_atom_site_label_1
_geom_bond_atom_site_label_2
_geom_bond_distance
_geom_bond_site_symmetry_2
Li0 O1 1.909516 1_555
Li0 O3 1.942021 1_555
Li0 O9 2.030056 1_555
Li0 O0 2.058743 1_555
Li1 O6 1.967765 1_555
Li1 O5 2.011322 1_545
Li1 O0 2.011612 1_555
Li1 O1 2.117852 1_555
Li2 O4 1.909516 1_555
Li2 O6 1.942021 1_555
Li2 O11 2.030056 1_555
Li2 O2 2.058743 1_555
Li3 O1 2.109607 1_565
Li3 O0 2.113557 1_655
Li3 O7 2.154635 1_555
Li3 O5 2.192800 1_555
Li3 O3 2.211955 1_655
Li4 O3 1.967765 1_556
Li4 O8 2.011322 1_455
Li4 O2 2.011612 1_555
Li4 O4 2.117852 1_555
Li5 O7 2.109607 1_455
Li5 O9 2.113557 1_545
Li5 O1 2.154635 1_555
Li5 O3 2.192800 1_555
Li5 O5 2.211955 1_545
Li6 O4 2.109607 1_655
Li6 O2 2.113557 1_565
Li6 O10 2.154635 1_555
Li6 O8 2.192800 1_555
Li6 O6 2.211955 1_565
Li7 O8 1.967765 1_554
Li7 O3 2.011322 1_655
Li7 O9 2.011612 1_555
Li7 O7 2.117852 1_555
Li8 O10 2.109607 1_545
Li8 O11 2.113557 1_455
Li8 O4 2.154635 1_555
Li8 O6 2.192800 1_555
Li8 O8 2.211955 1_455
Li9 O7 1.909516 1_555
Li9 O5 1.942021 1_555
Li9 O0 2.030056 1_555
Li9 O9 2.058743 1_555
Li10 O5 1.967765 1_555
Li10 O6 2.011322 1_565
Li10 O11 2.011612 1_555
Li10 O10 2.117852 1_555
Li11 O1 1.941608 1_555
Li11 O7 1.941608 1_555
Li11 O9 2.072214 1_645
Li11 O0 2.072214 1_645
Li12 O10 1.909516 1_555
Li12 O8 1.942021 1_555
Li12 O2 2.030056 1_555
Li12 O11 2.058743 1_555
Li13 O10 1.941608 1_555
Li13 O4 1.941608 1_555
Li13 O11 2.072214 1_465
Li13 O2 2.072214 1_465
Co0 O3 1.828105 1_655
Co0 O2 1.841259 1_564
Co0 O1 1.855432 1_565
Co1 O6 1.828105 1_565
Co1 O0 1.841259 1_655
Co1 O4 1.855432 1_655
Co2 O5 1.828105 1_545
Co2 O11 1.841259 1_455
Co2 O7 1.855432 1_455
Co3 O8 1.828105 1_455
Co3 O9 1.841259 1_546
Co3 O10 1.855432 1_545
