# generated using pymatgen
data_Li2YbPb
_symmetry_space_group_name_H-M   'P 1'
_cell_length_a   4.80726340
_cell_length_b   4.80726340
_cell_length_c   4.80726340
_cell_angle_alpha   60.00000000
_cell_angle_beta   60.00000000
_cell_angle_gamma   60.00000000
_symmetry_Int_Tables_number   1
_chemical_formula_structural   Li2YbPb
_chemical_formula_sum   'Li2 Yb1 Pb1'
_cell_volume   78.55589106
_cell_formula_units_Z   1
loop_
 _symmetry_equiv_pos_site_id
 _symmetry_equiv_pos_as_xyz
  1  'x, y, z'
loop_
 _atom_site_type_symbol
 _atom_site_label
 _atom_site_symmetry_multiplicity
 _atom_site_fract_x
 _atom_site_fract_y
 _atom_site_fract_z
 _atom_site_occupancy
  Li  Li0  1  0.25000000  0.25000000  0.25000000  1
  Li  Li1  1  0.75000000  0.75000000  0.75000000  1
  Yb  Yb0  1  0.00000000  0.00000000  0.00000000  1
  Pb  Pb0  1  0.50000000  0.50000000  0.50000000  1
loop_
_geom_bond_atom_site_label_1
_geom_bond_atom_site_label_2
_geom_bond_distance
_geom_bond_site_symmetry_2
Li0 Pb0 2.943836 1_554
Li0 Yb0 2.943836 1_556
Li0 Yb0 2.943836 1_555
Li0 Yb0 2.943836 1_565
Li0 Pb0 2.943836 1_555
Li0 Yb0 2.943836 1_655
Li0 Pb0 2.943836 1_455
Li0 Pb0 2.943836 1_545
Li1 Pb0 2.943836 1_556
Li1 Yb0 2.943836 1_566
Li1 Yb0 2.943836 1_656
Li1 Pb0 2.943836 1_655
Li1 Pb0 2.943836 1_565
Li1 Pb0 2.943836 1_555
Li1 Yb0 2.943836 1_665
Li1 Yb0 2.943836 1_666
Pb0 Yb0 3.399249 1_565
Pb0 Yb0 3.399249 1_655
Pb0 Yb0 3.399249 1_665
Pb0 Yb0 3.399249 1_556
Pb0 Yb0 3.399249 1_656
Pb0 Yb0 3.399249 1_566
