# generated using pymatgen
data_EuInAu2
_symmetry_space_group_name_H-M   'P 1'
_cell_length_a   5.05153549
_cell_length_b   5.05153549
_cell_length_c   5.05153549
_cell_angle_alpha   60.00000000
_cell_angle_beta   60.00000000
_cell_angle_gamma   60.00000000
_symmetry_Int_Tables_number   1
_chemical_formula_structural   EuInAu2
_chemical_formula_sum   'Eu1 In1 Au2'
_cell_volume   91.14969663
_cell_formula_units_Z   1
loop_
 _symmetry_equiv_pos_site_id
 _symmetry_equiv_pos_as_xyz
  1  'x, y, z'
loop_
 _atom_site_type_symbol
 _atom_site_label
 _atom_site_symmetry_multiplicity
 _atom_site_fract_x
 _atom_site_fract_y
 _atom_site_fract_z
 _atom_site_occupancy
  Eu  Eu0  1  0.50000000  0.50000000  0.50000000  1
  In  In0  1  0.00000000  0.00000000  0.00000000  1
  Au  Au0  1  0.75000000  0.75000000  0.75000000  1
  Au  Au1  1  0.25000000  0.25000000  0.25000000  1
loop_
_geom_bond_atom_site_label_1
_geom_bond_atom_site_label_2
_geom_bond_distance
_geom_bond_site_symmetry_2
Au0 In0 3.093421 1_656
Au0 In0 3.093421 1_665
Au0 In0 3.093421 1_666
Au0 Eu0 3.093421 1_565
Au0 Eu0 3.093421 1_556
Au0 Eu0 3.093421 1_555
Au0 Eu0 3.093421 1_655
Au0 In0 3.093421 1_566
Au1 Eu0 3.093421 1_455
Au1 Eu0 3.093421 1_555
Au1 In0 3.093421 1_556
Au1 In0 3.093421 1_555
Au1 Eu0 3.093421 1_545
Au1 In0 3.093421 1_565
Au1 In0 3.093421 1_655
Au1 Eu0 3.093421 1_554
