# generated using pymatgen
data_Rb4P2PbSe8
_symmetry_space_group_name_H-M   'P 1'
_cell_length_a   12.03748818
_cell_length_b   12.03748818
_cell_length_c   12.03748818
_cell_angle_alpha   133.36543421
_cell_angle_beta   127.66558448
_cell_angle_gamma   72.68044457
_symmetry_Int_Tables_number   1
_chemical_formula_structural   Rb4P2PbSe8
_chemical_formula_sum   'Rb8 P4 Pb2 Se16'
_cell_volume   981.00529892
_cell_formula_units_Z   2
loop_
 _symmetry_equiv_pos_site_id
 _symmetry_equiv_pos_as_xyz
  1  'x, y, z'
loop_
 _atom_site_type_symbol
 _atom_site_label
 _atom_site_symmetry_multiplicity
 _atom_site_fract_x
 _atom_site_fract_y
 _atom_site_fract_z
 _atom_site_occupancy
  Rb  Rb0  1  0.41355800  0.29807900  0.88452100  1
  Rb  Rb1  1  0.58644200  0.70192100  0.11547900  1
  Rb  Rb2  1  0.91355800  0.52903700  0.61547900  1
  Rb  Rb3  1  0.08644200  0.47096300  0.38452100  1
  Rb  Rb4  1  0.48575800  0.23575800  0.25000000  1
  Rb  Rb5  1  0.01424200  0.76424200  0.25000000  1
  Rb  Rb6  1  0.51424200  0.76424200  0.75000000  1
  Rb  Rb7  1  0.98575800  0.23575800  0.75000000  1
  P  P0  1  0.87431000  0.07598300  0.20167400  1
  P  P1  1  0.12569000  0.92401700  0.79832600  1
  P  P2  1  0.37431000  0.67263600  0.29832600  1
  P  P3  1  0.62569000  0.32736400  0.70167400  1
  Pb  Pb0  1  0.25000000  0.00000000  0.25000000  1
  Pb  Pb1  1  0.75000000  0.00000000  0.75000000  1
  Se  Se0  1  0.23714900  0.98231300  0.74516400  1
  Se  Se1  1  0.76285100  0.01768700  0.25483600  1
  Se  Se2  1  0.73714900  0.49198600  0.75483600  1
  Se  Se3  1  0.26285100  0.50801400  0.24516400  1
  Se  Se4  1  0.24567100  0.78444700  0.88095200  1
  Se  Se5  1  0.09650500  0.21555300  0.46122400  1
  Se  Se6  1  0.40349500  0.36471900  0.61904800  1
  Se  Se7  1  0.25432900  0.63528100  0.03877600  1
  Se  Se8  1  0.75432900  0.21555300  0.11904800  1
  Se  Se9  1  0.90349500  0.78444700  0.53877600  1
  Se  Se10  1  0.59650500  0.63528100  0.38095200  1
  Se  Se11  1  0.74567100  0.36471900  0.96122400  1
  Se  Se12  1  0.39547300  0.92489000  0.52941700  1
  Se  Se13  1  0.60452700  0.07511000  0.47058300  1
  Se  Se14  1  0.89547300  0.86605600  0.97058300  1
  Se  Se15  1  0.10452700  0.13394400  0.02941700  1
loop_
_geom_bond_atom_site_label_1
_geom_bond_atom_site_label_2
_geom_bond_distance
_geom_bond_site_symmetry_2
Rb0 Se12 3.402060 1_545
Rb0 Se7 3.600599 1_556
Rb0 Se10 3.600599 1_556
Rb0 Se8 3.613318 1_556
Rb0 Se5 3.613318 1_555
Rb0 Se0 3.669757 1_545
Rb0 Se6 3.722858 1_555
Rb0 Se11 3.722858 1_555
Rb1 Se13 3.402060 1_565
Rb1 Se11 3.600599 1_554
Rb1 Se6 3.600599 1_554
Rb1 Se4 3.613318 1_554
Rb1 Se9 3.613318 1_555
Rb1 Se1 3.669757 1_565
Rb1 Se7 3.722858 1_555
Rb1 Se10 3.722858 1_555
Rb2 Se14 3.402060 1_555
Rb2 Se8 3.600599 1_555
Rb2 Se5 3.600599 1_655
Rb2 Se7 3.613318 1_656
Rb2 Se10 3.613318 1_555
Rb2 Se2 3.669749 1_555
Rb2 Se4 3.722858 1_655
Rb2 Se9 3.722858 1_555
Rb3 Se15 3.402060 1_555
Rb3 Se4 3.600599 1_555
Rb3 Se9 3.600599 1_455
Rb3 Se6 3.613318 1_555
Rb3 Se11 3.613318 1_454
Rb3 Se3 3.669749 1_555
Rb3 Se8 3.722858 1_455
Rb3 Se5 3.722858 1_555
Rb4 Se3 3.574777 1_555
Rb4 Se1 3.574786 1_555
Rb4 Se2 3.597627 1_555
Rb4 Se0 3.597628 1_544
Rb4 Se13 3.687831 1_555
Rb4 Se15 3.687831 1_555
Rb5 Se2 3.574785 1_454
Rb5 Se0 3.574786 1_555
Rb5 Se1 3.597628 1_465
Rb5 Se3 3.597635 1_555
Rb5 Se12 3.687831 1_555
Rb5 Se14 3.687831 1_454
Rb6 Se2 3.574777 1_555
Rb6 Se0 3.574786 1_555
Rb6 Se3 3.597627 1_555
Rb6 Se1 3.597628 1_566
Rb6 Se14 3.687831 1_555
Rb6 Se12 3.687831 1_555
Rb7 Se3 3.574785 1_656
Rb7 Se1 3.574786 1_555
Rb7 Se0 3.597628 1_645
Rb7 Se2 3.597635 1_555
Rb7 Se13 3.687831 1_555
Rb7 Se15 3.687831 1_656
P0 Se1 2.220056 1_555
P0 Se5 2.234348 1_655
P0 Se8 2.234356 1_555
P0 Se14 2.240076 1_544
P1 Se0 2.220056 1_555
P1 Se9 2.234348 1_455
P1 Se4 2.234356 1_555
P1 Se15 2.240076 1_566
P2 Se3 2.220075 1_555
P2 Se7 2.234346 1_555
P2 Se10 2.234346 1_555
P2 Se12 2.240079 1_555
P3 Se2 2.220075 1_555
P3 Se11 2.234346 1_555
P3 Se6 2.234346 1_555
P3 Se13 2.240079 1_555
Pb0 Se5 3.230813 1_555
Pb0 Se7 3.230813 1_545
Pb0 Se6 3.230813 1_555
Pb0 Se4 3.230813 1_544
Pb0 Se15 3.351483 1_555
Pb0 Se14 3.351483 1_444
Pb0 Se12 3.351483 1_545
Pb0 Se13 3.351483 1_555
Pb1 Se9 3.230813 1_545
Pb1 Se8 3.230813 1_556
Pb1 Se10 3.230813 1_545
Pb1 Se11 3.230813 1_555
Pb1 Se14 3.351483 1_545
Pb1 Se12 3.351483 1_545
Pb1 Se15 3.351483 1_656
Pb1 Se13 3.351483 1_555
