# generated using pymatgen
data_Li5Mn6(BO3)6
_symmetry_space_group_name_H-M   'P 1'
_cell_length_a   6.37353500
_cell_length_b   8.23440200
_cell_length_c   8.25139507
_cell_angle_alpha   60.69108928
_cell_angle_beta   90.00000000
_cell_angle_gamma   90.00000000
_symmetry_Int_Tables_number   1
_chemical_formula_structural   Li5Mn6(BO3)6
_chemical_formula_sum   'Li5 Mn6 B6 O18'
_cell_volume   377.61818124
_cell_formula_units_Z   1
loop_
 _symmetry_equiv_pos_site_id
 _symmetry_equiv_pos_as_xyz
  1  'x, y, z'
loop_
 _atom_site_type_symbol
 _atom_site_label
 _atom_site_symmetry_multiplicity
 _atom_site_fract_x
 _atom_site_fract_y
 _atom_site_fract_z
 _atom_site_occupancy
  Li  Li0  1  0.00000000  0.98056000  0.71823900  1
  Li  Li1  1  0.50000000  0.98369000  0.71669100  1
  Li  Li2  1  0.50000000  0.72198900  0.29779600  1
  Li  Li3  1  0.00000000  0.30143000  0.97845200  1
  Li  Li4  1  0.50000000  0.30010600  0.98320000  1
  Mn  Mn0  1  0.24773700  0.36851300  0.61825300  1
  Mn  Mn1  1  0.75226300  0.36851300  0.61825300  1
  Mn  Mn2  1  0.24690400  0.63257700  0.02199600  1
  Mn  Mn3  1  0.75309600  0.63257700  0.02199600  1
  Mn  Mn4  1  0.24796200  0.00036600  0.36177000  1
  Mn  Mn5  1  0.75203800  0.00036600  0.36177000  1
  B  B0  1  0.50000000  0.66651900  0.67194600  1
  B  B1  1  0.00000000  0.66085500  0.67703000  1
  B  B2  1  0.50000000  0.33206300  0.33456400  1
  B  B3  1  0.74390900  0.00729400  0.99231000  1
  B  B4  1  0.25609100  0.00729400  0.99231000  1
  B  B5  1  0.00000000  0.32455600  0.33275100  1
  O  O0  1  0.25100500  0.92373000  0.87965400  1
  O  O1  1  0.74899500  0.92373000  0.87965400  1
  O  O2  1  0.50000000  0.85913300  0.56060100  1
  O  O3  1  0.00000000  0.85195000  0.56116800  1
  O  O4  1  0.00000000  0.58697900  0.86856300  1
  O  O5  1  0.50000000  0.58432900  0.86382900  1
  O  O6  1  0.72989600  0.89854100  0.18171300  1
  O  O7  1  0.27010400  0.89854100  0.18171300  1
  O  O8  1  0.50000000  0.55748000  0.58476200  1
  O  O9  1  0.00000000  0.53785600  0.60784600  1
  O  O10  1  0.25071200  0.20177000  0.90884200  1
  O  O11  1  0.74928800  0.20177000  0.90884200  1
  O  O12  1  0.50000000  0.52567300  0.22473600  1
  O  O13  1  0.00000000  0.51461700  0.22181700  1
  O  O14  1  0.50000000  0.25553900  0.52856200  1
  O  O15  1  0.00000000  0.24836400  0.52682500  1
  O  O16  1  0.50000000  0.21756100  0.25607100  1
  O  O17  1  0.00000000  0.20678700  0.25552500  1
loop_
_geom_bond_atom_site_label_1
_geom_bond_atom_site_label_2
_geom_bond_distance
_geom_bond_site_symmetry_2
Li0 O0 1.985461 1_555
Li0 O1 1.985461 1_455
Li0 O15 1.986852 1_565
Li0 O3 2.035946 1_555
Li1 O1 1.980006 1_555
Li1 O0 1.980006 1_555
Li1 O2 2.001027 1_555
Li1 O14 2.004646 1_565
Li2 O6 1.953110 1_555
Li2 O7 1.953110 1_555
Li2 O12 1.982610 1_555
Li2 O8 2.074003 1_555
Li3 O10 2.004543 1_555
Li3 O11 2.004543 1_455
Li3 O17 2.022341 1_556
Li3 O4 2.064840 1_555
Li4 O16 2.008290 1_556
Li4 O11 2.010712 1_555
Li4 O10 2.010712 1_555
Li4 O5 2.047135 1_555
Mn0 O9 2.080316 1_555
Mn0 O10 2.100395 1_555
Mn0 O8 2.159086 1_555
Mn0 O14 2.161528 1_555
Mn0 O15 2.184446 1_555
Mn1 O9 2.080316 1_655
Mn1 O11 2.100395 1_555
Mn1 O8 2.159086 1_555
Mn1 O14 2.161528 1_555
Mn1 O15 2.184446 1_655
Mn2 O0 2.090742 1_554
Mn2 O13 2.137862 1_555
Mn2 O4 2.164625 1_554
Mn2 O12 2.175742 1_555
Mn2 O5 2.229553 1_554
Mn3 O1 2.090742 1_554
Mn3 O13 2.137862 1_655
Mn3 O4 2.164625 1_654
Mn3 O12 2.175742 1_555
Mn3 O5 2.229553 1_554
Mn4 O7 2.037137 1_545
Mn4 O17 2.167135 1_555
Mn4 O3 2.174778 1_545
Mn4 O2 2.180964 1_545
Mn4 O16 2.238882 1_555
Mn5 O6 2.037137 1_545
Mn5 O17 2.167135 1_655
Mn5 O3 2.174778 1_645
Mn5 O2 2.180964 1_545
Mn5 O16 2.238882 1_555
B0 O5 1.384122 1_555
B0 O2 1.390340 1_555
B0 O8 1.398596 1_555
B1 O3 1.384642 1_555
B1 O9 1.384832 1_555
B1 O4 1.387991 1_555
B2 O16 1.380697 1_555
B2 O12 1.395868 1_555
B2 O14 1.404258 1_555
B3 O6 1.371927 1_546
B3 O11 1.400064 1_555
B3 O1 1.401734 1_545
B4 O7 1.371927 1_546
B4 O10 1.400064 1_555
B4 O0 1.401734 1_545
B5 O13 1.372840 1_555
B5 O17 1.396953 1_555
B5 O15 1.405137 1_555
