# generated using pymatgen
data_Mn12O5F19
_symmetry_space_group_name_H-M   'P 1'
_cell_length_a   4.89131500
_cell_length_b   5.85017570
_cell_length_c   15.94796046
_cell_angle_alpha   89.77329806
_cell_angle_beta   89.78663435
_cell_angle_gamma   87.72854279
_symmetry_Int_Tables_number   1
_chemical_formula_structural   Mn12O5F19
_chemical_formula_sum   'Mn12 O5 F19'
_cell_volume   455.98667277
_cell_formula_units_Z   1
loop_
 _symmetry_equiv_pos_site_id
 _symmetry_equiv_pos_as_xyz
  1  'x, y, z'
loop_
 _atom_site_type_symbol
 _atom_site_label
 _atom_site_symmetry_multiplicity
 _atom_site_fract_x
 _atom_site_fract_y
 _atom_site_fract_z
 _atom_site_occupancy
  Mn  Mn0  1  0.98544800  0.85489200  0.41835200  1
  Mn  Mn1  1  0.02052400  0.18926800  0.24229000  1
  Mn  Mn2  1  0.01229200  0.82538700  0.07965200  1
  Mn  Mn3  1  0.98533300  0.85013800  0.75237500  1
  Mn  Mn4  1  0.97255700  0.16491300  0.58192000  1
  Mn  Mn5  1  0.98669000  0.16779900  0.90972900  1
  Mn  Mn6  1  0.50484400  0.64678700  0.58588200  1
  Mn  Mn7  1  0.48857500  0.65583800  0.92279300  1
  Mn  Mn8  1  0.49316700  0.65500600  0.24978800  1
  Mn  Mn9  1  0.47123400  0.35365800  0.08612300  1
  Mn  Mn10  1  0.51007900  0.32120800  0.42123500  1
  Mn  Mn11  1  0.53062300  0.32807600  0.74582300  1
  O  O0  1  0.78282300  0.11375700  0.47896400  1
  O  O1  1  0.77909600  0.11976300  0.80129200  1
  O  O2  1  0.71580500  0.37293300  0.63990000  1
  O  O3  1  0.27970100  0.60146000  0.02837700  1
  O  O4  1  0.29202700  0.40311700  0.19165500  1
  F  F0  1  0.76425500  0.89067500  0.30197200  1
  F  F1  1  0.76734800  0.87132600  0.64229800  1
  F  F2  1  0.77202800  0.88465400  0.97016800  1
  F  F3  1  0.75626500  0.11956500  0.13271600  1
  F  F4  1  0.75159800  0.61723500  0.14331500  1
  F  F5  1  0.74062000  0.39084300  0.31018700  1
  F  F6  1  0.72862700  0.61372900  0.47125100  1
  F  F7  1  0.73197400  0.61646100  0.81488600  1
  F  F8  1  0.71808600  0.37574800  0.98067700  1
  F  F9  1  0.26444700  0.60972200  0.36530000  1
  F  F10  1  0.25964800  0.39646200  0.52702800  1
  F  F11  1  0.29450100  0.37314800  0.85293200  1
  F  F12  1  0.27143200  0.60880100  0.70276800  1
  F  F13  1  0.23276800  0.90189300  0.19192200  1
  F  F14  1  0.23026300  0.89545600  0.53347500  1
  F  F15  1  0.23668400  0.10491700  0.35878600  1
  F  F16  1  0.22263900  0.10617700  0.02089900  1
  F  F17  1  0.23033900  0.88120500  0.85860000  1
  F  F18  1  0.21566000  0.11799000  0.68466900  1
loop_
_geom_bond_atom_site_label_1
_geom_bond_atom_site_label_2
_geom_bond_distance
_geom_bond_site_symmetry_2
Mn0 O0 2.023752 1_565
Mn1 O4 2.023994 1_555
Mn2 O3 1.990055 1_555
Mn3 O1 1.998000 1_565
Mn4 O0 1.919389 1_555
Mn4 O2 1.947372 1_555
Mn5 O1 2.034752 1_555
Mn6 O2 2.058707 1_555
Mn7 O3 1.997265 1_556
Mn8 O4 2.032601 1_555
Mn9 O4 1.912431 1_555
Mn9 O3 1.927587 1_555
Mn10 O0 1.993044 1_555
Mn11 O1 1.904434 1_555
Mn11 O2 1.935673 1_555
F0 Mn8 2.124584 1_555
F0 Mn0 2.157113 1_555
F0 Mn1 2.383294 1_665
F1 Mn3 2.058095 1_555
F1 Mn6 2.082139 1_555
F1 Mn4 2.236288 1_565
F2 Mn7 2.109006 1_555
F2 Mn2 2.127956 1_656
F2 Mn5 2.212020 1_565
F3 Mn9 2.054185 1_555
F3 Mn1 2.225975 1_655
F3 Mn2 2.253674 1_645
F4 Mn2 2.059930 1_655
F4 Mn8 2.120102 1_555
F4 Mn9 2.297446 1_555
F5 Mn1 2.075726 1_655
F5 Mn10 2.142377 1_555
F5 Mn8 2.151679 1_555
F6 Mn0 2.098426 1_555
F6 Mn6 2.132771 1_555
F6 Mn10 2.206738 1_555
F7 Mn7 2.097160 1_555
F7 Mn3 2.124324 1_555
F7 Mn11 2.276817 1_555
F8 Mn9 2.073176 1_556
F8 Mn5 2.087934 1_555
F8 Mn7 2.155758 1_555
F9 Mn0 2.116884 1_455
F9 Mn8 2.172482 1_555
F9 Mn10 2.218885 1_555
F10 Mn10 2.118635 1_555
F10 Mn6 2.149989 1_555
F10 Mn4 2.169209 1_455
F11 Mn11 2.070267 1_555
F11 Mn5 2.157567 1_455
F11 Mn7 2.241505 1_555
F12 Mn3 2.102747 1_455
F12 Mn11 2.146716 1_555
F12 Mn6 2.197423 1_555
F13 Mn8 2.100575 1_555
F13 Mn1 2.101318 1_565
F13 Mn2 2.151302 1_555
F14 Mn6 2.112471 1_555
F14 Mn4 2.125004 1_465
F14 Mn0 2.214363 1_455
F15 Mn10 2.129615 1_555
F15 Mn0 2.162129 1_445
F15 Mn1 2.186120 1_555
F16 Mn5 2.140656 1_454
F16 Mn2 2.179337 1_545
F16 Mn9 2.194898 1_555
F17 Mn7 2.061245 1_555
F17 Mn3 2.091387 1_455
F17 Mn5 2.177487 1_465
F18 Mn4 2.039487 1_455
F18 Mn11 2.237381 1_555
F18 Mn3 2.237869 1_445
