# generated using pymatgen
data_K2TaCuSe4
_symmetry_space_group_name_H-M   'P 1'
_cell_length_a   14.03645240
_cell_length_b   12.55419607
_cell_length_c   7.48871514
_cell_angle_alpha   84.91470317
_cell_angle_beta   62.98391137
_cell_angle_gamma   32.10138546
_symmetry_Int_Tables_number   1
_chemical_formula_structural   K2TaCuSe4
_chemical_formula_sum   'K4 Ta2 Cu2 Se8'
_cell_volume   487.42512878
_cell_formula_units_Z   2
loop_
 _symmetry_equiv_pos_site_id
 _symmetry_equiv_pos_as_xyz
  1  'x, y, z'
loop_
 _atom_site_type_symbol
 _atom_site_label
 _atom_site_symmetry_multiplicity
 _atom_site_fract_x
 _atom_site_fract_y
 _atom_site_fract_z
 _atom_site_occupancy
  K  K0  1  0.82030600  0.82030600  0.17969400  1
  K  K1  1  0.17969400  0.17969400  0.82030600  1
  K  K2  1  0.42969400  0.42969400  0.07030600  1
  K  K3  1  0.07030600  0.07030600  0.42969400  1
  Ta  Ta0  1  0.00000000  0.00000000  0.00000000  1
  Ta  Ta1  1  0.25000000  0.25000000  0.25000000  1
  Cu  Cu0  1  0.75000000  0.75000000  0.75000000  1
  Cu  Cu1  1  0.50000000  0.50000000  0.50000000  1
  Se  Se0  1  0.16544200  0.44822900  0.53858400  1
  Se  Se1  1  0.40225500  0.71141600  0.80177100  1
  Se  Se2  1  0.71141600  0.40225500  0.08455800  1
  Se  Se3  1  0.80177100  0.08455800  0.40225500  1
  Se  Se4  1  0.53858400  0.84774500  0.16544200  1
  Se  Se5  1  0.44822900  0.16544200  0.84774500  1
  Se  Se6  1  0.08455800  0.80177100  0.71141600  1
  Se  Se7  1  0.84774500  0.53858400  0.44822900  1
loop_
_geom_bond_atom_site_label_1
_geom_bond_atom_site_label_2
_geom_bond_distance
_geom_bond_site_symmetry_2
K0 Se5 3.522225 1_654
K0 Se0 3.522225 1_565
K0 Se0 3.584081 1_654
K0 Se5 3.584081 1_565
K0 Se3 3.602108 1_565
K0 Se6 3.602108 1_654
K0 Se7 3.719708 1_555
K0 Se4 3.719708 1_555
K1 Se7 3.522225 1_456
K1 Se4 3.522225 1_545
K1 Se7 3.584081 1_545
K1 Se4 3.584081 1_456
K1 Se1 3.602108 1_545
K1 Se2 3.602108 1_456
K1 Se5 3.719708 1_555
K1 Se0 3.719708 1_555
K2 Se3 3.522225 1_465
K2 Se6 3.522225 1_644
K2 Se3 3.584081 1_554
K2 Se6 3.584081 1_555
K2 Se0 3.602108 1_555
K2 Se5 3.602108 1_554
K2 Se1 3.719708 1_554
K2 Se2 3.719708 1_555
K3 Se2 3.522225 1_456
K3 Se1 3.522225 1_544
K3 Se2 3.584081 1_545
K3 Se1 3.584081 1_455
K3 Se4 3.602108 1_545
K3 Se7 3.602108 1_455
K3 Se6 3.719708 1_545
K3 Se3 3.719708 1_455
Cu0 Se0 2.472051 1_655
Cu0 Se5 2.472051 1_565
Cu0 Se7 2.472051 1_555
Cu0 Se4 2.472051 1_556
Cu1 Se3 2.472051 1_555
Cu1 Se2 2.472051 1_555
Cu1 Se6 2.472051 1_555
Cu1 Se1 2.472051 1_555
Se0 Ta1 2.427190 1_555
Se1 Ta0 2.427190 1_566
Se2 Ta0 2.427190 1_655
Se3 Ta0 2.427190 1_655
Se4 Ta1 2.427190 1_565
Se5 Ta1 2.427190 1_556
Se6 Ta0 2.427190 1_566
Se7 Ta1 2.427190 1_655
