# generated using pymatgen
data_PmHgAu2
_symmetry_space_group_name_H-M   'P 1'
_cell_length_a   4.99414499
_cell_length_b   4.99414499
_cell_length_c   4.99414426
_cell_angle_alpha   59.99998539
_cell_angle_beta   59.99995625
_cell_angle_gamma   59.99998061
_symmetry_Int_Tables_number   1
_chemical_formula_structural   PmHgAu2
_chemical_formula_sum   'Pm1 Hg1 Au2'
_cell_volume   88.07813769
_cell_formula_units_Z   1
loop_
 _symmetry_equiv_pos_site_id
 _symmetry_equiv_pos_as_xyz
  1  'x, y, z'
loop_
 _atom_site_type_symbol
 _atom_site_label
 _atom_site_symmetry_multiplicity
 _atom_site_fract_x
 _atom_site_fract_y
 _atom_site_fract_z
 _atom_site_occupancy
  Pm  Pm0  1  0.75000000  0.75000000  0.75000000  1
  Hg  Hg0  1  0.25000000  0.25000000  0.25000000  1
  Au  Au0  1  0.00000000  -0.00000000  -0.00000000  1
  Au  Au1  1  0.50000100  0.50000100  0.50000100  1
loop_
_geom_bond_atom_site_label_1
_geom_bond_atom_site_label_2
_geom_bond_distance
_geom_bond_site_symmetry_2
Au0 Pm0 3.058275 1_445
Au0 Hg0 3.058275 1_554
Au0 Pm0 3.058275 1_544
Au0 Hg0 3.058275 1_455
Au0 Hg0 3.058276 1_545
Au0 Pm0 3.058276 1_454
Au0 Pm0 3.058277 1_444
Au0 Hg0 3.058277 1_555
Au1 Pm0 3.058265 1_555
Au1 Hg0 3.058271 1_556
Au1 Hg0 3.058271 1_655
Au1 Hg0 3.058272 1_565
Au1 Pm0 3.058279 1_554
Au1 Pm0 3.058279 1_455
Au1 Pm0 3.058280 1_545
Au1 Hg0 3.058289 1_555
