# generated using pymatgen
data_Cr4OF11
_symmetry_space_group_name_H-M   'P 1'
_cell_length_a   5.07503602
_cell_length_b   5.37578950
_cell_length_c   16.99463768
_cell_angle_alpha   91.72441542
_cell_angle_beta   99.20243527
_cell_angle_gamma   61.38706002
_symmetry_Int_Tables_number   1
_chemical_formula_structural   Cr4OF11
_chemical_formula_sum   'Cr8 O2 F22'
_cell_volume   401.21212526
_cell_formula_units_Z   2
loop_
 _symmetry_equiv_pos_site_id
 _symmetry_equiv_pos_as_xyz
  1  'x, y, z'
loop_
 _atom_site_type_symbol
 _atom_site_label
 _atom_site_symmetry_multiplicity
 _atom_site_fract_x
 _atom_site_fract_y
 _atom_site_fract_z
 _atom_site_occupancy
  Cr  Cr0  1  0.77405100  0.61292800  0.12805200  1
  Cr  Cr1  1  0.74406300  0.12873000  0.62473200  1
  Cr  Cr2  1  0.49831900  0.75096900  0.74993500  1
  Cr  Cr3  1  0.48533400  0.25680300  0.24724600  1
  Cr  Cr4  1  0.26513600  0.86799100  0.37739800  1
  Cr  Cr5  1  0.25072300  0.37441700  0.87522200  1
  Cr  Cr6  1  0.97762500  0.51118900  0.49572900  1
  Cr  Cr7  1  0.00515000  0.99703900  0.00109700  1
  O  O0  1  0.68403400  0.65873900  0.40709200  1
  O  O1  1  0.18684700  0.40619500  0.15751200  1
  F  F0  1  0.81612400  0.78367900  0.03405800  1
  F  F1  1  0.74385400  0.93657100  0.18798200  1
  F  F2  1  0.75116500  0.81341700  0.56237100  1
  F  F3  1  0.75855300  0.31336100  0.06304000  1
  F  F4  1  0.68495800  0.96735000  0.71729800  1
  F  F5  1  0.68470500  0.46673800  0.21798300  1
  F  F6  1  0.81230600  0.59359800  0.84365900  1
  F  F7  1  0.82000300  0.08957900  0.34009200  1
  F  F8  1  0.81300300  0.28387000  0.53196300  1
  F  F9  1  0.32581800  0.83637800  0.09339100  1
  F  F10  1  0.74443900  0.43705500  0.68783900  1
  F  F11  1  0.25477500  0.56343600  0.31314200  1
  F  F12  1  0.68887900  0.15551500  0.90732200  1
  F  F13  1  0.18363800  0.90876400  0.65633600  1
  F  F14  1  0.18274100  0.71707900  0.46800800  1
  F  F15  1  0.31331900  0.53362700  0.78251700  1
  F  F16  1  0.30754900  0.34639700  0.58966100  1
  F  F17  1  0.31466900  0.03385300  0.28344500  1
  F  F18  1  0.24635000  0.68598500  0.93785900  1
  F  F19  1  0.24136400  0.18871000  0.43818500  1
  F  F20  1  0.25341700  0.06405000  0.81213700  1
  F  F21  1  0.18708900  0.21598700  0.96769800  1
loop_
_geom_bond_atom_site_label_1
_geom_bond_atom_site_label_2
_geom_bond_distance
_geom_bond_site_symmetry_2
Cr0 O1 1.828299 1_655
Cr0 F1 1.943126 1_555
Cr0 F5 1.947897 1_555
Cr0 F3 1.951088 1_555
Cr0 F0 1.955735 1_555
Cr0 F9 1.990340 1_555
Cr1 F16 1.941388 1_555
Cr1 F13 1.947276 1_645
Cr1 F10 1.947532 1_555
Cr1 F4 1.949267 1_545
Cr1 F8 1.959233 1_555
Cr1 F2 1.960429 1_545
Cr2 F6 1.941669 1_555
Cr2 F13 1.942029 1_555
Cr2 F20 1.950521 1_565
Cr2 F15 1.951693 1_555
Cr2 F10 1.953758 1_555
Cr2 F4 1.954496 1_555
Cr3 O1 1.853357 1_555
Cr3 F17 1.942725 1_555
Cr3 F11 1.949647 1_555
Cr3 F5 1.957847 1_555
Cr3 F1 1.963248 1_545
Cr3 F7 1.987061 1_555
Cr4 O0 1.854764 1_555
Cr4 F19 1.946222 1_565
Cr4 F14 1.952003 1_555
Cr4 F11 1.957609 1_555
Cr4 F17 1.958672 1_565
Cr4 F7 1.983498 1_465
Cr5 F12 1.942016 1_555
Cr5 F6 1.942152 1_455
Cr5 F18 1.950297 1_555
Cr5 F21 1.950873 1_555
Cr5 F20 1.951555 1_555
Cr5 F15 1.953781 1_555
Cr6 O0 1.827675 1_555
Cr6 F8 1.938609 1_555
Cr6 F2 1.939175 1_555
Cr6 F14 1.955091 1_655
Cr6 F19 1.961487 1_655
Cr6 F16 1.986493 1_655
Cr7 F9 1.942541 1_555
Cr7 F12 1.948266 1_464
Cr7 F18 1.949790 1_554
Cr7 F21 1.951632 1_564
Cr7 F0 1.952952 1_455
Cr7 F3 1.959947 1_465
