# generated using pymatgen
data_Li2AlCoO4
_symmetry_space_group_name_H-M   'P 1'
_cell_length_a   5.89323100
_cell_length_b   5.31354600
_cell_length_c   10.76638216
_cell_angle_alpha   72.95062461
_cell_angle_beta   90.00000000
_cell_angle_gamma   90.00000000
_symmetry_Int_Tables_number   1
_chemical_formula_structural   Li2AlCoO4
_chemical_formula_sum   'Li8 Al4 Co4 O16'
_cell_volume   322.32160555
_cell_formula_units_Z   4
loop_
 _symmetry_equiv_pos_site_id
 _symmetry_equiv_pos_as_xyz
  1  'x, y, z'
loop_
 _atom_site_type_symbol
 _atom_site_label
 _atom_site_symmetry_multiplicity
 _atom_site_fract_x
 _atom_site_fract_y
 _atom_site_fract_z
 _atom_site_occupancy
  Li  Li0  1  0.33484500  0.92592400  0.19391400  1
  Li  Li1  1  0.16515500  0.92592400  0.69391400  1
  Li  Li2  1  0.15826600  0.70174100  0.43173600  1
  Li  Li3  1  0.34173400  0.70174100  0.93173600  1
  Li  Li4  1  0.65826600  0.29825900  0.06826400  1
  Li  Li5  1  0.84173400  0.29825900  0.56826400  1
  Li  Li6  1  0.83484500  0.07407600  0.30608600  1
  Li  Li7  1  0.66515500  0.07407600  0.80608600  1
  Al  Al0  1  0.83391100  0.82073800  0.06091400  1
  Al  Al1  1  0.66608900  0.82073800  0.56091400  1
  Al  Al2  1  0.33391100  0.17926200  0.43908600  1
  Al  Al3  1  0.16608900  0.17926200  0.93908600  1
  Co  Co0  1  0.17544000  0.42577100  0.18147800  1
  Co  Co1  1  0.67544000  0.57422900  0.31852200  1
  Co  Co2  1  0.32456000  0.42577100  0.68147800  1
  Co  Co3  1  0.82456000  0.57422900  0.81852200  1
  O  O0  1  0.67020700  0.91939500  0.17968100  1
  O  O1  1  0.82979300  0.91939500  0.67968100  1
  O  O2  1  0.14402000  0.82581400  0.05880400  1
  O  O3  1  0.35598000  0.82581400  0.55880400  1
  O  O4  1  0.81334600  0.69018200  0.44245100  1
  O  O5  1  0.34527600  0.53139400  0.31597600  1
  O  O6  1  0.68665400  0.69018200  0.94245100  1
  O  O7  1  0.15472400  0.53139400  0.81597600  1
  O  O8  1  0.84527600  0.46860600  0.18402400  1
  O  O9  1  0.31334600  0.30981800  0.05754900  1
  O  O10  1  0.65472400  0.46860600  0.68402400  1
  O  O11  1  0.18665400  0.30981800  0.55754900  1
  O  O12  1  0.64402000  0.17418600  0.44119600  1
  O  O13  1  0.85598000  0.17418600  0.94119600  1
  O  O14  1  0.17020700  0.08060500  0.32031900  1
  O  O15  1  0.32979300  0.08060500  0.82031900  1
loop_
_geom_bond_atom_site_label_1
_geom_bond_atom_site_label_2
_geom_bond_distance
_geom_bond_site_symmetry_2
Li0 O0 1.983387 1_555
Li0 O2 2.029129 1_555
Li0 O14 2.030994 1_565
Li0 O5 2.123682 1_555
Li0 O9 2.139241 1_565
Li1 O1 1.983387 1_455
Li1 O3 2.029129 1_555
Li1 O15 2.030994 1_565
Li1 O7 2.123682 1_555
Li1 O11 2.139241 1_565
Li2 O14 2.020016 1_565
Li2 O4 2.035870 1_455
Li2 O3 2.047618 1_555
Li2 O5 2.061240 1_555
Li2 O11 2.132014 1_555
Li3 O15 2.020016 1_565
Li3 O6 2.035870 1_555
Li3 O2 2.047618 1_556
Li3 O7 2.061240 1_555
Li3 O9 2.132014 1_556
Li4 O0 2.020016 1_545
Li4 O9 2.035870 1_555
Li4 O13 2.047618 1_554
Li4 O8 2.061240 1_555
Li4 O6 2.132014 1_554
Li5 O1 2.020016 1_545
Li5 O11 2.035870 1_655
Li5 O12 2.047618 1_555
Li5 O10 2.061240 1_555
Li5 O4 2.132014 1_555
Li6 O14 1.983387 1_655
Li6 O12 2.029129 1_555
Li6 O0 2.030994 1_545
Li6 O8 2.123682 1_555
Li6 O4 2.139241 1_545
Li7 O15 1.983387 1_555
Li7 O13 2.029129 1_555
Li7 O1 2.030994 1_545
Li7 O10 2.123682 1_555
Li7 O6 2.139241 1_545
Al0 O0 1.798237 1_555
Al0 O2 1.827786 1_655
Al0 O6 1.838442 1_554
Al0 O13 1.945739 1_564
Al0 O8 1.951396 1_555
Al1 O1 1.798237 1_555
Al1 O3 1.827786 1_555
Al1 O4 1.838442 1_555
Al1 O12 1.945739 1_565
Al1 O10 1.951396 1_555
Al2 O14 1.798237 1_555
Al2 O12 1.827786 1_555
Al2 O11 1.838442 1_555
Al2 O3 1.945739 1_545
Al2 O5 1.951396 1_555
Al3 O15 1.798237 1_555
Al3 O13 1.827786 1_455
Al3 O9 1.838442 1_556
Al3 O2 1.945739 1_546
Al3 O7 1.951396 1_555
Co0 O9 1.817259 1_555
Co0 O8 1.960125 1_455
Co0 O5 1.972353 1_555
Co0 O14 1.997886 1_555
Co0 O2 2.156568 1_555
Co1 O4 1.817259 1_555
Co1 O5 1.960125 1_555
Co1 O8 1.972353 1_555
Co1 O0 1.997886 1_555
Co1 O12 2.156568 1_555
Co2 O11 1.817259 1_555
Co2 O10 1.960125 1_555
Co2 O7 1.972353 1_555
Co2 O15 1.997886 1_555
Co2 O3 2.156568 1_555
Co3 O6 1.817259 1_555
Co3 O7 1.960125 1_655
Co3 O10 1.972353 1_555
Co3 O1 1.997886 1_555
Co3 O13 2.156568 1_555
