# generated using pymatgen
data_Ti2RePd
_symmetry_space_group_name_H-M   'P 1'
_cell_length_a   4.41442863
_cell_length_b   4.41442863
_cell_length_c   4.41442863
_cell_angle_alpha   60.00000000
_cell_angle_beta   60.00000000
_cell_angle_gamma   60.00000000
_symmetry_Int_Tables_number   1
_chemical_formula_structural   Ti2RePd
_chemical_formula_sum   'Ti2 Re1 Pd1'
_cell_volume   60.82869534
_cell_formula_units_Z   1
loop_
 _symmetry_equiv_pos_site_id
 _symmetry_equiv_pos_as_xyz
  1  'x, y, z'
loop_
 _atom_site_type_symbol
 _atom_site_label
 _atom_site_symmetry_multiplicity
 _atom_site_fract_x
 _atom_site_fract_y
 _atom_site_fract_z
 _atom_site_occupancy
  Ti  Ti0  1  0.00000000  -0.00000000  0.00000000  1
  Ti  Ti1  1  0.50000000  0.50000000  0.50000000  1
  Re  Re0  1  0.75000000  0.75000000  0.75000000  1
  Pd  Pd0  1  0.25000000  0.25000000  0.25000000  1
loop_
_geom_bond_atom_site_label_1
_geom_bond_atom_site_label_2
_geom_bond_distance
_geom_bond_site_symmetry_2
Re0 Ti0 2.703274 1_566
Re0 Ti0 2.703274 1_665
Re0 Ti0 2.703274 1_656
Re0 Ti1 2.703274 1_555
Re0 Ti1 2.703274 1_556
Re0 Ti0 2.703274 1_666
Re0 Ti1 2.703274 1_565
Re0 Ti1 2.703274 1_655
Pd0 Ti1 2.703274 1_545
Pd0 Ti0 2.703274 1_565
Pd0 Ti0 2.703274 1_655
Pd0 Ti1 2.703274 1_455
Pd0 Ti1 2.703274 1_555
Pd0 Ti1 2.703274 1_554
Pd0 Ti0 2.703274 1_556
Pd0 Ti0 2.703274 1_555
