# generated using pymatgen
data_Li4Fe3Co3(TeO8)2
_symmetry_space_group_name_H-M   'P 1'
_cell_length_a   5.99068922
_cell_length_b   5.99068922
_cell_length_c   9.75046227
_cell_angle_alpha   89.44070377
_cell_angle_beta   89.44070377
_cell_angle_gamma   59.81837832
_symmetry_Int_Tables_number   1
_chemical_formula_structural   Li4Fe3Co3(TeO8)2
_chemical_formula_sum   'Li4 Fe3 Co3 Te2 O16'
_cell_volume   302.47128168
_cell_formula_units_Z   1
loop_
 _symmetry_equiv_pos_site_id
 _symmetry_equiv_pos_as_xyz
  1  'x, y, z'
loop_
 _atom_site_type_symbol
 _atom_site_label
 _atom_site_symmetry_multiplicity
 _atom_site_fract_x
 _atom_site_fract_y
 _atom_site_fract_z
 _atom_site_occupancy
  Li  Li0  1  0.66489600  0.66489600  0.91089900  1
  Li  Li1  1  0.00161100  0.00161100  0.98644200  1
  Li  Li2  1  0.00486000  0.00486000  0.48265700  1
  Li  Li3  1  0.33345200  0.33345200  0.41078700  1
  Fe  Fe0  1  0.82998000  0.82998000  0.21421900  1
  Fe  Fe1  1  0.65915600  0.16888100  0.71271600  1
  Fe  Fe2  1  0.16888100  0.65915600  0.71271600  1
  Co  Co0  1  0.82490100  0.34437500  0.21046000  1
  Co  Co1  1  0.34437500  0.82490100  0.21046000  1
  Co  Co2  1  0.17272800  0.17272800  0.71205100  1
  Te  Te0  1  0.66474000  0.66474000  0.48245000  1
  Te  Te1  1  0.33086000  0.33086000  0.98512900  1
  O  O0  1  0.82546200  0.34272400  0.58909000  1
  O  O1  1  0.51881300  0.51881300  0.35170100  1
  O  O2  1  0.66794100  0.66794100  0.11305300  1
  O  O3  1  0.00304300  0.00304300  0.29208900  1
  O  O4  1  0.99730800  0.99730800  0.79731000  1
  O  O5  1  0.34272400  0.82546200  0.58909000  1
  O  O6  1  0.96327900  0.52465000  0.35346200  1
  O  O7  1  0.52465000  0.96327900  0.35346200  1
  O  O8  1  0.16887400  0.16887400  0.09005800  1
  O  O9  1  0.82676400  0.82676400  0.59299500  1
  O  O10  1  0.48746100  0.03726600  0.85531200  1
  O  O11  1  0.03726600  0.48746100  0.85531200  1
  O  O12  1  0.34057800  0.34057800  0.60924400  1
  O  O13  1  0.65414500  0.16893700  0.09156500  1
  O  O14  1  0.48028600  0.48028600  0.85213800  1
  O  O15  1  0.16893700  0.65414500  0.09156500  1
loop_
_geom_bond_atom_site_label_1
_geom_bond_atom_site_label_2
_geom_bond_distance
_geom_bond_site_symmetry_2
Li0 O2 1.971705 1_556
Li0 O11 2.000835 1_655
Li0 O10 2.000835 1_565
Li0 O14 2.007246 1_555
Li1 O4 1.845169 1_445
Li1 O8 2.019377 1_556
Li1 O13 2.066089 1_456
Li1 O15 2.066089 1_546
Li2 O3 1.858434 1_555
Li2 O5 2.039791 1_545
Li2 O0 2.039791 1_455
Li2 O9 2.129275 1_445
Li3 O12 1.937295 1_555
Li3 O6 1.999953 1_455
Li3 O7 1.999953 1_545
Li3 O1 2.003229 1_555
Fe0 O3 1.959024 1_665
Fe0 O2 1.960228 1_555
Fe0 O7 2.081044 1_555
Fe0 O6 2.081044 1_555
Fe0 O15 2.118872 1_655
Fe0 O13 2.118872 1_565
Fe1 O12 1.939524 1_555
Fe1 O4 1.939847 1_545
Fe1 O10 2.092583 1_555
Fe1 O14 2.118388 1_555
Fe1 O0 2.127325 1_555
Fe1 O9 2.127445 1_545
Fe2 O12 1.939524 1_555
Fe2 O4 1.939847 1_455
Fe2 O11 2.092583 1_555
Fe2 O14 2.118388 1_555
Fe2 O5 2.127325 1_555
Fe2 O9 2.127445 1_455
Co0 O2 1.921556 1_555
Co0 O3 1.935015 1_655
Co0 O1 2.098351 1_555
Co0 O8 2.127982 1_655
Co0 O13 2.150090 1_555
Co0 O6 2.179419 1_555
Co1 O2 1.921556 1_555
Co1 O3 1.935015 1_565
Co1 O1 2.098351 1_555
Co1 O8 2.127982 1_565
Co1 O15 2.150090 1_555
Co1 O7 2.179419 1_555
Co2 O4 1.994021 1_445
Co2 O12 2.001085 1_555
Co2 O10 2.157678 1_555
Co2 O11 2.157678 1_555
Co2 O0 2.167272 1_455
Co2 O5 2.167272 1_545
O0 Te0 1.960210 1_555
O1 Te0 1.991401 1_555
O5 Te0 1.960210 1_555
O6 Te0 1.988014 1_555
O7 Te0 1.988014 1_555
O8 Te1 1.959138 1_554
O9 Te0 2.008534 1_555
O10 Te1 1.984183 1_555
O11 Te1 1.984183 1_555
O13 Te1 1.974694 1_554
O14 Te1 2.011100 1_555
O15 Te1 1.974694 1_554
