# generated using pymatgen
data_Li5Fe5Si7O24
_symmetry_space_group_name_H-M   'P 1'
_cell_length_a   7.84870200
_cell_length_b   7.97702760
_cell_length_c   9.31845203
_cell_angle_alpha   89.67185008
_cell_angle_beta   89.95866271
_cell_angle_gamma   89.65740242
_symmetry_Int_Tables_number   1
_chemical_formula_structural   Li5Fe5Si7O24
_chemical_formula_sum   'Li5 Fe5 Si7 O24'
_cell_volume   583.40173937
_cell_formula_units_Z   1
loop_
 _symmetry_equiv_pos_site_id
 _symmetry_equiv_pos_as_xyz
  1  'x, y, z'
loop_
 _atom_site_type_symbol
 _atom_site_label
 _atom_site_symmetry_multiplicity
 _atom_site_fract_x
 _atom_site_fract_y
 _atom_site_fract_z
 _atom_site_occupancy
  Li  Li0  1  0.30115400  0.57725900  0.74587000  1
  Li  Li1  1  0.75601700  0.50026100  0.24884000  1
  Li  Li2  1  0.53770200  0.25454900  0.28006500  1
  Li  Li3  1  0.02731800  0.23885800  0.96604400  1
  Li  Li4  1  0.24343700  0.99860000  0.00460900  1
  Fe  Fe0  1  0.17092600  0.61522100  0.00267800  1
  Fe  Fe1  1  0.41797400  0.43326500  0.50624600  1
  Fe  Fe2  1  0.11555000  0.32210400  0.25889500  1
  Fe  Fe3  1  0.62466700  0.17748700  0.99725100  1
  Fe  Fe4  1  0.91409500  0.06478300  0.73033000  1
  Si  Si0  1  0.07044700  0.91125500  0.25366100  1
  Si  Si1  1  0.66686300  0.87850200  0.25071200  1
  Si  Si2  1  0.36812000  0.84610000  0.48866700  1
  Si  Si3  1  0.87807600  0.65698900  0.75708500  1
  Si  Si4  1  0.59527400  0.58838500  0.00774700  1
  Si  Si5  1  0.83156800  0.38177700  0.50779600  1
  Si  Si6  1  0.33307300  0.12821300  0.74017300  1
  O  O0  1  0.37504300  0.99117300  0.61263500  1
  O  O1  1  0.87008700  0.87285100  0.29602400  1
  O  O2  1  0.54197600  0.85559500  0.38982100  1
  O  O3  1  0.85545300  0.84545300  0.69882100  1
  O  O4  1  0.19411500  0.87764900  0.39279500  1
  O  O5  1  0.13917800  0.80265400  0.11649800  1
  O  O6  1  0.64184500  0.71120000  0.14726200  1
  O  O7  1  0.74025200  0.61608000  0.88638000  1
  O  O8  1  0.36423800  0.65843300  0.56040200  1
  O  O9  1  0.07295700  0.62360900  0.81673800  1
  O  O10  1  0.40585400  0.62122600  0.94125700  1
  O  O11  1  0.83858200  0.52716200  0.62809300  1
  O  O12  1  0.08690500  0.42027400  0.07713000  1
  O  O13  1  0.64095300  0.39083800  0.43150500  1
  O  O14  1  0.94857100  0.43142300  0.36784300  1
  O  O15  1  0.61555100  0.40082700  0.08331300  1
  O  O16  1  0.32730600  0.34282300  0.34125700  1
  O  O17  1  0.36054900  0.32044800  0.67997100  1
  O  O18  1  0.87652000  0.19907600  0.56989500  1
  O  O19  1  0.82361000  0.15356900  0.90194100  1
  O  O20  1  0.09439400  0.10016200  0.18674100  1
  O  O21  1  0.44453300  0.09253100  0.88720700  1
  O  O22  1  0.14182300  0.09904400  0.80884300  1
  O  O23  1  0.61091800  0.05491700  0.17537500  1
loop_
_geom_bond_atom_site_label_1
_geom_bond_atom_site_label_2
_geom_bond_distance
_geom_bond_site_symmetry_2
Li0 O8 1.908181 1_555
Li0 O9 1.942637 1_555
Li0 O10 2.031300 1_555
Li0 O17 2.189452 1_555
Li1 O14 1.949562 1_555
Li1 O15 2.061721 1_555
Li1 O13 2.113059 1_555
Li1 O6 2.120205 1_555
Li2 O16 1.880754 1_555
Li2 O23 1.955485 1_555
Li2 O13 1.964662 1_555
Li2 O15 2.253610 1_555
Li3 O19 1.842563 1_455
Li3 O12 1.846750 1_556
Li3 O22 2.049940 1_555
Li3 O20 2.387298 1_556
Li4 O5 2.048235 1_555
Li4 O21 2.061967 1_564
Li4 O22 2.140937 1_564
Li4 O20 2.215126 1_565
Fe0 O12 1.825865 1_555
Fe0 O5 1.853603 1_555
Fe0 O9 1.896804 1_554
Fe0 O10 1.931059 1_554
Fe1 O16 1.846907 1_555
Fe1 O17 1.902845 1_555
Fe1 O13 1.912147 1_555
Fe1 O8 1.913060 1_555
Fe2 O16 1.839893 1_555
Fe2 O14 1.871706 1_455
Fe2 O12 1.875074 1_555
Fe2 O20 1.905625 1_555
Fe3 O19 1.805459 1_555
Fe3 O21 1.879146 1_555
Fe3 O23 1.924867 1_556
Fe3 O15 1.958848 1_556
Fe4 O3 1.837081 1_545
Fe4 O18 1.856913 1_555
Fe4 O19 1.889069 1_555
Fe4 O22 1.953118 1_655
O0 Si2 1.640976 1_555
O0 Si6 1.651053 1_565
O1 Si1 1.650569 1_555
O1 Si0 1.651099 1_655
O2 Si1 1.634663 1_555
O2 Si2 1.647650 1_555
O3 Si3 1.604387 1_555
O4 Si0 1.640019 1_555
O4 Si2 1.649760 1_555
O5 Si0 1.637456 1_555
O6 Si1 1.663451 1_555
O6 Si4 1.674258 1_555
O7 Si4 1.618932 1_556
O7 Si3 1.651092 1_555
O8 Si2 1.636430 1_555
O9 Si3 1.647459 1_455
O10 Si4 1.630217 1_556
O11 Si5 1.618756 1_555
O11 Si3 1.622367 1_555
O13 Si5 1.657870 1_555
O14 Si5 1.642453 1_555
O15 Si4 1.656772 1_555
O17 Si6 1.645191 1_555
O18 Si5 1.602456 1_555
O20 Si0 1.639342 1_545
O21 Si6 1.648593 1_555
O22 Si6 1.648602 1_555
O23 Si1 1.627201 1_545
