# generated using pymatgen
data_NaLi3Ti2Fe2(PO4)6
_symmetry_space_group_name_H-M   'P 1'
_cell_length_a   8.96034305
_cell_length_b   8.96034305
_cell_length_c   8.96034244
_cell_angle_alpha   56.44548382
_cell_angle_beta   56.44548382
_cell_angle_gamma   56.44548344
_symmetry_Int_Tables_number   1
_chemical_formula_structural   NaLi3Ti2Fe2(PO4)6
_chemical_formula_sum   'Na1 Li3 Ti2 Fe2 P6 O24'
_cell_volume   466.89263084
_cell_formula_units_Z   1
loop_
 _symmetry_equiv_pos_site_id
 _symmetry_equiv_pos_as_xyz
  1  'x, y, z'
loop_
 _atom_site_type_symbol
 _atom_site_label
 _atom_site_symmetry_multiplicity
 _atom_site_fract_x
 _atom_site_fract_y
 _atom_site_fract_z
 _atom_site_occupancy
  Na  Na0  1  0.49550600  0.49550600  0.49550600  1
  Li  Li0  1  0.26148900  0.92242400  0.67461100  1
  Li  Li1  1  0.67461100  0.26148900  0.92242400  1
  Li  Li2  1  0.92242400  0.67461100  0.26148900  1
  Ti  Ti0  1  0.85326000  0.85326000  0.85326000  1
  Ti  Ti1  1  0.14263500  0.14263500  0.14263500  1
  Fe  Fe0  1  0.35393700  0.35393700  0.35393700  1
  Fe  Fe1  1  0.65246200  0.65246200  0.65246200  1
  P  P0  1  0.24875600  0.53588800  0.96795800  1
  P  P1  1  0.04277400  0.74967100  0.46006100  1
  P  P2  1  0.46006100  0.04277400  0.74967100  1
  P  P3  1  0.53588800  0.96795800  0.24875600  1
  P  P4  1  0.96795800  0.24875600  0.53588800  1
  P  P5  1  0.74967100  0.46006100  0.04277400  1
  O  O0  1  0.46968900  0.86308800  0.75278000  1
  O  O1  1  0.75278000  0.46968900  0.86308800  1
  O  O2  1  0.19498500  0.38175100  0.00098300  1
  O  O3  1  0.11526900  0.74048800  0.87754300  1
  O  O4  1  0.26682400  0.11019000  0.90077700  1
  O  O5  1  0.86308800  0.75278000  0.46968900  1
  O  O6  1  0.99363800  0.80512600  0.62289500  1
  O  O7  1  0.45869500  0.50799700  0.82304700  1
  O  O8  1  0.20139800  0.55092700  0.47999100  1
  O  O9  1  0.62289500  0.99363800  0.80512600  1
  O  O10  1  0.11019000  0.90077700  0.26682400  1
  O  O11  1  0.47999100  0.20139800  0.55092700  1
  O  O12  1  0.50799700  0.82304700  0.45869500  1
  O  O13  1  0.87754300  0.11526900  0.74048800  1
  O  O14  1  0.38175100  0.00098300  0.19498500  1
  O  O15  1  0.82304700  0.45869500  0.50799700  1
  O  O16  1  0.55092700  0.47999100  0.20139800  1
  O  O17  1  0.00098300  0.19498500  0.38175100  1
  O  O18  1  0.16245600  0.21335800  0.52805900  1
  O  O19  1  0.74048800  0.87754300  0.11526900  1
  O  O20  1  0.90077700  0.26682400  0.11019000  1
  O  O21  1  0.80512600  0.62289500  0.99363800  1
  O  O22  1  0.21335800  0.52805900  0.16245600  1
  O  O23  1  0.52805900  0.16245600  0.21335800  1
loop_
_geom_bond_atom_site_label_1
_geom_bond_atom_site_label_2
_geom_bond_distance
_geom_bond_site_symmetry_2
Na0 O16 2.468355 1_555
Na0 O8 2.468355 1_555
Na0 O11 2.468355 1_555
Na0 O7 2.826132 1_555
Na0 O15 2.826133 1_555
Na0 O12 2.826133 1_555
Li0 O3 2.032523 1_555
Li0 O0 2.046915 1_555
Li0 O18 2.062585 1_565
Li0 O12 2.102586 1_555
Li1 O13 2.032523 1_555
Li1 O1 2.046915 1_555
Li1 O23 2.062585 1_556
Li1 O7 2.102586 1_555
Li2 O19 2.032523 1_555
Li2 O5 2.046915 1_555
Li2 O22 2.062585 1_655
Li2 O15 2.102586 1_555
Fe0 O11 2.022327 1_555
Fe0 O8 2.022327 1_555
Fe0 O16 2.022327 1_555
Fe0 O22 2.054760 1_555
Fe0 O23 2.054760 1_555
Fe0 O18 2.054760 1_555
Fe1 O1 1.970566 1_555
Fe1 O0 1.970566 1_555
Fe1 O5 1.970566 1_555
Fe1 O12 2.095219 1_555
Fe1 O15 2.095219 1_555
Fe1 O7 2.095219 1_555
O0 P2 1.549194 1_565
O1 P5 1.549193 1_556
O2 P0 1.534080 1_554
O2 Ti1 1.966775 1_555
O3 P0 1.566276 1_555
O3 Ti0 2.068630 1_455
O4 P2 1.533764 1_555
O4 Ti1 1.921519 1_556
O5 P1 1.549194 1_655
O6 P1 1.555330 1_655
O6 Ti0 1.882324 1_555
O7 P0 1.557546 1_555
O8 P1 1.534386 1_555
O9 P2 1.555330 1_565
O9 Ti0 1.882324 1_555
O10 P1 1.533764 1_555
O10 Ti1 1.921519 1_565
O11 P2 1.534386 1_555
O12 P3 1.557546 1_555
O13 P4 1.566276 1_555
O13 Ti0 2.068630 1_545
O14 P3 1.534080 1_545
O14 Ti1 1.966775 1_555
O15 P4 1.557546 1_555
O16 P5 1.534386 1_555
O17 P4 1.534080 1_455
O17 Ti1 1.966775 1_555
O18 P4 1.556005 1_455
O19 P3 1.566276 1_555
O19 Ti0 2.068630 1_554
O20 P5 1.533764 1_555
O20 Ti1 1.921519 1_655
O21 P5 1.555330 1_556
O21 Ti0 1.882324 1_555
O22 P0 1.556004 1_554
O23 P3 1.556005 1_545
