# generated using pymatgen
data_LiHo2Rh
_symmetry_space_group_name_H-M   'P 1'
_cell_length_a   4.89210217
_cell_length_b   4.89210217
_cell_length_c   4.89210217
_cell_angle_alpha   59.78916459
_cell_angle_beta   59.78916459
_cell_angle_gamma   59.78916459
_symmetry_Int_Tables_number   1
_chemical_formula_structural   LiHo2Rh
_chemical_formula_sum   'Li1 Ho2 Rh1'
_cell_volume   82.39252849
_cell_formula_units_Z   1
loop_
 _symmetry_equiv_pos_site_id
 _symmetry_equiv_pos_as_xyz
  1  'x, y, z'
loop_
 _atom_site_type_symbol
 _atom_site_label
 _atom_site_symmetry_multiplicity
 _atom_site_fract_x
 _atom_site_fract_y
 _atom_site_fract_z
 _atom_site_occupancy
  Li  Li0  1  0.24991416  0.24991416  0.24991416  1
  Ho  Ho0  1  0.00032880  0.00032880  0.00032880  1
  Ho  Ho1  1  0.49967875  0.49967875  0.49967875  1
  Rh  Rh0  1  0.75007829  0.75007829  0.75007829  1
loop_
_geom_bond_atom_site_label_1
_geom_bond_atom_site_label_2
_geom_bond_distance
_geom_bond_site_symmetry_2
Ho0 Rh0 2.986826 1_544
Ho0 Rh0 2.986826 1_454
Ho0 Rh0 2.986826 1_445
Ho0 Li0 2.989500 1_545
Ho0 Li0 2.989500 1_455
Ho0 Li0 2.989500 1_554
Ho0 Li0 2.995577 1_555
Ho0 Rh0 3.003560 1_444
Ho1 Rh0 2.986229 1_554
Ho1 Rh0 2.986229 1_455
Ho1 Rh0 2.986229 1_545
Ho1 Li0 2.988778 1_655
Ho1 Li0 2.988778 1_556
Ho1 Li0 2.988778 1_565
Ho1 Li0 2.997728 1_555
Ho1 Rh0 3.005348 1_555
