# generated using pymatgen
data_KAl11O17
_symmetry_space_group_name_H-M   'P 1'
_cell_length_a   5.64925062
_cell_length_b   5.64925062
_cell_length_c   22.90910700
_cell_angle_alpha   90.00000000
_cell_angle_beta   90.00000000
_cell_angle_gamma   119.92569752
_symmetry_Int_Tables_number   1
_chemical_formula_structural   KAl11O17
_chemical_formula_sum   'K2 Al22 O34'
_cell_volume   633.64374889
_cell_formula_units_Z   2
loop_
 _symmetry_equiv_pos_site_id
 _symmetry_equiv_pos_as_xyz
  1  'x, y, z'
loop_
 _atom_site_type_symbol
 _atom_site_label
 _atom_site_symmetry_multiplicity
 _atom_site_fract_x
 _atom_site_fract_y
 _atom_site_fract_z
 _atom_site_occupancy
  K  K0  1  0.81554300  0.18445700  0.75000000  1
  K  K1  1  0.18445700  0.81554300  0.25000000  1
  Al  Al0  1  0.66742800  0.33257200  0.89432100  1
  Al  Al1  1  0.66742800  0.33257200  0.60567900  1
  Al  Al2  1  0.83185900  0.16814100  0.17525500  1
  Al  Al3  1  0.83331600  0.16668400  0.02477900  1
  Al  Al4  1  0.50000000  0.50000000  0.00000000  1
  Al  Al5  1  0.83185900  0.16814100  0.32474500  1
  Al  Al6  1  0.50000000  0.50000000  0.50000000  1
  Al  Al7  1  0.83331600  0.16668400  0.47522100  1
  Al  Al8  1  0.66834600  0.83480500  0.60642200  1
  Al  Al9  1  0.66834600  0.83480500  0.89357800  1
  Al  Al10  1  0.16519500  0.33165400  0.89357800  1
  Al  Al11  1  0.16519500  0.33165400  0.60642200  1
  Al  Al12  1  0.83480500  0.66834600  0.39357800  1
  Al  Al13  1  0.83480500  0.66834600  0.10642200  1
  Al  Al14  1  0.33165400  0.16519500  0.39357800  1
  Al  Al15  1  0.16814100  0.83185900  0.67525500  1
  Al  Al16  1  0.16814100  0.83185900  0.82474500  1
  Al  Al17  1  0.16668400  0.83331600  0.52477900  1
  Al  Al18  1  0.16668400  0.83331600  0.97522100  1
  Al  Al19  1  0.33165400  0.16519500  0.10642200  1
  Al  Al20  1  0.33257200  0.66742800  0.10567900  1
  Al  Al21  1  0.33257200  0.66742800  0.39432100  1
  O  O0  1  0.65700800  0.34299200  0.04942200  1
  O  O1  1  0.65700800  0.34299200  0.45057800  1
  O  O2  1  0.50516200  0.00306300  0.64468400  1
  O  O3  1  0.50516200  0.00306300  0.85531600  1
  O  O4  1  0.82145300  0.17854700  0.25000000  1
  O  O5  1  0.65722000  0.81419200  0.45043000  1
  O  O6  1  0.49979300  0.50020700  0.14092300  1
  O  O7  1  0.49979300  0.50020700  0.35907700  1
  O  O8  1  0.83402800  0.16597200  0.55521700  1
  O  O9  1  0.50020700  0.49979300  0.85907700  1
  O  O10  1  0.50020700  0.49979300  0.64092300  1
  O  O11  1  0.83402800  0.16597200  0.94478300  1
  O  O12  1  0.65722000  0.81419200  0.04957000  1
  O  O13  1  0.99693700  0.49483800  0.85531600  1
  O  O14  1  0.99693700  0.49483800  0.64468400  1
  O  O15  1  0.81419200  0.65722000  0.54957000  1
  O  O16  1  0.81419200  0.65722000  0.95043000  1
  O  O17  1  0.99799400  0.00200600  0.64584900  1
  O  O18  1  0.99799400  0.00200600  0.85415100  1
  O  O19  1  0.00200600  0.99799400  0.35415100  1
  O  O20  1  0.00200600  0.99799400  0.14584900  1
  O  O21  1  0.18580800  0.34278000  0.04957000  1
  O  O22  1  0.18580800  0.34278000  0.45043000  1
  O  O23  1  0.00306300  0.50516200  0.35531600  1
  O  O24  1  0.16597200  0.83402800  0.44478300  1
  O  O25  1  0.00306300  0.50516200  0.14468400  1
  O  O26  1  0.34278000  0.18580800  0.95043000  1
  O  O27  1  0.34278000  0.18580800  0.54957000  1
  O  O28  1  0.16597200  0.83402800  0.05521700  1
  O  O29  1  0.17854700  0.82145300  0.75000000  1
  O  O30  1  0.49483800  0.99693700  0.14468400  1
  O  O31  1  0.49483800  0.99693700  0.35531600  1
  O  O32  1  0.34299200  0.65700800  0.95057800  1
  O  O33  1  0.34299200  0.65700800  0.54942200  1
loop_
_geom_bond_atom_site_label_1
_geom_bond_atom_site_label_2
_geom_bond_distance
_geom_bond_site_symmetry_2
K0 O14 2.855330 1_555
K0 O2 2.855330 1_555
K0 O13 2.855330 1_555
K0 O3 2.855330 1_555
K0 O17 2.979553 1_555
K0 O18 2.979553 1_555
K0 O29 3.129212 1_655
K0 O29 3.129212 1_545
K1 O23 2.855330 1_555
K1 O31 2.855330 1_555
K1 O30 2.855330 1_555
K1 O25 2.855330 1_555
K1 O19 2.979553 1_555
K1 O20 2.979553 1_555
K1 O4 3.129212 1_455
K1 O4 3.129212 1_565
Al0 O9 1.824041 1_555
Al0 O13 1.844269 1_555
Al0 O3 1.844269 1_555
Al0 O11 1.997952 1_555
Al0 O16 2.046004 1_555
Al0 O26 2.046004 1_555
Al1 O10 1.824041 1_555
Al1 O14 1.844269 1_555
Al1 O2 1.844269 1_555
Al1 O8 1.997952 1_555
Al1 O27 2.046004 1_555
Al1 O15 2.046004 1_555
Al2 O4 1.715364 1_555
Al2 O30 1.792634 1_545
Al2 O25 1.792634 1_655
Al2 O20 1.795406 1_645
Al3 O0 1.814548 1_555
Al3 O12 1.816868 1_545
Al3 O21 1.816868 1_655
Al3 O11 1.832650 1_554
Al4 O32 1.907964 1_554
Al4 O0 1.907964 1_555
Al4 O26 1.912060 1_554
Al4 O12 1.912060 1_555
Al4 O21 1.912060 1_555
Al4 O16 1.912060 1_554
Al5 O4 1.715364 1_555
Al5 O31 1.792634 1_545
Al5 O23 1.792634 1_655
Al5 O19 1.795406 1_645
Al6 O33 1.907964 1_555
Al6 O1 1.907964 1_555
Al6 O5 1.912060 1_555
Al6 O27 1.912060 1_555
Al6 O15 1.912060 1_555
Al6 O22 1.912060 1_555
Al7 O1 1.814548 1_555
Al7 O5 1.816868 1_545
Al7 O22 1.816868 1_655
Al7 O8 1.832650 1_555
Al8 O10 1.820747 1_555
Al8 O2 1.842819 1_565
Al8 O17 1.849592 1_565
Al8 O8 2.001263 1_565
Al8 O15 2.050936 1_555
Al8 O33 2.061628 1_555
Al9 O9 1.820747 1_555
Al9 O3 1.842819 1_565
Al9 O18 1.849592 1_565
Al9 O11 2.001263 1_565
Al9 O16 2.050936 1_555
Al9 O32 2.061628 1_555
Al10 O9 1.820747 1_555
Al10 O13 1.842819 1_455
Al10 O18 1.849592 1_455
Al10 O11 2.001263 1_455
Al10 O26 2.050936 1_555
Al10 O32 2.061628 1_555
Al11 O10 1.820747 1_555
Al11 O14 1.842819 1_455
Al11 O17 1.849592 1_455
Al11 O8 2.001263 1_455
Al11 O27 2.050936 1_555
Al11 O33 2.061628 1_555
Al12 O7 1.820747 1_555
Al12 O23 1.842819 1_655
Al12 O19 1.849592 1_655
Al12 O24 2.001263 1_655
Al12 O5 2.050936 1_555
Al12 O1 2.061628 1_555
Al13 O6 1.820747 1_555
Al13 O25 1.842819 1_655
Al13 O20 1.849592 1_655
Al13 O28 2.001263 1_655
Al13 O12 2.050936 1_555
Al13 O0 2.061628 1_555
Al14 O7 1.820747 1_555
Al14 O31 1.842819 1_545
Al14 O19 1.849592 1_545
Al14 O24 2.001263 1_545
Al14 O22 2.050936 1_555
Al14 O1 2.061628 1_555
Al15 O29 1.715364 1_555
Al15 O14 1.792634 1_455
Al15 O2 1.792634 1_565
Al15 O17 1.795406 1_465
Al16 O29 1.715364 1_555
Al16 O13 1.792634 1_455
Al16 O3 1.792634 1_565
Al16 O18 1.795406 1_465
Al17 O33 1.814548 1_555
Al17 O15 1.816868 1_455
Al17 O27 1.816868 1_565
Al17 O24 1.832650 1_555
Al18 O32 1.814548 1_555
Al18 O16 1.816868 1_455
Al18 O26 1.816868 1_565
Al18 O28 1.832650 1_556
Al19 O6 1.820747 1_555
Al19 O30 1.842819 1_545
Al19 O20 1.849592 1_545
Al19 O28 2.001263 1_545
Al19 O21 2.050936 1_555
Al19 O0 2.061628 1_555
Al20 O6 1.824041 1_555
Al20 O30 1.844269 1_555
Al20 O25 1.844269 1_555
Al20 O28 1.997952 1_555
Al20 O21 2.046004 1_555
Al20 O12 2.046004 1_555
Al21 O7 1.824041 1_555
Al21 O31 1.844269 1_555
Al21 O23 1.844269 1_555
Al21 O24 1.997952 1_555
Al21 O22 2.046004 1_555
Al21 O5 2.046004 1_555
