# generated using pymatgen
data_Ta2CrFe
_symmetry_space_group_name_H-M   'P 1'
_cell_length_a   4.32238679
_cell_length_b   4.32238679
_cell_length_c   4.32238679
_cell_angle_alpha   60.00000000
_cell_angle_beta   60.00000000
_cell_angle_gamma   60.00000000
_symmetry_Int_Tables_number   1
_chemical_formula_structural   Ta2CrFe
_chemical_formula_sum   'Ta2 Cr1 Fe1'
_cell_volume   57.10260011
_cell_formula_units_Z   1
loop_
 _symmetry_equiv_pos_site_id
 _symmetry_equiv_pos_as_xyz
  1  'x, y, z'
loop_
 _atom_site_type_symbol
 _atom_site_label
 _atom_site_symmetry_multiplicity
 _atom_site_fract_x
 _atom_site_fract_y
 _atom_site_fract_z
 _atom_site_occupancy
  Ta  Ta0  1  -0.00000000  0.00000000  0.00000000  1
  Ta  Ta1  1  0.50000000  0.50000000  0.50000000  1
  Cr  Cr0  1  0.25000000  0.25000000  0.25000000  1
  Fe  Fe0  1  0.74999900  0.74999900  0.74999900  1
loop_
_geom_bond_atom_site_label_1
_geom_bond_atom_site_label_2
_geom_bond_distance
_geom_bond_site_symmetry_2
Cr0 Ta1 2.646911 1_455
Cr0 Ta0 2.646911 1_655
Cr0 Ta1 2.646911 1_555
Cr0 Ta1 2.646911 1_545
Cr0 Ta0 2.646911 1_565
Cr0 Ta0 2.646911 1_556
Cr0 Ta0 2.646911 1_555
Cr0 Ta1 2.646911 1_554
Fe0 Ta1 2.646900 1_555
Fe0 Ta0 2.646907 1_665
Fe0 Ta0 2.646907 1_566
Fe0 Ta0 2.646907 1_656
Fe0 Ta1 2.646914 1_565
Fe0 Ta1 2.646914 1_655
Fe0 Ta1 2.646914 1_556
Fe0 Ta0 2.646921 1_666
