# generated using pymatgen
data_Mg3Ag
_symmetry_space_group_name_H-M   'P 1'
_cell_length_a   6.11173590
_cell_length_b   6.11173671
_cell_length_c   4.88295597
_cell_angle_alpha   89.99999830
_cell_angle_beta   89.99999979
_cell_angle_gamma   120.00109611
_symmetry_Int_Tables_number   1
_chemical_formula_structural   Mg3Ag
_chemical_formula_sum   'Mg6 Ag2'
_cell_volume   157.95662997
_cell_formula_units_Z   2
loop_
 _symmetry_equiv_pos_site_id
 _symmetry_equiv_pos_as_xyz
  1  'x, y, z'
loop_
 _atom_site_type_symbol
 _atom_site_label
 _atom_site_symmetry_multiplicity
 _atom_site_fract_x
 _atom_site_fract_y
 _atom_site_fract_z
 _atom_site_occupancy
  Mg  Mg0  1  0.17123731  0.34249462  0.24999844  1
  Mg  Mg1  1  0.17125562  0.82874463  0.24999849  1
  Mg  Mg2  1  0.65750444  0.82876233  0.24999843  1
  Mg  Mg3  1  0.34249479  0.17123751  0.74999890  1
  Mg  Mg4  1  0.82874516  0.17125516  0.74999881  1
  Mg  Mg5  1  0.82876250  0.65750456  0.74999888  1
  Ag  Ag0  1  0.66666670  0.33333347  0.24999759  1
  Ag  Ag1  1  0.33333348  0.66666573  0.74999846  1
loop_
_geom_bond_atom_site_label_1
_geom_bond_atom_site_label_2
_geom_bond_distance
_geom_bond_site_symmetry_2
Mg0 Mg1 2.971776 1_555
Mg0 Mg2 2.971889 1_555
Mg0 Mg4 3.040874 1_454
Mg0 Mg4 3.040877 1_455
Mg0 Mg3 3.040963 1_554
Mg0 Mg3 3.040966 1_555
Mg0 Mg2 3.139746 1_445
Mg0 Mg1 3.139961 1_545
Mg1 Mg2 2.971770 1_555
Mg1 Mg3 3.040876 1_564
Mg1 Mg5 3.040877 1_454
Mg1 Mg3 3.040880 1_565
Mg1 Mg5 3.040880 1_455
Mg1 Mg2 3.139966 1_455
Mg2 Mg4 3.040876 1_564
Mg2 Mg4 3.040879 1_565
Mg2 Mg5 3.040967 1_554
Mg2 Mg5 3.040970 1_555
Mg3 Mg4 2.971780 1_555
Mg3 Mg5 2.971889 1_555
Mg3 Mg5 3.139746 1_445
Mg3 Mg4 3.139956 1_455
Mg4 Mg5 2.971775 1_555
Mg4 Mg5 3.139961 1_545
Ag0 Mg4 2.984052 1_554
Ag0 Mg4 2.984062 1_555
Ag0 Mg5 2.984079 1_554
Ag0 Mg3 2.984081 1_554
Ag0 Mg5 2.984089 1_555
Ag0 Mg3 2.984092 1_555
Ag0 Mg0 3.056191 1_655
Ag0 Mg2 3.056191 1_545
Ag0 Mg1 3.056203 1_545
Ag0 Mg1 3.056204 1_655
Ag0 Mg0 3.056314 1_555
Ag0 Mg2 3.056315 1_555
Ag1 Mg1 2.984057 1_555
Ag1 Mg1 2.984057 1_556
Ag1 Mg2 2.984084 1_556
Ag1 Mg2 2.984084 1_555
Ag1 Mg0 2.984084 1_556
Ag1 Mg0 2.984084 1_555
Ag1 Mg5 3.056193 1_455
Ag1 Mg3 3.056198 1_565
Ag1 Mg4 3.056200 1_455
Ag1 Mg4 3.056207 1_565
Ag1 Mg3 3.056308 1_555
Ag1 Mg5 3.056312 1_555
