# generated using pymatgen
data_Li5Ni6(P2O7)4
_symmetry_space_group_name_H-M   'P 1'
_cell_length_a   6.33505800
_cell_length_b   8.40312877
_cell_length_c   10.05845945
_cell_angle_alpha   107.80677283
_cell_angle_beta   90.45635073
_cell_angle_gamma   92.73355301
_symmetry_Int_Tables_number   1
_chemical_formula_structural   Li5Ni6(P2O7)4
_chemical_formula_sum   'Li5 Ni6 P8 O28'
_cell_volume   509.07995658
_cell_formula_units_Z   1
loop_
 _symmetry_equiv_pos_site_id
 _symmetry_equiv_pos_as_xyz
  1  'x, y, z'
loop_
 _atom_site_type_symbol
 _atom_site_label
 _atom_site_symmetry_multiplicity
 _atom_site_fract_x
 _atom_site_fract_y
 _atom_site_fract_z
 _atom_site_occupancy
  Li  Li0  1  0.01874900  0.16509700  0.60879200  1
  Li  Li1  1  0.09476400  0.60813300  0.12342200  1
  Li  Li2  1  0.50000000  0.50000000  0.50000000  1
  Li  Li3  1  0.90523600  0.39186700  0.87657800  1
  Li  Li4  1  0.98125100  0.83490300  0.39120800  1
  Ni  Ni0  1  0.00000000  0.50000000  0.50000000  1
  Ni  Ni1  1  0.30740500  0.88778000  0.64099900  1
  Ni  Ni2  1  0.35627000  0.88299100  0.06106000  1
  Ni  Ni3  1  0.50000000  0.50000000  0.00000000  1
  Ni  Ni4  1  0.64373000  0.11700900  0.93894000  1
  Ni  Ni5  1  0.69259500  0.11222000  0.35900100  1
  P  P0  1  0.15184100  0.20589600  0.01617100  1
  P  P1  1  0.18819100  0.17849700  0.30951800  1
  P  P2  1  0.26541300  0.54102700  0.74131300  1
  P  P3  1  0.47585700  0.75588700  0.32042600  1
  P  P4  1  0.52414300  0.24411300  0.67957400  1
  P  P5  1  0.73458700  0.45897300  0.25868700  1
  P  P6  1  0.81180900  0.82150300  0.69048200  1
  P  P7  1  0.84815900  0.79410400  0.98382900  1
  O  O0  1  0.04501300  0.83882700  0.07806200  1
  O  O1  1  0.01701400  0.08394800  0.36898100  1
  O  O2  1  0.07280000  0.42346700  0.73106600  1
  O  O3  1  0.07930400  0.19988100  0.16802500  1
  O  O4  1  0.22342200  0.38635900  0.02620600  1
  O  O5  1  0.24507800  0.35142200  0.40782400  1
  O  O6  1  0.25833000  0.65080300  0.64424500  1
  O  O7  1  0.30121100  0.80977400  0.42478900  1
  O  O8  1  0.34254100  0.63661500  0.89093800  1
  O  O9  1  0.32488100  0.12898000  0.65129500  1
  O  O10  1  0.32653200  0.07796600  0.96954600  1
  O  O11  1  0.39385600  0.70965500  0.16632800  1
  O  O12  1  0.38622700  0.07619500  0.26020600  1
  O  O13  1  0.45898400  0.42285200  0.66869000  1
  O  O14  1  0.54101600  0.57714800  0.33131000  1
  O  O15  1  0.61377300  0.92380500  0.73979400  1
  O  O16  1  0.60614400  0.29034500  0.83367200  1
  O  O17  1  0.67346800  0.92203400  0.03045400  1
  O  O18  1  0.67511900  0.87102000  0.34870500  1
  O  O19  1  0.65745900  0.36338500  0.10906200  1
  O  O20  1  0.69878900  0.19022600  0.57521100  1
  O  O21  1  0.74167000  0.34919700  0.35575500  1
  O  O22  1  0.75492200  0.64857800  0.59217600  1
  O  O23  1  0.77657800  0.61364100  0.97379400  1
  O  O24  1  0.92069600  0.80011900  0.83197500  1
  O  O25  1  0.92720000  0.57653300  0.26893400  1
  O  O26  1  0.98298600  0.91605200  0.63101900  1
  O  O27  1  0.95498700  0.16117300  0.92193800  1
loop_
_geom_bond_atom_site_label_1
_geom_bond_atom_site_label_2
_geom_bond_distance
_geom_bond_site_symmetry_2
Li0 O9 2.039191 1_555
Li0 O20 2.083461 1_455
Li0 O2 2.152405 1_555
Li0 O26 2.173175 1_445
Li0 O1 2.297027 1_555
Li1 O25 1.890799 1_455
Li1 O11 2.027754 1_555
Li1 O4 2.033841 1_555
Li1 O0 2.159265 1_555
Li1 O23 2.516661 1_454
Li2 O13 2.007614 1_555
Li2 O14 2.007614 1_555
Li2 O5 2.025414 1_555
Li2 O22 2.025414 1_555
Li2 O6 2.269531 1_555
Li2 O21 2.269531 1_555
Li3 O2 1.890799 1_655
Li3 O16 2.027754 1_555
Li3 O23 2.033841 1_555
Li3 O27 2.159265 1_555
Li3 O4 2.516661 1_656
Li4 O18 2.039191 1_555
Li4 O7 2.083461 1_655
Li4 O25 2.152405 1_555
Li4 O1 2.173175 1_665
Li4 O26 2.297027 1_555
Ni0 O5 2.080567 1_555
Ni0 O22 2.080567 1_455
Ni0 O21 2.242545 1_455
Ni0 O6 2.242545 1_555
Ni1 O9 1.995263 1_565
Ni1 O6 2.010986 1_555
Ni1 O7 2.070028 1_555
Ni1 O26 2.085256 1_455
Ni1 O15 2.138998 1_555
Ni2 O0 2.007357 1_555
Ni2 O17 2.061338 1_555
Ni2 O11 2.066819 1_555
Ni2 O10 2.125141 1_564
Ni2 O12 2.158653 1_565
Ni2 O8 2.244017 1_554
Ni3 O4 2.013230 1_555
Ni3 O23 2.013230 1_554
Ni3 O19 2.092450 1_555
Ni3 O8 2.092450 1_554
Ni3 O11 2.164051 1_555
Ni3 O16 2.164051 1_554
Ni4 O27 2.007357 1_555
Ni4 O10 2.061338 1_555
Ni4 O16 2.066819 1_555
Ni4 O17 2.125141 1_546
Ni4 O15 2.158653 1_545
Ni4 O19 2.244017 1_556
Ni5 O18 1.995263 1_545
Ni5 O21 2.010986 1_555
Ni5 O20 2.070028 1_555
Ni5 O1 2.085256 1_655
Ni5 O12 2.138998 1_555
O0 P7 1.521003 1_454
O1 P1 1.543931 1_555
O2 P2 1.515316 1_555
O3 P0 1.613353 1_555
O3 P1 1.638970 1_555
O4 P0 1.534769 1_555
O5 P1 1.511530 1_555
O6 P2 1.536333 1_555
O7 P3 1.518765 1_555
O8 P2 1.536371 1_555
O9 P4 1.523119 1_555
O10 P0 1.553615 1_556
O11 P3 1.556562 1_555
O12 P1 1.552729 1_555
O13 P4 1.611604 1_555
O13 P2 1.646285 1_555
O14 P3 1.611604 1_555
O14 P5 1.646285 1_555
O15 P6 1.552729 1_555
O16 P4 1.556562 1_555
O17 P7 1.553615 1_554
O18 P3 1.523119 1_555
O19 P5 1.536371 1_555
O20 P4 1.518765 1_555
O21 P5 1.536333 1_555
O22 P6 1.511530 1_555
O23 P7 1.534769 1_555
O24 P7 1.613353 1_555
O24 P6 1.638970 1_555
O25 P5 1.515316 1_555
O26 P6 1.543931 1_555
O27 P0 1.521003 1_656
