# generated using pymatgen
data_KNa2Li3Zr2(Si2O5)6
_symmetry_space_group_name_H-M   'P 1'
_cell_length_a   10.37418863
_cell_length_b   10.37418863
_cell_length_c   14.04170597
_cell_angle_alpha   90.00000000
_cell_angle_beta   90.00000000
_cell_angle_gamma   119.99999660
_symmetry_Int_Tables_number   1
_chemical_formula_structural   KNa2Li3Zr2(Si2O5)6
_chemical_formula_sum   'K2 Na4 Li6 Zr4 Si24 O60'
_cell_volume   1308.75634964
_cell_formula_units_Z   2
loop_
 _symmetry_equiv_pos_site_id
 _symmetry_equiv_pos_as_xyz
  1  'x, y, z'
loop_
 _atom_site_type_symbol
 _atom_site_label
 _atom_site_symmetry_multiplicity
 _atom_site_fract_x
 _atom_site_fract_y
 _atom_site_fract_z
 _atom_site_occupancy
  K  K0  1  -0.00000000  0.00000000  0.25000000  1
  K  K1  1  -0.00000000  0.00000000  0.75000000  1
  Na  Na0  1  0.33333300  0.66666700  -0.00000000  1
  Na  Na1  1  0.33333300  0.66666700  0.50000000  1
  Na  Na2  1  0.66666700  0.33333300  -0.00000000  1
  Na  Na3  1  0.66666700  0.33333300  0.50000000  1
  Li  Li0  1  -0.00000000  0.50000000  0.25000000  1
  Li  Li1  1  -0.00000000  0.50000000  0.75000000  1
  Li  Li2  1  0.50000000  0.50000000  0.25000000  1
  Li  Li3  1  0.50000000  0.50000000  0.75000000  1
  Li  Li4  1  0.50000000  0.00000000  0.25000000  1
  Li  Li5  1  0.50000000  0.00000000  0.75000000  1
  Zr  Zr0  1  0.33333300  0.66666700  0.25000000  1
  Zr  Zr1  1  0.33333300  0.66666700  0.75000000  1
  Zr  Zr2  1  0.66666700  0.33333300  0.25000000  1
  Zr  Zr3  1  0.66666700  0.33333300  0.75000000  1
  Si  Si0  1  0.10696483  0.76117465  0.38871334  1
  Si  Si1  1  0.10696483  0.76117465  0.61128666  1
  Si  Si2  1  0.23882535  0.89303517  0.11128666  1
  Si  Si3  1  0.23882535  0.89303517  0.88871334  1
  Si  Si4  1  0.10696483  0.34579018  0.11128666  1
  Si  Si5  1  0.10696483  0.34579018  0.88871334  1
  Si  Si6  1  0.23882535  0.34579018  0.38871334  1
  Si  Si7  1  0.23882535  0.34579018  0.61128666  1
  Si  Si8  1  0.65420982  0.89303517  0.38871334  1
  Si  Si9  1  0.65420982  0.89303517  0.61128666  1
  Si  Si10  1  0.34579018  0.23882535  0.11128666  1
  Si  Si11  1  0.34579018  0.23882535  0.88871334  1
  Si  Si12  1  0.65420982  0.76117465  0.11128666  1
  Si  Si13  1  0.65420982  0.76117465  0.88871334  1
  Si  Si14  1  0.34579018  0.10696483  0.61128666  1
  Si  Si15  1  0.34579018  0.10696483  0.38871334  1
  Si  Si16  1  0.76117465  0.65420982  0.38871334  1
  Si  Si17  1  0.76117465  0.65420982  0.61128666  1
  Si  Si18  1  0.89303517  0.65420982  0.88871334  1
  Si  Si19  1  0.89303517  0.65420982  0.11128666  1
  Si  Si20  1  0.76117465  0.10696483  0.11128666  1
  Si  Si21  1  0.76117465  0.10696483  0.88871334  1
  Si  Si22  1  0.89303517  0.23882535  0.38871334  1
  Si  Si23  1  0.89303517  0.23882535  0.61128666  1
  O  O0  1  0.06104165  0.78951158  0.13017887  1
  O  O1  1  0.06104165  0.78951158  0.86982113  1
  O  O2  1  0.21048842  0.93895835  0.36982113  1
  O  O3  1  0.21048842  0.93895835  0.63017887  1
  O  O4  1  0.12939698  0.72917657  0.50000000  1
  O  O5  1  0.27082343  0.87060302  -0.00000000  1
  O  O6  1  0.14742853  0.66126133  0.32404524  1
  O  O7  1  0.14742853  0.66126133  0.67595476  1
  O  O8  1  0.14742853  0.48616720  0.17595476  1
  O  O9  1  0.14742853  0.48616720  0.82404524  1
  O  O10  1  0.06104165  0.27153007  0.36982113  1
  O  O11  1  0.06104165  0.27153007  0.63017887  1
  O  O12  1  0.33873867  0.85257147  0.17595476  1
  O  O13  1  0.33873867  0.85257147  0.82404524  1
  O  O14  1  0.12939698  0.40022041  -0.00000000  1
  O  O15  1  0.27082343  0.40022041  0.50000000  1
  O  O16  1  0.51383280  0.85257147  0.32404524  1
  O  O17  1  0.51383280  0.85257147  0.67595476  1
  O  O18  1  0.21048842  0.27153007  0.13017887  1
  O  O19  1  0.21048842  0.27153007  0.86982113  1
  O  O20  1  0.33873867  0.48616720  0.67595476  1
  O  O21  1  0.33873867  0.48616720  0.32404524  1
  O  O22  1  0.51383280  0.66126133  0.17595476  1
  O  O23  1  0.51383280  0.66126133  0.82404524  1
  O  O24  1  0.59977959  0.87060302  0.50000000  1
  O  O25  1  0.27153007  0.21048842  0.36982113  1
  O  O26  1  0.27153007  0.21048842  0.63017887  1
  O  O27  1  0.59977959  0.72917657  -0.00000000  1
  O  O28  1  0.72846993  0.93895835  0.13017887  1
  O  O29  1  0.72846993  0.93895835  0.86982113  1
  O  O30  1  0.27153007  0.06104165  0.13017887  1
  O  O31  1  0.27153007  0.06104165  0.86982113  1
  O  O32  1  0.40022041  0.27082343  -0.00000000  1
  O  O33  1  0.72846993  0.78951158  0.36982113  1
  O  O34  1  0.72846993  0.78951158  0.63017887  1
  O  O35  1  0.40022041  0.12939698  0.50000000  1
  O  O36  1  0.48616720  0.33873867  0.17595476  1
  O  O37  1  0.48616720  0.33873867  0.82404524  1
  O  O38  1  0.66126133  0.51383280  0.32404524  1
  O  O39  1  0.66126133  0.51383280  0.67595476  1
  O  O40  1  0.78951158  0.72846993  0.13017887  1
  O  O41  1  0.78951158  0.72846993  0.86982113  1
  O  O42  1  0.48616720  0.14742853  0.32404524  1
  O  O43  1  0.48616720  0.14742853  0.67595476  1
  O  O44  1  0.72917657  0.59977959  0.50000000  1
  O  O45  1  0.87060302  0.59977959  -0.00000000  1
  O  O46  1  0.66126133  0.14742853  0.17595476  1
  O  O47  1  0.66126133  0.14742853  0.82404524  1
  O  O48  1  0.93895835  0.72846993  0.36982113  1
  O  O49  1  0.93895835  0.72846993  0.63017887  1
  O  O50  1  0.85257147  0.51383280  0.17595476  1
  O  O51  1  0.85257147  0.51383280  0.82404524  1
  O  O52  1  0.85257147  0.33873867  0.32404524  1
  O  O53  1  0.85257147  0.33873867  0.67595476  1
  O  O54  1  0.72917657  0.12939698  -0.00000000  1
  O  O55  1  0.87060302  0.27082343  0.50000000  1
  O  O56  1  0.78951158  0.06104165  0.36982113  1
  O  O57  1  0.78951158  0.06104165  0.63017887  1
  O  O58  1  0.93895835  0.21048842  0.13017887  1
  O  O59  1  0.93895835  0.21048842  0.86982113  1
loop_
_geom_bond_atom_site_label_1
_geom_bond_atom_site_label_2
_geom_bond_distance
_geom_bond_site_symmetry_2
K0 O58 3.063155 1_455
K0 O2 3.063155 1_545
K0 O0 3.063155 1_545
K0 O56 3.063155 1_455
K0 O48 3.063155 1_445
K0 O28 3.063155 1_445
K0 O10 3.063155 1_555
K0 O30 3.063155 1_555
K0 O18 3.063156 1_555
K0 O33 3.063156 1_445
K0 O40 3.063156 1_445
K0 O25 3.063156 1_555
K1 O3 3.063155 1_545
K1 O59 3.063155 1_455
K1 O1 3.063155 1_545
K1 O57 3.063155 1_455
K1 O29 3.063155 1_445
K1 O49 3.063155 1_445
K1 O11 3.063155 1_555
K1 O31 3.063155 1_555
K1 O19 3.063156 1_555
K1 O34 3.063156 1_445
K1 O41 3.063156 1_445
K1 O26 3.063156 1_555
Na0 O5 2.503713 1_555
Na0 O14 2.503720 1_555
Na0 O27 2.503723 1_555
Na1 O4 2.503713 1_555
Na1 O24 2.503720 1_555
Na1 O15 2.503723 1_555
Na2 O54 2.503713 1_555
Na2 O45 2.503720 1_555
Na2 O32 2.503723 1_555
Na3 O55 2.503713 1_555
Na3 O35 2.503720 1_555
Na3 O44 2.503723 1_555
Li0 O50 1.913196 1_455
Li0 O8 1.913196 1_555
Li0 O52 1.913196 1_455
Li0 O6 1.913196 1_555
Li1 O51 1.913196 1_455
Li1 O9 1.913196 1_555
Li1 O53 1.913196 1_455
Li1 O7 1.913196 1_555
Li2 O22 1.913196 1_555
Li2 O38 1.913196 1_555
Li2 O36 1.913196 1_555
Li2 O21 1.913196 1_555
Li3 O23 1.913196 1_555
Li3 O39 1.913196 1_555
Li3 O37 1.913196 1_555
Li3 O20 1.913196 1_555
Li4 O42 1.913196 1_555
Li4 O16 1.913196 1_545
Li4 O46 1.913196 1_555
Li4 O12 1.913196 1_545
Li5 O17 1.913196 1_545
Li5 O43 1.913196 1_555
Li5 O13 1.913196 1_545
Li5 O47 1.913196 1_555
O0 Si19 1.622327 1_455
O0 Si2 1.626243 1_555
O1 Si18 1.622327 1_455
O1 Si3 1.626243 1_555
O2 Si15 1.622327 1_565
O2 Si0 1.626243 1_555
O3 Si14 1.622327 1_565
O3 Si1 1.626243 1_555
O4 Si1 1.638136 1_555
O4 Si0 1.638136 1_555
O5 Si3 1.638136 1_554
O5 Si2 1.638136 1_555
O6 Si0 1.584377 1_555
O6 Zr0 2.166919 1_555
O7 Si1 1.584377 1_555
O7 Zr1 2.166919 1_555
O8 Si4 1.584377 1_555
O8 Zr0 2.166924 1_555
O9 Si5 1.584377 1_555
O9 Zr1 2.166924 1_555
O10 Si22 1.622327 1_455
O10 Si6 1.626243 1_555
O11 Si23 1.622327 1_455
O11 Si7 1.626243 1_555
O12 Si2 1.584377 1_555
O12 Zr0 2.166919 1_555
O13 Si3 1.584377 1_555
O13 Zr1 2.166919 1_555
O14 Si5 1.638136 1_554
O14 Si4 1.638136 1_555
O15 Si6 1.638136 1_555
O15 Si7 1.638136 1_555
O16 Si8 1.584377 1_555
O16 Zr0 2.166924 1_555
O17 Si9 1.584377 1_555
O17 Zr1 2.166924 1_555
O18 Si10 1.622327 1_555
O18 Si4 1.626243 1_555
O19 Si11 1.622327 1_555
O19 Si5 1.626243 1_555
O20 Si7 1.584377 1_555
O20 Zr1 2.166928 1_555
O21 Si6 1.584377 1_555
O21 Zr0 2.166928 1_555
O22 Si12 1.584377 1_555
O22 Zr0 2.166928 1_555
O23 Si13 1.584377 1_555
O23 Zr1 2.166928 1_555
O24 Si8 1.638136 1_555
O24 Si9 1.638136 1_555
O25 Si6 1.622327 1_555
O25 Si15 1.626243 1_555
O26 Si7 1.622327 1_555
O26 Si14 1.626243 1_555
O27 Si13 1.638136 1_554
O27 Si12 1.638136 1_555
O28 Si20 1.622327 1_565
O28 Si12 1.626243 1_555
O29 Si21 1.622327 1_565
O29 Si13 1.626243 1_555
O30 Si2 1.622327 1_545
O30 Si10 1.626243 1_555
O31 Si3 1.622327 1_545
O31 Si11 1.626243 1_555
O32 Si11 1.638136 1_554
O32 Si10 1.638136 1_555
O33 Si16 1.622327 1_555
O33 Si8 1.626243 1_555
O34 Si17 1.622327 1_555
O34 Si9 1.626243 1_555
O35 Si15 1.638136 1_555
O35 Si14 1.638136 1_555
O36 Si10 1.584377 1_555
O36 Zr2 2.166928 1_555
O37 Si11 1.584377 1_555
O37 Zr3 2.166928 1_555
O38 Si16 1.584377 1_555
O38 Zr2 2.166928 1_555
O39 Si17 1.584377 1_555
O39 Zr3 2.166928 1_555
O40 Si12 1.622327 1_555
O40 Si19 1.626243 1_555
O41 Si13 1.622327 1_555
O41 Si18 1.626243 1_555
O42 Si15 1.584377 1_555
O42 Zr2 2.166924 1_555
O43 Si14 1.584377 1_555
O43 Zr3 2.166924 1_555
O44 Si16 1.638136 1_555
O44 Si17 1.638136 1_555
O45 Si18 1.638136 1_554
O45 Si19 1.638136 1_555
O46 Si20 1.584377 1_555
O46 Zr2 2.166919 1_555
O47 Si21 1.584377 1_555
O47 Zr3 2.166919 1_555
O48 Si0 1.622327 1_655
O48 Si16 1.626243 1_555
O49 Si1 1.622327 1_655
O49 Si17 1.626243 1_555
O50 Si19 1.584377 1_555
O50 Zr2 2.166924 1_555
O51 Si18 1.584377 1_555
O51 Zr3 2.166924 1_555
O52 Si22 1.584377 1_555
O52 Zr2 2.166919 1_555
O53 Si23 1.584377 1_555
O53 Zr3 2.166919 1_555
O54 Si21 1.638136 1_554
O54 Si20 1.638136 1_555
O55 Si23 1.638136 1_555
O55 Si22 1.638136 1_555
O56 Si8 1.622327 1_545
O56 Si22 1.626243 1_555
O57 Si9 1.622327 1_545
O57 Si23 1.626243 1_555
O58 Si4 1.622327 1_655
O58 Si20 1.626243 1_555
O59 Si5 1.622327 1_655
O59 Si21 1.626243 1_555
