# generated using pymatgen
data_Ca2SnS4
_symmetry_space_group_name_H-M   'P 1'
_cell_length_a   3.71569200
_cell_length_b   13.21246200
_cell_length_c   13.42901400
_cell_angle_alpha   90.00000000
_cell_angle_beta   90.00000000
_cell_angle_gamma   90.00000000
_symmetry_Int_Tables_number   1
_chemical_formula_structural   Ca2SnS4
_chemical_formula_sum   'Ca8 Sn4 S16'
_cell_volume   659.27648439
_cell_formula_units_Z   4
loop_
 _symmetry_equiv_pos_site_id
 _symmetry_equiv_pos_as_xyz
  1  'x, y, z'
loop_
 _atom_site_type_symbol
 _atom_site_label
 _atom_site_symmetry_multiplicity
 _atom_site_fract_x
 _atom_site_fract_y
 _atom_site_fract_z
 _atom_site_occupancy
  Ca  Ca0  1  0.75000000  0.39500100  0.42165200  1
  Ca  Ca1  1  0.75000000  0.89500100  0.07834800  1
  Ca  Ca2  1  0.25000000  0.60499900  0.57834800  1
  Ca  Ca3  1  0.25000000  0.10499900  0.92165200  1
  Ca  Ca4  1  0.75000000  0.35408200  0.78143400  1
  Ca  Ca5  1  0.75000000  0.85408200  0.71856600  1
  Ca  Ca6  1  0.25000000  0.64591800  0.21856600  1
  Ca  Ca7  1  0.25000000  0.14591800  0.28143400  1
  Sn  Sn0  1  0.25000000  0.37226700  0.08112800  1
  Sn  Sn1  1  0.25000000  0.87226700  0.41887200  1
  Sn  Sn2  1  0.75000000  0.62773300  0.91887200  1
  Sn  Sn3  1  0.75000000  0.12773300  0.58112800  1
  S  S0  1  0.25000000  0.20184600  0.72895200  1
  S  S1  1  0.25000000  0.70184600  0.77104800  1
  S  S2  1  0.75000000  0.79815400  0.27104800  1
  S  S3  1  0.75000000  0.29815400  0.22895200  1
  S  S4  1  0.25000000  0.03800700  0.11615000  1
  S  S5  1  0.25000000  0.53800700  0.38385000  1
  S  S6  1  0.75000000  0.96199300  0.88385000  1
  S  S7  1  0.75000000  0.46199300  0.61615000  1
  S  S8  1  0.75000000  0.27130900  0.97696200  1
  S  S9  1  0.75000000  0.77130900  0.52303800  1
  S  S10  1  0.25000000  0.72869100  0.02303800  1
  S  S11  1  0.25000000  0.22869100  0.47696200  1
  S  S12  1  0.25000000  0.48169500  0.89616800  1
  S  S13  1  0.25000000  0.98169500  0.60383200  1
  S  S14  1  0.75000000  0.51830500  0.10383200  1
  S  S15  1  0.75000000  0.01830500  0.39616800  1
loop_
_geom_bond_atom_site_label_1
_geom_bond_atom_site_label_2
_geom_bond_distance
_geom_bond_site_symmetry_2
Ca0 S5 2.698029 1_555
Ca0 S5 2.698029 1_655
Ca0 S7 2.757818 1_555
Ca0 S3 2.886850 1_555
Ca0 S11 2.971817 1_555
Ca0 S11 2.971817 1_655
Ca1 S4 2.698029 1_565
Ca1 S4 2.698029 1_665
Ca1 S6 2.757818 1_554
Ca1 S2 2.886850 1_555
Ca1 S10 2.971817 1_555
Ca1 S10 2.971817 1_655
Ca2 S7 2.698029 1_455
Ca2 S7 2.698029 1_555
Ca2 S5 2.757818 1_555
Ca2 S1 2.886850 1_555
Ca2 S9 2.971817 1_555
Ca2 S9 2.971817 1_455
Ca3 S6 2.698029 1_445
Ca3 S6 2.698029 1_545
Ca3 S4 2.757818 1_556
Ca3 S0 2.886850 1_555
Ca3 S8 2.971817 1_455
Ca3 S8 2.971817 1_555
Ca4 S7 2.638077 1_555
Ca4 S0 2.827382 1_555
Ca4 S0 2.827382 1_655
Ca4 S8 2.844397 1_555
Ca4 S12 2.944218 1_655
Ca4 S12 2.944218 1_555
Ca5 S6 2.638077 1_555
Ca5 S1 2.827382 1_555
Ca5 S1 2.827382 1_655
Ca5 S9 2.844397 1_555
Ca5 S13 2.944218 1_655
Ca5 S13 2.944218 1_555
Ca6 S5 2.638077 1_555
Ca6 S2 2.827382 1_455
Ca6 S2 2.827382 1_555
Ca6 S10 2.844397 1_555
Ca6 S14 2.944218 1_455
Ca6 S14 2.944218 1_555
Ca7 S4 2.638077 1_555
Ca7 S3 2.827382 1_555
Ca7 S3 2.827382 1_455
Ca7 S11 2.844397 1_555
Ca7 S15 2.944218 1_455
Ca7 S15 2.944218 1_555
S0 Sn3 2.889844 1_555
S0 Sn3 2.889844 1_455
S1 Sn2 2.889844 1_555
S1 Sn2 2.889844 1_455
S2 Sn1 2.889844 1_555
S2 Sn1 2.889844 1_655
S3 Sn0 2.889844 1_655
S3 Sn0 2.889844 1_555
S8 Sn0 2.680982 1_556
S8 Sn0 2.680982 1_656
S9 Sn1 2.680982 1_655
S9 Sn1 2.680982 1_555
S10 Sn2 2.680982 1_454
S10 Sn2 2.680982 1_554
S11 Sn3 2.680982 1_555
S11 Sn3 2.680982 1_455
S12 Sn2 2.695849 1_555
S12 Sn2 2.695849 1_455
S12 Sn0 2.873985 1_556
S13 Sn3 2.695849 1_565
S13 Sn3 2.695849 1_465
S13 Sn1 2.873985 1_555
S14 Sn0 2.695849 1_655
S14 Sn0 2.695849 1_555
S14 Sn2 2.873985 1_554
S15 Sn1 2.695849 1_545
S15 Sn1 2.695849 1_645
S15 Sn3 2.873985 1_555
