# generated using pymatgen
data_Ta3AgO8
_symmetry_space_group_name_H-M   'P 1'
_cell_length_a   7.88279000
_cell_length_b   9.17149300
_cell_length_c   17.16001500
_cell_angle_alpha   90.00000000
_cell_angle_beta   90.00000000
_cell_angle_gamma   90.00000000
_symmetry_Int_Tables_number   1
_chemical_formula_structural   Ta3AgO8
_chemical_formula_sum   'Ta24 Ag8 O64'
_cell_volume   1240.61680318
_cell_formula_units_Z   8
loop_
 _symmetry_equiv_pos_site_id
 _symmetry_equiv_pos_as_xyz
  1  'x, y, z'
loop_
 _atom_site_type_symbol
 _atom_site_label
 _atom_site_symmetry_multiplicity
 _atom_site_fract_x
 _atom_site_fract_y
 _atom_site_fract_z
 _atom_site_occupancy
  Ta  Ta0  1  0.25017500  0.18809700  0.81065100  1
  Ta  Ta1  1  0.74982500  0.18809700  0.81065100  1
  Ta  Ta2  1  0.24849300  0.60274300  0.88582300  1
  Ta  Ta3  1  0.75150700  0.60274300  0.88582300  1
  Ta  Ta4  1  0.75035700  0.30998700  0.00000000  1
  Ta  Ta5  1  0.24722500  0.95065100  0.00000000  1
  Ta  Ta6  1  0.24964300  0.30998700  0.00000000  1
  Ta  Ta7  1  0.75277500  0.95065100  0.00000000  1
  Ta  Ta8  1  0.24849300  0.60274300  0.11417700  1
  Ta  Ta9  1  0.75150700  0.60274300  0.11417700  1
  Ta  Ta10  1  0.25017500  0.18809700  0.18934900  1
  Ta  Ta11  1  0.74982500  0.18809700  0.18934900  1
  Ta  Ta12  1  0.75017500  0.81190300  0.31065100  1
  Ta  Ta13  1  0.24982500  0.81190300  0.31065100  1
  Ta  Ta14  1  0.74849300  0.39725700  0.38582300  1
  Ta  Ta15  1  0.25150700  0.39725700  0.38582300  1
  Ta  Ta16  1  0.25035700  0.69001300  0.50000000  1
  Ta  Ta17  1  0.25277500  0.04934900  0.50000000  1
  Ta  Ta18  1  0.74722500  0.04934900  0.50000000  1
  Ta  Ta19  1  0.74964300  0.69001300  0.50000000  1
  Ta  Ta20  1  0.74849300  0.39725700  0.61417700  1
  Ta  Ta21  1  0.25150700  0.39725700  0.61417700  1
  Ta  Ta22  1  0.75017500  0.81190300  0.68934900  1
  Ta  Ta23  1  0.24982500  0.81190300  0.68934900  1
  Ag  Ag0  1  0.50000000  0.49777900  0.74988800  1
  Ag  Ag1  1  0.50000000  0.90524900  0.84152200  1
  Ag  Ag2  1  0.50000000  0.90524900  0.15847800  1
  Ag  Ag3  1  0.50000000  0.49777900  0.25011200  1
  Ag  Ag4  1  0.00000000  0.50222100  0.24988800  1
  Ag  Ag5  1  0.00000000  0.09475100  0.34152200  1
  Ag  Ag6  1  0.00000000  0.09475100  0.65847800  1
  Ag  Ag7  1  0.00000000  0.50222100  0.75011200  1
  O  O0  1  0.75000000  0.00000000  0.75000000  1
  O  O1  1  0.25000000  0.00000000  0.75000000  1
  O  O2  1  0.76318600  0.66923200  0.77466100  1
  O  O3  1  0.23681400  0.66923200  0.77466100  1
  O  O4  1  0.00000000  0.18916000  0.80392500  1
  O  O5  1  0.50000000  0.17572200  0.81550000  1
  O  O6  1  0.50000000  0.59482600  0.87638700  1
  O  O7  1  0.75142600  0.37925800  0.88130600  1
  O  O8  1  0.24857400  0.37925800  0.88130600  1
  O  O9  1  0.00000000  0.59961100  0.88817700  1
  O  O10  1  0.26214700  0.80515700  0.91810600  1
  O  O11  1  0.73785300  0.80515700  0.91810600  1
  O  O12  1  0.75906500  0.12564000  0.92466000  1
  O  O13  1  0.24093500  0.12564000  0.92466000  1
  O  O14  1  0.00000000  0.31577100  0.00000000  1
  O  O15  1  0.25897600  0.54049900  0.00000000  1
  O  O16  1  0.50000000  0.96610600  0.00000000  1
  O  O17  1  0.50000000  0.30469900  0.00000000  1
  O  O18  1  0.00000000  0.94457300  0.00000000  1
  O  O19  1  0.74102400  0.54049900  0.00000000  1
  O  O20  1  0.75906500  0.12564000  0.07534000  1
  O  O21  1  0.24093500  0.12564000  0.07534000  1
  O  O22  1  0.26214700  0.80515700  0.08189400  1
  O  O23  1  0.73785300  0.80515700  0.08189400  1
  O  O24  1  0.00000000  0.59961100  0.11182300  1
  O  O25  1  0.75142600  0.37925800  0.11869400  1
  O  O26  1  0.24857400  0.37925800  0.11869400  1
  O  O27  1  0.50000000  0.59482600  0.12361300  1
  O  O28  1  0.50000000  0.17572200  0.18450000  1
  O  O29  1  0.00000000  0.18916000  0.19607500  1
  O  O30  1  0.76318600  0.66923200  0.22533900  1
  O  O31  1  0.23681400  0.66923200  0.22533900  1
  O  O32  1  0.75000000  0.00000000  0.25000000  1
  O  O33  1  0.25000000  0.00000000  0.25000000  1
  O  O34  1  0.26318600  0.33076800  0.27466100  1
  O  O35  1  0.73681400  0.33076800  0.27466100  1
  O  O36  1  0.50000000  0.81084000  0.30392500  1
  O  O37  1  0.00000000  0.82427800  0.31550000  1
  O  O38  1  0.00000000  0.40517400  0.37638700  1
  O  O39  1  0.25142600  0.62074200  0.38130600  1
  O  O40  1  0.74857400  0.62074200  0.38130600  1
  O  O41  1  0.50000000  0.40038900  0.38817700  1
  O  O42  1  0.76214700  0.19484300  0.41810600  1
  O  O43  1  0.23785300  0.19484300  0.41810600  1
  O  O44  1  0.25906500  0.87436000  0.42466000  1
  O  O45  1  0.74093500  0.87436000  0.42466000  1
  O  O46  1  0.75897600  0.45950100  0.50000000  1
  O  O47  1  0.00000000  0.03389400  0.50000000  1
  O  O48  1  0.00000000  0.69530100  0.50000000  1
  O  O49  1  0.24102400  0.45950100  0.50000000  1
  O  O50  1  0.50000000  0.68422900  0.50000000  1
  O  O51  1  0.50000000  0.05542700  0.50000000  1
  O  O52  1  0.25906500  0.87436000  0.57534000  1
  O  O53  1  0.74093500  0.87436000  0.57534000  1
  O  O54  1  0.76214700  0.19484300  0.58189400  1
  O  O55  1  0.23785300  0.19484300  0.58189400  1
  O  O56  1  0.50000000  0.40038900  0.61182300  1
  O  O57  1  0.25142600  0.62074200  0.61869400  1
  O  O58  1  0.74857400  0.62074200  0.61869400  1
  O  O59  1  0.00000000  0.40517400  0.62361300  1
  O  O60  1  0.00000000  0.82427800  0.68450000  1
  O  O61  1  0.50000000  0.81084000  0.69607500  1
  O  O62  1  0.26318600  0.33076800  0.72533900  1
  O  O63  1  0.73681400  0.33076800  0.72533900  1
loop_
_geom_bond_atom_site_label_1
_geom_bond_atom_site_label_2
_geom_bond_distance
_geom_bond_site_symmetry_2
Ag0 O6 2.346117 1_555
Ag0 O63 2.451217 1_555
Ag0 O62 2.451217 1_555
Ag0 O56 2.531980 1_555
Ag0 O2 2.637715 1_555
Ag0 O3 2.637715 1_555
Ag1 O11 2.466821 1_555
Ag1 O10 2.466821 1_555
Ag1 O5 2.520511 1_565
Ag1 O61 2.641801 1_555
Ag1 O1 2.665587 1_565
Ag1 O0 2.665587 1_565
Ag1 O16 2.776172 1_556
Ag2 O23 2.466821 1_555
Ag2 O22 2.466821 1_555
Ag2 O28 2.520511 1_565
Ag2 O36 2.641801 1_555
Ag2 O32 2.665587 1_565
Ag2 O33 2.665587 1_565
Ag2 O16 2.776172 1_555
Ag3 O27 2.346117 1_555
Ag3 O35 2.451217 1_555
Ag3 O34 2.451217 1_555
Ag3 O41 2.531980 1_555
Ag3 O30 2.637715 1_555
Ag3 O31 2.637715 1_555
Ag4 O38 2.346117 1_555
Ag4 O31 2.451217 1_555
Ag4 O30 2.451217 1_455
Ag4 O24 2.531980 1_555
Ag4 O34 2.637715 1_555
Ag4 O35 2.637715 1_455
Ag5 O43 2.466821 1_555
Ag5 O42 2.466821 1_455
Ag5 O37 2.520511 1_545
Ag5 O29 2.641801 1_555
Ag5 O33 2.665587 1_555
Ag5 O32 2.665587 1_455
Ag5 O47 2.776172 1_555
Ag6 O55 2.466821 1_555
Ag6 O54 2.466821 1_455
Ag6 O60 2.520511 1_545
Ag6 O4 2.641801 1_555
Ag6 O1 2.665587 1_555
Ag6 O0 2.665587 1_455
Ag6 O47 2.776172 1_555
Ag7 O59 2.346117 1_555
Ag7 O3 2.451217 1_555
Ag7 O2 2.451217 1_455
Ag7 O9 2.531980 1_555
Ag7 O62 2.637715 1_555
Ag7 O63 2.637715 1_455
O0 Ta1 2.014766 1_555
O0 Ta22 2.014766 1_545
O1 Ta0 2.014766 1_555
O1 Ta23 2.014766 1_545
O2 Ta22 1.966182 1_555
O2 Ta3 2.004757 1_555
O3 Ta23 1.966182 1_555
O3 Ta2 2.004757 1_555
O4 Ta0 1.975476 1_555
O4 Ta1 1.975476 1_455
O5 Ta1 1.974340 1_555
O5 Ta0 1.974340 1_555
O6 Ta3 1.990503 1_555
O6 Ta2 1.990503 1_555
O7 Ta3 2.051156 1_555
O7 Ta1 2.131665 1_555
O7 Ta4 2.133593 1_556
O8 Ta2 2.051156 1_555
O8 Ta0 2.131665 1_555
O8 Ta6 2.133593 1_556
O9 Ta2 1.959445 1_555
O9 Ta3 1.959445 1_455
O10 Ta2 1.940319 1_555
O10 Ta5 1.941475 1_556
O11 Ta3 1.940319 1_555
O11 Ta7 1.941475 1_556
O12 Ta1 2.039833 1_555
O12 Ta7 2.061461 1_546
O12 Ta4 2.129490 1_556
O13 Ta0 2.039833 1_555
O13 Ta5 2.061461 1_546
O13 Ta6 2.129490 1_556
O14 Ta6 1.968598 1_555
O14 Ta4 1.968598 1_455
O15 Ta8 2.042424 1_555
O15 Ta2 2.042424 1_554
O15 Ta6 2.115419 1_555
O16 Ta5 1.997608 1_555
O16 Ta7 1.997608 1_555
O17 Ta4 1.974107 1_555
O17 Ta6 1.974107 1_555
O18 Ta5 1.949620 1_555
O18 Ta7 1.949620 1_455
O19 Ta9 2.042424 1_555
O19 Ta3 2.042424 1_554
O19 Ta4 2.115419 1_555
O20 Ta11 2.039833 1_555
O20 Ta7 2.061461 1_545
O20 Ta4 2.129490 1_555
O21 Ta10 2.039833 1_555
O21 Ta5 2.061461 1_545
O21 Ta6 2.129490 1_555
O22 Ta8 1.940319 1_555
O22 Ta5 1.941475 1_555
O23 Ta9 1.940319 1_555
O23 Ta7 1.941475 1_555
O24 Ta8 1.959445 1_555
O24 Ta9 1.959445 1_455
O25 Ta9 2.051156 1_555
O25 Ta11 2.131665 1_555
O25 Ta4 2.133593 1_555
O26 Ta8 2.051156 1_555
O26 Ta10 2.131665 1_555
O26 Ta6 2.133593 1_555
O27 Ta9 1.990503 1_555
O27 Ta8 1.990503 1_555
O28 Ta11 1.974340 1_555
O28 Ta10 1.974340 1_555
O29 Ta10 1.975476 1_555
O29 Ta11 1.975476 1_455
O30 Ta12 1.966182 1_555
O30 Ta9 2.004757 1_555
O31 Ta13 1.966182 1_555
O31 Ta8 2.004757 1_555
O32 Ta11 2.014766 1_555
O32 Ta12 2.014766 1_545
O33 Ta10 2.014766 1_555
O33 Ta13 2.014766 1_545
O34 Ta10 1.966182 1_555
O34 Ta15 2.004757 1_555
O35 Ta11 1.966182 1_555
O35 Ta14 2.004757 1_555
O36 Ta12 1.975476 1_555
O36 Ta13 1.975476 1_555
O37 Ta13 1.974340 1_555
O37 Ta12 1.974340 1_455
O38 Ta15 1.990503 1_555
O38 Ta14 1.990503 1_455
O39 Ta15 2.051156 1_555
O39 Ta13 2.131665 1_555
O39 Ta16 2.133593 1_555
O40 Ta14 2.051156 1_555
O40 Ta12 2.131665 1_555
O40 Ta19 2.133593 1_555
O41 Ta14 1.959445 1_555
O41 Ta15 1.959445 1_555
O42 Ta14 1.940319 1_555
O42 Ta18 1.941475 1_555
O43 Ta15 1.940319 1_555
O43 Ta17 1.941475 1_555
O44 Ta13 2.039833 1_555
O44 Ta17 2.061461 1_565
O44 Ta16 2.129490 1_555
O45 Ta12 2.039833 1_555
O45 Ta18 2.061461 1_565
O45 Ta19 2.129490 1_555
O46 Ta20 2.042424 1_555
O46 Ta14 2.042424 1_555
O46 Ta19 2.115419 1_555
O47 Ta17 1.997608 1_555
O47 Ta18 1.997608 1_455
O48 Ta16 1.974107 1_555
O48 Ta19 1.974107 1_455
O49 Ta21 2.042424 1_555
O49 Ta15 2.042424 1_555
O49 Ta16 2.115419 1_555
O50 Ta19 1.968598 1_555
O50 Ta16 1.968598 1_555
O51 Ta18 1.949620 1_555
O51 Ta17 1.949620 1_555
O52 Ta23 2.039833 1_555
O52 Ta17 2.061461 1_565
O52 Ta16 2.129490 1_555
O53 Ta22 2.039833 1_555
O53 Ta18 2.061461 1_565
O53 Ta19 2.129490 1_555
O54 Ta20 1.940319 1_555
O54 Ta18 1.941475 1_555
O55 Ta21 1.940319 1_555
O55 Ta17 1.941475 1_555
O56 Ta20 1.959445 1_555
O56 Ta21 1.959445 1_555
O57 Ta21 2.051156 1_555
O57 Ta23 2.131665 1_555
O57 Ta16 2.133593 1_555
O58 Ta20 2.051156 1_555
O58 Ta22 2.131665 1_555
O58 Ta19 2.133593 1_555
O59 Ta21 1.990503 1_555
O59 Ta20 1.990503 1_455
O60 Ta23 1.974340 1_555
O60 Ta22 1.974340 1_455
O61 Ta22 1.975476 1_555
O61 Ta23 1.975476 1_555
O62 Ta0 1.966182 1_555
O62 Ta21 2.004757 1_555
O63 Ta1 1.966182 1_555
O63 Ta20 2.004757 1_555
