# generated using pymatgen
data_DyCdPd2
_symmetry_space_group_name_H-M   'P 1'
_cell_length_a   4.75733453
_cell_length_b   4.75733453
_cell_length_c   4.75733453
_cell_angle_alpha   60.00000000
_cell_angle_beta   60.00000000
_cell_angle_gamma   60.00000000
_symmetry_Int_Tables_number   1
_chemical_formula_structural   DyCdPd2
_chemical_formula_sum   'Dy1 Cd1 Pd2'
_cell_volume   76.13354954
_cell_formula_units_Z   1
loop_
 _symmetry_equiv_pos_site_id
 _symmetry_equiv_pos_as_xyz
  1  'x, y, z'
loop_
 _atom_site_type_symbol
 _atom_site_label
 _atom_site_symmetry_multiplicity
 _atom_site_fract_x
 _atom_site_fract_y
 _atom_site_fract_z
 _atom_site_occupancy
  Dy  Dy0  1  0.75000100  0.75000100  0.75000100  1
  Cd  Cd0  1  0.25000000  0.25000000  0.25000000  1
  Pd  Pd0  1  -0.00000000  -0.00000000  0.00000000  1
  Pd  Pd1  1  0.50000000  0.50000000  0.50000000  1
loop_
_geom_bond_atom_site_label_1
_geom_bond_atom_site_label_2
_geom_bond_distance
_geom_bond_site_symmetry_2
Dy0 Pd0 2.913249 1_666
Dy0 Pd1 2.913257 1_655
Dy0 Pd1 2.913257 1_556
Dy0 Pd1 2.913257 1_565
Dy0 Pd0 2.913264 1_566
Dy0 Pd0 2.913264 1_656
Dy0 Pd0 2.913264 1_665
Dy0 Pd1 2.913272 1_555
Cd0 Pd1 2.913261 1_555
Cd0 Pd1 2.913261 1_545
Cd0 Pd0 2.913261 1_556
Cd0 Pd1 2.913261 1_554
Cd0 Pd0 2.913261 1_555
Cd0 Pd0 2.913261 1_565
Cd0 Pd0 2.913261 1_655
Cd0 Pd1 2.913261 1_455
