# generated using pymatgen
data_Li4VFe3O8
_symmetry_space_group_name_H-M   'P 1'
_cell_length_a   5.96616700
_cell_length_b   5.96705996
_cell_length_c   5.99325911
_cell_angle_alpha   119.68476903
_cell_angle_beta   90.21561759
_cell_angle_gamma   119.86706195
_symmetry_Int_Tables_number   1
_chemical_formula_structural   Li4VFe3O8
_chemical_formula_sum   'Li4 V1 Fe3 O8'
_cell_volume   151.60567159
_cell_formula_units_Z   1
loop_
 _symmetry_equiv_pos_site_id
 _symmetry_equiv_pos_as_xyz
  1  'x, y, z'
loop_
 _atom_site_type_symbol
 _atom_site_label
 _atom_site_symmetry_multiplicity
 _atom_site_fract_x
 _atom_site_fract_y
 _atom_site_fract_z
 _atom_site_occupancy
  Li  Li0  1  0.00064400  0.50791600  0.49782000  1
  Li  Li1  1  0.50117500  0.00109400  0.49940300  1
  Li  Li2  1  0.00063100  0.00578100  0.50123400  1
  Li  Li3  1  0.50088200  0.50197800  0.49942800  1
  V  V0  1  0.00062900  0.00142700  0.99949900  1
  Fe  Fe0  1  0.00111300  0.50172300  0.99925700  1
  Fe  Fe1  1  0.49975100  0.50008800  0.00015500  1
  Fe  Fe2  1  0.50205700  0.00203600  0.99849600  1
  O  O0  1  0.78378600  0.52924300  0.22897300  1
  O  O1  1  0.29124300  0.03273300  0.22512300  1
  O  O2  1  0.28365600  0.52724300  0.23012500  1
  O  O3  1  0.78221800  0.02560100  0.23003300  1
  O  O4  1  0.71077400  0.96949400  0.77341900  1
  O  O5  1  0.21873600  0.47419000  0.76940900  1
  O  O6  1  0.21885500  0.97693200  0.76898400  1
  O  O7  1  0.71797000  0.47584900  0.76858700  1
loop_
_geom_bond_atom_site_label_1
_geom_bond_atom_site_label_2
_geom_bond_distance
_geom_bond_site_symmetry_2
Li0 O6 2.004706 1_555
Li0 O3 2.056904 1_455
Li0 O0 2.153537 1_455
Li0 O5 2.225370 1_555
Li0 O2 2.334098 1_555
Li0 O7 2.349676 1_455
Li1 O2 2.023218 1_545
Li1 O7 2.027108 1_555
Li1 O4 2.195993 1_545
Li1 O1 2.198623 1_555
Li1 O3 2.334344 1_555
Li1 O6 2.340427 1_545
Li2 O5 2.000274 1_555
Li2 O0 2.036296 1_445
Li2 O3 2.163753 1_455
Li2 O6 2.186523 1_545
Li2 O4 2.386771 1_445
Li2 O1 2.403728 1_555
Li3 O4 2.003737 1_555
Li3 O1 2.011065 1_555
Li3 O2 2.174217 1_555
Li3 O7 2.176818 1_555
Li3 O5 2.342535 1_555
Li3 O0 2.347539 1_555
Fe0 O0 1.898729 1_456
Fe0 O5 1.900563 1_555
Fe0 O2 2.073005 1_556
Fe0 O7 2.073636 1_455
Fe0 O1 2.267150 1_566
Fe0 O4 2.272501 1_445
Fe1 O2 1.894285 1_555
Fe1 O7 1.909030 1_554
Fe1 O0 2.057952 1_555
Fe1 O5 2.064003 1_554
Fe1 O6 2.227408 1_544
Fe1 O3 2.238630 1_565
Fe2 O4 1.844455 1_545
Fe2 O1 1.859083 1_556
Fe2 O3 2.072302 1_556
Fe2 O6 2.072607 1_545
Fe2 O0 2.245417 1_556
Fe2 O5 2.249350 1_545
O1 V0 2.068627 1_554
O2 V0 2.239752 1_554
O3 V0 1.905554 1_654
O4 V0 2.064274 1_665
O6 V0 1.904786 1_565
O7 V0 2.238476 1_665
