# generated using pymatgen
data_Mn2OF3
_symmetry_space_group_name_H-M   'P 1'
_cell_length_a   4.85058900
_cell_length_b   5.81328469
_cell_length_c   13.68611776
_cell_angle_alpha   78.50804397
_cell_angle_beta   88.76880177
_cell_angle_gamma   88.44977622
_symmetry_Int_Tables_number   1
_chemical_formula_structural   Mn2OF3
_chemical_formula_sum   'Mn10 O5 F15'
_cell_volume   377.99305810
_cell_formula_units_Z   5
loop_
 _symmetry_equiv_pos_site_id
 _symmetry_equiv_pos_as_xyz
  1  'x, y, z'
loop_
 _atom_site_type_symbol
 _atom_site_label
 _atom_site_symmetry_multiplicity
 _atom_site_fract_x
 _atom_site_fract_y
 _atom_site_fract_z
 _atom_site_occupancy
  Mn  Mn0  1  0.47261000  0.49874500  0.01255700  1
  Mn  Mn1  1  0.50272200  0.69948200  0.40037400  1
  Mn  Mn2  1  0.49964500  0.30650600  0.59917800  1
  Mn  Mn3  1  0.49578200  0.09413200  0.20079200  1
  Mn  Mn4  1  0.54577400  0.91261700  0.79263700  1
  Mn  Mn5  1  0.99470200  0.60201200  0.20187400  1
  Mn  Mn6  1  0.99879000  0.19808900  0.39998900  1
  Mn  Mn7  1  0.98188800  0.38803600  0.80232100  1
  Mn  Mn8  1  0.01624800  0.79990700  0.60156000  1
  Mn  Mn9  1  0.98750300  0.99724000  0.98947500  1
  O  O0  1  0.80467700  0.07820900  0.85670300  1
  O  O1  1  0.68379300  0.79216800  0.26270700  1
  O  O2  1  0.69358200  0.00522200  0.65790500  1
  O  O3  1  0.30231800  0.39917300  0.14663100  1
  O  O4  1  0.31806600  0.60780200  0.53595700  1
  F  F0  1  0.79496300  0.28293700  0.26091700  1
  F  F1  1  0.79722100  0.49199700  0.65985700  1
  F  F2  1  0.80425300  0.67485000  0.05942300  1
  F  F3  1  0.80233300  0.87654500  0.46091800  1
  F  F4  1  0.69737100  0.17254100  0.06328100  1
  F  F5  1  0.69482500  0.37676000  0.46052200  1
  F  F6  1  0.68921900  0.56704200  0.87170100  1
  F  F7  1  0.30382000  0.02057200  0.33869700  1
  F  F8  1  0.32043400  0.83073400  0.93075400  1
  F  F9  1  0.29603500  0.23288900  0.73477900  1
  F  F10  1  0.20686600  0.11814000  0.53847000  1
  F  F11  1  0.19613700  0.52381600  0.34073900  1
  F  F12  1  0.19591800  0.91678100  0.13100800  1
  F  F13  1  0.19701200  0.32158500  0.94140000  1
  F  F14  1  0.20549000  0.71347200  0.74687400  1
loop_
_geom_bond_atom_site_label_1
_geom_bond_atom_site_label_2
_geom_bond_distance
_geom_bond_site_symmetry_2
Mn0 O3 1.980384 1_555
Mn1 O4 2.022355 1_555
Mn1 O1 2.040010 1_555
Mn2 O4 1.984348 1_555
Mn2 O2 1.995229 1_555
Mn3 O1 1.996259 1_545
Mn3 O3 1.997682 1_555
Mn4 O0 1.929153 1_565
Mn4 O2 1.942304 1_565
Mn5 O3 2.097624 1_655
Mn5 O1 2.100488 1_555
Mn7 O0 2.014685 1_555
Mn8 O4 2.109776 1_555
Mn8 O2 2.163941 1_465
Mn9 O0 2.003951 1_565
F0 Mn3 2.117823 1_555
F0 Mn5 2.120980 1_555
F0 Mn6 2.126956 1_555
F1 Mn2 2.104382 1_555
F1 Mn8 2.113454 1_655
F1 Mn7 2.132012 1_555
F2 Mn0 2.107692 1_555
F2 Mn9 2.134861 1_554
F2 Mn5 2.135631 1_555
F3 Mn1 2.081029 1_555
F3 Mn6 2.130397 1_565
F3 Mn8 2.167779 1_655
F4 Mn3 2.075818 1_555
F4 Mn9 2.076261 1_544
F4 Mn0 2.159317 1_555
F5 Mn6 2.036315 1_555
F5 Mn2 2.073435 1_555
F5 Mn1 2.094895 1_555
F6 Mn7 2.062931 1_555
F6 Mn0 2.146723 1_556
F6 Mn4 2.186630 1_555
F7 Mn6 2.041256 1_455
F7 Mn3 2.058278 1_555
F7 Mn1 2.106477 1_545
F8 Mn9 2.088145 1_455
F8 Mn4 2.138998 1_555
F8 Mn0 2.149525 1_556
F9 Mn7 2.046268 1_455
F9 Mn2 2.056788 1_555
F9 Mn4 2.211930 1_545
F10 Mn2 2.098476 1_555
F10 Mn8 2.108230 1_545
F10 Mn6 2.128979 1_455
F11 Mn1 2.094500 1_555
F11 Mn5 2.117743 1_455
F11 Mn6 2.147623 1_455
F12 Mn5 2.142519 1_455
F12 Mn3 2.150329 1_565
F12 Mn9 2.165741 1_454
F13 Mn0 2.079955 1_556
F13 Mn9 2.145092 1_445
F13 Mn7 2.152152 1_455
F14 Mn8 2.169253 1_555
F14 Mn7 2.198847 1_455
F14 Mn4 2.212160 1_555
