# generated using pymatgen
data_K2SO3
_symmetry_space_group_name_H-M   'P 1'
_cell_length_a   6.03599834
_cell_length_b   6.03599834
_cell_length_c   7.11659100
_cell_angle_alpha   90.00000000
_cell_angle_beta   90.00000000
_cell_angle_gamma   120.00000375
_symmetry_Int_Tables_number   1
_chemical_formula_structural   K2SO3
_chemical_formula_sum   'K4 S2 O6'
_cell_volume   224.54368519
_cell_formula_units_Z   2
loop_
 _symmetry_equiv_pos_site_id
 _symmetry_equiv_pos_as_xyz
  1  'x, y, z'
loop_
 _atom_site_type_symbol
 _atom_site_label
 _atom_site_symmetry_multiplicity
 _atom_site_fract_x
 _atom_site_fract_y
 _atom_site_fract_z
 _atom_site_occupancy
  K  K0  1  0.33333300  0.66666700  0.67734600  1
  K  K1  1  0.66666700  0.33333300  0.32265400  1
  K  K2  1  0.00000000  0.00000000  0.50000000  1
  K  K3  1  0.00000000  0.00000000  0.00000000  1
  S  S0  1  0.33333300  0.66666700  0.18129100  1
  S  S1  1  0.66666700  0.33333300  0.81870900  1
  O  O0  1  0.39574000  0.19787000  0.73225500  1
  O  O1  1  0.80213000  0.19787000  0.73225500  1
  O  O2  1  0.80213000  0.60426000  0.73225500  1
  O  O3  1  0.19787000  0.39574000  0.26774500  1
  O  O4  1  0.60426000  0.80213000  0.26774500  1
  O  O5  1  0.19787000  0.80213000  0.26774500  1
loop_
_geom_bond_atom_site_label_1
_geom_bond_atom_site_label_2
_geom_bond_distance
_geom_bond_site_symmetry_2
K0 O2 3.060624 1_455
K0 O0 3.060624 1_565
K0 O1 3.060626 1_455
K0 O1 3.060626 1_565
K0 O0 3.060630 1_555
K0 O2 3.060630 1_555
K0 O5 3.240785 1_555
K0 O3 3.240787 1_555
K0 O4 3.240787 1_555
K0 S0 3.586370 1_556
K1 O4 3.060624 1_545
K1 O3 3.060624 1_655
K1 O5 3.060626 1_655
K1 O5 3.060626 1_545
K1 O4 3.060630 1_555
K1 O3 3.060630 1_555
K1 O1 3.240785 1_555
K1 O0 3.240787 1_555
K1 O2 3.240787 1_555
K1 S1 3.586370 1_554
K2 O2 2.647891 1_445
K2 O4 2.647891 1_445
K2 O3 2.647891 1_555
K2 O0 2.647891 1_555
K2 O1 2.647891 1_455
K2 O5 2.647891 1_545
K3 O4 2.812478 1_445
K3 O2 2.812478 1_444
K3 O3 2.812478 1_555
K3 O0 2.812478 1_554
K3 O5 2.812479 1_545
K3 O1 2.812479 1_454
O0 S1 1.544096 1_555
O1 S1 1.544091 1_555
O2 S1 1.544096 1_555
O3 S0 1.544096 1_555
O4 S0 1.544096 1_555
O5 S0 1.544091 1_555
