# generated using pymatgen
data_Li3Mn3FeO8
_symmetry_space_group_name_H-M   'P 1'
_cell_length_a   5.93182785
_cell_length_b   5.93182785
_cell_length_c   6.06706088
_cell_angle_alpha   59.51504949
_cell_angle_beta   59.51504949
_cell_angle_gamma   60.71732228
_symmetry_Int_Tables_number   1
_chemical_formula_structural   Li3Mn3FeO8
_chemical_formula_sum   'Li3 Mn3 Fe1 O8'
_cell_volume   150.61954038
_cell_formula_units_Z   1
loop_
 _symmetry_equiv_pos_site_id
 _symmetry_equiv_pos_as_xyz
  1  'x, y, z'
loop_
 _atom_site_type_symbol
 _atom_site_label
 _atom_site_symmetry_multiplicity
 _atom_site_fract_x
 _atom_site_fract_y
 _atom_site_fract_z
 _atom_site_occupancy
  Li  Li0  1  0.50000000  0.00000000  0.50000000  1
  Li  Li1  1  0.00000000  0.00000000  0.00000000  1
  Li  Li2  1  0.00000000  0.50000000  0.50000000  1
  Mn  Mn0  1  0.00000000  0.50000000  0.00000000  1
  Mn  Mn1  1  0.50000000  0.50000000  0.50000000  1
  Mn  Mn2  1  0.50000000  0.00000000  0.00000000  1
  Fe  Fe0  1  0.00000000  0.00000000  0.50000000  1
  O  O0  1  0.73511700  0.73511700  0.27998900  1
  O  O1  1  0.73376300  0.24746200  0.73036000  1
  O  O2  1  0.24155800  0.24155800  0.22098700  1
  O  O3  1  0.26488300  0.26488300  0.72001100  1
  O  O4  1  0.24746200  0.73376300  0.73036000  1
  O  O5  1  0.26623700  0.75253800  0.26964000  1
  O  O6  1  0.75844200  0.75844200  0.77901300  1
  O  O7  1  0.75253800  0.26623700  0.26964000  1
loop_
_geom_bond_atom_site_label_1
_geom_bond_atom_site_label_2
_geom_bond_distance
_geom_bond_site_symmetry_2
Li0 O0 2.071499 1_545
Li0 O3 2.071499 1_555
Li0 O7 2.154530 1_555
Li0 O4 2.154530 1_545
Li0 O6 2.300443 1_545
Li0 O2 2.300443 1_555
Li1 O3 2.195916 1_554
Li1 O0 2.195916 1_445
Li1 O7 2.289578 1_455
Li1 O5 2.289578 1_545
Li1 O1 2.289578 1_454
Li1 O4 2.289578 1_544
Li2 O0 2.071499 1_455
Li2 O3 2.071499 1_555
Li2 O5 2.154530 1_555
Li2 O1 2.154530 1_455
Li2 O6 2.300443 1_455
Li2 O2 2.300443 1_555
Mn0 O2 1.978847 1_555
Mn0 O6 1.978847 1_454
Mn0 O4 2.001701 1_554
Mn0 O7 2.001701 1_455
Mn0 O0 2.202618 1_455
Mn0 O3 2.202618 1_554
Mn1 O0 1.948597 1_555
Mn1 O3 1.948597 1_555
Mn1 O4 1.982472 1_555
Mn1 O1 1.982472 1_555
Mn1 O7 1.982472 1_555
Mn1 O5 1.982472 1_555
Mn2 O2 1.978847 1_555
Mn2 O6 1.978847 1_544
Mn2 O1 2.001701 1_554
Mn2 O5 2.001701 1_545
Mn2 O0 2.202618 1_545
Mn2 O3 2.202618 1_554
Fe0 O2 2.014503 1_555
Fe0 O6 2.014503 1_445
Fe0 O4 2.043637 1_545
Fe0 O1 2.043637 1_455
Fe0 O7 2.043637 1_455
Fe0 O5 2.043637 1_545
