# generated using pymatgen
data_HfTaTc2
_symmetry_space_group_name_H-M   'P 1'
_cell_length_a   4.53494081
_cell_length_b   4.53493503
_cell_length_c   4.53493792
_cell_angle_alpha   59.99995776
_cell_angle_beta   59.99991567
_cell_angle_gamma   59.99993676
_symmetry_Int_Tables_number   1
_chemical_formula_structural   HfTaTc2
_chemical_formula_sum   'Hf1 Ta1 Tc2'
_cell_volume   65.94751233
_cell_formula_units_Z   1
loop_
 _symmetry_equiv_pos_site_id
 _symmetry_equiv_pos_as_xyz
  1  'x, y, z'
loop_
 _atom_site_type_symbol
 _atom_site_label
 _atom_site_symmetry_multiplicity
 _atom_site_fract_x
 _atom_site_fract_y
 _atom_site_fract_z
 _atom_site_occupancy
  Hf  Hf0  1  0.25000100  0.25000100  0.25000100  1
  Ta  Ta0  1  0.75000100  0.75000100  0.75000100  1
  Tc  Tc0  1  0.50000000  0.50000000  0.50000000  1
  Tc  Tc1  1  0.00000100  -0.00000000  0.00000000  1
loop_
_geom_bond_atom_site_label_1
_geom_bond_atom_site_label_2
_geom_bond_distance
_geom_bond_site_symmetry_2
Hf0 Tc0 2.777061 1_555
Hf0 Tc1 2.777064 1_565
Hf0 Tc1 2.777065 1_556
Hf0 Tc1 2.777070 1_655
Hf0 Tc0 2.777071 1_545
Hf0 Tc0 2.777072 1_554
Hf0 Tc0 2.777074 1_455
Hf0 Tc1 2.777080 1_555
Ta0 Tc0 2.777064 1_565
Ta0 Tc1 2.777065 1_666
Ta0 Tc0 2.777065 1_556
Ta0 Tc0 2.777066 1_655
Ta0 Tc1 2.777070 1_566
Ta0 Tc1 2.777071 1_656
Ta0 Tc1 2.777072 1_665
Ta0 Tc0 2.777083 1_555
