# generated using pymatgen
data_YNb2NO5
_symmetry_space_group_name_H-M   'P 1'
_cell_length_a   5.29224400
_cell_length_b   5.85005915
_cell_length_c   15.03833972
_cell_angle_alpha   89.93021765
_cell_angle_beta   89.98328181
_cell_angle_gamma   89.21136788
_symmetry_Int_Tables_number   1
_chemical_formula_structural   YNb2NO5
_chemical_formula_sum   'Y4 Nb8 N4 O20'
_cell_volume   465.54163628
_cell_formula_units_Z   4
loop_
 _symmetry_equiv_pos_site_id
 _symmetry_equiv_pos_as_xyz
  1  'x, y, z'
loop_
 _atom_site_type_symbol
 _atom_site_label
 _atom_site_symmetry_multiplicity
 _atom_site_fract_x
 _atom_site_fract_y
 _atom_site_fract_z
 _atom_site_occupancy
  Y  Y0  1  0.26439200  0.28650100  0.99595000  1
  Y  Y1  1  0.73753200  0.71949000  0.00066400  1
  Y  Y2  1  0.74014400  0.21643300  0.50163300  1
  Y  Y3  1  0.26414500  0.77893300  0.50267300  1
  Nb  Nb0  1  0.72837200  0.19271700  0.82543100  1
  Nb  Nb1  1  0.20770400  0.81703700  0.83225800  1
  Nb  Nb2  1  0.20679400  0.31644100  0.66552500  1
  Nb  Nb3  1  0.72794600  0.69270100  0.67335300  1
  Nb  Nb4  1  0.28222800  0.31074700  0.33062400  1
  Nb  Nb5  1  0.79289900  0.68124200  0.33543600  1
  Nb  Nb6  1  0.76865300  0.17907700  0.15987800  1
  Nb  Nb7  1  0.29653200  0.80736300  0.16231600  1
  N  N0  1  0.89600300  0.88702600  0.75486000  1
  N  N1  1  0.89249200  0.38548700  0.74058000  1
  N  N2  1  0.48276600  0.06914600  0.09824500  1
  N  N3  1  0.40542200  0.59140500  0.08407800  1
  O  O0  1  0.09003700  0.60605200  0.91480500  1
  O  O1  1  0.59884100  0.40093900  0.91303400  1
  O  O2  1  0.01161900  0.08101900  0.90415700  1
  O  O3  1  0.50216100  0.92884400  0.90182900  1
  O  O4  1  0.39594200  0.13973500  0.75420400  1
  O  O5  1  0.39471100  0.63834000  0.74258500  1
  O  O6  1  0.49607400  0.43177500  0.59309200  1
  O  O7  1  0.01125900  0.58229700  0.59382200  1
  O  O8  1  0.09381200  0.10385700  0.58179100  1
  O  O9  1  0.59753800  0.89939700  0.58283500  1
  O  O10  1  0.40414800  0.10052600  0.41718400  1
  O  O11  1  0.90728600  0.89295300  0.41894000  1
  O  O12  1  0.99289500  0.41721300  0.40746300  1
  O  O13  1  0.49800800  0.57100600  0.40569100  1
  O  O14  1  0.60671000  0.36339500  0.25970300  1
  O  O15  1  0.11231700  0.62290400  0.26422100  1
  O  O16  1  0.09712500  0.13367100  0.25035100  1
  O  O17  1  0.61326300  0.85839200  0.24854300  1
  O  O18  1  0.97487900  0.90879200  0.10288000  1
  O  O19  1  0.90735100  0.38714100  0.07936200  1
loop_
_geom_bond_atom_site_label_1
_geom_bond_atom_site_label_2
_geom_bond_distance
_geom_bond_site_symmetry_2
Nb0 O1 1.915637 1_555
Nb0 O2 2.011926 1_655
Nb0 O4 2.086973 1_555
Nb0 O3 2.276367 1_545
Nb1 O0 1.862576 1_555
Nb1 O5 1.965968 1_555
Nb1 O3 1.995373 1_555
Nb1 O2 2.142465 1_565
Nb1 O4 2.445346 1_565
Nb2 O8 1.874697 1_555
Nb2 O4 1.953980 1_555
Nb2 O6 2.002797 1_555
Nb2 O7 2.145858 1_555
Nb2 O5 2.436328 1_555
Nb3 O9 1.940355 1_555
Nb3 O7 2.017390 1_655
Nb3 O5 2.075765 1_555
Nb3 O6 2.312914 1_555
Nb4 O16 1.876612 1_555
Nb4 O10 1.896829 1_555
Nb4 O12 2.010541 1_455
Nb4 O14 2.047914 1_555
Nb4 O13 2.224713 1_555
Nb4 O15 2.256417 1_555
Nb5 O11 1.871419 1_555
Nb5 O17 1.911969 1_555
Nb5 O13 1.998193 1_555
Nb5 O15 2.026068 1_655
Nb5 O12 2.151942 1_555
Nb5 O14 2.404522 1_555
Nb6 O19 1.872678 1_555
Nb6 O14 2.031884 1_555
Nb6 O18 2.093145 1_545
Nb6 O16 2.220665 1_655
Nb6 O17 2.451403 1_545
Nb7 O18 2.005118 1_455
Nb7 O15 2.118363 1_555
Nb7 O17 2.143891 1_555
Nb7 O16 2.541704 1_565
N0 Nb3 1.902012 1_555
N0 Nb1 2.055464 1_655
N0 Nb0 2.252060 1_565
N1 Nb0 1.917597 1_555
N1 Nb2 2.045830 1_655
N1 Nb3 2.227872 1_555
N2 Nb6 1.894946 1_555
N2 Nb7 2.069420 1_545
N2 Y0 2.296685 1_554
N3 Nb7 1.815402 1_555
N3 Y1 2.292784 1_555
N3 Y0 2.353310 1_554
O0 Y1 2.356773 1_456
O0 Y0 2.404739 1_555
O1 Y0 2.272695 1_555
O1 Y1 2.406730 1_556
O2 Y0 2.278041 1_555
O3 Y1 2.283719 1_556
O3 Y0 2.810392 1_565
O6 Y2 2.259542 1_555
O6 Y3 2.721334 1_555
O7 Y3 2.242938 1_555
O8 Y2 2.314199 1_455
O8 Y3 2.408128 1_545
O9 Y3 2.258430 1_555
O9 Y2 2.352251 1_565
O10 Y2 2.295889 1_555
O10 Y3 2.402735 1_545
O11 Y3 2.358376 1_655
O11 Y2 2.422601 1_565
O12 Y2 2.283080 1_555
O12 Y3 2.946317 1_655
O13 Y3 2.258383 1_555
O18 Y1 2.282674 1_555
O19 Y0 2.336723 1_654
O19 Y1 2.436270 1_555
