# generated using pymatgen
data_UB4W
_symmetry_space_group_name_H-M   'P 1'
_cell_length_a   5.91029569
_cell_length_b   11.45062995
_cell_length_c   3.66184598
_cell_angle_alpha   90.00102326
_cell_angle_beta   89.99911680
_cell_angle_gamma   89.99978989
_symmetry_Int_Tables_number   1
_chemical_formula_structural   UB4W
_chemical_formula_sum   'U4 B16 W4'
_cell_volume   247.82131799
_cell_formula_units_Z   4
loop_
 _symmetry_equiv_pos_site_id
 _symmetry_equiv_pos_as_xyz
  1  'x, y, z'
loop_
 _atom_site_type_symbol
 _atom_site_label
 _atom_site_symmetry_multiplicity
 _atom_site_fract_x
 _atom_site_fract_y
 _atom_site_fract_z
 _atom_site_occupancy
  U  U0  1  0.12646399  0.15043782  0.00000093  1
  U  U1  1  0.87353510  0.84955130  0.00000055  1
  U  U2  1  0.62646359  0.34947996  0.00000067  1
  U  U3  1  0.37351918  0.65052615  0.00000059  1
  B  B0  1  0.47385837  0.19318733  0.50000083  1
  B  B1  1  0.52614041  0.80680969  0.50000045  1
  B  B2  1  0.97385560  0.30675166  0.50000077  1
  B  B3  1  0.02617624  0.69323889  0.50000056  1
  B  B4  1  0.36699659  0.46860254  0.50000048  1
  B  B5  1  0.63298657  0.53139426  0.50000062  1
  B  B6  1  0.86699472  0.03140072  0.50000056  1
  B  B7  1  0.13300613  0.96861568  0.50000090  1
  B  B8  1  0.29060253  0.31254106  0.50000014  1
  B  B9  1  0.70937097  0.68745462  0.50000110  1
  B  B10  1  0.79060347  0.18740129  0.50000073  1
  B  B11  1  0.20940253  0.81259409  0.50000054  1
  B  B12  1  0.38519756  0.04711378  0.50000077  1
  B  B13  1  0.61480068  0.95289633  0.50000057  1
  B  B14  1  0.88518599  0.45287849  0.50000065  1
  B  B15  1  0.11482961  0.54711724  0.50000062  1
  W  W0  1  0.13629663  0.40914864  0.00000131  1
  W  W1  1  0.86371356  0.59086567  0.00000006  1
  W  W2  1  0.63636596  0.09082073  0.00000084  1
  W  W3  1  0.36364101  0.90916805  0.00000075  1
loop_
_geom_bond_atom_site_label_1
_geom_bond_atom_site_label_2
_geom_bond_distance
_geom_bond_site_symmetry_2
U0 W0 2.962972 1_555
U0 W2 2.975981 1_455
U0 W2 3.090019 1_555
U0 W3 3.097973 1_545
U1 W1 2.962682 1_555
U1 W3 2.976025 1_655
U1 W3 3.089972 1_555
U1 W2 3.097949 1_565
U2 W2 2.962389 1_555
U2 W0 2.976508 1_555
U2 W0 3.089757 1_655
U2 W1 3.099361 1_555
U3 W3 2.962188 1_555
U3 W1 2.976644 1_555
U3 W1 3.089578 1_455
U3 W0 3.099204 1_555
B0 B8 1.743814 1_555
B0 B12 1.752798 1_555
B0 B10 1.873229 1_555
B0 W2 2.376679 1_555
B0 W2 2.376734 1_556
B0 U2 2.714510 1_556
B0 U2 2.714535 1_555
B0 U0 2.794185 1_556
B0 U0 2.794214 1_555
B1 B9 1.743733 1_555
B1 B13 1.752940 1_555
B1 B11 1.873186 1_555
B1 W3 2.376614 1_556
B1 W3 2.376667 1_555
B1 U3 2.714473 1_555
B1 U3 2.714498 1_556
B1 U1 2.794170 1_555
B1 U1 2.794200 1_556
B2 B8 1.873242 1_655
B2 W0 2.376719 1_656
B2 W0 2.376726 1_655
B2 U0 2.714653 1_655
B2 U0 2.714716 1_656
B2 U2 2.794117 1_556
B2 U2 2.794171 1_555
B3 B9 1.873584 1_455
B3 W1 2.376637 1_455
B3 W1 2.376643 1_456
B3 U1 2.714707 1_456
B3 U1 2.714769 1_455
B3 U3 2.793873 1_555
B3 U3 2.793926 1_556
B4 B5 1.728702 1_555
B4 B8 1.843162 1_555
B4 W0 2.382200 1_556
B4 W0 2.382209 1_555
B4 U2 2.750339 1_555
B4 U2 2.750404 1_556
B4 U3 2.773645 1_556
B4 U3 2.773693 1_555
B5 B9 1.843135 1_555
B5 W1 2.382348 1_555
B5 W1 2.382359 1_556
B5 U3 2.750393 1_556
B5 U3 2.750457 1_555
B5 U2 2.773564 1_555
B5 U2 2.773613 1_556
B6 B7 1.728780 1_645
B6 W2 2.381825 1_556
B6 W2 2.381875 1_555
B6 U0 2.749899 1_655
B6 U0 2.749899 1_656
B6 U1 2.773007 1_545
B6 U1 2.773057 1_546
B7 W3 2.381936 1_555
B7 W3 2.381986 1_556
B7 U1 2.750059 1_456
B7 U1 2.750060 1_455
B7 U0 2.772773 1_566
B7 U0 2.772822 1_565
B8 W0 2.325428 1_556
B8 W0 2.325474 1_555
B8 U2 2.733400 1_555
B8 U2 2.733434 1_556
B8 U0 2.781860 1_555
B8 U0 2.781887 1_556
B9 W1 2.325411 1_555
B9 W1 2.325458 1_556
B9 U3 2.733342 1_556
B9 U3 2.733375 1_555
B9 U1 2.781863 1_556
B9 U1 2.781889 1_555
B10 B2 1.743777 1_555
B10 B6 1.842478 1_555
B10 W2 2.325143 1_555
B10 W2 2.325153 1_556
B10 U0 2.733430 1_655
B10 U0 2.733482 1_656
B10 U2 2.781652 1_556
B10 U2 2.781716 1_555
B11 B3 1.743725 1_555
B11 B7 1.842719 1_555
B11 W3 2.325111 1_556
B11 W3 2.325118 1_555
B11 U1 2.733449 1_456
B11 U1 2.733500 1_455
B11 U3 2.781522 1_555
B11 U3 2.781586 1_556
B12 B13 1.733613 1_545
B12 B7 1.740579 1_545
B12 W2 2.409644 1_555
B12 W2 2.409666 1_556
B12 W3 2.421455 1_545
B12 W3 2.421495 1_546
B12 U0 2.662765 1_556
B12 U0 2.662826 1_555
B13 B6 1.740629 1_565
B13 W3 2.409664 1_556
B13 W3 2.409684 1_555
B13 W2 2.421299 1_566
B13 W2 2.421337 1_565
B13 U1 2.662874 1_555
B13 U1 2.662936 1_556
B14 B15 1.733958 1_655
B14 B5 1.740718 1_555
B14 B2 1.753392 1_555
B14 W0 2.409471 1_655
B14 W0 2.409523 1_656
B14 W1 2.421733 1_556
B14 W1 2.421782 1_555
B14 U2 2.663140 1_556
B14 U2 2.663143 1_555
B15 B4 1.740547 1_555
B15 B3 1.753306 1_555
B15 W1 2.409535 1_456
B15 W1 2.409586 1_455
B15 W0 2.421592 1_555
B15 W0 2.421642 1_556
B15 U3 2.663081 1_555
B15 U3 2.663085 1_556
W0 W1 2.631553 1_455
W2 W3 2.631493 1_545
