# generated using pymatgen
data_TiFeSi
_symmetry_space_group_name_H-M   'P 1'
_cell_length_a   7.12129108
_cell_length_b   7.12129108
_cell_length_c   7.12129108
_cell_angle_alpha   127.85865614
_cell_angle_beta   121.66945916
_cell_angle_gamma   82.02542190
_symmetry_Int_Tables_number   1
_chemical_formula_structural   TiFeSi
_chemical_formula_sum   'Ti6 Fe6 Si6'
_cell_volume   233.45028350
_cell_formula_units_Z   6
loop_
 _symmetry_equiv_pos_site_id
 _symmetry_equiv_pos_as_xyz
  1  'x, y, z'
loop_
 _atom_site_type_symbol
 _atom_site_label
 _atom_site_symmetry_multiplicity
 _atom_site_fract_x
 _atom_site_fract_y
 _atom_site_fract_z
 _atom_site_occupancy
  Ti  Ti0  1  0.74664000  0.08056300  0.83392400  1
  Ti  Ti1  1  0.47644300  0.96154500  0.98510100  1
  Ti  Ti2  1  0.52355700  0.50865800  0.48510100  1
  Ti  Ti3  1  0.94584700  0.89646800  0.45062100  1
  Ti  Ti4  1  0.25336000  0.08728400  0.33392400  1
  Ti  Ti5  1  0.05415300  0.50477500  0.95062100  1
  Fe  Fe0  1  0.50000000  0.74868000  0.24868000  1
  Fe  Fe1  1  0.00000000  0.74868000  0.74868000  1
  Fe  Fe2  1  0.91032800  0.25555700  0.41258400  1
  Fe  Fe3  1  0.65702700  0.50225600  0.91258400  1
  Fe  Fe4  1  0.34297300  0.25555700  0.84523000  1
  Fe  Fe5  1  0.08967200  0.50225600  0.34523000  1
  Si  Si0  1  0.28021300  0.52312900  0.74291600  1
  Si  Si1  1  0.15904800  0.17239100  0.99650100  1
  Si  Si2  1  0.67588900  0.17239100  0.51334200  1
  Si  Si3  1  0.32411100  0.83745300  0.49650100  1
  Si  Si4  1  0.71978700  0.46270400  0.24291600  1
  Si  Si5  1  0.84095200  0.83745300  0.01334200  1
loop_
_geom_bond_atom_site_label_1
_geom_bond_atom_site_label_2
_geom_bond_distance
_geom_bond_site_symmetry_2
Fe0 Si4 2.383122 1_555
Fe0 Si0 2.383127 1_554
Fe0 Si3 2.411450 1_555
Fe0 Si2 2.411456 1_565
Fe0 Fe4 2.677496 1_554
Fe0 Fe3 2.677497 1_554
Fe0 Ti0 2.723150 1_565
Fe0 Ti4 2.723150 1_565
Fe0 Ti5 2.744346 1_554
Fe0 Ti3 2.744348 1_555
Fe0 Ti2 2.990057 1_555
Fe0 Ti1 2.990063 1_554
Fe1 Si4 2.383127 1_455
Fe1 Si0 2.383127 1_555
Fe1 Si5 2.411450 1_456
Fe1 Si1 2.411456 1_565
Fe1 Fe5 2.677491 1_555
Fe1 Fe2 2.677497 1_455
Fe1 Ti0 2.723145 1_465
Fe1 Ti4 2.723150 1_566
Fe1 Ti5 2.744341 1_555
Fe1 Ti3 2.744348 1_455
Fe1 Ti2 2.990057 1_455
Fe1 Ti1 2.990059 1_555
Fe2 Si4 2.321198 1_555
Fe2 Si0 2.342482 1_655
Fe2 Si2 2.388864 1_555
Fe2 Si5 2.394853 1_545
Fe2 Ti5 2.629917 1_655
Fe2 Ti3 2.697276 1_545
Fe2 Ti1 2.700536 1_544
Fe2 Ti4 2.741875 1_655
Fe3 Si0 2.321192 1_555
Fe3 Si4 2.342477 1_556
Fe3 Si5 2.388868 1_556
Fe3 Si2 2.394852 1_555
Fe3 Ti3 2.629918 1_556
Fe3 Ti5 2.697277 1_655
Fe3 Ti2 2.700538 1_555
Fe3 Ti0 2.741881 1_555
Fe4 Si4 2.321190 1_556
Fe4 Si0 2.342487 1_555
Fe4 Si1 2.388857 1_555
Fe4 Si3 2.394855 1_545
Fe4 Ti5 2.629919 1_555
Fe4 Ti3 2.697275 1_445
Fe4 Ti1 2.700526 1_545
Fe4 Ti4 2.741881 1_555
Fe5 Si0 2.321185 1_555
Fe5 Si4 2.342478 1_455
Fe5 Si3 2.388872 1_555
Fe5 Si1 2.394855 1_554
Fe5 Ti3 2.629919 1_455
Fe5 Ti5 2.697288 1_554
Fe5 Ti2 2.700539 1_555
Fe5 Ti0 2.741879 1_454
Si0 Ti4 2.576227 1_555
Si0 Ti1 2.597185 1_555
Si0 Ti5 2.755443 1_555
Si0 Ti2 3.073023 1_555
Si1 Ti0 2.535065 1_455
Si1 Ti5 2.543584 1_555
Si1 Ti1 2.543867 1_545
Si1 Ti3 2.555874 1_445
Si1 Ti4 2.563645 1_556
Si1 Ti2 2.567663 1_556
Si2 Ti0 2.535074 1_555
Si2 Ti5 2.543584 1_655
Si2 Ti1 2.543867 1_544
Si2 Ti3 2.555879 1_545
Si2 Ti4 2.563640 1_555
Si2 Ti2 2.567658 1_555
Si3 Ti4 2.535063 1_565
Si3 Ti3 2.543584 1_455
Si3 Ti2 2.543867 1_555
Si3 Ti5 2.555874 1_554
Si3 Ti0 2.563638 1_565
Si3 Ti1 2.567662 1_555
Si4 Ti0 2.576232 1_554
Si4 Ti2 2.597181 1_555
Si4 Ti3 2.755440 1_555
Si4 Ti1 3.073023 1_544
Si5 Ti4 2.535063 1_665
Si5 Ti3 2.543584 1_555
Si5 Ti2 2.543867 1_554
Si5 Ti5 2.555869 1_654
Si5 Ti0 2.563633 1_564
Si5 Ti1 2.567667 1_554
