# generated using pymatgen
data_Ca3Sn2S7
_symmetry_space_group_name_H-M   'P 1'
_cell_length_a   12.25480904
_cell_length_b   12.25480904
_cell_length_c   12.25480904
_cell_angle_alpha   156.43633757
_cell_angle_beta   156.43633757
_cell_angle_gamma   33.56771831
_symmetry_Int_Tables_number   1
_chemical_formula_structural   Ca3Sn2S7
_chemical_formula_sum   'Ca3 Sn2 S7'
_cell_volume   293.84874621
_cell_formula_units_Z   1
loop_
 _symmetry_equiv_pos_site_id
 _symmetry_equiv_pos_as_xyz
  1  'x, y, z'
loop_
 _atom_site_type_symbol
 _atom_site_label
 _atom_site_symmetry_multiplicity
 _atom_site_fract_x
 _atom_site_fract_y
 _atom_site_fract_z
 _atom_site_occupancy
  Ca  Ca0  1  0.50000000  0.50000000  0.00000000  1
  Ca  Ca1  1  0.32823000  0.32823000  0.00000000  1
  Ca  Ca2  1  0.67177000  0.67177000  0.00000000  1
  Sn  Sn0  1  0.11129000  0.11129000  0.00000000  1
  Sn  Sn1  1  0.88871000  0.88871000  0.00000000  1
  S  S0  1  0.00000000  0.00000000  0.00000000  1
  S  S1  1  0.09025900  0.59025900  0.50000000  1
  S  S2  1  0.59025900  0.09025900  0.50000000  1
  S  S3  1  0.90974100  0.40974100  0.50000000  1
  S  S4  1  0.40974100  0.90974100  0.50000000  1
  S  S5  1  0.21346100  0.21346100  0.00000000  1
  S  S6  1  0.78653900  0.78653900  0.00000000  1
loop_
_geom_bond_atom_site_label_1
_geom_bond_atom_site_label_2
_geom_bond_distance
_geom_bond_site_symmetry_2
Ca0 S2 3.278278 1_565
Ca0 S1 3.278278 1_655
Ca0 S2 3.278278 1_554
Ca0 S1 3.278278 1_554
Ca0 S4 3.278278 1_555
Ca0 S4 3.278278 1_544
Ca0 S3 3.278278 1_555
Ca0 S3 3.278278 1_454
Ca1 S5 2.693115 1_555
Ca1 S3 3.149556 1_555
Ca1 S3 3.149556 1_454
Ca1 S4 3.149556 1_544
Ca1 S4 3.149556 1_555
Ca2 S6 2.693115 1_555
Ca2 S1 3.149556 1_655
Ca2 S2 3.149556 1_565
Ca2 S2 3.149556 1_554
Ca2 S1 3.149556 1_554
S0 Sn1 2.611479 1_445
S0 Sn0 2.611479 1_555
S1 Sn0 2.550457 1_566
S1 Sn0 2.550457 1_555
S2 Sn0 2.550457 1_656
S2 Sn0 2.550457 1_555
S3 Sn1 2.550457 1_545
S3 Sn1 2.550457 1_556
S4 Sn1 2.550457 1_455
S4 Sn1 2.550457 1_556
S5 Sn0 2.397497 1_555
S6 Sn1 2.397497 1_555
