# generated using pymatgen
data_LiTa3O8
_symmetry_space_group_name_H-M   'P 1'
_cell_length_a   7.78152900
_cell_length_b   8.99892700
_cell_length_c   16.98349300
_cell_angle_alpha   90.00000000
_cell_angle_beta   90.00000000
_cell_angle_gamma   90.00000000
_symmetry_Int_Tables_number   1
_chemical_formula_structural   LiTa3O8
_chemical_formula_sum   'Li8 Ta24 O64'
_cell_volume   1189.27608466
_cell_formula_units_Z   8
loop_
 _symmetry_equiv_pos_site_id
 _symmetry_equiv_pos_as_xyz
  1  'x, y, z'
loop_
 _atom_site_type_symbol
 _atom_site_label
 _atom_site_symmetry_multiplicity
 _atom_site_fract_x
 _atom_site_fract_y
 _atom_site_fract_z
 _atom_site_occupancy
  Li  Li0  1  0.50000000  0.07823600  0.09013500  1
  Li  Li1  1  0.00000000  0.31769800  0.25150200  1
  Li  Li2  1  0.50000000  0.08092100  0.41003900  1
  Li  Li3  1  0.00000000  0.53091000  0.49530100  1
  Li  Li4  1  0.00000000  0.92176400  0.59013500  1
  Li  Li5  1  0.50000000  0.68230200  0.75150200  1
  Li  Li6  1  0.00000000  0.91907900  0.91003900  1
  Li  Li7  1  0.50000000  0.46909000  0.99530100  1
  Ta  Ta0  1  0.25080800  0.80812700  0.05997200  1
  Ta  Ta1  1  0.74919200  0.80812700  0.05997200  1
  Ta  Ta2  1  0.74864300  0.39491000  0.12991300  1
  Ta  Ta3  1  0.25135700  0.39491000  0.12991300  1
  Ta  Ta4  1  0.24817200  0.68614100  0.25049500  1
  Ta  Ta5  1  0.74850100  0.05111500  0.24976900  1
  Ta  Ta6  1  0.25149900  0.05111500  0.24976900  1
  Ta  Ta7  1  0.75182800  0.68614100  0.25049500  1
  Ta  Ta8  1  0.74440900  0.39418200  0.37049800  1
  Ta  Ta9  1  0.25559100  0.39418200  0.37049800  1
  Ta  Ta10  1  0.25159900  0.81239700  0.43985200  1
  Ta  Ta11  1  0.74840100  0.81239700  0.43985200  1
  Ta  Ta12  1  0.75080800  0.19187300  0.55997200  1
  Ta  Ta13  1  0.24919200  0.19187300  0.55997200  1
  Ta  Ta14  1  0.24864300  0.60509000  0.62991300  1
  Ta  Ta15  1  0.75135700  0.60509000  0.62991300  1
  Ta  Ta16  1  0.74817200  0.31385900  0.75049500  1
  Ta  Ta17  1  0.25182800  0.31385900  0.75049500  1
  Ta  Ta18  1  0.24850100  0.94888500  0.74976900  1
  Ta  Ta19  1  0.75149900  0.94888500  0.74976900  1
  Ta  Ta20  1  0.24440900  0.60581800  0.87049800  1
  Ta  Ta21  1  0.75559100  0.60581800  0.87049800  1
  Ta  Ta22  1  0.75159900  0.18760300  0.93985200  1
  Ta  Ta23  1  0.24840100  0.18760300  0.93985200  1
  O  O0  1  0.74710500  0.99919000  0.99924400  1
  O  O1  1  0.25289500  0.99919000  0.99924400  1
  O  O2  1  0.77916200  0.33749600  0.02112900  1
  O  O3  1  0.22083800  0.33749600  0.02112900  1
  O  O4  1  0.00000000  0.80788200  0.04146300  1
  O  O5  1  0.50000000  0.84742100  0.07412900  1
  O  O6  1  0.50000000  0.41746100  0.10724400  1
  O  O7  1  0.75588800  0.61914700  0.13205600  1
  O  O8  1  0.24411200  0.61914700  0.13205600  1
  O  O9  1  0.00000000  0.38247800  0.14513400  1
  O  O10  1  0.29128500  0.18987900  0.16316000  1
  O  O11  1  0.70871500  0.18987900  0.16316000  1
  O  O12  1  0.77519200  0.87583000  0.17457000  1
  O  O13  1  0.22480800  0.87583000  0.17457000  1
  O  O14  1  0.50000000  0.69727100  0.25044300  1
  O  O15  1  0.73519800  0.45058300  0.25016900  1
  O  O16  1  0.00000000  0.67250500  0.25001700  1
  O  O17  1  0.26480200  0.45058300  0.25016900  1
  O  O18  1  0.50000000  0.01721100  0.25013300  1
  O  O19  1  0.00000000  0.09853400  0.24952700  1
  O  O20  1  0.77594800  0.87578400  0.32512700  1
  O  O21  1  0.22405200  0.87578400  0.32512700  1
  O  O22  1  0.28738400  0.18728700  0.33823800  1
  O  O23  1  0.71261600  0.18728700  0.33823800  1
  O  O24  1  0.00000000  0.38944800  0.35611300  1
  O  O25  1  0.75526700  0.61859900  0.36881000  1
  O  O26  1  0.24473300  0.61859900  0.36881000  1
  O  O27  1  0.50000000  0.41017200  0.38866500  1
  O  O28  1  0.50000000  0.84787300  0.42649100  1
  O  O29  1  0.00000000  0.79789600  0.45673300  1
  O  O30  1  0.79389300  0.34312200  0.48016500  1
  O  O31  1  0.20610700  0.34312200  0.48016500  1
  O  O32  1  0.75289500  0.00081000  0.49924400  1
  O  O33  1  0.24710500  0.00081000  0.49924400  1
  O  O34  1  0.27916200  0.66250400  0.52112900  1
  O  O35  1  0.72083800  0.66250400  0.52112900  1
  O  O36  1  0.50000000  0.19211800  0.54146300  1
  O  O37  1  0.00000000  0.15257900  0.57412900  1
  O  O38  1  0.00000000  0.58253900  0.60724400  1
  O  O39  1  0.25588800  0.38085300  0.63205600  1
  O  O40  1  0.74411200  0.38085300  0.63205600  1
  O  O41  1  0.50000000  0.61752200  0.64513400  1
  O  O42  1  0.79128500  0.81012100  0.66316000  1
  O  O43  1  0.20871500  0.81012100  0.66316000  1
  O  O44  1  0.27519200  0.12417000  0.67457000  1
  O  O45  1  0.72480800  0.12417000  0.67457000  1
  O  O46  1  0.00000000  0.30272900  0.75044300  1
  O  O47  1  0.00000000  0.98278900  0.75013300  1
  O  O48  1  0.23519800  0.54941700  0.75016900  1
  O  O49  1  0.50000000  0.32749500  0.75001700  1
  O  O50  1  0.50000000  0.90146600  0.74952700  1
  O  O51  1  0.76480200  0.54941700  0.75016900  1
  O  O52  1  0.27594800  0.12421600  0.82512700  1
  O  O53  1  0.72405200  0.12421600  0.82512700  1
  O  O54  1  0.78738400  0.81271300  0.83823800  1
  O  O55  1  0.21261600  0.81271300  0.83823800  1
  O  O56  1  0.50000000  0.61055200  0.85611300  1
  O  O57  1  0.25526700  0.38140100  0.86881000  1
  O  O58  1  0.74473300  0.38140100  0.86881000  1
  O  O59  1  0.00000000  0.58982800  0.88866500  1
  O  O60  1  0.00000000  0.15212700  0.92649100  1
  O  O61  1  0.50000000  0.20210400  0.95673300  1
  O  O62  1  0.29389300  0.65687800  0.98016500  1
  O  O63  1  0.70610700  0.65687800  0.98016500  1
loop_
_geom_bond_atom_site_label_1
_geom_bond_atom_site_label_2
_geom_bond_distance
_geom_bond_site_symmetry_2
Li0 O5 2.094800 1_545
Li0 O11 2.277119 1_555
Li0 O10 2.277119 1_555
Li0 O61 2.524995 1_554
Li0 O0 2.566360 1_544
Li0 O1 2.566360 1_544
Li1 O24 1.890348 1_555
Li1 O9 1.898229 1_555
Li1 O19 1.972526 1_555
Li1 O17 2.382526 1_555
Li1 O15 2.382526 1_455
Li2 O28 2.115713 1_545
Li2 O23 2.267268 1_555
Li2 O22 2.267268 1_555
Li2 O36 2.446079 1_555
Li2 O33 2.586049 1_555
Li2 O32 2.586049 1_555
Li3 O38 1.957129 1_555
Li3 O31 2.343944 1_555
Li3 O30 2.343944 1_455
Li3 O29 2.490277 1_555
Li3 O34 2.512702 1_555
Li3 O35 2.512702 1_455
Li4 O37 2.094800 1_565
Li4 O43 2.277119 1_555
Li4 O42 2.277119 1_455
Li4 O29 2.524995 1_555
Li4 O32 2.566360 1_465
Li4 O33 2.566360 1_565
Li5 O56 1.890348 1_555
Li5 O41 1.898229 1_555
Li5 O50 1.972526 1_555
Li5 O48 2.382526 1_555
Li5 O51 2.382526 1_555
Li6 O60 2.115713 1_565
Li6 O55 2.267268 1_555
Li6 O54 2.267268 1_455
Li6 O4 2.446079 1_556
Li6 O0 2.586049 1_455
Li6 O1 2.586049 1_555
Li7 O6 1.957129 1_556
Li7 O63 2.343944 1_555
Li7 O62 2.343944 1_555
Li7 O61 2.490277 1_555
Li7 O2 2.512702 1_556
Li7 O3 2.512702 1_556
O0 Ta22 1.973179 1_565
O0 Ta1 2.005044 1_556
O1 Ta23 1.973179 1_565
O1 Ta0 2.005044 1_556
O2 Ta2 1.933059 1_555
O2 Ta22 1.941876 1_554
O3 Ta3 1.933059 1_555
O3 Ta23 1.941876 1_554
O4 Ta0 1.976824 1_555
O4 Ta1 1.976824 1_455
O5 Ta1 1.985682 1_555
O5 Ta0 1.985682 1_555
O6 Ta2 1.983166 1_555
O6 Ta3 1.983166 1_555
O7 Ta2 2.019008 1_555
O7 Ta1 2.096085 1_555
O7 Ta7 2.100147 1_555
O8 Ta3 2.019008 1_555
O8 Ta0 2.096085 1_555
O8 Ta4 2.100147 1_555
O9 Ta3 1.976120 1_555
O9 Ta2 1.976120 1_455
O10 Ta6 1.954171 1_555
O10 Ta3 1.954382 1_555
O11 Ta5 1.954171 1_555
O11 Ta2 1.954382 1_555
O12 Ta5 2.040183 1_565
O12 Ta1 2.049416 1_555
O12 Ta7 2.147005 1_555
O13 Ta6 2.040183 1_565
O13 Ta0 2.049416 1_555
O13 Ta4 2.147005 1_555
O14 Ta7 1.962165 1_555
O14 Ta4 1.962165 1_555
O15 Ta2 2.105518 1_555
O15 Ta8 2.106910 1_555
O15 Ta7 2.123723 1_555
O16 Ta4 1.935069 1_555
O16 Ta7 1.935069 1_455
O17 Ta3 2.105518 1_555
O17 Ta9 2.106910 1_555
O17 Ta4 2.123723 1_555
O18 Ta5 1.957649 1_555
O18 Ta6 1.957649 1_555
O19 Ta6 2.003032 1_555
O19 Ta5 2.003032 1_455
O20 Ta11 2.041496 1_555
O20 Ta5 2.042801 1_565
O20 Ta7 2.134067 1_555
O21 Ta10 2.041496 1_555
O21 Ta6 2.042801 1_565
O21 Ta4 2.134067 1_555
O22 Ta9 1.956479 1_555
O22 Ta6 1.958859 1_555
O23 Ta8 1.956479 1_555
O23 Ta5 1.958859 1_555
O24 Ta9 2.004290 1_555
O24 Ta8 2.004290 1_455
O25 Ta8 2.021482 1_555
O25 Ta7 2.099486 1_555
O25 Ta11 2.121330 1_555
O26 Ta9 2.021482 1_555
O26 Ta4 2.099486 1_555
O26 Ta10 2.121330 1_555
O27 Ta8 1.932106 1_555
O27 Ta9 1.932106 1_555
O28 Ta11 1.972223 1_555
O28 Ta10 1.972223 1_555
O29 Ta10 1.983003 1_555
O29 Ta11 1.983003 1_455
O30 Ta12 1.949885 1_555
O30 Ta8 1.956633 1_555
O31 Ta13 1.949885 1_555
O31 Ta9 1.956633 1_555
O32 Ta11 1.973179 1_545
O32 Ta12 2.005044 1_555
O33 Ta10 1.973179 1_545
O33 Ta13 2.005044 1_555
O34 Ta14 1.933059 1_555
O34 Ta10 1.941876 1_555
O35 Ta15 1.933059 1_555
O35 Ta11 1.941876 1_555
O36 Ta12 1.976824 1_555
O36 Ta13 1.976824 1_555
O37 Ta13 1.985682 1_555
O37 Ta12 1.985682 1_455
O38 Ta14 1.983166 1_555
O38 Ta15 1.983166 1_455
O39 Ta14 2.019008 1_555
O39 Ta13 2.096085 1_555
O39 Ta17 2.100147 1_555
O40 Ta15 2.019008 1_555
O40 Ta12 2.096085 1_555
O40 Ta16 2.100147 1_555
O41 Ta15 1.976120 1_555
O41 Ta14 1.976120 1_555
O42 Ta19 1.954171 1_555
O42 Ta15 1.954382 1_555
O43 Ta18 1.954171 1_555
O43 Ta14 1.954382 1_555
O44 Ta18 2.040183 1_545
O44 Ta13 2.049416 1_555
O44 Ta17 2.147005 1_555
O45 Ta19 2.040183 1_545
O45 Ta12 2.049416 1_555
O45 Ta16 2.147005 1_555
O46 Ta17 1.962165 1_555
O46 Ta16 1.962165 1_455
O47 Ta18 1.957649 1_555
O47 Ta19 1.957649 1_455
O48 Ta14 2.105518 1_555
O48 Ta20 2.106910 1_555
O48 Ta17 2.123723 1_555
O49 Ta16 1.935069 1_555
O49 Ta17 1.935069 1_555
O50 Ta19 2.003032 1_555
O50 Ta18 2.003032 1_555
O51 Ta15 2.105518 1_555
O51 Ta21 2.106910 1_555
O51 Ta16 2.123723 1_555
O52 Ta23 2.041496 1_555
O52 Ta18 2.042801 1_545
O52 Ta17 2.134067 1_555
O53 Ta22 2.041496 1_555
O53 Ta19 2.042801 1_545
O53 Ta16 2.134067 1_555
O54 Ta21 1.956479 1_555
O54 Ta19 1.958859 1_555
O55 Ta20 1.956479 1_555
O55 Ta18 1.958859 1_555
O56 Ta20 2.004290 1_555
O56 Ta21 2.004290 1_555
O57 Ta20 2.021482 1_555
O57 Ta17 2.099486 1_555
O57 Ta23 2.121330 1_555
O58 Ta21 2.021482 1_555
O58 Ta16 2.099486 1_555
O58 Ta22 2.121330 1_555
O59 Ta21 1.932106 1_455
O59 Ta20 1.932106 1_555
O60 Ta23 1.972223 1_555
O60 Ta22 1.972223 1_455
O61 Ta22 1.983003 1_555
O61 Ta23 1.983003 1_555
O62 Ta0 1.949885 1_556
O62 Ta20 1.956633 1_555
O63 Ta1 1.949885 1_556
O63 Ta21 1.956633 1_555
