# generated using pymatgen
data_Li3V3P8O29
_symmetry_space_group_name_H-M   'P 1'
_cell_length_a   9.71930900
_cell_length_b   9.77670494
_cell_length_c   14.38678350
_cell_angle_alpha   91.26953106
_cell_angle_beta   89.86009362
_cell_angle_gamma   119.77671143
_symmetry_Int_Tables_number   1
_chemical_formula_structural   Li3V3P8O29
_chemical_formula_sum   'Li6 V6 P16 O58'
_cell_volume   1186.22550118
_cell_formula_units_Z   2
loop_
 _symmetry_equiv_pos_site_id
 _symmetry_equiv_pos_as_xyz
  1  'x, y, z'
loop_
 _atom_site_type_symbol
 _atom_site_label
 _atom_site_symmetry_multiplicity
 _atom_site_fract_x
 _atom_site_fract_y
 _atom_site_fract_z
 _atom_site_occupancy
  Li  Li0  1  0.69616900  0.91945300  0.55749700  1
  Li  Li1  1  0.09375500  0.32837800  0.06229000  1
  Li  Li2  1  0.77735800  0.68764100  0.43822700  1
  Li  Li3  1  0.22158600  0.29868900  0.55917200  1
  Li  Li4  1  0.90543500  0.67414700  0.94163100  1
  Li  Li5  1  0.99353300  0.99712700  0.00891600  1
  V  V0  1  0.55903000  0.56734800  0.24239200  1
  V  V1  1  0.43671600  0.43009800  0.75520100  1
  V  V2  1  0.00309300  0.56811900  0.74446600  1
  V  V3  1  0.99839800  0.43401900  0.25422500  1
  V  V4  1  0.43432300  0.99698600  0.24524100  1
  V  V5  1  0.56076900  0.00353100  0.75776000  1
  P  P0  1  0.21512100  0.91909800  0.84063700  1
  P  P1  1  0.09175000  0.78064000  0.33484300  1
  P  P2  1  0.68420000  0.91301200  0.34185100  1
  P  P3  1  0.32578400  0.66114700  0.13044000  1
  P  P4  1  0.33987100  0.66385200  0.63462000  1
  P  P5  1  0.69544600  0.78152500  0.83628000  1
  P  P6  1  0.76591600  0.67675000  0.65609800  1
  P  P7  1  0.08695200  0.31900100  0.84446200  1
  P  P8  1  0.91265300  0.68319100  0.15635300  1
  P  P9  1  0.23342300  0.32355700  0.34400500  1
  P  P10  1  0.30141300  0.21555200  0.16462000  1
  P  P11  1  0.66241400  0.33680200  0.36507000  1
  P  P12  1  0.67429900  0.34148000  0.86744900  1
  P  P13  1  0.30978900  0.08158000  0.65779700  1
  P  P14  1  0.90896700  0.22167500  0.66575200  1
  P  P15  1  0.78353400  0.08092700  0.16201900  1
  O  O0  1  0.23509000  0.00074300  0.56948500  1
  O  O1  1  0.26296800  0.92046500  0.33118500  1
  O  O2  1  0.97123700  0.76030600  0.06544700  1
  O  O3  1  0.08266200  0.74183200  0.83199200  1
  O  O4  1  0.38001600  0.92440000  0.83088000  1
  O  O5  1  0.32436200  0.80851000  0.17453000  1
  O  O6  1  0.52475300  0.90575900  0.31850200  1
  O  O7  1  0.81589000  0.00286600  0.08224400  1
  O  O8  1  0.65258600  0.91439400  0.83411900  1
  O  O9  1  0.18483900  0.65674100  0.67849700  1
  O  O10  1  0.09831700  0.62437600  0.31985200  1
  O  O11  1  0.48222500  0.81689300  0.67815300  1
  O  O12  1  0.32822800  0.65409500  0.02744500  1
  O  O13  1  0.33616000  0.65749400  0.53168800  1
  O  O14  1  0.48095400  0.66951900  0.17511900  1
  O  O15  1  0.08665200  0.47421300  0.82637900  1
  O  O16  1  0.18253900  0.50883700  0.17044100  1
  O  O17  1  0.66169500  0.74363700  0.33264400  1
  O  O18  1  0.78421000  0.79931700  0.73787100  1
  O  O19  1  0.75504400  0.74548300  0.56636900  1
  O  O20  1  0.80581800  0.80047300  0.91332700  1
  O  O21  1  0.54054300  0.61832000  0.82951700  1
  O  O22  1  0.34295900  0.51933400  0.67737800  1
  O  O23  1  0.73912300  0.64823400  0.17209300  1
  O  O24  1  0.38118000  0.48207800  0.31875700  1
  O  O25  1  0.08630400  0.34495100  0.32960600  1
  O  O26  1  0.01279500  0.80124500  0.24020700  1
  O  O27  1  0.99609400  0.77486300  0.41624700  1
  O  O28  1  0.00692000  0.22744900  0.58538500  1
  O  O29  1  0.91376200  0.65619000  0.66594000  1
  O  O30  1  0.61806400  0.51773100  0.67791500  1
  O  O31  1  0.25809300  0.34750500  0.82741200  1
  O  O32  1  0.65605100  0.48107100  0.32596000  1
  O  O33  1  0.45752100  0.37910900  0.16964300  1
  O  O34  1  0.18948900  0.19718100  0.08840300  1
  O  O35  1  0.24202300  0.26420000  0.43578700  1
  O  O36  1  0.21668300  0.19912400  0.26384700  1
  O  O37  1  0.33947000  0.25459700  0.66626900  1
  O  O38  1  0.81805100  0.49228800  0.82673600  1
  O  O39  1  0.91682000  0.52968200  0.17086600  1
  O  O40  1  0.51969000  0.33063900  0.82249800  1
  O  O41  1  0.67380000  0.34804600  0.97036500  1
  O  O42  1  0.66996000  0.33805700  0.46783700  1
  O  O43  1  0.52690900  0.18452400  0.31603700  1
  O  O44  1  0.90131700  0.37724600  0.67954500  1
  O  O45  1  0.81841600  0.34674900  0.32029000  1
  O  O46  1  0.34500500  0.08350000  0.16435600  1
  O  O47  1  0.19960900  0.99685900  0.74689700  1
  O  O48  1  0.19035500  0.99390500  0.92443500  1
  O  O49  1  0.47110200  0.08931600  0.68291200  1
  O  O50  1  0.67613600  0.19187700  0.82434600  1
  O  O51  1  0.61768700  0.06878100  0.16759900  1
  O  O52  1  0.91483200  0.25923100  0.16673900  1
  O  O53  1  0.02772300  0.24719700  0.93621200  1
  O  O54  1  0.98205300  0.19947600  0.76186900  1
  O  O55  1  0.73855400  0.07863500  0.66367700  1
  O  O56  1  0.75010700  0.98405300  0.43475000  1
  O  O57  1  0.80303200  0.01172200  0.26007200  1
loop_
_geom_bond_atom_site_label_1
_geom_bond_atom_site_label_2
_geom_bond_distance
_geom_bond_site_symmetry_2
Li0 O56 1.873040 1_555
Li0 O55 2.046015 1_565
Li0 O19 2.052633 1_555
Li0 O11 2.516153 1_555
Li1 O53 1.941097 1_554
Li1 O34 1.964852 1_555
Li1 O52 2.145647 1_455
Li1 O16 2.156639 1_555
Li2 O27 1.885444 1_555
Li2 O19 1.959382 1_555
Li2 O17 2.127739 1_555
Li2 O32 2.361619 1_555
Li3 O35 1.828239 1_555
Li3 O28 1.882780 1_555
Li3 O37 2.097903 1_555
Li3 O22 2.501355 1_555
Li4 O2 1.922407 1_556
Li4 O20 1.959723 1_555
Li4 O3 2.189487 1_655
Li4 O38 2.234195 1_555
Li5 O7 2.044948 1_565
Li5 O34 2.229828 1_665
Li5 O48 2.276946 1_654
Li5 O20 2.308120 1_554
Li5 O2 2.377688 1_555
Li5 O53 2.546863 1_664
O0 P13 1.468349 1_555
O1 P1 1.544042 1_555
O1 V4 1.911972 1_555
O2 P8 1.488876 1_555
O3 P0 1.565751 1_555
O3 V2 1.916642 1_555
O4 P0 1.583552 1_555
O4 V5 1.862408 1_565
O5 P3 1.567632 1_555
O5 V4 1.881163 1_555
O6 P2 1.553004 1_555
O6 V4 1.871807 1_555
O7 P15 1.482017 1_555
O8 P5 1.549607 1_555
O8 V5 1.892699 1_565
O9 P4 1.602192 1_555
O9 V2 1.811043 1_555
O10 P1 1.570600 1_555
O10 V3 1.851915 1_455
O11 P4 1.565825 1_555
O11 V5 1.937038 1_565
O12 P3 1.482524 1_555
O13 P4 1.480563 1_555
O14 P3 1.604422 1_555
O14 V0 1.819249 1_555
O15 P7 1.546697 1_555
O15 V2 1.919486 1_555
O16 P3 1.569015 1_555
O16 V3 1.979736 1_455
O17 P2 1.561459 1_555
O17 V0 1.962433 1_555
O18 P6 1.605773 1_555
O18 P5 1.623238 1_555
O19 P6 1.496266 1_555
O20 P5 1.487647 1_555
O21 P5 1.558818 1_555
O21 V1 1.903000 1_555
O22 P4 1.567274 1_555
O22 V1 1.919109 1_555
O23 P8 1.562599 1_555
O23 V0 1.834128 1_555
O24 P9 1.551770 1_555
O24 V0 1.868154 1_555
O25 P9 1.559387 1_555
O25 V3 1.857339 1_455
O26 P8 1.600966 1_455
O26 P1 1.629101 1_555
O27 P1 1.478033 1_655
O28 P14 1.480049 1_455
O29 P6 1.553852 1_555
O29 V2 1.887317 1_655
O30 P6 1.543045 1_555
O30 V1 1.899940 1_555
O31 P7 1.563734 1_555
O31 V1 1.838830 1_555
O32 P11 1.559435 1_555
O32 V0 1.971465 1_555
O33 P10 1.565215 1_555
O33 V0 1.889969 1_555
O34 P10 1.490305 1_555
O35 P9 1.473095 1_555
O36 P9 1.605775 1_555
O36 P10 1.617078 1_555
O37 P13 1.570265 1_555
O37 V1 1.942219 1_555
O38 P12 1.567556 1_555
O38 V2 1.972112 1_655
O39 P8 1.540121 1_555
O39 V3 1.931974 1_555
O40 P12 1.590929 1_555
O40 V1 1.832398 1_555
O41 P12 1.480700 1_555
O42 P11 1.479961 1_555
O43 P11 1.568159 1_555
O43 V4 1.868652 1_545
O44 P14 1.567526 1_555
O44 V2 1.851227 1_655
O45 P11 1.604684 1_555
O45 V3 1.799105 1_555
O46 P10 1.545755 1_555
O46 V4 1.897635 1_545
O47 P0 1.606158 1_555
O47 P13 1.623376 1_565
O48 P0 1.476698 1_555
O49 P13 1.574233 1_555
O49 V5 1.842025 1_555
O50 P12 1.584242 1_555
O50 V5 1.855270 1_555
O51 P15 1.558364 1_555
O51 V4 1.923302 1_545
O52 P15 1.567667 1_555
O52 V3 1.922279 1_555
O53 P7 1.484092 1_555
O54 P7 1.605608 1_655
O54 P14 1.623297 1_555
O55 P14 1.548444 1_555
O55 V5 2.032109 1_555
O56 P2 1.483292 1_555
O57 P2 1.608142 1_545
O57 P15 1.629304 1_555
