# generated using pymatgen
data_SnF3
_symmetry_space_group_name_H-M   'P 1'
_cell_length_a   6.15038128
_cell_length_b   6.15038069
_cell_length_c   6.15038130
_cell_angle_alpha   59.99999132
_cell_angle_beta   59.99999453
_cell_angle_gamma   59.99999311
_symmetry_Int_Tables_number   1
_chemical_formula_structural   SnF3
_chemical_formula_sum   'Sn2 F6'
_cell_volume   164.50951126
_cell_formula_units_Z   2
loop_
 _symmetry_equiv_pos_site_id
 _symmetry_equiv_pos_as_xyz
  1  'x, y, z'
loop_
 _atom_site_type_symbol
 _atom_site_label
 _atom_site_symmetry_multiplicity
 _atom_site_fract_x
 _atom_site_fract_y
 _atom_site_fract_z
 _atom_site_occupancy
  Sn  Sn0  1  0.50000000  0.50000000  0.50000000  1
  Sn  Sn1  1  -0.00000000  0.00000000  -0.00000000  1
  F  F0  1  0.27180945  0.72819055  0.72819055  1
  F  F1  1  0.27180945  0.72819055  0.27180945  1
  F  F2  1  0.72819055  0.27180945  0.27180945  1
  F  F3  1  0.72819055  0.72819055  0.27180945  1
  F  F4  1  0.27180945  0.27180945  0.72819055  1
  F  F5  1  0.72819055  0.27180945  0.72819055  1
loop_
_geom_bond_atom_site_label_1
_geom_bond_atom_site_label_2
_geom_bond_distance
_geom_bond_site_symmetry_2
F0 Sn0 1.984790 1_555
F0 Sn1 2.364186 1_566
F1 Sn0 1.984790 1_555
F1 Sn1 2.364186 1_565
F2 Sn0 1.984790 1_555
F2 Sn1 2.364186 1_655
F3 Sn0 1.984790 1_555
F3 Sn1 2.364185 1_665
F4 Sn0 1.984790 1_555
F4 Sn1 2.364185 1_556
F5 Sn0 1.984790 1_555
F5 Sn1 2.364186 1_656
