# generated using pymatgen
data_LiMn2(BO3)2
_symmetry_space_group_name_H-M   'P 1'
_cell_length_a   5.81930300
_cell_length_b   9.23018550
_cell_length_c   9.87394231
_cell_angle_alpha   80.32905132
_cell_angle_beta   80.64460474
_cell_angle_gamma   75.41527214
_symmetry_Int_Tables_number   1
_chemical_formula_structural   LiMn2(BO3)2
_chemical_formula_sum   'Li4 Mn8 B8 O24'
_cell_volume   501.94124766
_cell_formula_units_Z   4
loop_
 _symmetry_equiv_pos_site_id
 _symmetry_equiv_pos_as_xyz
  1  'x, y, z'
loop_
 _atom_site_type_symbol
 _atom_site_label
 _atom_site_symmetry_multiplicity
 _atom_site_fract_x
 _atom_site_fract_y
 _atom_site_fract_z
 _atom_site_occupancy
  Li  Li0  1  0.28514400  0.80745300  0.88533800  1
  Li  Li1  1  0.71485600  0.19254700  0.11466200  1
  Li  Li2  1  0.44273800  0.69118900  0.36590800  1
  Li  Li3  1  0.55726200  0.30881100  0.63409200  1
  Mn  Mn0  1  0.88942200  0.40853100  0.86177100  1
  Mn  Mn1  1  0.87557700  0.09875300  0.37596700  1
  Mn  Mn2  1  0.34460500  0.13033100  0.89587500  1
  Mn  Mn3  1  0.11057800  0.59146900  0.13822900  1
  Mn  Mn4  1  0.37958700  0.35743400  0.37471700  1
  Mn  Mn5  1  0.12442300  0.90124700  0.62403300  1
  Mn  Mn6  1  0.65539500  0.86966900  0.10412500  1
  Mn  Mn7  1  0.62041300  0.64256600  0.62528300  1
  B  B0  1  0.88408500  0.05479600  0.87314900  1
  B  B1  1  0.84483700  0.44330600  0.39252800  1
  B  B2  1  0.36405100  0.47158900  0.88113600  1
  B  B3  1  0.11591500  0.94520400  0.12685100  1
  B  B4  1  0.40372000  0.02668200  0.35112500  1
  B  B5  1  0.15516300  0.55669400  0.60747200  1
  B  B6  1  0.63594900  0.52841100  0.11886400  1
  B  B7  1  0.59628000  0.97331800  0.64887500  1
  O  O0  1  0.00134600  0.17278900  0.84822800  1
  O  O1  1  0.76921900  0.63950800  0.09090000  1
  O  O2  1  0.02492100  0.07821100  0.17934500  1
  O  O3  1  0.74676800  0.57870800  0.43902400  1
  O  O4  1  0.97507900  0.92178900  0.82065500  1
  O  O5  1  0.05531800  0.42533900  0.29806500  1
  O  O6  1  0.80138900  0.94590500  0.55104900  1
  O  O7  1  0.23078100  0.36049200  0.90910000  1
  O  O8  1  0.99865400  0.82721100  0.15177200  1
  O  O9  1  0.19861100  0.05409500  0.44895100  1
  O  O10  1  0.94468200  0.57466100  0.70193500  1
  O  O11  1  0.29090900  0.59982400  0.94137700  1
  O  O12  1  0.25323200  0.42129200  0.56097600  1
  O  O13  1  0.56978600  0.44666700  0.78229300  1
  O  O14  1  0.32380400  0.92729800  0.02846200  1
  O  O15  1  0.53095000  0.14326300  0.31410700  1
  O  O16  1  0.26678600  0.67886600  0.57091700  1
  O  O17  1  0.67619600  0.07270200  0.97153800  1
  O  O18  1  0.43021400  0.55333300  0.21770700  1
  O  O19  1  0.52121400  0.10548100  0.70098900  1
  O  O20  1  0.70909100  0.40017600  0.05862300  1
  O  O21  1  0.47878600  0.89451900  0.29901100  1
  O  O22  1  0.73321400  0.32113400  0.42908300  1
  O  O23  1  0.46905000  0.85673700  0.68589300  1
loop_
_geom_bond_atom_site_label_1
_geom_bond_atom_site_label_2
_geom_bond_distance
_geom_bond_site_symmetry_2
Li0 O11 1.896699 1_555
Li0 O4 1.991627 1_455
Li0 O14 2.006322 1_556
Li0 O23 2.118831 1_555
Li1 O20 1.896699 1_555
Li1 O2 1.991627 1_655
Li1 O17 2.006322 1_554
Li1 O15 2.118831 1_555
Li2 O21 1.933731 1_555
Li2 O3 1.991903 1_555
Li2 O16 2.113377 1_555
Li2 O18 2.114877 1_555
Li3 O19 1.933731 1_555
Li3 O12 1.991903 1_555
Li3 O22 2.113377 1_555
Li3 O13 2.114877 1_555
Mn0 O7 2.037072 1_655
Mn0 O20 2.052420 1_556
Mn0 O10 2.053233 1_555
Mn0 O13 2.061939 1_555
Mn0 O0 2.128971 1_655
Mn1 O2 2.013094 1_655
Mn1 O9 2.042887 1_655
Mn1 O6 2.100006 1_545
Mn1 O15 2.112545 1_555
Mn1 O22 2.130412 1_555
Mn2 O19 2.048991 1_555
Mn2 O0 2.052895 1_555
Mn2 O7 2.079758 1_555
Mn2 O17 2.093514 1_555
Mn2 O14 2.116358 1_546
Mn3 O1 2.037072 1_455
Mn3 O11 2.052420 1_554
Mn3 O5 2.053233 1_555
Mn3 O18 2.061939 1_555
Mn3 O8 2.128971 1_455
Mn4 O12 1.994164 1_555
Mn4 O5 2.058111 1_555
Mn4 O15 2.095487 1_555
Mn4 O22 2.141657 1_555
Mn4 O18 2.222104 1_555
Mn5 O4 2.013094 1_455
Mn5 O6 2.042887 1_455
Mn5 O9 2.100006 1_565
Mn5 O23 2.112545 1_555
Mn5 O16 2.130412 1_555
Mn6 O21 2.048991 1_555
Mn6 O8 2.052895 1_555
Mn6 O1 2.079758 1_555
Mn6 O14 2.093514 1_555
Mn6 O17 2.116358 1_564
Mn7 O3 1.994164 1_555
Mn7 O10 2.058111 1_555
Mn7 O23 2.095487 1_555
Mn7 O16 2.141657 1_555
Mn7 O13 2.222104 1_555
B0 O4 1.361402 1_545
B0 O0 1.393546 1_655
B0 O17 1.416260 1_555
B1 O3 1.358976 1_555
B1 O5 1.405695 1_655
B1 O22 1.407048 1_555
B2 O11 1.355164 1_555
B2 O7 1.401787 1_555
B2 O13 1.412674 1_555
B3 O2 1.361402 1_565
B3 O8 1.393546 1_455
B3 O14 1.416260 1_555
B4 O21 1.346544 1_545
B4 O9 1.406017 1_555
B4 O15 1.421549 1_555
B5 O12 1.358976 1_555
B5 O10 1.405695 1_455
B5 O16 1.407048 1_555
B6 O20 1.355164 1_555
B6 O1 1.401787 1_555
B6 O18 1.412674 1_555
B7 O19 1.346544 1_565
B7 O6 1.406017 1_555
B7 O23 1.421549 1_555
