# generated using pymatgen
data_LaBO3
_symmetry_space_group_name_H-M   'P 1'
_cell_length_a   5.12056909
_cell_length_b   5.84796030
_cell_length_c   8.25010439
_cell_angle_alpha   90.00000000
_cell_angle_beta   90.00000000
_cell_angle_gamma   90.00000000
_symmetry_Int_Tables_number   1
_chemical_formula_structural   LaBO3
_chemical_formula_sum   'La4 B4 O12'
_cell_volume   247.04842515
_cell_formula_units_Z   4
loop_
 _symmetry_equiv_pos_site_id
 _symmetry_equiv_pos_as_xyz
  1  'x, y, z'
loop_
 _atom_site_type_symbol
 _atom_site_label
 _atom_site_symmetry_multiplicity
 _atom_site_fract_x
 _atom_site_fract_y
 _atom_site_fract_z
 _atom_site_occupancy
  La  La0  1  0.25000000  0.75675578  0.91528839  1
  La  La1  1  0.75000000  0.24324422  0.08471161  1
  La  La2  1  0.25000000  0.25675578  0.58471161  1
  La  La3  1  0.75000000  0.74324422  0.41528839  1
  B  B0  1  0.25000000  0.91791106  0.26129171  1
  B  B1  1  0.75000000  0.08208894  0.73870829  1
  B  B2  1  0.25000000  0.41791106  0.23870829  1
  B  B3  1  0.75000000  0.58208894  0.76129171  1
  O  O0  1  0.75000000  0.59614764  0.92706616  1
  O  O1  1  0.25000000  0.40385236  0.07293384  1
  O  O2  1  0.75000000  0.09614764  0.57293384  1
  O  O3  1  0.25000000  0.90385236  0.42706616  1
  O  O4  1  0.51819798  0.58617893  0.67688169  1
  O  O5  1  0.01819798  0.41382107  0.32311831  1
  O  O6  1  0.98180202  0.08617893  0.82311831  1
  O  O7  1  0.48180202  0.91382107  0.17688169  1
  O  O8  1  0.48180202  0.41382107  0.32311831  1
  O  O9  1  0.98180202  0.58617893  0.67688169  1
  O  O10  1  0.01819798  0.91382107  0.17688169  1
  O  O11  1  0.51819798  0.08617893  0.82311831  1
loop_
_geom_bond_atom_site_label_1
_geom_bond_atom_site_label_2
_geom_bond_distance
_geom_bond_site_symmetry_2
La0 O1 2.439398 1_556
La0 O6 2.485050 1_465
La0 O11 2.485050 1_565
La0 O4 2.598019 1_555
La0 O9 2.598019 1_455
La0 O10 2.628734 1_556
La0 O7 2.628734 1_556
La0 O0 2.728855 1_555
La0 O0 2.728855 1_455
La1 O0 2.439398 1_554
La1 O7 2.485050 1_545
La1 O10 2.485050 1_645
La1 O8 2.598019 1_555
La1 O5 2.598019 1_655
La1 O11 2.628734 1_554
La1 O6 2.628734 1_554
La1 O1 2.728855 1_555
La1 O1 2.728855 1_655
La2 O3 2.439398 1_545
La2 O4 2.485050 1_555
La2 O9 2.485050 1_455
La2 O6 2.598019 1_455
La2 O11 2.598019 1_555
La2 O8 2.628734 1_555
La2 O5 2.628734 1_555
La2 O2 2.728855 1_455
La2 O2 2.728855 1_555
La3 O2 2.439398 1_565
La3 O8 2.485050 1_555
La3 O5 2.485050 1_655
La3 O7 2.598019 1_555
La3 O10 2.598019 1_655
La3 O9 2.628734 1_555
La3 O4 2.628734 1_555
La3 O3 2.728855 1_655
La3 O3 2.728855 1_555
B0 O3 1.370125 1_555
B0 O10 1.376373 1_555
B0 O7 1.376373 1_555
B1 O2 1.370125 1_555
B1 O6 1.376373 1_555
B1 O11 1.376373 1_555
B2 O1 1.370125 1_555
B2 O5 1.376373 1_555
B2 O8 1.376373 1_555
B3 O0 1.370125 1_555
B3 O9 1.376373 1_555
B3 O4 1.376373 1_555
