# generated using pymatgen
data_Zr6Al16Ru7
_symmetry_space_group_name_H-M   'P 1'
_cell_length_a   8.69211902
_cell_length_b   8.69212194
_cell_length_c   8.69209644
_cell_angle_alpha   60.00015630
_cell_angle_beta   60.00013517
_cell_angle_gamma   59.99976720
_symmetry_Int_Tables_number   1
_chemical_formula_structural   Zr6Al16Ru7
_chemical_formula_sum   'Zr6 Al16 Ru7'
_cell_volume   464.36684619
_cell_formula_units_Z   1
loop_
 _symmetry_equiv_pos_site_id
 _symmetry_equiv_pos_as_xyz
  1  'x, y, z'
loop_
 _atom_site_type_symbol
 _atom_site_label
 _atom_site_symmetry_multiplicity
 _atom_site_fract_x
 _atom_site_fract_y
 _atom_site_fract_z
 _atom_site_occupancy
  Zr  Zr0  1  0.20656481  0.79345974  0.79341753  1
  Zr  Zr1  1  0.79343512  0.20654066  0.20658409  1
  Zr  Zr2  1  0.79345655  0.20655747  0.79342568  1
  Zr  Zr3  1  0.79342275  0.79343587  0.20659219  1
  Zr  Zr4  1  0.20654217  0.79344385  0.20657690  1
  Zr  Zr5  1  0.20657557  0.20656521  0.79341090  1
  Al  Al0  1  0.83545603  0.83545244  0.83547185  1
  Al  Al1  1  0.83545799  0.83545740  0.49361483  1
  Al  Al2  1  0.49362179  0.83546535  0.83545880  1
  Al  Al3  1  0.83546737  0.49361836  0.83546045  1
  Al  Al4  1  0.16454142  0.16454661  0.16453156  1
  Al  Al5  1  0.16454038  0.16454087  0.50638478  1
  Al  Al6  1  0.16453597  0.50638195  0.16453674  1
  Al  Al7  1  0.50637896  0.16453933  0.16453945  1
  Al  Al8  1  0.61950080  0.61950053  0.61949538  1
  Al  Al9  1  0.61950530  0.61950114  0.14149988  1
  Al  Al10  1  0.14150411  0.61949026  0.61950542  1
  Al  Al11  1  0.61949242  0.14150341  0.61950245  1
  Al  Al12  1  0.38050076  0.38049991  0.38050369  1
  Al  Al13  1  0.38049521  0.38049909  0.85849996  1
  Al  Al14  1  0.38050726  0.85849583  0.38049793  1
  Al  Al15  1  0.85849526  0.38050840  0.38049510  1
  Ru  Ru0  1  0.00000191  0.49999958  0.49999721  1
  Ru  Ru1  1  0.49999695  0.00000176  0.00000317  1
  Ru  Ru2  1  0.50000181  0.00000386  0.49999492  1
  Ru  Ru3  1  0.50000169  0.49999782  0.00000284  1
  Ru  Ru4  1  -0.00000126  0.49999384  0.00000475  1
  Ru  Ru5  1  -0.00000054  0.00000104  0.49999476  1
  Ru  Ru6  1  0.50000143  0.49999846  0.49999777  1
loop_
_geom_bond_atom_site_label_1
_geom_bond_atom_site_label_2
_geom_bond_distance
_geom_bond_site_symmetry_2
Al0 Ru4 2.509585 1_656
Al0 Ru1 2.509599 1_566
Al0 Ru5 2.509730 1_665
Al0 Zr2 2.906692 1_565
Al0 Zr0 2.906718 1_655
Al0 Zr3 2.906802 1_556
Al1 Ru2 2.509572 1_565
Al1 Ru0 2.509580 1_655
Al1 Ru5 2.509648 1_665
Al1 Zr3 2.906429 1_555
Al1 Zr1 2.906486 1_565
Al1 Zr4 2.906512 1_655
Al2 Ru1 2.509583 1_566
Al2 Ru2 2.509634 1_565
Al2 Ru3 2.509669 1_556
Al2 Zr5 2.906613 1_565
Al2 Zr0 2.906677 1_555
Al2 Zr4 2.906828 1_556
Al3 Ru4 2.509546 1_656
Al3 Ru0 2.509626 1_655
Al3 Ru3 2.509654 1_556
Al3 Zr5 2.906679 1_655
Al3 Zr2 2.906704 1_555
Al3 Zr1 2.906853 1_556
Al4 Ru4 2.509512 1_555
Al4 Ru1 2.509563 1_555
Al4 Ru5 2.509647 1_555
Al4 Zr4 2.906671 1_545
Al4 Zr1 2.906699 1_455
Al4 Zr5 2.906796 1_554
Al5 Ru0 2.509575 1_555
Al5 Ru2 2.509589 1_555
Al5 Ru5 2.509667 1_555
Al5 Zr5 2.906474 1_555
Al5 Zr0 2.906481 1_545
Al5 Zr2 2.906519 1_455
Al6 Ru4 2.509563 1_555
Al6 Ru0 2.509602 1_555
Al6 Ru3 2.509643 1_555
Al6 Zr3 2.906708 1_455
Al6 Zr4 2.906717 1_555
Al6 Zr0 2.906829 1_554
Al7 Ru1 2.509567 1_555
Al7 Ru2 2.509577 1_555
Al7 Ru3 2.509607 1_555
Al7 Zr3 2.906624 1_545
Al7 Zr1 2.906665 1_555
Al7 Zr2 2.906799 1_554
Al8 Ru6 2.544296 1_555
Al8 Ru0 2.702703 1_655
Al8 Ru2 2.702720 1_565
Al8 Ru3 2.702751 1_556
Al8 Zr3 2.980922 1_555
Al8 Zr0 2.981144 1_555
Al8 Zr2 2.981195 1_555
Al9 Ru6 2.544291 1_555
Al9 Ru4 2.702647 1_655
Al9 Ru1 2.702699 1_565
Al9 Ru3 2.702721 1_555
Al9 Zr3 2.981162 1_555
Al9 Zr1 2.981287 1_555
Al9 Zr4 2.981315 1_555
Al10 Ru6 2.544283 1_555
Al10 Ru4 2.702695 1_556
Al10 Ru0 2.702703 1_555
Al10 Ru5 2.702771 1_565
Al10 Zr5 2.981047 1_555
Al10 Zr4 2.981115 1_555
Al10 Zr0 2.981184 1_555
Al11 Ru6 2.544269 1_555
Al11 Ru2 2.702679 1_555
Al11 Ru1 2.702703 1_556
Al11 Ru5 2.702743 1_655
Al11 Zr5 2.980998 1_555
Al11 Zr1 2.981041 1_555
Al11 Zr2 2.981186 1_555
Al12 Ru6 2.544255 1_555
Al12 Ru2 2.702669 1_555
Al12 Ru0 2.702688 1_555
Al12 Ru3 2.702703 1_555
Al12 Zr5 2.980950 1_555
Al12 Zr1 2.981131 1_555
Al12 Zr4 2.981200 1_555
Al13 Ru6 2.544321 1_555
Al13 Ru4 2.702671 1_556
Al13 Ru1 2.702678 1_556
Al13 Ru3 2.702751 1_556
Al13 Zr5 2.981152 1_555
Al13 Zr0 2.981290 1_555
Al13 Zr2 2.981305 1_555
Al14 Ru6 2.544285 1_555
Al14 Ru1 2.702663 1_565
Al14 Ru2 2.702694 1_565
Al14 Ru5 2.702749 1_565
Al14 Zr3 2.980990 1_555
Al14 Zr0 2.981051 1_555
Al14 Zr4 2.981164 1_555
Al15 Ru6 2.544258 1_555
Al15 Ru4 2.702631 1_655
Al15 Ru0 2.702696 1_655
Al15 Ru5 2.702747 1_655
Al15 Zr3 2.981064 1_555
Al15 Zr2 2.981130 1_555
Al15 Zr1 2.981159 1_555
Ru0 Zr3 3.119048 1_455
Ru0 Zr5 3.119071 1_555
Ru0 Zr4 3.119095 1_555
Ru0 Zr2 3.119116 1_455
Ru1 Zr5 3.119226 1_554
Ru1 Zr3 3.119235 1_545
Ru1 Zr4 3.119265 1_545
Ru1 Zr2 3.119282 1_554
Ru2 Zr3 3.118962 1_545
Ru2 Zr1 3.119001 1_555
Ru2 Zr5 3.119014 1_555
Ru2 Zr0 3.119072 1_545
Ru3 Zr1 3.119251 1_555
Ru3 Zr2 3.119270 1_554
Ru3 Zr4 3.119293 1_555
Ru3 Zr0 3.119297 1_554
Ru4 Zr5 3.119273 1_554
Ru4 Zr1 3.119283 1_455
Ru4 Zr3 3.119331 1_455
Ru4 Zr0 3.119380 1_554
Ru5 Zr1 3.119007 1_455
Ru5 Zr4 3.119011 1_545
Ru5 Zr0 3.119097 1_545
Ru5 Zr2 3.119099 1_455
