# generated using pymatgen
data_LiCa2Tl
_symmetry_space_group_name_H-M   'P 1'
_cell_length_a   5.43436713
_cell_length_b   5.43436713
_cell_length_c   5.43436713
_cell_angle_alpha   60.00000000
_cell_angle_beta   60.00000000
_cell_angle_gamma   60.00000000
_symmetry_Int_Tables_number   1
_chemical_formula_structural   LiCa2Tl
_chemical_formula_sum   'Li1 Ca2 Tl1'
_cell_volume   113.48329229
_cell_formula_units_Z   1
loop_
 _symmetry_equiv_pos_site_id
 _symmetry_equiv_pos_as_xyz
  1  'x, y, z'
loop_
 _atom_site_type_symbol
 _atom_site_label
 _atom_site_symmetry_multiplicity
 _atom_site_fract_x
 _atom_site_fract_y
 _atom_site_fract_z
 _atom_site_occupancy
  Li  Li0  1  0.24999900  0.24999900  0.24999900  1
  Ca  Ca0  1  0.50000000  0.50000000  0.50000000  1
  Ca  Ca1  1  0.00000000  0.00000000  -0.00000000  1
  Tl  Tl0  1  0.74999900  0.74999900  0.74999900  1
loop_
_geom_bond_atom_site_label_1
_geom_bond_atom_site_label_2
_geom_bond_distance
_geom_bond_site_symmetry_2
Ca0 Tl0 3.327843 1_555
Ca0 Li0 3.327852 1_556
Ca0 Li0 3.327852 1_565
Ca0 Li0 3.327852 1_655
Ca0 Tl0 3.327861 1_455
Ca0 Tl0 3.327861 1_554
Ca0 Tl0 3.327861 1_545
Ca0 Li0 3.327870 1_555
Ca1 Li0 3.327843 1_555
Ca1 Tl0 3.327852 1_445
Ca1 Tl0 3.327852 1_454
Ca1 Tl0 3.327852 1_544
Ca1 Li0 3.327861 1_545
Ca1 Li0 3.327861 1_455
Ca1 Li0 3.327861 1_554
Ca1 Tl0 3.327870 1_444
