# generated using pymatgen
data_Mn12O7F17
_symmetry_space_group_name_H-M   'P 1'
_cell_length_a   4.84262500
_cell_length_b   5.82236708
_cell_length_c   15.82110378
_cell_angle_alpha   88.81960648
_cell_angle_beta   89.23430984
_cell_angle_gamma   84.79961612
_symmetry_Int_Tables_number   1
_chemical_formula_structural   Mn12O7F17
_chemical_formula_sum   'Mn12 O7 F17'
_cell_volume   444.12451266
_cell_formula_units_Z   1
loop_
 _symmetry_equiv_pos_site_id
 _symmetry_equiv_pos_as_xyz
  1  'x, y, z'
loop_
 _atom_site_type_symbol
 _atom_site_label
 _atom_site_symmetry_multiplicity
 _atom_site_fract_x
 _atom_site_fract_y
 _atom_site_fract_z
 _atom_site_occupancy
  Mn  Mn0  1  0.00301700  0.82311700  0.41681400  1
  Mn  Mn1  1  0.96790300  0.16645600  0.24517100  1
  Mn  Mn2  1  0.00415100  0.84638700  0.08429700  1
  Mn  Mn3  1  0.99491400  0.84887800  0.74669600  1
  Mn  Mn4  1  0.99181500  0.18299500  0.58320400  1
  Mn  Mn5  1  0.98998400  0.17073000  0.90471800  1
  Mn  Mn6  1  0.48980400  0.64877600  0.59546200  1
  Mn  Mn7  1  0.49148500  0.67270500  0.92689700  1
  Mn  Mn8  1  0.50532200  0.64789700  0.25702600  1
  Mn  Mn9  1  0.49285000  0.33654700  0.08424600  1
  Mn  Mn10  1  0.49110700  0.34929000  0.40696300  1
  Mn  Mn11  1  0.51323800  0.34851300  0.74695700  1
  O  O0  1  0.77769500  0.11292700  0.13377400  1
  O  O1  1  0.77615100  0.11126200  0.79590600  1
  O  O2  1  0.71768500  0.39293700  0.30890000  1
  O  O3  1  0.70731500  0.39528600  0.64266500  1
  O  O4  1  0.27496000  0.60912500  0.03661600  1
  O  O5  1  0.28651500  0.60949100  0.35733800  1
  O  O6  1  0.26636700  0.60961200  0.69657800  1
  F  F0  1  0.76333300  0.89030500  0.30723100  1
  F  F1  1  0.77689000  0.89020600  0.63781900  1
  F  F2  1  0.78663200  0.88664700  0.97437900  1
  F  F3  1  0.75695400  0.12158200  0.46842200  1
  F  F4  1  0.73500900  0.61838500  0.14999700  1
  F  F5  1  0.72322000  0.62036500  0.48798100  1
  F  F6  1  0.75042900  0.61842900  0.81586000  1
  F  F7  1  0.73140000  0.38196100  0.98047900  1
  F  F8  1  0.27310200  0.37202300  0.19054000  1
  F  F9  1  0.26698400  0.38370100  0.51438200  1
  F  F10  1  0.30077800  0.37919800  0.85657100  1
  F  F11  1  0.23496700  0.87492000  0.19624900  1
  F  F12  1  0.23792200  0.88104700  0.53169900  1
  F  F13  1  0.21365600  0.10957000  0.35618800  1
  F  F14  1  0.24095000  0.10449700  0.01868200  1
  F  F15  1  0.22811400  0.88128200  0.85287900  1
  F  F16  1  0.23738300  0.10295300  0.69041300  1
loop_
_geom_bond_atom_site_label_1
_geom_bond_atom_site_label_2
_geom_bond_distance
_geom_bond_site_symmetry_2
Mn0 O5 2.005349 1_555
Mn1 O2 1.989011 1_555
Mn1 O0 2.042001 1_555
Mn2 O4 1.971124 1_555
Mn2 O0 1.985532 1_465
Mn3 O1 1.948302 1_565
Mn3 O6 1.995782 1_655
Mn4 O3 2.003864 1_555
Mn5 O1 2.071961 1_555
Mn6 O3 1.881307 1_555
Mn6 O6 1.940478 1_555
Mn7 O4 2.060340 1_556
Mn8 O2 1.905367 1_555
Mn8 O5 1.916992 1_555
Mn9 O4 1.966812 1_555
Mn9 O0 1.968052 1_555
Mn10 O5 1.895493 1_555
Mn10 O2 1.914249 1_555
Mn11 O3 1.914798 1_555
Mn11 O1 1.947400 1_555
Mn11 O6 2.005407 1_555
F0 Mn0 2.109404 1_655
F0 Mn8 2.139263 1_555
F0 Mn1 2.174474 1_565
F1 Mn3 2.031084 1_555
F1 Mn6 2.185367 1_555
F1 Mn4 2.229997 1_565
F2 Mn2 2.043558 1_656
F2 Mn7 2.132797 1_555
F2 Mn5 2.260839 1_565
F3 Mn10 2.007867 1_555
F3 Mn0 2.182542 1_645
F3 Mn4 2.207908 1_555
F4 Mn8 2.015201 1_555
F4 Mn2 2.182214 1_655
F4 Mn9 2.366824 1_555
F5 Mn6 2.030507 1_555
F5 Mn0 2.166017 1_655
F5 Mn10 2.416803 1_555
F6 Mn3 2.142964 1_555
F6 Mn7 2.156515 1_555
F6 Mn11 2.325674 1_555
F7 Mn9 2.021492 1_556
F7 Mn5 2.063679 1_555
F7 Mn7 2.131846 1_555
F8 Mn9 1.982374 1_555
F8 Mn1 2.146597 1_455
F8 Mn8 2.319430 1_555
F9 Mn10 2.007904 1_555
F9 Mn4 2.125537 1_455
F9 Mn6 2.369019 1_555
F10 Mn11 2.007420 1_555
F10 Mn5 2.140357 1_455
F10 Mn7 2.324458 1_555
F11 Mn8 2.013313 1_555
F11 Mn2 2.124344 1_555
F11 Mn1 2.186862 1_465
F12 Mn6 2.003013 1_555
F12 Mn4 2.197360 1_465
F12 Mn0 2.204897 1_555
F13 Mn1 2.138092 1_455
F13 Mn10 2.193999 1_555
F13 Mn0 2.226773 1_545
F14 Mn9 2.186271 1_555
F14 Mn5 2.195825 1_454
F14 Mn2 2.206217 1_545
F15 Mn7 2.042880 1_555
F15 Mn3 2.058027 1_455
F15 Mn5 2.126493 1_465
F16 Mn4 2.104571 1_455
F16 Mn3 2.143053 1_445
F16 Mn11 2.249409 1_555
