# generated using pymatgen
data_LiFe(Se2O5)2
_symmetry_space_group_name_H-M   'P 1'
_cell_length_a   6.92654300
_cell_length_b   10.49564200
_cell_length_c   12.19272200
_cell_angle_alpha   89.99962643
_cell_angle_beta   89.99929187
_cell_angle_gamma   90.00009876
_symmetry_Int_Tables_number   1
_chemical_formula_structural   LiFe(Se2O5)2
_chemical_formula_sum   'Li4 Fe4 Se16 O40'
_cell_volume   886.39279079
_cell_formula_units_Z   4
loop_
 _symmetry_equiv_pos_site_id
 _symmetry_equiv_pos_as_xyz
  1  'x, y, z'
loop_
 _atom_site_type_symbol
 _atom_site_label
 _atom_site_symmetry_multiplicity
 _atom_site_fract_x
 _atom_site_fract_y
 _atom_site_fract_z
 _atom_site_occupancy
  Li  Li0  1  0.49999700  0.27809500  0.24999300  1
  Li  Li1  1  0.50000200  0.27809400  0.75000800  1
  Li  Li2  1  0.99999800  0.77809300  0.25001300  1
  Li  Li3  1  0.00000000  0.77809300  0.74998600  1
  Fe  Fe0  1  0.50000100  0.40212100  0.50000300  1
  Fe  Fe1  1  0.99999400  0.90210100  0.00000500  1
  Fe  Fe2  1  0.49999500  0.40206500  0.00000100  1
  Fe  Fe3  1  0.00000100  0.90211400  0.49999600  1
  Se  Se0  1  0.36594800  0.00025400  0.35900100  1
  Se  Se1  1  0.36597300  0.00022700  0.85902700  1
  Se  Se2  1  0.63402400  0.00022900  0.14097300  1
  Se  Se3  1  0.63404300  0.00024300  0.64099600  1
  Se  Se4  1  0.86595400  0.50024000  0.14099500  1
  Se  Se5  1  0.86597600  0.50023100  0.64097400  1
  Se  Se6  1  0.13402400  0.50023000  0.35902600  1
  Se  Se7  1  0.13404400  0.50024000  0.85900500  1
  Se  Se8  1  0.13866900  0.19009200  0.11025500  1
  Se  Se9  1  0.13864700  0.19009900  0.61026900  1
  Se  Se10  1  0.86135200  0.19010200  0.38973100  1
  Se  Se11  1  0.86132800  0.19009200  0.88974500  1
  Se  Se12  1  0.63868500  0.69010200  0.38975100  1
  Se  Se13  1  0.63864400  0.69007900  0.88972800  1
  Se  Se14  1  0.36136300  0.69008400  0.11027100  1
  Se  Se15  1  0.36131100  0.69010100  0.61025100  1
  O  O0  1  0.49999800  0.90780000  0.25000300  1
  O  O1  1  0.50000400  0.90779600  0.74999700  1
  O  O2  1  0.99999700  0.40779500  0.24999700  1
  O  O3  1  0.00000300  0.40779500  0.75000400  1
  O  O4  1  0.00000000  0.27179400  0.00000000  1
  O  O5  1  0.00000000  0.27179000  0.50000000  1
  O  O6  1  0.50000200  0.77178300  0.00000000  1
  O  O7  1  0.50000000  0.77180000  0.50000000  1
  O  O8  1  0.29500500  0.13111100  0.29114100  1
  O  O9  1  0.29509300  0.13106900  0.79116600  1
  O  O10  1  0.70492600  0.13107500  0.20882300  1
  O  O11  1  0.70499700  0.13107800  0.70885900  1
  O  O12  1  0.79500200  0.63107800  0.20885800  1
  O  O13  1  0.79509300  0.63106900  0.70883500  1
  O  O14  1  0.20490800  0.63107000  0.29116500  1
  O  O15  1  0.20499800  0.63107900  0.79114200  1
  O  O16  1  0.16107700  0.90501100  0.36059600  1
  O  O17  1  0.16104700  0.90500500  0.86060800  1
  O  O18  1  0.83895100  0.90500600  0.13939500  1
  O  O19  1  0.83894000  0.90500300  0.63938900  1
  O  O20  1  0.66107800  0.40500400  0.13940300  1
  O  O21  1  0.66104700  0.40500600  0.63939300  1
  O  O22  1  0.33895400  0.40500700  0.36060800  1
  O  O23  1  0.33892300  0.40500500  0.86059800  1
  O  O24  1  0.18646100  0.04586800  0.04894700  1
  O  O25  1  0.18624600  0.04583400  0.54905400  1
  O  O26  1  0.81375500  0.04583400  0.45094500  1
  O  O27  1  0.81353600  0.04586700  0.95105500  1
  O  O28  1  0.68649900  0.54588400  0.45106200  1
  O  O29  1  0.68621800  0.54581400  0.95093700  1
  O  O30  1  0.31379100  0.54581800  0.04906600  1
  O  O31  1  0.31350100  0.54588400  0.54894000  1
  O  O32  1  0.35183100  0.26950700  0.09183700  1
  O  O33  1  0.35185100  0.26950000  0.59181400  1
  O  O34  1  0.64815000  0.26950100  0.40818600  1
  O  O35  1  0.64814400  0.26950500  0.90816900  1
  O  O36  1  0.85186100  0.76951500  0.40816900  1
  O  O37  1  0.85184200  0.76949300  0.90818600  1
  O  O38  1  0.14816100  0.76949400  0.09181500  1
  O  O39  1  0.14813800  0.76951500  0.59183100  1
loop_
_geom_bond_atom_site_label_1
_geom_bond_atom_site_label_2
_geom_bond_distance
_geom_bond_site_symmetry_2
Li0 O8 2.155840 1_555
Li0 O10 2.155894 1_555
Li0 O32 2.186313 1_555
Li0 O34 2.186670 1_555
Li0 O20 2.199355 1_555
Li0 O22 2.199441 1_555
Li1 O9 2.155798 1_555
Li1 O11 2.156105 1_555
Li1 O35 2.186288 1_555
Li1 O33 2.186675 1_555
Li1 O23 2.199374 1_555
Li1 O21 2.199435 1_555
Li2 O14 2.155782 1_655
Li2 O12 2.156124 1_555
Li2 O36 2.186191 1_555
Li2 O38 2.186737 1_655
Li2 O16 2.199381 1_655
Li2 O18 2.199490 1_555
Li3 O13 2.155774 1_455
Li3 O15 2.156127 1_555
Li3 O39 2.186185 1_555
Li3 O37 2.186742 1_455
Li3 O19 2.199359 1_455
Li3 O17 2.199522 1_555
Fe0 O21 2.033159 1_555
Fe0 O22 2.033214 1_555
Fe0 O33 2.059996 1_555
Fe0 O34 2.060038 1_555
Fe0 O28 2.074003 1_555
Fe0 O31 2.074006 1_555
Fe1 O18 2.033128 1_555
Fe1 O17 2.033236 1_654
Fe1 O38 2.059965 1_655
Fe1 O37 2.059988 1_554
Fe1 O27 2.073897 1_564
Fe1 O24 2.073918 1_665
Fe2 O23 2.033399 1_554
Fe2 O20 2.033430 1_555
Fe2 O35 2.059712 1_554
Fe2 O32 2.059763 1_555
Fe2 O30 2.073103 1_555
Fe2 O29 2.073142 1_554
Fe3 O19 2.033224 1_455
Fe3 O16 2.033353 1_555
Fe3 O36 2.059935 1_455
Fe3 O39 2.059971 1_555
Fe3 O26 2.072987 1_465
Fe3 O25 2.073009 1_565
O0 Se0 1.889420 1_565
O0 Se2 1.889467 1_565
O1 Se3 1.889360 1_565
O1 Se1 1.889506 1_565
O2 Se4 1.889389 1_555
O2 Se6 1.889520 1_655
O3 Se7 1.889381 1_555
O3 Se5 1.889526 1_455
O4 Se8 1.861470 1_555
O4 Se11 1.861487 1_454
O5 Se10 1.861457 1_455
O5 Se9 1.861462 1_555
O6 Se14 1.861471 1_555
O6 Se13 1.861524 1_554
O7 Se12 1.861446 1_555
O7 Se15 1.861473 1_555
O8 Se0 1.677008 1_555
O9 Se1 1.676757 1_555
O10 Se2 1.676777 1_555
O11 Se3 1.676866 1_555
O12 Se4 1.676883 1_555
O13 Se5 1.676731 1_555
O14 Se6 1.676740 1_555
O15 Se7 1.676886 1_555
O16 Se0 1.735898 1_565
O17 Se1 1.736081 1_565
O18 Se2 1.736095 1_565
O19 Se3 1.736032 1_565
O20 Se4 1.735884 1_555
O21 Se5 1.736116 1_555
O22 Se6 1.736113 1_555
O23 Se7 1.735898 1_555
O24 Se8 1.720385 1_555
O25 Se9 1.720015 1_555
O26 Se10 1.720025 1_555
O27 Se11 1.720396 1_555
O28 Se12 1.720370 1_555
O29 Se13 1.719945 1_555
O30 Se14 1.719938 1_555
O31 Se15 1.720363 1_555
O32 Se8 1.710303 1_555
O33 Se9 1.710542 1_555
O34 Se10 1.710524 1_555
O35 Se11 1.710438 1_555
O36 Se12 1.710383 1_555
O37 Se13 1.710584 1_555
O38 Se14 1.710585 1_555
O39 Se15 1.710374 1_555
