# generated using pymatgen
data_Ce3SiAgS7
_symmetry_space_group_name_H-M   'P 1'
_cell_length_a   10.32962418
_cell_length_b   10.32962418
_cell_length_c   5.77341100
_cell_angle_alpha   90.00000000
_cell_angle_beta   90.00000000
_cell_angle_gamma   120.00000113
_symmetry_Int_Tables_number   1
_chemical_formula_structural   Ce3SiAgS7
_chemical_formula_sum   'Ce6 Si2 Ag2 S14'
_cell_volume   533.49719923
_cell_formula_units_Z   2
loop_
 _symmetry_equiv_pos_site_id
 _symmetry_equiv_pos_as_xyz
  1  'x, y, z'
loop_
 _atom_site_type_symbol
 _atom_site_label
 _atom_site_symmetry_multiplicity
 _atom_site_fract_x
 _atom_site_fract_y
 _atom_site_fract_z
 _atom_site_occupancy
  Ce  Ce0  1  0.12400500  0.35905700  0.24780500  1
  Ce  Ce1  1  0.87599500  0.64094300  0.74780500  1
  Ce  Ce2  1  0.64094300  0.76494800  0.24780500  1
  Ce  Ce3  1  0.23505200  0.87599500  0.24780500  1
  Ce  Ce4  1  0.76494800  0.12400500  0.74780500  1
  Ce  Ce5  1  0.35905700  0.23505200  0.74780500  1
  Si  Si0  1  0.33333300  0.66666700  0.66072500  1
  Si  Si1  1  0.66666700  0.33333300  0.16072500  1
  Ag  Ag0  1  0.00000000  0.00000000  0.30836500  1
  Ag  Ag1  1  0.00000000  0.00000000  0.80836500  1
  S  S0  1  0.33333300  0.66666700  0.02769200  1
  S  S1  1  0.66666700  0.33333300  0.52769200  1
  S  S2  1  0.40969800  0.52500200  0.51646700  1
  S  S3  1  0.59030200  0.47499800  0.01646700  1
  S  S4  1  0.47499800  0.88469600  0.51646700  1
  S  S5  1  0.11530400  0.59030200  0.51646700  1
  S  S6  1  0.88469600  0.40969800  0.01646700  1
  S  S7  1  0.52500200  0.11530400  0.01646700  1
  S  S8  1  0.09074500  0.26693600  0.76227100  1
  S  S9  1  0.90925500  0.73306400  0.26227100  1
  S  S10  1  0.73306400  0.82380900  0.76227100  1
  S  S11  1  0.17619100  0.90925500  0.76227100  1
  S  S12  1  0.82380900  0.09074500  0.26227100  1
  S  S13  1  0.26693600  0.17619100  0.26227100  1
loop_
_geom_bond_atom_site_label_1
_geom_bond_atom_site_label_2
_geom_bond_distance
_geom_bond_site_symmetry_2
Ce0 S5 2.886941 1_555
Ce0 S13 2.922970 1_555
Ce0 S8 2.924802 1_554
Ce0 S12 2.951240 1_455
Ce0 S2 2.999096 1_555
Ce0 S6 3.075911 1_455
Ce0 S0 3.084840 1_555
Ce0 S8 3.085261 1_555
Ce1 S6 2.886941 1_556
Ce1 S10 2.922970 1_555
Ce1 S9 2.924802 1_555
Ce1 S11 2.951240 1_655
Ce1 S3 2.999096 1_556
Ce1 S5 3.075911 1_655
Ce1 S1 3.084840 1_555
Ce1 S9 3.085261 1_556
Ce2 S2 2.886941 1_555
Ce2 S12 2.922970 1_565
Ce2 S10 2.924802 1_554
Ce2 S9 2.951240 1_555
Ce2 S4 2.999096 1_555
Ce2 S3 3.075911 1_555
Ce2 S0 3.084842 1_555
Ce2 S10 3.085261 1_555
Ce3 S4 2.886941 1_555
Ce3 S9 2.922970 1_455
Ce3 S11 2.924802 1_554
Ce3 S13 2.951240 1_565
Ce3 S5 2.999096 1_555
Ce3 S7 3.075911 1_565
Ce3 S0 3.084833 1_555
Ce3 S11 3.085261 1_555
Ce4 S7 2.886941 1_556
Ce4 S8 2.922970 1_655
Ce4 S12 2.924802 1_555
Ce4 S10 2.951240 1_545
Ce4 S6 2.999096 1_556
Ce4 S4 3.075911 1_545
Ce4 S1 3.084833 1_555
Ce4 S12 3.085261 1_556
Ce5 S3 2.886941 1_556
Ce5 S11 2.922970 1_545
Ce5 S13 2.924802 1_555
Ce5 S8 2.951240 1_555
Ce5 S7 2.999096 1_556
Ce5 S2 3.075911 1_555
Ce5 S1 3.084842 1_555
Ce5 S13 3.085261 1_556
Ag0 S13 2.442909 1_555
Ag0 S9 2.442909 1_445
Ag0 S12 2.442909 1_455
Ag1 S10 2.442909 1_445
Ag1 S8 2.442909 1_555
Ag1 S11 2.442909 1_545
S0 Si0 2.118651 1_554
S1 Si1 2.118651 1_555
S2 Si0 2.147463 1_555
S3 Si1 2.147463 1_555
S4 Si0 2.147456 1_555
S5 Si0 2.147454 1_555
S6 Si1 2.147454 1_555
S7 Si1 2.147456 1_555
