# generated using pymatgen
data_V2PC
_symmetry_space_group_name_H-M   'P 1'
_cell_length_a   3.07025511
_cell_length_b   3.07025521
_cell_length_c   10.82767674
_cell_angle_alpha   90.00000000
_cell_angle_beta   90.00000000
_cell_angle_gamma   119.99997689
_symmetry_Int_Tables_number   1
_chemical_formula_structural   V2PC
_chemical_formula_sum   'V4 P2 C2'
_cell_volume   88.39240568
_cell_formula_units_Z   2
loop_
 _symmetry_equiv_pos_site_id
 _symmetry_equiv_pos_as_xyz
  1  'x, y, z'
loop_
 _atom_site_type_symbol
 _atom_site_label
 _atom_site_symmetry_multiplicity
 _atom_site_fract_x
 _atom_site_fract_y
 _atom_site_fract_z
 _atom_site_occupancy
  V  V0  1  0.33333300  0.66666700  0.40126199  1
  V  V1  1  0.66666700  0.33333300  0.90126199  1
  V  V2  1  0.66666700  0.33333300  0.59873801  1
  V  V3  1  0.33333300  0.66666700  0.09873801  1
  P  P0  1  0.33333300  0.66666700  0.75000000  1
  P  P1  1  0.66666700  0.33333300  0.25000000  1
  C  C0  1  -0.00000000  -0.00000000  0.00000000  1
  C  C1  1  -0.00000000  -0.00000000  0.50000000  1
loop_
_geom_bond_atom_site_label_1
_geom_bond_atom_site_label_2
_geom_bond_distance
_geom_bond_site_symmetry_2
P0 V2 2.413419 1_455
P0 V1 2.413419 1_455
P0 V1 2.413419 1_565
P0 V2 2.413419 1_565
P0 V1 2.413423 1_555
P0 V2 2.413423 1_555
P1 V0 2.413419 1_655
P1 V3 2.413419 1_655
P1 V3 2.413419 1_545
P1 V0 2.413419 1_545
P1 V0 2.413423 1_555
P1 V3 2.413423 1_555
C0 V3 2.070056 1_545
C0 V1 2.070056 1_454
C0 V3 2.070058 1_445
C0 V1 2.070058 1_554
C0 V3 2.070058 1_555
C0 V1 2.070058 1_444
C1 V0 2.070056 1_545
C1 V2 2.070056 1_455
C1 V0 2.070058 1_445
C1 V2 2.070058 1_555
C1 V0 2.070058 1_555
C1 V2 2.070058 1_445
