# generated using pymatgen
data_Li4V3P8O29
_symmetry_space_group_name_H-M   'P 1'
_cell_length_a   9.80551922
_cell_length_b   9.78632608
_cell_length_c   14.24359860
_cell_angle_alpha   90.22072135
_cell_angle_beta   90.12774430
_cell_angle_gamma   60.02628222
_symmetry_Int_Tables_number   1
_chemical_formula_structural   Li4V3P8O29
_chemical_formula_sum   'Li8 V6 P16 O58'
_cell_volume   1184.00174485
_cell_formula_units_Z   2
loop_
 _symmetry_equiv_pos_site_id
 _symmetry_equiv_pos_as_xyz
  1  'x, y, z'
loop_
 _atom_site_type_symbol
 _atom_site_label
 _atom_site_symmetry_multiplicity
 _atom_site_fract_x
 _atom_site_fract_y
 _atom_site_fract_z
 _atom_site_occupancy
  Li  Li0  1  0.76875900  0.91497500  0.56098700  1
  Li  Li1  1  0.91687400  0.30750400  0.56105300  1
  Li  Li2  1  0.76953200  0.32692200  0.05695500  1
  Li  Li3  1  0.33235300  0.89800700  0.05582500  1
  Li  Li4  1  0.32310400  0.77142800  0.56213800  1
  Li  Li5  1  0.32581200  0.33701900  0.10453300  1
  Li  Li6  1  0.08845900  0.68375500  0.43964800  1
  Li  Li7  1  0.97286800  0.97558300  0.99862900  1
  V  V0  1  0.57408300  0.42980300  0.25288200  1
  V  V1  1  0.43333600  0.56560200  0.75044900  1
  V  V2  1  0.56357600  0.00237700  0.75334300  1
  V  V3  1  0.43212100  0.99748700  0.25183400  1
  V  V4  1  0.99545700  0.57250900  0.24521200  1
  V  V5  1  0.00185200  0.43400200  0.75581500  1
  P  P0  1  0.91616900  0.77945800  0.83898800  1
  P  P1  1  0.76775300  0.91624200  0.34247900  1
  P  P2  1  0.91875600  0.31841500  0.34348800  1
  P  P3  1  0.66209200  0.66800000  0.12989500  1
  P  P4  1  0.66962200  0.66745900  0.63157500  1
  P  P5  1  0.77163700  0.31371600  0.84382100  1
  P  P6  1  0.68569600  0.22766600  0.66261500  1
  P  P7  1  0.31333400  0.91372900  0.84222300  1
  P  P8  1  0.69049500  0.08642600  0.15935700  1
  P  P9  1  0.31735600  0.76866100  0.34200400  1
  P  P10  1  0.22503800  0.68794700  0.16009500  1
  P  P11  1  0.33257700  0.33685400  0.36745600  1
  P  P12  1  0.33266800  0.33463300  0.86878700  1
  P  P13  1  0.08769800  0.68025900  0.65703800  1
  P  P14  1  0.22671300  0.08796900  0.66195200  1
  P  P15  1  0.08828200  0.22227300  0.16179100  1
  O  O0  1  0.00005300  0.75205100  0.56723300  1
  O  O1  1  0.91639600  0.75112000  0.33490800  1
  O  O2  1  0.79272600  0.00325300  0.07877700  1
  O  O3  1  0.74104500  0.91297300  0.83026000  1
  O  O4  1  0.92119500  0.61764500  0.83013500  1
  O  O5  1  0.80499600  0.67249800  0.17080100  1
  O  O6  1  0.90837300  0.47699200  0.31831700  1
  O  O7  1  0.99171800  0.21377200  0.08428400  1
  O  O8  1  0.91399400  0.34289100  0.82811900  1
  O  O9  1  0.66546600  0.82044400  0.67292800  1
  O  O10  1  0.61821300  0.90376500  0.31590600  1
  O  O11  1  0.81871000  0.52233600  0.67788000  1
  O  O12  1  0.64722900  0.66634100  0.02615800  1
  O  O13  1  0.68308600  0.66434000  0.52722500  1
  O  O14  1  0.66596100  0.51547500  0.17281600  1
  O  O15  1  0.47290300  0.91005600  0.82477200  1
  O  O16  1  0.50872100  0.81685200  0.17250200  1
  O  O17  1  0.74960600  0.33983100  0.32865900  1
  O  O18  1  0.78671400  0.19870500  0.75861100  1
  O  O19  1  0.77554100  0.23142300  0.58043700  1
  O  O20  1  0.79033200  0.23151000  0.93484200  1
  O  O21  1  0.61949600  0.46972200  0.83021300  1
  O  O22  1  0.51924400  0.66687200  0.66627700  1
  O  O23  1  0.65473300  0.26285500  0.16149200  1
  O  O24  1  0.47792700  0.61880900  0.32029500  1
  O  O25  1  0.33913900  0.91510800  0.33377500  1
  O  O26  1  0.78163900  0.01682300  0.25801800  1
  O  O27  1  0.75149000  0.99153200  0.43490900  1
  O  O28  1  0.23266700  0.99323600  0.57902900  1
  O  O29  1  0.65774500  0.08402600  0.66196300  1
  O  O30  1  0.52601700  0.38048600  0.67793100  1
  O  O31  1  0.34259400  0.74536400  0.82693500  1
  O  O32  1  0.47815900  0.34167100  0.31981600  1
  O  O33  1  0.37855200  0.52577300  0.16821000  1
  O  O34  1  0.21286500  0.79197700  0.08109400  1
  O  O35  1  0.24903800  0.75701500  0.43312300  1
  O  O36  1  0.20241800  0.78400300  0.25831100  1
  O  O37  1  0.25290600  0.66198200  0.65778100  1
  O  O38  1  0.48155900  0.18399000  0.82561200  1
  O  O39  1  0.52831100  0.09346300  0.16748600  1
  O  O40  1  0.32931000  0.48063600  0.82830000  1
  O  O41  1  0.33298300  0.32551200  0.97335700  1
  O  O42  1  0.34551400  0.32690800  0.47080100  1
  O  O43  1  0.18329000  0.48629300  0.33073600  1
  O  O44  1  0.38085000  0.09330800  0.67861900  1
  O  O45  1  0.34058900  0.18544100  0.31842600  1
  O  O46  1  0.08667000  0.65367600  0.16318900  1
  O  O47  1  0.99331600  0.79735400  0.74270300  1
  O  O48  1  0.99510600  0.79912100  0.92185900  1
  O  O49  1  0.09726800  0.52127900  0.67948900  1
  O  O50  1  0.18562900  0.32939700  0.82578400  1
  O  O51  1  0.10386500  0.37162000  0.16828900  1
  O  O52  1  0.26100100  0.07824600  0.16036100  1
  O  O53  1  0.24156800  0.98196600  0.93459200  1
  O  O54  1  0.19975400  0.01491700  0.75771700  1
  O  O55  1  0.08398800  0.25864600  0.66134300  1
  O  O56  1  0.98555500  0.25555000  0.43627700  1
  O  O57  1  0.02156000  0.19864300  0.26119100  1
loop_
_geom_bond_atom_site_label_1
_geom_bond_atom_site_label_2
_geom_bond_distance
_geom_bond_site_symmetry_2
Li0 O27 1.922798 1_555
Li0 O0 2.020079 1_655
Li0 O29 2.044440 1_565
Li0 O9 2.319211 1_555
Li1 O56 1.878014 1_555
Li1 O19 1.893530 1_555
Li1 O55 2.041149 1_655
Li1 O11 2.464506 1_555
Li2 O7 1.926964 1_555
Li2 O20 1.933261 1_554
Li2 O23 2.144101 1_555
Li2 O14 2.295919 1_555
Li3 O53 1.929405 1_554
Li3 O34 1.948982 1_555
Li3 O52 2.137545 1_565
Li3 O16 2.237944 1_555
Li4 O28 1.905170 1_555
Li4 O35 2.004661 1_555
Li4 O37 2.056440 1_555
Li4 O22 2.231307 1_555
Li5 O41 1.870739 1_554
Li5 O51 2.223901 1_555
Li5 O33 2.332757 1_555
Li5 O39 2.389013 1_555
Li6 O0 1.979743 1_555
Li6 O35 2.032495 1_555
Li6 O1 2.095663 1_455
Li6 O43 2.278886 1_555
Li7 O48 1.958503 1_555
Li7 O2 2.006330 1_566
Li7 O20 2.415162 1_565
Li7 O34 2.434153 1_656
O0 P13 1.505693 1_555
O1 P1 1.547003 1_555
O1 V4 1.980345 1_555
O2 P8 1.472197 1_555
O3 P0 1.558783 1_555
O3 V2 1.863212 1_565
O4 P0 1.564124 1_555
O4 V5 1.882771 1_655
O5 P3 1.537110 1_555
O5 V4 1.934380 1_555
O6 P2 1.547097 1_555
O6 V4 1.869817 1_555
O7 P15 1.481747 1_655
O8 P5 1.574849 1_555
O8 V5 1.837496 1_655
O9 P4 1.588219 1_555
O9 V2 1.921486 1_565
O10 P1 1.576174 1_555
O10 V3 1.824958 1_555
O11 P4 1.586666 1_555
O11 V5 1.910969 1_655
O12 P3 1.485257 1_555
O13 P4 1.491310 1_555
O14 P3 1.597987 1_555
O14 V0 1.892575 1_555
O15 P7 1.567385 1_555
O15 V2 1.858938 1_565
O16 P3 1.600078 1_555
O16 V3 1.904634 1_555
O17 P2 1.578272 1_555
O17 V0 1.840444 1_555
O18 P5 1.608029 1_555
O18 P6 1.627115 1_555
O19 P6 1.478128 1_555
O20 P5 1.490389 1_555
O21 P5 1.522889 1_555
O21 V1 1.947002 1_555
O22 P4 1.558953 1_555
O22 V1 1.994247 1_555
O23 P8 1.581037 1_555
O23 V0 1.919997 1_555
O24 P9 1.554595 1_555
O24 V0 1.865483 1_555
O25 P9 1.555841 1_555
O25 V3 1.894689 1_555
O26 P1 1.605762 1_545
O26 P8 1.622046 1_555
O27 P1 1.475685 1_555
O28 P14 1.481802 1_565
O29 P6 1.560791 1_555
O29 V2 1.983887 1_555
O30 P6 1.547585 1_555
O30 V1 1.876017 1_555
O31 P7 1.539391 1_555
O31 V1 1.870531 1_555
O32 P11 1.603825 1_555
O32 V0 1.832609 1_555
O33 P10 1.552935 1_555
O33 V0 2.052248 1_555
O34 P10 1.484496 1_555
O35 P9 1.492481 1_555
O36 P9 1.593775 1_555
O36 P10 1.634882 1_555
O37 P13 1.538428 1_555
O37 V1 2.023295 1_555
O38 P12 1.590422 1_555
O38 V2 1.851115 1_555
O39 P8 1.561578 1_555
O39 V3 2.028338 1_545
O40 P12 1.527895 1_555
O40 V1 1.954764 1_555
O41 P12 1.492373 1_555
O42 P11 1.476583 1_555
O43 P11 1.555165 1_555
O43 V4 2.008286 1_455
O44 P14 1.555830 1_555
O44 V2 1.881653 1_555
O45 P11 1.601718 1_555
O45 V3 1.851841 1_545
O46 P10 1.552519 1_555
O46 V4 1.875501 1_455
O47 P13 1.610299 1_655
O47 P0 1.619454 1_555
O48 P0 1.473918 1_555
O49 P13 1.545798 1_555
O49 V5 1.896565 1_555
O50 P12 1.589407 1_555
O50 V5 1.856093 1_555
O51 P15 1.545998 1_555
O51 V4 2.023832 1_455
O52 P15 1.571649 1_555
O52 V3 1.952108 1_545
O53 P7 1.483215 1_555
O54 P7 1.603435 1_545
O54 P14 1.624664 1_555
O55 P14 1.553352 1_555
O55 V5 2.002582 1_555
O56 P2 1.467662 1_555
O57 P2 1.605668 1_455
O57 P15 1.625997 1_555
