# generated using pymatgen
data_KGeBiS4
_symmetry_space_group_name_H-M   'P 1'
_cell_length_a   6.84425409
_cell_length_b   6.64028188
_cell_length_c   17.32764852
_cell_angle_alpha   72.62205121
_cell_angle_beta   90.00000000
_cell_angle_gamma   90.00000000
_symmetry_Int_Tables_number   1
_chemical_formula_structural   KGeBiS4
_chemical_formula_sum   'K4 Ge4 Bi4 S16'
_cell_volume   751.55779123
_cell_formula_units_Z   4
loop_
 _symmetry_equiv_pos_site_id
 _symmetry_equiv_pos_as_xyz
  1  'x, y, z'
loop_
 _atom_site_type_symbol
 _atom_site_label
 _atom_site_symmetry_multiplicity
 _atom_site_fract_x
 _atom_site_fract_y
 _atom_site_fract_z
 _atom_site_occupancy
  K  K0  1  0.25282782  0.72803673  0.03420526  1
  K  K1  1  0.75282782  0.27196327  0.46579474  1
  K  K2  1  0.74717218  0.27196327  0.96579474  1
  K  K3  1  0.24717218  0.72803673  0.53420526  1
  Ge  Ge0  1  0.73464137  0.78822185  0.15647335  1
  Ge  Ge1  1  0.23464137  0.21177815  0.34352665  1
  Ge  Ge2  1  0.26535863  0.21177815  0.84352665  1
  Ge  Ge3  1  0.76535863  0.78822185  0.65647335  1
  Bi  Bi0  1  0.30954775  0.76293086  0.28086131  1
  Bi  Bi1  1  0.80954775  0.23706914  0.21913869  1
  Bi  Bi2  1  0.69045225  0.23706914  0.71913869  1
  Bi  Bi3  1  0.19045225  0.76293086  0.78086131  1
  S  S0  1  0.49669004  0.00834892  0.35816877  1
  S  S1  1  -0.00330996  0.99165108  0.14183123  1
  S  S2  1  0.50330996  0.99165108  0.64183123  1
  S  S3  1  0.00330996  0.00834892  0.85816877  1
  S  S4  1  0.75830135  0.57625373  0.08064575  1
  S  S5  1  0.25830135  0.42374627  0.41935425  1
  S  S6  1  0.24169865  0.42374627  0.91935425  1
  S  S7  1  0.74169865  0.57625373  0.58064575  1
  S  S8  1  0.99152274  0.98707135  0.36897718  1
  S  S9  1  0.49152274  0.01292865  0.13102282  1
  S  S10  1  0.00847726  0.01292865  0.63102282  1
  S  S11  1  0.50847726  0.98707135  0.86897718  1
  S  S12  1  0.67620813  0.58854466  0.28355679  1
  S  S13  1  0.17620813  0.41145534  0.21644321  1
  S  S14  1  0.32379187  0.41145534  0.71644321  1
  S  S15  1  0.82379187  0.58854466  0.78355679  1
loop_
_geom_bond_atom_site_label_1
_geom_bond_atom_site_label_2
_geom_bond_distance
_geom_bond_site_symmetry_2
K0 S6 3.232805 1_554
K0 S13 3.271133 1_555
K0 S9 3.310271 1_565
K0 S11 3.357878 1_554
K0 S1 3.400781 1_555
K0 S3 3.506261 1_564
K0 S4 3.554554 1_455
K0 S4 3.625970 1_555
K1 S7 3.232805 1_555
K1 S12 3.271133 1_555
K1 S8 3.310271 1_545
K1 S10 3.357878 1_655
K1 S0 3.400781 1_555
K1 S2 3.506261 1_545
K1 S5 3.554554 1_555
K1 S5 3.625970 1_655
K2 S4 3.232805 1_556
K2 S15 3.271133 1_555
K2 S11 3.310271 1_545
K2 S9 3.357878 1_556
K2 S3 3.400781 1_655
K2 S1 3.506261 1_646
K2 S6 3.554554 1_655
K2 S6 3.625970 1_555
K3 S5 3.232805 1_555
K3 S14 3.271133 1_555
K3 S10 3.310271 1_565
K3 S8 3.357878 1_455
K3 S2 3.400781 1_555
K3 S0 3.506261 1_565
K3 S7 3.554554 1_555
K3 S7 3.625970 1_455
Ge0 S9 2.190116 1_565
Ge0 S4 2.199646 1_555
Ge0 S1 2.213848 1_655
Ge0 S12 2.241194 1_555
Ge1 S8 2.190116 1_445
Ge1 S5 2.199646 1_555
Ge1 S0 2.213848 1_555
Ge1 S13 2.241194 1_555
Ge2 S11 2.190116 1_545
Ge2 S6 2.199646 1_555
Ge2 S3 2.213848 1_555
Ge2 S14 2.241194 1_555
Ge3 S10 2.190116 1_665
Ge3 S7 2.199646 1_555
Ge3 S2 2.213848 1_555
Ge3 S15 2.241194 1_555
Bi0 S0 2.719327 1_565
Bi0 S12 2.758342 1_555
Bi0 S5 2.779570 1_555
Bi0 S9 2.910915 1_565
Bi0 S13 3.013641 1_555
Bi0 S1 3.241872 1_555
Bi1 S1 2.719327 1_645
Bi1 S13 2.758342 1_655
Bi1 S4 2.779570 1_555
Bi1 S8 2.910915 1_545
Bi1 S12 3.013641 1_555
Bi1 S0 3.241872 1_555
Bi2 S2 2.719327 1_545
Bi2 S14 2.758342 1_555
Bi2 S7 2.779570 1_555
Bi2 S11 2.910915 1_545
Bi2 S15 3.013641 1_555
Bi2 S3 3.241872 1_655
Bi3 S3 2.719327 1_565
Bi3 S15 2.758342 1_455
Bi3 S6 2.779570 1_555
Bi3 S10 2.910915 1_565
Bi3 S14 3.013641 1_555
Bi3 S2 3.241872 1_555
