# generated using pymatgen
data_LiMgH6Ir
_symmetry_space_group_name_H-M   'P 1'
_cell_length_a   6.66344300
_cell_length_b   6.66344300
_cell_length_c   6.66344300
_cell_angle_alpha   90.00000000
_cell_angle_beta   90.00000000
_cell_angle_gamma   90.00000000
_symmetry_Int_Tables_number   1
_chemical_formula_structural   LiMgH6Ir
_chemical_formula_sum   'Li4 Mg4 H24 Ir4'
_cell_volume   295.86668188
_cell_formula_units_Z   4
loop_
 _symmetry_equiv_pos_site_id
 _symmetry_equiv_pos_as_xyz
  1  'x, y, z'
loop_
 _atom_site_type_symbol
 _atom_site_label
 _atom_site_symmetry_multiplicity
 _atom_site_fract_x
 _atom_site_fract_y
 _atom_site_fract_z
 _atom_site_occupancy
  Li  Li0  1  0.00000000  0.00000000  0.50000000  1
  Li  Li1  1  0.00000000  0.50000000  0.00000000  1
  Li  Li2  1  0.50000000  0.00000000  0.00000000  1
  Li  Li3  1  0.00000000  0.00000000  0.00000000  1
  Mg  Mg0  1  0.50000000  0.50000000  0.50000000  1
  Mg  Mg1  1  0.00000000  0.50000000  0.50000000  1
  Mg  Mg2  1  0.50000000  0.00000000  0.50000000  1
  Mg  Mg3  1  0.50000000  0.50000000  0.00000000  1
  H  H0  1  0.75240900  0.75240900  0.50718900  1
  H  H1  1  0.24759100  0.24759100  0.50718900  1
  H  H2  1  0.00652700  0.75038400  0.75038400  1
  H  H3  1  0.24961600  0.99347300  0.75038400  1
  H  H4  1  0.75038400  0.00652700  0.75038400  1
  H  H5  1  0.99347300  0.24961600  0.75038400  1
  H  H6  1  0.75240900  0.50718900  0.75240900  1
  H  H7  1  0.50718900  0.75240900  0.75240900  1
  H  H8  1  0.49281100  0.24759100  0.75240900  1
  H  H9  1  0.24759100  0.49281100  0.75240900  1
  H  H10  1  0.24961600  0.75038400  0.99347300  1
  H  H11  1  0.75038400  0.24961600  0.99347300  1
  H  H12  1  0.75038400  0.75038400  0.00652700  1
  H  H13  1  0.24961600  0.24961600  0.00652700  1
  H  H14  1  0.24759100  0.50718900  0.24759100  1
  H  H15  1  0.49281100  0.75240900  0.24759100  1
  H  H16  1  0.50718900  0.24759100  0.24759100  1
  H  H17  1  0.75240900  0.49281100  0.24759100  1
  H  H18  1  0.99347300  0.75038400  0.24961600  1
  H  H19  1  0.75038400  0.99347300  0.24961600  1
  H  H20  1  0.24961600  0.00652700  0.24961600  1
  H  H21  1  0.00652700  0.24961600  0.24961600  1
  H  H22  1  0.24759100  0.75240900  0.49281100  1
  H  H23  1  0.75240900  0.24759100  0.49281100  1
  Ir  Ir0  1  0.25679100  0.74320900  0.74320900  1
  Ir  Ir1  1  0.74320900  0.25679100  0.74320900  1
  Ir  Ir2  1  0.74320900  0.74320900  0.25679100  1
  Ir  Ir3  1  0.25679100  0.25679100  0.25679100  1
loop_
_geom_bond_atom_site_label_1
_geom_bond_atom_site_label_2
_geom_bond_distance
_geom_bond_site_symmetry_2
H0 Ir2 1.670764 1_555
H0 Li0 2.333673 1_665
H0 Mg1 2.356479 1_655
H0 Mg2 2.356479 1_565
H0 Mg0 2.379066 1_555
H1 Ir3 1.670764 1_555
H1 Li0 2.333673 1_555
H1 Mg1 2.356479 1_555
H1 Mg2 2.356479 1_555
H1 Mg0 2.379066 1_555
H2 Ir0 1.668990 1_555
H2 Li3 2.352666 1_566
H2 Li0 2.356287 1_565
H2 Li1 2.356287 1_556
H2 Mg1 2.359902 1_555
H3 Ir0 1.668990 1_555
H3 Li3 2.352666 1_566
H3 Li2 2.356287 1_566
H3 Li0 2.356287 1_565
H3 Mg2 2.359902 1_565
H4 Ir1 1.668990 1_555
H4 Li3 2.352666 1_656
H4 Li2 2.356287 1_556
H4 Li0 2.356287 1_655
H4 Mg2 2.359902 1_555
H5 Ir1 1.668990 1_555
H5 Li3 2.352666 1_656
H5 Li1 2.356287 1_656
H5 Li0 2.356287 1_655
H5 Mg1 2.359902 1_655
H6 Ir1 1.670764 1_555
H6 Li1 2.333673 1_656
H6 Mg1 2.356479 1_655
H6 Mg3 2.356479 1_556
H6 Mg0 2.379066 1_555
H7 Ir0 1.670764 1_555
H7 Li2 2.333673 1_566
H7 Mg2 2.356479 1_565
H7 Mg3 2.356479 1_556
H7 Mg0 2.379066 1_555
H8 Ir1 1.670764 1_555
H8 Li2 2.333673 1_556
H8 Mg2 2.356479 1_555
H8 Mg3 2.356479 1_556
H8 Mg0 2.379066 1_555
H9 Ir0 1.670764 1_555
H9 Li1 2.333673 1_556
H9 Mg1 2.356479 1_555
H9 Mg3 2.356479 1_556
H9 Mg0 2.379066 1_555
H10 Ir0 1.668990 1_555
H10 Li3 2.352666 1_566
H10 Li2 2.356287 1_566
H10 Li1 2.356287 1_556
H10 Mg3 2.359902 1_556
H11 Ir1 1.668990 1_555
H11 Li3 2.352666 1_656
H11 Li1 2.356287 1_656
H11 Li2 2.356287 1_556
H11 Mg3 2.359902 1_556
H12 Ir2 1.668990 1_555
H12 Li3 2.352666 1_665
H12 Li1 2.356287 1_655
H12 Li2 2.356287 1_565
H12 Mg3 2.359902 1_555
H13 Ir3 1.668990 1_555
H13 Li3 2.352666 1_555
H13 Li2 2.356287 1_555
H13 Li1 2.356287 1_555
H13 Mg3 2.359902 1_555
H14 Ir3 1.670764 1_555
H14 Li1 2.333673 1_555
H14 Mg1 2.356479 1_555
H14 Mg3 2.356479 1_555
H14 Mg0 2.379066 1_555
H15 Ir2 1.670764 1_555
H15 Li2 2.333673 1_565
H15 Mg2 2.356479 1_565
H15 Mg3 2.356479 1_555
H15 Mg0 2.379066 1_555
H16 Ir3 1.670764 1_555
H16 Li2 2.333673 1_555
H16 Mg2 2.356479 1_555
H16 Mg3 2.356479 1_555
H16 Mg0 2.379066 1_555
H17 Ir2 1.670764 1_555
H17 Li1 2.333673 1_655
H17 Mg3 2.356479 1_555
H17 Mg1 2.356479 1_655
H17 Mg0 2.379066 1_555
H18 Ir2 1.668990 1_555
H18 Li3 2.352666 1_665
H18 Li0 2.356287 1_665
H18 Li1 2.356287 1_655
H18 Mg1 2.359902 1_655
H19 Ir2 1.668990 1_555
H19 Li3 2.352666 1_665
H19 Li0 2.356287 1_665
H19 Li2 2.356287 1_565
H19 Mg2 2.359902 1_565
H20 Ir3 1.668990 1_555
H20 Li3 2.352666 1_555
H20 Li2 2.356287 1_555
H20 Li0 2.356287 1_555
H20 Mg2 2.359902 1_555
H21 Ir3 1.668990 1_555
H21 Li3 2.352666 1_555
H21 Li0 2.356287 1_555
H21 Li1 2.356287 1_555
H21 Mg1 2.359902 1_555
H22 Ir0 1.670764 1_555
H22 Li0 2.333673 1_565
H22 Mg1 2.356479 1_555
H22 Mg2 2.356479 1_565
H22 Mg0 2.379066 1_555
H23 Ir1 1.670764 1_555
H23 Li0 2.333673 1_655
H23 Mg2 2.356479 1_555
H23 Mg1 2.356479 1_655
H23 Mg0 2.379066 1_555
