# generated using pymatgen
data_Li2FeSi3O8
_symmetry_space_group_name_H-M   'P 1'
_cell_length_a   6.51872600
_cell_length_b   6.63193329
_cell_length_c   9.60691107
_cell_angle_alpha   109.08690997
_cell_angle_beta   99.54013188
_cell_angle_gamma   100.91281593
_symmetry_Int_Tables_number   1
_chemical_formula_structural   Li2FeSi3O8
_chemical_formula_sum   'Li4 Fe2 Si6 O16'
_cell_volume   373.61581053
_cell_formula_units_Z   2
loop_
 _symmetry_equiv_pos_site_id
 _symmetry_equiv_pos_as_xyz
  1  'x, y, z'
loop_
 _atom_site_type_symbol
 _atom_site_label
 _atom_site_symmetry_multiplicity
 _atom_site_fract_x
 _atom_site_fract_y
 _atom_site_fract_z
 _atom_site_occupancy
  Li  Li0  1  0.18920000  0.53171900  0.28566100  1
  Li  Li1  1  0.75850200  0.36479200  0.76017700  1
  Li  Li2  1  0.35807100  0.69330100  0.87439100  1
  Li  Li3  1  0.08120000  0.22964700  0.63174900  1
  Fe  Fe0  1  0.56658700  0.19515800  0.58569300  1
  Fe  Fe1  1  0.30082200  0.18536900  0.89852500  1
  Si  Si0  1  0.11797700  0.19168100  0.10184700  1
  Si  Si1  1  0.39056600  0.83291200  0.40758500  1
  Si  Si2  1  0.78704700  0.82327300  0.09398300  1
  Si  Si3  1  0.17209100  0.79790100  0.59533900  1
  Si  Si4  1  0.78257500  0.19356100  0.40688700  1
  Si  Si5  1  0.94722000  0.79830400  0.91343100  1
  O  O0  1  0.97852000  0.88513500  0.18105300  1
  O  O1  1  0.24820500  0.14328400  0.24376200  1
  O  O2  1  0.28711900  0.25387700  0.01680300  1
  O  O3  1  0.95547400  0.73269000  0.05912800  1
  O  O4  1  0.28991800  0.68155500  0.54887000  1
  O  O5  1  0.92954300  0.46550600  0.98115000  1
  O  O6  1  0.39073600  0.58732800  0.40856100  1
  O  O7  1  0.02766000  0.11538100  0.42515000  1
  O  O8  1  0.61665300  0.09822900  0.94519000  1
  O  O9  1  0.33116900  0.90421000  0.66705600  1
  O  O10  1  0.63185400  0.92305400  0.44548500  1
  O  O11  1  0.73964300  0.02616500  0.78339600  1
  O  O12  1  0.67992300  0.51265100  0.22882300  1
  O  O13  1  0.04179800  0.51238300  0.71590600  1
  O  O14  1  0.81262300  0.21338600  0.52168500  1
  O  O15  1  0.17527300  0.93161000  0.86067900  1
loop_
_geom_bond_atom_site_label_1
_geom_bond_atom_site_label_2
_geom_bond_distance
_geom_bond_site_symmetry_2
Li0 O6 1.507848 1_555
Li1 O5 2.049870 1_555
Li1 O13 2.097038 1_655
Li1 O11 2.310941 1_555
Li2 O15 2.175385 1_555
Li2 O13 2.199201 1_555
Li2 O8 2.688324 1_565
Li3 O7 1.822633 1_555
Li3 O14 1.853429 1_455
Li3 O13 1.869573 1_555
Fe0 Li1 1.783037 1_555
Fe0 O14 1.807530 1_555
Fe0 O10 2.035387 1_545
Fe1 O2 1.103143 1_556
Fe1 O15 1.616754 1_545
Fe1 O8 2.255585 1_555
O0 Si2 1.288993 1_555
O1 Si0 1.639560 1_555
O2 Si0 1.549243 1_555
O3 Si2 1.385100 1_555
O3 Si5 1.591742 1_554
O4 Si3 1.223677 1_555
O6 Si1 1.631996 1_555
O7 Si4 1.769827 1_455
O9 Si3 1.102621 1_555
O10 Si1 1.508550 1_555
O11 O8 1.832893 1_555
O14 Si4 1.046782 1_555
O15 Si5 1.814819 1_455
