# generated using pymatgen
data_Y(Bi5O8)3
_symmetry_space_group_name_H-M   'P 1'
_cell_length_a   7.76817400
_cell_length_b   7.93483300
_cell_length_c   11.36640858
_cell_angle_alpha   89.11314692
_cell_angle_beta   90.00000000
_cell_angle_gamma   90.00000000
_symmetry_Int_Tables_number   1
_chemical_formula_structural   Y(Bi5O8)3
_chemical_formula_sum   'Y1 Bi15 O24'
_cell_volume   700.53198914
_cell_formula_units_Z   1
loop_
 _symmetry_equiv_pos_site_id
 _symmetry_equiv_pos_as_xyz
  1  'x, y, z'
loop_
 _atom_site_type_symbol
 _atom_site_label
 _atom_site_symmetry_multiplicity
 _atom_site_fract_x
 _atom_site_fract_y
 _atom_site_fract_z
 _atom_site_occupancy
  Y  Y0  1  0.00000000  0.71084500  0.88557900  1
  Bi  Bi0  1  0.00000000  0.24608900  0.87469700  1
  Bi  Bi1  1  0.00000000  0.73973700  0.38009200  1
  Bi  Bi2  1  0.00000000  0.25924600  0.38024900  1
  Bi  Bi3  1  0.75634400  0.49360400  0.62918800  1
  Bi  Bi4  1  0.75458700  0.50415400  0.12749700  1
  Bi  Bi5  1  0.74824500  0.98924000  0.62405500  1
  Bi  Bi6  1  0.74577300  0.00467900  0.12082400  1
  Bi  Bi7  1  0.50000000  0.76883500  0.86518000  1
  Bi  Bi8  1  0.50000000  0.76203500  0.37129700  1
  Bi  Bi9  1  0.50000000  0.24300200  0.36955900  1
  Bi  Bi10  1  0.50000000  0.24497800  0.86943900  1
  Bi  Bi11  1  0.25175500  0.98924000  0.62405500  1
  Bi  Bi12  1  0.25422700  0.00467900  0.12082400  1
  Bi  Bi13  1  0.24365600  0.49360400  0.62918800  1
  Bi  Bi14  1  0.24541300  0.50415400  0.12749700  1
  O  O0  1  0.00000000  0.48336300  0.78737500  1
  O  O1  1  0.00000000  0.50118400  0.54167200  1
  O  O2  1  0.00000000  0.50137600  0.29214400  1
  O  O3  1  0.00000000  0.50409200  0.04342200  1
  O  O4  1  0.79646500  0.80478400  0.76151500  1
  O  O5  1  0.79370900  0.79834300  0.25009100  1
  O  O6  1  0.79145700  0.19679400  0.74933300  1
  O  O7  1  0.79559000  0.20501300  0.24950100  1
  O  O8  1  0.72387200  0.71144000  0.99554500  1
  O  O9  1  0.70483300  0.70628600  0.50381700  1
  O  O10  1  0.70370500  0.30327800  0.99879400  1
  O  O11  1  0.70498200  0.30193400  0.49815800  1
  O  O12  1  0.50000000  0.00119100  0.45560900  1
  O  O13  1  0.50000000  0.00296100  0.95696800  1
  O  O14  1  0.50000000  0.99136400  0.70572300  1
  O  O15  1  0.50000000  0.00059900  0.20436000  1
  O  O16  1  0.27612800  0.71144000  0.99554500  1
  O  O17  1  0.29516700  0.70628600  0.50381700  1
  O  O18  1  0.29629500  0.30327800  0.99879400  1
  O  O19  1  0.29501800  0.30193400  0.49815800  1
  O  O20  1  0.20353500  0.80478400  0.76151500  1
  O  O21  1  0.20854300  0.19679400  0.74933300  1
  O  O22  1  0.20629100  0.79834300  0.25009100  1
  O  O23  1  0.20441000  0.20501300  0.24950100  1
loop_
_geom_bond_atom_site_label_1
_geom_bond_atom_site_label_2
_geom_bond_distance
_geom_bond_site_symmetry_2
Bi0 O0 2.114700 1_555
Bi0 O21 2.196610 1_555
Bi0 O6 2.196610 1_455
Bi0 O18 2.740993 1_555
Bi0 O10 2.740993 1_455
Bi1 O2 2.152918 1_555
Bi1 O5 2.224058 1_455
Bi1 O22 2.224058 1_555
Bi1 O1 2.616948 1_555
Bi1 O17 2.700747 1_555
Bi1 O9 2.700747 1_455
Bi2 O2 2.152803 1_555
Bi2 O23 2.221482 1_555
Bi2 O7 2.221482 1_455
Bi2 O1 2.675989 1_555
Bi2 O19 2.679002 1_555
Bi2 O11 2.679002 1_455
Bi3 O1 2.138651 1_655
Bi3 O11 2.181854 1_555
Bi3 O9 2.228078 1_555
Bi3 O0 2.611034 1_655
Bi3 O6 2.717798 1_555
Bi4 O3 2.132521 1_655
Bi4 O10 2.215634 1_554
Bi4 O8 2.221560 1_554
Bi4 O2 2.671314 1_655
Bi4 O7 2.748957 1_555
Bi4 O5 2.753890 1_555
Bi5 O14 2.140379 1_555
Bi5 O4 2.157059 1_555
Bi5 O6 2.219288 1_565
Bi5 O9 2.667846 1_555
Bi5 O12 2.718075 1_565
Bi5 O11 2.864789 1_565
Bi6 O15 2.132306 1_555
Bi6 O7 2.210836 1_555
Bi6 O5 2.214408 1_545
Bi6 O13 2.667355 1_554
Bi6 O10 2.746396 1_554
Bi6 O8 2.751948 1_544
Bi7 O13 2.144694 1_565
Bi7 O8 2.325206 1_555
Bi7 O16 2.325206 1_555
Bi7 O14 2.510722 1_555
Bi7 O20 2.600600 1_555
Bi7 O4 2.600600 1_555
Bi8 O12 2.139113 1_565
Bi8 O9 2.230644 1_555
Bi8 O17 2.230644 1_555
Bi8 O15 2.659424 1_565
Bi8 O22 2.678493 1_555
Bi8 O5 2.678493 1_555
Bi9 O12 2.140110 1_555
Bi9 O11 2.216292 1_555
Bi9 O19 2.216292 1_555
Bi9 O23 2.690412 1_555
Bi9 O7 2.690412 1_555
Bi9 O15 2.708727 1_555
Bi10 O13 2.149061 1_555
Bi10 O10 2.213794 1_555
Bi10 O18 2.213794 1_555
Bi10 O6 2.674347 1_555
Bi10 O21 2.674347 1_555
Bi10 O14 2.761960 1_545
Bi11 O14 2.140379 1_555
Bi11 O20 2.157059 1_555
Bi11 O21 2.219288 1_565
Bi11 O17 2.667846 1_555
Bi11 O12 2.718075 1_565
Bi11 O19 2.864789 1_565
Bi12 O15 2.132306 1_555
Bi12 O23 2.210836 1_555
Bi12 O22 2.214408 1_545
Bi12 O13 2.667355 1_554
Bi12 O18 2.746396 1_554
Bi12 O16 2.751948 1_544
Bi13 O1 2.138651 1_555
Bi13 O19 2.181854 1_555
Bi13 O17 2.228078 1_555
Bi13 O0 2.611034 1_555
Bi13 O21 2.717798 1_555
Bi14 O3 2.132521 1_555
Bi14 O18 2.215634 1_554
Bi14 O16 2.221560 1_554
Bi14 O2 2.671314 1_555
Bi14 O23 2.748957 1_555
Bi14 O22 2.753890 1_555
O0 Y0 2.136931 1_555
O3 Y0 2.412285 1_554
O4 Y0 2.238635 1_655
O8 Y0 2.482654 1_655
O16 Y0 2.482654 1_555
O20 Y0 2.238635 1_555
