# generated using pymatgen
data_ScNbRu2
_symmetry_space_group_name_H-M   'P 1'
_cell_length_a   4.49409267
_cell_length_b   4.49415980
_cell_length_c   4.49411278
_cell_angle_alpha   60.00041861
_cell_angle_beta   59.99894614
_cell_angle_gamma   59.99866055
_symmetry_Int_Tables_number   1
_chemical_formula_structural   ScNbRu2
_chemical_formula_sum   'Sc1 Nb1 Ru2'
_cell_volume   64.18196693
_cell_formula_units_Z   1
loop_
 _symmetry_equiv_pos_site_id
 _symmetry_equiv_pos_as_xyz
  1  'x, y, z'
loop_
 _atom_site_type_symbol
 _atom_site_label
 _atom_site_symmetry_multiplicity
 _atom_site_fract_x
 _atom_site_fract_y
 _atom_site_fract_z
 _atom_site_occupancy
  Sc  Sc0  1  0.75000152  0.74999789  0.74999933  1
  Nb  Nb0  1  0.25000250  0.25000010  0.24999845  1
  Ru  Ru0  1  0.99999449  0.00001424  -0.00000391  1
  Ru  Ru1  1  0.50000249  0.49998978  0.50000714  1
loop_
_geom_bond_atom_site_label_1
_geom_bond_atom_site_label_2
_geom_bond_distance
_geom_bond_site_symmetry_2
Nb0 Ru0 2.751976 1_555
Nb0 Ru1 2.752006 1_455
Nb0 Ru1 2.752035 1_554
Nb0 Ru0 2.752058 1_456
Nb0 Ru0 2.752076 1_455
Nb0 Ru1 2.752084 1_555
Nb0 Ru1 2.752126 1_545
Nb0 Ru0 2.752140 1_465
Ru0 Sc0 2.752028 1_554
Ru0 Sc0 2.752032 1_644
Ru0 Sc0 2.752079 1_545
Ru0 Sc0 2.752112 1_544
Ru1 Sc0 2.752009 1_455
Ru1 Sc0 2.752058 1_545
Ru1 Sc0 2.752088 1_555
Ru1 Sc0 2.752096 1_554
