# generated using pymatgen
data_Na3CoO3
_symmetry_space_group_name_H-M   'P 1'
_cell_length_a   4.69734008
_cell_length_b   9.51136346
_cell_length_c   8.39949844
_cell_angle_alpha   90.00052760
_cell_angle_beta   89.99995417
_cell_angle_gamma   89.99997217
_symmetry_Int_Tables_number   1
_chemical_formula_structural   Na3CoO3
_chemical_formula_sum   'Na12 Co4 O12'
_cell_volume   375.27370513
_cell_formula_units_Z   4
loop_
 _symmetry_equiv_pos_site_id
 _symmetry_equiv_pos_as_xyz
  1  'x, y, z'
loop_
 _atom_site_type_symbol
 _atom_site_label
 _atom_site_symmetry_multiplicity
 _atom_site_fract_x
 _atom_site_fract_y
 _atom_site_fract_z
 _atom_site_occupancy
  Na  Na0  1  0.24999962  0.60474993  0.00002290  1
  Na  Na1  1  0.25000021  0.10475155  0.50000879  1
  Na  Na2  1  0.74999962  0.39524545  0.00000465  1
  Na  Na3  1  0.74999994  0.89524553  0.49999405  1
  Na  Na4  1  0.25000071  0.37998918  0.27056711  1
  Na  Na5  1  0.24999852  0.87997788  0.77055548  1
  Na  Na6  1  0.74999963  0.62001236  0.27057365  1
  Na  Na7  1  0.75000071  0.12000662  0.77055390  1
  Na  Na8  1  0.25000070  0.37998145  0.72944758  1
  Na  Na9  1  0.24999892  0.87997334  0.22943515  1
  Na  Na10  1  0.75000005  0.62002719  0.72943773  1
  Na  Na11  1  0.74999988  0.12000823  0.22943061  1
  Co  Co0  1  0.24999975  0.68041070  0.49999580  1
  Co  Co1  1  0.74999902  0.81960216  0.00000651  1
  Co  Co2  1  0.24999947  0.18038989  -0.00001209  1
  Co  Co3  1  0.75000162  0.31961414  0.49999996  1
  O  O0  1  0.24999848  0.36546251  0.00000752  1
  O  O1  1  0.25000050  0.86546738  0.50000216  1
  O  O2  1  0.74999978  0.63453713  0.00001360  1
  O  O3  1  0.75000070  0.13453642  0.49999431  1
  O  O4  1  0.75000306  0.37056489  0.30414368  1
  O  O5  1  0.75000014  0.87053895  0.80415831  1
  O  O6  1  0.24999992  0.62945406  0.30415968  1
  O  O7  1  0.25000014  0.12942997  0.80412419  1
  O  O8  1  0.25000001  0.62945516  0.69583522  1
  O  O9  1  0.24999963  0.12943474  0.19583415  1
  O  O10  1  0.75000124  0.37057795  0.69586268  1
  O  O11  1  0.74999904  0.87055623  0.19584170  1
loop_
_geom_bond_atom_site_label_1
_geom_bond_atom_site_label_2
_geom_bond_distance
_geom_bond_site_symmetry_2
Na0 O0 2.275950 1_555
Na0 O2 2.365696 1_455
Na0 O2 2.365697 1_555
Na0 O6 2.565378 1_555
Na0 O8 2.565809 1_554
Na1 O1 2.275919 1_545
Na1 O3 2.365691 1_455
Na1 O3 2.365696 1_555
Na1 O7 2.565176 1_555
Na1 O9 2.565680 1_555
Na2 O2 2.275990 1_555
Na2 O0 2.365686 1_655
Na2 O0 2.365697 1_555
Na2 O4 2.565380 1_555
Na2 O10 2.565389 1_554
Na3 O3 2.275983 1_565
Na3 O1 2.365684 1_555
Na3 O1 2.365689 1_655
Na3 O11 2.565495 1_555
Na3 O5 2.565614 1_555
Na4 O0 2.276760 1_555
Na4 O4 2.367229 1_455
Na4 O4 2.367251 1_555
Na4 O6 2.389467 1_555
Na4 O9 2.464394 1_555
Na5 O1 2.276698 1_555
Na5 O5 2.367264 1_455
Na5 O5 2.367279 1_555
Na5 O7 2.389322 1_565
Na5 O8 2.464075 1_555
Na6 O2 2.276765 1_555
Na6 O6 2.367254 1_555
Na6 O6 2.367257 1_655
Na6 O4 2.389285 1_555
Na6 O11 2.464306 1_555
Na7 O3 2.276764 1_555
Na7 O7 2.367231 1_655
Na7 O7 2.367236 1_555
Na7 O5 2.389510 1_545
Na7 O10 2.464471 1_555
Na8 O0 2.276761 1_556
Na8 O10 2.367238 1_455
Na8 O10 2.367243 1_555
Na8 O8 2.389575 1_555
Na8 O7 2.464257 1_555
Na9 O1 2.276813 1_555
Na9 O11 2.367254 1_455
Na9 O11 2.367254 1_555
Na9 O9 2.389447 1_565
Na9 O6 2.464064 1_555
Na10 O2 2.276887 1_556
Na10 O8 2.367267 1_655
Na10 O8 2.367268 1_555
Na10 O10 2.389301 1_555
Na10 O5 2.463975 1_555
Na11 O3 2.276795 1_555
Na11 O9 2.367259 1_655
Na11 O9 2.367262 1_555
Na11 O11 2.389341 1_545
Na11 O4 2.464372 1_555
Co0 O6 1.714837 1_555
Co0 O8 1.714869 1_555
Co0 O1 1.760141 1_555
Co1 O11 1.714823 1_555
Co1 O5 1.714890 1_554
Co1 O2 1.760221 1_555
Co2 O9 1.714923 1_555
Co2 O7 1.715068 1_554
Co2 O0 1.760293 1_555
Co3 O4 1.714992 1_555
Co3 O10 1.715071 1_555
Co3 O3 1.760341 1_555
