# generated using pymatgen
data_Mn12O5F19
_symmetry_space_group_name_H-M   'P 1'
_cell_length_a   4.88063500
_cell_length_b   5.85260567
_cell_length_c   15.95973202
_cell_angle_alpha   88.65378130
_cell_angle_beta   89.69124949
_cell_angle_gamma   88.93676780
_symmetry_Int_Tables_number   1
_chemical_formula_structural   Mn12O5F19
_chemical_formula_sum   'Mn12 O5 F19'
_cell_volume   455.67078724
_cell_formula_units_Z   1
loop_
 _symmetry_equiv_pos_site_id
 _symmetry_equiv_pos_as_xyz
  1  'x, y, z'
loop_
 _atom_site_type_symbol
 _atom_site_label
 _atom_site_symmetry_multiplicity
 _atom_site_fract_x
 _atom_site_fract_y
 _atom_site_fract_z
 _atom_site_occupancy
  Mn  Mn0  1  0.03064600  0.18847800  0.42227800  1
  Mn  Mn1  1  0.99171400  0.85025000  0.24963400  1
  Mn  Mn2  1  0.97205500  0.16347800  0.08567700  1
  Mn  Mn3  1  0.02559700  0.15101600  0.74455900  1
  Mn  Mn4  1  0.00348000  0.84766900  0.58560500  1
  Mn  Mn5  1  0.01259500  0.84847700  0.90914400  1
  Mn  Mn6  1  0.47466000  0.32501400  0.58554000  1
  Mn  Mn7  1  0.51789500  0.33558900  0.92374100  1
  Mn  Mn8  1  0.51701700  0.32065300  0.24545600  1
  Mn  Mn9  1  0.51384600  0.64749600  0.08110200  1
  Mn  Mn10  1  0.49777400  0.64468500  0.41971600  1
  Mn  Mn11  1  0.47990600  0.67389600  0.75420300  1
  O  O0  1  0.20734000  0.10625100  0.63782500  1
  O  O1  1  0.21648500  0.90229400  0.80359600  1
  O  O2  1  0.29893400  0.40215400  0.47606800  1
  O  O3  1  0.71946800  0.37416100  0.03320100  1
  O  O4  1  0.78638100  0.10688500  0.18918300  1
  F  F0  1  0.23503100  0.10348600  0.30788300  1
  F  F1  1  0.20366300  0.12720900  0.97820900  1
  F  F2  1  0.23098400  0.89219800  0.13058200  1
  F  F3  1  0.23566800  0.88604900  0.47227200  1
  F  F4  1  0.26169800  0.39477400  0.14138400  1
  F  F5  1  0.26749400  0.60963200  0.30428700  1
  F  F6  1  0.25822400  0.60490500  0.64445800  1
  F  F7  1  0.27572700  0.39018500  0.81291900  1
  F  F8  1  0.27414100  0.62199700  0.97052000  1
  F  F9  1  0.73095000  0.61618500  0.19531800  1
  F  F10  1  0.73610700  0.39323400  0.35838600  1
  F  F11  1  0.73938000  0.61493400  0.53366200  1
  F  F12  1  0.73346000  0.61576000  0.86088600  1
  F  F13  1  0.72251000  0.36990800  0.69460600  1
  F  F14  1  0.76637800  0.10971600  0.52467000  1
  F  F15  1  0.75858800  0.87794200  0.36548600  1
  F  F16  1  0.76942100  0.87706900  0.01506400  1
  F  F17  1  0.78238600  0.12662100  0.85205000  1
  F  F18  1  0.75239000  0.87975000  0.69083400  1
loop_
_geom_bond_atom_site_label_1
_geom_bond_atom_site_label_2
_geom_bond_distance
_geom_bond_site_symmetry_2
Mn0 O2 2.034399 1_555
Mn1 O4 2.019293 1_565
Mn2 O4 1.905014 1_555
Mn2 O3 1.909911 1_555
Mn3 O0 1.937327 1_555
Mn3 O1 1.941498 1_545
Mn4 O0 2.024584 1_565
Mn5 O1 1.973750 1_555
Mn6 O2 1.989126 1_555
Mn6 O0 2.009439 1_555
Mn7 O3 2.028785 1_556
Mn8 O4 2.019708 1_555
Mn9 O3 2.034775 1_555
Mn10 O2 1.935767 1_555
Mn11 O1 2.008975 1_555
F0 Mn8 2.119630 1_555
F0 Mn0 2.140176 1_555
F0 Mn1 2.147797 1_445
F1 Mn2 2.062021 1_456
F1 Mn7 2.144839 1_555
F1 Mn5 2.213094 1_545
F2 Mn2 2.124444 1_465
F2 Mn9 2.132737 1_555
F2 Mn1 2.235835 1_455
F3 Mn10 2.076662 1_555
F3 Mn4 2.138819 1_555
F3 Mn0 2.155763 1_565
F4 Mn8 2.113806 1_555
F4 Mn9 2.148418 1_555
F4 Mn2 2.182293 1_455
F5 Mn1 2.107183 1_455
F5 Mn10 2.178912 1_555
F5 Mn8 2.282757 1_555
F6 Mn4 2.081122 1_555
F6 Mn11 2.114538 1_555
F6 Mn6 2.163529 1_555
F7 Mn11 2.146280 1_555
F7 Mn7 2.146925 1_555
F7 Mn3 2.188491 1_555
F8 Mn5 2.058059 1_555
F8 Mn9 2.132323 1_556
F8 Mn7 2.181212 1_555
F9 Mn1 2.092893 1_555
F9 Mn9 2.115908 1_555
F9 Mn8 2.171433 1_555
F10 Mn0 2.106373 1_655
F10 Mn10 2.113944 1_555
F10 Mn8 2.155423 1_555
F11 Mn4 2.081768 1_655
F11 Mn10 2.174520 1_555
F11 Mn6 2.288600 1_555
F12 Mn5 2.105636 1_655
F12 Mn11 2.127440 1_555
F12 Mn7 2.185700 1_555
F13 Mn3 2.087910 1_655
F13 Mn6 2.149004 1_555
F13 Mn11 2.336913 1_555
F14 Mn0 2.123783 1_655
F14 Mn4 2.124427 1_645
F14 Mn6 2.129469 1_555
F15 Mn10 2.056750 1_555
F15 Mn1 2.173501 1_555
F15 Mn0 2.463263 1_665
F16 Mn5 2.068462 1_654
F16 Mn9 2.110329 1_555
F16 Mn2 2.284778 1_565
F17 Mn3 2.084533 1_655
F17 Mn7 2.112462 1_555
F17 Mn5 2.148512 1_645
F18 Mn11 2.056859 1_555
F18 Mn4 2.083656 1_655
F18 Mn3 2.277845 1_665
