# generated using pymatgen
data_K4(S2O3)5
_symmetry_space_group_name_H-M   'P 1'
_cell_length_a   9.30863000
_cell_length_b   12.34119600
_cell_length_c   20.47145400
_cell_angle_alpha   90.00000000
_cell_angle_beta   90.00000000
_cell_angle_gamma   90.00000000
_symmetry_Int_Tables_number   1
_chemical_formula_structural   K4(S2O3)5
_chemical_formula_sum   'K16 S40 O60'
_cell_volume   2351.75300625
_cell_formula_units_Z   4
loop_
 _symmetry_equiv_pos_site_id
 _symmetry_equiv_pos_as_xyz
  1  'x, y, z'
loop_
 _atom_site_type_symbol
 _atom_site_label
 _atom_site_symmetry_multiplicity
 _atom_site_fract_x
 _atom_site_fract_y
 _atom_site_fract_z
 _atom_site_occupancy
  K  K0  1  0.75226300  0.99577700  0.26261800  1
  K  K1  1  0.74773700  0.49577700  0.23738200  1
  K  K2  1  0.74773700  0.00422300  0.76261800  1
  K  K3  1  0.75226300  0.50422300  0.73738200  1
  K  K4  1  0.24773700  0.00422300  0.73738200  1
  K  K5  1  0.25226300  0.50422300  0.76261800  1
  K  K6  1  0.25226300  0.99577700  0.23738200  1
  K  K7  1  0.24773700  0.49577700  0.26261800  1
  K  K8  1  0.87867900  0.71666300  0.39427600  1
  K  K9  1  0.62132100  0.21666300  0.10572400  1
  K  K10  1  0.62132100  0.28333700  0.89427600  1
  K  K11  1  0.87867900  0.78333700  0.60572400  1
  K  K12  1  0.12132100  0.28333700  0.60572400  1
  K  K13  1  0.37867900  0.78333700  0.89427600  1
  K  K14  1  0.37867900  0.71666300  0.10572400  1
  K  K15  1  0.12132100  0.21666300  0.39427600  1
  S  S0  1  0.95194900  0.51090500  0.09149800  1
  S  S1  1  0.54805100  0.01090500  0.40850200  1
  S  S2  1  0.54805100  0.48909500  0.59149800  1
  S  S3  1  0.95194900  0.98909500  0.90850200  1
  S  S4  1  0.04805100  0.48909500  0.90850200  1
  S  S5  1  0.45194900  0.98909500  0.59149800  1
  S  S6  1  0.45194900  0.51090500  0.40850200  1
  S  S7  1  0.04805100  0.01090500  0.09149800  1
  S  S8  1  0.97596400  0.67218000  0.07787100  1
  S  S9  1  0.52403600  0.17218000  0.42212900  1
  S  S10  1  0.52403600  0.32782000  0.57787100  1
  S  S11  1  0.97596400  0.82782000  0.92212900  1
  S  S12  1  0.02403600  0.32782000  0.92212900  1
  S  S13  1  0.47596400  0.82782000  0.57787100  1
  S  S14  1  0.47596400  0.67218000  0.42212900  1
  S  S15  1  0.02403600  0.17218000  0.07787100  1
  S  S16  1  0.86939500  0.75171600  0.15073400  1
  S  S17  1  0.63060500  0.25171600  0.34926600  1
  S  S18  1  0.63060500  0.24828400  0.65073400  1
  S  S19  1  0.86939500  0.74828400  0.84926600  1
  S  S20  1  0.13060500  0.24828400  0.84926600  1
  S  S21  1  0.36939500  0.74828400  0.65073400  1
  S  S22  1  0.36939500  0.75171600  0.34926600  1
  S  S23  1  0.13060500  0.25171600  0.15073400  1
  S  S24  1  0.73598500  0.48159300  0.04977800  1
  S  S25  1  0.76401500  0.98159300  0.45022200  1
  S  S26  1  0.76401500  0.51840700  0.54977800  1
  S  S27  1  0.73598500  0.01840700  0.95022200  1
  S  S28  1  0.26401500  0.51840700  0.95022200  1
  S  S29  1  0.23598500  0.01840700  0.54977800  1
  S  S30  1  0.23598500  0.48159300  0.45022200  1
  S  S31  1  0.26401500  0.98159300  0.04977800  1
  S  S32  1  0.02700700  0.74895200  0.22889600  1
  S  S33  1  0.47299300  0.24895200  0.27110400  1
  S  S34  1  0.47299300  0.25104800  0.72889600  1
  S  S35  1  0.02700700  0.75104800  0.77110400  1
  S  S36  1  0.97299300  0.25104800  0.77110400  1
  S  S37  1  0.52700700  0.75104800  0.72889600  1
  S  S38  1  0.52700700  0.74895200  0.27110400  1
  S  S39  1  0.97299300  0.24895200  0.22889600  1
  O  O0  1  0.71806300  0.56258900  0.99826000  1
  O  O1  1  0.78193700  0.06258900  0.50174000  1
  O  O2  1  0.78193700  0.43741100  0.49826000  1
  O  O3  1  0.71806300  0.93741100  0.00174000  1
  O  O4  1  0.28193700  0.43741100  0.00174000  1
  O  O5  1  0.21806300  0.93741100  0.49826000  1
  O  O6  1  0.21806300  0.56258900  0.50174000  1
  O  O7  1  0.28193700  0.06258900  0.99826000  1
  O  O8  1  0.64024400  0.49259000  0.10647300  1
  O  O9  1  0.85975600  0.99259000  0.39352700  1
  O  O10  1  0.85975600  0.50741000  0.60647300  1
  O  O11  1  0.64024400  0.00741000  0.89352700  1
  O  O12  1  0.35975600  0.50741000  0.89352700  1
  O  O13  1  0.14024400  0.00741000  0.60647300  1
  O  O14  1  0.14024400  0.49259000  0.39352700  1
  O  O15  1  0.35975600  0.99259000  0.10647300  1
  O  O16  1  0.75508700  0.36986400  0.02683900  1
  O  O17  1  0.74491300  0.86986400  0.47316100  1
  O  O18  1  0.74491300  0.63013600  0.52683900  1
  O  O19  1  0.75508700  0.13013600  0.97316100  1
  O  O20  1  0.24491300  0.63013600  0.97316100  1
  O  O21  1  0.25508700  0.13013600  0.52683900  1
  O  O22  1  0.25508700  0.36986400  0.47316100  1
  O  O23  1  0.24491300  0.86986400  0.02683900  1
  O  O24  1  0.16712700  0.76727400  0.19796800  1
  O  O25  1  0.33287300  0.26727400  0.30203200  1
  O  O26  1  0.33287300  0.23272600  0.69796800  1
  O  O27  1  0.16712700  0.73272600  0.80203200  1
  O  O28  1  0.83287300  0.23272600  0.80203200  1
  O  O29  1  0.66712700  0.73272600  0.69796800  1
  O  O30  1  0.66712700  0.76727400  0.30203200  1
  O  O31  1  0.83287300  0.26727400  0.19796800  1
  O  O32  1  0.01238900  0.64139000  0.25962800  1
  O  O33  1  0.48761100  0.14139000  0.24037200  1
  O  O34  1  0.48761100  0.35861000  0.75962800  1
  O  O35  1  0.01238900  0.85861000  0.74037200  1
  O  O36  1  0.98761100  0.35861000  0.74037200  1
  O  O37  1  0.51238900  0.85861000  0.75962800  1
  O  O38  1  0.51238900  0.64139000  0.24037200  1
  O  O39  1  0.98761100  0.14139000  0.25962800  1
  O  O40  1  0.97841200  0.83870300  0.27022900  1
  O  O41  1  0.52158800  0.33870300  0.22977100  1
  O  O42  1  0.52158800  0.16129700  0.77022900  1
  O  O43  1  0.97841200  0.66129700  0.72977100  1
  O  O44  1  0.02158800  0.16129700  0.72977100  1
  O  O45  1  0.47841200  0.66129700  0.77022900  1
  O  O46  1  0.47841200  0.83870300  0.22977100  1
  O  O47  1  0.02158800  0.33870300  0.27022900  1
  O  O48  1  0.66249400  0.99576500  0.13056700  1
  O  O49  1  0.83750600  0.49576500  0.36943300  1
  O  O50  1  0.83750600  0.00423500  0.63056700  1
  O  O51  1  0.66249400  0.50423500  0.86943300  1
  O  O52  1  0.33750600  0.00423500  0.86943300  1
  O  O53  1  0.16249400  0.50423500  0.63056700  1
  O  O54  1  0.16249400  0.99576500  0.36943300  1
  O  O55  1  0.33750600  0.49576500  0.13056700  1
  O  O56  1  0.57069100  0.75000000  0.00000000  1
  O  O57  1  0.92930900  0.25000000  0.50000000  1
  O  O58  1  0.42930900  0.25000000  0.00000000  1
  O  O59  1  0.07069100  0.75000000  0.50000000  1
loop_
_geom_bond_atom_site_label_1
_geom_bond_atom_site_label_2
_geom_bond_distance
_geom_bond_site_symmetry_2
K0 O48 2.829483 1_555
K0 O39 2.834176 1_565
K0 O9 2.860878 1_555
K0 O40 2.865936 1_555
K0 O30 3.038336 1_555
K0 O33 3.083149 1_565
K0 S1 3.545044 1_565
K1 O49 2.829483 1_555
K1 O38 2.834176 1_555
K1 O8 2.860878 1_555
K1 O41 2.865936 1_555
K1 O31 3.038336 1_555
K1 O32 3.083149 1_655
K1 S0 3.545044 1_555
K2 O50 2.829483 1_555
K2 O37 2.834176 1_545
K2 O11 2.860878 1_555
K2 O42 2.865936 1_555
K2 O28 3.038336 1_555
K2 O35 3.083149 1_645
K2 S3 3.545044 1_545
K3 O51 2.829483 1_555
K3 O36 2.834176 1_555
K3 O10 2.860878 1_555
K3 O43 2.865936 1_555
K3 O29 3.038336 1_555
K3 O34 3.083149 1_555
K3 S2 3.545044 1_555
K4 O52 2.829483 1_555
K4 O35 2.834176 1_545
K4 O13 2.860878 1_555
K4 O44 2.865936 1_555
K4 O26 3.038336 1_555
K4 O37 3.083149 1_545
K4 S5 3.545044 1_545
K5 O53 2.829483 1_555
K5 O34 2.834176 1_555
K5 O12 2.860878 1_555
K5 O45 2.865936 1_555
K5 O27 3.038336 1_555
K5 O36 3.083149 1_455
K5 S4 3.545044 1_555
K6 O54 2.829483 1_555
K6 O33 2.834176 1_565
K6 O15 2.860878 1_555
K6 O46 2.865936 1_555
K6 O24 3.038336 1_555
K6 O39 3.083149 1_465
K6 S7 3.545044 1_565
K7 O55 2.829483 1_555
K7 O32 2.834176 1_555
K7 O14 2.860878 1_555
K7 O47 2.865936 1_555
K7 O25 3.038336 1_555
K7 O38 3.083149 1_555
K7 S6 3.545044 1_555
K8 O17 2.780832 1_555
K8 O30 2.798936 1_555
K8 O49 2.799537 1_555
K8 O59 2.836944 1_655
K8 O40 3.094987 1_555
K8 O32 3.163874 1_655
K8 O18 3.171001 1_555
K9 O16 2.780832 1_555
K9 O31 2.798936 1_555
K9 O48 2.799537 1_545
K9 O58 2.836944 1_555
K9 O41 3.094987 1_555
K9 O33 3.163874 1_555
K9 O19 3.171001 1_554
K10 O19 2.780832 1_555
K10 O28 2.798936 1_555
K10 O51 2.799537 1_555
K10 O58 2.836944 1_556
K10 O42 3.094987 1_555
K10 O34 3.163874 1_555
K10 O16 3.171001 1_556
K11 O18 2.780832 1_555
K11 O29 2.798936 1_555
K11 O50 2.799537 1_565
K11 O59 2.836944 1_655
K11 O43 3.094987 1_555
K11 O35 3.163874 1_655
K11 O17 3.171001 1_555
K12 O21 2.780832 1_555
K12 O26 2.798936 1_555
K12 O53 2.799537 1_555
K12 O57 2.836944 1_455
K12 O44 3.094987 1_555
K12 O36 3.163874 1_455
K12 O22 3.171001 1_555
K13 O20 2.780832 1_555
K13 O27 2.798936 1_555
K13 O52 2.799537 1_565
K13 O56 2.836944 1_556
K13 O45 3.094987 1_555
K13 O37 3.163874 1_555
K13 O23 3.171001 1_556
K14 O23 2.780832 1_555
K14 O24 2.798936 1_555
K14 O55 2.799537 1_555
K14 O56 2.836944 1_555
K14 O46 3.094987 1_555
K14 O38 3.163874 1_555
K14 O20 3.171001 1_554
K15 O22 2.780832 1_555
K15 O25 2.798936 1_555
K15 O54 2.799537 1_545
K15 O57 2.836944 1_455
K15 O47 3.094987 1_555
K15 O39 3.163874 1_455
K15 O21 3.171001 1_555
S0 S8 2.022175 1_555
S0 S24 2.213982 1_555
S1 S9 2.022175 1_555
S1 S25 2.213982 1_545
S2 S26 2.213982 1_555
S10 S2 2.022175 1_555
S10 S18 2.042662 1_555
S11 S3 2.022175 1_555
S11 S19 2.042662 1_555
S12 S4 2.022175 1_555
S12 S20 2.042662 1_555
S13 S5 2.022175 1_555
S13 S21 2.042662 1_555
S14 S6 2.022175 1_555
S14 S22 2.042662 1_555
S15 S7 2.022175 1_555
S15 S23 2.042662 1_555
S16 S8 2.042662 1_555
S16 S32 2.171171 1_655
S17 S9 2.042662 1_555
S17 S33 2.171171 1_555
S18 S34 2.171171 1_555
S19 S35 2.171171 1_655
S20 S36 2.171171 1_455
S21 S37 2.171171 1_555
S22 S38 2.171171 1_555
S23 S39 2.171171 1_455
S27 S3 2.213982 1_545
S28 S4 2.213982 1_555
S29 S5 2.213982 1_545
S30 S6 2.213982 1_555
S31 S7 2.213982 1_565
O0 S24 1.462631 1_556
O1 S25 1.462631 1_545
O2 S26 1.462631 1_555
O3 S27 1.462631 1_564
O4 S28 1.462631 1_554
O5 S29 1.462631 1_565
O6 S30 1.462631 1_555
O7 S31 1.462631 1_546
O8 S24 1.469608 1_555
O9 S25 1.469608 1_555
O10 S26 1.469608 1_555
O11 S27 1.469608 1_555
O12 S28 1.469608 1_555
O13 S29 1.469608 1_555
O14 S30 1.469608 1_555
O15 S31 1.469608 1_555
O16 S24 1.467453 1_555
O17 S25 1.467453 1_555
O18 S26 1.467453 1_555
O19 S27 1.467453 1_555
O20 S28 1.467453 1_555
O21 S29 1.467453 1_555
O22 S30 1.467453 1_555
O23 S31 1.467453 1_555
O24 S32 1.467399 1_555
O25 S33 1.467399 1_555
O26 S34 1.467399 1_555
O27 S35 1.467399 1_555
O28 S36 1.467399 1_555
O29 S37 1.467399 1_555
O30 S38 1.467399 1_555
O31 S39 1.467399 1_555
O32 S32 1.475271 1_555
O33 S33 1.475271 1_555
O34 S34 1.475271 1_555
O35 S35 1.475271 1_555
O36 S36 1.475271 1_555
O37 S37 1.475271 1_555
O38 S38 1.475271 1_555
O39 S39 1.475271 1_555
O40 S32 1.465415 1_655
O41 S33 1.465415 1_555
O42 S34 1.465415 1_555
O43 S35 1.465415 1_655
O44 S36 1.465415 1_455
O45 S37 1.465415 1_555
O46 S38 1.465415 1_555
O47 S39 1.465415 1_455
