# generated using pymatgen
data_LiFe4(BO3)4
_symmetry_space_group_name_H-M   'P 1'
_cell_length_a   5.25785300
_cell_length_b   5.25818243
_cell_length_c   20.16227652
_cell_angle_alpha   89.95562184
_cell_angle_beta   90.19017187
_cell_angle_gamma   119.21702683
_symmetry_Int_Tables_number   1
_chemical_formula_structural   LiFe4(BO3)4
_chemical_formula_sum   'Li2 Fe8 B8 O24'
_cell_volume   486.50172305
_cell_formula_units_Z   2
loop_
 _symmetry_equiv_pos_site_id
 _symmetry_equiv_pos_as_xyz
  1  'x, y, z'
loop_
 _atom_site_type_symbol
 _atom_site_label
 _atom_site_symmetry_multiplicity
 _atom_site_fract_x
 _atom_site_fract_y
 _atom_site_fract_z
 _atom_site_occupancy
  Li  Li0  1  0.66739300  0.64089300  0.33170100  1
  Li  Li1  1  0.64317800  0.66910800  0.07891900  1
  Fe  Fe0  1  0.01550300  0.67580400  0.18889500  1
  Fe  Fe1  1  0.00395000  0.67490800  0.68955600  1
  Fe  Fe2  1  0.31447800  0.01007700  0.06193900  1
  Fe  Fe3  1  0.32815300  0.99728000  0.56554200  1
  Fe  Fe4  1  0.67675100  0.01738600  0.43928900  1
  Fe  Fe5  1  0.67427700  0.00293700  0.93951600  1
  Fe  Fe6  1  0.00694300  0.31489900  0.31274600  1
  Fe  Fe7  1  0.99817400  0.32521800  0.81448800  1
  B  B0  1  0.99598700  0.34120400  0.06383600  1
  B  B1  1  0.99877200  0.33793400  0.56451600  1
  B  B2  1  0.67073400  0.01065000  0.18672200  1
  B  B3  1  0.66438200  0.00494400  0.68878400  1
  B  B4  1  0.33552500  0.99511200  0.31424700  1
  B  B5  1  0.34197600  0.99735900  0.81366600  1
  B  B6  1  0.01030800  0.66952800  0.43829600  1
  B  B7  1  0.00408000  0.66482600  0.93783700  1
  O  O0  1  0.88535600  0.27371400  0.21187400  1
  O  O1  1  0.87459400  0.27069500  0.71559000  1
  O  O2  1  0.74384700  0.09062800  0.04085200  1
  O  O3  1  0.96677000  0.57949400  0.08661900  1
  O  O4  1  0.73199400  0.12338800  0.53808100  1
  O  O5  1  0.01089900  0.59433900  0.58834900  1
  O  O6  1  0.40277000  0.98000200  0.16814100  1
  O  O7  1  0.78624100  0.72625200  0.42816100  1
  O  O8  1  0.40617600  0.98940500  0.66442500  1
  O  O9  1  0.76452300  0.69971500  0.94064700  1
  O  O10  1  0.71918400  0.77878500  0.17870000  1
  O  O11  1  0.70899000  0.77320000  0.68617300  1
  O  O12  1  0.35142400  0.26012100  0.31598300  1
  O  O13  1  0.29438100  0.22765200  0.81579700  1
  O  O14  1  0.25902500  0.35347600  0.06487300  1
  O  O15  1  0.57255100  0.96320800  0.33751000  1
  O  O16  1  0.23203100  0.29504500  0.56622300  1
  O  O17  1  0.59926600  0.01028100  0.83704500  1
  O  O18  1  0.98289700  0.40582000  0.41734400  1
  O  O19  1  0.98256800  0.40260000  0.91454400  1
  O  O20  1  0.27233400  0.87808000  0.46666400  1
  O  O21  1  0.27267900  0.88190200  0.96012000  1
  O  O22  1  0.08342500  0.74541800  0.29112300  1
  O  O23  1  0.12917600  0.73038200  0.78682900  1
loop_
_geom_bond_atom_site_label_1
_geom_bond_atom_site_label_2
_geom_bond_distance
_geom_bond_site_symmetry_2
Li0 O12 1.902466 1_555
Li0 O15 1.990088 1_555
Li0 O7 2.023331 1_555
Li0 O22 2.143319 1_655
Li1 O14 1.907539 1_555
Li1 O3 1.980326 1_555
Li1 O10 2.076330 1_555
Li1 O2 2.153272 1_565
Fe0 O10 1.893182 1_455
Fe0 O6 1.924768 1_555
Fe0 O0 1.934220 1_455
Fe0 O22 2.092493 1_555
Fe0 O3 2.108524 1_455
Fe1 O11 1.859749 1_455
Fe1 O1 1.960856 1_455
Fe1 O8 2.013856 1_555
Fe1 O23 2.042035 1_555
Fe1 O5 2.088458 1_555
Fe2 O14 1.965485 1_555
Fe2 O2 2.128227 1_555
Fe2 O21 2.138104 1_544
Fe2 O3 2.163203 1_445
Fe2 O6 2.211360 1_545
Fe3 O16 1.865372 1_565
Fe3 O4 1.971681 1_565
Fe3 O5 2.009061 1_555
Fe3 O8 2.038602 1_555
Fe3 O20 2.066862 1_555
Fe4 O7 1.893920 1_545
Fe4 O18 1.937062 1_555
Fe4 O20 1.961948 1_545
Fe4 O4 2.049980 1_555
Fe4 O15 2.105585 1_545
Fe5 O9 1.872487 1_545
Fe5 O21 1.931252 1_545
Fe5 O19 1.993886 1_555
Fe5 O2 2.086330 1_556
Fe5 O17 2.105928 1_555
Fe6 O12 1.968822 1_555
Fe6 O0 2.109233 1_455
Fe6 O22 2.141792 1_555
Fe6 O18 2.180478 1_455
Fe6 O15 2.183671 1_445
Fe7 O13 1.862559 1_655
Fe7 O23 1.972892 1_655
Fe7 O17 1.990644 1_555
Fe7 O19 2.068087 1_555
Fe7 O1 2.071446 1_555
B0 O14 1.352782 1_655
B0 O3 1.412025 1_555
B0 O2 1.414184 1_555
B1 O16 1.351267 1_655
B1 O5 1.403410 1_655
B1 O4 1.405497 1_555
B2 O10 1.371588 1_545
B2 O0 1.384696 1_555
B2 O6 1.387912 1_545
B3 O11 1.349757 1_545
B3 O1 1.398498 1_555
B3 O8 1.406533 1_545
B4 O12 1.355101 1_565
B4 O22 1.412810 1_555
B4 O15 1.414697 1_555
B5 O13 1.351586 1_565
B5 O17 1.401050 1_565
B5 O23 1.406820 1_555
B6 O7 1.363823 1_455
B6 O18 1.388295 1_455
B6 O20 1.395915 1_555
B7 O9 1.359931 1_455
B7 O21 1.386386 1_555
B7 O19 1.408167 1_455
