# generated using pymatgen
data_Li2MnSiO4
_symmetry_space_group_name_H-M   'P 1'
_cell_length_a   6.37948322
_cell_length_b   7.49313835
_cell_length_c   7.49248566
_cell_angle_alpha   94.72572319
_cell_angle_beta   90.10868329
_cell_angle_gamma   90.10566189
_symmetry_Int_Tables_number   1
_chemical_formula_structural   Li2MnSiO4
_chemical_formula_sum   'Li8 Mn4 Si4 O16'
_cell_volume   356.93950366
_cell_formula_units_Z   4
loop_
 _symmetry_equiv_pos_site_id
 _symmetry_equiv_pos_as_xyz
  1  'x, y, z'
loop_
 _atom_site_type_symbol
 _atom_site_label
 _atom_site_symmetry_multiplicity
 _atom_site_fract_x
 _atom_site_fract_y
 _atom_site_fract_z
 _atom_site_occupancy
  Li  Li0  1  0.25074900  0.40766800  0.09158100  1
  Li  Li1  1  0.25076700  0.90762300  0.59158100  1
  Li  Li2  1  0.75070900  0.84116000  0.15808300  1
  Li  Li3  1  0.75069600  0.34117300  0.65810500  1
  Li  Li4  1  0.49836000  0.57502500  0.42377600  1
  Li  Li5  1  0.49840300  0.07502400  0.92376500  1
  Li  Li6  1  0.99833800  0.67334900  0.82544600  1
  Li  Li7  1  0.99832500  0.17337100  0.32543400  1
  Mn  Mn0  1  0.24428500  0.33174900  0.66536600  1
  Mn  Mn1  1  0.74437000  0.91492200  0.58223900  1
  Mn  Mn2  1  0.24447200  0.83238200  0.16541000  1
  Mn  Mn3  1  0.74423300  0.41509300  0.08249700  1
  Si  Si0  1  0.99902100  0.08752700  0.91714600  1
  Si  Si1  1  0.99914800  0.58751500  0.41712800  1
  Si  Si2  1  0.49902300  0.66669600  0.83791100  1
  Si  Si3  1  0.49909200  0.16676100  0.33793800  1
  O  O0  1  0.99313000  0.89147600  0.00363300  1
  O  O1  1  0.99312300  0.39146500  0.50362200  1
  O  O2  1  0.49315000  0.25318100  0.14188900  1
  O  O3  1  0.49318400  0.75321600  0.64187500  1
  O  O4  1  0.21371000  0.59939600  0.29362800  1
  O  O5  1  0.21370800  0.09923800  0.79369500  1
  O  O6  1  0.71367700  0.54325000  0.84974000  1
  O  O7  1  0.71366100  0.04326000  0.34968200  1
  O  O8  1  0.28525700  0.54400000  0.86482100  1
  O  O9  1  0.28526600  0.04409900  0.36491400  1
  O  O10  1  0.78524400  0.61452200  0.29450100  1
  O  O11  1  0.78526000  0.11447000  0.79444000  1
  O  O12  1  0.50464600  0.82829600  0.00218500  1
  O  O13  1  0.50460100  0.32827200  0.50219500  1
  O  O14  1  0.00463200  0.25179800  0.07872900  1
  O  O15  1  0.00465400  0.75179600  0.57871800  1
loop_
_geom_bond_atom_site_label_1
_geom_bond_atom_site_label_2
_geom_bond_distance
_geom_bond_site_symmetry_2
Li0 O14 1.952623 1_555
Li0 O2 1.987389 1_555
Li0 O4 2.013884 1_555
Li0 O8 2.065235 1_554
Li1 O15 1.952411 1_555
Li1 O3 1.987085 1_555
Li1 O5 2.013696 1_565
Li1 O9 2.065234 1_565
Li2 O12 1.952365 1_555
Li2 O0 1.987347 1_555
Li2 O7 2.013546 1_565
Li2 O10 2.064889 1_555
Li3 O13 1.952581 1_555
Li3 O1 1.987482 1_555
Li3 O6 2.013580 1_555
Li3 O11 2.064979 1_555
Li4 O13 1.986107 1_555
Li4 O3 2.023617 1_555
Li4 O4 2.075004 1_555
Li4 O10 2.104103 1_555
Li5 O12 1.985931 1_546
Li5 O2 2.023617 1_556
Li5 O5 2.074827 1_555
Li5 O11 2.104063 1_555
Li6 O15 1.985884 1_655
Li6 O0 2.023799 1_556
Li6 O6 2.074909 1_555
Li6 O8 2.104376 1_655
Li7 O14 1.985662 1_655
Li7 O1 2.023617 1_555
Li7 O7 2.074924 1_555
Li7 O9 2.104363 1_655
Mn0 O13 2.062959 1_555
Mn0 O5 2.067222 1_555
Mn0 O1 2.078648 1_455
Mn0 O8 2.106279 1_555
Mn1 O15 2.062595 1_655
Mn1 O7 2.067538 1_565
Mn1 O3 2.078557 1_555
Mn1 O11 2.106393 1_565
Mn2 O12 2.062315 1_555
Mn2 O4 2.070025 1_555
Mn2 O0 2.078452 1_455
Mn2 O9 2.103594 1_565
Mn3 O14 2.063875 1_655
Mn3 O6 2.068043 1_554
Mn3 O2 2.078494 1_555
Mn3 O10 2.104882 1_555
O0 Si0 1.654126 1_564
O1 Si1 1.654162 1_555
O2 Si3 1.653792 1_555
O3 Si2 1.654036 1_555
O4 Si1 1.660022 1_455
O5 Si0 1.660350 1_455
O6 Si2 1.660241 1_555
O7 Si3 1.659964 1_555
O8 Si2 1.665111 1_555
O9 Si3 1.665364 1_555
O10 Si1 1.665573 1_555
O11 Si0 1.665078 1_555
O12 Si2 1.654256 1_554
O13 Si3 1.653708 1_555
O14 Si0 1.654156 1_454
O15 Si1 1.654230 1_455
