# generated using pymatgen
data_Li6MoN4
_symmetry_space_group_name_H-M   'P 1'
_cell_length_a   6.62185174
_cell_length_b   6.62185174
_cell_length_c   4.87099777
_cell_angle_alpha   90.00000000
_cell_angle_beta   90.00000000
_cell_angle_gamma   90.00000000
_symmetry_Int_Tables_number   1
_chemical_formula_structural   Li6MoN4
_chemical_formula_sum   'Li12 Mo2 N8'
_cell_volume   213.58799381
_cell_formula_units_Z   2
loop_
 _symmetry_equiv_pos_site_id
 _symmetry_equiv_pos_as_xyz
  1  'x, y, z'
loop_
 _atom_site_type_symbol
 _atom_site_label
 _atom_site_symmetry_multiplicity
 _atom_site_fract_x
 _atom_site_fract_y
 _atom_site_fract_z
 _atom_site_occupancy
  Li  Li0  1  0.28639796  0.28639796  0.00000000  1
  Li  Li1  1  0.78639796  0.21360204  0.50000000  1
  Li  Li2  1  0.21360204  0.78639796  0.50000000  1
  Li  Li3  1  0.71360204  0.71360204  0.00000000  1
  Li  Li4  1  0.21360204  0.21360204  0.50000000  1
  Li  Li5  1  0.71360204  0.28639796  0.00000000  1
  Li  Li6  1  0.28639796  0.71360204  0.00000000  1
  Li  Li7  1  0.78639796  0.78639796  0.50000000  1
  Li  Li8  1  0.50000000  0.00000000  0.42060275  1
  Li  Li9  1  0.50000000  0.00000000  0.92060275  1
  Li  Li10  1  0.00000000  0.50000000  0.57939725  1
  Li  Li11  1  0.00000000  0.50000000  0.07939725  1
  Mo  Mo0  1  0.00000000  0.00000000  0.00000000  1
  Mo  Mo1  1  0.50000000  0.50000000  0.50000000  1
  N  N0  1  0.50000000  0.25807271  0.69860557  1
  N  N1  1  0.50000000  0.74192729  0.69860557  1
  N  N2  1  0.24192729  0.00000000  0.19860557  1
  N  N3  1  0.75807271  0.00000000  0.19860557  1
  N  N4  1  0.25807271  0.50000000  0.30139443  1
  N  N5  1  0.00000000  0.24192729  0.80139443  1
  N  N6  1  0.00000000  0.75807271  0.80139443  1
  N  N7  1  0.74192729  0.50000000  0.30139443  1
loop_
_geom_bond_atom_site_label_1
_geom_bond_atom_site_label_2
_geom_bond_distance
_geom_bond_site_symmetry_2
Li0 N0 2.047222 1_554
Li0 N4 2.047222 1_555
Li0 N5 2.149244 1_554
Li0 N2 2.149244 1_555
Li1 N3 2.047222 1_555
Li1 N5 2.047222 1_655
Li1 N0 2.149244 1_555
Li1 N7 2.149244 1_555
Li2 N6 2.047222 1_555
Li2 N2 2.047222 1_565
Li2 N4 2.149244 1_555
Li2 N1 2.149244 1_555
Li3 N7 2.047222 1_555
Li3 N1 2.047222 1_554
Li3 N6 2.149244 1_654
Li3 N3 2.149244 1_565
Li4 N5 2.047222 1_555
Li4 N2 2.047222 1_555
Li4 N0 2.149244 1_555
Li4 N4 2.149244 1_555
Li5 N0 2.047222 1_554
Li5 N7 2.047222 1_555
Li5 N5 2.149244 1_654
Li5 N3 2.149244 1_555
Li6 N1 2.047222 1_554
Li6 N4 2.047222 1_555
Li6 N2 2.149244 1_565
Li6 N6 2.149244 1_554
Li7 N6 2.047222 1_655
Li7 N3 2.047222 1_565
Li7 N7 2.149244 1_555
Li7 N1 2.149244 1_555
Li8 N3 2.022305 1_555
Li8 N2 2.022305 1_555
Li8 N1 2.180397 1_545
Li8 N0 2.180397 1_555
Li9 N0 2.022305 1_555
Li9 N1 2.022305 1_545
Li9 N3 2.180397 1_556
Li9 N2 2.180397 1_556
Li10 N5 2.022305 1_555
Li10 N6 2.022305 1_555
Li10 N4 2.180397 1_555
Li10 N7 2.180397 1_455
Li11 N7 2.022305 1_455
Li11 N4 2.022305 1_555
Li11 N6 2.180397 1_554
Li11 N5 2.180397 1_554
Mo0 N2 1.871444 1_555
Mo0 N5 1.871444 1_554
Mo0 N6 1.871444 1_544
Mo0 N3 1.871444 1_455
Mo1 N7 1.871444 1_555
Mo1 N4 1.871444 1_555
Mo1 N1 1.871444 1_555
Mo1 N0 1.871444 1_555
