# generated using pymatgen
data_CaFe5P5O22
_symmetry_space_group_name_H-M   'P 1'
_cell_length_a   6.44283700
_cell_length_b   7.92967652
_cell_length_c   15.82998524
_cell_angle_alpha   95.30288989
_cell_angle_beta   90.31639188
_cell_angle_gamma   100.94362509
_symmetry_Int_Tables_number   1
_chemical_formula_structural   CaFe5P5O22
_chemical_formula_sum   'Ca2 Fe10 P10 O44'
_cell_volume   790.42170907
_cell_formula_units_Z   2
loop_
 _symmetry_equiv_pos_site_id
 _symmetry_equiv_pos_as_xyz
  1  'x, y, z'
loop_
 _atom_site_type_symbol
 _atom_site_label
 _atom_site_symmetry_multiplicity
 _atom_site_fract_x
 _atom_site_fract_y
 _atom_site_fract_z
 _atom_site_occupancy
  Ca  Ca0  1  0.02286100  0.59739400  0.14054700  1
  Ca  Ca1  1  0.97713900  0.40260600  0.85945300  1
  Fe  Fe0  1  0.40307100  0.39851200  0.63136000  1
  Fe  Fe1  1  0.59692900  0.60148800  0.36864000  1
  Fe  Fe2  1  0.03800500  0.20712800  0.48846100  1
  Fe  Fe3  1  0.96199500  0.79287200  0.51153900  1
  Fe  Fe4  1  0.39388300  0.89709800  0.28120000  1
  Fe  Fe5  1  0.60611700  0.10290200  0.71880000  1
  Fe  Fe6  1  0.28679600  0.73058000  0.75762700  1
  Fe  Fe7  1  0.71320400  0.26942000  0.24237300  1
  Fe  Fe8  1  0.28724600  0.23071100  0.00565900  1
  Fe  Fe9  1  0.71275400  0.76928900  0.99434100  1
  P  P0  1  0.08670900  0.05370200  0.67926100  1
  P  P1  1  0.91329100  0.94629800  0.32073900  1
  P  P2  1  0.08413000  0.52363900  0.35955000  1
  P  P3  1  0.91587000  0.47636100  0.64045000  1
  P  P4  1  0.53433800  0.21289300  0.43978400  1
  P  P5  1  0.46566200  0.78710700  0.56021600  1
  P  P6  1  0.79077300  0.19031700  0.04396100  1
  P  P7  1  0.20922700  0.80968300  0.95603900  1
  P  P8  1  0.48741100  0.56193000  0.15248600  1
  P  P9  1  0.51258900  0.43807000  0.84751400  1
  O  O0  1  0.01526800  0.02371500  0.58245100  1
  O  O1  1  0.98473200  0.97628500  0.41754900  1
  O  O2  1  0.92309300  0.62420500  0.40739600  1
  O  O3  1  0.07690700  0.37579500  0.59260400  1
  O  O4  1  0.11683600  0.37291600  0.40713400  1
  O  O5  1  0.88316400  0.62708400  0.59286600  1
  O  O6  1  0.62145200  0.73344400  0.49032400  1
  O  O7  1  0.37854800  0.26655600  0.50967600  1
  O  O8  1  0.30743600  0.18249300  0.68652800  1
  O  O9  1  0.69256400  0.81750700  0.31347200  1
  O  O10  1  0.30533900  0.64391400  0.35335000  1
  O  O11  1  0.69466100  0.35608600  0.64665000  1
  O  O12  1  0.42433400  0.64742800  0.62618400  1
  O  O13  1  0.57566600  0.35257200  0.37381600  1
  O  O14  1  0.92485000  0.13919700  0.73038200  1
  O  O15  1  0.07515000  0.86080300  0.26961800  1
  O  O16  1  0.56588200  0.95911300  0.60792100  1
  O  O17  1  0.43411800  0.04088700  0.39207900  1
  O  O18  1  0.37221100  0.70861600  0.18574000  1
  O  O19  1  0.62778900  0.29138400  0.81426000  1
  O  O20  1  0.51479000  0.91745700  0.78392100  1
  O  O21  1  0.48521000  0.08254300  0.21607900  1
  O  O22  1  0.98160600  0.46796100  0.27130200  1
  O  O23  1  0.01839400  0.53203900  0.72869800  1
  O  O24  1  0.16078600  0.70060600  0.86874700  1
  O  O25  1  0.83921400  0.29939400  0.13125300  1
  O  O26  1  0.56332200  0.47958200  0.23054000  1
  O  O27  1  0.43667800  0.52041800  0.76946000  1
  O  O28  1  0.11678800  0.88450900  0.70959100  1
  O  O29  1  0.88321200  0.11549100  0.29040900  1
  O  O30  1  0.74298200  0.21071500  0.48437800  1
  O  O31  1  0.25701800  0.78928500  0.51562200  1
  O  O32  1  0.58452000  0.22218700  0.00614500  1
  O  O33  1  0.41548000  0.77781300  0.99385500  1
  O  O34  1  0.21251800  0.99984900  0.94376500  1
  O  O35  1  0.78748200  0.00015100  0.05623500  1
  O  O36  1  0.97616300  0.26275700  0.98628500  1
  O  O37  1  0.02383700  0.73724300  0.01371500  1
  O  O38  1  0.21247400  0.09415700  0.11259900  1
  O  O39  1  0.78752600  0.90584300  0.88740100  1
  O  O40  1  0.31611100  0.43580400  0.09663600  1
  O  O41  1  0.68388900  0.56419600  0.90336400  1
  O  O42  1  0.31728000  0.36861000  0.89931500  1
  O  O43  1  0.68272000  0.63139000  0.10068500  1
loop_
_geom_bond_atom_site_label_1
_geom_bond_atom_site_label_2
_geom_bond_distance
_geom_bond_site_symmetry_2
Ca0 O18 2.338299 1_555
Ca0 O43 2.348166 1_455
Ca0 O37 2.381160 1_555
Ca0 O22 2.388205 1_455
Ca0 O25 2.424423 1_455
Ca0 O40 2.542402 1_555
Ca0 O15 2.754518 1_555
Ca1 O19 2.338299 1_555
Ca1 O42 2.348166 1_655
Ca1 O36 2.381160 1_555
Ca1 O23 2.388205 1_655
Ca1 O24 2.424423 1_655
Ca1 O41 2.542402 1_555
Ca1 O14 2.754518 1_555
Fe0 O12 1.961838 1_555
Fe0 O11 1.987752 1_555
Fe0 O8 1.989540 1_555
Fe0 O7 2.095619 1_555
Fe0 O3 2.155555 1_555
Fe0 O27 2.298945 1_555
Fe1 O13 1.961838 1_555
Fe1 O10 1.987752 1_555
Fe1 O9 1.989540 1_555
Fe1 O6 2.095619 1_555
Fe1 O2 2.155555 1_555
Fe1 O26 2.298945 1_555
Fe2 O30 1.907218 1_455
Fe2 O4 1.926190 1_555
Fe2 O3 2.007505 1_555
Fe2 O1 2.026337 1_445
Fe2 O0 2.161477 1_555
Fe2 O7 2.172281 1_555
Fe3 O31 1.907218 1_655
Fe3 O5 1.926190 1_555
Fe3 O2 2.007505 1_555
Fe3 O0 2.026337 1_665
Fe3 O1 2.161477 1_555
Fe3 O6 2.172281 1_555
Fe4 O21 1.878750 1_565
Fe4 O17 1.990190 1_565
Fe4 O18 2.009429 1_555
Fe4 O15 2.023655 1_555
Fe4 O9 2.207333 1_555
Fe4 O10 2.378406 1_555
Fe5 O20 1.878750 1_545
Fe5 O16 1.990190 1_545
Fe5 O19 2.009429 1_555
Fe5 O14 2.023655 1_555
Fe5 O8 2.207333 1_555
Fe5 O11 2.378406 1_555
Fe6 O20 1.892009 1_555
Fe6 O24 1.956931 1_555
Fe6 O28 1.984403 1_555
Fe6 O27 2.100382 1_555
Fe6 O23 2.122029 1_555
Fe6 O12 2.353316 1_555
Fe7 O21 1.892009 1_555
Fe7 O25 1.956931 1_555
Fe7 O29 1.984403 1_555
Fe7 O26 2.100382 1_555
Fe7 O22 2.122029 1_555
Fe7 O13 2.353316 1_555
Fe8 O32 1.929260 1_555
Fe8 O34 1.967662 1_544
Fe8 O40 2.050087 1_555
Fe8 O42 2.081011 1_554
Fe8 O36 2.092050 1_454
Fe8 O38 2.102413 1_555
Fe9 O33 1.929260 1_555
Fe9 O35 1.967662 1_566
Fe9 O41 2.050087 1_555
Fe9 O43 2.081011 1_556
Fe9 O37 2.092050 1_656
Fe9 O39 2.102413 1_555
O0 P0 1.581220 1_555
O1 P1 1.581220 1_555
O2 P2 1.580271 1_655
O3 P3 1.580271 1_455
O4 P2 1.516753 1_555
O5 P3 1.516753 1_555
O6 P5 1.581157 1_555
O7 P4 1.581157 1_555
O8 P0 1.582295 1_555
O9 P1 1.582295 1_555
O10 P2 1.566281 1_555
O11 P3 1.566281 1_555
O12 P5 1.578953 1_555
O13 P4 1.578953 1_555
O14 P0 1.542184 1_655
O15 P1 1.542184 1_455
O16 P5 1.522304 1_555
O17 P4 1.522304 1_555
O18 P8 1.549157 1_555
O19 P9 1.549157 1_555
O22 P2 1.532264 1_655
O23 P3 1.532264 1_455
O24 P7 1.557822 1_555
O25 P6 1.557822 1_555
O26 P8 1.567168 1_555
O27 P9 1.567168 1_555
O28 P0 1.511571 1_565
O29 P1 1.511571 1_545
O30 P4 1.518633 1_555
O31 P5 1.518633 1_555
O32 P6 1.527993 1_555
O33 P7 1.527993 1_555
O34 P7 1.534337 1_555
O35 P6 1.534337 1_555
O36 P6 1.561637 1_556
O37 P7 1.561637 1_554
O40 P8 1.551341 1_555
O41 P9 1.551341 1_555
O42 P9 1.546268 1_555
O43 P8 1.546268 1_555
