# generated using pymatgen
data_Li3V3P8O29
_symmetry_space_group_name_H-M   'P 1'
_cell_length_a   9.75713100
_cell_length_b   9.77158405
_cell_length_c   14.19385496
_cell_angle_alpha   90.06536730
_cell_angle_beta   90.07890060
_cell_angle_gamma   119.87787236
_symmetry_Int_Tables_number   1
_chemical_formula_structural   Li3V3P8O29
_chemical_formula_sum   'Li6 V6 P16 O58'
_cell_volume   1173.41023594
_cell_formula_units_Z   2
loop_
 _symmetry_equiv_pos_site_id
 _symmetry_equiv_pos_as_xyz
  1  'x, y, z'
loop_
 _atom_site_type_symbol
 _atom_site_label
 _atom_site_symmetry_multiplicity
 _atom_site_fract_x
 _atom_site_fract_y
 _atom_site_fract_z
 _atom_site_occupancy
  Li  Li0  1  0.32903500  0.09468400  0.94355000  1
  Li  Li1  1  0.77473000  0.09584600  0.44140400  1
  Li  Li2  1  0.76810900  0.67470900  0.94696300  1
  Li  Li3  1  0.91905300  0.68776200  0.43665400  1
  Li  Li4  1  0.68748300  0.77497000  0.55622000  1
  Li  Li5  1  0.97721200  0.03010500  0.00525600  1
  V  V0  1  0.99666500  0.43241700  0.75334700  1
  V  V1  1  0.00603200  0.56467600  0.24469700  1
  V  V2  1  0.43011800  0.43023200  0.25305900  1
  V  V3  1  0.56065000  0.55761100  0.75105000  1
  V  V4  1  0.43348500  0.99780500  0.74815000  1
  V  V5  1  0.56087200  0.99749400  0.24590100  1
  P  P0  1  0.30918500  0.08659900  0.15877600  1
  P  P1  1  0.31164500  0.22542400  0.65432200  1
  P  P2  1  0.77173300  0.08786900  0.66011200  1
  P  P3  1  0.66552800  0.33326700  0.86965600  1
  P  P4  1  0.67195900  0.33617400  0.36851700  1
  P  P5  1  0.91515000  0.22067400  0.15839100  1
  P  P6  1  0.08523900  0.31261300  0.34211500  1
  P  P7  1  0.77211100  0.68449400  0.15974100  1
  P  P8  1  0.22068800  0.30473200  0.83851000  1
  P  P9  1  0.91103600  0.68025000  0.65521900  1
  P  P10  1  0.08310500  0.77674000  0.83810000  1
  P  P11  1  0.33244900  0.66342600  0.63272400  1
  P  P12  1  0.33626400  0.66438600  0.13100500  1
  P  P13  1  0.22676300  0.91344800  0.34180600  1
  P  P14  1  0.68138400  0.77130300  0.34039100  1
  P  P15  1  0.69110900  0.91218600  0.84182600  1
  O  O0  1  0.23285400  0.99867200  0.42820300  1
  O  O1  1  0.34446800  0.08585100  0.67016500  1
  O  O2  1  0.21460500  0.20994000  0.92188100  1
  O  O3  1  0.34160800  0.25768100  0.17123200  1
  O  O4  1  0.47009600  0.08916400  0.17276400  1
  O  O5  1  0.51137700  0.18550700  0.83240200  1
  O  O6  1  0.61860800  0.09685200  0.67955700  1
  O  O7  1  0.79069300  0.99069400  0.92495700  1
  O  O8  1  0.74007100  0.08825700  0.17095700  1
  O  O9  1  0.52656400  0.34268900  0.32262800  1
  O  O10  1  0.47332900  0.37934700  0.67953800  1
  O  O11  1  0.66660500  0.18330600  0.32884500  1
  O  O12  1  0.66909800  0.34859100  0.97394800  1
  O  O13  1  0.67390500  0.34362900  0.47308000  1
  O  O14  1  0.81105500  0.32911300  0.82504800  1
  O  O15  1  0.61431300  0.53003300  0.17298200  1
  O  O16  1  0.67298200  0.48755600  0.82544000  1
  O  O17  1  0.91397800  0.25593100  0.66735500  1
  O  O18  1  0.00253000  0.20444000  0.25015700  1
  O  O19  1  0.99386900  0.23160200  0.42714700  1
  O  O20  1  0.98790100  0.20041100  0.07270300  1
  O  O21  1  0.92120900  0.38273200  0.16889600  1
  O  O22  1  0.82127300  0.48274700  0.32494000  1
  O  O23  1  0.08570400  0.34429800  0.83393000  1
  O  O24  1  0.90343700  0.52130400  0.67937400  1
  O  O25  1  0.74217000  0.66000900  0.66413000  1
  O  O26  1  0.20034500  0.20607000  0.74375900  1
  O  O27  1  0.24340700  0.23670400  0.56469300  1
  O  O28  1  0.76103600  0.76057800  0.42865800  1
  O  O29  1  0.25739700  0.34385600  0.33641600  1
  O  O30  1  0.09193700  0.47269300  0.32201400  1
  O  O31  1  0.91174400  0.65144700  0.17058800  1
  O  O32  1  0.18397700  0.52312700  0.67860100  1
  O  O33  1  0.08142800  0.61688900  0.82842400  1
  O  O34  1  0.98990700  0.78539500  0.91824600  1
  O  O35  1  0.98366500  0.74537000  0.56277300  1
  O  O36  1  0.01235800  0.79830400  0.73930900  1
  O  O37  1  0.08495400  0.74049300  0.33584500  1
  O  O38  1  0.33306000  0.51726700  0.17613500  1
  O  O39  1  0.38054600  0.46371500  0.82695700  1
  O  O40  1  0.18903100  0.66897900  0.17559000  1
  O  O41  1  0.33688600  0.66927700  0.02697000  1
  O  O42  1  0.34083300  0.67356900  0.52876900  1
  O  O43  1  0.34060400  0.81644200  0.68002000  1
  O  O44  1  0.52162300  0.62002400  0.32352800  1
  O  O45  1  0.48362200  0.66417400  0.67455700  1
  O  O46  1  0.25712700  0.91546700  0.83888900  1
  O  O47  1  0.20081700  0.99145900  0.24599400  1
  O  O48  1  0.23283400  0.01766000  0.06679800  1
  O  O49  1  0.38196400  0.90879400  0.31926000  1
  O  O50  1  0.48528500  0.81460000  0.17581900  1
  O  O51  1  0.53679800  0.91996100  0.82881700  1
  O  O52  1  0.65156800  0.73617700  0.83587500  1
  O  O53  1  0.78721700  0.77067300  0.07037000  1
  O  O54  1  0.79107700  0.79431500  0.25008500  1
  O  O55  1  0.66031500  0.91822000  0.34078000  1
  O  O56  1  0.75608300  0.00280100  0.56928000  1
  O  O57  1  0.78919700  0.98946200  0.74477300  1
loop_
_geom_bond_atom_site_label_1
_geom_bond_atom_site_label_2
_geom_bond_distance
_geom_bond_site_symmetry_2
Li0 O48 1.952300 1_556
Li0 O2 1.965258 1_555
Li0 O46 2.129075 1_545
Li0 O5 2.208989 1_555
Li1 O19 1.883705 1_555
Li1 O56 1.998506 1_555
Li1 O55 2.087632 1_545
Li1 O11 2.300569 1_555
Li2 O34 1.921135 1_555
Li2 O53 1.950237 1_556
Li2 O52 2.194917 1_555
Li2 O16 2.340597 1_555
Li3 O35 1.886757 1_555
Li3 O28 1.997237 1_555
Li3 O37 2.027364 1_655
Li3 O22 2.349931 1_555
Li4 O28 1.979049 1_555
Li4 O56 1.988152 1_565
Li4 O25 2.119311 1_555
Li4 O45 2.411992 1_555
Li5 O20 1.876155 1_555
Li5 O7 2.013545 1_544
Li5 O2 2.410520 1_654
Li5 O53 2.458704 1_545
O0 P13 1.465957 1_555
O1 P1 1.564893 1_555
O1 V4 1.861141 1_545
O2 P8 1.486522 1_555
O3 P0 1.548651 1_555
O3 V2 1.865397 1_555
O4 P0 1.570021 1_555
O4 V5 1.858646 1_545
O5 P3 1.568112 1_555
O5 V4 1.993857 1_545
O6 P2 1.564557 1_555
O6 V4 1.847293 1_545
O7 P15 1.475478 1_555
O8 P5 1.556726 1_555
O8 V5 1.854069 1_545
O9 P4 1.590082 1_555
O9 V2 1.842218 1_555
O10 P1 1.585013 1_555
O10 V3 1.818085 1_555
O11 P4 1.572065 1_555
O11 V5 1.967883 1_545
O12 P3 1.486303 1_555
O13 P4 1.485487 1_555
O14 P3 1.574347 1_555
O14 V0 1.876317 1_555
O15 P7 1.539518 1_555
O15 V2 1.932575 1_555
O16 P3 1.601626 1_555
O16 V3 1.879035 1_555
O17 P2 1.536930 1_555
O17 V0 1.928993 1_555
O18 P5 1.606472 1_455
O18 P6 1.617491 1_555
O19 P6 1.476530 1_655
O20 P5 1.471117 1_555
O21 P5 1.561911 1_555
O21 V1 1.878990 1_655
O22 P4 1.575438 1_555
O22 V1 1.938502 1_655
O23 P8 1.547735 1_555
O23 V0 1.883940 1_455
O24 P9 1.556241 1_555
O24 V0 1.863030 1_555
O25 P9 1.563909 1_555
O25 V3 1.975687 1_555
O26 P8 1.607239 1_555
O26 P1 1.620598 1_555
O27 P1 1.464581 1_555
O28 P14 1.504453 1_555
O29 P6 1.552698 1_555
O29 V2 1.882277 1_555
O30 P6 1.559399 1_555
O30 V1 1.861475 1_555
O31 P7 1.556287 1_555
O31 V1 1.856957 1_655
O32 P11 1.558226 1_555
O32 V0 1.909181 1_455
O33 P10 1.559810 1_555
O33 V0 1.891233 1_455
O34 P10 1.485733 1_655
O35 P9 1.477861 1_555
O36 P9 1.609366 1_455
O36 P10 1.621745 1_555
O37 P13 1.564434 1_555
O37 V1 1.972922 1_555
O38 P12 1.560557 1_555
O38 V2 1.901040 1_555
O39 P8 1.568525 1_555
O39 V3 1.868643 1_555
O40 P12 1.591510 1_555
O40 V1 1.839319 1_555
O41 P12 1.477408 1_555
O42 P11 1.478604 1_555
O43 P11 1.603643 1_555
O43 V4 1.814025 1_555
O44 P14 1.541021 1_555
O44 V2 1.892256 1_555
O45 P11 1.585914 1_555
O45 V3 1.899474 1_555
O46 P10 1.558037 1_555
O46 V4 1.973881 1_555
O47 P0 1.594273 1_565
O47 P13 1.639604 1_555
O48 P0 1.486098 1_555
O49 P13 1.570842 1_555
O49 V5 1.839104 1_555
O50 P12 1.594443 1_555
O50 V5 1.846107 1_555
O51 P15 1.555644 1_555
O51 V4 1.915323 1_555
O52 P15 1.566039 1_555
O52 V3 1.931640 1_555
O53 P7 1.489731 1_555
O54 P14 1.613606 1_555
O54 P7 1.621285 1_555
O55 P14 1.548318 1_555
O55 V5 2.025514 1_555
O56 P2 1.499008 1_555
O57 P2 1.600943 1_565
O57 P15 1.633953 1_555
