# generated using pymatgen
data_NpTe
_symmetry_space_group_name_H-M   'P 1'
_cell_length_a   4.43940782
_cell_length_b   4.43940754
_cell_length_c   4.43940891
_cell_angle_alpha   59.99999796
_cell_angle_beta   60.00000008
_cell_angle_gamma   59.99998372
_symmetry_Int_Tables_number   1
_chemical_formula_structural   NpTe
_chemical_formula_sum   'Np1 Te1'
_cell_volume   61.86715556
_cell_formula_units_Z   1
loop_
 _symmetry_equiv_pos_site_id
 _symmetry_equiv_pos_as_xyz
  1  'x, y, z'
loop_
 _atom_site_type_symbol
 _atom_site_label
 _atom_site_symmetry_multiplicity
 _atom_site_fract_x
 _atom_site_fract_y
 _atom_site_fract_z
 _atom_site_occupancy
  Np  Np0  1  0.00000000  -0.00000000  0.00000000  1
  Te  Te0  1  0.50000000  0.50000000  0.50000000  1
loop_
_geom_bond_atom_site_label_1
_geom_bond_atom_site_label_2
_geom_bond_distance
_geom_bond_site_symmetry_2
Np0 Te0 3.139135 1_454
Np0 Te0 3.139135 1_545
Np0 Te0 3.139135 1_544
Np0 Te0 3.139135 1_455
Np0 Te0 3.139136 1_445
Np0 Te0 3.139136 1_554
