# generated using pymatgen
data_LuSbPd2
_symmetry_space_group_name_H-M   'P 1'
_cell_length_a   4.72735625
_cell_length_b   4.72735625
_cell_length_c   4.72735625
_cell_angle_alpha   60.00000000
_cell_angle_beta   60.00000000
_cell_angle_gamma   60.00000000
_symmetry_Int_Tables_number   1
_chemical_formula_structural   LuSbPd2
_chemical_formula_sum   'Lu1 Sb1 Pd2'
_cell_volume   74.70333602
_cell_formula_units_Z   1
loop_
 _symmetry_equiv_pos_site_id
 _symmetry_equiv_pos_as_xyz
  1  'x, y, z'
loop_
 _atom_site_type_symbol
 _atom_site_label
 _atom_site_symmetry_multiplicity
 _atom_site_fract_x
 _atom_site_fract_y
 _atom_site_fract_z
 _atom_site_occupancy
  Lu  Lu0  1  0.25000100  0.25000100  0.25000100  1
  Sb  Sb0  1  0.75000000  0.75000000  0.75000000  1
  Pd  Pd0  1  -0.00000000  0.00000000  0.00000000  1
  Pd  Pd1  1  0.50000000  0.50000000  0.50000000  1
loop_
_geom_bond_atom_site_label_1
_geom_bond_atom_site_label_2
_geom_bond_distance
_geom_bond_site_symmetry_2
Lu0 Pd1 2.894891 1_555
Lu0 Pd0 2.894899 1_655
Lu0 Pd0 2.894899 1_556
Lu0 Pd0 2.894899 1_565
Lu0 Pd1 2.894907 1_545
Lu0 Pd1 2.894907 1_554
Lu0 Pd1 2.894907 1_455
Lu0 Pd0 2.894914 1_555
Lu0 Sb0 3.342739 1_455
Lu0 Sb0 3.342739 1_545
Lu0 Sb0 3.342739 1_554
Lu0 Sb0 3.342752 1_454
Lu0 Sb0 3.342752 1_544
Lu0 Sb0 3.342752 1_445
Pd0 Sb0 2.894903 1_544
Pd0 Sb0 2.894903 1_445
Pd0 Sb0 2.894903 1_454
Pd0 Sb0 2.894903 1_444
Pd1 Sb0 2.894903 1_455
Pd1 Sb0 2.894903 1_554
Pd1 Sb0 2.894903 1_545
Pd1 Sb0 2.894903 1_555
