# generated using pymatgen
data_PaNi2Sn
_symmetry_space_group_name_H-M   'P 1'
_cell_length_a   4.60443865
_cell_length_b   4.60437958
_cell_length_c   4.60099112
_cell_angle_alpha   59.91085730
_cell_angle_beta   59.90924532
_cell_angle_gamma   59.94295464
_symmetry_Int_Tables_number   1
_chemical_formula_structural   PaNi2Sn
_chemical_formula_sum   'Pa1 Ni2 Sn1'
_cell_volume   68.85022105
_cell_formula_units_Z   1
loop_
 _symmetry_equiv_pos_site_id
 _symmetry_equiv_pos_as_xyz
  1  'x, y, z'
loop_
 _atom_site_type_symbol
 _atom_site_label
 _atom_site_symmetry_multiplicity
 _atom_site_fract_x
 _atom_site_fract_y
 _atom_site_fract_z
 _atom_site_occupancy
  Pa  Pa0  1  0.24996565  0.24997913  0.25002318  1
  Ni  Ni0  1  0.00084875  0.00192892  0.00322073  1
  Ni  Ni1  1  0.49922085  0.49812351  0.49672895  1
  Sn  Sn0  1  0.74996574  0.74997144  0.75003014  1
loop_
_geom_bond_atom_site_label_1
_geom_bond_atom_site_label_2
_geom_bond_distance
_geom_bond_site_symmetry_2
Pa0 Sn0 3.252765 1_554
Pa0 Sn0 3.252815 1_445
Pa0 Sn0 3.253144 1_455
Pa0 Sn0 3.253149 1_544
Pa0 Sn0 3.253224 1_454
Pa0 Sn0 3.253270 1_545
Ni0 Pa0 2.797926 1_555
Ni0 Sn0 2.802172 1_445
Ni0 Sn0 2.809831 1_454
Ni0 Sn0 2.813864 1_544
Ni0 Pa0 2.820557 1_455
Ni0 Pa0 2.824565 1_545
Ni0 Pa0 2.826180 1_554
Ni0 Sn0 2.843280 1_444
Ni1 Pa0 2.798438 1_555
Ni1 Sn0 2.801753 1_554
Ni1 Sn0 2.810240 1_545
Ni1 Sn0 2.814380 1_455
Ni1 Pa0 2.820035 1_655
Ni1 Pa0 2.824209 1_565
Ni1 Pa0 2.826537 1_556
Ni1 Sn0 2.842766 1_555
