# generated using pymatgen
data_Th2Fe17
_symmetry_space_group_name_H-M   'P 1'
_cell_length_a   6.49395115
_cell_length_b   6.49389812
_cell_length_c   6.49439585
_cell_angle_alpha   82.36023423
_cell_angle_beta   82.36043079
_cell_angle_gamma   82.35886067
_symmetry_Int_Tables_number   1
_chemical_formula_structural   Th2Fe17
_chemical_formula_sum   'Th2 Fe17'
_cell_volume   267.17567494
_cell_formula_units_Z   1
loop_
 _symmetry_equiv_pos_site_id
 _symmetry_equiv_pos_as_xyz
  1  'x, y, z'
loop_
 _atom_site_type_symbol
 _atom_site_label
 _atom_site_symmetry_multiplicity
 _atom_site_fract_x
 _atom_site_fract_y
 _atom_site_fract_z
 _atom_site_occupancy
  Th  Th0  1  0.33797443  0.33797822  0.33805201  1
  Th  Th1  1  0.66202557  0.66202178  0.66194799  1
  Fe  Fe0  1  0.09413971  0.09414075  0.09420049  1
  Fe  Fe1  1  0.90586029  0.90585925  0.90579951  1
  Fe  Fe2  1  0.00000000  0.00000000  0.50000000  1
  Fe  Fe3  1  0.50000000  0.00000000  0.00000000  1
  Fe  Fe4  1  0.00000000  0.50000000  0.00000000  1
  Fe  Fe5  1  0.29178317  0.70822272  -0.00000168  1
  Fe  Fe6  1  0.00000077  0.29173761  0.70818964  1
  Fe  Fe7  1  0.70825785  -0.00000071  0.29180943  1
  Fe  Fe8  1  0.70821683  0.29177728  0.00000168  1
  Fe  Fe9  1  -0.00000077  0.70826239  0.29181036  1
  Fe  Fe10  1  0.29174215  0.00000071  0.70819057  1
  Fe  Fe11  1  0.66132906  0.15694912  0.66122237  1
  Fe  Fe12  1  0.66127523  0.66128092  0.15696786  1
  Fe  Fe13  1  0.15695170  0.66133472  0.66122142  1
  Fe  Fe14  1  0.84304830  0.33866528  0.33877858  1
  Fe  Fe15  1  0.33867094  0.84305088  0.33877763  1
  Fe  Fe16  1  0.33872477  0.33871908  0.84303214  1
loop_
_geom_bond_atom_site_label_1
_geom_bond_atom_site_label_2
_geom_bond_distance
_geom_bond_site_symmetry_2
Fe0 Fe1 2.383287 1_444
Fe0 Fe2 2.633545 1_555
Fe0 Fe4 2.633756 1_555
Fe0 Fe3 2.633785 1_555
Fe0 Fe14 2.645121 1_455
Fe0 Fe15 2.645134 1_545
Fe0 Fe16 2.645617 1_554
Fe0 Fe9 2.764738 1_545
Fe0 Fe7 2.764777 1_455
Fe0 Fe5 2.765087 1_545
Fe0 Fe8 2.765106 1_455
Fe0 Fe6 2.765575 1_554
Fe0 Fe10 2.765591 1_554
Fe0 Th0 3.085927 1_555
Fe1 Fe2 2.633545 1_665
Fe1 Fe4 2.633756 1_656
Fe1 Fe3 2.633785 1_566
Fe1 Fe13 2.645121 1_655
Fe1 Fe11 2.645134 1_565
Fe1 Fe12 2.645617 1_556
Fe1 Fe6 2.764738 1_665
Fe1 Fe10 2.764777 1_665
Fe1 Fe8 2.765087 1_566
Fe1 Fe5 2.765106 1_656
Fe1 Fe9 2.765575 1_656
Fe1 Fe7 2.765591 1_566
Fe1 Th1 3.085927 1_555
Fe2 Fe9 2.469483 1_545
Fe2 Fe6 2.469483 1_555
Fe2 Fe7 2.469521 1_455
Fe2 Th1 3.285412 1_445
Fe2 Th0 3.285412 1_555
Fe3 Fe8 2.469780 1_555
Fe3 Fe5 2.469780 1_545
Fe3 Fe7 2.470219 1_555
Fe3 Th1 3.285889 1_544
Fe3 Th0 3.285889 1_555
Fe4 Fe8 2.469839 1_455
Fe4 Fe5 2.469839 1_555
Fe4 Fe6 2.470240 1_554
Fe4 Fe9 2.470240 1_555
Fe4 Th1 3.285873 1_454
Fe4 Th0 3.285873 1_555
Fe5 Fe9 2.495431 1_555
Fe5 Th0 3.044764 1_555
Fe5 Th1 3.044766 1_554
Fe6 Fe8 2.495431 1_456
Fe6 Th0 3.044041 1_555
Fe6 Th1 3.044519 1_455
Fe7 Fe9 2.494793 1_645
Fe7 Fe8 2.495372 1_555
Fe7 Th1 3.044040 1_545
Fe7 Th0 3.044535 1_555
Fe8 Th1 3.044764 1_554
Fe8 Th0 3.044766 1_555
Fe9 Th1 3.044041 1_455
Fe9 Th0 3.044519 1_555
Fe10 Fe2 2.469521 1_555
Fe10 Fe3 2.470219 1_556
Fe10 Fe6 2.494793 1_555
Fe10 Fe5 2.495372 1_546
Fe10 Fe13 2.541122 1_545
Fe10 Fe16 2.541631 1_555
Fe10 Fe15 2.694546 1_545
Fe10 Fe11 2.695445 1_555
Fe10 Th0 3.044040 1_555
Fe10 Th1 3.044535 1_545
Fe11 Fe2 2.459153 1_655
Fe11 Fe3 2.460070 1_556
Fe11 Fe14 2.495295 1_555
Fe11 Fe16 2.496332 1_555
Fe11 Fe6 2.541160 1_655
Fe11 Fe8 2.541903 1_556
Fe11 Fe7 2.694546 1_555
Fe11 Th0 3.171055 1_555
Fe11 Th1 3.212787 1_545
Fe11 Th1 3.281125 1_555
Fe12 Fe3 2.459547 1_565
Fe12 Fe4 2.459604 1_655
Fe12 Fe15 2.496332 1_555
Fe12 Fe14 2.496382 1_555
Fe12 Fe7 2.541631 1_565
Fe12 Fe9 2.541679 1_655
Fe12 Fe5 2.694957 1_555
Fe12 Fe8 2.695001 1_555
Fe12 Th0 3.171445 1_555
Fe12 Th1 3.213576 1_554
Fe12 Th1 3.280836 1_555
Fe13 Fe2 2.459112 1_565
Fe13 Fe4 2.460093 1_556
Fe13 Fe15 2.495295 1_555
Fe13 Fe16 2.496382 1_555
Fe13 Fe5 2.541901 1_556
Fe13 Fe9 2.694544 1_555
Fe13 Fe6 2.695499 1_555
Fe13 Th0 3.171048 1_555
Fe13 Th1 3.212813 1_455
Fe13 Th1 3.281153 1_555
Fe14 Fe2 2.459112 1_655
Fe14 Fe4 2.460093 1_655
Fe14 Fe7 2.541122 1_555
Fe14 Fe8 2.541901 1_555
Fe14 Fe6 2.694544 1_655
Fe14 Fe9 2.695499 1_655
Fe14 Th1 3.171048 1_555
Fe14 Th0 3.212813 1_655
Fe14 Th0 3.281153 1_555
Fe15 Fe2 2.459153 1_565
Fe15 Fe3 2.460070 1_565
Fe15 Fe9 2.541160 1_555
Fe15 Fe5 2.541903 1_555
Fe15 Fe7 2.695445 1_565
Fe15 Th1 3.171055 1_555
Fe15 Th0 3.212787 1_565
Fe15 Th0 3.281125 1_555
Fe16 Fe3 2.459547 1_556
Fe16 Fe4 2.459604 1_556
Fe16 Fe6 2.541679 1_555
Fe16 Fe8 2.694957 1_556
Fe16 Fe5 2.695001 1_556
Fe16 Th1 3.171445 1_555
Fe16 Th0 3.213576 1_556
Fe16 Th0 3.280836 1_555
