# generated using pymatgen
data_Li4Co2OF7
_symmetry_space_group_name_H-M   'P 1'
_cell_length_a   5.96949964
_cell_length_b   5.98928758
_cell_length_c   8.38729347
_cell_angle_alpha   90.71986439
_cell_angle_beta   90.45472752
_cell_angle_gamma   90.89980195
_symmetry_Int_Tables_number   1
_chemical_formula_structural   Li4Co2OF7
_chemical_formula_sum   'Li8 Co4 O2 F14'
_cell_volume   299.80075893
_cell_formula_units_Z   2
loop_
 _symmetry_equiv_pos_site_id
 _symmetry_equiv_pos_as_xyz
  1  'x, y, z'
loop_
 _atom_site_type_symbol
 _atom_site_label
 _atom_site_symmetry_multiplicity
 _atom_site_fract_x
 _atom_site_fract_y
 _atom_site_fract_z
 _atom_site_occupancy
  Li  Li0  1  0.99458900  0.99869500  0.00344100  1
  Li  Li1  1  0.49456600  0.49864900  0.50335000  1
  Li  Li2  1  0.51514400  0.99501200  0.24487800  1
  Li  Li3  1  0.01521100  0.49498600  0.74490800  1
  Li  Li4  1  0.74789400  0.99747700  0.62724800  1
  Li  Li5  1  0.24799300  0.49739600  0.12727200  1
  Li  Li6  1  0.99980000  0.25603100  0.37209300  1
  Li  Li7  1  0.49971000  0.75610400  0.87216300  1
  Co  Co0  1  0.50605900  0.25598700  0.89370000  1
  Co  Co1  1  0.73161600  0.48155400  0.11899600  1
  Co  Co2  1  0.00609800  0.75599800  0.39345600  1
  Co  Co3  1  0.23162700  0.98151500  0.61895100  1
  O  O0  1  0.00465400  0.76348100  0.61594700  1
  O  O1  1  0.50444800  0.26333300  0.11586800  1
  F  F0  1  0.24508300  0.00814600  0.37330500  1
  F  F1  1  0.74484000  0.50781700  0.87351600  1
  F  F2  1  0.26154500  0.00136700  0.86876200  1
  F  F3  1  0.76135100  0.50118800  0.36862300  1
  F  F4  1  0.48265300  0.22777100  0.64476500  1
  F  F5  1  0.98277100  0.72786900  0.14476000  1
  F  F6  1  0.49201100  0.77275300  0.62739700  1
  F  F7  1  0.99199800  0.27272000  0.12719700  1
  F  F8  1  0.73247900  0.01304400  0.86759500  1
  F  F9  1  0.23236000  0.51309500  0.36756900  1
  F  F10  1  0.77666900  0.99775200  0.37932800  1
  F  F11  1  0.27664800  0.49786400  0.87931400  1
  F  F12  1  0.01010000  0.23120100  0.61288100  1
  F  F13  1  0.51008500  0.73119500  0.11271600  1
loop_
_geom_bond_atom_site_label_1
_geom_bond_atom_site_label_2
_geom_bond_distance
_geom_bond_site_symmetry_2
Li2 O1 1.950213 1_565
Li3 O0 1.950814 1_555
Li4 O0 2.094944 1_655
Li5 O1 2.093903 1_555
Co0 O1 1.863460 1_556
Co0 F8 2.012572 1_555
Co0 F11 2.013139 1_555
Co0 F1 2.068350 1_555
Co0 F4 2.095980 1_555
Co0 F2 2.101687 1_555
Co1 O1 1.868359 1_555
Co1 F7 2.011636 1_555
Co1 F13 2.012488 1_555
Co1 F1 2.068918 1_554
Co1 F5 2.094815 1_555
Co1 F3 2.101464 1_555
Co2 O0 1.866164 1_555
Co2 F9 2.011561 1_555
Co2 F10 2.012539 1_455
Co2 F0 2.070519 1_565
Co2 F5 2.093924 1_455
Co2 F3 2.103373 1_455
Co3 O0 1.866757 1_555
Co3 F6 2.011447 1_555
Co3 F12 2.012622 1_565
Co3 F0 2.070563 1_565
Co3 F4 2.094066 1_565
Co3 F2 2.103138 1_565
F0 Li2 1.948032 1_545
F0 Li6 2.101583 1_455
F1 Li3 1.950338 1_655
F1 Li7 2.102676 1_555
F2 Li0 1.960613 1_446
F2 Li7 2.060567 1_545
F3 Li1 1.960011 1_555
F3 Li6 2.061307 1_555
F4 Li1 2.022376 1_555
F4 Li4 2.120909 1_545
F5 Li0 2.021628 1_555
F5 Li5 2.121516 1_655
F6 Li1 1.932864 1_555
F6 Li4 2.019971 1_555
F6 Li7 2.056780 1_555
F7 Li0 1.931183 1_545
F7 Li5 2.020255 1_655
F7 Li6 2.057893 1_555
F8 Li0 1.931874 1_546
F8 Li4 2.019739 1_545
F8 Li7 2.058048 1_545
F9 Li1 1.932056 1_555
F9 Li5 2.019419 1_555
F9 Li6 2.057756 1_455
F10 Li2 1.918323 1_555
F10 Li6 2.027240 1_565
F10 Li4 2.087838 1_555
F11 Li3 1.917674 1_555
F11 Li7 2.026767 1_555
F11 Li5 2.088105 1_556
F12 Li3 1.917597 1_555
F12 Li6 2.027407 1_455
F12 Li4 2.088650 1_445
F13 Li2 1.918396 1_555
F13 Li7 2.025494 1_554
F13 Li5 2.088558 1_555
