# generated using pymatgen
data_Nd2ReC2
_symmetry_space_group_name_H-M   'P 1'
_cell_length_a   5.36131177
_cell_length_b   6.70206639
_cell_length_c   10.21542935
_cell_angle_alpha   90.00000000
_cell_angle_beta   90.00000000
_cell_angle_gamma   90.00000000
_symmetry_Int_Tables_number   1
_chemical_formula_structural   Nd2ReC2
_chemical_formula_sum   'Nd8 Re4 C8'
_cell_volume   367.05945304
_cell_formula_units_Z   4
loop_
 _symmetry_equiv_pos_site_id
 _symmetry_equiv_pos_as_xyz
  1  'x, y, z'
loop_
 _atom_site_type_symbol
 _atom_site_label
 _atom_site_symmetry_multiplicity
 _atom_site_fract_x
 _atom_site_fract_y
 _atom_site_fract_z
 _atom_site_occupancy
  Nd  Nd0  1  0.25000000  0.47331071  0.78704307  1
  Nd  Nd1  1  0.75000000  0.02668929  0.28704307  1
  Nd  Nd2  1  0.25000000  0.97331071  0.71295693  1
  Nd  Nd3  1  0.75000000  0.52668929  0.21295693  1
  Nd  Nd4  1  0.25000000  0.81151793  0.05075041  1
  Nd  Nd5  1  0.75000000  0.68848207  0.55075041  1
  Nd  Nd6  1  0.25000000  0.31151793  0.44924959  1
  Nd  Nd7  1  0.75000000  0.18848207  0.94924959  1
  Re  Re0  1  0.25000000  0.26961427  0.14278155  1
  Re  Re1  1  0.75000000  0.23038573  0.64278155  1
  Re  Re2  1  0.25000000  0.76961427  0.35721845  1
  Re  Re3  1  0.75000000  0.73038573  0.85721845  1
  C  C0  1  0.25000000  0.68841207  0.53600115  1
  C  C1  1  0.75000000  0.81158793  0.03600115  1
  C  C2  1  0.25000000  0.18841207  0.96399885  1
  C  C3  1  0.75000000  0.31158793  0.46399885  1
  C  C4  1  0.25000000  0.03393298  0.25802965  1
  C  C5  1  0.75000000  0.46606702  0.75802965  1
  C  C6  1  0.25000000  0.53393298  0.24197035  1
  C  C7  1  0.75000000  0.96606702  0.74197035  1
loop_
_geom_bond_atom_site_label_1
_geom_bond_atom_site_label_2
_geom_bond_distance
_geom_bond_site_symmetry_2
C0 Re2 1.905703 1_555
C0 Nd2 2.629363 1_555
C0 Nd6 2.676916 1_555
C0 Nd5 2.684887 1_555
C0 Nd5 2.684887 1_455
C0 Nd0 2.941929 1_555
C1 Re3 1.905703 1_554
C1 Nd3 2.629363 1_555
C1 Nd7 2.676916 1_564
C1 Nd4 2.684887 1_555
C1 Nd4 2.684887 1_655
C1 Nd1 2.941929 1_565
C2 Re0 1.905703 1_556
C2 Nd0 2.629363 1_555
C2 Nd4 2.676916 1_546
C2 Nd7 2.684887 1_455
C2 Nd7 2.684887 1_555
C2 Nd2 2.941929 1_545
C3 Re1 1.905703 1_555
C3 Nd1 2.629363 1_555
C3 Nd5 2.676916 1_555
C3 Nd6 2.684887 1_655
C3 Nd6 2.684887 1_555
C3 Nd3 2.941929 1_555
C4 Re0 1.970035 1_555
C4 Re2 2.040793 1_545
C4 Nd4 2.589515 1_545
C4 Nd1 2.697428 1_455
C4 Nd1 2.697428 1_555
C4 Nd6 2.697556 1_555
C5 Re1 1.970035 1_555
C5 Re3 2.040793 1_555
C5 Nd5 2.589515 1_555
C5 Nd0 2.697428 1_555
C5 Nd0 2.697428 1_655
C5 Nd7 2.697556 1_555
C6 Re2 1.970035 1_555
C6 Re0 2.040793 1_555
C6 Nd6 2.589515 1_555
C6 Nd3 2.697428 1_455
C6 Nd3 2.697428 1_555
C6 Nd4 2.697556 1_555
C7 Re3 1.970035 1_555
C7 Re1 2.040793 1_565
C7 Nd7 2.589515 1_565
C7 Nd2 2.697428 1_555
C7 Nd2 2.697428 1_655
C7 Nd5 2.697556 1_555
