# generated using pymatgen
data_HfCdCu2
_symmetry_space_group_name_H-M   'P 1'
_cell_length_a   4.49716519
_cell_length_b   4.49716519
_cell_length_c   4.49716519
_cell_angle_alpha   60.00000000
_cell_angle_beta   60.00000000
_cell_angle_gamma   60.00000000
_symmetry_Int_Tables_number   1
_chemical_formula_structural   HfCdCu2
_chemical_formula_sum   'Hf1 Cd1 Cu2'
_cell_volume   64.31340783
_cell_formula_units_Z   1
loop_
 _symmetry_equiv_pos_site_id
 _symmetry_equiv_pos_as_xyz
  1  'x, y, z'
loop_
 _atom_site_type_symbol
 _atom_site_label
 _atom_site_symmetry_multiplicity
 _atom_site_fract_x
 _atom_site_fract_y
 _atom_site_fract_z
 _atom_site_occupancy
  Hf  Hf0  1  0.00000000  0.00000000  0.00000000  1
  Cd  Cd0  1  0.50000000  0.50000000  0.50000000  1
  Cu  Cu0  1  0.75000000  0.75000000  0.75000000  1
  Cu  Cu1  1  0.25000000  0.25000000  0.25000000  1
loop_
_geom_bond_atom_site_label_1
_geom_bond_atom_site_label_2
_geom_bond_distance
_geom_bond_site_symmetry_2
Cd0 Cu0 2.753940 1_455
Cd0 Cu0 2.753940 1_554
Cd0 Cu1 2.753940 1_565
Cd0 Cu1 2.753940 1_556
Cd0 Cu0 2.753940 1_545
Cd0 Cu1 2.753940 1_655
Cd0 Cu0 2.753940 1_555
Cd0 Cu1 2.753940 1_555
Cu0 Hf0 2.753940 1_656
Cu0 Hf0 2.753940 1_566
Cu0 Hf0 2.753940 1_665
Cu0 Hf0 2.753940 1_666
Cu1 Hf0 2.753940 1_555
Cu1 Hf0 2.753940 1_556
Cu1 Hf0 2.753940 1_655
Cu1 Hf0 2.753940 1_565
