# generated using pymatgen
data_LiMn4(PO4)3
_symmetry_space_group_name_H-M   'P 1'
_cell_length_a   9.00377823
_cell_length_b   9.00377823
_cell_length_c   6.73154113
_cell_angle_alpha   72.87411691
_cell_angle_beta   72.87411691
_cell_angle_gamma   94.64647680
_symmetry_Int_Tables_number   1
_chemical_formula_structural   LiMn4(PO4)3
_chemical_formula_sum   'Li2 Mn8 P6 O24'
_cell_volume   489.91548527
_cell_formula_units_Z   2
loop_
 _symmetry_equiv_pos_site_id
 _symmetry_equiv_pos_as_xyz
  1  'x, y, z'
loop_
 _atom_site_type_symbol
 _atom_site_label
 _atom_site_symmetry_multiplicity
 _atom_site_fract_x
 _atom_site_fract_y
 _atom_site_fract_z
 _atom_site_occupancy
  Li  Li0  1  0.99914500  0.00085500  0.75000000  1
  Li  Li1  1  0.00085500  0.99914500  0.25000000  1
  Mn  Mn0  1  0.93924300  0.63115000  0.62836000  1
  Mn  Mn1  1  0.63115000  0.93924300  0.12836000  1
  Mn  Mn2  1  0.50251400  0.49748600  0.75000000  1
  Mn  Mn3  1  0.26125200  0.73874800  0.75000000  1
  Mn  Mn4  1  0.49748600  0.50251400  0.25000000  1
  Mn  Mn5  1  0.73874800  0.26125200  0.25000000  1
  Mn  Mn6  1  0.36885000  0.06075700  0.87164000  1
  Mn  Mn7  1  0.06075700  0.36885000  0.37164000  1
  P  P0  1  0.66609700  0.88598600  0.62062500  1
  P  P1  1  0.88598600  0.66609700  0.12062500  1
  P  P2  1  0.71152200  0.28847800  0.75000000  1
  P  P3  1  0.28847800  0.71152200  0.25000000  1
  P  P4  1  0.11401400  0.33390300  0.87937500  1
  P  P5  1  0.33390300  0.11401400  0.37937500  1
  O  O0  1  0.83421600  0.84616800  0.59967200  1
  O  O1  1  0.60510200  0.95481000  0.80695100  1
  O  O2  1  0.84616800  0.83421600  0.09967200  1
  O  O3  1  0.95481000  0.60510200  0.30695100  1
  O  O4  1  0.31932800  0.99303600  0.60783000  1
  O  O5  1  0.73061800  0.46285800  0.75415800  1
  O  O6  1  0.53786400  0.73673400  0.66839700  1
  O  O7  1  0.73692800  0.18363400  0.95969300  1
  O  O8  1  0.81636600  0.26307200  0.54030700  1
  O  O9  1  0.99303600  0.31932800  0.10783000  1
  O  O10  1  0.46285800  0.73061800  0.25415800  1
  O  O11  1  0.73673400  0.53786400  0.16839700  1
  O  O12  1  0.26326600  0.46213600  0.83160300  1
  O  O13  1  0.53714200  0.26938200  0.74584200  1
  O  O14  1  0.00696300  0.68067200  0.89217000  1
  O  O15  1  0.18363400  0.73692800  0.45969300  1
  O  O16  1  0.26307200  0.81636600  0.04030700  1
  O  O17  1  0.46213600  0.26326600  0.33160300  1
  O  O18  1  0.26938200  0.53714200  0.24584200  1
  O  O19  1  0.68067200  0.00696400  0.39217000  1
  O  O20  1  0.04519000  0.39489800  0.69304900  1
  O  O21  1  0.15383200  0.16578400  0.90032800  1
  O  O22  1  0.39489800  0.04519000  0.19304900  1
  O  O23  1  0.16578400  0.15383200  0.40032800  1
loop_
_geom_bond_atom_site_label_1
_geom_bond_atom_site_label_2
_geom_bond_distance
_geom_bond_site_symmetry_2
Li0 O2 2.316170 1_546
Li0 O23 2.316170 1_655
Li0 O21 2.559098 1_655
Li0 O0 2.559098 1_545
Li1 O0 2.316170 1_455
Li1 O21 2.316170 1_564
Li1 O23 2.559098 1_565
Li1 O2 2.559098 1_455
Mn0 O5 2.094731 1_555
Mn0 O15 2.142508 1_655
Mn0 O14 2.187288 1_655
Mn0 O0 2.205334 1_555
Mn0 O3 2.209365 1_555
Mn0 O20 2.377450 1_655
Mn1 O10 2.094731 1_555
Mn1 O7 2.142508 1_564
Mn1 O19 2.187292 1_565
Mn1 O2 2.205334 1_555
Mn1 O1 2.209365 1_554
Mn1 O22 2.377450 1_565
Mn2 O12 2.032832 1_555
Mn2 O6 2.032832 1_555
Mn2 O5 2.109156 1_555
Mn2 O13 2.109156 1_555
Mn3 O4 2.156899 1_555
Mn3 O14 2.156907 1_555
Mn3 O16 2.264719 1_556
Mn3 O15 2.264719 1_555
Mn3 O12 2.390059 1_555
Mn3 O6 2.390059 1_555
Mn4 O11 2.032832 1_555
Mn4 O17 2.032832 1_555
Mn4 O10 2.109156 1_555
Mn4 O18 2.109156 1_555
Mn5 O9 2.156899 1_555
Mn5 O19 2.156899 1_555
Mn5 O8 2.264719 1_555
Mn5 O7 2.264719 1_554
Mn5 O17 2.390059 1_555
Mn5 O11 2.390059 1_555
Mn6 O13 2.094731 1_555
Mn6 O16 2.142508 1_546
Mn6 O4 2.187292 1_545
Mn6 O21 2.205334 1_555
Mn6 O22 2.209365 1_556
Mn6 O1 2.377450 1_545
Mn7 O18 2.094731 1_555
Mn7 O8 2.142508 1_455
Mn7 O9 2.187292 1_455
Mn7 O23 2.205334 1_555
Mn7 O20 2.209365 1_555
Mn7 O3 2.377450 1_455
O0 P0 1.559389 1_555
O1 P0 1.538175 1_555
O2 P1 1.559389 1_555
O3 P1 1.538175 1_555
O4 P5 1.562093 1_565
O5 P2 1.574952 1_555
O6 P0 1.586758 1_555
O7 P2 1.541533 1_555
O8 P2 1.541533 1_555
O9 P4 1.562093 1_654
O10 P3 1.574952 1_555
O11 P1 1.586758 1_555
O12 P4 1.586758 1_555
O13 P2 1.574952 1_555
O14 P1 1.562089 1_456
O15 P3 1.541533 1_555
O16 P3 1.541533 1_555
O17 P5 1.586758 1_555
O18 P3 1.574952 1_555
O19 P0 1.562093 1_545
O20 P4 1.538175 1_555
O21 P4 1.559389 1_555
O22 P5 1.538175 1_555
O23 P5 1.559389 1_555
