# generated using pymatgen
data_Zr7VO16
_symmetry_space_group_name_H-M   'P 1'
_cell_length_a   7.48548683
_cell_length_b   7.54711742
_cell_length_c   10.37438366
_cell_angle_alpha   95.22611229
_cell_angle_beta   96.92168334
_cell_angle_gamma   87.73052945
_symmetry_Int_Tables_number   1
_chemical_formula_structural   Zr7VO16
_chemical_formula_sum   'Zr14 V2 O32'
_cell_volume   579.15580862
_cell_formula_units_Z   2
loop_
 _symmetry_equiv_pos_site_id
 _symmetry_equiv_pos_as_xyz
  1  'x, y, z'
loop_
 _atom_site_type_symbol
 _atom_site_label
 _atom_site_symmetry_multiplicity
 _atom_site_fract_x
 _atom_site_fract_y
 _atom_site_fract_z
 _atom_site_occupancy
  Zr  Zr0  1  0.12077000  0.08720400  0.14037600  1
  Zr  Zr1  1  0.62073800  0.58721100  0.64038300  1
  Zr  Zr2  1  0.08798300  0.63199400  0.63921600  1
  Zr  Zr3  1  0.58798000  0.13195300  0.13917300  1
  Zr  Zr4  1  0.58397100  0.12150800  0.63876900  1
  Zr  Zr5  1  0.08398400  0.62151900  0.13877500  1
  Zr  Zr6  1  0.13256300  0.08032000  0.64537700  1
  Zr  Zr7  1  0.63256600  0.58032600  0.14543400  1
  Zr  Zr8  1  0.37007400  0.41304200  0.85719500  1
  Zr  Zr9  1  0.87011500  0.91320400  0.35721200  1
  Zr  Zr10  1  0.91497500  0.37300600  0.86355300  1
  Zr  Zr11  1  0.41498800  0.87301900  0.36354700  1
  Zr  Zr12  1  0.37450800  0.40997400  0.36200600  1
  Zr  Zr13  1  0.87447300  0.90995900  0.86202900  1
  V  V0  1  0.93090600  0.38946800  0.38446300  1
  V  V1  1  0.43111300  0.88947200  0.88453900  1
  O  O0  1  0.14301500  0.88030900  0.27576700  1
  O  O1  1  0.64301300  0.38026700  0.77576400  1
  O  O2  1  0.97417900  0.18230300  0.45601900  1
  O  O3  1  0.47425100  0.68205900  0.95604300  1
  O  O4  1  0.52070200  0.33615200  0.53126000  1
  O  O5  1  0.02064600  0.83617300  0.03127200  1
  O  O6  1  0.33525900  0.02489300  0.52916200  1
  O  O7  1  0.83522100  0.52493300  0.02914500  1
  O  O8  1  0.83863600  0.52486000  0.52780400  1
  O  O9  1  0.33864200  0.02477700  0.02777100  1
  O  O10  1  0.35717000  0.58564400  0.70883800  1
  O  O11  1  0.85715300  0.08572600  0.20884700  1
  O  O12  1  0.10864600  0.35564000  0.72536600  1
  O  O13  1  0.60869800  0.85565300  0.22536100  1
  O  O14  1  0.60177000  0.85660500  0.73227400  1
  O  O15  1  0.10179700  0.35664800  0.23225900  1
  O  O16  1  0.88413200  0.64284000  0.77110100  1
  O  O17  1  0.38416300  0.14285400  0.27111300  1
  O  O18  1  0.38388000  0.14045100  0.77726900  1
  O  O19  1  0.88390000  0.64039700  0.27732500  1
  O  O20  1  0.15817000  0.87839900  0.77862700  1
  O  O21  1  0.65812400  0.37848800  0.27864500  1
  O  O22  1  0.16290200  0.48003000  0.96909800  1
  O  O23  1  0.66290900  0.97997200  0.46913200  1
  O  O24  1  0.65504900  0.99049800  0.96399100  1
  O  O25  1  0.15506800  0.49051700  0.46404500  1
  O  O26  1  0.97790600  0.15934400  0.96712100  1
  O  O27  1  0.47789200  0.65934600  0.46715100  1
  O  O28  1  0.52106700  0.34923200  0.03282900  1
  O  O29  1  0.02109400  0.84918000  0.53283900  1
  O  O30  1  0.36162400  0.60633300  0.22235300  1
  O  O31  1  0.86161800  0.10629300  0.72235800  1
loop_
_geom_bond_atom_site_label_1
_geom_bond_atom_site_label_2
_geom_bond_distance
_geom_bond_site_symmetry_2
O0 Zr11 2.128479 1_555
O0 Zr0 2.182055 1_565
O0 Zr9 2.299171 1_455
O0 Zr5 2.332611 1_555
O1 Zr10 2.128428 1_555
O1 Zr1 2.182261 1_555
O1 Zr8 2.299339 1_555
O1 Zr4 2.332454 1_555
O2 V0 1.792738 1_555
O2 Zr9 2.309930 1_545
O2 Zr6 2.344990 1_655
O3 V1 1.794076 1_555
O3 Zr8 2.309809 1_555
O3 Zr7 2.344339 1_556
O4 Zr4 2.057563 1_555
O4 Zr12 2.063485 1_555
O4 Zr1 2.224810 1_555
O5 Zr5 2.057658 1_555
O5 Zr13 2.063238 1_454
O5 Zr0 2.224764 1_565
O6 Zr6 2.056575 1_555
O6 Zr11 2.110981 1_545
O6 Zr4 2.176454 1_555
O7 Zr7 2.056803 1_555
O7 Zr10 2.111041 1_554
O7 Zr5 2.176784 1_655
O8 V0 1.909816 1_555
O8 Zr1 2.131702 1_555
O8 Zr2 2.214219 1_655
O9 V1 1.909301 1_544
O9 Zr0 2.131790 1_555
O9 Zr3 2.214236 1_555
O10 Zr2 2.084151 1_555
O10 Zr8 2.096314 1_555
O10 Zr1 2.176707 1_555
O11 Zr3 2.084038 1_555
O11 Zr9 2.095936 1_545
O11 Zr0 2.177078 1_655
O12 Zr10 2.150755 1_455
O12 Zr6 2.174962 1_555
O12 Zr8 2.280743 1_555
O12 Zr2 2.335269 1_555
O13 Zr11 2.150967 1_555
O13 Zr7 2.174782 1_555
O13 Zr9 2.280977 1_555
O13 Zr3 2.335065 1_565
O14 V1 2.139770 1_555
O14 Zr1 2.172401 1_555
O14 Zr4 2.292779 1_565
O14 Zr13 2.333499 1_555
O15 V0 2.140449 1_455
O15 Zr0 2.172711 1_555
O15 Zr5 2.292449 1_555
O15 Zr12 2.333477 1_555
O16 Zr13 2.148885 1_555
O16 Zr2 2.163355 1_655
O16 Zr1 2.284743 1_555
O16 Zr10 2.320703 1_555
O17 Zr12 2.148760 1_555
O17 Zr3 2.163544 1_555
O17 Zr0 2.284856 1_555
O17 Zr11 2.320618 1_545
O18 Zr8 2.150271 1_555
O18 Zr4 2.189212 1_555
O18 Zr6 2.225149 1_555
O18 V1 2.277602 1_545
O19 Zr9 2.151638 1_555
O19 Zr5 2.189563 1_655
O19 Zr7 2.225161 1_555
O19 V0 2.276420 1_555
O20 Zr6 2.137018 1_565
O20 V1 2.200977 1_555
O20 Zr2 2.287000 1_555
O20 Zr13 2.383352 1_455
O21 Zr7 2.136259 1_555
O21 V0 2.199534 1_555
O21 Zr3 2.288026 1_555
O21 Zr12 2.382574 1_555
O22 Zr8 2.067168 1_555
O22 Zr5 2.108584 1_556
O22 Zr10 2.182515 1_455
O23 Zr9 2.067214 1_555
O23 Zr4 2.108445 1_565
O23 Zr11 2.182439 1_555
O24 V1 1.929856 1_555
O24 Zr13 2.099701 1_555
O24 Zr3 2.125734 1_566
O25 V0 1.931719 1_455
O25 Zr12 2.100264 1_555
O25 Zr2 2.125745 1_555
O26 Zr10 2.027337 1_555
O26 Zr0 2.083176 1_656
O26 Zr13 2.206515 1_545
O27 Zr11 2.027593 1_555
O27 Zr1 2.082914 1_555
O27 Zr12 2.206521 1_555
O28 Zr3 2.070852 1_555
O28 Zr8 2.109455 1_554
O28 Zr7 2.147622 1_555
O29 Zr2 2.070440 1_555
O29 Zr9 2.109813 1_455
O29 Zr6 2.147519 1_565
O30 Zr5 2.156169 1_555
O30 Zr12 2.156539 1_555
O30 Zr7 2.262444 1_555
O30 Zr11 2.396199 1_555
O31 Zr4 2.156261 1_555
O31 Zr13 2.156548 1_545
O31 Zr6 2.262751 1_655
O31 Zr10 2.396359 1_555
