# generated using pymatgen
data_LiFe4(BO3)4
_symmetry_space_group_name_H-M   'P 1'
_cell_length_a   5.25114400
_cell_length_b   5.25391264
_cell_length_c   20.11854344
_cell_angle_alpha   90.89540339
_cell_angle_beta   89.69963252
_cell_angle_gamma   118.88169755
_symmetry_Int_Tables_number   1
_chemical_formula_structural   LiFe4(BO3)4
_chemical_formula_sum   'Li2 Fe8 B8 O24'
_cell_volume   485.95256272
_cell_formula_units_Z   2
loop_
 _symmetry_equiv_pos_site_id
 _symmetry_equiv_pos_as_xyz
  1  'x, y, z'
loop_
 _atom_site_type_symbol
 _atom_site_label
 _atom_site_symmetry_multiplicity
 _atom_site_fract_x
 _atom_site_fract_y
 _atom_site_fract_z
 _atom_site_occupancy
  Li  Li0  1  0.33252400  0.35559500  0.92232700  1
  Li  Li1  1  0.65647400  0.65606900  0.55021900  1
  Fe  Fe0  1  0.31986400  0.97836400  0.81185400  1
  Fe  Fe1  1  0.32474700  0.99801500  0.31062100  1
  Fe  Fe2  1  0.99131300  0.68465300  0.93859300  1
  Fe  Fe3  1  0.00750600  0.67333300  0.43573100  1
  Fe  Fe4  1  0.00564300  0.31844600  0.56068400  1
  Fe  Fe5  1  0.99670700  0.32588000  0.06044900  1
  Fe  Fe6  1  0.66852000  0.00829900  0.68399400  1
  Fe  Fe7  1  0.67566600  0.00353600  0.18522400  1
  B  B0  1  0.65987400  0.00262900  0.93639600  1
  B  B1  1  0.66559400  0.00242000  0.43676900  1
  B  B2  1  0.98599400  0.32631000  0.81277900  1
  B  B3  1  0.99426500  0.34044100  0.31149600  1
  B  B4  1  0.99973400  0.66265700  0.68507600  1
  B  B5  1  0.00392200  0.65965100  0.18605900  1
  B  B6  1  0.33749000  0.99957800  0.55962600  1
  B  B7  1  0.33613100  0.99612100  0.06194900  1
  O  O0  1  0.72452900  0.11487900  0.78479600  1
  O  O1  1  0.72950300  0.12706400  0.28469700  1
  O  O2  1  0.90834300  0.25474000  0.95950100  1
  O  O3  1  0.42175600  0.03112400  0.91313400  1
  O  O4  1  0.88340600  0.27340600  0.45658900  1
  O  O5  1  0.40588800  0.97693400  0.41173700  1
  O  O6  1  0.01276800  0.59191500  0.83267200  1
  O  O7  1  0.34996100  0.26177300  0.55901100  1
  O  O8  1  0.00717400  0.60037600  0.33441200  1
  O  O9  1  0.30042100  0.23450400  0.05852700  1
  O  O10  1  0.21074800  0.27103300  0.82381800  1
  O  O11  1  0.22550700  0.29400600  0.31503300  1
  O  O12  1  0.77264200  0.71458900  0.67679500  1
  O  O13  1  0.77337500  0.70673900  0.18365400  1
  O  O14  1  0.64723600  0.74021800  0.93553300  1
  O  O15  1  0.97770100  0.39854400  0.66531100  1
  O  O16  1  0.69849700  0.76245700  0.44544100  1
  O  O17  1  0.99079800  0.40085900  0.16308000  1
  O  O18  1  0.57553300  0.96999000  0.58260100  1
  O  O19  1  0.59822100  0.01837300  0.08505900  1
  O  O20  1  0.09074100  0.74481900  0.53707000  1
  O  O21  1  0.11915800  0.72679400  0.04029400  1
  O  O22  1  0.26461600  0.87783200  0.71185600  1
  O  O23  1  0.27061200  0.87369900  0.21257100  1
loop_
_geom_bond_atom_site_label_1
_geom_bond_atom_site_label_2
_geom_bond_distance
_geom_bond_site_symmetry_2
Li0 O14 1.909718 1_555
Li0 O3 1.980097 1_555
Li0 O10 2.060433 1_555
Li0 O2 2.157856 1_455
Li1 O7 1.923778 1_555
Li1 O18 1.991484 1_555
Li1 O20 2.111393 1_655
Li1 O16 2.171982 1_555
Fe0 O10 1.894393 1_565
Fe0 O6 1.937764 1_555
Fe0 O0 1.963157 1_565
Fe0 O22 2.058015 1_555
Fe0 O3 2.089368 1_565
Fe1 O11 1.864370 1_565
Fe1 O1 1.963805 1_565
Fe1 O8 2.007994 1_555
Fe1 O23 2.045704 1_555
Fe1 O5 2.096172 1_555
Fe2 O14 1.965908 1_555
Fe2 O21 2.131383 1_656
Fe2 O2 2.132072 1_555
Fe2 O3 2.174243 1_665
Fe2 O6 2.192992 1_655
Fe3 O16 1.902159 1_455
Fe3 O4 1.928132 1_455
Fe3 O5 1.985872 1_555
Fe3 O8 2.068076 1_555
Fe3 O20 2.077404 1_555
Fe4 O7 1.969262 1_555
Fe4 O20 2.123109 1_555
Fe4 O15 2.158271 1_455
Fe4 O18 2.160485 1_445
Fe4 O4 2.169269 1_455
Fe5 O9 1.874542 1_655
Fe5 O21 1.931387 1_655
Fe5 O19 1.995574 1_555
Fe5 O2 2.073232 1_554
Fe5 O17 2.098857 1_555
Fe6 O12 1.873068 1_545
Fe6 O15 1.945006 1_555
Fe6 O22 1.969177 1_545
Fe6 O0 2.079536 1_555
Fe6 O18 2.083919 1_545
Fe7 O13 1.861983 1_545
Fe7 O23 1.972307 1_545
Fe7 O17 1.994711 1_555
Fe7 O19 2.067973 1_555
Fe7 O1 2.072254 1_555
B0 O14 1.347722 1_545
B0 O2 1.410872 1_555
B0 O3 1.412116 1_555
B1 O16 1.366522 1_545
B1 O4 1.381376 1_555
B1 O5 1.400024 1_545
B2 O10 1.364715 1_655
B2 O6 1.385956 1_655
B2 O0 1.396870 1_555
B3 O11 1.351552 1_655
B3 O1 1.401339 1_555
B3 O8 1.404792 1_655
B4 O12 1.357222 1_555
B4 O15 1.387502 1_555
B4 O22 1.404578 1_655
B5 O13 1.348888 1_455
B5 O17 1.399053 1_455
B5 O23 1.406454 1_555
B6 O7 1.347392 1_565
B6 O20 1.410030 1_555
B6 O18 1.412914 1_555
B7 O9 1.355810 1_565
B7 O21 1.385190 1_555
B7 O19 1.404828 1_565
