# generated using pymatgen
data_AcAgHg2
_symmetry_space_group_name_H-M   'P 1'
_cell_length_a   5.34160200
_cell_length_b   5.34160200
_cell_length_c   5.34160200
_cell_angle_alpha   60.00000000
_cell_angle_beta   60.00000000
_cell_angle_gamma   60.00000000
_symmetry_Int_Tables_number   1
_chemical_formula_structural   AcAgHg2
_chemical_formula_sum   'Ac1 Ag1 Hg2'
_cell_volume   107.77042136
_cell_formula_units_Z   1
loop_
 _symmetry_equiv_pos_site_id
 _symmetry_equiv_pos_as_xyz
  1  'x, y, z'
loop_
 _atom_site_type_symbol
 _atom_site_label
 _atom_site_symmetry_multiplicity
 _atom_site_fract_x
 _atom_site_fract_y
 _atom_site_fract_z
 _atom_site_occupancy
  Ac  Ac0  1  0.50000000  0.50000000  0.50000000  1
  Ag  Ag0  1  0.00000000  0.00000000  0.00000000  1
  Hg  Hg0  1  0.25000000  0.25000000  0.25000000  1
  Hg  Hg1  1  0.75000000  0.75000000  0.75000000  1
loop_
_geom_bond_atom_site_label_1
_geom_bond_atom_site_label_2
_geom_bond_distance
_geom_bond_site_symmetry_2
Ac0 Hg1 3.271050 1_455
Ac0 Hg0 3.271050 1_655
Ac0 Hg1 3.271050 1_555
Ac0 Hg0 3.271050 1_556
Ac0 Hg0 3.271050 1_555
Ac0 Hg1 3.271050 1_545
Ac0 Hg0 3.271050 1_565
Ac0 Hg1 3.271050 1_554
Ac0 Ag0 3.777083 1_655
Ac0 Ag0 3.777083 1_565
Ac0 Ag0 3.777083 1_556
Ac0 Ag0 3.777083 1_656
Ac0 Ag0 3.777083 1_665
Ac0 Ag0 3.777083 1_566
Ag0 Hg0 3.271050 1_455
Ag0 Hg1 3.271050 1_544
Ag0 Hg1 3.271050 1_444
Ag0 Hg1 3.271050 1_445
Ag0 Hg0 3.271050 1_555
Ag0 Hg0 3.271050 1_554
Ag0 Hg0 3.271050 1_545
Ag0 Hg1 3.271050 1_454
