# generated using pymatgen
data_PrBO3
_symmetry_space_group_name_H-M   'P 1'
_cell_length_a   5.07421834
_cell_length_b   5.77535461
_cell_length_c   8.16741715
_cell_angle_alpha   90.00000000
_cell_angle_beta   90.00000000
_cell_angle_gamma   90.00000000
_symmetry_Int_Tables_number   1
_chemical_formula_structural   PrBO3
_chemical_formula_sum   'Pr4 B4 O12'
_cell_volume   239.34951053
_cell_formula_units_Z   4
loop_
 _symmetry_equiv_pos_site_id
 _symmetry_equiv_pos_as_xyz
  1  'x, y, z'
loop_
 _atom_site_type_symbol
 _atom_site_label
 _atom_site_symmetry_multiplicity
 _atom_site_fract_x
 _atom_site_fract_y
 _atom_site_fract_z
 _atom_site_occupancy
  Pr  Pr0  1  0.25000000  0.74248744  0.08477905  1
  Pr  Pr1  1  0.75000000  0.75751256  0.58477905  1
  Pr  Pr2  1  0.25000000  0.24248744  0.41522095  1
  Pr  Pr3  1  0.75000000  0.25751256  0.91522095  1
  B  B0  1  0.25000000  0.58456218  0.73841871  1
  B  B1  1  0.75000000  0.91543782  0.23841871  1
  B  B2  1  0.25000000  0.08456218  0.76158129  1
  B  B3  1  0.75000000  0.41543782  0.26158129  1
  O  O0  1  0.01645627  0.58885908  0.82370551  1
  O  O1  1  0.98354373  0.91114092  0.32370551  1
  O  O2  1  0.48354373  0.08885908  0.67629449  1
  O  O3  1  0.51645627  0.41114092  0.17629449  1
  O  O4  1  0.98354373  0.41114092  0.17629449  1
  O  O5  1  0.01645627  0.08885908  0.67629449  1
  O  O6  1  0.51645627  0.91114092  0.32370551  1
  O  O7  1  0.48354373  0.58885908  0.82370551  1
  O  O8  1  0.25000000  0.59975114  0.57125180  1
  O  O9  1  0.75000000  0.90024886  0.07125180  1
  O  O10  1  0.25000000  0.09975114  0.92874820  1
  O  O11  1  0.75000000  0.40024886  0.42874820  1
loop_
_geom_bond_atom_site_label_1
_geom_bond_atom_site_label_2
_geom_bond_distance
_geom_bond_site_symmetry_2
B0 O8 1.368137 1_555
B0 O0 1.374837 1_555
B0 O7 1.374837 1_555
B1 O9 1.368137 1_555
B1 O6 1.374837 1_555
B1 O1 1.374837 1_555
B2 O10 1.368137 1_555
B2 O5 1.374837 1_555
B2 O2 1.374837 1_555
B3 O11 1.368137 1_555
B3 O3 1.374837 1_555
B3 O4 1.374837 1_555
O0 Pr3 2.459424 1_455
O0 Pr1 2.566088 1_455
O0 Pr0 2.595817 1_556
O1 Pr2 2.459424 1_665
O1 Pr0 2.566088 1_655
O1 Pr1 2.595817 1_555
O2 Pr1 2.459424 1_545
O2 Pr3 2.566088 1_555
O2 Pr2 2.595817 1_555
O3 Pr0 2.459424 1_555
O3 Pr2 2.566088 1_555
O3 Pr3 2.595817 1_554
O4 Pr0 2.459424 1_655
O4 Pr2 2.566088 1_655
O4 Pr3 2.595817 1_554
O5 Pr1 2.459424 1_445
O5 Pr3 2.566088 1_455
O5 Pr2 2.595817 1_555
O6 Pr2 2.459424 1_565
O6 Pr0 2.566088 1_555
O6 Pr1 2.595817 1_555
O7 Pr3 2.459424 1_555
O7 Pr1 2.566088 1_555
O7 Pr0 2.595817 1_556
O8 Pr2 2.425144 1_555
O8 Pr1 2.698015 1_555
O8 Pr1 2.698015 1_455
O9 Pr3 2.425144 1_564
O9 Pr0 2.698015 1_555
O9 Pr0 2.698015 1_655
O10 Pr0 2.425144 1_546
O10 Pr3 2.698015 1_555
O10 Pr3 2.698015 1_455
O11 Pr1 2.425144 1_555
O11 Pr2 2.698015 1_655
O11 Pr2 2.698015 1_555
