# generated using pymatgen
data_LaMgCd2
_symmetry_space_group_name_H-M   'P 1'
_cell_length_a   5.24718940
_cell_length_b   5.24718938
_cell_length_c   5.24718903
_cell_angle_alpha   59.99939739
_cell_angle_beta   59.99939472
_cell_angle_gamma   59.99939998
_symmetry_Int_Tables_number   1
_chemical_formula_structural   LaMgCd2
_chemical_formula_sum   'La1 Mg1 Cd2'
_cell_volume   102.15491286
_cell_formula_units_Z   1
loop_
 _symmetry_equiv_pos_site_id
 _symmetry_equiv_pos_as_xyz
  1  'x, y, z'
loop_
 _atom_site_type_symbol
 _atom_site_label
 _atom_site_symmetry_multiplicity
 _atom_site_fract_x
 _atom_site_fract_y
 _atom_site_fract_z
 _atom_site_occupancy
  La  La0  1  0.25000065  0.25000065  0.25000066  1
  Mg  Mg0  1  0.75000005  0.75000005  0.75000004  1
  Cd  Cd0  1  0.49999876  0.49999871  0.49999877  1
  Cd  Cd1  1  0.00000053  0.00000059  0.00000054  1
loop_
_geom_bond_atom_site_label_1
_geom_bond_atom_site_label_2
_geom_bond_distance
_geom_bond_site_symmetry_2
Cd0 Mg0 3.213204 1_554
Cd0 Mg0 3.213204 1_545
Cd0 Mg0 3.213204 1_455
Cd0 La0 3.213218 1_556
Cd0 La0 3.213218 1_655
Cd0 La0 3.213218 1_565
Cd0 La0 3.213224 1_555
Cd0 Mg0 3.213265 1_555
Cd1 Mg0 3.213207 1_445
Cd1 Mg0 3.213208 1_454
Cd1 Mg0 3.213208 1_544
Cd1 La0 3.213209 1_554
Cd1 La0 3.213209 1_455
Cd1 La0 3.213210 1_545
Cd1 La0 3.213250 1_555
Cd1 Mg0 3.213255 1_444
