# generated using pymatgen
data_LiCoPO4
_symmetry_space_group_name_H-M   'P 1'
_cell_length_a   7.53632000
_cell_length_b   8.45440100
_cell_length_c   17.10652915
_cell_angle_alpha   61.28932783
_cell_angle_beta   90.00000000
_cell_angle_gamma   90.00000000
_symmetry_Int_Tables_number   1
_chemical_formula_structural   LiCoPO4
_chemical_formula_sum   'Li12 Co12 P12 O48'
_cell_volume   955.94244655
_cell_formula_units_Z   12
loop_
 _symmetry_equiv_pos_site_id
 _symmetry_equiv_pos_as_xyz
  1  'x, y, z'
loop_
 _atom_site_type_symbol
 _atom_site_label
 _atom_site_symmetry_multiplicity
 _atom_site_fract_x
 _atom_site_fract_y
 _atom_site_fract_z
 _atom_site_occupancy
  Li  Li0  1  0.76073100  0.85888000  0.59333600  1
  Li  Li1  1  0.73101200  0.17726600  0.22978200  1
  Li  Li2  1  0.76764600  0.46347600  0.92416100  1
  Li  Li3  1  0.26764600  0.53652400  0.57583900  1
  Li  Li4  1  0.23101200  0.82273400  0.27021800  1
  Li  Li5  1  0.26073100  0.14112000  0.90666400  1
  Li  Li6  1  0.73926900  0.85888000  0.09333600  1
  Li  Li7  1  0.76898800  0.17726600  0.72978200  1
  Li  Li8  1  0.73235400  0.46347600  0.42416100  1
  Li  Li9  1  0.23235400  0.53652400  0.07583900  1
  Li  Li10  1  0.26898800  0.82273400  0.77021800  1
  Li  Li11  1  0.23926900  0.14112000  0.40666400  1
  Co  Co0  1  0.48168500  0.20806000  0.06469600  1
  Co  Co1  1  0.52338500  0.85339000  0.40946100  1
  Co  Co2  1  0.38637500  0.50980600  0.75294300  1
  Co  Co3  1  0.88637500  0.49019400  0.74705700  1
  Co  Co4  1  0.02338500  0.14661000  0.09053900  1
  Co  Co5  1  0.98168500  0.79194000  0.43530400  1
  Co  Co6  1  0.01831500  0.20806000  0.56469600  1
  Co  Co7  1  0.97661500  0.85339000  0.90946100  1
  Co  Co8  1  0.11362500  0.50980600  0.25294300  1
  Co  Co9  1  0.61362500  0.49019400  0.24705700  1
  Co  Co10  1  0.47661500  0.14661000  0.59053900  1
  Co  Co11  1  0.51831500  0.79194000  0.93530400  1
  P  P0  1  0.18381900  0.86348800  0.58828000  1
  P  P1  1  0.32042200  0.18586200  0.22764200  1
  P  P2  1  0.17653900  0.46890300  0.92824300  1
  P  P3  1  0.67653900  0.53109700  0.57175700  1
  P  P4  1  0.82042200  0.81413800  0.27235800  1
  P  P5  1  0.68381900  0.13651200  0.91172000  1
  P  P6  1  0.31618100  0.86348800  0.08828000  1
  P  P7  1  0.17957800  0.18586200  0.72764200  1
  P  P8  1  0.32346100  0.46890300  0.42824300  1
  P  P9  1  0.82346100  0.53109700  0.07175700  1
  P  P10  1  0.67957800  0.81413800  0.77235800  1
  P  P11  1  0.81618100  0.13651200  0.41172000  1
  O  O0  1  0.99002100  0.05884400  0.39418600  1
  O  O1  1  0.85963200  0.32624700  0.12159500  1
  O  O2  1  0.68608000  0.97976300  0.46656500  1
  O  O3  1  0.77515100  0.63444800  0.79359300  1
  O  O4  1  0.30511500  0.41348000  0.00889700  1
  O  O5  1  0.49858000  0.24081200  0.17444600  1
  O  O6  1  0.35901600  0.07010200  0.32868000  1
  O  O7  1  0.26649000  0.73504900  0.68129900  1
  O  O8  1  0.00210400  0.36017800  0.96408700  1
  O  O9  1  0.13777400  0.75289100  0.53998000  1
  O  O10  1  0.26070700  0.40490000  0.86418400  1
  O  O11  1  0.20651500  0.08172800  0.19212100  1
  O  O12  1  0.76070700  0.59510000  0.63581600  1
  O  O13  1  0.70651500  0.91827200  0.30787900  1
  O  O14  1  0.63777400  0.24710900  0.96002000  1
  O  O15  1  0.50210400  0.63982200  0.53591300  1
  O  O16  1  0.76649000  0.26495100  0.81870100  1
  O  O17  1  0.85901600  0.92989800  0.17132000  1
  O  O18  1  0.99858000  0.75918800  0.32555400  1
  O  O19  1  0.27515100  0.36555200  0.70640700  1
  O  O20  1  0.80511500  0.58652000  0.49110300  1
  O  O21  1  0.18608000  0.02023700  0.03343500  1
  O  O22  1  0.35963200  0.67375300  0.37840500  1
  O  O23  1  0.49002100  0.94115600  0.10581400  1
  O  O24  1  0.50997900  0.05884400  0.89418600  1
  O  O25  1  0.64036800  0.32624700  0.62159500  1
  O  O26  1  0.81392000  0.97976300  0.96656500  1
  O  O27  1  0.19488500  0.41348000  0.50889700  1
  O  O28  1  0.72484900  0.63444800  0.29359300  1
  O  O29  1  0.00142000  0.24081200  0.67444600  1
  O  O30  1  0.14098400  0.07010200  0.82868000  1
  O  O31  1  0.23351000  0.73504900  0.18129900  1
  O  O32  1  0.49789600  0.36017800  0.46408700  1
  O  O33  1  0.36222600  0.75289100  0.03998000  1
  O  O34  1  0.29348500  0.08172800  0.69212100  1
  O  O35  1  0.23929300  0.40490000  0.36418400  1
  O  O36  1  0.79348500  0.91827200  0.80787900  1
  O  O37  1  0.73929300  0.59510000  0.13581600  1
  O  O38  1  0.86222600  0.24710900  0.46002000  1
  O  O39  1  0.99789600  0.63982200  0.03591300  1
  O  O40  1  0.73351000  0.26495100  0.31870100  1
  O  O41  1  0.64098400  0.92989800  0.67132000  1
  O  O42  1  0.50142000  0.75918800  0.82555400  1
  O  O43  1  0.69488500  0.58652000  0.99110300  1
  O  O44  1  0.22484900  0.36555200  0.20640700  1
  O  O45  1  0.31392000  0.02023700  0.53343500  1
  O  O46  1  0.14036800  0.67375300  0.87840500  1
  O  O47  1  0.00997900  0.94115600  0.60581400  1
loop_
_geom_bond_atom_site_label_1
_geom_bond_atom_site_label_2
_geom_bond_distance
_geom_bond_site_symmetry_2
Li0 O41 1.929799 1_555
Li0 O2 1.983555 1_555
Li0 O12 1.986055 1_555
Li0 O47 2.049513 1_655
Li1 O1 1.926535 1_555
Li1 O5 1.940226 1_555
Li1 O13 1.950096 1_545
Li1 O40 1.986716 1_555
Li2 O14 1.897981 1_555
Li2 O8 1.943762 1_655
Li2 O43 1.959265 1_555
Li2 O3 1.994865 1_555
Li3 O9 1.897981 1_555
Li3 O15 1.943762 1_555
Li3 O27 1.959265 1_555
Li3 O19 1.994865 1_555
Li4 O22 1.926535 1_555
Li4 O18 1.940226 1_455
Li4 O11 1.950096 1_565
Li4 O31 1.986716 1_555
Li5 O30 1.929799 1_555
Li5 O21 1.983555 1_556
Li5 O10 1.986055 1_555
Li5 O24 2.049513 1_555
Li6 O17 1.929799 1_555
Li6 O26 1.983555 1_554
Li6 O37 1.986055 1_555
Li6 O23 2.049513 1_555
Li7 O25 1.926535 1_555
Li7 O29 1.940226 1_655
Li7 O36 1.950096 1_545
Li7 O16 1.986716 1_555
Li8 O38 1.897981 1_555
Li8 O32 1.943762 1_555
Li8 O20 1.959265 1_555
Li8 O28 1.994865 1_555
Li9 O33 1.897981 1_555
Li9 O39 1.943762 1_455
Li9 O4 1.959265 1_555
Li9 O44 1.994865 1_555
Li10 O46 1.926535 1_555
Li10 O42 1.940226 1_555
Li10 O34 1.950096 1_565
Li10 O7 1.986716 1_555
Li11 O6 1.929799 1_555
Li11 O45 1.983555 1_555
Li11 O35 1.986055 1_555
Li11 O0 2.049513 1_455
Co0 O23 2.016336 1_545
Co0 O4 2.026151 1_555
Co0 O5 2.029074 1_555
Co0 O14 2.032534 1_554
Co1 O15 2.052451 1_555
Co1 O13 2.075930 1_555
Co1 O6 2.090069 1_565
Co1 O2 2.145191 1_555
Co1 O22 2.210642 1_555
Co2 O10 1.919174 1_555
Co2 O7 1.924153 1_555
Co2 O19 1.938170 1_555
Co3 O12 1.919174 1_555
Co3 O16 1.924153 1_555
Co3 O3 1.938170 1_555
Co4 O8 2.052451 1_554
Co4 O11 2.075930 1_555
Co4 O17 2.090069 1_445
Co4 O21 2.145191 1_555
Co4 O1 2.210642 1_455
Co5 O0 2.016336 1_565
Co5 O20 2.026151 1_555
Co5 O18 2.029074 1_555
Co5 O9 2.032534 1_655
Co6 O47 2.016336 1_545
Co6 O27 2.026151 1_555
Co6 O29 2.029074 1_555
Co6 O38 2.032534 1_455
Co7 O39 2.052451 1_556
Co7 O36 2.075930 1_555
Co7 O30 2.090069 1_665
Co7 O26 2.145191 1_555
Co7 O46 2.210642 1_655
Co8 O35 1.919174 1_555
Co8 O31 1.924153 1_555
Co8 O44 1.938170 1_555
Co9 O37 1.919174 1_555
Co9 O40 1.924153 1_555
Co9 O28 1.938170 1_555
Co10 O32 2.052451 1_555
Co10 O34 2.075930 1_555
Co10 O41 2.090069 1_545
Co10 O45 2.145191 1_555
Co10 O25 2.210642 1_555
Co11 O24 2.016336 1_565
Co11 O43 2.026151 1_555
Co11 O42 2.029074 1_555
Co11 O33 2.032534 1_556
O0 P11 1.557808 1_555
O1 P9 1.543364 1_555
O2 P11 1.550234 1_565
O3 P10 1.558339 1_555
O4 P2 1.562360 1_554
O5 P1 1.562201 1_555
O6 P1 1.550679 1_555
O7 P0 1.561799 1_555
O8 P2 1.551632 1_555
O9 P0 1.555520 1_555
O10 P2 1.570252 1_555
O11 P1 1.547647 1_555
O12 P3 1.570252 1_555
O13 P4 1.547647 1_555
O14 P5 1.555520 1_555
O15 P3 1.551632 1_555
O16 P5 1.561799 1_555
O17 P4 1.550679 1_555
O18 P4 1.562201 1_555
O19 P7 1.558339 1_555
O20 P3 1.562360 1_555
O21 P6 1.550234 1_545
O22 P8 1.543364 1_555
O23 P6 1.557808 1_555
O24 P5 1.557808 1_555
O25 P3 1.543364 1_555
O26 P5 1.550234 1_565
O27 P8 1.562360 1_555
O28 P4 1.558339 1_555
O29 P7 1.562201 1_555
O30 P7 1.550679 1_555
O31 P6 1.561799 1_555
O32 P8 1.551632 1_555
O33 P6 1.555520 1_555
O34 P7 1.547647 1_555
O35 P8 1.570252 1_555
O36 P10 1.547647 1_555
O37 P9 1.570252 1_555
O38 P11 1.555520 1_555
O39 P9 1.551632 1_555
O40 P11 1.561799 1_555
O41 P10 1.550679 1_555
O42 P10 1.562201 1_555
O43 P9 1.562360 1_556
O44 P1 1.558339 1_555
O45 P0 1.550234 1_545
O46 P2 1.543364 1_555
O47 P0 1.557808 1_555
