# generated using pymatgen
data_BaBSbS4
_symmetry_space_group_name_H-M   'P 1'
_cell_length_a   6.25226943
_cell_length_b   9.88537701
_cell_length_c   11.85354969
_cell_angle_alpha   90.00000000
_cell_angle_beta   90.00000000
_cell_angle_gamma   90.00000000
_symmetry_Int_Tables_number   1
_chemical_formula_structural   BaBSbS4
_chemical_formula_sum   'Ba4 B4 Sb4 S16'
_cell_volume   732.62097202
_cell_formula_units_Z   4
loop_
 _symmetry_equiv_pos_site_id
 _symmetry_equiv_pos_as_xyz
  1  'x, y, z'
loop_
 _atom_site_type_symbol
 _atom_site_label
 _atom_site_symmetry_multiplicity
 _atom_site_fract_x
 _atom_site_fract_y
 _atom_site_fract_z
 _atom_site_occupancy
  Ba  Ba0  1  0.25000000  0.48547540  0.67012623  1
  Ba  Ba1  1  0.75000000  0.01452460  0.17012623  1
  Ba  Ba2  1  0.25000000  0.98547540  0.82987377  1
  Ba  Ba3  1  0.75000000  0.51452460  0.32987377  1
  B  B0  1  0.25000000  0.19361243  0.45102089  1
  B  B1  1  0.75000000  0.30638757  0.95102089  1
  B  B2  1  0.25000000  0.69361243  0.04897911  1
  B  B3  1  0.75000000  0.80638757  0.54897911  1
  Sb  Sb0  1  0.25000000  0.80799878  0.46060041  1
  Sb  Sb1  1  0.75000000  0.69200122  0.96060041  1
  Sb  Sb2  1  0.25000000  0.30799878  0.03939959  1
  Sb  Sb3  1  0.75000000  0.19200122  0.53939959  1
  S  S0  1  0.25000000  0.17211749  0.60060971  1
  S  S1  1  0.75000000  0.32788251  0.10060971  1
  S  S2  1  0.25000000  0.67211749  0.89939029  1
  S  S3  1  0.75000000  0.82788251  0.39939029  1
  S  S4  1  0.25000000  0.57360339  0.41047925  1
  S  S5  1  0.75000000  0.92639661  0.91047925  1
  S  S6  1  0.25000000  0.07360339  0.08952075  1
  S  S7  1  0.75000000  0.42639661  0.58952075  1
  S  S8  1  0.99712428  0.79194810  0.62830453  1
  S  S9  1  0.00287572  0.70805190  0.12830453  1
  S  S10  1  0.50287572  0.29194810  0.87169547  1
  S  S11  1  0.49712428  0.20805190  0.37169547  1
  S  S12  1  0.00287572  0.20805190  0.37169547  1
  S  S13  1  0.99712428  0.29194810  0.87169547  1
  S  S14  1  0.49712428  0.70805190  0.12830453  1
  S  S15  1  0.50287572  0.79194810  0.62830453  1
loop_
_geom_bond_atom_site_label_1
_geom_bond_atom_site_label_2
_geom_bond_distance
_geom_bond_site_symmetry_2
Ba0 S4 3.198660 1_555
Ba0 S0 3.205388 1_555
Ba0 S2 3.284728 1_555
Ba0 S7 3.320647 1_455
Ba0 S7 3.320647 1_555
Ba0 S10 3.445059 1_555
Ba0 S13 3.445059 1_455
Ba0 S8 3.453104 1_455
Ba0 S15 3.453104 1_555
Ba1 S5 3.198660 1_544
Ba1 S1 3.205388 1_555
Ba1 S3 3.284728 1_545
Ba1 S6 3.320647 1_655
Ba1 S6 3.320647 1_555
Ba1 S11 3.445059 1_555
Ba1 S12 3.445059 1_655
Ba1 S14 3.453104 1_545
Ba1 S9 3.453104 1_645
Ba2 S6 3.198660 1_566
Ba2 S2 3.205388 1_555
Ba2 S0 3.284728 1_565
Ba2 S5 3.320647 1_455
Ba2 S5 3.320647 1_555
Ba2 S8 3.445059 1_455
Ba2 S15 3.445059 1_555
Ba2 S10 3.453104 1_565
Ba2 S13 3.453104 1_465
Ba3 S7 3.198660 1_555
Ba3 S3 3.205388 1_555
Ba3 S1 3.284728 1_555
Ba3 S4 3.320647 1_555
Ba3 S4 3.320647 1_655
Ba3 S9 3.445059 1_655
Ba3 S14 3.445059 1_555
Ba3 S12 3.453104 1_655
Ba3 S11 3.453104 1_555
B0 S0 1.785845 1_555
B0 S12 1.814335 1_555
B0 S11 1.814335 1_555
B1 S1 1.785845 1_556
B1 S13 1.814335 1_555
B1 S10 1.814335 1_555
B2 S2 1.785845 1_554
B2 S9 1.814335 1_555
B2 S14 1.814335 1_555
B3 S3 1.785845 1_555
B3 S8 1.814335 1_555
B3 S15 1.814335 1_555
S4 Sb0 2.392041 1_555
S5 Sb1 2.392041 1_555
S6 Sb2 2.392041 1_555
S7 Sb3 2.392041 1_555
S8 Sb0 2.544914 1_655
S9 Sb1 2.544914 1_454
S10 Sb2 2.544914 1_556
S11 Sb3 2.544914 1_555
S12 Sb3 2.544914 1_455
S13 Sb2 2.544914 1_656
S14 Sb1 2.544914 1_554
S15 Sb0 2.544914 1_555
