# generated using pymatgen
data_ScPaOs2
_symmetry_space_group_name_H-M   'P 1'
_cell_length_a   4.73931563
_cell_length_b   4.73856469
_cell_length_c   4.73875000
_cell_angle_alpha   60.00859860
_cell_angle_beta   59.99339546
_cell_angle_gamma   59.99688504
_symmetry_Int_Tables_number   1
_chemical_formula_structural   ScPaOs2
_chemical_formula_sum   'Sc1 Pa1 Os2'
_cell_volume   75.25018121
_cell_formula_units_Z   1
loop_
 _symmetry_equiv_pos_site_id
 _symmetry_equiv_pos_as_xyz
  1  'x, y, z'
loop_
 _atom_site_type_symbol
 _atom_site_label
 _atom_site_symmetry_multiplicity
 _atom_site_fract_x
 _atom_site_fract_y
 _atom_site_fract_z
 _atom_site_occupancy
  Sc  Sc0  1  0.75000182  0.74999428  0.75002359  1
  Pa  Pa0  1  0.24999955  0.25000137  0.24999252  1
  Os  Os0  1  0.00000062  -0.00000144  -0.00000815  1
  Os  Os1  1  0.49999801  0.50000679  0.49999303  1
loop_
_geom_bond_atom_site_label_1
_geom_bond_atom_site_label_2
_geom_bond_distance
_geom_bond_site_symmetry_2
Os0 Sc0 2.901855 1_444
Os0 Sc0 2.901918 1_454
Os0 Pa0 2.901924 1_545
Os0 Pa0 2.901944 1_554
Os0 Pa0 2.901954 1_455
Os0 Sc0 2.901955 1_544
Os0 Pa0 2.901975 1_555
Os0 Sc0 2.902069 1_445
Os1 Sc0 2.901828 1_554
Os1 Pa0 2.901914 1_565
Os1 Sc0 2.901935 1_455
Os1 Pa0 2.901944 1_556
Os1 Pa0 2.901956 1_655
Os1 Pa0 2.901983 1_555
Os1 Sc0 2.901983 1_545
Os1 Sc0 2.902050 1_555
