# generated using pymatgen
data_LiCo3Sb(PO4)6
_symmetry_space_group_name_H-M   'P 1'
_cell_length_a   8.48765000
_cell_length_b   8.48994252
_cell_length_c   8.51320069
_cell_angle_alpha   119.81363671
_cell_angle_beta   90.08736512
_cell_angle_gamma   119.97888205
_symmetry_Int_Tables_number   1
_chemical_formula_structural   LiCo3Sb(PO4)6
_chemical_formula_sum   'Li1 Co3 Sb1 P6 O24'
_cell_volume   434.80773176
_cell_formula_units_Z   1
loop_
 _symmetry_equiv_pos_site_id
 _symmetry_equiv_pos_as_xyz
  1  'x, y, z'
loop_
 _atom_site_type_symbol
 _atom_site_label
 _atom_site_symmetry_multiplicity
 _atom_site_fract_x
 _atom_site_fract_y
 _atom_site_fract_z
 _atom_site_occupancy
  Li  Li0  1  0.52960600  0.02525000  0.48536200  1
  Co  Co0  1  0.30908500  0.44762700  0.41572500  1
  Co  Co1  1  0.22052000  0.57439300  0.06765500  1
  Co  Co2  1  0.80842600  0.44655900  0.91635000  1
  Sb  Sb0  1  0.69947600  0.55844700  0.58042900  1
  P  P0  1  0.26039500  0.71315800  0.24351900  1
  P  P1  1  0.55837200  0.30583200  0.24280800  1
  P  P2  1  0.04153700  0.00435900  0.74185000  1
  P  P3  1  0.96712400  0.00989100  0.24321200  1
  P  P4  1  0.47786900  0.73053200  0.74451800  1
  P  P5  1  0.77169900  0.29397500  0.74113100  1
  O  O0  1  0.88267600  0.07813700  0.55820500  1
  O  O1  1  0.44788300  0.94305700  0.92579500  1
  O  O2  1  0.63886100  0.76429400  0.93021800  1
  O  O3  1  0.42911700  0.68939600  0.24473800  1
  O  O4  1  0.92409600  0.54537200  0.43360000  1
  O  O5  1  0.25955400  0.55820500  0.93420200  1
  O  O6  1  0.07994900  0.51558400  0.24844500  1
  O  O7  1  0.57979400  0.49567200  0.24339200  1
  O  O8  1  0.26603400  0.25670600  0.55135900  1
  O  O9  1  0.73825700  0.31323900  0.25018200  1
  O  O10  1  0.21470900  0.15866000  0.75452700  1
  O  O11  1  0.93648200  0.17307000  0.25159200  1
  O  O12  1  0.15628900  0.94827500  0.43006000  1
  O  O13  1  0.07894000  0.84890100  0.73191500  1
  O  O14  1  0.78016800  0.84455800  0.24001300  1
  O  O15  1  0.75343600  0.77143800  0.43331800  1
  O  O16  1  0.30740600  0.72506000  0.73321800  1
  O  O17  1  0.44200700  0.52571900  0.75142500  1
  O  O18  1  0.94616900  0.48999500  0.73776200  1
  O  O19  1  0.74534800  0.44872800  0.06466300  1
  O  O20  1  0.10061500  0.46497200  0.55028400  1
  O  O21  1  0.58330800  0.30335800  0.75125400  1
  O  O22  1  0.35463100  0.22875800  0.06823400  1
  O  O23  1  0.56987200  0.05909500  0.06906300  1
loop_
_geom_bond_atom_site_label_1
_geom_bond_atom_site_label_2
_geom_bond_distance
_geom_bond_site_symmetry_2
Li0 O21 2.124466 1_555
Li0 P5 2.128410 1_555
Li0 O3 2.193237 1_545
Li0 P0 2.234117 1_545
Co0 O20 2.136260 1_555
Co0 O8 2.316162 1_555
Co1 O5 1.144899 1_554
Co1 P0 1.260990 1_555
Co1 O3 1.778014 1_555
Co2 P5 1.293817 1_555
Co2 O19 1.367470 1_556
Co2 O21 1.753724 1_555
Co2 O18 1.986545 1_555
P1 Sb0 2.363950 1_555
O0 O15 1.871611 1_545
O0 P5 2.358415 1_555
O1 O23 1.145495 1_566
O1 O16 1.518678 1_555
O1 P4 1.842087 1_555
O2 P4 1.897360 1_555
O3 P0 1.543481 1_555
O4 O9 1.623607 1_555
O4 Sb0 2.300066 1_555
O6 P0 1.632127 1_555
O7 P1 1.526410 1_555
O9 P1 1.496278 1_555
O10 P2 1.350123 1_555
O11 P3 1.501288 1_555
O12 O8 1.913522 1_565
O12 P0 2.429426 1_555
O13 P2 1.468911 1_565
O13 Sb0 2.646748 1_455
O14 P3 1.491619 1_565
O14 O15 2.005294 1_555
O15 O7 1.745867 1_555
O15 Sb0 2.544425 1_555
O16 P4 1.425724 1_555
O16 O20 1.755238 1_555
O17 P4 1.640881 1_555
O17 O2 1.660003 1_555
O17 O8 1.750178 1_555
O17 Sb0 2.603265 1_555
O18 P5 1.596252 1_555
O21 P5 1.640565 1_555
O22 P1 1.876607 1_555
O23 O9 1.636752 1_555
O23 P1 1.925943 1_555
