# generated using pymatgen
data_Pm2AgIr
_symmetry_space_group_name_H-M   'P 1'
_cell_length_a   5.07379033
_cell_length_b   5.07379545
_cell_length_c   5.07379399
_cell_angle_alpha   59.99998096
_cell_angle_beta   59.99996667
_cell_angle_gamma   59.99997621
_symmetry_Int_Tables_number   1
_chemical_formula_structural   Pm2AgIr
_chemical_formula_sum   'Pm2 Ag1 Ir1'
_cell_volume   92.35981472
_cell_formula_units_Z   1
loop_
 _symmetry_equiv_pos_site_id
 _symmetry_equiv_pos_as_xyz
  1  'x, y, z'
loop_
 _atom_site_type_symbol
 _atom_site_label
 _atom_site_symmetry_multiplicity
 _atom_site_fract_x
 _atom_site_fract_y
 _atom_site_fract_z
 _atom_site_occupancy
  Pm  Pm0  1  0.50000000  0.50000000  0.50000000  1
  Pm  Pm1  1  -0.00000000  0.00000000  0.00000000  1
  Ag  Ag0  1  0.25000100  0.25000100  0.25000100  1
  Ir  Ir0  1  0.75000000  0.75000000  0.75000000  1
loop_
_geom_bond_atom_site_label_1
_geom_bond_atom_site_label_2
_geom_bond_distance
_geom_bond_site_symmetry_2
Ag0 Pm0 3.107039 1_555
Ag0 Pm1 3.107044 1_655
Ag0 Pm1 3.107046 1_556
Ag0 Pm1 3.107048 1_565
Ag0 Pm0 3.107052 1_455
Ag0 Pm0 3.107055 1_554
Ag0 Pm0 3.107056 1_545
Ag0 Pm1 3.107064 1_555
Ir0 Pm0 3.107048 1_655
Ir0 Pm1 3.107048 1_566
Ir0 Pm0 3.107051 1_556
Ir0 Pm1 3.107051 1_665
Ir0 Pm0 3.107052 1_555
Ir0 Pm1 3.107052 1_666
Ir0 Pm1 3.107052 1_656
Ir0 Pm0 3.107052 1_565
