# generated using pymatgen
data_TaAlO4
_symmetry_space_group_name_H-M   'P 1'
_cell_length_a   4.47467203
_cell_length_b   4.75961423
_cell_length_c   11.28540017
_cell_angle_alpha   90.00000000
_cell_angle_beta   90.00000000
_cell_angle_gamma   90.00000000
_symmetry_Int_Tables_number   1
_chemical_formula_structural   TaAlO4
_chemical_formula_sum   'Ta4 Al4 O16'
_cell_volume   240.35321017
_cell_formula_units_Z   4
loop_
 _symmetry_equiv_pos_site_id
 _symmetry_equiv_pos_as_xyz
  1  'x, y, z'
loop_
 _atom_site_type_symbol
 _atom_site_label
 _atom_site_symmetry_multiplicity
 _atom_site_fract_x
 _atom_site_fract_y
 _atom_site_fract_z
 _atom_site_occupancy
  Ta  Ta0  1  0.50000000  0.75000000  0.66817492  1
  Ta  Ta1  1  0.00000000  0.25000000  0.83182508  1
  Ta  Ta2  1  0.50000000  0.25000000  0.33182508  1
  Ta  Ta3  1  0.00000000  0.75000000  0.16817492  1
  Al  Al0  1  0.50000000  0.75000000  0.93514798  1
  Al  Al1  1  0.00000000  0.25000000  0.56485202  1
  Al  Al2  1  0.50000000  0.25000000  0.06485202  1
  Al  Al3  1  0.00000000  0.75000000  0.43514798  1
  O  O0  1  0.73244136  0.42325487  0.94279934  1
  O  O1  1  0.23244136  0.57674513  0.55720066  1
  O  O2  1  0.76755864  0.92325487  0.55720066  1
  O  O3  1  0.26755864  0.07674513  0.94279934  1
  O  O4  1  0.26755864  0.57674513  0.05720066  1
  O  O5  1  0.76755864  0.42325487  0.44279934  1
  O  O6  1  0.23244136  0.07674513  0.44279934  1
  O  O7  1  0.73244136  0.92325487  0.05720066  1
  O  O8  1  0.77424604  0.91866106  0.31302277  1
  O  O9  1  0.27424604  0.08133894  0.18697723  1
  O  O10  1  0.72575396  0.41866106  0.18697723  1
  O  O11  1  0.22575396  0.58133894  0.31302277  1
  O  O12  1  0.22575396  0.08133894  0.68697723  1
  O  O13  1  0.72575396  0.91866106  0.81302277  1
  O  O14  1  0.27424604  0.58133894  0.81302277  1
  O  O15  1  0.77424604  0.41866106  0.68697723  1
loop_
_geom_bond_atom_site_label_1
_geom_bond_atom_site_label_2
_geom_bond_distance
_geom_bond_site_symmetry_2
Al0 O3 1.872925 1_565
Al0 O0 1.872925 1_555
Al0 O14 1.887963 1_555
Al0 O13 1.887963 1_555
Al0 O4 1.912873 1_556
Al0 O7 1.912873 1_556
Al1 O1 1.872925 1_555
Al1 O2 1.872925 1_445
Al1 O15 1.887963 1_455
Al1 O12 1.887963 1_555
Al1 O6 1.912873 1_555
Al1 O5 1.912873 1_455
Al2 O4 1.872925 1_555
Al2 O7 1.872925 1_545
Al2 O10 1.887963 1_555
Al2 O9 1.887963 1_555
Al2 O3 1.912873 1_554
Al2 O0 1.912873 1_554
Al3 O6 1.872925 1_565
Al3 O5 1.872925 1_455
Al3 O11 1.887963 1_555
Al3 O8 1.887963 1_455
Al3 O2 1.912873 1_455
Al3 O1 1.912873 1_555
O0 Ta1 1.918818 1_655
O1 Ta0 1.918818 1_555
O2 Ta0 1.918818 1_555
O3 Ta1 1.918818 1_555
O4 Ta3 1.918818 1_555
O5 Ta2 1.918818 1_555
O6 Ta2 1.918818 1_555
O7 Ta3 1.918818 1_655
O8 Ta2 2.009483 1_565
O8 Ta3 2.082549 1_655
O9 Ta3 2.009483 1_545
O9 Ta2 2.082549 1_555
O10 Ta3 2.009483 1_655
O10 Ta2 2.082549 1_555
O11 Ta2 2.009483 1_555
O11 Ta3 2.082549 1_555
O12 Ta0 2.009483 1_545
O12 Ta1 2.082549 1_555
O13 Ta1 2.009483 1_665
O13 Ta0 2.082549 1_555
O14 Ta1 2.009483 1_555
O14 Ta0 2.082549 1_555
O15 Ta0 2.009483 1_555
O15 Ta1 2.082549 1_655
