# generated using pymatgen
data_AgHgPd2
_symmetry_space_group_name_H-M   'P 1'
_cell_length_a   4.56989113
_cell_length_b   4.56989040
_cell_length_c   4.56989113
_cell_angle_alpha   60.00001587
_cell_angle_beta   60.00001065
_cell_angle_gamma   60.00001587
_symmetry_Int_Tables_number   1
_chemical_formula_structural   AgHgPd2
_chemical_formula_sum   'Ag1 Hg1 Pd2'
_cell_volume   67.48428238
_cell_formula_units_Z   1
loop_
 _symmetry_equiv_pos_site_id
 _symmetry_equiv_pos_as_xyz
  1  'x, y, z'
loop_
 _atom_site_type_symbol
 _atom_site_label
 _atom_site_symmetry_multiplicity
 _atom_site_fract_x
 _atom_site_fract_y
 _atom_site_fract_z
 _atom_site_occupancy
  Ag  Ag0  1  0.24999900  0.24999900  0.24999900  1
  Hg  Hg0  1  0.75000100  0.75000100  0.75000100  1
  Pd  Pd0  1  0.49999900  0.49999900  0.49999900  1
  Pd  Pd1  1  -0.00000000  0.00000000  0.00000000  1
loop_
_geom_bond_atom_site_label_1
_geom_bond_atom_site_label_2
_geom_bond_distance
_geom_bond_site_symmetry_2
Ag0 Pd1 2.798464 1_555
Ag0 Pd0 2.798475 1_555
Ag0 Pd0 2.798476 1_545
Ag0 Pd0 2.798476 1_455
Ag0 Pd0 2.798476 1_554
Ag0 Pd1 2.798479 1_565
Ag0 Pd1 2.798480 1_655
Ag0 Pd1 2.798480 1_556
Hg0 Pd1 2.798464 1_666
Hg0 Pd0 2.798468 1_565
Hg0 Pd0 2.798468 1_556
Hg0 Pd0 2.798468 1_655
Hg0 Pd1 2.798479 1_656
Hg0 Pd1 2.798480 1_566
Hg0 Pd1 2.798480 1_665
Hg0 Pd0 2.798497 1_555
