# generated using pymatgen
data_Mo3Os
_symmetry_space_group_name_H-M   'P 1'
_cell_length_a   4.97628644
_cell_length_b   4.97628644
_cell_length_c   4.97628644
_cell_angle_alpha   90.00000000
_cell_angle_beta   90.00000000
_cell_angle_gamma   90.00000000
_symmetry_Int_Tables_number   1
_chemical_formula_structural   Mo3Os
_chemical_formula_sum   'Mo6 Os2'
_cell_volume   123.22990466
_cell_formula_units_Z   2
loop_
 _symmetry_equiv_pos_site_id
 _symmetry_equiv_pos_as_xyz
  1  'x, y, z'
loop_
 _atom_site_type_symbol
 _atom_site_label
 _atom_site_symmetry_multiplicity
 _atom_site_fract_x
 _atom_site_fract_y
 _atom_site_fract_z
 _atom_site_occupancy
  Mo  Mo0  1  0.25000000  -0.00000000  0.50000000  1
  Mo  Mo1  1  0.75000000  -0.00000000  0.50000000  1
  Mo  Mo2  1  -0.00000000  0.50000000  0.25000000  1
  Mo  Mo3  1  -0.00000000  0.50000000  0.75000000  1
  Mo  Mo4  1  0.50000000  0.75000000  0.00000000  1
  Mo  Mo5  1  0.50000000  0.25000000  0.00000000  1
  Os  Os0  1  -0.00000000  -0.00000000  0.00000000  1
  Os  Os1  1  0.50000000  0.50000000  0.50000000  1
loop_
_geom_bond_atom_site_label_1
_geom_bond_atom_site_label_2
_geom_bond_distance
_geom_bond_site_symmetry_2
Mo0 Mo1 2.488143 1_455
Mo0 Mo1 2.488143 1_555
Mo0 Os0 2.781829 1_556
Mo0 Os0 2.781829 1_555
Mo0 Os1 2.781829 1_555
Mo0 Os1 2.781829 1_545
Mo0 Mo3 3.047341 1_545
Mo0 Mo3 3.047341 1_555
Mo0 Mo4 3.047341 1_545
Mo0 Mo2 3.047341 1_545
Mo0 Mo5 3.047341 1_556
Mo0 Mo5 3.047341 1_555
Mo0 Mo4 3.047341 1_546
Mo0 Mo2 3.047341 1_555
Mo1 Os0 2.781829 1_655
Mo1 Os0 2.781829 1_656
Mo1 Os1 2.781829 1_555
Mo1 Os1 2.781829 1_545
Mo1 Mo3 3.047341 1_645
Mo1 Mo4 3.047341 1_545
Mo1 Mo2 3.047341 1_655
Mo1 Mo5 3.047341 1_556
Mo1 Mo2 3.047341 1_645
Mo1 Mo4 3.047341 1_546
Mo1 Mo5 3.047341 1_555
Mo1 Mo3 3.047341 1_655
Mo2 Mo3 2.488143 1_554
Mo2 Mo3 2.488143 1_555
Mo2 Os1 2.781829 1_455
Mo2 Os0 2.781829 1_555
Mo2 Os1 2.781829 1_555
Mo2 Os0 2.781829 1_565
Mo2 Mo4 3.047341 1_555
Mo2 Mo4 3.047341 1_455
Mo2 Mo5 3.047341 1_555
Mo2 Mo5 3.047341 1_455
Mo3 Os1 2.781829 1_455
Mo3 Os1 2.781829 1_555
Mo3 Os0 2.781829 1_566
Mo3 Os0 2.781829 1_556
Mo3 Mo5 3.047341 1_456
Mo3 Mo4 3.047341 1_556
Mo3 Mo5 3.047341 1_556
Mo3 Mo4 3.047341 1_456
Mo4 Mo5 2.488143 1_555
Mo4 Mo5 2.488143 1_565
Mo4 Os0 2.781829 1_665
Mo4 Os0 2.781829 1_565
Mo4 Os1 2.781829 1_554
Mo4 Os1 2.781829 1_555
Mo5 Os0 2.781829 1_555
Mo5 Os0 2.781829 1_655
Mo5 Os1 2.781829 1_554
Mo5 Os1 2.781829 1_555
