# generated using pymatgen
data_Ti2NiIr
_symmetry_space_group_name_H-M   'P 1'
_cell_length_a   4.31500672
_cell_length_b   4.31500815
_cell_length_c   4.31500815
_cell_angle_alpha   59.99999989
_cell_angle_beta   59.99999995
_cell_angle_gamma   59.99999995
_symmetry_Int_Tables_number   1
_chemical_formula_structural   Ti2NiIr
_chemical_formula_sum   'Ti2 Ni1 Ir1'
_cell_volume   56.81064480
_cell_formula_units_Z   1
loop_
 _symmetry_equiv_pos_site_id
 _symmetry_equiv_pos_as_xyz
  1  'x, y, z'
loop_
 _atom_site_type_symbol
 _atom_site_label
 _atom_site_symmetry_multiplicity
 _atom_site_fract_x
 _atom_site_fract_y
 _atom_site_fract_z
 _atom_site_occupancy
  Ti  Ti0  1  0.00000000  0.00000000  -0.00000000  1
  Ti  Ti1  1  0.50000000  0.50000000  0.50000000  1
  Ni  Ni0  1  0.75000000  0.75000000  0.75000000  1
  Ir  Ir0  1  0.25000000  0.25000000  0.25000000  1
loop_
_geom_bond_atom_site_label_1
_geom_bond_atom_site_label_2
_geom_bond_distance
_geom_bond_site_symmetry_2
Ni0 Ti0 2.642391 1_566
Ni0 Ti1 2.642391 1_655
Ni0 Ti0 2.642392 1_666
Ni0 Ti1 2.642392 1_555
Ni0 Ti0 2.642392 1_665
Ni0 Ti0 2.642392 1_656
Ni0 Ti1 2.642392 1_556
Ni0 Ti1 2.642392 1_565
Ir0 Ti1 2.642391 1_455
Ir0 Ti0 2.642391 1_655
Ir0 Ti0 2.642392 1_555
Ir0 Ti1 2.642392 1_555
Ir0 Ti1 2.642392 1_545
Ir0 Ti1 2.642392 1_554
Ir0 Ti0 2.642392 1_556
Ir0 Ti0 2.642392 1_565
