# generated using pymatgen
data_KNa2BO3
_symmetry_space_group_name_H-M   'P 1'
_cell_length_a   5.53789069
_cell_length_b   5.57332288
_cell_length_c   5.96624965
_cell_angle_alpha   90.00000000
_cell_angle_beta   90.00000000
_cell_angle_gamma   90.00000000
_symmetry_Int_Tables_number   1
_chemical_formula_structural   KNa2BO3
_chemical_formula_sum   'K2 Na4 B2 O6'
_cell_volume   184.14503125
_cell_formula_units_Z   2
loop_
 _symmetry_equiv_pos_site_id
 _symmetry_equiv_pos_as_xyz
  1  'x, y, z'
loop_
 _atom_site_type_symbol
 _atom_site_label
 _atom_site_symmetry_multiplicity
 _atom_site_fract_x
 _atom_site_fract_y
 _atom_site_fract_z
 _atom_site_occupancy
  K  K0  1  0.92092156  0.50000000  0.50000000  1
  K  K1  1  0.07907844  0.00000000  0.00000000  1
  Na  Na0  1  0.37502995  0.50000000  0.77050891  1
  Na  Na1  1  0.37502995  0.50000000  0.22949109  1
  Na  Na2  1  0.62497005  0.00000000  0.72949109  1
  Na  Na3  1  0.62497005  0.00000000  0.27050891  1
  B  B0  1  0.79594243  0.50000000  0.00000000  1
  B  B1  1  0.20405757  0.00000000  0.50000000  1
  O  O0  1  0.66408454  0.28668319  0.00000000  1
  O  O1  1  0.33591546  0.21331681  0.50000000  1
  O  O2  1  0.04502979  0.50000000  0.00000000  1
  O  O3  1  0.95497021  0.00000000  0.50000000  1
  O  O4  1  0.33591546  0.78668319  0.50000000  1
  O  O5  1  0.66408454  0.71331681  0.00000000  1
loop_
_geom_bond_atom_site_label_1
_geom_bond_atom_site_label_2
_geom_bond_distance
_geom_bond_site_symmetry_2
K0 O3 2.793033 1_565
K0 O3 2.793033 1_555
K0 O4 2.799031 1_655
K0 O1 2.799031 1_655
K1 O2 2.793033 1_555
K1 O2 2.793033 1_545
K1 O5 2.799031 1_445
K1 O0 2.799031 1_455
Na0 O4 2.281352 1_555
Na0 O1 2.281352 1_555
Na0 O2 2.283525 1_556
Na0 O5 2.418794 1_556
Na0 O0 2.418794 1_556
Na1 O4 2.281352 1_555
Na1 O1 2.281352 1_555
Na1 O2 2.283525 1_555
Na1 O5 2.418794 1_555
Na1 O0 2.418794 1_555
Na2 O5 2.281352 1_546
Na2 O0 2.281352 1_556
Na2 O3 2.283525 1_555
Na2 O1 2.418794 1_555
Na2 O4 2.418794 1_545
Na3 O0 2.281352 1_555
Na3 O5 2.281352 1_545
Na3 O3 2.283525 1_555
Na3 O1 2.418794 1_555
Na3 O4 2.418794 1_545
B0 O2 1.379419 1_655
B0 O0 1.395227 1_555
B0 O5 1.395227 1_555
B1 O3 1.379419 1_455
B1 O1 1.395227 1_555
B1 O4 1.395227 1_545
