# generated using pymatgen
data_HoCoSi2
_symmetry_space_group_name_H-M   'P 1'
_cell_length_a   3.93451903
_cell_length_b   3.98869005
_cell_length_c   8.33130025
_cell_angle_alpha   103.84993730
_cell_angle_beta   90.00000000
_cell_angle_gamma   90.00000000
_symmetry_Int_Tables_number   1
_chemical_formula_structural   HoCoSi2
_chemical_formula_sum   'Ho2 Co2 Si4'
_cell_volume   126.94653834
_cell_formula_units_Z   2
loop_
 _symmetry_equiv_pos_site_id
 _symmetry_equiv_pos_as_xyz
  1  'x, y, z'
loop_
 _atom_site_type_symbol
 _atom_site_label
 _atom_site_symmetry_multiplicity
 _atom_site_fract_x
 _atom_site_fract_y
 _atom_site_fract_z
 _atom_site_occupancy
  Ho  Ho0  1  0.25000000  0.89160603  0.78321407  1
  Ho  Ho1  1  0.75000000  0.10839397  0.21678593  1
  Co  Co0  1  0.25000000  0.67861392  0.35722585  1
  Co  Co1  1  0.75000000  0.32138608  0.64277415  1
  Si  Si0  1  0.75000000  0.74976583  0.49952965  1
  Si  Si1  1  0.25000000  0.25023417  0.50047035  1
  Si  Si2  1  0.75000000  0.45705677  0.91411253  1
  Si  Si3  1  0.25000000  0.54294323  0.08588747  1
loop_
_geom_bond_atom_site_label_1
_geom_bond_atom_site_label_2
_geom_bond_distance
_geom_bond_site_symmetry_2
Ho0 Si2 2.994771 1_555
Ho0 Si2 2.994771 1_455
Ho0 Si2 2.994780 1_565
Ho0 Si2 2.994780 1_465
Ho0 Si0 3.022576 1_555
Ho0 Si0 3.022576 1_455
Ho0 Si1 3.034535 1_565
Ho0 Si1 3.034535 1_555
Ho0 Si3 3.157818 1_556
Ho0 Si3 3.157820 1_566
Ho1 Si3 2.994771 1_555
Ho1 Si3 2.994771 1_655
Ho1 Si3 2.994780 1_545
Ho1 Si3 2.994780 1_645
Ho1 Si1 3.022576 1_555
Ho1 Si1 3.022576 1_655
Ho1 Si0 3.034535 1_545
Ho1 Si0 3.034535 1_555
Ho1 Si2 3.157818 1_554
Ho1 Si2 3.157820 1_544
Co0 Si3 2.194877 1_555
Co0 Si0 2.279288 1_555
Co0 Si0 2.279288 1_455
Co0 Si1 2.306513 1_565
Co0 Si1 2.306527 1_555
Co0 Ho1 3.022926 1_555
Co0 Ho1 3.022926 1_455
Co0 Ho1 3.022926 1_565
Co0 Ho1 3.022926 1_465
Co1 Si2 2.194877 1_555
Co1 Si1 2.279288 1_655
Co1 Si1 2.279288 1_555
Co1 Si0 2.306513 1_545
Co1 Si0 2.306527 1_555
Co1 Ho0 3.022926 1_655
Co1 Ho0 3.022926 1_555
Co1 Ho0 3.022926 1_545
Co1 Ho0 3.022926 1_645
Si2 Si3 2.408490 1_656
Si2 Si3 2.408490 1_556
