# generated using pymatgen
data_Na7V2O6
_symmetry_space_group_name_H-M   'P 1'
_cell_length_a   8.16193235
_cell_length_b   8.16193235
_cell_length_c   10.69702024
_cell_angle_alpha   76.37890847
_cell_angle_beta   76.37890847
_cell_angle_gamma   41.86833641
_symmetry_Int_Tables_number   1
_chemical_formula_structural   Na7V2O6
_chemical_formula_sum   'Na14 V4 O12'
_cell_volume   460.24060895
_cell_formula_units_Z   2
loop_
 _symmetry_equiv_pos_site_id
 _symmetry_equiv_pos_as_xyz
  1  'x, y, z'
loop_
 _atom_site_type_symbol
 _atom_site_label
 _atom_site_symmetry_multiplicity
 _atom_site_fract_x
 _atom_site_fract_y
 _atom_site_fract_z
 _atom_site_occupancy
  Na  Na0  1  0.30283100  0.57425000  0.14997900  1
  Na  Na1  1  0.42397100  0.23790000  0.40642500  1
  Na  Na2  1  0.57425000  0.30283100  0.64997900  1
  Na  Na3  1  0.81200700  0.73494800  0.30764400  1
  Na  Na4  1  0.23790000  0.42397100  0.90642500  1
  Na  Na5  1  0.26505200  0.18799300  0.19235600  1
  Na  Na6  1  0.73494800  0.81200700  0.80764400  1
  Na  Na7  1  0.76210000  0.57602900  0.09357500  1
  Na  Na8  1  0.18799300  0.26505200  0.69235600  1
  Na  Na9  1  0.42575000  0.69716900  0.35002100  1
  Na  Na10  1  0.57602900  0.76210000  0.59357500  1
  Na  Na11  1  0.92195900  0.07804100  0.25000000  1
  Na  Na12  1  0.69716900  0.42575000  0.85002100  1
  Na  Na13  1  0.07804100  0.92195900  0.75000000  1
  V  V0  1  0.77090200  0.99250700  0.03552200  1
  V  V1  1  0.99250700  0.77090200  0.53552200  1
  V  V2  1  0.00749300  0.22909800  0.46447800  1
  V  V3  1  0.22909800  0.00749300  0.96447800  1
  O  O0  1  0.14181100  0.67197600  0.37453600  1
  O  O1  1  0.60582100  0.14591600  0.18948100  1
  O  O2  1  0.67197600  0.14181100  0.87453600  1
  O  O3  1  0.99091600  0.65676100  0.08422700  1
  O  O4  1  0.14591600  0.60582100  0.68948100  1
  O  O5  1  0.34323900  0.00908400  0.41577300  1
  O  O6  1  0.65676100  0.99091600  0.58422700  1
  O  O7  1  0.85408400  0.39417900  0.31051900  1
  O  O8  1  0.00908400  0.34323900  0.91577300  1
  O  O9  1  0.32802400  0.85818900  0.12546400  1
  O  O10  1  0.39417900  0.85408400  0.81051900  1
  O  O11  1  0.85818900  0.32802400  0.62546400  1
loop_
_geom_bond_atom_site_label_1
_geom_bond_atom_site_label_2
_geom_bond_distance
_geom_bond_site_symmetry_2
Na0 O1 2.331602 1_555
Na0 O3 2.344413 1_455
Na0 O9 2.424851 1_555
Na0 O0 2.446985 1_555
Na1 O6 2.341559 1_545
Na1 O0 2.370859 1_555
Na1 O5 2.376103 1_555
Na1 O1 2.385526 1_555
Na2 O4 2.331602 1_555
Na2 O6 2.344413 1_545
Na2 O11 2.424851 1_555
Na2 O2 2.446985 1_555
Na3 O3 2.436781 1_555
Na3 O1 2.505740 1_565
Na3 O7 2.529183 1_555
Na3 O0 2.587580 1_655
Na3 O5 2.714300 1_565
Na4 O3 2.341559 1_456
Na4 O2 2.370859 1_555
Na4 O8 2.376103 1_555
Na4 O4 2.385526 1_555
Na5 O5 2.436781 1_555
Na5 O7 2.505740 1_455
Na5 O1 2.529183 1_555
Na5 O9 2.587580 1_545
Na5 O3 2.714300 1_455
Na6 O6 2.436781 1_555
Na6 O4 2.505740 1_655
Na6 O10 2.529183 1_555
Na6 O2 2.587580 1_565
Na6 O8 2.714300 1_655
Na7 O8 2.341559 1_654
Na7 O9 2.370859 1_555
Na7 O3 2.376103 1_555
Na7 O7 2.385526 1_555
Na8 O8 2.436781 1_555
Na8 O10 2.505740 1_545
Na8 O4 2.529183 1_555
Na8 O11 2.587580 1_455
Na8 O6 2.714300 1_545
Na9 O7 2.331602 1_555
Na9 O5 2.344413 1_565
Na9 O0 2.424851 1_555
Na9 O9 2.446985 1_555
Na10 O5 2.341559 1_565
Na10 O11 2.370859 1_555
Na10 O6 2.376103 1_555
Na10 O10 2.385526 1_555
Na11 O1 2.423384 1_555
Na11 O7 2.423384 1_555
Na11 O0 2.483518 1_645
Na11 O9 2.483518 1_645
Na12 O10 2.331602 1_555
Na12 O8 2.344413 1_655
Na12 O2 2.424851 1_555
Na12 O11 2.446985 1_555
Na13 O4 2.423384 1_555
Na13 O10 2.423384 1_555
Na13 O2 2.483518 1_465
Na13 O11 2.483518 1_465
O0 V1 1.817561 1_455
O1 V0 1.873220 1_545
O2 V0 1.817561 1_546
O3 V0 1.855997 1_555
O4 V1 1.873220 1_455
O5 V2 1.855997 1_555
O6 V1 1.855997 1_555
O7 V2 1.873220 1_655
O8 V3 1.855997 1_555
O9 V3 1.817561 1_564
O10 V3 1.873220 1_565
O11 V2 1.817561 1_655
