# generated using pymatgen
data_NaAlSiO4
_symmetry_space_group_name_H-M   'P 1'
_cell_length_a   7.31278106
_cell_length_b   7.31278106
_cell_length_c   7.31278106
_cell_angle_alpha   90.00000000
_cell_angle_beta   90.00000000
_cell_angle_gamma   90.00000000
_symmetry_Int_Tables_number   1
_chemical_formula_structural   NaAlSiO4
_chemical_formula_sum   'Na4 Al4 Si4 O16'
_cell_volume   391.06388764
_cell_formula_units_Z   4
loop_
 _symmetry_equiv_pos_site_id
 _symmetry_equiv_pos_as_xyz
  1  'x, y, z'
loop_
 _atom_site_type_symbol
 _atom_site_label
 _atom_site_symmetry_multiplicity
 _atom_site_fract_x
 _atom_site_fract_y
 _atom_site_fract_z
 _atom_site_occupancy
  Na  Na0  1  0.22736420  0.27263580  0.72736420  1
  Na  Na1  1  0.27263580  0.72736420  0.22736420  1
  Na  Na2  1  0.72736420  0.22736420  0.27263580  1
  Na  Na3  1  0.77263580  0.77263580  0.77263580  1
  Al  Al0  1  0.71525679  0.78474321  0.21525679  1
  Al  Al1  1  0.78474321  0.21525679  0.71525679  1
  Al  Al2  1  0.21525679  0.71525679  0.78474321  1
  Al  Al3  1  0.28474321  0.28474321  0.28474321  1
  Si  Si0  1  0.97721110  0.52278890  0.47721110  1
  Si  Si1  1  0.52278890  0.47721110  0.97721110  1
  Si  Si2  1  0.47721110  0.97721110  0.52278890  1
  Si  Si3  1  0.02278890  0.02278890  0.02278890  1
  O  O0  1  0.87166547  0.33398582  0.52691749  1
  O  O1  1  0.37166547  0.16601418  0.47308251  1
  O  O2  1  0.12833453  0.83398582  0.97308251  1
  O  O3  1  0.16601418  0.47308251  0.37166547  1
  O  O4  1  0.97308251  0.12833453  0.83398582  1
  O  O5  1  0.47308251  0.37166547  0.16601418  1
  O  O6  1  0.33398582  0.52691749  0.87166547  1
  O  O7  1  0.52691749  0.87166547  0.33398582  1
  O  O8  1  0.83398582  0.97308251  0.12833453  1
  O  O9  1  0.66601418  0.02691749  0.62833453  1
  O  O10  1  0.02691749  0.62833453  0.66601418  1
  O  O11  1  0.62833453  0.66601418  0.02691749  1
  O  O12  1  0.14898513  0.14898513  0.14898513  1
  O  O13  1  0.35101487  0.85101487  0.64898513  1
  O  O14  1  0.64898513  0.35101487  0.85101487  1
  O  O15  1  0.85101487  0.64898513  0.35101487  1
loop_
_geom_bond_atom_site_label_1
_geom_bond_atom_site_label_2
_geom_bond_distance
_geom_bond_site_symmetry_2
Na0 O4 2.275793 1_455
Na0 O1 2.275793 1_555
Na0 O6 2.275793 1_555
Na1 O3 2.275793 1_555
Na1 O2 2.275793 1_554
Na1 O7 2.275793 1_555
Na2 O5 2.275793 1_555
Na2 O8 2.275793 1_545
Na2 O0 2.275793 1_555
Na3 O10 2.275793 1_655
Na3 O9 2.275793 1_565
Na3 O11 2.275793 1_556
Al0 O15 1.719527 1_555
Al0 O7 1.747797 1_555
Al0 O8 1.747797 1_555
Al0 O11 1.747797 1_555
Al1 O14 1.719527 1_555
Al1 O4 1.747797 1_555
Al1 O0 1.747797 1_555
Al1 O9 1.747797 1_555
Al2 O13 1.719527 1_555
Al2 O6 1.747797 1_555
Al2 O2 1.747797 1_555
Al2 O10 1.747797 1_555
Al3 O12 1.719527 1_555
Al3 O1 1.747797 1_555
Al3 O3 1.747797 1_555
Al3 O5 1.747797 1_555
O0 Si0 1.622996 1_555
O1 Si2 1.622996 1_545
O2 Si3 1.622996 1_566
O3 Si0 1.622996 1_455
O4 Si3 1.622996 1_656
O5 Si1 1.622996 1_554
O6 Si1 1.622996 1_555
O7 Si2 1.622996 1_555
O8 Si3 1.622996 1_665
O9 Si2 1.622996 1_545
O10 Si0 1.622996 1_455
O11 Si1 1.622996 1_554
O12 Si3 1.598415 1_555
O13 Si2 1.598415 1_555
O14 Si1 1.598415 1_555
O15 Si0 1.598415 1_555
