# generated using pymatgen
data_Li2FeCo3O8
_symmetry_space_group_name_H-M   'P 1'
_cell_length_a   5.75302753
_cell_length_b   5.82539009
_cell_length_c   9.90980887
_cell_angle_alpha   106.40688263
_cell_angle_beta   90.01376291
_cell_angle_gamma   60.42083435
_symmetry_Int_Tables_number   1
_chemical_formula_structural   Li2FeCo3O8
_chemical_formula_sum   'Li4 Fe2 Co6 O16'
_cell_volume   273.18621982
_cell_formula_units_Z   2
loop_
 _symmetry_equiv_pos_site_id
 _symmetry_equiv_pos_as_xyz
  1  'x, y, z'
loop_
 _atom_site_type_symbol
 _atom_site_label
 _atom_site_symmetry_multiplicity
 _atom_site_fract_x
 _atom_site_fract_y
 _atom_site_fract_z
 _atom_site_occupancy
  Li  Li0  1  0.68467400  0.63072500  0.43481300  1
  Li  Li1  1  0.18390100  0.63216300  0.93542400  1
  Li  Li2  1  0.81531900  0.36928800  0.06518300  1
  Li  Li3  1  0.31609600  0.36784200  0.56457700  1
  Fe  Fe0  1  0.75002000  0.49995500  0.74982300  1
  Fe  Fe1  1  0.24999600  0.50001600  0.25013900  1
  Co  Co0  1  0.00012800  0.99978700  0.49988800  1
  Co  Co1  1  0.24997100  0.00001100  0.25000700  1
  Co  Co2  1  0.75001900  0.00000700  0.25001000  1
  Co  Co3  1  0.49989100  0.00017500  0.00007100  1
  Co  Co4  1  0.74999600  0.99999300  0.75003100  1
  Co  Co5  1  0.25001300  0.99999300  0.75002900  1
  O  O0  1  0.60416300  0.79161200  0.13173000  1
  O  O1  1  0.10428900  0.79149400  0.63256700  1
  O  O2  1  0.89583300  0.20839700  0.36827600  1
  O  O3  1  0.39571500  0.20849700  0.86744100  1
  O  O4  1  0.38060600  0.78041000  0.87011400  1
  O  O5  1  0.88292800  0.77802600  0.36864500  1
  O  O6  1  0.60710500  0.78584200  0.64463300  1
  O  O7  1  0.10596600  0.78796300  0.14490200  1
  O  O8  1  0.83865600  0.78081000  0.87022200  1
  O  O9  1  0.33905800  0.77814400  0.36868700  1
  O  O10  1  0.66126700  0.21913900  0.62973300  1
  O  O11  1  0.16099200  0.22190600  0.13135400  1
  O  O12  1  0.89287100  0.21420400  0.85530900  1
  O  O13  1  0.39402900  0.21204000  0.35515900  1
  O  O14  1  0.11952000  0.21954000  0.62984100  1
  O  O15  1  0.61697600  0.22202200  0.13139400  1
loop_
_geom_bond_atom_site_label_1
_geom_bond_atom_site_label_2
_geom_bond_distance
_geom_bond_site_symmetry_2
Li0 O5 1.936900 1_555
Li0 O9 1.936985 1_555
Li0 O6 1.969772 1_555
Li0 O2 2.024011 1_555
Li1 O4 1.930346 1_555
Li1 O8 1.931271 1_455
Li1 O7 1.966834 1_556
Li1 O3 2.030247 1_555
Li2 O15 1.937342 1_555
Li2 O11 1.937449 1_655
Li2 O12 1.970258 1_554
Li2 O0 2.023990 1_555
Li3 O14 1.929803 1_555
Li3 O10 1.930729 1_555
Li3 O13 1.966284 1_555
Li3 O1 2.030179 1_555
Fe0 O14 2.019091 1_655
Fe0 O10 2.019303 1_555
Fe0 O4 2.019903 1_555
Fe0 O8 2.020144 1_555
Fe0 O6 2.040752 1_555
Fe0 O12 2.042324 1_555
Fe1 O9 2.002934 1_555
Fe1 O5 2.002957 1_455
Fe1 O15 2.003464 1_555
Fe1 O11 2.003477 1_555
Fe1 O13 2.048779 1_555
Fe1 O7 2.050240 1_555
Co0 O10 1.924064 1_465
Co0 O14 1.924931 1_565
Co0 O2 1.926918 1_465
Co0 O5 1.930125 1_455
Co0 O9 1.930527 1_555
Co0 O1 1.934735 1_555
Co1 O11 1.876316 1_555
Co1 O9 1.876374 1_545
Co1 O7 1.892137 1_545
Co1 O13 1.892460 1_555
Co1 O2 1.937485 1_455
Co1 O0 1.937745 1_545
Co2 O5 1.876490 1_545
Co2 O15 1.876519 1_555
Co2 O7 1.892372 1_645
Co2 O13 1.892711 1_555
Co2 O2 1.937040 1_555
Co2 O0 1.937299 1_545
Co3 O8 1.923703 1_544
Co3 O4 1.924574 1_544
Co3 O0 1.927133 1_545
Co3 O15 1.930386 1_555
Co3 O11 1.930790 1_555
Co3 O3 1.934431 1_554
Co4 O8 1.877488 1_555
Co4 O10 1.878183 1_565
Co4 O12 1.896837 1_565
Co4 O6 1.897090 1_555
Co4 O3 1.934425 1_565
Co4 O1 1.934705 1_655
Co5 O4 1.878179 1_555
Co5 O14 1.878846 1_565
Co5 O12 1.897778 1_465
Co5 O6 1.897990 1_555
Co5 O3 1.933401 1_565
Co5 O1 1.933686 1_555
