# generated using pymatgen
data_V2(OF)3
_symmetry_space_group_name_H-M   'P 1'
_cell_length_a   5.18526400
_cell_length_b   5.24953512
_cell_length_c   5.34885274
_cell_angle_alpha   119.19009683
_cell_angle_beta   89.76991016
_cell_angle_gamma   119.42559147
_symmetry_Int_Tables_number   1
_chemical_formula_structural   V2(OF)3
_chemical_formula_sum   'V2 O3 F3'
_cell_volume   105.26166219
_cell_formula_units_Z   1
loop_
 _symmetry_equiv_pos_site_id
 _symmetry_equiv_pos_as_xyz
  1  'x, y, z'
loop_
 _atom_site_type_symbol
 _atom_site_label
 _atom_site_symmetry_multiplicity
 _atom_site_fract_x
 _atom_site_fract_y
 _atom_site_fract_z
 _atom_site_occupancy
  V  V0  1  0.98366500  0.05376700  0.97761300  1
  V  V1  1  0.49031700  0.08842700  0.45640400  1
  O  O0  1  0.18682700  0.41052200  0.26076600  1
  O  O1  1  0.74950000  0.54380900  0.26584100  1
  O  O2  1  0.82568500  0.55038000  0.75922500  1
  F  F0  1  0.33934600  0.98378100  0.26224000  1
  F  F1  1  0.26062900  0.41309400  0.75109400  1
  F  F2  1  0.66402800  0.95622100  0.76681800  1
loop_
_geom_bond_atom_site_label_1
_geom_bond_atom_site_label_2
_geom_bond_distance
_geom_bond_site_symmetry_2
O0 V0 1.489475 1_454
O1 V1 2.787256 1_555
O2 V1 1.891034 1_555
O2 V0 1.971892 1_565
F0 V1 1.010282 1_565
F1 V1 2.483313 1_555
F1 V0 2.577233 1_455
F2 V0 1.702466 1_565
F2 V1 2.408326 1_565
