# generated using pymatgen
data_Li2VCrP2(O4F)2
_symmetry_space_group_name_H-M   'P 1'
_cell_length_a   5.22180400
_cell_length_b   7.35667272
_cell_length_c   10.53249195
_cell_angle_alpha   104.06124619
_cell_angle_beta   97.67226065
_cell_angle_gamma   108.59851059
_symmetry_Int_Tables_number   1
_chemical_formula_structural   Li2VCrP2(O4F)2
_chemical_formula_sum   'Li4 V2 Cr2 P4 O16 F4'
_cell_volume   362.05803223
_cell_formula_units_Z   2
loop_
 _symmetry_equiv_pos_site_id
 _symmetry_equiv_pos_as_xyz
  1  'x, y, z'
loop_
 _atom_site_type_symbol
 _atom_site_label
 _atom_site_symmetry_multiplicity
 _atom_site_fract_x
 _atom_site_fract_y
 _atom_site_fract_z
 _atom_site_occupancy
  Li  Li0  1  0.53795200  0.62015700  0.80793600  1
  Li  Li1  1  0.03682400  0.11781200  0.30728700  1
  Li  Li2  1  0.96317600  0.88218800  0.69271300  1
  Li  Li3  1  0.46204800  0.37984300  0.19206400  1
  V  V0  1  0.50000000  0.50000000  0.50000000  1
  V  V1  1  0.00000000  0.50000000  0.00000000  1
  Cr  Cr0  1  0.00000000  0.00000000  0.00000000  1
  Cr  Cr1  1  0.50000000  0.00000000  0.50000000  1
  P  P0  1  0.49712500  0.05773700  0.82046700  1
  P  P1  1  0.99870500  0.55950000  0.32070400  1
  P  P2  1  0.00129500  0.44050000  0.67929600  1
  P  P3  1  0.50287500  0.94226300  0.17953300  1
  O  O0  1  0.70718000  0.94623800  0.83316000  1
  O  O1  1  0.20369700  0.44433700  0.33275400  1
  O  O2  1  0.64003000  0.28451900  0.89314700  1
  O  O3  1  0.36285400  0.01217200  0.66997100  1
  O  O4  1  0.14149600  0.78468700  0.39320900  1
  O  O5  1  0.86228400  0.51499400  0.17052300  1
  O  O6  1  0.24386500  0.96005000  0.87593100  1
  O  O7  1  0.74410900  0.46169200  0.37617100  1
  O  O8  1  0.25589100  0.53830800  0.62382900  1
  O  O9  1  0.75613500  0.03995000  0.12406900  1
  O  O10  1  0.13771600  0.48500600  0.82947700  1
  O  O11  1  0.85850400  0.21531300  0.60679100  1
  O  O12  1  0.63714600  0.98782800  0.33002900  1
  O  O13  1  0.35997000  0.71548100  0.10685300  1
  O  O14  1  0.79630300  0.55566300  0.66724600  1
  O  O15  1  0.29282000  0.05376200  0.16684000  1
  F  F0  1  0.83531400  0.70556900  0.96411300  1
  F  F1  1  0.33553900  0.19651400  0.46432000  1
  F  F2  1  0.66446100  0.80348600  0.53568000  1
  F  F3  1  0.16468600  0.29443100  0.03588700  1
loop_
_geom_bond_atom_site_label_1
_geom_bond_atom_site_label_2
_geom_bond_distance
_geom_bond_site_symmetry_2
Li0 O10 2.078146 1_555
Li0 O8 2.096752 1_555
Li0 O14 2.200290 1_555
Li0 O0 2.209414 1_555
Li1 O12 2.073473 1_445
Li1 O9 2.091033 1_455
Li1 O15 2.188203 1_555
Li1 O1 2.211525 1_555
Li2 O3 2.073473 1_665
Li2 O6 2.091033 1_655
Li2 O0 2.188203 1_555
Li2 O14 2.211525 1_555
Li3 O5 2.078146 1_555
Li3 O7 2.096752 1_555
Li3 O1 2.200290 1_555
Li3 O15 2.209414 1_555
Cr0 F3 1.975175 1_555
Cr0 F0 1.975175 1_444
Cr0 O6 1.977878 1_544
Cr0 O9 1.977878 1_455
Cr0 O0 2.035044 1_444
Cr0 O15 2.035044 1_555
Cr1 F2 1.984567 1_545
Cr1 F1 1.984567 1_555
Cr1 O11 1.989785 1_555
Cr1 O4 1.989785 1_545
Cr1 O12 2.007762 1_545
Cr1 O3 2.007762 1_555
O0 P0 1.575389 1_565
O1 P1 1.572942 1_455
O1 V0 2.045037 1_555
O2 P0 1.535914 1_555
O2 V1 1.995076 1_656
O3 P0 1.552946 1_555
O4 P1 1.526061 1_455
O5 P1 1.554152 1_555
O5 V1 2.013514 1_655
O6 P0 1.552645 1_565
O7 P1 1.558183 1_555
O7 V0 1.974769 1_555
O8 P2 1.558183 1_555
O8 V0 1.974769 1_555
O9 P3 1.552645 1_545
O10 P2 1.554152 1_555
O10 V1 2.013514 1_556
O11 P2 1.526061 1_655
O12 P3 1.552946 1_555
O13 P3 1.535914 1_555
O13 V1 1.995076 1_555
O14 P2 1.572942 1_655
O14 V0 2.045037 1_555
O15 P3 1.575389 1_545
F0 Li0 1.924866 1_555
F0 V1 2.046946 1_656
F1 Li1 1.942573 1_555
F1 V0 2.036308 1_555
F2 Li2 1.942573 1_555
F2 V0 2.036308 1_555
F3 Li3 1.924866 1_555
F3 V1 2.046946 1_555
