# generated using pymatgen
data_Li5Mn2(PO4)3
_symmetry_space_group_name_H-M   'P 1'
_cell_length_a   8.88905000
_cell_length_b   8.73199300
_cell_length_c   15.19423200
_cell_angle_alpha   55.95815112
_cell_angle_beta   90.00000000
_cell_angle_gamma   90.00000000
_symmetry_Int_Tables_number   1
_chemical_formula_structural   Li5Mn2(PO4)3
_chemical_formula_sum   'Li20 Mn8 P12 O48'
_cell_volume   977.25424599
_cell_formula_units_Z   4
loop_
 _symmetry_equiv_pos_site_id
 _symmetry_equiv_pos_as_xyz
  1  'x, y, z'
loop_
 _atom_site_type_symbol
 _atom_site_label
 _atom_site_symmetry_multiplicity
 _atom_site_fract_x
 _atom_site_fract_y
 _atom_site_fract_z
 _atom_site_occupancy
  Li  Li0  1  0.90112800  0.60965700  0.30850400  1
  Li  Li1  1  0.27495900  0.62523800  0.25301000  1
  Li  Li2  1  0.32471700  0.86849400  0.03560400  1
  Li  Li3  1  0.47653300  0.27836900  0.64836400  1
  Li  Li4  1  0.22543300  0.98113800  0.81915600  1
  Li  Li5  1  0.72543300  0.01886200  0.68084400  1
  Li  Li6  1  0.82471700  0.13150600  0.46439600  1
  Li  Li7  1  0.77495900  0.37476200  0.24699000  1
  Li  Li8  1  0.40112800  0.39034300  0.19149600  1
  Li  Li9  1  0.97653300  0.72163100  0.85163600  1
  Li  Li10  1  0.02346700  0.27836900  0.14836400  1
  Li  Li11  1  0.59887200  0.60965700  0.80850400  1
  Li  Li12  1  0.22504100  0.62523800  0.75301000  1
  Li  Li13  1  0.17528300  0.86849400  0.53560400  1
  Li  Li14  1  0.27456700  0.98113800  0.31915600  1
  Li  Li15  1  0.77456700  0.01886200  0.18084400  1
  Li  Li16  1  0.52346700  0.72163100  0.35163600  1
  Li  Li17  1  0.67528300  0.13150600  0.96439600  1
  Li  Li18  1  0.72504100  0.37476200  0.74699000  1
  Li  Li19  1  0.09887200  0.39034300  0.69149600  1
  Mn  Mn0  1  0.95703800  0.66128000  0.09631500  1
  Mn  Mn1  1  0.45703800  0.33872000  0.40368500  1
  Mn  Mn2  1  0.05035400  0.14754400  0.60596300  1
  Mn  Mn3  1  0.55035400  0.85245600  0.89403700  1
  Mn  Mn4  1  0.44964600  0.14754400  0.10596300  1
  Mn  Mn5  1  0.94964600  0.85245600  0.39403700  1
  Mn  Mn6  1  0.54296200  0.66128000  0.59631500  1
  Mn  Mn7  1  0.04296200  0.33872000  0.90368500  1
  P  P0  1  0.74835900  0.43776000  0.50645900  1
  P  P1  1  0.61102000  0.74507900  0.15287300  1
  P  P2  1  0.89287800  0.05444800  0.84261800  1
  P  P3  1  0.11102000  0.25492100  0.34712700  1
  P  P4  1  0.39287800  0.94555200  0.65738200  1
  P  P5  1  0.24835900  0.56224000  0.99354100  1
  P  P6  1  0.75164100  0.43776000  0.00645900  1
  P  P7  1  0.60712200  0.05444800  0.34261800  1
  P  P8  1  0.88898000  0.74507900  0.65287300  1
  P  P9  1  0.10712200  0.94555200  0.15738200  1
  P  P10  1  0.38898000  0.25492100  0.84712700  1
  P  P11  1  0.25164100  0.56224000  0.49354100  1
  O  O0  1  0.13310200  0.41029400  0.55583200  1
  O  O1  1  0.13629900  0.80309000  0.12689300  1
  O  O2  1  0.31514600  0.57251200  0.39480000  1
  O  O3  1  0.40671200  0.12777400  0.80540000  1
  O  O4  1  0.62020900  0.48398200  0.42590900  1
  O  O5  1  0.60772500  0.86587300  0.02957100  1
  O  O6  1  0.76602700  0.64453700  0.19151600  1
  O  O7  1  0.01954500  0.13361400  0.75705900  1
  O  O8  1  0.74004600  0.03586300  0.80036200  1
  O  O9  1  0.81536900  0.24255600  0.54585700  1
  O  O10  1  0.47889600  0.60385500  0.19779900  1
  O  O11  1  0.94802800  0.86297100  0.93443300  1
  O  O12  1  0.97889600  0.39614500  0.30220100  1
  O  O13  1  0.44802800  0.13702900  0.56556700  1
  O  O14  1  0.26602700  0.35546300  0.30848400  1
  O  O15  1  0.10772500  0.13412700  0.47042900  1
  O  O16  1  0.31536900  0.75744400  0.95414300  1
  O  O17  1  0.24004600  0.96413700  0.69963800  1
  O  O18  1  0.51954500  0.86638600  0.74294100  1
  O  O19  1  0.12020900  0.51601800  0.07409100  1
  O  O20  1  0.81514600  0.42748800  0.10520000  1
  O  O21  1  0.63629900  0.19691000  0.37310700  1
  O  O22  1  0.90671200  0.87222600  0.69460000  1
  O  O23  1  0.63310200  0.58970600  0.94416800  1
  O  O24  1  0.36689800  0.41029400  0.05583200  1
  O  O25  1  0.09328800  0.12777400  0.30540000  1
  O  O26  1  0.36370100  0.80309000  0.62689300  1
  O  O27  1  0.18485400  0.57251200  0.89480000  1
  O  O28  1  0.87979100  0.48398200  0.92590900  1
  O  O29  1  0.48045500  0.13361400  0.25705900  1
  O  O30  1  0.75995400  0.03586300  0.30036200  1
  O  O31  1  0.68463100  0.24255600  0.04585700  1
  O  O32  1  0.89227500  0.86587300  0.52957100  1
  O  O33  1  0.73397300  0.64453700  0.69151600  1
  O  O34  1  0.55197200  0.86297100  0.43443300  1
  O  O35  1  0.02110400  0.60385500  0.69779900  1
  O  O36  1  0.05197200  0.13702900  0.06556700  1
  O  O37  1  0.52110400  0.39614500  0.80220100  1
  O  O38  1  0.18463100  0.75744400  0.45414300  1
  O  O39  1  0.25995400  0.96413700  0.19963800  1
  O  O40  1  0.98045500  0.86638600  0.24294100  1
  O  O41  1  0.23397300  0.35546300  0.80848400  1
  O  O42  1  0.39227500  0.13412700  0.97042900  1
  O  O43  1  0.37979100  0.51601800  0.57409100  1
  O  O44  1  0.59328800  0.87222600  0.19460000  1
  O  O45  1  0.68485400  0.42748800  0.60520000  1
  O  O46  1  0.86370100  0.19691000  0.87310700  1
  O  O47  1  0.86689800  0.58970600  0.44416800  1
loop_
_geom_bond_atom_site_label_1
_geom_bond_atom_site_label_2
_geom_bond_distance
_geom_bond_site_symmetry_2
Li0 O47 1.992455 1_555
Li0 O40 2.003695 1_555
Li0 O6 2.022002 1_555
Li0 O12 2.040314 1_555
Li1 O2 1.967349 1_555
Li1 O14 2.010703 1_555
Li1 O10 2.049446 1_555
Li1 O1 2.066682 1_555
Li2 O16 1.955238 1_554
Li2 O42 2.037086 1_564
Li2 O1 2.041656 1_555
Li2 O5 2.517912 1_555
Li3 O43 1.922858 1_555
Li3 O3 2.072371 1_555
Li3 O45 2.144429 1_555
Li3 O13 2.215490 1_555
Li4 O17 1.907496 1_555
Li4 O3 1.995030 1_565
Li4 O16 2.043473 1_555
Li4 O7 2.146134 1_565
Li5 O8 1.907496 1_555
Li5 O22 1.995030 1_545
Li5 O9 2.043473 1_555
Li5 O18 2.146134 1_545
Li6 O9 1.955238 1_555
Li6 O32 2.037086 1_545
Li6 O21 2.041656 1_555
Li6 O15 2.517912 1_655
Li7 O20 1.967349 1_555
Li7 O6 2.010703 1_555
Li7 O12 2.049446 1_555
Li7 O21 2.066682 1_555
Li8 O24 1.992455 1_555
Li8 O29 2.003695 1_555
Li8 O14 2.022002 1_555
Li8 O10 2.040314 1_555
Li9 O28 1.922858 1_555
Li9 O22 2.072371 1_555
Li9 O27 2.144429 1_655
Li9 O11 2.215490 1_555
Li10 O19 1.922858 1_555
Li10 O25 2.072371 1_555
Li10 O20 2.144429 1_455
Li10 O36 2.215490 1_555
Li11 O23 1.992455 1_555
Li11 O18 2.003695 1_555
Li11 O33 2.022002 1_555
Li11 O37 2.040314 1_555
Li12 O27 1.967349 1_555
Li12 O41 2.010703 1_555
Li12 O35 2.049446 1_555
Li12 O26 2.066682 1_555
Li13 O38 1.955238 1_555
Li13 O15 2.037086 1_565
Li13 O26 2.041656 1_555
Li13 O32 2.517912 1_455
Li14 O39 1.907496 1_555
Li14 O25 1.995030 1_565
Li14 O38 2.043473 1_555
Li14 O29 2.146134 1_565
Li15 O30 1.907496 1_555
Li15 O44 1.995030 1_545
Li15 O31 2.043473 1_555
Li15 O40 2.146134 1_545
Li16 O4 1.922858 1_555
Li16 O44 2.072371 1_555
Li16 O2 2.144429 1_555
Li16 O34 2.215490 1_555
Li17 O31 1.955238 1_556
Li17 O5 2.037086 1_546
Li17 O46 2.041656 1_555
Li17 O42 2.517912 1_555
Li18 O45 1.967349 1_555
Li18 O33 2.010703 1_555
Li18 O37 2.049446 1_555
Li18 O46 2.066682 1_555
Li19 O0 1.992455 1_555
Li19 O7 2.003695 1_555
Li19 O41 2.022002 1_555
Li19 O35 2.040314 1_555
Mn0 O19 2.075148 1_655
Mn0 O11 2.075605 1_554
Mn0 O6 2.181712 1_555
Mn0 O1 2.220911 1_655
Mn0 O20 2.338398 1_555
Mn0 O12 2.659926 1_555
Mn1 O4 2.075148 1_555
Mn1 O13 2.075605 1_555
Mn1 O14 2.181712 1_555
Mn1 O21 2.220911 1_555
Mn1 O2 2.338398 1_555
Mn1 O10 2.659926 1_555
Mn2 O0 2.104419 1_555
Mn2 O15 2.187414 1_555
Mn2 O17 2.209480 1_545
Mn2 O9 2.244353 1_455
Mn2 O7 2.246728 1_555
Mn2 O22 2.366164 1_445
Mn3 O23 2.104419 1_555
Mn3 O5 2.187414 1_556
Mn3 O8 2.209480 1_565
Mn3 O16 2.244353 1_555
Mn3 O18 2.246728 1_555
Mn3 O3 2.366164 1_565
Mn4 O24 2.104419 1_555
Mn4 O42 2.187414 1_554
Mn4 O39 2.209480 1_545
Mn4 O31 2.244353 1_555
Mn4 O29 2.246728 1_555
Mn4 O44 2.366164 1_545
Mn5 O47 2.104419 1_555
Mn5 O32 2.187414 1_555
Mn5 O30 2.209480 1_565
Mn5 O38 2.244353 1_655
Mn5 O40 2.246728 1_555
Mn5 O25 2.366164 1_665
Mn6 O43 2.075148 1_555
Mn6 O34 2.075605 1_555
Mn6 O33 2.181712 1_555
Mn6 O26 2.220911 1_555
Mn6 O45 2.338398 1_555
Mn6 O37 2.659926 1_555
Mn7 O28 2.075148 1_455
Mn7 O36 2.075605 1_556
Mn7 O41 2.181712 1_555
Mn7 O46 2.220911 1_455
Mn7 O27 2.338398 1_555
Mn7 O35 2.659926 1_555
O0 P11 1.536394 1_555
O1 P9 1.573072 1_555
O2 P11 1.557858 1_555
O3 P10 1.564466 1_555
O4 P0 1.550931 1_555
O5 P1 1.552707 1_555
O6 P1 1.561056 1_555
O7 P2 1.558684 1_455
O8 P2 1.549459 1_555
O9 P0 1.573578 1_555
O10 P1 1.556779 1_555
O11 P2 1.539660 1_565
O12 P3 1.556779 1_655
O13 P4 1.539660 1_545
O14 P3 1.561056 1_555
O15 P3 1.552707 1_555
O16 P5 1.573578 1_555
O17 P4 1.549459 1_555
O18 P4 1.558684 1_555
O19 P5 1.550931 1_554
O20 P6 1.557858 1_555
O21 P7 1.573072 1_555
O22 P8 1.564466 1_555
O23 P6 1.536394 1_556
O24 P5 1.536394 1_554
O25 P3 1.564466 1_555
O26 P4 1.573072 1_555
O27 P5 1.557858 1_555
O28 P6 1.550931 1_556
O29 P7 1.558684 1_555
O30 P7 1.549459 1_555
O31 P6 1.573578 1_555
O32 P8 1.552707 1_555
O33 P8 1.561056 1_555
O34 P7 1.539660 1_565
O35 P8 1.556779 1_455
O36 P9 1.539660 1_545
O37 P10 1.556779 1_555
O38 P11 1.573578 1_555
O39 P9 1.549459 1_555
O40 P9 1.558684 1_655
O41 P10 1.561056 1_555
O42 P10 1.552707 1_555
O43 P11 1.550931 1_555
O44 P1 1.564466 1_555
O45 P0 1.557858 1_555
O46 P2 1.573072 1_555
O47 P0 1.536394 1_555
