# generated using pymatgen
data_PaSe3
_symmetry_space_group_name_H-M   'P 1'
_cell_length_a   6.18158420
_cell_length_b   6.18158284
_cell_length_c   5.20037930
_cell_angle_alpha   90.00000063
_cell_angle_beta   90.00000090
_cell_angle_gamma   120.00017803
_symmetry_Int_Tables_number   1
_chemical_formula_structural   PaSe3
_chemical_formula_sum   'Pa2 Se6'
_cell_volume   172.09345617
_cell_formula_units_Z   2
loop_
 _symmetry_equiv_pos_site_id
 _symmetry_equiv_pos_as_xyz
  1  'x, y, z'
loop_
 _atom_site_type_symbol
 _atom_site_label
 _atom_site_symmetry_multiplicity
 _atom_site_fract_x
 _atom_site_fract_y
 _atom_site_fract_z
 _atom_site_occupancy
  Pa  Pa0  1  0.66666698  0.33333421  0.25000012  1
  Pa  Pa1  1  0.33333417  0.66666676  0.75000008  1
  Se  Se0  1  0.82310870  0.17688949  0.75000084  1
  Se  Se1  1  0.35377549  0.17688864  0.75000081  1
  Se  Se2  1  0.82311029  0.64622628  0.75000085  1
  Se  Se3  1  0.17691686  0.82308310  0.25000042  1
  Se  Se4  1  0.64617181  0.82308361  0.25000046  1
  Se  Se5  1  0.17691470  0.35382690  0.25000041  1
loop_
_geom_bond_atom_site_label_1
_geom_bond_atom_site_label_2
_geom_bond_distance
_geom_bond_site_symmetry_2
Pa0 Se4 3.092720 1_555
Pa0 Se3 3.092728 1_655
Pa0 Se5 3.092730 1_555
Pa0 Se3 3.092735 1_545
Pa0 Se5 3.092747 1_655
Pa0 Se4 3.092757 1_545
Pa0 Se0 3.092996 1_554
Pa0 Se0 3.093003 1_555
Pa0 Se1 3.093009 1_554
Pa0 Se2 3.093010 1_554
Pa0 Se1 3.093015 1_555
Pa0 Se2 3.093016 1_555
Pa1 Se2 3.092706 1_555
Pa1 Se0 3.092713 1_565
Pa1 Se1 3.092721 1_555
Pa1 Se0 3.092730 1_455
Pa1 Se1 3.092735 1_565
Pa1 Se2 3.092751 1_455
Pa1 Se3 3.092845 1_555
Pa1 Se3 3.092848 1_556
Pa1 Se4 3.092854 1_555
Pa1 Se4 3.092857 1_556
Pa1 Se5 3.092860 1_555
Pa1 Se5 3.092863 1_556
Se0 Se1 2.901220 1_555
Se0 Se2 2.901239 1_555
Se1 Se2 2.901233 1_555
Se3 Se4 2.900737 1_555
Se3 Se5 2.900739 1_555
Se4 Se5 2.900743 1_555
