# generated using pymatgen
data_MnInRh2
_symmetry_space_group_name_H-M   'P 1'
_cell_length_a   4.42556403
_cell_length_b   4.42614370
_cell_length_c   4.42518624
_cell_angle_alpha   60.00406293
_cell_angle_beta   60.01784787
_cell_angle_gamma   59.99146937
_symmetry_Int_Tables_number   1
_chemical_formula_structural   MnInRh2
_chemical_formula_sum   'Mn1 In1 Rh2'
_cell_volume   61.29916520
_cell_formula_units_Z   1
loop_
 _symmetry_equiv_pos_site_id
 _symmetry_equiv_pos_as_xyz
  1  'x, y, z'
loop_
 _atom_site_type_symbol
 _atom_site_label
 _atom_site_symmetry_multiplicity
 _atom_site_fract_x
 _atom_site_fract_y
 _atom_site_fract_z
 _atom_site_occupancy
  Mn  Mn0  1  0.74997790  0.74996785  0.75002236  1
  In  In0  1  0.25000455  0.25000533  0.24999768  1
  Rh  Rh0  1  -0.00000090  0.99998895  0.99994197  1
  Rh  Rh1  1  0.50002046  0.50003887  0.50003999  1
loop_
_geom_bond_atom_site_label_1
_geom_bond_atom_site_label_2
_geom_bond_distance
_geom_bond_site_symmetry_2
Mn0 Rh1 2.709569 1_555
Mn0 Rh0 2.709906 1_655
Mn0 Rh0 2.710159 1_645
Mn0 Rh0 2.710180 1_555
Mn0 Rh1 2.710410 1_655
Mn0 Rh1 2.710433 1_556
Mn0 Rh1 2.710492 1_565
Mn0 Rh0 2.710660 1_654
In0 Rh1 2.710114 1_545
In0 Rh0 2.710168 1_545
In0 Rh0 2.710176 1_554
In0 Rh1 2.710199 1_455
In0 Rh1 2.710216 1_554
In0 Rh0 2.710237 1_644
In0 Rh0 2.710323 1_544
In0 Rh1 2.710375 1_555
