# generated using pymatgen
data_AcCd3
_symmetry_space_group_name_H-M   'P 1'
_cell_length_a   7.25249369
_cell_length_b   7.20419355
_cell_length_c   4.97865278
_cell_angle_alpha   89.99871659
_cell_angle_beta   90.00176307
_cell_angle_gamma   119.93384532
_symmetry_Int_Tables_number   1
_chemical_formula_structural   AcCd3
_chemical_formula_sum   'Ac2 Cd6'
_cell_volume   225.42616598
_cell_formula_units_Z   2
loop_
 _symmetry_equiv_pos_site_id
 _symmetry_equiv_pos_as_xyz
  1  'x, y, z'
loop_
 _atom_site_type_symbol
 _atom_site_label
 _atom_site_symmetry_multiplicity
 _atom_site_fract_x
 _atom_site_fract_y
 _atom_site_fract_z
 _atom_site_occupancy
  Ac  Ac0  1  0.33606728  0.66871371  0.75000059  1
  Ac  Ac1  1  0.66393072  0.33128329  0.24999941  1
  Cd  Cd0  1  0.14504522  0.29280339  0.25000387  1
  Cd  Cd1  1  0.70978376  0.85409866  0.25001577  1
  Cd  Cd2  1  0.14410821  0.85208069  0.24998442  1
  Cd  Cd3  1  0.85495678  0.70719761  0.74999513  1
  Cd  Cd4  1  0.29021624  0.14590034  0.74998323  1
  Cd  Cd5  1  0.85589079  0.14791731  0.75001358  1
loop_
_geom_bond_atom_site_label_1
_geom_bond_atom_site_label_2
_geom_bond_distance
_geom_bond_site_symmetry_2
Ac0 Cd0 3.421360 1_556
Ac0 Cd0 3.421362 1_555
Ac0 Cd1 3.422553 1_555
Ac0 Cd1 3.422585 1_556
Ac0 Cd2 3.422770 1_556
Ac0 Cd2 3.422782 1_555
Ac0 Cd4 3.612028 1_555
Ac0 Cd4 3.615183 1_565
Ac0 Cd5 3.625208 1_565
Ac0 Cd5 3.628320 1_455
Ac0 Cd3 3.632851 1_555
Ac0 Cd3 3.635544 1_455
Ac1 Cd3 3.421376 1_555
Ac1 Cd3 3.421381 1_554
Ac1 Cd4 3.422541 1_555
Ac1 Cd4 3.422580 1_554
Ac1 Cd5 3.422775 1_555
Ac1 Cd5 3.422778 1_554
Ac1 Cd1 3.612036 1_555
Ac1 Cd1 3.615177 1_545
Ac1 Cd2 3.625201 1_545
Ac1 Cd2 3.628327 1_655
Ac1 Cd0 3.632835 1_555
Ac1 Cd0 3.635557 1_655
Cd0 Cd5 3.082052 1_454
Cd0 Cd5 3.082196 1_455
Cd0 Cd4 3.088124 1_555
Cd0 Cd4 3.088380 1_554
Cd0 Cd1 3.161782 1_445
Cd0 Cd2 3.171666 1_545
Cd1 Cd3 3.088124 1_555
Cd1 Cd3 3.088381 1_554
Cd1 Cd5 3.092186 1_564
Cd1 Cd5 3.092192 1_565
Cd1 Cd2 3.157215 1_655
Cd2 Cd3 3.082037 1_454
Cd2 Cd3 3.082189 1_455
Cd2 Cd4 3.092186 1_564
Cd2 Cd4 3.092200 1_565
Cd3 Cd4 3.161767 1_665
Cd3 Cd5 3.171655 1_565
Cd4 Cd5 3.157218 1_455
