# generated using pymatgen
data_BaMnS2
_symmetry_space_group_name_H-M   'P 1'
_cell_length_a   4.15529414
_cell_length_b   7.19004736
_cell_length_c   14.04693106
_cell_angle_alpha   90.00000000
_cell_angle_beta   90.00000000
_cell_angle_gamma   90.00000000
_symmetry_Int_Tables_number   1
_chemical_formula_structural   BaMnS2
_chemical_formula_sum   'Ba4 Mn4 S8'
_cell_volume   419.67681135
_cell_formula_units_Z   4
loop_
 _symmetry_equiv_pos_site_id
 _symmetry_equiv_pos_as_xyz
  1  'x, y, z'
loop_
 _atom_site_type_symbol
 _atom_site_label
 _atom_site_symmetry_multiplicity
 _atom_site_fract_x
 _atom_site_fract_y
 _atom_site_fract_z
 _atom_site_occupancy
  Ba  Ba0  1  0.25000000  0.20754043  0.87146633  1
  Ba  Ba1  1  0.75000000  0.79245957  0.12853367  1
  Ba  Ba2  1  0.25000000  0.70754043  0.62853367  1
  Ba  Ba3  1  0.75000000  0.29245957  0.37146633  1
  Mn  Mn0  1  0.75000000  0.73111295  0.86393396  1
  Mn  Mn1  1  0.75000000  0.23111295  0.63606604  1
  Mn  Mn2  1  0.25000000  0.26888705  0.13606604  1
  Mn  Mn3  1  0.25000000  0.76888705  0.36393396  1
  S  S0  1  0.25000000  0.03147577  0.25862164  1
  S  S1  1  0.75000000  0.96852423  0.74137836  1
  S  S2  1  0.25000000  0.53147577  0.24137836  1
  S  S3  1  0.75000000  0.46852423  0.75862164  1
  S  S4  1  0.25000000  0.26191666  0.54712263  1
  S  S5  1  0.75000000  0.23808334  0.04712263  1
  S  S6  1  0.25000000  0.76191666  0.95287737  1
  S  S7  1  0.75000000  0.73808334  0.45287737  1
loop_
_geom_bond_atom_site_label_1
_geom_bond_atom_site_label_2
_geom_bond_distance
_geom_bond_site_symmetry_2
Ba0 S3 3.217208 1_455
Ba0 S3 3.217208 1_555
Ba0 S5 3.233120 1_456
Ba0 S5 3.233120 1_556
Ba0 S1 3.257169 1_445
Ba0 S1 3.257169 1_545
Ba0 S6 3.402020 1_545
Ba1 S2 3.217208 1_555
Ba1 S2 3.217208 1_655
Ba1 S6 3.233120 1_654
Ba1 S6 3.233120 1_554
Ba1 S0 3.257169 1_565
Ba1 S0 3.257169 1_665
Ba1 S5 3.402020 1_565
Ba2 S1 3.217208 1_455
Ba2 S1 3.217208 1_555
Ba2 S7 3.233120 1_555
Ba2 S7 3.233120 1_455
Ba2 S3 3.257169 1_455
Ba2 S3 3.257169 1_555
Ba2 S4 3.402020 1_555
Ba3 S0 3.217208 1_555
Ba3 S0 3.217208 1_655
Ba3 S4 3.233120 1_555
Ba3 S4 3.233120 1_655
Ba3 S2 3.257169 1_655
Ba3 S2 3.257169 1_555
Ba3 S7 3.402020 1_555
Mn0 S3 2.398544 1_555
Mn0 S1 2.424357 1_555
Mn0 S6 2.434466 1_555
Mn0 S6 2.434466 1_655
Mn1 S1 2.398544 1_545
Mn1 S3 2.424357 1_555
Mn1 S4 2.434466 1_655
Mn1 S4 2.434466 1_555
Mn2 S2 2.398544 1_555
Mn2 S0 2.424357 1_555
Mn2 S5 2.434466 1_555
Mn2 S5 2.434466 1_455
Mn3 S0 2.398544 1_565
Mn3 S2 2.424357 1_555
Mn3 S7 2.434466 1_555
Mn3 S7 2.434466 1_455
