# generated using pymatgen
data_TiMn2Al
_symmetry_space_group_name_H-M   'P 1'
_cell_length_a   4.31409349
_cell_length_b   4.31409349
_cell_length_c   4.31409349
_cell_angle_alpha   60.00000000
_cell_angle_beta   60.00000000
_cell_angle_gamma   60.00000000
_symmetry_Int_Tables_number   1
_chemical_formula_structural   TiMn2Al
_chemical_formula_sum   'Ti1 Mn2 Al1'
_cell_volume   56.77454452
_cell_formula_units_Z   1
loop_
 _symmetry_equiv_pos_site_id
 _symmetry_equiv_pos_as_xyz
  1  'x, y, z'
loop_
 _atom_site_type_symbol
 _atom_site_label
 _atom_site_symmetry_multiplicity
 _atom_site_fract_x
 _atom_site_fract_y
 _atom_site_fract_z
 _atom_site_occupancy
  Ti  Ti0  1  0.75000100  0.75000100  0.75000100  1
  Mn  Mn0  1  -0.00000000  -0.00000000  -0.00000000  1
  Mn  Mn1  1  0.50000000  0.50000000  0.50000000  1
  Al  Al0  1  0.25000100  0.25000100  0.25000100  1
loop_
_geom_bond_atom_site_label_1
_geom_bond_atom_site_label_2
_geom_bond_distance
_geom_bond_site_symmetry_2
Mn0 Ti0 2.641821 1_444
Mn0 Ti0 2.641835 1_445
Mn0 Ti0 2.641835 1_454
Mn0 Ti0 2.641835 1_544
Mn1 Ti0 2.641828 1_554
Mn1 Ti0 2.641828 1_545
Mn1 Ti0 2.641828 1_455
Mn1 Ti0 2.641843 1_555
Al0 Mn1 2.641821 1_555
Al0 Mn0 2.641828 1_655
Al0 Mn0 2.641828 1_565
Al0 Mn0 2.641828 1_556
Al0 Mn1 2.641835 1_545
Al0 Mn1 2.641835 1_554
Al0 Mn1 2.641835 1_455
Al0 Mn0 2.641843 1_555
