# generated using pymatgen
data_Ca2Pt3O8
_symmetry_space_group_name_H-M   'P 1'
_cell_length_a   6.26375568
_cell_length_b   6.26375473
_cell_length_c   6.26375493
_cell_angle_alpha   59.78814658
_cell_angle_beta   59.78814966
_cell_angle_gamma   59.78814898
_symmetry_Int_Tables_number   1
_chemical_formula_structural   Ca2Pt3O8
_chemical_formula_sum   'Ca2 Pt3 O8'
_cell_volume   172.94002035
_cell_formula_units_Z   1
loop_
 _symmetry_equiv_pos_site_id
 _symmetry_equiv_pos_as_xyz
  1  'x, y, z'
loop_
 _atom_site_type_symbol
 _atom_site_label
 _atom_site_symmetry_multiplicity
 _atom_site_fract_x
 _atom_site_fract_y
 _atom_site_fract_z
 _atom_site_occupancy
  Ca  Ca0  1  0.85486745  0.85486745  0.85486745  1
  Ca  Ca1  1  0.14513255  0.14513255  0.14513255  1
  Pt  Pt0  1  0.50000000  -0.00000000  0.50000000  1
  Pt  Pt1  1  0.00000000  0.50000000  0.50000000  1
  Pt  Pt2  1  0.50000000  0.50000000  0.00000000  1
  O  O0  1  0.60436466  0.60436466  0.60436466  1
  O  O1  1  0.39563534  0.39563534  0.39563534  1
  O  O2  1  0.11325850  0.11325850  0.56003902  1
  O  O3  1  0.11325850  0.56003902  0.11325850  1
  O  O4  1  0.56003902  0.11325850  0.11325850  1
  O  O5  1  0.88674150  0.43996098  0.88674150  1
  O  O6  1  0.88674150  0.88674150  0.43996098  1
  O  O7  1  0.43996098  0.88674150  0.88674150  1
loop_
_geom_bond_atom_site_label_1
_geom_bond_atom_site_label_2
_geom_bond_distance
_geom_bond_site_symmetry_2
Ca0 O4 2.295578 1_566
Ca0 O2 2.295578 1_665
Ca0 O3 2.295578 1_656
Ca0 O5 2.414456 1_555
Ca0 O6 2.414456 1_555
Ca0 O7 2.414457 1_555
Ca1 O7 2.295578 1_544
Ca1 O6 2.295578 1_445
Ca1 O5 2.295578 1_454
Ca1 O3 2.414456 1_555
Ca1 O2 2.414456 1_555
Ca1 O4 2.414457 1_555
O0 Pt0 2.040907 1_565
O0 Pt2 2.040907 1_556
O0 Pt1 2.040908 1_655
O1 Pt0 2.040907 1_555
O1 Pt2 2.040907 1_555
O1 Pt1 2.040908 1_555
O2 Pt1 2.033498 1_555
O2 Pt0 2.033498 1_555
O3 Pt1 2.033498 1_555
O3 Pt2 2.033498 1_555
O4 Pt2 2.033498 1_555
O4 Pt0 2.033498 1_555
O5 Pt1 2.033498 1_655
O5 Pt2 2.033498 1_556
O6 Pt1 2.033498 1_655
O6 Pt0 2.033498 1_565
O7 Pt2 2.033498 1_556
O7 Pt0 2.033498 1_565
