# generated using pymatgen
data_PmTlAg2
_symmetry_space_group_name_H-M   'P 1'
_cell_length_a   5.01975236
_cell_length_b   5.01975237
_cell_length_c   5.01975238
_cell_angle_alpha   60.00001738
_cell_angle_beta   60.00001752
_cell_angle_gamma   60.00001766
_symmetry_Int_Tables_number   1
_chemical_formula_structural   PmTlAg2
_chemical_formula_sum   'Pm1 Tl1 Ag2'
_cell_volume   89.44005441
_cell_formula_units_Z   1
loop_
 _symmetry_equiv_pos_site_id
 _symmetry_equiv_pos_as_xyz
  1  'x, y, z'
loop_
 _atom_site_type_symbol
 _atom_site_label
 _atom_site_symmetry_multiplicity
 _atom_site_fract_x
 _atom_site_fract_y
 _atom_site_fract_z
 _atom_site_occupancy
  Pm  Pm0  1  0.24999932  0.24999932  0.24999932  1
  Tl  Tl0  1  0.74999996  0.74999996  0.74999996  1
  Ag  Ag0  1  0.50000080  0.50000080  0.50000080  1
  Ag  Ag1  1  -0.00000008  -0.00000008  -0.00000008  1
loop_
_geom_bond_atom_site_label_1
_geom_bond_atom_site_label_2
_geom_bond_distance
_geom_bond_site_symmetry_2
Ag0 Tl0 3.073947 1_555
Ag0 Pm0 3.073953 1_556
Ag0 Pm0 3.073953 1_565
Ag0 Pm0 3.073953 1_655
Ag0 Tl0 3.073962 1_455
Ag0 Tl0 3.073962 1_545
Ag0 Tl0 3.073962 1_554
Ag0 Pm0 3.073976 1_555
Ag1 Pm0 3.073950 1_555
Ag1 Tl0 3.073957 1_444
Ag1 Tl0 3.073959 1_544
Ag1 Tl0 3.073959 1_454
Ag1 Tl0 3.073959 1_445
Ag1 Pm0 3.073961 1_455
Ag1 Pm0 3.073961 1_545
Ag1 Pm0 3.073961 1_554
