# generated using pymatgen
data_Re3Pt
_symmetry_space_group_name_H-M   'P 1'
_cell_length_a   5.56407581
_cell_length_b   5.56407550
_cell_length_c   4.41306805
_cell_angle_alpha   90.00000000
_cell_angle_beta   90.00000000
_cell_angle_gamma   120.00000181
_symmetry_Int_Tables_number   1
_chemical_formula_structural   Re3Pt
_chemical_formula_sum   'Re6 Pt2'
_cell_volume   118.31976564
_cell_formula_units_Z   2
loop_
 _symmetry_equiv_pos_site_id
 _symmetry_equiv_pos_as_xyz
  1  'x, y, z'
loop_
 _atom_site_type_symbol
 _atom_site_label
 _atom_site_symmetry_multiplicity
 _atom_site_fract_x
 _atom_site_fract_y
 _atom_site_fract_z
 _atom_site_occupancy
  Re  Re0  1  0.15883044  0.31766088  0.25000000  1
  Re  Re1  1  0.68233912  0.84117056  0.25000000  1
  Re  Re2  1  0.15883044  0.84117056  0.25000000  1
  Re  Re3  1  0.84116956  0.68233712  0.74999800  1
  Re  Re4  1  0.31766188  0.15883244  0.74999800  1
  Re  Re5  1  0.84116956  0.15883244  0.74999800  1
  Pt  Pt0  1  0.33333300  0.66666600  0.74999800  1
  Pt  Pt1  1  0.66666600  0.33333200  0.25000000  1
loop_
_geom_bond_atom_site_label_1
_geom_bond_atom_site_label_2
_geom_bond_distance
_geom_bond_site_symmetry_2
Re0 Re2 2.651228 1_545
Re0 Re1 2.651231 1_445
Re0 Re4 2.685471 1_555
Re0 Re5 2.685473 1_455
Re0 Re4 2.685485 1_554
Re0 Re5 2.685488 1_454
Re0 Re1 2.912845 1_555
Re0 Re2 2.912847 1_555
Re1 Re2 2.651234 1_655
Re1 Re5 2.685476 1_565
Re1 Re3 2.685482 1_555
Re1 Re5 2.685491 1_564
Re1 Re3 2.685496 1_554
Re1 Re2 2.912842 1_555
Re2 Re3 2.685473 1_455
Re2 Re4 2.685476 1_565
Re2 Re3 2.685488 1_454
Re2 Re4 2.685491 1_564
Re3 Re4 2.651248 1_665
Re3 Re5 2.651256 1_565
Re3 Re5 2.912820 1_555
Re3 Re4 2.912828 1_555
Re4 Re5 2.651239 1_455
Re4 Re5 2.912836 1_555
Pt0 Re0 2.774339 1_555
Pt0 Re1 2.774342 1_555
Pt0 Re2 2.774345 1_555
Pt0 Re0 2.774353 1_556
Pt0 Re1 2.774356 1_556
Pt0 Re2 2.774359 1_556
Pt0 Re4 2.783051 1_555
Pt0 Re5 2.783054 1_455
Pt0 Re3 2.783057 1_455
Pt0 Re3 2.783068 1_555
Pt0 Re5 2.783071 1_565
Pt0 Re4 2.783074 1_565
Pt1 Re5 2.774333 1_555
Pt1 Re4 2.774336 1_555
Pt1 Re3 2.774339 1_555
Pt1 Re5 2.774348 1_554
Pt1 Re4 2.774350 1_554
Pt1 Re3 2.774353 1_554
Pt1 Re1 2.783052 1_545
Pt1 Re2 2.783054 1_545
Pt1 Re0 2.783063 1_655
Pt1 Re0 2.783063 1_555
Pt1 Re2 2.783071 1_655
Pt1 Re1 2.783074 1_555
