# generated using pymatgen
data_Sm
_symmetry_space_group_name_H-M   'P 1'
_cell_length_a   18.02885604
_cell_length_b   18.02885592
_cell_length_c   18.02885613
_cell_angle_alpha   23.45690444
_cell_angle_beta   23.45690758
_cell_angle_gamma   23.45690471
_symmetry_Int_Tables_number   1
_chemical_formula_structural   Sm
_chemical_formula_sum   Sm24
_cell_volume   815.36353063
_cell_formula_units_Z   24
loop_
 _symmetry_equiv_pos_site_id
 _symmetry_equiv_pos_as_xyz
  1  'x, y, z'
loop_
 _atom_site_type_symbol
 _atom_site_label
 _atom_site_symmetry_multiplicity
 _atom_site_fract_x
 _atom_site_fract_y
 _atom_site_fract_z
 _atom_site_occupancy
  Sm  Sm0_0  1  0.00000000  0.00000000  0.00000000  1
  Sm  Sm0_1  1  0.00000000  0.00000000  0.50000000  1
  Sm  Sm0_2  1  0.00000000  0.50000000  0.00000000  1
  Sm  Sm0_3  1  0.00000000  0.50000000  0.50000000  1
  Sm  Sm0_4  1  0.50000000  0.00000000  0.00000000  1
  Sm  Sm0_5  1  0.50000000  0.00000000  0.50000000  1
  Sm  Sm0_6  1  0.50000000  0.50000000  0.00000000  1
  Sm  Sm0_7  1  0.50000000  0.50000000  0.50000000  1
  Sm  Sm1_0  1  0.11122894  0.11122895  0.11122895  1
  Sm  Sm1_1  1  0.11122894  0.11122895  0.61122895  1
  Sm  Sm1_2  1  0.11122894  0.61122895  0.11122895  1
  Sm  Sm1_3  1  0.11122894  0.61122895  0.61122895  1
  Sm  Sm1_4  1  0.61122895  0.11122895  0.11122895  1
  Sm  Sm1_5  1  0.61122895  0.11122895  0.61122895  1
  Sm  Sm1_6  1  0.61122894  0.61122895  0.11122895  1
  Sm  Sm1_7  1  0.61122894  0.61122895  0.61122895  1
  Sm  Sm2_0  1  0.38877105  0.38877105  0.38877106  1
  Sm  Sm2_1  1  0.38877105  0.38877105  0.88877106  1
  Sm  Sm2_2  1  0.38877106  0.88877105  0.38877106  1
  Sm  Sm2_3  1  0.38877105  0.88877106  0.88877106  1
  Sm  Sm2_4  1  0.88877105  0.38877106  0.38877106  1
  Sm  Sm2_5  1  0.88877106  0.38877105  0.88877106  1
  Sm  Sm2_6  1  0.88877105  0.88877105  0.38877106  1
  Sm  Sm2_7  1  0.88877105  0.88877106  0.88877105  1
loop_
_geom_bond_atom_site_label_1
_geom_bond_atom_site_label_2
_geom_bond_distance
_geom_bond_site_symmetry_2
Sm0_0 Sm1_2 3.601692 1_545
Sm0_0 Sm2_5 3.601692 1_454
Sm0_0 Sm1_4 3.601692 1_455
Sm0_0 Sm2_3 3.601692 1_544
Sm0_0 Sm2_6 3.601693 1_445
Sm0_0 Sm1_1 3.601693 1_554
Sm0_0 Sm0_3 3.664789 1_545
Sm0_0 Sm0_3 3.664789 1_554
Sm0_0 Sm0_6 3.664789 1_545
Sm0_0 Sm0_6 3.664789 1_455
Sm0_0 Sm0_5 3.664790 1_554
Sm0_0 Sm0_5 3.664790 1_455
Sm0_1 Sm1_3 3.601692 1_545
Sm0_1 Sm2_4 3.601692 1_455
Sm0_1 Sm1_5 3.601692 1_455
Sm0_1 Sm2_2 3.601692 1_545
Sm0_1 Sm1_0 3.601693 1_555
Sm0_1 Sm2_7 3.601693 1_445
Sm0_1 Sm0_2 3.664789 1_546
Sm0_1 Sm0_2 3.664789 1_555
Sm0_1 Sm0_7 3.664789 1_545
Sm0_1 Sm0_7 3.664789 1_455
Sm0_1 Sm0_4 3.664790 1_555
Sm0_1 Sm0_4 3.664790 1_456
Sm0_2 Sm1_0 3.601692 1_555
Sm0_2 Sm2_7 3.601692 1_454
Sm0_2 Sm1_6 3.601692 1_455
Sm0_2 Sm2_1 3.601692 1_554
Sm0_2 Sm1_3 3.601693 1_554
Sm0_2 Sm2_4 3.601693 1_455
Sm0_2 Sm0_4 3.664789 1_555
Sm0_2 Sm0_4 3.664789 1_465
Sm0_2 Sm0_7 3.664790 1_554
Sm0_2 Sm0_7 3.664790 1_455
Sm0_3 Sm2_6 3.601692 1_455
Sm0_3 Sm1_1 3.601692 1_555
Sm0_3 Sm1_7 3.601692 1_455
Sm0_3 Sm2_0 3.601692 1_555
Sm0_3 Sm1_2 3.601693 1_555
Sm0_3 Sm2_5 3.601693 1_455
Sm0_3 Sm0_5 3.664789 1_465
Sm0_3 Sm0_5 3.664789 1_555
Sm0_3 Sm0_6 3.664790 1_555
Sm0_3 Sm0_6 3.664790 1_456
Sm0_4 Sm1_6 3.601692 1_545
Sm0_4 Sm2_1 3.601692 1_554
Sm0_4 Sm1_0 3.601692 1_555
Sm0_4 Sm2_7 3.601692 1_544
Sm0_4 Sm1_5 3.601693 1_554
Sm0_4 Sm2_2 3.601693 1_545
Sm0_4 Sm0_7 3.664789 1_545
Sm0_4 Sm0_7 3.664789 1_554
Sm0_5 Sm1_7 3.601692 1_545
Sm0_5 Sm2_0 3.601692 1_555
Sm0_5 Sm2_6 3.601692 1_545
Sm0_5 Sm1_1 3.601692 1_555
Sm0_5 Sm1_4 3.601693 1_555
Sm0_5 Sm2_3 3.601693 1_545
Sm0_5 Sm0_6 3.664789 1_546
Sm0_5 Sm0_6 3.664789 1_555
Sm0_6 Sm1_4 3.601692 1_555
Sm0_6 Sm2_3 3.601692 1_554
Sm0_6 Sm1_2 3.601692 1_555
Sm0_6 Sm2_5 3.601692 1_554
Sm0_6 Sm1_7 3.601693 1_554
Sm0_6 Sm2_0 3.601693 1_555
Sm0_7 Sm2_2 3.601692 1_555
Sm0_7 Sm1_5 3.601692 1_555
Sm0_7 Sm2_4 3.601692 1_555
Sm0_7 Sm1_3 3.601692 1_555
Sm0_7 Sm1_6 3.601693 1_555
Sm0_7 Sm2_1 3.601693 1_555
Sm1_0 Sm2_5 3.616749 1_454
Sm1_0 Sm2_6 3.616749 1_445
Sm1_0 Sm2_3 3.616749 1_544
Sm1_0 Sm1_3 3.664789 1_554
Sm1_0 Sm1_3 3.664789 1_545
Sm1_0 Sm1_6 3.664789 1_545
Sm1_0 Sm1_6 3.664789 1_455
Sm1_0 Sm1_5 3.664790 1_554
Sm1_0 Sm1_5 3.664790 1_455
Sm1_1 Sm2_4 3.616749 1_455
Sm1_1 Sm2_7 3.616749 1_445
Sm1_1 Sm2_2 3.616749 1_545
Sm1_1 Sm1_2 3.664789 1_555
Sm1_1 Sm1_2 3.664789 1_546
Sm1_1 Sm1_7 3.664789 1_545
Sm1_1 Sm1_7 3.664789 1_455
Sm1_1 Sm1_4 3.664790 1_456
Sm1_1 Sm1_4 3.664790 1_555
Sm1_2 Sm2_7 3.616749 1_454
Sm1_2 Sm2_4 3.616749 1_455
Sm1_2 Sm2_1 3.616749 1_554
Sm1_2 Sm1_4 3.664789 1_555
Sm1_2 Sm1_4 3.664789 1_465
Sm1_2 Sm1_7 3.664790 1_554
Sm1_2 Sm1_7 3.664790 1_455
Sm1_3 Sm2_6 3.616749 1_455
Sm1_3 Sm2_5 3.616749 1_455
Sm1_3 Sm2_0 3.616749 1_555
Sm1_3 Sm1_5 3.664789 1_465
Sm1_3 Sm1_5 3.664789 1_555
Sm1_3 Sm1_6 3.664790 1_555
Sm1_3 Sm1_6 3.664790 1_456
Sm1_4 Sm2_1 3.616749 1_554
Sm1_4 Sm2_2 3.616749 1_545
Sm1_4 Sm2_7 3.616749 1_544
Sm1_4 Sm1_7 3.664789 1_545
Sm1_4 Sm1_7 3.664789 1_554
Sm1_5 Sm2_0 3.616749 1_555
Sm1_5 Sm2_3 3.616749 1_545
Sm1_5 Sm2_6 3.616749 1_545
Sm1_5 Sm1_6 3.664789 1_546
Sm1_5 Sm1_6 3.664789 1_555
Sm1_6 Sm2_3 3.616749 1_554
Sm1_6 Sm2_0 3.616749 1_555
Sm1_6 Sm2_5 3.616749 1_554
Sm1_7 Sm2_2 3.616749 1_555
Sm1_7 Sm2_1 3.616749 1_555
Sm1_7 Sm2_4 3.616749 1_555
Sm2_0 Sm2_3 3.664789 1_545
Sm2_0 Sm2_3 3.664789 1_554
Sm2_0 Sm2_6 3.664789 1_545
Sm2_0 Sm2_6 3.664789 1_455
Sm2_0 Sm2_5 3.664790 1_455
Sm2_0 Sm2_5 3.664790 1_554
Sm2_1 Sm2_2 3.664789 1_546
Sm2_1 Sm2_2 3.664789 1_555
Sm2_1 Sm2_7 3.664789 1_545
Sm2_1 Sm2_7 3.664789 1_455
Sm2_1 Sm2_4 3.664790 1_456
Sm2_1 Sm2_4 3.664790 1_555
Sm2_2 Sm2_4 3.664789 1_555
Sm2_2 Sm2_4 3.664789 1_465
Sm2_2 Sm2_7 3.664790 1_455
Sm2_2 Sm2_7 3.664790 1_554
Sm2_3 Sm2_5 3.664789 1_465
Sm2_3 Sm2_5 3.664789 1_555
Sm2_3 Sm2_6 3.664790 1_555
Sm2_3 Sm2_6 3.664790 1_456
Sm2_4 Sm2_7 3.664789 1_545
Sm2_4 Sm2_7 3.664789 1_554
Sm2_5 Sm2_6 3.664789 1_546
Sm2_5 Sm2_6 3.664789 1_555
