# generated using pymatgen
data_Pb3NO6
_symmetry_space_group_name_H-M   'P 1'
_cell_length_a   5.69408000
_cell_length_b   8.92777600
_cell_length_c   14.32658900
_cell_angle_alpha   90.00000000
_cell_angle_beta   90.00000000
_cell_angle_gamma   90.00000000
_symmetry_Int_Tables_number   1
_chemical_formula_structural   Pb3NO6
_chemical_formula_sum   'Pb12 N4 O24'
_cell_volume   728.29889629
_cell_formula_units_Z   4
loop_
 _symmetry_equiv_pos_site_id
 _symmetry_equiv_pos_as_xyz
  1  'x, y, z'
loop_
 _atom_site_type_symbol
 _atom_site_label
 _atom_site_symmetry_multiplicity
 _atom_site_fract_x
 _atom_site_fract_y
 _atom_site_fract_z
 _atom_site_occupancy
  Pb  Pb0  1  0.10198100  0.73302700  0.83653100  1
  Pb  Pb1  1  0.60198100  0.26697300  0.16346900  1
  Pb  Pb2  1  0.60198100  0.73302700  0.66346900  1
  Pb  Pb3  1  0.10198100  0.26697300  0.33653100  1
  Pb  Pb4  1  0.08345800  0.04346600  0.66529500  1
  Pb  Pb5  1  0.58345800  0.95653400  0.33470500  1
  Pb  Pb6  1  0.58345800  0.04346600  0.83470500  1
  Pb  Pb7  1  0.08345800  0.95653400  0.16529500  1
  Pb  Pb8  1  0.09292900  0.42503700  0.66486900  1
  Pb  Pb9  1  0.59292900  0.57496300  0.33513100  1
  Pb  Pb10  1  0.59292900  0.42503700  0.83513100  1
  Pb  Pb11  1  0.09292900  0.57496300  0.16486900  1
  N  N0  1  0.06636000  0.73058200  0.48948000  1
  N  N1  1  0.56636000  0.26941800  0.51052000  1
  N  N2  1  0.56636000  0.73058200  0.01052000  1
  N  N3  1  0.06636000  0.26941800  0.98948000  1
  O  O0  1  0.85168800  0.57234400  0.75506300  1
  O  O1  1  0.35168800  0.42765600  0.24493700  1
  O  O2  1  0.35168800  0.57234400  0.74493700  1
  O  O3  1  0.85168800  0.42765600  0.25506300  1
  O  O4  1  0.84821400  0.89602100  0.75700900  1
  O  O5  1  0.34821400  0.10397900  0.24299100  1
  O  O6  1  0.34821400  0.89602100  0.74299100  1
  O  O7  1  0.84821400  0.10397900  0.25700900  1
  O  O8  1  0.11593200  0.73061900  0.57761800  1
  O  O9  1  0.61593200  0.26938100  0.42238200  1
  O  O10  1  0.61593200  0.73061900  0.92238200  1
  O  O11  1  0.11593200  0.26938100  0.07761800  1
  O  O12  1  0.25270000  0.23179800  0.75676900  1
  O  O13  1  0.75270000  0.76820200  0.24323100  1
  O  O14  1  0.75270000  0.23179800  0.74323100  1
  O  O15  1  0.25270000  0.76820200  0.25676900  1
  O  O16  1  0.02925600  0.85395800  0.44964600  1
  O  O17  1  0.52925600  0.14604200  0.55035400  1
  O  O18  1  0.52925600  0.85395800  0.05035400  1
  O  O19  1  0.02925600  0.14604200  0.94964600  1
  O  O20  1  0.05438100  0.60784700  0.44710100  1
  O  O21  1  0.55438100  0.39215300  0.55289900  1
  O  O22  1  0.55438100  0.60784700  0.05289900  1
  O  O23  1  0.05438100  0.39215300  0.94710100  1
loop_
_geom_bond_atom_site_label_1
_geom_bond_atom_site_label_2
_geom_bond_distance
_geom_bond_site_symmetry_2
N0 O20 1.254571 1_555
N0 O16 1.258396 1_555
N0 O8 1.293881 1_555
N1 O21 1.254571 1_555
N1 O17 1.258396 1_555
N1 O9 1.293881 1_555
N2 O22 1.254571 1_555
N2 O18 1.258396 1_555
N2 O10 1.293881 1_554
N3 O23 1.254571 1_555
N3 O19 1.258396 1_555
N3 O11 1.293881 1_556
O0 Pb10 2.283918 1_555
O0 Pb8 2.299166 1_655
O0 Pb0 2.334809 1_655
O0 Pb2 2.408634 1_555
O1 Pb11 2.283918 1_555
O1 Pb9 2.299166 1_555
O1 Pb1 2.334809 1_555
O1 Pb3 2.408634 1_555
O2 Pb8 2.283918 1_555
O2 Pb10 2.299166 1_555
O2 Pb2 2.334809 1_555
O2 Pb0 2.408634 1_555
O3 Pb9 2.283918 1_555
O3 Pb11 2.299166 1_655
O3 Pb3 2.334809 1_655
O3 Pb1 2.408634 1_555
O4 Pb6 2.290089 1_565
O4 Pb4 2.292054 1_665
O4 Pb0 2.345938 1_655
O4 Pb2 2.424711 1_555
O5 Pb7 2.290089 1_545
O5 Pb5 2.292054 1_545
O5 Pb1 2.345938 1_555
O5 Pb3 2.424711 1_555
O6 Pb4 2.290089 1_565
O6 Pb6 2.292054 1_565
O6 Pb2 2.345938 1_555
O6 Pb0 2.424711 1_555
O7 Pb5 2.290089 1_545
O7 Pb7 2.292054 1_645
O7 Pb3 2.345938 1_655
O7 Pb1 2.424711 1_555
O12 Pb4 2.339481 1_555
O12 Pb8 2.353170 1_555
O12 Pb6 2.760582 1_555
O13 Pb5 2.339481 1_555
O13 Pb9 2.353170 1_555
O13 Pb7 2.760582 1_655
O14 Pb6 2.339481 1_555
O14 Pb10 2.353170 1_555
O14 Pb4 2.760582 1_655
O15 Pb7 2.339481 1_555
O15 Pb11 2.353170 1_555
O15 Pb5 2.760582 1_555
