# generated using pymatgen
data_Zr(PS3)2
_symmetry_space_group_name_H-M   'P 1'
_cell_length_a   6.79088051
_cell_length_b   6.79088051
_cell_length_c   9.53951841
_cell_angle_alpha   90.00000000
_cell_angle_beta   90.00000000
_cell_angle_gamma   90.00000000
_symmetry_Int_Tables_number   1
_chemical_formula_structural   Zr(PS3)2
_chemical_formula_sum   'Zr2 P4 S12'
_cell_volume   439.92498525
_cell_formula_units_Z   2
loop_
 _symmetry_equiv_pos_site_id
 _symmetry_equiv_pos_as_xyz
  1  'x, y, z'
loop_
 _atom_site_type_symbol
 _atom_site_label
 _atom_site_symmetry_multiplicity
 _atom_site_fract_x
 _atom_site_fract_y
 _atom_site_fract_z
 _atom_site_occupancy
  Zr  Zr0  1  0.00000000  -0.00000000  0.75000000  1
  Zr  Zr1  1  0.00000000  -0.00000000  0.25000000  1
  P  P0  1  0.65666432  0.05533809  0.00000000  1
  P  P1  1  0.34333568  0.94466191  0.00000000  1
  P  P2  1  0.05533809  0.34333568  0.50000000  1
  P  P3  1  0.94466191  0.65666432  0.50000000  1
  S  S0  1  0.20704959  0.30690247  0.67861891  1
  S  S1  1  0.69309753  0.20704959  0.17861891  1
  S  S2  1  0.16028253  0.18055996  0.00000000  1
  S  S3  1  0.81944004  0.16028253  0.50000000  1
  S  S4  1  0.18055996  0.83971747  0.50000000  1
  S  S5  1  0.83971747  0.81944004  0.00000000  1
  S  S6  1  0.20704959  0.30690247  0.32138109  1
  S  S7  1  0.69309753  0.20704959  0.82138109  1
  S  S8  1  0.30690247  0.79295041  0.82138109  1
  S  S9  1  0.79295041  0.69309753  0.32138109  1
  S  S10  1  0.79295041  0.69309753  0.67861891  1
  S  S11  1  0.30690247  0.79295041  0.17861891  1
loop_
_geom_bond_atom_site_label_1
_geom_bond_atom_site_label_2
_geom_bond_distance
_geom_bond_site_symmetry_2
P0 S7 2.006500 1_554
P0 S1 2.006500 1_555
P0 S5 2.027693 1_545
P0 P1 2.256617 1_545
P1 S8 2.006500 1_554
P1 S11 2.006500 1_555
P1 S2 2.027693 1_565
P2 S0 2.006500 1_555
P2 S6 2.006500 1_555
P2 S3 2.027693 1_455
P2 P3 2.256617 1_455
P3 S10 2.006500 1_555
P3 S9 2.006500 1_555
P3 S4 2.027693 1_655
S0 Zr0 2.604666 1_555
S1 Zr1 2.604666 1_655
S2 Zr0 2.894109 1_554
S2 Zr1 2.894109 1_555
S3 Zr0 2.894109 1_655
S3 Zr1 2.894109 1_655
S4 Zr1 2.894109 1_565
S4 Zr0 2.894109 1_565
S5 Zr0 2.894109 1_664
S5 Zr1 2.894109 1_665
S6 Zr1 2.604666 1_555
S7 Zr0 2.604666 1_655
S8 Zr0 2.604666 1_565
S9 Zr1 2.604666 1_665
S10 Zr0 2.604666 1_665
S11 Zr1 2.604666 1_565
