# generated using pymatgen
data_Nd3(CuSn)4
_symmetry_space_group_name_H-M   'P 1'
_cell_length_a   4.56194596
_cell_length_b   6.99462832
_cell_length_c   8.59973522
_cell_angle_alpha   114.01857007
_cell_angle_beta   105.38575698
_cell_angle_gamma   89.96127689
_symmetry_Int_Tables_number   1
_chemical_formula_structural   Nd3(CuSn)4
_chemical_formula_sum   'Nd3 Cu4 Sn4'
_cell_volume   239.86586154
_cell_formula_units_Z   1
loop_
 _symmetry_equiv_pos_site_id
 _symmetry_equiv_pos_as_xyz
  1  'x, y, z'
loop_
 _atom_site_type_symbol
 _atom_site_label
 _atom_site_symmetry_multiplicity
 _atom_site_fract_x
 _atom_site_fract_y
 _atom_site_fract_z
 _atom_site_occupancy
  Nd  Nd0  1  -0.00000000  0.50000100  -0.00000000  1
  Nd  Nd1  1  0.13410921  0.13384840  0.26797146  1
  Nd  Nd2  1  0.86588979  0.86615160  0.73202754  1
  Cu  Cu0  1  0.66833610  0.48477413  0.33380225  1
  Cu  Cu1  1  0.66852877  0.84932856  0.33380359  1
  Cu  Cu2  1  0.33147123  0.15067244  0.66619641  1
  Cu  Cu3  1  0.33166290  0.51522587  0.66619775  1
  Sn  Sn0  1  0.50024136  0.19998162  0.99999024  1
  Sn  Sn1  1  0.49975864  0.80001838  0.00000976  1
  Sn  Sn2  1  0.21732110  0.71652149  0.43302300  1
  Sn  Sn3  1  0.78267690  0.28347751  0.56697700  1
loop_
_geom_bond_atom_site_label_1
_geom_bond_atom_site_label_2
_geom_bond_distance
_geom_bond_site_symmetry_2
Nd0 Sn1 3.099208 1_455
Nd0 Sn0 3.099218 1_554
Nd0 Sn1 3.099642 1_555
Nd0 Sn0 3.099652 1_454
Nd0 Sn2 3.255106 1_555
Nd0 Sn3 3.255106 1_454
Nd1 Sn3 3.199644 1_555
Nd1 Sn3 3.205003 1_455
Nd1 Sn1 3.346511 1_545
Nd1 Sn0 3.349123 1_454
Nd1 Sn0 3.350559 1_554
Nd1 Sn1 3.350711 1_445
Nd2 Sn2 3.199644 1_555
Nd2 Sn2 3.204992 1_655
Nd2 Sn0 3.346512 1_565
Nd2 Sn1 3.349130 1_656
Nd2 Sn1 3.350563 1_556
Nd2 Sn0 3.350716 1_665
Cu0 Cu1 2.549919 1_555
Cu0 Sn0 2.641175 1_554
Cu0 Sn2 2.715412 1_655
Cu0 Sn2 2.718476 1_555
Cu0 Sn3 2.831592 1_555
Cu0 Nd1 3.218769 1_655
Cu0 Nd1 3.229518 1_555
Cu0 Nd2 3.253456 1_555
Cu1 Sn1 2.640713 1_555
Cu1 Sn2 2.714289 1_655
Cu1 Sn2 2.721714 1_555
Cu1 Sn3 2.829255 1_565
Cu1 Nd1 3.217638 1_665
Cu1 Nd1 3.225383 1_565
Cu1 Nd2 3.253992 1_555
Cu2 Cu3 2.549912 1_555
Cu2 Sn0 2.640715 1_555
Cu2 Sn3 2.714290 1_455
Cu2 Sn3 2.721700 1_555
Cu2 Sn2 2.829266 1_545
Cu2 Nd2 3.217641 1_445
Cu2 Nd2 3.225382 1_545
Cu2 Nd1 3.253998 1_555
Cu3 Sn1 2.641175 1_556
Cu3 Sn3 2.715419 1_455
Cu3 Sn3 2.718475 1_555
Cu3 Sn2 2.831587 1_555
Cu3 Nd2 3.218768 1_455
Cu3 Nd2 3.229521 1_555
Cu3 Nd1 3.253461 1_555
Sn0 Sn1 2.797665 1_546
