# generated using pymatgen
data_ScAg(PS3)2
_symmetry_space_group_name_H-M   'P 1'
_cell_length_a   6.22209136
_cell_length_b   6.22209136
_cell_length_c   14.57894300
_cell_angle_alpha   90.00000000
_cell_angle_beta   90.00000000
_cell_angle_gamma   119.99999322
_symmetry_Int_Tables_number   1
_chemical_formula_structural   ScAg(PS3)2
_chemical_formula_sum   'Sc2 Ag2 P4 S12'
_cell_volume   488.79805253
_cell_formula_units_Z   2
loop_
 _symmetry_equiv_pos_site_id
 _symmetry_equiv_pos_as_xyz
  1  'x, y, z'
loop_
 _atom_site_type_symbol
 _atom_site_label
 _atom_site_symmetry_multiplicity
 _atom_site_fract_x
 _atom_site_fract_y
 _atom_site_fract_z
 _atom_site_occupancy
  Sc  Sc0  1  0.00000000  0.00000000  0.75000000  1
  Sc  Sc1  1  0.00000000  0.00000000  0.25000000  1
  Ag  Ag0  1  0.33333300  0.66666700  0.75000000  1
  Ag  Ag1  1  0.66666700  0.33333300  0.25000000  1
  P  P0  1  0.66666700  0.33333300  0.67369100  1
  P  P1  1  0.66666700  0.33333300  0.82630900  1
  P  P2  1  0.33333300  0.66666700  0.32630900  1
  P  P3  1  0.33333300  0.66666700  0.17369100  1
  S  S0  1  0.96581600  0.30383600  0.86527600  1
  S  S1  1  0.33802000  0.30383600  0.63472400  1
  S  S2  1  0.96581600  0.66198000  0.63472400  1
  S  S3  1  0.69616400  0.03418400  0.63472400  1
  S  S4  1  0.30383600  0.33802000  0.13472400  1
  S  S5  1  0.66198000  0.96581600  0.13472400  1
  S  S6  1  0.03418400  0.69616400  0.13472400  1
  S  S7  1  0.66198000  0.69616400  0.36527600  1
  S  S8  1  0.03418400  0.33802000  0.36527600  1
  S  S9  1  0.30383600  0.96581600  0.36527600  1
  S  S10  1  0.69616400  0.66198000  0.86527600  1
  S  S11  1  0.33802000  0.03418400  0.86527600  1
loop_
_geom_bond_atom_site_label_1
_geom_bond_atom_site_label_2
_geom_bond_distance
_geom_bond_site_symmetry_2
Ag0 S11 2.826251 1_565
Ag0 S2 2.826251 1_455
Ag0 S0 2.826254 1_455
Ag0 S3 2.826254 1_565
Ag0 S10 2.826256 1_555
Ag0 S1 2.826256 1_555
Ag1 S8 2.826251 1_655
Ag1 S5 2.826251 1_545
Ag1 S9 2.826254 1_545
Ag1 S6 2.826254 1_655
Ag1 S7 2.826256 1_555
Ag1 S4 2.826256 1_555
P0 S3 2.040244 1_555
P0 S2 2.040247 1_555
P0 S1 2.040250 1_555
P0 P1 2.225009 1_555
P1 S0 2.040244 1_555
P1 S11 2.040247 1_555
P1 S10 2.040250 1_555
P2 S9 2.040244 1_555
P2 S8 2.040247 1_555
P2 S7 2.040250 1_555
P2 P3 2.225009 1_555
P3 S6 2.040244 1_555
P3 S5 2.040247 1_555
P3 S4 2.040250 1_555
S0 Sc0 2.616436 1_655
S1 Sc0 2.616436 1_555
S2 Sc0 2.616436 1_665
S3 Sc0 2.616436 1_655
S4 Sc1 2.616436 1_555
S5 Sc1 2.616436 1_665
S6 Sc1 2.616436 1_565
S7 Sc1 2.616436 1_665
S8 Sc1 2.616436 1_555
S9 Sc1 2.616436 1_565
S10 Sc0 2.616436 1_665
S11 Sc0 2.616436 1_555
