# generated using pymatgen
data_RbGe3
_symmetry_space_group_name_H-M   'P 1'
_cell_length_a   7.51291367
_cell_length_b   7.51291367
_cell_length_c   4.94776500
_cell_angle_alpha   90.00000000
_cell_angle_beta   90.00000000
_cell_angle_gamma   119.99999710
_symmetry_Int_Tables_number   1
_chemical_formula_structural   RbGe3
_chemical_formula_sum   'Rb2 Ge6'
_cell_volume   241.85579927
_cell_formula_units_Z   2
loop_
 _symmetry_equiv_pos_site_id
 _symmetry_equiv_pos_as_xyz
  1  'x, y, z'
loop_
 _atom_site_type_symbol
 _atom_site_label
 _atom_site_symmetry_multiplicity
 _atom_site_fract_x
 _atom_site_fract_y
 _atom_site_fract_z
 _atom_site_occupancy
  Rb  Rb0  1  0.33333300  0.66666700  0.75000000  1
  Rb  Rb1  1  0.66666700  0.33333300  0.25000000  1
  Ge  Ge0  1  0.11758200  0.23516400  0.25000000  1
  Ge  Ge1  1  0.76483600  0.88241800  0.25000000  1
  Ge  Ge2  1  0.11758200  0.88241800  0.25000000  1
  Ge  Ge3  1  0.88241800  0.76483600  0.75000000  1
  Ge  Ge4  1  0.23516400  0.11758200  0.75000000  1
  Ge  Ge5  1  0.88241800  0.11758200  0.75000000  1
loop_
_geom_bond_atom_site_label_1
_geom_bond_atom_site_label_2
_geom_bond_distance
_geom_bond_site_symmetry_2
Ge0 Ge2 2.650150 1_545
Ge0 Ge1 2.650150 1_445
Ge0 Ge4 2.908813 1_555
Ge0 Ge4 2.908813 1_554
Ge0 Ge5 2.908813 1_455
Ge0 Ge5 2.908813 1_454
Ge0 Rb0 3.741960 1_555
Ge0 Rb0 3.741960 1_554
Ge0 Rb1 3.810369 1_455
Ge0 Rb1 3.810376 1_555
Ge1 Ge2 2.650150 1_655
Ge1 Ge3 2.908813 1_555
Ge1 Ge3 2.908813 1_554
Ge1 Ge5 2.908813 1_565
Ge1 Ge5 2.908813 1_564
Ge1 Rb0 3.741960 1_554
Ge1 Rb0 3.741960 1_555
Ge1 Rb1 3.810369 1_565
Ge1 Rb1 3.810376 1_555
Ge2 Ge4 2.908813 1_565
Ge2 Ge4 2.908813 1_564
Ge2 Ge3 2.908813 1_455
Ge2 Ge3 2.908813 1_454
Ge2 Rb0 3.741955 1_554
Ge2 Rb0 3.741955 1_555
Ge2 Rb1 3.810373 1_455
Ge2 Rb1 3.810373 1_565
Ge3 Ge5 2.650150 1_565
Ge3 Ge4 2.650150 1_665
Ge3 Rb1 3.741960 1_556
Ge3 Rb1 3.741960 1_555
Ge3 Rb0 3.810369 1_655
Ge3 Rb0 3.810376 1_555
Ge4 Ge5 2.650150 1_455
Ge4 Rb1 3.741960 1_556
Ge4 Rb1 3.741960 1_555
Ge4 Rb0 3.810369 1_545
Ge4 Rb0 3.810376 1_555
Ge5 Rb1 3.741955 1_555
Ge5 Rb1 3.741955 1_556
Ge5 Rb0 3.810373 1_545
Ge5 Rb0 3.810373 1_655
