# generated using pymatgen
data_AcGe3
_symmetry_space_group_name_H-M   'P 1'
_cell_length_a   6.64849103
_cell_length_b   6.64838328
_cell_length_c   4.91170335
_cell_angle_alpha   89.99949426
_cell_angle_beta   90.00057041
_cell_angle_gamma   119.99651913
_symmetry_Int_Tables_number   1
_chemical_formula_structural   AcGe3
_chemical_formula_sum   'Ac2 Ge6'
_cell_volume   188.02566312
_cell_formula_units_Z   2
loop_
 _symmetry_equiv_pos_site_id
 _symmetry_equiv_pos_as_xyz
  1  'x, y, z'
loop_
 _atom_site_type_symbol
 _atom_site_label
 _atom_site_symmetry_multiplicity
 _atom_site_fract_x
 _atom_site_fract_y
 _atom_site_fract_z
 _atom_site_occupancy
  Ac  Ac0  1  0.33337934  0.66666896  0.74996877  1
  Ac  Ac1  1  0.66661990  0.33333645  0.25001970  1
  Ge  Ge0  1  0.13481191  0.26967871  0.24999237  1
  Ge  Ge1  1  0.73032937  0.86517652  0.24999168  1
  Ge  Ge2  1  0.13482328  0.86516686  0.25001620  1
  Ge  Ge3  1  0.86518573  0.73031811  0.75001058  1
  Ge  Ge4  1  0.26967208  0.13482204  0.75001440  1
  Ge  Ge5  1  0.86518040  0.13483235  0.74999132  1
loop_
_geom_bond_atom_site_label_1
_geom_bond_atom_site_label_2
_geom_bond_distance
_geom_bond_site_symmetry_2
Ac0 Ge3 3.344291 1_555
Ac0 Ge4 3.344344 1_555
Ac0 Ge4 3.344396 1_565
Ac0 Ge5 3.344413 1_565
Ac0 Ge3 3.344481 1_455
Ac0 Ge5 3.344635 1_455
Ac0 Ge1 3.354818 1_555
Ac0 Ge0 3.354945 1_555
Ac0 Ge1 3.354961 1_556
Ac0 Ge2 3.355014 1_555
Ac0 Ge0 3.355100 1_556
Ac0 Ge2 3.355391 1_556
Ac1 Ge0 3.344279 1_555
Ac1 Ge1 3.344293 1_555
Ac1 Ge2 3.344413 1_545
Ac1 Ge1 3.344449 1_545
Ac1 Ge0 3.344504 1_655
Ac1 Ge2 3.344622 1_655
Ac1 Ge4 3.354873 1_555
Ac1 Ge4 3.354889 1_554
Ac1 Ge3 3.354963 1_555
Ac1 Ge3 3.355014 1_554
Ac1 Ge5 3.355124 1_555
Ac1 Ge5 3.355365 1_554
Ge0 Ge1 2.689384 1_445
Ge0 Ge2 2.689388 1_545
Ge0 Ge5 2.905431 1_454
Ge0 Ge5 2.905439 1_455
Ge0 Ge4 2.905570 1_554
Ge0 Ge4 2.905724 1_555
Ge1 Ge2 2.689306 1_655
Ge1 Ge5 2.905492 1_564
Ge1 Ge5 2.905501 1_565
Ge1 Ge3 2.905577 1_554
Ge1 Ge3 2.905705 1_555
Ge2 Ge3 2.905439 1_455
Ge2 Ge3 2.905468 1_454
Ge2 Ge4 2.905493 1_565
Ge2 Ge4 2.905496 1_564
Ge3 Ge5 2.689383 1_565
Ge3 Ge4 2.689402 1_665
Ge4 Ge5 2.689294 1_455
