# generated using pymatgen
data_CdSO4
_symmetry_space_group_name_H-M   'P 1'
_cell_length_a   4.89057734
_cell_length_b   4.89057664
_cell_length_c   7.18375609
_cell_angle_alpha   90.00000000
_cell_angle_beta   90.00000000
_cell_angle_gamma   113.80663794
_symmetry_Int_Tables_number   1
_chemical_formula_structural   CdSO4
_chemical_formula_sum   'Cd2 S2 O8'
_cell_volume   157.19963519
_cell_formula_units_Z   2
loop_
 _symmetry_equiv_pos_site_id
 _symmetry_equiv_pos_as_xyz
  1  'x, y, z'
loop_
 _atom_site_type_symbol
 _atom_site_label
 _atom_site_symmetry_multiplicity
 _atom_site_fract_x
 _atom_site_fract_y
 _atom_site_fract_z
 _atom_site_occupancy
  Cd  Cd0  1  -0.00000000  0.00000000  0.50000000  1
  Cd  Cd1  1  -0.00000000  0.00000000  0.00000000  1
  S  S0  1  0.63816894  0.36183106  0.25000000  1
  S  S1  1  0.36183106  0.63816894  0.75000000  1
  O  O0  1  0.24205239  0.30382625  0.75000000  1
  O  O1  1  0.75794761  0.69617375  0.25000000  1
  O  O2  1  0.30382625  0.24205239  0.25000000  1
  O  O3  1  0.69617375  0.75794761  0.75000000  1
  O  O4  1  0.26639597  0.73360403  0.92104949  1
  O  O5  1  0.73360403  0.26639597  0.42104949  1
  O  O6  1  0.73360403  0.26639597  0.07895051  1
  O  O7  1  0.26639597  0.73360403  0.57895051  1
loop_
_geom_bond_atom_site_label_1
_geom_bond_atom_site_label_2
_geom_bond_distance
_geom_bond_site_symmetry_2
Cd0 O5 2.255370 1_455
Cd0 O7 2.255370 1_545
Cd0 O1 2.326923 1_445
Cd0 O0 2.326923 1_555
Cd0 O2 2.326923 1_555
Cd0 O3 2.326923 1_445
Cd1 O6 2.255370 1_455
Cd1 O4 2.255370 1_544
Cd1 O1 2.326923 1_445
Cd1 O0 2.326923 1_554
Cd1 O2 2.326923 1_555
Cd1 O3 2.326923 1_444
O0 S1 1.497841 1_555
O1 S0 1.497841 1_555
O2 S0 1.497841 1_555
O3 S1 1.497841 1_555
O4 S1 1.456515 1_555
O5 S0 1.456515 1_555
O6 S0 1.456515 1_555
O7 S1 1.456515 1_555
