# generated using pymatgen
data_Mn6O5F7
_symmetry_space_group_name_H-M   'P 1'
_cell_length_a   4.70438928
_cell_length_b   5.75275539
_cell_length_c   15.62619803
_cell_angle_alpha   90.02833197
_cell_angle_beta   89.45681019
_cell_angle_gamma   91.54666923
_symmetry_Int_Tables_number   1
_chemical_formula_structural   Mn6O5F7
_chemical_formula_sum   'Mn12 O10 F14'
_cell_volume   422.72185303
_cell_formula_units_Z   2
loop_
 _symmetry_equiv_pos_site_id
 _symmetry_equiv_pos_as_xyz
  1  'x, y, z'
loop_
 _atom_site_type_symbol
 _atom_site_label
 _atom_site_symmetry_multiplicity
 _atom_site_fract_x
 _atom_site_fract_y
 _atom_site_fract_z
 _atom_site_occupancy
  Mn  Mn0  1  0.05213600  0.16005000  0.41423700  1
  Mn  Mn1  1  0.99082200  0.84395100  0.24754800  1
  Mn  Mn2  1  0.01357400  0.17476000  0.07796800  1
  Mn  Mn3  1  0.99696300  0.15763700  0.74171000  1
  Mn  Mn4  1  0.02735300  0.85754200  0.57874900  1
  Mn  Mn5  1  0.03637600  0.86130200  0.91139800  1
  Mn  Mn6  1  0.50063400  0.33355100  0.58807300  1
  Mn  Mn7  1  0.50524300  0.33573000  0.92482900  1
  Mn  Mn8  1  0.48154400  0.34695500  0.24854600  1
  Mn  Mn9  1  0.51931600  0.62349800  0.09013500  1
  Mn  Mn10  1  0.47681900  0.65222000  0.42479800  1
  Mn  Mn11  1  0.49278100  0.65627300  0.75191100  1
  O  O0  1  0.22040700  0.11687000  0.30292300  1
  O  O1  1  0.21898300  0.11133800  0.63613900  1
  O  O2  1  0.22251900  0.12304400  0.97051000  1
  O  O3  1  0.23469200  0.88422800  0.47398300  1
  O  O4  1  0.21591400  0.89558900  0.80011000  1
  O  O5  1  0.27696300  0.38960000  0.14157000  1
  O  O6  1  0.29139600  0.38988800  0.47923800  1
  O  O7  1  0.71663400  0.38049300  0.02968200  1
  O  O8  1  0.71658300  0.60491800  0.19484000  1
  O  O9  1  0.70735700  0.37222300  0.69545200  1
  F  F0  1  0.25177700  0.87916300  0.13425700  1
  F  F1  1  0.23999800  0.61501000  0.31105900  1
  F  F2  1  0.25328600  0.60549300  0.64300500  1
  F  F3  1  0.26093900  0.39465700  0.82029200  1
  F  F4  1  0.27903700  0.62706900  0.98368200  1
  F  F5  1  0.71608000  0.39386500  0.35798500  1
  F  F6  1  0.75185200  0.61715000  0.53359400  1
  F  F7  1  0.73896700  0.61364600  0.86801500  1
  F  F8  1  0.77436500  0.10750000  0.18669600  1
  F  F9  1  0.78087400  0.13213500  0.51592300  1
  F  F10  1  0.74604600  0.88348700  0.36486900  1
  F  F11  1  0.77531600  0.86788400  0.02608300  1
  F  F12  1  0.75906300  0.11720500  0.85097900  1
  F  F13  1  0.75739800  0.87407600  0.67921300  1
loop_
_geom_bond_atom_site_label_1
_geom_bond_atom_site_label_2
_geom_bond_distance
_geom_bond_site_symmetry_2
Mn0 O0 1.923018 1_555
Mn0 O6 1.996703 1_555
Mn0 O3 2.053567 1_545
Mn1 O8 2.038858 1_555
Mn1 O0 2.074878 1_665
Mn2 O2 1.964254 1_554
Mn2 O5 1.997511 1_555
Mn2 O7 2.007875 1_455
Mn3 O1 1.966009 1_655
Mn3 O9 2.003227 1_555
Mn3 O4 2.066229 1_645
Mn4 O3 1.901827 1_555
Mn4 O1 1.921352 1_565
Mn5 O4 1.933890 1_555
Mn5 O2 1.957057 1_565
Mn6 O9 1.956933 1_555
Mn6 O1 1.960750 1_555
Mn6 O6 2.003938 1_555
Mn7 O2 1.915880 1_555
Mn7 O7 1.938158 1_556
Mn8 O5 1.955620 1_555
Mn8 O0 1.968935 1_555
Mn8 O8 2.006042 1_555
Mn9 O8 1.893125 1_555
Mn9 O5 1.912400 1_555
Mn9 O7 1.939178 1_555
Mn10 O6 1.917863 1_555
Mn10 O3 1.932357 1_555
Mn11 O4 2.058225 1_555
Mn11 O9 2.130317 1_555
F0 Mn9 2.074875 1_555
F0 Mn1 2.151239 1_455
F0 Mn2 2.245915 1_565
F1 Mn1 2.049468 1_455
F1 Mn10 2.114274 1_555
F1 Mn8 2.166897 1_555
F2 Mn11 2.066135 1_555
F2 Mn4 2.084509 1_555
F2 Mn6 2.148541 1_555
F3 Mn7 2.039941 1_555
F3 Mn11 2.118321 1_555
F3 Mn3 2.201146 1_455
F4 Mn9 2.020439 1_556
F4 Mn5 2.122197 1_555
F4 Mn7 2.205306 1_555
F5 Mn8 2.057655 1_555
F5 Mn10 2.152294 1_555
F5 Mn0 2.285513 1_655
F6 Mn4 2.002431 1_655
F6 Mn10 2.158970 1_555
F6 Mn6 2.159017 1_555
F7 Mn5 2.087182 1_655
F7 Mn7 2.107424 1_555
F7 Mn11 2.179133 1_555
F8 Mn2 2.060000 1_655
F8 Mn1 2.083963 1_545
F8 Mn8 2.192069 1_555
F9 Mn0 2.032198 1_655
F9 Mn6 2.098746 1_555
F9 Mn4 2.219382 1_645
F10 Mn10 2.034432 1_555
F10 Mn1 2.170795 1_555
F10 Mn0 2.257447 1_665
F11 Mn9 2.077461 1_555
F11 Mn5 2.163801 1_654
F11 Mn2 2.222439 1_665
F12 Mn3 2.042590 1_555
F12 Mn7 2.095549 1_555
F12 Mn5 2.211093 1_645
F13 Mn4 2.013689 1_655
F13 Mn11 2.073760 1_555
F13 Mn3 2.192014 1_565
