# generated using pymatgen
data_PrBS3
_symmetry_space_group_name_H-M   'P 1'
_cell_length_a   7.66742708
_cell_length_b   6.02901654
_cell_length_c   8.97746712
_cell_angle_alpha   90.00000000
_cell_angle_beta   90.00000000
_cell_angle_gamma   90.00000000
_symmetry_Int_Tables_number   1
_chemical_formula_structural   PrBS3
_chemical_formula_sum   'Pr4 B4 S12'
_cell_volume   415.00177371
_cell_formula_units_Z   4
loop_
 _symmetry_equiv_pos_site_id
 _symmetry_equiv_pos_as_xyz
  1  'x, y, z'
loop_
 _atom_site_type_symbol
 _atom_site_label
 _atom_site_symmetry_multiplicity
 _atom_site_fract_x
 _atom_site_fract_y
 _atom_site_fract_z
 _atom_site_occupancy
  Pr  Pr0  1  0.88577626  0.07165827  0.43299727  1
  Pr  Pr1  1  0.11422374  0.92834173  0.93299627  1
  Pr  Pr2  1  0.61422474  0.57165827  0.93299627  1
  Pr  Pr3  1  0.38577526  0.42834173  0.43299727  1
  B  B0  1  0.85360207  0.59626214  0.60458942  1
  B  B1  1  0.14639693  0.40373986  0.10458842  1
  B  B2  1  0.64639693  0.09626214  0.10458842  1
  B  B3  1  0.35360307  0.90373986  0.60458942  1
  S  S0  1  0.82708981  0.83508056  0.72649928  1
  S  S1  1  0.17291019  0.16491944  0.22649928  1
  S  S2  1  0.67290919  0.33508056  0.22649928  1
  S  S3  1  0.32709081  0.66491944  0.72649928  1
  S  S4  1  0.20383402  0.13373348  0.63537939  1
  S  S5  1  0.79616698  0.86626452  0.13537939  1
  S  S6  1  0.29616698  0.63373348  0.13537939  1
  S  S7  1  0.70383302  0.36626652  0.63537939  1
  S  S8  1  -0.00185820  0.59535181  0.44635564  1
  S  S9  1  0.00185720  0.40464919  0.94635464  1
  S  S10  1  0.50185820  0.09535181  0.94635464  1
  S  S11  1  0.49814280  0.90464919  0.44635564  1
loop_
_geom_bond_atom_site_label_1
_geom_bond_atom_site_label_2
_geom_bond_distance
_geom_bond_site_symmetry_2
Pr0 S7 2.898630 1_555
Pr0 S1 2.932538 1_655
Pr0 S2 2.936474 1_555
Pr0 S8 3.000514 1_645
Pr0 S5 3.023957 1_545
Pr0 S0 3.029789 1_545
Pr0 S4 3.064033 1_655
Pr0 S11 3.140368 1_545
Pr0 S8 3.274990 1_655
Pr1 S6 2.898635 1_556
Pr1 S0 2.932533 1_455
Pr1 S3 2.936468 1_555
Pr1 S9 3.000522 1_565
Pr1 S4 3.023946 1_565
Pr1 S1 3.029796 1_566
Pr1 S5 3.064033 1_456
Pr1 S10 3.140378 1_565
Pr1 S9 3.274987 1_555
Pr2 S5 2.898624 1_556
Pr2 S3 2.932533 1_555
Pr2 S0 2.936460 1_555
Pr2 S10 3.000517 1_555
Pr2 S7 3.023943 1_555
Pr2 S2 3.029794 1_556
Pr2 S6 3.064038 1_556
Pr2 S9 3.140361 1_655
Pr2 S10 3.274992 1_565
Pr3 S4 2.898622 1_555
Pr3 S2 2.932538 1_555
Pr3 S1 2.936465 1_555
Pr3 S11 3.000525 1_555
Pr3 S6 3.023951 1_555
Pr3 S3 3.029786 1_555
Pr3 S7 3.064033 1_555
Pr3 S8 3.140370 1_555
Pr3 S11 3.274989 1_545
B0 S8 1.801714 1_655
B0 S0 1.819963 1_555
B0 S7 1.821507 1_555
B1 S9 1.801714 1_554
B1 S1 1.819979 1_555
B1 S6 1.821504 1_555
B2 S10 1.801709 1_554
B2 S2 1.819968 1_555
B2 S5 1.821523 1_545
B3 S11 1.801714 1_555
B3 S3 1.819973 1_555
B3 S4 1.821498 1_565
