# generated using pymatgen
data_RhI2
_symmetry_space_group_name_H-M   'P 1'
_cell_length_a   6.40587400
_cell_length_b   6.40587400
_cell_length_c   4.18918800
_cell_angle_alpha   90.00000000
_cell_angle_beta   90.00000000
_cell_angle_gamma   90.00000000
_symmetry_Int_Tables_number   1
_chemical_formula_structural   RhI2
_chemical_formula_sum   'Rh2 I4'
_cell_volume   171.90425834
_cell_formula_units_Z   2
loop_
 _symmetry_equiv_pos_site_id
 _symmetry_equiv_pos_as_xyz
  1  'x, y, z'
loop_
 _atom_site_type_symbol
 _atom_site_label
 _atom_site_symmetry_multiplicity
 _atom_site_fract_x
 _atom_site_fract_y
 _atom_site_fract_z
 _atom_site_occupancy
  Rh  Rh0  1  0.00000000  0.00000000  0.00000000  1
  Rh  Rh1  1  0.50000000  0.50000000  0.50000000  1
  I  I0  1  0.30503600  0.30503600  0.00000000  1
  I  I1  1  0.69496400  0.69496400  0.00000000  1
  I  I2  1  0.19496400  0.80503600  0.50000000  1
  I  I3  1  0.80503600  0.19496400  0.50000000  1
loop_
_geom_bond_atom_site_label_1
_geom_bond_atom_site_label_2
_geom_bond_distance
_geom_bond_site_symmetry_2
I0 Rh1 2.739872 1_555
I0 Rh1 2.739872 1_554
I0 Rh0 2.763405 1_555
I1 Rh1 2.739872 1_555
I1 Rh1 2.739872 1_554
I1 Rh0 2.763405 1_665
I2 Rh0 2.739872 1_566
I2 Rh0 2.739872 1_565
I2 Rh1 2.763405 1_555
I3 Rh0 2.739872 1_656
I3 Rh0 2.739872 1_655
I3 Rh1 2.763405 1_555
