# generated using pymatgen
data_CaSbPt
_symmetry_space_group_name_H-M   'P 1'
_cell_length_a   4.58697735
_cell_length_b   7.38994202
_cell_length_c   7.92223563
_cell_angle_alpha   90.00000000
_cell_angle_beta   90.00000000
_cell_angle_gamma   90.00000000
_symmetry_Int_Tables_number   1
_chemical_formula_structural   CaSbPt
_chemical_formula_sum   'Ca4 Sb4 Pt4'
_cell_volume   268.54395584
_cell_formula_units_Z   4
loop_
 _symmetry_equiv_pos_site_id
 _symmetry_equiv_pos_as_xyz
  1  'x, y, z'
loop_
 _atom_site_type_symbol
 _atom_site_label
 _atom_site_symmetry_multiplicity
 _atom_site_fract_x
 _atom_site_fract_y
 _atom_site_fract_z
 _atom_site_occupancy
  Ca  Ca0  1  0.75000000  0.99202505  0.30294607  1
  Ca  Ca1  1  0.25000000  0.00797495  0.69705393  1
  Ca  Ca2  1  0.75000000  0.49202505  0.19705393  1
  Ca  Ca3  1  0.25000000  0.50797495  0.80294607  1
  Sb  Sb0  1  0.75000000  0.31370372  0.59090133  1
  Sb  Sb1  1  0.25000000  0.18629628  0.09090133  1
  Sb  Sb2  1  0.25000000  0.68629628  0.40909867  1
  Sb  Sb3  1  0.75000000  0.81370372  0.90909867  1
  Pt  Pt0  1  0.25000000  0.80438188  0.08592106  1
  Pt  Pt1  1  0.25000000  0.30438188  0.41407894  1
  Pt  Pt2  1  0.75000000  0.69561812  0.58592106  1
  Pt  Pt3  1  0.75000000  0.19561812  0.91407894  1
loop_
_geom_bond_atom_site_label_1
_geom_bond_atom_site_label_2
_geom_bond_distance
_geom_bond_site_symmetry_2
Ca0 Pt2 3.134267 1_555
Ca0 Pt0 3.184183 1_555
Ca0 Pt0 3.184183 1_655
Ca0 Sb1 3.184831 1_565
Ca0 Sb1 3.184831 1_665
Ca0 Sb0 3.294710 1_565
Ca0 Sb2 3.327436 1_555
Ca0 Sb2 3.327436 1_655
Ca0 Pt1 3.370975 1_565
Ca0 Pt1 3.370975 1_665
Ca0 Sb3 3.387020 1_554
Ca0 Pt3 3.428460 1_564
Ca1 Pt1 3.134267 1_555
Ca1 Pt3 3.184183 1_455
Ca1 Pt3 3.184183 1_555
Ca1 Sb3 3.184831 1_545
Ca1 Sb3 3.184831 1_445
Ca1 Sb2 3.294710 1_545
Ca1 Sb0 3.327436 1_455
Ca1 Sb0 3.327436 1_555
Ca1 Pt2 3.370975 1_445
Ca1 Pt2 3.370975 1_545
Ca1 Sb1 3.387020 1_556
Ca1 Pt0 3.428460 1_546
Ca2 Pt3 3.134267 1_554
Ca2 Pt1 3.184183 1_655
Ca2 Pt1 3.184183 1_555
Ca2 Sb2 3.184831 1_555
Ca2 Sb2 3.184831 1_655
Ca2 Sb3 3.294710 1_554
Ca2 Sb1 3.327436 1_555
Ca2 Sb1 3.327436 1_655
Ca2 Pt0 3.370975 1_655
Ca2 Pt0 3.370975 1_555
Ca2 Sb0 3.387020 1_555
Ca2 Pt2 3.428460 1_555
Ca3 Pt0 3.134267 1_556
Ca3 Pt2 3.184183 1_455
Ca3 Pt2 3.184183 1_555
Ca3 Sb0 3.184831 1_555
Ca3 Sb0 3.184831 1_455
Ca3 Sb1 3.294710 1_556
Ca3 Sb3 3.327436 1_555
Ca3 Sb3 3.327436 1_455
Ca3 Pt3 3.370975 1_555
Ca3 Pt3 3.370975 1_455
Ca3 Sb2 3.387020 1_555
Ca3 Pt1 3.428460 1_555
Pt0 Sb3 2.688337 1_454
Pt0 Sb3 2.688337 1_554
Pt0 Sb2 2.704920 1_555
Pt0 Sb1 2.822601 1_565
Pt1 Sb0 2.688337 1_455
Pt1 Sb0 2.688337 1_555
Pt1 Sb1 2.704920 1_555
Pt1 Sb2 2.822601 1_555
Pt2 Sb2 2.688337 1_555
Pt2 Sb2 2.688337 1_655
Pt2 Sb3 2.704920 1_555
Pt2 Sb0 2.822601 1_555
Pt3 Sb1 2.688337 1_656
Pt3 Sb1 2.688337 1_556
Pt3 Sb0 2.704920 1_555
Pt3 Sb3 2.822601 1_545
