# generated using pymatgen
data_Be2RuAu
_symmetry_space_group_name_H-M   'P 1'
_cell_length_a   4.00389638
_cell_length_b   4.00389638
_cell_length_c   4.00389638
_cell_angle_alpha   60.00000000
_cell_angle_beta   60.00000000
_cell_angle_gamma   60.00000000
_symmetry_Int_Tables_number   1
_chemical_formula_structural   Be2RuAu
_chemical_formula_sum   'Be2 Ru1 Au1'
_cell_volume   45.38721031
_cell_formula_units_Z   1
loop_
 _symmetry_equiv_pos_site_id
 _symmetry_equiv_pos_as_xyz
  1  'x, y, z'
loop_
 _atom_site_type_symbol
 _atom_site_label
 _atom_site_symmetry_multiplicity
 _atom_site_fract_x
 _atom_site_fract_y
 _atom_site_fract_z
 _atom_site_occupancy
  Be  Be0  1  0.49999900  0.49999900  0.49999900  1
  Be  Be1  1  -0.00000000  -0.00000000  -0.00000000  1
  Ru  Ru0  1  0.75000000  0.75000000  0.75000000  1
  Au  Au0  1  0.25000000  0.25000000  0.25000000  1
loop_
_geom_bond_atom_site_label_1
_geom_bond_atom_site_label_2
_geom_bond_distance
_geom_bond_site_symmetry_2
Be0 Ru0 2.451873 1_545
Be0 Ru0 2.451873 1_455
Be0 Ru0 2.451873 1_554
Be0 Ru0 2.451886 1_555
Be1 Ru0 2.451876 1_454
Be1 Ru0 2.451876 1_544
Be1 Ru0 2.451876 1_444
Be1 Ru0 2.451876 1_445
Au0 Be0 2.451866 1_555
Au0 Be1 2.451876 1_556
Au0 Be1 2.451876 1_655
Au0 Be1 2.451876 1_565
Au0 Be1 2.451876 1_555
Au0 Be0 2.451879 1_554
Au0 Be0 2.451879 1_455
Au0 Be0 2.451879 1_545
