# generated using pymatgen
data_MgSc2Tl
_symmetry_space_group_name_H-M   'P 1'
_cell_length_a   5.04062056
_cell_length_b   5.04062056
_cell_length_c   5.04062056
_cell_angle_alpha   60.00000000
_cell_angle_beta   60.00000000
_cell_angle_gamma   60.00000000
_symmetry_Int_Tables_number   1
_chemical_formula_structural   MgSc2Tl
_chemical_formula_sum   'Mg1 Sc2 Tl1'
_cell_volume   90.56012681
_cell_formula_units_Z   1
loop_
 _symmetry_equiv_pos_site_id
 _symmetry_equiv_pos_as_xyz
  1  'x, y, z'
loop_
 _atom_site_type_symbol
 _atom_site_label
 _atom_site_symmetry_multiplicity
 _atom_site_fract_x
 _atom_site_fract_y
 _atom_site_fract_z
 _atom_site_occupancy
  Mg  Mg0  1  0.25000100  0.25000100  0.25000100  1
  Sc  Sc0  1  0.00000000  -0.00000000  0.00000000  1
  Sc  Sc1  1  0.50000000  0.50000000  0.50000000  1
  Tl  Tl0  1  0.75000000  0.75000000  0.75000000  1
loop_
_geom_bond_atom_site_label_1
_geom_bond_atom_site_label_2
_geom_bond_distance
_geom_bond_site_symmetry_2
Mg0 Sc1 3.086725 1_555
Mg0 Sc0 3.086733 1_655
Mg0 Sc0 3.086733 1_556
Mg0 Sc0 3.086733 1_565
Mg0 Sc1 3.086741 1_455
Mg0 Sc1 3.086741 1_545
Mg0 Sc1 3.086741 1_554
Mg0 Sc0 3.086749 1_555
Sc0 Tl0 3.086737 1_454
Sc0 Tl0 3.086737 1_445
Sc0 Tl0 3.086737 1_444
Sc0 Tl0 3.086737 1_544
Sc1 Tl0 3.086737 1_555
Sc1 Tl0 3.086737 1_554
Sc1 Tl0 3.086737 1_545
Sc1 Tl0 3.086737 1_455
