# generated using pymatgen
data_Ni6OF11
_symmetry_space_group_name_H-M   'P 1'
_cell_length_a   4.69776300
_cell_length_b   5.63391862
_cell_length_c   7.78905698
_cell_angle_alpha   86.40087774
_cell_angle_beta   89.67108502
_cell_angle_gamma   89.57413605
_symmetry_Int_Tables_number   1
_chemical_formula_structural   Ni6OF11
_chemical_formula_sum   'Ni6 O1 F11'
_cell_volume   205.73637518
_cell_formula_units_Z   1
loop_
 _symmetry_equiv_pos_site_id
 _symmetry_equiv_pos_as_xyz
  1  'x, y, z'
loop_
 _atom_site_type_symbol
 _atom_site_label
 _atom_site_symmetry_multiplicity
 _atom_site_fract_x
 _atom_site_fract_y
 _atom_site_fract_z
 _atom_site_occupancy
  Ni  Ni0  1  0.51115800  0.49431700  0.99664000  1
  Ni  Ni1  1  0.49763700  0.16785800  0.33479100  1
  Ni  Ni2  1  0.49926000  0.83232900  0.66584500  1
  Ni  Ni3  1  0.00336400  0.66561900  0.33129100  1
  Ni  Ni4  1  0.99184300  0.33453400  0.67335300  1
  Ni  Ni5  1  0.99436200  0.00657600  0.99880500  1
  O  O0  1  0.80490400  0.29634200  0.89917100  1
  F  F0  1  0.80395500  0.63143700  0.56471100  1
  F  F1  1  0.80367300  0.96468800  0.23248000  1
  F  F2  1  0.69663400  0.79778100  0.89796900  1
  F  F3  1  0.69475400  0.46546200  0.23319900  1
  F  F4  1  0.69710300  0.12959700  0.56518500  1
  F  F5  1  0.30378200  0.86858700  0.43352100  1
  F  F6  1  0.30440400  0.53505200  0.76788900  1
  F  F7  1  0.30343400  0.20339400  0.10196400  1
  F  F8  1  0.19877400  0.03566100  0.76758100  1
  F  F9  1  0.19261100  0.36803300  0.43908800  1
  F  F10  1  0.19834800  0.70273100  0.09651700  1
loop_
_geom_bond_atom_site_label_1
_geom_bond_atom_site_label_2
_geom_bond_distance
_geom_bond_site_symmetry_2
Ni0 O0 1.948358 1_555
Ni4 O0 1.961847 1_555
Ni5 O0 1.971496 1_555
F0 Ni2 2.006314 1_555
F0 Ni4 2.025362 1_555
F0 Ni3 2.039454 1_655
F1 Ni1 2.022155 1_565
F1 Ni5 2.025206 1_564
F1 Ni3 2.033066 1_655
F2 Ni5 2.027301 1_565
F2 Ni0 2.030371 1_555
F2 Ni2 2.034443 1_555
F3 Ni3 2.025449 1_655
F3 Ni1 2.035435 1_555
F3 Ni0 2.035667 1_554
F4 Ni1 2.027972 1_555
F4 Ni4 2.029633 1_555
F4 Ni2 2.033067 1_545
F5 Ni3 2.021043 1_555
F5 Ni1 2.028682 1_565
F5 Ni2 2.032117 1_555
F6 Ni4 2.028783 1_455
F6 Ni2 2.030285 1_555
F6 Ni0 2.033697 1_555
F7 Ni1 2.032707 1_555
F7 Ni5 2.032864 1_454
F7 Ni0 2.038990 1_554
F8 Ni2 2.002493 1_545
F8 Ni5 2.034227 1_455
F8 Ni4 2.036578 1_455
F9 Ni1 2.015632 1_555
F9 Ni3 2.028782 1_555
F9 Ni4 2.048015 1_455
F10 Ni3 2.040194 1_555
F10 Ni0 2.054089 1_554
F10 Ni5 2.061153 1_464
