# generated using pymatgen
data_LiNi5P3O13
_symmetry_space_group_name_H-M   'P 1'
_cell_length_a   6.02694000
_cell_length_b   8.41447813
_cell_length_c   9.76502700
_cell_angle_alpha   96.62891352
_cell_angle_beta   95.75888038
_cell_angle_gamma   90.10121185
_symmetry_Int_Tables_number   1
_chemical_formula_structural   LiNi5P3O13
_chemical_formula_sum   'Li2 Ni10 P6 O26'
_cell_volume   489.38118616
_cell_formula_units_Z   2
loop_
 _symmetry_equiv_pos_site_id
 _symmetry_equiv_pos_as_xyz
  1  'x, y, z'
loop_
 _atom_site_type_symbol
 _atom_site_label
 _atom_site_symmetry_multiplicity
 _atom_site_fract_x
 _atom_site_fract_y
 _atom_site_fract_z
 _atom_site_occupancy
  Li  Li0  1  0.22239400  0.42071000  0.45160000  1
  Li  Li1  1  0.77760600  0.57929000  0.54840000  1
  Ni  Ni0  1  0.01810600  0.11658600  0.77850600  1
  Ni  Ni1  1  0.26820900  0.84953800  0.92588500  1
  Ni  Ni2  1  0.28522300  0.79416500  0.61720300  1
  Ni  Ni3  1  0.22807600  0.58659500  0.10629500  1
  Ni  Ni4  1  0.52401700  0.11815800  0.76715900  1
  Ni  Ni5  1  0.47598300  0.88184100  0.23284100  1
  Ni  Ni6  1  0.77192400  0.41340500  0.89370500  1
  Ni  Ni7  1  0.71477700  0.20583500  0.38279700  1
  Ni  Ni8  1  0.73179100  0.15046200  0.07411500  1
  Ni  Ni9  1  0.98189400  0.88341400  0.22149400  1
  P  P0  1  0.26079100  0.47073700  0.77032200  1
  P  P1  1  0.24114000  0.11435500  0.47960400  1
  P  P2  1  0.25011800  0.18279300  0.10813900  1
  P  P3  1  0.74988200  0.81720700  0.89186100  1
  P  P4  1  0.75886000  0.88564500  0.52039600  1
  P  P5  1  0.73920900  0.52926300  0.22967800  1
  O  O0  1  0.04717200  0.36489300  0.76594000  1
  O  O1  1  0.03445400  0.21957500  0.45956400  1
  O  O2  1  0.04028400  0.11386900  0.16239500  1
  O  O3  1  0.27617700  0.11183600  0.95325500  1
  O  O4  1  0.27430500  0.59986100  0.89850700  1
  O  O5  1  0.25486200  0.05085600  0.63043400  1
  O  O6  1  0.25322500  0.55551600  0.63553900  1
  O  O7  1  0.24291500  0.96013800  0.37709600  1
  O  O8  1  0.21443000  0.81634900  0.10750800  1
  O  O9  1  0.23891200  0.36236100  0.13041600  1
  O  O10  1  0.46871200  0.36156600  0.78118900  1
  O  O11  1  0.43797100  0.23042700  0.47458000  1
  O  O12  1  0.52812200  0.87486600  0.80720000  1
  O  O13  1  0.47187800  0.12513400  0.19280000  1
  O  O14  1  0.56202900  0.76957300  0.52542000  1
  O  O15  1  0.53128800  0.63843400  0.21881100  1
  O  O16  1  0.76108800  0.63763900  0.86958400  1
  O  O17  1  0.78557000  0.18365100  0.89249200  1
  O  O18  1  0.75708500  0.03986200  0.62290400  1
  O  O19  1  0.74677500  0.44448400  0.36446100  1
  O  O20  1  0.74513800  0.94914400  0.36956600  1
  O  O21  1  0.72569500  0.40013900  0.10149300  1
  O  O22  1  0.72382300  0.88816400  0.04674500  1
  O  O23  1  0.95971600  0.88613100  0.83760500  1
  O  O24  1  0.96554600  0.78042500  0.54043600  1
  O  O25  1  0.95282800  0.63510700  0.23406000  1
loop_
_geom_bond_atom_site_label_1
_geom_bond_atom_site_label_2
_geom_bond_distance
_geom_bond_site_symmetry_2
Li0 O6 2.002328 1_555
Li0 O1 2.048104 1_555
Li0 O11 2.081796 1_555
Li1 O19 2.002328 1_555
Li1 O24 2.048104 1_555
Li1 O14 2.081796 1_555
Ni0 O17 1.921555 1_455
Ni0 O0 2.115051 1_555
Ni0 O18 2.119102 1_455
Ni0 O23 2.124605 1_445
Ni0 O5 2.159837 1_555
Ni0 O3 2.194543 1_555
Ni1 O8 1.886249 1_556
Ni1 O23 2.009100 1_455
Ni1 O12 2.064622 1_555
Ni1 O4 2.087865 1_555
Ni1 O3 2.192234 1_565
Ni2 O14 1.971745 1_555
Ni2 O24 1.994177 1_455
Ni2 O6 2.047027 1_555
Ni2 O5 2.158042 1_565
Ni2 O12 2.281886 1_555
Ni3 O9 1.928668 1_555
Ni3 O8 1.933874 1_555
Ni3 O15 2.054407 1_555
Ni3 O4 2.091122 1_554
Ni3 O25 2.185253 1_455
Ni4 O17 1.934048 1_555
Ni4 O5 2.030340 1_555
Ni4 O10 2.066782 1_555
Ni4 O12 2.127784 1_545
Ni4 O18 2.139532 1_555
Ni4 O3 2.470453 1_555
Ni5 O8 1.934046 1_555
Ni5 O20 2.030341 1_555
Ni5 O15 2.066774 1_555
Ni5 O13 2.127792 1_565
Ni5 O7 2.139534 1_555
Ni5 O22 2.470453 1_555
Ni6 O16 1.928668 1_555
Ni6 O17 1.933874 1_555
Ni6 O10 2.054407 1_555
Ni6 O21 2.091122 1_556
Ni6 O0 2.185253 1_655
Ni7 O11 1.971745 1_555
Ni7 O1 1.994177 1_655
Ni7 O19 2.047027 1_555
Ni7 O20 2.158042 1_545
Ni7 O13 2.281886 1_555
Ni8 O17 1.886249 1_554
Ni8 O2 2.009100 1_655
Ni8 O13 2.064622 1_555
Ni8 O21 2.087865 1_555
Ni8 O22 2.192234 1_545
Ni9 O8 1.921555 1_655
Ni9 O25 2.115051 1_555
Ni9 O7 2.119102 1_655
Ni9 O2 2.124605 1_665
Ni9 O20 2.159837 1_555
Ni9 O22 2.194543 1_555
O0 P0 1.558432 1_555
O1 P1 1.539118 1_555
O2 P2 1.555386 1_555
O3 P2 1.583718 1_556
O4 P0 1.555377 1_555
O5 P1 1.618346 1_555
O6 P0 1.564640 1_555
O7 P1 1.545417 1_565
O9 P2 1.504107 1_555
O10 P0 1.557348 1_555
O11 P1 1.543454 1_555
O12 P3 1.605717 1_555
O13 P2 1.605717 1_555
O14 P4 1.543454 1_555
O15 P5 1.557348 1_555
O16 P3 1.504107 1_555
O18 P4 1.545417 1_545
O19 P5 1.564640 1_555
O20 P4 1.618346 1_555
O21 P5 1.555377 1_555
O22 P3 1.583718 1_554
O23 P3 1.555386 1_555
O24 P4 1.539118 1_555
O25 P5 1.558432 1_555
