# generated using pymatgen
data_Li2Cr2NiO6
_symmetry_space_group_name_H-M   'P 1'
_cell_length_a   7.83947575
_cell_length_b   7.83947583
_cell_length_c   5.93029647
_cell_angle_alpha   101.79403264
_cell_angle_beta   101.79403162
_cell_angle_gamma   67.90198671
_symmetry_Int_Tables_number   1
_chemical_formula_structural   Li2Cr2NiO6
_chemical_formula_sum   'Li6 Cr6 Ni3 O18'
_cell_volume   327.27616360
_cell_formula_units_Z   3
loop_
 _symmetry_equiv_pos_site_id
 _symmetry_equiv_pos_as_xyz
  1  'x, y, z'
loop_
 _atom_site_type_symbol
 _atom_site_label
 _atom_site_symmetry_multiplicity
 _atom_site_fract_x
 _atom_site_fract_y
 _atom_site_fract_z
 _atom_site_occupancy
  Li  Li0  1  0.32218400  0.66714800  0.49867300  1
  Li  Li1  1  0.66714800  0.32218400  0.49867300  1
  Li  Li2  1  0.99839700  0.66826900  0.16666700  1
  Li  Li3  1  0.66826900  0.99839700  0.16666700  1
  Li  Li4  1  0.99951900  0.34448200  0.83466100  1
  Li  Li5  1  0.34448200  0.99951900  0.83466100  1
  Cr  Cr0  1  0.00477300  0.00477300  0.99051000  1
  Cr  Cr1  1  0.66189300  0.66189300  0.34282400  1
  Cr  Cr2  1  0.33103600  0.66777000  0.99269600  1
  Cr  Cr3  1  0.66777000  0.33103600  0.99269600  1
  Cr  Cr4  1  0.99889700  0.33563100  0.34063700  1
  Cr  Cr5  1  0.33563100  0.99889700  0.34063700  1
  Ni  Ni0  1  0.99502200  0.67164500  0.66666700  1
  Ni  Ni1  1  0.33333300  0.33333300  0.66666700  1
  Ni  Ni2  1  0.67164500  0.99502200  0.66666700  1
  O  O0  1  0.81987300  0.81987300  0.44154700  1
  O  O1  1  0.48892000  0.82834900  0.10758500  1
  O  O2  1  0.82834900  0.48892000  0.10758500  1
  O  O3  1  0.84679400  0.84679400  0.89178600  1
  O  O4  1  0.48776800  0.83670100  0.55730500  1
  O  O5  1  0.83670100  0.48776800  0.55730500  1
  O  O6  1  0.17774600  0.83831800  0.22574800  1
  O  O7  1  0.50455900  0.50455900  0.21713600  1
  O  O8  1  0.83831800  0.17774600  0.22574800  1
  O  O9  1  0.17889900  0.82996500  0.77602800  1
  O  O10  1  0.48225000  0.48225000  0.75254200  1
  O  O11  1  0.82996500  0.17889900  0.77602800  1
  O  O12  1  0.14283500  0.50531100  0.44134600  1
  O  O13  1  0.50531100  0.14283500  0.44134600  1
  O  O14  1  0.16210800  0.16210800  0.11619700  1
  O  O15  1  0.16135500  0.52383200  0.89198700  1
  O  O16  1  0.52383200  0.16135500  0.89198700  1
  O  O17  1  0.18441600  0.18441600  0.58079100  1
loop_
_geom_bond_atom_site_label_1
_geom_bond_atom_site_label_2
_geom_bond_distance
_geom_bond_site_symmetry_2
Li0 O9 2.101101 1_555
Li0 O4 2.120727 1_555
Li0 O12 2.161588 1_555
Li0 O10 2.166462 1_555
Li0 O6 2.167458 1_555
Li0 O7 2.278392 1_555
Li1 O11 2.101101 1_555
Li1 O5 2.120727 1_555
Li1 O13 2.161588 1_555
Li1 O10 2.166462 1_555
Li1 O8 2.167458 1_555
Li1 O7 2.278392 1_555
Li2 O12 2.139134 1_655
Li2 O15 2.139137 1_654
Li2 O2 2.212379 1_555
Li2 O6 2.212386 1_655
Li2 O0 2.217582 1_555
Li2 O3 2.217590 1_554
Li3 O13 2.139134 1_565
Li3 O16 2.139137 1_564
Li3 O1 2.212379 1_555
Li3 O8 2.212386 1_565
Li3 O0 2.217582 1_555
Li3 O3 2.217590 1_554
Li4 O5 2.101111 1_555
Li4 O11 2.120726 1_555
Li4 O15 2.161589 1_655
Li4 O17 2.166462 1_655
Li4 O2 2.167454 1_556
Li4 O14 2.278383 1_656
Li5 O4 2.101111 1_555
Li5 O9 2.120726 1_555
Li5 O16 2.161589 1_565
Li5 O17 2.166462 1_565
Li5 O1 2.167454 1_556
Li5 O14 2.278383 1_566
Cr0 O9 1.987202 1_545
Cr0 O11 1.987202 1_455
Cr0 O3 1.992889 1_445
Cr0 O14 1.997805 1_556
Cr0 O8 2.031559 1_456
Cr0 O6 2.031559 1_546
Cr1 O4 1.987194 1_555
Cr1 O5 1.987194 1_555
Cr1 O0 1.992901 1_555
Cr1 O7 1.997794 1_555
Cr1 O2 2.031567 1_555
Cr1 O1 2.031567 1_555
Cr2 O9 1.894899 1_555
Cr2 O6 1.963803 1_556
Cr2 O7 1.976261 1_556
Cr2 O15 1.982048 1_555
Cr2 O1 2.014411 1_556
Cr2 O10 2.023621 1_555
Cr3 O11 1.894899 1_555
Cr3 O8 1.963803 1_556
Cr3 O7 1.976261 1_556
Cr3 O16 1.982048 1_555
Cr3 O2 2.014411 1_556
Cr3 O10 2.023621 1_555
Cr4 O5 1.894903 1_555
Cr4 O2 1.963799 1_555
Cr4 O14 1.976261 1_655
Cr4 O12 1.982042 1_655
Cr4 O8 2.014417 1_555
Cr4 O17 2.023622 1_655
Cr5 O4 1.894903 1_555
Cr5 O1 1.963799 1_555
Cr5 O14 1.976261 1_565
Cr5 O13 1.982042 1_565
Cr5 O6 2.014417 1_555
Cr5 O17 2.023622 1_565
Ni0 O15 1.900630 1_655
Ni0 O12 1.900636 1_655
Ni0 O3 1.924133 1_555
Ni0 O0 1.924137 1_555
Ni0 O9 2.161910 1_655
Ni0 O5 2.161917 1_555
Ni1 O10 1.877362 1_555
Ni1 O17 1.877362 1_555
Ni1 O15 2.058943 1_555
Ni1 O16 2.058943 1_555
Ni1 O13 2.058944 1_555
Ni1 O12 2.058944 1_555
Ni2 O16 1.900630 1_565
Ni2 O13 1.900636 1_565
Ni2 O3 1.924133 1_555
Ni2 O0 1.924137 1_555
Ni2 O11 2.161910 1_565
Ni2 O4 2.161917 1_555
