# generated using pymatgen
data_LuRh3
_symmetry_space_group_name_H-M   'P 1'
_cell_length_a   3.96508493
_cell_length_b   3.96640823
_cell_length_c   3.96665778
_cell_angle_alpha   89.99515208
_cell_angle_beta   89.99727028
_cell_angle_gamma   90.00410048
_symmetry_Int_Tables_number   1
_chemical_formula_structural   LuRh3
_chemical_formula_sum   'Lu1 Rh3'
_cell_volume   62.38420367
_cell_formula_units_Z   1
loop_
 _symmetry_equiv_pos_site_id
 _symmetry_equiv_pos_as_xyz
  1  'x, y, z'
loop_
 _atom_site_type_symbol
 _atom_site_label
 _atom_site_symmetry_multiplicity
 _atom_site_fract_x
 _atom_site_fract_y
 _atom_site_fract_z
 _atom_site_occupancy
  Lu  Lu0  1  0.99999727  0.00000092  0.00000133  1
  Rh  Rh0  1  0.00000417  0.49999824  0.49999861  1
  Rh  Rh1  1  0.49999751  0.99999724  0.49999940  1
  Rh  Rh2  1  0.49999905  0.50000060  -0.00000034  1
loop_
_geom_bond_atom_site_label_1
_geom_bond_atom_site_label_2
_geom_bond_distance
_geom_bond_site_symmetry_2
Lu0 Rh2 2.804102 1_545
Lu0 Rh2 2.804110 1_655
Lu0 Rh1 2.804222 1_545
Lu0 Rh1 2.804234 1_644
Lu0 Rh2 2.804301 1_555
Lu0 Rh2 2.804313 1_645
Lu0 Rh1 2.804357 1_645
Lu0 Rh1 2.804366 1_544
Lu0 Rh0 2.804644 1_645
Lu0 Rh0 2.804644 1_654
Lu0 Rh0 2.804866 1_655
Lu0 Rh0 2.804896 1_644
Rh0 Rh1 2.804085 1_555
Rh0 Rh1 2.804127 1_445
Rh0 Rh2 2.804210 1_555
Rh0 Rh2 2.804245 1_456
Rh0 Rh1 2.804291 1_545
Rh0 Rh1 2.804323 1_455
Rh0 Rh2 2.804350 1_556
Rh0 Rh2 2.804373 1_455
Rh1 Rh2 2.804635 1_556
Rh1 Rh2 2.804652 1_565
Rh1 Rh2 2.804871 1_555
Rh1 Rh2 2.804891 1_566
