# generated using pymatgen
data_YNb2NO5
_symmetry_space_group_name_H-M   'P 1'
_cell_length_a   14.95658608
_cell_length_b   5.27082564
_cell_length_c   5.69253176
_cell_angle_alpha   89.85353886
_cell_angle_beta   90.00000000
_cell_angle_gamma   90.00000000
_symmetry_Int_Tables_number   1
_chemical_formula_structural   YNb2NO5
_chemical_formula_sum   'Y4 Nb8 N4 O20'
_cell_volume   448.76106294
_cell_formula_units_Z   4
loop_
 _symmetry_equiv_pos_site_id
 _symmetry_equiv_pos_as_xyz
  1  'x, y, z'
loop_
 _atom_site_type_symbol
 _atom_site_label
 _atom_site_symmetry_multiplicity
 _atom_site_fract_x
 _atom_site_fract_y
 _atom_site_fract_z
 _atom_site_occupancy
  Y  Y0  1  0.25192594  0.73920079  0.73571803  1
  Y  Y1  1  0.25100600  0.26000477  0.26778611  1
  Y  Y2  1  0.74899400  0.26000477  0.76778611  1
  Y  Y3  1  0.74807406  0.73920079  0.23571803  1
  Nb  Nb0  1  0.42228457  0.29749484  0.80459828  1
  Nb  Nb1  1  0.41600414  0.81684058  0.18997148  1
  Nb  Nb2  1  0.58399586  0.81684058  0.68997148  1
  Nb  Nb3  1  0.57771543  0.29749484  0.30459828  1
  Nb  Nb4  1  0.91259750  0.68568465  0.69965476  1
  Nb  Nb5  1  0.91542678  0.18669976  0.30972422  1
  Nb  Nb6  1  0.08457322  0.18669976  0.80972422  1
  Nb  Nb7  1  0.08740250  0.68568465  0.19965476  1
  N  N0  1  0.49030521  0.12980354  0.11792458  1
  N  N1  1  0.50969479  0.12980354  0.61792458  1
  N  N2  1  0.83683683  0.58247111  0.92405750  1
  N  N3  1  0.16316317  0.58247111  0.42405750  1
  O  O0  1  0.33407847  0.92257352  0.41290899  1
  O  O1  1  0.33601171  0.41876095  0.58559774  1
  O  O2  1  0.34008042  0.02771858  0.93151374  1
  O  O3  1  0.34034490  0.53842672  0.05868634  1
  O  O4  1  0.49216401  0.62999052  0.86472809  1
  O  O5  1  0.50783599  0.62999052  0.36472809  1
  O  O6  1  0.65965510  0.53842672  0.55868634  1
  O  O7  1  0.65991958  0.02771858  0.43151374  1
  O  O8  1  0.66592153  0.92257352  0.91290899  1
  O  O9  1  0.66398829  0.41876095  0.08559774  1
  O  O10  1  0.83274550  0.08069574  0.09202257  1
  O  O11  1  0.84120173  0.97755642  0.56591811  1
  O  O12  1  0.84186681  0.46976339  0.44230303  1
  O  O13  1  0.99112131  0.35899513  0.63509461  1
  O  O14  1  0.99028579  0.87731899  0.36179180  1
  O  O15  1  0.00971421  0.87731899  0.86179180  1
  O  O16  1  0.00887869  0.35899513  0.13509461  1
  O  O17  1  0.15813319  0.46976339  0.94230303  1
  O  O18  1  0.15879827  0.97755642  0.06591811  1
  O  O19  1  0.16725450  0.08069574  0.59202257  1
loop_
_geom_bond_atom_site_label_1
_geom_bond_atom_site_label_2
_geom_bond_distance
_geom_bond_site_symmetry_2
Nb0 O1 1.903587 1_555
Nb0 O2 2.012533 1_555
Nb0 O4 2.069767 1_555
Nb0 O3 2.283876 1_556
Nb1 O0 1.850997 1_555
Nb1 O5 1.959859 1_555
Nb1 O3 1.999532 1_555
Nb1 O2 2.163615 1_564
Nb1 O4 2.388449 1_554
Nb2 O8 1.850997 1_555
Nb2 O4 1.959859 1_555
Nb2 O6 1.999532 1_555
Nb2 O7 2.163615 1_565
Nb2 O5 2.388449 1_555
Nb3 O9 1.903587 1_555
Nb3 O7 2.012533 1_555
Nb3 O5 2.069767 1_555
Nb3 O6 2.283876 1_555
Nb4 O15 1.996682 1_655
Nb4 O11 2.020039 1_555
Nb4 O13 2.117227 1_555
Nb4 O12 2.137537 1_555
Nb4 O14 2.461607 1_555
Nb5 O10 1.838687 1_555
Nb5 O16 1.939570 1_655
Nb5 O14 1.999530 1_545
Nb5 O12 2.002947 1_555
Nb5 O11 2.136895 1_545
Nb5 O13 2.354913 1_555
Nb6 O19 1.838687 1_555
Nb6 O13 1.939570 1_455
Nb6 O15 1.999530 1_545
Nb6 O17 2.002947 1_555
Nb6 O18 2.136895 1_546
Nb6 O16 2.354913 1_556
Nb7 O14 1.996682 1_455
Nb7 O18 2.020039 1_555
Nb7 O16 2.117227 1_555
Nb7 O17 2.137537 1_554
Nb7 O15 2.461607 1_554
N0 Nb3 1.903794 1_555
N0 Nb1 2.029977 1_545
N0 Nb0 2.233715 1_554
N1 Nb0 1.903794 1_555
N1 Nb2 2.029977 1_545
N1 Nb3 2.233715 1_555
N2 Nb4 1.791136 1_555
N2 Y2 2.326819 1_555
N2 Y3 2.366428 1_556
N3 Nb7 1.791136 1_555
N3 Y1 2.326819 1_555
N3 Y0 2.366428 1_555
O0 Y1 2.319897 1_565
O0 Y0 2.410731 1_555
O1 Y0 2.274197 1_555
O1 Y1 2.365885 1_555
O2 Y0 2.302600 1_545
O2 Y1 2.636323 1_556
O3 Y1 2.312345 1_555
O3 Y0 2.497781 1_554
O6 Y2 2.312345 1_555
O6 Y3 2.497781 1_555
O7 Y3 2.302600 1_545
O7 Y2 2.636323 1_555
O8 Y2 2.319897 1_565
O8 Y3 2.410731 1_556
O9 Y3 2.274197 1_555
O9 Y2 2.365885 1_554
O10 Y3 2.346316 1_545
O10 Y2 2.420767 1_554
O11 Y2 2.334000 1_565
O11 Y3 2.657764 1_555
O12 Y3 2.314988 1_555
O12 Y2 2.564044 1_555
O17 Y0 2.314988 1_555
O17 Y1 2.564044 1_556
O18 Y1 2.334000 1_565
O18 Y0 2.657764 1_554
O19 Y0 2.346316 1_545
O19 Y1 2.420767 1_555
