# generated using pymatgen
data_Ta2Co4O9
_symmetry_space_group_name_H-M   'P 1'
_cell_length_a   5.18463700
_cell_length_b   8.96453600
_cell_length_c   14.53779400
_cell_angle_alpha   90.00000000
_cell_angle_beta   90.00000000
_cell_angle_gamma   90.00000000
_symmetry_Int_Tables_number   1
_chemical_formula_structural   Ta2Co4O9
_chemical_formula_sum   'Ta8 Co16 O36'
_cell_volume   675.68562742
_cell_formula_units_Z   4
loop_
 _symmetry_equiv_pos_site_id
 _symmetry_equiv_pos_as_xyz
  1  'x, y, z'
loop_
 _atom_site_type_symbol
 _atom_site_label
 _atom_site_symmetry_multiplicity
 _atom_site_fract_x
 _atom_site_fract_y
 _atom_site_fract_z
 _atom_site_occupancy
  Ta  Ta0  1  0.00028900  0.02221500  0.14491100  1
  Ta  Ta1  1  0.00028900  0.97778500  0.35508900  1
  Ta  Ta2  1  0.49971100  0.47778500  0.64491100  1
  Ta  Ta3  1  0.49971100  0.52221500  0.85508900  1
  Ta  Ta4  1  0.50028900  0.52221500  0.35508900  1
  Ta  Ta5  1  0.50028900  0.47778500  0.14491100  1
  Ta  Ta6  1  0.99971100  0.02221500  0.64491100  1
  Ta  Ta7  1  0.99971100  0.97778500  0.85508900  1
  Co  Co0  1  0.99851800  0.33614500  0.30749300  1
  Co  Co1  1  0.99851800  0.66385500  0.19250700  1
  Co  Co2  1  0.99669400  0.66336900  0.49785800  1
  Co  Co3  1  0.99669400  0.33663100  0.00214200  1
  Co  Co4  1  0.50330600  0.16336900  0.50214200  1
  Co  Co5  1  0.50330600  0.83663100  0.99785800  1
  Co  Co6  1  0.50148200  0.83614500  0.69250700  1
  Co  Co7  1  0.50148200  0.16385500  0.80749300  1
  Co  Co8  1  0.49851800  0.83614500  0.19250700  1
  Co  Co9  1  0.49851800  0.16385500  0.30749300  1
  Co  Co10  1  0.49669400  0.16336900  0.00214200  1
  Co  Co11  1  0.49669400  0.83663100  0.49785800  1
  Co  Co12  1  0.00330600  0.33663100  0.50214200  1
  Co  Co13  1  0.00330600  0.66336900  0.99785800  1
  Co  Co14  1  0.00148200  0.66385500  0.69250700  1
  Co  Co15  1  0.00148200  0.33614500  0.80749300  1
  O  O0  1  0.85457100  0.14620900  0.74967500  1
  O  O1  1  0.85457100  0.85379100  0.75032500  1
  O  O2  1  0.83698500  0.16817900  0.07340800  1
  O  O3  1  0.83698500  0.83182100  0.42659200  1
  O  O4  1  0.82791300  0.49392800  0.41352400  1
  O  O5  1  0.82791300  0.50607200  0.08647600  1
  O  O6  1  0.82591100  0.16072600  0.40405000  1
  O  O7  1  0.82591100  0.83927400  0.09595000  1
  O  O8  1  0.78474900  0.50000000  0.75000000  1
  O  O9  1  0.71525100  0.00000000  0.25000000  1
  O  O10  1  0.67408900  0.33927400  0.90405000  1
  O  O11  1  0.67408900  0.66072600  0.59595000  1
  O  O12  1  0.67208700  0.99392800  0.58647600  1
  O  O13  1  0.67208700  0.00607200  0.91352400  1
  O  O14  1  0.66301500  0.33182100  0.57340800  1
  O  O15  1  0.66301500  0.66817900  0.92659200  1
  O  O16  1  0.64542900  0.35379100  0.24967500  1
  O  O17  1  0.64542900  0.64620900  0.25032500  1
  O  O18  1  0.35457100  0.64620900  0.75032500  1
  O  O19  1  0.35457100  0.35379100  0.74967500  1
  O  O20  1  0.33698500  0.66817900  0.42659200  1
  O  O21  1  0.33698500  0.33182100  0.07340800  1
  O  O22  1  0.32791300  0.00607200  0.41352400  1
  O  O23  1  0.32791300  0.99392800  0.08647600  1
  O  O24  1  0.32591100  0.33927400  0.40405000  1
  O  O25  1  0.32591100  0.66072600  0.09595000  1
  O  O26  1  0.28474900  0.00000000  0.75000000  1
  O  O27  1  0.21525100  0.50000000  0.25000000  1
  O  O28  1  0.17408900  0.16072600  0.90405000  1
  O  O29  1  0.17408900  0.83927400  0.59595000  1
  O  O30  1  0.17208700  0.49392800  0.91352400  1
  O  O31  1  0.17208700  0.50607200  0.58647600  1
  O  O32  1  0.16301500  0.16817900  0.57340800  1
  O  O33  1  0.16301500  0.83182100  0.92659200  1
  O  O34  1  0.14542900  0.14620900  0.24967500  1
  O  O35  1  0.14542900  0.85379100  0.25032500  1
loop_
_geom_bond_atom_site_label_1
_geom_bond_atom_site_label_2
_geom_bond_distance
_geom_bond_site_symmetry_2
Co0 O16 2.020589 1_555
Co0 O27 2.029502 1_655
Co0 O34 2.045928 1_655
Co0 O24 2.202827 1_655
Co0 O4 2.271375 1_555
Co0 O6 2.290025 1_555
Co1 O17 2.020589 1_555
Co1 O27 2.029502 1_655
Co1 O35 2.045928 1_655
Co1 O25 2.202827 1_655
Co1 O5 2.271375 1_555
Co1 O7 2.290025 1_555
Co2 O3 2.009832 1_555
Co2 O20 2.046451 1_655
Co2 O31 2.115426 1_655
Co2 O4 2.139190 1_555
Co2 O11 2.198116 1_555
Co2 O29 2.316491 1_655
Co3 O2 2.009832 1_555
Co3 O21 2.046451 1_655
Co3 O30 2.115426 1_654
Co3 O5 2.139190 1_555
Co3 O10 2.198116 1_554
Co3 O28 2.316491 1_654
Co4 O14 2.009832 1_555
Co4 O32 2.046451 1_555
Co4 O22 2.115426 1_555
Co4 O12 2.139190 1_545
Co4 O6 2.198116 1_555
Co4 O24 2.316491 1_555
Co5 O15 2.009832 1_555
Co5 O33 2.046451 1_555
Co5 O23 2.115426 1_556
Co5 O13 2.139190 1_565
Co5 O7 2.198116 1_556
Co5 O25 2.316491 1_556
Co6 O1 2.020589 1_555
Co6 O26 2.029502 1_565
Co6 O18 2.045928 1_555
Co6 O29 2.202827 1_555
Co6 O12 2.271375 1_555
Co6 O11 2.290025 1_555
Co7 O0 2.020589 1_555
Co7 O26 2.029502 1_555
Co7 O19 2.045928 1_555
Co7 O28 2.202827 1_555
Co7 O13 2.271375 1_555
Co7 O10 2.290025 1_555
Co8 O35 2.020589 1_555
Co8 O9 2.029502 1_565
Co8 O17 2.045928 1_555
Co8 O7 2.202827 1_555
Co8 O23 2.271375 1_555
Co8 O25 2.290025 1_555
Co9 O34 2.020589 1_555
Co9 O9 2.029502 1_555
Co9 O16 2.045928 1_555
Co9 O6 2.202827 1_555
Co9 O22 2.271375 1_555
Co9 O24 2.290025 1_555
Co10 O21 2.009832 1_555
Co10 O2 2.046451 1_555
Co10 O13 2.115426 1_554
Co10 O23 2.139190 1_545
Co10 O28 2.198116 1_554
Co10 O10 2.316491 1_554
Co11 O20 2.009832 1_555
Co11 O3 2.046451 1_555
Co11 O12 2.115426 1_555
Co11 O22 2.139190 1_565
Co11 O29 2.198116 1_555
Co11 O11 2.316491 1_555
Co12 O32 2.009832 1_555
Co12 O14 2.046451 1_455
Co12 O4 2.115426 1_455
Co12 O31 2.139190 1_555
Co12 O24 2.198116 1_555
Co12 O6 2.316491 1_455
Co13 O33 2.009832 1_555
Co13 O15 2.046451 1_455
Co13 O5 2.115426 1_456
Co13 O30 2.139190 1_555
Co13 O25 2.198116 1_556
Co13 O7 2.316491 1_456
Co14 O18 2.020589 1_555
Co14 O8 2.029502 1_455
Co14 O1 2.045928 1_455
Co14 O11 2.202827 1_455
Co14 O31 2.271375 1_555
Co14 O29 2.290025 1_555
Co15 O19 2.020589 1_555
Co15 O8 2.029502 1_455
Co15 O0 2.045928 1_455
Co15 O10 2.202827 1_455
Co15 O30 2.271375 1_555
Co15 O28 2.290025 1_555
O0 Ta6 2.030132 1_555
O0 Ta7 2.279122 1_545
O1 Ta7 2.030132 1_555
O1 Ta6 2.279122 1_565
O2 Ta0 1.873386 1_655
O3 Ta1 1.873386 1_655
O4 Ta4 1.916054 1_555
O5 Ta5 1.916054 1_555
O6 Ta1 2.003384 1_645
O7 Ta0 2.003384 1_665
O8 Ta3 2.134869 1_555
O8 Ta2 2.134869 1_555
O9 Ta1 2.134869 1_645
O9 Ta0 2.134869 1_655
O10 Ta3 2.003384 1_555
O11 Ta2 2.003384 1_555
O12 Ta6 1.916054 1_565
O13 Ta7 1.916054 1_545
O14 Ta2 1.873386 1_555
O15 Ta3 1.873386 1_555
O16 Ta5 2.030132 1_555
O16 Ta4 2.279122 1_555
O17 Ta4 2.030132 1_555
O17 Ta5 2.279122 1_555
O18 Ta3 2.030132 1_555
O18 Ta2 2.279122 1_555
O19 Ta2 2.030132 1_555
O19 Ta3 2.279122 1_555
O20 Ta4 1.873386 1_555
O21 Ta5 1.873386 1_555
O22 Ta1 1.916054 1_545
O23 Ta0 1.916054 1_565
O24 Ta4 2.003384 1_555
O25 Ta5 2.003384 1_555
O26 Ta6 2.134869 1_455
O26 Ta7 2.134869 1_445
O27 Ta4 2.134869 1_555
O27 Ta5 2.134869 1_555
O28 Ta7 2.003384 1_445
O29 Ta6 2.003384 1_465
O30 Ta3 1.916054 1_555
O31 Ta2 1.916054 1_555
O32 Ta6 1.873386 1_455
O33 Ta7 1.873386 1_455
O34 Ta0 2.030132 1_555
O34 Ta1 2.279122 1_545
O35 Ta1 2.030132 1_555
O35 Ta0 2.279122 1_565
