# generated using pymatgen
data_Li5Fe4(P2O7)4
_symmetry_space_group_name_H-M   'P 1'
_cell_length_a   9.80139846
_cell_length_b   9.79116419
_cell_length_c   11.17211479
_cell_angle_alpha   89.97078771
_cell_angle_beta   101.99059737
_cell_angle_gamma   90.23099787
_symmetry_Int_Tables_number   1
_chemical_formula_structural   Li5Fe4(P2O7)4
_chemical_formula_sum   'Li10 Fe8 P16 O56'
_cell_volume   1048.75429172
_cell_formula_units_Z   2
loop_
 _symmetry_equiv_pos_site_id
 _symmetry_equiv_pos_as_xyz
  1  'x, y, z'
loop_
 _atom_site_type_symbol
 _atom_site_label
 _atom_site_symmetry_multiplicity
 _atom_site_fract_x
 _atom_site_fract_y
 _atom_site_fract_z
 _atom_site_occupancy
  Li  Li0  1  0.09173500  0.10946500  0.02781600  1
  Li  Li1  1  0.41539900  0.59717600  0.97557600  1
  Li  Li2  1  0.32701700  0.91175800  0.45427400  1
  Li  Li3  1  0.38086100  0.22081300  0.55027400  1
  Li  Li4  1  0.65245000  0.05927000  0.52726000  1
  Li  Li5  1  0.84818300  0.58138000  0.95689000  1
  Li  Li6  1  0.64511300  0.10655600  0.04129500  1
  Li  Li7  1  0.91045300  0.89267500  0.96887300  1
  Li  Li8  1  0.83727300  0.58224700  0.46411800  1
  Li  Li9  1  0.89070100  0.28290700  0.54732500  1
  Fe  Fe0  1  0.20429300  0.91330400  0.67666200  1
  Fe  Fe1  1  0.25086400  0.21506600  0.82706900  1
  Fe  Fe2  1  0.25197600  0.70422700  0.17711400  1
  Fe  Fe3  1  0.29147600  0.42464900  0.32846600  1
  Fe  Fe4  1  0.69882700  0.58103600  0.67333400  1
  Fe  Fe5  1  0.74795800  0.29502200  0.82744800  1
  Fe  Fe6  1  0.74488600  0.78237000  0.17808800  1
  Fe  Fe7  1  0.80010200  0.07188000  0.32056600  1
  P  P0  1  0.02222900  0.45081500  0.75048400  1
  P  P1  1  0.11879500  0.70770800  0.88754200  1
  P  P2  1  0.06157200  0.92289300  0.23738600  1
  P  P3  1  0.12351100  0.14706900  0.42342300  1
  P  P4  1  0.37477200  0.64418200  0.57347000  1
  P  P5  1  0.43265900  0.42561700  0.76095500  1
  P  P6  1  0.52200600  0.04876000  0.75805600  1
  P  P7  1  0.38545100  0.21432300  0.11517100  1
  P  P8  1  0.61318900  0.78851800  0.88617400  1
  P  P9  1  0.47517700  0.94922300  0.24655600  1
  P  P10  1  0.56616000  0.57641200  0.24056100  1
  P  P11  1  0.62129700  0.35463400  0.42482800  1
  P  P12  1  0.88027800  0.85317600  0.57728800  1
  P  P13  1  0.93905600  0.07397100  0.75936200  1
  P  P14  1  0.88766000  0.29476000  0.11368100  1
  P  P15  1  0.97595700  0.55383400  0.24558300  1
  O  O0  1  0.01412900  0.42448800  0.61768900  1
  O  O1  1  0.03338600  0.84824500  0.56777800  1
  O  O2  1  0.08902200  0.08621000  0.73204600  1
  O  O3  1  0.10788700  0.59082300  0.78486800  1
  O  O4  1  0.10475600  0.34392200  0.83856800  1
  O  O5  1  0.17648300  0.82926400  0.82730800  1
  O  O6  1  0.22561500  0.65780000  0.00307700  1
  O  O7  1  0.02815700  0.26433500  0.09045400  1
  O  O8  1  0.11391900  0.06750300  0.29606100  1
  O  O9  1  0.06157600  0.93387600  0.10304200  1
  O  O10  1  0.12867500  0.54252000  0.22132200  1
  O  O11  1  0.19412700  0.28339800  0.40629300  1
  O  O12  1  0.17015100  0.81698100  0.29878100  1
  O  O13  1  0.22174500  0.06274800  0.52114900  1
  O  O14  1  0.29168100  0.56539700  0.46581600  1
  O  O15  1  0.34206600  0.30454800  0.69847600  1
  O  O16  1  0.31706500  0.78766500  0.59080900  1
  O  O17  1  0.36903800  0.03557900  0.77719200  1
  O  O18  1  0.36607800  0.56397000  0.69807400  1
  O  O19  1  0.42280700  0.42902600  0.89253800  1
  O  O20  1  0.47308400  0.75902800  0.91054500  1
  O  O21  1  0.27558600  0.16629600  0.99851200  1
  O  O22  1  0.32522800  0.33023500  0.18069200  1
  O  O23  1  0.39259400  0.08995300  0.21244100  1
  O  O24  1  0.41464100  0.58784200  0.26566000  1
  O  O25  1  0.38869100  0.84293100  0.16172600  1
  O  O26  1  0.47068000  0.34355100  0.44185200  1
  O  O27  1  0.52584200  0.08968100  0.62852500  1
  O  O28  1  0.48324200  0.93073000  0.38143700  1
  O  O29  1  0.53126100  0.65564800  0.57252300  1
  O  O30  1  0.61102500  0.14238300  0.85610100  1
  O  O31  1  0.58458900  0.41563300  0.73522000  1
  O  O32  1  0.59620900  0.90189400  0.77794300  1
  O  O33  1  0.68925700  0.67078300  0.83360100  1
  O  O34  1  0.71897500  0.84937300  0.99974600  1
  O  O35  1  0.52555300  0.23355500  0.08689900  1
  O  O36  1  0.57275100  0.58502300  0.10796000  1
  O  O37  1  0.61958900  0.42879200  0.29578800  1
  O  O38  1  0.62374100  0.96110100  0.21316800  1
  O  O39  1  0.68856100  0.21360900  0.41700400  1
  O  O40  1  0.67244600  0.68195700  0.30992400  1
  O  O41  1  0.71692300  0.44174800  0.52320100  1
  O  O42  1  0.79021100  0.94071400  0.47764200  1
  O  O43  1  0.83774500  0.18561100  0.69479900  1
  O  O44  1  0.82179200  0.71036100  0.59423700  1
  O  O45  1  0.87370200  0.46889800  0.78380400  1
  O  O46  1  0.93531900  0.07001900  0.89340500  1
  O  O47  1  0.87709000  0.92859400  0.70645500  1
  O  O48  1  0.97677600  0.72632500  0.91633300  1
  O  O49  1  0.79122900  0.36051900  0.99734100  1
  O  O50  1  0.81212800  0.17253700  0.16264300  1
  O  O51  1  0.88776700  0.64312100  0.14296900  1
  O  O52  1  0.90435700  0.40381300  0.22391100  1
  O  O53  1  0.91162400  0.90508700  0.26423600  1
  O  O54  1  0.97214100  0.16108500  0.43848100  1
  O  O55  1  0.97071500  0.59283700  0.37279700  1
loop_
_geom_bond_atom_site_label_1
_geom_bond_atom_site_label_2
_geom_bond_distance
_geom_bond_site_symmetry_2
Li0 O7 1.835013 1_555
Li0 O46 1.947761 1_454
Li0 O9 1.961398 1_545
Li0 O21 1.975059 1_554
Li1 O20 1.876469 1_555
Li1 O19 1.899213 1_555
Li1 O36 1.906240 1_556
Li1 O6 2.038000 1_556
Li2 O28 1.885897 1_555
Li2 O16 1.967626 1_555
Li2 O13 2.035229 1_565
Li2 O12 2.263458 1_555
Li3 O15 1.955427 1_555
Li3 O27 1.982283 1_555
Li3 O26 2.029664 1_555
Li3 O13 2.168754 1_555
Li3 O11 2.257785 1_555
Li4 O27 1.869540 1_555
Li4 O42 1.949929 1_545
Li4 O39 2.025123 1_555
Li4 O28 2.418936 1_545
Li4 O43 2.627532 1_555
Li5 O48 2.007530 1_555
Li5 O33 2.051384 1_555
Li5 O51 2.121800 1_556
Li5 O45 2.284772 1_555
Li5 O49 2.299194 1_555
Li6 O35 1.854592 1_555
Li6 O50 2.001318 1_555
Li6 O30 2.056321 1_554
Li6 O38 2.433351 1_545
Li7 O48 1.894212 1_555
Li7 O9 1.917515 1_656
Li7 O46 1.966178 1_565
Li7 O34 2.020723 1_555
Li8 O55 1.820866 1_555
Li8 O44 1.950592 1_555
Li8 O41 2.007258 1_555
Li8 O40 2.320628 1_555
Li9 O0 1.896212 1_655
Li9 O54 1.987725 1_555
Li9 O43 2.059428 1_555
Li9 O41 2.285327 1_555
Li9 O39 2.301557 1_555
Fe0 O5 1.942004 1_555
Fe0 O1 1.958856 1_555
Fe0 O16 2.026740 1_555
Fe0 O17 2.129402 1_565
Fe0 O2 2.198270 1_565
Fe0 O13 2.303859 1_565
Fe1 O4 1.936555 1_555
Fe1 O21 1.939737 1_555
Fe1 O15 2.038790 1_555
Fe1 O2 2.126163 1_555
Fe1 O17 2.241895 1_555
Fe2 O25 1.936575 1_555
Fe2 O6 1.960906 1_555
Fe2 O12 2.042367 1_555
Fe2 O24 2.043838 1_555
Fe2 O10 2.107861 1_555
Fe3 O11 1.977878 1_555
Fe3 O22 1.980046 1_555
Fe3 O14 2.062678 1_555
Fe3 O26 2.099055 1_555
Fe3 O10 2.128566 1_555
Fe3 O24 2.199553 1_555
Fe4 O29 1.933867 1_555
Fe4 O33 2.014691 1_555
Fe4 O44 2.065410 1_555
Fe4 O31 2.158792 1_555
Fe4 O45 2.191215 1_555
Fe4 O41 2.198323 1_555
Fe5 O49 1.964267 1_555
Fe5 O30 2.073457 1_555
Fe5 O31 2.085359 1_555
Fe5 O43 2.160883 1_555
Fe5 O45 2.210653 1_555
Fe6 O40 2.016813 1_555
Fe6 O51 2.053847 1_555
Fe6 O34 2.062651 1_554
Fe6 O53 2.091088 1_555
Fe6 O38 2.199262 1_555
Fe6 O36 2.572936 1_555
Fe7 O50 2.044939 1_555
Fe7 O54 2.099515 1_555
Fe7 O53 2.135212 1_545
Fe7 O38 2.174530 1_545
Fe7 O39 2.187442 1_555
Fe7 O42 2.192191 1_545
O0 P0 1.491679 1_555
O1 P12 1.527244 1_455
O2 P13 1.566192 1_455
O3 P1 1.608221 1_555
O3 P0 1.609005 1_555
O4 P0 1.546974 1_555
O5 P1 1.530008 1_555
O6 P1 1.563015 1_554
O7 P14 1.484674 1_455
O8 P2 1.597833 1_545
O8 P3 1.607905 1_555
O9 P2 1.504707 1_555
O10 P15 1.579950 1_455
O11 P3 1.531257 1_555
O12 P2 1.543793 1_555
O13 P3 1.539287 1_555
O14 P4 1.514513 1_555
O15 P5 1.554248 1_555
O16 P4 1.543793 1_555
O17 P6 1.562645 1_555
O18 P5 1.603155 1_555
O18 P4 1.615430 1_555
O19 P5 1.493511 1_555
O20 P8 1.481664 1_555
O21 P7 1.578845 1_556
O22 P7 1.535598 1_555
O23 P9 1.606036 1_545
O23 P7 1.623708 1_555
O24 P10 1.571964 1_555
O25 P9 1.536213 1_555
O26 P11 1.530567 1_555
O27 P6 1.509318 1_555
O28 P9 1.503377 1_555
O29 P4 1.539690 1_555
O30 P6 1.548832 1_555
O31 P5 1.577598 1_555
O32 P6 1.608446 1_565
O32 P8 1.624370 1_555
O33 P8 1.555409 1_555
O34 P8 1.577718 1_555
O35 P7 1.482890 1_555
O36 P10 1.498506 1_555
O37 P11 1.610853 1_555
O37 P10 1.617087 1_555
O38 P9 1.580275 1_555
O39 P11 1.542824 1_555
O40 P10 1.552548 1_555
O41 P11 1.542846 1_555
O42 P12 1.532988 1_555
O43 P13 1.552897 1_555
O44 P12 1.535626 1_555
O45 P0 1.586351 1_655
O46 P13 1.506053 1_555
O47 P13 1.609061 1_565
O47 P12 1.627486 1_555
O48 P1 1.504146 1_655
O49 P14 1.578252 1_556
O50 P14 1.562001 1_555
O51 P15 1.555323 1_555
O52 P14 1.612351 1_555
O52 P15 1.621782 1_555
O53 P2 1.568904 1_655
O54 P3 1.534173 1_655
O55 P15 1.483064 1_555
