# generated using pymatgen
data_Hf2CuOs
_symmetry_space_group_name_H-M   'P 1'
_cell_length_a   4.57260672
_cell_length_b   4.57260744
_cell_length_c   4.57260744
_cell_angle_alpha   59.99998956
_cell_angle_beta   60.00000522
_cell_angle_gamma   60.00000522
_symmetry_Int_Tables_number   1
_chemical_formula_structural   Hf2CuOs
_chemical_formula_sum   'Hf2 Cu1 Os1'
_cell_volume   67.60466891
_cell_formula_units_Z   1
loop_
 _symmetry_equiv_pos_site_id
 _symmetry_equiv_pos_as_xyz
  1  'x, y, z'
loop_
 _atom_site_type_symbol
 _atom_site_label
 _atom_site_symmetry_multiplicity
 _atom_site_fract_x
 _atom_site_fract_y
 _atom_site_fract_z
 _atom_site_occupancy
  Hf  Hf0  1  0.00000000  -0.00000000  0.00000000  1
  Hf  Hf1  1  0.49999900  0.49999900  0.49999900  1
  Cu  Cu0  1  0.25000000  0.25000000  0.25000000  1
  Os  Os0  1  0.75000000  0.75000000  0.75000000  1
loop_
_geom_bond_atom_site_label_1
_geom_bond_atom_site_label_2
_geom_bond_distance
_geom_bond_site_symmetry_2
Hf0 Os0 2.800139 1_445
Hf0 Os0 2.800139 1_444
Hf0 Os0 2.800139 1_544
Hf0 Os0 2.800139 1_454
Hf1 Os0 2.800135 1_554
Hf1 Os0 2.800135 1_545
Hf1 Os0 2.800135 1_455
Hf1 Os0 2.800150 1_555
Cu0 Hf1 2.800127 1_555
Cu0 Hf0 2.800139 1_556
Cu0 Hf0 2.800139 1_655
Cu0 Hf0 2.800139 1_555
Cu0 Hf0 2.800139 1_565
Cu0 Hf1 2.800142 1_455
Cu0 Hf1 2.800142 1_545
Cu0 Hf1 2.800142 1_554
