# generated using pymatgen
data_Lu2RuPt
_symmetry_space_group_name_H-M   'P 1'
_cell_length_a   4.72808413
_cell_length_b   4.72808419
_cell_length_c   4.72808420
_cell_angle_alpha   60.00001024
_cell_angle_beta   60.00000980
_cell_angle_gamma   59.99999995
_symmetry_Int_Tables_number   1
_chemical_formula_structural   Lu2RuPt
_chemical_formula_sum   'Lu2 Ru1 Pt1'
_cell_volume   74.73786147
_cell_formula_units_Z   1
loop_
 _symmetry_equiv_pos_site_id
 _symmetry_equiv_pos_as_xyz
  1  'x, y, z'
loop_
 _atom_site_type_symbol
 _atom_site_label
 _atom_site_symmetry_multiplicity
 _atom_site_fract_x
 _atom_site_fract_y
 _atom_site_fract_z
 _atom_site_occupancy
  Lu  Lu0  1  0.00000005  0.00000000  0.00000015  1
  Lu  Lu1  1  0.50000082  0.50000080  0.50000088  1
  Ru  Ru0  1  0.74999922  0.74999927  0.74999908  1
  Pt  Pt0  1  0.25000091  0.25000092  0.25000089  1
loop_
_geom_bond_atom_site_label_1
_geom_bond_atom_site_label_2
_geom_bond_distance
_geom_bond_site_symmetry_2
Lu0 Ru0 2.895345 1_445
Lu0 Pt0 2.895345 1_545
Lu0 Pt0 2.895345 1_455
Lu0 Ru0 2.895345 1_544
Lu0 Ru0 2.895346 1_454
Lu0 Pt0 2.895346 1_554
Lu0 Pt0 2.895358 1_555
Lu0 Ru0 2.895358 1_444
Lu1 Ru0 2.895329 1_555
Lu1 Pt0 2.895347 1_555
Lu1 Pt0 2.895349 1_655
Lu1 Pt0 2.895349 1_556
Lu1 Pt0 2.895349 1_565
Lu1 Ru0 2.895354 1_545
Lu1 Ru0 2.895355 1_455
Lu1 Ru0 2.895356 1_554
