# generated using pymatgen
data_Tl2SiS3
_symmetry_space_group_name_H-M   'P 1'
_cell_length_a   6.72370563
_cell_length_b   6.79471699
_cell_length_c   8.39248089
_cell_angle_alpha   112.10588912
_cell_angle_beta   89.91234372
_cell_angle_gamma   111.76635645
_symmetry_Int_Tables_number   1
_chemical_formula_structural   Tl2SiS3
_chemical_formula_sum   'Tl4 Si2 S6'
_cell_volume   325.63273744
_cell_formula_units_Z   2
loop_
 _symmetry_equiv_pos_site_id
 _symmetry_equiv_pos_as_xyz
  1  'x, y, z'
loop_
 _atom_site_type_symbol
 _atom_site_label
 _atom_site_symmetry_multiplicity
 _atom_site_fract_x
 _atom_site_fract_y
 _atom_site_fract_z
 _atom_site_occupancy
  Tl  Tl0  1  0.68692204  0.26403762  0.88940953  1
  Tl  Tl1  1  0.31307796  0.73596238  0.11059047  1
  Tl  Tl2  1  0.94790761  0.12166024  0.32775949  1
  Tl  Tl3  1  0.05209239  0.87833976  0.67224051  1
  Si  Si0  1  0.45288135  0.56810947  0.67765185  1
  Si  Si1  1  0.54711865  0.43189053  0.32234815  1
  S  S0  1  0.30856276  0.25909195  0.10220394  1
  S  S1  1  0.69143724  0.74090805  0.89779606  1
  S  S2  1  0.13532284  0.49723404  0.72852345  1
  S  S3  1  0.86467716  0.50276596  0.27147655  1
  S  S4  1  0.52481778  0.74838989  0.50437134  1
  S  S5  1  0.47518222  0.25161011  0.49562866  1
loop_
_geom_bond_atom_site_label_1
_geom_bond_atom_site_label_2
_geom_bond_distance
_geom_bond_site_symmetry_2
S0 Si1 2.084337 1_555
S0 Tl0 3.103249 1_554
S0 Tl2 3.157948 1_455
S0 Tl1 3.203151 1_555
S1 Si0 2.084337 1_555
S1 Tl1 3.103249 1_556
S1 Tl3 3.157948 1_655
S1 Tl0 3.203151 1_555
S2 Si0 2.088661 1_555
S2 Tl1 3.000078 1_556
S2 Tl3 3.039404 1_555
S2 Tl2 3.252802 1_455
S3 Si1 2.088661 1_555
S3 Tl0 3.000078 1_554
S3 Tl2 3.039404 1_555
S3 Tl3 3.252802 1_655
S4 Si1 2.178706 1_555
S4 Si0 2.179104 1_555
S5 Si0 2.178706 1_555
S5 Si1 2.179104 1_555
