# generated using pymatgen
data_Cr5S8
_symmetry_space_group_name_H-M   'P 1'
_cell_length_a   6.78481527
_cell_length_b   11.20697281
_cell_length_c   6.79279478
_cell_angle_alpha   91.42377542
_cell_angle_beta   119.96114375
_cell_angle_gamma   89.99998104
_symmetry_Int_Tables_number   1
_chemical_formula_structural   Cr5S8
_chemical_formula_sum   'Cr10 S16'
_cell_volume   447.29773979
_cell_formula_units_Z   2
loop_
 _symmetry_equiv_pos_site_id
 _symmetry_equiv_pos_as_xyz
  1  'x, y, z'
loop_
 _atom_site_type_symbol
 _atom_site_label
 _atom_site_symmetry_multiplicity
 _atom_site_fract_x
 _atom_site_fract_y
 _atom_site_fract_z
 _atom_site_occupancy
  Cr  Cr0  1  -0.00005202  0.99814209  -0.00010403  1
  Cr  Cr1  1  0.50011069  0.49733556  0.00022138  1
  Cr  Cr2  1  0.00911829  0.73186663  0.01823659  1
  Cr  Cr3  1  0.99279672  0.26612352  0.98559544  1
  Cr  Cr4  1  0.49237694  0.76655227  0.98475288  1
  Cr  Cr5  1  0.50189012  0.23699606  0.00378023  1
  Cr  Cr6  1  0.47406309  0.74957928  0.50066752  1
  Cr  Cr7  1  0.02660443  0.74957928  0.50066652  1
  Cr  Cr8  1  0.52962856  0.25172974  0.50358251  1
  Cr  Cr9  1  0.97395395  0.25172974  0.50358251  1
  S  S0  1  0.16027849  0.14432957  0.32055798  1
  S  S1  1  0.83271280  0.38390530  0.66542760  1
  S  S2  1  0.17068200  0.61681538  0.34136300  1
  S  S3  1  0.65991739  0.64359910  0.31983378  1
  S  S4  1  0.33795383  0.35671588  0.67590865  1
  S  S5  1  0.66394604  0.12309939  0.32789208  1
  S  S6  1  0.33064520  0.88195548  0.66128939  1
  S  S7  1  0.17801976  0.62758100  0.83200685  1
  S  S8  1  0.65398809  0.62758100  0.83200685  1
  S  S9  1  0.82480257  0.37164821  0.17175034  1
  S  S10  1  0.34694677  0.37164821  0.17175034  1
  S  S11  1  0.15260583  0.12715919  0.82862128  1
  S  S12  1  0.67601545  0.12715919  0.82862128  1
  S  S13  1  0.84678973  0.87149743  0.17052155  1
  S  S14  1  0.32373282  0.87149743  0.17052155  1
  S  S15  1  0.84047446  0.85417206  0.68094893  1
loop_
_geom_bond_atom_site_label_1
_geom_bond_atom_site_label_2
_geom_bond_distance
_geom_bond_site_symmetry_2
Cr0 S13 2.392139 1_455
Cr0 S14 2.392143 1_555
Cr0 S12 2.409186 1_464
Cr0 S11 2.409187 1_564
Cr0 S15 2.439826 1_454
Cr0 S0 2.463316 1_565
Cr1 S9 2.390090 1_555
Cr1 S10 2.390095 1_555
Cr1 S7 2.408455 1_554
Cr1 S8 2.408460 1_554
Cr1 S4 2.440026 1_554
Cr1 S3 2.459255 1_555
Cr2 S2 2.327928 1_555
Cr2 S8 2.377795 1_454
Cr2 S7 2.377799 1_554
Cr2 S13 2.406101 1_455
Cr2 S14 2.406106 1_555
Cr2 S15 2.444346 1_454
Cr3 S1 2.331352 1_555
Cr3 S9 2.379500 1_556
Cr3 S10 2.379506 1_656
Cr3 S12 2.410450 1_555
Cr3 S11 2.410458 1_655
Cr3 S0 2.429669 1_656
Cr4 S6 2.331858 1_555
Cr4 S14 2.377663 1_556
Cr4 S13 2.377663 1_556
Cr4 S8 2.400119 1_555
Cr4 S7 2.400120 1_555
Cr4 S3 2.437867 1_556
Cr5 S5 2.325329 1_555
Cr5 S12 2.378620 1_554
Cr5 S11 2.378621 1_554
Cr5 S4 2.381544 1_554
Cr5 S9 2.407633 1_555
Cr5 S10 2.407637 1_555
Cr6 S2 2.305843 1_555
Cr6 S6 2.306115 1_555
Cr6 S14 2.409166 1_555
Cr6 S8 2.415342 1_555
Cr6 S15 2.437588 1_555
Cr6 S3 2.446278 1_555
Cr7 S2 2.305842 1_555
Cr7 S6 2.306121 1_555
Cr7 S13 2.409161 1_455
Cr7 S7 2.415347 1_555
Cr7 S15 2.437592 1_455
Cr7 S3 2.446274 1_455
Cr8 S1 2.300545 1_555
Cr8 S5 2.309477 1_555
Cr8 S12 2.402746 1_555
Cr8 S10 2.404829 1_555
Cr8 S4 2.428559 1_555
Cr8 S0 2.467396 1_555
Cr9 S1 2.300554 1_555
Cr9 S5 2.309478 1_555
Cr9 S11 2.402746 1_655
Cr9 S9 2.404829 1_555
Cr9 S4 2.428555 1_655
Cr9 S0 2.467390 1_655
