# generated using pymatgen
data_GaFeRh2
_symmetry_space_group_name_H-M   'P 1'
_cell_length_a   4.23544607
_cell_length_b   4.23544607
_cell_length_c   4.23544607
_cell_angle_alpha   60.00000000
_cell_angle_beta   60.00000000
_cell_angle_gamma   60.00000000
_symmetry_Int_Tables_number   1
_chemical_formula_structural   GaFeRh2
_chemical_formula_sum   'Ga1 Fe1 Rh2'
_cell_volume   53.72574816
_cell_formula_units_Z   1
loop_
 _symmetry_equiv_pos_site_id
 _symmetry_equiv_pos_as_xyz
  1  'x, y, z'
loop_
 _atom_site_type_symbol
 _atom_site_label
 _atom_site_symmetry_multiplicity
 _atom_site_fract_x
 _atom_site_fract_y
 _atom_site_fract_z
 _atom_site_occupancy
  Ga  Ga0  1  0.75000000  0.75000000  0.75000000  1
  Fe  Fe0  1  0.25000100  0.25000100  0.25000100  1
  Rh  Rh0  1  0.00000000  -0.00000000  -0.00000000  1
  Rh  Rh1  1  0.50000000  0.50000000  0.50000000  1
loop_
_geom_bond_atom_site_label_1
_geom_bond_atom_site_label_2
_geom_bond_distance
_geom_bond_site_symmetry_2
Ga0 Rh1 2.593670 1_555
Ga0 Rh1 2.593670 1_556
Ga0 Rh0 2.593670 1_665
Ga0 Rh0 2.593670 1_666
Ga0 Rh0 2.593670 1_566
Ga0 Rh1 2.593670 1_565
Ga0 Rh0 2.593670 1_656
Ga0 Rh1 2.593670 1_655
Fe0 Rh1 2.593660 1_555
Fe0 Rh0 2.593667 1_565
Fe0 Rh0 2.593667 1_655
Fe0 Rh0 2.593667 1_556
Fe0 Rh1 2.593674 1_554
Fe0 Rh1 2.593674 1_545
Fe0 Rh1 2.593674 1_455
Fe0 Rh0 2.593681 1_555
