# generated using pymatgen
data_VSiTc2
_symmetry_space_group_name_H-M   'P 1'
_cell_length_a   4.21049308
_cell_length_b   4.21049308
_cell_length_c   4.21049308
_cell_angle_alpha   60.00000000
_cell_angle_beta   60.00000000
_cell_angle_gamma   60.00000000
_symmetry_Int_Tables_number   1
_chemical_formula_structural   VSiTc2
_chemical_formula_sum   'V1 Si1 Tc2'
_cell_volume   52.78176106
_cell_formula_units_Z   1
loop_
 _symmetry_equiv_pos_site_id
 _symmetry_equiv_pos_as_xyz
  1  'x, y, z'
loop_
 _atom_site_type_symbol
 _atom_site_label
 _atom_site_symmetry_multiplicity
 _atom_site_fract_x
 _atom_site_fract_y
 _atom_site_fract_z
 _atom_site_occupancy
  V  V0  1  0.75000000  0.75000000  0.75000000  1
  Si  Si0  1  0.25000000  0.25000000  0.25000000  1
  Tc  Tc0  1  0.00000000  0.00000000  0.00000000  1
  Tc  Tc1  1  0.50000100  0.50000100  0.50000100  1
loop_
_geom_bond_atom_site_label_1
_geom_bond_atom_site_label_2
_geom_bond_distance
_geom_bond_site_symmetry_2
Si0 Tc1 2.578386 1_455
Si0 Tc1 2.578386 1_545
Si0 Tc1 2.578386 1_554
Si0 Tc0 2.578390 1_565
Si0 Tc0 2.578390 1_556
Si0 Tc0 2.578390 1_555
Si0 Tc0 2.578390 1_655
Si0 Tc1 2.578400 1_555
Si0 V0 2.977268 1_455
Si0 V0 2.977268 1_544
Si0 V0 2.977268 1_545
Si0 V0 2.977268 1_554
Si0 V0 2.977268 1_454
Si0 V0 2.977268 1_445
Tc0 V0 2.578390 1_544
Tc0 V0 2.578390 1_454
Tc0 V0 2.578390 1_445
Tc0 V0 2.578390 1_444
Tc1 V0 2.578380 1_555
Tc1 V0 2.578393 1_554
Tc1 V0 2.578393 1_455
Tc1 V0 2.578393 1_545
