# generated using pymatgen
data_LiMnPO4
_symmetry_space_group_name_H-M   'P 1'
_cell_length_a   5.37781901
_cell_length_b   9.17202001
_cell_length_c   8.84537102
_cell_angle_alpha   90.00445950
_cell_angle_beta   89.99352805
_cell_angle_gamma   89.99938690
_symmetry_Int_Tables_number   1
_chemical_formula_structural   LiMnPO4
_chemical_formula_sum   'Li4 Mn4 P4 O16'
_cell_volume   436.30202167
_cell_formula_units_Z   4
loop_
 _symmetry_equiv_pos_site_id
 _symmetry_equiv_pos_as_xyz
  1  'x, y, z'
loop_
 _atom_site_type_symbol
 _atom_site_label
 _atom_site_symmetry_multiplicity
 _atom_site_fract_x
 _atom_site_fract_y
 _atom_site_fract_z
 _atom_site_occupancy
  Li  Li0  1  0.75003500  0.10634900  0.88681900  1
  Li  Li1  1  0.25003600  0.39362900  0.38668300  1
  Li  Li2  1  0.75000100  0.60635700  0.61318000  1
  Li  Li3  1  0.25000100  0.89365000  0.11325500  1
  Mn  Mn0  1  0.75001500  0.40046300  0.85893900  1
  Mn  Mn1  1  0.25006300  0.09948300  0.35898200  1
  Mn  Mn2  1  0.74993100  0.90047400  0.64101200  1
  Mn  Mn3  1  0.24992800  0.59949600  0.14094200  1
  P  P0  1  0.25000500  0.24863600  0.03151100  1
  P  P1  1  0.75001300  0.25136400  0.53140800  1
  P  P2  1  0.24999500  0.74863000  0.46850400  1
  P  P3  1  0.74998500  0.75139200  0.96859600  1
  O  O0  1  0.24999200  0.10341400  0.12243200  1
  O  O1  1  0.74998800  0.39654800  0.62237600  1
  O  O2  1  0.24998400  0.60342400  0.37756200  1
  O  O3  1  0.74995500  0.89656100  0.87762300  1
  O  O4  1  0.74998300  0.12111300  0.64510900  1
  O  O5  1  0.24999500  0.37888100  0.14526200  1
  O  O6  1  0.75002100  0.62111200  0.85492900  1
  O  O7  1  0.25003800  0.87886900  0.35476400  1
  O  O8  1  0.51396600  0.24573800  0.43142000  1
  O  O9  1  0.98610100  0.24573400  0.43142800  1
  O  O10  1  0.01393700  0.25427800  0.93158500  1
  O  O11  1  0.48610500  0.25427000  0.93158000  1
  O  O12  1  0.51390900  0.74577500  0.06859900  1
  O  O13  1  0.98605400  0.74581300  0.06857700  1
  O  O14  1  0.01392000  0.75428900  0.56846300  1
  O  O15  1  0.48604500  0.75425700  0.56845800  1
loop_
_geom_bond_atom_site_label_1
_geom_bond_atom_site_label_2
_geom_bond_distance
_geom_bond_site_symmetry_2
Li0 O3 1.925892 1_545
Li0 O11 2.002958 1_555
Li0 O10 2.002994 1_655
Li0 O4 2.142309 1_555
Li1 O2 1.925941 1_555
Li1 O8 2.002835 1_555
Li1 O9 2.002850 1_455
Li1 O5 2.139728 1_555
Li2 O1 1.926097 1_555
Li2 O15 2.002963 1_555
Li2 O14 2.002970 1_655
Li2 O6 2.142627 1_555
Li3 O0 1.925665 1_565
Li3 O12 2.002405 1_555
Li3 O13 2.002440 1_455
Li3 O7 2.140545 1_555
Mn0 O6 2.024111 1_555
Mn0 O11 2.055503 1_555
Mn0 O10 2.055594 1_655
Mn0 O1 2.092793 1_555
Mn1 O7 2.023817 1_545
Mn1 O8 2.055323 1_555
Mn1 O9 2.055420 1_455
Mn1 O0 2.092686 1_555
Mn2 O4 2.024027 1_565
Mn2 O15 2.055353 1_555
Mn2 O14 2.055410 1_655
Mn2 O3 2.093223 1_555
Mn3 O5 2.023849 1_555
Mn3 O13 2.055430 1_455
Mn3 O12 2.055460 1_555
Mn3 O2 2.093299 1_555
O0 P0 1.555995 1_555
O1 P1 1.555805 1_555
O2 P2 1.555858 1_555
O3 P3 1.555817 1_555
O4 P1 1.561697 1_555
O5 P0 1.561820 1_555
O6 P3 1.561588 1_555
O7 P2 1.561835 1_555
O8 P1 1.548080 1_555
O9 P1 1.548057 1_555
O10 P0 1.547868 1_556
O11 P0 1.547869 1_556
O12 P3 1.548121 1_554
O13 P3 1.548131 1_554
O14 P2 1.547902 1_555
O15 P2 1.547921 1_555
