# generated using pymatgen
data_ScS2
_symmetry_space_group_name_H-M   'P 1'
_cell_length_a   6.06186100
_cell_length_b   6.06186100
_cell_length_c   3.77136700
_cell_angle_alpha   90.00000000
_cell_angle_beta   90.00000000
_cell_angle_gamma   90.00000000
_symmetry_Int_Tables_number   1
_chemical_formula_structural   ScS2
_chemical_formula_sum   'Sc2 S4'
_cell_volume   138.58325061
_cell_formula_units_Z   2
loop_
 _symmetry_equiv_pos_site_id
 _symmetry_equiv_pos_as_xyz
  1  'x, y, z'
loop_
 _atom_site_type_symbol
 _atom_site_label
 _atom_site_symmetry_multiplicity
 _atom_site_fract_x
 _atom_site_fract_y
 _atom_site_fract_z
 _atom_site_occupancy
  Sc  Sc0  1  0.00000000  0.00000000  0.00000000  1
  Sc  Sc1  1  0.50000000  0.50000000  0.50000000  1
  S  S0  1  0.29680900  0.29680900  0.00000000  1
  S  S1  1  0.70319100  0.70319100  0.00000000  1
  S  S2  1  0.20319100  0.79680900  0.50000000  1
  S  S3  1  0.79680900  0.20319100  0.50000000  1
loop_
_geom_bond_atom_site_label_1
_geom_bond_atom_site_label_2
_geom_bond_distance
_geom_bond_site_symmetry_2
S0 Sc0 2.544474 1_555
S0 Sc1 2.567109 1_554
S0 Sc1 2.567109 1_555
S1 Sc0 2.544474 1_665
S1 Sc1 2.567109 1_554
S1 Sc1 2.567109 1_555
S2 Sc1 2.544474 1_555
S2 Sc0 2.567109 1_565
S2 Sc0 2.567109 1_566
S3 Sc1 2.544474 1_555
S3 Sc0 2.567109 1_655
S3 Sc0 2.567109 1_656
