# generated using pymatgen
data_Er2IrPd
_symmetry_space_group_name_H-M   'P 1'
_cell_length_a   4.81827993
_cell_length_b   4.81827993
_cell_length_c   4.81827993
_cell_angle_alpha   60.00000000
_cell_angle_beta   60.00000000
_cell_angle_gamma   60.00000000
_symmetry_Int_Tables_number   1
_chemical_formula_structural   Er2IrPd
_chemical_formula_sum   'Er2 Ir1 Pd1'
_cell_volume   79.09719541
_cell_formula_units_Z   1
loop_
 _symmetry_equiv_pos_site_id
 _symmetry_equiv_pos_as_xyz
  1  'x, y, z'
loop_
 _atom_site_type_symbol
 _atom_site_label
 _atom_site_symmetry_multiplicity
 _atom_site_fract_x
 _atom_site_fract_y
 _atom_site_fract_z
 _atom_site_occupancy
  Er  Er0  1  -0.00000000  -0.00000000  0.00000000  1
  Er  Er1  1  0.50000100  0.50000100  0.50000100  1
  Ir  Ir0  1  0.25000000  0.25000000  0.25000000  1
  Pd  Pd0  1  0.75000000  0.75000000  0.75000000  1
loop_
_geom_bond_atom_site_label_1
_geom_bond_atom_site_label_2
_geom_bond_distance
_geom_bond_site_symmetry_2
Er0 Ir0 2.950582 1_554
Er0 Ir0 2.950582 1_455
Er0 Pd0 2.950582 1_444
Er0 Pd0 2.950582 1_454
Er0 Ir0 2.950582 1_545
Er0 Pd0 2.950582 1_544
Er0 Ir0 2.950582 1_555
Er0 Pd0 2.950582 1_445
Er1 Pd0 2.950570 1_555
Er1 Ir0 2.950578 1_565
Er1 Ir0 2.950578 1_655
Er1 Ir0 2.950578 1_556
Er1 Pd0 2.950586 1_554
Er1 Pd0 2.950586 1_455
Er1 Pd0 2.950586 1_545
Er1 Ir0 2.950594 1_555
