# generated using pymatgen
data_Fe3OF5
_symmetry_space_group_name_H-M   'P 1'
_cell_length_a   5.77716200
_cell_length_b   5.83141252
_cell_length_c   7.62469563
_cell_angle_alpha   72.48887190
_cell_angle_beta   71.33867412
_cell_angle_gamma   71.67102665
_symmetry_Int_Tables_number   1
_chemical_formula_structural   Fe3OF5
_chemical_formula_sum   'Fe6 O2 F10'
_cell_volume   225.21691900
_cell_formula_units_Z   2
loop_
 _symmetry_equiv_pos_site_id
 _symmetry_equiv_pos_as_xyz
  1  'x, y, z'
loop_
 _atom_site_type_symbol
 _atom_site_label
 _atom_site_symmetry_multiplicity
 _atom_site_fract_x
 _atom_site_fract_y
 _atom_site_fract_z
 _atom_site_occupancy
  Fe  Fe0  1  0.00000000  0.00000000  0.00000000  1
  Fe  Fe1  1  0.35933900  0.30813800  0.16628400  1
  Fe  Fe2  1  0.00000000  0.00000000  0.50000000  1
  Fe  Fe3  1  0.32943800  0.31010600  0.67935500  1
  Fe  Fe4  1  0.67056200  0.68989400  0.32064500  1
  Fe  Fe5  1  0.64066100  0.69186200  0.83371600  1
  O  O0  1  0.64361000  0.00915800  0.17809700  1
  O  O1  1  0.35639000  0.99084200  0.82190300  1
  F  F0  1  0.04001900  0.60870500  0.18017700  1
  F  F1  1  0.68594200  0.31311300  0.49971200  1
  F  F2  1  0.77417000  0.75563100  0.52579200  1
  F  F3  1  0.42196300  0.43808300  0.85871900  1
  F  F4  1  0.09484800  0.09855300  0.20703500  1
  F  F5  1  0.90515200  0.90144700  0.79296500  1
  F  F6  1  0.22583000  0.24436900  0.47420800  1
  F  F7  1  0.57803700  0.56191700  0.14128100  1
  F  F8  1  0.31405800  0.68688700  0.50028800  1
  F  F9  1  0.95998100  0.39129500  0.81982300  1
loop_
_geom_bond_atom_site_label_1
_geom_bond_atom_site_label_2
_geom_bond_distance
_geom_bond_site_symmetry_2
Fe0 O1 2.066705 1_544
Fe0 O0 2.066705 1_455
Fe1 O0 1.986006 1_555
Fe3 O1 1.838471 1_545
Fe4 O0 1.838471 1_565
Fe5 O1 1.986006 1_555
F0 Fe4 2.033131 1_455
F0 Fe1 2.107012 1_555
F0 Fe0 2.265486 1_565
F1 Fe3 2.078764 1_555
F1 Fe2 2.131278 1_655
F1 Fe4 2.202078 1_555
F2 Fe4 2.014001 1_555
F2 Fe2 2.146613 1_665
F2 Fe5 2.177523 1_555
F3 Fe3 2.011439 1_555
F3 Fe5 2.162128 1_555
F3 Fe1 2.182805 1_556
F4 Fe2 2.064579 1_555
F4 Fe0 2.102379 1_555
F4 Fe1 2.137115 1_555
F5 Fe2 2.064579 1_665
F5 Fe0 2.102379 1_666
F5 Fe5 2.137115 1_555
F6 Fe3 2.014001 1_555
F6 Fe2 2.146613 1_555
F6 Fe1 2.177523 1_555
F7 Fe4 2.011439 1_555
F7 Fe1 2.162128 1_555
F7 Fe5 2.182805 1_554
F8 Fe4 2.078764 1_555
F8 Fe2 2.131278 1_565
F8 Fe3 2.202078 1_555
F9 Fe3 2.033131 1_655
F9 Fe5 2.107012 1_555
F9 Fe0 2.265486 1_656
