# generated using pymatgen
data_Na2VSi(W2O9)6
_symmetry_space_group_name_H-M   'P 1'
_cell_length_a   14.71316300
_cell_length_b   14.71316300
_cell_length_c   10.79268500
_cell_angle_alpha   90.00000000
_cell_angle_beta   90.00000000
_cell_angle_gamma   90.00000000
_symmetry_Int_Tables_number   1
_chemical_formula_structural   Na2VSi(W2O9)6
_chemical_formula_sum   'Na4 V2 Si2 W24 O108'
_cell_volume   2336.36985655
_cell_formula_units_Z   2
loop_
 _symmetry_equiv_pos_site_id
 _symmetry_equiv_pos_as_xyz
  1  'x, y, z'
loop_
 _atom_site_type_symbol
 _atom_site_label
 _atom_site_symmetry_multiplicity
 _atom_site_fract_x
 _atom_site_fract_y
 _atom_site_fract_z
 _atom_site_occupancy
  Na  Na0  1  0.75000000  0.75000000  0.00000000  1
  Na  Na1  1  0.25000000  0.25000000  0.00000000  1
  Na  Na2  1  0.25000000  0.75000000  0.00000000  1
  Na  Na3  1  0.75000000  0.25000000  0.00000000  1
  V  V0  1  0.00000000  0.50000000  0.81810000  1
  V  V1  1  0.50000000  0.00000000  0.18190000  1
  Si  Si0  1  0.50000000  0.50000000  0.50000000  1
  Si  Si1  1  0.00000000  0.00000000  0.50000000  1
  W  W0  1  0.55259600  0.73909000  0.48982500  1
  W  W1  1  0.44740400  0.26091000  0.48982500  1
  W  W2  1  0.23909000  0.94740400  0.48982500  1
  W  W3  1  0.76091000  0.05259600  0.48982500  1
  W  W4  1  0.94740400  0.76091000  0.51017500  1
  W  W5  1  0.05259600  0.23909000  0.51017500  1
  W  W6  1  0.26091000  0.55259600  0.51017500  1
  W  W7  1  0.73909000  0.44740400  0.51017500  1
  W  W8  1  0.64877500  0.58549400  0.73639100  1
  W  W9  1  0.35122500  0.41450600  0.73639100  1
  W  W10  1  0.08549400  0.85122500  0.73639100  1
  W  W11  1  0.91450600  0.14877500  0.73639100  1
  W  W12  1  0.85122500  0.91450600  0.26360900  1
  W  W13  1  0.14877500  0.08549400  0.26360900  1
  W  W14  1  0.41450600  0.64877500  0.26360900  1
  W  W15  1  0.58549400  0.35122500  0.26360900  1
  W  W16  1  0.64202900  0.60049000  0.26334900  1
  W  W17  1  0.35797100  0.39951000  0.26334900  1
  W  W18  1  0.10049000  0.85797100  0.26334900  1
  W  W19  1  0.89951000  0.14202900  0.26334900  1
  W  W20  1  0.85797100  0.89951000  0.73665100  1
  W  W21  1  0.14202900  0.10049000  0.73665100  1
  W  W22  1  0.39951000  0.64202900  0.73665100  1
  W  W23  1  0.60049000  0.35797100  0.73665100  1
  O  O0  1  0.57845900  0.85110100  0.52452200  1
  O  O1  1  0.42154100  0.14889900  0.52452200  1
  O  O2  1  0.35110100  0.92154100  0.52452200  1
  O  O3  1  0.64889900  0.07845900  0.52452200  1
  O  O4  1  0.92154100  0.64889900  0.47547800  1
  O  O5  1  0.07845900  0.35110100  0.47547800  1
  O  O6  1  0.14889900  0.57845900  0.47547800  1
  O  O7  1  0.85110100  0.42154100  0.47547800  1
  O  O8  1  0.70566900  0.64938500  0.84889400  1
  O  O9  1  0.29433100  0.35061500  0.84889400  1
  O  O10  1  0.14938500  0.79433100  0.84889400  1
  O  O11  1  0.85061500  0.20566900  0.84889400  1
  O  O12  1  0.79433100  0.85061500  0.15110600  1
  O  O13  1  0.20566900  0.14938500  0.15110600  1
  O  O14  1  0.35061500  0.70566900  0.15110600  1
  O  O15  1  0.64938500  0.29433100  0.15110600  1
  O  O16  1  0.72351100  0.62796600  0.15086000  1
  O  O17  1  0.27648900  0.37203400  0.15086000  1
  O  O18  1  0.12796600  0.77648900  0.15086000  1
  O  O19  1  0.87203400  0.22351100  0.15086000  1
  O  O20  1  0.77648900  0.87203400  0.84914000  1
  O  O21  1  0.22351100  0.12796600  0.84914000  1
  O  O22  1  0.37203400  0.72351100  0.84914000  1
  O  O23  1  0.62796600  0.27648900  0.84914000  1
  O  O24  1  0.62920600  0.67447000  0.60747700  1
  O  O25  1  0.37079400  0.32553000  0.60747700  1
  O  O26  1  0.17447000  0.87079400  0.60747700  1
  O  O27  1  0.82553000  0.12920600  0.60747700  1
  O  O28  1  0.87079400  0.82553000  0.39252300  1
  O  O29  1  0.12920600  0.17447000  0.39252300  1
  O  O30  1  0.32553000  0.62920600  0.39252300  1
  O  O31  1  0.67447000  0.37079400  0.39252300  1
  O  O32  1  0.64370500  0.46765800  0.82026600  1
  O  O33  1  0.35629500  0.53234200  0.82026600  1
  O  O34  1  0.96765800  0.85629500  0.82026600  1
  O  O35  1  0.03234200  0.14370500  0.82026600  1
  O  O36  1  0.85629500  0.03234200  0.17973400  1
  O  O37  1  0.14370500  0.96765800  0.17973400  1
  O  O38  1  0.53234200  0.64370500  0.17973400  1
  O  O39  1  0.46765800  0.35629500  0.17973400  1
  O  O40  1  0.64163800  0.71195700  0.36018000  1
  O  O41  1  0.35836200  0.28804300  0.36018000  1
  O  O42  1  0.21195700  0.85836200  0.36018000  1
  O  O43  1  0.78804300  0.14163800  0.36018000  1
  O  O44  1  0.85836200  0.78804300  0.63982000  1
  O  O45  1  0.14163800  0.21195700  0.63982000  1
  O  O46  1  0.28804300  0.64163800  0.63982000  1
  O  O47  1  0.71195700  0.35836200  0.63982000  1
  O  O48  1  0.75139100  0.53866000  0.64063900  1
  O  O49  1  0.24860900  0.46134000  0.64063900  1
  O  O50  1  0.03866000  0.74860900  0.64063900  1
  O  O51  1  0.96134000  0.25139100  0.64063900  1
  O  O52  1  0.74860900  0.96134000  0.35936100  1
  O  O53  1  0.25139100  0.03866000  0.35936100  1
  O  O54  1  0.46134000  0.75139100  0.35936100  1
  O  O55  1  0.53866000  0.24860900  0.35936100  1
  O  O56  1  0.60769800  0.47696900  0.21848000  1
  O  O57  1  0.39230200  0.52303100  0.21848000  1
  O  O58  1  0.97696900  0.89230200  0.21848000  1
  O  O59  1  0.02303100  0.10769800  0.21848000  1
  O  O60  1  0.89230200  0.02303100  0.78152000  1
  O  O61  1  0.10769800  0.97696900  0.78152000  1
  O  O62  1  0.52303100  0.60769800  0.78152000  1
  O  O63  1  0.47696900  0.39230200  0.78152000  1
  O  O64  1  0.71431200  0.54390700  0.39123700  1
  O  O65  1  0.28568800  0.45609300  0.39123700  1
  O  O66  1  0.04390700  0.78568800  0.39123700  1
  O  O67  1  0.95609300  0.21431200  0.39123700  1
  O  O68  1  0.78568800  0.95609300  0.60876300  1
  O  O69  1  0.21431200  0.04390700  0.60876300  1
  O  O70  1  0.45609300  0.71431200  0.60876300  1
  O  O71  1  0.54390700  0.28568800  0.60876300  1
  O  O72  1  0.51935000  0.58831000  0.41041800  1
  O  O73  1  0.48065000  0.41169000  0.41041800  1
  O  O74  1  0.08831000  0.98065000  0.41041800  1
  O  O75  1  0.91169000  0.01935000  0.41041800  1
  O  O76  1  0.98065000  0.91169000  0.58958200  1
  O  O77  1  0.01935000  0.08831000  0.58958200  1
  O  O78  1  0.41169000  0.51935000  0.58958200  1
  O  O79  1  0.58831000  0.48065000  0.58958200  1
  O  O80  1  0.00000000  0.50000000  0.60805000  1
  O  O81  1  0.50000000  0.00000000  0.39195000  1
  O  O82  1  0.09000900  0.57679500  0.75427000  1
  O  O83  1  0.90999100  0.42320500  0.75427000  1
  O  O84  1  0.07679500  0.40999100  0.75427000  1
  O  O85  1  0.92320500  0.59000900  0.75427000  1
  O  O86  1  0.40999100  0.92320500  0.24573000  1
  O  O87  1  0.59000900  0.07679500  0.24573000  1
  O  O88  1  0.42320500  0.09000900  0.24573000  1
  O  O89  1  0.57679500  0.90999100  0.24573000  1
  O  O90  1  0.00000000  0.50000000  0.96869300  1
  O  O91  1  0.50000000  0.00000000  0.03130700  1
  O  O92  1  0.91783100  0.69453700  0.98464500  1
  O  O93  1  0.08216900  0.30546300  0.98464500  1
  O  O94  1  0.19453700  0.58216900  0.98464500  1
  O  O95  1  0.80546300  0.41783100  0.98464500  1
  O  O96  1  0.58216900  0.80546300  0.01535500  1
  O  O97  1  0.41783100  0.19453700  0.01535500  1
  O  O98  1  0.30546300  0.91783100  0.01535500  1
  O  O99  1  0.69453700  0.08216900  0.01535500  1
  O  O100  1  0.97553000  0.56499300  0.19716700  1
  O  O101  1  0.02447000  0.43500700  0.19716700  1
  O  O102  1  0.06499300  0.52447000  0.19716700  1
  O  O103  1  0.93500700  0.47553000  0.19716700  1
  O  O104  1  0.52447000  0.93500700  0.80283300  1
  O  O105  1  0.47553000  0.06499300  0.80283300  1
  O  O106  1  0.43500700  0.97553000  0.80283300  1
  O  O107  1  0.56499300  0.02447000  0.80283300  1
loop_
_geom_bond_atom_site_label_1
_geom_bond_atom_site_label_2
_geom_bond_distance
_geom_bond_site_symmetry_2
Na0 O12 2.297073 1_555
Na0 O8 2.297073 1_554
Na0 O20 2.454938 1_554
Na0 O16 2.454938 1_555
Na0 O92 2.605944 1_554
Na0 O96 2.605944 1_555
Na1 O13 2.297073 1_555
Na1 O9 2.297073 1_554
Na1 O21 2.454938 1_554
Na1 O17 2.454938 1_555
Na1 O97 2.605944 1_555
Na1 O93 2.605944 1_554
Na2 O14 2.297073 1_555
Na2 O10 2.297073 1_554
Na2 O22 2.454938 1_554
Na2 O18 2.454938 1_555
Na2 O98 2.605944 1_555
Na2 O94 2.605944 1_554
Na3 O15 2.297073 1_555
Na3 O11 2.297073 1_554
Na3 O23 2.454938 1_554
Na3 O19 2.454938 1_555
Na3 O95 2.605944 1_554
Na3 O99 2.605944 1_555
O0 W0 1.732355 1_555
O1 W1 1.732355 1_555
O2 W2 1.732355 1_555
O3 W3 1.732355 1_555
O4 W4 1.732355 1_555
O5 W5 1.732355 1_555
O6 W6 1.732355 1_555
O7 W7 1.732355 1_555
O8 W8 1.748913 1_555
O9 W9 1.748913 1_555
O10 W10 1.748913 1_555
O11 W11 1.748913 1_555
O12 W12 1.748913 1_555
O13 W13 1.748913 1_555
O14 W14 1.748913 1_555
O15 W15 1.748913 1_555
O16 W16 1.753460 1_555
O17 W17 1.753460 1_555
O18 W18 1.753460 1_555
O19 W19 1.753460 1_555
O20 W20 1.753460 1_555
O21 W21 1.753460 1_555
O22 W22 1.753460 1_555
O23 W23 1.753460 1_555
O24 W8 1.931964 1_555
O24 W0 1.945976 1_555
O25 W9 1.931964 1_555
O25 W1 1.945976 1_555
O26 W10 1.931964 1_555
O26 W2 1.945976 1_555
O27 W11 1.931964 1_555
O27 W3 1.945976 1_555
O28 W12 1.931964 1_555
O28 W4 1.945976 1_555
O29 W13 1.931964 1_555
O29 W5 1.945976 1_555
O30 W14 1.931964 1_555
O30 W6 1.945976 1_555
O31 W15 1.931964 1_555
O31 W7 1.945976 1_555
O32 W23 1.955287 1_555
O32 W8 1.957262 1_555
O33 W22 1.955287 1_555
O33 W9 1.957262 1_555
O34 W20 1.955287 1_555
O34 W10 1.957262 1_655
O35 W21 1.955287 1_555
O35 W11 1.957262 1_455
O36 W19 1.955287 1_555
O36 W12 1.957262 1_545
O37 W18 1.955287 1_555
O37 W13 1.957262 1_565
O38 W16 1.955287 1_555
O38 W14 1.957262 1_555
O39 W17 1.955287 1_555
O39 W15 1.957262 1_555
O40 W16 1.944711 1_555
O40 W0 1.957936 1_555
O41 W17 1.944711 1_555
O41 W1 1.957936 1_555
O42 W18 1.944711 1_555
O42 W2 1.957936 1_555
O43 W19 1.944711 1_555
O43 W3 1.957936 1_555
O44 W20 1.944711 1_555
O44 W4 1.957936 1_555
O45 W21 1.944711 1_555
O45 W5 1.957936 1_555
O46 W22 1.944711 1_555
O46 W6 1.957936 1_555
O47 W23 1.944711 1_555
O47 W7 1.957936 1_555
O48 W7 1.954003 1_555
O48 W8 1.955070 1_555
O49 W6 1.954003 1_555
O49 W9 1.955070 1_555
O50 W4 1.954003 1_455
O50 W10 1.955070 1_555
O51 W5 1.954003 1_655
O51 W11 1.955070 1_555
O52 W3 1.954003 1_565
O52 W12 1.955070 1_555
O53 W2 1.954003 1_545
O53 W13 1.955070 1_555
O54 W0 1.954003 1_555
O54 W14 1.955070 1_555
O55 W1 1.954003 1_555
O55 W15 1.955070 1_555
O56 W15 1.940824 1_555
O56 W16 1.947443 1_555
O57 W14 1.940824 1_555
O57 W17 1.947443 1_555
O58 W12 1.940824 1_555
O58 W18 1.947443 1_655
O59 W13 1.940824 1_555
O59 W19 1.947443 1_455
O60 W11 1.940824 1_555
O60 W20 1.947443 1_545
O61 W10 1.940824 1_555
O61 W21 1.947443 1_565
O62 W8 1.940824 1_555
O62 W22 1.947443 1_555
O63 W9 1.940824 1_555
O63 W23 1.947443 1_555
O64 W16 1.931124 1_555
O64 W7 1.948513 1_555
O65 W17 1.931124 1_555
O65 W6 1.948513 1_555
O66 W18 1.931124 1_555
O66 W4 1.948513 1_455
O67 W19 1.931124 1_555
O67 W5 1.948513 1_655
O68 W20 1.931124 1_555
O68 W3 1.948513 1_565
O69 W21 1.931124 1_555
O69 W2 1.948513 1_545
O70 W22 1.931124 1_555
O70 W0 1.948513 1_555
O71 W23 1.931124 1_555
O71 W1 1.948513 1_555
O72 Si0 1.644398 1_555
O72 W14 2.383599 1_555
O72 W16 2.410301 1_555
O72 W0 2.428018 1_555
O73 Si0 1.644398 1_555
O73 W15 2.383599 1_555
O73 W17 2.410301 1_555
O73 W1 2.428018 1_555
O74 Si1 1.644398 1_565
O74 W13 2.383599 1_565
O74 W18 2.410301 1_555
O74 W2 2.428018 1_555
O75 Si1 1.644398 1_655
O75 W12 2.383599 1_545
O75 W19 2.410301 1_555
O75 W3 2.428018 1_555
O76 Si1 1.644398 1_665
O76 W10 2.383599 1_655
O76 W20 2.410301 1_555
O76 W4 2.428018 1_555
O77 Si1 1.644398 1_555
O77 W11 2.383599 1_455
O77 W21 2.410301 1_555
O77 W5 2.428018 1_555
O78 Si0 1.644398 1_555
O78 W9 2.383599 1_555
O78 W22 2.410301 1_555
O78 W6 2.428018 1_555
O79 Si0 1.644398 1_555
O79 W8 2.383599 1_555
O79 W23 2.410301 1_555
O79 W7 2.428018 1_555
O80 V0 2.267003 1_555
O81 V1 2.267003 1_555
O82 V0 1.872181 1_555
O83 V0 1.872181 1_655
O84 V0 1.872181 1_555
O85 V0 1.872181 1_655
O86 V1 1.872181 1_565
O87 V1 1.872181 1_555
O88 V1 1.872181 1_555
O89 V1 1.872181 1_565
O90 V0 1.625303 1_555
O91 V1 1.625303 1_555
O100 O102 1.445020 1_655
O100 O103 1.445020 1_555
O101 O102 1.445020 1_555
O101 O103 1.445020 1_455
O104 O106 1.445020 1_555
O104 O107 1.445020 1_565
O105 O107 1.445020 1_555
O105 O106 1.445020 1_545
