# generated using pymatgen
data_LiMnBO3
_symmetry_space_group_name_H-M   'P 1'
_cell_length_a   5.24481532
_cell_length_b   10.57313993
_cell_length_c   5.24481499
_cell_angle_alpha   91.01259549
_cell_angle_beta   60.21229995
_cell_angle_gamma   88.98740780
_symmetry_Int_Tables_number   1
_chemical_formula_structural   LiMnBO3
_chemical_formula_sum   'Li4 Mn4 B4 O12'
_cell_volume   252.26116082
_cell_formula_units_Z   4
loop_
 _symmetry_equiv_pos_site_id
 _symmetry_equiv_pos_as_xyz
  1  'x, y, z'
loop_
 _atom_site_type_symbol
 _atom_site_label
 _atom_site_symmetry_multiplicity
 _atom_site_fract_x
 _atom_site_fract_y
 _atom_site_fract_z
 _atom_site_occupancy
  Li  Li0  1  0.65068700  0.33147900  0.32061600  1
  Li  Li1  1  0.67938400  0.83147900  0.34931300  1
  Li  Li2  1  0.33765100  0.58169000  0.65114300  1
  Li  Li3  1  0.34885700  0.08169000  0.66234900  1
  Mn  Mn0  1  0.00374400  0.86652300  0.67726700  1
  Mn  Mn1  1  0.32273300  0.36652300  0.99625600  1
  Mn  Mn2  1  0.00378100  0.11641900  0.32984000  1
  Mn  Mn3  1  0.67016000  0.61641900  0.99621900  1
  B  B0  1  0.34270000  0.87449100  0.00261800  1
  B  B1  1  0.99738200  0.37449100  0.65730000  1
  B  B2  1  0.00402200  0.62440900  0.33493600  1
  B  B3  1  0.66506400  0.12440900  0.99597800  1
  O  O0  1  0.24597500  0.58123100  0.07125400  1
  O  O1  1  0.92874600  0.08123100  0.75402500  1
  O  O2  1  0.07136400  0.90466300  0.25357900  1
  O  O3  1  0.74642100  0.40466300  0.92863600  1
  O  O4  1  0.57982700  0.83202400  0.03252900  1
  O  O5  1  0.96747100  0.33202400  0.42017300  1
  O  O6  1  0.03720600  0.65533500  0.57825200  1
  O  O7  1  0.42174800  0.15533500  0.96279400  1
  O  O8  1  0.64069200  0.13968200  0.26998300  1
  O  O9  1  0.73001700  0.63968200  0.35930800  1
  O  O10  1  0.27256400  0.39015200  0.62759800  1
  O  O11  1  0.37240200  0.89015200  0.72743600  1
loop_
_geom_bond_atom_site_label_1
_geom_bond_atom_site_label_2
_geom_bond_distance
_geom_bond_site_symmetry_2
Li0 O10 1.912811 1_555
Li0 O5 1.973673 1_555
Li0 O3 2.030210 1_554
Li0 O8 2.045529 1_555
Li1 O11 1.912811 1_555
Li1 O4 1.973673 1_555
Li1 O2 2.030210 1_655
Li1 O9 2.045529 1_555
Li2 O6 1.949678 1_555
Li2 O9 1.975303 1_555
Li2 O0 2.008488 1_556
Li2 O10 2.071359 1_555
Li3 O7 1.949678 1_555
Li3 O8 1.975303 1_555
Li3 O1 2.008488 1_455
Li3 O11 2.071359 1_545
Mn0 O11 2.095350 1_555
Mn0 O2 2.116626 1_555
Mn0 O4 2.117729 1_456
Mn0 O6 2.267384 1_555
Mn0 O1 2.291096 1_465
Mn1 O10 2.095350 1_555
Mn1 O3 2.116626 1_555
Mn1 O5 2.117729 1_456
Mn1 O7 2.267384 1_555
Mn1 O0 2.291096 1_556
Mn2 O8 2.089432 1_455
Mn2 O1 2.099384 1_455
Mn2 O7 2.132539 1_554
Mn2 O2 2.257841 1_545
Mn2 O5 2.305265 1_455
Mn3 O9 2.089431 1_556
Mn3 O0 2.099385 1_556
Mn3 O6 2.132539 1_655
Mn3 O3 2.257841 1_555
Mn3 O4 2.305265 1_556
B0 O11 1.385896 1_554
B0 O4 1.396275 1_555
B0 O2 1.402673 1_555
B1 O10 1.385896 1_655
B1 O5 1.396275 1_555
B1 O3 1.402673 1_555
B2 O9 1.384282 1_455
B2 O0 1.394585 1_555
B2 O6 1.404886 1_555
B3 O8 1.384282 1_556
B3 O1 1.394585 1_555
B3 O7 1.404886 1_555
