# generated using pymatgen
data_BH6CN3F4
_symmetry_space_group_name_H-M   'P 1'
_cell_length_a   5.37630243
_cell_length_b   5.37630243
_cell_length_c   5.37630218
_cell_angle_alpha   87.84071280
_cell_angle_beta   87.84071280
_cell_angle_gamma   87.84071160
_symmetry_Int_Tables_number   1
_chemical_formula_structural   BH6CN3F4
_chemical_formula_sum   'B1 H6 C1 N3 F4'
_cell_volume   155.07707795
_cell_formula_units_Z   1
loop_
 _symmetry_equiv_pos_site_id
 _symmetry_equiv_pos_as_xyz
  1  'x, y, z'
loop_
 _atom_site_type_symbol
 _atom_site_label
 _atom_site_symmetry_multiplicity
 _atom_site_fract_x
 _atom_site_fract_y
 _atom_site_fract_z
 _atom_site_occupancy
  B  B0  1  0.58602700  0.58602700  0.58602700  1
  H  H0  1  0.25163100  0.01756200  0.70364300  1
  H  H1  1  0.25163100  0.70364300  0.01756200  1
  H  H2  1  0.70364300  0.25163100  0.01756200  1
  H  H3  1  0.01756200  0.25163100  0.70364300  1
  H  H4  1  0.01756200  0.70364300  0.25163100  1
  H  H5  1  0.70364300  0.01756200  0.25163100  1
  C  C0  1  0.98521700  0.98521700  0.98521700  1
  N  N0  1  0.77758500  0.08827200  0.08827200  1
  N  N1  1  0.08827200  0.77758500  0.08827200  1
  N  N2  1  0.08827200  0.08827200  0.77758500  1
  F  F0  1  0.84502800  0.53424300  0.53424300  1
  F  F1  1  0.53424300  0.84502800  0.53424300  1
  F  F2  1  0.53424300  0.53424300  0.84502800  1
  F  F3  1  0.44144000  0.44144000  0.44144000  1
loop_
_geom_bond_atom_site_label_1
_geom_bond_atom_site_label_2
_geom_bond_distance
_geom_bond_site_symmetry_2
B0 F3 1.396206 1_555
B0 F2 1.428776 1_555
B0 F1 1.428776 1_555
B0 F0 1.428776 1_555
H0 N2 1.016773 1_555
H1 N1 1.016773 1_555
H2 N0 1.016773 1_555
H3 N2 1.016773 1_555
H4 N1 1.016773 1_555
H5 N0 1.016773 1_555
C0 N2 1.337902 1_665
C0 N1 1.337902 1_656
C0 N0 1.337902 1_566
