# generated using pymatgen
data_Y2TlCd
_symmetry_space_group_name_H-M   'P 1'
_cell_length_a   5.30678569
_cell_length_b   5.30678569
_cell_length_c   5.30678569
_cell_angle_alpha   60.00000000
_cell_angle_beta   60.00000000
_cell_angle_gamma   60.00000000
_symmetry_Int_Tables_number   1
_chemical_formula_structural   Y2TlCd
_chemical_formula_sum   'Y2 Tl1 Cd1'
_cell_volume   105.67679931
_cell_formula_units_Z   1
loop_
 _symmetry_equiv_pos_site_id
 _symmetry_equiv_pos_as_xyz
  1  'x, y, z'
loop_
 _atom_site_type_symbol
 _atom_site_label
 _atom_site_symmetry_multiplicity
 _atom_site_fract_x
 _atom_site_fract_y
 _atom_site_fract_z
 _atom_site_occupancy
  Y  Y0  1  0.00000000  0.00000000  0.00000000  1
  Y  Y1  1  0.50000000  0.50000000  0.50000000  1
  Tl  Tl0  1  0.75000100  0.75000100  0.75000100  1
  Cd  Cd0  1  0.25000000  0.25000000  0.25000000  1
loop_
_geom_bond_atom_site_label_1
_geom_bond_atom_site_label_2
_geom_bond_distance
_geom_bond_site_symmetry_2
Tl0 Y0 3.249716 1_666
Tl0 Y1 3.249725 1_655
Tl0 Y1 3.249725 1_556
Tl0 Y1 3.249725 1_565
Tl0 Y0 3.249734 1_656
Tl0 Y0 3.249734 1_665
Tl0 Y0 3.249734 1_566
Tl0 Y1 3.249742 1_555
Cd0 Y1 3.249729 1_545
Cd0 Y1 3.249729 1_555
Cd0 Y0 3.249729 1_655
Cd0 Y0 3.249729 1_556
Cd0 Y0 3.249729 1_555
Cd0 Y1 3.249729 1_554
Cd0 Y0 3.249729 1_565
Cd0 Y1 3.249729 1_455
