# generated using pymatgen
data_Li7Mn(O2F)2
_symmetry_space_group_name_H-M   'P 1'
_cell_length_a   5.42800000
_cell_length_b   5.77824292
_cell_length_c   10.03887339
_cell_angle_alpha   105.19299865
_cell_angle_beta   87.17868953
_cell_angle_gamma   115.50172812
_symmetry_Int_Tables_number   1
_chemical_formula_structural   Li7Mn(O2F)2
_chemical_formula_sum   'Li14 Mn2 O8 F4'
_cell_volume   273.52092524
_cell_formula_units_Z   2
loop_
 _symmetry_equiv_pos_site_id
 _symmetry_equiv_pos_as_xyz
  1  'x, y, z'
loop_
 _atom_site_type_symbol
 _atom_site_label
 _atom_site_symmetry_multiplicity
 _atom_site_fract_x
 _atom_site_fract_y
 _atom_site_fract_z
 _atom_site_occupancy
  Li  Li0  1  0.05341500  0.19900800  0.76530300  1
  Li  Li1  1  0.48491000  0.12353600  0.25202400  1
  Li  Li2  1  0.53167100  0.43436800  0.61122400  1
  Li  Li3  1  0.96787800  0.56561600  0.88363600  1
  Li  Li4  1  0.05396300  0.23351500  0.55616100  1
  Li  Li5  1  0.52773700  0.24901800  0.04175200  1
  Li  Li6  1  0.95813700  0.30661700  0.33584000  1
  Li  Li7  1  0.47382600  0.81422900  0.94149500  1
  Li  Li8  1  0.95783700  0.72676600  0.46935900  1
  Li  Li9  1  0.98887500  0.39550100  0.10992100  1
  Li  Li10  1  0.49254500  0.59023500  0.38298400  1
  Li  Li11  1  0.47460300  0.84315900  0.72729200  1
  Li  Li12  1  0.00413800  0.84609000  0.25262700  1
  Li  Li13  1  0.52767300  0.68916100  0.17189300  1
  Mn  Mn0  1  0.00309600  0.92297800  0.03937200  1
  Mn  Mn1  1  0.50393400  0.00811900  0.49341500  1
  O  O0  1  0.24935400  0.56652500  0.59802600  1
  O  O1  1  0.29303600  0.84138200  0.19834600  1
  O  O2  1  0.16019400  0.83690900  0.96338400  1
  O  O3  1  0.67032500  0.87915700  0.43438500  1
  O  O4  1  0.69616000  0.52333200  0.10838100  1
  O  O5  1  0.34021900  0.16096000  0.53939000  1
  O  O6  1  0.82724100  0.11447100  0.06044900  1
  O  O7  1  0.77666400  0.45229100  0.38902500  1
  F  F0  1  0.83518400  0.88303100  0.71056400  1
  F  F1  1  0.29009200  0.49785400  0.89121300  1
  F  F2  1  0.68476300  0.13903100  0.78657700  1
  F  F3  1  0.17253100  0.15714100  0.28596200  1
loop_
_geom_bond_atom_site_label_1
_geom_bond_atom_site_label_2
_geom_bond_distance
_geom_bond_site_symmetry_2
Li1 O1 1.471664 1_545
Li1 O7 2.064624 1_555
Li2 O5 1.469273 1_555
Li2 O0 2.007399 1_555
Li3 O2 1.484389 1_655
Li4 O0 1.693161 1_555
Li4 O5 1.765379 1_555
Li5 O4 1.432586 1_555
Li5 O6 2.115990 1_555
Li6 O7 1.546128 1_555
Li7 O2 1.761759 1_555
Li7 O6 2.095170 1_566
Li8 O7 1.482396 1_555
Li9 O6 1.430640 1_555
Li10 O3 1.481506 1_555
Li10 O7 2.027411 1_555
Li11 O0 1.766365 1_555
Li12 O1 1.643648 1_555
Li13 O4 1.593117 1_555
Li13 O1 1.809731 1_555
Mn0 O2 1.287898 1_554
Mn0 O6 1.716716 1_465
Mn1 O3 1.420404 1_545
Mn1 O5 1.484731 1_555
F0 Li0 1.647595 1_665
F0 Li11 1.873949 1_555
F0 Li2 2.357667 1_555
F0 Li8 2.516900 1_555
F1 Li7 1.608522 1_555
F1 Li0 1.826352 1_555
F1 Li3 1.958671 1_455
F2 Li11 1.559658 1_545
F2 Li0 1.889304 1_655
F2 Li3 2.239110 1_555
F3 Li12 1.574198 1_545
F3 Li6 1.712434 1_455
F3 Li1 1.794653 1_555
