# generated using pymatgen
data_Li2V(PO4)2
_symmetry_space_group_name_H-M   'P 1'
_cell_length_a   6.87935800
_cell_length_b   8.94768000
_cell_length_c   10.85989200
_cell_angle_alpha   90.00000000
_cell_angle_beta   90.00000000
_cell_angle_gamma   90.00000000
_symmetry_Int_Tables_number   1
_chemical_formula_structural   Li2V(PO4)2
_chemical_formula_sum   'Li8 V4 P8 O32'
_cell_volume   668.47298486
_cell_formula_units_Z   4
loop_
 _symmetry_equiv_pos_site_id
 _symmetry_equiv_pos_as_xyz
  1  'x, y, z'
loop_
 _atom_site_type_symbol
 _atom_site_label
 _atom_site_symmetry_multiplicity
 _atom_site_fract_x
 _atom_site_fract_y
 _atom_site_fract_z
 _atom_site_occupancy
  Li  Li0  1  0.22929000  0.26244400  0.00853200  1
  Li  Li1  1  0.37163700  0.90779200  0.89602200  1
  Li  Li2  1  0.12836300  0.09220800  0.39602200  1
  Li  Li3  1  0.27071000  0.73755600  0.50853200  1
  Li  Li4  1  0.72929000  0.23755600  0.99146800  1
  Li  Li5  1  0.87163700  0.59220800  0.10397800  1
  Li  Li6  1  0.62836300  0.40779200  0.60397800  1
  Li  Li7  1  0.77071000  0.76244400  0.49146800  1
  V  V0  1  0.25638600  0.22369600  0.68353200  1
  V  V1  1  0.24361400  0.77630400  0.18353200  1
  V  V2  1  0.75638600  0.27630400  0.31646800  1
  V  V3  1  0.74361400  0.72369600  0.81646800  1
  P  P0  1  0.97035900  0.43715300  0.85276400  1
  P  P1  1  0.12697300  0.49492100  0.33571000  1
  P  P2  1  0.37302700  0.50507900  0.83571000  1
  P  P3  1  0.52964100  0.56284700  0.35276400  1
  P  P4  1  0.47035900  0.06284700  0.14723600  1
  P  P5  1  0.62697300  0.00507900  0.66429000  1
  P  P6  1  0.87302700  0.99492100  0.16429000  1
  P  P7  1  0.02964100  0.93715300  0.64723600  1
  O  O0  1  0.97205000  0.84160100  0.17829000  1
  O  O1  1  0.07338700  0.59480800  0.44238300  1
  O  O2  1  0.09340300  0.91234300  0.51443700  1
  O  O3  1  0.05256500  0.28798400  0.80259200  1
  O  O4  1  0.11649700  0.57643500  0.20906800  1
  O  O5  1  0.18790000  0.00619000  0.73062000  1
  O  O6  1  0.17675500  0.22882300  0.54260300  1
  O  O7  1  0.14710000  0.55590000  0.85140100  1
  O  O8  1  0.35290000  0.44410000  0.35140100  1
  O  O9  1  0.32324500  0.77117700  0.04260300  1
  O  O10  1  0.31210000  0.99381000  0.23062000  1
  O  O11  1  0.38350300  0.42356500  0.70906800  1
  O  O12  1  0.44743500  0.71201600  0.30259200  1
  O  O13  1  0.40659700  0.08765700  0.01443700  1
  O  O14  1  0.42661300  0.40519200  0.94238300  1
  O  O15  1  0.52795000  0.15839900  0.67829000  1
  O  O16  1  0.47205000  0.65839900  0.82171000  1
  O  O17  1  0.57338700  0.90519200  0.55761700  1
  O  O18  1  0.59340300  0.58765700  0.48556300  1
  O  O19  1  0.55256500  0.21201600  0.19740800  1
  O  O20  1  0.61649700  0.92356500  0.79093200  1
  O  O21  1  0.68790000  0.49381000  0.26938000  1
  O  O22  1  0.67675500  0.27117700  0.45739700  1
  O  O23  1  0.64710000  0.94410000  0.14859900  1
  O  O24  1  0.85290000  0.05590000  0.64859900  1
  O  O25  1  0.82324500  0.72882300  0.95739700  1
  O  O26  1  0.81210000  0.50619000  0.76938000  1
  O  O27  1  0.88350300  0.07643500  0.29093200  1
  O  O28  1  0.94743500  0.78798400  0.69740800  1
  O  O29  1  0.90659700  0.41234300  0.98556300  1
  O  O30  1  0.92661300  0.09480800  0.05761700  1
  O  O31  1  0.02795000  0.34160100  0.32171000  1
loop_
_geom_bond_atom_site_label_1
_geom_bond_atom_site_label_2
_geom_bond_distance
_geom_bond_site_symmetry_2
Li0 O13 1.984395 1_555
Li0 O14 1.997535 1_554
Li0 O3 2.555808 1_554
Li1 O9 2.034467 1_556
Li1 O20 2.039578 1_555
Li1 O13 2.074044 1_566
Li1 O5 2.366294 1_565
Li1 O16 2.471436 1_555
Li2 O6 2.034467 1_555
Li2 O27 2.039578 1_455
Li2 O2 2.074044 1_545
Li2 O10 2.366294 1_545
Li2 O31 2.471436 1_555
Li3 O2 1.984395 1_555
Li3 O1 1.997535 1_555
Li3 O12 2.555808 1_555
Li4 O29 1.984395 1_555
Li4 O30 1.997535 1_556
Li4 O19 2.555808 1_556
Li5 O25 2.034467 1_554
Li5 O4 2.039578 1_655
Li5 O29 2.074044 1_554
Li5 O21 2.366294 1_555
Li5 O0 2.471436 1_555
Li6 O22 2.034467 1_555
Li6 O11 2.039578 1_555
Li6 O18 2.074044 1_555
Li6 O26 2.366294 1_555
Li6 O15 2.471436 1_555
Li7 O18 1.984395 1_555
Li7 O17 1.997535 1_555
Li7 O28 2.555808 1_555
O0 P6 1.539209 1_555
O0 V1 1.958243 1_655
O1 P1 1.508880 1_555
O2 P7 1.523673 1_555
O3 P0 1.548600 1_455
O3 V0 1.992167 1_555
O4 P1 1.558417 1_555
O4 V1 2.009943 1_555
O5 P7 1.544958 1_545
O5 V0 2.066656 1_555
O6 V0 1.626207 1_555
O7 P0 1.614767 1_455
O7 P2 1.628329 1_555
O8 P3 1.614767 1_555
O8 P1 1.628329 1_555
O9 V1 1.626207 1_555
O10 P4 1.544958 1_565
O10 V1 2.066656 1_555
O11 P2 1.558417 1_555
O11 V0 2.009943 1_555
O12 P3 1.548600 1_555
O12 V1 1.992167 1_555
O13 P4 1.523673 1_555
O14 P2 1.508880 1_555
O15 P5 1.539209 1_555
O15 V0 1.958243 1_555
O16 P2 1.539209 1_555
O16 V3 1.958243 1_555
O17 P5 1.508880 1_565
O18 P3 1.523673 1_555
O19 P4 1.548600 1_555
O19 V2 1.992167 1_555
O20 P5 1.558417 1_565
O20 V3 2.009943 1_555
O21 P3 1.544958 1_555
O21 V2 2.066656 1_555
O22 V2 1.626207 1_555
O23 P4 1.614767 1_565
O23 P6 1.628329 1_555
O24 P7 1.614767 1_645
O24 P5 1.628329 1_555
O25 V3 1.626207 1_555
O26 P0 1.544958 1_555
O26 V3 2.066656 1_555
O27 P6 1.558417 1_545
O27 V2 2.009943 1_555
O28 P7 1.548600 1_655
O28 V3 1.992167 1_555
O29 P0 1.523673 1_555
O30 P6 1.508880 1_545
O31 P1 1.539209 1_555
O31 V2 1.958243 1_455
