# generated using pymatgen
data_Li3Cr3FeO8
_symmetry_space_group_name_H-M   'P 1'
_cell_length_a   5.91216587
_cell_length_b   5.91217031
_cell_length_c   5.94421083
_cell_angle_alpha   59.70555621
_cell_angle_beta   59.70560148
_cell_angle_gamma   60.71218453
_symmetry_Int_Tables_number   1
_chemical_formula_structural   Li3Cr3FeO8
_chemical_formula_sum   'Li3 Cr3 Fe1 O8'
_cell_volume   147.02372390
_cell_formula_units_Z   1
loop_
 _symmetry_equiv_pos_site_id
 _symmetry_equiv_pos_as_xyz
  1  'x, y, z'
loop_
 _atom_site_type_symbol
 _atom_site_label
 _atom_site_symmetry_multiplicity
 _atom_site_fract_x
 _atom_site_fract_y
 _atom_site_fract_z
 _atom_site_occupancy
  Li  Li0  1  0.99999700  0.00004800  0.49994500  1
  Li  Li1  1  0.99999800  0.50003500  0.99999800  1
  Li  Li2  1  0.50000100  0.00003800  0.99997400  1
  Cr  Cr0  1  0.49994500  0.49989100  0.00024000  1
  Cr  Cr1  1  0.00012500  0.49997600  0.49984700  1
  Cr  Cr2  1  0.49998800  0.00018700  0.49987500  1
  Fe  Fe0  1  0.50008200  0.49989900  0.49990700  1
  O  O0  1  0.25508900  0.25508200  0.26340900  1
  O  O1  1  0.74490000  0.74489400  0.73666600  1
  O  O2  1  0.26953300  0.26947100  0.71512700  1
  O  O3  1  0.26724400  0.72038600  0.25842300  1
  O  O4  1  0.72034100  0.26729800  0.25839900  1
  O  O5  1  0.27957300  0.73271800  0.74161100  1
  O  O6  1  0.73266300  0.27961800  0.74164100  1
  O  O7  1  0.73051600  0.73045400  0.28493300  1
loop_
_geom_bond_atom_site_label_1
_geom_bond_atom_site_label_2
_geom_bond_distance
_geom_bond_site_symmetry_2
Li0 O0 2.114606 1_655
Li0 O1 2.115083 1_545
Li0 O3 2.200378 1_645
Li0 O4 2.200446 1_555
Li0 O5 2.200588 1_645
Li0 O6 2.200685 1_555
Li1 O5 2.124921 1_655
Li1 O4 2.125487 1_556
Li1 O7 2.178228 1_556
Li1 O2 2.178528 1_655
Li1 O1 2.186301 1_555
Li1 O0 2.186594 1_656
Li2 O6 2.124859 1_555
Li2 O3 2.125545 1_546
Li2 O2 2.178028 1_555
Li2 O7 2.178723 1_546
Li2 O1 2.186388 1_545
Li2 O0 2.186507 1_556
Cr0 O4 2.019637 1_555
Cr0 O3 2.020141 1_555
Cr0 O6 2.021061 1_554
Cr0 O5 2.021587 1_554
Cr0 O0 2.029432 1_555
Cr0 O1 2.030722 1_554
Cr1 O3 2.022834 1_555
Cr1 O6 2.024106 1_455
Cr1 O0 2.030769 1_555
Cr1 O1 2.032471 1_455
Cr1 O7 2.050024 1_455
Cr1 O2 2.050588 1_555
Cr2 O4 2.022571 1_555
Cr2 O5 2.024364 1_545
Cr2 O0 2.030882 1_555
Cr2 O1 2.032349 1_545
Cr2 O2 2.049924 1_555
Cr2 O7 2.050693 1_545
Fe0 O2 1.910412 1_555
Fe0 O7 1.910537 1_555
Fe0 O4 2.000335 1_555
Fe0 O3 2.001189 1_555
Fe0 O6 2.001230 1_555
Fe0 O5 2.002065 1_555
