# generated using pymatgen
data_Sm2Ge2O7
_symmetry_space_group_name_H-M   'P 1'
_cell_length_a   12.58647100
_cell_length_b   6.95693754
_cell_length_c   6.93726046
_cell_angle_alpha   91.82010996
_cell_angle_beta   91.58688206
_cell_angle_gamma   93.80639363
_symmetry_Int_Tables_number   1
_chemical_formula_structural   Sm2Ge2O7
_chemical_formula_sum   'Sm8 Ge8 O28'
_cell_volume   605.53304111
_cell_formula_units_Z   4
loop_
 _symmetry_equiv_pos_site_id
 _symmetry_equiv_pos_as_xyz
  1  'x, y, z'
loop_
 _atom_site_type_symbol
 _atom_site_label
 _atom_site_symmetry_multiplicity
 _atom_site_fract_x
 _atom_site_fract_y
 _atom_site_fract_z
 _atom_site_occupancy
  Sm  Sm0  1  0.32015900  0.11332700  0.83158000  1
  Sm  Sm1  1  0.05185400  0.11380900  0.32937200  1
  Sm  Sm2  1  0.63314300  0.37142100  0.76328400  1
  Sm  Sm3  1  0.11572200  0.35840200  0.08226300  1
  Sm  Sm4  1  0.88427800  0.64159800  0.91773700  1
  Sm  Sm5  1  0.36685700  0.62857900  0.23671600  1
  Sm  Sm6  1  0.94814600  0.88619100  0.67062800  1
  Sm  Sm7  1  0.67984100  0.88667300  0.16842000  1
  Ge  Ge0  1  0.83627800  0.11635200  0.85179400  1
  Ge  Ge1  1  0.51340900  0.16679300  0.32993300  1
  Ge  Ge2  1  0.14541000  0.38084500  0.61609200  1
  Ge  Ge3  1  0.61876800  0.40051700  0.26443300  1
  Ge  Ge4  1  0.38123200  0.59948300  0.73556700  1
  Ge  Ge5  1  0.85459000  0.61915500  0.38390800  1
  Ge  Ge6  1  0.48659100  0.83320700  0.67006700  1
  Ge  Ge7  1  0.16372200  0.88364800  0.14820600  1
  O  O0  1  0.24688500  0.01165100  0.09919500  1
  O  O1  1  0.00368200  0.08094900  0.66569100  1
  O  O2  1  0.70700700  0.08434500  0.28074600  1
  O  O3  1  0.34805200  0.12100900  0.49315600  1
  O  O4  1  0.63936800  0.19033500  0.78770400  1
  O  O5  1  0.00810500  0.18350000  0.01548100  1
  O  O6  1  0.38161900  0.21653900  0.13411900  1
  O  O7  1  0.60757600  0.30002200  0.43473800  1
  O  O8  1  0.29279300  0.31435000  0.78428900  1
  O  O9  1  0.06931300  0.30820800  0.40325500  1
  O  O10  1  0.77579900  0.37707300  0.07790300  1
  O  O11  1  0.96368000  0.42644100  0.77368100  1
  O  O12  1  0.40621500  0.44825200  0.16120800  1
  O  O13  1  0.29829500  0.49310600  0.55960800  1
  O  O14  1  0.70170500  0.50689400  0.44039200  1
  O  O15  1  0.59378500  0.55174800  0.83879200  1
  O  O16  1  0.03632000  0.57355900  0.22631900  1
  O  O17  1  0.22420100  0.62292700  0.92209700  1
  O  O18  1  0.93068700  0.69179200  0.59674500  1
  O  O19  1  0.70720700  0.68565000  0.21571100  1
  O  O20  1  0.39242400  0.69997800  0.56526200  1
  O  O21  1  0.61838100  0.78346100  0.86588100  1
  O  O22  1  0.99189500  0.81650000  0.98451900  1
  O  O23  1  0.36063200  0.80966500  0.21229600  1
  O  O24  1  0.65194800  0.87899100  0.50684400  1
  O  O25  1  0.29299300  0.91565500  0.71925400  1
  O  O26  1  0.99631800  0.91905100  0.33430900  1
  O  O27  1  0.75311500  0.98834900  0.90080500  1
loop_
_geom_bond_atom_site_label_1
_geom_bond_atom_site_label_2
_geom_bond_distance
_geom_bond_site_symmetry_2
Ge0 O27 1.385437 1_545
Ge0 O5 2.425093 1_656
Ge0 O10 2.529535 1_556
Ge1 O7 1.598773 1_555
Ge1 O6 2.167455 1_555
Ge1 O3 2.404302 1_555
Ge2 O9 1.778430 1_555
Ge2 O13 2.080390 1_555
Ge2 O8 2.246101 1_555
Ge3 O7 1.397524 1_555
Ge3 O14 1.702027 1_555
Ge3 O10 2.403855 1_555
Ge4 O20 1.397524 1_555
Ge4 O13 1.702027 1_555
Ge4 O17 2.403855 1_555
Ge5 O18 1.778430 1_555
Ge5 O14 2.080390 1_555
Ge5 O19 2.246101 1_555
Ge6 O20 1.598773 1_555
Ge6 O21 2.167455 1_555
Ge6 O24 2.404302 1_555
Ge7 O0 1.385437 1_565
Ge7 O22 2.425093 1_454
Ge7 O17 2.529535 1_554
O1 Sm6 1.484625 1_445
O2 Sm7 1.571627 1_545
O3 Sm0 2.385184 1_555
O4 Sm2 1.283694 1_555
O5 Sm3 1.800144 1_555
O5 Sm1 2.305661 1_555
O6 Sm0 2.293362 1_554
O8 Sm0 1.506296 1_555
O9 Sm1 1.431889 1_555
O9 Sm3 2.348650 1_555
O10 Sm4 2.523044 1_554
O10 Sm2 2.785199 1_554
O11 Sm4 2.096881 1_555
O12 Sm5 1.465863 1_555
O12 O6 1.625120 1_555
O15 Sm2 1.465863 1_555
O15 O21 1.625120 1_555
O16 Sm3 2.096881 1_555
O17 Sm3 2.523044 1_556
O17 Sm5 2.785199 1_556
O18 Sm6 1.431889 1_555
O18 Sm4 2.348650 1_555
O19 Sm7 1.506296 1_555
O21 Sm7 2.293362 1_556
O22 Sm4 1.800144 1_555
O22 Sm6 2.305661 1_555
O23 Sm5 1.283694 1_555
O24 Sm7 2.385184 1_555
O25 Sm0 1.571627 1_565
O26 Sm1 1.484625 1_665
