# generated using pymatgen
data_LiMn3O6
_symmetry_space_group_name_H-M   'P 1'
_cell_length_a   5.92704000
_cell_length_b   5.95297649
_cell_length_c   13.13828500
_cell_angle_alpha   102.94548643
_cell_angle_beta   102.14408061
_cell_angle_gamma   91.65173585
_symmetry_Int_Tables_number   1
_chemical_formula_structural   LiMn3O6
_chemical_formula_sum   'Li4 Mn12 O24'
_cell_volume   440.26718539
_cell_formula_units_Z   4
loop_
 _symmetry_equiv_pos_site_id
 _symmetry_equiv_pos_as_xyz
  1  'x, y, z'
loop_
 _atom_site_type_symbol
 _atom_site_label
 _atom_site_symmetry_multiplicity
 _atom_site_fract_x
 _atom_site_fract_y
 _atom_site_fract_z
 _atom_site_occupancy
  Li  Li0  1  0.61466400  0.88426600  0.24555800  1
  Li  Li1  1  0.71486400  0.11338600  0.41959300  1
  Li  Li2  1  0.37490600  0.12902900  0.75101500  1
  Li  Li3  1  0.96909000  0.86894800  0.91899400  1
  Mn  Mn0  1  0.49381900  0.00407900  0.00034200  1
  Mn  Mn1  1  0.49398900  0.50611800  0.99677600  1
  Mn  Mn2  1  0.83803200  0.49683900  0.16351600  1
  Mn  Mn3  1  0.33729100  0.48796600  0.16784700  1
  Mn  Mn4  1  0.16156400  0.00335100  0.33064400  1
  Mn  Mn5  1  0.16188300  0.51081400  0.32860500  1
  Mn  Mn6  1  0.49436200  0.50216300  0.50176600  1
  Mn  Mn7  1  0.99563800  0.51248400  0.49727100  1
  Mn  Mn8  1  0.84377200  0.99767200  0.66807900  1
  Mn  Mn9  1  0.84517800  0.49209600  0.67175500  1
  Mn  Mn10  1  0.16849900  0.50609800  0.83431900  1
  Mn  Mn11  1  0.66641600  0.50082100  0.83412200  1
  O  O0  1  0.74066000  0.71536900  0.01058800  1
  O  O1  1  0.28759500  0.73109900  0.01118500  1
  O  O2  1  0.57581800  0.29220100  0.15450400  1
  O  O3  1  0.58931800  0.71593700  0.16174900  1
  O  O4  1  0.08359900  0.26487600  0.17522400  1
  O  O5  1  0.09712200  0.69395200  0.17139000  1
  O  O6  1  0.39648900  0.24335600  0.32032800  1
  O  O7  1  0.94119600  0.26396700  0.32181300  1
  O  O8  1  0.36808400  0.76839800  0.32670800  1
  O  O9  1  0.92415800  0.76003000  0.34428200  1
  O  O10  1  0.23099600  0.31692400  0.48686800  1
  O  O11  1  0.23639000  0.74848400  0.48496900  1
  O  O12  1  0.75724900  0.26324900  0.51105400  1
  O  O13  1  0.75715300  0.70094900  0.51455600  1
  O  O14  1  0.05679400  0.27255400  0.65519200  1
  O  O15  1  0.63378100  0.23527000  0.67334700  1
  O  O16  1  0.63611300  0.72658100  0.67901000  1
  O  O17  1  0.06085000  0.73928000  0.67640700  1
  O  O18  1  0.93157700  0.28523300  0.82526900  1
  O  O19  1  0.92908100  0.74681600  0.82218400  1
  O  O20  1  0.40875300  0.72378400  0.84316200  1
  O  O21  1  0.40059200  0.27291500  0.84030800  1
  O  O22  1  0.25450100  0.30035200  0.98570700  1
  O  O23  1  0.69764900  0.27580000  0.98812500  1
loop_
_geom_bond_atom_site_label_1
_geom_bond_atom_site_label_2
_geom_bond_distance
_geom_bond_site_symmetry_2
Li0 O3 1.290924 1_555
Li0 O8 2.162273 1_555
Li0 O9 2.258593 1_555
Li0 O6 2.638130 1_565
Li1 O12 1.297190 1_555
Li1 O6 2.315418 1_555
Li1 O7 2.329203 1_555
Li2 O21 1.265014 1_555
Li2 O15 2.165062 1_555
Li2 O14 2.333671 1_555
Li3 O19 1.285082 1_555
Li3 O0 2.285645 1_556
Li3 O1 2.297137 1_656
Mn0 O23 2.046220 1_554
Mn0 O1 2.053668 1_545
Mn0 O2 2.293834 1_555
Mn0 O20 2.296192 1_544
Mn0 O0 2.297439 1_545
Mn0 O22 2.311068 1_554
Mn1 O22 1.808184 1_555
Mn1 O0 1.845060 1_556
Mn1 O1 1.845086 1_556
Mn1 O23 1.852884 1_555
Mn1 O21 2.158218 1_555
Mn1 O3 2.192790 1_556
Mn2 O5 1.876343 1_655
Mn2 O2 1.913698 1_555
Mn2 O3 1.996194 1_555
Mn2 O4 2.041014 1_655
Mn2 O23 2.346350 1_554
Mn3 O2 1.869569 1_555
Mn3 O5 1.906585 1_555
Mn3 O4 2.009457 1_555
Mn3 O3 2.015371 1_555
Mn3 O8 2.331842 1_555
Mn3 O22 2.343400 1_554
Mn3 O6 2.701410 1_555
Mn4 O8 1.884191 1_545
Mn4 O6 2.012452 1_555
Mn4 O9 2.053059 1_445
Mn4 O7 2.064004 1_455
Mn4 O10 2.397997 1_555
Mn4 O5 2.410943 1_545
Mn5 O7 1.913000 1_455
Mn5 O8 1.941003 1_555
Mn5 O9 2.081927 1_455
Mn5 O6 2.143375 1_555
Mn5 O4 2.159908 1_555
Mn5 O11 2.167293 1_555
Mn6 O10 1.834797 1_555
Mn6 O13 1.883921 1_555
Mn6 O12 2.142663 1_555
Mn6 O11 2.160788 1_555
Mn6 O16 2.373110 1_555
Mn6 O6 2.472602 1_555
Mn7 O13 1.849495 1_555
Mn7 O10 1.849991 1_655
Mn7 O11 2.029595 1_655
Mn7 O12 2.082717 1_555
Mn7 O17 2.382190 1_655
Mn7 O7 2.395479 1_555
Mn8 O15 1.910058 1_565
Mn8 O17 2.040520 1_655
Mn8 O16 2.050257 1_555
Mn8 O14 2.096537 1_665
Mn8 O13 2.316851 1_555
Mn8 O18 2.319219 1_565
Mn9 O14 1.846750 1_655
Mn9 O16 1.892837 1_555
Mn9 O17 1.903005 1_655
Mn9 O15 1.955182 1_555
Mn9 O19 2.157067 1_555
Mn9 O12 2.189211 1_555
Mn10 O18 1.862263 1_455
Mn10 O20 1.864703 1_555
Mn10 O21 1.984673 1_555
Mn10 O19 2.053521 1_455
Mn10 O1 2.356444 1_556
Mn10 O14 2.394829 1_555
Mn11 O20 2.056849 1_555
Mn11 O18 2.063229 1_555
Mn11 O21 2.075982 1_555
Mn11 O19 2.160324 1_555
Mn11 O15 2.304908 1_555
Mn11 O0 2.326318 1_556
Mn11 O16 2.660554 1_555
