# generated using pymatgen
data_Li2Ni3P9O28
_symmetry_space_group_name_H-M   'P 1'
_cell_length_a   7.00766900
_cell_length_b   9.01063437
_cell_length_c   9.08640166
_cell_angle_alpha   110.56498665
_cell_angle_beta   110.05363555
_cell_angle_gamma   99.35786024
_symmetry_Int_Tables_number   1
_chemical_formula_structural   Li2Ni3P9O28
_chemical_formula_sum   'Li2 Ni3 P9 O28'
_cell_volume   477.77026278
_cell_formula_units_Z   1
loop_
 _symmetry_equiv_pos_site_id
 _symmetry_equiv_pos_as_xyz
  1  'x, y, z'
loop_
 _atom_site_type_symbol
 _atom_site_label
 _atom_site_symmetry_multiplicity
 _atom_site_fract_x
 _atom_site_fract_y
 _atom_site_fract_z
 _atom_site_occupancy
  Li  Li0  1  0.69132600  0.96047300  0.21414000  1
  Li  Li1  1  0.30867400  0.03952700  0.78586000  1
  Ni  Ni0  1  0.50000000  0.50000000  0.00000000  1
  Ni  Ni1  1  0.24458000  0.98874700  0.24725500  1
  Ni  Ni2  1  0.75542000  0.01125300  0.75274500  1
  P  P0  1  0.30091900  0.75533300  0.44498900  1
  P  P1  1  0.79227100  0.76205100  0.93423000  1
  P  P2  1  0.68533700  0.69917400  0.41564200  1
  P  P3  1  0.17039100  0.68441800  0.90025800  1
  P  P4  1  0.00000000  0.50000000  0.50000000  1
  P  P5  1  0.31466300  0.30082600  0.58435800  1
  P  P6  1  0.82960900  0.31558200  0.09974200  1
  P  P7  1  0.69908100  0.24466700  0.55501100  1
  P  P8  1  0.20772900  0.23794900  0.06577000  1
  O  O0  1  0.41083600  0.90906700  0.62043600  1
  O  O1  1  0.91115600  0.90792400  0.11609200  1
  O  O2  1  0.30801400  0.86450600  0.02748700  1
  O  O3  1  0.81558800  0.87942200  0.54708500  1
  O  O4  1  0.72768100  0.81092000  0.78496900  1
  O  O5  1  0.22630600  0.78962900  0.28772800  1
  O  O6  1  0.64233300  0.69344000  0.23632900  1
  O  O7  1  0.12554000  0.66452800  0.70937100  1
  O  O8  1  0.58303300  0.64857400  0.90498000  1
  O  O9  1  0.10348300  0.62790800  0.42727400  1
  O  O10  1  0.46038800  0.64641400  0.42555000  1
  O  O11  1  0.93894500  0.64682300  0.90065100  1
  O  O12  1  0.23543400  0.54464200  0.94029000  1
  O  O13  1  0.77495000  0.56229600  0.45528100  1
  O  O14  1  0.76456600  0.45535800  0.05971000  1
  O  O15  1  0.22505000  0.43770400  0.54471900  1
  O  O16  1  0.53961200  0.35358600  0.57445000  1
  O  O17  1  0.06105500  0.35317700  0.09934900  1
  O  O18  1  0.41696700  0.35142600  0.09502000  1
  O  O19  1  0.89651700  0.37209200  0.57272600  1
  O  O20  1  0.35766700  0.30656000  0.76367100  1
  O  O21  1  0.87446000  0.33547200  0.29062900  1
  O  O22  1  0.27231900  0.18908000  0.21503100  1
  O  O23  1  0.77369400  0.21037100  0.71227200  1
  O  O24  1  0.69198600  0.13549400  0.97251300  1
  O  O25  1  0.18441200  0.12057800  0.45291500  1
  O  O26  1  0.58916400  0.09093300  0.37956400  1
  O  O27  1  0.08884400  0.09207600  0.88390800  1
loop_
_geom_bond_atom_site_label_1
_geom_bond_atom_site_label_2
_geom_bond_distance
_geom_bond_site_symmetry_2
Li0 O26 1.980925 1_565
Li0 O1 2.067148 1_555
Li0 O2 2.435050 1_555
Li0 O6 2.463262 1_555
Li1 O0 1.980925 1_545
Li1 O27 2.067148 1_555
Li1 O24 2.435050 1_555
Li1 O20 2.463262 1_555
Ni0 O12 1.897226 1_554
Ni0 O14 1.897226 1_555
Ni0 O8 1.944093 1_554
Ni0 O18 1.944093 1_555
Ni0 O6 1.995096 1_555
Ni0 O20 1.995096 1_554
Ni1 O22 1.917876 1_565
Ni1 O5 1.947267 1_555
Ni1 O25 2.055394 1_565
Ni1 O1 2.082607 1_455
Ni1 O26 2.152307 1_565
Ni1 O2 2.153726 1_555
Ni2 O4 1.917876 1_545
Ni2 O23 1.947267 1_555
Ni2 O3 2.055394 1_545
Ni2 O27 2.082607 1_655
Ni2 O0 2.152307 1_545
Ni2 O24 2.153726 1_555
O0 P0 1.520878 1_555
O1 P1 1.525198 1_554
O2 P3 1.519303 1_554
O3 P2 1.518205 1_555
O4 P1 1.517089 1_555
O5 P0 1.503706 1_555
O6 P2 1.532058 1_555
O7 P3 1.590203 1_555
O7 P4 1.742890 1_555
O8 P1 1.523271 1_555
O9 P0 1.568216 1_555
O9 P4 1.697879 1_555
O10 P2 1.613299 1_555
O10 P0 1.616622 1_555
O11 P1 1.602229 1_555
O11 P3 1.603579 1_655
O12 P3 1.523538 1_555
O13 P2 1.566557 1_555
O13 P4 1.725113 1_655
O14 P6 1.523538 1_555
O15 P5 1.566557 1_555
O15 P4 1.725113 1_555
O16 P5 1.613299 1_555
O16 P7 1.616622 1_555
O17 P8 1.602229 1_555
O17 P6 1.603579 1_455
O18 P8 1.523271 1_555
O19 P7 1.568216 1_555
O19 P4 1.697879 1_655
O20 P5 1.532058 1_555
O21 P6 1.590203 1_555
O21 P4 1.742890 1_655
O22 P8 1.517089 1_555
O23 P7 1.503706 1_555
O24 P6 1.519303 1_556
O25 P5 1.518205 1_555
O26 P7 1.520878 1_555
O27 P8 1.525198 1_556
