# generated using pymatgen
data_Cs2SnO3
_symmetry_space_group_name_H-M   'P 1'
_cell_length_a   6.86496016
_cell_length_b   6.86496016
_cell_length_c   5.83739726
_cell_angle_alpha   90.00000000
_cell_angle_beta   90.00000000
_cell_angle_gamma   110.76286869
_symmetry_Int_Tables_number   1
_chemical_formula_structural   Cs2SnO3
_chemical_formula_sum   'Cs4 Sn2 O6'
_cell_volume   257.23658376
_cell_formula_units_Z   2
loop_
 _symmetry_equiv_pos_site_id
 _symmetry_equiv_pos_as_xyz
  1  'x, y, z'
loop_
 _atom_site_type_symbol
 _atom_site_label
 _atom_site_symmetry_multiplicity
 _atom_site_fract_x
 _atom_site_fract_y
 _atom_site_fract_z
 _atom_site_occupancy
  Cs  Cs0  1  0.51605641  0.19263850  0.75000000  1
  Cs  Cs1  1  0.80736150  0.48394359  0.25000000  1
  Cs  Cs2  1  0.48394359  0.80736150  0.25000000  1
  Cs  Cs3  1  0.19263850  0.51605641  0.75000000  1
  Sn  Sn0  1  0.08307963  0.08307963  0.25000000  1
  Sn  Sn1  1  0.91692037  0.91692037  0.75000000  1
  O  O0  1  0.88198153  0.11801847  0.00000000  1
  O  O1  1  0.88198153  0.11801847  0.50000000  1
  O  O2  1  0.66669197  0.66669197  0.75000000  1
  O  O3  1  0.33330803  0.33330803  0.25000000  1
  O  O4  1  0.11801847  0.88198153  0.00000000  1
  O  O5  1  0.11801847  0.88198153  0.50000000  1
loop_
_geom_bond_atom_site_label_1
_geom_bond_atom_site_label_2
_geom_bond_distance
_geom_bond_site_symmetry_2
Cs0 O2 3.045354 1_555
Cs0 O1 3.100796 1_555
Cs0 O0 3.100796 1_556
Cs0 O5 3.164304 1_545
Cs0 O4 3.164304 1_546
Cs0 O3 3.447354 1_555
Cs0 O3 3.447354 1_556
Cs1 O3 3.045354 1_555
Cs1 O1 3.100796 1_555
Cs1 O0 3.100796 1_555
Cs1 O4 3.164304 1_655
Cs1 O5 3.164304 1_655
Cs1 O2 3.447354 1_554
Cs1 O2 3.447354 1_555
Cs2 O3 3.045354 1_555
Cs2 O4 3.100796 1_555
Cs2 O5 3.100796 1_555
Cs2 O0 3.164304 1_565
Cs2 O1 3.164304 1_565
Cs2 O2 3.447354 1_554
Cs2 O2 3.447354 1_555
Cs3 O2 3.045354 1_555
Cs3 O4 3.100796 1_556
Cs3 O5 3.100796 1_555
Cs3 O0 3.164304 1_456
Cs3 O1 3.164304 1_455
Cs3 O3 3.447354 1_555
Cs3 O3 3.447354 1_556
O0 Sn1 2.080352 1_544
O0 Sn0 2.080352 1_655
O1 Sn1 2.080352 1_545
O1 Sn0 2.080352 1_655
O2 Sn1 1.951809 1_555
O3 Sn0 1.951809 1_555
O4 Sn1 2.080352 1_454
O4 Sn0 2.080352 1_565
O5 Sn1 2.080352 1_455
O5 Sn0 2.080352 1_565
