# generated using pymatgen
data_KFe(SO6)2
_symmetry_space_group_name_H-M   'P 1'
_cell_length_a   10.94044600
_cell_length_b   9.30851000
_cell_length_c   10.06350040
_cell_angle_alpha   76.19161946
_cell_angle_beta   90.00000000
_cell_angle_gamma   90.00000000
_symmetry_Int_Tables_number   1
_chemical_formula_structural   KFe(SO6)2
_chemical_formula_sum   'K4 Fe4 S8 O48'
_cell_volume   995.24027279
_cell_formula_units_Z   4
loop_
 _symmetry_equiv_pos_site_id
 _symmetry_equiv_pos_as_xyz
  1  'x, y, z'
loop_
 _atom_site_type_symbol
 _atom_site_label
 _atom_site_symmetry_multiplicity
 _atom_site_fract_x
 _atom_site_fract_y
 _atom_site_fract_z
 _atom_site_occupancy
  K  K0  1  0.21586500  0.46957600  0.68371000  1
  K  K1  1  0.71586500  0.03042400  0.31629000  1
  K  K2  1  0.78413500  0.53042400  0.31629000  1
  K  K3  1  0.28413500  0.96957600  0.68371000  1
  Fe  Fe0  1  0.66549000  0.41493400  0.69810300  1
  Fe  Fe1  1  0.16549000  0.08506600  0.30189700  1
  Fe  Fe2  1  0.33451000  0.58506600  0.30189700  1
  Fe  Fe3  1  0.83451000  0.91493400  0.69810300  1
  S  S0  1  0.98992700  0.20162600  0.53249600  1
  S  S1  1  0.48992700  0.29837400  0.46750400  1
  S  S2  1  0.01007300  0.79837400  0.46750400  1
  S  S3  1  0.51007300  0.70162600  0.53249600  1
  S  S4  1  0.81403800  0.13159200  0.90559300  1
  S  S5  1  0.31403800  0.36840800  0.09440700  1
  S  S6  1  0.18596200  0.86840800  0.09440700  1
  S  S7  1  0.68596200  0.63159200  0.90559300  1
  O  O0  1  0.93697500  0.19530800  0.92552600  1
  O  O1  1  0.43697500  0.30469200  0.07447400  1
  O  O2  1  0.06302500  0.80469200  0.07447400  1
  O  O3  1  0.56302500  0.69530800  0.92552600  1
  O  O4  1  0.67024900  0.48447400  0.87080800  1
  O  O5  1  0.17024900  0.01552600  0.12919200  1
  O  O6  1  0.32975100  0.51552600  0.12919200  1
  O  O7  1  0.82975100  0.98447400  0.87080800  1
  O  O8  1  0.47376700  0.22986500  0.82933200  1
  O  O9  1  0.97376700  0.27013500  0.17066800  1
  O  O10  1  0.52623300  0.77013500  0.17066800  1
  O  O11  1  0.02623300  0.72986500  0.82933200  1
  O  O12  1  0.01291800  0.32027900  0.60563200  1
  O  O13  1  0.51291800  0.17972100  0.39436800  1
  O  O14  1  0.98708200  0.67972100  0.39436800  1
  O  O15  1  0.48708200  0.82027900  0.60563200  1
  O  O16  1  0.51202200  0.55416200  0.64154500  1
  O  O17  1  0.01202200  0.94583800  0.35845500  1
  O  O18  1  0.48797800  0.44583800  0.35845500  1
  O  O19  1  0.98797800  0.05416200  0.64154500  1
  O  O20  1  0.01970400  0.59401700  0.85218200  1
  O  O21  1  0.51970400  0.90598300  0.14781800  1
  O  O22  1  0.98029600  0.40598300  0.14781800  1
  O  O23  1  0.48029600  0.09401700  0.85218200  1
  O  O24  1  0.59453900  0.30607300  0.56034800  1
  O  O25  1  0.09453900  0.19392700  0.43965200  1
  O  O26  1  0.40546100  0.69392700  0.43965200  1
  O  O27  1  0.90546100  0.80607300  0.56034800  1
  O  O28  1  0.87307400  0.22343000  0.45897000  1
  O  O29  1  0.37307400  0.27657000  0.54103000  1
  O  O30  1  0.12692600  0.77657000  0.54103000  1
  O  O31  1  0.62692600  0.72343000  0.45897000  1
  O  O32  1  0.08062900  0.16503700  0.79467200  1
  O  O33  1  0.58062900  0.33496300  0.20532800  1
  O  O34  1  0.91937100  0.83496300  0.20532800  1
  O  O35  1  0.41937100  0.66503700  0.79467200  1
  O  O36  1  0.77916700  0.52178300  0.58565400  1
  O  O37  1  0.27916700  0.97821700  0.41434600  1
  O  O38  1  0.22083300  0.47821700  0.41434600  1
  O  O39  1  0.72083300  0.02178300  0.58565400  1
  O  O40  1  0.74501800  0.11525400  0.03223100  1
  O  O41  1  0.24501800  0.38474600  0.96776900  1
  O  O42  1  0.25498200  0.88474600  0.96776900  1
  O  O43  1  0.75498200  0.61525400  0.03223100  1
  O  O44  1  0.74930600  0.22958100  0.78567400  1
  O  O45  1  0.24930600  0.27041900  0.21432600  1
  O  O46  1  0.25069400  0.77041900  0.21432600  1
  O  O47  1  0.75069400  0.72958100  0.78567400  1
loop_
_geom_bond_atom_site_label_1
_geom_bond_atom_site_label_2
_geom_bond_distance
_geom_bond_site_symmetry_2
K0 O38 2.693229 1_555
K0 O41 2.796336 1_555
K0 O12 2.828402 1_555
K0 O30 3.035790 1_555
K0 O29 3.078806 1_555
K0 O20 3.124005 1_555
K0 O32 3.156111 1_555
K0 O35 3.237939 1_555
K0 O16 3.337469 1_555
K1 O39 2.693229 1_555
K1 O40 2.796336 1_555
K1 O13 2.828402 1_555
K1 O31 3.035790 1_545
K1 O28 3.078806 1_555
K1 O21 3.124005 1_545
K1 O33 3.156111 1_555
K1 O34 3.237939 1_545
K1 O17 3.337469 1_645
K2 O36 2.693229 1_555
K2 O43 2.796336 1_555
K2 O14 2.828402 1_555
K2 O28 3.035790 1_555
K2 O31 3.078806 1_555
K2 O22 3.124005 1_555
K2 O34 3.156111 1_555
K2 O33 3.237939 1_555
K2 O18 3.337469 1_555
K3 O37 2.693229 1_555
K3 O42 2.796336 1_555
K3 O15 2.828402 1_555
K3 O29 3.035790 1_565
K3 O30 3.078806 1_555
K3 O23 3.124005 1_565
K3 O35 3.156111 1_555
K3 O32 3.237939 1_565
K3 O19 3.337469 1_465
Fe0 O36 1.810881 1_555
Fe0 O44 1.966863 1_555
Fe0 O4 1.994861 1_555
Fe0 O24 2.054697 1_555
Fe0 O16 2.114364 1_555
Fe1 O37 1.810881 1_545
Fe1 O45 1.966863 1_555
Fe1 O5 1.994861 1_555
Fe1 O25 2.054697 1_555
Fe1 O17 2.114364 1_545
Fe2 O38 1.810881 1_555
Fe2 O46 1.966863 1_555
Fe2 O6 1.994861 1_555
Fe2 O26 2.054697 1_555
Fe2 O18 2.114364 1_555
Fe3 O39 1.810881 1_565
Fe3 O47 1.966863 1_555
Fe3 O7 1.994861 1_555
Fe3 O27 2.054697 1_555
Fe3 O19 2.114364 1_565
O0 S4 1.502593 1_555
O1 S5 1.502593 1_555
O2 S6 1.502593 1_555
O3 S7 1.502593 1_555
O4 S7 1.502106 1_555
O5 S6 1.502106 1_545
O6 S5 1.502106 1_555
O7 S4 1.502106 1_565
O10 O21 1.232170 1_555
O11 O20 1.232170 1_555
O12 S0 1.487579 1_455
O13 S1 1.487579 1_555
O14 S2 1.487579 1_655
O15 S3 1.487579 1_555
O16 S3 1.539455 1_555
O17 S2 1.539455 1_555
O18 S1 1.539455 1_555
O19 S0 1.539455 1_555
O22 O9 1.232170 1_555
O23 O8 1.232170 1_555
O24 S1 1.489955 1_555
O25 S0 1.489955 1_455
O26 S3 1.489955 1_555
O27 S2 1.489955 1_655
O28 S0 1.466755 1_555
O29 S1 1.466755 1_555
O30 S2 1.466755 1_555
O31 S3 1.466755 1_555
O40 S4 1.457721 1_554
O41 S5 1.457721 1_556
O42 S6 1.457721 1_556
O43 S7 1.457721 1_554
O44 S4 1.504810 1_555
O45 S5 1.504810 1_555
O46 S6 1.504810 1_555
O47 S7 1.504810 1_555
