# generated using pymatgen
data_PmPbAu2
_symmetry_space_group_name_H-M   'P 1'
_cell_length_a   5.08792307
_cell_length_b   5.08792089
_cell_length_c   5.08792453
_cell_angle_alpha   59.99986208
_cell_angle_beta   59.99999995
_cell_angle_gamma   59.99996676
_symmetry_Int_Tables_number   1
_chemical_formula_structural   PmPbAu2
_chemical_formula_sum   'Pm1 Pb1 Au2'
_cell_volume   93.13351346
_cell_formula_units_Z   1
loop_
 _symmetry_equiv_pos_site_id
 _symmetry_equiv_pos_as_xyz
  1  'x, y, z'
loop_
 _atom_site_type_symbol
 _atom_site_label
 _atom_site_symmetry_multiplicity
 _atom_site_fract_x
 _atom_site_fract_y
 _atom_site_fract_z
 _atom_site_occupancy
  Pm  Pm0  1  0.75000000  0.75000000  0.75000000  1
  Pb  Pb0  1  0.25000000  0.25000000  0.25000000  1
  Au  Au0  1  0.50000100  0.50000100  0.50000100  1
  Au  Au1  1  -0.00000000  0.00000000  -0.00000000  1
loop_
_geom_bond_atom_site_label_1
_geom_bond_atom_site_label_2
_geom_bond_distance
_geom_bond_site_symmetry_2
Au0 Pm0 3.115693 1_555
Au0 Pb0 3.115694 1_565
Au0 Pb0 3.115698 1_556
Au0 Pb0 3.115700 1_655
Au0 Pm0 3.115703 1_545
Au0 Pm0 3.115706 1_554
Au0 Pm0 3.115708 1_455
Au0 Pb0 3.115718 1_555
Au1 Pm0 3.115698 1_454
Au1 Pb0 3.115698 1_545
Au1 Pb0 3.115702 1_554
Au1 Pm0 3.115702 1_445
Au1 Pm0 3.115704 1_544
Au1 Pb0 3.115704 1_455
Au1 Pm0 3.115705 1_444
Au1 Pb0 3.115705 1_555
