# generated using pymatgen
data_Li3Cr3FeO8
_symmetry_space_group_name_H-M   'P 1'
_cell_length_a   5.95192989
_cell_length_b   5.95192989
_cell_length_c   5.95192998
_cell_angle_alpha   59.24795779
_cell_angle_beta   59.24795779
_cell_angle_gamma   59.24795857
_symmetry_Int_Tables_number   1
_chemical_formula_structural   Li3Cr3FeO8
_chemical_formula_sum   'Li3 Cr3 Fe1 O8'
_cell_volume   146.53952662
_cell_formula_units_Z   1
loop_
 _symmetry_equiv_pos_site_id
 _symmetry_equiv_pos_as_xyz
  1  'x, y, z'
loop_
 _atom_site_type_symbol
 _atom_site_label
 _atom_site_symmetry_multiplicity
 _atom_site_fract_x
 _atom_site_fract_y
 _atom_site_fract_z
 _atom_site_occupancy
  Li  Li0  1  0.50000000  0.00000000  0.00000000  1
  Li  Li1  1  0.00000000  0.00000000  0.50000000  1
  Li  Li2  1  0.00000000  0.50000000  0.00000000  1
  Cr  Cr0  1  0.00000000  0.50000000  0.50000000  1
  Cr  Cr1  1  0.50000000  0.50000000  0.00000000  1
  Cr  Cr2  1  0.50000000  0.00000000  0.50000000  1
  Fe  Fe0  1  0.00000000  0.00000000  0.00000000  1
  O  O0  1  0.74115100  0.74115100  0.74115100  1
  O  O1  1  0.75704900  0.22885200  0.22885200  1
  O  O2  1  0.22885200  0.22885200  0.75704900  1
  O  O3  1  0.25884900  0.25884900  0.25884900  1
  O  O4  1  0.22885200  0.75704900  0.22885200  1
  O  O5  1  0.24295100  0.77114800  0.77114800  1
  O  O6  1  0.77114800  0.77114800  0.24295100  1
  O  O7  1  0.77114800  0.24295100  0.77114800  1
loop_
_geom_bond_atom_site_label_1
_geom_bond_atom_site_label_2
_geom_bond_distance
_geom_bond_site_symmetry_2
Li0 O7 2.162199 1_554
Li0 O4 2.162199 1_545
Li0 O6 2.162199 1_545
Li0 O2 2.162199 1_554
Li0 O0 2.170692 1_544
Li0 O3 2.170692 1_555
Li1 O5 2.162199 1_545
Li1 O4 2.162199 1_545
Li1 O7 2.162199 1_455
Li1 O1 2.162199 1_455
Li1 O3 2.170692 1_555
Li1 O0 2.170692 1_445
Li2 O5 2.162199 1_554
Li2 O1 2.162199 1_455
Li2 O6 2.162199 1_455
Li2 O2 2.162199 1_554
Li2 O0 2.170692 1_454
Li2 O3 2.170692 1_555
Cr0 O0 2.019367 1_455
Cr0 O3 2.019367 1_555
Cr0 O4 2.039283 1_555
Cr0 O7 2.039283 1_455
Cr0 O2 2.039283 1_555
Cr0 O6 2.039283 1_455
Cr1 O3 2.019367 1_555
Cr1 O0 2.019367 1_554
Cr1 O5 2.039283 1_554
Cr1 O4 2.039283 1_555
Cr1 O7 2.039283 1_554
Cr1 O1 2.039283 1_555
Cr2 O0 2.019367 1_545
Cr2 O3 2.019367 1_555
Cr2 O1 2.039283 1_555
Cr2 O5 2.039283 1_545
Cr2 O2 2.039283 1_555
Cr2 O6 2.039283 1_545
Fe0 O2 1.915865 1_554
Fe0 O6 1.915865 1_445
Fe0 O4 1.915865 1_545
Fe0 O1 1.915865 1_455
Fe0 O5 1.915865 1_544
Fe0 O7 1.915865 1_454
