# generated using pymatgen
data_SmH3
_symmetry_space_group_name_H-M   'P 1'
_cell_length_a   3.76021042
_cell_length_b   3.76021042
_cell_length_c   3.76021042
_cell_angle_alpha   60.00000000
_cell_angle_beta   60.00000000
_cell_angle_gamma   60.00000000
_symmetry_Int_Tables_number   1
_chemical_formula_structural   SmH3
_chemical_formula_sum   'Sm1 H3'
_cell_volume   37.59425211
_cell_formula_units_Z   1
loop_
 _symmetry_equiv_pos_site_id
 _symmetry_equiv_pos_as_xyz
  1  'x, y, z'
loop_
 _atom_site_type_symbol
 _atom_site_label
 _atom_site_symmetry_multiplicity
 _atom_site_fract_x
 _atom_site_fract_y
 _atom_site_fract_z
 _atom_site_occupancy
  Sm  Sm0  1  0.75000000  0.75000000  0.75000000  1
  H  H0  1  0.00000000  0.00000000  0.00000000  1
  H  H1  1  0.50000100  0.50000100  0.50000100  1
  H  H2  1  0.24999900  0.24999900  0.24999900  1
loop_
_geom_bond_atom_site_label_1
_geom_bond_atom_site_label_2
_geom_bond_distance
_geom_bond_site_symmetry_2
H0 Sm0 2.302649 1_445
H0 Sm0 2.302649 1_444
H0 Sm0 2.302649 1_544
H0 Sm0 2.302649 1_454
H1 Sm0 2.302640 1_555
H1 Sm0 2.302652 1_455
H1 Sm0 2.302652 1_554
H1 Sm0 2.302652 1_545
H2 Sm0 2.658865 1_544
H2 Sm0 2.658865 1_445
H2 Sm0 2.658865 1_454
H2 Sm0 2.658876 1_545
H2 Sm0 2.658876 1_554
H2 Sm0 2.658876 1_455
