# generated using pymatgen
data_LiCeO2
_symmetry_space_group_name_H-M   'P 1'
_cell_length_a   6.07216300
_cell_length_b   5.81744600
_cell_length_c   5.88969497
_cell_angle_alpha   75.93801289
_cell_angle_beta   90.00000000
_cell_angle_gamma   90.00000000
_symmetry_Int_Tables_number   1
_chemical_formula_structural   LiCeO2
_chemical_formula_sum   'Li4 Ce4 O8'
_cell_volume   201.81585649
_cell_formula_units_Z   4
loop_
 _symmetry_equiv_pos_site_id
 _symmetry_equiv_pos_as_xyz
  1  'x, y, z'
loop_
 _atom_site_type_symbol
 _atom_site_label
 _atom_site_symmetry_multiplicity
 _atom_site_fract_x
 _atom_site_fract_y
 _atom_site_fract_z
 _atom_site_occupancy
  Li  Li0  1  0.86751300  0.81828800  0.66555000  1
  Li  Li1  1  0.36751300  0.68171200  0.33445000  1
  Li  Li2  1  0.13248700  0.18171200  0.33445000  1
  Li  Li3  1  0.63248700  0.31828800  0.66555000  1
  Ce  Ce0  1  0.92750000  0.69503100  0.20134600  1
  Ce  Ce1  1  0.57250000  0.19503100  0.20134600  1
  Ce  Ce2  1  0.07250000  0.30496900  0.79865400  1
  Ce  Ce3  1  0.42750000  0.80496900  0.79865400  1
  O  O0  1  0.75309800  0.01352400  0.91040600  1
  O  O1  1  0.86272600  0.30634500  0.43328700  1
  O  O2  1  0.25309800  0.48647600  0.08959400  1
  O  O3  1  0.24690200  0.98647600  0.08959400  1
  O  O4  1  0.13727400  0.69365500  0.56671300  1
  O  O5  1  0.36272600  0.19365500  0.56671300  1
  O  O6  1  0.63727400  0.80634500  0.43328700  1
  O  O7  1  0.74690200  0.51352400  0.91040600  1
loop_
_geom_bond_atom_site_label_1
_geom_bond_atom_site_label_2
_geom_bond_distance
_geom_bond_site_symmetry_2
Li0 O4 1.937216 1_655
Li0 O6 1.968975 1_555
Li0 O7 2.125317 1_555
Li0 O0 2.155999 1_565
Li1 O6 1.937216 1_555
Li1 O4 1.968975 1_555
Li1 O3 2.125317 1_555
Li1 O2 2.155999 1_555
Li2 O1 1.937216 1_455
Li2 O5 1.968975 1_555
Li2 O2 2.125317 1_555
Li2 O3 2.155999 1_545
Li3 O5 1.937216 1_555
Li3 O1 1.968975 1_555
Li3 O0 2.125317 1_555
Li3 O7 2.155999 1_555
Ce0 O1 2.373320 1_555
Ce0 O6 2.412682 1_555
Ce0 O0 2.438818 1_564
Ce0 O7 2.476490 1_554
Ce0 O2 2.490404 1_655
Ce0 O4 2.498977 1_655
Ce0 O3 2.554808 1_655
Ce1 O6 2.373320 1_545
Ce1 O1 2.412682 1_555
Ce1 O7 2.438818 1_554
Ce1 O0 2.476490 1_554
Ce1 O3 2.490404 1_545
Ce1 O5 2.498977 1_555
Ce1 O2 2.554808 1_555
Ce2 O4 2.373320 1_555
Ce2 O5 2.412682 1_555
Ce2 O3 2.438818 1_546
Ce2 O2 2.476490 1_556
Ce2 O7 2.490404 1_455
Ce2 O1 2.498977 1_455
Ce2 O0 2.554808 1_455
Ce3 O5 2.373320 1_565
Ce3 O4 2.412682 1_555
Ce3 O2 2.438818 1_556
Ce3 O3 2.476490 1_556
Ce3 O0 2.490404 1_565
Ce3 O6 2.498977 1_555
Ce3 O7 2.554808 1_555
