# generated using pymatgen
data_LiYHg2
_symmetry_space_group_name_H-M   'P 1'
_cell_length_a   4.99255665
_cell_length_b   4.99255665
_cell_length_c   4.99255667
_cell_angle_alpha   59.99917593
_cell_angle_beta   59.99917602
_cell_angle_gamma   59.99917541
_symmetry_Int_Tables_number   1
_chemical_formula_structural   LiYHg2
_chemical_formula_sum   'Li1 Y1 Hg2'
_cell_volume   87.99254759
_cell_formula_units_Z   1
loop_
 _symmetry_equiv_pos_site_id
 _symmetry_equiv_pos_as_xyz
  1  'x, y, z'
loop_
 _atom_site_type_symbol
 _atom_site_label
 _atom_site_symmetry_multiplicity
 _atom_site_fract_x
 _atom_site_fract_y
 _atom_site_fract_z
 _atom_site_occupancy
  Li  Li0  1  0.24999918  0.24999917  0.24999918  1
  Y  Y0  1  0.75000001  0.75000001  0.75000001  1
  Hg  Hg0  1  -0.00000018  -0.00000018  -0.00000019  1
  Hg  Hg1  1  0.50000099  0.50000100  0.50000100  1
loop_
_geom_bond_atom_site_label_1
_geom_bond_atom_site_label_2
_geom_bond_distance
_geom_bond_site_symmetry_2
Hg0 Y0 3.057273 1_454
Hg0 Y0 3.057273 1_544
Hg0 Y0 3.057273 1_445
Hg0 Li0 3.057275 1_554
Hg0 Li0 3.057275 1_455
Hg0 Li0 3.057275 1_545
Hg0 Li0 3.057315 1_555
Hg0 Y0 3.057321 1_444
Hg1 Li0 3.057265 1_565
Hg1 Li0 3.057265 1_556
Hg1 Li0 3.057265 1_655
Hg1 Y0 3.057276 1_455
Hg1 Y0 3.057276 1_545
Hg1 Y0 3.057276 1_554
Hg1 Y0 3.057311 1_555
Hg1 Li0 3.057345 1_555
