# generated using pymatgen
data_Sm3Y5O12
_symmetry_space_group_name_H-M   'P 1'
_cell_length_a   9.29534745
_cell_length_b   9.29535187
_cell_length_c   9.29535011
_cell_angle_alpha   109.47894733
_cell_angle_beta   109.49837838
_cell_angle_gamma   109.43634412
_symmetry_Int_Tables_number   1
_chemical_formula_structural   Sm3Y5O12
_chemical_formula_sum   'Sm6 Y10 O24'
_cell_volume   618.26573972
_cell_formula_units_Z   2
loop_
 _symmetry_equiv_pos_site_id
 _symmetry_equiv_pos_as_xyz
  1  'x, y, z'
loop_
 _atom_site_type_symbol
 _atom_site_label
 _atom_site_symmetry_multiplicity
 _atom_site_fract_x
 _atom_site_fract_y
 _atom_site_fract_z
 _atom_site_occupancy
  Sm  Sm0  1  0.00250420  0.00322536  0.00161278  1
  Sm  Sm1  1  0.50161268  0.00089096  0.49838716  1
  Sm  Sm2  1  0.49749567  0.49910843  0.00072094  1
  Sm  Sm3  1  0.99838772  0.49677428  0.49927852  1
  Sm  Sm4  1  0.46949942  0.71949930  0.75000053  1
  Sm  Sm5  1  0.03050140  0.78050106  0.24999987  1
  Y  Y0  1  0.96871391  0.21871391  0.74999990  1
  Y  Y1  1  0.71885222  0.75000011  0.46885259  1
  Y  Y2  1  0.78114776  0.25000009  0.03114795  1
  Y  Y3  1  0.25000016  0.03239954  0.78239964  1
  Y  Y4  1  0.24999985  0.52970192  0.27970162  1
  Y  Y5  1  0.53128627  0.28128579  0.24999950  1
  Y  Y6  1  0.75000045  0.46760063  0.71760091  1
  Y  Y7  1  0.74999987  0.97029824  0.22029830  1
  Y  Y8  1  0.28230988  0.25000024  0.53231016  1
  Y  Y9  1  0.21769015  0.75000002  0.96769000  1
  O  O0  1  0.45712968  0.48608435  0.23198133  1
  O  O1  1  0.04287056  0.27485167  0.02895499  1
  O  O2  1  0.02993101  0.04566343  0.27573521  1
  O  O3  1  0.73208457  0.24374674  0.77388019  1
  O  O4  1  0.23007159  0.45433600  0.48426667  1
  O  O5  1  0.53013371  0.25625315  0.98833780  1
  O  O6  1  0.75410339  0.22514815  0.26801884  1
  O  O7  1  0.74589660  0.01391548  0.47104487  1
  O  O8  1  0.98750816  0.52485156  0.25621704  1
  O  O9  1  0.51249232  0.76870923  0.53734345  1
  O  O10  1  0.22509304  0.26797619  0.75580890  1
  O  O11  1  0.27490703  0.03071616  0.04288301  1
  O  O12  1  0.73136384  0.97514763  0.96265764  1
  O  O13  1  0.01216704  0.46928378  0.74419094  1
  O  O14  1  0.76863450  0.73129111  0.24378309  1
  O  O15  1  0.48783278  0.23202380  0.45711656  1
  O  O16  1  0.26195922  0.99226817  0.53498842  1
  O  O17  1  0.23804081  0.77302921  0.73030867  1
  O  O18  1  0.47006895  0.74580396  0.01573228  1
  O  O19  1  0.76791567  0.54179578  0.51166229  1
  O  O20  1  0.26992823  0.75419577  0.22426467  1
  O  O21  1  0.96986655  0.95820419  0.72611951  1
  O  O22  1  0.95727933  0.72697070  0.96501111  1
  O  O23  1  0.54272078  0.50773192  0.76969115  1
loop_
_geom_bond_atom_site_label_1
_geom_bond_atom_site_label_2
_geom_bond_distance
_geom_bond_site_symmetry_2
O0 Y4 2.244501 1_555
O0 Y5 2.266287 1_555
O0 Sm2 2.336278 1_555
O0 Y1 2.373720 1_555
O1 Y4 2.244498 1_555
O1 Y0 2.266288 1_454
O1 Sm0 2.336276 1_555
O1 Y2 2.373720 1_455
O2 Y8 2.253349 1_555
O2 Y7 2.275522 1_445
O2 Sm0 2.354208 1_555
O2 Sm5 2.397644 1_545
O3 Y2 2.256487 1_556
O3 Y6 2.276982 1_555
O3 Sm1 2.346713 1_555
O3 Y0 2.360837 1_555
O4 Y8 2.253346 1_555
O4 Y4 2.275519 1_555
O4 Sm3 2.354206 1_455
O4 Sm4 2.397652 1_555
O5 Y2 2.256481 1_556
O5 Y3 2.276983 1_555
O5 Sm2 2.346714 1_556
O5 Y5 2.360834 1_556
O6 Y7 2.244496 1_545
O6 Y5 2.266284 1_555
O6 Sm3 2.336275 1_555
O6 Y2 2.373718 1_555
O7 Y7 2.244496 1_545
O7 Y0 2.266288 1_555
O7 Sm1 2.336273 1_555
O7 Y1 2.373720 1_545
O8 Y2 2.253536 1_555
O8 Sm5 2.298929 1_655
O8 Sm3 2.332651 1_555
O8 Y4 2.359599 1_655
O9 Y1 2.253531 1_555
O9 Sm4 2.298933 1_555
O9 Sm1 2.332648 1_565
O9 Y4 2.359604 1_555
O10 Y0 2.250172 1_455
O10 Y8 2.278600 1_555
O10 Sm2 2.340822 1_556
O10 Y3 2.360073 1_555
O11 Y5 2.250170 1_555
O11 Y9 2.278605 1_544
O11 Sm0 2.340823 1_555
O11 Y3 2.360069 1_554
O12 Y2 2.253543 1_566
O12 Sm4 2.298917 1_555
O12 Sm0 2.332668 1_666
O12 Y7 2.359586 1_556
O13 Y0 2.250171 1_455
O13 Y9 2.278605 1_555
O13 Sm3 2.340826 1_455
O13 Y6 2.360068 1_455
O14 Y1 2.253539 1_555
O14 Sm5 2.298932 1_655
O14 Sm2 2.332655 1_555
O14 Y7 2.359602 1_555
O15 Y5 2.250174 1_555
O15 Y8 2.278606 1_555
O15 Sm1 2.340829 1_555
O15 Y6 2.360076 1_555
O16 Y3 2.250907 1_565
O16 Sm5 2.328153 1_555
O16 Sm1 2.343065 1_565
O16 Y8 2.348861 1_565
O17 Y3 2.250906 1_565
O17 Sm4 2.328154 1_555
O17 Sm3 2.343065 1_455
O17 Y9 2.348860 1_555
O18 Y9 2.253348 1_554
O18 Y7 2.275522 1_555
O18 Sm2 2.354207 1_555
O18 Sm4 2.397639 1_554
O19 Y1 2.256485 1_555
O19 Y6 2.276985 1_555
O19 Sm3 2.346715 1_555
O19 Y5 2.360842 1_555
O20 Y9 2.253348 1_554
O20 Y4 2.275520 1_555
O20 Sm1 2.354208 1_565
O20 Sm5 2.397639 1_555
O21 Y1 2.256482 1_555
O21 Y3 2.276982 1_665
O21 Sm0 2.346714 1_666
O21 Y0 2.360839 1_565
O22 Y6 2.250902 1_555
O22 Sm5 2.328155 1_656
O22 Sm0 2.343063 1_666
O22 Y9 2.348861 1_655
O23 Y6 2.250904 1_555
O23 Sm4 2.328155 1_555
O23 Sm2 2.343064 1_556
O23 Y8 2.348860 1_555
