# generated using pymatgen
data_VZnRh2
_symmetry_space_group_name_H-M   'P 1'
_cell_length_a   4.23864206
_cell_length_b   4.23864206
_cell_length_c   4.23864206
_cell_angle_alpha   60.01798325
_cell_angle_beta   60.01798325
_cell_angle_gamma   60.01798325
_symmetry_Int_Tables_number   1
_chemical_formula_structural   VZnRh2
_chemical_formula_sum   'V1 Zn1 Rh2'
_cell_volume   53.86941378
_cell_formula_units_Z   1
loop_
 _symmetry_equiv_pos_site_id
 _symmetry_equiv_pos_as_xyz
  1  'x, y, z'
loop_
 _atom_site_type_symbol
 _atom_site_label
 _atom_site_symmetry_multiplicity
 _atom_site_fract_x
 _atom_site_fract_y
 _atom_site_fract_z
 _atom_site_occupancy
  V  V0  1  0.25000083  0.25000083  0.25000083  1
  Zn  Zn0  1  0.74999940  0.74999940  0.74999940  1
  Rh  Rh0  1  0.00009761  0.00009761  0.00009761  1
  Rh  Rh1  1  0.49990116  0.49990116  0.49990116  1
loop_
_geom_bond_atom_site_label_1
_geom_bond_atom_site_label_2
_geom_bond_distance
_geom_bond_site_symmetry_2
Rh0 V0 2.594270 1_555
Rh0 Zn0 2.595876 1_445
Rh0 Zn0 2.595876 1_454
Rh0 Zn0 2.595876 1_544
Rh0 Zn0 2.596294 1_444
Rh0 V0 2.596550 1_455
Rh0 V0 2.596550 1_545
Rh0 V0 2.596550 1_554
Rh1 V0 2.594240 1_555
Rh1 Zn0 2.595876 1_545
Rh1 Zn0 2.595876 1_554
Rh1 Zn0 2.595876 1_455
Rh1 Zn0 2.596295 1_555
Rh1 V0 2.596560 1_556
Rh1 V0 2.596560 1_655
Rh1 V0 2.596560 1_565
