# generated using pymatgen
data_Er2S2O
_symmetry_space_group_name_H-M   'P 1'
_cell_length_a   6.79738802
_cell_length_b   6.78756073
_cell_length_c   8.18333571
_cell_angle_alpha   80.45408257
_cell_angle_beta   90.00000000
_cell_angle_gamma   90.00000000
_symmetry_Int_Tables_number   1
_chemical_formula_structural   Er2S2O
_chemical_formula_sum   'Er8 S8 O4'
_cell_volume   372.33208666
_cell_formula_units_Z   4
loop_
 _symmetry_equiv_pos_site_id
 _symmetry_equiv_pos_as_xyz
  1  'x, y, z'
loop_
 _atom_site_type_symbol
 _atom_site_label
 _atom_site_symmetry_multiplicity
 _atom_site_fract_x
 _atom_site_fract_y
 _atom_site_fract_z
 _atom_site_occupancy
  Er  Er0  1  0.05303049  0.25012197  0.86085097  1
  Er  Er1  1  0.55303049  0.24987803  0.13914903  1
  Er  Er2  1  0.94696951  0.74987803  0.13914903  1
  Er  Er3  1  0.44696951  0.75012197  0.86085097  1
  Er  Er4  1  0.14525385  0.32356970  0.42489249  1
  Er  Er5  1  0.64525385  0.17643030  0.57510751  1
  Er  Er6  1  0.85474615  0.67643030  0.57510751  1
  Er  Er7  1  0.35474615  0.82356970  0.42489249  1
  S  S0  1  0.77724355  0.53077539  0.92429343  1
  S  S1  1  0.27724355  0.96922461  0.07570657  1
  S  S2  1  0.22275645  0.46922461  0.07570657  1
  S  S3  1  0.72275645  0.03077539  0.92429343  1
  S  S4  1  0.86778604  0.07889493  0.31910275  1
  S  S5  1  0.36778604  0.42110507  0.68089725  1
  S  S6  1  0.13221396  0.92110507  0.68089725  1
  S  S7  1  0.63221396  0.57889493  0.31910275  1
  O  O0  1  0.58712697  0.85019016  0.61644935  1
  O  O1  1  0.08712697  0.64980984  0.38355065  1
  O  O2  1  0.41287303  0.14980984  0.38355065  1
  O  O3  1  0.91287303  0.35019016  0.61644935  1
loop_
_geom_bond_atom_site_label_1
_geom_bond_atom_site_label_2
_geom_bond_distance
_geom_bond_site_symmetry_2
Er0 O3 2.217769 1_455
Er0 S3 2.696258 1_455
Er0 S2 2.738859 1_556
Er0 S5 2.743389 1_555
Er0 S0 2.782202 1_455
Er0 S1 2.817348 1_546
Er0 S6 2.921708 1_545
Er1 O2 2.217769 1_555
Er1 S2 2.696258 1_555
Er1 S3 2.738859 1_554
Er1 S4 2.743389 1_555
Er1 S1 2.782202 1_545
Er1 S0 2.817348 1_554
Er1 S7 2.921708 1_555
Er2 O1 2.217769 1_655
Er2 S1 2.696258 1_655
Er2 S0 2.738859 1_554
Er2 S7 2.743389 1_555
Er2 S2 2.782202 1_655
Er2 S3 2.817348 1_564
Er2 S4 2.921708 1_565
Er3 O0 2.217769 1_555
Er3 S0 2.696258 1_555
Er3 S1 2.738859 1_556
Er3 S6 2.743389 1_555
Er3 S3 2.782202 1_565
Er3 S2 2.817348 1_556
Er3 S5 2.921708 1_555
Er4 O1 2.219358 1_555
Er4 O2 2.224177 1_555
Er4 O3 2.253655 1_455
Er4 S4 2.746198 1_455
Er4 S5 2.752322 1_555
Er4 S2 2.912608 1_555
Er4 S6 3.156118 1_545
Er5 O0 2.219358 1_545
Er5 O3 2.224177 1_555
Er5 O2 2.253655 1_555
Er5 S5 2.746198 1_555
Er5 S4 2.752322 1_555
Er5 S3 2.912608 1_555
Er5 S7 3.156118 1_555
Er6 O3 2.219358 1_555
Er6 O0 2.224177 1_555
Er6 O1 2.253655 1_655
Er6 S6 2.746198 1_655
Er6 S7 2.752322 1_555
Er6 S0 2.912608 1_555
Er6 S4 3.156118 1_565
Er7 O2 2.219358 1_565
Er7 O1 2.224177 1_555
Er7 O0 2.253655 1_555
Er7 S7 2.746198 1_555
Er7 S6 2.752322 1_555
Er7 S1 2.912608 1_555
Er7 S5 3.156118 1_555
