# generated using pymatgen
data_Li8Fe7(PO4)8
_symmetry_space_group_name_H-M   'P 1'
_cell_length_a   9.53235400
_cell_length_b   10.37295700
_cell_length_c   12.13391300
_cell_angle_alpha   90.00000000
_cell_angle_beta   90.00000000
_cell_angle_gamma   90.00000000
_symmetry_Int_Tables_number   1
_chemical_formula_structural   Li8Fe7(PO4)8
_chemical_formula_sum   'Li16 Fe14 P16 O64'
_cell_volume   1199.78552091
_cell_formula_units_Z   2
loop_
 _symmetry_equiv_pos_site_id
 _symmetry_equiv_pos_as_xyz
  1  'x, y, z'
loop_
 _atom_site_type_symbol
 _atom_site_label
 _atom_site_symmetry_multiplicity
 _atom_site_fract_x
 _atom_site_fract_y
 _atom_site_fract_z
 _atom_site_occupancy
  Li  Li0  1  0.61958000  0.00820200  0.62238400  1
  Li  Li1  1  0.63047100  0.98304900  0.87976200  1
  Li  Li2  1  0.13139300  0.00823900  0.61946000  1
  Li  Li3  1  0.63047100  0.98304900  0.12023800  1
  Li  Li4  1  0.12620500  0.99903900  0.87759600  1
  Li  Li5  1  0.61958000  0.00820200  0.37761600  1
  Li  Li6  1  0.12620500  0.99903900  0.12240400  1
  Li  Li7  1  0.13139300  0.00823900  0.38054000  1
  Li  Li8  1  0.38042000  0.50820200  0.12238400  1
  Li  Li9  1  0.38042000  0.50820200  0.87761600  1
  Li  Li10  1  0.86860700  0.50823900  0.11946000  1
  Li  Li11  1  0.36952900  0.48304900  0.62023800  1
  Li  Li12  1  0.87379500  0.49903900  0.62240400  1
  Li  Li13  1  0.86860700  0.50823900  0.88054000  1
  Li  Li14  1  0.87379500  0.49903900  0.37759600  1
  Li  Li15  1  0.36952900  0.48304900  0.37976200  1
  Fe  Fe0  1  0.86739600  0.22362500  0.50000000  1
  Fe  Fe1  1  0.86330500  0.21737000  0.00000000  1
  Fe  Fe2  1  0.37228600  0.21259100  0.00000000  1
  Fe  Fe3  1  0.61325000  0.27776800  0.74643000  1
  Fe  Fe4  1  0.61325000  0.27776800  0.25357000  1
  Fe  Fe5  1  0.11355300  0.28244200  0.74786900  1
  Fe  Fe6  1  0.11355300  0.28244200  0.25213100  1
  Fe  Fe7  1  0.13260400  0.72362500  0.00000000  1
  Fe  Fe8  1  0.62771400  0.71259100  0.50000000  1
  Fe  Fe9  1  0.13669500  0.71737000  0.50000000  1
  Fe  Fe10  1  0.38675000  0.77776800  0.75357000  1
  Fe  Fe11  1  0.88644700  0.78244200  0.75213100  1
  Fe  Fe12  1  0.88644700  0.78244200  0.24786900  1
  Fe  Fe13  1  0.38675000  0.77776800  0.24643000  1
  P  P0  1  0.83226000  0.09518600  0.74939700  1
  P  P1  1  0.33217000  0.09542900  0.75107600  1
  P  P2  1  0.83226000  0.09518600  0.25060300  1
  P  P3  1  0.33217000  0.09542900  0.24892400  1
  P  P4  1  0.08657800  0.40329800  0.00000000  1
  P  P5  1  0.58422500  0.40189300  0.00000000  1
  P  P6  1  0.08444600  0.41444400  0.50000000  1
  P  P7  1  0.58515400  0.40015400  0.50000000  1
  P  P8  1  0.16774000  0.59518600  0.75060300  1
  P  P9  1  0.66783000  0.59542900  0.74892400  1
  P  P10  1  0.66783000  0.59542900  0.25107600  1
  P  P11  1  0.16774000  0.59518600  0.24939700  1
  P  P12  1  0.91342200  0.90329800  0.50000000  1
  P  P13  1  0.41577500  0.90189300  0.50000000  1
  P  P14  1  0.91555400  0.91444400  0.00000000  1
  P  P15  1  0.41484600  0.90015400  0.00000000  1
  O  O0  1  0.47434200  0.04403900  0.00000000  1
  O  O1  1  0.98824200  0.05042400  0.00000000  1
  O  O2  1  0.97176100  0.04322600  0.50000000  1
  O  O3  1  0.48216500  0.03497700  0.50000000  1
  O  O4  1  0.99270700  0.09802000  0.75059300  1
  O  O5  1  0.49384400  0.10251800  0.74846400  1
  O  O6  1  0.99270700  0.09802000  0.24940700  1
  O  O7  1  0.49384400  0.10251800  0.25153600  1
  O  O8  1  0.76499600  0.16766200  0.64790600  1
  O  O9  1  0.76387900  0.16937200  0.84898500  1
  O  O10  1  0.76499600  0.16766200  0.35209400  1
  O  O11  1  0.25503000  0.16749300  0.65896800  1
  O  O12  1  0.27284000  0.15794000  0.86268600  1
  O  O13  1  0.76387900  0.16937200  0.15101500  1
  O  O14  1  0.25503000  0.16749300  0.34103200  1
  O  O15  1  0.27284000  0.15794000  0.13731400  1
  O  O16  1  0.51708800  0.32077500  0.90052700  1
  O  O17  1  0.51708800  0.32077500  0.09947300  1
  O  O18  1  0.52344900  0.33847000  0.39458100  1
  O  O19  1  0.01963600  0.33497700  0.89753700  1
  O  O20  1  0.01963600  0.33497700  0.10246300  1
  O  O21  1  0.01779100  0.34108600  0.39876300  1
  O  O22  1  0.52344900  0.33847000  0.60541900  1
  O  O23  1  0.01779100  0.34108600  0.60123700  1
  O  O24  1  0.24899800  0.39355800  0.00000000  1
  O  O25  1  0.74496700  0.39924500  0.00000000  1
  O  O26  1  0.24224600  0.42540500  0.50000000  1
  O  O27  1  0.74725900  0.40164700  0.50000000  1
  O  O28  1  0.23094700  0.45735600  0.75240200  1
  O  O29  1  0.72203400  0.45318100  0.75123400  1
  O  O30  1  0.72203400  0.45318100  0.24876600  1
  O  O31  1  0.23094700  0.45735600  0.24759800  1
  O  O32  1  0.02823900  0.54322600  0.00000000  1
  O  O33  1  0.01175800  0.55042400  0.50000000  1
  O  O34  1  0.51783500  0.53497700  0.00000000  1
  O  O35  1  0.52565800  0.54403900  0.50000000  1
  O  O36  1  0.00729300  0.59802000  0.74940700  1
  O  O37  1  0.50615600  0.60251800  0.75153600  1
  O  O38  1  0.00729300  0.59802000  0.25059300  1
  O  O39  1  0.50615600  0.60251800  0.24846400  1
  O  O40  1  0.72716000  0.65794000  0.63731400  1
  O  O41  1  0.23612100  0.66937200  0.65101500  1
  O  O42  1  0.74497000  0.66749300  0.84103200  1
  O  O43  1  0.23500400  0.66766200  0.85209400  1
  O  O44  1  0.74497000  0.66749300  0.15896800  1
  O  O45  1  0.23500400  0.66766200  0.14790600  1
  O  O46  1  0.72716000  0.65794000  0.36268600  1
  O  O47  1  0.23612100  0.66937200  0.34898500  1
  O  O48  1  0.98036400  0.83497700  0.60246300  1
  O  O49  1  0.48291200  0.82077500  0.59947300  1
  O  O50  1  0.47655100  0.83847000  0.89458100  1
  O  O51  1  0.98220900  0.84108600  0.89876300  1
  O  O52  1  0.98220900  0.84108600  0.10123700  1
  O  O53  1  0.47655100  0.83847000  0.10541900  1
  O  O54  1  0.98036400  0.83497700  0.39753700  1
  O  O55  1  0.48291200  0.82077500  0.40052700  1
  O  O56  1  0.75100200  0.89355800  0.50000000  1
  O  O57  1  0.25503300  0.89924500  0.50000000  1
  O  O58  1  0.25274100  0.90164700  0.00000000  1
  O  O59  1  0.75775400  0.92540500  0.00000000  1
  O  O60  1  0.76905300  0.95735600  0.74759800  1
  O  O61  1  0.27796600  0.95318100  0.74876600  1
  O  O62  1  0.76905300  0.95735600  0.25240200  1
  O  O63  1  0.27796600  0.95318100  0.25123400  1
loop_
_geom_bond_atom_site_label_1
_geom_bond_atom_site_label_2
_geom_bond_distance
_geom_bond_site_symmetry_2
Li0 O3 1.999540 1_555
Li0 O60 2.148650 1_545
Li0 O5 2.175801 1_555
Li0 O8 2.180203 1_555
Li0 O56 2.277897 1_545
Li0 O49 2.356755 1_545
Li1 O59 1.989523 1_556
Li1 O60 2.094719 1_555
Li1 O50 2.105755 1_555
Li1 O0 2.178019 1_566
Li1 O9 2.343517 1_565
Li1 O5 2.402097 1_565
Li2 O11 2.085110 1_555
Li2 O2 2.132671 1_455
Li2 O61 2.177159 1_545
Li2 O57 2.183663 1_545
Li2 O4 2.268652 1_455
Li2 O48 2.311975 1_445
Li3 O59 1.989523 1_555
Li3 O62 2.094719 1_555
Li3 O53 2.105755 1_555
Li3 O0 2.178019 1_565
Li3 O13 2.343517 1_565
Li3 O7 2.402097 1_565
Li4 O1 2.054157 1_466
Li4 O51 2.152798 1_455
Li4 O58 2.163657 1_556
Li4 O12 2.168713 1_565
Li4 O61 2.182355 1_555
Li4 O4 2.246857 1_465
Li5 O3 1.999540 1_555
Li5 O62 2.148650 1_545
Li5 O7 2.175801 1_555
Li5 O10 2.180203 1_555
Li5 O56 2.277897 1_545
Li5 O55 2.356755 1_545
Li6 O1 2.054157 1_465
Li6 O52 2.152798 1_455
Li6 O58 2.163657 1_555
Li6 O15 2.168713 1_565
Li6 O63 2.182355 1_555
Li6 O6 2.246857 1_465
Li7 O14 2.085110 1_555
Li7 O2 2.132671 1_455
Li7 O63 2.177159 1_545
Li7 O57 2.183663 1_545
Li7 O6 2.268652 1_455
Li7 O54 2.311975 1_445
Li8 O34 1.999540 1_555
Li8 O31 2.148650 1_555
Li8 O39 2.175801 1_555
Li8 O45 2.180203 1_555
Li8 O24 2.277897 1_555
Li8 O17 2.356755 1_555
Li9 O34 1.999540 1_556
Li9 O28 2.148650 1_555
Li9 O37 2.175801 1_555
Li9 O43 2.180203 1_555
Li9 O24 2.277897 1_556
Li9 O16 2.356755 1_555
Li10 O44 2.085110 1_555
Li10 O32 2.132671 1_655
Li10 O30 2.177159 1_555
Li10 O25 2.183663 1_555
Li10 O38 2.268652 1_655
Li10 O20 2.311975 1_655
Li11 O26 1.989523 1_555
Li11 O28 2.094719 1_555
Li11 O22 2.105755 1_555
Li11 O35 2.178019 1_555
Li11 O41 2.343517 1_555
Li11 O37 2.402097 1_555
Li12 O33 2.054157 1_655
Li12 O23 2.152798 1_655
Li12 O27 2.163657 1_555
Li12 O40 2.168713 1_555
Li12 O29 2.182355 1_555
Li12 O36 2.246857 1_655
Li13 O42 2.085110 1_555
Li13 O32 2.132671 1_656
Li13 O29 2.177159 1_555
Li13 O25 2.183663 1_556
Li13 O36 2.268652 1_655
Li13 O19 2.311975 1_655
Li14 O33 2.054157 1_655
Li14 O21 2.152798 1_655
Li14 O27 2.163657 1_555
Li14 O46 2.168713 1_555
Li14 O30 2.182355 1_555
Li14 O38 2.246857 1_655
Li15 O26 1.989523 1_555
Li15 O31 2.094719 1_555
Li15 O18 2.105755 1_555
Li15 O35 2.178019 1_555
Li15 O47 2.343517 1_555
Li15 O39 2.402097 1_555
Fe0 O2 2.119285 1_555
Fe0 O8 2.123829 1_555
Fe0 O10 2.123829 1_555
Fe0 O27 2.172888 1_555
Fe0 O23 2.246947 1_655
Fe0 O21 2.246947 1_655
Fe1 O1 2.101717 1_555
Fe1 O9 2.122226 1_554
Fe1 O13 2.122226 1_555
Fe1 O25 2.198105 1_555
Fe1 O19 2.292308 1_654
Fe1 O20 2.292308 1_655
Fe2 O15 1.999015 1_555
Fe2 O12 1.999015 1_554
Fe2 O0 2.000812 1_555
Fe2 O17 2.149741 1_555
Fe2 O16 2.149741 1_554
Fe2 O24 2.214700 1_555
Fe3 O22 2.014151 1_555
Fe3 O29 2.095106 1_555
Fe3 O16 2.129651 1_555
Fe3 O5 2.144941 1_555
Fe3 O8 2.196811 1_555
Fe3 O9 2.207810 1_555
Fe4 O18 2.014151 1_555
Fe4 O30 2.095106 1_555
Fe4 O17 2.129651 1_555
Fe4 O7 2.144941 1_555
Fe4 O10 2.196811 1_555
Fe4 O13 2.207810 1_555
Fe5 O23 2.090201 1_555
Fe5 O19 2.096784 1_555
Fe5 O11 2.098595 1_555
Fe5 O28 2.132425 1_555
Fe5 O4 2.233304 1_455
Fe5 O12 2.431929 1_555
Fe6 O21 2.090201 1_555
Fe6 O20 2.096784 1_555
Fe6 O14 2.098595 1_555
Fe6 O31 2.132425 1_555
Fe6 O6 2.233304 1_455
Fe6 O15 2.431929 1_555
Fe7 O32 2.119285 1_555
Fe7 O43 2.123829 1_554
Fe7 O45 2.123829 1_555
Fe7 O58 2.172888 1_555
Fe7 O52 2.246947 1_455
Fe7 O51 2.246947 1_454
Fe8 O46 1.999015 1_555
Fe8 O40 1.999015 1_555
Fe8 O35 2.000812 1_555
Fe8 O55 2.149741 1_555
Fe8 O49 2.149741 1_555
Fe8 O56 2.214700 1_555
Fe9 O33 2.101717 1_555
Fe9 O47 2.122226 1_555
Fe9 O41 2.122226 1_555
Fe9 O57 2.198105 1_555
Fe9 O48 2.292308 1_455
Fe9 O54 2.292308 1_455
Fe10 O50 2.014151 1_555
Fe10 O61 2.095106 1_555
Fe10 O49 2.129651 1_555
Fe10 O37 2.144941 1_555
Fe10 O43 2.196811 1_555
Fe10 O41 2.207810 1_555
Fe11 O51 2.090201 1_555
Fe11 O48 2.096784 1_555
Fe11 O42 2.098595 1_555
Fe11 O60 2.132425 1_555
Fe11 O36 2.233304 1_655
Fe11 O40 2.431929 1_555
Fe12 O52 2.090201 1_555
Fe12 O54 2.096784 1_555
Fe12 O44 2.098595 1_555
Fe12 O62 2.132425 1_555
Fe12 O38 2.233304 1_655
Fe12 O46 2.431929 1_555
Fe13 O53 2.014151 1_555
Fe13 O63 2.095106 1_555
Fe13 O55 2.129651 1_555
Fe13 O39 2.144941 1_555
Fe13 O45 2.196811 1_555
Fe13 O47 2.207810 1_555
O0 P15 1.596634 1_545
O1 P14 1.571510 1_545
O2 P12 1.554353 1_545
O3 P13 1.518622 1_545
O4 P0 1.529789 1_555
O5 P1 1.543213 1_555
O6 P2 1.529789 1_555
O7 P3 1.543213 1_555
O8 P0 1.578878 1_555
O9 P0 1.573935 1_555
O10 P2 1.578878 1_555
O11 P1 1.532509 1_555
O12 P1 1.604476 1_555
O13 P2 1.573935 1_555
O14 P3 1.532509 1_555
O15 P3 1.604476 1_555
O16 P5 1.604499 1_556
O17 P5 1.604499 1_555
O18 P7 1.546475 1_555
O19 P4 1.566899 1_556
O20 P4 1.566899 1_555
O21 P6 1.578513 1_555
O22 P7 1.546475 1_555
O23 P6 1.578513 1_555
O24 P4 1.551538 1_555
O25 P5 1.532496 1_555
O26 P6 1.508496 1_555
O27 P7 1.545320 1_555
O28 P8 1.551629 1_555
O29 P9 1.563634 1_555
O30 P10 1.563634 1_555
O31 P11 1.551629 1_555
O32 P4 1.554353 1_555
O33 P6 1.571510 1_555
O34 P5 1.518622 1_555
O35 P7 1.596634 1_555
O36 P8 1.529789 1_555
O37 P9 1.543213 1_555
O38 P11 1.529789 1_555
O39 P10 1.543213 1_555
O40 P9 1.604476 1_555
O41 P8 1.573935 1_555
O42 P9 1.532509 1_555
O43 P8 1.578878 1_555
O44 P10 1.532509 1_555
O45 P11 1.578878 1_555
O46 P10 1.604476 1_555
O47 P11 1.573935 1_555
O48 P12 1.566899 1_555
O49 P13 1.604499 1_555
O50 P15 1.546475 1_556
O51 P14 1.578513 1_556
O52 P14 1.578513 1_555
O53 P15 1.546475 1_555
O54 P12 1.566899 1_555
O55 P13 1.604499 1_555
O56 P12 1.551538 1_555
O57 P13 1.532496 1_555
O58 P15 1.545320 1_555
O59 P14 1.508496 1_555
O60 P0 1.551629 1_565
O61 P1 1.563634 1_565
O62 P2 1.551629 1_565
O63 P3 1.563634 1_565
