# generated using pymatgen
data_Li4CrP2O9
_symmetry_space_group_name_H-M   'P 1'
_cell_length_a   14.74933800
_cell_length_b   14.40646000
_cell_length_c   6.73253000
_cell_angle_alpha   90.00000000
_cell_angle_beta   90.00000000
_cell_angle_gamma   90.00000000
_symmetry_Int_Tables_number   1
_chemical_formula_structural   Li4CrP2O9
_chemical_formula_sum   'Li32 Cr8 P16 O72'
_cell_volume   1430.56667247
_cell_formula_units_Z   8
loop_
 _symmetry_equiv_pos_site_id
 _symmetry_equiv_pos_as_xyz
  1  'x, y, z'
loop_
 _atom_site_type_symbol
 _atom_site_label
 _atom_site_symmetry_multiplicity
 _atom_site_fract_x
 _atom_site_fract_y
 _atom_site_fract_z
 _atom_site_occupancy
  Li  Li0  1  0.00384100  0.00257800  0.77841500  1
  Li  Li1  1  0.00384100  0.49742200  0.27841500  1
  Li  Li2  1  0.02489100  0.24724100  0.24507000  1
  Li  Li3  1  0.02489100  0.25275900  0.74507000  1
  Li  Li4  1  0.12307700  0.62873000  0.00115400  1
  Li  Li5  1  0.12307700  0.87127000  0.50115400  1
  Li  Li6  1  0.22779600  0.01905300  0.19798400  1
  Li  Li7  1  0.22779600  0.48094700  0.69798400  1
  Li  Li8  1  0.27220400  0.51905300  0.19798400  1
  Li  Li9  1  0.27220400  0.98094700  0.69798400  1
  Li  Li10  1  0.37692300  0.12873000  0.00115400  1
  Li  Li11  1  0.37692300  0.37127000  0.50115400  1
  Li  Li12  1  0.47510900  0.74724100  0.24507000  1
  Li  Li13  1  0.47510900  0.75275900  0.74507000  1
  Li  Li14  1  0.49615900  0.50257800  0.77841500  1
  Li  Li15  1  0.49615900  0.99742200  0.27841500  1
  Li  Li16  1  0.50384100  0.00257800  0.72158500  1
  Li  Li17  1  0.50384100  0.49742200  0.22158500  1
  Li  Li18  1  0.52489100  0.24724100  0.25493000  1
  Li  Li19  1  0.52489100  0.25275900  0.75493000  1
  Li  Li20  1  0.62307700  0.62873000  0.49884600  1
  Li  Li21  1  0.62307700  0.87127000  0.99884600  1
  Li  Li22  1  0.72779600  0.01905300  0.30201600  1
  Li  Li23  1  0.72779600  0.48094700  0.80201600  1
  Li  Li24  1  0.77220400  0.51905300  0.30201600  1
  Li  Li25  1  0.77220400  0.98094700  0.80201600  1
  Li  Li26  1  0.87692300  0.12873000  0.49884600  1
  Li  Li27  1  0.87692300  0.37127000  0.99884600  1
  Li  Li28  1  0.97510900  0.74724100  0.25493000  1
  Li  Li29  1  0.97510900  0.75275900  0.75493000  1
  Li  Li30  1  0.99615900  0.50257800  0.72158500  1
  Li  Li31  1  0.99615900  0.99742200  0.22158500  1
  Cr  Cr0  1  0.23319200  0.24638900  0.75243600  1
  Cr  Cr1  1  0.23319200  0.25361100  0.25243600  1
  Cr  Cr2  1  0.26680800  0.74638900  0.75243600  1
  Cr  Cr3  1  0.26680800  0.75361100  0.25243600  1
  Cr  Cr4  1  0.73319200  0.24638900  0.74756400  1
  Cr  Cr5  1  0.73319200  0.25361100  0.24756400  1
  Cr  Cr6  1  0.76680800  0.74638900  0.74756400  1
  Cr  Cr7  1  0.76680800  0.75361100  0.24756400  1
  P  P0  1  0.11300100  0.10408200  0.49760200  1
  P  P1  1  0.11300100  0.39591800  0.99760200  1
  P  P2  1  0.11756100  0.63822600  0.50171000  1
  P  P3  1  0.11756100  0.86177400  0.00171000  1
  P  P4  1  0.38243900  0.13822600  0.50171000  1
  P  P5  1  0.38243900  0.36177400  0.00171000  1
  P  P6  1  0.38699900  0.60408200  0.49760200  1
  P  P7  1  0.38699900  0.89591800  0.99760200  1
  P  P8  1  0.61300100  0.10408200  0.00239800  1
  P  P9  1  0.61300100  0.39591800  0.50239800  1
  P  P10  1  0.61756100  0.63822600  0.99829000  1
  P  P11  1  0.61756100  0.86177400  0.49829000  1
  P  P12  1  0.88243900  0.13822600  0.99829000  1
  P  P13  1  0.88243900  0.36177400  0.49829000  1
  P  P14  1  0.88699900  0.60408200  0.00239800  1
  P  P15  1  0.88699900  0.89591800  0.50239800  1
  O  O0  1  0.00997900  0.08863300  0.49790700  1
  O  O1  1  0.00997900  0.41136700  0.99790700  1
  O  O2  1  0.04371500  0.78620600  0.00566700  1
  O  O3  1  0.04371500  0.71379400  0.50566700  1
  O  O4  1  0.08277400  0.53748500  0.50546200  1
  O  O5  1  0.08277400  0.96251500  0.00546200  1
  O  O6  1  0.13222900  0.16550200  0.68598100  1
  O  O7  1  0.13222900  0.33449800  0.18598100  1
  O  O8  1  0.13527800  0.16005500  0.30430600  1
  O  O9  1  0.13527800  0.33994500  0.80430600  1
  O  O10  1  0.16987900  0.01395700  0.49875700  1
  O  O11  1  0.16987900  0.48604300  0.99875700  1
  O  O12  1  0.17563400  0.64881200  0.30617300  1
  O  O13  1  0.17563400  0.85118800  0.80617300  1
  O  O14  1  0.17816000  0.64597000  0.69374500  1
  O  O15  1  0.17816000  0.85403000  0.19374500  1
  O  O16  1  0.24718400  0.20579400  0.00203700  1
  O  O17  1  0.24718400  0.29420600  0.50203700  1
  O  O18  1  0.25281600  0.70579400  0.00203700  1
  O  O19  1  0.25281600  0.79420600  0.50203700  1
  O  O20  1  0.32184000  0.14597000  0.69374500  1
  O  O21  1  0.32184000  0.35403000  0.19374500  1
  O  O22  1  0.32436600  0.14881200  0.30617300  1
  O  O23  1  0.32436600  0.35118800  0.80617300  1
  O  O24  1  0.33012100  0.51395700  0.49875700  1
  O  O25  1  0.33012100  0.98604300  0.99875700  1
  O  O26  1  0.36472200  0.66005500  0.30430600  1
  O  O27  1  0.36472200  0.83994500  0.80430600  1
  O  O28  1  0.36777100  0.66550200  0.68598100  1
  O  O29  1  0.36777100  0.83449800  0.18598100  1
  O  O30  1  0.41722600  0.03748500  0.50546200  1
  O  O31  1  0.41722600  0.46251500  0.00546200  1
  O  O32  1  0.45628500  0.21379400  0.50566700  1
  O  O33  1  0.45628500  0.28620600  0.00566700  1
  O  O34  1  0.49002100  0.58863300  0.49790700  1
  O  O35  1  0.49002100  0.91136700  0.99790700  1
  O  O36  1  0.50997900  0.08863300  0.00209300  1
  O  O37  1  0.50997900  0.41136700  0.50209300  1
  O  O38  1  0.54371500  0.71379400  0.99433300  1
  O  O39  1  0.54371500  0.78620600  0.49433300  1
  O  O40  1  0.58277400  0.53748500  0.99453800  1
  O  O41  1  0.58277400  0.96251500  0.49453800  1
  O  O42  1  0.63222900  0.16550200  0.81401900  1
  O  O43  1  0.63222900  0.33449800  0.31401900  1
  O  O44  1  0.63527800  0.16005500  0.19569400  1
  O  O45  1  0.63527800  0.33994500  0.69569400  1
  O  O46  1  0.66987900  0.01395700  0.00124300  1
  O  O47  1  0.66987900  0.48604300  0.50124300  1
  O  O48  1  0.67563400  0.64881200  0.19382700  1
  O  O49  1  0.67563400  0.85118800  0.69382700  1
  O  O50  1  0.67816000  0.64597000  0.80625500  1
  O  O51  1  0.67816000  0.85403000  0.30625500  1
  O  O52  1  0.74718400  0.20579400  0.49796300  1
  O  O53  1  0.74718400  0.29420600  0.99796300  1
  O  O54  1  0.75281600  0.70579400  0.49796300  1
  O  O55  1  0.75281600  0.79420600  0.99796300  1
  O  O56  1  0.82184000  0.14597000  0.80625500  1
  O  O57  1  0.82184000  0.35403000  0.30625500  1
  O  O58  1  0.82436600  0.14881200  0.19382700  1
  O  O59  1  0.82436600  0.35118800  0.69382700  1
  O  O60  1  0.83012100  0.51395700  0.00124300  1
  O  O61  1  0.83012100  0.98604300  0.50124300  1
  O  O62  1  0.86472200  0.66005500  0.19569400  1
  O  O63  1  0.86472200  0.83994500  0.69569400  1
  O  O64  1  0.86777100  0.66550200  0.81401900  1
  O  O65  1  0.86777100  0.83449800  0.31401900  1
  O  O66  1  0.91722600  0.03748500  0.99453800  1
  O  O67  1  0.91722600  0.46251500  0.49453800  1
  O  O68  1  0.95628500  0.21379400  0.99433300  1
  O  O69  1  0.95628500  0.28620600  0.49433300  1
  O  O70  1  0.99002100  0.58863300  0.00209300  1
  O  O71  1  0.99002100  0.91136700  0.50209300  1
loop_
_geom_bond_atom_site_label_1
_geom_bond_atom_site_label_2
_geom_bond_distance
_geom_bond_site_symmetry_2
Li0 O66 2.000530 1_455
Li0 O5 2.006271 1_546
Li0 O0 2.260909 1_555
Li0 O71 2.286724 1_445
Li1 O67 2.000530 1_455
Li1 O4 2.006271 1_555
Li1 O1 2.260909 1_554
Li1 O70 2.286724 1_455
Li2 O68 2.026271 1_454
Li2 O69 2.038454 1_455
Li2 O7 2.060311 1_555
Li2 O8 2.094639 1_555
Li3 O69 2.026271 1_455
Li3 O68 2.038454 1_455
Li3 O6 2.060311 1_555
Li3 O9 2.094639 1_555
Li4 O70 2.045748 1_455
Li4 O11 2.168484 1_554
Li4 O18 2.212318 1_555
Li4 O12 2.213972 1_555
Li4 O14 2.237220 1_554
Li4 O2 2.553028 1_555
Li5 O71 2.045748 1_455
Li5 O10 2.168484 1_565
Li5 O19 2.212318 1_555
Li5 O13 2.213972 1_555
Li5 O15 2.237220 1_555
Li5 O3 2.553028 1_555
Li6 O25 2.074369 1_544
Li6 O10 2.198997 1_555
Li6 O22 2.460455 1_555
Li6 O15 2.487730 1_545
Li6 O8 2.549669 1_555
Li6 O5 2.630340 1_545
Li7 O24 2.074369 1_555
Li7 O11 2.198997 1_555
Li7 O23 2.460455 1_555
Li7 O14 2.487730 1_555
Li7 O9 2.549669 1_555
Li7 O4 2.630340 1_555
Li8 O11 2.074369 1_554
Li8 O24 2.198997 1_555
Li8 O12 2.460455 1_555
Li8 O21 2.487730 1_555
Li8 O26 2.549669 1_555
Li8 O31 2.630340 1_555
Li9 O10 2.074369 1_565
Li9 O25 2.198997 1_555
Li9 O13 2.460455 1_555
Li9 O20 2.487730 1_565
Li9 O27 2.549669 1_555
Li9 O30 2.630340 1_565
Li10 O36 2.045748 1_555
Li10 O25 2.168484 1_544
Li10 O16 2.212318 1_555
Li10 O22 2.213972 1_555
Li10 O20 2.237220 1_554
Li10 O33 2.553028 1_555
Li11 O37 2.045748 1_555
Li11 O24 2.168484 1_555
Li11 O17 2.212318 1_555
Li11 O23 2.213972 1_555
Li11 O21 2.237220 1_555
Li11 O32 2.553028 1_555
Li12 O38 2.026271 1_554
Li12 O39 2.038454 1_555
Li12 O29 2.060311 1_555
Li12 O26 2.094639 1_555
Li13 O39 2.026271 1_555
Li13 O38 2.038454 1_555
Li13 O28 2.060311 1_555
Li13 O27 2.094639 1_555
Li14 O40 2.000530 1_555
Li14 O31 2.006271 1_556
Li14 O34 2.260909 1_555
Li14 O37 2.286724 1_555
Li15 O41 2.000530 1_555
Li15 O30 2.006271 1_565
Li15 O35 2.260909 1_554
Li15 O36 2.286724 1_565
Li16 O30 2.000530 1_555
Li16 O41 2.006271 1_545
Li16 O36 2.260909 1_556
Li16 O35 2.286724 1_545
Li17 O31 2.000530 1_555
Li17 O40 2.006271 1_554
Li17 O37 2.260909 1_555
Li17 O34 2.286724 1_555
Li18 O32 2.026271 1_555
Li18 O33 2.038454 1_555
Li18 O43 2.060311 1_555
Li18 O44 2.094639 1_555
Li19 O33 2.026271 1_556
Li19 O32 2.038454 1_555
Li19 O42 2.060311 1_555
Li19 O45 2.094639 1_555
Li20 O34 2.045748 1_555
Li20 O47 2.168484 1_555
Li20 O54 2.212318 1_555
Li20 O48 2.213972 1_555
Li20 O50 2.237220 1_555
Li20 O39 2.553028 1_555
Li21 O35 2.045748 1_555
Li21 O46 2.168484 1_566
Li21 O55 2.212318 1_555
Li21 O49 2.213972 1_555
Li21 O51 2.237220 1_556
Li21 O38 2.553028 1_555
Li22 O61 2.074369 1_545
Li22 O46 2.198997 1_555
Li22 O58 2.460455 1_555
Li22 O51 2.487730 1_545
Li22 O44 2.549669 1_555
Li22 O41 2.630340 1_545
Li23 O60 2.074369 1_556
Li23 O47 2.198997 1_555
Li23 O59 2.460455 1_555
Li23 O50 2.487730 1_555
Li23 O45 2.549669 1_555
Li23 O40 2.630340 1_555
Li24 O47 2.074369 1_555
Li24 O60 2.198997 1_555
Li24 O48 2.460455 1_555
Li24 O57 2.487730 1_555
Li24 O62 2.549669 1_555
Li24 O67 2.630340 1_555
Li25 O46 2.074369 1_566
Li25 O61 2.198997 1_555
Li25 O49 2.460455 1_555
Li25 O56 2.487730 1_565
Li25 O63 2.549669 1_555
Li25 O66 2.630340 1_565
Li26 O0 2.045748 1_655
Li26 O61 2.168484 1_545
Li26 O52 2.212318 1_555
Li26 O58 2.213972 1_555
Li26 O56 2.237220 1_555
Li26 O69 2.553028 1_555
Li27 O1 2.045748 1_655
Li27 O60 2.168484 1_556
Li27 O53 2.212318 1_555
Li27 O59 2.213972 1_555
Li27 O57 2.237220 1_556
Li27 O68 2.553028 1_555
Li28 O3 2.026271 1_655
Li28 O2 2.038454 1_655
Li28 O65 2.060311 1_555
Li28 O62 2.094639 1_555
Li29 O2 2.026271 1_656
Li29 O3 2.038454 1_655
Li29 O64 2.060311 1_555
Li29 O63 2.094639 1_555
Li30 O4 2.000530 1_655
Li30 O67 2.006271 1_555
Li30 O70 2.260909 1_556
Li30 O1 2.286724 1_655
Li31 O5 2.000530 1_655
Li31 O66 2.006271 1_564
Li31 O71 2.260909 1_555
Li31 O0 2.286724 1_665
Cr0 O16 1.791233 1_556
Cr0 O17 1.832791 1_555
Cr0 O6 1.943095 1_555
Cr0 O20 1.989618 1_555
Cr0 O9 2.006032 1_555
Cr0 O23 2.053948 1_555
Cr1 O17 1.791233 1_555
Cr1 O16 1.832791 1_555
Cr1 O7 1.943095 1_555
Cr1 O21 1.989618 1_555
Cr1 O8 2.006032 1_555
Cr1 O22 2.053948 1_555
Cr2 O18 1.791233 1_556
Cr2 O19 1.832791 1_555
Cr2 O28 1.943095 1_555
Cr2 O14 1.989618 1_555
Cr2 O27 2.006032 1_555
Cr2 O13 2.053948 1_555
Cr3 O19 1.791233 1_555
Cr3 O18 1.832791 1_555
Cr3 O29 1.943095 1_555
Cr3 O15 1.989618 1_555
Cr3 O26 2.006032 1_555
Cr3 O12 2.053948 1_555
Cr4 O52 1.791233 1_555
Cr4 O53 1.832791 1_555
Cr4 O42 1.943095 1_555
Cr4 O56 1.989618 1_555
Cr4 O45 2.006032 1_555
Cr4 O59 2.053948 1_555
Cr5 O53 1.791233 1_554
Cr5 O52 1.832791 1_555
Cr5 O43 1.943095 1_555
Cr5 O57 1.989618 1_555
Cr5 O44 2.006032 1_555
Cr5 O58 2.053948 1_555
Cr6 O54 1.791233 1_555
Cr6 O55 1.832791 1_555
Cr6 O64 1.943095 1_555
Cr6 O50 1.989618 1_555
Cr6 O63 2.006032 1_555
Cr6 O49 2.053948 1_555
Cr7 O55 1.791233 1_554
Cr7 O54 1.832791 1_555
Cr7 O65 1.943095 1_555
Cr7 O51 1.989618 1_555
Cr7 O62 2.006032 1_555
Cr7 O48 2.053948 1_555
O0 P0 1.535721 1_555
O1 P1 1.535721 1_555
O2 P3 1.540201 1_555
O3 P2 1.540201 1_555
O4 P2 1.539554 1_555
O5 P3 1.539554 1_555
O6 P0 1.572222 1_555
O7 P1 1.572222 1_554
O8 P0 1.565811 1_555
O9 P1 1.565811 1_555
O10 P0 1.545843 1_555
O11 P1 1.545843 1_555
O12 P2 1.577967 1_555
O13 P3 1.577967 1_556
O14 P2 1.575709 1_555
O15 P3 1.575709 1_555
O20 P4 1.575709 1_555
O21 P5 1.575709 1_555
O22 P4 1.577967 1_555
O23 P5 1.577967 1_556
O24 P6 1.545843 1_555
O25 P7 1.545843 1_555
O26 P6 1.565811 1_555
O27 P7 1.565811 1_555
O28 P6 1.572222 1_555
O29 P7 1.572222 1_554
O30 P4 1.539554 1_555
O31 P5 1.539554 1_555
O32 P4 1.540201 1_555
O33 P5 1.540201 1_555
O34 P6 1.535721 1_555
O35 P7 1.535721 1_555
O36 P8 1.535721 1_555
O37 P9 1.535721 1_555
O38 P10 1.540201 1_555
O39 P11 1.540201 1_555
O40 P10 1.539554 1_555
O41 P11 1.539554 1_555
O42 P8 1.572222 1_556
O43 P9 1.572222 1_555
O44 P8 1.565811 1_555
O45 P9 1.565811 1_555
O46 P8 1.545843 1_555
O47 P9 1.545843 1_555
O48 P10 1.577967 1_554
O49 P11 1.577967 1_555
O50 P10 1.575709 1_555
O51 P11 1.575709 1_555
O56 P12 1.575709 1_555
O57 P13 1.575709 1_555
O58 P12 1.577967 1_554
O59 P13 1.577967 1_555
O60 P14 1.545843 1_555
O61 P15 1.545843 1_555
O62 P14 1.565811 1_555
O63 P15 1.565811 1_555
O64 P14 1.572222 1_556
O65 P15 1.572222 1_555
O66 P12 1.539554 1_555
O67 P13 1.539554 1_555
O68 P12 1.540201 1_555
O69 P13 1.540201 1_555
O70 P14 1.535721 1_555
O71 P15 1.535721 1_555
