# generated using pymatgen
data_LiCoP2O7
_symmetry_space_group_name_H-M   'P 1'
_cell_length_a   6.38736300
_cell_length_b   9.21250746
_cell_length_c   10.57256017
_cell_angle_alpha   114.72644145
_cell_angle_beta   86.06022013
_cell_angle_gamma   107.12389075
_symmetry_Int_Tables_number   1
_chemical_formula_structural   LiCoP2O7
_chemical_formula_sum   'Li4 Co4 P8 O28'
_cell_volume   538.97444916
_cell_formula_units_Z   4
loop_
 _symmetry_equiv_pos_site_id
 _symmetry_equiv_pos_as_xyz
  1  'x, y, z'
loop_
 _atom_site_type_symbol
 _atom_site_label
 _atom_site_symmetry_multiplicity
 _atom_site_fract_x
 _atom_site_fract_y
 _atom_site_fract_z
 _atom_site_occupancy
  Li  Li0  1  0.01342400  0.18015900  0.48722200  1
  Li  Li1  1  0.33948400  0.11477200  0.41335600  1
  Li  Li2  1  0.55933300  0.54396200  0.98295400  1
  Li  Li3  1  0.93470300  0.04038200  0.94501300  1
  Co  Co0  1  0.28750200  0.35422400  0.77101700  1
  Co  Co1  1  0.36854800  0.00568100  0.74455600  1
  Co  Co2  1  0.63466700  0.98877400  0.25259200  1
  Co  Co3  1  0.71773300  0.66849000  0.21373400  1
  P  P0  1  0.10877300  0.83959700  0.29702600  1
  P  P1  1  0.31108000  0.72893200  0.03843400  1
  P  P2  1  0.08194800  0.60579200  0.78808700  1
  P  P3  1  0.41184900  0.62441000  0.53222400  1
  P  P4  1  0.57745400  0.37854700  0.45993000  1
  P  P5  1  0.92696700  0.42151400  0.19697600  1
  P  P6  1  0.69667700  0.28807700  0.95155200  1
  P  P7  1  0.88558400  0.14283800  0.70161900  1
  O  O0  1  0.04745800  0.24275500  0.33876200  1
  O  O1  1  0.08395600  0.54345400  0.08664400  1
  O  O2  1  0.04933900  0.04454300  0.70663300  1
  O  O3  1  0.99797300  0.67694900  0.29008700  1
  O  O4  1  0.26067900  0.97487400  0.96445300  1
  O  O5  1  0.19444400  0.62036700  0.45867400  1
  O  O6  1  0.35643300  0.73336200  0.55831300  1
  O  O7  1  0.44712100  0.56823700  0.17812100  1
  O  O8  1  0.31160400  0.02284800  0.21282000  1
  O  O9  1  0.11564200  0.37461400  0.84216400  1
  O  O10  1  0.40996200  0.77144100  0.94786500  1
  O  O11  1  0.29833600  0.69618600  0.81616400  1
  O  O12  1  0.43087500  0.33085600  0.68005000  1
  O  O13  1  0.37260700  0.24028100  0.54052500  1
  O  O14  1  0.60196500  0.76750000  0.44327200  1
  O  O15  1  0.56671300  0.67164900  0.31176400  1
  O  O16  1  0.71859500  0.30804100  0.18183000  1
  O  O17  1  0.60892400  0.25157000  0.04200400  1
  O  O18  1  0.69048900  0.94196400  0.79208700  1
  O  O19  1  0.87319100  0.66212000  0.12936900  1
  O  O20  1  0.55356300  0.43282200  0.81717700  1
  O  O21  1  0.78008400  0.37309500  0.54242500  1
  O  O22  1  0.63304500  0.26669900  0.43518700  1
  O  O23  1  0.74718000  0.03975400  0.02615400  1
  O  O24  1  0.99218000  0.27061200  0.72981500  1
  O  O25  1  0.94568000  0.97617700  0.26662500  1
  O  O26  1  0.92322600  0.47377900  0.90048900  1
  O  O27  1  0.98594600  0.81973400  0.64247000  1
loop_
_geom_bond_atom_site_label_1
_geom_bond_atom_site_label_2
_geom_bond_distance
_geom_bond_site_symmetry_2
Li0 O0 1.865464 1_555
Li0 O25 2.269672 1_445
Li0 O21 2.508761 1_455
Li1 O13 1.335619 1_555
Li1 O8 1.924853 1_555
Li1 O22 1.942143 1_555
Li1 P0 2.356181 1_545
Li2 O20 1.614618 1_555
Li2 O7 2.080032 1_556
Li3 O23 1.424610 1_556
Li3 O18 2.038813 1_545
Li3 O4 2.375758 1_645
Co0 O12 1.277426 1_555
Co0 O9 1.302256 1_555
Co0 O20 1.656575 1_555
Co1 O2 2.260163 1_555
Co1 O18 2.434188 1_545
Co1 O6 2.439475 1_545
Co1 O4 2.485362 1_545
Co1 O27 2.534190 1_445
Co2 O25 2.042679 1_555
Co2 O8 2.268165 1_565
Co2 O22 2.482005 1_565
Co2 O23 2.640806 1_565
Co3 O19 1.286012 1_555
Co3 O15 1.363612 1_555
Co3 O7 1.685497 1_555
Co3 O3 1.981311 1_555
O1 P5 1.974927 1_455
O1 P1 2.109822 1_555
O2 P7 1.588206 1_455
O2 O27 1.811626 1_445
O3 P0 1.429035 1_655
O3 P5 2.051153 1_555
O5 O6 1.364570 1_555
O5 P3 1.621141 1_555
O6 P3 1.083059 1_555
O8 P0 2.265379 1_545
O10 P1 1.246641 1_556
O11 P2 1.365181 1_555
O14 O15 1.289351 1_555
O14 P3 2.008555 1_555
O15 O7 1.442638 1_555
O16 P5 1.399923 1_555
O17 P6 1.194239 1_554
O18 P7 2.418935 1_565
O19 P0 2.138388 1_655
O21 O22 1.342690 1_555
O21 P4 1.633528 1_555
O22 P4 1.110600 1_555
O24 P7 1.095640 1_555
O25 P0 1.981896 1_655
O26 P2 2.058295 1_655
O26 P6 2.125951 1_555
