# generated using pymatgen
data_Na2NiPCO7
_symmetry_space_group_name_H-M   'P 1'
_cell_length_a   8.92465347
_cell_length_b   5.16197126
_cell_length_c   13.17509371
_cell_angle_alpha   90.13247821
_cell_angle_beta   90.44361320
_cell_angle_gamma   88.60795980
_symmetry_Int_Tables_number   1
_chemical_formula_structural   Na2NiPCO7
_chemical_formula_sum   'Na8 Ni4 P4 C4 O28'
_cell_volume   606.76213255
_cell_formula_units_Z   4
loop_
 _symmetry_equiv_pos_site_id
 _symmetry_equiv_pos_as_xyz
  1  'x, y, z'
loop_
 _atom_site_type_symbol
 _atom_site_label
 _atom_site_symmetry_multiplicity
 _atom_site_fract_x
 _atom_site_fract_y
 _atom_site_fract_z
 _atom_site_occupancy
  Na  Na0  1  0.25667400  0.24643600  0.00630800  1
  Na  Na1  1  0.24976300  0.24205400  0.24425400  1
  Na  Na2  1  0.25350100  0.24553000  0.50490200  1
  Na  Na3  1  0.26326800  0.24999900  0.74308500  1
  Na  Na4  1  0.74840900  0.75704400  0.25718700  1
  Na  Na5  1  0.75495400  0.76143100  0.50000700  1
  Na  Na6  1  0.73367300  0.74907800  0.98707500  1
  Na  Na7  1  0.90798700  0.21186000  0.85769000  1
  Ni  Ni0  1  0.35294900  0.78312800  0.37528300  1
  Ni  Ni1  1  0.34699200  0.78189700  0.87475900  1
  Ni  Ni2  1  0.64941300  0.21696700  0.12547700  1
  Ni  Ni3  1  0.65233900  0.21485500  0.62834100  1
  P  P0  1  0.42260800  0.71446400  0.12507800  1
  P  P1  1  0.42393100  0.71840000  0.62525700  1
  P  P2  1  0.57844100  0.28563000  0.37650500  1
  P  P3  1  0.57655800  0.28673400  0.87505600  1
  C  C0  1  0.07501500  0.71929600  0.37456400  1
  C  C1  1  0.07111900  0.71388500  0.87781200  1
  C  C2  1  0.93318200  0.28217400  0.62329400  1
  C  C3  1  0.92563700  0.28430500  0.12517800  1
  O  O0  1  0.06525100  0.30985700  0.12273100  1
  O  O1  1  0.07242900  0.31949300  0.62534200  1
  O  O2  1  0.13780100  0.94436100  0.37362400  1
  O  O3  1  0.12671300  0.94601400  0.87542300  1
  O  O4  1  0.17014000  0.52405100  0.37409900  1
  O  O5  1  0.16982200  0.52175700  0.87402500  1
  O  O6  1  0.32586000  0.79161800  0.53094600  1
  O  O7  1  0.32505900  0.79001400  0.03164200  1
  O  O8  1  0.32980300  0.79063500  0.21970500  1
  O  O9  1  0.32790500  0.79722800  0.71843900  1
  O  O10  1  0.42456600  0.15275900  0.37541900  1
  O  O11  1  0.42669400  0.14347700  0.87646700  1
  O  O12  1  0.45289300  0.41244800  0.12477100  1
  O  O13  1  0.45352400  0.41742800  0.62539100  1
  O  O14  1  0.54886300  0.58769400  0.37636100  1
  O  O15  1  0.53844600  0.58227400  0.88084300  1
  O  O16  1  0.57496200  0.85590800  0.62278100  1
  O  O17  1  0.57570200  0.84889900  0.12417200  1
  O  O18  1  0.67231300  0.22342600  0.78087300  1
  O  O19  1  0.67988100  0.21153900  0.96709900  1
  O  O20  1  0.67247200  0.20871100  0.28239000  1
  O  O21  1  0.67253600  0.20886000  0.47121600  1
  O  O22  1  0.82949300  0.47815400  0.12589000  1
  O  O23  1  0.83365600  0.46966400  0.62340200  1
  O  O24  1  0.87588300  0.05419300  0.62539400  1
  O  O25  1  0.86333300  0.05820700  0.12536600  1
  O  O26  1  0.93214200  0.67624700  0.88309500  1
  O  O27  1  0.93511900  0.69398400  0.37606400  1
loop_
_geom_bond_atom_site_label_1
_geom_bond_atom_site_label_2
_geom_bond_distance
_geom_bond_site_symmetry_2
Na0 O0 2.321558 1_555
Na0 O11 2.346926 1_554
Na0 O5 2.365403 1_554
Na0 O7 2.442421 1_545
Na0 O12 2.502278 1_555
Na0 O3 2.601507 1_544
Na0 O7 2.903941 1_555
Na1 O0 2.308971 1_555
Na1 O4 2.346811 1_555
Na1 O10 2.357882 1_555
Na1 O8 2.442127 1_545
Na1 O2 2.525494 1_545
Na1 O12 2.581916 1_555
Na2 O1 2.298288 1_555
Na2 O10 2.339108 1_555
Na2 O4 2.351608 1_555
Na2 O6 2.439583 1_545
Na2 O2 2.551962 1_545
Na2 O13 2.553555 1_555
Na2 O6 2.925997 1_555
Na3 O1 2.316875 1_555
Na3 O11 2.333157 1_555
Na3 O5 2.365112 1_555
Na3 O9 2.415482 1_545
Na3 O13 2.480478 1_555
Na3 O3 2.669458 1_545
Na3 O9 2.916146 1_555
Na4 O27 2.295912 1_555
Na4 O22 2.354954 1_555
Na4 O17 2.366071 1_555
Na4 O20 2.434859 1_565
Na4 O14 2.554664 1_555
Na4 O25 2.569551 1_565
Na5 O23 2.312345 1_555
Na5 O27 2.320341 1_555
Na5 O16 2.330938 1_555
Na5 O21 2.436481 1_565
Na5 O24 2.493540 1_565
Na5 O14 2.620701 1_555
Na6 O26 2.271193 1_555
Na6 O17 2.348526 1_556
Na6 O15 2.401165 1_555
Na6 O19 2.437987 1_565
Na6 O22 2.441616 1_556
Na6 O25 2.692331 1_566
Na6 O19 2.838736 1_555
Na7 O18 2.326580 1_555
Na7 O3 2.369081 1_645
Na7 O26 2.434158 1_555
Na7 O19 2.503560 1_555
Na7 O26 2.788715 1_545
Na7 O5 2.870210 1_655
Ni0 O14 1.997257 1_555
Ni0 O10 2.026895 1_565
Ni0 O8 2.058905 1_555
Ni0 O6 2.067173 1_555
Ni0 O2 2.074084 1_555
Ni0 O4 2.134497 1_555
Ni1 O15 1.974965 1_555
Ni1 O11 2.013512 1_565
Ni1 O9 2.066788 1_555
Ni1 O7 2.077935 1_556
Ni1 O5 2.099118 1_555
Ni1 O3 2.121768 1_555
Ni2 O12 2.002043 1_555
Ni2 O17 2.025658 1_545
Ni2 O25 2.059254 1_555
Ni2 O20 2.076408 1_555
Ni2 O19 2.106408 1_554
Ni2 O22 2.122693 1_555
Ni3 O16 1.994027 1_545
Ni3 O18 2.016617 1_555
Ni3 O13 2.037709 1_555
Ni3 O21 2.079453 1_555
Ni3 O23 2.111463 1_555
Ni3 O24 2.142474 1_555
C0 O27 1.258806 1_455
C0 O4 1.301924 1_555
C0 O2 1.302180 1_555
C1 O26 1.262576 1_455
C1 O3 1.308530 1_555
C1 O5 1.311506 1_555
C2 O1 1.262263 1_655
C2 O24 1.294917 1_555
C2 O23 1.297644 1_555
C3 O0 1.256820 1_655
C3 O22 1.302303 1_555
C3 O25 1.304953 1_555
O6 P1 1.556314 1_555
O7 P0 1.547442 1_555
O8 P0 1.546872 1_555
O9 P1 1.550568 1_555
O10 P2 1.549821 1_555
O11 P3 1.544201 1_555
O12 P0 1.575772 1_555
O13 P1 1.569562 1_555
O14 P2 1.575100 1_555
O15 P3 1.556765 1_555
O16 P1 1.539157 1_555
O17 P0 1.547537 1_555
O18 P3 1.542023 1_555
O19 P3 1.561738 1_555
O20 P2 1.548251 1_555
O21 P2 1.545707 1_555
