# generated using pymatgen
data_Co3(OF2)2
_symmetry_space_group_name_H-M   'P 1'
_cell_length_a   4.65210500
_cell_length_b   5.60830953
_cell_length_c   7.81991584
_cell_angle_alpha   92.53352513
_cell_angle_beta   90.00180975
_cell_angle_gamma   90.15122081
_symmetry_Int_Tables_number   1
_chemical_formula_structural   Co3(OF2)2
_chemical_formula_sum   'Co6 O4 F8'
_cell_volume   203.82494164
_cell_formula_units_Z   2
loop_
 _symmetry_equiv_pos_site_id
 _symmetry_equiv_pos_as_xyz
  1  'x, y, z'
loop_
 _atom_site_type_symbol
 _atom_site_label
 _atom_site_symmetry_multiplicity
 _atom_site_fract_x
 _atom_site_fract_y
 _atom_site_fract_z
 _atom_site_occupancy
  Co  Co0  1  0.54651000  0.32424000  0.82354300  1
  Co  Co1  1  0.50000000  0.00000000  0.50000000  1
  Co  Co2  1  0.45349000  0.67576000  0.17645700  1
  Co  Co3  1  0.99627600  0.15992100  0.15112000  1
  Co  Co4  1  0.00000000  0.50000000  0.50000000  1
  Co  Co5  1  0.00372400  0.84007900  0.84888000  1
  O  O0  1  0.20088200  0.86297200  0.07263200  1
  O  O1  1  0.28927200  0.69580400  0.40818900  1
  O  O2  1  0.71072800  0.30419600  0.59181100  1
  O  O3  1  0.79911800  0.13702800  0.92736800  1
  F  F0  1  0.19650800  0.20132600  0.38944000  1
  F  F1  1  0.21327900  0.52794500  0.74109100  1
  F  F2  1  0.30907900  0.36907800  0.06226000  1
  F  F3  1  0.30419900  0.04258500  0.73061600  1
  F  F4  1  0.69580100  0.95741500  0.26938400  1
  F  F5  1  0.69092100  0.63092200  0.93774000  1
  F  F6  1  0.80349200  0.79867400  0.61056000  1
  F  F7  1  0.78672100  0.47205500  0.25890900  1
loop_
_geom_bond_atom_site_label_1
_geom_bond_atom_site_label_2
_geom_bond_distance
_geom_bond_site_symmetry_2
Co0 O3 1.795656 1_555
Co0 O2 1.965349 1_555
Co0 F5 2.016225 1_555
Co0 F3 2.045239 1_555
Co0 F1 2.049025 1_555
Co0 F2 2.174423 1_556
Co1 F4 2.025382 1_545
Co1 F3 2.025382 1_555
Co1 F6 2.027407 1_545
Co1 F0 2.027407 1_555
Co1 O2 2.066365 1_555
Co1 O1 2.066365 1_545
Co2 O0 1.795656 1_555
Co2 O1 1.965349 1_555
Co2 F2 2.016225 1_555
Co2 F4 2.045239 1_555
Co2 F7 2.049025 1_555
Co2 F5 2.174423 1_554
Co3 O3 1.974508 1_554
Co3 O0 1.993555 1_645
Co3 F2 2.009857 1_655
Co3 F4 2.045398 1_545
Co3 F0 2.086928 1_655
Co3 F7 2.145664 1_555
Co4 O1 1.895859 1_555
Co4 O2 1.895859 1_455
Co4 F0 2.066183 1_555
Co4 F6 2.066183 1_455
Co4 F7 2.129872 1_455
Co4 F1 2.129872 1_555
Co5 O0 1.974508 1_556
Co5 O3 1.993555 1_465
Co5 F5 2.009857 1_455
Co5 F3 2.045398 1_565
Co5 F6 2.086928 1_455
Co5 F1 2.145664 1_555
