# generated using pymatgen
data_EuCdHg2
_symmetry_space_group_name_H-M   'P 1'
_cell_length_a   5.21240286
_cell_length_b   5.21240286
_cell_length_c   5.21240286
_cell_angle_alpha   60.00000000
_cell_angle_beta   60.00000000
_cell_angle_gamma   60.00000000
_symmetry_Int_Tables_number   1
_chemical_formula_structural   EuCdHg2
_chemical_formula_sum   'Eu1 Cd1 Hg2'
_cell_volume   100.13800292
_cell_formula_units_Z   1
loop_
 _symmetry_equiv_pos_site_id
 _symmetry_equiv_pos_as_xyz
  1  'x, y, z'
loop_
 _atom_site_type_symbol
 _atom_site_label
 _atom_site_symmetry_multiplicity
 _atom_site_fract_x
 _atom_site_fract_y
 _atom_site_fract_z
 _atom_site_occupancy
  Eu  Eu0  1  0.75000000  0.75000000  0.75000000  1
  Cd  Cd0  1  0.25000100  0.25000100  0.25000100  1
  Hg  Hg0  1  0.00000000  0.00000000  0.00000000  1
  Hg  Hg1  1  0.50000000  0.50000000  0.50000000  1
loop_
_geom_bond_atom_site_label_1
_geom_bond_atom_site_label_2
_geom_bond_distance
_geom_bond_site_symmetry_2
Eu0 Hg0 3.191932 1_566
Eu0 Hg0 3.191932 1_656
Eu0 Hg0 3.191932 1_665
Eu0 Hg0 3.191932 1_666
Eu0 Hg1 3.191932 1_655
Eu0 Hg1 3.191932 1_565
Eu0 Hg1 3.191932 1_556
Eu0 Hg1 3.191932 1_555
Cd0 Hg1 3.191919 1_555
Cd0 Hg0 3.191928 1_556
Cd0 Hg0 3.191928 1_565
Cd0 Hg0 3.191928 1_655
Cd0 Hg1 3.191936 1_545
Cd0 Hg1 3.191936 1_455
Cd0 Hg1 3.191936 1_554
Cd0 Hg0 3.191945 1_555
