# generated using pymatgen
data_K2Mn3P4(HO3)4
_symmetry_space_group_name_H-M   'P 1'
_cell_length_a   5.50696804
_cell_length_b   24.19464249
_cell_length_c   5.50768808
_cell_angle_alpha   90.00107671
_cell_angle_beta   120.00877648
_cell_angle_gamma   83.46401825
_symmetry_Int_Tables_number   1
_chemical_formula_structural   K2Mn3P4(HO3)4
_chemical_formula_sum   'K4 Mn6 P8 H8 O24'
_cell_volume   629.95447624
_cell_formula_units_Z   2
loop_
 _symmetry_equiv_pos_site_id
 _symmetry_equiv_pos_as_xyz
  1  'x, y, z'
loop_
 _atom_site_type_symbol
 _atom_site_label
 _atom_site_symmetry_multiplicity
 _atom_site_fract_x
 _atom_site_fract_y
 _atom_site_fract_z
 _atom_site_occupancy
  K  K0  1  0.18657100  0.21954900  0.59329800  1
  K  K1  1  0.18663500  0.71948600  0.09332900  1
  K  K2  1  0.81337000  0.28056400  0.90668500  1
  K  K3  1  0.81342800  0.78048700  0.40668700  1
  Mn  Mn0  1  0.91558700  0.62653300  0.45780500  1
  Mn  Mn1  1  0.08453400  0.37349500  0.54223300  1
  Mn  Mn2  1  0.08417900  0.87332500  0.04205500  1
  Mn  Mn3  1  0.99994000  0.99964100  0.99993400  1
  Mn  Mn4  1  0.00000700  0.49997600  0.50012200  1
  Mn  Mn5  1  0.91539800  0.12687500  0.95774500  1
  P  P0  1  0.30390800  0.04410400  0.65196300  1
  P  P1  1  0.30397500  0.54403900  0.15201700  1
  P  P2  1  0.69605500  0.45597100  0.84802500  1
  P  P3  1  0.69606400  0.95582500  0.34801000  1
  P  P4  1  0.55859300  0.16197100  0.27933200  1
  P  P5  1  0.55872900  0.66179300  0.77938500  1
  P  P6  1  0.44131700  0.33819600  0.22063200  1
  P  P7  1  0.44129700  0.83814200  0.72062000  1
  H  H0  1  0.65699000  0.01457200  0.32849200  1
  H  H1  1  0.65688400  0.51471500  0.82843200  1
  H  H2  1  0.34316100  0.48528300  0.17157400  1
  H  H3  1  0.34313200  0.98534200  0.67156300  1
  H  H4  1  0.59768300  0.10326000  0.29886800  1
  H  H5  1  0.59783100  0.60305800  0.79894000  1
  H  H6  1  0.40221600  0.39693700  0.20107500  1
  H  H7  1  0.40223800  0.89691300  0.70108700  1
  O  O0  1  0.13596200  0.06133900  0.80273200  1
  O  O1  1  0.13603500  0.56131500  0.30265600  1
  O  O2  1  0.13592900  0.06133600  0.33320300  1
  O  O3  1  0.13601200  0.56131200  0.83335500  1
  O  O4  1  0.60555900  0.06133800  0.80278600  1
  O  O5  1  0.60542300  0.56131200  0.30271200  1
  O  O6  1  0.39463300  0.43868900  0.69729900  1
  O  O7  1  0.39479700  0.93852000  0.19738900  1
  O  O8  1  0.86400700  0.43868800  0.16661800  1
  O  O9  1  0.86408700  0.93852000  0.66660700  1
  O  O10  1  0.86396700  0.43868500  0.69737100  1
  O  O11  1  0.86406000  0.93851800  0.19746000  1
  O  O12  1  0.70034800  0.18103000  0.58186800  1
  O  O13  1  0.70052800  0.68085600  0.08201900  1
  O  O14  1  0.70030500  0.18102800  0.11853200  1
  O  O15  1  0.70048500  0.68085300  0.61855100  1
  O  O16  1  0.23691700  0.18103900  0.11850000  1
  O  O17  1  0.23694300  0.68085900  0.61851200  1
  O  O18  1  0.76307200  0.31915600  0.38149500  1
  O  O19  1  0.76310800  0.81906200  0.88151200  1
  O  O20  1  0.29950300  0.31917200  0.38145500  1
  O  O21  1  0.29958700  0.81908000  0.88150900  1
  O  O22  1  0.29945900  0.31916700  0.91796000  1
  O  O23  1  0.29954600  0.81907600  0.41798700  1
loop_
_geom_bond_atom_site_label_1
_geom_bond_atom_site_label_2
_geom_bond_distance
_geom_bond_site_symmetry_2
K0 O14 2.905345 1_455
K0 O12 2.905443 1_455
K0 O16 2.906846 1_555
K0 O16 2.907146 1_556
K0 O14 2.907661 1_556
K0 O12 2.907855 1_555
K0 O18 2.933785 1_455
K0 O22 2.936341 1_555
K0 O20 2.936844 1_555
K1 O15 2.906204 1_454
K1 O13 2.906273 1_455
K1 O17 2.907716 1_554
K1 O17 2.908017 1_555
K1 O15 2.908477 1_555
K1 O13 2.908688 1_555
K1 O19 2.933314 1_454
K1 O23 2.935758 1_555
K1 O21 2.936243 1_554
K2 O20 2.905880 1_656
K2 O22 2.905985 1_655
K2 O18 2.907389 1_556
K2 O18 2.907815 1_555
K2 O20 2.908413 1_555
K2 O22 2.908547 1_555
K2 O16 2.932468 1_656
K2 O12 2.935054 1_555
K2 O14 2.935446 1_556
K3 O21 2.905923 1_655
K3 O23 2.905931 1_655
K3 O19 2.907401 1_555
K3 O19 2.907556 1_554
K3 O21 2.908129 1_554
K3 O23 2.908394 1_555
K3 O17 2.934201 1_655
K3 O13 2.936623 1_555
K3 O15 2.937158 1_555
Mn0 O17 2.146066 1_655
Mn0 O13 2.146546 1_555
Mn0 O15 2.146817 1_555
Mn0 O5 2.300294 1_555
Mn0 O3 2.300977 1_655
Mn0 O1 2.301162 1_655
Mn1 O22 2.146389 1_555
Mn1 O20 2.146474 1_555
Mn1 O18 2.146690 1_455
Mn1 O6 2.299564 1_555
Mn1 O8 2.300780 1_455
Mn1 O10 2.301116 1_455
Mn2 O19 2.143909 1_454
Mn2 O23 2.146117 1_555
Mn2 O21 2.146223 1_554
Mn2 O9 2.300227 1_454
Mn2 O11 2.300529 1_455
Mn2 O7 2.301398 1_555
Mn3 O9 2.234920 1_555
Mn3 O11 2.235341 1_556
Mn3 O7 2.236171 1_656
Mn3 O4 2.242169 1_565
Mn3 O0 2.244444 1_665
Mn3 O2 2.244453 1_666
Mn4 O6 2.237555 1_555
Mn4 O10 2.237766 1_455
Mn4 O5 2.238059 1_455
Mn4 O3 2.238225 1_555
Mn4 O8 2.238386 1_455
Mn4 O1 2.239317 1_555
Mn5 O16 2.143917 1_656
Mn5 O12 2.144661 1_555
Mn5 O14 2.144722 1_556
Mn5 O4 2.305057 1_555
Mn5 O2 2.305478 1_656
Mn5 O0 2.305913 1_655
H0 P3 1.409032 1_545
H1 P2 1.408960 1_555
H2 P1 1.409248 1_555
H3 P0 1.409391 1_565
H4 P4 1.408168 1_555
H5 P5 1.408744 1_555
H6 P6 1.408888 1_555
H7 P7 1.409607 1_555
O0 P0 1.548940 1_555
O1 P1 1.548515 1_555
O2 P0 1.549042 1_555
O3 P1 1.548791 1_556
O4 P0 1.549457 1_555
O5 P1 1.548894 1_555
O6 P2 1.548860 1_555
O7 P3 1.548366 1_555
O8 P2 1.548523 1_554
O9 P3 1.548649 1_555
O10 P2 1.548504 1_555
O11 P3 1.548515 1_555
O12 P4 1.542504 1_555
O13 P5 1.542985 1_554
O14 P4 1.542479 1_555
O15 P5 1.542860 1_555
O16 P4 1.542705 1_555
O17 P5 1.543197 1_555
O18 P6 1.542951 1_555
O19 P7 1.543368 1_555
O20 P6 1.542764 1_555
O21 P7 1.542919 1_555
O22 P6 1.542865 1_556
O23 P7 1.543007 1_555
