# generated using pymatgen
data_MoH18C5(NO)4
_symmetry_space_group_name_H-M   'P 1'
_cell_length_a   11.02646600
_cell_length_b   11.02646600
_cell_length_c   11.02646600
_cell_angle_alpha   90.00000000
_cell_angle_beta   90.00000000
_cell_angle_gamma   90.00000000
_symmetry_Int_Tables_number   1
_chemical_formula_structural   MoH18C5(NO)4
_chemical_formula_sum   'Mo4 H72 C20 N16 O16'
_cell_volume   1340.63029136
_cell_formula_units_Z   4
loop_
 _symmetry_equiv_pos_site_id
 _symmetry_equiv_pos_as_xyz
  1  'x, y, z'
loop_
 _atom_site_type_symbol
 _atom_site_label
 _atom_site_symmetry_multiplicity
 _atom_site_fract_x
 _atom_site_fract_y
 _atom_site_fract_z
 _atom_site_occupancy
  Mo  Mo0  1  0.49872200  0.99872200  0.50127800  1
  Mo  Mo1  1  0.99872200  0.50127800  0.49872200  1
  Mo  Mo2  1  0.50127800  0.49872200  0.99872200  1
  Mo  Mo3  1  0.00127800  0.00127800  0.00127800  1
  H  H0  1  0.33531000  0.23510300  0.49740100  1
  H  H1  1  0.50259900  0.83531000  0.26489700  1
  H  H2  1  0.73510300  0.00259900  0.66469000  1
  H  H3  1  0.83531000  0.26489700  0.50259900  1
  H  H4  1  0.00259900  0.66469000  0.73510300  1
  H  H5  1  0.23510300  0.49740100  0.33531000  1
  H  H6  1  0.66469000  0.73510300  0.00259900  1
  H  H7  1  0.49740100  0.33531000  0.23510300  1
  H  H8  1  0.26489700  0.50259900  0.83531000  1
  H  H9  1  0.16469000  0.76489700  0.99740100  1
  H  H10  1  0.99740100  0.16469000  0.76489700  1
  H  H11  1  0.76489700  0.99740100  0.16469000  1
  H  H12  1  0.23057200  0.35553500  0.49779200  1
  H  H13  1  0.50220800  0.73057200  0.14446500  1
  H  H14  1  0.85553500  0.00220800  0.76942800  1
  H  H15  1  0.73057200  0.14446500  0.50220800  1
  H  H16  1  0.00220800  0.76942800  0.85553500  1
  H  H17  1  0.35553500  0.49779200  0.23057200  1
  H  H18  1  0.76942800  0.85553500  0.00220800  1
  H  H19  1  0.49779200  0.23057200  0.35553500  1
  H  H20  1  0.14446500  0.50220800  0.73057200  1
  H  H21  1  0.26942800  0.64446500  0.99779200  1
  H  H22  1  0.99779200  0.26942800  0.64446500  1
  H  H23  1  0.64446500  0.99779200  0.26942800  1
  H  H24  1  0.75399000  0.64483600  0.63233000  1
  H  H25  1  0.36767000  0.25399000  0.85516400  1
  H  H26  1  0.14483600  0.86767000  0.24601000  1
  H  H27  1  0.25399000  0.85516400  0.36767000  1
  H  H28  1  0.86767000  0.24601000  0.14483600  1
  H  H29  1  0.64483600  0.63233000  0.75399000  1
  H  H30  1  0.24601000  0.14483600  0.86767000  1
  H  H31  1  0.63233000  0.75399000  0.64483600  1
  H  H32  1  0.85516400  0.36767000  0.25399000  1
  H  H33  1  0.74601000  0.35516400  0.13233000  1
  H  H34  1  0.13233000  0.74601000  0.35516400  1
  H  H35  1  0.35516400  0.13233000  0.74601000  1
  H  H36  1  0.39420300  0.55175200  0.54478100  1
  H  H37  1  0.45521900  0.89420300  0.94824800  1
  H  H38  1  0.05175200  0.95521900  0.60579700  1
  H  H39  1  0.89420300  0.94824800  0.45521900  1
  H  H40  1  0.95521900  0.60579700  0.05175200  1
  H  H41  1  0.55175200  0.54478100  0.39420300  1
  H  H42  1  0.60579700  0.05175200  0.95521900  1
  H  H43  1  0.54478100  0.39420300  0.55175200  1
  H  H44  1  0.94824800  0.45521900  0.89420300  1
  H  H45  1  0.10579700  0.44824800  0.04478100  1
  H  H46  1  0.04478100  0.10579700  0.44824800  1
  H  H47  1  0.44824800  0.04478100  0.10579700  1
  H  H48  1  0.43743300  0.70669600  0.57046300  1
  H  H49  1  0.42953700  0.93743300  0.79330400  1
  H  H50  1  0.20669600  0.92953700  0.56256700  1
  H  H51  1  0.93743300  0.79330400  0.42953700  1
  H  H52  1  0.92953700  0.56256700  0.20669600  1
  H  H53  1  0.70669600  0.57046300  0.43743300  1
  H  H54  1  0.56256700  0.20669600  0.92953700  1
  H  H55  1  0.57046300  0.43743300  0.70669600  1
  H  H56  1  0.79330400  0.42953700  0.93743300  1
  H  H57  1  0.06256700  0.29330400  0.07046300  1
  H  H58  1  0.07046300  0.06256700  0.29330400  1
  H  H59  1  0.29330400  0.07046300  0.06256700  1
  H  H60  1  0.42945100  0.59876100  0.69636200  1
  H  H61  1  0.30363800  0.92945100  0.90123900  1
  H  H62  1  0.09876100  0.80363800  0.57054900  1
  H  H63  1  0.92945100  0.90123900  0.30363800  1
  H  H64  1  0.80363800  0.57054900  0.09876100  1
  H  H65  1  0.59876100  0.69636200  0.42945100  1
  H  H66  1  0.57054900  0.09876100  0.80363800  1
  H  H67  1  0.69636200  0.42945100  0.59876100  1
  H  H68  1  0.90123900  0.30363800  0.92945100  1
  H  H69  1  0.07054900  0.40123900  0.19636200  1
  H  H70  1  0.19636200  0.07054900  0.40123900  1
  H  H71  1  0.40123900  0.19636200  0.07054900  1
  C  C0  1  0.36203100  0.36203100  0.36203100  1
  C  C1  1  0.63796900  0.86203100  0.13796900  1
  C  C2  1  0.86203100  0.13796900  0.63796900  1
  C  C3  1  0.13796900  0.63796900  0.86203100  1
  C  C4  1  0.65909600  0.65909600  0.65909600  1
  C  C5  1  0.34090400  0.15909600  0.84090400  1
  C  C6  1  0.15909600  0.84090400  0.34090400  1
  C  C7  1  0.84090400  0.34090400  0.15909600  1
  C  C8  1  0.44990400  0.61260600  0.60009100  1
  C  C9  1  0.39990900  0.94990400  0.88739400  1
  C  C10  1  0.11260600  0.89990900  0.55009600  1
  C  C11  1  0.94990400  0.88739400  0.39990900  1
  C  C12  1  0.89990900  0.55009600  0.11260600  1
  C  C13  1  0.61260600  0.60009100  0.44990400  1
  C  C14  1  0.55009600  0.11260600  0.89990900  1
  C  C15  1  0.60009100  0.44990400  0.61260600  1
  C  C16  1  0.88739400  0.39990900  0.94990400  1
  C  C17  1  0.05009600  0.38739400  0.10009100  1
  C  C18  1  0.10009100  0.05009600  0.38739400  1
  C  C19  1  0.38739400  0.10009100  0.05009600  1
  N  N0  1  0.30876800  0.31833800  0.46241000  1
  N  N1  1  0.53759000  0.80876800  0.18166200  1
  N  N2  1  0.81833800  0.03759000  0.69123200  1
  N  N3  1  0.80876800  0.18166200  0.53759000  1
  N  N4  1  0.03759000  0.69123200  0.81833800  1
  N  N5  1  0.31833800  0.46241000  0.30876800  1
  N  N6  1  0.69123200  0.81833800  0.03759000  1
  N  N7  1  0.46241000  0.30876800  0.31833800  1
  N  N8  1  0.18166200  0.53759000  0.80876800  1
  N  N9  1  0.19123200  0.68166200  0.96241000  1
  N  N10  1  0.96241000  0.19123200  0.68166200  1
  N  N11  1  0.68166200  0.96241000  0.19123200  1
  N  N12  1  0.58034900  0.58034900  0.58034900  1
  N  N13  1  0.41965100  0.08034900  0.91965100  1
  N  N14  1  0.08034900  0.91965100  0.41965100  1
  N  N15  1  0.91965100  0.41965100  0.08034900  1
  O  O0  1  0.59357300  0.09357300  0.40642700  1
  O  O1  1  0.09357300  0.40642700  0.59357300  1
  O  O2  1  0.40642700  0.59357300  0.09357300  1
  O  O3  1  0.90642700  0.90642700  0.90642700  1
  O  O4  1  0.36606400  0.08286900  0.54456700  1
  O  O5  1  0.45543300  0.86606400  0.41713100  1
  O  O6  1  0.58286900  0.95543300  0.63393600  1
  O  O7  1  0.86606400  0.41713100  0.45543300  1
  O  O8  1  0.95543300  0.63393600  0.58286900  1
  O  O9  1  0.08286900  0.54456700  0.36606400  1
  O  O10  1  0.63393600  0.58286900  0.95543300  1
  O  O11  1  0.54456700  0.36606400  0.08286900  1
  O  O12  1  0.41713100  0.45543300  0.86606400  1
  O  O13  1  0.13393600  0.91713100  0.04456700  1
  O  O14  1  0.04456700  0.13393600  0.91713100  1
  O  O15  1  0.91713100  0.04456700  0.13393600  1
loop_
_geom_bond_atom_site_label_1
_geom_bond_atom_site_label_2
_geom_bond_distance
_geom_bond_site_symmetry_2
Mo0 O6 1.796766 1_555
Mo0 O4 1.796766 1_565
Mo0 O5 1.796766 1_555
Mo0 O0 1.811502 1_565
Mo1 O8 1.796766 1_555
Mo1 O9 1.796766 1_655
Mo1 O7 1.796766 1_555
Mo1 O1 1.811502 1_655
Mo2 O10 1.796766 1_555
Mo2 O11 1.796766 1_556
Mo2 O12 1.796766 1_555
Mo2 O2 1.811502 1_556
Mo3 O15 1.796766 1_455
Mo3 O13 1.796766 1_545
Mo3 O14 1.796766 1_554
Mo3 O3 1.811502 1_444
H0 N0 1.037714 1_555
H1 N1 1.037714 1_555
H2 N2 1.037714 1_555
H3 N3 1.037714 1_555
H4 N4 1.037714 1_555
H5 N5 1.037714 1_555
H6 N6 1.037714 1_555
H7 N7 1.037714 1_555
H8 N8 1.037714 1_555
H9 N9 1.037714 1_555
H10 N10 1.037714 1_555
H11 N11 1.037714 1_555
H12 N0 1.031438 1_555
H13 N1 1.031438 1_555
H14 N2 1.031438 1_555
H15 N3 1.031438 1_555
H16 N4 1.031438 1_555
H17 N5 1.031438 1_555
H18 N6 1.031438 1_555
H19 N7 1.031438 1_555
H20 N8 1.031438 1_555
H21 N9 1.031438 1_555
H22 N10 1.031438 1_555
H23 N11 1.031438 1_555
C0 N5 1.342423 1_555
C0 N7 1.342423 1_555
C0 N0 1.342423 1_555
C1 N1 1.342423 1_555
C1 N11 1.342423 1_555
C1 N6 1.342423 1_555
C2 N3 1.342423 1_555
C2 N2 1.342423 1_555
C2 N10 1.342423 1_555
C3 N4 1.342423 1_555
C3 N8 1.342423 1_555
C3 N9 1.342423 1_555
C4 H29 1.098484 1_555
C4 H24 1.098484 1_555
C4 H31 1.098484 1_555
C4 N12 1.503942 1_555
C5 H30 1.098484 1_555
C5 H35 1.098484 1_555
C5 H25 1.098484 1_555
C5 N13 1.503942 1_555
C6 H26 1.098484 1_555
C6 H27 1.098484 1_555
C6 H34 1.098484 1_555
C6 N14 1.503942 1_555
C7 H28 1.098484 1_555
C7 H32 1.098484 1_555
C7 H33 1.098484 1_555
C7 N15 1.503942 1_555
C8 H36 1.095179 1_555
C8 H60 1.095906 1_555
C8 H48 1.096359 1_555
C8 N12 1.497578 1_555
C9 H37 1.095179 1_555
C9 H61 1.095906 1_555
C9 H49 1.096359 1_555
C9 N13 1.497578 1_565
C10 H38 1.095179 1_555
C10 H62 1.095906 1_555
C10 H50 1.096359 1_555
C10 N14 1.497578 1_555
C11 H39 1.095179 1_555
C11 H63 1.095906 1_555
C11 H51 1.096359 1_555
C11 N14 1.497578 1_655
C12 H40 1.095179 1_555
C12 H64 1.095906 1_555
C12 H52 1.096359 1_555
C12 N15 1.497578 1_555
C13 H41 1.095179 1_555
C13 H65 1.095906 1_555
C13 H53 1.096359 1_555
C13 N12 1.497578 1_555
C14 H42 1.095179 1_555
C14 H66 1.095906 1_555
C14 H54 1.096359 1_555
C14 N13 1.497578 1_555
C15 H43 1.095179 1_555
C15 H67 1.095906 1_555
C15 H55 1.096359 1_555
C15 N12 1.497578 1_555
C16 H44 1.095179 1_555
C16 H68 1.095906 1_555
C16 H56 1.096359 1_555
C16 N15 1.497578 1_556
C17 H45 1.095179 1_555
C17 H69 1.095906 1_555
C17 H57 1.096359 1_555
C17 N15 1.497578 1_455
C18 H46 1.095179 1_555
C18 H70 1.095906 1_555
C18 H58 1.096359 1_555
C18 N14 1.497578 1_545
C19 H47 1.095179 1_555
C19 H71 1.095906 1_555
C19 H59 1.096359 1_555
C19 N13 1.497578 1_554
