# generated using pymatgen
data_Li4Mn2Nb3Cr3O16
_symmetry_space_group_name_H-M   'P 1'
_cell_length_a   6.09296203
_cell_length_b   6.09296203
_cell_length_c   10.04940386
_cell_angle_alpha   89.87736306
_cell_angle_beta   89.87736306
_cell_angle_gamma   60.53571517
_symmetry_Int_Tables_number   1
_chemical_formula_structural   Li4Mn2Nb3Cr3O16
_chemical_formula_sum   'Li4 Mn2 Nb3 Cr3 O16'
_cell_volume   324.82222538
_cell_formula_units_Z   1
loop_
 _symmetry_equiv_pos_site_id
 _symmetry_equiv_pos_as_xyz
  1  'x, y, z'
loop_
 _atom_site_type_symbol
 _atom_site_label
 _atom_site_symmetry_multiplicity
 _atom_site_fract_x
 _atom_site_fract_y
 _atom_site_fract_z
 _atom_site_occupancy
  Li  Li0  1  0.33313300  0.33313300  0.90348900  1
  Li  Li1  1  0.99308100  0.99308100  0.00441600  1
  Li  Li2  1  0.99067900  0.99067900  0.49139400  1
  Li  Li3  1  0.66360300  0.66360300  0.37340800  1
  Mn  Mn0  1  0.34319300  0.34319300  0.48102500  1
  Mn  Mn1  1  0.67123200  0.67123200  0.01618900  1
  Nb  Nb0  1  0.17111300  0.17111300  0.21627000  1
  Nb  Nb1  1  0.33985500  0.83492500  0.71533900  1
  Nb  Nb2  1  0.83492500  0.33985500  0.71533900  1
  Cr  Cr0  1  0.16809700  0.66409800  0.21505600  1
  Cr  Cr1  1  0.66409800  0.16809700  0.21505600  1
  Cr  Cr2  1  0.83325900  0.83325900  0.71499400  1
  O  O0  1  0.15850800  0.69288900  0.60821100  1
  O  O1  1  0.48223500  0.48223500  0.32854300  1
  O  O2  1  0.33151700  0.33151700  0.10446500  1
  O  O3  1  0.99978200  0.99978200  0.31300800  1
  O  O4  1  0.00006000  0.00006000  0.81746400  1
  O  O5  1  0.69288900  0.15850800  0.60821100  1
  O  O6  1  0.02873900  0.47856300  0.33169800  1
  O  O7  1  0.47856300  0.02873900  0.33169800  1
  O  O8  1  0.84461600  0.84461600  0.10829000  1
  O  O9  1  0.15824900  0.15824900  0.60483200  1
  O  O10  1  0.50990400  0.96916600  0.82690300  1
  O  O11  1  0.96916600  0.50990400  0.82690300  1
  O  O12  1  0.66601200  0.66601200  0.60432700  1
  O  O13  1  0.31010800  0.84956400  0.10359400  1
  O  O14  1  0.51326000  0.51326000  0.82415700  1
  O  O15  1  0.84956400  0.31010800  0.10359400  1
loop_
_geom_bond_atom_site_label_1
_geom_bond_atom_site_label_2
_geom_bond_distance
_geom_bond_site_symmetry_2
Li0 O2 2.019718 1_556
Li0 O14 2.054776 1_555
Li0 O10 2.079504 1_545
Li0 O11 2.079504 1_455
Li1 O8 1.877007 1_555
Li1 O4 1.880010 1_664
Li1 O13 1.957566 1_655
Li1 O15 1.957566 1_565
Li2 O3 1.794994 1_555
Li2 O0 1.971470 1_655
Li2 O5 1.971470 1_565
Li2 O9 2.102358 1_665
Li3 O1 1.962459 1_555
Li3 O6 1.981628 1_655
Li3 O7 1.981628 1_565
Li3 O12 2.320800 1_555
Mn0 O1 2.116239 1_555
Mn0 O7 2.248447 1_555
Mn0 O6 2.248447 1_555
Mn0 O5 2.255336 1_555
Mn0 O0 2.255336 1_555
Mn0 O9 2.307552 1_555
Mn1 O8 2.048168 1_555
Mn1 O13 2.106511 1_555
Mn1 O15 2.106511 1_555
Mn1 O10 2.473412 1_554
Mn1 O11 2.473412 1_554
Mn1 O14 2.550360 1_554
Nb0 O6 2.003400 1_555
Nb0 O7 2.003400 1_555
Nb0 O2 2.025601 1_555
Nb0 O3 2.046454 1_445
Nb0 O15 2.052051 1_455
Nb0 O13 2.052051 1_545
Nb1 O10 1.960123 1_555
Nb1 O0 2.019565 1_555
Nb1 O14 2.027810 1_555
Nb1 O9 2.046952 1_565
Nb1 O12 2.058247 1_555
Nb1 O4 2.073177 1_565
Nb2 O11 1.960123 1_555
Nb2 O5 2.019565 1_555
Nb2 O14 2.027810 1_555
Nb2 O9 2.046952 1_655
Nb2 O12 2.058247 1_555
Nb2 O4 2.073177 1_655
Cr0 O1 2.027195 1_555
Cr0 O8 2.029036 1_455
Cr0 O3 2.035878 1_455
Cr0 O13 2.057352 1_555
Cr0 O6 2.075398 1_555
Cr0 O2 2.086350 1_555
Cr1 O1 2.027195 1_555
Cr1 O8 2.029036 1_545
Cr1 O3 2.035878 1_545
Cr1 O15 2.057352 1_555
Cr1 O7 2.075398 1_555
Cr1 O2 2.086350 1_555
Cr2 O0 2.034141 1_655
Cr2 O5 2.034141 1_565
Cr2 O4 2.037467 1_665
Cr2 O10 2.054666 1_555
Cr2 O11 2.054666 1_555
Cr2 O12 2.084455 1_555
