# generated using pymatgen
data_MgSnIr2
_symmetry_space_group_name_H-M   'P 1'
_cell_length_a   4.46639748
_cell_length_b   4.46640176
_cell_length_c   4.46639891
_cell_angle_alpha   59.99996826
_cell_angle_beta   59.99994711
_cell_angle_gamma   59.99997884
_symmetry_Int_Tables_number   1
_chemical_formula_structural   MgSnIr2
_chemical_formula_sum   'Mg1 Sn1 Ir2'
_cell_volume   63.00243278
_cell_formula_units_Z   1
loop_
 _symmetry_equiv_pos_site_id
 _symmetry_equiv_pos_as_xyz
  1  'x, y, z'
loop_
 _atom_site_type_symbol
 _atom_site_label
 _atom_site_symmetry_multiplicity
 _atom_site_fract_x
 _atom_site_fract_y
 _atom_site_fract_z
 _atom_site_occupancy
  Mg  Mg0  1  0.25000000  0.25000000  0.25000000  1
  Sn  Sn0  1  0.75000000  0.75000000  0.75000000  1
  Ir  Ir0  1  0.00000000  0.00000000  0.00000000  1
  Ir  Ir1  1  0.50000000  0.50000000  0.50000000  1
loop_
_geom_bond_atom_site_label_1
_geom_bond_atom_site_label_2
_geom_bond_distance
_geom_bond_site_symmetry_2
Mg0 Sn0 3.158220 1_445
Mg0 Sn0 3.158220 1_554
Mg0 Sn0 3.158220 1_545
Mg0 Sn0 3.158220 1_454
Mg0 Sn0 3.158221 1_544
Mg0 Sn0 3.158221 1_455
Ir0 Sn0 2.735097 1_544
Ir0 Mg0 2.735097 1_455
Ir0 Mg0 2.735098 1_554
Ir0 Sn0 2.735098 1_445
Ir0 Sn0 2.735101 1_454
Ir0 Mg0 2.735101 1_545
Ir0 Mg0 2.735101 1_555
Ir0 Sn0 2.735101 1_444
Ir1 Mg0 2.735097 1_655
Ir1 Sn0 2.735097 1_455
Ir1 Mg0 2.735098 1_556
Ir1 Sn0 2.735098 1_554
Ir1 Sn0 2.735101 1_545
Ir1 Mg0 2.735101 1_565
Ir1 Sn0 2.735101 1_555
Ir1 Mg0 2.735101 1_555
