# generated using pymatgen
data_FeP6(WO8)3
_symmetry_space_group_name_H-M   'P 1'
_cell_length_a   8.91247278
_cell_length_b   8.91247278
_cell_length_c   8.91247349
_cell_angle_alpha   58.96039018
_cell_angle_beta   58.96039018
_cell_angle_gamma   58.96038996
_symmetry_Int_Tables_number   1
_chemical_formula_structural   FeP6(WO8)3
_chemical_formula_sum   'Fe1 P6 W3 O24'
_cell_volume   488.71347758
_cell_formula_units_Z   1
loop_
 _symmetry_equiv_pos_site_id
 _symmetry_equiv_pos_as_xyz
  1  'x, y, z'
loop_
 _atom_site_type_symbol
 _atom_site_label
 _atom_site_symmetry_multiplicity
 _atom_site_fract_x
 _atom_site_fract_y
 _atom_site_fract_z
 _atom_site_occupancy
  Fe  Fe0  1  0.85828000  0.85828000  0.85828000  1
  P  P0  1  0.03492300  0.46797500  0.75102800  1
  P  P1  1  0.46797500  0.75102800  0.03492300  1
  P  P2  1  0.75102800  0.03492300  0.46797500  1
  P  P3  1  0.24546800  0.96304900  0.54092600  1
  P  P4  1  0.54092600  0.24546800  0.96304900  1
  P  P5  1  0.96304900  0.54092600  0.24546800  1
  W  W0  1  0.14229800  0.14229800  0.14229800  1
  W  W1  1  0.35722600  0.35722600  0.35722600  1
  W  W2  1  0.64214800  0.64214800  0.64214800  1
  O  O0  1  0.13181300  0.50388400  0.28557500  1
  O  O1  1  0.28557500  0.13181300  0.50388400  1
  O  O2  1  0.06270600  0.28559200  0.92042800  1
  O  O3  1  0.50388400  0.28557500  0.13181300  1
  O  O4  1  0.21266200  0.43256100  0.58067900  1
  O  O5  1  0.00944000  0.63459200  0.77662000  1
  O  O6  1  0.28559200  0.92042800  0.06270600  1
  O  O7  1  0.43256100  0.58067900  0.21266200  1
  O  O8  1  0.58067900  0.21266200  0.43256100  1
  O  O9  1  0.22168800  0.99231700  0.36512800  1
  O  O10  1  0.07915000  0.94083800  0.71400000  1
  O  O11  1  0.36512800  0.22168800  0.99231700  1
  O  O12  1  0.63459200  0.77662000  0.00944000  1
  O  O13  1  0.92042800  0.06270600  0.28559200  1
  O  O14  1  0.77662000  0.00944000  0.63459200  1
  O  O15  1  0.42304900  0.78836900  0.55910100  1
  O  O16  1  0.55910100  0.42304900  0.78836900  1
  O  O17  1  0.71400000  0.07915000  0.94083800  1
  O  O18  1  0.99231700  0.36512800  0.22168800  1
  O  O19  1  0.78836900  0.55910100  0.42304900  1
  O  O20  1  0.49000400  0.71979600  0.86668500  1
  O  O21  1  0.94083800  0.71400000  0.07915000  1
  O  O22  1  0.71979600  0.86668500  0.49000400  1
  O  O23  1  0.86668500  0.49000400  0.71979600  1
loop_
_geom_bond_atom_site_label_1
_geom_bond_atom_site_label_2
_geom_bond_distance
_geom_bond_site_symmetry_2
Fe0 O10 1.994355 1_655
Fe0 O17 1.994355 1_565
Fe0 O21 1.994355 1_556
Fe0 O12 2.008613 1_556
Fe0 O5 2.008613 1_655
Fe0 O14 2.008613 1_565
O0 P5 1.555560 1_455
O0 W1 1.976494 1_555
O1 P3 1.555560 1_545
O1 W1 1.976494 1_555
O2 P0 1.556454 1_555
O2 W0 1.988048 1_556
O3 P4 1.555560 1_554
O3 W1 1.976494 1_555
O4 P0 1.553176 1_555
O4 W1 1.979315 1_555
O5 P0 1.502267 1_555
O6 P1 1.556454 1_555
O6 W0 1.988048 1_565
O7 P1 1.553176 1_555
O7 W1 1.979315 1_555
O8 P2 1.553176 1_555
O8 W1 1.979315 1_555
O9 P3 1.559412 1_555
O9 W0 1.991884 1_565
O10 P3 1.498507 1_555
O11 P4 1.559412 1_555
O11 W0 1.991884 1_556
O12 P1 1.502267 1_555
O13 P2 1.556454 1_555
O13 W0 1.988048 1_655
O14 P2 1.502267 1_555
O15 P3 1.555048 1_555
O15 W2 1.982597 1_555
O16 P4 1.555048 1_555
O16 W2 1.982597 1_555
O17 P4 1.498507 1_555
O18 P5 1.559412 1_555
O18 W0 1.991884 1_655
O19 P5 1.555048 1_555
O19 W2 1.982597 1_555
O20 P1 1.560368 1_556
O20 W2 1.996093 1_555
O21 P5 1.498507 1_555
O22 P2 1.560368 1_565
O22 W2 1.996093 1_555
O23 P0 1.560368 1_655
O23 W2 1.996093 1_555
