# generated using pymatgen
data_Nb4Ni2C
_symmetry_space_group_name_H-M   'P 1'
_cell_length_a   8.27865052
_cell_length_b   8.27866894
_cell_length_c   8.27866245
_cell_angle_alpha   60.00185303
_cell_angle_beta   60.00190551
_cell_angle_gamma   60.00186906
_symmetry_Int_Tables_number   1
_chemical_formula_structural   Nb4Ni2C
_chemical_formula_sum   'Nb16 Ni8 C4'
_cell_volume   401.22105220
_cell_formula_units_Z   4
loop_
 _symmetry_equiv_pos_site_id
 _symmetry_equiv_pos_as_xyz
  1  'x, y, z'
loop_
 _atom_site_type_symbol
 _atom_site_label
 _atom_site_symmetry_multiplicity
 _atom_site_fract_x
 _atom_site_fract_y
 _atom_site_fract_z
 _atom_site_occupancy
  Nb  Nb0  1  0.43347880  0.06650829  0.06650288  1
  Nb  Nb1  1  0.06650654  0.43350287  0.43348975  1
  Nb  Nb2  1  0.06650254  0.43349532  0.06650036  1
  Nb  Nb3  1  0.06650121  0.06650236  0.43348922  1
  Nb  Nb4  1  0.43348781  0.06651048  0.43349963  1
  Nb  Nb5  1  0.43348083  0.43350562  0.06650769  1
  Nb  Nb6  1  0.18349746  0.81650468  0.18349964  1
  Nb  Nb7  1  0.81651219  0.18348952  0.81650037  1
  Nb  Nb8  1  0.81652120  0.18349171  0.18349712  1
  Nb  Nb9  1  0.18349879  0.18349764  0.81651078  1
  Nb  Nb10  1  0.18349346  0.81649713  0.81651025  1
  Nb  Nb11  1  0.81651917  0.81649438  0.18349231  1
  Nb  Nb12  1  0.62500000  0.62500000  0.62500000  1
  Nb  Nb13  1  0.62500000  0.62500000  0.12500000  1
  Nb  Nb14  1  0.12500000  0.62500000  0.62500000  1
  Nb  Nb15  1  0.62500000  0.12500000  0.62500000  1
  Ni  Ni0  1  0.82889165  0.82888309  0.82888639  1
  Ni  Ni1  1  0.82887559  0.82886746  0.51335514  1
  Ni  Ni2  1  0.51335349  0.82886931  0.82887319  1
  Ni  Ni3  1  0.82887454  0.51335590  0.82886963  1
  Ni  Ni4  1  0.42110835  0.42111691  0.42111361  1
  Ni  Ni5  1  0.42112441  0.42113254  0.73664486  1
  Ni  Ni6  1  0.42112546  0.73664410  0.42113037  1
  Ni  Ni7  1  0.73664651  0.42113069  0.42112681  1
  C  C0  1  0.12500000  0.62500000  0.12500000  1
  C  C1  1  0.62500000  0.12500000  0.12500000  1
  C  C2  1  0.12500000  0.12500000  0.62500000  1
  C  C3  1  0.12500000  0.12500000  0.12500000  1
loop_
_geom_bond_atom_site_label_1
_geom_bond_atom_site_label_2
_geom_bond_distance
_geom_bond_site_symmetry_2
Nb0 Ni5 2.837086 1_554
Nb0 Ni6 2.837124 1_545
Nb0 Ni2 3.073463 1_544
Nb0 Ni0 3.073526 1_544
Nb1 Ni4 2.836838 1_555
Nb1 Ni7 2.836875 1_455
Nb1 Ni1 3.073286 1_455
Nb1 Ni3 3.073349 1_455
Nb2 Ni5 2.837065 1_554
Nb2 Ni7 2.837088 1_455
Nb2 Ni0 3.073377 1_454
Nb2 Ni3 3.073437 1_454
Nb3 Ni6 2.837085 1_545
Nb3 Ni7 2.837090 1_455
Nb3 Ni0 3.073425 1_445
Nb3 Ni1 3.073433 1_445
Nb4 Ni4 2.836869 1_555
Nb4 Ni6 2.836918 1_545
Nb4 Ni2 3.073346 1_545
Nb4 Ni1 3.073407 1_545
Nb5 Ni5 2.836877 1_554
Nb5 Ni4 2.836879 1_555
Nb5 Ni2 3.073304 1_554
Nb5 Ni3 3.073433 1_554
Nb6 Ni1 2.837065 1_455
Nb6 Ni2 2.837088 1_554
Nb6 Ni4 3.073377 1_555
Nb6 Ni6 3.073437 1_555
Nb7 Ni0 2.836869 1_545
Nb7 Ni3 2.836918 1_555
Nb7 Ni7 3.073346 1_555
Nb7 Ni5 3.073407 1_555
Nb8 Ni1 2.837086 1_545
Nb8 Ni3 2.837124 1_554
Nb8 Ni7 3.073463 1_555
Nb8 Ni4 3.073526 1_555
Nb9 Ni3 2.837085 1_455
Nb9 Ni2 2.837090 1_545
Nb9 Ni4 3.073425 1_555
Nb9 Ni5 3.073433 1_555
Nb10 Ni0 2.836838 1_455
Nb10 Ni2 2.836875 1_555
Nb10 Ni5 3.073286 1_555
Nb10 Ni6 3.073349 1_555
Nb11 Ni1 2.836877 1_555
Nb11 Ni0 2.836879 1_554
Nb11 Ni7 3.073304 1_555
Nb11 Ni6 3.073433 1_555
Nb12 Ni2 2.506026 1_555
Nb12 Ni7 2.506026 1_555
Nb12 Ni1 2.506031 1_555
Nb12 Ni5 2.506031 1_555
Nb12 Ni6 2.506038 1_555
Nb12 Ni3 2.506038 1_555
Nb13 Ni0 2.506265 1_554
Nb13 Ni4 2.506265 1_555
Nb13 Ni7 2.506268 1_555
Nb13 Ni2 2.506268 1_554
Nb13 Ni3 2.506286 1_554
Nb13 Ni6 2.506286 1_555
Nb14 Ni4 2.506230 1_555
Nb14 Ni0 2.506230 1_455
Nb14 Ni5 2.506243 1_555
Nb14 Ni1 2.506243 1_455
Nb14 Ni3 2.506249 1_455
Nb14 Ni6 2.506249 1_555
Nb15 Ni0 2.506286 1_545
Nb15 Ni4 2.506286 1_555
Nb15 Ni7 2.506297 1_555
Nb15 Ni2 2.506297 1_545
Nb15 Ni1 2.506304 1_545
Nb15 Ni5 2.506304 1_555
Ni0 Ni3 2.612285 1_555
Ni0 Ni1 2.612308 1_555
Ni0 Ni2 2.612342 1_555
Ni1 Ni3 2.612100 1_555
Ni1 Ni2 2.612158 1_555
Ni2 Ni3 2.612134 1_555
Ni4 Ni6 2.612285 1_555
Ni4 Ni5 2.612308 1_555
Ni4 Ni7 2.612342 1_555
Ni5 Ni6 2.612100 1_555
Ni5 Ni7 2.612158 1_555
Ni6 Ni7 2.612134 1_555
C0 Nb5 2.179983 1_555
C0 Nb11 2.179983 1_455
C0 Nb1 2.180042 1_555
C0 Nb10 2.180042 1_554
C0 Nb2 2.180046 1_555
C0 Nb6 2.180046 1_555
C1 Nb8 2.180126 1_555
C1 Nb0 2.180126 1_555
C1 Nb4 2.180131 1_555
C1 Nb7 2.180131 1_554
C1 Nb5 2.180180 1_555
C1 Nb11 2.180180 1_545
C2 Nb7 2.180036 1_455
C2 Nb4 2.180036 1_555
C2 Nb9 2.180090 1_555
C2 Nb3 2.180090 1_555
C2 Nb1 2.180146 1_555
C2 Nb10 2.180146 1_545
C3 Nb0 2.179931 1_555
C3 Nb8 2.179931 1_455
C3 Nb3 2.180001 1_555
C3 Nb9 2.180001 1_554
C3 Nb6 2.180049 1_545
C3 Nb2 2.180049 1_555
