# generated using pymatgen
data_ScTaTc2
_symmetry_space_group_name_H-M   'P 1'
_cell_length_a   4.51335103
_cell_length_b   4.51567459
_cell_length_c   4.51555889
_cell_angle_alpha   60.03530143
_cell_angle_beta   60.01788678
_cell_angle_gamma   60.01789295
_symmetry_Int_Tables_number   1
_chemical_formula_structural   ScTaTc2
_chemical_formula_sum   'Sc1 Ta1 Tc2'
_cell_volume   65.11056153
_cell_formula_units_Z   1
loop_
 _symmetry_equiv_pos_site_id
 _symmetry_equiv_pos_as_xyz
  1  'x, y, z'
loop_
 _atom_site_type_symbol
 _atom_site_label
 _atom_site_symmetry_multiplicity
 _atom_site_fract_x
 _atom_site_fract_y
 _atom_site_fract_z
 _atom_site_occupancy
  Sc  Sc0  1  0.24999927  0.24999995  0.25000061  1
  Ta  Ta0  1  0.75000075  0.74999919  0.74999836  1
  Tc  Tc0  1  0.99995946  0.00004195  0.00004158  1
  Tc  Tc1  1  0.50004053  0.49995791  0.49995744  1
loop_
_geom_bond_atom_site_label_1
_geom_bond_atom_site_label_2
_geom_bond_distance
_geom_bond_site_symmetry_2
Sc0 Tc1 2.764119 1_555
Sc0 Tc0 2.764122 1_455
Sc0 Tc1 2.764201 1_455
Sc0 Tc0 2.764207 1_555
Sc0 Tc0 2.766342 1_456
Sc0 Tc1 2.766350 1_554
Sc0 Tc0 2.766416 1_465
Sc0 Tc1 2.766417 1_545
Ta0 Tc1 2.764438 1_555
Ta0 Tc0 2.764446 1_566
Ta0 Tc1 2.764500 1_655
Ta0 Tc0 2.764506 1_466
Ta0 Tc0 2.766031 1_565
Ta0 Tc1 2.766040 1_556
Ta0 Tc0 2.766104 1_556
Ta0 Tc1 2.766109 1_565
