# generated using pymatgen
data_Fe4O5F3
_symmetry_space_group_name_H-M   'P 1'
_cell_length_a   5.61608052
_cell_length_b   5.61608052
_cell_length_c   9.40071518
_cell_angle_alpha   88.49598457
_cell_angle_beta   88.49598457
_cell_angle_gamma   66.10214720
_symmetry_Int_Tables_number   1
_chemical_formula_structural   Fe4O5F3
_chemical_formula_sum   'Fe8 O10 F6'
_cell_volume   270.94963619
_cell_formula_units_Z   2
loop_
 _symmetry_equiv_pos_site_id
 _symmetry_equiv_pos_as_xyz
  1  'x, y, z'
loop_
 _atom_site_type_symbol
 _atom_site_label
 _atom_site_symmetry_multiplicity
 _atom_site_fract_x
 _atom_site_fract_y
 _atom_site_fract_z
 _atom_site_occupancy
  Fe  Fe0  1  0.96714200  0.96714200  0.74490900  1
  Fe  Fe1  1  0.03285800  0.03285800  0.25509100  1
  Fe  Fe2  1  0.00000000  0.50000000  0.50000000  1
  Fe  Fe3  1  0.50000000  0.00000000  0.50000000  1
  Fe  Fe4  1  0.00000000  0.50000000  0.00000000  1
  Fe  Fe5  1  0.50000000  0.00000000  0.00000000  1
  Fe  Fe6  1  0.51447800  0.51447800  0.26928200  1
  Fe  Fe7  1  0.48552200  0.48552200  0.73071800  1
  O  O0  1  0.16175600  0.16175600  0.09337000  1
  O  O1  1  0.34236800  0.34236800  0.89911400  1
  O  O2  1  0.34727500  0.34727500  0.40636900  1
  O  O3  1  0.14190000  0.64329900  0.64725500  1
  O  O4  1  0.64329900  0.14190000  0.64725500  1
  O  O5  1  0.35670100  0.85810000  0.35274500  1
  O  O6  1  0.85810000  0.35670100  0.35274500  1
  O  O7  1  0.65272500  0.65272500  0.59363100  1
  O  O8  1  0.65763200  0.65763200  0.10088600  1
  O  O9  1  0.83824400  0.83824400  0.90663000  1
  F  F0  1  0.14288000  0.14288000  0.60566100  1
  F  F1  1  0.66522200  0.16174900  0.15675800  1
  F  F2  1  0.16174900  0.66522200  0.15675800  1
  F  F3  1  0.33477800  0.83825100  0.84324200  1
  F  F4  1  0.83825100  0.33477800  0.84324200  1
  F  F5  1  0.85712000  0.85712000  0.39433900  1
loop_
_geom_bond_atom_site_label_1
_geom_bond_atom_site_label_2
_geom_bond_distance
_geom_bond_site_symmetry_2
Fe0 O9 1.915305 1_555
Fe0 O4 1.925590 1_565
Fe0 O3 1.925590 1_655
Fe1 O0 1.915305 1_555
Fe1 O6 1.925590 1_455
Fe1 O5 1.925590 1_545
Fe2 O3 1.958332 1_555
Fe2 O6 1.958332 1_455
Fe2 O2 1.976957 1_555
Fe2 O7 1.976957 1_455
Fe3 O5 1.958332 1_545
Fe3 O4 1.958332 1_555
Fe3 O2 1.976957 1_555
Fe3 O7 1.976957 1_545
Fe4 O9 1.939165 1_454
Fe4 O0 1.939165 1_555
Fe4 O8 1.987316 1_455
Fe4 O1 1.987316 1_554
Fe5 O9 1.939165 1_544
Fe5 O0 1.939165 1_555
Fe5 O8 1.987316 1_545
Fe5 O1 1.987316 1_554
Fe6 O5 1.944857 1_555
Fe6 O6 1.944857 1_555
Fe6 O2 2.002922 1_555
Fe6 O8 2.046659 1_555
Fe7 O3 1.944857 1_555
Fe7 O4 1.944857 1_555
Fe7 O7 2.002922 1_555
Fe7 O1 2.046659 1_555
F0 Fe3 2.070348 1_555
F0 Fe2 2.070348 1_555
F0 Fe0 2.077334 1_445
F1 Fe6 2.112833 1_555
F1 Fe1 2.120268 1_655
F1 Fe5 2.163970 1_555
F2 Fe6 2.112833 1_555
F2 Fe1 2.120268 1_565
F2 Fe4 2.163970 1_555
F3 Fe7 2.112833 1_555
F3 Fe0 2.120268 1_455
F3 Fe5 2.163970 1_566
F4 Fe7 2.112833 1_555
F4 Fe0 2.120268 1_545
F4 Fe4 2.163970 1_656
F5 Fe2 2.070348 1_655
F5 Fe3 2.070348 1_565
F5 Fe1 2.077334 1_665
