# generated using pymatgen
data_Co3TeO8
_symmetry_space_group_name_H-M   'P 1'
_cell_length_a   5.69379515
_cell_length_b   5.69379515
_cell_length_c   9.03816100
_cell_angle_alpha   90.00000000
_cell_angle_beta   90.00000000
_cell_angle_gamma   119.99999014
_symmetry_Int_Tables_number   1
_chemical_formula_structural   Co3TeO8
_chemical_formula_sum   'Co6 Te2 O16'
_cell_volume   253.75489266
_cell_formula_units_Z   2
loop_
 _symmetry_equiv_pos_site_id
 _symmetry_equiv_pos_as_xyz
  1  'x, y, z'
loop_
 _atom_site_type_symbol
 _atom_site_label
 _atom_site_symmetry_multiplicity
 _atom_site_fract_x
 _atom_site_fract_y
 _atom_site_fract_z
 _atom_site_occupancy
  Co  Co0  1  0.17052600  0.82947400  0.21623000  1
  Co  Co1  1  0.17052600  0.34105300  0.21623000  1
  Co  Co2  1  0.65894700  0.82947400  0.21623000  1
  Co  Co3  1  0.34105300  0.17052600  0.71623000  1
  Co  Co4  1  0.82947400  0.65894700  0.71623000  1
  Co  Co5  1  0.82947400  0.17052600  0.71623000  1
  Te  Te0  1  0.33333300  0.66666700  0.49296700  1
  Te  Te1  1  0.66666700  0.33333300  0.99296700  1
  O  O0  1  0.16078200  0.83921800  0.59533100  1
  O  O1  1  0.03241800  0.51620900  0.33811900  1
  O  O2  1  0.33333300  0.66666700  0.11298400  1
  O  O3  1  0.00000000  0.00000000  0.30262700  1
  O  O4  1  0.00000000  0.00000000  0.80262700  1
  O  O5  1  0.16078200  0.32156400  0.59533100  1
  O  O6  1  0.48379100  0.96758200  0.33811900  1
  O  O7  1  0.48379100  0.51620900  0.33811900  1
  O  O8  1  0.32156400  0.16078200  0.09533100  1
  O  O9  1  0.67843600  0.83921800  0.59533100  1
  O  O10  1  0.51620900  0.48379100  0.83811900  1
  O  O11  1  0.51620900  0.03241800  0.83811900  1
  O  O12  1  0.66666700  0.33333300  0.61298400  1
  O  O13  1  0.83921800  0.67843600  0.09533100  1
  O  O14  1  0.96758200  0.48379100  0.83811900  1
  O  O15  1  0.83921800  0.16078200  0.09533100  1
loop_
_geom_bond_atom_site_label_1
_geom_bond_atom_site_label_2
_geom_bond_distance
_geom_bond_site_symmetry_2
Co0 O3 1.854166 1_565
Co0 O2 1.857069 1_555
Co0 O1 1.900227 1_555
Co0 O6 1.900227 1_555
Co0 O13 1.967183 1_455
Co0 O8 1.967183 1_565
Co1 O3 1.854171 1_555
Co1 O2 1.857069 1_555
Co1 O1 1.900223 1_555
Co1 O7 1.900227 1_555
Co1 O15 1.967183 1_455
Co1 O8 1.967187 1_555
Co2 O3 1.854171 1_665
Co2 O2 1.857069 1_555
Co2 O6 1.900223 1_555
Co2 O7 1.900227 1_555
Co2 O15 1.967183 1_565
Co2 O13 1.967187 1_555
Co3 O4 1.854171 1_555
Co3 O12 1.857069 1_555
Co3 O11 1.900223 1_555
Co3 O10 1.900227 1_555
Co3 O0 1.967183 1_545
Co3 O5 1.967187 1_555
Co4 O4 1.854171 1_665
Co4 O12 1.857069 1_555
Co4 O14 1.900223 1_555
Co4 O10 1.900227 1_555
Co4 O0 1.967183 1_655
Co4 O9 1.967187 1_555
Co5 O4 1.854166 1_655
Co5 O12 1.857069 1_555
Co5 O11 1.900227 1_555
Co5 O14 1.900227 1_555
Co5 O9 1.967183 1_545
Co5 O5 1.967183 1_655
O0 Te0 1.936932 1_555
O1 Te0 2.039703 1_555
O5 Te0 1.936936 1_555
O6 Te0 2.039703 1_555
O7 Te0 2.039706 1_555
O8 Te1 1.936936 1_554
O9 Te0 1.936936 1_555
O10 Te1 2.039706 1_555
O11 Te1 2.039703 1_555
O13 Te1 1.936936 1_554
O14 Te1 2.039703 1_555
O15 Te1 1.936932 1_554
