# generated using pymatgen
data_Li3Mn4(BO3)4
_symmetry_space_group_name_H-M   'P 1'
_cell_length_a   7.92521200
_cell_length_b   8.28649730
_cell_length_c   9.06395908
_cell_angle_alpha   111.98483125
_cell_angle_beta   114.00781727
_cell_angle_gamma   81.63193730
_symmetry_Int_Tables_number   1
_chemical_formula_structural   Li3Mn4(BO3)4
_chemical_formula_sum   'Li6 Mn8 B8 O24'
_cell_volume   504.19899131
_cell_formula_units_Z   2
loop_
 _symmetry_equiv_pos_site_id
 _symmetry_equiv_pos_as_xyz
  1  'x, y, z'
loop_
 _atom_site_type_symbol
 _atom_site_label
 _atom_site_symmetry_multiplicity
 _atom_site_fract_x
 _atom_site_fract_y
 _atom_site_fract_z
 _atom_site_occupancy
  Li  Li0  1  0.05182400  0.62521000  0.81119200  1
  Li  Li1  1  0.28851000  0.37190300  0.30068600  1
  Li  Li2  1  0.44272400  0.87213300  0.19183400  1
  Li  Li3  1  0.53861000  0.12360400  0.79648600  1
  Li  Li4  1  0.69052200  0.61978900  0.68960900  1
  Li  Li5  1  0.80350400  0.87619900  0.30728800  1
  Mn  Mn0  1  0.15548600  0.08613700  0.33026600  1
  Mn  Mn1  1  0.08449200  0.66475700  0.17795700  1
  Mn  Mn2  1  0.33075900  0.41753200  0.68070100  1
  Mn  Mn3  1  0.59055200  0.16380300  0.17625900  1
  Mn  Mn4  1  0.39891600  0.84025200  0.81369700  1
  Mn  Mn5  1  0.66867700  0.57208800  0.31314500  1
  Mn  Mn6  1  0.92181900  0.32265900  0.83312800  1
  Mn  Mn7  1  0.84166500  0.91300900  0.67292900  1
  B  B0  1  0.08530700  0.65521700  0.50052300  1
  B  B1  1  0.33782800  0.40965100  0.00575800  1
  B  B2  1  0.16972400  0.08671300  0.00059600  1
  B  B3  1  0.58340400  0.15886600  0.50767700  1
  B  B4  1  0.41816700  0.83335900  0.48735900  1
  B  B5  1  0.82983200  0.90527500  0.00112100  1
  B  B6  1  0.66400100  0.59838800  0.98997200  1
  B  B7  1  0.91959000  0.35413000  0.50660300  1
  O  O0  1  0.12082100  0.17651500  0.13690400  1
  O  O1  1  0.09470400  0.27769200  0.53031200  1
  O  O2  1  0.06285400  0.09362300  0.83658700  1
  O  O3  1  0.16026900  0.58006300  0.38015800  1
  O  O4  1  0.17719100  0.64526500  0.66721000  1
  O  O5  1  0.43362100  0.39757300  0.16994900  1
  O  O6  1  0.16999300  0.49955600  0.97609500  1
  O  O7  1  0.42286200  0.25746000  0.48297800  1
  O  O8  1  0.33524500  0.99089600  0.02346300  1
  O  O9  1  0.30952100  0.84088600  0.32123800  1
  O  O10  1  0.40868000  0.33368300  0.88113900  1
  O  O11  1  0.63577800  0.06048200  0.37210400  1
  O  O12  1  0.36754300  0.92830000  0.62155500  1
  O  O13  1  0.61094900  0.68795500  0.12660600  1
  O  O14  1  0.68761300  0.15009500  0.67274400  1
  O  O15  1  0.66531800  0.99874100  0.97084500  1
  O  O16  1  0.58450300  0.74030200  0.51267800  1
  O  O17  1  0.83664700  0.52279000  0.01309700  1
  O  O18  1  0.54784400  0.59454200  0.82127700  1
  O  O19  1  0.80603600  0.34755200  0.34136600  1
  O  O20  1  0.86581500  0.43795600  0.64368800  1
  O  O21  1  0.92958200  0.89845800  0.16770800  1
  O  O22  1  0.91654900  0.74319200  0.46680200  1
  O  O23  1  0.88656000  0.81037400  0.86849000  1
loop_
_geom_bond_atom_site_label_1
_geom_bond_atom_site_label_2
_geom_bond_distance
_geom_bond_site_symmetry_2
Li0 O23 1.926495 1_455
Li0 O6 1.984352 1_555
Li0 O20 1.991640 1_455
Li0 O4 1.995865 1_555
Li1 O3 1.918939 1_555
Li1 O0 1.952611 1_555
Li1 O5 2.034920 1_555
Li1 O7 2.052027 1_555
Li2 O13 1.957000 1_555
Li2 O8 1.961069 1_555
Li2 O9 1.967660 1_555
Li2 O11 2.048911 1_565
Li3 O10 1.949515 1_555
Li3 O12 1.984792 1_545
Li3 O14 2.009522 1_555
Li3 O15 2.051113 1_545
Li4 O20 1.940421 1_555
Li4 O18 2.024982 1_555
Li4 O16 2.033094 1_555
Li4 O23 2.069776 1_555
Li5 O11 1.953699 1_565
Li5 O21 1.972314 1_555
Li5 O22 1.989850 1_555
Li5 O13 2.047094 1_555
Mn0 O0 2.058910 1_555
Mn0 O1 2.091079 1_555
Mn0 O21 2.177875 1_445
Mn0 O9 2.204938 1_545
Mn0 O7 2.332210 1_555
Mn1 O3 2.038845 1_555
Mn1 O17 2.107850 1_455
Mn1 O9 2.109748 1_555
Mn1 O6 2.131755 1_554
Mn1 O21 2.148494 1_455
Mn2 O10 2.017931 1_555
Mn2 O1 2.018406 1_555
Mn2 O18 2.070342 1_555
Mn2 O4 2.107261 1_555
Mn2 O7 2.122940 1_555
Mn3 O15 2.107979 1_544
Mn3 O19 2.108452 1_555
Mn3 O11 2.131537 1_555
Mn3 O5 2.150909 1_555
Mn3 O8 2.267775 1_545
Mn4 O12 2.042896 1_555
Mn4 O8 2.061118 1_556
Mn4 O4 2.187013 1_555
Mn4 O18 2.209679 1_555
Mn4 O15 2.273890 1_555
Mn5 O19 2.062181 1_555
Mn5 O13 2.109042 1_555
Mn5 O16 2.117184 1_555
Mn5 O5 2.158116 1_555
Mn5 O22 2.216965 1_555
Mn6 O2 2.061782 1_655
Mn6 O17 2.100357 1_556
Mn6 O20 2.131400 1_555
Mn6 O14 2.150291 1_555
Mn6 O6 2.244857 1_655
Mn7 O2 2.121026 1_665
Mn7 O22 2.124560 1_555
Mn7 O23 2.125870 1_555
Mn7 O14 2.157070 1_565
Mn7 O16 2.279326 1_555
B0 O3 1.357219 1_555
B0 O22 1.401437 1_455
B0 O4 1.414312 1_555
B1 O10 1.366853 1_554
B1 O6 1.402529 1_554
B1 O5 1.403998 1_555
B2 O0 1.359311 1_555
B2 O2 1.398428 1_554
B2 O8 1.411730 1_545
B3 O11 1.383265 1_555
B3 O7 1.392492 1_555
B3 O14 1.408661 1_555
B4 O12 1.359470 1_555
B4 O16 1.405531 1_555
B4 O9 1.418508 1_555
B5 O23 1.376517 1_554
B5 O15 1.396121 1_554
B5 O21 1.409825 1_555
B6 O13 1.380600 1_556
B6 O17 1.387066 1_556
B6 O18 1.418839 1_555
B7 O20 1.380774 1_555
B7 O19 1.382880 1_555
B7 O1 1.405982 1_655
