# generated using pymatgen
data_Li2AgAu
_symmetry_space_group_name_H-M   'P 1'
_cell_length_a   4.38463989
_cell_length_b   4.38463989
_cell_length_c   4.38463989
_cell_angle_alpha   60.00000000
_cell_angle_beta   60.00000000
_cell_angle_gamma   60.00000000
_symmetry_Int_Tables_number   1
_chemical_formula_structural   Li2AgAu
_chemical_formula_sum   'Li2 Ag1 Au1'
_cell_volume   59.60556298
_cell_formula_units_Z   1
loop_
 _symmetry_equiv_pos_site_id
 _symmetry_equiv_pos_as_xyz
  1  'x, y, z'
loop_
 _atom_site_type_symbol
 _atom_site_label
 _atom_site_symmetry_multiplicity
 _atom_site_fract_x
 _atom_site_fract_y
 _atom_site_fract_z
 _atom_site_occupancy
  Li  Li0  1  -0.00000000  0.00000000  -0.00000000  1
  Li  Li1  1  0.50000100  0.50000100  0.50000100  1
  Ag  Ag0  1  0.25000000  0.25000000  0.25000000  1
  Au  Au0  1  0.75000000  0.75000000  0.75000000  1
loop_
_geom_bond_atom_site_label_1
_geom_bond_atom_site_label_2
_geom_bond_distance
_geom_bond_site_symmetry_2
Ag0 Li1 2.685029 1_455
Ag0 Li1 2.685029 1_554
Ag0 Li1 2.685029 1_545
Ag0 Li0 2.685033 1_556
Ag0 Li0 2.685033 1_555
Ag0 Li0 2.685033 1_565
Ag0 Li0 2.685033 1_655
Ag0 Li1 2.685043 1_555
Au0 Li1 2.685022 1_555
Au0 Li0 2.685033 1_666
Au0 Li0 2.685033 1_665
Au0 Li0 2.685033 1_656
Au0 Li0 2.685033 1_566
Au0 Li1 2.685036 1_565
Au0 Li1 2.685036 1_556
Au0 Li1 2.685036 1_655
