# generated using pymatgen
data_Li3Mn2(PO4)3
_symmetry_space_group_name_H-M   'P 1'
_cell_length_a   9.15604906
_cell_length_b   9.15604906
_cell_length_c   16.56240801
_cell_angle_alpha   64.61019841
_cell_angle_beta   64.61019841
_cell_angle_gamma   56.33586390
_symmetry_Int_Tables_number   1
_chemical_formula_structural   Li3Mn2(PO4)3
_chemical_formula_sum   'Li12 Mn8 P12 O48'
_cell_volume   1009.73395722
_cell_formula_units_Z   4
loop_
 _symmetry_equiv_pos_site_id
 _symmetry_equiv_pos_as_xyz
  1  'x, y, z'
loop_
 _atom_site_type_symbol
 _atom_site_label
 _atom_site_symmetry_multiplicity
 _atom_site_fract_x
 _atom_site_fract_y
 _atom_site_fract_z
 _atom_site_occupancy
  Li  Li0  1  0.49803600  0.73956000  0.84167600  1
  Li  Li1  1  0.06306400  0.23419100  0.42833200  1
  Li  Li2  1  0.63904700  0.36095300  0.75000000  1
  Li  Li3  1  0.76580900  0.93693600  0.07166800  1
  Li  Li4  1  0.26044000  0.50196400  0.65832400  1
  Li  Li5  1  0.00000000  0.50000000  0.00000000  1
  Li  Li6  1  0.73956000  0.49803600  0.34167600  1
  Li  Li7  1  0.23419100  0.06306400  0.92833200  1
  Li  Li8  1  0.36095300  0.63904700  0.25000000  1
  Li  Li9  1  0.93693600  0.76580900  0.57166800  1
  Li  Li10  1  0.50196400  0.26044000  0.15832400  1
  Li  Li11  1  0.50000000  0.00000000  0.50000000  1
  Mn  Mn0  1  0.21389700  0.70988800  0.03050100  1
  Mn  Mn1  1  0.86053000  0.79431000  0.33507600  1
  Mn  Mn2  1  0.20569000  0.13947000  0.16492400  1
  Mn  Mn3  1  0.29011200  0.78610300  0.46949900  1
  Mn  Mn4  1  0.70988800  0.21389700  0.53050100  1
  Mn  Mn5  1  0.79431000  0.86053000  0.83507600  1
  Mn  Mn6  1  0.13947000  0.20569000  0.66492400  1
  Mn  Mn7  1  0.78610300  0.29011200  0.96949900  1
  P  P0  1  0.02071600  0.97620100  0.86783800  1
  P  P1  1  0.05047500  0.54297200  0.19374300  1
  P  P2  1  0.66199500  0.59308500  0.52724100  1
  P  P3  1  0.40691500  0.33800500  0.97275900  1
  P  P4  1  0.45702800  0.94952500  0.30625700  1
  P  P5  1  0.02379900  0.97928400  0.63216200  1
  P  P6  1  0.97620100  0.02071600  0.36783800  1
  P  P7  1  0.54297200  0.05047500  0.69374300  1
  P  P8  1  0.59308500  0.66199500  0.02724100  1
  P  P9  1  0.33800500  0.40691500  0.47275900  1
  P  P10  1  0.94952500  0.45702800  0.80625700  1
  P  P11  1  0.97928400  0.02379900  0.13216200  1
  O  O0  1  0.58800600  0.92874300  0.79047700  1
  O  O1  1  0.71358200  0.97669600  0.61126700  1
  O  O2  1  0.82241900  0.99018600  0.37204500  1
  O  O3  1  0.13743400  0.93893700  0.05126500  1
  O  O4  1  0.45812200  0.69490600  0.97871800  1
  O  O5  1  0.01077800  0.86469300  0.21978000  1
  O  O6  1  0.20766000  0.89386900  0.88420200  1
  O  O7  1  0.24952500  0.50050600  0.17325000  1
  O  O8  1  0.80098800  0.67300900  0.46674600  1
  O  O9  1  0.60756300  0.97461100  0.30707800  1
  O  O10  1  0.67539200  0.51030200  0.62614100  1
  O  O11  1  0.92874300  0.58800600  0.29047700  1
  O  O12  1  0.24165700  0.52931500  0.98236400  1
  O  O13  1  0.97669600  0.71358200  0.11126700  1
  O  O14  1  0.47068500  0.75834300  0.51763600  1
  O  O15  1  0.99018600  0.82241900  0.87204500  1
  O  O16  1  0.48969800  0.32460800  0.87385800  1
  O  O17  1  0.93893700  0.13743400  0.55126500  1
  O  O18  1  0.02538900  0.39243700  0.19292200  1
  O  O19  1  0.69490600  0.45812200  0.47871800  1
  O  O20  1  0.86469300  0.01077800  0.71978000  1
  O  O21  1  0.32699100  0.19901200  0.03325400  1
  O  O22  1  0.10613100  0.79234000  0.61579800  1
  O  O23  1  0.49949400  0.75047500  0.32675000  1
  O  O24  1  0.50050600  0.24952500  0.67325000  1
  O  O25  1  0.89386900  0.20766000  0.38420200  1
  O  O26  1  0.67300900  0.80098800  0.96674600  1
  O  O27  1  0.13530700  0.98922200  0.28022000  1
  O  O28  1  0.30509400  0.54187800  0.52128200  1
  O  O29  1  0.97461100  0.60756300  0.80707800  1
  O  O30  1  0.06106300  0.86256600  0.44873500  1
  O  O31  1  0.51030200  0.67539200  0.12614100  1
  O  O32  1  0.00981400  0.17758100  0.12795500  1
  O  O33  1  0.52931500  0.24165700  0.48236400  1
  O  O34  1  0.02330400  0.28641800  0.88873300  1
  O  O35  1  0.75834300  0.47068500  0.01763600  1
  O  O36  1  0.07125700  0.41199400  0.70952300  1
  O  O37  1  0.32460800  0.48969800  0.37385900  1
  O  O38  1  0.39243700  0.02538900  0.69292200  1
  O  O39  1  0.19901200  0.32699100  0.53325400  1
  O  O40  1  0.75047500  0.49949400  0.82675000  1
  O  O41  1  0.79234000  0.10613100  0.11579800  1
  O  O42  1  0.98922200  0.13530700  0.78022000  1
  O  O43  1  0.54187800  0.30509400  0.02128200  1
  O  O44  1  0.86256600  0.06106300  0.94873500  1
  O  O45  1  0.17758100  0.00981400  0.62795500  1
  O  O46  1  0.28641800  0.02330400  0.38873300  1
  O  O47  1  0.41199400  0.07125700  0.20952300  1
loop_
_geom_bond_atom_site_label_1
_geom_bond_atom_site_label_2
_geom_bond_distance
_geom_bond_site_symmetry_2
Li0 O4 2.027557 1_555
Li0 O0 2.030117 1_555
Li0 O40 2.139723 1_555
Li0 O6 2.154984 1_555
Li1 O17 1.951180 1_455
Li1 O46 1.974514 1_555
Li1 O25 2.129216 1_455
Li2 O16 1.924152 1_555
Li2 O10 1.924164 1_555
Li3 O44 1.951180 1_564
Li3 O13 1.974514 1_555
Li3 O41 2.129216 1_565
Li4 O28 2.027557 1_555
Li4 O36 2.030117 1_555
Li4 O24 2.139723 1_555
Li4 O22 2.154984 1_555
Li5 O12 2.256106 1_554
Li5 O35 2.256106 1_455
Li6 O19 2.027557 1_555
Li6 O11 2.030117 1_555
Li6 O23 2.139723 1_555
Li6 O25 2.154984 1_555
Li7 O3 1.951180 1_546
Li7 O34 1.974514 1_555
Li7 O6 2.129216 1_545
Li8 O31 1.924164 1_555
Li8 O37 1.924164 1_555
Li9 O30 1.951180 1_655
Li9 O1 1.974514 1_555
Li9 O22 2.129216 1_655
Li10 O43 2.027557 1_555
Li10 O47 2.030117 1_555
Li10 O7 2.139723 1_555
Li10 O41 2.154984 1_555
Li11 O33 2.256106 1_555
Li11 O14 2.256106 1_545
Mn0 O3 1.947010 1_555
Mn0 O4 1.967455 1_554
Mn0 O12 1.981025 1_554
Mn0 O13 1.993328 1_455
Mn0 O6 2.285582 1_554
Mn0 O7 2.335091 1_555
Mn1 O5 1.905014 1_655
Mn1 O2 1.943655 1_555
Mn1 O8 1.964996 1_555
Mn1 O11 1.999184 1_555
Mn1 O9 2.080985 1_555
Mn2 O27 1.905014 1_545
Mn2 O32 1.943655 1_555
Mn2 O21 1.964996 1_555
Mn2 O47 1.999184 1_555
Mn2 O18 2.080985 1_555
Mn3 O30 1.947010 1_555
Mn3 O28 1.967455 1_555
Mn3 O14 1.981025 1_555
Mn3 O46 1.993328 1_565
Mn3 O22 2.285582 1_555
Mn3 O23 2.335091 1_555
Mn4 O17 1.947010 1_555
Mn4 O19 1.967455 1_555
Mn4 O33 1.981025 1_555
Mn4 O1 1.993328 1_545
Mn4 O25 2.285582 1_555
Mn4 O24 2.335091 1_555
Mn5 O20 1.905014 1_565
Mn5 O15 1.943655 1_555
Mn5 O26 1.964996 1_555
Mn5 O0 1.999184 1_555
Mn5 O29 2.080985 1_555
Mn6 O42 1.905014 1_455
Mn6 O45 1.943655 1_555
Mn6 O39 1.964996 1_555
Mn6 O36 1.999184 1_555
Mn6 O38 2.080985 1_555
Mn7 O44 1.947010 1_555
Mn7 O43 1.967455 1_556
Mn7 O35 1.981025 1_556
Mn7 O34 1.993328 1_655
Mn7 O41 2.285582 1_556
Mn7 O40 2.335091 1_555
O0 P7 1.582671 1_565
O1 P7 1.598135 1_565
O2 P6 1.549542 1_565
O3 P11 1.573960 1_465
O4 P8 1.579503 1_556
O5 P11 1.546445 1_465
O6 P0 1.537415 1_555
O7 P1 1.544349 1_555
O8 P2 1.571380 1_555
O9 P4 1.523941 1_555
O10 P2 1.509039 1_555
O11 P1 1.582671 1_655
O12 P3 1.573917 1_555
O13 P1 1.598135 1_655
O14 P2 1.573917 1_555
O15 P0 1.549542 1_655
O16 P3 1.509054 1_555
O17 P5 1.573960 1_645
O18 P1 1.523941 1_555
O19 P2 1.579503 1_555
O20 P5 1.546445 1_645
O21 P3 1.571380 1_554
O22 P5 1.537415 1_555
O23 P4 1.544349 1_555
O24 P7 1.544349 1_555
O25 P6 1.537415 1_555
O26 P8 1.571380 1_556
O27 P6 1.546445 1_465
O28 P9 1.579503 1_555
O29 P10 1.523941 1_555
O30 P6 1.573960 1_465
O31 P8 1.509039 1_555
O32 P11 1.549542 1_455
O33 P9 1.573917 1_555
O34 P10 1.598135 1_455
O35 P8 1.573917 1_555
O36 P10 1.582671 1_455
O37 P9 1.509039 1_555
O38 P7 1.523941 1_555
O39 P9 1.571380 1_555
O40 P10 1.544349 1_555
O41 P11 1.537415 1_555
O42 P0 1.546445 1_645
O43 P3 1.579503 1_554
O44 P0 1.573960 1_645
O45 P5 1.549542 1_545
O46 P4 1.598135 1_545
O47 P4 1.582671 1_545
