# generated using pymatgen
data_V18Ag7O48
_symmetry_space_group_name_H-M   'P 1'
_cell_length_a   8.36005100
_cell_length_b   10.45803988
_cell_length_c   12.90575252
_cell_angle_alpha   113.79279129
_cell_angle_beta   82.17040003
_cell_angle_gamma   109.87864183
_symmetry_Int_Tables_number   1
_chemical_formula_structural   V18Ag7O48
_chemical_formula_sum   'V18 Ag7 O48'
_cell_volume   970.92985806
_cell_formula_units_Z   1
loop_
 _symmetry_equiv_pos_site_id
 _symmetry_equiv_pos_as_xyz
  1  'x, y, z'
loop_
 _atom_site_type_symbol
 _atom_site_label
 _atom_site_symmetry_multiplicity
 _atom_site_fract_x
 _atom_site_fract_y
 _atom_site_fract_z
 _atom_site_occupancy
  V  V0  1  0.17835800  0.07399100  0.07879100  1
  V  V1  1  0.48596300  0.59316600  0.92080200  1
  V  V2  1  0.15557900  0.25887900  0.91950800  1
  V  V3  1  0.14456600  0.82308500  0.54087600  1
  V  V4  1  0.47814000  0.15570000  0.53987500  1
  V  V5  1  0.81156900  0.49038200  0.54089400  1
  V  V6  1  0.86343200  0.59817300  0.81046200  1
  V  V7  1  0.19644800  0.93204800  0.81032300  1
  V  V8  1  0.52696300  0.26566100  0.80705500  1
  V  V9  1  0.47090300  0.73512200  0.18974700  1
  V  V10  1  0.80843500  0.06904400  0.19304900  1
  V  V11  1  0.13941600  0.40408400  0.19651100  1
  V  V12  1  0.52210400  0.84300200  0.45930300  1
  V  V13  1  0.18896000  0.51050200  0.46014100  1
  V  V14  1  0.85546000  0.17747900  0.46029400  1
  V  V15  1  0.50642400  0.41312800  0.08163800  1
  V  V16  1  0.84668200  0.74154200  0.07906800  1
  V  V17  1  0.82075400  0.92310100  0.91936300  1
  Ag  Ag0  1  0.19101500  0.37060200  0.68109900  1
  Ag  Ag1  1  0.14267600  0.96252700  0.31856300  1
  Ag  Ag2  1  0.47524800  0.29655600  0.31988700  1
  Ag  Ag3  1  0.52420900  0.70298900  0.68084000  1
  Ag  Ag4  1  0.85841000  0.03543700  0.67964300  1
  Ag  Ag5  1  0.81011800  0.63117400  0.31993500  1
  Ag  Ag6  1  0.78792900  0.25224900  0.02105000  1
  O  O0  1  0.30055800  0.50056200  0.55266500  1
  O  O1  1  0.05810400  0.25363500  0.81306500  1
  O  O2  1  0.38964500  0.58736800  0.81424300  1
  O  O3  1  0.27532700  0.07959200  0.18503600  1
  O  O4  1  0.03310800  0.83397800  0.44905600  1
  O  O5  1  0.36610300  0.16626400  0.44823400  1
  O  O6  1  0.03417900  0.07126800  0.92844200  1
  O  O7  1  0.36994100  0.40630200  0.92843800  1
  O  O8  1  0.70101400  0.73844500  0.92804000  1
  O  O9  1  0.74778200  0.58945600  0.67622300  1
  O  O10  1  0.08128400  0.92279800  0.67634900  1
  O  O11  1  0.41404700  0.25609000  0.67594100  1
  O  O12  1  0.98215900  0.79744500  0.82747900  1
  O  O13  1  0.31496900  0.13090600  0.82707100  1
  O  O14  1  0.64886300  0.46431400  0.82684300  1
  O  O15  1  0.35221700  0.83395200  0.27003300  1
  O  O16  1  0.68675900  0.16809400  0.26922500  1
  O  O17  1  0.01516900  0.50223800  0.27177300  1
  O  O18  1  0.36320700  0.96322900  0.53867500  1
  O  O19  1  0.69607500  0.29607900  0.53889400  1
  O  O20  1  0.02949100  0.62981700  0.53901800  1
  O  O21  1  0.39882900  0.69946700  0.04513700  1
  O  O22  1  0.73191500  0.03338200  0.04398500  1
  O  O23  1  0.06670000  0.36557300  0.04194100  1
  O  O24  1  0.26878600  0.96835800  0.95383400  1
  O  O25  1  0.93450700  0.63311500  0.95329400  1
  O  O26  1  0.59641000  0.30124200  0.95348300  1
  O  O27  1  0.63674300  0.03745200  0.46143700  1
  O  O28  1  0.96992900  0.37004200  0.46165600  1
  O  O29  1  0.30392800  0.70424200  0.46165900  1
  O  O30  1  0.31450100  0.83275500  0.73014200  1
  O  O31  1  0.64761600  0.16671600  0.73066700  1
  O  O32  1  0.98110000  0.49888900  0.72971900  1
  O  O33  1  0.01341300  0.19613100  0.17117900  1
  O  O34  1  0.68591000  0.86757500  0.17075700  1
  O  O35  1  0.35909900  0.53888200  0.17062600  1
  O  O36  1  0.58730100  0.74477000  0.32457700  1
  O  O37  1  0.91868300  0.07616100  0.32501200  1
  O  O38  1  0.25522500  0.41082000  0.32680700  1
  O  O39  1  0.29796500  0.26184000  0.07241900  1
  O  O40  1  0.63449100  0.59400300  0.07041900  1
  O  O41  1  0.96543100  0.92657300  0.07060700  1
  O  O42  1  0.63413600  0.83357400  0.55181400  1
  O  O43  1  0.96724500  0.16701700  0.55220700  1
  O  O44  1  0.72416500  0.92038500  0.81385300  1
  O  O45  1  0.60707800  0.41277800  0.18462000  1
  O  O46  1  0.94289200  0.74595500  0.18491100  1
  O  O47  1  0.69904100  0.49982800  0.44884200  1
loop_
_geom_bond_atom_site_label_1
_geom_bond_atom_site_label_2
_geom_bond_distance
_geom_bond_site_symmetry_2
Ag0 O1 2.423348 1_555
Ag0 O32 2.428015 1_455
Ag0 O2 2.433833 1_555
Ag0 O0 2.447651 1_555
Ag0 O43 2.466035 1_455
Ag0 O11 2.517057 1_555
Ag1 O15 2.427444 1_555
Ag1 O46 2.440249 1_455
Ag1 O3 2.440613 1_565
Ag1 O4 2.460009 1_555
Ag1 O5 2.469304 1_565
Ag1 O37 2.513346 1_465
Ag2 O16 2.439436 1_555
Ag2 O5 2.448827 1_555
Ag2 O3 2.449077 1_555
Ag2 O45 2.452830 1_555
Ag2 O47 2.465403 1_555
Ag2 O38 2.486621 1_555
Ag3 O2 2.432842 1_555
Ag3 O30 2.436706 1_555
Ag3 O44 2.440982 1_555
Ag3 O0 2.457483 1_555
Ag3 O42 2.459030 1_555
Ag3 O9 2.515660 1_555
Ag4 O44 2.437414 1_545
Ag4 O1 2.445678 1_655
Ag4 O43 2.448104 1_555
Ag4 O31 2.454339 1_555
Ag4 O42 2.456542 1_545
Ag4 O10 2.508337 1_645
Ag5 O17 2.397620 1_655
Ag5 O46 2.442185 1_555
Ag5 O4 2.460965 1_655
Ag5 O47 2.464213 1_555
Ag5 O45 2.469905 1_555
Ag5 O36 2.510357 1_555
Ag6 O26 2.210259 1_554
Ag6 O23 2.223447 1_655
Ag6 O22 2.307816 1_555
Ag6 O45 2.749130 1_555
O0 V13 1.666350 1_555
O1 V2 1.663733 1_555
O2 V1 1.656660 1_555
O3 V0 1.657249 1_555
O4 V3 1.663553 1_555
O5 V4 1.663091 1_555
O6 V17 1.904887 1_445
O6 V2 1.920781 1_555
O6 V7 2.296286 1_545
O6 V0 2.405822 1_556
O7 V1 1.899954 1_555
O7 V2 1.906771 1_555
O7 V8 2.287850 1_555
O7 V15 2.379396 1_556
O8 V17 1.890294 1_555
O8 V1 1.903411 1_555
O8 V6 2.301178 1_555
O8 V16 2.419116 1_556
O9 V5 1.752185 1_555
O9 V6 2.052677 1_555
O10 V3 1.753922 1_555
O10 V7 2.044777 1_555
O11 V4 1.763992 1_555
O11 V8 1.999674 1_555
O12 V6 1.913075 1_555
O12 V7 1.915301 1_655
O12 V17 2.113394 1_555
O13 V7 1.909924 1_545
O13 V8 1.914217 1_555
O13 V2 2.116925 1_555
O14 V8 1.903385 1_555
O14 V6 1.910473 1_555
O14 V1 2.149550 1_555
O15 V9 1.636946 1_555
O16 V10 1.642160 1_555
O17 V11 1.649790 1_555
O18 V4 1.907548 1_565
O18 V3 1.920291 1_555
O18 V12 2.029957 1_555
O19 V4 1.914326 1_555
O19 V5 1.921527 1_555
O19 V14 2.020731 1_555
O20 V5 1.912036 1_455
O20 V3 1.912114 1_555
O20 V13 2.026637 1_555
O21 V1 1.770390 1_554
O21 V9 1.891366 1_555
O22 V17 1.796916 1_544
O22 V10 1.960461 1_555
O23 V2 1.764993 1_554
O23 V11 2.006690 1_555
O24 V0 1.786316 1_566
O24 V7 1.876642 1_555
O25 V16 1.793336 1_556
O25 V6 1.868637 1_555
O26 V15 1.835407 1_556
O26 V8 1.905616 1_555
O27 V14 1.917600 1_555
O27 V12 1.921266 1_545
O27 V4 2.012820 1_555
O28 V14 1.907104 1_555
O28 V13 1.922324 1_655
O28 V5 2.026853 1_555
O29 V12 1.911569 1_555
O29 V13 1.917856 1_555
O29 V3 2.023514 1_555
O30 V7 1.635488 1_555
O31 V8 1.635795 1_555
O32 V6 1.635230 1_555
O33 V10 1.845175 1_455
O33 V11 1.976967 1_555
O33 V0 2.115607 1_555
O34 V9 1.915825 1_555
O34 V10 1.922190 1_565
O34 V16 2.111162 1_555
O35 V9 1.869788 1_555
O35 V11 1.980909 1_555
O35 V15 2.015686 1_555
O36 V12 1.748433 1_555
O36 V9 2.058612 1_555
O37 V14 1.757014 1_555
O37 V10 2.008547 1_555
O38 V13 1.743656 1_555
O38 V11 2.017818 1_555
O39 V15 1.893150 1_555
O39 V0 1.907367 1_555
O39 V11 2.318393 1_555
O39 V2 2.424454 1_554
O40 V15 1.883312 1_555
O40 V16 1.895684 1_555
O40 V9 2.320560 1_555
O40 V1 2.429520 1_554
O41 V16 1.891158 1_555
O41 V0 1.900055 1_665
O41 V10 2.303217 1_565
O41 V17 2.414619 1_554
O42 V12 1.665783 1_555
O43 V14 1.663936 1_555
O44 V17 1.661266 1_555
O45 V15 1.668896 1_555
O46 V16 1.654752 1_555
O47 V5 1.663876 1_555
