# generated using pymatgen
data_Lu2RuRh
_symmetry_space_group_name_H-M   'P 1'
_cell_length_a   4.68191417
_cell_length_b   4.68191417
_cell_length_c   4.68191417
_cell_angle_alpha   60.00000000
_cell_angle_beta   60.00000000
_cell_angle_gamma   60.00000000
_symmetry_Int_Tables_number   1
_chemical_formula_structural   Lu2RuRh
_chemical_formula_sum   'Lu2 Ru1 Rh1'
_cell_volume   72.56970310
_cell_formula_units_Z   1
loop_
 _symmetry_equiv_pos_site_id
 _symmetry_equiv_pos_as_xyz
  1  'x, y, z'
loop_
 _atom_site_type_symbol
 _atom_site_label
 _atom_site_symmetry_multiplicity
 _atom_site_fract_x
 _atom_site_fract_y
 _atom_site_fract_z
 _atom_site_occupancy
  Lu  Lu0  1  0.50000000  0.50000000  0.50000000  1
  Lu  Lu1  1  -0.00000000  -0.00000000  0.00000000  1
  Ru  Ru0  1  0.75000000  0.75000000  0.75000000  1
  Rh  Rh0  1  0.25000100  0.25000100  0.25000100  1
loop_
_geom_bond_atom_site_label_1
_geom_bond_atom_site_label_2
_geom_bond_distance
_geom_bond_site_symmetry_2
Lu0 Rh0 2.867064 1_555
Lu0 Ru0 2.867075 1_545
Lu0 Ru0 2.867075 1_555
Lu0 Ru0 2.867075 1_455
Lu0 Ru0 2.867075 1_554
Lu0 Rh0 2.867079 1_565
Lu0 Rh0 2.867079 1_655
Lu0 Rh0 2.867079 1_556
Lu1 Rh0 2.867071 1_545
Lu1 Rh0 2.867071 1_554
Lu1 Rh0 2.867071 1_455
Lu1 Ru0 2.867075 1_454
Lu1 Ru0 2.867075 1_544
Lu1 Ru0 2.867075 1_444
Lu1 Ru0 2.867075 1_445
Lu1 Rh0 2.867087 1_555
