# generated using pymatgen
data_BaCuP2O7
_symmetry_space_group_name_H-M   'P 1'
_cell_length_a   5.27706500
_cell_length_b   7.66752926
_cell_length_c   7.68067007
_cell_angle_alpha   103.60480774
_cell_angle_beta   91.67171063
_cell_angle_gamma   95.40162692
_symmetry_Int_Tables_number   1
_chemical_formula_structural   BaCuP2O7
_chemical_formula_sum   'Ba2 Cu2 P4 O14'
_cell_volume   300.29117195
_cell_formula_units_Z   2
loop_
 _symmetry_equiv_pos_site_id
 _symmetry_equiv_pos_as_xyz
  1  'x, y, z'
loop_
 _atom_site_type_symbol
 _atom_site_label
 _atom_site_symmetry_multiplicity
 _atom_site_fract_x
 _atom_site_fract_y
 _atom_site_fract_z
 _atom_site_occupancy
  Ba  Ba0  1  0.19322100  0.77687600  0.92891400  1
  Ba  Ba1  1  0.80677900  0.22312400  0.07108600  1
  Cu  Cu0  1  0.81969100  0.35601900  0.59696600  1
  Cu  Cu1  1  0.18030900  0.64398100  0.40303400  1
  P  P0  1  0.71316400  0.80814100  0.60035800  1
  P  P1  1  0.28683600  0.19185900  0.39964200  1
  P  P2  1  0.68899500  0.73380900  0.21953100  1
  P  P3  1  0.31100500  0.26619100  0.78046900  1
  O  O0  1  0.90729800  0.66415600  0.58425000  1
  O  O1  1  0.09270200  0.33584400  0.41575000  1
  O  O2  1  0.78699600  0.96763300  0.75482400  1
  O  O3  1  0.21300400  0.03236700  0.24517600  1
  O  O4  1  0.43672700  0.72246100  0.60445400  1
  O  O5  1  0.56327300  0.27753900  0.39554600  1
  O  O6  1  0.72842700  0.87572600  0.41434400  1
  O  O7  1  0.27157300  0.12427400  0.58565600  1
  O  O8  1  0.57401300  0.37564200  0.78835000  1
  O  O9  1  0.42598700  0.62435800  0.21165000  1
  O  O10  1  0.29872600  0.15778900  0.92282300  1
  O  O11  1  0.70127400  0.84221100  0.07717700  1
  O  O12  1  0.09029700  0.38872100  0.79505800  1
  O  O13  1  0.90970300  0.61127900  0.20494200  1
loop_
_geom_bond_atom_site_label_1
_geom_bond_atom_site_label_2
_geom_bond_distance
_geom_bond_site_symmetry_2
Ba0 O3 2.730770 1_566
Ba0 O4 2.798989 1_555
Ba0 O11 2.834832 1_556
Ba0 O12 2.904013 1_555
Ba0 O11 2.904495 1_456
Ba0 O0 2.911454 1_455
Ba0 O10 2.932930 1_565
Ba0 O9 2.983579 1_556
Ba0 O13 3.072325 1_456
Ba0 O2 3.140971 1_455
Ba1 O2 2.730770 1_544
Ba1 O5 2.798989 1_555
Ba1 O10 2.834832 1_554
Ba1 O13 2.904013 1_555
Ba1 O10 2.904495 1_654
Ba1 O1 2.911454 1_655
Ba1 O11 2.932930 1_545
Ba1 O8 2.983579 1_554
Ba1 O12 3.072325 1_654
Ba1 O3 3.140971 1_655
Cu0 O5 1.967998 1_555
Cu0 O8 1.976888 1_555
Cu0 O12 2.010800 1_655
Cu0 O1 2.023481 1_655
Cu0 O0 2.389754 1_555
Cu1 O4 1.967998 1_555
Cu1 O9 1.976888 1_555
Cu1 O13 2.010800 1_455
Cu1 O0 2.023481 1_455
Cu1 O1 2.389754 1_555
O0 P0 1.561965 1_555
O1 P1 1.561965 1_555
O2 P0 1.501875 1_555
O3 P1 1.501875 1_555
O4 P0 1.546795 1_555
O5 P1 1.546795 1_555
O6 P2 1.624652 1_555
O6 P0 1.631996 1_555
O7 P3 1.624652 1_555
O7 P1 1.631996 1_555
O8 P3 1.544718 1_555
O9 P2 1.544718 1_555
O10 P3 1.520542 1_555
O11 P2 1.520542 1_555
O12 P3 1.554293 1_555
O13 P2 1.554293 1_555
