# generated using pymatgen
data_HoLuMg2
_symmetry_space_group_name_H-M   'P 1'
_cell_length_a   5.29245186
_cell_length_b   5.29245186
_cell_length_c   5.29245186
_cell_angle_alpha   60.00000000
_cell_angle_beta   60.00000000
_cell_angle_gamma   60.00000000
_symmetry_Int_Tables_number   1
_chemical_formula_structural   HoLuMg2
_chemical_formula_sum   'Ho1 Lu1 Mg2'
_cell_volume   104.82279886
_cell_formula_units_Z   1
loop_
 _symmetry_equiv_pos_site_id
 _symmetry_equiv_pos_as_xyz
  1  'x, y, z'
loop_
 _atom_site_type_symbol
 _atom_site_label
 _atom_site_symmetry_multiplicity
 _atom_site_fract_x
 _atom_site_fract_y
 _atom_site_fract_z
 _atom_site_occupancy
  Ho  Ho0  1  0.25000000  0.25000000  0.25000000  1
  Lu  Lu0  1  0.75000000  0.75000000  0.75000000  1
  Mg  Mg0  1  0.00000000  -0.00000000  -0.00000000  1
  Mg  Mg1  1  0.50000000  0.50000000  0.50000000  1
loop_
_geom_bond_atom_site_label_1
_geom_bond_atom_site_label_2
_geom_bond_distance
_geom_bond_site_symmetry_2
Ho0 Mg0 3.240952 1_556
Ho0 Mg1 3.240952 1_555
Ho0 Mg1 3.240952 1_554
Ho0 Mg0 3.240952 1_565
Ho0 Mg1 3.240952 1_455
Ho0 Mg0 3.240952 1_555
Ho0 Mg1 3.240952 1_545
Ho0 Mg0 3.240952 1_655
Lu0 Mg0 3.240952 1_665
Lu0 Mg0 3.240952 1_666
Lu0 Mg1 3.240952 1_555
Lu0 Mg1 3.240952 1_655
Lu0 Mg1 3.240952 1_565
Lu0 Mg0 3.240952 1_656
Lu0 Mg1 3.240952 1_556
Lu0 Mg0 3.240952 1_566
