# generated using pymatgen
data_La3AlCrS7
_symmetry_space_group_name_H-M   'P 1'
_cell_length_a   10.21405243
_cell_length_b   10.21405243
_cell_length_c   6.05038200
_cell_angle_alpha   90.00000000
_cell_angle_beta   90.00000000
_cell_angle_gamma   120.00000276
_symmetry_Int_Tables_number   1
_chemical_formula_structural   La3AlCrS7
_chemical_formula_sum   'La6 Al2 Cr2 S14'
_cell_volume   546.65028679
_cell_formula_units_Z   2
loop_
 _symmetry_equiv_pos_site_id
 _symmetry_equiv_pos_as_xyz
  1  'x, y, z'
loop_
 _atom_site_type_symbol
 _atom_site_label
 _atom_site_symmetry_multiplicity
 _atom_site_fract_x
 _atom_site_fract_y
 _atom_site_fract_z
 _atom_site_occupancy
  La  La0  1  0.14156800  0.37406500  0.24590800  1
  La  La1  1  0.85843200  0.62593500  0.74590800  1
  La  La2  1  0.62593500  0.76750300  0.24590800  1
  La  La3  1  0.23249700  0.85843200  0.24590800  1
  La  La4  1  0.76750300  0.14156800  0.74590800  1
  La  La5  1  0.37406500  0.23249700  0.74590800  1
  Al  Al0  1  0.33333300  0.66666700  0.66514100  1
  Al  Al1  1  0.66666700  0.33333300  0.16514100  1
  Cr  Cr0  1  0.00000000  0.00000000  0.02676400  1
  Cr  Cr1  1  0.00000000  0.00000000  0.52676400  1
  S  S0  1  0.33333300  0.66666700  0.03327800  1
  S  S1  1  0.66666700  0.33333300  0.53327800  1
  S  S2  1  0.41958000  0.51945200  0.52163000  1
  S  S3  1  0.58042000  0.48054800  0.02163000  1
  S  S4  1  0.48054800  0.90012900  0.52163000  1
  S  S5  1  0.09987100  0.58042000  0.52163000  1
  S  S6  1  0.90012900  0.41958000  0.02163000  1
  S  S7  1  0.51945200  0.09987100  0.02163000  1
  S  S8  1  0.08766100  0.22918300  0.77874900  1
  S  S9  1  0.91233900  0.77081700  0.27874900  1
  S  S10  1  0.77081700  0.85847800  0.77874900  1
  S  S11  1  0.14152200  0.91233900  0.77874900  1
  S  S12  1  0.85847800  0.08766100  0.27874900  1
  S  S13  1  0.22918300  0.14152200  0.27874900  1
loop_
_geom_bond_atom_site_label_1
_geom_bond_atom_site_label_2
_geom_bond_distance
_geom_bond_site_symmetry_2
La0 S5 2.881755 1_555
La0 S12 2.915348 1_455
La0 S0 2.927411 1_555
La0 S13 2.933858 1_555
La0 S2 2.972345 1_555
La0 S6 3.047203 1_455
La0 S8 3.109230 1_554
La0 S8 3.474441 1_555
La1 S6 2.881755 1_556
La1 S11 2.915348 1_655
La1 S1 2.927411 1_555
La1 S10 2.933858 1_555
La1 S3 2.972345 1_556
La1 S5 3.047203 1_655
La1 S9 3.109230 1_555
La1 S9 3.474441 1_556
La2 S2 2.881750 1_555
La2 S9 2.915348 1_555
La2 S0 2.927413 1_555
La2 S12 2.933858 1_565
La2 S4 2.972353 1_555
La2 S3 3.047212 1_555
La2 S10 3.109230 1_554
La2 S10 3.474441 1_555
La3 S4 2.881747 1_555
La3 S13 2.915348 1_565
La3 S0 2.927404 1_555
La3 S9 2.933858 1_455
La3 S5 2.972345 1_555
La3 S7 3.047209 1_565
La3 S11 3.109230 1_554
La3 S11 3.474441 1_555
La4 S7 2.881747 1_556
La4 S10 2.915348 1_545
La4 S1 2.927404 1_555
La4 S8 2.933858 1_655
La4 S6 2.972345 1_556
La4 S4 3.047209 1_545
La4 S12 3.109230 1_555
La4 S12 3.474441 1_556
La5 S3 2.881750 1_556
La5 S8 2.915348 1_555
La5 S1 2.927413 1_555
La5 S11 2.933858 1_545
La5 S7 2.972353 1_556
La5 S2 3.047212 1_555
La5 S13 3.109230 1_555
La5 S13 3.474441 1_556
Al0 S0 2.227369 1_556
Al0 S4 2.261769 1_555
Al0 S5 2.261769 1_555
Al0 S2 2.261769 1_555
Al1 S1 2.227369 1_555
Al1 S7 2.261769 1_555
Al1 S6 2.261769 1_555
Al1 S3 2.261769 1_555
Cr0 S10 2.537171 1_444
Cr0 S8 2.537171 1_554
Cr0 S11 2.537171 1_544
Cr0 S13 2.551450 1_555
Cr0 S9 2.551450 1_445
Cr0 S12 2.551451 1_455
Cr1 S13 2.537171 1_555
Cr1 S9 2.537171 1_445
Cr1 S12 2.537171 1_455
Cr1 S10 2.551450 1_445
Cr1 S8 2.551450 1_555
Cr1 S11 2.551451 1_545
