# generated using pymatgen
data_TmSb(PbO3)2
_symmetry_space_group_name_H-M   'P 1'
_cell_length_a   5.88073660
_cell_length_b   5.88073660
_cell_length_c   10.21978515
_cell_angle_alpha   74.03000840
_cell_angle_beta   74.03000840
_cell_angle_gamma   59.65659614
_symmetry_Int_Tables_number   1
_chemical_formula_structural   TmSb(PbO3)2
_chemical_formula_sum   'Tm2 Sb2 Pb4 O12'
_cell_volume   289.26966924
_cell_formula_units_Z   2
loop_
 _symmetry_equiv_pos_site_id
 _symmetry_equiv_pos_as_xyz
  1  'x, y, z'
loop_
 _atom_site_type_symbol
 _atom_site_label
 _atom_site_symmetry_multiplicity
 _atom_site_fract_x
 _atom_site_fract_y
 _atom_site_fract_z
 _atom_site_occupancy
  Tm  Tm0  1  0.75705200  0.24294800  0.25000000  1
  Tm  Tm1  1  0.24294800  0.75705200  0.75000000  1
  Sb  Sb0  1  0.50000000  0.00000000  0.00000000  1
  Sb  Sb1  1  0.00000000  0.50000000  0.50000000  1
  Pb  Pb0  1  0.10853500  0.62983200  0.12540700  1
  Pb  Pb1  1  0.37016800  0.89146500  0.37459300  1
  Pb  Pb2  1  0.89146500  0.37016800  0.87459300  1
  Pb  Pb3  1  0.62983200  0.10853500  0.62540700  1
  O  O0  1  0.63679900  0.67329400  0.61842600  1
  O  O1  1  0.32670600  0.36320100  0.88157400  1
  O  O2  1  0.36320100  0.32670600  0.38157400  1
  O  O3  1  0.67329400  0.63679900  0.11842600  1
  O  O4  1  0.81609500  0.88189100  0.84851000  1
  O  O5  1  0.11810900  0.18390500  0.65149000  1
  O  O6  1  0.18390500  0.11810900  0.15149000  1
  O  O7  1  0.88189100  0.81609500  0.34851000  1
  O  O8  1  0.69031400  0.11743700  0.08304400  1
  O  O9  1  0.88256300  0.30968600  0.41695600  1
  O  O10  1  0.30968600  0.88256300  0.91695600  1
  O  O11  1  0.11743700  0.69031400  0.58304400  1
loop_
_geom_bond_atom_site_label_1
_geom_bond_atom_site_label_2
_geom_bond_distance
_geom_bond_site_symmetry_2
O0 Sb1 2.030364 1_655
O0 Tm1 2.216583 1_555
O0 Pb3 2.559477 1_565
O1 Sb0 2.030364 1_556
O1 Tm1 2.216583 1_555
O1 Pb2 2.559477 1_455
O2 Sb1 2.030364 1_555
O2 Tm0 2.216583 1_555
O2 Pb1 2.559477 1_545
O3 Sb0 2.030364 1_565
O3 Tm0 2.216583 1_555
O3 Pb0 2.559477 1_655
O4 Sb0 2.009564 1_566
O4 Tm1 2.237813 1_655
O4 Pb3 2.530208 1_565
O4 Pb2 2.756703 1_555
O5 Sb1 2.009564 1_555
O5 Tm1 2.237813 1_545
O5 Pb2 2.530208 1_455
O5 Pb3 2.756703 1_555
O6 Sb0 2.009564 1_555
O6 Tm0 2.237813 1_455
O6 Pb1 2.530208 1_545
O6 Pb0 2.756703 1_555
O7 Sb1 2.009564 1_655
O7 Tm0 2.237813 1_565
O7 Pb0 2.530208 1_655
O7 Pb1 2.756703 1_555
O8 Sb0 2.018895 1_555
O8 Tm0 2.228069 1_555
O8 Pb2 2.606510 1_554
O8 Pb0 2.689989 1_645
O9 Sb1 2.018895 1_655
O9 Tm0 2.228069 1_555
O9 Pb3 2.606510 1_555
O9 Pb1 2.689989 1_645
O10 Sb0 2.018895 1_566
O10 Tm1 2.228069 1_555
O10 Pb0 2.606510 1_556
O10 Pb2 2.689989 1_465
O11 Sb1 2.018895 1_555
O11 Tm1 2.228069 1_555
O11 Pb1 2.606510 1_555
O11 Pb3 2.689989 1_465
