# generated using pymatgen
data_CaNi4B
_symmetry_space_group_name_H-M   'P 1'
_cell_length_a   4.98582855
_cell_length_b   4.98582855
_cell_length_c   6.79854837
_cell_angle_alpha   90.00000000
_cell_angle_beta   90.00000000
_cell_angle_gamma   119.99999327
_symmetry_Int_Tables_number   1
_chemical_formula_structural   CaNi4B
_chemical_formula_sum   'Ca2 Ni8 B2'
_cell_volume   146.35970775
_cell_formula_units_Z   2
loop_
 _symmetry_equiv_pos_site_id
 _symmetry_equiv_pos_as_xyz
  1  'x, y, z'
loop_
 _atom_site_type_symbol
 _atom_site_label
 _atom_site_symmetry_multiplicity
 _atom_site_fract_x
 _atom_site_fract_y
 _atom_site_fract_z
 _atom_site_occupancy
  Ca  Ca0  1  -0.00000000  -0.00000000  0.50000000  1
  Ca  Ca1  1  -0.00000000  -0.00000000  -0.00000000  1
  Ni  Ni0  1  0.50000000  0.50000000  0.79347765  1
  Ni  Ni1  1  0.00000000  0.50000000  0.79347765  1
  Ni  Ni2  1  0.33333300  0.66666700  0.50000000  1
  Ni  Ni3  1  0.66666700  0.33333300  0.50000000  1
  Ni  Ni4  1  0.50000000  0.00000000  0.79347765  1
  Ni  Ni5  1  -0.00000000  0.50000000  0.20652235  1
  Ni  Ni6  1  0.50000000  0.50000000  0.20652235  1
  Ni  Ni7  1  0.50000000  -0.00000000  0.20652235  1
  B  B0  1  0.66666700  0.33333300  0.00000000  1
  B  B1  1  0.33333300  0.66666700  -0.00000000  1
loop_
_geom_bond_atom_site_label_1
_geom_bond_atom_site_label_2
_geom_bond_distance
_geom_bond_site_symmetry_2
Ca0 Ni2 2.878566 1_545
Ca0 Ni3 2.878566 1_455
Ca0 Ni3 2.878571 1_555
Ca0 Ni2 2.878571 1_445
Ca0 Ni2 2.878571 1_555
Ca0 Ni3 2.878571 1_445
Ca1 Ni4 2.861116 1_554
Ca1 Ni4 2.861116 1_454
Ca1 Ni7 2.861116 1_455
Ca1 Ni7 2.861116 1_555
Ca1 Ni1 2.861116 1_544
Ca1 Ni5 2.861116 1_555
Ca1 Ni5 2.861116 1_545
Ca1 Ni1 2.861116 1_554
Ca1 Ni0 2.861116 1_554
Ca1 Ni0 2.861116 1_444
Ca1 Ni6 2.861116 1_445
Ca1 Ni6 2.861116 1_555
Ni0 Ni2 2.460175 1_555
Ni0 Ni3 2.460175 1_555
Ni1 Ni2 2.460172 1_555
Ni1 Ni3 2.460172 1_455
Ni2 Ni5 2.460172 1_555
Ni2 Ni7 2.460172 1_565
Ni2 Ni4 2.460172 1_565
Ni2 Ni6 2.460175 1_555
Ni3 Ni5 2.460172 1_655
Ni3 Ni4 2.460172 1_555
Ni3 Ni7 2.460172 1_555
Ni3 Ni6 2.460175 1_555
B0 Ni5 2.010696 1_655
B0 Ni1 2.010696 1_654
B0 Ni4 2.010696 1_554
B0 Ni7 2.010696 1_555
B0 Ni6 2.010699 1_555
B0 Ni0 2.010699 1_554
B0 Ca1 2.878566 1_655
B0 Ca1 2.878571 1_555
B0 Ca1 2.878571 1_665
B1 Ni5 2.010696 1_555
B1 Ni1 2.010696 1_554
B1 Ni4 2.010696 1_564
B1 Ni7 2.010696 1_565
B1 Ni6 2.010699 1_555
B1 Ni0 2.010699 1_554
B1 Ca1 2.878566 1_565
B1 Ca1 2.878571 1_665
B1 Ca1 2.878571 1_555
