# generated using pymatgen
data_K2SiP2
_symmetry_space_group_name_H-M   'P 1'
_cell_length_a   6.09468585
_cell_length_b   6.87020751
_cell_length_c   7.95282321
_cell_angle_alpha   115.59043838
_cell_angle_beta   112.53064402
_cell_angle_gamma   90.00000331
_symmetry_Int_Tables_number   1
_chemical_formula_structural   K2SiP2
_chemical_formula_sum   'K4 Si2 P4'
_cell_volume   271.88009871
_cell_formula_units_Z   2
loop_
 _symmetry_equiv_pos_site_id
 _symmetry_equiv_pos_as_xyz
  1  'x, y, z'
loop_
 _atom_site_type_symbol
 _atom_site_label
 _atom_site_symmetry_multiplicity
 _atom_site_fract_x
 _atom_site_fract_y
 _atom_site_fract_z
 _atom_site_occupancy
  K  K0  1  0.14598025  0.98446355  0.29195949  1
  K  K1  1  0.85401975  0.01553645  0.70804051  1
  K  K2  1  0.35401975  0.69250506  0.70804051  1
  K  K3  1  0.64598025  0.30749494  0.29195949  1
  Si  Si0  1  0.75000000  0.50000000  0.00000000  1
  Si  Si1  1  0.25000000  0.50000000  0.00000000  1
  P  P0  1  0.59608990  0.76013432  0.19217881  1
  P  P1  1  0.90391010  0.56795552  0.80782119  1
  P  P2  1  0.09608990  0.43204448  0.19217881  1
  P  P3  1  0.40391010  0.23986568  0.80782119  1
loop_
_geom_bond_atom_site_label_1
_geom_bond_atom_site_label_2
_geom_bond_distance
_geom_bond_site_symmetry_2
K0 P0 3.338008 1_455
K0 P0 3.338009 1_555
K0 P3 3.349619 1_565
K0 P1 3.364281 1_454
K0 Si1 3.364986 1_555
K0 Si0 3.364989 1_455
K0 P2 3.478599 1_565
K0 P2 3.512742 1_555
K1 P3 3.338008 1_655
K1 P3 3.338009 1_555
K1 P0 3.349619 1_545
K1 P2 3.364281 1_656
K1 Si0 3.364986 1_556
K1 Si1 3.364989 1_656
K1 P1 3.478599 1_545
K1 P1 3.512742 1_555
K2 P1 3.338011 1_455
K2 P1 3.338011 1_555
K2 P2 3.349619 1_555
K2 P0 3.364284 1_556
K2 Si1 3.364991 1_556
K2 Si0 3.364994 1_556
K2 P3 3.478592 1_565
K2 P3 3.512749 1_555
K3 P2 3.338011 1_655
K3 P2 3.338011 1_555
K3 P1 3.349619 1_555
K3 P3 3.364284 1_554
K3 Si0 3.364991 1_555
K3 Si1 3.364994 1_555
K3 P0 3.478592 1_545
K3 P0 3.512749 1_555
P0 Si0 2.269112 1_555
P0 Si1 2.269116 1_555
P1 Si0 2.269112 1_556
P1 Si1 2.269116 1_656
P2 Si1 2.269112 1_555
P2 Si0 2.269116 1_455
P3 Si1 2.269112 1_556
P3 Si0 2.269116 1_556
