# generated using pymatgen
data_Rb2HgF4
_symmetry_space_group_name_H-M   'P 1'
_cell_length_a   4.58319815
_cell_length_b   4.58319956
_cell_length_c   7.60787971
_cell_angle_alpha   107.53051964
_cell_angle_beta   107.53052938
_cell_angle_gamma   90.00000317
_symmetry_Int_Tables_number   1
_chemical_formula_structural   Rb2HgF4
_chemical_formula_sum   'Rb2 Hg1 F4'
_cell_volume   144.58428897
_cell_formula_units_Z   1
loop_
 _symmetry_equiv_pos_site_id
 _symmetry_equiv_pos_as_xyz
  1  'x, y, z'
loop_
 _atom_site_type_symbol
 _atom_site_label
 _atom_site_symmetry_multiplicity
 _atom_site_fract_x
 _atom_site_fract_y
 _atom_site_fract_z
 _atom_site_occupancy
  Rb  Rb0  1  0.35914206  0.35914206  0.71828512  1
  Rb  Rb1  1  0.64085794  0.64085794  0.28171488  1
  Hg  Hg0  1  -0.00000000  -0.00000000  -0.00000000  1
  F  F0  1  0.16384103  0.16384103  0.32768306  1
  F  F1  1  0.83615897  0.83615897  0.67231694  1
  F  F2  1  0.50000000  -0.00000000  -0.00000000  1
  F  F3  1  -0.00000000  0.50000000  -0.00000000  1
loop_
_geom_bond_atom_site_label_1
_geom_bond_atom_site_label_2
_geom_bond_distance
_geom_bond_site_symmetry_2
F0 Hg0 2.255473 1_555
F0 Rb0 2.688551 1_555
F0 Rb1 3.256213 1_445
F0 Rb1 3.256220 1_455
F0 Rb1 3.256220 1_545
F0 Rb1 3.256226 1_555
F1 Hg0 2.255473 1_666
F1 Rb1 2.688551 1_555
F1 Rb0 3.256213 1_665
F1 Rb0 3.256220 1_655
F1 Rb0 3.256220 1_565
F1 Rb0 3.256226 1_555
F2 Hg0 2.291599 1_555
F2 Hg0 2.291599 1_655
F2 Rb0 3.001901 1_554
F2 Rb1 3.001901 1_545
F2 Rb1 3.001905 1_555
F2 Rb0 3.001905 1_544
F3 Hg0 2.291600 1_555
F3 Hg0 2.291600 1_565
F3 Rb0 3.001901 1_554
F3 Rb1 3.001901 1_455
F3 Rb1 3.001904 1_555
F3 Rb0 3.001904 1_454
