# generated using pymatgen
data_LiV3OF11
_symmetry_space_group_name_H-M   'P 1'
_cell_length_a   7.02241500
_cell_length_b   6.00221006
_cell_length_c   5.51103637
_cell_angle_alpha   93.25826601
_cell_angle_beta   103.23774195
_cell_angle_gamma   93.05749434
_symmetry_Int_Tables_number   1
_chemical_formula_structural   LiV3OF11
_chemical_formula_sum   'Li1 V3 O1 F11'
_cell_volume   225.22557978
_cell_formula_units_Z   1
loop_
 _symmetry_equiv_pos_site_id
 _symmetry_equiv_pos_as_xyz
  1  'x, y, z'
loop_
 _atom_site_type_symbol
 _atom_site_label
 _atom_site_symmetry_multiplicity
 _atom_site_fract_x
 _atom_site_fract_y
 _atom_site_fract_z
 _atom_site_occupancy
  Li  Li0  1  0.70170200  0.94626000  0.43955600  1
  V  V0  1  0.02674800  0.01335100  0.99469100  1
  V  V1  1  0.60113700  0.33919600  0.14987300  1
  V  V2  1  0.39519900  0.63102400  0.85132400  1
  O  O0  1  0.34473000  0.15839700  0.00363800  1
  F  F0  1  0.91976900  0.02763400  0.70982000  1
  F  F1  1  0.57479200  0.18305700  0.39567400  1
  F  F2  1  0.89093700  0.23844600  0.07410900  1
  F  F3  1  0.64855300  0.48328800  0.86000300  1
  F  F4  1  0.17364800  0.44185100  0.69979600  1
  F  F5  1  0.79225800  0.54548200  0.31202200  1
  F  F6  1  0.34949700  0.52210100  0.14102100  1
  F  F7  1  0.13871700  0.77661900  0.91162100  1
  F  F8  1  0.48021800  0.75506700  0.59217000  1
  F  F9  1  0.64019500  0.84399700  0.01180000  1
  F  F10  1  0.01855000  0.95604000  0.28509900  1
loop_
_geom_bond_atom_site_label_1
_geom_bond_atom_site_label_2
_geom_bond_distance
_geom_bond_site_symmetry_2
O0 V1 2.024063 1_555
O0 V0 2.341789 1_554
F0 V0 1.586959 1_655
F0 Li0 1.896035 1_545
F1 Li0 1.717075 1_545
F1 V1 1.728616 1_555
F2 V0 1.785480 1_654
F2 V1 2.274508 1_555
F3 V1 1.944421 1_556
F3 V2 2.021916 1_555
F4 V2 1.875083 1_555
F5 V1 1.811242 1_555
F6 V2 1.846692 1_554
F6 V1 2.122238 1_555
F7 V0 1.748410 1_565
F7 V2 2.127712 1_555
F8 V2 1.847846 1_555
F8 Li0 2.227525 1_555
F9 V2 2.077556 1_554
F9 Li0 2.336977 1_555
F10 V0 1.669056 1_564
