# generated using pymatgen
data_SrPuO4
_symmetry_space_group_name_H-M   'P 1'
_cell_length_a   6.51234158
_cell_length_b   6.51234158
_cell_length_c   6.51234165
_cell_angle_alpha   35.19988051
_cell_angle_beta   35.19988051
_cell_angle_gamma   35.19988516
_symmetry_Int_Tables_number   1
_chemical_formula_structural   SrPuO4
_chemical_formula_sum   'Sr1 Pu1 O4'
_cell_volume   81.96864448
_cell_formula_units_Z   1
loop_
 _symmetry_equiv_pos_site_id
 _symmetry_equiv_pos_as_xyz
  1  'x, y, z'
loop_
 _atom_site_type_symbol
 _atom_site_label
 _atom_site_symmetry_multiplicity
 _atom_site_fract_x
 _atom_site_fract_y
 _atom_site_fract_z
 _atom_site_occupancy
  Sr  Sr0  1  0.50000000  0.50000000  0.50000000  1
  Pu  Pu0  1  0.00000000  0.00000000  0.00000000  1
  O  O0  1  0.64129097  0.64129097  0.64129097  1
  O  O1  1  0.35870903  0.35870903  0.35870903  1
  O  O2  1  0.10675524  0.10675524  0.10675524  1
  O  O3  1  0.89324476  0.89324476  0.89324476  1
loop_
_geom_bond_atom_site_label_1
_geom_bond_atom_site_label_2
_geom_bond_distance
_geom_bond_site_symmetry_2
O0 Pu0 2.320729 1_665
O0 Pu0 2.320729 1_566
O0 Pu0 2.320729 1_656
O0 Sr0 2.586689 1_555
O1 Pu0 2.320729 1_556
O1 Pu0 2.320729 1_655
O1 Pu0 2.320729 1_565
O1 Sr0 2.586689 1_555
O2 Pu0 1.954425 1_555
O2 Sr0 2.524480 1_554
O2 Sr0 2.524480 1_455
O2 Sr0 2.524480 1_545
O3 Pu0 1.954425 1_666
O3 Sr0 2.524480 1_556
O3 Sr0 2.524480 1_565
O3 Sr0 2.524480 1_655
