# generated using pymatgen
data_Li9Mn7Cr12O48
_symmetry_space_group_name_H-M   'P 1'
_cell_length_a   5.14581800
_cell_length_b   10.33076807
_cell_length_c   17.52119793
_cell_angle_alpha   90.06958433
_cell_angle_beta   90.25748070
_cell_angle_gamma   90.05088575
_symmetry_Int_Tables_number   1
_chemical_formula_structural   Li9Mn7Cr12O48
_chemical_formula_sum   'Li9 Mn7 Cr12 O48'
_cell_volume   931.42083868
_cell_formula_units_Z   1
loop_
 _symmetry_equiv_pos_site_id
 _symmetry_equiv_pos_as_xyz
  1  'x, y, z'
loop_
 _atom_site_type_symbol
 _atom_site_label
 _atom_site_symmetry_multiplicity
 _atom_site_fract_x
 _atom_site_fract_y
 _atom_site_fract_z
 _atom_site_occupancy
  Li  Li0  1  0.90656500  0.24851200  0.75085800  1
  Li  Li1  1  0.75331400  0.42227500  0.02916300  1
  Li  Li2  1  0.75110500  0.58163100  0.52690200  1
  Li  Li3  1  0.75071500  0.91857600  0.52686900  1
  Li  Li4  1  0.74301200  0.25265200  0.19830900  1
  Li  Li5  1  0.25351300  0.75362700  0.80580900  1
  Li  Li6  1  0.24913700  0.92197100  0.97090800  1
  Li  Li7  1  0.23658000  0.25126700  0.29776100  1
  Li  Li8  1  0.09167000  0.74952700  0.25179500  1
  Mn  Mn0  1  0.75156000  0.75029100  0.69863600  1
  Mn  Mn1  1  0.75441300  0.07417100  0.02651600  1
  Mn  Mn2  1  0.58889700  0.74923600  0.24852200  1
  Mn  Mn3  1  0.40774400  0.24937600  0.75204600  1
  Mn  Mn4  1  0.24727000  0.07261000  0.47264000  1
  Mn  Mn5  1  0.24781300  0.42735000  0.47286800  1
  Mn  Mn6  1  0.24900900  0.57451100  0.97341900  1
  Cr  Cr0  1  0.77827000  0.75007200  0.05595400  1
  Cr  Cr1  1  0.77027800  0.02662000  0.34326100  1
  Cr  Cr2  1  0.77165600  0.47182900  0.34385300  1
  Cr  Cr3  1  0.72288000  0.52871600  0.84516600  1
  Cr  Cr4  1  0.72476300  0.97101300  0.84403400  1
  Cr  Cr5  1  0.72031900  0.24993900  0.55616100  1
  Cr  Cr6  1  0.27668000  0.75001900  0.44346400  1
  Cr  Cr7  1  0.28197600  0.47430800  0.15760800  1
  Cr  Cr8  1  0.28108900  0.02643800  0.15655500  1
  Cr  Cr9  1  0.22644400  0.52915300  0.65547300  1
  Cr  Cr10  1  0.22536400  0.97047400  0.65485100  1
  Cr  Cr11  1  0.22275000  0.24998500  0.94451600  1
  O  O0  1  0.95323800  0.24790800  0.99999000  1
  O  O1  1  0.95301700  0.60871500  0.63070200  1
  O  O2  1  0.95208900  0.89080100  0.62972200  1
  O  O3  1  0.90073600  0.62463000  0.79038500  1
  O  O4  1  0.90649100  0.87543000  0.78915300  1
  O  O5  1  0.90017700  0.12168700  0.53435200  1
  O  O6  1  0.90018900  0.37828500  0.53460400  1
  O  O7  1  0.90526500  0.00284300  0.92138500  1
  O  O8  1  0.90342500  0.49796100  0.92228200  1
  O  O9  1  0.84120300  0.74953400  0.15012500  1
  O  O10  1  0.82384100  0.61465900  0.29588200  1
  O  O11  1  0.82062100  0.88264000  0.29500000  1
  O  O12  1  0.66047500  0.11003000  0.79743000  1
  O  O13  1  0.65979500  0.39021300  0.79860700  1
  O  O14  1  0.65326000  0.25003900  0.64881800  1
  O  O15  1  0.59657500  0.50088000  0.42162400  1
  O  O16  1  0.59555600  0.99872100  0.42115300  1
  O  O17  1  0.60202900  0.88007000  0.03458700  1
  O  O18  1  0.59449600  0.62251400  0.03460300  1
  O  O19  1  0.59894500  0.12383500  0.29053600  1
  O  O20  1  0.59835800  0.37446000  0.29134300  1
  O  O21  1  0.55204000  0.10666900  0.13040300  1
  O  O22  1  0.54688400  0.39514700  0.13189100  1
  O  O23  1  0.53981300  0.75020600  0.49910700  1
  O  O24  1  0.44571600  0.24988200  0.49825700  1
  O  O25  1  0.44864200  0.60720600  0.87080700  1
  O  O26  1  0.45562700  0.89417500  0.86919400  1
  O  O27  1  0.41452300  0.62405900  0.70846600  1
  O  O28  1  0.41392300  0.87543300  0.70734500  1
  O  O29  1  0.40717900  0.12305500  0.96623900  1
  O  O30  1  0.39898500  0.38025400  0.96619000  1
  O  O31  1  0.39880500  0.00457200  0.57706500  1
  O  O32  1  0.39911700  0.49565200  0.57747300  1
  O  O33  1  0.34663500  0.75027100  0.34987000  1
  O  O34  1  0.35220400  0.61762200  0.20575100  1
  O  O35  1  0.35104100  0.88572800  0.20428200  1
  O  O36  1  0.16131800  0.10803000  0.70212300  1
  O  O37  1  0.16248800  0.39154300  0.70261800  1
  O  O38  1  0.15939200  0.24948700  0.85045700  1
  O  O39  1  0.10238800  0.50617100  0.08030700  1
  O  O40  1  0.10166600  0.99545600  0.07925900  1
  O  O41  1  0.09415500  0.62075900  0.46369500  1
  O  O42  1  0.09384200  0.87908500  0.46365500  1
  O  O43  1  0.10435400  0.12126000  0.20985100  1
  O  O44  1  0.10044900  0.38075300  0.21057200  1
  O  O45  1  0.04806700  0.10268700  0.36882900  1
  O  O46  1  0.04885800  0.39502900  0.36952700  1
  O  O47  1  0.04731800  0.74780000  0.00057200  1
loop_
_geom_bond_atom_site_label_1
_geom_bond_atom_site_label_2
_geom_bond_distance
_geom_bond_site_symmetry_2
Li0 O12 2.079675 1_555
Li0 O13 2.113109 1_555
Li0 O36 2.136421 1_655
Li0 O37 2.154450 1_655
Li0 O38 2.172001 1_655
Li0 O14 2.207912 1_555
Li1 O22 2.112937 1_555
Li1 O0 2.137819 1_554
Li1 O30 2.170179 1_554
Li1 O8 2.174961 1_554
Li1 O39 2.182123 1_655
Li1 O18 2.226972 1_555
Li2 O1 2.108731 1_555
Li2 O23 2.110177 1_555
Li2 O41 2.126840 1_655
Li2 O15 2.170870 1_555
Li2 O32 2.206405 1_555
Li2 O6 2.241069 1_555
Li3 O2 2.094924 1_555
Li3 O23 2.104693 1_555
Li3 O42 2.128035 1_655
Li3 O16 2.178418 1_555
Li3 O31 2.203923 1_565
Li3 O5 2.237656 1_565
Li4 O22 2.129809 1_555
Li4 O21 2.153657 1_555
Li4 O20 2.191410 1_555
Li4 O19 2.223965 1_555
Li4 O44 2.274200 1_655
Li4 O43 2.311389 1_655
Li5 O26 2.099121 1_555
Li5 O25 2.142397 1_555
Li5 O4 2.203973 1_455
Li5 O3 2.266007 1_455
Li5 O28 2.292894 1_555
Li5 O27 2.322977 1_555
Li6 O26 2.098541 1_555
Li6 O7 2.138374 1_465
Li6 O47 2.142435 1_556
Li6 O17 2.171210 1_556
Li6 O40 2.183284 1_556
Li6 O29 2.231923 1_565
Li7 O44 2.147292 1_555
Li7 O43 2.150168 1_555
Li7 O46 2.174606 1_555
Li7 O45 2.204638 1_555
Li7 O20 2.257453 1_555
Li7 O19 2.287394 1_555
Li8 O34 2.077355 1_555
Li8 O11 2.102348 1_455
Li8 O10 2.108590 1_455
Li8 O35 2.112749 1_555
Li8 O33 2.157306 1_555
Li8 O9 2.194045 1_455
Mn0 O1 2.154104 1_555
Mn0 O2 2.154671 1_555
Mn0 O28 2.172364 1_555
Mn0 O27 2.176554 1_555
Mn0 O4 2.191803 1_555
Mn0 O3 2.203291 1_555
Mn1 O0 2.118314 1_554
Mn1 O21 2.127573 1_555
Mn1 O29 2.132847 1_554
Mn1 O7 2.132878 1_554
Mn1 O17 2.157462 1_545
Mn1 O40 2.167452 1_645
Mn2 O34 1.969813 1_555
Mn2 O11 1.992480 1_555
Mn2 O10 2.019868 1_555
Mn2 O35 2.020992 1_555
Mn2 O9 2.162882 1_555
Mn2 O33 2.174244 1_555
Mn3 O12 2.095890 1_555
Mn3 O13 2.109245 1_555
Mn3 O36 2.118718 1_555
Mn3 O37 2.120470 1_555
Mn3 O38 2.150851 1_555
Mn3 O14 2.210893 1_555
Mn4 O45 2.107333 1_555
Mn4 O31 2.107365 1_555
Mn4 O24 2.142117 1_555
Mn4 O16 2.150305 1_545
Mn4 O5 2.152649 1_455
Mn4 O42 2.154177 1_545
Mn5 O46 2.102231 1_555
Mn5 O32 2.108628 1_555
Mn5 O24 2.144174 1_555
Mn5 O15 2.148887 1_555
Mn5 O6 2.154978 1_455
Mn5 O41 2.155396 1_555
Mn6 O25 2.102196 1_555
Mn6 O47 2.124623 1_556
Mn6 O18 2.129737 1_556
Mn6 O8 2.138232 1_455
Mn6 O39 2.142442 1_556
Mn6 O30 2.154529 1_555
Cr0 O18 1.662578 1_555
Cr0 O17 1.663297 1_555
Cr0 O9 1.680057 1_555
Cr0 O47 1.694399 1_655
Cr1 O19 1.623532 1_555
Cr1 O16 1.662987 1_545
Cr1 O45 1.689066 1_655
Cr1 O11 1.730365 1_545
Cr2 O20 1.625521 1_555
Cr2 O15 1.664051 1_555
Cr2 O46 1.692235 1_655
Cr2 O10 1.720504 1_555
Cr3 O3 1.658101 1_555
Cr3 O8 1.667338 1_555
Cr3 O13 1.676941 1_555
Cr3 O25 1.690445 1_555
Cr4 O26 1.657361 1_555
Cr4 O4 1.667809 1_555
Cr4 O7 1.671737 1_565
Cr4 O12 1.685231 1_565
Cr5 O6 1.661198 1_555
Cr5 O14 1.661245 1_555
Cr5 O5 1.661985 1_555
Cr5 O24 1.735843 1_555
Cr6 O23 1.664942 1_555
Cr6 O42 1.671004 1_555
Cr6 O41 1.671200 1_555
Cr6 O33 1.680508 1_555
Cr7 O44 1.635910 1_555
Cr7 O22 1.654284 1_555
Cr7 O39 1.669477 1_555
Cr7 O34 1.739946 1_555
Cr8 O43 1.632688 1_555
Cr8 O40 1.666208 1_545
Cr8 O21 1.686871 1_555
Cr8 O35 1.715550 1_545
Cr9 O27 1.657740 1_555
Cr9 O32 1.669534 1_555
Cr9 O37 1.678126 1_555
Cr9 O1 1.685541 1_455
Cr10 O28 1.657500 1_555
Cr10 O31 1.670234 1_565
Cr10 O36 1.677638 1_565
Cr10 O2 1.685314 1_455
Cr11 O29 1.662884 1_555
Cr11 O30 1.664707 1_555
Cr11 O38 1.678529 1_555
Cr11 O0 1.697257 1_455
