# generated using pymatgen
data_Li2TiCr3O8
_symmetry_space_group_name_H-M   'P 1'
_cell_length_a   8.39767300
_cell_length_b   8.39767300
_cell_length_c   8.39767300
_cell_angle_alpha   90.00000000
_cell_angle_beta   90.00000000
_cell_angle_gamma   90.00000000
_symmetry_Int_Tables_number   1
_chemical_formula_structural   Li2TiCr3O8
_chemical_formula_sum   'Li8 Ti4 Cr12 O32'
_cell_volume   592.21155708
_cell_formula_units_Z   4
loop_
 _symmetry_equiv_pos_site_id
 _symmetry_equiv_pos_as_xyz
  1  'x, y, z'
loop_
 _atom_site_type_symbol
 _atom_site_label
 _atom_site_symmetry_multiplicity
 _atom_site_fract_x
 _atom_site_fract_y
 _atom_site_fract_z
 _atom_site_occupancy
  Li  Li0  1  0.99603600  0.99603600  0.99603600  1
  Li  Li1  1  0.25396400  0.25396400  0.25396400  1
  Li  Li2  1  0.24603600  0.74603600  0.75396400  1
  Li  Li3  1  0.50396400  0.00396400  0.49603600  1
  Li  Li4  1  0.49603600  0.50396400  0.00396400  1
  Li  Li5  1  0.75396400  0.24603600  0.74603600  1
  Li  Li6  1  0.74603600  0.75396400  0.24603600  1
  Li  Li7  1  0.00396400  0.49603600  0.50396400  1
  Ti  Ti0  1  0.12500000  0.87500000  0.37500000  1
  Ti  Ti1  1  0.37500000  0.12500000  0.87500000  1
  Ti  Ti2  1  0.62500000  0.62500000  0.62500000  1
  Ti  Ti3  1  0.87500000  0.37500000  0.12500000  1
  Cr  Cr0  1  0.12802400  0.12197600  0.62500000  1
  Cr  Cr1  1  0.12500000  0.37197600  0.87802400  1
  Cr  Cr2  1  0.12197600  0.62500000  0.12802400  1
  Cr  Cr3  1  0.37802400  0.37500000  0.62802400  1
  Cr  Cr4  1  0.37500000  0.62802400  0.37802400  1
  Cr  Cr5  1  0.37197600  0.87802400  0.12500000  1
  Cr  Cr6  1  0.62802400  0.37802400  0.37500000  1
  Cr  Cr7  1  0.62500000  0.12802400  0.12197600  1
  Cr  Cr8  1  0.62197600  0.87500000  0.87197600  1
  Cr  Cr9  1  0.87802400  0.12500000  0.37197600  1
  Cr  Cr10  1  0.87500000  0.87197600  0.62197600  1
  Cr  Cr11  1  0.87197600  0.62197600  0.87500000  1
  O  O0  1  0.11785400  0.10802000  0.38691500  1
  O  O1  1  0.11308500  0.88214600  0.60802000  1
  O  O2  1  0.10804600  0.60804600  0.89195400  1
  O  O3  1  0.14198000  0.13214600  0.86308500  1
  O  O4  1  0.10802000  0.38691500  0.11785400  1
  O  O5  1  0.14195400  0.35804600  0.64195400  1
  O  O6  1  0.13691500  0.64198000  0.36785400  1
  O  O7  1  0.13214600  0.86308500  0.14198000  1
  O  O8  1  0.36785400  0.13691500  0.64198000  1
  O  O9  1  0.36308500  0.35802000  0.86785400  1
  O  O10  1  0.35804600  0.64195400  0.14195400  1
  O  O11  1  0.39198000  0.61308500  0.61785400  1
  O  O12  1  0.35802000  0.86785400  0.36308500  1
  O  O13  1  0.39195400  0.39195400  0.39195400  1
  O  O14  1  0.38691500  0.11785400  0.10802000  1
  O  O15  1  0.38214600  0.89198000  0.88691500  1
  O  O16  1  0.61785400  0.39198000  0.61308500  1
  O  O17  1  0.61308500  0.61785400  0.39198000  1
  O  O18  1  0.60804600  0.89195400  0.10804600  1
  O  O19  1  0.64198000  0.36785400  0.13691500  1
  O  O20  1  0.60802000  0.11308500  0.88214600  1
  O  O21  1  0.64195400  0.14195400  0.35804600  1
  O  O22  1  0.63691500  0.85802000  0.63214600  1
  O  O23  1  0.63214600  0.63691500  0.85802000  1
  O  O24  1  0.86785400  0.36308500  0.35802000  1
  O  O25  1  0.86308500  0.14198000  0.13214600  1
  O  O26  1  0.85804600  0.85804600  0.85804600  1
  O  O27  1  0.89198000  0.88691500  0.38214600  1
  O  O28  1  0.85802000  0.63214600  0.63691500  1
  O  O29  1  0.89195400  0.10804600  0.60804600  1
  O  O30  1  0.88691500  0.38214600  0.89198000  1
  O  O31  1  0.88214600  0.60802000  0.11308500  1
loop_
_geom_bond_atom_site_label_1
_geom_bond_atom_site_label_2
_geom_bond_distance
_geom_bond_site_symmetry_2
Li0 O26 2.007092 1_555
Li0 O7 2.013718 1_656
Li0 O25 2.013718 1_566
Li0 O3 2.013718 1_665
Li1 O13 2.007092 1_555
Li1 O4 2.013718 1_555
Li1 O0 2.013718 1_555
Li1 O14 2.013718 1_555
Li2 O2 2.007092 1_555
Li2 O1 2.013718 1_555
Li2 O11 2.013718 1_555
Li2 O15 2.013718 1_555
Li3 O21 2.007092 1_555
Li3 O12 2.013718 1_545
Li3 O22 2.013718 1_545
Li3 O8 2.013718 1_555
Li4 O10 2.007092 1_555
Li4 O9 2.013718 1_554
Li4 O23 2.013718 1_554
Li4 O19 2.013718 1_555
Li5 O29 2.007092 1_555
Li5 O20 2.013718 1_555
Li5 O30 2.013718 1_555
Li5 O16 2.013718 1_555
Li6 O18 2.007092 1_555
Li6 O31 2.013718 1_555
Li6 O17 2.013718 1_555
Li6 O27 2.013718 1_555
Li7 O5 2.007092 1_555
Li7 O24 2.013718 1_455
Li7 O28 2.013718 1_455
Li7 O6 2.013718 1_555
Cr0 O29 1.990984 1_455
Cr0 O5 1.990984 1_555
Cr0 O3 2.004612 1_555
Cr0 O0 2.004612 1_555
Cr0 O8 2.022949 1_555
Cr0 O1 2.022949 1_545
Cr1 O2 1.990984 1_555
Cr1 O5 1.990984 1_555
Cr1 O30 2.004612 1_455
Cr1 O9 2.004612 1_555
Cr1 O4 2.022949 1_556
Cr1 O3 2.022949 1_555
Cr2 O2 1.990984 1_554
Cr2 O10 1.990984 1_555
Cr2 O7 2.004612 1_555
Cr2 O4 2.004612 1_555
Cr2 O6 2.022949 1_555
Cr2 O31 2.022949 1_455
Cr3 O13 1.990984 1_555
Cr3 O5 1.990984 1_555
Cr3 O8 2.004612 1_555
Cr3 O11 2.004612 1_555
Cr3 O9 2.022949 1_555
Cr3 O16 2.022949 1_555
Cr4 O13 1.990984 1_555
Cr4 O10 1.990984 1_555
Cr4 O17 2.004612 1_555
Cr4 O6 2.004612 1_555
Cr4 O12 2.022949 1_555
Cr4 O11 2.022949 1_555
Cr5 O10 1.990984 1_555
Cr5 O18 1.990984 1_555
Cr5 O15 2.004612 1_554
Cr5 O12 2.004612 1_555
Cr5 O14 2.022949 1_565
Cr5 O7 2.022949 1_555
Cr6 O13 1.990984 1_555
Cr6 O21 1.990984 1_555
Cr6 O19 2.004612 1_555
Cr6 O16 2.004612 1_555
Cr6 O17 2.022949 1_555
Cr6 O24 2.022949 1_555
Cr7 O21 1.990984 1_555
Cr7 O18 1.990984 1_545
Cr7 O14 2.004612 1_555
Cr7 O25 2.004612 1_555
Cr7 O20 2.022949 1_554
Cr7 O19 2.022949 1_555
Cr8 O26 1.990984 1_555
Cr8 O18 1.990984 1_556
Cr8 O23 2.004612 1_555
Cr8 O20 2.004612 1_565
Cr8 O15 2.022949 1_555
Cr8 O22 2.022949 1_555
Cr9 O21 1.990984 1_555
Cr9 O29 1.990984 1_555
Cr9 O27 2.004612 1_545
Cr9 O24 2.004612 1_555
Cr9 O0 2.022949 1_655
Cr9 O25 2.022949 1_555
Cr10 O26 1.990984 1_555
Cr10 O29 1.990984 1_565
Cr10 O22 2.004612 1_555
Cr10 O1 2.004612 1_655
Cr10 O27 2.022949 1_555
Cr10 O28 2.022949 1_555
Cr11 O26 1.990984 1_555
Cr11 O2 1.990984 1_655
Cr11 O28 2.004612 1_555
Cr11 O31 2.004612 1_556
Cr11 O30 2.022949 1_555
Cr11 O23 2.022949 1_555
O0 Ti0 1.960301 1_545
O1 Ti0 1.960301 1_555
O3 Ti1 1.960301 1_555
O4 Ti3 1.960301 1_455
O6 Ti0 1.960301 1_555
O7 Ti0 1.960301 1_555
O8 Ti1 1.960301 1_555
O9 Ti1 1.960301 1_555
O11 Ti2 1.960301 1_555
O12 Ti0 1.960301 1_555
O14 Ti1 1.960301 1_554
O15 Ti1 1.960301 1_565
O16 Ti2 1.960301 1_555
O17 Ti2 1.960301 1_555
O19 Ti3 1.960301 1_555
O20 Ti1 1.960301 1_555
O22 Ti2 1.960301 1_555
O23 Ti2 1.960301 1_555
O24 Ti3 1.960301 1_555
O25 Ti3 1.960301 1_555
O27 Ti0 1.960301 1_655
O28 Ti2 1.960301 1_555
O30 Ti3 1.960301 1_556
O31 Ti3 1.960301 1_555
