# generated using pymatgen
data_Nd2Ga12Ni
_symmetry_space_group_name_H-M   'P 1'
_cell_length_a   6.00639783
_cell_length_b   6.00639783
_cell_length_c   15.31435393
_cell_angle_alpha   90.00000000
_cell_angle_beta   90.00000000
_cell_angle_gamma   90.00000000
_symmetry_Int_Tables_number   1
_chemical_formula_structural   Nd2Ga12Ni
_chemical_formula_sum   'Nd4 Ga24 Ni2'
_cell_volume   552.49311193
_cell_formula_units_Z   2
loop_
 _symmetry_equiv_pos_site_id
 _symmetry_equiv_pos_as_xyz
  1  'x, y, z'
loop_
 _atom_site_type_symbol
 _atom_site_label
 _atom_site_symmetry_multiplicity
 _atom_site_fract_x
 _atom_site_fract_y
 _atom_site_fract_z
 _atom_site_occupancy
  Nd  Nd0  1  0.50000000  -0.00000000  0.24398531  1
  Nd  Nd1  1  0.50000000  -0.00000000  0.75601469  1
  Nd  Nd2  1  -0.00000000  0.50000000  0.75601469  1
  Nd  Nd3  1  -0.00000000  0.50000000  0.24398531  1
  Ga  Ga0  1  0.32732818  0.82732818  0.42897090  1
  Ga  Ga1  1  0.67267182  0.17267182  0.42897090  1
  Ga  Ga2  1  0.32732818  0.17267182  0.57102910  1
  Ga  Ga3  1  0.67267182  0.82732818  0.57102910  1
  Ga  Ga4  1  0.17267182  0.67267182  0.57102910  1
  Ga  Ga5  1  0.82732818  0.32732818  0.57102910  1
  Ga  Ga6  1  0.82732818  0.67267182  0.42897090  1
  Ga  Ga7  1  0.17267182  0.32732818  0.42897090  1
  Ga  Ga8  1  0.25061823  0.75061823  0.91645071  1
  Ga  Ga9  1  0.74938177  0.24938177  0.91645071  1
  Ga  Ga10  1  0.25061823  0.24938177  0.08354929  1
  Ga  Ga11  1  0.74938177  0.75061823  0.08354929  1
  Ga  Ga12  1  0.24938177  0.74938177  0.08354929  1
  Ga  Ga13  1  0.75061823  0.25061823  0.08354929  1
  Ga  Ga14  1  0.75061823  0.74938177  0.91645071  1
  Ga  Ga15  1  0.24938177  0.25061823  0.91645071  1
  Ga  Ga16  1  0.50000000  0.50000000  0.34139236  1
  Ga  Ga17  1  0.50000000  0.50000000  0.65860764  1
  Ga  Ga18  1  -0.00000000  -0.00000000  0.65860764  1
  Ga  Ga19  1  -0.00000000  -0.00000000  0.34139236  1
  Ga  Ga20  1  0.50000000  0.50000000  0.18209886  1
  Ga  Ga21  1  0.50000000  0.50000000  0.81790114  1
  Ga  Ga22  1  -0.00000000  -0.00000000  0.81790114  1
  Ga  Ga23  1  -0.00000000  -0.00000000  0.18209886  1
  Ni  Ni0  1  0.50000000  -0.00000000  0.00000000  1
  Ni  Ni1  1  -0.00000000  0.50000000  0.00000000  1
loop_
_geom_bond_atom_site_label_1
_geom_bond_atom_site_label_2
_geom_bond_distance
_geom_bond_site_symmetry_2
Ga0 Ga4 2.541405 1_555
Ga0 Ga16 2.596131 1_555
Ga0 Ga19 2.596131 1_565
Ga0 Ga1 2.933463 1_565
Ga0 Ga3 3.005916 1_555
Ga0 Ga2 3.005916 1_565
Ga0 Nd0 3.190113 1_565
Ga1 Ga5 2.541405 1_555
Ga1 Ga19 2.596131 1_655
Ga1 Ga16 2.596131 1_555
Ga1 Ga3 3.005916 1_545
Ga1 Ga2 3.005916 1_555
Ga1 Nd0 3.190113 1_555
Ga2 Ga7 2.541405 1_555
Ga2 Ga3 2.933463 1_545
Ga2 Nd1 3.190113 1_555
Ga3 Ga6 2.541405 1_555
Ga3 Nd1 3.190113 1_565
Ga4 Ga5 2.933463 1_455
Ga4 Ga6 3.005916 1_455
Ga4 Ga7 3.005916 1_555
Ga4 Nd2 3.190113 1_555
Ga5 Ga6 3.005916 1_555
Ga5 Ga7 3.005916 1_655
Ga5 Nd2 3.190113 1_655
Ga6 Ga7 2.933463 1_655
Ga6 Nd3 3.190113 1_655
Ga7 Nd3 3.190113 1_555
Ga8 Ni0 2.474764 1_566
Ga8 Ni1 2.483760 1_556
Ga8 Nd1 3.244079 1_565
Ga8 Nd2 3.250947 1_555
Ga9 Ni0 2.474764 1_556
Ga9 Ni1 2.483760 1_656
Ga9 Nd1 3.244079 1_555
Ga9 Nd2 3.250947 1_655
Ga10 Ni0 2.474764 1_555
Ga10 Ni1 2.483760 1_555
Ga10 Ga15 2.559028 1_554
Ga10 Ga23 2.605261 1_555
Ga10 Ga20 2.605261 1_555
Ga10 Nd0 3.244079 1_555
Ga10 Nd3 3.250947 1_555
Ga11 Ni0 2.474764 1_565
Ga11 Ni1 2.483760 1_655
Ga11 Ga14 2.559028 1_554
Ga11 Ga23 2.605261 1_665
Ga11 Ga20 2.605261 1_555
Ga11 Nd0 3.244079 1_565
Ga11 Nd3 3.250947 1_655
Ga12 Ni1 2.474764 1_555
Ga12 Ni0 2.483760 1_565
Ga12 Ga8 2.559028 1_554
Ga12 Ga23 2.605261 1_565
Ga12 Ga20 2.605261 1_555
Ga12 Nd3 3.244079 1_555
Ga12 Nd0 3.250947 1_565
Ga13 Ni1 2.474764 1_655
Ga13 Ni0 2.483760 1_555
Ga13 Ga9 2.559028 1_554
Ga13 Ga23 2.605261 1_655
Ga13 Ga20 2.605261 1_555
Ga13 Nd3 3.244079 1_655
Ga13 Nd0 3.250947 1_555
Ga14 Ni1 2.474764 1_656
Ga14 Ni0 2.483760 1_566
Ga14 Ga22 2.605261 1_665
Ga14 Ga21 2.605261 1_555
Ga14 Nd2 3.244079 1_655
Ga14 Nd1 3.250947 1_565
Ga15 Ni1 2.474764 1_556
Ga15 Ni0 2.483760 1_556
Ga15 Ga21 2.605261 1_555
Ga15 Ga22 2.605261 1_555
Ga15 Nd2 3.244079 1_555
Ga15 Nd1 3.250947 1_555
Ga16 Ga20 2.439477 1_555
Ga16 Ga6 2.596131 1_555
Ga16 Ga7 2.596131 1_555
Ga16 Nd0 3.353275 1_555
Ga16 Nd3 3.353275 1_555
Ga16 Nd0 3.353275 1_565
Ga16 Nd3 3.353275 1_655
Ga17 Ga21 2.439477 1_555
Ga17 Ga4 2.596131 1_555
Ga17 Ga2 2.596131 1_555
Ga17 Ga5 2.596131 1_555
Ga17 Ga3 2.596131 1_555
Ga17 Nd2 3.353275 1_555
Ga17 Nd2 3.353275 1_655
Ga17 Nd1 3.353275 1_565
Ga17 Nd1 3.353275 1_555
Ga18 Ga22 2.439477 1_555
Ga18 Ga4 2.596131 1_545
Ga18 Ga3 2.596131 1_445
Ga18 Ga5 2.596131 1_455
Ga18 Ga2 2.596131 1_555
Ga18 Nd2 3.353275 1_555
Ga18 Nd1 3.353275 1_455
Ga18 Nd2 3.353275 1_545
Ga18 Nd1 3.353275 1_555
Ga19 Ga23 2.439477 1_555
Ga19 Ga6 2.596131 1_445
Ga19 Ga7 2.596131 1_555
Ga19 Nd0 3.353275 1_555
Ga19 Nd3 3.353275 1_545
Ga19 Nd3 3.353275 1_555
Ga19 Nd0 3.353275 1_455
Ga20 Nd0 3.149196 1_555
Ga20 Nd3 3.149196 1_555
Ga20 Nd0 3.149196 1_565
Ga20 Nd3 3.149196 1_655
Ga21 Ga9 2.605261 1_555
Ga21 Ga8 2.605261 1_555
Ga21 Nd2 3.149196 1_655
Ga21 Nd1 3.149196 1_555
Ga21 Nd1 3.149196 1_565
Ga21 Nd2 3.149196 1_555
Ga22 Ga8 2.605261 1_545
Ga22 Ga9 2.605261 1_455
Ga22 Nd1 3.149196 1_455
Ga22 Nd2 3.149196 1_545
Ga22 Nd1 3.149196 1_555
Ga22 Nd2 3.149196 1_555
Ga23 Nd0 3.149196 1_455
Ga23 Nd0 3.149196 1_555
Ga23 Nd3 3.149196 1_545
Ga23 Nd3 3.149196 1_555
