# generated using pymatgen
data_Li4Mn5CoO12
_symmetry_space_group_name_H-M   'P 1'
_cell_length_a   5.14523695
_cell_length_b   5.14523695
_cell_length_c   10.30914694
_cell_angle_alpha   89.33626407
_cell_angle_beta   89.33626407
_cell_angle_gamma   120.18752767
_symmetry_Int_Tables_number   1
_chemical_formula_structural   Li4Mn5CoO12
_chemical_formula_sum   'Li4 Mn5 Co1 O12'
_cell_volume   235.84305794
_cell_formula_units_Z   1
loop_
 _symmetry_equiv_pos_site_id
 _symmetry_equiv_pos_as_xyz
  1  'x, y, z'
loop_
 _atom_site_type_symbol
 _atom_site_label
 _atom_site_symmetry_multiplicity
 _atom_site_fract_x
 _atom_site_fract_y
 _atom_site_fract_z
 _atom_site_occupancy
  Li  Li0  1  0.34402900  0.83915800  0.75063600  1
  Li  Li1  1  0.16084200  0.65597100  0.24936400  1
  Li  Li2  1  0.83915800  0.34402900  0.75063600  1
  Li  Li3  1  0.65597100  0.16084200  0.24936400  1
  Mn  Mn0  1  0.16378700  0.83621300  0.50000000  1
  Mn  Mn1  1  0.66366300  0.33633700  0.00000000  1
  Mn  Mn2  1  0.33633700  0.66366300  0.00000000  1
  Mn  Mn3  1  0.83621300  0.16378700  0.50000000  1
  Mn  Mn4  1  0.50000000  0.50000000  0.50000000  1
  Co  Co0  1  0.00000000  0.00000000  0.00000000  1
  O  O0  1  0.35880600  0.99138000  0.10474600  1
  O  O1  1  0.00862000  0.64119400  0.89525400  1
  O  O2  1  0.48217600  0.84550400  0.39270800  1
  O  O3  1  0.84550400  0.48217600  0.39270800  1
  O  O4  1  0.15449600  0.51782400  0.60729200  1
  O  O5  1  0.82340300  0.82340300  0.59262200  1
  O  O6  1  0.51782400  0.15449600  0.60729200  1
  O  O7  1  0.99138000  0.35880600  0.10474600  1
  O  O8  1  0.64505200  0.64505200  0.09579100  1
  O  O9  1  0.64119400  0.00862000  0.89525400  1
  O  O10  1  0.35494800  0.35494800  0.90420900  1
  O  O11  1  0.17659700  0.17659700  0.40737800  1
loop_
_geom_bond_atom_site_label_1
_geom_bond_atom_site_label_2
_geom_bond_distance
_geom_bond_site_symmetry_2
Li0 O9 2.015692 1_565
Li0 O6 2.017576 1_565
Li0 O4 2.082505 1_555
Li0 O1 2.091870 1_555
Li1 O7 2.015692 1_455
Li1 O3 2.017576 1_455
Li1 O2 2.082505 1_555
Li1 O0 2.091870 1_555
Li2 O1 2.015692 1_655
Li2 O4 2.017576 1_655
Li2 O6 2.082505 1_555
Li2 O9 2.091870 1_555
Li3 O0 2.015692 1_545
Li3 O2 2.017576 1_545
Li3 O3 2.082505 1_555
Li3 O7 2.091870 1_555
Mn0 O4 1.946128 1_555
Mn0 O2 1.946128 1_555
Mn0 O5 1.956285 1_455
Mn0 O11 1.956285 1_565
Mn0 O6 2.076574 1_565
Mn0 O3 2.076574 1_455
Mn1 O8 1.922119 1_555
Mn1 O10 1.922119 1_554
Mn1 O7 1.967656 1_555
Mn1 O9 1.967656 1_554
Mn1 O0 1.973127 1_545
Mn1 O1 1.973127 1_654
Mn2 O8 1.922119 1_555
Mn2 O10 1.922119 1_554
Mn2 O0 1.967656 1_555
Mn2 O1 1.967656 1_554
Mn2 O7 1.973127 1_455
Mn2 O9 1.973127 1_564
Mn3 O6 1.946128 1_555
Mn3 O3 1.946128 1_555
Mn3 O5 1.956285 1_545
Mn3 O11 1.956285 1_655
Mn3 O4 2.076574 1_655
Mn3 O2 2.076574 1_545
Mn4 O5 1.933529 1_555
Mn4 O11 1.933529 1_555
Mn4 O4 2.124337 1_555
Mn4 O6 2.124337 1_555
Mn4 O2 2.124337 1_555
Mn4 O3 2.124337 1_555
Co0 O8 2.051362 1_445
Co0 O10 2.051362 1_554
Co0 O0 2.168798 1_545
Co0 O7 2.168798 1_455
Co0 O1 2.168798 1_544
Co0 O9 2.168798 1_454
