# generated using pymatgen
data_CsB2H5O6
_symmetry_space_group_name_H-M   'P 1'
_cell_length_a   11.50020500
_cell_length_b   8.36241700
_cell_length_c   13.37209637
_cell_angle_alpha   88.66579118
_cell_angle_beta   90.00000000
_cell_angle_gamma   90.00000000
_symmetry_Int_Tables_number   1
_chemical_formula_structural   CsB2H5O6
_chemical_formula_sum   'Cs8 B16 H40 O48'
_cell_volume   1285.63930279
_cell_formula_units_Z   8
loop_
 _symmetry_equiv_pos_site_id
 _symmetry_equiv_pos_as_xyz
  1  'x, y, z'
loop_
 _atom_site_type_symbol
 _atom_site_label
 _atom_site_symmetry_multiplicity
 _atom_site_fract_x
 _atom_site_fract_y
 _atom_site_fract_z
 _atom_site_occupancy
  Cs  Cs0  1  0.56298500  0.73384900  0.97832200  1
  Cs  Cs1  1  0.06298500  0.26615100  0.52167800  1
  Cs  Cs2  1  0.43701500  0.26615100  0.02167800  1
  Cs  Cs3  1  0.93701500  0.73384900  0.47832200  1
  Cs  Cs4  1  0.07911200  0.54288300  0.85999000  1
  Cs  Cs5  1  0.57911200  0.45711700  0.64001000  1
  Cs  Cs6  1  0.92088800  0.45711700  0.14001000  1
  Cs  Cs7  1  0.42088800  0.54288300  0.35999000  1
  B  B0  1  0.37780800  0.12815500  0.57689400  1
  B  B1  1  0.87780800  0.87184500  0.92310600  1
  B  B2  1  0.62219200  0.87184500  0.42310600  1
  B  B3  1  0.12219200  0.12815500  0.07689400  1
  B  B4  1  0.15674600  0.89618100  0.69561400  1
  B  B5  1  0.65674600  0.10381900  0.80438600  1
  B  B6  1  0.84325400  0.10381900  0.30438600  1
  B  B7  1  0.34325400  0.89618100  0.19561400  1
  B  B8  1  0.37154300  0.89386700  0.69728600  1
  B  B9  1  0.87154300  0.10613300  0.80271400  1
  B  B10  1  0.62845700  0.10613300  0.30271400  1
  B  B11  1  0.12845700  0.89386700  0.19728600  1
  B  B12  1  0.26990400  0.14062200  0.73686800  1
  B  B13  1  0.76990400  0.85937800  0.76313200  1
  B  B14  1  0.73009600  0.85937800  0.26313200  1
  B  B15  1  0.23009600  0.14062200  0.23686800  1
  H  H0  1  0.52922800  0.83142200  0.74544600  1
  H  H1  1  0.02922800  0.16857800  0.75455400  1
  H  H2  1  0.47077200  0.16857800  0.25455400  1
  H  H3  1  0.97077200  0.83142200  0.24544600  1
  H  H4  1  0.47747800  0.13723200  0.45573500  1
  H  H5  1  0.97747800  0.86276800  0.04426500  1
  H  H6  1  0.52252200  0.86276800  0.54426500  1
  H  H7  1  0.02252200  0.13723200  0.95573500  1
  H  H8  1  0.20424300  0.22314900  0.86632200  1
  H  H9  1  0.70424300  0.77685100  0.63367800  1
  H  H10  1  0.79575700  0.77685100  0.13367800  1
  H  H11  1  0.29575700  0.22314900  0.36632200  1
  H  H12  1  0.98334500  0.88119800  0.70591900  1
  H  H13  1  0.48334500  0.11880200  0.79408100  1
  H  H14  1  0.01665500  0.11880200  0.29408100  1
  H  H15  1  0.51665500  0.88119800  0.20591900  1
  H  H16  1  0.89867500  0.39141100  0.69999700  1
  H  H17  1  0.39867500  0.60858900  0.80000300  1
  H  H18  1  0.10132500  0.60858900  0.30000300  1
  H  H19  1  0.60132500  0.39141100  0.19999700  1
  H  H20  1  0.84525100  0.56794900  0.67631500  1
  H  H21  1  0.34525100  0.43205100  0.82368500  1
  H  H22  1  0.15474900  0.43205100  0.32368500  1
  H  H23  1  0.65474900  0.56794900  0.17631500  1
  H  H24  1  0.29238400  0.43466900  0.60887900  1
  H  H25  1  0.79238400  0.56533100  0.89112100  1
  H  H26  1  0.70761600  0.56533100  0.39112100  1
  H  H27  1  0.20761600  0.43466900  0.10887900  1
  H  H28  1  0.27455200  0.62414800  0.61830400  1
  H  H29  1  0.77455200  0.37585200  0.88169600  1
  H  H30  1  0.72544800  0.37585200  0.38169600  1
  H  H31  1  0.22544800  0.62414800  0.11830400  1
  H  H32  1  0.77664200  0.15283200  0.51793500  1
  H  H33  1  0.27664200  0.84716800  0.98206500  1
  H  H34  1  0.22335800  0.84716800  0.48206500  1
  H  H35  1  0.72335800  0.15283200  0.01793500  1
  H  H36  1  0.82867400  0.05001400  0.60914800  1
  H  H37  1  0.32867400  0.94998600  0.89085200  1
  H  H38  1  0.17132600  0.94998600  0.39085200  1
  H  H39  1  0.67132600  0.05001400  0.10914800  1
  O  O0  1  0.41441600  0.20119200  0.48769500  1
  O  O1  1  0.91441600  0.79880800  0.01230500  1
  O  O2  1  0.58558400  0.79880800  0.51230500  1
  O  O3  1  0.08558400  0.20119200  0.98769500  1
  O  O4  1  0.41027100  0.97346100  0.59985100  1
  O  O5  1  0.91027100  0.02653900  0.90014900  1
  O  O6  1  0.58972900  0.02653900  0.40014900  1
  O  O7  1  0.08972900  0.97346100  0.09985100  1
  O  O8  1  0.31257100  0.21929200  0.64145000  1
  O  O9  1  0.81257100  0.78070800  0.85855000  1
  O  O10  1  0.68742900  0.78070800  0.35855000  1
  O  O11  1  0.18742900  0.21929200  0.14145000  1
  O  O12  1  0.05321100  0.81368000  0.69122900  1
  O  O13  1  0.55321100  0.18632000  0.80877100  1
  O  O14  1  0.94678900  0.18632000  0.30877100  1
  O  O15  1  0.44678900  0.81368000  0.19122900  1
  O  O16  1  0.25829700  0.81129300  0.68237300  1
  O  O17  1  0.75829700  0.18870700  0.81762700  1
  O  O18  1  0.74170300  0.18870700  0.31762700  1
  O  O19  1  0.24170300  0.81129300  0.18237300  1
  O  O20  1  0.24966800  0.26575200  0.80958800  1
  O  O21  1  0.74966800  0.73424800  0.69041200  1
  O  O22  1  0.75033200  0.73424800  0.19041200  1
  O  O23  1  0.25033200  0.26575200  0.30958800  1
  O  O24  1  0.15704800  0.05723800  0.71716400  1
  O  O25  1  0.65704800  0.94276200  0.78283600  1
  O  O26  1  0.84295200  0.94276200  0.28283600  1
  O  O27  1  0.34295200  0.05723800  0.21716400  1
  O  O28  1  0.35634100  0.02130800  0.77183500  1
  O  O29  1  0.85634100  0.97869200  0.72816500  1
  O  O30  1  0.64365900  0.97869200  0.22816500  1
  O  O31  1  0.14365900  0.02130800  0.27183500  1
  O  O32  1  0.45653700  0.77482500  0.72882100  1
  O  O33  1  0.95653700  0.22517500  0.77117900  1
  O  O34  1  0.54346300  0.22517500  0.27117900  1
  O  O35  1  0.04346300  0.77482500  0.22882100  1
  O  O36  1  0.89119100  0.47895600  0.64915400  1
  O  O37  1  0.39119100  0.52104400  0.85084600  1
  O  O38  1  0.10880900  0.52104400  0.35084600  1
  O  O39  1  0.60880900  0.47895600  0.14915400  1
  O  O40  1  0.28657400  0.53676300  0.57076700  1
  O  O41  1  0.78657400  0.46323700  0.92923300  1
  O  O42  1  0.71342600  0.46323700  0.42923300  1
  O  O43  1  0.21342600  0.53676300  0.07076700  1
  O  O44  1  0.83173400  0.06857400  0.53492300  1
  O  O45  1  0.33173400  0.93142600  0.96507700  1
  O  O46  1  0.16826600  0.93142600  0.46507700  1
  O  O47  1  0.66826600  0.06857400  0.03492300  1
loop_
_geom_bond_atom_site_label_1
_geom_bond_atom_site_label_2
_geom_bond_distance
_geom_bond_site_symmetry_2
Cs0 O39 3.132530 1_556
Cs0 O45 3.133714 1_555
Cs0 H23 3.142766 1_556
Cs0 O47 3.157920 1_566
Cs0 O37 3.180740 1_555
Cs0 H25 3.222091 1_555
Cs0 H0 3.224190 1_555
Cs0 O15 3.228822 1_556
Cs0 H17 3.235729 1_555
Cs0 O25 3.292851 1_555
Cs0 O9 3.305756 1_555
Cs0 H15 3.352522 1_556
Cs0 H10 3.412590 1_556
Cs0 O41 3.497540 1_555
Cs1 O38 3.132530 1_555
Cs1 O44 3.133714 1_455
Cs1 H22 3.142766 1_555
Cs1 O46 3.157920 1_545
Cs1 O36 3.180740 1_455
Cs1 H24 3.222091 1_555
Cs1 H1 3.224190 1_555
Cs1 O14 3.228822 1_455
Cs1 H16 3.235729 1_455
Cs1 O24 3.292851 1_555
Cs1 O8 3.305756 1_555
Cs1 H14 3.352522 1_555
Cs1 H11 3.412590 1_555
Cs1 O40 3.497540 1_555
Cs2 O37 3.132530 1_554
Cs2 O47 3.133714 1_555
Cs2 H21 3.142766 1_554
Cs2 O45 3.157920 1_544
Cs2 O39 3.180740 1_555
Cs2 H27 3.222091 1_555
Cs2 H2 3.224190 1_555
Cs2 O13 3.228822 1_554
Cs2 H19 3.235729 1_555
Cs2 O27 3.292851 1_555
Cs2 O11 3.305756 1_555
Cs2 H13 3.352522 1_554
Cs2 H8 3.412590 1_554
Cs2 O43 3.497540 1_555
Cs3 O36 3.132530 1_555
Cs3 O46 3.133714 1_655
Cs3 H20 3.142766 1_555
Cs3 O44 3.157920 1_565
Cs3 O38 3.180740 1_655
Cs3 H26 3.222091 1_555
Cs3 H3 3.224190 1_555
Cs3 O12 3.228822 1_655
Cs3 H18 3.235729 1_655
Cs3 O26 3.292851 1_555
Cs3 O10 3.305756 1_555
Cs3 H12 3.352522 1_555
Cs3 H9 3.412590 1_555
Cs3 O42 3.497540 1_555
Cs4 O12 3.173551 1_555
Cs4 O43 3.213397 1_556
Cs5 O13 3.173551 1_555
Cs5 O42 3.213397 1_555
Cs6 O14 3.173551 1_555
Cs6 O41 3.213397 1_554
Cs7 O15 3.173551 1_555
Cs7 O40 3.213397 1_555
B0 O4 1.374250 1_545
B0 O8 1.385471 1_555
B0 O0 1.392504 1_555
B1 O5 1.374250 1_565
B1 O9 1.385471 1_555
B1 O1 1.392504 1_556
B2 O6 1.374250 1_565
B2 O10 1.385471 1_555
B2 O2 1.392504 1_555
B3 O7 1.374250 1_545
B3 O11 1.385471 1_555
B3 O3 1.392504 1_554
B4 O12 1.378042 1_555
B4 O16 1.380220 1_555
B4 O24 1.383859 1_565
B5 O13 1.378042 1_555
B5 O17 1.380220 1_555
B5 O25 1.383859 1_545
B6 O14 1.378042 1_555
B6 O18 1.380220 1_555
B6 O26 1.383859 1_545
B7 O15 1.378042 1_555
B7 O19 1.380220 1_555
B7 O27 1.383859 1_565
B8 O32 1.450743 1_555
B8 O28 1.486455 1_565
B8 O16 1.489670 1_555
B8 O4 1.516105 1_555
B9 O33 1.450743 1_555
B9 O29 1.486455 1_545
B9 O17 1.489670 1_555
B9 O5 1.516105 1_555
B10 O34 1.450743 1_555
B10 O30 1.486455 1_545
B10 O18 1.489670 1_555
B10 O6 1.516105 1_555
B11 O35 1.450743 1_555
B11 O31 1.486455 1_565
B11 O19 1.489670 1_555
B11 O7 1.516105 1_555
B12 O20 1.463582 1_555
B12 O28 1.476666 1_555
B12 O24 1.499551 1_555
B12 O8 1.504158 1_555
B13 O21 1.463582 1_555
B13 O29 1.476666 1_555
B13 O25 1.499551 1_555
B13 O9 1.504158 1_555
B14 O22 1.463582 1_555
B14 O30 1.476666 1_555
B14 O26 1.499551 1_555
B14 O10 1.504158 1_555
B15 O23 1.463582 1_555
B15 O31 1.476666 1_555
B15 O27 1.499551 1_555
B15 O11 1.504158 1_555
H0 O32 0.988511 1_555
H1 O33 0.988511 1_455
H2 O34 0.988511 1_555
H3 O35 0.988511 1_655
H4 O0 1.002656 1_555
H5 O1 1.002656 1_555
H6 O2 1.002656 1_555
H7 O3 1.002656 1_555
H8 O20 0.981218 1_555
H9 O21 0.981218 1_555
H10 O22 0.981218 1_555
H11 O23 0.981218 1_555
H12 O12 1.004047 1_655
H13 O13 1.004047 1_555
H14 O14 1.004047 1_455
H15 O15 1.004047 1_555
H16 O36 0.991169 1_555
H17 O37 0.991169 1_555
H18 O38 0.991169 1_555
H19 O39 0.991169 1_555
H20 O36 0.988661 1_555
H21 O37 0.988661 1_555
H22 O38 0.988661 1_555
H23 O39 0.988661 1_555
H24 O40 0.986319 1_555
H25 O41 0.986319 1_555
H26 O42 0.986319 1_555
H27 O43 0.986319 1_555
H28 O40 0.989352 1_555
H29 O41 0.989352 1_555
H30 O42 0.989352 1_555
H31 O43 0.989352 1_555
H32 O44 0.970578 1_555
H33 O45 0.970578 1_555
H34 O46 0.970578 1_555
H35 O47 0.970578 1_555
H36 O44 1.001647 1_555
H37 O45 1.001647 1_555
H38 O46 1.001647 1_555
H39 O47 1.001647 1_555
