# generated using pymatgen
data_NaGeSbO5
_symmetry_space_group_name_H-M   'P 1'
_cell_length_a   6.39826776
_cell_length_b   10.74442112
_cell_length_c   12.99689311
_cell_angle_alpha   90.00000000
_cell_angle_beta   90.00000000
_cell_angle_gamma   90.00000000
_symmetry_Int_Tables_number   1
_chemical_formula_structural   NaGeSbO5
_chemical_formula_sum   'Na8 Ge8 Sb8 O40'
_cell_volume   893.48029700
_cell_formula_units_Z   8
loop_
 _symmetry_equiv_pos_site_id
 _symmetry_equiv_pos_as_xyz
  1  'x, y, z'
loop_
 _atom_site_type_symbol
 _atom_site_label
 _atom_site_symmetry_multiplicity
 _atom_site_fract_x
 _atom_site_fract_y
 _atom_site_fract_z
 _atom_site_occupancy
  Na  Na0  1  0.80008206  0.73393560  0.34075018  1
  Na  Na1  1  0.27015906  0.41269723  0.89968060  1
  Na  Na2  1  0.22984094  0.41269723  0.39968060  1
  Na  Na3  1  0.72984094  0.91269723  0.10031940  1
  Na  Na4  1  0.30008206  0.23393560  0.15924882  1
  Na  Na5  1  0.69991794  0.73393560  0.84075118  1
  Na  Na6  1  0.19991794  0.23393560  0.65924882  1
  Na  Na7  1  0.77015906  0.91269723  0.60031940  1
  Ge  Ge0  1  0.68665824  0.24449685  0.51844760  1
  Ge  Ge1  1  0.18665824  0.74449685  0.98155240  1
  Ge  Ge2  1  0.81334176  0.24449685  0.01844760  1
  Ge  Ge3  1  0.54009771  0.51051995  0.18832274  1
  Ge  Ge4  1  0.45990229  0.01051995  0.81167726  1
  Ge  Ge5  1  0.95990229  0.51051995  0.68832274  1
  Ge  Ge6  1  0.31334176  0.74449685  0.48155240  1
  Ge  Ge7  1  0.04009771  0.01051995  0.31167726  1
  Sb  Sb0  1  0.27910291  0.77315305  0.22628208  1
  Sb  Sb1  1  0.72089709  0.27315305  0.77371792  1
  Sb  Sb2  1  0.22089709  0.77315305  0.72628208  1
  Sb  Sb3  1  0.53384281  0.99924577  0.38562922  1
  Sb  Sb4  1  0.46615719  0.49924577  0.61437078  1
  Sb  Sb5  1  0.96615719  0.99924577  0.88562922  1
  Sb  Sb6  1  0.03384281  0.49924577  0.11437078  1
  Sb  Sb7  1  0.77910291  0.27315305  0.27371792  1
  O  O0  1  0.94287471  0.15191735  0.80446580  1
  O  O1  1  0.05712529  0.65191735  0.19553420  1
  O  O2  1  0.55712529  0.15191735  0.30446580  1
  O  O3  1  0.44287471  0.65191735  0.69553420  1
  O  O4  1  0.49663640  0.89870175  0.25823236  1
  O  O5  1  0.50336360  0.39870175  0.74176764  1
  O  O6  1  0.00336360  0.89870175  0.75823236  1
  O  O7  1  0.99663640  0.39870175  0.24176764  1
  O  O8  1  0.49800286  0.15100126  0.74576470  1
  O  O9  1  0.50199714  0.65100226  0.25423530  1
  O  O10  1  0.00199714  0.15100126  0.24576470  1
  O  O11  1  0.99800286  0.65100226  0.75423530  1
  O  O12  1  0.06760121  0.90516065  0.20880755  1
  O  O13  1  0.93239879  0.40516065  0.79119245  1
  O  O14  1  0.43239879  0.90516065  0.70880755  1
  O  O15  1  0.13601192  0.78233755  0.58031287  1
  O  O16  1  0.56760121  0.40516065  0.29119245  1
  O  O17  1  0.73583051  0.52736608  0.09607256  1
  O  O18  1  0.23583051  0.02736608  0.40392844  1
  O  O19  1  0.76416949  0.52736608  0.59607156  1
  O  O20  1  0.83118683  0.95501443  0.38367497  1
  O  O21  1  0.16881317  0.45501443  0.61632503  1
  O  O22  1  0.66881317  0.95501443  0.88367497  1
  O  O23  1  0.33118683  0.45501443  0.11632503  1
  O  O24  1  0.53124307  0.84351258  0.47180238  1
  O  O25  1  0.46875693  0.34351258  0.52819762  1
  O  O26  1  0.96875693  0.84351258  0.97180238  1
  O  O27  1  0.03124307  0.34351258  0.02819762  1
  O  O28  1  0.90552224  0.09029255  0.01459995  1
  O  O29  1  0.09447776  0.59029255  0.98540005  1
  O  O30  1  0.59447776  0.09029255  0.51459995  1
  O  O31  1  0.40552224  0.59029255  0.48540005  1
  O  O32  1  0.16638661  0.75706735  0.36866981  1
  O  O33  1  0.83361339  0.25706735  0.63133019  1
  O  O34  1  0.33361339  0.75706735  0.86866981  1
  O  O35  1  0.66638661  0.25706735  0.13133019  1
  O  O36  1  0.63601192  0.28233755  0.91968713  1
  O  O37  1  0.36398808  0.78233755  0.08031287  1
  O  O38  1  0.86398808  0.28233755  0.41968713  1
  O  O39  1  0.26416949  0.02736608  0.90392844  1
loop_
_geom_bond_atom_site_label_1
_geom_bond_atom_site_label_2
_geom_bond_distance
_geom_bond_site_symmetry_2
Na0 O32 2.384626 1_655
Na0 O9 2.386599 1_555
Na0 O20 2.448102 1_555
Na0 O1 2.653961 1_655
Na0 O24 2.691844 1_555
Na0 O4 2.837913 1_555
Na1 O27 2.383130 1_556
Na1 O29 2.479065 1_555
Na1 O5 2.541898 1_555
Na1 O13 2.581657 1_455
Na1 O36 2.740230 1_555
Na1 O23 2.878782 1_556
Na2 O25 2.383130 1_555
Na2 O31 2.479065 1_555
Na2 O7 2.541898 1_455
Na2 O16 2.581657 1_555
Na2 O38 2.740230 1_455
Na2 O21 2.878782 1_555
Na3 O26 2.383130 1_554
Na3 O28 2.479065 1_565
Na3 O4 2.541898 1_555
Na3 O12 2.581657 1_655
Na3 O37 2.740230 1_555
Na3 O22 2.878782 1_554
Na4 O35 2.384624 1_555
Na4 O10 2.386609 1_555
Na4 O23 2.448099 1_555
Na4 O2 2.653970 1_555
Na4 O27 2.691836 1_555
Na4 O7 2.837918 1_455
Na5 O34 2.384624 1_555
Na5 O11 2.386605 1_555
Na5 O22 2.448099 1_555
Na5 O3 2.653970 1_555
Na5 O26 2.691836 1_555
Na5 O6 2.837918 1_655
Na6 O33 2.384624 1_455
Na6 O8 2.386609 1_555
Na6 O21 2.448099 1_555
Na6 O0 2.653970 1_455
Na6 O25 2.691836 1_555
Na6 O5 2.837918 1_555
Na7 O24 2.383130 1_555
Na7 O30 2.479065 1_565
Na7 O6 2.541898 1_655
Na7 O14 2.581657 1_555
Na7 O15 2.740230 1_655
Na7 O20 2.878782 1_555
Ge0 O33 1.747792 1_555
Ge0 O25 1.758306 1_555
Ge0 O30 1.759393 1_555
Ge0 O38 1.760740 1_555
Ge1 O34 1.747792 1_555
Ge1 O26 1.758306 1_455
Ge1 O29 1.759393 1_555
Ge1 O37 1.760740 1_556
Ge2 O35 1.747792 1_555
Ge2 O27 1.758306 1_655
Ge2 O28 1.759393 1_555
Ge2 O36 1.760740 1_554
Ge3 O23 1.737229 1_555
Ge3 O17 1.743176 1_555
Ge3 O9 1.752593 1_555
Ge3 O16 1.760676 1_555
Ge4 O22 1.737229 1_545
Ge4 O39 1.743185 1_555
Ge4 O8 1.752584 1_555
Ge4 O14 1.760676 1_545
Ge5 O21 1.737229 1_655
Ge5 O19 1.743185 1_555
Ge5 O11 1.752593 1_555
Ge5 O13 1.760676 1_555
Ge6 O32 1.747792 1_555
Ge6 O24 1.758306 1_555
Ge6 O31 1.759393 1_555
Ge6 O15 1.760740 1_555
Ge7 O20 1.737229 1_445
Ge7 O18 1.743185 1_555
Ge7 O10 1.752584 1_555
Ge7 O12 1.760676 1_545
O0 Sb5 1.955953 1_545
O0 Sb1 1.968162 1_555
O1 Sb6 1.955953 1_555
O1 Sb0 1.968162 1_555
O2 Sb3 1.955953 1_545
O2 Sb7 1.968162 1_555
O3 Sb4 1.955953 1_555
O3 Sb2 1.968162 1_555
O4 Sb0 1.982248 1_555
O4 Sb3 1.991292 1_555
O5 Sb1 1.982248 1_555
O5 Sb4 1.991292 1_555
O6 Sb2 1.982248 1_555
O6 Sb5 1.991292 1_455
O7 Sb7 1.982248 1_555
O7 Sb6 1.991292 1_655
O8 Sb1 1.971898 1_555
O9 Sb0 1.971891 1_555
O10 Sb7 1.971898 1_455
O11 Sb2 1.971891 1_655
O12 Sb0 1.973463 1_555
O13 Sb1 1.973463 1_555
O14 Sb2 1.973463 1_555
O15 Sb2 1.975824 1_555
O16 Sb7 1.973463 1_555
O17 Sb6 1.945145 1_655
O18 Sb3 1.945146 1_545
O19 Sb4 1.945146 1_555
O20 Sb3 1.961110 1_555
O21 Sb4 1.961110 1_555
O22 Sb5 1.961110 1_555
O23 Sb6 1.961110 1_555
O24 Sb3 2.013566 1_555
O25 Sb4 2.013566 1_555
O26 Sb5 2.013566 1_555
O27 Sb6 2.013566 1_555
O28 Sb5 1.979188 1_544
O29 Sb6 1.979188 1_556
O30 Sb3 1.979188 1_545
O31 Sb4 1.979188 1_555
O32 Sb0 1.993664 1_555
O33 Sb1 1.993664 1_555
O34 Sb2 1.993664 1_555
O35 Sb7 1.993664 1_555
O36 Sb1 1.975824 1_555
O37 Sb0 1.975824 1_555
O38 Sb7 1.975824 1_555
O39 Sb5 1.945146 1_445
