# generated using pymatgen
data_NaCu3O4
_symmetry_space_group_name_H-M   'P 1'
_cell_length_a   6.08109669
_cell_length_b   6.08109669
_cell_length_c   3.44995700
_cell_angle_alpha   90.00000000
_cell_angle_beta   90.00000000
_cell_angle_gamma   126.70793433
_symmetry_Int_Tables_number   1
_chemical_formula_structural   NaCu3O4
_chemical_formula_sum   'Na1 Cu3 O4'
_cell_volume   102.27877672
_cell_formula_units_Z   1
loop_
 _symmetry_equiv_pos_site_id
 _symmetry_equiv_pos_as_xyz
  1  'x, y, z'
loop_
 _atom_site_type_symbol
 _atom_site_label
 _atom_site_symmetry_multiplicity
 _atom_site_fract_x
 _atom_site_fract_y
 _atom_site_fract_z
 _atom_site_occupancy
  Na  Na0  1  0.00000000  0.00000000  0.50000000  1
  Cu  Cu0  1  0.24300000  0.75700000  0.00000000  1
  Cu  Cu1  1  0.75700000  0.24300000  0.00000000  1
  Cu  Cu2  1  0.50000000  0.50000000  0.00000000  1
  O  O0  1  0.39148000  0.13108500  0.00000000  1
  O  O1  1  0.86891500  0.60852000  0.00000000  1
  O  O2  1  0.13108500  0.39148000  0.00000000  1
  O  O3  1  0.60852000  0.86891500  0.00000000  1
loop_
_geom_bond_atom_site_label_1
_geom_bond_atom_site_label_2
_geom_bond_distance
_geom_bond_site_symmetry_2
Na0 O3 2.647590 1_445
Na0 O1 2.647590 1_446
Na0 O3 2.647590 1_446
Na0 O1 2.647590 1_445
Na0 O2 2.647590 1_556
Na0 O0 2.647590 1_555
Na0 O0 2.647590 1_556
Na0 O2 2.647590 1_555
Cu0 O1 1.880076 1_455
Cu0 O0 1.880076 1_565
Cu0 O2 1.896156 1_555
Cu0 O3 1.896156 1_555
Cu1 O3 1.880076 1_545
Cu1 O2 1.880076 1_655
Cu1 O0 1.896156 1_555
Cu1 O1 1.896156 1_555
Cu2 O1 1.923151 1_555
Cu2 O3 1.923151 1_555
Cu2 O2 1.923151 1_555
Cu2 O0 1.923151 1_555
