# generated using pymatgen
data_CaPd2
_symmetry_space_group_name_H-M   'P 1'
_cell_length_a   5.43007032
_cell_length_b   5.43007032
_cell_length_c   5.43007065
_cell_angle_alpha   59.99999793
_cell_angle_beta   59.99999791
_cell_angle_gamma   59.99999511
_symmetry_Int_Tables_number   1
_chemical_formula_structural   CaPd2
_chemical_formula_sum   'Ca2 Pd4'
_cell_volume   113.21431936
_cell_formula_units_Z   2
loop_
 _symmetry_equiv_pos_site_id
 _symmetry_equiv_pos_as_xyz
  1  'x, y, z'
loop_
 _atom_site_type_symbol
 _atom_site_label
 _atom_site_symmetry_multiplicity
 _atom_site_fract_x
 _atom_site_fract_y
 _atom_site_fract_z
 _atom_site_occupancy
  Ca  Ca0  1  0.87500000  0.87500000  0.87500000  1
  Ca  Ca1  1  0.12500000  0.12500000  0.12500000  1
  Pd  Pd0  1  0.50000000  0.50000000  0.50000000  1
  Pd  Pd1  1  0.50000000  0.50000000  -0.00000000  1
  Pd  Pd2  1  0.00000000  0.50000000  0.50000000  1
  Pd  Pd3  1  0.50000000  0.00000000  0.50000000  1
loop_
_geom_bond_atom_site_label_1
_geom_bond_atom_site_label_2
_geom_bond_distance
_geom_bond_site_symmetry_2
Ca0 Pd0 3.183661 1_655
Ca0 Pd0 3.183661 1_565
Ca0 Pd1 3.183661 1_656
Ca0 Pd1 3.183661 1_566
Ca0 Pd3 3.183661 1_665
Ca0 Pd2 3.183661 1_665
Ca0 Pd0 3.183661 1_556
Ca0 Pd1 3.183661 1_556
Ca0 Pd3 3.183661 1_566
Ca0 Pd2 3.183661 1_656
Ca0 Pd3 3.183661 1_565
Ca0 Pd2 3.183661 1_655
Ca0 Ca1 3.325225 1_566
Ca0 Ca1 3.325225 1_656
Ca0 Ca1 3.325226 1_665
Ca0 Ca1 3.325226 1_666
Ca1 Pd0 3.183661 1_455
Ca1 Pd0 3.183661 1_545
Ca1 Pd1 3.183661 1_455
Ca1 Pd1 3.183661 1_545
Ca1 Pd3 3.183661 1_455
Ca1 Pd2 3.183661 1_545
Ca1 Pd0 3.183661 1_554
Ca1 Pd1 3.183661 1_555
Ca1 Pd3 3.183661 1_554
Ca1 Pd2 3.183661 1_554
Ca1 Pd3 3.183661 1_555
Ca1 Pd2 3.183661 1_555
Pd0 Pd2 2.715035 1_555
Pd0 Pd2 2.715035 1_655
Pd0 Pd3 2.715035 1_555
Pd0 Pd3 2.715035 1_565
Pd0 Pd1 2.715035 1_555
Pd0 Pd1 2.715035 1_556
Pd1 Pd2 2.715035 1_654
Pd1 Pd2 2.715035 1_555
Pd1 Pd3 2.715035 1_555
Pd1 Pd3 2.715035 1_564
Pd2 Pd3 2.715035 1_465
Pd2 Pd3 2.715035 1_555
