# generated using pymatgen
data_KGd2CuSe4
_symmetry_space_group_name_H-M   'P 1'
_cell_length_a   7.40558125
_cell_length_b   7.40558125
_cell_length_c   14.50608200
_cell_angle_alpha   90.00000000
_cell_angle_beta   90.00000000
_cell_angle_gamma   147.32691550
_symmetry_Int_Tables_number   1
_chemical_formula_structural   KGd2CuSe4
_chemical_formula_sum   'K2 Gd4 Cu2 Se8'
_cell_volume   429.47458958
_cell_formula_units_Z   2
loop_
 _symmetry_equiv_pos_site_id
 _symmetry_equiv_pos_as_xyz
  1  'x, y, z'
loop_
 _atom_site_type_symbol
 _atom_site_label
 _atom_site_symmetry_multiplicity
 _atom_site_fract_x
 _atom_site_fract_y
 _atom_site_fract_z
 _atom_site_occupancy
  K  K0  1  0.11136700  0.88863300  0.25000000  1
  K  K1  1  0.88863300  0.11136700  0.75000000  1
  Gd  Gd0  1  0.36541700  0.63458300  0.06441100  1
  Gd  Gd1  1  0.36541700  0.63458300  0.43558900  1
  Gd  Gd2  1  0.63458300  0.36541700  0.56441100  1
  Gd  Gd3  1  0.63458300  0.36541700  0.93558900  1
  Cu  Cu0  1  0.83995700  0.16004300  0.25000000  1
  Cu  Cu1  1  0.16004300  0.83995700  0.75000000  1
  Se  Se0  1  0.00000000  0.00000000  0.00000000  1
  Se  Se1  1  0.73445600  0.26554400  0.11324300  1
  Se  Se2  1  0.43533300  0.56466700  0.25000000  1
  Se  Se3  1  0.73445600  0.26554400  0.38675700  1
  Se  Se4  1  0.00000000  0.00000000  0.50000000  1
  Se  Se5  1  0.26554400  0.73445600  0.61324300  1
  Se  Se6  1  0.56466700  0.43533300  0.75000000  1
  Se  Se7  1  0.26554400  0.73445600  0.88675700  1
loop_
_geom_bond_atom_site_label_1
_geom_bond_atom_site_label_2
_geom_bond_distance
_geom_bond_site_symmetry_2
K0 Se2 3.255617 1_565
K0 Se2 3.255617 1_455
K0 Se3 3.366782 1_565
K0 Se3 3.366782 1_455
K0 Se1 3.366782 1_565
K0 Se1 3.366782 1_455
K1 Se6 3.255617 1_655
K1 Se6 3.255617 1_545
K1 Se7 3.366782 1_545
K1 Se7 3.366782 1_655
K1 Se5 3.366782 1_655
K1 Se5 3.366782 1_545
Gd0 Se2 2.869716 1_555
Gd0 Se1 2.881928 1_455
Gd0 Se1 2.881928 1_565
Gd0 Se7 2.942154 1_554
Gd0 Se0 2.978429 1_555
Gd0 Se0 2.978429 1_665
Gd1 Se2 2.869716 1_555
Gd1 Se3 2.881928 1_455
Gd1 Se3 2.881928 1_565
Gd1 Se5 2.942154 1_555
Gd1 Se4 2.978429 1_555
Gd1 Se4 2.978429 1_665
Gd2 Se6 2.869716 1_555
Gd2 Se5 2.881928 1_655
Gd2 Se5 2.881928 1_545
Gd2 Se3 2.942154 1_555
Gd2 Se4 2.978429 1_665
Gd2 Se4 2.978429 1_555
Gd3 Se6 2.869716 1_555
Gd3 Se7 2.881928 1_655
Gd3 Se7 2.881928 1_545
Gd3 Se1 2.942154 1_556
Gd3 Se0 2.978429 1_666
Gd3 Se0 2.978429 1_556
Cu0 Se2 2.485290 1_655
Cu0 Se2 2.485290 1_545
Cu0 Se3 2.486767 1_555
Cu0 Se1 2.486767 1_555
Cu1 Se6 2.485290 1_565
Cu1 Se6 2.485290 1_455
Cu1 Se7 2.486767 1_555
Cu1 Se5 2.486767 1_555
