# generated using pymatgen
data_Sc2NiRu
_symmetry_space_group_name_H-M   'P 1'
_cell_length_a   4.48349215
_cell_length_b   4.48345843
_cell_length_c   4.48682987
_cell_angle_alpha   60.11195196
_cell_angle_beta   60.11430872
_cell_angle_gamma   60.04953857
_symmetry_Int_Tables_number   1
_chemical_formula_structural   Sc2NiRu
_chemical_formula_sum   'Sc2 Ni1 Ru1'
_cell_volume   63.90834426
_cell_formula_units_Z   1
loop_
 _symmetry_equiv_pos_site_id
 _symmetry_equiv_pos_as_xyz
  1  'x, y, z'
loop_
 _atom_site_type_symbol
 _atom_site_label
 _atom_site_symmetry_multiplicity
 _atom_site_fract_x
 _atom_site_fract_y
 _atom_site_fract_z
 _atom_site_occupancy
  Sc  Sc0  1  -0.00000050  0.00002579  0.99988076  1
  Sc  Sc1  1  0.49998904  0.50000867  0.50007396  1
  Ni  Ni0  1  0.25000688  0.24997352  0.25003199  1
  Ru  Ru0  1  0.75000158  0.74999102  0.75001129  1
loop_
_geom_bond_atom_site_label_1
_geom_bond_atom_site_label_2
_geom_bond_distance
_geom_bond_site_symmetry_2
Ni0 Sc1 2.744549 1_555
Ni0 Sc0 2.744721 1_554
Ni0 Sc1 2.747979 1_545
Ni0 Sc0 2.748168 1_654
Ni0 Sc1 2.748259 1_455
Ni0 Sc0 2.748300 1_564
Ni0 Sc0 2.751408 1_555
Ni0 Sc1 2.751809 1_554
Ru0 Sc0 2.743973 1_665
Ru0 Sc1 2.744083 1_555
Ru0 Sc0 2.747980 1_655
Ru0 Sc1 2.748147 1_655
Ru0 Sc1 2.748172 1_565
Ru0 Sc0 2.748200 1_565
Ru0 Sc1 2.752193 1_556
Ru0 Sc0 2.752442 1_664
