# generated using pymatgen
data_V2Sn4H24C8O9
_symmetry_space_group_name_H-M   'P 1'
_cell_length_a   12.84900400
_cell_length_b   13.56576500
_cell_length_c   13.71636100
_cell_angle_alpha   90.00000000
_cell_angle_beta   90.00000000
_cell_angle_gamma   90.00000000
_symmetry_Int_Tables_number   1
_chemical_formula_structural   V2Sn4H24C8O9
_chemical_formula_sum   'V8 Sn16 H96 C32 O36'
_cell_volume   2390.85182162
_cell_formula_units_Z   4
loop_
 _symmetry_equiv_pos_site_id
 _symmetry_equiv_pos_as_xyz
  1  'x, y, z'
loop_
 _atom_site_type_symbol
 _atom_site_label
 _atom_site_symmetry_multiplicity
 _atom_site_fract_x
 _atom_site_fract_y
 _atom_site_fract_z
 _atom_site_occupancy
  V  V0  1  0.47645400  0.74833200  0.36987100  1
  V  V1  1  0.52354600  0.74833200  0.63012900  1
  V  V2  1  0.97645400  0.75166800  0.13012900  1
  V  V3  1  0.02354600  0.75166800  0.86987100  1
  V  V4  1  0.52354600  0.25166800  0.63012900  1
  V  V5  1  0.47645400  0.25166800  0.36987100  1
  V  V6  1  0.02354600  0.24833200  0.86987100  1
  V  V7  1  0.97645400  0.24833200  0.13012900  1
  Sn  Sn0  1  0.13008400  0.50000000  0.21486900  1
  Sn  Sn1  1  0.86991600  0.50000000  0.78513100  1
  Sn  Sn2  1  0.63008400  0.00000000  0.28513100  1
  Sn  Sn3  1  0.36991600  0.00000000  0.71486900  1
  Sn  Sn4  1  0.37781400  0.50000000  0.30183300  1
  Sn  Sn5  1  0.62218600  0.50000000  0.69816700  1
  Sn  Sn6  1  0.87781400  0.00000000  0.19816700  1
  Sn  Sn7  1  0.12218600  0.00000000  0.80183300  1
  Sn  Sn8  1  0.20784200  0.74386000  0.26932600  1
  Sn  Sn9  1  0.79215800  0.74386000  0.73067400  1
  Sn  Sn10  1  0.70784200  0.75614000  0.23067400  1
  Sn  Sn11  1  0.29215800  0.75614000  0.76932600  1
  Sn  Sn12  1  0.79215800  0.25614000  0.73067400  1
  Sn  Sn13  1  0.20784200  0.25614000  0.26932600  1
  Sn  Sn14  1  0.29215800  0.24386000  0.76932600  1
  Sn  Sn15  1  0.70784200  0.24386000  0.23067400  1
  H  H0  1  0.22963900  0.50000000  0.04246000  1
  H  H1  1  0.77036100  0.50000000  0.95754000  1
  H  H2  1  0.72963900  0.00000000  0.45754000  1
  H  H3  1  0.27036100  0.00000000  0.54246000  1
  H  H4  1  0.11035000  0.56665700  0.02958600  1
  H  H5  1  0.88965000  0.56665700  0.97041400  1
  H  H6  1  0.61035000  0.93334300  0.47041400  1
  H  H7  1  0.38965000  0.93334300  0.52958600  1
  H  H8  1  0.88965000  0.43334300  0.97041400  1
  H  H9  1  0.11035000  0.43334300  0.02958600  1
  H  H10  1  0.38965000  0.06665700  0.52958600  1
  H  H11  1  0.61035000  0.06665700  0.47041400  1
  H  H12  1  0.05069500  0.50000000  0.39686600  1
  H  H13  1  0.94930500  0.50000000  0.60313400  1
  H  H14  1  0.55069500  0.00000000  0.10313400  1
  H  H15  1  0.44930500  0.00000000  0.89686600  1
  H  H16  1  0.96467200  0.43352100  0.31746300  1
  H  H17  1  0.03532800  0.43352100  0.68253700  1
  H  H18  1  0.46467200  0.06647900  0.18253700  1
  H  H19  1  0.53532800  0.06647900  0.81746300  1
  H  H20  1  0.03532800  0.56647900  0.68253700  1
  H  H21  1  0.96467200  0.56647900  0.31746300  1
  H  H22  1  0.53532800  0.93352100  0.81746300  1
  H  H23  1  0.46467200  0.93352100  0.18253700  1
  H  H24  1  0.37647900  0.50000000  0.10408300  1
  H  H25  1  0.62352100  0.50000000  0.89591700  1
  H  H26  1  0.87647900  0.00000000  0.39591700  1
  H  H27  1  0.12352100  0.00000000  0.60408300  1
  H  H28  1  0.48820600  0.43421300  0.14740500  1
  H  H29  1  0.51179400  0.43421300  0.85259500  1
  H  H30  1  0.98820600  0.06578700  0.35259500  1
  H  H31  1  0.01179400  0.06578700  0.64740500  1
  H  H32  1  0.51179400  0.56578700  0.85259500  1
  H  H33  1  0.48820600  0.56578700  0.14740500  1
  H  H34  1  0.01179400  0.93421300  0.64740500  1
  H  H35  1  0.98820600  0.93421300  0.35259500  1
  H  H36  1  0.26377300  0.50000000  0.46741800  1
  H  H37  1  0.73622700  0.50000000  0.53258200  1
  H  H38  1  0.76377300  0.00000000  0.03258200  1
  H  H39  1  0.23622700  0.00000000  0.96741800  1
  H  H40  1  0.38329400  0.56585900  0.48744300  1
  H  H41  1  0.61670600  0.56585900  0.51255700  1
  H  H42  1  0.88329400  0.93414100  0.01255700  1
  H  H43  1  0.11670600  0.93414100  0.98744300  1
  H  H44  1  0.61670600  0.43414100  0.51255700  1
  H  H45  1  0.38329400  0.43414100  0.48744300  1
  H  H46  1  0.11670600  0.06585900  0.98744300  1
  H  H47  1  0.88329400  0.06585900  0.01255700  1
  H  H48  1  0.30433100  0.77162900  0.09710300  1
  H  H49  1  0.69566900  0.77162900  0.90289700  1
  H  H50  1  0.80433100  0.72837100  0.40289700  1
  H  H51  1  0.19566900  0.72837100  0.59710300  1
  H  H52  1  0.69566900  0.22837100  0.90289700  1
  H  H53  1  0.30433100  0.22837100  0.09710300  1
  H  H54  1  0.19566900  0.27162900  0.59710300  1
  H  H55  1  0.80433100  0.27162900  0.40289700  1
  H  H56  1  0.30667100  0.88504300  0.16432400  1
  H  H57  1  0.69332900  0.88504300  0.83567600  1
  H  H58  1  0.80667100  0.61495700  0.33567600  1
  H  H59  1  0.19332900  0.61495700  0.66432400  1
  H  H60  1  0.69332900  0.11495700  0.83567600  1
  H  H61  1  0.30667100  0.11495700  0.16432400  1
  H  H62  1  0.19332900  0.38504300  0.66432400  1
  H  H63  1  0.80667100  0.38504300  0.33567600  1
  H  H64  1  0.19104100  0.84862400  0.10110700  1
  H  H65  1  0.80895900  0.84862400  0.89889300  1
  H  H66  1  0.69104100  0.65137600  0.39889300  1
  H  H67  1  0.30895900  0.65137600  0.60110700  1
  H  H68  1  0.80895900  0.15137600  0.89889300  1
  H  H69  1  0.19104100  0.15137600  0.10110700  1
  H  H70  1  0.30895900  0.34862400  0.60110700  1
  H  H71  1  0.69104100  0.34862400  0.39889300  1
  H  H72  1  0.11069300  0.71383100  0.44173600  1
  H  H73  1  0.88930700  0.71383100  0.55826400  1
  H  H74  1  0.61069300  0.78616900  0.05826400  1
  H  H75  1  0.38930700  0.78616900  0.94173600  1
  H  H76  1  0.88930700  0.28616900  0.55826400  1
  H  H77  1  0.11069300  0.28616900  0.44173600  1
  H  H78  1  0.38930700  0.21383100  0.94173600  1
  H  H79  1  0.61069300  0.21383100  0.05826400  1
  H  H80  1  0.03797300  0.80204100  0.37317100  1
  H  H81  1  0.96202700  0.80204100  0.62682900  1
  H  H82  1  0.53797300  0.69795900  0.12682900  1
  H  H83  1  0.46202700  0.69795900  0.87317100  1
  H  H84  1  0.96202700  0.19795900  0.62682900  1
  H  H85  1  0.03797300  0.19795900  0.37317100  1
  H  H86  1  0.46202700  0.30204100  0.87317100  1
  H  H87  1  0.53797300  0.30204100  0.12682900  1
  H  H88  1  0.15425100  0.83937900  0.43596400  1
  H  H89  1  0.84574900  0.83937900  0.56403600  1
  H  H90  1  0.65425100  0.66062100  0.06403600  1
  H  H91  1  0.34574900  0.66062100  0.93596400  1
  H  H92  1  0.84574900  0.16062100  0.56403600  1
  H  H93  1  0.15425100  0.16062100  0.43596400  1
  H  H94  1  0.34574900  0.33937900  0.93596400  1
  H  H95  1  0.65425100  0.33937900  0.06403600  1
  C  C0  1  0.14630100  0.50000000  0.05929300  1
  C  C1  1  0.85369900  0.50000000  0.94070700  1
  C  C2  1  0.64630100  0.00000000  0.44070700  1
  C  C3  1  0.35369900  0.00000000  0.55929300  1
  C  C4  1  0.01205600  0.50000000  0.32563300  1
  C  C5  1  0.98794400  0.50000000  0.67436700  1
  C  C6  1  0.51205600  0.00000000  0.17436700  1
  C  C7  1  0.48794400  0.00000000  0.82563300  1
  C  C8  1  0.44030700  0.50000000  0.15673200  1
  C  C9  1  0.55969300  0.50000000  0.84326800  1
  C  C10  1  0.94030700  0.00000000  0.34326800  1
  C  C11  1  0.05969300  0.00000000  0.65673200  1
  C  C12  1  0.34802200  0.50000000  0.45548400  1
  C  C13  1  0.65197800  0.50000000  0.54451600  1
  C  C14  1  0.84802200  0.00000000  0.04451600  1
  C  C15  1  0.15197800  0.00000000  0.95548400  1
  C  C16  1  0.25845900  0.82242100  0.14203500  1
  C  C17  1  0.74154100  0.82242100  0.85796500  1
  C  C18  1  0.75845900  0.67757900  0.35796500  1
  C  C19  1  0.24154100  0.67757900  0.64203500  1
  C  C20  1  0.74154100  0.17757900  0.85796500  1
  C  C21  1  0.25845900  0.17757900  0.14203500  1
  C  C22  1  0.24154100  0.32242100  0.64203500  1
  C  C23  1  0.75845900  0.32242100  0.35796500  1
  C  C24  1  0.11609200  0.77971500  0.39570700  1
  C  C25  1  0.88390800  0.77971500  0.60429300  1
  C  C26  1  0.61609200  0.72028500  0.10429300  1
  C  C27  1  0.38390800  0.72028500  0.89570700  1
  C  C28  1  0.88390800  0.22028500  0.60429300  1
  C  C29  1  0.11609200  0.22028500  0.39570700  1
  C  C30  1  0.38390800  0.27971500  0.89570700  1
  C  C31  1  0.61609200  0.27971500  0.10429300  1
  O  O0  1  0.24690900  0.59789000  0.26530300  1
  O  O1  1  0.75309100  0.59789000  0.73469700  1
  O  O2  1  0.74690900  0.90211000  0.23469700  1
  O  O3  1  0.25309100  0.90211000  0.76530300  1
  O  O4  1  0.75309100  0.40211000  0.73469700  1
  O  O5  1  0.24690900  0.40211000  0.26530300  1
  O  O6  1  0.25309100  0.09789000  0.76530300  1
  O  O7  1  0.74690900  0.09789000  0.23469700  1
  O  O8  1  0.35100400  0.78417500  0.34538600  1
  O  O9  1  0.64899600  0.78417500  0.65461400  1
  O  O10  1  0.85100400  0.71582500  0.15461400  1
  O  O11  1  0.14899600  0.71582500  0.84538600  1
  O  O12  1  0.64899600  0.21582500  0.65461400  1
  O  O13  1  0.35100400  0.21582500  0.34538600  1
  O  O14  1  0.14899600  0.28417500  0.84538600  1
  O  O15  1  0.85100400  0.28417500  0.15461400  1
  O  O16  1  0.49250200  0.63082500  0.33096500  1
  O  O17  1  0.50749800  0.63082500  0.66903500  1
  O  O18  1  0.99250200  0.86917500  0.16903500  1
  O  O19  1  0.00749800  0.86917500  0.83096500  1
  O  O20  1  0.50749800  0.36917500  0.66903500  1
  O  O21  1  0.49250200  0.36917500  0.33096500  1
  O  O22  1  0.00749800  0.13082500  0.83096500  1
  O  O23  1  0.99250200  0.13082500  0.16903500  1
  O  O24  1  0.56782700  0.82171100  0.30807000  1
  O  O25  1  0.43217300  0.82171100  0.69193000  1
  O  O26  1  0.06782700  0.67828900  0.19193000  1
  O  O27  1  0.93217300  0.67828900  0.80807000  1
  O  O28  1  0.43217300  0.17828900  0.69193000  1
  O  O29  1  0.56782700  0.17828900  0.30807000  1
  O  O30  1  0.93217300  0.32171100  0.80807000  1
  O  O31  1  0.06782700  0.32171100  0.19193000  1
  O  O32  1  0.50000000  0.75658400  0.50000000  1
  O  O33  1  0.00000000  0.74341600  0.00000000  1
  O  O34  1  0.50000000  0.24341600  0.50000000  1
  O  O35  1  0.00000000  0.25658400  0.00000000  1
loop_
_geom_bond_atom_site_label_1
_geom_bond_atom_site_label_2
_geom_bond_distance
_geom_bond_site_symmetry_2
C0 H4 1.094116 1_555
C0 H9 1.094116 1_555
C0 H0 1.095419 1_555
C0 Sn0 2.144086 1_555
C1 H5 1.094116 1_555
C1 H8 1.094116 1_555
C1 H1 1.095419 1_555
C1 Sn1 2.144086 1_555
C2 H6 1.094116 1_545
C2 H11 1.094116 1_555
C2 H2 1.095419 1_555
C2 Sn2 2.144086 1_555
C3 H7 1.094116 1_545
C3 H10 1.094116 1_555
C3 H3 1.095419 1_555
C3 Sn3 2.144086 1_555
C4 H21 1.093871 1_455
C4 H16 1.093871 1_455
C4 H12 1.095959 1_555
C4 Sn0 2.146651 1_555
C5 H20 1.093871 1_655
C5 H17 1.093871 1_655
C5 H13 1.095959 1_555
C5 Sn1 2.146651 1_555
C6 H23 1.093871 1_545
C6 H18 1.093871 1_555
C6 H14 1.095959 1_555
C6 Sn2 2.146651 1_555
C7 H22 1.093871 1_545
C7 H19 1.093871 1_555
C7 H15 1.095959 1_555
C7 Sn3 2.146651 1_555
C8 H28 1.091613 1_555
C8 H33 1.091613 1_555
C8 H24 1.092754 1_555
C8 Sn4 2.146134 1_555
C9 H29 1.091613 1_555
C9 H32 1.091613 1_555
C9 H25 1.092754 1_555
C9 Sn5 2.146134 1_555
C10 H30 1.091613 1_555
C10 H35 1.091613 1_545
C10 H26 1.092754 1_555
C10 Sn6 2.146134 1_555
C11 H31 1.091613 1_555
C11 H34 1.091613 1_545
C11 H27 1.092754 1_555
C11 Sn7 2.146134 1_555
C12 H40 1.093514 1_555
C12 H45 1.093514 1_555
C12 H36 1.094822 1_555
C12 Sn4 2.142015 1_555
C13 H44 1.093514 1_555
C13 H41 1.093514 1_555
C13 H37 1.094822 1_555
C13 Sn5 2.142015 1_555
C14 H42 1.093514 1_545
C14 H47 1.093514 1_555
C14 H38 1.094822 1_555
C14 Sn6 2.142015 1_555
C15 H43 1.093514 1_545
C15 H46 1.093514 1_555
C15 H39 1.094822 1_555
C15 Sn7 2.142015 1_555
C16 H64 1.091743 1_555
C16 H56 1.094940 1_555
C16 H48 1.096357 1_555
C16 Sn8 2.146439 1_555
C17 H65 1.091743 1_555
C17 H57 1.094940 1_555
C17 H49 1.096357 1_555
C17 Sn9 2.146439 1_555
C18 H66 1.091743 1_555
C18 H58 1.094940 1_555
C18 H50 1.096357 1_555
C18 Sn10 2.146439 1_555
C19 H67 1.091743 1_555
C19 H59 1.094940 1_555
C19 H51 1.096357 1_555
C19 Sn11 2.146439 1_555
C20 H68 1.091743 1_555
C20 H60 1.094940 1_555
C20 H52 1.096357 1_555
C20 Sn12 2.146439 1_555
C21 H69 1.091743 1_555
C21 H61 1.094940 1_555
C21 H53 1.096357 1_555
C21 Sn13 2.146439 1_555
C22 H70 1.091743 1_555
C22 H62 1.094940 1_555
C22 H54 1.096357 1_555
C22 Sn14 2.146439 1_555
C23 H71 1.091743 1_555
C23 H63 1.094940 1_555
C23 H55 1.096357 1_555
C23 Sn15 2.146439 1_555
C24 H80 1.093068 1_555
C24 H88 1.095632 1_555
C24 H72 1.096465 1_555
C24 Sn8 2.152060 1_555
C25 H81 1.093068 1_555
C25 H89 1.095632 1_555
C25 H73 1.096465 1_555
C25 Sn9 2.152060 1_555
C26 H82 1.093068 1_555
C26 H90 1.095632 1_555
C26 H74 1.096465 1_555
C26 Sn10 2.152060 1_555
C27 H83 1.093068 1_555
C27 H91 1.095632 1_555
C27 H75 1.096465 1_555
C27 Sn11 2.152060 1_555
C28 H84 1.093068 1_555
C28 H92 1.095632 1_555
C28 H76 1.096465 1_555
C28 Sn12 2.152060 1_555
C29 H85 1.093068 1_555
C29 H93 1.095632 1_555
C29 H77 1.096465 1_555
C29 Sn13 2.152060 1_555
C30 H86 1.093068 1_555
C30 H94 1.095632 1_555
C30 H78 1.096465 1_555
C30 Sn14 2.152060 1_555
C31 H87 1.093068 1_555
C31 H95 1.095632 1_555
C31 H79 1.096465 1_555
C31 Sn15 2.152060 1_555
O0 Sn8 2.043573 1_555
O0 Sn0 2.120203 1_555
O0 Sn4 2.200827 1_555
O1 Sn9 2.043573 1_555
O1 Sn1 2.120203 1_555
O1 Sn5 2.200827 1_555
O2 Sn10 2.043573 1_555
O2 Sn2 2.120203 1_565
O2 Sn6 2.200827 1_565
O3 Sn11 2.043573 1_555
O3 Sn3 2.120203 1_565
O3 Sn7 2.200827 1_565
O4 Sn12 2.043573 1_555
O4 Sn1 2.120203 1_555
O4 Sn5 2.200827 1_555
O5 Sn13 2.043573 1_555
O5 Sn0 2.120203 1_555
O5 Sn4 2.200827 1_555
O6 Sn14 2.043573 1_555
O6 Sn3 2.120203 1_555
O6 Sn7 2.200827 1_555
O7 Sn15 2.043573 1_555
O7 Sn2 2.120203 1_555
O7 Sn6 2.200827 1_555
O8 V0 1.716818 1_555
O8 Sn8 2.184314 1_555
O9 V1 1.716818 1_555
O9 Sn9 2.184314 1_555
O10 V2 1.716818 1_555
O10 Sn10 2.184314 1_555
O11 V3 1.716818 1_555
O11 Sn11 2.184314 1_555
O12 V4 1.716818 1_555
O12 Sn12 2.184314 1_555
O13 V5 1.716818 1_555
O13 Sn13 2.184314 1_555
O14 V6 1.716818 1_555
O14 Sn14 2.184314 1_555
O15 V7 1.716818 1_555
O15 Sn15 2.184314 1_555
O16 V0 1.693625 1_555
O16 Sn4 2.341143 1_555
O17 V1 1.693625 1_555
O17 Sn5 2.341143 1_555
O18 V2 1.693625 1_555
O18 Sn6 2.341143 1_565
O19 V3 1.693625 1_555
O19 Sn7 2.341143 1_565
O20 V4 1.693625 1_555
O20 Sn5 2.341143 1_555
O21 V5 1.693625 1_555
O21 Sn4 2.341143 1_555
O22 V6 1.693625 1_555
O22 Sn7 2.341143 1_555
O23 V7 1.693625 1_555
O23 Sn6 2.341143 1_555
O24 V0 1.757234 1_555
O24 Sn10 2.270422 1_555
O24 Sn2 2.566838 1_565
O25 V1 1.757234 1_555
O25 Sn11 2.270422 1_555
O25 Sn3 2.566838 1_565
O26 V2 1.757234 1_455
O26 Sn8 2.270422 1_555
O26 Sn0 2.566838 1_555
O27 V3 1.757234 1_655
O27 Sn9 2.270422 1_555
O27 Sn1 2.566838 1_555
O28 V4 1.757234 1_555
O28 Sn14 2.270422 1_555
O28 Sn3 2.566838 1_555
O29 V5 1.757234 1_555
O29 Sn15 2.270422 1_555
O29 Sn2 2.566838 1_555
O30 V6 1.757234 1_655
O30 Sn12 2.270422 1_555
O30 Sn1 2.566838 1_555
O31 V7 1.757234 1_455
O31 Sn13 2.270422 1_555
O31 Sn0 2.566838 1_555
O32 V0 1.813813 1_555
O32 V1 1.813813 1_555
O33 V2 1.813813 1_455
O33 V3 1.813813 1_554
O34 V5 1.813813 1_555
O34 V4 1.813813 1_555
O35 V7 1.813813 1_455
O35 V6 1.813813 1_554
