# generated using pymatgen
data_Ba3Nb5O15
_symmetry_space_group_name_H-M   'P 1'
_cell_length_a   12.82901000
_cell_length_b   12.82901000
_cell_length_c   4.04280000
_cell_angle_alpha   90.00000000
_cell_angle_beta   90.00000000
_cell_angle_gamma   90.00000000
_symmetry_Int_Tables_number   1
_chemical_formula_structural   Ba3Nb5O15
_chemical_formula_sum   'Ba6 Nb10 O30'
_cell_volume   665.37816402
_cell_formula_units_Z   2
loop_
 _symmetry_equiv_pos_site_id
 _symmetry_equiv_pos_as_xyz
  1  'x, y, z'
loop_
 _atom_site_type_symbol
 _atom_site_label
 _atom_site_symmetry_multiplicity
 _atom_site_fract_x
 _atom_site_fract_y
 _atom_site_fract_z
 _atom_site_occupancy
  Ba  Ba0  1  0.33241600  0.83241600  0.00000000  1
  Ba  Ba1  1  0.83241600  0.66758400  0.00000000  1
  Ba  Ba2  1  0.16758400  0.33241600  0.00000000  1
  Ba  Ba3  1  0.66758400  0.16758400  0.00000000  1
  Ba  Ba4  1  0.50000000  0.50000000  0.00000000  1
  Ba  Ba5  1  0.00000000  0.00000000  0.00000000  1
  Nb  Nb0  1  0.42218000  0.28744600  0.50000000  1
  Nb  Nb1  1  0.57782000  0.71255400  0.50000000  1
  Nb  Nb2  1  0.71255400  0.42218000  0.50000000  1
  Nb  Nb3  1  0.28744600  0.57782000  0.50000000  1
  Nb  Nb4  1  0.78744600  0.92218000  0.50000000  1
  Nb  Nb5  1  0.92218000  0.21255400  0.50000000  1
  Nb  Nb6  1  0.07782000  0.78744600  0.50000000  1
  Nb  Nb7  1  0.21255400  0.07782000  0.50000000  1
  Nb  Nb8  1  0.00000000  0.50000000  0.50000000  1
  Nb  Nb9  1  0.50000000  0.00000000  0.50000000  1
  O  O0  1  0.36033300  0.43159100  0.50000000  1
  O  O1  1  0.63966700  0.56840900  0.50000000  1
  O  O2  1  0.56840900  0.36033300  0.50000000  1
  O  O3  1  0.43159100  0.63966700  0.50000000  1
  O  O4  1  0.93159100  0.86033300  0.50000000  1
  O  O5  1  0.86033300  0.06840900  0.50000000  1
  O  O6  1  0.13966700  0.93159100  0.50000000  1
  O  O7  1  0.06840900  0.13966700  0.50000000  1
  O  O8  1  0.15674900  0.49299100  0.50000000  1
  O  O9  1  0.84325100  0.50700900  0.50000000  1
  O  O10  1  0.50700900  0.15674900  0.50000000  1
  O  O11  1  0.49299100  0.84325100  0.50000000  1
  O  O12  1  0.99299100  0.65674900  0.50000000  1
  O  O13  1  0.65674900  0.00700900  0.50000000  1
  O  O14  1  0.34325100  0.99299100  0.50000000  1
  O  O15  1  0.00700900  0.34325100  0.50000000  1
  O  O16  1  0.50000000  0.00000000  0.00000000  1
  O  O17  1  0.00000000  0.50000000  0.00000000  1
  O  O18  1  0.78005700  0.28005700  0.50000000  1
  O  O19  1  0.28005700  0.21994300  0.50000000  1
  O  O20  1  0.71994300  0.78005700  0.50000000  1
  O  O21  1  0.21994300  0.71994300  0.50000000  1
  O  O22  1  0.20826000  0.07814500  0.00000000  1
  O  O23  1  0.07814500  0.79174000  0.00000000  1
  O  O24  1  0.92185500  0.20826000  0.00000000  1
  O  O25  1  0.79174000  0.92185500  0.00000000  1
  O  O26  1  0.29174000  0.57814500  0.00000000  1
  O  O27  1  0.70826000  0.42185500  0.00000000  1
  O  O28  1  0.57814500  0.70826000  0.00000000  1
  O  O29  1  0.42185500  0.29174000  0.00000000  1
loop_
_geom_bond_atom_site_label_1
_geom_bond_atom_site_label_2
_geom_bond_distance
_geom_bond_site_symmetry_2
Ba0 O21 2.872295 1_555
Ba0 O21 2.872295 1_554
Ba0 O11 2.889473 1_554
Ba0 O11 2.889473 1_555
Ba0 O14 2.889473 1_554
Ba0 O14 2.889473 1_555
Ba1 O20 2.872295 1_555
Ba1 O20 2.872295 1_554
Ba1 O12 2.889473 1_555
Ba1 O12 2.889473 1_554
Ba1 O9 2.889473 1_554
Ba1 O9 2.889473 1_555
Ba2 O19 2.872295 1_555
Ba2 O19 2.872295 1_554
Ba2 O8 2.889473 1_555
Ba2 O8 2.889473 1_554
Ba2 O15 2.889473 1_555
Ba2 O15 2.889473 1_554
Ba3 O18 2.872295 1_554
Ba3 O18 2.872295 1_555
Ba3 O13 2.889473 1_555
Ba3 O13 2.889473 1_554
Ba3 O10 2.889473 1_555
Ba3 O10 2.889473 1_554
Ba4 O1 2.840208 1_554
Ba4 O1 2.840208 1_555
Ba4 O3 2.840208 1_555
Ba4 O3 2.840208 1_554
Ba4 O2 2.840208 1_555
Ba4 O2 2.840208 1_554
Ba4 O0 2.840208 1_555
Ba4 O0 2.840208 1_554
Ba4 O29 2.853665 1_555
Ba4 O26 2.853665 1_555
Ba4 O28 2.853665 1_555
Ba4 O27 2.853665 1_555
Ba5 O6 2.840208 1_545
Ba5 O7 2.840208 1_555
Ba5 O6 2.840208 1_544
Ba5 O7 2.840208 1_554
Ba5 O5 2.840208 1_455
Ba5 O5 2.840208 1_454
Ba5 O4 2.840208 1_445
Ba5 O4 2.840208 1_444
Ba5 O23 2.853665 1_545
Ba5 O22 2.853665 1_555
Ba5 O25 2.853665 1_445
Ba5 O24 2.853665 1_455
Nb0 O10 1.998925 1_555
Nb0 O0 2.012267 1_555
Nb0 O19 2.018505 1_555
Nb0 O29 2.022155 1_555
Nb0 O29 2.022155 1_556
Nb0 O2 2.096098 1_555
Nb1 O11 1.998925 1_555
Nb1 O1 2.012267 1_555
Nb1 O20 2.018505 1_555
Nb1 O28 2.022155 1_555
Nb1 O28 2.022155 1_556
Nb1 O3 2.096098 1_555
Nb2 O9 1.998925 1_555
Nb2 O2 2.012267 1_555
Nb2 O18 2.018505 1_555
Nb2 O27 2.022155 1_556
Nb2 O27 2.022155 1_555
Nb2 O1 2.096098 1_555
Nb3 O8 1.998925 1_555
Nb3 O3 2.012267 1_555
Nb3 O21 2.018505 1_555
Nb3 O26 2.022155 1_555
Nb3 O26 2.022155 1_556
Nb3 O0 2.096098 1_555
Nb4 O13 1.998925 1_565
Nb4 O4 2.012267 1_555
Nb4 O20 2.018505 1_555
Nb4 O25 2.022155 1_555
Nb4 O25 2.022155 1_556
Nb4 O5 2.096098 1_565
Nb5 O15 1.998925 1_655
Nb5 O5 2.012267 1_555
Nb5 O18 2.018505 1_555
Nb5 O24 2.022155 1_556
Nb5 O24 2.022155 1_555
Nb5 O7 2.096098 1_655
Nb6 O12 1.998925 1_455
Nb6 O6 2.012267 1_555
Nb6 O21 2.018505 1_555
Nb6 O23 2.022155 1_555
Nb6 O23 2.022155 1_556
Nb6 O4 2.096098 1_455
Nb7 O14 1.998925 1_545
Nb7 O7 2.012267 1_555
Nb7 O19 2.018505 1_555
Nb7 O22 2.022155 1_556
Nb7 O22 2.022155 1_555
Nb7 O6 2.096098 1_545
Nb8 O12 2.012944 1_455
Nb8 O9 2.012944 1_455
Nb8 O15 2.012944 1_555
Nb8 O8 2.012944 1_555
Nb8 O17 2.021400 1_556
Nb8 O17 2.021400 1_555
Nb9 O13 2.012944 1_555
Nb9 O10 2.012944 1_555
Nb9 O14 2.012944 1_545
Nb9 O11 2.012944 1_545
Nb9 O16 2.021400 1_555
Nb9 O16 2.021400 1_556
