# generated using pymatgen
data_LiVRh2
_symmetry_space_group_name_H-M   'P 1'
_cell_length_a   4.15150005
_cell_length_b   4.15150365
_cell_length_c   4.15150795
_cell_angle_alpha   59.99983982
_cell_angle_beta   59.99989131
_cell_angle_gamma   59.99992563
_symmetry_Int_Tables_number   1
_chemical_formula_structural   LiVRh2
_chemical_formula_sum   'Li1 V1 Rh2'
_cell_volume   50.59414036
_cell_formula_units_Z   1
loop_
 _symmetry_equiv_pos_site_id
 _symmetry_equiv_pos_as_xyz
  1  'x, y, z'
loop_
 _atom_site_type_symbol
 _atom_site_label
 _atom_site_symmetry_multiplicity
 _atom_site_fract_x
 _atom_site_fract_y
 _atom_site_fract_z
 _atom_site_occupancy
  Li  Li0  1  0.25000000  0.25000000  0.25000000  1
  V  V0  1  0.75000000  0.75000000  0.75000000  1
  Rh  Rh0  1  0.00000100  0.00000200  0.99999900  1
  Rh  Rh1  1  0.50000000  0.50000000  0.50000100  1
loop_
_geom_bond_atom_site_label_1
_geom_bond_atom_site_label_2
_geom_bond_distance
_geom_bond_site_symmetry_2
Li0 Rh1 2.542261 1_554
Li0 Rh0 2.542261 1_555
Li0 Rh1 2.542262 1_455
Li0 Rh0 2.542262 1_554
Li0 Rh1 2.542263 1_545
Li0 Rh0 2.542265 1_654
Li0 Rh0 2.542269 1_564
Li0 Rh1 2.542272 1_555
Rh0 V0 2.542256 1_455
Rh0 V0 2.542258 1_545
Rh0 V0 2.542268 1_446
Rh0 V0 2.542276 1_445
Rh1 V0 2.542262 1_455
Rh1 V0 2.542263 1_545
Rh1 V0 2.542265 1_555
Rh1 V0 2.542268 1_554
