# generated using pymatgen
data_Mn2AlCr
_symmetry_space_group_name_H-M   'P 1'
_cell_length_a   4.34343081
_cell_length_b   4.34343081
_cell_length_c   4.34343081
_cell_angle_alpha   60.00000000
_cell_angle_beta   60.00000000
_cell_angle_gamma   60.00000000
_symmetry_Int_Tables_number   1
_chemical_formula_structural   Mn2AlCr
_chemical_formula_sum   'Mn2 Al1 Cr1'
_cell_volume   57.94069836
_cell_formula_units_Z   1
loop_
 _symmetry_equiv_pos_site_id
 _symmetry_equiv_pos_as_xyz
  1  'x, y, z'
loop_
 _atom_site_type_symbol
 _atom_site_label
 _atom_site_symmetry_multiplicity
 _atom_site_fract_x
 _atom_site_fract_y
 _atom_site_fract_z
 _atom_site_occupancy
  Mn  Mn0  1  0.00000000  -0.00000000  -0.00000000  1
  Mn  Mn1  1  0.50000100  0.50000100  0.50000100  1
  Al  Al0  1  0.25000100  0.25000100  0.25000100  1
  Cr  Cr0  1  0.75000000  0.75000000  0.75000000  1
loop_
_geom_bond_atom_site_label_1
_geom_bond_atom_site_label_2
_geom_bond_distance
_geom_bond_site_symmetry_2
Al0 Mn0 2.659794 1_565
Al0 Mn0 2.659794 1_655
Al0 Mn0 2.659794 1_556
Al0 Mn1 2.659797 1_554
Al0 Mn1 2.659797 1_455
Al0 Mn1 2.659797 1_545
Al0 Mn1 2.659797 1_555
Al0 Mn0 2.659808 1_555
Cr0 Mn1 2.659787 1_555
Cr0 Mn0 2.659797 1_566
Cr0 Mn0 2.659797 1_656
Cr0 Mn0 2.659797 1_666
Cr0 Mn0 2.659797 1_665
Cr0 Mn1 2.659801 1_565
Cr0 Mn1 2.659801 1_556
Cr0 Mn1 2.659801 1_655
