# generated using pymatgen
data_NpP3
_symmetry_space_group_name_H-M   'P 1'
_cell_length_a   5.52578349
_cell_length_b   5.52578587
_cell_length_c   5.46831515
_cell_angle_alpha   90.00000000
_cell_angle_beta   90.00000000
_cell_angle_gamma   120.00001750
_symmetry_Int_Tables_number   1
_chemical_formula_structural   NpP3
_chemical_formula_sum   'Np2 P6'
_cell_volume   144.60123660
_cell_formula_units_Z   2
loop_
 _symmetry_equiv_pos_site_id
 _symmetry_equiv_pos_as_xyz
  1  'x, y, z'
loop_
 _atom_site_type_symbol
 _atom_site_label
 _atom_site_symmetry_multiplicity
 _atom_site_fract_x
 _atom_site_fract_y
 _atom_site_fract_z
 _atom_site_occupancy
  Np  Np0  1  0.66666800  0.33333400  0.24999900  1
  Np  Np1  1  0.33333500  0.66666800  0.75000000  1
  P  P0  1  0.80650587  0.19349413  0.74999900  1
  P  P1  1  0.19349725  0.38699549  0.25000000  1
  P  P2  1  0.61300651  0.80650375  0.25000000  1
  P  P3  1  0.19349725  0.80650275  0.25000000  1
  P  P4  1  0.80650587  0.61301373  0.74999900  1
  P  P5  1  0.38698827  0.19349513  0.74999900  1
loop_
_geom_bond_atom_site_label_1
_geom_bond_atom_site_label_2
_geom_bond_distance
_geom_bond_site_symmetry_2
Np0 P1 2.774792 1_655
Np0 P3 2.774794 1_655
Np0 P2 2.774798 1_545
Np0 P2 2.774804 1_555
Np0 P3 2.774805 1_545
Np0 P1 2.774808 1_555
Np0 P0 3.044159 1_554
Np0 P0 3.044159 1_555
Np0 P5 3.044163 1_555
Np0 P5 3.044163 1_554
Np0 P4 3.044163 1_554
Np0 P4 3.044163 1_555
Np1 P4 2.774786 1_555
Np1 P0 2.774789 1_565
Np1 P5 2.774795 1_555
Np1 P5 2.774800 1_565
Np1 P0 2.774805 1_455
Np1 P4 2.774808 1_455
Np1 P2 3.044146 1_555
Np1 P2 3.044146 1_556
Np1 P1 3.044148 1_555
Np1 P1 3.044148 1_556
Np1 P3 3.044148 1_556
Np1 P3 3.044148 1_555
P0 P5 2.318166 1_555
P0 P4 2.318175 1_555
P1 P3 2.318107 1_555
P1 P2 2.318114 1_555
P2 P3 2.318115 1_555
P4 P5 2.318166 1_555
