# generated using pymatgen
data_LiFeOF2
_symmetry_space_group_name_H-M   'P 1'
_cell_length_a   6.65241620
_cell_length_b   6.65241620
_cell_length_c   5.28015382
_cell_angle_alpha   83.50499619
_cell_angle_beta   83.50499619
_cell_angle_gamma   84.74195089
_symmetry_Int_Tables_number   1
_chemical_formula_structural   LiFeOF2
_chemical_formula_sum   'Li4 Fe4 O4 F8'
_cell_volume   229.94447946
_cell_formula_units_Z   4
loop_
 _symmetry_equiv_pos_site_id
 _symmetry_equiv_pos_as_xyz
  1  'x, y, z'
loop_
 _atom_site_type_symbol
 _atom_site_label
 _atom_site_symmetry_multiplicity
 _atom_site_fract_x
 _atom_site_fract_y
 _atom_site_fract_z
 _atom_site_occupancy
  Li  Li0  1  0.78004700  0.60276100  0.67715300  1
  Li  Li1  1  0.60276100  0.78004700  0.17715300  1
  Li  Li2  1  0.39723900  0.21995300  0.82284700  1
  Li  Li3  1  0.21995300  0.39723900  0.32284700  1
  Fe  Fe0  1  0.92710400  0.07289600  0.75000000  1
  Fe  Fe1  1  0.25784600  0.74215400  0.75000000  1
  Fe  Fe2  1  0.74215400  0.25784600  0.25000000  1
  Fe  Fe3  1  0.07289600  0.92710400  0.25000000  1
  O  O0  1  0.98781800  0.80400800  0.60877400  1
  O  O1  1  0.80400800  0.98781800  0.10877400  1
  O  O2  1  0.19599200  0.01218200  0.89122600  1
  O  O3  1  0.01218200  0.19599200  0.39122600  1
  F  F0  1  0.53459400  0.71256900  0.85558500  1
  F  F1  1  0.86036200  0.36004600  0.89014900  1
  F  F2  1  0.71256900  0.53459400  0.35558500  1
  F  F3  1  0.36004600  0.86036200  0.39014900  1
  F  F4  1  0.63995400  0.13963800  0.60985100  1
  F  F5  1  0.28743100  0.46540600  0.64441500  1
  F  F6  1  0.13963800  0.63995400  0.10985100  1
  F  F7  1  0.46540600  0.28743100  0.14441500  1
loop_
_geom_bond_atom_site_label_1
_geom_bond_atom_site_label_2
_geom_bond_distance
_geom_bond_site_symmetry_2
Li0 O0 1.987462 1_555
Li1 O1 1.987462 1_555
Li2 O2 1.987462 1_555
Li3 O3 1.987462 1_555
Fe0 O0 2.005005 1_545
Fe0 O2 2.005005 1_655
Fe0 O1 2.017676 1_546
Fe0 O3 2.017676 1_655
Fe1 O0 2.012551 1_455
Fe1 O2 2.012551 1_565
Fe2 O1 2.012551 1_545
Fe2 O3 2.012551 1_655
Fe3 O1 2.005005 1_455
Fe3 O3 2.005005 1_565
Fe3 O0 2.017676 1_455
Fe3 O2 2.017676 1_564
F0 Li1 1.916778 1_556
F0 Li0 1.917426 1_555
F0 Fe1 1.969760 1_555
F1 Li0 1.929865 1_555
F1 Fe2 2.039260 1_556
F1 Fe0 2.117496 1_555
F2 Li0 1.916778 1_555
F2 Li1 1.917426 1_555
F2 Fe2 1.969760 1_555
F3 Li1 1.929865 1_555
F3 Fe1 2.039260 1_555
F3 Fe3 2.117496 1_555
F4 Li2 1.929865 1_555
F4 Fe2 2.039260 1_555
F4 Fe0 2.117496 1_555
F5 Li3 1.916778 1_555
F5 Li2 1.917426 1_555
F5 Fe1 1.969760 1_555
F6 Li3 1.929865 1_555
F6 Fe1 2.039260 1_554
F6 Fe3 2.117496 1_555
F7 Li2 1.916778 1_554
F7 Li3 1.917426 1_555
F7 Fe2 1.969760 1_555
