# generated using pymatgen
data_Sr(MgAs)2
_symmetry_space_group_name_H-M   'P 1'
_cell_length_a   4.41664693
_cell_length_b   4.41664191
_cell_length_c   7.41514765
_cell_angle_alpha   90.00016202
_cell_angle_beta   89.99981769
_cell_angle_gamma   120.00187301
_symmetry_Int_Tables_number   1
_chemical_formula_structural   Sr(MgAs)2
_chemical_formula_sum   'Sr1 Mg2 As2'
_cell_volume   125.26424045
_cell_formula_units_Z   1
loop_
 _symmetry_equiv_pos_site_id
 _symmetry_equiv_pos_as_xyz
  1  'x, y, z'
loop_
 _atom_site_type_symbol
 _atom_site_label
 _atom_site_symmetry_multiplicity
 _atom_site_fract_x
 _atom_site_fract_y
 _atom_site_fract_z
 _atom_site_occupancy
  Sr  Sr0  1  -0.00000001  0.00000002  0.00000004  1
  Mg  Mg0  1  0.66666999  0.33332950  0.37093538  1
  Mg  Mg1  1  0.33332953  0.66667063  0.62906456  1
  As  As0  1  0.33332764  0.66667180  0.26262806  1
  As  As1  1  0.66667184  0.33332805  0.73737195  1
loop_
_geom_bond_atom_site_label_1
_geom_bond_atom_site_label_2
_geom_bond_distance
_geom_bond_site_symmetry_2
As0 Mg0 2.673352 1_565
As0 Mg0 2.673354 1_455
As0 Mg0 2.673524 1_555
As0 Mg1 2.717181 1_555
As0 Sr0 3.208512 1_555
As0 Sr0 3.208515 1_665
As0 Sr0 3.208530 1_565
As1 Mg1 2.673351 1_545
As1 Mg1 2.673354 1_655
As1 Mg1 2.673525 1_555
As1 Mg0 2.717181 1_555
As1 Sr0 3.208513 1_666
As1 Sr0 3.208514 1_556
As1 Sr0 3.208531 1_656
