# generated using pymatgen
data_NaCd2Pt
_symmetry_space_group_name_H-M   'P 1'
_cell_length_a   4.73368195
_cell_length_b   4.73368195
_cell_length_c   4.73368195
_cell_angle_alpha   60.00000000
_cell_angle_beta   60.00000000
_cell_angle_gamma   60.00000000
_symmetry_Int_Tables_number   1
_chemical_formula_structural   NaCd2Pt
_chemical_formula_sum   'Na1 Cd2 Pt1'
_cell_volume   75.00362056
_cell_formula_units_Z   1
loop_
 _symmetry_equiv_pos_site_id
 _symmetry_equiv_pos_as_xyz
  1  'x, y, z'
loop_
 _atom_site_type_symbol
 _atom_site_label
 _atom_site_symmetry_multiplicity
 _atom_site_fract_x
 _atom_site_fract_y
 _atom_site_fract_z
 _atom_site_occupancy
  Na  Na0  1  0.25000000  0.25000000  0.25000000  1
  Cd  Cd0  1  0.50000100  0.50000100  0.50000100  1
  Cd  Cd1  1  -0.00000000  0.00000000  0.00000000  1
  Pt  Pt0  1  0.74999900  0.74999900  0.74999900  1
loop_
_geom_bond_atom_site_label_1
_geom_bond_atom_site_label_2
_geom_bond_distance
_geom_bond_site_symmetry_2
Cd0 Pt0 2.898753 1_555
Cd0 Na0 2.898772 1_565
Cd0 Na0 2.898772 1_655
Cd0 Na0 2.898772 1_556
Cd0 Pt0 2.898784 1_554
Cd0 Pt0 2.898784 1_455
Cd0 Pt0 2.898784 1_545
Cd0 Na0 2.898788 1_555
Cd1 Pt0 2.898772 1_445
Cd1 Pt0 2.898772 1_544
Cd1 Pt0 2.898772 1_454
Cd1 Na0 2.898776 1_455
Cd1 Na0 2.898776 1_555
Cd1 Na0 2.898776 1_554
Cd1 Na0 2.898776 1_545
Cd1 Pt0 2.898788 1_444
