# generated using pymatgen
data_ErMgSn
_symmetry_space_group_name_H-M   'P 1'
_cell_length_a   8.46548398
_cell_length_b   8.46548398
_cell_length_c   8.46548398
_cell_angle_alpha   150.21382529
_cell_angle_beta   150.21382529
_cell_angle_gamma   42.62762120
_symmetry_Int_Tables_number   1
_chemical_formula_structural   ErMgSn
_chemical_formula_sum   'Er2 Mg2 Sn2'
_cell_volume   149.33704062
_cell_formula_units_Z   2
loop_
 _symmetry_equiv_pos_site_id
 _symmetry_equiv_pos_as_xyz
  1  'x, y, z'
loop_
 _atom_site_type_symbol
 _atom_site_label
 _atom_site_symmetry_multiplicity
 _atom_site_fract_x
 _atom_site_fract_y
 _atom_site_fract_z
 _atom_site_occupancy
  Er  Er0  1  0.66765475  0.66765475  -0.00000000  1
  Er  Er1  1  0.33234525  0.33234525  0.00000000  1
  Mg  Mg0  1  -0.00000000  0.50000000  0.50000000  1
  Mg  Mg1  1  0.50000000  -0.00000000  0.50000000  1
  Sn  Sn0  1  0.13677212  0.13677212  -0.00000000  1
  Sn  Sn1  1  0.86322788  0.86322788  0.00000000  1
loop_
_geom_bond_atom_site_label_1
_geom_bond_atom_site_label_2
_geom_bond_distance
_geom_bond_site_symmetry_2
Er0 Sn1 3.084765 1_555
Er0 Sn0 3.115316 1_655
Er0 Sn0 3.115316 1_666
Er0 Sn0 3.115316 1_554
Er0 Sn0 3.115316 1_565
Er0 Mg0 3.424451 1_655
Er0 Mg1 3.424451 1_565
Er0 Mg1 3.424451 1_554
Er0 Mg0 3.424451 1_554
Er1 Sn0 3.084765 1_555
Er1 Sn1 3.115316 1_444
Er1 Sn1 3.115316 1_455
Er1 Sn1 3.115316 1_556
Er1 Sn1 3.115316 1_545
Er1 Mg0 3.424451 1_554
Er1 Mg1 3.424451 1_554
Er1 Mg1 3.424451 1_565
Er1 Mg0 3.424451 1_655
Mg0 Sn1 3.063969 1_445
Mg0 Sn1 3.063969 1_456
Mg0 Sn0 3.063969 1_566
Mg0 Sn0 3.063969 1_555
Mg0 Mg1 3.076999 1_454
Mg0 Mg1 3.076999 1_555
Mg0 Mg1 3.076999 1_465
Mg0 Mg1 3.076999 1_566
Mg1 Sn1 3.063969 1_546
Mg1 Sn1 3.063969 1_445
Mg1 Sn0 3.063969 1_555
Mg1 Sn0 3.063969 1_656
