# generated using pymatgen
data_Mn2OF3
_symmetry_space_group_name_H-M   'P 1'
_cell_length_a   4.88376299
_cell_length_b   4.88376299
_cell_length_c   15.91330800
_cell_angle_alpha   90.00000000
_cell_angle_beta   90.00000000
_cell_angle_gamma   93.32818853
_symmetry_Int_Tables_number   1
_chemical_formula_structural   Mn2OF3
_chemical_formula_sum   'Mn10 O5 F15'
_cell_volume   378.91039310
_cell_formula_units_Z   5
loop_
 _symmetry_equiv_pos_site_id
 _symmetry_equiv_pos_as_xyz
  1  'x, y, z'
loop_
 _atom_site_type_symbol
 _atom_site_label
 _atom_site_symmetry_multiplicity
 _atom_site_fract_x
 _atom_site_fract_y
 _atom_site_fract_z
 _atom_site_occupancy
  Mn  Mn0  1  0.01464500  0.01464500  0.39933600  1
  Mn  Mn1  1  0.02338400  0.02338400  0.19933000  1
  Mn  Mn2  1  0.96411300  0.96411300  0.00000000  1
  Mn  Mn3  1  0.01464500  0.01464500  0.60066400  1
  Mn  Mn4  1  0.02338400  0.02338400  0.80067000  1
  Mn  Mn5  1  0.48021500  0.48021500  0.50000000  1
  Mn  Mn6  1  0.49482900  0.49482900  0.09983500  1
  Mn  Mn7  1  0.48822300  0.48822300  0.29963700  1
  Mn  Mn8  1  0.49482900  0.49482900  0.90016500  1
  Mn  Mn9  1  0.48822300  0.48822300  0.70036300  1
  O  O0  1  0.32016500  0.32016500  0.19792500  1
  O  O1  1  0.30669600  0.30669600  0.39770600  1
  O  O2  1  0.30669600  0.30669600  0.60229400  1
  O  O3  1  0.32016500  0.32016500  0.80207500  1
  O  O4  1  0.66535100  0.66535100  0.00000000  1
  F  F0  1  0.79305900  0.19665000  0.89979100  1
  F  F1  1  0.79305900  0.19665000  0.10020900  1
  F  F2  1  0.81092000  0.20041900  0.30029900  1
  F  F3  1  0.80810300  0.19518500  0.50000000  1
  F  F4  1  0.81092000  0.20041900  0.69970100  1
  F  F5  1  0.28002300  0.28002300  0.00000000  1
  F  F6  1  0.70573800  0.70573800  0.20412400  1
  F  F7  1  0.69877500  0.69877500  0.39948900  1
  F  F8  1  0.69877500  0.69877500  0.60051100  1
  F  F9  1  0.70573800  0.70573800  0.79587600  1
  F  F10  1  0.19665000  0.79305900  0.10020900  1
  F  F11  1  0.20041900  0.81092000  0.30029900  1
  F  F12  1  0.19518500  0.80810300  0.50000000  1
  F  F13  1  0.19665000  0.79305900  0.89979100  1
  F  F14  1  0.20041900  0.81092000  0.69970100  1
loop_
_geom_bond_atom_site_label_1
_geom_bond_atom_site_label_2
_geom_bond_distance
_geom_bond_site_symmetry_2
Mn0 O1 1.957849 1_555
Mn1 O0 1.989509 1_555
Mn2 O4 2.002662 1_555
Mn3 O2 1.957849 1_555
Mn4 O3 1.989509 1_555
Mn5 O1 2.000682 1_555
Mn5 O2 2.000682 1_555
Mn6 O0 1.951234 1_555
Mn6 O4 1.957175 1_555
Mn7 O0 1.972016 1_555
Mn7 O1 1.978917 1_555
Mn8 O3 1.951234 1_555
Mn8 O4 1.957175 1_556
Mn9 O3 1.972016 1_555
Mn9 O2 1.978917 1_555
F0 Mn8 2.118555 1_555
F0 Mn4 2.140061 1_655
F0 Mn2 2.154222 1_546
F1 Mn6 2.118555 1_555
F1 Mn1 2.140061 1_655
F1 Mn2 2.154222 1_545
F2 Mn0 2.098016 1_655
F2 Mn1 2.123677 1_655
F2 Mn7 2.171780 1_555
F3 Mn3 2.112875 1_655
F3 Mn0 2.112875 1_655
F3 Mn5 2.181922 1_555
F4 Mn3 2.098016 1_655
F4 Mn4 2.123677 1_655
F4 Mn9 2.171780 1_555
F5 Mn2 2.117609 1_445
F5 Mn6 2.144123 1_555
F5 Mn8 2.144123 1_554
F6 Mn7 2.106201 1_555
F6 Mn1 2.130612 1_665
F6 Mn6 2.180126 1_555
F7 Mn0 2.117342 1_665
F7 Mn7 2.125280 1_555
F7 Mn5 2.169022 1_555
F8 Mn3 2.117342 1_665
F8 Mn9 2.125280 1_555
F8 Mn5 2.169022 1_555
F9 Mn9 2.106201 1_555
F9 Mn4 2.130612 1_665
F9 Mn8 2.180126 1_555
F10 Mn6 2.118555 1_555
F10 Mn1 2.140061 1_565
F10 Mn2 2.154222 1_455
F11 Mn0 2.098016 1_565
F11 Mn1 2.123677 1_565
F11 Mn7 2.171780 1_555
F12 Mn0 2.112875 1_565
F12 Mn3 2.112875 1_565
F12 Mn5 2.181922 1_555
F13 Mn8 2.118555 1_555
F13 Mn4 2.140061 1_565
F13 Mn2 2.154222 1_456
F14 Mn3 2.098016 1_565
F14 Mn4 2.123677 1_565
F14 Mn9 2.171780 1_555
