# generated using pymatgen
data_Lu2Mn12P7
_symmetry_space_group_name_H-M   'P 1'
_cell_length_a   9.48576131
_cell_length_b   9.48588659
_cell_length_c   3.58781037
_cell_angle_alpha   90.00000000
_cell_angle_beta   90.00000000
_cell_angle_gamma   120.00163998
_symmetry_Int_Tables_number   1
_chemical_formula_structural   Lu2Mn12P7
_chemical_formula_sum   'Lu2 Mn12 P7'
_cell_volume   279.57803978
_cell_formula_units_Z   1
loop_
 _symmetry_equiv_pos_site_id
 _symmetry_equiv_pos_as_xyz
  1  'x, y, z'
loop_
 _atom_site_type_symbol
 _atom_site_label
 _atom_site_symmetry_multiplicity
 _atom_site_fract_x
 _atom_site_fract_y
 _atom_site_fract_z
 _atom_site_occupancy
  Lu  Lu0  1  0.66667488  0.33334170  0.00000000  1
  Lu  Lu1  1  -0.00000445  0.00002212  0.50000000  1
  Mn  Mn0  1  0.76043779  0.71480178  -0.00000000  1
  Mn  Mn1  1  0.28523206  0.04563823  -0.00000000  1
  Mn  Mn2  1  0.95433719  0.23953290  0.00000000  1
  Mn  Mn3  1  0.49586162  0.94302059  -0.00000000  1
  Mn  Mn4  1  0.05700783  0.55287076  -0.00000000  1
  Mn  Mn5  1  0.44715202  0.50409575  0.00000000  1
  Mn  Mn6  1  0.73251067  0.10695019  0.50000000  1
  Mn  Mn7  1  0.89303899  0.62560987  0.50000000  1
  Mn  Mn8  1  0.37438161  0.26739679  0.50000000  1
  Mn  Mn9  1  0.57159625  0.76993930  0.50000000  1
  Mn  Mn10  1  0.23004742  0.80173605  0.50000000  1
  Mn  Mn11  1  0.19838934  0.42839006  0.50000000  1
  P  P0  1  0.46857221  0.08418068  0.50000000  1
  P  P1  1  0.91586007  0.38440554  0.50000000  1
  P  P2  1  0.61556843  0.53141918  0.50000000  1
  P  P3  1  0.75257388  0.95741875  0.00000000  1
  P  P4  1  0.04256364  0.79520243  -0.00000000  1
  P  P5  1  0.20482905  0.24738264  0.00000000  1
  P  P6  1  0.33336751  0.66664767  0.00000000  1
loop_
_geom_bond_atom_site_label_1
_geom_bond_atom_site_label_2
_geom_bond_distance
_geom_bond_site_symmetry_2
Lu0 P0 2.809606 1_554
Lu0 P0 2.809606 1_555
Lu0 P2 2.809707 1_555
Lu0 P2 2.809707 1_554
Lu0 P1 2.809778 1_555
Lu0 P1 2.809778 1_554
Lu1 P5 2.817757 1_555
Lu1 P5 2.817757 1_556
Lu1 P4 2.817898 1_546
Lu1 P4 2.817898 1_545
Lu1 P3 2.818015 1_445
Lu1 P3 2.818015 1_446
Mn0 P3 2.339629 1_555
Mn0 P4 2.387981 1_655
Mn0 P2 2.396234 1_555
Mn0 P2 2.396234 1_554
Mn1 P4 2.339563 1_545
Mn1 P5 2.388235 1_555
Mn1 P0 2.395921 1_555
Mn1 P0 2.395921 1_554
Mn2 P5 2.339762 1_655
Mn2 P3 2.387984 1_545
Mn2 P1 2.396135 1_555
Mn2 P1 2.396135 1_554
Mn3 P6 2.282041 1_555
Mn3 P0 2.329107 1_565
Mn3 P0 2.329107 1_564
Mn3 P3 2.369772 1_555
Mn4 P6 2.282008 1_555
Mn4 P1 2.329111 1_454
Mn4 P1 2.329111 1_455
Mn4 P4 2.370213 1_555
Mn5 P6 2.281869 1_555
Mn5 P2 2.328815 1_554
Mn5 P2 2.328815 1_555
Mn5 P5 2.369778 1_555
Mn6 P1 2.318217 1_555
Mn6 P3 2.352923 1_546
Mn6 P3 2.352923 1_545
Mn6 P0 2.402949 1_555
Mn7 P2 2.318201 1_555
Mn7 P4 2.352868 1_656
Mn7 P4 2.352868 1_655
Mn7 P1 2.403602 1_555
Mn8 P0 2.317696 1_555
Mn8 P5 2.352769 1_555
Mn8 P5 2.352769 1_556
Mn8 P2 2.403439 1_555
Mn9 P2 2.497401 1_555
Mn9 P3 2.504948 1_555
Mn9 P3 2.504948 1_556
Mn9 P6 2.659035 1_555
Mn9 P6 2.659035 1_556
Mn10 P0 2.497060 1_565
Mn10 P4 2.504897 1_555
Mn10 P4 2.504897 1_556
Mn10 P6 2.660199 1_555
Mn10 P6 2.660199 1_556
Mn11 P1 2.497653 1_455
Mn11 P5 2.504967 1_556
Mn11 P5 2.504967 1_555
Mn11 P6 2.659236 1_556
Mn11 P6 2.659236 1_555
