# generated using pymatgen
data_CsCoH24(SO10)2
_symmetry_space_group_name_H-M   'P 1'
_cell_length_a   12.34522000
_cell_length_b   12.34522000
_cell_length_c   12.34522000
_cell_angle_alpha   90.00000000
_cell_angle_beta   90.00000000
_cell_angle_gamma   90.00000000
_symmetry_Int_Tables_number   1
_chemical_formula_structural   CsCoH24(SO10)2
_chemical_formula_sum   'Cs4 Co4 H96 S8 O80'
_cell_volume   1881.46654877
_cell_formula_units_Z   4
loop_
 _symmetry_equiv_pos_site_id
 _symmetry_equiv_pos_as_xyz
  1  'x, y, z'
loop_
 _atom_site_type_symbol
 _atom_site_label
 _atom_site_symmetry_multiplicity
 _atom_site_fract_x
 _atom_site_fract_y
 _atom_site_fract_z
 _atom_site_occupancy
  Cs  Cs0  1  0.00000000  0.00000000  0.50000000  1
  Cs  Cs1  1  0.00000000  0.50000000  0.00000000  1
  Cs  Cs2  1  0.50000000  0.50000000  0.50000000  1
  Cs  Cs3  1  0.50000000  0.00000000  0.00000000  1
  Co  Co0  1  0.00000000  0.00000000  0.00000000  1
  Co  Co1  1  0.00000000  0.50000000  0.50000000  1
  Co  Co2  1  0.50000000  0.00000000  0.50000000  1
  Co  Co3  1  0.50000000  0.50000000  0.00000000  1
  H  H0  1  0.99725500  0.20732600  0.28200400  1
  H  H1  1  0.99725500  0.29267400  0.78200400  1
  H  H2  1  0.01986900  0.05730100  0.20107400  1
  H  H3  1  0.01986900  0.44269900  0.70107400  1
  H  H4  1  0.03062800  0.57367700  0.68711000  1
  H  H5  1  0.03062800  0.92632300  0.18711000  1
  H  H6  1  0.05730100  0.20107400  0.01986900  1
  H  H7  1  0.05730100  0.29892600  0.51986900  1
  H  H8  1  0.07367700  0.68711000  0.46937200  1
  H  H9  1  0.07367700  0.81289000  0.96937200  1
  H  H10  1  0.12000100  0.17635400  0.28453400  1
  H  H11  1  0.12000100  0.32364600  0.78453400  1
  H  H12  1  0.17635400  0.28453400  0.12000100  1
  H  H13  1  0.17635400  0.21546600  0.62000100  1
  H  H14  1  0.18711000  0.03062800  0.92632300  1
  H  H15  1  0.18711000  0.46937200  0.42632300  1
  H  H16  1  0.20732600  0.28200400  0.99725500  1
  H  H17  1  0.20732600  0.21799600  0.49725500  1
  H  H18  1  0.20107400  0.01986900  0.05730100  1
  H  H19  1  0.20107400  0.48013100  0.55730100  1
  H  H20  1  0.21799600  0.49725500  0.20732600  1
  H  H21  1  0.21799600  0.00274500  0.70732600  1
  H  H22  1  0.21546600  0.62000100  0.17635400  1
  H  H23  1  0.21546600  0.87999900  0.67635400  1
  H  H24  1  0.28453400  0.12000100  0.17635400  1
  H  H25  1  0.28453400  0.37999900  0.67635400  1
  H  H26  1  0.28200400  0.99725500  0.20732600  1
  H  H27  1  0.28200400  0.50274500  0.70732600  1
  H  H28  1  0.29892600  0.51986900  0.05730100  1
  H  H29  1  0.29892600  0.98013100  0.55730100  1
  H  H30  1  0.29267400  0.78200400  0.99725500  1
  H  H31  1  0.29267400  0.71799600  0.49725500  1
  H  H32  1  0.31289000  0.53062800  0.92632300  1
  H  H33  1  0.31289000  0.96937200  0.42632300  1
  H  H34  1  0.32364600  0.78453400  0.12000100  1
  H  H35  1  0.32364600  0.71546600  0.62000100  1
  H  H36  1  0.37999900  0.67635400  0.28453400  1
  H  H37  1  0.37999900  0.82364600  0.78453400  1
  H  H38  1  0.42632300  0.18711000  0.46937200  1
  H  H39  1  0.42632300  0.31289000  0.96937200  1
  H  H40  1  0.44269900  0.79892600  0.51986900  1
  H  H41  1  0.44269900  0.70107400  0.01986900  1
  H  H42  1  0.46937200  0.42632300  0.18711000  1
  H  H43  1  0.46937200  0.07367700  0.68711000  1
  H  H44  1  0.48013100  0.55730100  0.20107400  1
  H  H45  1  0.48013100  0.94269900  0.70107400  1
  H  H46  1  0.50274500  0.70732600  0.28200400  1
  H  H47  1  0.50274500  0.79267400  0.78200400  1
  H  H48  1  0.49725500  0.20732600  0.21799600  1
  H  H49  1  0.49725500  0.29267400  0.71799600  1
  H  H50  1  0.51986900  0.05730100  0.29892600  1
  H  H51  1  0.51986900  0.44269900  0.79892600  1
  H  H52  1  0.53062800  0.92632300  0.31289000  1
  H  H53  1  0.53062800  0.57367700  0.81289000  1
  H  H54  1  0.55730100  0.20107400  0.48013100  1
  H  H55  1  0.55730100  0.29892600  0.98013100  1
  H  H56  1  0.57367700  0.68711000  0.03062800  1
  H  H57  1  0.57367700  0.81289000  0.53062800  1
  H  H58  1  0.62000100  0.17635400  0.21546600  1
  H  H59  1  0.62000100  0.32364600  0.71546600  1
  H  H60  1  0.67635400  0.21546600  0.87999900  1
  H  H61  1  0.67635400  0.28453400  0.37999900  1
  H  H62  1  0.68711000  0.03062800  0.57367700  1
  H  H63  1  0.68711000  0.46937200  0.07367700  1
  H  H64  1  0.70732600  0.21799600  0.00274500  1
  H  H65  1  0.70732600  0.28200400  0.50274500  1
  H  H66  1  0.70107400  0.48013100  0.94269900  1
  H  H67  1  0.70107400  0.01986900  0.44269900  1
  H  H68  1  0.71799600  0.00274500  0.79267400  1
  H  H69  1  0.71799600  0.49725500  0.29267400  1
  H  H70  1  0.71546600  0.62000100  0.32364600  1
  H  H71  1  0.71546600  0.87999900  0.82364600  1
  H  H72  1  0.78453400  0.12000100  0.32364600  1
  H  H73  1  0.78453400  0.37999900  0.82364600  1
  H  H74  1  0.78200400  0.99725500  0.29267400  1
  H  H75  1  0.78200400  0.50274500  0.79267400  1
  H  H76  1  0.79892600  0.98013100  0.94269900  1
  H  H77  1  0.79892600  0.51986900  0.44269900  1
  H  H78  1  0.79267400  0.71799600  0.00274500  1
  H  H79  1  0.79267400  0.78200400  0.50274500  1
  H  H80  1  0.81289000  0.96937200  0.07367700  1
  H  H81  1  0.81289000  0.53062800  0.57367700  1
  H  H82  1  0.82364600  0.71546600  0.87999900  1
  H  H83  1  0.82364600  0.78453400  0.37999900  1
  H  H84  1  0.87999900  0.67635400  0.21546600  1
  H  H85  1  0.87999900  0.82364600  0.71546600  1
  H  H86  1  0.92632300  0.18711000  0.03062800  1
  H  H87  1  0.92632300  0.31289000  0.53062800  1
  H  H88  1  0.94269900  0.79892600  0.98013100  1
  H  H89  1  0.94269900  0.70107400  0.48013100  1
  H  H90  1  0.96937200  0.07367700  0.81289000  1
  H  H91  1  0.96937200  0.42632300  0.31289000  1
  H  H92  1  0.98013100  0.94269900  0.79892600  1
  H  H93  1  0.98013100  0.55730100  0.29892600  1
  H  H94  1  0.00274500  0.70732600  0.21799600  1
  H  H95  1  0.00274500  0.79267400  0.71799600  1
  S  S0  1  0.18363400  0.68363400  0.81636600  1
  S  S1  1  0.18363400  0.81636600  0.31636600  1
  S  S2  1  0.31636600  0.18363400  0.81636600  1
  S  S3  1  0.31636600  0.31636600  0.31636600  1
  S  S4  1  0.68363400  0.68363400  0.68363400  1
  S  S5  1  0.68363400  0.81636600  0.18363400  1
  S  S6  1  0.81636600  0.18363400  0.68363400  1
  S  S7  1  0.81636600  0.31636600  0.18363400  1
  O  O0  1  0.99615700  0.99280900  0.15505500  1
  O  O1  1  0.99615700  0.50719100  0.65505500  1
  O  O2  1  0.00719100  0.65505500  0.50384300  1
  O  O3  1  0.00719100  0.84494500  0.00384300  1
  O  O4  1  0.04691000  0.14478600  0.29171300  1
  O  O5  1  0.04691000  0.35521400  0.79171300  1
  O  O6  1  0.07395800  0.82601900  0.26665000  1
  O  O7  1  0.07395800  0.67398100  0.76665000  1
  O  O8  1  0.14478600  0.29171300  0.04691000  1
  O  O9  1  0.14478600  0.20828700  0.54691000  1
  O  O10  1  0.15505500  0.99615700  0.99280900  1
  O  O11  1  0.15505500  0.50384300  0.49280900  1
  O  O12  1  0.17398100  0.76665000  0.42604200  1
  O  O13  1  0.17398100  0.73335000  0.92604200  1
  O  O14  1  0.20828700  0.54691000  0.14478600  1
  O  O15  1  0.20828700  0.95309000  0.64478600  1
  O  O16  1  0.23335000  0.57395800  0.82601900  1
  O  O17  1  0.23335000  0.92604200  0.32601900  1
  O  O18  1  0.24583700  0.24583700  0.24583700  1
  O  O19  1  0.24583700  0.25416300  0.74583700  1
  O  O20  1  0.25416300  0.74583700  0.24583700  1
  O  O21  1  0.25416300  0.75416300  0.74583700  1
  O  O22  1  0.26665000  0.07395800  0.82601900  1
  O  O23  1  0.26665000  0.42604200  0.32601900  1
  O  O24  1  0.29171300  0.04691000  0.14478600  1
  O  O25  1  0.29171300  0.45309000  0.64478600  1
  O  O26  1  0.32601900  0.26665000  0.42604200  1
  O  O27  1  0.32601900  0.23335000  0.92604200  1
  O  O28  1  0.34494500  0.49615700  0.99280900  1
  O  O29  1  0.34494500  0.00384300  0.49280900  1
  O  O30  1  0.35521400  0.70828700  0.54691000  1
  O  O31  1  0.35521400  0.79171300  0.04691000  1
  O  O32  1  0.42604200  0.32601900  0.26665000  1
  O  O33  1  0.42604200  0.17398100  0.76665000  1
  O  O34  1  0.45309000  0.64478600  0.29171300  1
  O  O35  1  0.45309000  0.85521400  0.79171300  1
  O  O36  1  0.49280900  0.15505500  0.50384300  1
  O  O37  1  0.49280900  0.34494500  0.00384300  1
  O  O38  1  0.50384300  0.49280900  0.15505500  1
  O  O39  1  0.50384300  0.00719100  0.65505500  1
  O  O40  1  0.49615700  0.99280900  0.34494500  1
  O  O41  1  0.49615700  0.50719100  0.84494500  1
  O  O42  1  0.50719100  0.65505500  0.99615700  1
  O  O43  1  0.50719100  0.84494500  0.49615700  1
  O  O44  1  0.54691000  0.14478600  0.20828700  1
  O  O45  1  0.54691000  0.35521400  0.70828700  1
  O  O46  1  0.57395800  0.82601900  0.23335000  1
  O  O47  1  0.57395800  0.67398100  0.73335000  1
  O  O48  1  0.64478600  0.20828700  0.95309000  1
  O  O49  1  0.64478600  0.29171300  0.45309000  1
  O  O50  1  0.65505500  0.99615700  0.50719100  1
  O  O51  1  0.65505500  0.50384300  0.00719100  1
  O  O52  1  0.67398100  0.73335000  0.57395800  1
  O  O53  1  0.67398100  0.76665000  0.07395800  1
  O  O54  1  0.70828700  0.95309000  0.85521400  1
  O  O55  1  0.70828700  0.54691000  0.35521400  1
  O  O56  1  0.73335000  0.57395800  0.67398100  1
  O  O57  1  0.73335000  0.92604200  0.17398100  1
  O  O58  1  0.74583700  0.24583700  0.25416300  1
  O  O59  1  0.74583700  0.25416300  0.75416300  1
  O  O60  1  0.75416300  0.74583700  0.25416300  1
  O  O61  1  0.75416300  0.75416300  0.75416300  1
  O  O62  1  0.76665000  0.07395800  0.67398100  1
  O  O63  1  0.76665000  0.42604200  0.17398100  1
  O  O64  1  0.79171300  0.04691000  0.35521400  1
  O  O65  1  0.79171300  0.45309000  0.85521400  1
  O  O66  1  0.82601900  0.23335000  0.57395800  1
  O  O67  1  0.82601900  0.26665000  0.07395800  1
  O  O68  1  0.84494500  0.49615700  0.50719100  1
  O  O69  1  0.84494500  0.00384300  0.00719100  1
  O  O70  1  0.85521400  0.70828700  0.95309000  1
  O  O71  1  0.85521400  0.79171300  0.45309000  1
  O  O72  1  0.92604200  0.17398100  0.73335000  1
  O  O73  1  0.92604200  0.32601900  0.23335000  1
  O  O74  1  0.95309000  0.64478600  0.20828700  1
  O  O75  1  0.95309000  0.85521400  0.70828700  1
  O  O76  1  0.99280900  0.15505500  0.99615700  1
  O  O77  1  0.99280900  0.34494500  0.49615700  1
  O  O78  1  0.00384300  0.00719100  0.84494500  1
  O  O79  1  0.00384300  0.49280900  0.34494500  1
loop_
_geom_bond_atom_site_label_1
_geom_bond_atom_site_label_2
_geom_bond_distance
_geom_bond_site_symmetry_2
Cs0 O15 3.184660 1_545
Cs0 O4 3.184660 1_555
Cs0 O71 3.184660 1_445
Cs0 O75 3.184660 1_445
Cs0 O9 3.184660 1_555
Cs0 O64 3.184660 1_455
Cs1 O74 3.184660 1_455
Cs1 O70 3.184660 1_454
Cs1 O65 3.184660 1_454
Cs1 O5 3.184660 1_554
Cs1 O14 3.184660 1_555
Cs1 O8 3.184660 1_555
Cs2 O25 3.184660 1_555
Cs2 O30 3.184660 1_555
Cs2 O34 3.184660 1_555
Cs2 O45 3.184660 1_555
Cs2 O49 3.184660 1_555
Cs2 O55 3.184660 1_555
Cs3 O48 3.184660 1_554
Cs3 O44 3.184660 1_555
Cs3 O35 3.184660 1_544
Cs3 O54 3.184660 1_544
Cs3 O24 3.184660 1_555
Cs3 O31 3.184660 1_545
Co0 O76 1.916833 1_454
Co0 O10 1.916833 1_544
Co0 O0 1.916833 1_445
Co0 O3 1.916833 1_545
Co0 O78 1.916833 1_554
Co0 O69 1.916833 1_455
Co1 O79 1.916833 1_555
Co1 O77 1.916833 1_455
Co1 O11 1.916833 1_555
Co1 O68 1.916833 1_455
Co1 O1 1.916833 1_455
Co1 O2 1.916833 1_555
Co2 O40 1.916833 1_545
Co2 O36 1.916833 1_555
Co2 O29 1.916833 1_555
Co2 O50 1.916833 1_545
Co2 O39 1.916833 1_555
Co2 O43 1.916833 1_545
Co3 O38 1.916833 1_555
Co3 O28 1.916833 1_554
Co3 O37 1.916833 1_555
Co3 O41 1.916833 1_554
Co3 O42 1.916833 1_554
Co3 O51 1.916833 1_555
H0 O4 0.993091 1_655
H1 O5 0.993091 1_655
H2 O0 1.020945 1_445
H2 O4 1.590583 1_555
H3 O1 1.020945 1_455
H3 O5 1.590583 1_555
H4 O1 1.005674 1_455
H4 O7 1.668432 1_555
H5 O0 1.005674 1_455
H5 O6 1.668432 1_555
H6 O76 1.020945 1_454
H6 O8 1.590583 1_555
H7 O77 1.020945 1_455
H7 O9 1.590583 1_555
H8 O2 1.005674 1_555
H8 O12 1.668432 1_555
H9 O3 1.005674 1_556
H9 O13 1.668432 1_555
H10 O4 0.986874 1_555
H11 O5 0.986874 1_555
H12 O8 0.986874 1_555
H13 O9 0.986874 1_555
H14 O10 1.005674 1_545
H14 O22 1.668432 1_555
H15 O11 1.005674 1_555
H15 O23 1.668432 1_555
H16 O8 0.993091 1_556
H17 O9 0.993091 1_555
H18 O10 1.020945 1_544
H18 O24 1.590583 1_555
H19 O11 1.020945 1_555
H19 O25 1.590583 1_555
H20 O14 0.993091 1_555
H21 O15 0.993091 1_545
H22 O14 0.986874 1_555
H23 O15 0.986874 1_555
H24 O24 0.986874 1_555
H25 O25 0.986874 1_555
H26 O24 0.993091 1_565
H27 O25 0.993091 1_555
H28 O28 1.020945 1_554
H28 O14 1.590583 1_555
H29 O29 1.020945 1_565
H29 O15 1.590583 1_555
H30 O31 0.993091 1_556
H31 O30 0.993091 1_555
H32 O28 1.005674 1_555
H32 O16 1.668432 1_555
H33 O29 1.005674 1_565
H33 O17 1.668432 1_555
H34 O31 0.986874 1_555
H35 O30 0.986874 1_555
H36 O34 0.986874 1_555
H37 O35 0.986874 1_555
H38 O36 1.005674 1_555
H38 O26 1.668432 1_555
H39 O37 1.005674 1_556
H39 O27 1.668432 1_555
H40 O43 1.020945 1_555
H40 O30 1.590583 1_555
H41 O42 1.020945 1_554
H41 O31 1.590583 1_555
H42 O38 1.005674 1_555
H42 O32 1.668432 1_555
H43 O39 1.005674 1_555
H43 O33 1.668432 1_555
H44 O38 1.020945 1_555
H44 O34 1.590583 1_555
H45 O39 1.020945 1_565
H45 O35 1.590583 1_555
H46 O34 0.993091 1_555
H47 O35 0.993091 1_555
H48 O44 0.993091 1_555
H49 O45 0.993091 1_555
H50 O40 1.020945 1_545
H50 O44 1.590583 1_555
H51 O41 1.020945 1_555
H51 O45 1.590583 1_555
H52 O40 1.005674 1_555
H52 O46 1.668432 1_555
H53 O41 1.005674 1_555
H53 O47 1.668432 1_555
H54 O36 1.020945 1_555
H54 O49 1.590583 1_555
H55 O37 1.020945 1_556
H55 O48 1.590583 1_555
H56 O42 1.005674 1_554
H56 O53 1.668432 1_555
H57 O43 1.005674 1_555
H57 O52 1.668432 1_555
H58 O44 0.986874 1_555
H59 O45 0.986874 1_555
H60 O48 0.986874 1_555
H61 O49 0.986874 1_555
H62 O50 1.005674 1_545
H62 O62 1.668432 1_555
H63 O51 1.005674 1_555
H63 O63 1.668432 1_555
H64 O48 0.993091 1_554
H65 O49 0.993091 1_555
H66 O51 1.020945 1_556
H66 O65 1.590583 1_555
H67 O50 1.020945 1_545
H67 O64 1.590583 1_555
H68 O54 0.993091 1_545
H69 O55 0.993091 1_555
H70 O55 0.986874 1_555
H71 O54 0.986874 1_555
H72 O64 0.986874 1_555
H73 O65 0.986874 1_555
H74 O64 0.993091 1_565
H75 O65 0.993091 1_555
H76 O69 1.020945 1_566
H76 O54 1.590583 1_555
H77 O68 1.020945 1_555
H77 O55 1.590583 1_555
H78 O70 0.993091 1_554
H79 O71 0.993091 1_555
H80 O69 1.005674 1_565
H80 O57 1.668432 1_555
H81 O68 1.005674 1_555
H81 O56 1.668432 1_555
H82 O70 0.986874 1_555
H83 O71 0.986874 1_555
H84 O74 0.986874 1_555
H85 O75 0.986874 1_555
H86 O76 1.005674 1_554
H86 O67 1.668432 1_555
H87 O77 1.005674 1_555
H87 O66 1.668432 1_555
H88 O3 1.020945 1_656
H88 O70 1.590583 1_555
H89 O2 1.020945 1_655
H89 O71 1.590583 1_555
H90 O78 1.005674 1_655
H90 O72 1.668432 1_555
H91 O79 1.005674 1_655
H91 O73 1.668432 1_555
H92 O78 1.020945 1_665
H92 O75 1.590583 1_555
H93 O79 1.020945 1_655
H93 O74 1.590583 1_555
H94 O74 0.993091 1_455
H95 O75 0.993091 1_455
O6 S1 1.491356 1_555
O7 S0 1.491356 1_555
O12 S1 1.491356 1_555
O13 S0 1.491356 1_555
O16 S0 1.491356 1_555
O17 S1 1.491356 1_555
O18 S3 1.508090 1_555
O19 S2 1.508090 1_555
O20 S1 1.508090 1_555
O21 S0 1.508090 1_555
O22 S2 1.491356 1_555
O23 S3 1.491356 1_555
O26 S3 1.491356 1_555
O27 S2 1.491356 1_555
O32 S3 1.491356 1_555
O33 S2 1.491356 1_555
O46 S5 1.491356 1_555
O47 S4 1.491356 1_555
O52 S4 1.491356 1_555
O53 S5 1.491356 1_555
O56 S4 1.491356 1_555
O57 S5 1.491356 1_555
O58 S7 1.508090 1_555
O59 S6 1.508090 1_555
O60 S5 1.508090 1_555
O61 S4 1.508090 1_555
O62 S6 1.491356 1_555
O63 S7 1.491356 1_555
O66 S6 1.491356 1_555
O67 S7 1.491356 1_555
O72 S6 1.491356 1_555
O73 S7 1.491356 1_555
