# generated using pymatgen
data_SmFeC6(N3O2)2
_symmetry_space_group_name_H-M   'P 1'
_cell_length_a   7.58109661
_cell_length_b   7.58109661
_cell_length_c   13.68240400
_cell_angle_alpha   90.00000000
_cell_angle_beta   90.00000000
_cell_angle_gamma   122.01616810
_symmetry_Int_Tables_number   1
_chemical_formula_structural   SmFeC6(N3O2)2
_chemical_formula_sum   'Sm2 Fe2 C12 N12 O8'
_cell_volume   666.76124965
_cell_formula_units_Z   2
loop_
 _symmetry_equiv_pos_site_id
 _symmetry_equiv_pos_as_xyz
  1  'x, y, z'
loop_
 _atom_site_type_symbol
 _atom_site_label
 _atom_site_symmetry_multiplicity
 _atom_site_fract_x
 _atom_site_fract_y
 _atom_site_fract_z
 _atom_site_occupancy
  Sm  Sm0  1  0.32793800  0.67206200  0.25000000  1
  Sm  Sm1  1  0.67206200  0.32793800  0.75000000  1
  Fe  Fe0  1  0.00000000  0.00000000  0.50000000  1
  Fe  Fe1  1  0.00000000  0.00000000  0.00000000  1
  C  C0  1  0.76352400  0.86640800  0.41214400  1
  C  C1  1  0.86640800  0.76352400  0.58785600  1
  C  C2  1  0.76352400  0.86640800  0.08785600  1
  C  C3  1  0.86640800  0.76352400  0.91214400  1
  C  C4  1  0.23647600  0.13359200  0.58785600  1
  C  C5  1  0.13359200  0.23647600  0.41214400  1
  C  C6  1  0.23647600  0.13359200  0.91214400  1
  C  C7  1  0.13359200  0.23647600  0.08785600  1
  C  C8  1  0.12774700  0.87225300  0.43096400  1
  C  C9  1  0.87225300  0.12774700  0.56903600  1
  C  C10  1  0.12774700  0.87225300  0.06903600  1
  C  C11  1  0.87225300  0.12774700  0.93096400  1
  N  N0  1  0.62353600  0.79314500  0.35727600  1
  N  N1  1  0.79314500  0.62353600  0.64272400  1
  N  N2  1  0.62353600  0.79314500  0.14272400  1
  N  N3  1  0.79314500  0.62353600  0.85727600  1
  N  N4  1  0.37646400  0.20685500  0.64272400  1
  N  N5  1  0.20685500  0.37646400  0.35727600  1
  N  N6  1  0.37646400  0.20685500  0.85727600  1
  N  N7  1  0.20685500  0.37646400  0.14272400  1
  N  N8  1  0.20124600  0.79875400  0.38307200  1
  N  N9  1  0.79875400  0.20124600  0.61692800  1
  N  N10  1  0.20124600  0.79875400  0.11692800  1
  N  N11  1  0.79875400  0.20124600  0.88307200  1
  O  O0  1  0.56969900  0.15324900  0.25000000  1
  O  O1  1  0.15324900  0.56969900  0.75000000  1
  O  O2  1  0.43030100  0.84675100  0.75000000  1
  O  O3  1  0.84675100  0.43030100  0.25000000  1
  O  O4  1  0.68222100  0.31777900  0.32435200  1
  O  O5  1  0.31777900  0.68222100  0.67564800  1
  O  O6  1  0.68222100  0.31777900  0.17564800  1
  O  O7  1  0.31777900  0.68222100  0.82435200  1
loop_
_geom_bond_atom_site_label_1
_geom_bond_atom_site_label_2
_geom_bond_distance
_geom_bond_site_symmetry_2
C0 N0 1.171904 1_555
C0 Fe0 1.938941 1_665
C1 N1 1.171904 1_555
C1 Fe0 1.938941 1_665
C2 N2 1.171904 1_555
C2 Fe1 1.938941 1_665
C3 N3 1.171904 1_555
C3 Fe1 1.938941 1_666
C4 N4 1.171904 1_555
C4 Fe0 1.938941 1_555
C5 N5 1.171904 1_555
C5 Fe0 1.938941 1_555
C6 N6 1.171904 1_555
C6 Fe1 1.938941 1_556
C7 N7 1.171904 1_555
C7 Fe1 1.938941 1_555
C8 N8 1.174539 1_555
C8 Fe0 1.939732 1_565
C9 N9 1.174539 1_555
C9 Fe0 1.939732 1_655
C10 N10 1.174539 1_555
C10 Fe1 1.939732 1_565
C11 N11 1.174539 1_555
C11 Fe1 1.939732 1_656
N0 Sm0 2.416150 1_555
N1 Sm1 2.416150 1_555
N2 Sm0 2.416150 1_555
N3 Sm1 2.416150 1_555
N4 Sm1 2.416150 1_555
N5 Sm0 2.416150 1_555
N6 Sm1 2.416150 1_555
N7 Sm0 2.416150 1_555
N8 Sm0 2.477545 1_555
N9 Sm1 2.477545 1_555
N10 Sm0 2.477545 1_555
N11 Sm1 2.477545 1_555
O0 O4 1.479938 1_555
O0 O6 1.479938 1_555
O0 Sm0 3.094724 1_545
O1 O7 1.479938 1_555
O1 O5 1.479938 1_555
O1 Sm1 3.094724 1_455
O2 O7 1.479938 1_555
O2 O5 1.479938 1_555
O2 Sm1 3.094724 1_565
O3 O4 1.479938 1_555
O3 O6 1.479938 1_555
O3 Sm0 3.094724 1_655
