# generated using pymatgen
data_MnPO4
_symmetry_space_group_name_H-M   'P 1'
_cell_length_a   7.18399000
_cell_length_b   8.39541112
_cell_length_c   8.45519706
_cell_angle_alpha   119.69578304
_cell_angle_beta   93.75246277
_cell_angle_gamma   89.80201638
_symmetry_Int_Tables_number   1
_chemical_formula_structural   MnPO4
_chemical_formula_sum   'Mn6 P6 O24'
_cell_volume   441.78455632
_cell_formula_units_Z   6
loop_
 _symmetry_equiv_pos_site_id
 _symmetry_equiv_pos_as_xyz
  1  'x, y, z'
loop_
 _atom_site_type_symbol
 _atom_site_label
 _atom_site_symmetry_multiplicity
 _atom_site_fract_x
 _atom_site_fract_y
 _atom_site_fract_z
 _atom_site_occupancy
  Mn  Mn0  1  0.00000000  0.00000000  0.00000000  1
  Mn  Mn1  1  0.50000000  0.00000000  0.00000000  1
  Mn  Mn2  1  0.05025700  0.32841100  0.67066200  1
  Mn  Mn3  1  0.45052300  0.33739800  0.66112500  1
  Mn  Mn4  1  0.94974300  0.67158900  0.32933800  1
  Mn  Mn5  1  0.54947700  0.66260200  0.33887500  1
  P  P0  1  0.74153700  0.03843600  0.35991600  1
  P  P1  1  0.75528300  0.63633500  0.67825000  1
  P  P2  1  0.24421100  0.67857100  0.04079900  1
  P  P3  1  0.75578900  0.32142900  0.95920100  1
  P  P4  1  0.24471700  0.36366500  0.32175000  1
  P  P5  1  0.25846300  0.96156400  0.64008400  1
  O  O0  1  0.22492000  0.15799700  0.18753400  1
  O  O1  1  0.25995500  0.39940400  0.52255300  1
  O  O2  1  0.92243300  0.15801900  0.44473500  1
  O  O3  1  0.56772600  0.14506500  0.43790900  1
  O  O4  1  0.57929600  0.56497400  0.72137300  1
  O  O5  1  0.93227300  0.54599000  0.70409100  1
  O  O6  1  0.24699000  0.13346200  0.60728000  1
  O  O7  1  0.24925100  0.81500400  0.96885200  1
  O  O8  1  0.23747000  0.47719900  0.87566500  1
  O  O9  1  0.73212000  0.96571500  0.15297200  1
  O  O10  1  0.92853300  0.27829500  0.84740200  1
  O  O11  1  0.57409700  0.29469400  0.84058800  1
  O  O12  1  0.07146700  0.72170500  0.15259800  1
  O  O13  1  0.42590300  0.70530600  0.15941200  1
  O  O14  1  0.26788000  0.03428500  0.84702800  1
  O  O15  1  0.76253000  0.52280100  0.12433500  1
  O  O16  1  0.75074900  0.18499600  0.03114800  1
  O  O17  1  0.75301000  0.86653800  0.39272000  1
  O  O18  1  0.42070400  0.43502600  0.27862700  1
  O  O19  1  0.06772700  0.45401000  0.29590900  1
  O  O20  1  0.07756700  0.84198100  0.55526500  1
  O  O21  1  0.43227400  0.85493500  0.56209100  1
  O  O22  1  0.74004500  0.60059600  0.47744700  1
  O  O23  1  0.77508000  0.84200300  0.81246600  1
loop_
_geom_bond_atom_site_label_1
_geom_bond_atom_site_label_2
_geom_bond_distance
_geom_bond_site_symmetry_2
Mn0 O0 2.116638 1_555
Mn0 O23 2.116638 1_444
Mn0 O16 2.307614 1_455
Mn0 O7 2.307614 1_544
Mn0 O9 2.481480 1_445
Mn0 O14 2.481480 1_554
Mn1 O9 2.149350 1_545
Mn1 O14 2.149350 1_554
Mn1 O7 2.297492 1_544
Mn1 O16 2.297492 1_555
Mn1 O0 2.546980 1_555
Mn1 O23 2.546980 1_544
Mn2 O2 1.900182 1_455
Mn2 O5 1.908959 1_455
Mn2 O8 1.983658 1_555
Mn2 O10 1.992839 1_455
Mn2 O6 2.043900 1_555
Mn2 O1 2.277183 1_555
Mn3 O11 1.891986 1_555
Mn3 O4 1.936984 1_555
Mn3 O1 1.976727 1_555
Mn3 O3 2.014310 1_555
Mn3 O6 2.105821 1_555
Mn3 O8 2.291783 1_555
Mn4 O20 1.900182 1_655
Mn4 O19 1.908959 1_655
Mn4 O15 1.983658 1_555
Mn4 O12 1.992839 1_655
Mn4 O17 2.043900 1_555
Mn4 O22 2.277183 1_555
Mn5 O13 1.891986 1_555
Mn5 O18 1.936984 1_555
Mn5 O22 1.976727 1_555
Mn5 O21 2.014310 1_555
Mn5 O17 2.105821 1_555
Mn5 O15 2.291783 1_555
O0 P4 1.525971 1_555
O1 P4 1.567100 1_555
O2 P0 1.544261 1_555
O3 P0 1.520047 1_555
O4 P1 1.540227 1_555
O5 P1 1.536522 1_555
O6 P5 1.599749 1_545
O7 P2 1.541711 1_556
O8 P2 1.569374 1_556
O9 P0 1.537958 1_565
O10 P3 1.541440 1_555
O11 P3 1.538691 1_555
O12 P2 1.541440 1_555
O13 P2 1.538691 1_555
O14 P5 1.537958 1_545
O15 P3 1.569374 1_554
O16 P3 1.541711 1_554
O17 P0 1.599749 1_565
O18 P4 1.540227 1_555
O19 P4 1.536522 1_555
O20 P5 1.544261 1_555
O21 P5 1.520047 1_555
O22 P1 1.567100 1_555
O23 P1 1.525971 1_555
