# generated using pymatgen
data_Ca2SnS4
_symmetry_space_group_name_H-M   'P 1'
_cell_length_a   7.33776400
_cell_length_b   8.68569300
_cell_length_c   10.97715200
_cell_angle_alpha   90.00000000
_cell_angle_beta   90.00000000
_cell_angle_gamma   90.00000000
_symmetry_Int_Tables_number   1
_chemical_formula_structural   Ca2SnS4
_chemical_formula_sum   'Ca8 Sn4 S16'
_cell_volume   699.61303501
_cell_formula_units_Z   4
loop_
 _symmetry_equiv_pos_site_id
 _symmetry_equiv_pos_as_xyz
  1  'x, y, z'
loop_
 _atom_site_type_symbol
 _atom_site_label
 _atom_site_symmetry_multiplicity
 _atom_site_fract_x
 _atom_site_fract_y
 _atom_site_fract_z
 _atom_site_occupancy
  Ca  Ca0  1  0.37938700  0.49490800  0.19046800  1
  Ca  Ca1  1  0.12061300  0.00509200  0.69046800  1
  Ca  Ca2  1  0.62061300  0.99490800  0.80953200  1
  Ca  Ca3  1  0.87938700  0.50509200  0.30953200  1
  Ca  Ca4  1  0.62061300  0.50509200  0.80953200  1
  Ca  Ca5  1  0.87938700  0.99490800  0.30953200  1
  Ca  Ca6  1  0.37938700  0.00509200  0.19046800  1
  Ca  Ca7  1  0.12061300  0.49490800  0.69046800  1
  Sn  Sn0  1  0.38946100  0.75000000  0.46921600  1
  Sn  Sn1  1  0.11053900  0.75000000  0.96921600  1
  Sn  Sn2  1  0.61053900  0.25000000  0.53078400  1
  Sn  Sn3  1  0.88946100  0.25000000  0.03078400  1
  S  S0  1  0.60559900  0.75000000  0.30145500  1
  S  S1  1  0.89440100  0.75000000  0.80145500  1
  S  S2  1  0.39440100  0.25000000  0.69854500  1
  S  S3  1  0.10559900  0.25000000  0.19854500  1
  S  S4  1  0.40252500  0.75000000  0.68972900  1
  S  S5  1  0.09747500  0.75000000  0.18972900  1
  S  S6  1  0.59747500  0.25000000  0.31027100  1
  S  S7  1  0.90252500  0.25000000  0.81027100  1
  S  S8  1  0.22425600  0.51306300  0.43630000  1
  S  S9  1  0.27574400  0.98693700  0.93630000  1
  S  S10  1  0.77574400  0.01306300  0.56370000  1
  S  S11  1  0.72425600  0.48693700  0.06370000  1
  S  S12  1  0.77574400  0.48693700  0.56370000  1
  S  S13  1  0.72425600  0.01306300  0.06370000  1
  S  S14  1  0.22425600  0.98693700  0.43630000  1
  S  S15  1  0.27574400  0.51306300  0.93630000  1
loop_
_geom_bond_atom_site_label_1
_geom_bond_atom_site_label_2
_geom_bond_distance
_geom_bond_site_symmetry_2
Ca0 S11 2.888768 1_555
Ca0 S15 2.896129 1_554
Ca0 S3 2.927263 1_555
Ca0 S8 2.933039 1_555
Ca0 S6 2.969062 1_555
Ca0 S0 3.024674 1_555
Ca0 S5 3.031220 1_555
Ca1 S10 2.888768 1_455
Ca1 S14 2.896129 1_545
Ca1 S2 2.927263 1_555
Ca1 S9 2.933039 1_545
Ca1 S7 2.969062 1_455
Ca1 S1 3.024674 1_445
Ca1 S4 3.031220 1_545
Ca2 S9 2.888768 1_555
Ca2 S13 2.896129 1_566
Ca2 S1 2.927263 1_555
Ca2 S10 2.933039 1_565
Ca2 S4 2.969062 1_555
Ca2 S2 3.024674 1_565
Ca2 S7 3.031220 1_565
Ca3 S8 2.888768 1_655
Ca3 S12 2.896129 1_555
Ca3 S0 2.927263 1_555
Ca3 S11 2.933039 1_555
Ca3 S5 2.969062 1_655
Ca3 S3 3.024674 1_655
Ca3 S6 3.031220 1_555
Ca4 S15 2.888768 1_555
Ca4 S11 2.896129 1_556
Ca4 S1 2.927263 1_555
Ca4 S12 2.933039 1_555
Ca4 S4 2.969062 1_555
Ca4 S2 3.024674 1_555
Ca4 S7 3.031220 1_555
Ca5 S14 2.888768 1_655
Ca5 S10 2.896129 1_565
Ca5 S0 2.927263 1_555
Ca5 S13 2.933039 1_565
Ca5 S5 2.969062 1_655
Ca5 S3 3.024674 1_665
Ca5 S6 3.031220 1_565
Ca6 S13 2.888768 1_555
Ca6 S9 2.896129 1_544
Ca6 S3 2.927263 1_555
Ca6 S14 2.933039 1_545
Ca6 S6 2.969062 1_555
Ca6 S0 3.024674 1_545
Ca6 S5 3.031220 1_545
Ca7 S12 2.888768 1_455
Ca7 S8 2.896129 1_555
Ca7 S2 2.927263 1_555
Ca7 S15 2.933039 1_555
Ca7 S7 2.969062 1_455
Ca7 S1 3.024674 1_455
Ca7 S4 3.031220 1_555
S0 Sn0 2.430342 1_555
S1 Sn1 2.430342 1_655
S2 Sn2 2.430342 1_555
S3 Sn3 2.430342 1_455
S4 Sn0 2.422502 1_555
S5 Sn1 2.422502 1_554
S6 Sn2 2.422502 1_555
S7 Sn3 2.422502 1_556
S8 Sn0 2.415632 1_555
S9 Sn1 2.415632 1_555
S10 Sn2 2.415632 1_555
S11 Sn3 2.415632 1_555
S12 Sn2 2.415632 1_555
S13 Sn3 2.415632 1_555
S14 Sn0 2.415632 1_555
S15 Sn1 2.415632 1_555
