# generated using pymatgen
data_Mn12O7F17
_symmetry_space_group_name_H-M   'P 1'
_cell_length_a   4.81562900
_cell_length_b   5.78655529
_cell_length_c   15.90945782
_cell_angle_alpha   89.20297346
_cell_angle_beta   88.77239850
_cell_angle_gamma   86.24775570
_symmetry_Int_Tables_number   1
_chemical_formula_structural   Mn12O7F17
_chemical_formula_sum   'Mn12 O7 F17'
_cell_volume   442.24477210
_cell_formula_units_Z   1
loop_
 _symmetry_equiv_pos_site_id
 _symmetry_equiv_pos_as_xyz
  1  'x, y, z'
loop_
 _atom_site_type_symbol
 _atom_site_label
 _atom_site_symmetry_multiplicity
 _atom_site_fract_x
 _atom_site_fract_y
 _atom_site_fract_z
 _atom_site_occupancy
  Mn  Mn0  1  0.00550200  0.85123900  0.41756500  1
  Mn  Mn1  1  0.98101700  0.16446600  0.23808300  1
  Mn  Mn2  1  0.00433500  0.84496700  0.07884100  1
  Mn  Mn3  1  0.95337600  0.84211800  0.75509800  1
  Mn  Mn4  1  0.96209000  0.16075800  0.58090100  1
  Mn  Mn5  1  0.00296400  0.16560800  0.90838200  1
  Mn  Mn6  1  0.49794100  0.64736300  0.58703800  1
  Mn  Mn7  1  0.50453800  0.65927400  0.91946100  1
  Mn  Mn8  1  0.48629200  0.66857800  0.26018500  1
  Mn  Mn9  1  0.50544500  0.34796800  0.08312500  1
  Mn  Mn10  1  0.49479800  0.34247100  0.41946500  1
  Mn  Mn11  1  0.54501400  0.35304600  0.75170300  1
  O  O0  1  0.77197400  0.11373200  0.12867500  1
  O  O1  1  0.77630900  0.11705400  0.46966500  1
  O  O2  1  0.76894600  0.11164800  0.80425900  1
  O  O3  1  0.70993500  0.37917100  0.64346000  1
  O  O4  1  0.72173500  0.62630600  0.81326400  1
  O  O5  1  0.29328500  0.61703600  0.02714800  1
  O  O6  1  0.27621700  0.61617000  0.37063700  1
  F  F0  1  0.78503300  0.88505700  0.30654400  1
  F  F1  1  0.75219900  0.87737500  0.63776100  1
  F  F2  1  0.78222100  0.88293600  0.97108900  1
  F  F3  1  0.74082600  0.60940000  0.14703200  1
  F  F4  1  0.72680500  0.38233600  0.31208900  1
  F  F5  1  0.74574500  0.61454300  0.47518900  1
  F  F6  1  0.74132400  0.39424500  0.97522800  1
  F  F7  1  0.28413000  0.38785400  0.19355200  1
  F  F8  1  0.26935600  0.38500300  0.52848500  1
  F  F9  1  0.29817700  0.38073700  0.85638600  1
  F  F10  1  0.24133200  0.60477200  0.70236200  1
  F  F11  1  0.23122100  0.88193000  0.18586200  1
  F  F12  1  0.22680800  0.89157800  0.52914600  1
  F  F13  1  0.23772600  0.10919000  0.35228400  1
  F  F14  1  0.24713900  0.12187900  0.01973600  1
  F  F15  1  0.23704600  0.87691100  0.86069300  1
  F  F16  1  0.19120000  0.08527800  0.68960600  1
loop_
_geom_bond_atom_site_label_1
_geom_bond_atom_site_label_2
_geom_bond_distance
_geom_bond_site_symmetry_2
Mn0 O6 1.965109 1_555
Mn0 O1 2.011270 1_465
Mn1 O0 2.063327 1_555
Mn2 O0 2.016905 1_465
Mn2 O5 2.023138 1_555
Mn3 O2 1.912042 1_565
Mn3 O4 1.940656 1_555
Mn4 O3 1.960804 1_555
Mn4 O1 2.026356 1_555
Mn5 O2 2.062052 1_455
Mn6 O3 2.012345 1_555
Mn7 O4 1.972828 1_555
Mn7 O5 1.994011 1_556
Mn8 O6 2.037746 1_555
Mn9 O0 1.947956 1_555
Mn9 O5 2.013287 1_555
Mn10 O1 1.990738 1_555
Mn10 O6 2.000598 1_555
Mn11 O3 1.889195 1_555
Mn11 O2 1.903215 1_555
Mn11 O4 2.106821 1_555
F0 Mn0 2.080576 1_655
F0 Mn8 2.118923 1_555
F0 Mn1 2.190392 1_565
F1 Mn6 2.051197 1_555
F1 Mn3 2.122742 1_555
F1 Mn4 2.159959 1_565
F2 Mn2 2.041673 1_656
F2 Mn7 2.107368 1_555
F2 Mn5 2.222054 1_665
F3 Mn8 2.174419 1_555
F3 Mn2 2.184399 1_655
F3 Mn9 2.218944 1_555
F4 Mn10 2.039789 1_555
F4 Mn1 2.062000 1_555
F4 Mn8 2.125726 1_555
F5 Mn0 2.102694 1_655
F5 Mn6 2.124930 1_555
F5 Mn10 2.249156 1_555
F6 Mn7 2.053277 1_555
F6 Mn5 2.057288 1_655
F6 Mn9 2.062067 1_556
F7 Mn9 2.043149 1_555
F7 Mn1 2.116765 1_455
F7 Mn8 2.238179 1_555
F8 Mn10 2.035616 1_555
F8 Mn6 2.164791 1_555
F8 Mn4 2.176457 1_455
F9 Mn11 2.027318 1_555
F9 Mn5 2.099432 1_555
F9 Mn7 2.211269 1_555
F10 Mn3 2.060592 1_455
F10 Mn11 2.148303 1_555
F10 Mn6 2.210021 1_555
F11 Mn8 2.062586 1_555
F11 Mn2 2.063723 1_555
F11 Mn1 2.133542 1_465
F12 Mn6 2.079408 1_555
F12 Mn4 2.111886 1_465
F12 Mn0 2.113463 1_555
F13 Mn0 2.163988 1_545
F13 Mn10 2.193783 1_555
F13 Mn1 2.227082 1_455
F14 Mn9 2.139950 1_555
F14 Mn5 2.150119 1_554
F14 Mn2 2.230503 1_545
F15 Mn7 1.981414 1_555
F15 Mn5 2.095053 1_565
F15 Mn3 2.207403 1_455
F16 Mn4 2.096827 1_455
F16 Mn3 2.120402 1_445
F16 Mn11 2.596175 1_555
