# generated using pymatgen
data_Tm2NiRu
_symmetry_space_group_name_H-M   'P 1'
_cell_length_a   4.69006140
_cell_length_b   4.69006140
_cell_length_c   4.69006140
_cell_angle_alpha   60.00000000
_cell_angle_beta   60.00000000
_cell_angle_gamma   60.00000000
_symmetry_Int_Tables_number   1
_chemical_formula_structural   Tm2NiRu
_chemical_formula_sum   'Tm2 Ni1 Ru1'
_cell_volume   72.94920899
_cell_formula_units_Z   1
loop_
 _symmetry_equiv_pos_site_id
 _symmetry_equiv_pos_as_xyz
  1  'x, y, z'
loop_
 _atom_site_type_symbol
 _atom_site_label
 _atom_site_symmetry_multiplicity
 _atom_site_fract_x
 _atom_site_fract_y
 _atom_site_fract_z
 _atom_site_occupancy
  Tm  Tm0  1  -0.00000000  0.00000000  0.00000000  1
  Tm  Tm1  1  0.50000000  0.50000000  0.50000000  1
  Ni  Ni0  1  0.25000000  0.25000000  0.25000000  1
  Ru  Ru0  1  0.75000000  0.75000000  0.75000000  1
loop_
_geom_bond_atom_site_label_1
_geom_bond_atom_site_label_2
_geom_bond_distance
_geom_bond_site_symmetry_2
Ni0 Tm0 2.872064 1_565
Ni0 Tm0 2.872064 1_555
Ni0 Tm0 2.872064 1_655
Ni0 Tm0 2.872064 1_556
Ni0 Tm1 2.872064 1_455
Ni0 Tm1 2.872064 1_554
Ni0 Tm1 2.872064 1_555
Ni0 Tm1 2.872064 1_545
Ru0 Tm1 2.872064 1_655
Ru0 Tm0 2.872064 1_656
Ru0 Tm1 2.872064 1_556
Ru0 Tm0 2.872064 1_566
Ru0 Tm1 2.872064 1_565
Ru0 Tm0 2.872064 1_665
Ru0 Tm0 2.872064 1_666
Ru0 Tm1 2.872064 1_555
