# generated using pymatgen
data_VS2
_symmetry_space_group_name_H-M   'P 1'
_cell_length_a   4.65171400
_cell_length_b   4.72741430
_cell_length_c   44.53947967
_cell_angle_alpha   87.69783886
_cell_angle_beta   88.14475024
_cell_angle_gamma   82.61691628
_symmetry_Int_Tables_number   1
_chemical_formula_structural   VS2
_chemical_formula_sum   'V8 S16'
_cell_volume   970.17846144
_cell_formula_units_Z   8
loop_
 _symmetry_equiv_pos_site_id
 _symmetry_equiv_pos_as_xyz
  1  'x, y, z'
loop_
 _atom_site_type_symbol
 _atom_site_label
 _atom_site_symmetry_multiplicity
 _atom_site_fract_x
 _atom_site_fract_y
 _atom_site_fract_z
 _atom_site_occupancy
  V  V0_0  1  0.25015300  0.24959900  0.25001600  1
  V  V0_1  1  0.25015300  0.24959900  0.75001600  1
  V  V0_2  1  0.25015300  0.74959900  0.25001600  1
  V  V0_3  1  0.25015300  0.74959900  0.75001600  1
  V  V0_4  1  0.75015300  0.24959900  0.25001600  1
  V  V0_5  1  0.75015300  0.24959900  0.75001600  1
  V  V0_6  1  0.75015300  0.74959900  0.25001600  1
  V  V0_7  1  0.75015300  0.74959900  0.75001600  1
  S  S0_0  1  0.46613100  0.23121450  0.09465850  1
  S  S0_1  1  0.46613100  0.23121450  0.59465850  1
  S  S0_2  1  0.46613100  0.73121450  0.09465850  1
  S  S0_3  1  0.46613100  0.73121450  0.59465850  1
  S  S0_4  1  0.96613100  0.23121450  0.09465850  1
  S  S0_5  1  0.96613100  0.23121450  0.59465850  1
  S  S0_6  1  0.96613100  0.73121450  0.09465850  1
  S  S0_7  1  0.96613100  0.73121450  0.59465850  1
  S  S1_0  1  0.03371650  0.29218650  0.40532550  1
  S  S1_1  1  0.03371650  0.29218650  0.90532550  1
  S  S1_2  1  0.03371650  0.79218650  0.40532550  1
  S  S1_3  1  0.03371650  0.79218650  0.90532550  1
  S  S1_4  1  0.53371650  0.29218650  0.40532550  1
  S  S1_5  1  0.53371650  0.29218650  0.90532550  1
  S  S1_6  1  0.53371650  0.79218650  0.40532550  1
  S  S1_7  1  0.53371650  0.79218650  0.90532550  1
loop_
_geom_bond_atom_site_label_1
_geom_bond_atom_site_label_2
_geom_bond_distance
_geom_bond_site_symmetry_2
V0_0 V0_4 2.325857 1_455
V0_0 V0_4 2.325857 1_555
V0_0 V0_2 2.363707 1_555
V0_0 V0_2 2.363707 1_545
V0_1 V0_5 2.325857 1_455
V0_1 V0_5 2.325857 1_555
V0_1 V0_3 2.363707 1_555
V0_1 V0_3 2.363707 1_545
V0_2 V0_6 2.325857 1_455
V0_2 V0_6 2.325857 1_555
V0_3 V0_7 2.325857 1_555
V0_3 V0_7 2.325857 1_455
V0_4 V0_6 2.363707 1_545
V0_4 V0_6 2.363707 1_555
V0_5 V0_7 2.363707 1_555
V0_5 V0_7 2.363707 1_545
S0_0 S0_4 2.325857 1_455
S0_0 S0_4 2.325857 1_555
S0_0 S0_2 2.363707 1_545
S0_0 S0_2 2.363707 1_555
S0_1 S0_5 2.325857 1_555
S0_1 S0_5 2.325857 1_455
S0_1 S0_3 2.363707 1_545
S0_1 S0_3 2.363707 1_555
S0_2 S0_6 2.325857 1_555
S0_2 S0_6 2.325857 1_455
S0_3 S0_7 2.325857 1_455
S0_3 S0_7 2.325857 1_555
S0_4 S0_6 2.363707 1_555
S0_4 S0_6 2.363707 1_545
S0_5 S0_7 2.363707 1_545
S0_5 S0_7 2.363707 1_555
S1_0 S1_4 2.325857 1_555
S1_0 S1_4 2.325857 1_455
S1_0 S1_2 2.363707 1_545
S1_0 S1_2 2.363707 1_555
S1_1 S1_5 2.325857 1_555
S1_1 S1_5 2.325857 1_455
S1_1 S1_3 2.363707 1_555
S1_1 S1_3 2.363707 1_545
S1_2 S1_6 2.325857 1_555
S1_2 S1_6 2.325857 1_455
S1_3 S1_7 2.325857 1_555
S1_3 S1_7 2.325857 1_455
S1_4 S1_6 2.363707 1_545
S1_4 S1_6 2.363707 1_555
S1_5 S1_7 2.363707 1_545
S1_5 S1_7 2.363707 1_555
