# generated using pymatgen
data_Zr5Ti7O24
_symmetry_space_group_name_H-M   'P 1'
_cell_length_a   5.65111100
_cell_length_b   4.81217200
_cell_length_c   15.21061459
_cell_angle_alpha   88.43309777
_cell_angle_beta   90.00000000
_cell_angle_gamma   90.00000000
_symmetry_Int_Tables_number   1
_chemical_formula_structural   Zr5Ti7O24
_chemical_formula_sum   'Zr5 Ti7 O24'
_cell_volume   413.48458089
_cell_formula_units_Z   1
loop_
 _symmetry_equiv_pos_site_id
 _symmetry_equiv_pos_as_xyz
  1  'x, y, z'
loop_
 _atom_site_type_symbol
 _atom_site_label
 _atom_site_symmetry_multiplicity
 _atom_site_fract_x
 _atom_site_fract_y
 _atom_site_fract_z
 _atom_site_occupancy
  Zr  Zr0  1  0.81394300  0.00000000  0.00000000  1
  Zr  Zr1  1  0.20540900  0.00000000  0.50000000  1
  Zr  Zr2  1  0.80351600  0.98889900  0.33406300  1
  Zr  Zr3  1  0.80351600  0.01110100  0.66593700  1
  Zr  Zr4  1  0.31053700  0.50000000  0.00000000  1
  Ti  Ti0  1  0.18919100  0.01162700  0.82972700  1
  Ti  Ti1  1  0.18919100  0.98837300  0.17027300  1
  Ti  Ti2  1  0.32256900  0.48742800  0.32977800  1
  Ti  Ti3  1  0.32256900  0.51257200  0.67022200  1
  Ti  Ti4  1  0.68610700  0.48862600  0.16688800  1
  Ti  Ti5  1  0.68610700  0.51137400  0.83311200  1
  Ti  Ti6  1  0.67138900  0.50000000  0.50000000  1
  O  O0  1  0.88813300  0.24181900  0.55067500  1
  O  O1  1  0.11338500  0.19981300  0.06329200  1
  O  O2  1  0.89404600  0.25962500  0.88782300  1
  O  O3  1  0.88250100  0.21270500  0.21751900  1
  O  O4  1  0.11077300  0.22891100  0.38402900  1
  O  O5  1  0.12256500  0.24141400  0.72297200  1
  O  O6  1  0.60912500  0.28653100  0.06179000  1
  O  O7  1  0.38343900  0.24727800  0.22635800  1
  O  O8  1  0.39587900  0.28903100  0.56735100  1
  O  O9  1  0.39095400  0.26084900  0.88676700  1
  O  O10  1  0.59157500  0.26054200  0.40040700  1
  O  O11  1  0.61560500  0.31845200  0.72668400  1
  O  O12  1  0.38343900  0.75272200  0.77364200  1
  O  O13  1  0.60912500  0.71346900  0.93821000  1
  O  O14  1  0.39095400  0.73915100  0.11323300  1
  O  O15  1  0.39587900  0.71096900  0.43264900  1
  O  O16  1  0.61560500  0.68154800  0.27331600  1
  O  O17  1  0.59157500  0.73945800  0.59959300  1
  O  O18  1  0.11338500  0.80018700  0.93670800  1
  O  O19  1  0.12256500  0.75858600  0.27702800  1
  O  O20  1  0.88250100  0.78729500  0.78248100  1
  O  O21  1  0.89404600  0.74037500  0.11217700  1
  O  O22  1  0.88813300  0.75818100  0.44932500  1
  O  O23  1  0.11077300  0.77108900  0.61597100  1
loop_
_geom_bond_atom_site_label_1
_geom_bond_atom_site_label_2
_geom_bond_distance
_geom_bond_site_symmetry_2
O0 Ti6 1.893565 1_555
O0 Zr3 2.104424 1_555
O0 Zr1 2.282988 1_655
O1 Ti1 1.943239 1_545
O1 Zr4 2.044203 1_555
O1 Zr0 2.182993 1_455
O2 Ti5 1.867047 1_555
O2 Zr0 2.135562 1_556
O2 Ti0 2.246033 1_655
O3 Ti4 1.879342 1_555
O3 Zr2 2.096955 1_545
O3 Ti1 2.174400 1_645
O4 Ti2 1.898666 1_555
O4 Zr1 2.122460 1_555
O4 Zr2 2.230357 1_445
O5 Ti3 1.888554 1_555
O5 Ti0 1.975616 1_555
O5 Zr3 2.298758 1_455
O6 Ti4 1.943091 1_555
O6 Zr0 2.048193 1_555
O6 Zr4 2.175534 1_555
O7 Ti1 1.882318 1_545
O7 Ti2 2.006948 1_555
O7 Ti4 2.243919 1_555
O8 Ti3 1.967037 1_555
O8 Zr1 2.054385 1_555
O8 Ti6 2.108873 1_555
O9 Ti0 1.883613 1_555
O9 Zr4 2.146115 1_556
O9 Ti5 2.201745 1_555
O10 Ti6 1.980292 1_555
O10 Zr2 2.057604 1_545
O10 Ti2 2.143131 1_555
O11 Ti5 1.929619 1_555
O11 Zr3 2.060018 1_555
O11 Ti3 2.075712 1_555
O12 Ti0 1.882318 1_565
O12 Ti3 2.006948 1_555
O12 Ti5 2.243919 1_555
O13 Ti5 1.943091 1_555
O13 Zr0 2.048193 1_566
O13 Zr4 2.175534 1_556
O14 Ti1 1.883613 1_555
O14 Zr4 2.146115 1_555
O14 Ti4 2.201745 1_555
O15 Ti2 1.967037 1_555
O15 Zr1 2.054385 1_565
O15 Ti6 2.108873 1_555
O16 Ti4 1.929619 1_555
O16 Zr2 2.060018 1_555
O16 Ti2 2.075712 1_555
O17 Ti6 1.980292 1_555
O17 Zr3 2.057604 1_565
O17 Ti3 2.143131 1_555
O18 Ti0 1.943239 1_565
O18 Zr4 2.044203 1_556
O18 Zr0 2.182993 1_466
O19 Ti2 1.888554 1_555
O19 Ti1 1.975616 1_555
O19 Zr2 2.298758 1_455
O20 Ti5 1.879342 1_555
O20 Zr3 2.096955 1_565
O20 Ti0 2.174400 1_665
O21 Ti4 1.867047 1_555
O21 Zr0 2.135562 1_565
O21 Ti1 2.246033 1_655
O22 Ti6 1.893565 1_555
O22 Zr2 2.104424 1_555
O22 Zr1 2.282988 1_665
O23 Ti3 1.898666 1_555
O23 Zr1 2.122460 1_565
O23 Zr3 2.230357 1_465
