# generated using pymatgen
data_Li5(NiO2)4
_symmetry_space_group_name_H-M   'P 1'
_cell_length_a   5.97968517
_cell_length_b   5.97968517
_cell_length_c   9.62678300
_cell_angle_alpha   90.00000000
_cell_angle_beta   90.00000000
_cell_angle_gamma   122.58687632
_symmetry_Int_Tables_number   1
_chemical_formula_structural   Li5(NiO2)4
_chemical_formula_sum   'Li10 Ni8 O16'
_cell_volume   290.03258389
_cell_formula_units_Z   2
loop_
 _symmetry_equiv_pos_site_id
 _symmetry_equiv_pos_as_xyz
  1  'x, y, z'
loop_
 _atom_site_type_symbol
 _atom_site_label
 _atom_site_symmetry_multiplicity
 _atom_site_fract_x
 _atom_site_fract_y
 _atom_site_fract_z
 _atom_site_occupancy
  Li  Li0  1  0.98849800  0.01150200  0.48530800  1
  Li  Li1  1  0.01150200  0.98849800  0.98530800  1
  Li  Li2  1  0.81803800  0.61569000  0.55843900  1
  Li  Li3  1  0.67878500  0.32121500  0.78230700  1
  Li  Li4  1  0.79918500  0.20081500  0.54506000  1
  Li  Li5  1  0.38431000  0.18196200  0.55843900  1
  Li  Li6  1  0.61569000  0.81803800  0.05843900  1
  Li  Li7  1  0.32121500  0.67878500  0.28230700  1
  Li  Li8  1  0.20081500  0.79918500  0.04506000  1
  Li  Li9  1  0.18196200  0.38431000  0.05843900  1
  Ni  Ni0  1  0.66737300  0.33262700  0.03350300  1
  Ni  Ni1  1  0.33262700  0.66737300  0.53350300  1
  Ni  Ni2  1  0.82612100  0.67042700  0.28626800  1
  Ni  Ni3  1  0.82351900  0.17648100  0.28676300  1
  Ni  Ni4  1  0.32957300  0.17387900  0.28626800  1
  Ni  Ni5  1  0.67042700  0.82612100  0.78626800  1
  Ni  Ni6  1  0.17648100  0.82351900  0.78676300  1
  Ni  Ni7  1  0.17387900  0.32957300  0.78626800  1
  O  O0  1  0.00740000  0.99260000  0.68070700  1
  O  O1  1  0.99260000  0.00740000  0.18070700  1
  O  O2  1  0.83911600  0.64824100  0.91425900  1
  O  O3  1  0.97460300  0.49397000  0.15792800  1
  O  O4  1  0.85321100  0.14678900  0.90212400  1
  O  O5  1  0.50905300  0.49094700  0.16777400  1
  O  O6  1  0.65786000  0.34214000  0.39924200  1
  O  O7  1  0.50603000  0.02539700  0.15792800  1
  O  O8  1  0.64824100  0.83911600  0.41425900  1
  O  O9  1  0.35175900  0.16088400  0.91425900  1
  O  O10  1  0.49397000  0.97460300  0.65792800  1
  O  O11  1  0.49094700  0.50905300  0.66777400  1
  O  O12  1  0.34214000  0.65786000  0.89924200  1
  O  O13  1  0.14678900  0.85321100  0.40212400  1
  O  O14  1  0.02539700  0.50603000  0.65792800  1
  O  O15  1  0.16088400  0.35175900  0.41425900  1
loop_
_geom_bond_atom_site_label_1
_geom_bond_atom_site_label_2
_geom_bond_distance
_geom_bond_site_symmetry_2
Li0 O13 1.843409 1_645
Li0 O15 1.846881 1_655
Li0 O8 1.846881 1_545
Li0 O0 1.891484 1_645
Li1 O4 1.843409 1_465
Li1 O9 1.846881 1_565
Li1 O2 1.846881 1_455
Li1 O1 1.891484 1_466
Li2 O14 1.939212 1_655
Li2 O11 1.999146 1_555
Li2 O6 2.062563 1_555
Li2 O0 2.235685 1_655
Li2 O13 2.266869 1_655
Li2 O8 2.490687 1_555
Li3 O2 2.082625 1_555
Li3 O9 2.082625 1_555
Li3 O10 2.117440 1_545
Li3 O14 2.117440 1_655
Li3 O4 2.162872 1_555
Li3 O11 2.257842 1_555
Li4 O10 1.918868 1_545
Li4 O14 1.918868 1_655
Li4 O6 2.041596 1_555
Li4 O8 2.230550 1_545
Li4 O15 2.230550 1_655
Li4 O0 2.544673 1_645
Li5 O10 1.939212 1_545
Li5 O11 1.999146 1_555
Li5 O6 2.062563 1_555
Li5 O0 2.235685 1_545
Li5 O13 2.266869 1_545
Li5 O15 2.490687 1_555
Li6 O7 1.939212 1_565
Li6 O5 1.999146 1_555
Li6 O12 2.062563 1_554
Li6 O1 2.235685 1_565
Li6 O4 2.266869 1_564
Li6 O2 2.490687 1_554
Li7 O8 2.082625 1_555
Li7 O15 2.082625 1_555
Li7 O7 2.117440 1_565
Li7 O3 2.117440 1_455
Li7 O13 2.162872 1_555
Li7 O5 2.257842 1_555
Li8 O3 1.918868 1_455
Li8 O7 1.918868 1_565
Li8 O12 2.041596 1_554
Li8 O2 2.230550 1_454
Li8 O9 2.230550 1_564
Li8 O1 2.544673 1_465
Li9 O3 1.939212 1_455
Li9 O5 1.999146 1_555
Li9 O12 2.062563 1_554
Li9 O1 2.235685 1_455
Li9 O4 2.266869 1_454
Li9 O9 2.490687 1_554
Ni0 O3 1.957408 1_555
Ni0 O7 1.957408 1_555
Ni0 O2 1.961252 1_554
Ni0 O9 1.961252 1_554
Ni0 O5 2.104449 1_555
Ni0 O4 2.323690 1_554
Ni1 O10 1.957408 1_555
Ni1 O14 1.957408 1_555
Ni1 O8 1.961252 1_555
Ni1 O15 1.961252 1_555
Ni1 O11 2.104449 1_555
Ni1 O13 2.323690 1_555
Ni2 O5 1.963655 1_555
Ni2 O13 1.964140 1_655
Ni2 O6 1.980207 1_555
Ni2 O1 1.980710 1_565
Ni2 O3 2.106484 1_555
Ni2 O8 2.196078 1_555
Ni3 O7 2.027611 1_555
Ni3 O3 2.027611 1_555
Ni3 O1 2.046446 1_555
Ni3 O6 2.047434 1_555
Ni3 O15 2.096928 1_655
Ni3 O8 2.096928 1_545
Ni4 O5 1.963655 1_555
Ni4 O13 1.964140 1_545
Ni4 O6 1.980207 1_555
Ni4 O1 1.980710 1_455
Ni4 O7 2.106484 1_555
Ni4 O15 2.196078 1_555
Ni5 O11 1.963655 1_555
Ni5 O4 1.964140 1_565
Ni5 O12 1.980207 1_555
Ni5 O0 1.980710 1_655
Ni5 O10 2.106484 1_555
Ni5 O2 2.196078 1_555
Ni6 O14 2.027611 1_555
Ni6 O10 2.027611 1_555
Ni6 O0 2.046446 1_555
Ni6 O12 2.047434 1_555
Ni6 O9 2.096928 1_565
Ni6 O2 2.096928 1_455
Ni7 O11 1.963655 1_555
Ni7 O4 1.964140 1_455
Ni7 O12 1.980207 1_555
Ni7 O0 1.980710 1_545
Ni7 O14 2.106484 1_555
Ni7 O9 2.196078 1_555
