# generated using pymatgen
data_Li8PtO6
_symmetry_space_group_name_H-M   'P 1'
_cell_length_a   5.86865755
_cell_length_b   5.86865841
_cell_length_c   5.86865822
_cell_angle_alpha   54.70043012
_cell_angle_beta   54.70042739
_cell_angle_gamma   54.70043809
_symmetry_Int_Tables_number   1
_chemical_formula_structural   Li8PtO6
_chemical_formula_sum   'Li8 Pt1 O6'
_cell_volume   125.27838741
_cell_formula_units_Z   1
loop_
 _symmetry_equiv_pos_site_id
 _symmetry_equiv_pos_as_xyz
  1  'x, y, z'
loop_
 _atom_site_type_symbol
 _atom_site_label
 _atom_site_symmetry_multiplicity
 _atom_site_fract_x
 _atom_site_fract_y
 _atom_site_fract_z
 _atom_site_occupancy
  Li  Li0  1  0.34290836  0.34290836  0.34290836  1
  Li  Li1  1  0.51389266  0.90051792  0.23327185  1
  Li  Li2  1  0.23327185  0.51389266  0.90051792  1
  Li  Li3  1  0.90051792  0.23327185  0.51389266  1
  Li  Li4  1  0.48610734  0.09948208  0.76672815  1
  Li  Li5  1  0.76672815  0.48610734  0.09948208  1
  Li  Li6  1  0.65709164  0.65709164  0.65709164  1
  Li  Li7  1  0.09948208  0.76672815  0.48610734  1
  Pt  Pt0  1  -0.00000000  0.00000000  -0.00000000  1
  O  O0  1  0.23732484  0.90679732  0.61442716  1
  O  O1  1  0.09320268  0.38557284  0.76267516  1
  O  O2  1  0.76267516  0.09320268  0.38557284  1
  O  O3  1  0.61442716  0.23732484  0.90679732  1
  O  O4  1  0.90679732  0.61442716  0.23732484  1
  O  O5  1  0.38557284  0.76267516  0.09320268  1
loop_
_geom_bond_atom_site_label_1
_geom_bond_atom_site_label_2
_geom_bond_distance
_geom_bond_site_symmetry_2
Li0 O1 2.096549 1_555
Li0 O2 2.096549 1_555
Li0 O5 2.096549 1_555
Li0 O0 2.334942 1_545
Li0 O4 2.334942 1_455
Li0 O3 2.334942 1_554
Li1 O0 1.862675 1_555
Li1 O3 1.894881 1_564
Li1 O4 1.918166 1_555
Li1 O5 2.021188 1_555
Li2 O3 1.862676 1_555
Li2 O4 1.894881 1_456
Li2 O0 1.918166 1_555
Li2 O1 2.021188 1_555
Li3 O4 1.862676 1_555
Li3 O0 1.894881 1_645
Li3 O3 1.918166 1_555
Li3 O2 2.021188 1_555
Li4 O2 1.862675 1_555
Li4 O5 1.894881 1_546
Li4 O1 1.918166 1_555
Li4 O3 2.021188 1_555
Li5 O5 1.862676 1_555
Li5 O1 1.894881 1_654
Li5 O2 1.918166 1_555
Li5 O4 2.021188 1_555
Li6 O4 2.096549 1_555
Li6 O0 2.096549 1_555
Li6 O3 2.096549 1_555
Li6 O2 2.334942 1_565
Li6 O1 2.334942 1_655
Li6 O5 2.334942 1_556
Li7 O1 1.862676 1_555
Li7 O2 1.894881 1_465
Li7 O5 1.918166 1_555
Li7 O0 2.021188 1_555
O0 Pt0 2.065659 1_566
O1 Pt0 2.065659 1_556
O2 Pt0 2.065659 1_655
O3 Pt0 2.065659 1_656
O4 Pt0 2.065659 1_665
O5 Pt0 2.065659 1_565
