# generated using pymatgen
data_Li2NdIn
_symmetry_space_group_name_H-M   'P 1'
_cell_length_a   4.93883567
_cell_length_b   4.93883503
_cell_length_c   4.93883494
_cell_angle_alpha   59.99731040
_cell_angle_beta   59.99730675
_cell_angle_gamma   59.99731741
_symmetry_Int_Tables_number   1
_chemical_formula_structural   Li2NdIn
_chemical_formula_sum   'Li2 Nd1 In1'
_cell_volume   85.17892149
_cell_formula_units_Z   1
loop_
 _symmetry_equiv_pos_site_id
 _symmetry_equiv_pos_as_xyz
  1  'x, y, z'
loop_
 _atom_site_type_symbol
 _atom_site_label
 _atom_site_symmetry_multiplicity
 _atom_site_fract_x
 _atom_site_fract_y
 _atom_site_fract_z
 _atom_site_occupancy
  Li  Li0  1  -0.00000040  -0.00000040  -0.00000042  1
  Li  Li1  1  0.49999975  0.49999977  0.49999977  1
  Nd  Nd0  1  0.75000073  0.75000071  0.75000074  1
  In  In0  1  0.25000091  0.25000092  0.25000091  1
loop_
_geom_bond_atom_site_label_1
_geom_bond_atom_site_label_2
_geom_bond_distance
_geom_bond_site_symmetry_2
Li0 Nd0 3.024308 1_445
Li0 Nd0 3.024309 1_454
Li0 Nd0 3.024309 1_544
Li0 Nd0 3.024454 1_444
Li1 Nd0 3.024300 1_554
Li1 Nd0 3.024300 1_545
Li1 Nd0 3.024300 1_455
Li1 Nd0 3.024480 1_555
In0 Li0 3.024298 1_556
In0 Li0 3.024299 1_565
In0 Li0 3.024299 1_655
In0 Li1 3.024308 1_554
In0 Li1 3.024309 1_545
In0 Li1 3.024309 1_455
In0 Li1 3.024454 1_555
In0 Li0 3.024484 1_555
