# generated using pymatgen
data_Li21(Co4O9)2
_symmetry_space_group_name_H-M   'P 1'
_cell_length_a   7.69332300
_cell_length_b   7.80032120
_cell_length_c   9.73403257
_cell_angle_alpha   75.33991602
_cell_angle_beta   77.53072972
_cell_angle_gamma   60.65295859
_symmetry_Int_Tables_number   1
_chemical_formula_structural   Li21(Co4O9)2
_chemical_formula_sum   'Li21 Co8 O18'
_cell_volume   489.66913884
_cell_formula_units_Z   1
loop_
 _symmetry_equiv_pos_site_id
 _symmetry_equiv_pos_as_xyz
  1  'x, y, z'
loop_
 _atom_site_type_symbol
 _atom_site_label
 _atom_site_symmetry_multiplicity
 _atom_site_fract_x
 _atom_site_fract_y
 _atom_site_fract_z
 _atom_site_occupancy
  Li  Li0  1  0.03007400  0.16197300  0.13220200  1
  Li  Li1  1  0.89436400  0.61477300  0.09534000  1
  Li  Li2  1  0.41837200  0.91964000  0.13370500  1
  Li  Li3  1  0.26059800  0.33527600  0.15800200  1
  Li  Li4  1  0.17496700  0.86917100  0.34599700  1
  Li  Li5  1  0.15534500  0.71376800  0.15169200  1
  Li  Li6  1  0.52858800  0.62342600  0.39297500  1
  Li  Li7  1  0.41693900  0.07706200  0.38012500  1
  Li  Li8  1  0.30109600  0.46668300  0.37695200  1
  Li  Li9  1  0.67772000  0.18619400  0.38468000  1
  Li  Li10  1  0.33274600  0.82128700  0.60488700  1
  Li  Li11  1  0.70536200  0.53869900  0.62253300  1
  Li  Li12  1  0.58738700  0.93121800  0.62345600  1
  Li  Li13  1  0.47034000  0.37866600  0.61009100  1
  Li  Li14  1  0.84606000  0.12446600  0.63075900  1
  Li  Li15  1  0.84491600  0.31482600  0.85339000  1
  Li  Li16  1  0.73362000  0.67761200  0.84664300  1
  Li  Li17  1  0.49377300  0.11546000  0.88863300  1
  Li  Li18  1  0.78891500  0.05387100  0.85531100  1
  Li  Li19  1  0.09478900  0.38507400  0.90523200  1
  Li  Li20  1  0.02957000  0.78616300  0.84365700  1
  Co  Co0  1  0.03029700  0.66833400  0.62363100  1
  Co  Co1  1  0.83807600  0.75272300  0.36938800  1
  Co  Co2  1  0.17922300  0.23576400  0.63413600  1
  Co  Co3  1  0.27144400  0.96491600  0.85293600  1
  Co  Co4  1  0.58151600  0.47550500  0.11825300  1
  Co  Co5  1  0.71652700  0.03676300  0.14429800  1
  Co  Co6  1  0.98109600  0.31112700  0.37401600  1
  Co  Co7  1  0.40822200  0.53127600  0.87814500  1
  O  O0  1  0.71064500  0.90464900  0.01990700  1
  O  O1  1  0.39279800  0.68016800  0.22371500  1
  O  O2  1  0.20034500  0.11518700  0.28551900  1
  O  O3  1  0.51524100  0.25871100  0.22478700  1
  O  O4  1  0.04962600  0.53251900  0.28874300  1
  O  O5  1  0.92259800  0.95781700  0.26356700  1
  O  O6  1  0.73916200  0.34661400  0.47504900  1
  O  O7  1  0.59502500  0.79500500  0.46882100  1
  O  O8  1  0.41841300  0.20637700  0.52961800  1
  O  O9  1  0.26548300  0.66181200  0.52515400  1
  O  O10  1  0.03593300  0.05295300  0.76669000  1
  O  O11  1  0.94544200  0.47101700  0.71237700  1
  O  O12  1  0.48434500  0.73360300  0.77388000  1
  O  O13  1  0.81503300  0.88083600  0.71478000  1
  O  O14  1  0.59669600  0.31241800  0.79156800  1
  O  O15  1  0.26147800  0.10641700  0.98169700  1
  O  O16  1  0.83578300  0.43585600  0.01887100  1
  O  O17  1  0.17044000  0.56219300  0.98492800  1
loop_
_geom_bond_atom_site_label_1
_geom_bond_atom_site_label_2
_geom_bond_distance
_geom_bond_site_symmetry_2
Li0 O15 1.985523 1_554
Li0 O2 2.043607 1_555
Li0 O16 2.098663 1_455
Li0 O5 2.158274 1_445
Li1 O16 1.998026 1_555
Li1 O0 2.030947 1_555
Li1 O17 2.053764 1_654
Li1 O4 2.234068 1_655
Li2 O15 1.930097 1_564
Li2 O1 1.937273 1_555
Li2 O2 2.210570 1_565
Li2 O0 2.242529 1_555
Li3 O3 1.955449 1_555
Li3 O2 2.038585 1_555
Li3 O17 2.060136 1_554
Li3 O4 2.067003 1_555
Li4 O2 1.952703 1_565
Li4 O5 1.991869 1_455
Li4 O1 2.000969 1_555
Li4 O9 2.033469 1_555
Li5 O1 1.971839 1_555
Li5 O4 2.035666 1_555
Li5 O17 2.191332 1_554
Li5 O5 2.209561 1_455
Li6 O1 1.980582 1_555
Li6 O7 1.982719 1_555
Li6 O6 2.044992 1_555
Li6 O9 2.078114 1_555
Li7 O2 1.936864 1_555
Li7 O8 1.973937 1_555
Li7 O7 2.014392 1_545
Li7 O3 2.082795 1_555
Li8 O4 2.064970 1_555
Li8 O8 2.097938 1_555
Li8 O1 2.221610 1_555
Li8 O9 2.237149 1_555
Li8 O3 2.254454 1_555
Li9 O6 1.969657 1_555
Li9 O3 2.001576 1_555
Li9 O8 2.141066 1_555
Li9 O5 2.219639 1_545
Li10 O9 1.926309 1_555
Li10 O12 2.002777 1_555
Li10 O7 2.108470 1_555
Li10 O10 2.608303 1_565
Li11 O11 1.990738 1_555
Li11 O7 2.080193 1_555
Li11 O12 2.211562 1_555
Li11 O6 2.217939 1_555
Li11 O14 2.429817 1_555
Li12 O13 1.957741 1_555
Li12 O8 1.979016 1_565
Li12 O7 2.026867 1_555
Li12 O12 2.168543 1_555
Li13 O8 1.942556 1_555
Li13 O14 2.029691 1_555
Li13 O9 2.066870 1_555
Li13 O6 2.133815 1_555
Li14 O6 1.946367 1_555
Li14 O10 1.964194 1_655
Li14 O13 1.977622 1_545
Li14 O14 2.321199 1_555
Li15 O11 1.893477 1_555
Li15 O16 2.036350 1_556
Li15 O10 2.106904 1_655
Li15 O14 2.132213 1_555
Li16 O12 1.994787 1_555
Li16 O13 2.036875 1_555
Li16 O16 2.121421 1_556
Li16 O11 2.129068 1_555
Li17 O15 1.847031 1_555
Li17 O14 2.003650 1_555
Li17 O0 2.070857 1_546
Li18 O14 1.865115 1_555
Li18 O0 1.900230 1_546
Li18 O10 1.907234 1_655
Li18 O13 2.069640 1_545
Li19 O15 1.945298 1_555
Li19 O16 1.961457 1_456
Li19 O17 2.091641 1_555
Li19 O11 2.198425 1_455
Li20 O17 1.920766 1_555
Li20 O13 2.018351 1_455
Li20 O10 2.046777 1_565
Co0 O9 1.838677 1_555
Co0 O11 1.899923 1_455
Co0 O13 1.922651 1_455
Co1 O7 1.821411 1_555
Co1 O4 1.898956 1_655
Co1 O5 1.984828 1_555
Co2 O8 1.835742 1_555
Co2 O11 2.015702 1_455
Co2 O10 2.215581 1_555
Co3 O15 1.835989 1_565
Co3 O10 1.898597 1_565
Co3 O12 1.947364 1_555
Co4 O16 1.897180 1_555
Co4 O1 1.903780 1_555
Co4 O3 1.980969 1_555
Co5 O0 1.797528 1_545
Co5 O3 1.882533 1_555
Co5 O5 1.927812 1_545
Co6 O6 1.830431 1_555
Co6 O2 1.853425 1_655
Co6 O4 1.981701 1_655
Co7 O17 1.832587 1_555
Co7 O14 1.871172 1_555
Co7 O12 1.924143 1_555
