# generated using pymatgen
data_Na6Cr2B4SO16
_symmetry_space_group_name_H-M   'P 1'
_cell_length_a   9.93031772
_cell_length_b   9.93031772
_cell_length_c   9.93031772
_cell_angle_alpha   60.00000000
_cell_angle_beta   60.00000000
_cell_angle_gamma   60.00000000
_symmetry_Int_Tables_number   1
_chemical_formula_structural   Na6Cr2B4SO16
_chemical_formula_sum   'Na12 Cr4 B8 S2 O32'
_cell_volume   692.42770163
_cell_formula_units_Z   2
loop_
 _symmetry_equiv_pos_site_id
 _symmetry_equiv_pos_as_xyz
  1  'x, y, z'
loop_
 _atom_site_type_symbol
 _atom_site_label
 _atom_site_symmetry_multiplicity
 _atom_site_fract_x
 _atom_site_fract_y
 _atom_site_fract_z
 _atom_site_occupancy
  Na  Na0  1  0.96866700  0.96866700  0.53133300  1
  Na  Na1  1  0.71866700  0.28133300  0.28133300  1
  Na  Na2  1  0.96866700  0.53133300  0.96866700  1
  Na  Na3  1  0.53133300  0.96866700  0.53133300  1
  Na  Na4  1  0.28133300  0.71866700  0.71866700  1
  Na  Na5  1  0.71866700  0.71866700  0.28133300  1
  Na  Na6  1  0.96866700  0.53133300  0.53133300  1
  Na  Na7  1  0.53133300  0.53133300  0.96866700  1
  Na  Na8  1  0.28133300  0.71866700  0.28133300  1
  Na  Na9  1  0.71866700  0.28133300  0.71866700  1
  Na  Na10  1  0.53133300  0.96866700  0.96866700  1
  Na  Na11  1  0.28133300  0.28133300  0.71866700  1
  Cr  Cr0  1  0.12500000  0.62500000  0.12500000  1
  Cr  Cr1  1  0.12500000  0.12500000  0.62500000  1
  Cr  Cr2  1  0.12500000  0.12500000  0.12500000  1
  Cr  Cr3  1  0.62500000  0.12500000  0.12500000  1
  B  B0  1  0.33688700  0.98933800  0.33688700  1
  B  B1  1  0.33688700  0.33688700  0.98933800  1
  B  B2  1  0.98933800  0.33688700  0.33688700  1
  B  B3  1  0.33688700  0.33688700  0.33688700  1
  B  B4  1  0.91311300  0.91311300  0.91311300  1
  B  B5  1  0.26066200  0.91311300  0.91311300  1
  B  B6  1  0.91311300  0.91311300  0.26066200  1
  B  B7  1  0.91311300  0.26066200  0.91311300  1
  S  S0  1  0.75000000  0.75000000  0.75000000  1
  S  S1  1  0.50000000  0.50000000  0.50000000  1
  O  O0  1  0.94587700  0.02899100  0.26686500  1
  O  O1  1  0.75826700  0.26686500  0.02899100  1
  O  O2  1  0.22100900  0.98313500  0.30412300  1
  O  O3  1  0.30412300  0.98313500  0.49173300  1
  O  O4  1  0.68841800  0.68841800  0.68841800  1
  O  O5  1  0.98313500  0.30412300  0.22100900  1
  O  O6  1  0.98313500  0.22100900  0.49173300  1
  O  O7  1  0.93474600  0.68841800  0.68841800  1
  O  O8  1  0.68841800  0.68841800  0.93474600  1
  O  O9  1  0.49173300  0.30412300  0.98313500  1
  O  O10  1  0.22100900  0.49173300  0.98313500  1
  O  O11  1  0.68841800  0.93474600  0.68841800  1
  O  O12  1  0.49173300  0.22100900  0.30412300  1
  O  O13  1  0.98313500  0.49173300  0.30412300  1
  O  O14  1  0.22100900  0.30412300  0.49173300  1
  O  O15  1  0.94587700  0.75826700  0.02899100  1
  O  O16  1  0.30412300  0.49173300  0.22100900  1
  O  O17  1  0.02899100  0.94587700  0.75826700  1
  O  O18  1  0.26686500  0.75826700  0.94587700  1
  O  O19  1  0.75826700  0.02899100  0.94587700  1
  O  O20  1  0.56158200  0.31525400  0.56158200  1
  O  O21  1  0.02899100  0.75826700  0.26686500  1
  O  O22  1  0.75826700  0.94587700  0.26686500  1
  O  O23  1  0.31525400  0.56158200  0.56158200  1
  O  O24  1  0.56158200  0.56158200  0.31525400  1
  O  O25  1  0.26686500  0.02899100  0.75826700  1
  O  O26  1  0.26686500  0.94587700  0.02899100  1
  O  O27  1  0.56158200  0.56158200  0.56158200  1
  O  O28  1  0.94587700  0.26686500  0.75826700  1
  O  O29  1  0.02899100  0.26686500  0.94587700  1
  O  O30  1  0.49173300  0.98313500  0.22100900  1
  O  O31  1  0.30412300  0.22100900  0.98313500  1
loop_
_geom_bond_atom_site_label_1
_geom_bond_atom_site_label_2
_geom_bond_distance
_geom_bond_site_symmetry_2
Na0 O6 2.402628 1_565
Na0 O2 2.402628 1_655
Na0 O17 2.488538 1_655
Na0 O0 2.488538 1_565
Na0 O11 2.522394 1_555
Na0 O7 2.522394 1_555
Na1 O1 2.402628 1_555
Na1 O0 2.402628 1_555
Na1 O12 2.488538 1_555
Na1 O5 2.488538 1_555
Na1 O24 2.522394 1_555
Na1 O20 2.522394 1_555
Na2 O5 2.402628 1_556
Na2 O10 2.402628 1_655
Na2 O15 2.488538 1_556
Na2 O29 2.488538 1_655
Na2 O8 2.522394 1_555
Na2 O7 2.522394 1_555
Na3 O12 2.402628 1_565
Na3 O3 2.402628 1_555
Na3 O25 2.488538 1_565
Na3 O22 2.488538 1_555
Na3 O11 2.522394 1_555
Na3 O4 2.522394 1_555
Na4 O17 2.402628 1_555
Na4 O18 2.402628 1_555
Na4 O3 2.488538 1_555
Na4 O10 2.488538 1_555
Na4 O23 2.522394 1_555
Na4 O27 2.522394 1_555
Na5 O15 2.402628 1_555
Na5 O22 2.402628 1_555
Na5 O30 2.488538 1_555
Na5 O13 2.488538 1_555
Na5 O24 2.522394 1_555
Na5 O27 2.522394 1_555
Na6 O13 2.402628 1_555
Na6 O14 2.402628 1_655
Na6 O28 2.488538 1_555
Na6 O21 2.488538 1_655
Na6 O7 2.522394 1_555
Na6 O4 2.522394 1_555
Na7 O16 2.402628 1_556
Na7 O9 2.402628 1_555
Na7 O1 2.488538 1_556
Na7 O18 2.488538 1_555
Na7 O8 2.522394 1_555
Na7 O4 2.522394 1_555
Na8 O21 2.402628 1_555
Na8 O26 2.402628 1_555
Na8 O16 2.488538 1_555
Na8 O2 2.488538 1_555
Na8 O23 2.522394 1_555
Na8 O24 2.522394 1_555
Na9 O19 2.402628 1_555
Na9 O28 2.402628 1_555
Na9 O6 2.488538 1_555
Na9 O9 2.488538 1_555
Na9 O20 2.522394 1_555
Na9 O27 2.522394 1_555
Na10 O30 2.402628 1_556
Na10 O31 2.402628 1_565
Na10 O19 2.488538 1_565
Na10 O26 2.488538 1_556
Na10 O8 2.522394 1_555
Na10 O11 2.522394 1_555
Na11 O25 2.402628 1_555
Na11 O29 2.402628 1_555
Na11 O14 2.488538 1_555
Na11 O31 2.488538 1_555
Na11 O23 2.522394 1_555
Na11 O20 2.522394 1_555
Cr0 O16 1.975965 1_555
Cr0 O15 1.975965 1_455
Cr0 O21 1.975965 1_555
Cr0 O18 1.975965 1_554
Cr0 O13 1.975965 1_455
Cr0 O10 1.975965 1_554
Cr1 O14 1.975965 1_555
Cr1 O3 1.975965 1_545
Cr1 O28 1.975965 1_455
Cr1 O6 1.975965 1_455
Cr1 O17 1.975965 1_545
Cr1 O25 1.975965 1_555
Cr2 O31 1.975965 1_554
Cr2 O2 1.975965 1_545
Cr2 O5 1.975965 1_455
Cr2 O0 1.975965 1_455
Cr2 O26 1.975965 1_545
Cr2 O29 1.975965 1_554
Cr3 O12 1.975965 1_555
Cr3 O22 1.975965 1_545
Cr3 O9 1.975965 1_554
Cr3 O19 1.975965 1_554
Cr3 O30 1.975965 1_545
Cr3 O1 1.975965 1_555
B0 O2 1.378073 1_555
B0 O30 1.378080 1_555
B0 O3 1.378083 1_555
B1 O31 1.378073 1_555
B1 O10 1.378080 1_555
B1 O9 1.378083 1_555
B2 O5 1.378073 1_555
B2 O6 1.378080 1_555
B2 O13 1.378083 1_555
B3 O14 1.378079 1_555
B3 O12 1.378079 1_555
B3 O16 1.378079 1_555
B4 O17 1.378079 1_655
B4 O15 1.378079 1_556
B4 O19 1.378079 1_565
B5 O26 1.378073 1_556
B5 O25 1.378080 1_565
B5 O18 1.378083 1_555
B6 O0 1.378073 1_565
B6 O21 1.378080 1_655
B6 O22 1.378083 1_555
B7 O29 1.378073 1_655
B7 O1 1.378080 1_556
B7 O28 1.378083 1_555
O4 S0 1.497934 1_555
O7 S0 1.497934 1_555
O8 S0 1.497934 1_555
O11 S0 1.497934 1_555
O20 S1 1.497934 1_555
O23 S1 1.497934 1_555
O24 S1 1.497934 1_555
O27 S1 1.497934 1_555
