# generated using pymatgen
data_Ca2SiO4
_symmetry_space_group_name_H-M   'P 1'
_cell_length_a   3.61022400
_cell_length_b   3.61022400
_cell_length_c   6.39333868
_cell_angle_alpha   106.40006953
_cell_angle_beta   106.40006953
_cell_angle_gamma   90.00000000
_symmetry_Int_Tables_number   1
_chemical_formula_structural   Ca2SiO4
_chemical_formula_sum   'Ca2 Si1 O4'
_cell_volume   76.39795526
_cell_formula_units_Z   1
loop_
 _symmetry_equiv_pos_site_id
 _symmetry_equiv_pos_as_xyz
  1  'x, y, z'
loop_
 _atom_site_type_symbol
 _atom_site_label
 _atom_site_symmetry_multiplicity
 _atom_site_fract_x
 _atom_site_fract_y
 _atom_site_fract_z
 _atom_site_occupancy
  Ca  Ca0  1  0.64624700  0.64624700  0.29249400  1
  Ca  Ca1  1  0.35375400  0.35375400  0.70750800  1
  Si  Si0  1  0.00000000  0.00000000  0.00000000  1
  O  O0  1  0.50000000  0.00000000  0.00000000  1
  O  O1  1  0.00000000  0.50000000  0.00000000  1
  O  O2  1  0.84463100  0.84463100  0.68926200  1
  O  O3  1  0.15536900  0.15536900  0.31073800  1
loop_
_geom_bond_atom_site_label_1
_geom_bond_atom_site_label_2
_geom_bond_distance
_geom_bond_site_symmetry_2
Ca0 O2 2.325681 1_555
Ca0 O0 2.489547 1_565
Ca0 O1 2.489547 1_655
Ca0 O1 2.489547 1_555
Ca0 O0 2.489547 1_555
Ca0 O3 2.555053 1_665
Ca0 O3 2.555053 1_655
Ca0 O3 2.555053 1_565
Ca0 O3 2.555053 1_555
Ca1 O3 2.325692 1_555
Ca1 O1 2.489539 1_556
Ca1 O0 2.489539 1_556
Ca1 O1 2.489539 1_656
Ca1 O0 2.489539 1_566
Ca1 O2 2.555053 1_445
Ca1 O2 2.555053 1_545
Ca1 O2 2.555053 1_455
Ca1 O2 2.555053 1_555
O0 Si0 1.805112 1_555
O0 Si0 1.805112 1_655
O1 Si0 1.805112 1_565
O1 Si0 1.805112 1_555
O2 Si0 1.821410 1_666
O3 Si0 1.821410 1_555
