# generated using pymatgen
data_V4O5F7
_symmetry_space_group_name_H-M   'P 1'
_cell_length_a   5.28490000
_cell_length_b   5.34791515
_cell_length_c   9.04865337
_cell_angle_alpha   105.65414800
_cell_angle_beta   90.33468438
_cell_angle_gamma   119.54846909
_symmetry_Int_Tables_number   1
_chemical_formula_structural   V4O5F7
_chemical_formula_sum   'V4 O5 F7'
_cell_volume   211.26311137
_cell_formula_units_Z   1
loop_
 _symmetry_equiv_pos_site_id
 _symmetry_equiv_pos_as_xyz
  1  'x, y, z'
loop_
 _atom_site_type_symbol
 _atom_site_label
 _atom_site_symmetry_multiplicity
 _atom_site_fract_x
 _atom_site_fract_y
 _atom_site_fract_z
 _atom_site_occupancy
  V  V0  1  0.73999800  0.99616500  0.73876600  1
  V  V1  1  0.53552200  0.04215900  0.48837900  1
  V  V2  1  0.21854300  0.00836900  0.25558500  1
  V  V3  1  0.98545700  0.02735000  0.98429800  1
  O  O0  1  0.28839600  0.48092300  0.88182900  1
  O  O1  1  0.76865400  0.92817300  0.91407500  1
  O  O2  1  0.92237300  0.06915300  0.33732100  1
  O  O3  1  0.80441300  0.48792800  0.37674900  1
  O  O4  1  0.72374600  0.06140800  0.59719300  1
  F  F0  1  0.25411000  0.90599900  0.41615700  1
  F  F1  1  0.40439500  0.07380500  0.84315500  1
  F  F2  1  0.20684900  0.50492900  0.62446700  1
  F  F3  1  0.07609700  0.90627500  0.67010600  1
  F  F4  1  0.25868100  0.07944100  0.08232600  1
  F  F5  1  0.72173000  0.51181300  0.12285900  1
  F  F6  1  0.59103600  0.91611200  0.16673500  1
loop_
_geom_bond_atom_site_label_1
_geom_bond_atom_site_label_2
_geom_bond_distance
_geom_bond_site_symmetry_2
O0 V3 2.589886 1_455
O0 V0 2.744206 1_445
O1 V3 1.099142 1_565
O1 V0 1.741930 1_555
O2 V2 1.867684 1_655
O3 V1 2.588006 1_555
O3 V2 2.824362 1_555
O4 V1 1.342553 1_555
O4 V0 1.428174 1_545
F0 V1 1.353835 1_565
F0 V2 1.724449 1_565
F1 V0 2.178225 1_545
F1 V3 2.501315 1_455
F2 V0 2.666290 1_555
F3 V0 2.113307 1_455
F4 V3 1.550603 1_454
F4 V2 1.700963 1_555
F5 V2 2.598673 1_665
F6 O2 1.997962 1_565
F6 V2 2.351073 1_565
F6 V3 2.602154 1_564
