# generated using pymatgen
data_LiCr(Si2O5)3
_symmetry_space_group_name_H-M   'P 1'
_cell_length_a   9.97292547
_cell_length_b   9.97292547
_cell_length_c   14.23242200
_cell_angle_alpha   90.00000000
_cell_angle_beta   90.00000000
_cell_angle_gamma   120.03082850
_symmetry_Int_Tables_number   1
_chemical_formula_structural   LiCr(Si2O5)3
_chemical_formula_sum   'Li4 Cr4 Si24 O60'
_cell_volume   1225.51771759
_cell_formula_units_Z   4
loop_
 _symmetry_equiv_pos_site_id
 _symmetry_equiv_pos_as_xyz
  1  'x, y, z'
loop_
 _atom_site_type_symbol
 _atom_site_label
 _atom_site_symmetry_multiplicity
 _atom_site_fract_x
 _atom_site_fract_y
 _atom_site_fract_z
 _atom_site_occupancy
  Li  Li0  1  0.00000000  0.00000000  0.75000500  1
  Li  Li1  1  0.00000000  0.50000000  0.74994100  1
  Li  Li2  1  0.00000000  0.00000000  0.25000500  1
  Li  Li3  1  0.50000000  0.00000000  0.24994100  1
  Cr  Cr0  1  0.16176300  0.82390500  0.24996900  1
  Cr  Cr1  1  0.82390500  0.16176300  0.74996900  1
  Cr  Cr2  1  0.83823700  0.17609500  0.24996900  1
  Cr  Cr3  1  0.17609500  0.83823700  0.74996900  1
  Si  Si0  1  0.26677300  0.62765100  0.88883200  1
  Si  Si1  1  0.73499200  0.86336600  0.38833700  1
  Si  Si2  1  0.73326600  0.86112700  0.61066400  1
  Si  Si3  1  0.26644500  0.62726800  0.11057700  1
  Si  Si4  1  0.37273200  0.73355500  0.61057700  1
  Si  Si5  1  0.62741600  0.86098000  0.88989000  1
  Si  Si6  1  0.62844500  0.86347500  0.11179400  1
  Si  Si7  1  0.37234900  0.73322700  0.38883200  1
  Si  Si8  1  0.86347500  0.62844500  0.61179400  1
  Si  Si9  1  0.13663400  0.26500800  0.88833700  1
  Si  Si10  1  0.13887300  0.26673400  0.11066400  1
  Si  Si11  1  0.86098000  0.62741600  0.38989000  1
  Si  Si12  1  0.13652500  0.37155500  0.61179400  1
  Si  Si13  1  0.13902000  0.37258400  0.38989000  1
  Si  Si14  1  0.86336600  0.73499200  0.88833700  1
  Si  Si15  1  0.86112700  0.73326600  0.11066400  1
  Si  Si16  1  0.37258400  0.13902000  0.88989000  1
  Si  Si17  1  0.62765100  0.26677300  0.38883200  1
  Si  Si18  1  0.62726800  0.26644500  0.61057700  1
  Si  Si19  1  0.37155500  0.13652500  0.11179400  1
  Si  Si20  1  0.73322700  0.37234900  0.88883200  1
  Si  Si21  1  0.26673400  0.13887300  0.61066400  1
  Si  Si22  1  0.73355500  0.37273200  0.11057700  1
  Si  Si23  1  0.26500800  0.13663400  0.38833700  1
  O  O0  1  0.26438200  0.55153100  0.63657300  1
  O  O1  1  0.73551500  0.78722900  0.86369500  1
  O  O2  1  0.73429500  0.78588300  0.13552700  1
  O  O3  1  0.26435000  0.55064300  0.36355600  1
  O  O4  1  0.55077100  0.78589700  0.63656100  1
  O  O5  1  0.44935700  0.73565000  0.86355600  1
  O  O6  1  0.55155300  0.78539200  0.36400900  1
  O  O7  1  0.44846900  0.73561800  0.13657300  1
  O  O8  1  0.76448000  0.90716400  0.49983900  1
  O  O9  1  0.23548200  0.64181400  0.99979100  1
  O  O10  1  0.35818600  0.76451800  0.49979100  1
  O  O11  1  0.64167700  0.90735600  0.00045100  1
  O  O12  1  0.84088700  0.01239900  0.67551600  1
  O  O13  1  0.84063200  0.01307600  0.32303400  1
  O  O14  1  0.15888500  0.67154700  0.82468600  1
  O  O15  1  0.16308300  0.68189100  0.17184100  1
  O  O16  1  0.98692400  0.15936800  0.82303400  1
  O  O17  1  0.01356200  0.67308100  0.67680900  1
  O  O18  1  0.98760100  0.15911300  0.17551600  1
  O  O19  1  0.01859000  0.68213300  0.32813500  1
  O  O20  1  0.21277100  0.26448500  0.36369500  1
  O  O21  1  0.21411700  0.26570500  0.63552700  1
  O  O22  1  0.78539200  0.55155300  0.86400900  1
  O  O23  1  0.78589700  0.55077100  0.13656100  1
  O  O24  1  0.68213300  0.01859000  0.82813500  1
  O  O25  1  0.31810900  0.83691700  0.67184100  1
  O  O26  1  0.67308100  0.01356200  0.17680900  1
  O  O27  1  0.32845300  0.84111500  0.32468600  1
  O  O28  1  0.90735600  0.64167700  0.50045100  1
  O  O29  1  0.09283600  0.23552000  0.99983900  1
  O  O30  1  0.09264400  0.35832300  0.50045100  1
  O  O31  1  0.90716400  0.76448000  0.99983900  1
  O  O32  1  0.68189100  0.16308300  0.67184100  1
  O  O33  1  0.67154700  0.15888500  0.32468600  1
  O  O34  1  0.31786700  0.98141000  0.82813500  1
  O  O35  1  0.32691900  0.98643800  0.17680900  1
  O  O36  1  0.21460800  0.44844700  0.86400900  1
  O  O37  1  0.78588300  0.73429500  0.63552700  1
  O  O38  1  0.21410300  0.44922900  0.13656100  1
  O  O39  1  0.78722900  0.73551500  0.36369500  1
  O  O40  1  0.98643800  0.32691900  0.67680900  1
  O  O41  1  0.01307600  0.84063200  0.82303400  1
  O  O42  1  0.98141000  0.31786700  0.32813500  1
  O  O43  1  0.01239900  0.84088700  0.17551600  1
  O  O44  1  0.15911300  0.98760100  0.67551600  1
  O  O45  1  0.84111500  0.32845300  0.82468600  1
  O  O46  1  0.83691700  0.31810900  0.17184100  1
  O  O47  1  0.15936800  0.98692400  0.32303400  1
  O  O48  1  0.64181400  0.23548200  0.49979100  1
  O  O49  1  0.35832300  0.09264400  0.00045100  1
  O  O50  1  0.23552000  0.09283600  0.49983900  1
  O  O51  1  0.76451800  0.35818600  0.99979100  1
  O  O52  1  0.44844700  0.21460800  0.36400900  1
  O  O53  1  0.55064300  0.26435000  0.86355600  1
  O  O54  1  0.44922900  0.21410300  0.63656100  1
  O  O55  1  0.55153100  0.26438200  0.13657300  1
  O  O56  1  0.73565000  0.44935700  0.36355600  1
  O  O57  1  0.73561800  0.44846900  0.63657300  1
  O  O58  1  0.26448500  0.21277100  0.86369500  1
  O  O59  1  0.26570500  0.21411700  0.13552700  1
loop_
_geom_bond_atom_site_label_1
_geom_bond_atom_site_label_2
_geom_bond_distance
_geom_bond_site_symmetry_2
Li0 O41 1.957257 1_545
Li0 O16 1.957257 1_455
Li0 O12 1.963067 1_455
Li0 O44 1.963067 1_545
Li1 O40 1.961498 1_455
Li1 O17 1.961498 1_555
Li1 O14 1.963665 1_555
Li1 O45 1.963665 1_455
Li2 O13 1.957257 1_455
Li2 O47 1.957257 1_545
Li2 O43 1.963067 1_545
Li2 O18 1.963067 1_455
Li3 O35 1.961498 1_545
Li3 O26 1.961498 1_555
Li3 O33 1.963665 1_555
Li3 O27 1.963665 1_545
Cr0 O19 1.804097 1_555
Cr0 O15 1.805869 1_555
Cr0 O43 1.903403 1_555
Cr0 O27 1.907414 1_555
Cr0 O35 1.937060 1_555
Cr0 O47 1.940093 1_555
Cr1 O24 1.804097 1_555
Cr1 O32 1.805869 1_555
Cr1 O12 1.903403 1_555
Cr1 O45 1.907414 1_555
Cr1 O40 1.937060 1_555
Cr1 O16 1.940093 1_555
Cr2 O42 1.804097 1_555
Cr2 O46 1.805869 1_555
Cr2 O18 1.903403 1_555
Cr2 O33 1.907414 1_555
Cr2 O26 1.937060 1_555
Cr2 O13 1.940093 1_555
Cr3 O34 1.804097 1_555
Cr3 O25 1.805869 1_555
Cr3 O44 1.903403 1_555
Cr3 O14 1.907414 1_555
Cr3 O17 1.937060 1_555
Cr3 O41 1.940093 1_555
O0 Si4 1.623723 1_555
O0 Si12 1.637402 1_555
O1 Si5 1.623534 1_555
O1 Si14 1.638599 1_555
O2 Si6 1.626310 1_555
O2 Si15 1.632444 1_555
O3 Si13 1.623109 1_555
O3 Si7 1.625452 1_555
O4 Si4 1.623016 1_555
O4 Si2 1.626167 1_555
O5 Si5 1.623109 1_555
O5 Si0 1.625452 1_555
O6 Si1 1.627097 1_555
O6 Si7 1.630606 1_555
O7 Si3 1.623723 1_555
O7 Si6 1.637402 1_555
O8 Si2 1.628663 1_555
O8 Si1 1.633123 1_555
O9 Si3 1.627078 1_556
O9 Si0 1.629532 1_555
O10 Si4 1.627078 1_555
O10 Si7 1.629532 1_555
O11 Si5 1.626149 1_554
O11 Si6 1.631667 1_555
O12 Si2 1.630685 1_545
O13 Si1 1.621267 1_545
O14 Si0 1.629195 1_555
O15 Si3 1.637584 1_555
O16 Si9 1.621267 1_655
O17 Si8 1.621074 1_455
O18 Si10 1.630685 1_655
O19 Si11 1.637806 1_455
O20 Si13 1.623534 1_555
O20 Si23 1.638599 1_555
O21 Si12 1.626310 1_555
O21 Si21 1.632444 1_555
O22 Si14 1.627097 1_555
O22 Si20 1.630606 1_555
O23 Si22 1.623016 1_555
O23 Si15 1.626167 1_555
O24 Si5 1.637806 1_545
O25 Si4 1.637584 1_555
O26 Si6 1.621074 1_545
O27 Si7 1.629195 1_555
O28 Si11 1.626149 1_555
O28 Si8 1.631667 1_555
O29 Si10 1.628663 1_556
O29 Si9 1.633123 1_555
O30 Si13 1.626149 1_555
O30 Si12 1.631667 1_555
O31 Si15 1.628663 1_556
O31 Si14 1.633123 1_555
O32 Si18 1.637584 1_555
O33 Si17 1.629195 1_555
O34 Si16 1.637806 1_565
O35 Si19 1.621074 1_565
O36 Si9 1.627097 1_555
O36 Si0 1.630606 1_555
O37 Si8 1.626310 1_555
O37 Si2 1.632444 1_555
O38 Si3 1.623016 1_555
O38 Si10 1.626167 1_555
O39 Si11 1.623534 1_555
O39 Si1 1.638599 1_555
O40 Si12 1.621074 1_655
O41 Si14 1.621267 1_455
O42 Si13 1.637806 1_655
O43 Si15 1.630685 1_455
O44 Si21 1.630685 1_565
O45 Si20 1.629195 1_555
O46 Si22 1.637584 1_555
O47 Si23 1.621267 1_565
O48 Si18 1.627078 1_555
O48 Si17 1.629532 1_555
O49 Si16 1.626149 1_554
O49 Si19 1.631667 1_555
O50 Si21 1.628663 1_555
O50 Si23 1.633123 1_555
O51 Si22 1.627078 1_556
O51 Si20 1.629532 1_555
O52 Si23 1.627097 1_555
O52 Si17 1.630606 1_555
O53 Si16 1.623109 1_555
O53 Si20 1.625452 1_555
O54 Si18 1.623016 1_555
O54 Si21 1.626167 1_555
O55 Si22 1.623723 1_555
O55 Si19 1.637402 1_555
O56 Si11 1.623109 1_555
O56 Si17 1.625452 1_555
O57 Si18 1.623723 1_555
O57 Si8 1.637402 1_555
O58 Si16 1.623534 1_555
O58 Si9 1.638599 1_555
O59 Si19 1.626310 1_555
O59 Si10 1.632444 1_555
