# generated using pymatgen
data_VFe3
_symmetry_space_group_name_H-M   'P 1'
_cell_length_a   4.09226894
_cell_length_b   4.09244270
_cell_length_c   4.08774021
_cell_angle_alpha   60.03213894
_cell_angle_beta   60.03594946
_cell_angle_gamma   59.91264551
_symmetry_Int_Tables_number   1
_chemical_formula_structural   VFe3
_chemical_formula_sum   'V1 Fe3'
_cell_volume   48.40057517
_cell_formula_units_Z   1
loop_
 _symmetry_equiv_pos_site_id
 _symmetry_equiv_pos_as_xyz
  1  'x, y, z'
loop_
 _atom_site_type_symbol
 _atom_site_label
 _atom_site_symmetry_multiplicity
 _atom_site_fract_x
 _atom_site_fract_y
 _atom_site_fract_z
 _atom_site_occupancy
  V  V0  1  0.74999990  0.74999939  0.75000009  1
  Fe  Fe0  1  0.00004996  0.00004745  -0.00000289  1
  Fe  Fe1  1  0.49995088  0.49994900  0.50000099  1
  Fe  Fe2  1  0.24999826  0.25000115  0.25000181  1
loop_
_geom_bond_atom_site_label_1
_geom_bond_atom_site_label_2
_geom_bond_distance
_geom_bond_site_symmetry_2
Fe0 V0 2.504649 1_544
Fe0 V0 2.504666 1_454
Fe0 Fe2 2.504914 1_555
Fe0 Fe2 2.504982 1_545
Fe0 Fe2 2.504990 1_455
Fe0 Fe2 2.505045 1_554
Fe0 V0 2.505072 1_445
Fe0 V0 2.505544 1_444
Fe1 V0 2.504652 1_455
Fe1 V0 2.504658 1_545
Fe1 Fe2 2.504890 1_555
Fe1 Fe2 2.504975 1_655
Fe1 Fe2 2.505002 1_565
Fe1 Fe2 2.505063 1_556
Fe1 V0 2.505065 1_554
Fe1 V0 2.505555 1_555
Fe2 V0 2.890076 1_545
Fe2 V0 2.890076 1_454
Fe2 V0 2.890294 1_455
Fe2 V0 2.890314 1_544
Fe2 V0 2.897128 1_554
Fe2 V0 2.897129 1_445
