# generated using pymatgen
data_VOF
_symmetry_space_group_name_H-M   'P 1'
_cell_length_a   7.92228011
_cell_length_b   7.92228011
_cell_length_c   7.92228061
_cell_angle_alpha   24.30037762
_cell_angle_beta   24.30037762
_cell_angle_gamma   24.30038118
_symmetry_Int_Tables_number   1
_chemical_formula_structural   VOF
_chemical_formula_sum   'V2 O2 F2'
_cell_volume   74.01534133
_cell_formula_units_Z   2
loop_
 _symmetry_equiv_pos_site_id
 _symmetry_equiv_pos_as_xyz
  1  'x, y, z'
loop_
 _atom_site_type_symbol
 _atom_site_label
 _atom_site_symmetry_multiplicity
 _atom_site_fract_x
 _atom_site_fract_y
 _atom_site_fract_z
 _atom_site_occupancy
  V  V0  1  0.60831800  0.60831800  0.60831800  1
  V  V1  1  0.39168200  0.39168200  0.39168200  1
  O  O0  1  0.30041200  0.30041200  0.30041200  1
  O  O1  1  0.69958800  0.69958800  0.69958800  1
  F  F0  1  0.10571200  0.10571200  0.10571200  1
  F  F1  1  0.89428800  0.89428800  0.89428800  1
loop_
_geom_bond_atom_site_label_1
_geom_bond_atom_site_label_2
_geom_bond_distance
_geom_bond_site_symmetry_2
O0 V0 2.012657 1_554
O0 V0 2.012657 1_455
O0 V0 2.012657 1_545
O0 V1 2.104161 1_555
O1 V1 2.012657 1_556
O1 V1 2.012657 1_655
O1 V1 2.012657 1_565
O1 V0 2.104161 1_555
F0 V1 2.213471 1_455
F0 V1 2.213471 1_545
F0 V1 2.213471 1_554
F1 V0 2.213471 1_655
F1 V0 2.213471 1_565
F1 V0 2.213471 1_556
