# generated using pymatgen
data_LiNi4(PO4)3
_symmetry_space_group_name_H-M   'P 1'
_cell_length_a   8.53756422
_cell_length_b   8.53756422
_cell_length_c   6.51220682
_cell_angle_alpha   73.83337659
_cell_angle_beta   73.83337659
_cell_angle_gamma   94.82964612
_symmetry_Int_Tables_number   1
_chemical_formula_structural   LiNi4(PO4)3
_chemical_formula_sum   'Li2 Ni8 P6 O24'
_cell_volume   431.09487101
_cell_formula_units_Z   2
loop_
 _symmetry_equiv_pos_site_id
 _symmetry_equiv_pos_as_xyz
  1  'x, y, z'
loop_
 _atom_site_type_symbol
 _atom_site_label
 _atom_site_symmetry_multiplicity
 _atom_site_fract_x
 _atom_site_fract_y
 _atom_site_fract_z
 _atom_site_occupancy
  Li  Li0  1  0.00057300  0.99942700  0.75000000  1
  Li  Li1  1  0.99942700  0.00057300  0.25000000  1
  Ni  Ni0  1  0.94657300  0.62892800  0.62296400  1
  Ni  Ni1  1  0.62892800  0.94657300  0.12296400  1
  Ni  Ni2  1  0.50497500  0.49502500  0.75000000  1
  Ni  Ni3  1  0.26253600  0.73746400  0.75000000  1
  Ni  Ni4  1  0.73746400  0.26253600  0.25000000  1
  Ni  Ni5  1  0.49502500  0.50497500  0.25000000  1
  Ni  Ni6  1  0.37107200  0.05342700  0.87703600  1
  Ni  Ni7  1  0.05342700  0.37107200  0.37703600  1
  P  P0  1  0.66221300  0.88314000  0.62074700  1
  P  P1  1  0.88314000  0.66221300  0.12074700  1
  P  P2  1  0.70942700  0.29057300  0.75000000  1
  P  P3  1  0.29057300  0.70942700  0.25000000  1
  P  P4  1  0.11686000  0.33778700  0.87925300  1
  P  P5  1  0.33778700  0.11686000  0.37925300  1
  O  O0  1  0.83880500  0.84292500  0.60056600  1
  O  O1  1  0.60088600  0.95959400  0.81105000  1
  O  O2  1  0.84292500  0.83880500  0.10056600  1
  O  O3  1  0.95959400  0.60088600  0.31105000  1
  O  O4  1  0.32484800  0.99291800  0.61221500  1
  O  O5  1  0.72806500  0.47752000  0.74270300  1
  O  O6  1  0.52433000  0.72990500  0.67140100  1
  O  O7  1  0.74236000  0.18771300  0.96363500  1
  O  O8  1  0.81228700  0.25764000  0.53636500  1
  O  O9  1  0.99291800  0.32484800  0.11221500  1
  O  O10  1  0.47752000  0.72806500  0.24270300  1
  O  O11  1  0.72990500  0.52433000  0.17140100  1
  O  O12  1  0.27009500  0.47567000  0.82859900  1
  O  O13  1  0.52248000  0.27193500  0.75729700  1
  O  O14  1  0.00708200  0.67515200  0.88778500  1
  O  O15  1  0.18771300  0.74236000  0.46363500  1
  O  O16  1  0.25764000  0.81228700  0.03636500  1
  O  O17  1  0.47567000  0.27009500  0.32859900  1
  O  O18  1  0.27193500  0.52248000  0.25729700  1
  O  O19  1  0.67515200  0.00708200  0.38778500  1
  O  O20  1  0.04040600  0.39911400  0.68895000  1
  O  O21  1  0.15707500  0.16119500  0.89943400  1
  O  O22  1  0.39911400  0.04040600  0.18895000  1
  O  O23  1  0.16119500  0.15707500  0.39943400  1
loop_
_geom_bond_atom_site_label_1
_geom_bond_atom_site_label_2
_geom_bond_distance
_geom_bond_site_symmetry_2
Li0 O2 2.266876 1_456
Li0 O23 2.266876 1_565
Li0 O21 2.408634 1_565
Li0 O0 2.408634 1_455
Li1 O0 2.266876 1_545
Li1 O21 2.266876 1_654
Li1 O23 2.408634 1_655
Li1 O2 2.408634 1_545
Ni0 O5 1.995436 1_555
Ni0 O15 2.041588 1_655
Ni0 O14 2.058527 1_655
Ni0 O3 2.084511 1_555
Ni0 O0 2.101234 1_555
Ni0 O20 2.159384 1_655
Ni1 O10 1.995436 1_555
Ni1 O7 2.041588 1_564
Ni1 O19 2.058527 1_565
Ni1 O1 2.084511 1_554
Ni1 O2 2.101234 1_555
Ni1 O22 2.159384 1_565
Ni2 O6 1.906847 1_555
Ni2 O12 1.906847 1_555
Ni2 O5 1.911479 1_555
Ni2 O13 1.911479 1_555
Ni3 O4 2.072140 1_555
Ni3 O14 2.072140 1_555
Ni3 O16 2.124153 1_556
Ni3 O15 2.124153 1_555
Ni3 O12 2.160409 1_555
Ni3 O6 2.160409 1_555
Ni4 O9 2.072140 1_555
Ni4 O19 2.072140 1_555
Ni4 O8 2.124153 1_555
Ni4 O7 2.124153 1_554
Ni4 O17 2.160409 1_555
Ni4 O11 2.160409 1_555
Ni5 O11 1.906847 1_555
Ni5 O17 1.906847 1_555
Ni5 O10 1.911479 1_555
Ni5 O18 1.911479 1_555
Ni6 O13 1.995436 1_555
Ni6 O16 2.041588 1_546
Ni6 O4 2.058527 1_545
Ni6 O22 2.084511 1_556
Ni6 O21 2.101234 1_555
Ni6 O1 2.159384 1_545
Ni7 O18 1.995436 1_555
Ni7 O8 2.041588 1_455
Ni7 O9 2.058527 1_455
Ni7 O20 2.084511 1_555
Ni7 O23 2.101234 1_555
Ni7 O3 2.159384 1_455
O0 P0 1.552469 1_555
O1 P0 1.543605 1_555
O2 P1 1.552469 1_555
O3 P1 1.543605 1_555
O4 P5 1.557734 1_565
O5 P2 1.576646 1_555
O6 P0 1.578045 1_555
O7 P2 1.537804 1_555
O8 P2 1.537804 1_555
O9 P4 1.557734 1_654
O10 P3 1.576646 1_555
O11 P1 1.578045 1_555
O12 P4 1.578045 1_555
O13 P2 1.576646 1_555
O14 P1 1.557734 1_456
O15 P3 1.537804 1_555
O16 P3 1.537804 1_555
O17 P5 1.578045 1_555
O18 P3 1.576646 1_555
O19 P0 1.557734 1_545
O20 P4 1.543605 1_555
O21 P4 1.552469 1_555
O22 P5 1.543605 1_555
O23 P5 1.552469 1_555
