# generated using pymatgen
data_Li4Ti2Mn3V3O16
_symmetry_space_group_name_H-M   'P 1'
_cell_length_a   6.02364233
_cell_length_b   6.02364233
_cell_length_c   9.62517839
_cell_angle_alpha   87.34758813
_cell_angle_beta   87.34758813
_cell_angle_gamma   58.37232270
_symmetry_Int_Tables_number   1
_chemical_formula_structural   Li4Ti2Mn3V3O16
_chemical_formula_sum   'Li4 Ti2 Mn3 V3 O16'
_cell_volume   296.95279153
_cell_formula_units_Z   1
loop_
 _symmetry_equiv_pos_site_id
 _symmetry_equiv_pos_as_xyz
  1  'x, y, z'
loop_
 _atom_site_type_symbol
 _atom_site_label
 _atom_site_symmetry_multiplicity
 _atom_site_fract_x
 _atom_site_fract_y
 _atom_site_fract_z
 _atom_site_occupancy
  Li  Li0  1  0.34613600  0.34613600  0.89855400  1
  Li  Li1  1  0.99851700  0.99851700  0.99159000  1
  Li  Li2  1  0.99844300  0.99844300  0.49220300  1
  Li  Li3  1  0.66529600  0.66529600  0.40034800  1
  Ti  Ti0  1  0.34116400  0.34116400  0.49809700  1
  Ti  Ti1  1  0.66463000  0.66463000  0.99733000  1
  Mn  Mn0  1  0.16696200  0.16696200  0.20642900  1
  Mn  Mn1  1  0.34411100  0.84048800  0.71179800  1
  Mn  Mn2  1  0.84048800  0.34411100  0.71179800  1
  V  V0  1  0.15597200  0.65246800  0.22014700  1
  V  V1  1  0.65246800  0.15597200  0.22014700  1
  V  V2  1  0.82977200  0.82977200  0.72656200  1
  O  O0  1  0.15781800  0.65668900  0.59344200  1
  O  O1  1  0.47833400  0.47833400  0.34014000  1
  O  O2  1  0.35140600  0.35140600  0.10266500  1
  O  O3  1  0.98906700  0.98906700  0.30488000  1
  O  O4  1  0.00150600  0.00150600  0.80188200  1
  O  O5  1  0.65668900  0.15781800  0.59344200  1
  O  O6  1  0.03572700  0.50082000  0.34422800  1
  O  O7  1  0.50082000  0.03572700  0.34422800  1
  O  O8  1  0.83087300  0.83087300  0.10331500  1
  O  O9  1  0.16448000  0.16448000  0.58987000  1
  O  O10  1  0.53663400  0.97055900  0.84966000  1
  O  O11  1  0.97055900  0.53663400  0.84966000  1
  O  O12  1  0.67584600  0.67584600  0.60890000  1
  O  O13  1  0.33407200  0.81734100  0.08787500  1
  O  O14  1  0.53021000  0.53021000  0.83655900  1
  O  O15  1  0.81734100  0.33407200  0.08787500  1
loop_
_geom_bond_atom_site_label_1
_geom_bond_atom_site_label_2
_geom_bond_distance
_geom_bond_site_symmetry_2
Li0 O2 1.968321 1_556
Li0 O14 1.995462 1_555
Li0 O11 1.995563 1_455
Li0 O10 1.995563 1_545
Li1 O4 1.824577 1_665
Li1 O13 1.975261 1_656
Li1 O15 1.975261 1_566
Li1 O8 2.016042 1_556
Li2 O3 1.810924 1_555
Li2 O5 1.984242 1_565
Li2 O0 1.984242 1_655
Li2 O9 2.026684 1_665
Li3 O7 1.967654 1_565
Li3 O6 1.967654 1_655
Li3 O12 2.016279 1_555
Li3 O1 2.079292 1_555
Mn0 O3 2.052036 1_445
Mn0 O2 2.134351 1_555
Mn0 O15 2.154841 1_455
Mn0 O13 2.154841 1_545
Mn0 O6 2.216050 1_555
Mn0 O7 2.216050 1_555
Mn1 O4 1.940217 1_565
Mn1 O12 1.945962 1_555
Mn1 O14 1.977707 1_555
Mn1 O9 2.011882 1_565
Mn1 O10 2.216110 1_555
Mn1 O0 2.306695 1_555
Mn2 O4 1.940217 1_655
Mn2 O12 1.945962 1_555
Mn2 O14 1.977707 1_555
Mn2 O9 2.011882 1_655
Mn2 O11 2.216110 1_555
Mn2 O5 2.306695 1_555
O0 Ti0 1.881592 1_555
O0 V2 2.088545 1_455
O1 Ti0 2.039710 1_555
O1 V0 2.040585 1_555
O1 V1 2.040585 1_555
O2 V1 1.944431 1_555
O2 V0 1.944431 1_555
O3 V0 1.930322 1_655
O3 V1 1.930322 1_565
O4 V2 1.981657 1_445
O5 Ti0 1.881592 1_555
O5 V2 2.088545 1_545
O6 V0 1.816125 1_555
O6 Ti0 2.183565 1_555
O7 V1 1.816125 1_555
O7 Ti0 2.183565 1_555
O8 V0 2.034481 1_655
O8 V1 2.034481 1_565
O8 Ti1 2.070511 1_554
O9 Ti0 2.014846 1_555
O10 V2 1.889387 1_555
O10 Ti1 2.092722 1_555
O11 V2 1.889387 1_555
O11 Ti1 2.092722 1_555
O12 V2 2.024350 1_555
O13 Ti1 1.887598 1_554
O13 V0 2.152238 1_555
O14 Ti1 2.150664 1_555
O15 Ti1 1.887598 1_554
O15 V1 2.152238 1_555
