# generated using pymatgen
data_TbMgHg2
_symmetry_space_group_name_H-M   'P 1'
_cell_length_a   5.04461160
_cell_length_b   5.04461160
_cell_length_c   5.04461160
_cell_angle_alpha   60.00000000
_cell_angle_beta   60.00000000
_cell_angle_gamma   60.00000000
_symmetry_Int_Tables_number   1
_chemical_formula_structural   TbMgHg2
_chemical_formula_sum   'Tb1 Mg1 Hg2'
_cell_volume   90.77540694
_cell_formula_units_Z   1
loop_
 _symmetry_equiv_pos_site_id
 _symmetry_equiv_pos_as_xyz
  1  'x, y, z'
loop_
 _atom_site_type_symbol
 _atom_site_label
 _atom_site_symmetry_multiplicity
 _atom_site_fract_x
 _atom_site_fract_y
 _atom_site_fract_z
 _atom_site_occupancy
  Tb  Tb0  1  0.75000100  0.75000100  0.75000100  1
  Mg  Mg0  1  0.25000000  0.25000000  0.25000000  1
  Hg  Hg0  1  -0.00000000  0.00000000  0.00000000  1
  Hg  Hg1  1  0.50000000  0.50000000  0.50000000  1
loop_
_geom_bond_atom_site_label_1
_geom_bond_atom_site_label_2
_geom_bond_distance
_geom_bond_site_symmetry_2
Hg0 Tb0 3.089169 1_444
Hg0 Mg0 3.089181 1_545
Hg0 Mg0 3.089181 1_555
Hg0 Mg0 3.089181 1_554
Hg0 Mg0 3.089181 1_455
Hg0 Tb0 3.089185 1_544
Hg0 Tb0 3.089185 1_454
Hg0 Tb0 3.089185 1_445
Hg1 Tb0 3.089177 1_554
Hg1 Tb0 3.089177 1_455
Hg1 Tb0 3.089177 1_545
Hg1 Mg0 3.089181 1_556
Hg1 Mg0 3.089181 1_655
Hg1 Mg0 3.089181 1_565
Hg1 Mg0 3.089181 1_555
Hg1 Tb0 3.089193 1_555
