# generated using pymatgen
data_Fe13(SnO10)2
_symmetry_space_group_name_H-M   'P 1'
_cell_length_a   6.12827600
_cell_length_b   8.61606770
_cell_length_c   16.04085005
_cell_angle_alpha   105.18556533
_cell_angle_beta   100.51583628
_cell_angle_gamma   90.43795178
_symmetry_Int_Tables_number   1
_chemical_formula_structural   Fe13(SnO10)2
_chemical_formula_sum   'Fe26 Sn4 O40'
_cell_volume   802.30641861
_cell_formula_units_Z   2
loop_
 _symmetry_equiv_pos_site_id
 _symmetry_equiv_pos_as_xyz
  1  'x, y, z'
loop_
 _atom_site_type_symbol
 _atom_site_label
 _atom_site_symmetry_multiplicity
 _atom_site_fract_x
 _atom_site_fract_y
 _atom_site_fract_z
 _atom_site_occupancy
  Fe  Fe0  1  0.74566100  0.61537900  0.99848100  1
  Fe  Fe1  1  0.25433900  0.38462100  0.00151900  1
  Fe  Fe2  1  0.14984700  0.03389900  0.79949900  1
  Fe  Fe3  1  0.00000000  0.00000000  0.00000000  1
  Fe  Fe4  1  0.70081100  0.19625300  0.89537200  1
  Fe  Fe5  1  0.65448800  0.77870400  0.80049100  1
  Fe  Fe6  1  0.54184800  0.42272900  0.60082900  1
  Fe  Fe7  1  0.40407400  0.39418800  0.79928600  1
  Fe  Fe8  1  0.50000000  0.00000000  0.00000000  1
  Fe  Fe9  1  0.10417100  0.58773700  0.69507100  1
  Fe  Fe10  1  0.05849800  0.17541000  0.60267400  1
  Fe  Fe11  1  0.94150200  0.82459000  0.39732600  1
  Fe  Fe12  1  0.89206700  0.39056100  0.79760500  1
  Fe  Fe13  1  0.59367900  0.10573900  0.70169000  1
  Fe  Fe14  1  0.50000000  0.00000000  0.50000000  1
  Fe  Fe15  1  0.45815200  0.57727100  0.39917100  1
  Fe  Fe16  1  0.34551200  0.22129600  0.19950900  1
  Fe  Fe17  1  0.29919000  0.80582600  0.59949300  1
  Fe  Fe18  1  0.85015300  0.96610100  0.20050100  1
  Fe  Fe19  1  0.00000000  0.50000000  0.50000000  1
  Fe  Fe20  1  0.89582900  0.41226300  0.30492900  1
  Fe  Fe21  1  0.70081000  0.19417400  0.40050700  1
  Fe  Fe22  1  0.59592600  0.60581200  0.20071400  1
  Fe  Fe23  1  0.40632100  0.89426100  0.29831000  1
  Fe  Fe24  1  0.29918900  0.80374700  0.10462800  1
  Fe  Fe25  1  0.10793300  0.60943900  0.20239500  1
  Sn  Sn0  1  0.19973300  0.69643500  0.90129700  1
  Sn  Sn1  1  0.80165200  0.80378200  0.60130600  1
  Sn  Sn2  1  0.19834800  0.19621800  0.39869400  1
  Sn  Sn3  1  0.80026700  0.30356500  0.09870300  1
  O  O0  1  0.70663700  0.95803100  0.90619000  1
  O  O1  1  0.47994400  0.76664400  0.00325400  1
  O  O2  1  0.38585800  0.64973200  0.79919500  1
  O  O3  1  0.09559500  0.36141000  0.70224700  1
  O  O4  1  0.20755200  0.94623500  0.91093200  1
  O  O5  1  0.19899100  0.45749700  0.89166000  1
  O  O6  1  0.02607800  0.76744000  0.00529100  1
  O  O7  1  0.91465100  0.64991400  0.80044100  1
  O  O8  1  0.79544700  0.04557700  0.60220100  1
  O  O9  1  0.87039700  0.15107900  0.80132800  1
  O  O10  1  0.70475400  0.42440600  0.89431000  1
  O  O11  1  0.59158800  0.34772900  0.70125200  1
  O  O12  1  0.60263300  0.85177400  0.69669200  1
  O  O13  1  0.51303700  0.75875600  0.50475900  1
  O  O14  1  0.30695700  0.04553500  0.60112700  1
  O  O15  1  0.42934600  0.15743900  0.80594800  1
  O  O16  1  0.28396800  0.55270800  0.60040800  1
  O  O17  1  0.19312400  0.44398500  0.39639600  1
  O  O18  1  0.08983700  0.82642900  0.69452500  1
  O  O19  1  0.91016300  0.17357100  0.30547500  1
  O  O20  1  0.99464500  0.74724300  0.50318200  1
  O  O21  1  0.00535500  0.25275700  0.49681800  1
  O  O22  1  0.80687600  0.55601500  0.60360400  1
  O  O23  1  0.71603200  0.44729200  0.39959200  1
  O  O24  1  0.57065400  0.84256100  0.19405200  1
  O  O25  1  0.69304300  0.95446500  0.39887300  1
  O  O26  1  0.48696300  0.24124400  0.49524100  1
  O  O27  1  0.39736700  0.14822600  0.30330800  1
  O  O28  1  0.40841200  0.65227100  0.29874800  1
  O  O29  1  0.29524600  0.57559400  0.10569000  1
  O  O30  1  0.12960300  0.84892100  0.19867200  1
  O  O31  1  0.20455300  0.95442300  0.39779900  1
  O  O32  1  0.97392200  0.23256000  0.99470900  1
  O  O33  1  0.08534900  0.35008600  0.19955900  1
  O  O34  1  0.90440500  0.63859000  0.29775300  1
  O  O35  1  0.80100900  0.54250300  0.10834000  1
  O  O36  1  0.79244800  0.05376500  0.08906800  1
  O  O37  1  0.61414200  0.35026800  0.20080500  1
  O  O38  1  0.52005600  0.23335600  0.99674600  1
  O  O39  1  0.29336300  0.04196900  0.09381000  1
loop_
_geom_bond_atom_site_label_1
_geom_bond_atom_site_label_2
_geom_bond_distance
_geom_bond_site_symmetry_2
Fe0 O10 1.990694 1_555
Fe0 O35 1.994879 1_556
Fe0 O1 2.093274 1_556
Fe0 O6 2.122193 1_656
Fe1 O29 1.990694 1_555
Fe1 O5 1.994879 1_554
Fe1 O38 2.093274 1_554
Fe1 O32 2.122193 1_454
Fe2 O15 1.981747 1_555
Fe2 O9 1.995566 1_455
Fe2 O18 2.086401 1_545
Fe2 O4 2.090769 1_545
Fe3 O6 2.033914 1_545
Fe3 O32 2.033914 1_454
Fe3 O36 2.049211 1_455
Fe3 O4 2.049211 1_544
Fe3 O39 2.084414 1_555
Fe3 O0 2.084414 1_444
Fe4 O9 1.943740 1_555
Fe4 O15 1.950944 1_555
Fe4 O10 1.970315 1_555
Fe4 O32 2.048313 1_555
Fe4 O38 2.089039 1_555
Fe4 O0 2.104698 1_545
Fe5 O12 1.904929 1_555
Fe5 O0 1.945866 1_555
Fe5 O7 1.949450 1_555
Fe5 O2 1.973020 1_555
Fe6 O11 1.864008 1_555
Fe6 O16 1.943939 1_555
Fe6 O26 1.955366 1_555
Fe6 O22 1.969018 1_555
Fe7 O11 2.071357 1_555
Fe7 O15 2.075901 1_555
Fe7 O5 2.083148 1_555
Fe7 O10 2.132153 1_555
Fe7 O3 2.182643 1_555
Fe7 O2 2.205833 1_555
Fe8 O1 2.028283 1_545
Fe8 O38 2.028283 1_554
Fe8 O36 2.042980 1_555
Fe8 O4 2.042980 1_544
Fe8 O0 2.101483 1_544
Fe8 O39 2.101483 1_555
Fe9 O3 1.984173 1_555
Fe9 O16 1.996653 1_555
Fe9 O18 2.061373 1_555
Fe9 O22 2.086460 1_455
Fe9 O2 2.126276 1_555
Fe9 O7 2.178179 1_455
Fe10 O14 1.896439 1_555
Fe10 O3 1.921460 1_555
Fe10 O8 1.952859 1_455
Fe10 O21 1.956468 1_555
Fe11 O25 1.896439 1_555
Fe11 O34 1.921460 1_555
Fe11 O31 1.952859 1_655
Fe11 O20 1.956468 1_555
Fe12 O10 2.056001 1_555
Fe12 O9 2.083760 1_555
Fe12 O3 2.111502 1_655
Fe12 O11 2.137236 1_555
Fe12 O5 2.153702 1_655
Fe12 O7 2.225846 1_555
Fe13 O15 2.059333 1_555
Fe13 O9 2.063080 1_555
Fe13 O11 2.086983 1_555
Fe13 O14 2.114650 1_555
Fe13 O8 2.154335 1_555
Fe13 O12 2.170047 1_545
Fe14 O13 2.101458 1_545
Fe14 O26 2.101458 1_555
Fe14 O14 2.135190 1_555
Fe14 O25 2.135190 1_545
Fe14 O8 2.165276 1_555
Fe14 O31 2.165276 1_545
Fe15 O28 1.864008 1_555
Fe15 O23 1.943939 1_555
Fe15 O13 1.955366 1_555
Fe15 O17 1.969018 1_555
Fe16 O27 1.904929 1_555
Fe16 O39 1.945866 1_555
Fe16 O33 1.949450 1_555
Fe16 O37 1.973020 1_555
Fe17 O14 2.058713 1_565
Fe17 O18 2.139370 1_555
Fe17 O13 2.145535 1_555
Fe17 O20 2.156235 1_455
Fe17 O12 2.157034 1_555
Fe17 O16 2.186166 1_555
Fe18 O24 1.981747 1_555
Fe18 O30 1.995566 1_655
Fe18 O19 2.086401 1_565
Fe18 O36 2.090769 1_565
Fe19 O23 2.100098 1_455
Fe19 O16 2.100098 1_555
Fe19 O21 2.118116 1_555
Fe19 O20 2.118116 1_455
Fe19 O17 2.168412 1_555
Fe19 O22 2.168412 1_455
Fe20 O34 1.984173 1_555
Fe20 O23 1.996653 1_555
Fe20 O19 2.061373 1_555
Fe20 O17 2.086460 1_655
Fe20 O37 2.126276 1_555
Fe20 O33 2.178179 1_655
Fe21 O25 2.058713 1_545
Fe21 O19 2.139370 1_555
Fe21 O26 2.145535 1_555
Fe21 O21 2.156235 1_655
Fe21 O27 2.157034 1_555
Fe21 O23 2.186166 1_555
Fe22 O28 2.071357 1_555
Fe22 O24 2.075901 1_555
Fe22 O35 2.083148 1_555
Fe22 O29 2.132153 1_555
Fe22 O34 2.182643 1_555
Fe22 O37 2.205833 1_555
Fe23 O24 2.059333 1_555
Fe23 O30 2.063080 1_555
Fe23 O28 2.086983 1_555
Fe23 O25 2.114650 1_555
Fe23 O31 2.154335 1_555
Fe23 O27 2.170047 1_565
Fe24 O30 1.943740 1_555
Fe24 O24 1.950944 1_555
Fe24 O29 1.970315 1_555
Fe24 O6 2.048313 1_555
Fe24 O1 2.089039 1_555
Fe24 O39 2.104698 1_565
Fe25 O29 2.056001 1_555
Fe25 O30 2.083760 1_555
Fe25 O34 2.111502 1_455
Fe25 O28 2.137236 1_555
Fe25 O35 2.153702 1_455
Fe25 O33 2.225846 1_555
O1 Sn0 2.104807 1_554
O2 Sn0 2.118723 1_555
O4 Sn0 2.116601 1_555
O5 Sn0 2.023626 1_555
O6 Sn0 2.100675 1_554
O7 Sn0 2.109051 1_655
O8 Sn1 2.080294 1_545
O12 Sn1 2.087356 1_555
O13 Sn1 2.086195 1_555
O17 Sn2 2.145110 1_555
O18 Sn1 2.066637 1_455
O19 Sn2 2.066637 1_655
O20 Sn1 2.097662 1_555
O21 Sn2 2.097662 1_555
O22 Sn1 2.145110 1_555
O26 Sn2 2.086195 1_555
O27 Sn2 2.087356 1_555
O31 Sn2 2.080294 1_565
O32 Sn3 2.100675 1_556
O33 Sn3 2.109051 1_455
O35 Sn3 2.023626 1_555
O36 Sn3 2.116601 1_555
O37 Sn3 2.118723 1_555
O38 Sn3 2.104807 1_556
