# generated using pymatgen
data_Y2Mg
_symmetry_space_group_name_H-M   'P 1'
_cell_length_a   7.49205450
_cell_length_b   17.62406877
_cell_length_c   10.95209740
_cell_angle_alpha   89.99998901
_cell_angle_beta   90.00000387
_cell_angle_gamma   77.70126988
_symmetry_Int_Tables_number   1
_chemical_formula_structural   Y2Mg
_chemical_formula_sum   'Y32 Mg16'
_cell_volume   1412.93220723
_cell_formula_units_Z   16
loop_
 _symmetry_equiv_pos_site_id
 _symmetry_equiv_pos_as_xyz
  1  'x, y, z'
loop_
 _atom_site_type_symbol
 _atom_site_label
 _atom_site_symmetry_multiplicity
 _atom_site_fract_x
 _atom_site_fract_y
 _atom_site_fract_z
 _atom_site_occupancy
  Y  Y0_0  1  0.48866569  0.02239402  0.00000026  1
  Y  Y0_1  1  0.48866569  0.02239401  0.50000026  1
  Y  Y0_2  1  0.48866569  0.52239402  0.00000026  1
  Y  Y0_3  1  0.48866569  0.52239402  0.50000026  1
  Y  Y0_4  1  0.98866569  0.02239402  0.00000026  1
  Y  Y0_5  1  0.98866569  0.02239402  0.50000026  1
  Y  Y0_6  1  0.98866569  0.52239402  0.00000026  1
  Y  Y0_7  1  0.98866569  0.52239402  0.50000026  1
  Y  Y1_0  1  0.33110021  0.33816951  0.00000042  1
  Y  Y1_1  1  0.33110021  0.33816951  0.50000042  1
  Y  Y1_2  1  0.33110021  0.83816951  0.00000042  1
  Y  Y1_3  1  0.33110021  0.83816951  0.50000042  1
  Y  Y1_4  1  0.83110021  0.33816951  0.00000042  1
  Y  Y1_5  1  0.83110021  0.33816951  0.50000042  1
  Y  Y1_6  1  0.83110021  0.83816951  0.00000042  1
  Y  Y1_7  1  0.83110021  0.83816951  0.50000042  1
  Y  Y2_0  1  0.40026072  0.19983156  0.25000026  1
  Y  Y2_1  1  0.40026072  0.19983156  0.75000026  1
  Y  Y2_2  1  0.40026072  0.69983156  0.25000026  1
  Y  Y2_3  1  0.40026072  0.69983156  0.75000026  1
  Y  Y2_4  1  0.90026072  0.19983156  0.25000026  1
  Y  Y2_5  1  0.90026072  0.19983156  0.75000026  1
  Y  Y2_6  1  0.90026072  0.69983156  0.25000026  1
  Y  Y2_7  1  0.90026072  0.69983157  0.75000026  1
  Y  Y3_0  1  0.05801496  0.38406606  0.25000038  1
  Y  Y3_1  1  0.05801496  0.38406606  0.75000038  1
  Y  Y3_2  1  0.05801496  0.88406606  0.25000038  1
  Y  Y3_3  1  0.05801496  0.88406606  0.75000038  1
  Y  Y3_4  1  0.55801496  0.38406606  0.25000038  1
  Y  Y3_5  1  0.55801496  0.38406606  0.75000038  1
  Y  Y3_6  1  0.55801496  0.88406606  0.25000039  1
  Y  Y3_7  1  0.55801496  0.88406606  0.75000038  1
  Mg  Mg0_0  1  0.16082582  0.17930072  0.00000014  1
  Mg  Mg0_1  1  0.16082582  0.17930072  0.50000014  1
  Mg  Mg0_2  1  0.16082581  0.67930071  0.00000014  1
  Mg  Mg0_3  1  0.16082581  0.67930072  0.50000014  1
  Mg  Mg0_4  1  0.66082582  0.17930072  0.00000014  1
  Mg  Mg0_5  1  0.66082582  0.17930071  0.50000014  1
  Mg  Mg0_6  1  0.66082582  0.67930072  0.00000014  1
  Mg  Mg0_7  1  0.66082582  0.67930072  0.50000014  1
  Mg  Mg1_0  1  0.22779811  0.04290464  0.25000004  1
  Mg  Mg1_1  1  0.22779811  0.04290464  0.75000004  1
  Mg  Mg1_2  1  0.22779811  0.54290463  0.25000004  1
  Mg  Mg1_3  1  0.22779811  0.54290463  0.75000004  1
  Mg  Mg1_4  1  0.72779811  0.04290464  0.25000004  1
  Mg  Mg1_5  1  0.72779811  0.04290464  0.75000004  1
  Mg  Mg1_6  1  0.72779811  0.54290464  0.25000004  1
  Mg  Mg1_7  1  0.72779811  0.54290463  0.75000004  1
loop_
_geom_bond_atom_site_label_1
_geom_bond_atom_site_label_2
_geom_bond_distance
_geom_bond_site_symmetry_2
Y0_0 Y3_7 3.629114 1_544
Y0_0 Y3_6 3.629115 1_545
Y0_0 Y1_2 3.683478 1_545
Y0_0 Y1_6 3.684424 1_545
Y0_1 Y3_6 3.629114 1_545
Y0_1 Y3_7 3.629115 1_545
Y0_1 Y1_3 3.683478 1_545
Y0_1 Y1_7 3.684424 1_545
Y0_2 Y3_5 3.629114 1_554
Y0_2 Y3_4 3.629115 1_555
Y0_2 Y1_0 3.683478 1_555
Y0_2 Y1_4 3.684424 1_555
Y0_3 Y3_4 3.629114 1_555
Y0_3 Y3_5 3.629115 1_555
Y0_3 Y1_1 3.683478 1_555
Y0_3 Y1_5 3.684424 1_555
Y0_4 Y3_3 3.629114 1_644
Y0_4 Y3_2 3.629115 1_645
Y0_4 Y1_6 3.683478 1_545
Y0_4 Y1_2 3.684424 1_645
Y0_5 Y3_2 3.629114 1_645
Y0_5 Y3_3 3.629115 1_645
Y0_5 Y1_7 3.683478 1_545
Y0_5 Y1_3 3.684424 1_645
Y0_6 Y3_1 3.629114 1_654
Y0_6 Y3_0 3.629115 1_655
Y0_6 Y1_4 3.683478 1_555
Y0_6 Y1_0 3.684424 1_655
Y0_7 Y3_0 3.629114 1_655
Y0_7 Y3_1 3.629115 1_655
Y0_7 Y1_5 3.683478 1_555
Y0_7 Y1_1 3.684424 1_655
Y1_0 Y3_4 3.409854 1_555
Y1_0 Y3_5 3.409854 1_554
Y1_0 Y3_0 3.410575 1_555
Y1_0 Y3_1 3.410575 1_554
Y1_0 Y2_0 3.629226 1_555
Y1_0 Y2_1 3.629230 1_554
Y1_0 Y1_4 3.746027 1_455
Y1_0 Y1_4 3.746027 1_555
Y1_1 Y3_5 3.409854 1_555
Y1_1 Y3_4 3.409854 1_555
Y1_1 Y3_1 3.410575 1_555
Y1_1 Y3_0 3.410575 1_555
Y1_1 Y2_1 3.629226 1_555
Y1_1 Y2_0 3.629230 1_555
Y1_1 Y1_5 3.746027 1_455
Y1_1 Y1_5 3.746027 1_555
Y1_2 Y3_6 3.409854 1_555
Y1_2 Y3_7 3.409854 1_554
Y1_2 Y3_2 3.410575 1_555
Y1_2 Y3_3 3.410575 1_554
Y1_2 Y2_2 3.629226 1_555
Y1_2 Y2_3 3.629230 1_554
Y1_2 Y1_6 3.746027 1_555
Y1_2 Y1_6 3.746027 1_455
Y1_3 Y3_7 3.409854 1_555
Y1_3 Y3_6 3.409854 1_555
Y1_3 Y3_3 3.410575 1_555
Y1_3 Y3_2 3.410575 1_555
Y1_3 Y2_3 3.629226 1_555
Y1_3 Y2_2 3.629230 1_555
Y1_3 Y1_7 3.746027 1_455
Y1_3 Y1_7 3.746027 1_555
Y1_4 Y3_0 3.409854 1_655
Y1_4 Y3_1 3.409854 1_654
Y1_4 Y3_4 3.410575 1_555
Y1_4 Y3_5 3.410575 1_554
Y1_4 Y2_4 3.629226 1_555
Y1_4 Y2_5 3.629230 1_554
Y1_5 Y3_1 3.409854 1_655
Y1_5 Y3_0 3.409854 1_655
Y1_5 Y3_5 3.410575 1_555
Y1_5 Y3_4 3.410575 1_555
Y1_5 Y2_5 3.629226 1_555
Y1_5 Y2_4 3.629230 1_555
Y1_6 Y3_2 3.409854 1_655
Y1_6 Y3_3 3.409854 1_654
Y1_6 Y3_6 3.410575 1_555
Y1_6 Y3_7 3.410575 1_554
Y1_6 Y2_6 3.629226 1_555
Y1_6 Y2_7 3.629230 1_554
Y1_7 Y3_3 3.409854 1_655
Y1_7 Y3_2 3.409854 1_655
Y1_7 Y3_7 3.410575 1_555
Y1_7 Y3_6 3.410575 1_555
Y1_7 Y2_7 3.629226 1_555
Y1_7 Y2_6 3.629230 1_555
Y2_0 Y3_0 3.683834 1_555
Y2_0 Y3_4 3.684364 1_555
Y2_1 Y3_1 3.683834 1_555
Y2_1 Y3_5 3.684364 1_555
Y2_2 Y3_2 3.683834 1_555
Y2_2 Y3_6 3.684364 1_555
Y2_3 Y3_3 3.683834 1_555
Y2_3 Y3_7 3.684364 1_555
Y2_4 Y3_4 3.683834 1_555
Y2_4 Y3_0 3.684364 1_655
Y2_5 Y3_5 3.683834 1_555
Y2_5 Y3_1 3.684364 1_655
Y2_6 Y3_6 3.683834 1_555
Y2_6 Y3_2 3.684364 1_655
Y2_7 Y3_7 3.683834 1_555
Y2_7 Y3_3 3.684364 1_655
Y3_0 Y3_4 3.746027 1_455
Y3_0 Y3_4 3.746027 1_555
Y3_1 Y3_5 3.746027 1_455
Y3_1 Y3_5 3.746027 1_555
Y3_2 Y3_6 3.746027 1_455
Y3_2 Y3_6 3.746027 1_555
Y3_3 Y3_7 3.746027 1_555
Y3_3 Y3_7 3.746027 1_455
Mg0_0 Y0_0 3.284261 1_555
Mg0_0 Y0_4 3.290938 1_455
Mg0_0 Y1_0 3.314909 1_555
Mg0_0 Y1_4 3.315929 1_455
Mg0_0 Y2_1 3.334989 1_554
Mg0_0 Y2_0 3.334991 1_555
Mg0_0 Y2_5 3.337324 1_454
Mg0_0 Y2_4 3.337326 1_455
Mg0_1 Y0_1 3.284261 1_555
Mg0_1 Y0_5 3.290938 1_455
Mg0_1 Y1_1 3.314909 1_555
Mg0_1 Y1_5 3.315929 1_455
Mg0_1 Y2_0 3.334989 1_555
Mg0_1 Y2_1 3.334991 1_555
Mg0_1 Y2_4 3.337324 1_455
Mg0_1 Y2_5 3.337326 1_455
Mg0_2 Y0_2 3.284261 1_555
Mg0_2 Y0_6 3.290938 1_455
Mg0_2 Y1_2 3.314909 1_555
Mg0_2 Y1_6 3.315929 1_455
Mg0_2 Y2_3 3.334989 1_554
Mg0_2 Y2_2 3.334991 1_555
Mg0_2 Y2_7 3.337324 1_454
Mg0_2 Y2_6 3.337326 1_455
Mg0_3 Y0_3 3.284261 1_555
Mg0_3 Y0_7 3.290938 1_455
Mg0_3 Y1_3 3.314909 1_555
Mg0_3 Y1_7 3.315929 1_455
Mg0_3 Y2_2 3.334989 1_555
Mg0_3 Y2_3 3.334991 1_555
Mg0_3 Y2_6 3.337324 1_455
Mg0_3 Y2_7 3.337326 1_455
Mg0_4 Y0_4 3.284261 1_555
Mg0_4 Y0_0 3.290938 1_555
Mg0_4 Y1_4 3.314909 1_555
Mg0_4 Y1_0 3.315929 1_555
Mg0_4 Y2_5 3.334989 1_554
Mg0_4 Y2_4 3.334991 1_555
Mg0_4 Y2_1 3.337324 1_554
Mg0_4 Y2_0 3.337326 1_555
Mg0_5 Y0_5 3.284261 1_555
Mg0_5 Y0_1 3.290938 1_555
Mg0_5 Y1_5 3.314909 1_555
Mg0_5 Y1_1 3.315929 1_555
Mg0_5 Y2_4 3.334989 1_555
Mg0_5 Y2_5 3.334991 1_555
Mg0_5 Y2_0 3.337324 1_555
Mg0_5 Y2_1 3.337326 1_555
Mg0_6 Y0_6 3.284261 1_555
Mg0_6 Y0_2 3.290938 1_555
Mg0_6 Y1_6 3.314909 1_555
Mg0_6 Y1_2 3.315929 1_555
Mg0_6 Y2_7 3.334989 1_554
Mg0_6 Y2_6 3.334991 1_555
Mg0_6 Y2_3 3.337324 1_554
Mg0_6 Y2_2 3.337326 1_555
Mg0_7 Y0_7 3.284261 1_555
Mg0_7 Y0_3 3.290938 1_555
Mg0_7 Y1_7 3.314909 1_555
Mg0_7 Y1_3 3.315929 1_555
Mg0_7 Y2_6 3.334989 1_555
Mg0_7 Y2_7 3.334991 1_555
Mg0_7 Y2_2 3.337324 1_555
Mg0_7 Y2_3 3.337326 1_555
Mg1_0 Y2_4 3.283217 1_455
Mg1_0 Y2_0 3.292561 1_555
Mg1_0 Y3_2 3.312338 1_545
Mg1_0 Y3_6 3.317645 1_545
Mg1_0 Y0_4 3.333637 1_455
Mg1_0 Y0_5 3.333641 1_455
Mg1_0 Y0_0 3.338603 1_555
Mg1_0 Y0_1 3.338606 1_555
Mg1_1 Y2_5 3.283217 1_455
Mg1_1 Y2_1 3.292561 1_555
Mg1_1 Y3_3 3.312338 1_545
Mg1_1 Y3_7 3.317645 1_545
Mg1_1 Y0_5 3.333637 1_455
Mg1_1 Y0_4 3.333641 1_456
Mg1_1 Y0_1 3.338603 1_555
Mg1_1 Y0_0 3.338606 1_556
Mg1_2 Y2_6 3.283217 1_455
Mg1_2 Y2_2 3.292561 1_555
Mg1_2 Y3_0 3.312338 1_555
Mg1_2 Y3_4 3.317645 1_555
Mg1_2 Y0_6 3.333637 1_455
Mg1_2 Y0_7 3.333641 1_455
Mg1_2 Y0_2 3.338603 1_555
Mg1_2 Y0_3 3.338606 1_555
Mg1_3 Y2_7 3.283217 1_455
Mg1_3 Y2_3 3.292561 1_555
Mg1_3 Y3_1 3.312338 1_555
Mg1_3 Y3_5 3.317645 1_555
Mg1_3 Y0_7 3.333637 1_455
Mg1_3 Y0_6 3.333641 1_456
Mg1_3 Y0_3 3.338603 1_555
Mg1_3 Y0_2 3.338606 1_556
Mg1_4 Y2_0 3.283217 1_555
Mg1_4 Y2_4 3.292561 1_555
Mg1_4 Y3_6 3.312338 1_545
Mg1_4 Y3_2 3.317645 1_645
Mg1_4 Y0_0 3.333637 1_555
Mg1_4 Y0_1 3.333641 1_555
Mg1_4 Y0_4 3.338603 1_555
Mg1_4 Y0_5 3.338606 1_555
Mg1_5 Y2_1 3.283217 1_555
Mg1_5 Y2_5 3.292561 1_555
Mg1_5 Y3_7 3.312338 1_545
Mg1_5 Y3_3 3.317645 1_645
Mg1_5 Y0_1 3.333637 1_555
Mg1_5 Y0_0 3.333641 1_556
Mg1_5 Y0_5 3.338603 1_555
Mg1_5 Y0_4 3.338606 1_556
Mg1_6 Y2_2 3.283217 1_555
Mg1_6 Y2_6 3.292561 1_555
Mg1_6 Y3_4 3.312338 1_555
Mg1_6 Y3_0 3.317645 1_655
Mg1_6 Y0_2 3.333637 1_555
Mg1_6 Y0_3 3.333641 1_555
Mg1_6 Y0_6 3.338603 1_555
Mg1_6 Y0_7 3.338606 1_555
Mg1_7 Y2_3 3.283217 1_555
Mg1_7 Y2_7 3.292561 1_555
Mg1_7 Y3_5 3.312338 1_555
Mg1_7 Y3_1 3.317645 1_655
Mg1_7 Y0_3 3.333637 1_555
Mg1_7 Y0_2 3.333641 1_556
Mg1_7 Y0_7 3.338603 1_555
Mg1_7 Y0_6 3.338606 1_556
