# generated using pymatgen
data_LiB3P(HO3)3
_symmetry_space_group_name_H-M   'P 1'
_cell_length_a   8.88380600
_cell_length_b   11.61225000
_cell_length_c   14.00505200
_cell_angle_alpha   90.00000000
_cell_angle_beta   90.00000000
_cell_angle_gamma   90.00000000
_symmetry_Int_Tables_number   1
_chemical_formula_structural   LiB3P(HO3)3
_chemical_formula_sum   'Li8 B24 P8 H24 O72'
_cell_volume   1444.77483638
_cell_formula_units_Z   8
loop_
 _symmetry_equiv_pos_site_id
 _symmetry_equiv_pos_as_xyz
  1  'x, y, z'
loop_
 _atom_site_type_symbol
 _atom_site_label
 _atom_site_symmetry_multiplicity
 _atom_site_fract_x
 _atom_site_fract_y
 _atom_site_fract_z
 _atom_site_occupancy
  Li  Li0  1  0.17992300  0.00000000  0.25000000  1
  Li  Li1  1  0.48688300  0.00000000  0.25000000  1
  Li  Li2  1  0.51311700  0.00000000  0.75000000  1
  Li  Li3  1  0.82007700  0.00000000  0.75000000  1
  Li  Li4  1  0.67992300  0.50000000  0.25000000  1
  Li  Li5  1  0.01311700  0.50000000  0.75000000  1
  Li  Li6  1  0.32007700  0.50000000  0.75000000  1
  Li  Li7  1  0.98688300  0.50000000  0.25000000  1
  B  B0  1  0.03138200  0.14674000  0.08153700  1
  B  B1  1  0.96861800  0.14674000  0.58153700  1
  B  B2  1  0.53070000  0.14522800  0.07496000  1
  B  B3  1  0.46930000  0.14522800  0.57496000  1
  B  B4  1  0.08914600  0.24429100  0.44241800  1
  B  B5  1  0.91085400  0.24429100  0.94241800  1
  B  B6  1  0.41085400  0.25570900  0.94241800  1
  B  B7  1  0.58914600  0.25570900  0.44241800  1
  B  B8  1  0.03070000  0.35477200  0.07496000  1
  B  B9  1  0.96930000  0.35477200  0.57496000  1
  B  B10  1  0.53138200  0.35326000  0.08153700  1
  B  B11  1  0.46861800  0.35326000  0.58153700  1
  B  B12  1  0.46861800  0.64674000  0.91846300  1
  B  B13  1  0.53138200  0.64674000  0.41846300  1
  B  B14  1  0.03070000  0.64522800  0.42504000  1
  B  B15  1  0.96930000  0.64522800  0.92504000  1
  B  B16  1  0.41085400  0.74429100  0.55758200  1
  B  B17  1  0.58914600  0.74429100  0.05758200  1
  B  B18  1  0.08914600  0.75570900  0.05758200  1
  B  B19  1  0.91085400  0.75570900  0.55758200  1
  B  B20  1  0.46930000  0.85477200  0.92504000  1
  B  B21  1  0.53070000  0.85477200  0.42504000  1
  B  B22  1  0.03138200  0.85326000  0.41846300  1
  B  B23  1  0.96861800  0.85326000  0.91846300  1
  P  P0  1  0.34201300  0.23088700  0.32601700  1
  P  P1  1  0.65798700  0.23088700  0.82601700  1
  P  P2  1  0.15798700  0.26911300  0.82601700  1
  P  P3  1  0.84201300  0.26911300  0.32601700  1
  P  P4  1  0.15798700  0.73088700  0.67398300  1
  P  P5  1  0.84201300  0.73088700  0.17398300  1
  P  P6  1  0.34201300  0.76911300  0.17398300  1
  P  P7  1  0.65798700  0.76911300  0.67398300  1
  H  H0  1  0.06283900  0.97932700  0.08446000  1
  H  H1  1  0.93716100  0.97932700  0.58446000  1
  H  H2  1  0.56279900  0.02516700  0.42260200  1
  H  H3  1  0.43720100  0.02516700  0.92260200  1
  H  H4  1  0.28538600  0.20591000  0.70373400  1
  H  H5  1  0.71461400  0.20591000  0.20373400  1
  H  H6  1  0.21461400  0.29409000  0.20373400  1
  H  H7  1  0.78538600  0.29409000  0.70373400  1
  H  H8  1  0.06279900  0.47483300  0.42260200  1
  H  H9  1  0.93720100  0.47483300  0.92260200  1
  H  H10  1  0.56283900  0.52067300  0.08446000  1
  H  H11  1  0.43716100  0.52067300  0.58446000  1
  H  H12  1  0.43716100  0.47932700  0.91554000  1
  H  H13  1  0.56283900  0.47932700  0.41554000  1
  H  H14  1  0.06279900  0.52516700  0.07739800  1
  H  H15  1  0.93720100  0.52516700  0.57739800  1
  H  H16  1  0.78538600  0.70591000  0.79626600  1
  H  H17  1  0.21461400  0.70591000  0.29626600  1
  H  H18  1  0.28538600  0.79409000  0.79626600  1
  H  H19  1  0.71461400  0.79409000  0.29626600  1
  H  H20  1  0.43720100  0.97483300  0.57739800  1
  H  H21  1  0.56279900  0.97483300  0.07739800  1
  H  H22  1  0.06283900  0.02067300  0.41554000  1
  H  H23  1  0.93716100  0.02067300  0.91554000  1
  O  O0  1  0.57194300  0.04444600  0.11901500  1
  O  O1  1  0.42805700  0.04444600  0.61901500  1
  O  O2  1  0.08232200  0.04786600  0.12487600  1
  O  O3  1  0.91767800  0.04786600  0.62487600  1
  O  O4  1  0.33245100  0.11013400  0.28703600  1
  O  O5  1  0.66754900  0.11013400  0.78703600  1
  O  O6  1  0.94387400  0.14266300  0.00133100  1
  O  O7  1  0.05612600  0.14266300  0.50133100  1
  O  O8  1  0.54864200  0.14719700  0.49128000  1
  O  O9  1  0.45135800  0.14719700  0.99128000  1
  O  O10  1  0.79157600  0.17684500  0.24966600  1
  O  O11  1  0.20842400  0.17684500  0.74966600  1
  O  O12  1  0.00640400  0.23278000  0.35018000  1
  O  O13  1  0.99359600  0.23278000  0.85018000  1
  O  O14  1  0.25151500  0.24796900  0.42062600  1
  O  O15  1  0.74848500  0.24796900  0.92062600  1
  O  O16  1  0.42697400  0.24699000  0.62123500  1
  O  O17  1  0.57302600  0.24699000  0.12123500  1
  O  O18  1  0.07302600  0.25301000  0.12123500  1
  O  O19  1  0.92697400  0.25301000  0.62123500  1
  O  O20  1  0.75151500  0.25203100  0.42062600  1
  O  O21  1  0.24848500  0.25203100  0.92062600  1
  O  O22  1  0.49359600  0.26722000  0.85018000  1
  O  O23  1  0.50640400  0.26722000  0.35018000  1
  O  O24  1  0.29157600  0.32315500  0.24966600  1
  O  O25  1  0.70842400  0.32315500  0.74966600  1
  O  O26  1  0.04864200  0.35280300  0.49128000  1
  O  O27  1  0.95135800  0.35280300  0.99128000  1
  O  O28  1  0.55612600  0.35733700  0.50133100  1
  O  O29  1  0.44387400  0.35733700  0.00133100  1
  O  O30  1  0.83245100  0.38986600  0.28703600  1
  O  O31  1  0.16754900  0.38986600  0.78703600  1
  O  O32  1  0.58232200  0.45213400  0.12487600  1
  O  O33  1  0.41767800  0.45213400  0.62487600  1
  O  O34  1  0.07194300  0.45555400  0.11901500  1
  O  O35  1  0.92805700  0.45555400  0.61901500  1
  O  O36  1  0.07194300  0.54444600  0.38098500  1
  O  O37  1  0.92805700  0.54444600  0.88098500  1
  O  O38  1  0.58232200  0.54786600  0.37512400  1
  O  O39  1  0.41767800  0.54786600  0.87512400  1
  O  O40  1  0.83245100  0.61013400  0.21296400  1
  O  O41  1  0.16754900  0.61013400  0.71296400  1
  O  O42  1  0.44387400  0.64266300  0.49866900  1
  O  O43  1  0.55612600  0.64266300  0.99866900  1
  O  O44  1  0.04864200  0.64719700  0.00872000  1
  O  O45  1  0.95135800  0.64719700  0.50872000  1
  O  O46  1  0.29157600  0.67684500  0.25033400  1
  O  O47  1  0.70842400  0.67684500  0.75033400  1
  O  O48  1  0.49359600  0.73278000  0.64982000  1
  O  O49  1  0.50640400  0.73278000  0.14982000  1
  O  O50  1  0.24848500  0.74796900  0.57937400  1
  O  O51  1  0.75151500  0.74796900  0.07937400  1
  O  O52  1  0.92697400  0.74699000  0.87876500  1
  O  O53  1  0.07302600  0.74699000  0.37876500  1
  O  O54  1  0.42697400  0.75301000  0.87876500  1
  O  O55  1  0.57302600  0.75301000  0.37876500  1
  O  O56  1  0.25151500  0.75203100  0.07937400  1
  O  O57  1  0.74848500  0.75203100  0.57937400  1
  O  O58  1  0.00640400  0.76722000  0.14982000  1
  O  O59  1  0.99359600  0.76722000  0.64982000  1
  O  O60  1  0.20842400  0.82315500  0.75033400  1
  O  O61  1  0.79157600  0.82315500  0.25033400  1
  O  O62  1  0.45135800  0.85280300  0.50872000  1
  O  O63  1  0.54864200  0.85280300  0.00872000  1
  O  O64  1  0.05612600  0.85733700  0.99866900  1
  O  O65  1  0.94387400  0.85733700  0.49866900  1
  O  O66  1  0.33245100  0.88986600  0.21296400  1
  O  O67  1  0.66754900  0.88986600  0.71296400  1
  O  O68  1  0.08232200  0.95213400  0.37512400  1
  O  O69  1  0.91767800  0.95213400  0.87512400  1
  O  O70  1  0.42805700  0.95555400  0.88098500  1
  O  O71  1  0.57194300  0.95555400  0.38098500  1
loop_
_geom_bond_atom_site_label_1
_geom_bond_atom_site_label_2
_geom_bond_distance
_geom_bond_site_symmetry_2
Li0 O4 1.934099 1_555
Li0 O66 1.934099 1_545
Li0 O68 2.032622 1_545
Li0 O2 2.032622 1_555
Li1 O4 1.945987 1_555
Li1 O66 1.945987 1_545
Li1 O71 2.050026 1_545
Li1 O0 2.050026 1_555
Li2 O5 1.945987 1_555
Li2 O67 1.945987 1_545
Li2 O70 2.050026 1_545
Li2 O1 2.050026 1_555
Li3 O5 1.934099 1_555
Li3 O67 1.934099 1_545
Li3 O3 2.032622 1_555
Li3 O69 2.032622 1_545
Li4 O40 1.934099 1_555
Li4 O30 1.934099 1_555
Li4 O38 2.032622 1_555
Li4 O32 2.032622 1_555
Li5 O31 1.945987 1_555
Li5 O41 1.945987 1_555
Li5 O37 2.050026 1_455
Li5 O35 2.050026 1_455
Li6 O31 1.934099 1_555
Li6 O41 1.934099 1_555
Li6 O39 2.032622 1_555
Li6 O33 2.032622 1_555
Li7 O40 1.945987 1_555
Li7 O30 1.945987 1_555
Li7 O36 2.050026 1_655
Li7 O34 2.050026 1_655
B0 O6 1.366886 1_455
B0 O2 1.375299 1_555
B0 O18 1.403144 1_555
B1 O7 1.366886 1_655
B1 O3 1.375299 1_555
B1 O19 1.403144 1_555
B2 O9 1.367771 1_554
B2 O0 1.372786 1_555
B2 O17 1.399208 1_555
B3 O8 1.367771 1_555
B3 O1 1.372786 1_555
B3 O16 1.399208 1_555
B4 O7 1.469528 1_555
B4 O14 1.475007 1_555
B4 O26 1.478356 1_555
B4 O12 1.492290 1_555
B5 O6 1.469528 1_556
B5 O15 1.475007 1_555
B5 O27 1.478356 1_555
B5 O13 1.492290 1_555
B6 O29 1.469528 1_556
B6 O21 1.475007 1_555
B6 O9 1.478356 1_555
B6 O22 1.492290 1_555
B7 O28 1.469528 1_555
B7 O20 1.475007 1_555
B7 O8 1.478356 1_555
B7 O23 1.492290 1_555
B8 O27 1.367771 1_454
B8 O34 1.372786 1_555
B8 O18 1.399208 1_555
B9 O26 1.367771 1_655
B9 O35 1.372786 1_555
B9 O19 1.399208 1_555
B10 O29 1.366886 1_555
B10 O32 1.375299 1_555
B10 O17 1.403144 1_555
B11 O28 1.366886 1_555
B11 O33 1.375299 1_555
B11 O16 1.403144 1_555
B12 O43 1.366886 1_555
B12 O39 1.375299 1_555
B12 O54 1.403144 1_555
B13 O42 1.366886 1_555
B13 O38 1.375299 1_555
B13 O55 1.403144 1_555
B14 O45 1.367771 1_455
B14 O36 1.372786 1_555
B14 O53 1.399208 1_555
B15 O44 1.367771 1_656
B15 O37 1.372786 1_555
B15 O52 1.399208 1_555
B16 O42 1.469528 1_555
B16 O50 1.475007 1_555
B16 O62 1.478356 1_555
B16 O48 1.492290 1_555
B17 O43 1.469528 1_554
B17 O51 1.475007 1_555
B17 O63 1.478356 1_555
B17 O49 1.492290 1_555
B18 O64 1.469528 1_554
B18 O56 1.475007 1_555
B18 O44 1.478356 1_555
B18 O58 1.492290 1_555
B19 O65 1.469528 1_555
B19 O57 1.475007 1_555
B19 O45 1.478356 1_555
B19 O59 1.492290 1_555
B20 O63 1.367771 1_556
B20 O70 1.372786 1_555
B20 O54 1.399208 1_555
B21 O62 1.367771 1_555
B21 O71 1.372786 1_555
B21 O55 1.399208 1_555
B22 O65 1.366886 1_455
B22 O68 1.375299 1_555
B22 O53 1.403144 1_555
B23 O64 1.366886 1_655
B23 O69 1.375299 1_555
B23 O52 1.403144 1_555
H0 O2 0.991862 1_565
H1 O3 0.991862 1_565
H2 O71 0.999881 1_545
H3 O70 0.999881 1_545
H4 O11 0.997592 1_555
H5 O10 0.997592 1_555
H6 O24 0.997592 1_555
H7 O25 0.997592 1_555
H8 O36 0.999881 1_555
H9 O37 0.999881 1_555
H10 O32 0.991862 1_555
H11 O33 0.991862 1_555
H12 O39 0.991862 1_555
H13 O38 0.991862 1_555
H14 O34 0.999881 1_555
H15 O35 0.999881 1_555
H16 O47 0.997592 1_555
H17 O46 0.997592 1_555
H18 O60 0.997592 1_555
H19 O61 0.997592 1_555
H20 O1 0.999881 1_565
H21 O0 0.999881 1_565
H22 O68 0.991862 1_545
H23 O69 0.991862 1_545
O4 P0 1.507137 1_555
O5 P1 1.507137 1_555
O10 P3 1.578655 1_555
O11 P2 1.578655 1_555
O12 P3 1.557351 1_455
O13 P2 1.557351 1_655
O14 P0 1.562480 1_555
O15 P1 1.562480 1_555
O20 P3 1.562480 1_555
O21 P2 1.562480 1_555
O22 P1 1.557351 1_555
O23 P0 1.557351 1_555
O24 P0 1.578655 1_555
O25 P1 1.578655 1_555
O30 P3 1.507137 1_555
O31 P2 1.507137 1_555
O40 P5 1.507137 1_555
O41 P4 1.507137 1_555
O46 P6 1.578655 1_555
O47 P7 1.578655 1_555
O48 P7 1.557351 1_555
O49 P6 1.557351 1_555
O50 P4 1.562480 1_555
O51 P5 1.562480 1_555
O56 P6 1.562480 1_555
O57 P7 1.562480 1_555
O58 P5 1.557351 1_455
O59 P4 1.557351 1_655
O60 P4 1.578655 1_555
O61 P5 1.578655 1_555
O66 P6 1.507137 1_555
O67 P7 1.507137 1_555
