# generated using pymatgen
data_Sr2CdAs2
_symmetry_space_group_name_H-M   'P 1'
_cell_length_a   8.78287867
_cell_length_b   8.78287867
_cell_length_c   7.66288762
_cell_angle_alpha   90.00000000
_cell_angle_beta   90.00000000
_cell_angle_gamma   150.54367023
_symmetry_Int_Tables_number   1
_chemical_formula_structural   Sr2CdAs2
_chemical_formula_sum   'Sr4 Cd2 As4'
_cell_volume   290.68288332
_cell_formula_units_Z   2
loop_
 _symmetry_equiv_pos_site_id
 _symmetry_equiv_pos_as_xyz
  1  'x, y, z'
loop_
 _atom_site_type_symbol
 _atom_site_label
 _atom_site_symmetry_multiplicity
 _atom_site_fract_x
 _atom_site_fract_y
 _atom_site_fract_z
 _atom_site_occupancy
  Sr  Sr0  1  0.53448587  0.46551413  0.23554883  1
  Sr  Sr1  1  0.70294433  0.29705567  0.89203969  1
  Sr  Sr2  1  0.29705567  0.70294433  0.39203969  1
  Sr  Sr3  1  0.46551413  0.53448587  0.73554883  1
  Cd  Cd0  1  0.09575752  0.90424248  0.57889041  1
  Cd  Cd1  1  0.90424248  0.09575752  0.07889041  1
  As  As0  1  0.06271058  0.93728942  0.94064928  1
  As  As1  1  0.67495765  0.32504235  0.48723078  1
  As  As2  1  0.32504235  0.67495765  0.98723078  1
  As  As3  1  0.93728942  0.06271058  0.44064928  1
loop_
_geom_bond_atom_site_label_1
_geom_bond_atom_site_label_2
_geom_bond_distance
_geom_bond_site_symmetry_2
As0 Cd0 2.828397 1_555
As0 Cd1 2.893069 1_466
As0 Sr3 3.191008 1_455
As0 Sr3 3.191008 1_565
As0 Sr0 3.212846 1_456
As0 Sr0 3.212846 1_566
As0 Sr1 3.286382 1_455
As0 Sr1 3.286382 1_565
As1 Cd0 2.699916 1_545
As1 Cd0 2.699916 1_655
As1 Sr0 3.068311 1_555
As1 Sr2 3.133774 1_545
As1 Sr2 3.133774 1_655
As1 Sr1 3.138231 1_555
As2 Cd1 2.699916 1_456
As2 Cd1 2.699916 1_566
As2 Sr3 3.068311 1_555
As2 Sr1 3.133774 1_455
As2 Sr1 3.133774 1_565
As2 Sr2 3.138231 1_556
As3 Cd1 2.828397 1_555
As3 Cd0 2.893069 1_645
As3 Sr0 3.191008 1_545
As3 Sr0 3.191008 1_655
As3 Sr3 3.212846 1_545
As3 Sr3 3.212846 1_655
As3 Sr2 3.286382 1_545
As3 Sr2 3.286382 1_655
