# generated using pymatgen
data_Ba3Dy4O9
_symmetry_space_group_name_H-M   'P 1'
_cell_length_a   9.18208195
_cell_length_b   9.18208186
_cell_length_c   9.18208229
_cell_angle_alpha   38.84329647
_cell_angle_beta   38.84329331
_cell_angle_gamma   38.84329311
_symmetry_Int_Tables_number   1
_chemical_formula_structural   Ba3Dy4O9
_chemical_formula_sum   'Ba3 Dy4 O9'
_cell_volume   273.78500703
_cell_formula_units_Z   1
loop_
 _symmetry_equiv_pos_site_id
 _symmetry_equiv_pos_as_xyz
  1  'x, y, z'
loop_
 _atom_site_type_symbol
 _atom_site_label
 _atom_site_symmetry_multiplicity
 _atom_site_fract_x
 _atom_site_fract_y
 _atom_site_fract_z
 _atom_site_occupancy
  Ba  Ba0  1  0.99800089  0.99800089  0.99800089  1
  Ba  Ba1  1  0.16296458  0.16296458  0.16296458  1
  Ba  Ba2  1  0.57572906  0.57572906  0.57572906  1
  Dy  Dy0  1  0.42414711  0.42414711  0.42414711  1
  Dy  Dy1  1  0.86294580  0.86294580  0.86294580  1
  Dy  Dy2  1  0.73714577  0.73714577  0.73714577  1
  Dy  Dy3  1  0.29892906  0.29892906  0.29892906  1
  O  O0  1  0.45520929  0.58111673  0.04029201  1
  O  O1  1  0.58111673  0.04029201  0.45520929  1
  O  O2  1  0.04029201  0.45520929  0.58111673  1
  O  O3  1  0.58897228  0.69841137  0.12609011  1
  O  O4  1  0.69841137  0.12609011  0.58897228  1
  O  O5  1  0.12609011  0.58897228  0.69841137  1
  O  O6  1  0.02062848  0.57938781  0.14213266  1
  O  O7  1  0.14213266  0.02062848  0.57938781  1
  O  O8  1  0.57938781  0.14213266  0.02062848  1
loop_
_geom_bond_atom_site_label_1
_geom_bond_atom_site_label_2
_geom_bond_distance
_geom_bond_site_symmetry_2
Ba0 O0 2.760270 1_656
Ba0 O1 2.760271 1_566
Ba0 O2 2.760271 1_665
Ba0 O8 2.798078 1_566
Ba0 O6 2.798078 1_656
Ba0 O7 2.798078 1_665
Ba1 O3 2.793927 1_545
Ba1 O4 2.793927 1_455
Ba1 O5 2.793927 1_554
Ba1 O6 2.798318 1_555
Ba1 O8 2.798318 1_555
Ba1 O7 2.798319 1_555
Ba2 O7 2.685233 1_565
Ba2 O6 2.685233 1_655
Ba2 O8 2.685233 1_556
Dy0 O5 2.207115 1_555
Dy0 O3 2.207115 1_555
Dy0 O4 2.207115 1_555
Dy0 O2 2.396368 1_555
Dy0 O1 2.396368 1_555
Dy0 O0 2.396368 1_555
Dy1 O8 2.226953 1_566
Dy1 O7 2.226953 1_665
Dy1 O6 2.226953 1_656
Dy1 O5 2.283548 1_655
Dy1 O3 2.283548 1_556
Dy1 O4 2.283548 1_565
Dy2 O2 2.200635 1_655
Dy2 O0 2.200635 1_556
Dy2 O1 2.200635 1_565
Dy2 O5 2.436836 1_655
Dy2 O4 2.436836 1_565
Dy2 O3 2.436836 1_556
Dy3 O8 2.222419 1_555
Dy3 O7 2.222419 1_555
Dy3 O6 2.222419 1_555
Dy3 O2 2.304505 1_555
Dy3 O0 2.304505 1_555
Dy3 O1 2.304505 1_555
