# generated using pymatgen
data_K4Ge2Au7
_symmetry_space_group_name_H-M   'P 1'
_cell_length_a   10.06435023
_cell_length_b   10.06434921
_cell_length_c   10.06434940
_cell_angle_alpha   37.77582692
_cell_angle_beta   37.77583645
_cell_angle_gamma   37.77582811
_symmetry_Int_Tables_number   1
_chemical_formula_structural   K4Ge2Au7
_chemical_formula_sum   'K4 Ge2 Au7'
_cell_volume   343.24159949
_cell_formula_units_Z   1
loop_
 _symmetry_equiv_pos_site_id
 _symmetry_equiv_pos_as_xyz
  1  'x, y, z'
loop_
 _atom_site_type_symbol
 _atom_site_label
 _atom_site_symmetry_multiplicity
 _atom_site_fract_x
 _atom_site_fract_y
 _atom_site_fract_z
 _atom_site_occupancy
  K  K0  1  0.68259270  0.68259270  0.68259270  1
  K  K1  1  0.31740730  0.31740730  0.31740730  1
  K  K2  1  0.81040856  0.81040856  0.81040856  1
  K  K3  1  0.18959144  0.18959144  0.18959144  1
  Ge  Ge0  1  0.54501570  0.54501570  0.54501570  1
  Ge  Ge1  1  0.45498430  0.45498430  0.45498430  1
  Au  Au0  1  0.00000000  -0.00000000  -0.00000000  1
  Au  Au1  1  0.22317919  0.22317919  0.79467937  1
  Au  Au2  1  0.22317919  0.79467937  0.22317919  1
  Au  Au3  1  0.79467937  0.22317919  0.22317919  1
  Au  Au4  1  0.20532063  0.77682081  0.77682081  1
  Au  Au5  1  0.77682081  0.77682081  0.20532063  1
  Au  Au6  1  0.77682081  0.20532063  0.77682081  1
loop_
_geom_bond_atom_site_label_1
_geom_bond_atom_site_label_2
_geom_bond_distance
_geom_bond_site_symmetry_2
Au0 Au6 2.767905 1_454
Au0 Au2 2.767905 1_545
Au0 Au4 2.767905 1_544
Au0 Au3 2.767905 1_455
Au0 Au5 2.767905 1_445
Au0 Au1 2.767905 1_554
Au0 K0 3.788370 1_454
Au0 K1 3.788370 1_545
Au0 K0 3.788371 1_445
Au0 K1 3.788371 1_554
Au0 K1 3.788371 1_455
Au0 K0 3.788371 1_544
Au1 Ge1 2.441413 1_555
Au1 K1 3.448347 1_555
Au1 K3 3.458073 1_556
Au1 K2 3.720067 1_455
Au1 K2 3.720067 1_545
Au2 Ge1 2.441413 1_555
Au2 K1 3.448347 1_555
Au2 K3 3.458072 1_565
Au2 K2 3.720067 1_455
Au2 K2 3.720068 1_554
Au3 Ge1 2.441413 1_555
Au3 K1 3.448348 1_555
Au3 K3 3.458073 1_655
Au3 K2 3.720067 1_554
Au3 K2 3.720067 1_545
Au4 Ge0 2.441413 1_555
Au4 K0 3.448348 1_555
Au4 K2 3.458073 1_455
Au4 K3 3.720067 1_556
Au4 K3 3.720067 1_565
Au5 Ge0 2.441413 1_555
Au5 K0 3.448347 1_555
Au5 K2 3.458073 1_554
Au5 K3 3.720067 1_655
Au5 K3 3.720067 1_565
Au6 Ge0 2.441413 1_555
Au6 K0 3.448347 1_555
Au6 K2 3.458072 1_545
Au6 K3 3.720067 1_655
Au6 K3 3.720068 1_556
