# generated using pymatgen
data_CsGaH4
_symmetry_space_group_name_H-M   'P 1'
_cell_length_a   5.56457620
_cell_length_b   5.56457620
_cell_length_c   7.77417896
_cell_angle_alpha   90.00000000
_cell_angle_beta   90.00000000
_cell_angle_gamma   90.00000000
_symmetry_Int_Tables_number   1
_chemical_formula_structural   CsGaH4
_chemical_formula_sum   'Cs2 Ga2 H8'
_cell_volume   240.72362882
_cell_formula_units_Z   2
loop_
 _symmetry_equiv_pos_site_id
 _symmetry_equiv_pos_as_xyz
  1  'x, y, z'
loop_
 _atom_site_type_symbol
 _atom_site_label
 _atom_site_symmetry_multiplicity
 _atom_site_fract_x
 _atom_site_fract_y
 _atom_site_fract_z
 _atom_site_occupancy
  Cs  Cs0  1  0.25000000  0.74999900  0.25000000  1
  Cs  Cs1  1  0.74999900  0.25000000  0.75000100  1
  Ga  Ga0  1  0.74999900  0.25000000  0.25000000  1
  Ga  Ga1  1  0.25000000  0.74999900  0.75000100  1
  H  H0  1  0.74999900  0.01662844  0.13219397  1
  H  H1  1  0.74999900  0.48337156  0.13219397  1
  H  H2  1  0.51662744  0.25000000  0.36780503  1
  H  H3  1  0.98337256  0.25000000  0.36780503  1
  H  H4  1  0.01662844  0.74999900  0.63219397  1
  H  H5  1  0.48337156  0.74999900  0.63219397  1
  H  H6  1  0.25000000  0.51662744  0.86780603  1
  H  H7  1  0.25000000  0.98337256  0.86780603  1
loop_
_geom_bond_atom_site_label_1
_geom_bond_atom_site_label_2
_geom_bond_distance
_geom_bond_site_symmetry_2
Cs0 H4 3.242636 1_555
Cs0 H6 3.242636 1_554
Cs0 H5 3.242636 1_555
Cs0 H7 3.242641 1_554
Cs0 H3 3.283463 1_455
Cs0 H2 3.283463 1_555
Cs0 H1 3.283465 1_555
Cs0 H0 3.283470 1_565
Cs0 H3 3.283472 1_465
Cs0 H2 3.283472 1_565
Cs0 H1 3.283474 1_455
Cs0 H0 3.283479 1_465
Cs1 H1 3.242629 1_556
Cs1 H0 3.242629 1_556
Cs1 H2 3.242651 1_555
Cs1 H3 3.242655 1_555
Cs1 H7 3.283463 1_545
Cs1 H6 3.283463 1_555
Cs1 H5 3.283467 1_555
Cs1 H4 3.283472 1_655
Cs1 H6 3.283472 1_655
Cs1 H7 3.283472 1_645
Cs1 H5 3.283476 1_545
Cs1 H4 3.283481 1_645
Ga0 H2 1.589074 1_555
Ga0 H1 1.589078 1_555
Ga0 H0 1.589078 1_555
Ga0 H3 1.589083 1_555
Ga1 H6 1.589074 1_555
Ga1 H5 1.589083 1_555
Ga1 H4 1.589083 1_555
Ga1 H7 1.589083 1_555
