# generated using pymatgen
data_PrFeGe2
_symmetry_space_group_name_H-M   'P 1'
_cell_length_a   8.51237466
_cell_length_b   8.51237466
_cell_length_c   4.34717400
_cell_angle_alpha   90.00000000
_cell_angle_beta   90.00000000
_cell_angle_gamma   150.52071559
_symmetry_Int_Tables_number   1
_chemical_formula_structural   PrFeGe2
_chemical_formula_sum   'Pr2 Fe2 Ge4'
_cell_volume   155.01354764
_cell_formula_units_Z   2
loop_
 _symmetry_equiv_pos_site_id
 _symmetry_equiv_pos_as_xyz
  1  'x, y, z'
loop_
 _atom_site_type_symbol
 _atom_site_label
 _atom_site_symmetry_multiplicity
 _atom_site_fract_x
 _atom_site_fract_y
 _atom_site_fract_z
 _atom_site_occupancy
  Pr  Pr0  1  0.10584200  0.89415800  0.25000000  1
  Pr  Pr1  1  0.89415800  0.10584200  0.75000000  1
  Fe  Fe0  1  0.31285000  0.68715000  0.25000000  1
  Fe  Fe1  1  0.68715000  0.31285000  0.75000000  1
  Ge  Ge0  1  0.54606600  0.45393400  0.75000000  1
  Ge  Ge1  1  0.74831100  0.25168900  0.25000000  1
  Ge  Ge2  1  0.45393400  0.54606600  0.25000000  1
  Ge  Ge3  1  0.25168900  0.74831100  0.75000000  1
loop_
_geom_bond_atom_site_label_1
_geom_bond_atom_site_label_2
_geom_bond_distance
_geom_bond_site_symmetry_2
Fe0 Ge2 2.322877 1_555
Fe0 Ge3 2.395517 1_555
Fe0 Ge3 2.395517 1_554
Fe0 Ge1 2.412410 1_565
Fe0 Ge1 2.412410 1_455
Fe0 Pr1 3.347713 1_565
Fe0 Pr1 3.347713 1_564
Fe0 Pr1 3.347713 1_455
Fe0 Pr1 3.347713 1_454
Fe0 Pr0 3.408283 1_555
Fe1 Ge0 2.322877 1_555
Fe1 Ge1 2.395517 1_555
Fe1 Ge1 2.395517 1_556
Fe1 Ge3 2.412410 1_655
Fe1 Ge3 2.412410 1_545
Fe1 Pr0 3.347713 1_656
Fe1 Pr0 3.347713 1_655
Fe1 Pr0 3.347713 1_545
Fe1 Pr0 3.347713 1_546
Fe1 Pr1 3.408283 1_555
Ge0 Ge2 2.650564 1_555
Ge0 Ge2 2.650564 1_556
Ge0 Pr0 3.222374 1_656
Ge0 Pr0 3.222374 1_655
Ge0 Pr0 3.222374 1_546
Ge0 Pr0 3.222374 1_545
Ge0 Pr1 3.308481 1_455
Ge0 Pr1 3.308481 1_565
Ge1 Pr0 3.192619 1_655
Ge1 Pr0 3.192619 1_545
Ge1 Pr1 3.238937 1_554
Ge1 Pr1 3.238937 1_555
Ge2 Pr1 3.222374 1_564
Ge2 Pr1 3.222374 1_455
Ge2 Pr1 3.222374 1_454
Ge2 Pr1 3.222374 1_565
Ge2 Pr0 3.308481 1_655
Ge2 Pr0 3.308481 1_545
Ge3 Pr1 3.192619 1_565
Ge3 Pr1 3.192619 1_455
Ge3 Pr0 3.238937 1_555
Ge3 Pr0 3.238937 1_556
