# generated using pymatgen
data_MgAgF3
_symmetry_space_group_name_H-M   'P 1'
_cell_length_a   5.52601478
_cell_length_b   5.52601478
_cell_length_c   5.52601384
_cell_angle_alpha   59.86917556
_cell_angle_beta   59.86917556
_cell_angle_gamma   59.86918220
_symmetry_Int_Tables_number   1
_chemical_formula_structural   MgAgF3
_chemical_formula_sum   'Mg2 Ag2 F6'
_cell_volume   118.96793830
_cell_formula_units_Z   2
loop_
 _symmetry_equiv_pos_site_id
 _symmetry_equiv_pos_as_xyz
  1  'x, y, z'
loop_
 _atom_site_type_symbol
 _atom_site_label
 _atom_site_symmetry_multiplicity
 _atom_site_fract_x
 _atom_site_fract_y
 _atom_site_fract_z
 _atom_site_occupancy
  Mg  Mg0  1  -0.00000000  0.00000000  0.00000000  1
  Mg  Mg1  1  0.50000000  0.50000000  0.50000000  1
  Ag  Ag0  1  0.25000000  0.25000000  0.25000000  1
  Ag  Ag1  1  0.75000000  0.75000000  0.75000000  1
  F  F0  1  0.81157640  0.25000000  0.68842360  1
  F  F1  1  0.68842360  0.81157640  0.25000000  1
  F  F2  1  0.25000000  0.68842360  0.81157640  1
  F  F3  1  0.31157640  0.18842360  0.75000000  1
  F  F4  1  0.18842360  0.75000000  0.31157640  1
  F  F5  1  0.75000000  0.31157640  0.18842360  1
loop_
_geom_bond_atom_site_label_1
_geom_bond_atom_site_label_2
_geom_bond_distance
_geom_bond_site_symmetry_2
Ag0 F0 2.417943 1_455
Ag0 F2 2.417943 1_554
Ag0 F1 2.417943 1_545
Ag1 F5 2.417943 1_556
Ag1 F4 2.417943 1_655
Ag1 F3 2.417943 1_565
F0 Mg0 1.981133 1_656
F0 Mg1 1.981133 1_555
F1 Mg0 1.981133 1_665
F1 Mg1 1.981133 1_555
F2 Mg1 1.981133 1_555
F2 Mg0 1.981133 1_566
F3 Mg1 1.981133 1_555
F3 Mg0 1.981133 1_556
F4 Mg0 1.981133 1_565
F4 Mg1 1.981133 1_555
F5 Mg1 1.981133 1_555
F5 Mg0 1.981133 1_655
