# generated using pymatgen
data_Sm2(CuAs)3
_symmetry_space_group_name_H-M   'P 1'
_cell_length_a   4.03907908
_cell_length_b   11.11177646
_cell_length_c   13.38548213
_cell_angle_alpha   90.00000000
_cell_angle_beta   90.00000000
_cell_angle_gamma   90.00000000
_symmetry_Int_Tables_number   1
_chemical_formula_structural   Sm2(CuAs)3
_chemical_formula_sum   'Sm8 Cu12 As12'
_cell_volume   600.75842596
_cell_formula_units_Z   4
loop_
 _symmetry_equiv_pos_site_id
 _symmetry_equiv_pos_as_xyz
  1  'x, y, z'
loop_
 _atom_site_type_symbol
 _atom_site_label
 _atom_site_symmetry_multiplicity
 _atom_site_fract_x
 _atom_site_fract_y
 _atom_site_fract_z
 _atom_site_occupancy
  Sm  Sm0  1  0.25000000  0.93181487  0.79600618  1
  Sm  Sm1  1  0.75000000  0.43181487  0.70399382  1
  Sm  Sm2  1  0.25000000  0.56818513  0.29600618  1
  Sm  Sm3  1  0.75000000  0.06818513  0.20399382  1
  Sm  Sm4  1  0.25000000  0.84185175  0.50248777  1
  Sm  Sm5  1  0.75000000  0.34185175  0.99751223  1
  Sm  Sm6  1  0.25000000  0.65814825  0.00248777  1
  Sm  Sm7  1  0.75000000  0.15814825  0.49751223  1
  Cu  Cu0  1  0.25000000  0.39360155  0.51281950  1
  Cu  Cu1  1  0.75000000  0.89360155  0.98718050  1
  Cu  Cu2  1  0.25000000  0.10639845  0.01281950  1
  Cu  Cu3  1  0.75000000  0.60639845  0.48718050  1
  Cu  Cu4  1  0.25000000  0.27693283  0.33318489  1
  Cu  Cu5  1  0.75000000  0.77693283  0.16681511  1
  Cu  Cu6  1  0.25000000  0.22306717  0.83318489  1
  Cu  Cu7  1  0.75000000  0.72306717  0.66681511  1
  Cu  Cu8  1  0.25000000  0.85671604  0.27502129  1
  Cu  Cu9  1  0.75000000  0.35671604  0.22497871  1
  Cu  Cu10  1  0.25000000  0.64328396  0.77502129  1
  Cu  Cu11  1  0.75000000  0.14328396  0.72497871  1
  As  As0  1  0.25000000  0.23704107  0.64588018  1
  As  As1  1  0.75000000  0.73704107  0.85411982  1
  As  As2  1  0.25000000  0.26295893  0.14588018  1
  As  As3  1  0.75000000  0.76295893  0.35411982  1
  As  As4  1  0.25000000  0.60019847  0.59610517  1
  As  As5  1  0.75000000  0.10019847  0.90389483  1
  As  As6  1  0.25000000  0.89980153  0.09610517  1
  As  As7  1  0.75000000  0.39980153  0.40389483  1
  As  As8  1  0.25000000  0.05805479  0.36634482  1
  As  As9  1  0.75000000  0.55805479  0.13365518  1
  As  As10  1  0.25000000  0.44194521  0.86634482  1
  As  As11  1  0.75000000  0.94194521  0.63365518  1
loop_
_geom_bond_atom_site_label_1
_geom_bond_atom_site_label_2
_geom_bond_distance
_geom_bond_site_symmetry_2
Cu0 Sm7 3.311430 1_555
Cu0 Sm7 3.311430 1_455
Cu1 Sm6 3.311430 1_556
Cu1 Sm6 3.311430 1_656
Cu2 Sm5 3.311430 1_454
Cu2 Sm5 3.311430 1_554
Cu3 Sm4 3.311430 1_555
Cu3 Sm4 3.311430 1_655
Cu4 Cu9 2.638621 1_555
Cu4 Cu9 2.638621 1_455
Cu4 Sm7 3.264803 1_555
Cu4 Sm7 3.264803 1_455
Cu5 Cu8 2.638621 1_655
Cu5 Cu8 2.638621 1_555
Cu5 Sm6 3.264803 1_555
Cu5 Sm6 3.264803 1_655
Cu6 Sm5 3.264803 1_455
Cu6 Sm5 3.264803 1_555
Cu7 Sm4 3.264803 1_555
Cu7 Sm4 3.264803 1_655
Cu8 Sm4 3.049225 1_555
Cu8 Sm2 3.218372 1_555
Cu8 Sm3 3.240986 1_565
Cu8 Sm3 3.240986 1_465
Cu9 Sm5 3.049225 1_554
Cu9 Sm3 3.218372 1_555
Cu9 Sm2 3.240986 1_555
Cu9 Sm2 3.240986 1_655
Cu10 Cu7 2.638621 1_555
Cu10 Cu7 2.638621 1_455
Cu10 Sm6 3.049225 1_556
Cu10 Sm0 3.218372 1_555
Cu10 Sm1 3.240986 1_555
Cu10 Sm1 3.240986 1_455
Cu11 Cu6 2.638621 1_555
Cu11 Cu6 2.638621 1_655
Cu11 Sm7 3.049225 1_555
Cu11 Sm1 3.218372 1_555
Cu11 Sm0 3.240986 1_545
Cu11 Sm0 3.240986 1_645
As0 Cu0 2.489716 1_555
As0 Cu11 2.506971 1_555
As0 Cu11 2.506971 1_455
As0 Cu6 2.511968 1_555
As0 Sm7 2.964986 1_555
As0 Sm7 2.964986 1_455
As0 Sm1 3.060679 1_555
As0 Sm1 3.060679 1_455
As1 Cu1 2.489716 1_555
As1 Cu10 2.506971 1_655
As1 Cu10 2.506971 1_555
As1 Cu7 2.511968 1_555
As1 Sm6 2.964986 1_556
As1 Sm6 2.964986 1_656
As1 Sm0 3.060679 1_555
As1 Sm0 3.060679 1_655
As2 Cu2 2.489716 1_555
As2 Cu9 2.506971 1_455
As2 Cu9 2.506971 1_555
As2 Cu4 2.511968 1_555
As2 Sm5 2.964986 1_454
As2 Sm5 2.964986 1_554
As2 Sm3 3.060679 1_555
As2 Sm3 3.060679 1_455
As3 Cu3 2.489716 1_555
As3 Cu8 2.506971 1_655
As3 Cu8 2.506971 1_555
As3 Cu5 2.511968 1_555
As3 Sm4 2.964986 1_555
As3 Sm4 2.964986 1_655
As3 Sm2 3.060679 1_555
As3 Sm2 3.060679 1_655
As4 Cu10 2.442263 1_555
As4 Cu3 2.491802 1_455
As4 Cu3 2.491802 1_555
As4 Cu0 2.552033 1_555
As4 Cu7 2.615032 1_455
As4 Cu7 2.615032 1_555
As4 Sm4 2.963204 1_555
As4 Sm1 3.108839 1_555
As4 Sm1 3.108839 1_455
As5 Cu11 2.442263 1_555
As5 Cu2 2.491802 1_556
As5 Cu2 2.491802 1_656
As5 Cu1 2.552033 1_545
As5 Cu6 2.615032 1_555
As5 Cu6 2.615032 1_655
As5 Sm5 2.963204 1_555
As5 Sm0 3.108839 1_645
As5 Sm0 3.108839 1_545
As6 Cu8 2.442263 1_555
As6 Cu1 2.491802 1_554
As6 Cu1 2.491802 1_454
As6 Cu2 2.552033 1_565
As6 Cu5 2.615032 1_555
As6 Cu5 2.615032 1_455
As6 Sm6 2.963204 1_555
As6 Sm3 3.108839 1_565
As6 Sm3 3.108839 1_465
As7 Cu9 2.442263 1_555
As7 Cu0 2.491802 1_655
As7 Cu0 2.491802 1_555
As7 Cu3 2.552033 1_555
As7 Cu4 2.615032 1_555
As7 Cu4 2.615032 1_655
As7 Sm7 2.963204 1_555
As7 Sm2 3.108839 1_555
As7 Sm2 3.108839 1_655
As8 Cu4 2.472294 1_555
As8 Cu8 2.549409 1_545
As8 Sm7 2.897962 1_555
As8 Sm7 2.897962 1_455
As8 Sm3 2.968800 1_455
As8 Sm3 2.968800 1_555
As8 Sm4 3.015368 1_545
As9 Cu5 2.472294 1_555
As9 Cu9 2.549409 1_555
As9 Sm6 2.897962 1_555
As9 Sm6 2.897962 1_655
As9 Sm2 2.968800 1_555
As9 Sm2 2.968800 1_655
As9 Sm5 3.015368 1_554
As10 Cu6 2.472294 1_555
As10 Cu10 2.549409 1_555
As10 Sm5 2.897962 1_455
As10 Sm5 2.897962 1_555
As10 Sm1 2.968800 1_555
As10 Sm1 2.968800 1_455
As10 Sm6 3.015368 1_556
As11 Cu7 2.472294 1_555
As11 Cu11 2.549409 1_565
As11 Sm4 2.897962 1_555
As11 Sm4 2.897962 1_655
As11 Sm0 2.968800 1_655
As11 Sm0 2.968800 1_555
As11 Sm7 3.015368 1_565
