# generated using pymatgen
data_SrEu2Al2O7
_symmetry_space_group_name_H-M   'P 1'
_cell_length_a   10.26132656
_cell_length_b   10.26132656
_cell_length_c   10.26132656
_cell_angle_alpha   159.10063022
_cell_angle_beta   159.10063022
_cell_angle_gamma   29.72482099
_symmetry_Int_Tables_number   1
_chemical_formula_structural   SrEu2Al2O7
_chemical_formula_sum   'Sr1 Eu2 Al2 O7'
_cell_volume   137.41459648
_cell_formula_units_Z   1
loop_
 _symmetry_equiv_pos_site_id
 _symmetry_equiv_pos_as_xyz
  1  'x, y, z'
loop_
 _atom_site_type_symbol
 _atom_site_label
 _atom_site_symmetry_multiplicity
 _atom_site_fract_x
 _atom_site_fract_y
 _atom_site_fract_z
 _atom_site_occupancy
  Sr  Sr0  1  0.50000000  0.50000000  -0.00000000  1
  Eu  Eu0  1  0.31867616  0.31867616  -0.00000000  1
  Eu  Eu1  1  0.68132384  0.68132384  0.00000000  1
  Al  Al0  1  0.90539746  0.90539746  -0.00000000  1
  Al  Al1  1  0.09460254  0.09460254  0.00000000  1
  O  O0  1  -0.00000000  -0.00000000  0.00000000  1
  O  O1  1  0.39798081  0.89798081  0.50000000  1
  O  O2  1  0.89798081  0.39798081  0.50000000  1
  O  O3  1  0.79975876  0.79975876  -0.00000000  1
  O  O4  1  0.20024124  0.20024124  0.00000000  1
  O  O5  1  0.10201919  0.60201919  0.50000000  1
  O  O6  1  0.60201919  0.10201919  0.50000000  1
loop_
_geom_bond_atom_site_label_1
_geom_bond_atom_site_label_2
_geom_bond_distance
_geom_bond_site_symmetry_2
Eu0 O4 2.349282 1_555
Eu0 O2 2.436878 1_454
Eu0 O2 2.436878 1_555
Eu0 O1 2.436878 1_544
Eu0 O1 2.436878 1_555
Eu0 O3 2.658632 1_556
Eu0 O3 2.658632 1_545
Eu0 O3 2.658632 1_455
Eu0 O3 2.658632 1_444
Eu1 O3 2.349282 1_555
Eu1 O6 2.436878 1_565
Eu1 O5 2.436878 1_554
Eu1 O6 2.436878 1_554
Eu1 O5 2.436878 1_655
Eu1 O4 2.658632 1_554
Eu1 O4 2.658632 1_655
Eu1 O4 2.658632 1_565
Eu1 O4 2.658632 1_666
Al0 O2 1.866923 1_554
Al0 O2 1.866923 1_565
Al0 O1 1.866923 1_554
Al0 O1 1.866923 1_655
Al0 O0 1.876542 1_665
Al0 O3 2.095455 1_555
Al1 O5 1.866923 1_544
Al1 O6 1.866923 1_454
Al1 O5 1.866923 1_555
Al1 O6 1.866923 1_555
Al1 O0 1.876542 1_555
Al1 O4 2.095455 1_555
O0 Sr0 2.632017 1_455
O0 Sr0 2.632017 1_556
O0 Sr0 2.632017 1_444
O0 Sr0 2.632017 1_545
O1 Sr0 2.749355 1_555
O1 Sr0 2.749355 1_566
O2 Sr0 2.749355 1_555
O2 Sr0 2.749355 1_656
O5 Sr0 2.749355 1_455
O5 Sr0 2.749355 1_556
O6 Sr0 2.749355 1_545
O6 Sr0 2.749355 1_556
