# generated using pymatgen
data_KNO3
_symmetry_space_group_name_H-M   'P 1'
_cell_length_a   5.56306744
_cell_length_b   6.71251908
_cell_length_c   7.42782769
_cell_angle_alpha   90.00000000
_cell_angle_beta   90.00000000
_cell_angle_gamma   90.00000000
_symmetry_Int_Tables_number   1
_chemical_formula_structural   KNO3
_chemical_formula_sum   'K4 N4 O12'
_cell_volume   277.37139994
_cell_formula_units_Z   4
loop_
 _symmetry_equiv_pos_site_id
 _symmetry_equiv_pos_as_xyz
  1  'x, y, z'
loop_
 _atom_site_type_symbol
 _atom_site_label
 _atom_site_symmetry_multiplicity
 _atom_site_fract_x
 _atom_site_fract_y
 _atom_site_fract_z
 _atom_site_occupancy
  K  K0  1  0.25000000  0.81096209  0.98327573  1
  K  K1  1  0.75000000  0.18903791  0.01672427  1
  K  K2  1  0.75000000  0.31096209  0.51672427  1
  K  K3  1  0.25000000  0.68903791  0.48327573  1
  N  N0  1  0.25000000  0.36982075  0.84774466  1
  N  N1  1  0.75000000  0.63017925  0.15225534  1
  N  N2  1  0.75000000  0.86982075  0.65225534  1
  N  N3  1  0.25000000  0.13017925  0.34774466  1
  O  O0  1  0.55387804  0.94842763  0.70066598  1
  O  O1  1  0.05387804  0.05157237  0.29933402  1
  O  O2  1  0.44612196  0.44842763  0.79933402  1
  O  O3  1  0.94612196  0.55157237  0.20066598  1
  O  O4  1  0.25000000  0.28167987  0.44664801  1
  O  O5  1  0.75000000  0.71832013  0.55335199  1
  O  O6  1  0.75000000  0.78167987  0.05335199  1
  O  O7  1  0.25000000  0.21832013  0.94664801  1
  O  O8  1  0.44612196  0.05157237  0.29933402  1
  O  O9  1  0.94612196  0.94842763  0.70066598  1
  O  O10  1  0.55387804  0.55157237  0.20066598  1
  O  O11  1  0.05387804  0.44842763  0.79933402  1
loop_
_geom_bond_atom_site_label_1
_geom_bond_atom_site_label_2
_geom_bond_distance
_geom_bond_site_symmetry_2
K0 O7 2.747900 1_565
K0 O6 2.836635 1_556
K0 O6 2.836635 1_456
K0 O9 2.848818 1_455
K0 O0 2.848818 1_555
K0 O10 2.914924 1_556
K0 O3 2.914924 1_456
K0 O11 2.996519 1_555
K0 O2 2.996519 1_555
K0 O1 3.051273 1_566
K0 O8 3.051273 1_566
K1 O6 2.747900 1_545
K1 O7 2.836635 1_554
K1 O7 2.836635 1_654
K1 O8 2.848818 1_555
K1 O1 2.848818 1_655
K1 O11 2.914924 1_654
K1 O2 2.914924 1_554
K1 O10 2.996519 1_555
K1 O3 2.996519 1_555
K1 O9 3.051273 1_544
K1 O0 3.051273 1_544
K2 O5 2.747900 1_555
K2 O4 2.836635 1_555
K2 O4 2.836635 1_655
K2 O2 2.848818 1_555
K2 O11 2.848818 1_655
K2 O1 2.914924 1_655
K2 O8 2.914924 1_555
K2 O0 2.996519 1_545
K2 O9 2.996519 1_545
K2 O3 3.051273 1_555
K2 O10 3.051273 1_555
K3 O4 2.747900 1_555
K3 O5 2.836635 1_455
K3 O5 2.836635 1_555
K3 O10 2.848818 1_555
K3 O3 2.848818 1_455
K3 O0 2.914924 1_555
K3 O9 2.914924 1_455
K3 O1 2.996519 1_565
K3 O8 2.996519 1_565
K3 O11 3.051273 1_555
K3 O2 3.051273 1_555
N0 O7 1.254544 1_555
N0 O2 1.264154 1_555
N0 O11 1.264154 1_555
N1 O6 1.254544 1_555
N1 O10 1.264154 1_555
N1 O3 1.264154 1_555
N2 O5 1.254544 1_555
N2 O0 1.264154 1_555
N2 O9 1.264154 1_555
N3 O4 1.254544 1_555
N3 O8 1.264154 1_555
N3 O1 1.264154 1_555
