# generated using pymatgen
data_PW4Cl11
_symmetry_space_group_name_H-M   'P 1'
_cell_length_a   8.58400039
_cell_length_b   8.58400039
_cell_length_c   11.43802114
_cell_angle_alpha   90.00000000
_cell_angle_beta   90.00000000
_cell_angle_gamma   109.09021816
_symmetry_Int_Tables_number   1
_chemical_formula_structural   PW4Cl11
_chemical_formula_sum   'P2 W8 Cl22'
_cell_volume   796.46069771
_cell_formula_units_Z   2
loop_
 _symmetry_equiv_pos_site_id
 _symmetry_equiv_pos_as_xyz
  1  'x, y, z'
loop_
 _atom_site_type_symbol
 _atom_site_label
 _atom_site_symmetry_multiplicity
 _atom_site_fract_x
 _atom_site_fract_y
 _atom_site_fract_z
 _atom_site_occupancy
  P  P0  1  0.67482538  0.32517462  0.25000000  1
  P  P1  1  0.32517462  0.67482538  0.75000000  1
  W  W0  1  0.64614069  0.09444526  0.37208565  1
  W  W1  1  0.09444526  0.64614069  0.62791435  1
  W  W2  1  0.35385931  0.90555474  0.62791435  1
  W  W3  1  0.90555474  0.35385931  0.37208565  1
  W  W4  1  0.64614069  0.09444526  0.12791435  1
  W  W5  1  0.09444526  0.64614069  0.87208565  1
  W  W6  1  0.35385931  0.90555474  0.87208565  1
  W  W7  1  0.90555474  0.35385931  0.12791435  1
  Cl  Cl0  1  0.87247187  0.12752813  0.99526221  1
  Cl  Cl1  1  0.12752813  0.87247187  0.00473779  1
  Cl  Cl2  1  0.48043301  0.17993249  0.98606095  1
  Cl  Cl3  1  0.17993249  0.48043301  0.01393905  1
  Cl  Cl4  1  0.51956699  0.82006751  0.01393905  1
  Cl  Cl5  1  0.82006751  0.51956699  0.98606095  1
  Cl  Cl6  1  0.87247187  0.12752813  0.50473779  1
  Cl  Cl7  1  0.12752813  0.87247187  0.49526221  1
  Cl  Cl8  1  0.48043301  0.17993249  0.51393905  1
  Cl  Cl9  1  0.17993249  0.48043301  0.48606095  1
  Cl  Cl10  1  0.51956699  0.82006751  0.48606095  1
  Cl  Cl11  1  0.82006751  0.51956699  0.51393905  1
  Cl  Cl12  1  0.75644000  0.92670156  0.25000000  1
  Cl  Cl13  1  0.92670156  0.75644000  0.75000000  1
  Cl  Cl14  1  0.24356000  0.07329844  0.75000000  1
  Cl  Cl15  1  0.07329844  0.24356000  0.25000000  1
  Cl  Cl16  1  0.53042440  0.46957560  0.25000000  1
  Cl  Cl17  1  0.46957560  0.53042440  0.75000000  1
  Cl  Cl18  1  0.39275354  0.98639145  0.25000000  1
  Cl  Cl19  1  0.98639145  0.39275354  0.75000000  1
  Cl  Cl20  1  0.60724646  0.01360855  0.75000000  1
  Cl  Cl21  1  0.01360855  0.60724646  0.25000000  1
loop_
_geom_bond_atom_site_label_1
_geom_bond_atom_site_label_2
_geom_bond_distance
_geom_bond_site_symmetry_2
P0 W3 2.369455 1_555
P0 W0 2.369455 1_555
P0 W7 2.369455 1_555
P0 W4 2.369455 1_555
P1 W6 2.369455 1_555
P1 W5 2.369455 1_555
P1 W1 2.369455 1_555
P1 W2 2.369455 1_555
Cl0 W7 2.407584 1_556
Cl0 W4 2.407584 1_556
Cl1 W6 2.407584 1_554
Cl1 W5 2.407584 1_554
Cl2 W4 2.424287 1_556
Cl2 W6 2.598725 1_545
Cl3 W5 2.424287 1_554
Cl3 W7 2.598725 1_455
Cl4 W6 2.424287 1_554
Cl4 W4 2.598725 1_565
Cl5 W7 2.424287 1_556
Cl5 W5 2.598725 1_655
Cl6 W3 2.407584 1_555
Cl6 W0 2.407584 1_555
Cl7 W2 2.407584 1_555
Cl7 W1 2.407584 1_555
Cl8 W0 2.424287 1_555
Cl8 W2 2.598725 1_545
Cl9 W1 2.424287 1_555
Cl9 W3 2.598725 1_455
Cl10 W2 2.424287 1_555
Cl10 W0 2.598725 1_565
Cl11 W3 2.424287 1_555
Cl11 W1 2.598725 1_655
Cl12 W0 2.410715 1_565
Cl12 W4 2.410715 1_565
Cl13 W5 2.410715 1_655
Cl13 W1 2.410715 1_655
Cl14 W6 2.410715 1_545
Cl14 W2 2.410715 1_545
Cl15 W7 2.410715 1_455
Cl15 W3 2.410715 1_455
Cl16 P0 2.019387 1_555
Cl17 P1 2.019387 1_555
Cl18 W0 2.494316 1_565
Cl18 W4 2.494316 1_565
Cl19 W1 2.494316 1_655
Cl19 W5 2.494316 1_655
Cl20 W2 2.494316 1_545
Cl20 W6 2.494316 1_545
Cl21 W7 2.494316 1_455
Cl21 W3 2.494316 1_455
