# generated using pymatgen
data_KBeH3
_symmetry_space_group_name_H-M   'P 1'
_cell_length_a   5.49743800
_cell_length_b   6.86125800
_cell_length_c   9.04422010
_cell_angle_alpha   74.10853320
_cell_angle_beta   90.00000000
_cell_angle_gamma   90.00000000
_symmetry_Int_Tables_number   1
_chemical_formula_structural   KBeH3
_chemical_formula_sum   'K4 Be4 H12'
_cell_volume   328.10428560
_cell_formula_units_Z   4
loop_
 _symmetry_equiv_pos_site_id
 _symmetry_equiv_pos_as_xyz
  1  'x, y, z'
loop_
 _atom_site_type_symbol
 _atom_site_label
 _atom_site_symmetry_multiplicity
 _atom_site_fract_x
 _atom_site_fract_y
 _atom_site_fract_z
 _atom_site_occupancy
  K  K0  1  0.24859200  0.76907600  0.69821500  1
  K  K1  1  0.74859200  0.23092400  0.80178500  1
  K  K2  1  0.25140800  0.76907600  0.19821500  1
  K  K3  1  0.75140800  0.23092400  0.30178500  1
  Be  Be0  1  0.25594100  0.24589000  0.50297100  1
  Be  Be1  1  0.75594100  0.75411000  0.99702900  1
  Be  Be2  1  0.24405900  0.24589000  0.00297100  1
  Be  Be3  1  0.74405900  0.75411000  0.49702900  1
  H  H0  1  0.02716200  0.18277800  0.56647200  1
  H  H1  1  0.46707900  0.16114400  0.58052600  1
  H  H2  1  0.72594100  0.62433300  0.64614200  1
  H  H3  1  0.22594100  0.37566700  0.85385800  1
  H  H4  1  0.96707900  0.83885600  0.91947400  1
  H  H5  1  0.52716200  0.81722200  0.93352800  1
  H  H6  1  0.47283800  0.18277800  0.06647200  1
  H  H7  1  0.03292100  0.16114400  0.08052600  1
  H  H8  1  0.77405900  0.62433300  0.14614200  1
  H  H9  1  0.27405900  0.37566700  0.35385800  1
  H  H10  1  0.53292100  0.83885600  0.41947400  1
  H  H11  1  0.97283800  0.81722200  0.43352800  1
loop_
_geom_bond_atom_site_label_1
_geom_bond_atom_site_label_2
_geom_bond_distance
_geom_bond_site_symmetry_2
Be0 H1 1.397859 1_555
Be0 H0 1.401058 1_555
Be0 H9 1.401400 1_555
Be1 H4 1.397859 1_555
Be1 H5 1.401058 1_555
Be1 H8 1.401400 1_556
Be2 H7 1.397859 1_555
Be2 H6 1.401058 1_555
Be2 H3 1.401400 1_554
Be3 H10 1.397859 1_555
Be3 H11 1.401058 1_555
Be3 H2 1.401400 1_555
H0 K1 2.714538 1_455
H0 K3 2.775758 1_455
H1 K1 2.674591 1_555
H1 K0 2.871258 1_545
H1 K3 2.892555 1_555
H2 K1 2.683714 1_555
H2 K0 2.889746 1_555
H3 K0 2.683714 1_555
H3 K1 2.889746 1_455
H4 K0 2.674591 1_655
H4 K1 2.871258 1_565
H4 K2 2.892555 1_656
H5 K0 2.714538 1_555
H5 K2 2.775758 1_556
H6 K3 2.714538 1_555
H6 K1 2.775758 1_554
H7 K3 2.674591 1_455
H7 K2 2.871258 1_545
H7 K1 2.892555 1_454
H8 K3 2.683714 1_555
H8 K2 2.889746 1_655
H9 K2 2.683714 1_555
H9 K3 2.889746 1_555
H10 K2 2.674591 1_555
H10 K3 2.871258 1_565
H10 K0 2.892555 1_555
H11 K2 2.714538 1_655
H11 K0 2.775758 1_655
