# generated using pymatgen
data_Lu2Ni12As7
_symmetry_space_group_name_H-M   'P 1'
_cell_length_a   9.26638637
_cell_length_b   9.26639121
_cell_length_c   3.76305079
_cell_angle_alpha   89.99999465
_cell_angle_beta   89.99997608
_cell_angle_gamma   119.99652343
_symmetry_Int_Tables_number   1
_chemical_formula_structural   Lu2Ni12As7
_chemical_formula_sum   'Lu2 Ni12 As7'
_cell_volume   279.83817572
_cell_formula_units_Z   1
loop_
 _symmetry_equiv_pos_site_id
 _symmetry_equiv_pos_as_xyz
  1  'x, y, z'
loop_
 _atom_site_type_symbol
 _atom_site_label
 _atom_site_symmetry_multiplicity
 _atom_site_fract_x
 _atom_site_fract_y
 _atom_site_fract_z
 _atom_site_occupancy
  Lu  Lu0  1  0.66667351  0.33332819  1.00000125  1
  Lu  Lu1  1  0.00000329  0.00000656  0.50000049  1
  Ni  Ni0  1  0.48592189  0.94736242  0.99999914  1
  Ni  Ni1  1  0.05268558  0.53856389  0.00000017  1
  Ni  Ni2  1  0.46141483  0.51405152  -0.00000170  1
  Ni  Ni3  1  0.71138598  0.09411128  0.49999936  1
  Ni  Ni4  1  0.90590971  0.61729869  0.50000088  1
  Ni  Ni5  1  0.38270624  0.28861166  0.50000063  1
  Ni  Ni6  1  0.77284460  0.72535938  -0.00000065  1
  Ni  Ni7  1  0.27463842  0.04754971  -0.00000042  1
  Ni  Ni8  1  0.95247518  0.22712377  -0.00000019  1
  Ni  Ni9  1  0.54444942  0.76223057  0.49999949  1
  Ni  Ni10  1  0.23778263  0.78223962  0.49999910  1
  Ni  Ni11  1  0.21777349  0.45548932  0.49999759  1
  As  As0  1  0.33334841  0.66667669  1.00000012  1
  As  As1  1  0.44516240  0.07584715  0.50000064  1
  As  As2  1  0.92414591  0.36931616  0.50000132  1
  As  As3  1  0.63070133  0.55482457  0.49999975  1
  As  As4  1  0.73919044  0.95366021  1.00000035  1
  As  As5  1  0.04634510  0.78554180  1.00000124  1
  As  As6  1  0.21444263  0.26080587  0.00000143  1
loop_
_geom_bond_atom_site_label_1
_geom_bond_atom_site_label_2
_geom_bond_distance
_geom_bond_site_symmetry_2
Lu0 Ni3 3.089297 1_556
Lu0 Ni3 3.089306 1_555
Lu0 Ni5 3.089597 1_556
Lu0 Ni5 3.089601 1_555
Lu0 Ni4 3.089656 1_556
Lu0 Ni4 3.089656 1_555
Lu0 Ni2 3.099509 1_556
Lu0 Ni0 3.099523 1_545
Lu0 Ni1 3.099906 1_656
Lu0 Ni8 3.253969 1_556
Lu0 Ni7 3.254302 1_556
Lu0 Ni6 3.254374 1_556
Lu1 Ni7 3.014891 1_556
Lu1 Ni7 3.014894 1_555
Lu1 Ni8 3.014968 1_456
Lu1 Ni8 3.014971 1_455
Lu1 Ni6 3.015190 1_446
Lu1 Ni6 3.015197 1_445
Lu1 Ni4 3.200762 1_445
Lu1 Ni3 3.200770 1_455
Lu1 Ni5 3.200810 1_555
As0 Ni1 2.255214 1_556
As0 Ni2 2.255363 1_556
As0 Ni0 2.255418 1_555
As0 Ni9 2.533529 1_556
As0 Ni9 2.533531 1_555
As0 Ni10 2.533621 1_556
As0 Ni10 2.533627 1_555
As0 Ni11 2.533989 1_556
As0 Ni11 2.534004 1_555
As1 Ni5 2.315793 1_555
As1 Ni0 2.355823 1_545
As1 Ni0 2.355832 1_544
As1 Ni7 2.385672 1_556
As1 Ni7 2.385679 1_555
As1 Ni3 2.386823 1_555
As1 Ni10 2.422233 1_545
As1 Lu0 2.923883 1_554
As1 Lu0 2.923888 1_555
As2 Ni3 2.315821 1_555
As2 Ni1 2.355978 1_656
As2 Ni1 2.355984 1_655
As2 Ni8 2.385576 1_556
As2 Ni8 2.385585 1_555
As2 Ni4 2.386877 1_555
As2 Ni11 2.422461 1_655
As2 Lu0 2.923701 1_555
As2 Lu0 2.923702 1_554
As3 Ni4 2.315690 1_555
As3 Ni2 2.356053 1_556
As3 Ni2 2.356063 1_555
As3 Ni6 2.385580 1_556
As3 Ni6 2.385581 1_555
As3 Ni5 2.387032 1_555
As3 Ni9 2.422482 1_555
As3 Lu0 2.923688 1_554
As3 Lu0 2.923695 1_555
As4 Ni6 2.287435 1_556
As4 Ni8 2.306442 1_566
As4 Ni0 2.318259 1_555
As4 Ni3 2.373948 1_566
As4 Ni3 2.373954 1_565
As4 Ni9 2.596616 1_556
As4 Ni9 2.596622 1_555
As4 Lu1 2.920213 1_665
As4 Lu1 2.920215 1_666
As5 Ni7 2.287834 1_566
As5 Ni6 2.306684 1_456
As5 Ni1 2.318526 1_556
As5 Ni4 2.373925 1_456
As5 Ni4 2.373928 1_455
As5 Ni10 2.596568 1_556
As5 Ni10 2.596578 1_555
As5 Lu1 2.920146 1_566
As5 Lu1 2.920150 1_565
As6 Ni8 2.287479 1_455
As6 Ni7 2.306149 1_555
As6 Ni2 2.318275 1_555
As6 Ni5 2.374007 1_555
As6 Ni5 2.374011 1_554
As6 Ni11 2.596117 1_555
As6 Ni11 2.596138 1_554
As6 Lu1 2.920151 1_555
As6 Lu1 2.920157 1_554
