# generated using pymatgen
data_EuNi3
_symmetry_space_group_name_H-M   'P 1'
_cell_length_a   3.88792400
_cell_length_b   3.88792400
_cell_length_c   3.88792400
_cell_angle_alpha   90.00000000
_cell_angle_beta   90.00000000
_cell_angle_gamma   90.00000000
_symmetry_Int_Tables_number   1
_chemical_formula_structural   EuNi3
_chemical_formula_sum   'Eu1 Ni3'
_cell_volume   58.76967657
_cell_formula_units_Z   1
loop_
 _symmetry_equiv_pos_site_id
 _symmetry_equiv_pos_as_xyz
  1  'x, y, z'
loop_
 _atom_site_type_symbol
 _atom_site_label
 _atom_site_symmetry_multiplicity
 _atom_site_fract_x
 _atom_site_fract_y
 _atom_site_fract_z
 _atom_site_occupancy
  Eu  Eu0  1  0.00000000  0.00000000  0.00000000  1
  Ni  Ni0  1  0.00000000  0.50000000  0.50000000  1
  Ni  Ni1  1  0.50000000  0.00000000  0.50000000  1
  Ni  Ni2  1  0.50000000  0.50000000  0.00000000  1
loop_
_geom_bond_atom_site_label_1
_geom_bond_atom_site_label_2
_geom_bond_distance
_geom_bond_site_symmetry_2
Eu0 Ni1 2.749177 1_555
Eu0 Ni0 2.749177 1_554
Eu0 Ni0 2.749177 1_545
Eu0 Ni2 2.749177 1_555
Eu0 Ni2 2.749177 1_455
Eu0 Ni2 2.749177 1_545
Eu0 Ni2 2.749177 1_445
Eu0 Ni1 2.749177 1_554
Eu0 Ni1 2.749177 1_455
Eu0 Ni1 2.749177 1_454
Eu0 Ni0 2.749177 1_544
Eu0 Ni0 2.749177 1_555
Ni0 Ni1 2.749177 1_555
Ni0 Ni1 2.749177 1_565
Ni0 Ni2 2.749177 1_456
Ni0 Ni2 2.749177 1_555
Ni0 Ni2 2.749177 1_455
Ni0 Ni1 2.749177 1_465
Ni0 Ni1 2.749177 1_455
Ni0 Ni2 2.749177 1_556
Ni1 Ni2 2.749177 1_546
Ni1 Ni2 2.749177 1_555
Ni1 Ni2 2.749177 1_545
Ni1 Ni2 2.749177 1_556
