# generated using pymatgen
data_Yb(MnAs)2
_symmetry_space_group_name_H-M   'P 1'
_cell_length_a   3.98831602
_cell_length_b   3.98831602
_cell_length_c   6.91726400
_cell_angle_alpha   90.00000000
_cell_angle_beta   90.00000000
_cell_angle_gamma   120.00000037
_symmetry_Int_Tables_number   1
_chemical_formula_structural   Yb(MnAs)2
_chemical_formula_sum   'Yb1 Mn2 As2'
_cell_volume   95.28929361
_cell_formula_units_Z   1
loop_
 _symmetry_equiv_pos_site_id
 _symmetry_equiv_pos_as_xyz
  1  'x, y, z'
loop_
 _atom_site_type_symbol
 _atom_site_label
 _atom_site_symmetry_multiplicity
 _atom_site_fract_x
 _atom_site_fract_y
 _atom_site_fract_z
 _atom_site_occupancy
  Yb  Yb0  1  0.00000000  0.00000000  0.00000000  1
  Mn  Mn0  1  0.66666700  0.33333300  0.38291000  1
  Mn  Mn1  1  0.33333300  0.66666700  0.61709000  1
  As  As0  1  0.66666700  0.33333300  0.73174700  1
  As  As1  1  0.33333300  0.66666700  0.26825300  1
loop_
_geom_bond_atom_site_label_1
_geom_bond_atom_site_label_2
_geom_bond_distance
_geom_bond_site_symmetry_2
As0 Mn0 2.412998 1_555
As0 Mn1 2.435413 1_545
As0 Mn1 2.435413 1_655
As0 Mn1 2.435420 1_555
As0 Yb0 2.957258 1_656
As0 Yb0 2.957261 1_556
As0 Yb0 2.957261 1_666
As1 Mn1 2.412998 1_555
As1 Mn0 2.435413 1_455
As1 Mn0 2.435413 1_565
As1 Mn0 2.435420 1_555
As1 Yb0 2.957258 1_565
As1 Yb0 2.957261 1_665
As1 Yb0 2.957261 1_555
