# generated using pymatgen
data_Lu2BeOs
_symmetry_space_group_name_H-M   'P 1'
_cell_length_a   4.69493462
_cell_length_b   4.69493462
_cell_length_c   4.69493462
_cell_angle_alpha   60.00000000
_cell_angle_beta   60.00000000
_cell_angle_gamma   60.00000000
_symmetry_Int_Tables_number   1
_chemical_formula_structural   Lu2BeOs
_chemical_formula_sum   'Lu2 Be1 Os1'
_cell_volume   73.17683973
_cell_formula_units_Z   1
loop_
 _symmetry_equiv_pos_site_id
 _symmetry_equiv_pos_as_xyz
  1  'x, y, z'
loop_
 _atom_site_type_symbol
 _atom_site_label
 _atom_site_symmetry_multiplicity
 _atom_site_fract_x
 _atom_site_fract_y
 _atom_site_fract_z
 _atom_site_occupancy
  Lu  Lu0  1  0.00000000  0.00000000  0.00000000  1
  Lu  Lu1  1  0.49999900  0.49999900  0.49999900  1
  Be  Be0  1  0.25000000  0.25000000  0.25000000  1
  Os  Os0  1  0.75000100  0.75000100  0.75000100  1
loop_
_geom_bond_atom_site_label_1
_geom_bond_atom_site_label_2
_geom_bond_distance
_geom_bond_site_symmetry_2
Lu0 Os0 2.875037 1_444
Lu0 Os0 2.875052 1_445
Lu0 Os0 2.875052 1_544
Lu0 Os0 2.875052 1_454
Lu1 Os0 2.875041 1_554
Lu1 Os0 2.875041 1_545
Lu1 Os0 2.875041 1_455
Lu1 Os0 2.875072 1_555
Be0 Lu1 2.875037 1_555
Be0 Lu0 2.875049 1_556
Be0 Lu0 2.875049 1_555
Be0 Lu0 2.875049 1_655
Be0 Lu0 2.875049 1_565
Be0 Lu1 2.875052 1_455
Be0 Lu1 2.875052 1_545
Be0 Lu1 2.875052 1_554
