# generated using pymatgen
data_Zn3Se
_symmetry_space_group_name_H-M   'P 1'
_cell_length_a   5.88061973
_cell_length_b   5.88061973
_cell_length_c   4.78509100
_cell_angle_alpha   90.00000000
_cell_angle_beta   90.00000000
_cell_angle_gamma   119.99999698
_symmetry_Int_Tables_number   1
_chemical_formula_structural   Zn3Se
_chemical_formula_sum   'Zn6 Se2'
_cell_volume   143.30687966
_cell_formula_units_Z   2
loop_
 _symmetry_equiv_pos_site_id
 _symmetry_equiv_pos_as_xyz
  1  'x, y, z'
loop_
 _atom_site_type_symbol
 _atom_site_label
 _atom_site_symmetry_multiplicity
 _atom_site_fract_x
 _atom_site_fract_y
 _atom_site_fract_z
 _atom_site_occupancy
  Zn  Zn0  1  0.15952500  0.31905000  0.25000000  1
  Zn  Zn1  1  0.68095000  0.84047500  0.25000000  1
  Zn  Zn2  1  0.15952500  0.84047500  0.25000000  1
  Zn  Zn3  1  0.84047500  0.68095000  0.75000000  1
  Zn  Zn4  1  0.31905000  0.15952500  0.75000000  1
  Zn  Zn5  1  0.84047500  0.15952500  0.75000000  1
  Se  Se0  1  0.33333300  0.66666700  0.75000000  1
  Se  Se1  1  0.66666700  0.33333300  0.25000000  1
loop_
_geom_bond_atom_site_label_1
_geom_bond_atom_site_label_2
_geom_bond_distance
_geom_bond_site_symmetry_2
Se0 Zn4 2.941207 1_565
Se0 Zn3 2.941207 1_455
Se0 Zn5 2.941210 1_565
Se0 Zn5 2.941210 1_455
Se0 Zn4 2.941212 1_555
Se0 Zn3 2.941212 1_555
Se0 Zn2 2.976295 1_555
Se0 Zn2 2.976295 1_556
Se0 Zn0 2.976298 1_556
Se0 Zn0 2.976298 1_555
Se0 Zn1 2.976298 1_555
Se0 Zn1 2.976298 1_556
Se1 Zn0 2.941207 1_655
Se1 Zn1 2.941207 1_545
Se1 Zn2 2.941210 1_655
Se1 Zn2 2.941210 1_545
Se1 Zn1 2.941212 1_555
Se1 Zn0 2.941212 1_555
Se1 Zn5 2.976295 1_554
Se1 Zn5 2.976295 1_555
Se1 Zn4 2.976298 1_554
Se1 Zn4 2.976298 1_555
Se1 Zn3 2.976298 1_554
Se1 Zn3 2.976298 1_555
