# generated using pymatgen
data_SmNiGe2
_symmetry_space_group_name_H-M   'P 1'
_cell_length_a   4.15670837
_cell_length_b   4.19143673
_cell_length_c   8.57225024
_cell_angle_alpha   75.84906943
_cell_angle_beta   90.00000000
_cell_angle_gamma   90.00000000
_symmetry_Int_Tables_number   1
_chemical_formula_structural   SmNiGe2
_chemical_formula_sum   'Sm2 Ni2 Ge4'
_cell_volume   144.81868135
_cell_formula_units_Z   2
loop_
 _symmetry_equiv_pos_site_id
 _symmetry_equiv_pos_as_xyz
  1  'x, y, z'
loop_
 _atom_site_type_symbol
 _atom_site_label
 _atom_site_symmetry_multiplicity
 _atom_site_fract_x
 _atom_site_fract_y
 _atom_site_fract_z
 _atom_site_occupancy
  Sm  Sm0  1  0.25000000  0.89161209  0.21677582  1
  Sm  Sm1  1  0.74999900  0.10838691  0.78322418  1
  Ni  Ni0  1  0.74999900  0.31884350  0.36230999  1
  Ni  Ni1  1  0.25000000  0.68115550  0.63769001  1
  Ge  Ge0  1  0.74999900  0.45730219  0.08539563  1
  Ge  Ge1  1  0.25000000  0.25033611  0.49932778  1
  Ge  Ge2  1  0.74999900  0.74966289  0.50067322  1
  Ge  Ge3  1  0.25000000  0.54269781  0.91460437  1
loop_
_geom_bond_atom_site_label_1
_geom_bond_atom_site_label_2
_geom_bond_distance
_geom_bond_site_symmetry_2
Ni0 Sm0 3.189815 1_545
Ni0 Sm0 3.189820 1_645
Ni0 Sm0 3.189823 1_555
Ni0 Sm0 3.189828 1_655
Ni1 Sm1 3.189815 1_565
Ni1 Sm1 3.189820 1_465
Ni1 Sm1 3.189823 1_555
Ni1 Sm1 3.189828 1_455
Ge0 Ni0 2.301747 1_555
Ge0 Ge3 2.516925 1_554
Ge0 Ge3 2.516932 1_654
Ge0 Sm0 3.147085 1_555
Ge0 Sm0 3.147085 1_545
Ge0 Sm0 3.147091 1_655
Ge0 Sm0 3.147091 1_645
Ge0 Sm1 3.271176 1_564
Ge0 Sm1 3.271181 1_554
Ge1 Ni0 2.369948 1_555
Ge1 Ni0 2.369955 1_455
Ge1 Ni1 2.390548 1_545
Ge1 Ni1 2.390552 1_555
Ge1 Sm1 3.144537 1_555
Ge1 Sm1 3.144543 1_455
Ge1 Sm0 3.147696 1_555
Ge1 Sm0 3.147696 1_545
Ge2 Ni1 2.369944 1_555
Ge2 Ni1 2.369951 1_655
Ge2 Ni0 2.390550 1_565
Ge2 Ni0 2.390558 1_555
Ge2 Sm0 3.144543 1_555
Ge2 Sm0 3.144549 1_655
Ge2 Sm1 3.147689 1_565
Ge2 Sm1 3.147692 1_555
Ge3 Ni1 2.301747 1_555
Ge3 Sm1 3.147082 1_565
Ge3 Sm1 3.147088 1_465
Ge3 Sm1 3.147088 1_555
Ge3 Sm1 3.147093 1_455
Ge3 Sm0 3.271178 1_546
Ge3 Sm0 3.271178 1_556
