# generated using pymatgen
data_HfTeSe4
_symmetry_space_group_name_H-M   'P 1'
_cell_length_a   3.86678400
_cell_length_b   6.62686200
_cell_length_c   6.84873844
_cell_angle_alpha   89.63047616
_cell_angle_beta   90.00000000
_cell_angle_gamma   90.00000000
_symmetry_Int_Tables_number   1
_chemical_formula_structural   HfTeSe4
_chemical_formula_sum   'Hf1 Te1 Se4'
_cell_volume   175.49283407
_cell_formula_units_Z   1
loop_
 _symmetry_equiv_pos_site_id
 _symmetry_equiv_pos_as_xyz
  1  'x, y, z'
loop_
 _atom_site_type_symbol
 _atom_site_label
 _atom_site_symmetry_multiplicity
 _atom_site_fract_x
 _atom_site_fract_y
 _atom_site_fract_z
 _atom_site_occupancy
  Hf  Hf0  1  0.50000000  0.00000000  0.50000000  1
  Te  Te0  1  0.00000000  0.00000000  0.00000000  1
  Se  Se0  1  0.00000000  0.76474200  0.34334700  1
  Se  Se1  1  0.50000000  0.24240700  0.18278000  1
  Se  Se2  1  0.50000000  0.75759300  0.81722000  1
  Se  Se3  1  0.00000000  0.23525800  0.65665300  1
loop_
_geom_bond_atom_site_label_1
_geom_bond_atom_site_label_2
_geom_bond_distance
_geom_bond_site_symmetry_2
Hf0 Se1 2.693604 1_555
Hf0 Se2 2.693604 1_545
Hf0 Se3 2.709463 1_555
Hf0 Se3 2.709463 1_655
Hf0 Se0 2.709463 1_545
Hf0 Se0 2.709463 1_645
Se0 Te0 2.812968 1_565
Se1 Te0 2.812737 1_655
Se1 Te0 2.812737 1_555
Se2 Te0 2.812737 1_566
Se2 Te0 2.812737 1_666
Se3 Te0 2.812968 1_556
