# generated using pymatgen
data_MgPt5
_symmetry_space_group_name_H-M   'P 1'
_cell_length_a   5.54104706
_cell_length_b   10.74326815
_cell_length_c   13.35357044
_cell_angle_alpha   73.97057011
_cell_angle_beta   89.88488345
_cell_angle_gamma   104.83003816
_symmetry_Int_Tables_number   1
_chemical_formula_structural   MgPt5
_chemical_formula_sum   'Mg8 Pt40'
_cell_volume   736.30392743
_cell_formula_units_Z   8
loop_
 _symmetry_equiv_pos_site_id
 _symmetry_equiv_pos_as_xyz
  1  'x, y, z'
loop_
 _atom_site_type_symbol
 _atom_site_label
 _atom_site_symmetry_multiplicity
 _atom_site_fract_x
 _atom_site_fract_y
 _atom_site_fract_z
 _atom_site_occupancy
  Mg  Mg0_0  1  0.19435087  0.38913557  0.36016609  1
  Mg  Mg0_1  1  0.19435088  0.38913557  0.86016609  1
  Mg  Mg0_2  1  0.19435087  0.88913557  0.36016609  1
  Mg  Mg0_3  1  0.19435087  0.88913557  0.86016609  1
  Mg  Mg0_4  1  0.69435087  0.38913557  0.36016609  1
  Mg  Mg0_5  1  0.69435087  0.38913557  0.86016609  1
  Mg  Mg0_6  1  0.69435087  0.88913557  0.36016609  1
  Mg  Mg0_7  1  0.69435087  0.88913557  0.86016609  1
  Pt  Pt0_0  1  0.49734981  0.49843546  0.00126700  1
  Pt  Pt0_1  1  0.49734981  0.49843546  0.50126699  1
  Pt  Pt0_2  1  0.49734981  0.99843546  0.00126700  1
  Pt  Pt0_3  1  0.49734981  0.99843546  0.50126699  1
  Pt  Pt0_4  1  0.99734981  0.49843546  0.00126700  1
  Pt  Pt0_5  1  0.99734981  0.49843546  0.50126699  1
  Pt  Pt0_6  1  0.99734981  0.99843546  0.00126700  1
  Pt  Pt0_7  1  0.99734981  0.99843546  0.50126699  1
  Pt  Pt1_0  1  0.36639547  0.22855997  0.02046483  1
  Pt  Pt1_1  1  0.36639547  0.22855997  0.52046483  1
  Pt  Pt1_2  1  0.36639547  0.72855998  0.02046483  1
  Pt  Pt1_3  1  0.36639548  0.72855998  0.52046483  1
  Pt  Pt1_4  1  0.86639547  0.22855997  0.02046483  1
  Pt  Pt1_5  1  0.86639548  0.22855998  0.52046483  1
  Pt  Pt1_6  1  0.86639547  0.72855998  0.02046483  1
  Pt  Pt1_7  1  0.86639547  0.72855997  0.52046483  1
  Pt  Pt2_0  1  0.16556921  0.33293742  0.16690108  1
  Pt  Pt2_1  1  0.16556921  0.33293743  0.66690108  1
  Pt  Pt2_2  1  0.16556921  0.83293743  0.16690108  1
  Pt  Pt2_3  1  0.16556921  0.83293743  0.66690108  1
  Pt  Pt2_4  1  0.66556921  0.33293742  0.16690108  1
  Pt  Pt2_5  1  0.66556921  0.33293742  0.66690108  1
  Pt  Pt2_6  1  0.66556921  0.83293743  0.16690108  1
  Pt  Pt2_7  1  0.66556921  0.83293742  0.66690108  1
  Pt  Pt3_0  1  0.02775088  0.05288354  0.19848236  1
  Pt  Pt3_1  1  0.02775089  0.05288354  0.69848236  1
  Pt  Pt3_2  1  0.02775088  0.55288355  0.19848236  1
  Pt  Pt3_3  1  0.02775089  0.55288355  0.69848236  1
  Pt  Pt3_4  1  0.52775088  0.05288354  0.19848236  1
  Pt  Pt3_5  1  0.52775089  0.05288354  0.69848236  1
  Pt  Pt3_6  1  0.52775089  0.55288355  0.19848236  1
  Pt  Pt3_7  1  0.52775088  0.55288354  0.69848236  1
  Pt  Pt4_0  1  0.33191873  0.16471503  0.33605165  1
  Pt  Pt4_1  1  0.33191873  0.16471503  0.83605165  1
  Pt  Pt4_2  1  0.33191873  0.66471503  0.33605165  1
  Pt  Pt4_3  1  0.33191873  0.66471503  0.83605164  1
  Pt  Pt4_4  1  0.83191874  0.16471503  0.33605165  1
  Pt  Pt4_5  1  0.83191873  0.16471503  0.83605164  1
  Pt  Pt4_6  1  0.83191873  0.66471503  0.33605165  1
  Pt  Pt4_7  1  0.83191873  0.66471503  0.83605164  1
loop_
_geom_bond_atom_site_label_1
_geom_bond_atom_site_label_2
_geom_bond_distance
_geom_bond_site_symmetry_2
Mg0_0 Pt1_5 2.683381 1_455
Mg0_0 Pt1_1 2.697686 1_555
Mg0_0 Pt3_2 2.711122 1_555
Mg0_0 Pt3_6 2.718793 1_555
Mg0_0 Pt4_2 2.786985 1_555
Mg0_0 Pt2_0 2.804146 1_555
Mg0_0 Pt4_0 2.804692 1_555
Mg0_0 Pt4_4 2.811139 1_455
Mg0_0 Pt0_1 2.823694 1_555
Mg0_0 Pt0_5 2.826728 1_455
Mg0_1 Pt1_4 2.683381 1_456
Mg0_1 Pt1_0 2.697686 1_556
Mg0_1 Pt3_3 2.711122 1_555
Mg0_1 Pt3_7 2.718793 1_555
Mg0_1 Pt4_3 2.786985 1_555
Mg0_1 Pt2_1 2.804146 1_555
Mg0_1 Pt4_1 2.804692 1_555
Mg0_1 Pt4_5 2.811139 1_455
Mg0_1 Pt0_0 2.823694 1_556
Mg0_1 Pt0_4 2.826728 1_456
Mg0_2 Pt1_7 2.683381 1_455
Mg0_2 Pt1_3 2.697686 1_555
Mg0_2 Pt3_0 2.711122 1_565
Mg0_2 Pt3_4 2.718793 1_565
Mg0_2 Pt4_0 2.786985 1_565
Mg0_2 Pt2_2 2.804146 1_555
Mg0_2 Pt4_2 2.804692 1_555
Mg0_2 Pt4_6 2.811139 1_455
Mg0_2 Pt0_3 2.823694 1_555
Mg0_2 Pt0_7 2.826728 1_455
Mg0_3 Pt1_6 2.683381 1_456
Mg0_3 Pt1_2 2.697686 1_556
Mg0_3 Pt3_1 2.711122 1_565
Mg0_3 Pt3_5 2.718793 1_565
Mg0_3 Pt4_1 2.786985 1_565
Mg0_3 Pt2_3 2.804146 1_555
Mg0_3 Pt4_3 2.804692 1_555
Mg0_3 Pt4_7 2.811139 1_455
Mg0_3 Pt0_2 2.823694 1_556
Mg0_3 Pt0_6 2.826728 1_456
Mg0_4 Pt1_1 2.683381 1_555
Mg0_4 Pt1_5 2.697686 1_555
Mg0_4 Pt3_6 2.711122 1_555
Mg0_4 Pt3_2 2.718793 1_655
Mg0_4 Pt4_6 2.786985 1_555
Mg0_4 Pt2_4 2.804146 1_555
Mg0_4 Pt4_4 2.804692 1_555
Mg0_4 Pt4_0 2.811139 1_555
Mg0_4 Pt0_5 2.823694 1_555
Mg0_4 Pt0_1 2.826728 1_555
Mg0_5 Pt1_0 2.683381 1_556
Mg0_5 Pt1_4 2.697686 1_556
Mg0_5 Pt3_7 2.711122 1_555
Mg0_5 Pt3_3 2.718793 1_655
Mg0_5 Pt4_7 2.786985 1_555
Mg0_5 Pt2_5 2.804146 1_555
Mg0_5 Pt4_5 2.804692 1_555
Mg0_5 Pt4_1 2.811139 1_555
Mg0_5 Pt0_4 2.823694 1_556
Mg0_5 Pt0_0 2.826728 1_556
Mg0_6 Pt1_3 2.683381 1_555
Mg0_6 Pt1_7 2.697686 1_555
Mg0_6 Pt3_4 2.711122 1_565
Mg0_6 Pt3_0 2.718793 1_665
Mg0_6 Pt4_4 2.786985 1_565
Mg0_6 Pt2_6 2.804146 1_555
Mg0_6 Pt4_6 2.804692 1_555
Mg0_6 Pt4_2 2.811139 1_555
Mg0_6 Pt0_7 2.823694 1_555
Mg0_6 Pt0_3 2.826728 1_555
Mg0_7 Pt1_2 2.683381 1_556
Mg0_7 Pt1_6 2.697686 1_556
Mg0_7 Pt3_5 2.711122 1_565
Mg0_7 Pt3_1 2.718793 1_665
Mg0_7 Pt4_5 2.786985 1_565
Mg0_7 Pt2_7 2.804146 1_555
Mg0_7 Pt4_7 2.804692 1_555
Mg0_7 Pt4_3 2.811139 1_555
Mg0_7 Pt0_6 2.823694 1_556
Mg0_7 Pt0_2 2.826728 1_556
Pt0_0 Pt1_0 2.740485 1_555
Pt0_0 Pt4_3 2.751119 1_554
Pt0_0 Pt2_0 2.751671 1_555
Pt0_0 Pt2_4 2.758082 1_555
Pt0_0 Pt4_7 2.758097 1_554
Pt0_0 Pt0_4 2.770524 1_555
Pt0_0 Pt0_4 2.770524 1_455
Pt0_0 Pt1_2 2.823486 1_555
Pt0_0 Pt3_6 2.847475 1_555
Pt0_0 Pt1_6 2.850210 1_555
Pt0_1 Pt1_1 2.740485 1_555
Pt0_1 Pt4_2 2.751119 1_555
Pt0_1 Pt2_1 2.751671 1_555
Pt0_1 Pt2_5 2.758082 1_555
Pt0_1 Pt4_6 2.758097 1_555
Pt0_1 Pt0_5 2.770524 1_555
Pt0_1 Pt0_5 2.770524 1_455
Pt0_1 Pt1_3 2.823486 1_555
Pt0_1 Pt3_7 2.847475 1_555
Pt0_1 Pt1_7 2.850210 1_555
Pt0_2 Pt1_2 2.740485 1_555
Pt0_2 Pt4_1 2.751119 1_564
Pt0_2 Pt2_2 2.751671 1_555
Pt0_2 Pt2_6 2.758082 1_555
Pt0_2 Pt4_5 2.758097 1_564
Pt0_2 Pt0_6 2.770524 1_455
Pt0_2 Pt0_6 2.770524 1_555
Pt0_2 Pt1_0 2.823486 1_565
Pt0_2 Pt3_4 2.847475 1_565
Pt0_2 Pt1_4 2.850210 1_565
Pt0_3 Pt1_3 2.740485 1_555
Pt0_3 Pt4_0 2.751119 1_565
Pt0_3 Pt2_3 2.751671 1_555
Pt0_3 Pt2_7 2.758082 1_555
Pt0_3 Pt4_4 2.758097 1_565
Pt0_3 Pt0_7 2.770524 1_555
Pt0_3 Pt0_7 2.770524 1_455
Pt0_3 Pt1_1 2.823486 1_565
Pt0_3 Pt3_5 2.847475 1_565
Pt0_3 Pt1_5 2.850210 1_565
Pt0_4 Pt1_4 2.740485 1_555
Pt0_4 Pt4_7 2.751119 1_554
Pt0_4 Pt2_4 2.751671 1_555
Pt0_4 Pt2_0 2.758082 1_655
Pt0_4 Pt4_3 2.758097 1_654
Pt0_4 Pt1_6 2.823486 1_555
Pt0_4 Pt3_2 2.847475 1_655
Pt0_4 Pt1_2 2.850210 1_655
Pt0_5 Pt1_5 2.740485 1_555
Pt0_5 Pt4_6 2.751119 1_555
Pt0_5 Pt2_5 2.751671 1_555
Pt0_5 Pt2_1 2.758082 1_655
Pt0_5 Pt4_2 2.758097 1_655
Pt0_5 Pt1_7 2.823486 1_555
Pt0_5 Pt3_3 2.847475 1_655
Pt0_5 Pt1_3 2.850210 1_655
Pt0_6 Pt1_6 2.740485 1_555
Pt0_6 Pt4_5 2.751119 1_564
Pt0_6 Pt2_6 2.751671 1_555
Pt0_6 Pt2_2 2.758082 1_655
Pt0_6 Pt4_1 2.758097 1_664
Pt0_6 Pt1_4 2.823486 1_565
Pt0_6 Pt3_0 2.847475 1_665
Pt0_6 Pt1_0 2.850210 1_665
Pt0_7 Pt1_7 2.740485 1_555
Pt0_7 Pt4_4 2.751119 1_565
Pt0_7 Pt2_7 2.751671 1_555
Pt0_7 Pt2_3 2.758082 1_655
Pt0_7 Pt4_0 2.758097 1_665
Pt0_7 Pt1_5 2.823486 1_565
Pt0_7 Pt3_1 2.847475 1_665
Pt0_7 Pt1_1 2.850210 1_665
