# generated using pymatgen
data_HgPd3
_symmetry_space_group_name_H-M   'P 1'
_cell_length_a   5.68046879
_cell_length_b   5.68046826
_cell_length_c   4.66609188
_cell_angle_alpha   90.00000010
_cell_angle_beta   90.00000000
_cell_angle_gamma   119.99999646
_symmetry_Int_Tables_number   1
_chemical_formula_structural   HgPd3
_chemical_formula_sum   'Hg2 Pd6'
_cell_volume   130.39239102
_cell_formula_units_Z   2
loop_
 _symmetry_equiv_pos_site_id
 _symmetry_equiv_pos_as_xyz
  1  'x, y, z'
loop_
 _atom_site_type_symbol
 _atom_site_label
 _atom_site_symmetry_multiplicity
 _atom_site_fract_x
 _atom_site_fract_y
 _atom_site_fract_z
 _atom_site_occupancy
  Hg  Hg0  1  0.33333634  0.66666866  0.75000000  1
  Hg  Hg1  1  0.66666498  0.33333351  0.25000000  1
  Pd  Pd0  1  0.16454449  0.32908789  0.25000000  1
  Pd  Pd1  1  0.67091141  0.83545622  0.25000001  1
  Pd  Pd2  1  0.16454444  0.83545858  0.25000000  1
  Pd  Pd3  1  0.83545358  0.67091035  0.75000000  1
  Pd  Pd4  1  0.32908928  0.16454459  0.75000000  1
  Pd  Pd5  1  0.83545548  0.16454219  0.75000000  1
loop_
_geom_bond_atom_site_label_1
_geom_bond_atom_site_label_2
_geom_bond_distance
_geom_bond_site_symmetry_2
Hg0 Pd5 2.840290 1_565
Hg0 Pd3 2.840291 1_555
Hg0 Pd4 2.840308 1_565
Hg0 Pd4 2.840314 1_555
Hg0 Pd3 2.840332 1_455
Hg0 Pd5 2.840332 1_455
Hg0 Pd1 2.863730 1_555
Hg0 Pd1 2.863730 1_556
Hg0 Pd0 2.863747 1_555
Hg0 Pd0 2.863747 1_556
Hg0 Pd2 2.863750 1_556
Hg0 Pd2 2.863750 1_555
Hg1 Pd0 2.840298 1_555
Hg1 Pd2 2.840298 1_545
Hg1 Pd1 2.840308 1_555
Hg1 Pd1 2.840314 1_545
Hg1 Pd2 2.840324 1_655
Hg1 Pd0 2.840324 1_655
Hg1 Pd4 2.863732 1_554
Hg1 Pd4 2.863732 1_555
Hg1 Pd3 2.863735 1_555
Hg1 Pd3 2.863735 1_554
Hg1 Pd5 2.863750 1_554
Hg1 Pd5 2.863750 1_555
Pd0 Pd2 2.804045 1_545
Pd0 Pd1 2.804063 1_445
Pd0 Pd4 2.839723 1_554
Pd0 Pd4 2.839723 1_555
Pd0 Pd5 2.839725 1_454
Pd0 Pd5 2.839725 1_455
Pd0 Pd1 2.876406 1_555
Pd0 Pd2 2.876423 1_555
Pd1 Pd2 2.804060 1_655
Pd1 Pd5 2.839717 1_565
Pd1 Pd5 2.839717 1_564
Pd1 Pd3 2.839722 1_555
Pd1 Pd3 2.839722 1_554
Pd1 Pd2 2.876408 1_555
Pd2 Pd4 2.839717 1_565
Pd2 Pd4 2.839717 1_564
Pd2 Pd3 2.839730 1_454
Pd2 Pd3 2.839730 1_455
Pd3 Pd5 2.804055 1_565
Pd3 Pd4 2.804078 1_665
Pd3 Pd4 2.876391 1_555
Pd3 Pd5 2.876414 1_555
Pd4 Pd5 2.804065 1_455
Pd4 Pd5 2.876404 1_555
