# generated using pymatgen
data_NaCaAs
_symmetry_space_group_name_H-M   'P 1'
_cell_length_a   4.89425179
_cell_length_b   4.89425189
_cell_length_c   4.89425333
_cell_angle_alpha   60.00000387
_cell_angle_beta   60.00000330
_cell_angle_gamma   60.00001084
_symmetry_Int_Tables_number   1
_chemical_formula_structural   NaCaAs
_chemical_formula_sum   'Na1 Ca1 As1'
_cell_volume   82.89801505
_cell_formula_units_Z   1
loop_
 _symmetry_equiv_pos_site_id
 _symmetry_equiv_pos_as_xyz
  1  'x, y, z'
loop_
 _atom_site_type_symbol
 _atom_site_label
 _atom_site_symmetry_multiplicity
 _atom_site_fract_x
 _atom_site_fract_y
 _atom_site_fract_z
 _atom_site_occupancy
  Na  Na0  1  0.50000000  0.50000000  0.50000000  1
  Ca  Ca0  1  0.00000000  0.00000000  -0.00000000  1
  As  As0  1  0.25000000  0.25000000  0.25000000  1
loop_
_geom_bond_atom_site_label_1
_geom_bond_atom_site_label_2
_geom_bond_distance
_geom_bond_site_symmetry_2
As0 Na0 2.997105 1_555
As0 Ca0 2.997105 1_555
As0 Ca0 2.997105 1_655
As0 Na0 2.997105 1_455
As0 Na0 2.997105 1_545
As0 Ca0 2.997105 1_565
As0 Na0 2.997106 1_554
As0 Ca0 2.997106 1_556
