# generated using pymatgen
data_MnP
_symmetry_space_group_name_H-M   'P 1'
_cell_length_a   3.33934869
_cell_length_b   3.33934869
_cell_length_c   5.36919900
_cell_angle_alpha   90.00000000
_cell_angle_beta   90.00000000
_cell_angle_gamma   120.00001372
_symmetry_Int_Tables_number   1
_chemical_formula_structural   MnP
_chemical_formula_sum   'Mn2 P2'
_cell_volume   51.85177319
_cell_formula_units_Z   2
loop_
 _symmetry_equiv_pos_site_id
 _symmetry_equiv_pos_as_xyz
  1  'x, y, z'
loop_
 _atom_site_type_symbol
 _atom_site_label
 _atom_site_symmetry_multiplicity
 _atom_site_fract_x
 _atom_site_fract_y
 _atom_site_fract_z
 _atom_site_occupancy
  Mn  Mn0  1  0.00000000  0.00000000  0.50000000  1
  Mn  Mn1  1  0.00000000  0.00000000  0.00000000  1
  P  P0  1  0.33333300  0.66666700  0.25000000  1
  P  P1  1  0.66666700  0.33333300  0.75000000  1
loop_
_geom_bond_atom_site_label_1
_geom_bond_atom_site_label_2
_geom_bond_distance
_geom_bond_site_symmetry_2
Mn0 P0 2.349222 1_545
Mn0 P1 2.349222 1_455
Mn0 P0 2.349224 1_555
Mn0 P1 2.349224 1_445
Mn0 P1 2.349224 1_555
Mn0 P0 2.349224 1_445
Mn1 P1 2.349222 1_454
Mn1 P0 2.349222 1_545
Mn1 P1 2.349224 1_444
Mn1 P0 2.349224 1_555
Mn1 P0 2.349224 1_445
Mn1 P1 2.349224 1_554
