# generated using pymatgen
data_UTi2O6
_symmetry_space_group_name_H-M   'P 1'
_cell_length_a   5.28569103
_cell_length_b   5.28569103
_cell_length_c   6.89656390
_cell_angle_alpha   63.06885517
_cell_angle_beta   63.06885517
_cell_angle_gamma   41.95231760
_symmetry_Int_Tables_number   1
_chemical_formula_structural   UTi2O6
_chemical_formula_sum   'U1 Ti2 O6'
_cell_volume   112.64046251
_cell_formula_units_Z   1
loop_
 _symmetry_equiv_pos_site_id
 _symmetry_equiv_pos_as_xyz
  1  'x, y, z'
loop_
 _atom_site_type_symbol
 _atom_site_label
 _atom_site_symmetry_multiplicity
 _atom_site_fract_x
 _atom_site_fract_y
 _atom_site_fract_z
 _atom_site_occupancy
  U  U0  1  -0.00000000  -0.00000000  0.00000000  1
  Ti  Ti0  1  0.17765182  0.17765182  0.38969057  1
  Ti  Ti1  1  0.82234818  0.82234818  0.61030943  1
  O  O0  1  0.72027799  0.72027799  0.40462155  1
  O  O1  1  0.27972201  0.27972201  0.59537845  1
  O  O2  1  0.34915727  0.34915727  0.10405725  1
  O  O3  1  0.97628319  0.97628319  0.69416207  1
  O  O4  1  0.02371681  0.02371681  0.30583793  1
  O  O5  1  0.65084273  0.65084273  0.89594275  1
loop_
_geom_bond_atom_site_label_1
_geom_bond_atom_site_label_2
_geom_bond_distance
_geom_bond_site_symmetry_2
O0 Ti0 1.951915 1_565
O0 Ti0 1.951915 1_655
O0 Ti1 2.100917 1_555
O1 Ti1 1.951915 1_545
O1 Ti1 1.951915 1_455
O1 Ti0 2.100917 1_555
O2 Ti0 1.873808 1_555
O2 U0 2.296878 1_655
O2 U0 2.296878 1_565
O3 Ti1 1.869665 1_555
O3 Ti0 2.076288 1_665
O3 U0 2.232194 1_666
O4 Ti0 1.869665 1_555
O4 Ti1 2.076288 1_445
O4 U0 2.232194 1_555
O5 Ti1 1.873808 1_555
O5 U0 2.296878 1_566
O5 U0 2.296878 1_656
