# generated using pymatgen
data_YReN3
_symmetry_space_group_name_H-M   'P 1'
_cell_length_a   5.38294490
_cell_length_b   5.59557393
_cell_length_c   7.68551211
_cell_angle_alpha   90.00000000
_cell_angle_beta   90.00000000
_cell_angle_gamma   90.00000000
_symmetry_Int_Tables_number   1
_chemical_formula_structural   YReN3
_chemical_formula_sum   'Y4 Re4 N12'
_cell_volume   231.49274445
_cell_formula_units_Z   4
loop_
 _symmetry_equiv_pos_site_id
 _symmetry_equiv_pos_as_xyz
  1  'x, y, z'
loop_
 _atom_site_type_symbol
 _atom_site_label
 _atom_site_symmetry_multiplicity
 _atom_site_fract_x
 _atom_site_fract_y
 _atom_site_fract_z
 _atom_site_occupancy
  Y  Y0  1  0.48815201  0.43956486  0.25000000  1
  Y  Y1  1  0.01184799  0.93956486  0.25000000  1
  Y  Y2  1  0.51184799  0.56043514  0.75000000  1
  Y  Y3  1  0.98815201  0.06043514  0.75000000  1
  Re  Re0  1  0.50000000  0.00000000  0.50000000  1
  Re  Re1  1  0.00000000  0.50000000  0.00000000  1
  Re  Re2  1  0.00000000  0.50000000  0.50000000  1
  Re  Re3  1  0.50000000  0.00000000  0.00000000  1
  N  N0  1  0.69971258  0.29735802  0.54388959  1
  N  N1  1  0.30028742  0.70264198  0.04388959  1
  N  N2  1  0.19971258  0.20264198  0.04388959  1
  N  N3  1  0.41792732  0.98236841  0.75000000  1
  N  N4  1  0.91792732  0.51763159  0.25000000  1
  N  N5  1  0.30028742  0.70264198  0.45611041  1
  N  N6  1  0.80028742  0.79735802  0.95611041  1
  N  N7  1  0.69971258  0.29735802  0.95611041  1
  N  N8  1  0.80028742  0.79735802  0.54388959  1
  N  N9  1  0.08207268  0.48236841  0.75000000  1
  N  N10  1  0.19971258  0.20264198  0.45611041  1
  N  N11  1  0.58207268  0.01763159  0.25000000  1
loop_
_geom_bond_atom_site_label_1
_geom_bond_atom_site_label_2
_geom_bond_distance
_geom_bond_site_symmetry_2
N0 Re2 2.003086 1_655
N0 Re0 2.009483 1_555
N0 Y2 2.387236 1_555
N0 Y3 2.584091 1_555
N0 Y0 2.651751 1_555
N1 Re1 2.003086 1_555
N1 Re3 2.009483 1_565
N1 Y0 2.387236 1_555
N1 Y1 2.584091 1_555
N1 Y2 2.651751 1_554
N2 Re3 2.003086 1_555
N2 Re1 2.009483 1_555
N2 Y1 2.387236 1_545
N2 Y0 2.584091 1_555
N2 Y3 2.651751 1_454
N3 Re3 1.973983 1_566
N3 Re0 1.973983 1_565
N3 Y3 2.354337 1_465
N3 Y2 2.414483 1_555
N4 Re1 1.973983 1_655
N4 Re2 1.973983 1_655
N4 Y0 2.354337 1_555
N4 Y1 2.414483 1_655
N5 Re2 2.003086 1_555
N5 Re0 2.009483 1_565
N5 Y0 2.387236 1_555
N5 Y1 2.584091 1_555
N5 Y2 2.651751 1_555
N6 Re3 2.003086 1_566
N6 Re1 2.009483 1_656
N6 Y3 2.387236 1_565
N6 Y2 2.584091 1_555
N6 Y1 2.651751 1_656
N7 Re1 2.003086 1_656
N7 Re3 2.009483 1_556
N7 Y2 2.387236 1_555
N7 Y3 2.584091 1_555
N7 Y0 2.651751 1_556
N8 Re0 2.003086 1_565
N8 Re2 2.009483 1_655
N8 Y3 2.387236 1_565
N8 Y2 2.584091 1_555
N8 Y1 2.651751 1_655
N9 Re2 1.973983 1_555
N9 Re1 1.973983 1_556
N9 Y2 2.354337 1_555
N9 Y3 2.414483 1_455
N10 Re0 2.003086 1_555
N10 Re2 2.009483 1_555
N10 Y1 2.387236 1_545
N10 Y0 2.584091 1_555
N10 Y3 2.651751 1_455
N11 Re3 1.973983 1_555
N11 Re0 1.973983 1_555
N11 Y1 2.354337 1_645
N11 Y0 2.414483 1_555
