# generated using pymatgen
data_ErF3
_symmetry_space_group_name_H-M   'P 1'
_cell_length_a   4.34367570
_cell_length_b   6.24784654
_cell_length_c   6.76421292
_cell_angle_alpha   90.00000000
_cell_angle_beta   90.00000000
_cell_angle_gamma   90.00000000
_symmetry_Int_Tables_number   1
_chemical_formula_structural   ErF3
_chemical_formula_sum   'Er4 F12'
_cell_volume   183.57139858
_cell_formula_units_Z   4
loop_
 _symmetry_equiv_pos_site_id
 _symmetry_equiv_pos_as_xyz
  1  'x, y, z'
loop_
 _atom_site_type_symbol
 _atom_site_label
 _atom_site_symmetry_multiplicity
 _atom_site_fract_x
 _atom_site_fract_y
 _atom_site_fract_z
 _atom_site_occupancy
  Er  Er0  1  0.93864099  0.63031511  0.75000000  1
  Er  Er1  1  0.43864099  0.86968489  0.25000000  1
  Er  Er2  1  0.56135901  0.13031511  0.75000000  1
  Er  Er3  1  0.06135901  0.36968489  0.25000000  1
  F  F0  1  0.37623517  0.16601435  0.43775116  1
  F  F1  1  0.87623517  0.33398565  0.56224884  1
  F  F2  1  0.12376483  0.66601435  0.06224884  1
  F  F3  1  0.62376483  0.83398565  0.93775116  1
  F  F4  1  0.59123504  0.52332504  0.25000000  1
  F  F5  1  0.09123504  0.97667496  0.75000000  1
  F  F6  1  0.90876496  0.02332504  0.25000000  1
  F  F7  1  0.40876496  0.47667496  0.75000000  1
  F  F8  1  0.37623517  0.16601435  0.06224884  1
  F  F9  1  0.87623517  0.33398565  0.93775116  1
  F  F10  1  0.12376483  0.66601435  0.43775116  1
  F  F11  1  0.62376483  0.83398565  0.56224884  1
loop_
_geom_bond_atom_site_label_1
_geom_bond_atom_site_label_2
_geom_bond_distance
_geom_bond_site_symmetry_2
Er0 F7 2.256431 1_655
Er0 F11 2.258936 1_555
Er0 F3 2.258936 1_555
Er0 F9 2.261440 1_555
Er0 F1 2.261440 1_555
Er0 F5 2.263236 1_655
Er0 F10 2.270990 1_655
Er0 F2 2.270990 1_656
Er0 F7 2.493763 1_555
Er1 F6 2.256431 1_565
Er1 F2 2.258936 1_555
Er1 F10 2.258936 1_555
Er1 F8 2.261440 1_565
Er1 F0 2.261440 1_565
Er1 F4 2.263236 1_555
Er1 F11 2.270990 1_555
Er1 F3 2.270990 1_554
Er1 F6 2.493763 1_465
Er2 F5 2.256431 1_545
Er2 F9 2.258936 1_555
Er2 F1 2.258936 1_555
Er2 F11 2.261440 1_545
Er2 F3 2.261440 1_545
Er2 F7 2.263236 1_555
Er2 F0 2.270990 1_555
Er2 F8 2.270990 1_556
Er2 F5 2.493763 1_645
Er3 F4 2.256431 1_455
Er3 F0 2.258936 1_555
Er3 F8 2.258936 1_555
Er3 F10 2.261440 1_555
Er3 F2 2.261440 1_555
Er3 F6 2.263236 1_455
Er3 F1 2.270990 1_455
Er3 F9 2.270990 1_454
Er3 F4 2.493763 1_555
