# generated using pymatgen
data_KCaCl3
_symmetry_space_group_name_H-M   'P 1'
_cell_length_a   5.40737222
_cell_length_b   5.40737222
_cell_length_c   5.40651703
_cell_angle_alpha   89.99604413
_cell_angle_beta   89.99604413
_cell_angle_gamma   90.02171300
_symmetry_Int_Tables_number   1
_chemical_formula_structural   KCaCl3
_chemical_formula_sum   'K1 Ca1 Cl3'
_cell_volume   158.08478525
_cell_formula_units_Z   1
loop_
 _symmetry_equiv_pos_site_id
 _symmetry_equiv_pos_as_xyz
  1  'x, y, z'
loop_
 _atom_site_type_symbol
 _atom_site_label
 _atom_site_symmetry_multiplicity
 _atom_site_fract_x
 _atom_site_fract_y
 _atom_site_fract_z
 _atom_site_occupancy
  K  K0  1  0.99804700  0.99804700  0.00001500  1
  Ca  Ca0  1  0.49789400  0.49789400  0.51478700  1
  Cl  Cl0  1  0.99942100  0.49552300  0.51722400  1
  Cl  Cl1  1  0.50728900  0.50728900  0.01485900  1
  Cl  Cl2  1  0.49552300  0.99942100  0.51722400  1
loop_
_geom_bond_atom_site_label_1
_geom_bond_atom_site_label_2
_geom_bond_distance
_geom_bond_site_symmetry_2
Ca0 Cl2 2.695486 1_545
Ca0 Cl0 2.695486 1_455
Ca0 Cl1 2.703817 1_555
Ca0 Cl1 2.704609 1_556
Ca0 Cl0 2.712011 1_555
Ca0 Cl2 2.712011 1_555
