# generated using pymatgen
data_LiSiB6
_symmetry_space_group_name_H-M   'P 1'
_cell_length_a   6.27847666
_cell_length_b   6.27847705
_cell_length_c   8.41359809
_cell_angle_alpha   89.99999870
_cell_angle_beta   89.99999161
_cell_angle_gamma   121.86435939
_symmetry_Int_Tables_number   1
_chemical_formula_structural   LiSiB6
_chemical_formula_sum   'Li4 Si4 B24'
_cell_volume   281.67713990
_cell_formula_units_Z   4
loop_
 _symmetry_equiv_pos_site_id
 _symmetry_equiv_pos_as_xyz
  1  'x, y, z'
loop_
 _atom_site_type_symbol
 _atom_site_label
 _atom_site_symmetry_multiplicity
 _atom_site_fract_x
 _atom_site_fract_y
 _atom_site_fract_z
 _atom_site_occupancy
  Li  Li0  1  0.32555087  0.67444967  0.65991815  1
  Li  Li1  1  0.82554989  0.17444890  0.84008214  1
  Li  Li2  1  0.17445187  0.82554842  0.15991832  1
  Li  Li3  1  0.67445117  0.32554827  0.34008199  1
  Si  Si0  1  0.66562441  0.33437563  0.62028146  1
  Si  Si1  1  0.16562454  0.83437554  0.87971909  1
  Si  Si2  1  0.83437472  0.16562524  0.12028095  1
  Si  Si3  1  0.33437494  0.66562536  0.37971895  1
  B  B0  1  0.31390576  0.15520298  0.53155154  1
  B  B1  1  0.84479739  0.68609444  0.53155153  1
  B  B2  1  0.84785975  0.15214048  0.55611731  1
  B  B3  1  0.10063122  0.89936912  0.65071309  1
  B  B4  1  0.11975873  0.19863942  0.66560665  1
  B  B5  1  0.80136090  0.88024135  0.66560661  1
  B  B6  1  0.30136070  0.38024134  0.83439366  1
  B  B7  1  0.61975873  0.69863928  0.83439361  1
  B  B8  1  0.60063105  0.39936902  0.84928757  1
  B  B9  1  0.34785982  0.65214038  0.94388325  1
  B  B10  1  0.34479731  0.18609430  0.96844875  1
  B  B11  1  0.81390574  0.65520277  0.96844871  1
  B  B12  1  0.18609365  0.34479741  0.03155136  1
  B  B13  1  0.65520271  0.81390631  0.03155139  1
  B  B14  1  0.65213940  0.34786058  0.05611660  1
  B  B15  1  0.39936785  0.60063202  0.15071336  1
  B  B16  1  0.38024087  0.30136137  0.16560668  1
  B  B17  1  0.69863874  0.61975917  0.16560670  1
  B  B18  1  0.19863905  0.11975923  0.33439317  1
  B  B19  1  0.88024100  0.80136133  0.33439319  1
  B  B20  1  0.89936815  0.10063207  0.34928655  1
  B  B21  1  0.15213967  0.84786080  0.44388332  1
  B  B22  1  0.15520261  0.31390625  0.46844865  1
  B  B23  1  0.68609381  0.84479755  0.46844868  1
loop_
_geom_bond_atom_site_label_1
_geom_bond_atom_site_label_2
_geom_bond_distance
_geom_bond_site_symmetry_2
Li0 Si3 2.359472 1_555
Li0 Si1 2.549677 1_555
Li1 Si2 2.359469 1_556
Li1 Si0 2.549676 1_555
Li2 Si1 2.359474 1_554
Li2 Si3 2.549653 1_555
Li3 Si0 2.359476 1_555
Li3 Si2 2.549657 1_555
B0 B3 1.762762 1_545
B0 B18 1.776198 1_555
B0 B4 1.784184 1_555
B0 B21 1.797187 1_545
B0 B22 1.820941 1_555
B0 Si0 2.019006 1_555
B0 Li3 2.511387 1_555
B1 B3 1.762762 1_655
B1 B19 1.776198 1_555
B1 B5 1.784184 1_555
B1 B21 1.797187 1_655
B1 B23 1.820942 1_555
B1 Si0 2.019007 1_555
B1 Li3 2.511391 1_555
B2 B22 1.797192 1_655
B2 B23 1.797192 1_545
B2 B4 1.822600 1_655
B2 B5 1.822601 1_545
B2 B20 1.829714 1_555
B2 Si0 2.071670 1_555
B2 Li1 2.401680 1_555
B2 Li3 2.631734 1_555
B3 B5 1.822738 1_455
B3 B4 1.822739 1_565
B3 Si1 2.054569 1_555
B3 Li0 2.469784 1_555
B4 B6 1.801153 1_555
B4 B5 1.942459 1_445
B4 Li1 2.300841 1_455
B4 Li0 2.553574 1_555
B5 B7 1.801154 1_555
B5 Li1 2.300839 1_565
B5 Li0 2.553573 1_555
B6 B9 1.822601 1_555
B6 B8 1.822739 1_555
B6 B7 1.942459 1_555
B6 Li0 2.300840 1_555
B6 Li1 2.553577 1_455
B7 B9 1.822601 1_555
B7 B8 1.822739 1_555
B7 Li0 2.300838 1_555
B7 Li1 2.553571 1_565
B8 Si0 2.054570 1_555
B8 Li1 2.469784 1_555
B9 Si1 2.071670 1_555
B9 Li0 2.401682 1_555
B9 Li2 2.631730 1_556
B10 B8 1.762760 1_555
B10 B16 1.776196 1_556
B10 B6 1.784185 1_555
B10 B14 1.797185 1_556
B10 B12 1.820942 1_556
B10 Si1 2.019006 1_545
B10 Li2 2.511390 1_546
B11 B8 1.762760 1_555
B11 B17 1.776196 1_556
B11 B7 1.784185 1_555
B11 B14 1.797186 1_556
B11 B13 1.820941 1_556
B11 Si1 2.019006 1_655
B11 Li2 2.511391 1_656
B12 B15 1.762766 1_555
B12 B6 1.776193 1_554
B12 B16 1.784185 1_555
B12 B9 1.797191 1_554
B12 Si2 2.019007 1_455
B12 Li1 2.511378 1_454
B13 B15 1.762766 1_555
B13 B7 1.776194 1_554
B13 B17 1.784185 1_555
B13 B9 1.797190 1_554
B13 Si2 2.019007 1_565
B13 Li1 2.511373 1_564
B14 B16 1.822600 1_555
B14 B17 1.822600 1_555
B14 B8 1.829700 1_554
B14 Si2 2.071672 1_555
B14 Li3 2.401688 1_555
B14 Li1 2.631751 1_554
B15 B16 1.822743 1_555
B15 B17 1.822744 1_555
B15 B9 1.829708 1_554
B15 Si3 2.054565 1_555
B15 Li2 2.469747 1_555
B16 B18 1.801150 1_555
B16 B17 1.942458 1_555
B16 Li3 2.300856 1_555
B16 Li2 2.553591 1_545
B17 B19 1.801151 1_555
B17 Li3 2.300857 1_555
B17 Li2 2.553592 1_655
B18 B22 1.784186 1_555
B18 B21 1.822599 1_545
B18 B20 1.822744 1_455
B18 B19 1.942459 1_445
B18 Li2 2.300855 1_545
B18 Li3 2.553587 1_555
B19 B23 1.784186 1_555
B19 B21 1.822600 1_655
B19 B20 1.822743 1_565
B19 Li2 2.300855 1_655
B19 Li3 2.553592 1_555
B20 B22 1.762766 1_655
B20 B23 1.762766 1_545
B20 Si2 2.054566 1_555
B20 Li3 2.469752 1_555
B21 B3 1.829706 1_555
B21 Si3 2.071672 1_555
B21 Li2 2.401685 1_555
B21 Li0 2.631754 1_555
B22 B4 1.776195 1_555
B22 Si3 2.019008 1_555
B22 Li0 2.511378 1_555
B23 B5 1.776196 1_555
B23 Si3 2.019007 1_555
B23 Li0 2.511376 1_555
