# generated using pymatgen
data_La3TiSb5
_symmetry_space_group_name_H-M   'P 1'
_cell_length_a   9.65505492
_cell_length_b   9.65505611
_cell_length_c   6.26263579
_cell_angle_alpha   90.00000000
_cell_angle_beta   90.00000000
_cell_angle_gamma   120.00000331
_symmetry_Int_Tables_number   1
_chemical_formula_structural   La3TiSb5
_chemical_formula_sum   'La6 Ti2 Sb10'
_cell_volume   505.58865850
_cell_formula_units_Z   2
loop_
 _symmetry_equiv_pos_site_id
 _symmetry_equiv_pos_as_xyz
  1  'x, y, z'
loop_
 _atom_site_type_symbol
 _atom_site_label
 _atom_site_symmetry_multiplicity
 _atom_site_fract_x
 _atom_site_fract_y
 _atom_site_fract_z
 _atom_site_occupancy
  La  La0  1  0.38008333  -0.00000000  0.75000000  1
  La  La1  1  0.38008333  0.38008333  0.25000000  1
  La  La2  1  -0.00000000  0.61991667  0.25000000  1
  La  La3  1  0.00000000  0.38008333  0.75000000  1
  La  La4  1  0.61991667  0.61991667  0.75000000  1
  La  La5  1  0.61991667  0.00000000  0.25000000  1
  Ti  Ti0  1  0.00000000  0.00000000  0.00000000  1
  Ti  Ti1  1  0.00000000  0.00000000  0.50000000  1
  Sb  Sb0  1  0.66666700  0.33333300  0.50000000  1
  Sb  Sb1  1  0.33333300  0.66666700  0.00000000  1
  Sb  Sb2  1  0.75302862  0.00000000  0.75000000  1
  Sb  Sb3  1  0.75302862  0.75302862  0.25000000  1
  Sb  Sb4  1  0.33333300  0.66666700  0.50000000  1
  Sb  Sb5  1  0.66666700  0.33333300  0.00000000  1
  Sb  Sb6  1  0.24697138  -0.00000000  0.25000000  1
  Sb  Sb7  1  0.24697138  0.24697138  0.75000000  1
  Sb  Sb8  1  -0.00000000  0.75302862  0.75000000  1
  Sb  Sb9  1  0.00000000  0.24697138  0.25000000  1
loop_
_geom_bond_atom_site_label_1
_geom_bond_atom_site_label_2
_geom_bond_distance
_geom_bond_site_symmetry_2
La0 Sb8 3.225258 1_545
La0 Sb7 3.225258 1_555
La0 Sb6 3.384804 1_556
La0 Sb6 3.384804 1_555
La0 Sb4 3.400016 1_545
La0 Sb1 3.400016 1_546
La0 Sb5 3.400019 1_556
La0 Sb0 3.400019 1_555
La0 Sb2 3.600807 1_555
La1 Sb9 3.225258 1_555
La1 Sb6 3.225258 1_555
La1 Sb7 3.384804 1_554
La1 Sb7 3.384804 1_555
La1 Sb5 3.400024 1_555
La1 Sb0 3.400024 1_555
La1 Sb1 3.400025 1_555
La1 Sb4 3.400025 1_555
La1 Sb3 3.600807 1_555
La2 Sb3 3.225258 1_455
La2 Sb6 3.225258 1_565
La2 Sb8 3.384804 1_555
La2 Sb8 3.384804 1_554
La2 Sb4 3.400016 1_555
La2 Sb1 3.400016 1_555
La2 Sb0 3.400019 1_455
La2 Sb5 3.400019 1_455
La2 Sb9 3.600808 1_555
La3 Sb7 3.225258 1_555
La3 Sb2 3.225258 1_455
La3 Sb9 3.384804 1_556
La3 Sb9 3.384804 1_555
La3 Sb0 3.400016 1_455
La3 Sb5 3.400016 1_456
La3 Sb4 3.400019 1_555
La3 Sb1 3.400019 1_556
La3 Sb8 3.600808 1_555
La4 Sb8 3.225258 1_655
La4 Sb2 3.225258 1_565
La4 Sb3 3.384804 1_556
La4 Sb3 3.384804 1_555
La4 Sb4 3.400024 1_555
La4 Sb1 3.400024 1_556
La4 Sb5 3.400025 1_556
La4 Sb0 3.400025 1_555
La4 Sb7 3.600807 1_555
La5 Sb9 3.225258 1_655
La5 Sb3 3.225258 1_545
La5 Sb2 3.384804 1_554
La5 Sb2 3.384804 1_555
La5 Sb0 3.400016 1_555
La5 Sb5 3.400016 1_555
La5 Sb4 3.400019 1_545
La5 Sb1 3.400019 1_545
La5 Sb6 3.600807 1_555
Sb0 Sb5 3.131318 1_555
Sb0 Sb5 3.131318 1_556
Sb1 Sb4 3.131318 1_554
Sb1 Sb4 3.131318 1_555
Sb2 Ti0 2.852584 1_656
Sb2 Ti1 2.852584 1_655
Sb3 Ti0 2.852584 1_665
Sb3 Ti1 2.852584 1_665
Sb6 Ti0 2.852584 1_555
Sb6 Ti1 2.852584 1_555
Sb7 Ti0 2.852584 1_556
Sb7 Ti1 2.852584 1_555
Sb8 Ti0 2.852584 1_566
Sb8 Ti1 2.852584 1_565
Sb9 Ti0 2.852584 1_555
Sb9 Ti1 2.852584 1_555
