# generated using pymatgen
data_LaH3
_symmetry_space_group_name_H-M   'P 1'
_cell_length_a   4.04784421
_cell_length_b   4.04784421
_cell_length_c   4.04784421
_cell_angle_alpha   124.74511817
_cell_angle_beta   124.74511817
_cell_angle_gamma   81.96063065
_symmetry_Int_Tables_number   1
_chemical_formula_structural   LaH3
_chemical_formula_sum   'La1 H3'
_cell_volume   43.06786221
_cell_formula_units_Z   1
loop_
 _symmetry_equiv_pos_site_id
 _symmetry_equiv_pos_as_xyz
  1  'x, y, z'
loop_
 _atom_site_type_symbol
 _atom_site_label
 _atom_site_symmetry_multiplicity
 _atom_site_fract_x
 _atom_site_fract_y
 _atom_site_fract_z
 _atom_site_occupancy
  La  La0  1  0.00000000  0.00000000  0.00000000  1
  H  H0  1  0.75000000  0.25000000  0.50000000  1
  H  H1  1  0.25000000  0.75000000  0.50000000  1
  H  H2  1  0.50000000  0.50000000  0.00000000  1
loop_
_geom_bond_atom_site_label_1
_geom_bond_atom_site_label_2
_geom_bond_distance
_geom_bond_site_symmetry_2
H0 La0 2.420321 1_666
H0 La0 2.420321 1_656
H0 La0 2.420321 1_555
H0 La0 2.420321 1_655
H1 La0 2.420321 1_666
H1 La0 2.420321 1_566
H1 La0 2.420321 1_565
H1 La0 2.420321 1_555
H2 La0 2.654575 1_554
H2 La0 2.654575 1_655
H2 La0 2.654575 1_666
H2 La0 2.654575 1_565
