# generated using pymatgen
data_Zn3Rh
_symmetry_space_group_name_H-M   'P 1'
_cell_length_a   5.35521060
_cell_length_b   5.35520992
_cell_length_c   4.34494910
_cell_angle_alpha   90.00000000
_cell_angle_beta   90.00000000
_cell_angle_gamma   119.99999791
_symmetry_Int_Tables_number   1
_chemical_formula_structural   Zn3Rh
_chemical_formula_sum   'Zn6 Rh2'
_cell_volume   107.91166366
_cell_formula_units_Z   2
loop_
 _symmetry_equiv_pos_site_id
 _symmetry_equiv_pos_as_xyz
  1  'x, y, z'
loop_
 _atom_site_type_symbol
 _atom_site_label
 _atom_site_symmetry_multiplicity
 _atom_site_fract_x
 _atom_site_fract_y
 _atom_site_fract_z
 _atom_site_occupancy
  Zn  Zn0  1  0.16860361  0.33720823  0.25000200  1
  Zn  Zn1  1  0.66279377  0.83139739  0.25000200  1
  Zn  Zn2  1  0.16860161  0.83139739  0.25000200  1
  Zn  Zn3  1  0.83139639  0.66279177  0.75000100  1
  Zn  Zn4  1  0.33720823  0.16860361  0.75000100  1
  Zn  Zn5  1  0.83139739  0.16860361  0.75000100  1
  Rh  Rh0  1  0.33333400  0.66666700  0.75000100  1
  Rh  Rh1  1  0.66666600  0.33333300  0.25000200  1
loop_
_geom_bond_atom_site_label_1
_geom_bond_atom_site_label_2
_geom_bond_distance
_geom_bond_site_symmetry_2
Zn0 Zn1 2.646490 1_555
Zn0 Zn2 2.646492 1_555
Zn0 Zn5 2.676815 1_455
Zn0 Zn5 2.676822 1_454
Zn0 Zn4 2.676823 1_555
Zn0 Zn4 2.676830 1_554
Zn0 Zn2 2.708718 1_545
Zn0 Zn1 2.708721 1_445
Zn1 Zn2 2.646503 1_555
Zn1 Zn5 2.676815 1_565
Zn1 Zn3 2.676821 1_555
Zn1 Zn5 2.676822 1_564
Zn1 Zn3 2.676828 1_554
Zn1 Zn2 2.708708 1_655
Zn2 Zn3 2.676813 1_455
Zn2 Zn4 2.676815 1_565
Zn2 Zn3 2.676820 1_454
Zn2 Zn4 2.676822 1_564
Zn3 Zn4 2.646482 1_555
Zn3 Zn5 2.646484 1_555
Zn3 Zn5 2.708726 1_565
Zn3 Zn4 2.708729 1_665
Zn4 Zn5 2.646487 1_555
Zn4 Zn5 2.708724 1_455
Rh0 Zn0 2.655983 1_555
Rh0 Zn1 2.655986 1_555
Rh0 Zn0 2.655991 1_556
Rh0 Zn1 2.655993 1_556
Rh0 Zn2 2.655994 1_555
Rh0 Zn2 2.656001 1_556
Rh0 Zn4 2.677663 1_565
Rh0 Zn5 2.677665 1_565
Rh0 Zn5 2.677665 1_455
Rh0 Zn3 2.677666 1_455
Rh0 Zn3 2.677666 1_555
Rh0 Zn4 2.677668 1_555
Rh1 Zn4 2.655981 1_555
Rh1 Zn3 2.655983 1_555
Rh1 Zn4 2.655988 1_554
Rh1 Zn5 2.655989 1_555
Rh1 Zn3 2.655991 1_554
Rh1 Zn5 2.655996 1_554
Rh1 Zn1 2.677662 1_545
Rh1 Zn2 2.677665 1_545
Rh1 Zn2 2.677665 1_655
Rh1 Zn0 2.677666 1_655
Rh1 Zn0 2.677666 1_555
Rh1 Zn1 2.677668 1_555
