# generated using pymatgen
data_LaMoN3
_symmetry_space_group_name_H-M   'P 1'
_cell_length_a   3.89831600
_cell_length_b   3.89831600
_cell_length_c   4.65975000
_cell_angle_alpha   90.00000000
_cell_angle_beta   90.00000000
_cell_angle_gamma   90.00000000
_symmetry_Int_Tables_number   1
_chemical_formula_structural   LaMoN3
_chemical_formula_sum   'La1 Mo1 N3'
_cell_volume   70.81360397
_cell_formula_units_Z   1
loop_
 _symmetry_equiv_pos_site_id
 _symmetry_equiv_pos_as_xyz
  1  'x, y, z'
loop_
 _atom_site_type_symbol
 _atom_site_label
 _atom_site_symmetry_multiplicity
 _atom_site_fract_x
 _atom_site_fract_y
 _atom_site_fract_z
 _atom_site_occupancy
  La  La0  1  0.50000000  0.50000000  0.36288200  1
  Mo  Mo0  1  0.00000000  0.00000000  0.80600100  1
  N  N0  1  0.00000000  0.50000000  0.68936600  1
  N  N1  1  0.00000000  0.00000000  0.18866400  1
  N  N2  1  0.50000000  0.00000000  0.68936600  1
loop_
_geom_bond_atom_site_label_1
_geom_bond_atom_site_label_2
_geom_bond_distance
_geom_bond_site_symmetry_2
La0 N0 2.472584 1_555
La0 N2 2.472584 1_555
La0 N0 2.472584 1_655
La0 N2 2.472584 1_565
La0 N1 2.873582 1_555
La0 N1 2.873582 1_565
La0 N1 2.873582 1_655
La0 N1 2.873582 1_665
Mo0 N1 1.783114 1_556
Mo0 N0 2.023511 1_555
Mo0 N2 2.023511 1_555
Mo0 N2 2.023511 1_455
Mo0 N0 2.023511 1_545
