# generated using pymatgen
data_AgAsS
_symmetry_space_group_name_H-M   'P 1'
_cell_length_a   3.96897100
_cell_length_b   6.08320600
_cell_length_c   12.12033900
_cell_angle_alpha   90.00000000
_cell_angle_beta   90.00000000
_cell_angle_gamma   90.00000000
_symmetry_Int_Tables_number   1
_chemical_formula_structural   AgAsS
_chemical_formula_sum   'Ag4 As4 S4'
_cell_volume   292.63429144
_cell_formula_units_Z   4
loop_
 _symmetry_equiv_pos_site_id
 _symmetry_equiv_pos_as_xyz
  1  'x, y, z'
loop_
 _atom_site_type_symbol
 _atom_site_label
 _atom_site_symmetry_multiplicity
 _atom_site_fract_x
 _atom_site_fract_y
 _atom_site_fract_z
 _atom_site_occupancy
  Ag  Ag0  1  0.25000000  0.93409300  0.83154300  1
  Ag  Ag1  1  0.25000000  0.56590700  0.33154300  1
  Ag  Ag2  1  0.75000000  0.43409300  0.66845700  1
  Ag  Ag3  1  0.75000000  0.06590700  0.16845700  1
  As  As0  1  0.25000000  0.86464800  0.48883200  1
  As  As1  1  0.25000000  0.63535200  0.98883200  1
  As  As2  1  0.75000000  0.36464800  0.01116800  1
  As  As3  1  0.75000000  0.13535200  0.51116800  1
  S  S0  1  0.25000000  0.79734800  0.15583000  1
  S  S1  1  0.25000000  0.70265200  0.65583000  1
  S  S2  1  0.75000000  0.29734800  0.34417000  1
  S  S3  1  0.75000000  0.20265200  0.84417000  1
loop_
_geom_bond_atom_site_label_1
_geom_bond_atom_site_label_2
_geom_bond_distance
_geom_bond_site_symmetry_2
Ag0 S1 2.553002 1_555
Ag0 S3 2.574991 1_565
Ag0 S3 2.574991 1_465
Ag0 As1 2.633806 1_555
Ag1 S0 2.553002 1_555
Ag1 S2 2.574991 1_555
Ag1 S2 2.574991 1_455
Ag1 As0 2.633806 1_555
Ag2 S3 2.553002 1_555
Ag2 S1 2.574991 1_655
Ag2 S1 2.574991 1_555
Ag2 As3 2.633806 1_555
Ag3 S2 2.553002 1_555
Ag3 S0 2.574991 1_545
Ag3 S0 2.574991 1_645
Ag3 As2 2.633806 1_555
As0 S1 2.251220 1_555
As0 As3 2.592923 1_565
As0 As3 2.592923 1_465
As1 S0 2.251220 1_556
As1 As2 2.592923 1_456
As1 As2 2.592923 1_556
As2 S3 2.251220 1_554
As3 S2 2.251220 1_555
