# generated using pymatgen
data_Ta3SnS6
_symmetry_space_group_name_H-M   'P 1'
_cell_length_a   5.79594845
_cell_length_b   5.79594757
_cell_length_c   14.56062586
_cell_angle_alpha   90.00000000
_cell_angle_beta   90.00000000
_cell_angle_gamma   119.99999324
_symmetry_Int_Tables_number   1
_chemical_formula_structural   Ta3SnS6
_chemical_formula_sum   'Ta6 Sn2 S12'
_cell_volume   423.60362327
_cell_formula_units_Z   2
loop_
 _symmetry_equiv_pos_site_id
 _symmetry_equiv_pos_as_xyz
  1  'x, y, z'
loop_
 _atom_site_type_symbol
 _atom_site_label
 _atom_site_symmetry_multiplicity
 _atom_site_fract_x
 _atom_site_fract_y
 _atom_site_fract_z
 _atom_site_occupancy
  Ta  Ta0  1  0.33333300  0.66666700  0.50000000  1
  Ta  Ta1  1  0.66666700  0.33333300  -0.00000000  1
  Ta  Ta2  1  0.66666700  0.33333300  0.50000000  1
  Ta  Ta3  1  0.33333300  0.66666700  -0.00000000  1
  Ta  Ta4  1  0.00000000  0.00000000  0.50000000  1
  Ta  Ta5  1  0.00000000  0.00000000  -0.00000000  1
  Sn  Sn0  1  0.00000000  0.00000000  0.75000000  1
  Sn  Sn1  1  0.00000000  0.00000000  0.25000000  1
  S  S0  1  0.33556099  0.00000000  0.39339585  1
  S  S1  1  0.00000000  0.33556099  0.39339585  1
  S  S2  1  0.66443901  0.66443901  0.39339585  1
  S  S3  1  0.33556099  0.33556099  0.89339585  1
  S  S4  1  0.66443901  0.66443901  0.60660415  1
  S  S5  1  0.66443901  -0.00000000  0.89339585  1
  S  S6  1  -0.00000000  0.66443901  0.89339585  1
  S  S7  1  -0.00000000  0.66443901  0.10660415  1
  S  S8  1  0.33556099  0.33556099  0.10660415  1
  S  S9  1  0.00000000  0.33556099  0.60660415  1
  S  S10  1  0.33556099  0.00000000  0.60660415  1
  S  S11  1  0.66443901  -0.00000000  0.10660415  1
loop_
_geom_bond_atom_site_label_1
_geom_bond_atom_site_label_2
_geom_bond_distance
_geom_bond_site_symmetry_2
S0 Ta0 2.473290 1_545
S0 Ta2 2.473293 1_555
S0 Ta4 2.488375 1_555
S0 Sn1 2.853433 1_555
S1 Ta2 2.473290 1_455
S1 Ta0 2.473293 1_555
S1 Ta4 2.488375 1_555
S1 Sn1 2.853433 1_555
S2 Ta2 2.473295 1_555
S2 Ta0 2.473295 1_555
S2 Ta4 2.488375 1_665
S2 Sn1 2.853433 1_665
S3 Ta3 2.473295 1_556
S3 Ta1 2.473295 1_556
S3 Ta5 2.488375 1_556
S3 Sn0 2.853433 1_555
S4 Ta2 2.473295 1_555
S4 Ta0 2.473295 1_555
S4 Ta4 2.488375 1_665
S4 Sn0 2.853433 1_665
S5 Ta1 2.473290 1_556
S5 Ta3 2.473293 1_546
S5 Ta5 2.488375 1_656
S5 Sn0 2.853433 1_655
S6 Ta3 2.473290 1_556
S6 Ta1 2.473293 1_456
S6 Ta5 2.488375 1_566
S6 Sn0 2.853433 1_565
S7 Ta3 2.473290 1_555
S7 Ta1 2.473293 1_455
S7 Ta5 2.488375 1_565
S7 Sn1 2.853433 1_565
S8 Ta3 2.473295 1_555
S8 Ta1 2.473295 1_555
S8 Ta5 2.488375 1_555
S8 Sn1 2.853433 1_555
S9 Ta2 2.473290 1_455
S9 Ta0 2.473293 1_555
S9 Ta4 2.488375 1_555
S9 Sn0 2.853433 1_555
S10 Ta0 2.473290 1_545
S10 Ta2 2.473293 1_555
S10 Ta4 2.488375 1_555
S10 Sn0 2.853433 1_555
S11 Ta1 2.473290 1_555
S11 Ta3 2.473293 1_545
S11 Ta5 2.488375 1_655
S11 Sn1 2.853433 1_655
