# generated using pymatgen
data_CaAc3
_symmetry_space_group_name_H-M   'P 1'
_cell_length_a   8.05193014
_cell_length_b   8.05192546
_cell_length_c   6.60894949
_cell_angle_alpha   90.00000000
_cell_angle_beta   90.00000000
_cell_angle_gamma   119.99997760
_symmetry_Int_Tables_number   1
_chemical_formula_structural   CaAc3
_chemical_formula_sum   'Ca2 Ac6'
_cell_volume   371.07603405
_cell_formula_units_Z   2
loop_
 _symmetry_equiv_pos_site_id
 _symmetry_equiv_pos_as_xyz
  1  'x, y, z'
loop_
 _atom_site_type_symbol
 _atom_site_label
 _atom_site_symmetry_multiplicity
 _atom_site_fract_x
 _atom_site_fract_y
 _atom_site_fract_z
 _atom_site_occupancy
  Ca  Ca0  1  0.33333200  0.66666700  0.75000000  1
  Ca  Ca1  1  0.66666700  0.33333300  0.24999900  1
  Ac  Ac0  1  0.16790561  0.33581223  0.24999900  1
  Ac  Ac1  1  0.66418777  0.83209339  0.24999900  1
  Ac  Ac2  1  0.16790561  0.83209339  0.24999900  1
  Ac  Ac3  1  0.83209439  0.66418777  0.75000000  1
  Ac  Ac4  1  0.33581323  0.16790561  0.75000000  1
  Ac  Ac5  1  0.83209439  0.16790561  0.75000000  1
loop_
_geom_bond_atom_site_label_1
_geom_bond_atom_site_label_2
_geom_bond_distance
_geom_bond_site_symmetry_2
Ac0 Ac2 3.996019 1_555
Ac0 Ac1 3.996025 1_555
Ac0 Ca1 4.025994 1_455
Ac0 Ca1 4.026010 1_555
Ac0 Ca0 4.030168 1_554
Ac0 Ca0 4.030179 1_555
Ac0 Ac5 4.050054 1_454
Ac0 Ac5 4.050064 1_455
Ac0 Ac4 4.050065 1_554
Ac0 Ac4 4.050076 1_555
Ac0 Ac1 4.055905 1_445
Ac0 Ac2 4.055907 1_545
Ac1 Ac2 3.996029 1_555
Ac1 Ca1 4.026000 1_565
Ac1 Ca1 4.026000 1_555
Ac1 Ca0 4.030173 1_554
Ac1 Ca0 4.030184 1_555
Ac1 Ac5 4.050057 1_564
Ac1 Ac3 4.050057 1_554
Ac1 Ac5 4.050068 1_565
Ac1 Ac3 4.050068 1_555
Ac1 Ac2 4.055901 1_655
Ac2 Ca1 4.025998 1_455
Ac2 Ca1 4.026006 1_565
Ac2 Ca0 4.030160 1_554
Ac2 Ca0 4.030171 1_555
Ac2 Ac3 4.050054 1_454
Ac2 Ac4 4.050057 1_564
Ac2 Ac3 4.050064 1_455
Ac2 Ac4 4.050068 1_565
Ac3 Ac4 3.996025 1_555
Ac3 Ac5 3.996027 1_555
Ac3 Ca0 4.025986 1_655
Ac3 Ca0 4.026018 1_555
Ac3 Ca1 4.030168 1_556
Ac3 Ca1 4.030179 1_555
Ac3 Ac5 4.055898 1_565
Ac3 Ac4 4.055905 1_665
Ac4 Ac5 3.996021 1_555
Ac4 Ca0 4.025984 1_545
Ac4 Ca0 4.026016 1_555
Ac4 Ca1 4.030165 1_556
Ac4 Ca1 4.030176 1_555
Ac4 Ac5 4.055909 1_455
Ac5 Ca0 4.025998 1_655
Ac5 Ca0 4.026006 1_545
Ac5 Ca1 4.030168 1_556
Ac5 Ca1 4.030179 1_555
