# generated using pymatgen
data_Bi2Rh3S2
_symmetry_space_group_name_H-M   'P 1'
_cell_length_a   7.07326070
_cell_length_b   7.07326070
_cell_length_c   7.23164921
_cell_angle_alpha   108.56377938
_cell_angle_beta   112.15681332
_cell_angle_gamma   106.79348857
_symmetry_Int_Tables_number   1
_chemical_formula_structural   Bi2Rh3S2
_chemical_formula_sum   'Bi4 Rh6 S4'
_cell_volume   281.08294362
_cell_formula_units_Z   2
loop_
 _symmetry_equiv_pos_site_id
 _symmetry_equiv_pos_as_xyz
  1  'x, y, z'
loop_
 _atom_site_type_symbol
 _atom_site_label
 _atom_site_symmetry_multiplicity
 _atom_site_fract_x
 _atom_site_fract_y
 _atom_site_fract_z
 _atom_site_occupancy
  Bi  Bi0  1  0.23703075  0.98733700  0.22436575  1
  Bi  Bi1  1  0.74837613  0.50396462  0.25233875  1
  Bi  Bi2  1  0.25162387  0.49603638  0.74766125  1
  Bi  Bi3  1  0.76297025  0.01266300  0.77563425  1
  Rh  Rh0  1  -0.00000000  0.49999900  -0.00000000  1
  Rh  Rh1  1  0.27258623  0.27258623  -0.00000000  1
  Rh  Rh2  1  0.72741377  0.72741377  -0.00000000  1
  Rh  Rh3  1  0.50000000  0.00000100  -0.00000000  1
  Rh  Rh4  1  0.98670525  0.26577306  0.25247730  1
  Rh  Rh5  1  0.01329575  0.73422694  0.74752270  1
  S  S0  1  0.30367526  0.54251949  0.30804385  1
  S  S1  1  0.76552536  0.00436959  0.30804385  1
  S  S2  1  0.69632474  0.45748151  0.69195515  1
  S  S3  1  0.23447464  0.99563141  0.69195615  1
loop_
_geom_bond_atom_site_label_1
_geom_bond_atom_site_label_2
_geom_bond_distance
_geom_bond_site_symmetry_2
Bi0 Rh5 2.813632 1_554
Bi0 Rh3 2.893635 1_565
Bi0 Rh0 2.893653 1_555
Bi0 Rh1 2.977541 1_565
Bi0 Rh2 2.977554 1_455
Bi0 Rh4 3.014426 1_465
Bi1 Rh4 2.705790 1_555
Bi1 Rh2 2.760023 1_555
Bi1 Rh1 2.760035 1_555
Bi1 Rh5 2.906704 1_655
Bi1 Rh0 2.990738 1_655
Bi1 Rh3 2.990744 1_555
Bi2 Rh5 2.705778 1_555
Bi2 Rh1 2.760029 1_556
Bi2 Rh2 2.760035 1_556
Bi2 Rh4 2.906704 1_455
Bi2 Rh0 2.990738 1_556
Bi2 Rh3 2.990750 1_566
Bi3 Rh4 2.813632 1_556
Bi3 Rh3 2.893640 1_556
Bi3 Rh0 2.893641 1_656
Bi3 Rh2 2.977542 1_546
Bi3 Rh1 2.977548 1_656
Bi3 Rh5 3.014426 1_645
Rh0 S0 2.292948 1_555
Rh0 S2 2.292962 1_454
Rh1 S3 2.309982 1_544
Rh1 S0 2.309985 1_555
Rh2 S1 2.309986 1_565
Rh2 S2 2.309987 1_554
Rh3 S3 2.292951 1_544
Rh3 S1 2.292955 1_555
Rh4 S0 2.302929 1_655
Rh4 S1 2.302929 1_555
Rh5 S2 2.302927 1_455
Rh5 S3 2.302930 1_555
