# generated using pymatgen
data_WN
_symmetry_space_group_name_H-M   'P 1'
_cell_length_a   2.87603443
_cell_length_b   2.87603443
_cell_length_c   2.90803300
_cell_angle_alpha   90.00000000
_cell_angle_beta   90.00000000
_cell_angle_gamma   120.00000984
_symmetry_Int_Tables_number   1
_chemical_formula_structural   WN
_chemical_formula_sum   'W1 N1'
_cell_volume   20.83138186
_cell_formula_units_Z   1
loop_
 _symmetry_equiv_pos_site_id
 _symmetry_equiv_pos_as_xyz
  1  'x, y, z'
loop_
 _atom_site_type_symbol
 _atom_site_label
 _atom_site_symmetry_multiplicity
 _atom_site_fract_x
 _atom_site_fract_y
 _atom_site_fract_z
 _atom_site_occupancy
  W  W0  1  0.33333300  0.66666700  0.50000000  1
  N  N0  1  0.00000000  0.00000000  0.00000000  1
loop_
_geom_bond_atom_site_label_1
_geom_bond_atom_site_label_2
_geom_bond_distance
_geom_bond_site_symmetry_2
N0 W0 2.207114 1_544
N0 W0 2.207114 1_545
N0 W0 2.207115 1_554
N0 W0 2.207115 1_444
N0 W0 2.207115 1_445
N0 W0 2.207115 1_555
