# generated using pymatgen
data_Rb3Sb2Au3
_symmetry_space_group_name_H-M   'P 1'
_cell_length_a   8.22489575
_cell_length_b   8.22489625
_cell_length_c   8.22489508
_cell_angle_alpha   46.77886231
_cell_angle_beta   46.77885887
_cell_angle_gamma   46.77885762
_symmetry_Int_Tables_number   1
_chemical_formula_structural   Rb3Sb2Au3
_chemical_formula_sum   'Rb3 Sb2 Au3'
_cell_volume   269.95773826
_cell_formula_units_Z   1
loop_
 _symmetry_equiv_pos_site_id
 _symmetry_equiv_pos_as_xyz
  1  'x, y, z'
loop_
 _atom_site_type_symbol
 _atom_site_label
 _atom_site_symmetry_multiplicity
 _atom_site_fract_x
 _atom_site_fract_y
 _atom_site_fract_z
 _atom_site_occupancy
  Rb  Rb0  1  0.50000000  0.50000000  0.50000000  1
  Rb  Rb1  1  0.91937619  0.91937619  0.91937619  1
  Rb  Rb2  1  0.08062381  0.08062381  0.08062381  1
  Sb  Sb0  1  0.24723794  0.24723794  0.24723794  1
  Sb  Sb1  1  0.75276206  0.75276206  0.75276206  1
  Au  Au0  1  0.50000000  0.00000000  0.50000000  1
  Au  Au1  1  0.00000000  0.50000000  0.50000000  1
  Au  Au2  1  0.50000000  0.50000000  -0.00000000  1
loop_
_geom_bond_atom_site_label_1
_geom_bond_atom_site_label_2
_geom_bond_distance
_geom_bond_site_symmetry_2
Rb0 Sb0 4.163712 1_556
Rb0 Sb1 4.163712 1_554
Rb0 Sb1 4.163712 1_455
Rb0 Sb0 4.163712 1_655
Rb0 Sb1 4.163713 1_545
Rb0 Sb0 4.163713 1_565
Rb1 Sb1 3.653788 1_555
Rb1 Sb0 3.772130 1_566
Rb1 Sb0 3.772130 1_665
Rb1 Sb0 3.772130 1_656
Rb2 Sb0 3.653788 1_555
Rb2 Sb1 3.772130 1_544
Rb2 Sb1 3.772130 1_445
Rb2 Sb1 3.772130 1_454
Au0 Sb1 2.668022 1_545
Au0 Sb0 2.668022 1_555
Au0 Rb1 3.713075 1_544
Au0 Rb2 3.713075 1_556
Au0 Rb1 3.713076 1_445
Au0 Rb2 3.713076 1_655
Au0 Rb0 4.112448 1_555
Au0 Rb0 4.112448 1_545
Au1 Sb0 2.668022 1_555
Au1 Sb1 2.668022 1_455
Au1 Rb1 3.713075 1_454
Au1 Rb2 3.713075 1_556
Au1 Rb1 3.713076 1_445
Au1 Rb2 3.713076 1_565
Au1 Rb0 4.112448 1_455
Au1 Rb0 4.112448 1_555
Au2 Sb0 2.668022 1_555
Au2 Sb1 2.668022 1_554
Au2 Rb1 3.713076 1_454
Au2 Rb2 3.713076 1_655
Au2 Rb1 3.713076 1_544
Au2 Rb2 3.713076 1_565
Au2 Rb0 4.112448 1_555
Au2 Rb0 4.112448 1_554
