# generated using pymatgen
data_Ac2S3
_symmetry_space_group_name_H-M   'P 1'
_cell_length_a   7.61977894
_cell_length_b   7.61977254
_cell_length_c   7.87566361
_cell_angle_alpha   118.93090254
_cell_angle_beta   61.06913629
_cell_angle_gamma   119.99994156
_symmetry_Int_Tables_number   1
_chemical_formula_structural   Ac2S3
_chemical_formula_sum   'Ac4 S6'
_cell_volume   328.46489313
_cell_formula_units_Z   2
loop_
 _symmetry_equiv_pos_site_id
 _symmetry_equiv_pos_as_xyz
  1  'x, y, z'
loop_
 _atom_site_type_symbol
 _atom_site_label
 _atom_site_symmetry_multiplicity
 _atom_site_fract_x
 _atom_site_fract_y
 _atom_site_fract_z
 _atom_site_occupancy
  Ac  Ac0  1  0.64337591  0.35662309  0.06987028  1
  Ac  Ac1  1  0.85662309  0.14337591  0.43012872  1
  Ac  Ac2  1  0.14337691  0.85662409  0.56986928  1
  Ac  Ac3  1  0.35662309  0.64337591  0.93012972  1
  S  S0  1  0.53923379  0.75000000  0.25000000  1
  S  S1  1  0.25000000  0.03923379  0.25000000  1
  S  S2  1  0.96076821  0.46076821  0.25000000  1
  S  S3  1  0.03923279  0.53923279  0.74999900  1
  S  S4  1  0.75000000  0.96076621  0.74999900  1
  S  S5  1  0.46076621  0.25000000  0.74999900  1
loop_
_geom_bond_atom_site_label_1
_geom_bond_atom_site_label_2
_geom_bond_distance
_geom_bond_site_symmetry_2
Ac0 S0 2.966849 1_555
Ac0 S1 2.966850 1_555
Ac0 S2 2.966863 1_555
Ac0 S4 3.036985 1_544
Ac0 S5 3.036989 1_554
Ac0 S3 3.036989 1_654
Ac1 S0 2.966846 1_545
Ac1 S1 2.966853 1_655
Ac1 S2 2.966856 1_555
Ac1 S4 3.036982 1_545
Ac1 S3 3.036982 1_655
Ac1 S5 3.036986 1_555
Ac2 S5 2.966849 1_565
Ac2 S4 2.966851 1_455
Ac2 S3 2.966858 1_555
Ac2 S2 3.036972 1_455
Ac2 S1 3.036974 1_565
Ac2 S0 3.036984 1_555
Ac3 S5 2.966845 1_555
Ac3 S4 2.966860 1_555
Ac3 S3 2.966861 1_555
Ac3 S2 3.036973 1_456
Ac3 S0 3.036985 1_556
Ac3 S1 3.036986 1_566
