# generated using pymatgen
data_Er2PdRh
_symmetry_space_group_name_H-M   'P 1'
_cell_length_a   4.82254358
_cell_length_b   4.82254358
_cell_length_c   4.82254358
_cell_angle_alpha   60.00000000
_cell_angle_beta   60.00000000
_cell_angle_gamma   60.00000000
_symmetry_Int_Tables_number   1
_chemical_formula_structural   Er2PdRh
_chemical_formula_sum   'Er2 Pd1 Rh1'
_cell_volume   79.30735863
_cell_formula_units_Z   1
loop_
 _symmetry_equiv_pos_site_id
 _symmetry_equiv_pos_as_xyz
  1  'x, y, z'
loop_
 _atom_site_type_symbol
 _atom_site_label
 _atom_site_symmetry_multiplicity
 _atom_site_fract_x
 _atom_site_fract_y
 _atom_site_fract_z
 _atom_site_occupancy
  Er  Er0  1  0.00000000  0.00000000  -0.00000000  1
  Er  Er1  1  0.49999900  0.49999900  0.49999900  1
  Pd  Pd0  1  0.25000000  0.25000000  0.25000000  1
  Rh  Rh0  1  0.75000000  0.75000000  0.75000000  1
loop_
_geom_bond_atom_site_label_1
_geom_bond_atom_site_label_2
_geom_bond_distance
_geom_bond_site_symmetry_2
Er0 Rh0 2.953193 1_544
Er0 Pd0 2.953193 1_455
Er0 Pd0 2.953193 1_545
Er0 Rh0 2.953193 1_445
Er0 Rh0 2.953193 1_444
Er0 Rh0 2.953193 1_454
Er0 Pd0 2.953193 1_554
Er0 Pd0 2.953193 1_555
Er1 Pd0 2.953181 1_555
Er1 Rh0 2.953189 1_545
Er1 Rh0 2.953189 1_455
Er1 Rh0 2.953189 1_554
Er1 Pd0 2.953197 1_565
Er1 Pd0 2.953197 1_655
Er1 Pd0 2.953197 1_556
Er1 Rh0 2.953205 1_555
