# generated using pymatgen
data_LaCo5P3
_symmetry_space_group_name_H-M   'P 1'
_cell_length_a   6.02429386
_cell_length_b   6.02429309
_cell_length_c   11.31502153
_cell_angle_alpha   90.00063825
_cell_angle_beta   89.99937088
_cell_angle_gamma   145.00843424
_symmetry_Int_Tables_number   1
_chemical_formula_structural   LaCo5P3
_chemical_formula_sum   'La2 Co10 P6'
_cell_volume   235.48736543
_cell_formula_units_Z   2
loop_
 _symmetry_equiv_pos_site_id
 _symmetry_equiv_pos_as_xyz
  1  'x, y, z'
loop_
 _atom_site_type_symbol
 _atom_site_label
 _atom_site_symmetry_multiplicity
 _atom_site_fract_x
 _atom_site_fract_y
 _atom_site_fract_z
 _atom_site_occupancy
  La  La0  1  0.33573566  0.66426739  0.24997463  1
  La  La1  1  0.66430902  0.33568998  0.75002674  1
  Co  Co0  1  0.04969864  0.95030409  0.14801000  1
  Co  Co1  1  0.04968969  0.95031071  0.35196318  1
  Co  Co2  1  0.69663617  0.30336564  0.43291105  1
  Co  Co3  1  0.30336582  0.69663331  0.56703333  1
  Co  Co4  1  0.30336869  0.69662787  0.93299116  1
  Co  Co5  1  0.69663384  0.30336389  0.06706390  1
  Co  Co6  1  0.49999210  0.50000768  0.49996901  1
  Co  Co7  1  0.49999181  0.50000858  0.00003349  1
  Co  Co8  1  0.95030420  0.04969589  0.64800942  1
  Co  Co9  1  0.95030347  0.04969619  0.85201704  1
  P  P0  1  0.61708788  0.38291318  0.24996670  1
  P  P1  1  0.38291113  0.61708886  0.75003243  1
  P  P2  1  0.11840101  0.88160003  0.53497030  1
  P  P3  1  0.88158348  0.11841599  0.46499881  1
  P  P4  1  0.88158187  0.11841705  0.03501070  1
  P  P5  1  0.11840552  0.88159369  0.96501809  1
loop_
_geom_bond_atom_site_label_1
_geom_bond_atom_site_label_2
_geom_bond_distance
_geom_bond_site_symmetry_2
La0 P4 3.077962 1_565
La0 P4 3.077970 1_455
La0 P3 3.078513 1_565
La0 P3 3.078521 1_455
La0 P0 3.097235 1_565
La0 P0 3.097240 1_455
La0 P0 3.233088 1_555
La1 P5 3.078320 1_655
La1 P5 3.078321 1_545
La1 P2 3.078920 1_545
La1 P2 3.078925 1_655
La1 P1 3.096815 1_545
La1 P1 3.096818 1_655
La1 P1 3.233607 1_555
Co0 P5 2.215976 1_554
Co0 P0 2.282702 1_565
Co0 P0 2.282707 1_455
Co0 P4 2.316650 1_465
Co0 La0 3.264408 1_565
Co0 La0 3.264408 1_455
Co1 P2 2.216164 1_555
Co1 P0 2.282952 1_455
Co1 P0 2.282955 1_565
Co1 P3 2.316764 1_465
Co1 La0 3.264454 1_455
Co1 La0 3.264459 1_565
Co2 P3 2.156076 1_555
Co2 P0 2.262875 1_555
Co2 P2 2.328499 1_655
Co2 P2 2.328502 1_545
Co2 La0 3.181131 1_545
Co2 La0 3.181134 1_655
Co3 P2 2.156224 1_555
Co3 P1 2.263428 1_555
Co3 P3 2.328284 1_455
Co3 P3 2.328286 1_565
Co3 La1 3.181308 1_565
Co3 La1 3.181310 1_455
Co4 P5 2.156133 1_555
Co4 P1 2.262972 1_555
Co4 P4 2.328183 1_456
Co4 P4 2.328190 1_566
Co4 La1 3.181141 1_455
Co4 La1 3.181146 1_565
Co5 P4 2.155990 1_555
Co5 P0 2.262425 1_555
Co5 P5 2.328408 1_544
Co5 P5 2.328412 1_654
Co5 La0 3.180964 1_545
Co5 La0 3.180975 1_655
Co6 P3 2.299589 1_565
Co6 P3 2.299590 1_455
Co6 P2 2.299647 1_545
Co6 P2 2.299651 1_655
Co7 P4 2.299601 1_565
Co7 P4 2.299605 1_455
Co7 P5 2.299711 1_654
Co7 P5 2.299713 1_544
Co8 P3 2.216239 1_555
Co8 P1 2.283086 1_655
Co8 P1 2.283087 1_545
Co8 P2 2.316696 1_645
Co8 La1 3.265003 1_655
Co8 La1 3.265005 1_545
Co9 P4 2.216047 1_556
Co9 P1 2.282873 1_545
Co9 P1 2.282875 1_655
Co9 P5 2.316540 1_645
Co9 La1 3.264880 1_655
Co9 La1 3.264881 1_545
