# generated using pymatgen
data_NaAg(CO2)2
_symmetry_space_group_name_H-M   'P 1'
_cell_length_a   5.17239100
_cell_length_b   3.63377500
_cell_length_c   10.92328853
_cell_angle_alpha   86.94325461
_cell_angle_beta   90.00000000
_cell_angle_gamma   90.00000000
_symmetry_Int_Tables_number   1
_chemical_formula_structural   NaAg(CO2)2
_chemical_formula_sum   'Na2 Ag2 C4 O8'
_cell_volume   205.01443288
_cell_formula_units_Z   2
loop_
 _symmetry_equiv_pos_site_id
 _symmetry_equiv_pos_as_xyz
  1  'x, y, z'
loop_
 _atom_site_type_symbol
 _atom_site_label
 _atom_site_symmetry_multiplicity
 _atom_site_fract_x
 _atom_site_fract_y
 _atom_site_fract_z
 _atom_site_occupancy
  Na  Na0  1  0.43171600  0.30439800  0.89906400  1
  Na  Na1  1  0.93171600  0.69560200  0.10093600  1
  Ag  Ag0  1  0.55109400  0.60359100  0.58032900  1
  Ag  Ag1  1  0.05109400  0.39640900  0.41967100  1
  C  C0  1  0.55384500  0.92984600  0.30573100  1
  C  C1  1  0.05384500  0.07015400  0.69426900  1
  C  C2  1  0.45201000  0.14084500  0.18596700  1
  C  C3  1  0.95201000  0.85915500  0.81403300  1
  O  O0  1  0.10431100  0.84225400  0.90553700  1
  O  O1  1  0.60431100  0.15774600  0.09446300  1
  O  O2  1  0.92189200  0.04389000  0.59642600  1
  O  O3  1  0.42189200  0.95611000  0.40357400  1
  O  O4  1  0.25887800  0.25549500  0.70457800  1
  O  O5  1  0.75887800  0.74450500  0.29542200  1
  O  O6  1  0.72625300  0.72682100  0.81104800  1
  O  O7  1  0.22625300  0.27317900  0.18895200  1
loop_
_geom_bond_atom_site_label_1
_geom_bond_atom_site_label_2
_geom_bond_distance
_geom_bond_site_symmetry_2
Na0 O4 2.320396 1_555
Na0 O6 2.333253 1_555
Na0 O1 2.348468 1_556
Na0 O0 2.383339 1_545
Na0 O0 2.589871 1_555
Na0 O6 2.804526 1_545
Na1 O5 2.320396 1_555
Na1 O7 2.333253 1_655
Na1 O0 2.348468 1_654
Na1 O1 2.383339 1_565
Na1 O1 2.589871 1_555
Na1 O7 2.804526 1_665
Ag0 O4 2.354442 1_555
Ag0 O3 2.356164 1_555
Ag0 O2 2.509809 1_565
Ag0 O6 2.737362 1_555
Ag0 O2 2.794212 1_555
Ag1 O5 2.354442 1_455
Ag1 O2 2.356164 1_455
Ag1 O3 2.509809 1_545
Ag1 O7 2.737362 1_555
Ag1 O3 2.794212 1_555
C0 O5 1.264531 1_555
C0 O3 1.275960 1_555
C1 O4 1.264531 1_555
C1 O2 1.275960 1_455
C2 O7 1.263924 1_555
C2 O1 1.271551 1_555
C3 O6 1.263924 1_555
C3 O0 1.271551 1_655
