# generated using pymatgen
data_ScAl
_symmetry_space_group_name_H-M   'P 1'
_cell_length_a   3.77129200
_cell_length_b   4.32679800
_cell_length_c   5.67847645
_cell_angle_alpha   67.60545834
_cell_angle_beta   90.00000000
_cell_angle_gamma   90.00000000
_symmetry_Int_Tables_number   1
_chemical_formula_structural   ScAl
_chemical_formula_sum   'Sc2 Al2'
_cell_volume   85.67107164
_cell_formula_units_Z   2
loop_
 _symmetry_equiv_pos_site_id
 _symmetry_equiv_pos_as_xyz
  1  'x, y, z'
loop_
 _atom_site_type_symbol
 _atom_site_label
 _atom_site_symmetry_multiplicity
 _atom_site_fract_x
 _atom_site_fract_y
 _atom_site_fract_z
 _atom_site_occupancy
  Sc  Sc0  1  0.25000000  0.86468100  0.27063800  1
  Sc  Sc1  1  0.75000000  0.13531900  0.72936200  1
  Al  Al0  1  0.25000000  0.58450500  0.83099000  1
  Al  Al1  1  0.75000000  0.41549500  0.16901000  1
loop_
_geom_bond_atom_site_label_1
_geom_bond_atom_site_label_2
_geom_bond_distance
_geom_bond_site_symmetry_2
Al0 Al1 2.589430 1_556
Al0 Al1 2.589430 1_456
Al0 Sc1 2.919016 1_465
Al0 Sc1 2.919016 1_565
Al0 Sc1 2.919016 1_455
Al0 Sc1 2.919016 1_555
Al0 Sc0 2.941971 1_555
Al0 Sc0 3.163591 1_556
Al0 Sc0 3.163591 1_546
Al1 Sc0 2.919016 1_555
Al1 Sc0 2.919016 1_645
Al1 Sc0 2.919016 1_655
Al1 Sc0 2.919016 1_545
Al1 Sc1 2.941971 1_555
Al1 Sc1 3.163591 1_564
Al1 Sc1 3.163591 1_554
