# generated using pymatgen
data_Cs2InBiF6
_symmetry_space_group_name_H-M   'P 1'
_cell_length_a   6.97447561
_cell_length_b   6.97447561
_cell_length_c   6.97447561
_cell_angle_alpha   60.00000000
_cell_angle_beta   60.00000000
_cell_angle_gamma   60.00000000
_symmetry_Int_Tables_number   1
_chemical_formula_structural   Cs2InBiF6
_chemical_formula_sum   'Cs2 In1 Bi1 F6'
_cell_volume   239.89416355
_cell_formula_units_Z   1
loop_
 _symmetry_equiv_pos_site_id
 _symmetry_equiv_pos_as_xyz
  1  'x, y, z'
loop_
 _atom_site_type_symbol
 _atom_site_label
 _atom_site_symmetry_multiplicity
 _atom_site_fract_x
 _atom_site_fract_y
 _atom_site_fract_z
 _atom_site_occupancy
  Cs  Cs0  1  0.75000000  0.75000000  0.75000000  1
  Cs  Cs1  1  0.25000000  0.25000000  0.25000000  1
  In  In0  1  0.50000000  0.50000000  0.50000000  1
  Bi  Bi0  1  0.00000000  0.00000000  0.00000000  1
  F  F0  1  0.76826500  0.23173500  0.23173500  1
  F  F1  1  0.23173500  0.23173500  0.76826500  1
  F  F2  1  0.23173500  0.76826500  0.76826500  1
  F  F3  1  0.23173500  0.76826500  0.23173500  1
  F  F4  1  0.76826500  0.23173500  0.76826500  1
  F  F5  1  0.76826500  0.76826500  0.23173500  1
loop_
_geom_bond_atom_site_label_1
_geom_bond_atom_site_label_2
_geom_bond_distance
_geom_bond_site_symmetry_2
Cs0 F1 3.491888 1_565
Cs0 F3 3.491888 1_556
Cs0 F0 3.491888 1_556
Cs0 F4 3.491888 1_565
Cs0 F3 3.491888 1_655
Cs0 F2 3.491888 1_655
Cs0 F4 3.491888 1_555
Cs0 F0 3.491888 1_565
Cs0 F1 3.491888 1_655
Cs0 F5 3.491888 1_555
Cs0 F2 3.491888 1_555
Cs0 F5 3.491888 1_556
Cs1 F3 3.491888 1_555
Cs1 F4 3.491888 1_554
Cs1 F0 3.491888 1_455
Cs1 F0 3.491888 1_555
Cs1 F4 3.491888 1_455
Cs1 F1 3.491888 1_555
Cs1 F1 3.491888 1_554
Cs1 F3 3.491888 1_545
Cs1 F5 3.491888 1_455
Cs1 F2 3.491888 1_554
Cs1 F5 3.491888 1_545
Cs1 F2 3.491888 1_545
Bi0 F0 2.285695 1_455
Bi0 F1 2.285695 1_554
Bi0 F3 2.285695 1_545
Bi0 F2 2.285695 1_544
Bi0 F5 2.285695 1_445
Bi0 F4 2.285695 1_454
F0 In0 2.646004 1_555
F1 In0 2.646004 1_555
F2 In0 2.646004 1_555
F3 In0 2.646004 1_555
F4 In0 2.646004 1_555
F5 In0 2.646004 1_555
