# generated using pymatgen
data_LiSnP2O7
_symmetry_space_group_name_H-M   'P 1'
_cell_length_a   5.12009600
_cell_length_b   6.66481318
_cell_length_c   9.67812819
_cell_angle_alpha   109.67932015
_cell_angle_beta   91.52698235
_cell_angle_gamma   109.33056530
_symmetry_Int_Tables_number   1
_chemical_formula_structural   LiSnP2O7
_chemical_formula_sum   'Li2 Sn2 P4 O14'
_cell_volume   289.87294169
_cell_formula_units_Z   2
loop_
 _symmetry_equiv_pos_site_id
 _symmetry_equiv_pos_as_xyz
  1  'x, y, z'
loop_
 _atom_site_type_symbol
 _atom_site_label
 _atom_site_symmetry_multiplicity
 _atom_site_fract_x
 _atom_site_fract_y
 _atom_site_fract_z
 _atom_site_occupancy
  Li  Li0  1  0.05968500  0.24752900  0.04090300  1
  Li  Li1  1  0.94031500  0.75247100  0.95909700  1
  Sn  Sn0  1  0.14752100  0.44855200  0.33630200  1
  Sn  Sn1  1  0.85247900  0.55144800  0.66369800  1
  P  P0  1  0.28941000  0.91420400  0.37869000  1
  P  P1  1  0.50257600  0.55525300  0.14057100  1
  P  P2  1  0.49742400  0.44474700  0.85942900  1
  P  P3  1  0.71059000  0.08579600  0.62131000  1
  O  O0  1  0.08427700  0.99319500  0.40572400  1
  O  O1  1  0.14668100  0.86649100  0.27531100  1
  O  O2  1  0.29107900  0.57809400  0.02417200  1
  O  O3  1  0.43990100  0.64916900  0.52536600  1
  O  O4  1  0.18757300  0.33232300  0.88239800  1
  O  O5  1  0.59100300  0.31135800  0.82223500  1
  O  O6  1  0.52530400  0.19764300  0.29581400  1
  O  O7  1  0.47469600  0.80235700  0.70418600  1
  O  O8  1  0.40899700  0.68864200  0.17776500  1
  O  O9  1  0.81242700  0.66767700  0.11760200  1
  O  O10  1  0.56009900  0.35083100  0.47463400  1
  O  O11  1  0.70892100  0.42190600  0.97582800  1
  O  O12  1  0.85331900  0.13350900  0.72468900  1
  O  O13  1  0.91572300  0.00680500  0.59427600  1
loop_
_geom_bond_atom_site_label_1
_geom_bond_atom_site_label_2
_geom_bond_distance
_geom_bond_site_symmetry_2
Li0 O4 1.869180 1_554
Li0 O2 2.192306 1_555
Li0 O11 2.605240 1_454
Li1 O9 1.869180 1_556
Li1 O11 2.192306 1_555
Li1 O2 2.605240 1_656
O0 P0 1.317835 1_555
O1 P0 1.108647 1_555
O2 O8 1.427254 1_555
O2 P1 1.620029 1_555
O2 O4 1.649073 1_554
O2 P2 2.050660 1_554
O3 O7 1.656002 1_555
O3 Sn0 2.063497 1_555
O4 P2 1.572173 1_555
O5 P2 1.106863 1_555
O6 P0 2.287426 1_545
O7 P3 2.287426 1_565
O8 P1 1.106863 1_555
O9 P1 1.572173 1_555
O10 O6 1.656002 1_555
O10 Sn1 2.063497 1_555
O11 O5 1.427254 1_555
O11 P2 1.620029 1_555
O11 O9 1.649073 1_556
O11 P1 2.050660 1_556
O12 P3 1.108647 1_555
O13 P3 1.317835 1_555
