# generated using pymatgen
data_Li2Mg
_symmetry_space_group_name_H-M   'P 1'
_cell_length_a   11.75779053
_cell_length_b   11.75779053
_cell_length_c   14.58062672
_cell_angle_alpha   74.41374051
_cell_angle_beta   74.41374051
_cell_angle_gamma   30.57613424
_symmetry_Int_Tables_number   1
_chemical_formula_structural   Li2Mg
_chemical_formula_sum   'Li32 Mg16'
_cell_volume   984.77548983
_cell_formula_units_Z   16
loop_
 _symmetry_equiv_pos_site_id
 _symmetry_equiv_pos_as_xyz
  1  'x, y, z'
loop_
 _atom_site_type_symbol
 _atom_site_label
 _atom_site_symmetry_multiplicity
 _atom_site_fract_x
 _atom_site_fract_y
 _atom_site_fract_z
 _atom_site_occupancy
  Li  Li0_0  1  0.49947200  0.49947200  0.00073750  1
  Li  Li0_1  1  0.49947200  0.49947200  0.50073750  1
  Li  Li0_2  1  0.49947200  0.99947200  0.00073750  1
  Li  Li0_3  1  0.49947200  0.99947200  0.50073750  1
  Li  Li0_4  1  0.99947200  0.49947200  0.00073750  1
  Li  Li0_5  1  0.99947200  0.49947200  0.50073750  1
  Li  Li0_6  1  0.99947200  0.99947200  0.00073750  1
  Li  Li0_7  1  0.99947200  0.99947200  0.50073750  1
  Li  Li1_0  1  0.13895250  0.13895250  0.47195300  1
  Li  Li1_1  1  0.13895250  0.13895250  0.97195300  1
  Li  Li1_2  1  0.13895250  0.63895250  0.47195300  1
  Li  Li1_3  1  0.13895250  0.63895250  0.97195300  1
  Li  Li1_4  1  0.63895250  0.13895250  0.47195300  1
  Li  Li1_5  1  0.63895250  0.13895250  0.97195300  1
  Li  Li1_6  1  0.63895250  0.63895250  0.47195300  1
  Li  Li1_7  1  0.63895250  0.63895250  0.97195300  1
  Li  Li2_0  1  0.33283750  0.33283750  0.33412800  1
  Li  Li2_1  1  0.33283750  0.33283750  0.83412800  1
  Li  Li2_2  1  0.33283750  0.83283750  0.33412800  1
  Li  Li2_3  1  0.33283750  0.83283750  0.83412800  1
  Li  Li2_4  1  0.83283750  0.33283750  0.33412800  1
  Li  Li2_5  1  0.83283750  0.33283750  0.83412800  1
  Li  Li2_6  1  0.83283750  0.83283750  0.33412800  1
  Li  Li2_7  1  0.83283750  0.83283750  0.83412800  1
  Li  Li3_0  1  0.16665400  0.16665400  0.16718850  1
  Li  Li3_1  1  0.16665400  0.16665400  0.66718850  1
  Li  Li3_2  1  0.16665400  0.66665400  0.16718850  1
  Li  Li3_3  1  0.16665400  0.66665400  0.66718850  1
  Li  Li3_4  1  0.66665400  0.16665400  0.16718850  1
  Li  Li3_5  1  0.66665400  0.16665400  0.66718850  1
  Li  Li3_6  1  0.66665400  0.66665400  0.16718850  1
  Li  Li3_7  1  0.66665400  0.66665400  0.66718850  1
  Mg  Mg0_0  1  0.47124450  0.47124450  0.30729150  1
  Mg  Mg0_1  1  0.47124450  0.47124450  0.80729150  1
  Mg  Mg0_2  1  0.47124450  0.97124450  0.30729150  1
  Mg  Mg0_3  1  0.47124450  0.97124450  0.80729150  1
  Mg  Mg0_4  1  0.97124450  0.47124450  0.30729150  1
  Mg  Mg0_5  1  0.97124450  0.47124450  0.80729150  1
  Mg  Mg0_6  1  0.97124450  0.97124450  0.30729150  1
  Mg  Mg0_7  1  0.97124450  0.97124450  0.80729150  1
  Mg  Mg1_0  1  0.30750650  0.30750650  0.13536750  1
  Mg  Mg1_1  1  0.30750650  0.30750650  0.63536750  1
  Mg  Mg1_2  1  0.30750650  0.80750650  0.13536750  1
  Mg  Mg1_3  1  0.30750650  0.80750650  0.63536750  1
  Mg  Mg1_4  1  0.80750650  0.30750650  0.13536750  1
  Mg  Mg1_5  1  0.80750650  0.30750650  0.63536750  1
  Mg  Mg1_6  1  0.80750650  0.80750650  0.13536750  1
  Mg  Mg1_7  1  0.80750650  0.80750650  0.63536750  1
loop_
_geom_bond_atom_site_label_1
_geom_bond_atom_site_label_2
_geom_bond_distance
_geom_bond_site_symmetry_2
Li0_0 Li3_2 3.046659 1_555
Li0_0 Li3_4 3.046659 1_555
Li0_0 Li2_3 3.053022 1_554
Li0_0 Li2_5 3.053022 1_554
Li0_0 Mg0_1 3.061318 1_554
Li0_0 Mg1_4 3.070619 1_555
Li0_0 Mg1_2 3.070619 1_555
Li0_0 Li1_7 3.073537 1_554
Li0_0 Li1_3 3.074078 1_554
Li0_0 Li1_5 3.074078 1_554
Li0_0 Li0_6 3.100202 1_455
Li0_0 Li0_6 3.100202 1_545
Li0_1 Li3_5 3.046659 1_555
Li0_1 Li3_3 3.046659 1_555
Li0_1 Li2_2 3.053022 1_555
Li0_1 Li2_4 3.053022 1_555
Li0_1 Mg0_0 3.061318 1_555
Li0_1 Mg1_3 3.070619 1_555
Li0_1 Mg1_5 3.070619 1_555
Li0_1 Li1_6 3.073537 1_555
Li0_1 Li1_2 3.074078 1_555
Li0_1 Li1_4 3.074078 1_555
Li0_1 Li0_7 3.100202 1_545
Li0_1 Li0_7 3.100202 1_455
Li0_2 Li3_6 3.046659 1_555
Li0_2 Li3_0 3.046659 1_565
Li0_2 Li2_7 3.053022 1_554
Li0_2 Li2_1 3.053022 1_564
Li0_2 Mg0_3 3.061318 1_554
Li0_2 Mg1_0 3.070619 1_565
Li0_2 Mg1_6 3.070619 1_555
Li0_2 Li1_5 3.073537 1_564
Li0_2 Li1_7 3.074078 1_554
Li0_2 Li1_1 3.074078 1_564
Li0_2 Li0_4 3.100202 1_465
Li0_2 Li0_4 3.100202 1_555
Li0_3 Li3_7 3.046659 1_555
Li0_3 Li3_1 3.046659 1_565
Li0_3 Li2_6 3.053022 1_555
Li0_3 Li2_0 3.053022 1_565
Li0_3 Mg0_2 3.061318 1_555
Li0_3 Mg1_1 3.070619 1_565
Li0_3 Mg1_7 3.070619 1_555
Li0_3 Li1_4 3.073537 1_565
Li0_3 Li1_6 3.074078 1_555
Li0_3 Li1_0 3.074078 1_565
Li0_3 Li0_5 3.100202 1_465
Li0_3 Li0_5 3.100202 1_555
Li0_4 Li3_6 3.046659 1_555
Li0_4 Li3_0 3.046659 1_655
Li0_4 Li2_7 3.053022 1_554
Li0_4 Li2_1 3.053022 1_654
Li0_4 Mg0_5 3.061318 1_554
Li0_4 Mg1_0 3.070619 1_655
Li0_4 Mg1_6 3.070619 1_555
Li0_4 Li1_3 3.073537 1_654
Li0_4 Li1_7 3.074078 1_554
Li0_4 Li1_1 3.074078 1_654
Li0_5 Li3_7 3.046659 1_555
Li0_5 Li3_1 3.046659 1_655
Li0_5 Li2_6 3.053022 1_555
Li0_5 Li2_0 3.053022 1_655
Li0_5 Mg0_4 3.061318 1_555
Li0_5 Mg1_1 3.070619 1_655
Li0_5 Mg1_7 3.070619 1_555
Li0_5 Li1_2 3.073537 1_655
Li0_5 Li1_6 3.074078 1_555
Li0_5 Li1_0 3.074078 1_655
Li0_6 Li3_2 3.046659 1_655
Li0_6 Li3_4 3.046659 1_565
Li0_6 Li2_3 3.053022 1_654
Li0_6 Li2_5 3.053022 1_564
Li0_6 Mg0_7 3.061318 1_554
Li0_6 Mg1_4 3.070619 1_565
Li0_6 Mg1_2 3.070619 1_655
Li0_6 Li1_1 3.073537 1_664
Li0_6 Li1_5 3.074078 1_564
Li0_6 Li1_3 3.074078 1_654
Li0_7 Li3_5 3.046659 1_565
Li0_7 Li3_3 3.046659 1_655
Li0_7 Li2_4 3.053022 1_565
Li0_7 Li2_2 3.053022 1_655
Li0_7 Mg0_6 3.061318 1_555
Li0_7 Mg1_5 3.070619 1_565
Li0_7 Mg1_3 3.070619 1_655
Li0_7 Li1_0 3.073537 1_665
Li0_7 Li1_4 3.074078 1_565
Li0_7 Li1_2 3.074078 1_655
Li1_0 Mg1_5 3.006805 1_455
Li1_0 Mg1_3 3.006805 1_545
Li1_0 Mg0_4 3.025681 1_455
Li1_0 Mg0_2 3.025681 1_545
Li1_0 Li2_4 3.080006 1_455
Li1_0 Li2_2 3.080006 1_545
Li1_0 Li3_1 3.081361 1_555
Li1_0 Li1_6 3.100202 1_545
Li1_0 Li1_6 3.100202 1_455
Li1_1 Mg1_2 3.006805 1_546
Li1_1 Mg1_4 3.006805 1_456
Li1_1 Mg0_3 3.025681 1_545
Li1_1 Mg0_5 3.025681 1_455
Li1_1 Li2_3 3.080006 1_545
Li1_1 Li2_5 3.080006 1_455
Li1_1 Li3_0 3.081361 1_556
Li1_1 Li1_7 3.100202 1_455
Li1_1 Li1_7 3.100202 1_545
Li1_2 Mg1_7 3.006805 1_455
Li1_2 Mg1_1 3.006805 1_555
Li1_2 Mg0_0 3.025681 1_555
Li1_2 Mg0_6 3.025681 1_455
Li1_2 Li2_0 3.080006 1_555
Li1_2 Li2_6 3.080006 1_455
Li1_2 Li3_3 3.081361 1_555
Li1_2 Li1_4 3.100202 1_465
Li1_2 Li1_4 3.100202 1_555
Li1_3 Mg1_6 3.006805 1_456
Li1_3 Mg1_0 3.006805 1_556
Li1_3 Mg0_7 3.025681 1_455
Li1_3 Mg0_1 3.025681 1_555
Li1_3 Li2_1 3.080006 1_555
Li1_3 Li2_7 3.080006 1_455
Li1_3 Li3_2 3.081361 1_556
Li1_3 Li1_5 3.100202 1_465
Li1_3 Li1_5 3.100202 1_555
Li1_4 Mg1_7 3.006805 1_545
Li1_4 Mg1_1 3.006805 1_555
Li1_4 Mg0_0 3.025681 1_555
Li1_4 Mg0_6 3.025681 1_545
Li1_4 Li2_0 3.080006 1_555
Li1_4 Li2_6 3.080006 1_545
Li1_4 Li3_5 3.081361 1_555
Li1_5 Mg1_6 3.006805 1_546
Li1_5 Mg1_0 3.006805 1_556
Li1_5 Mg0_7 3.025681 1_545
Li1_5 Mg0_1 3.025681 1_555
Li1_5 Li2_1 3.080006 1_555
Li1_5 Li2_7 3.080006 1_545
Li1_5 Li3_4 3.081361 1_556
Li1_6 Mg1_5 3.006805 1_555
Li1_6 Mg1_3 3.006805 1_555
Li1_6 Mg0_2 3.025681 1_555
Li1_6 Mg0_4 3.025681 1_555
Li1_6 Li2_2 3.080006 1_555
Li1_6 Li2_4 3.080006 1_555
Li1_6 Li3_7 3.081361 1_555
Li1_7 Mg1_2 3.006805 1_556
Li1_7 Mg1_4 3.006805 1_556
Li1_7 Mg0_5 3.025681 1_555
Li1_7 Mg0_3 3.025681 1_555
Li1_7 Li2_5 3.080006 1_555
Li1_7 Li2_3 3.080006 1_555
Li1_7 Li3_6 3.081361 1_556
Li2_0 Mg0_0 3.053763 1_555
Li2_0 Li3_4 3.060098 1_555
Li2_0 Li3_2 3.060098 1_555
Li2_0 Mg0_4 3.084680 1_455
Li2_0 Mg0_2 3.084680 1_545
Li2_0 Li2_6 3.100202 1_545
Li2_0 Li2_6 3.100202 1_455
Li2_0 Mg1_0 3.107497 1_555
Li2_1 Mg0_1 3.053763 1_555
Li2_1 Li3_5 3.060098 1_555
Li2_1 Li3_3 3.060098 1_555
Li2_1 Mg0_3 3.084680 1_545
Li2_1 Mg0_5 3.084680 1_455
Li2_1 Li2_7 3.100202 1_545
Li2_1 Li2_7 3.100202 1_455
Li2_1 Mg1_1 3.107497 1_555
Li2_2 Mg0_2 3.053763 1_555
Li2_2 Li3_6 3.060098 1_555
Li2_2 Li3_0 3.060098 1_565
Li2_2 Mg0_6 3.084680 1_455
Li2_2 Mg0_0 3.084680 1_555
Li2_2 Li2_4 3.100202 1_555
Li2_2 Li2_4 3.100202 1_465
Li2_2 Mg1_2 3.107497 1_555
Li2_3 Mg0_3 3.053763 1_555
Li2_3 Li3_1 3.060098 1_565
Li2_3 Li3_7 3.060098 1_555
Li2_3 Mg0_1 3.084680 1_555
Li2_3 Mg0_7 3.084680 1_455
Li2_3 Li2_5 3.100202 1_555
Li2_3 Li2_5 3.100202 1_465
Li2_3 Mg1_3 3.107497 1_555
Li2_4 Mg0_4 3.053763 1_555
Li2_4 Li3_6 3.060098 1_555
Li2_4 Li3_0 3.060098 1_655
Li2_4 Mg0_6 3.084680 1_545
Li2_4 Mg0_0 3.084680 1_555
Li2_4 Mg1_4 3.107497 1_555
Li2_5 Mg0_5 3.053763 1_555
Li2_5 Li3_1 3.060098 1_655
Li2_5 Li3_7 3.060098 1_555
Li2_5 Mg0_1 3.084680 1_555
Li2_5 Mg0_7 3.084680 1_545
Li2_5 Mg1_5 3.107497 1_555
Li2_6 Mg0_6 3.053763 1_555
Li2_6 Li3_4 3.060098 1_565
Li2_6 Li3_2 3.060098 1_655
Li2_6 Mg0_4 3.084680 1_555
Li2_6 Mg0_2 3.084680 1_555
Li2_6 Mg1_6 3.107497 1_555
Li2_7 Mg0_7 3.053763 1_555
Li2_7 Li3_3 3.060098 1_655
Li2_7 Li3_5 3.060098 1_565
Li2_7 Mg0_5 3.084680 1_555
Li2_7 Mg0_3 3.084680 1_555
Li2_7 Mg1_7 3.107497 1_555
Li3_0 Mg1_2 3.063951 1_545
Li3_0 Mg1_4 3.063951 1_455
Li3_0 Mg0_4 3.085190 1_455
Li3_0 Mg0_2 3.085190 1_545
Li3_0 Mg1_0 3.097994 1_555
Li3_0 Li3_6 3.100202 1_545
Li3_0 Li3_6 3.100202 1_455
Li3_1 Mg1_3 3.063951 1_545
Li3_1 Mg1_5 3.063951 1_455
Li3_1 Mg0_3 3.085190 1_545
Li3_1 Mg0_5 3.085190 1_455
Li3_1 Mg1_1 3.097994 1_555
Li3_1 Li3_7 3.100202 1_545
Li3_1 Li3_7 3.100202 1_455
Li3_2 Mg1_6 3.063951 1_455
Li3_2 Mg1_0 3.063951 1_555
Li3_2 Mg0_0 3.085190 1_555
Li3_2 Mg0_6 3.085190 1_455
Li3_2 Mg1_2 3.097994 1_555
Li3_2 Li3_4 3.100202 1_555
Li3_2 Li3_4 3.100202 1_465
Li3_3 Mg1_7 3.063951 1_455
Li3_3 Mg1_1 3.063951 1_555
Li3_3 Mg0_7 3.085190 1_455
Li3_3 Mg0_1 3.085190 1_555
Li3_3 Mg1_3 3.097994 1_555
Li3_3 Li3_5 3.100202 1_465
Li3_3 Li3_5 3.100202 1_555
Li3_4 Mg1_6 3.063951 1_545
Li3_4 Mg1_0 3.063951 1_555
Li3_4 Mg0_0 3.085190 1_555
Li3_4 Mg0_6 3.085190 1_545
Li3_4 Mg1_4 3.097994 1_555
Li3_5 Mg1_7 3.063951 1_545
Li3_5 Mg1_1 3.063951 1_555
Li3_5 Mg0_7 3.085190 1_545
Li3_5 Mg0_1 3.085190 1_555
Li3_5 Mg1_5 3.097994 1_555
Li3_6 Mg1_4 3.063951 1_555
Li3_6 Mg1_2 3.063951 1_555
Li3_6 Mg0_2 3.085190 1_555
Li3_6 Mg0_4 3.085190 1_555
Li3_6 Mg1_6 3.097994 1_555
Li3_7 Mg1_3 3.063951 1_555
Li3_7 Mg1_5 3.063951 1_555
Li3_7 Mg0_3 3.085190 1_555
Li3_7 Mg0_5 3.085190 1_555
Li3_7 Mg1_7 3.097994 1_555
Mg0_0 Mg0_6 3.100202 1_455
Mg0_0 Mg0_6 3.100202 1_545
Mg0_0 Mg1_2 3.127755 1_555
Mg0_0 Mg1_4 3.127755 1_555
Mg0_1 Mg0_7 3.100202 1_545
Mg0_1 Mg0_7 3.100202 1_455
Mg0_1 Mg1_3 3.127755 1_555
Mg0_1 Mg1_5 3.127755 1_555
Mg0_2 Mg0_4 3.100202 1_465
Mg0_2 Mg0_4 3.100202 1_555
Mg0_2 Mg1_0 3.127755 1_565
Mg0_2 Mg1_6 3.127755 1_555
Mg0_3 Mg0_5 3.100202 1_465
Mg0_3 Mg0_5 3.100202 1_555
Mg0_3 Mg1_1 3.127755 1_565
Mg0_3 Mg1_7 3.127755 1_555
Mg0_4 Mg1_0 3.127755 1_655
Mg0_4 Mg1_6 3.127755 1_555
Mg0_5 Mg1_1 3.127755 1_655
Mg0_5 Mg1_7 3.127755 1_555
Mg0_6 Mg1_4 3.127755 1_565
Mg0_6 Mg1_2 3.127755 1_655
Mg0_7 Mg1_5 3.127755 1_565
Mg0_7 Mg1_3 3.127755 1_655
Mg1_0 Mg1_6 3.100202 1_545
Mg1_0 Mg1_6 3.100202 1_455
Mg1_1 Mg1_7 3.100202 1_545
Mg1_1 Mg1_7 3.100202 1_455
Mg1_2 Mg1_4 3.100202 1_465
Mg1_2 Mg1_4 3.100202 1_555
Mg1_3 Mg1_5 3.100202 1_465
Mg1_3 Mg1_5 3.100202 1_555
