# generated using pymatgen
data_Sm2Au2O5
_symmetry_space_group_name_H-M   'P 1'
_cell_length_a   4.21126600
_cell_length_b   4.21126600
_cell_length_c   7.14554000
_cell_angle_alpha   90.00000000
_cell_angle_beta   90.00000000
_cell_angle_gamma   90.00000000
_symmetry_Int_Tables_number   1
_chemical_formula_structural   Sm2Au2O5
_chemical_formula_sum   'Sm2 Au2 O5'
_cell_volume   126.72444642
_cell_formula_units_Z   1
loop_
 _symmetry_equiv_pos_site_id
 _symmetry_equiv_pos_as_xyz
  1  'x, y, z'
loop_
 _atom_site_type_symbol
 _atom_site_label
 _atom_site_symmetry_multiplicity
 _atom_site_fract_x
 _atom_site_fract_y
 _atom_site_fract_z
 _atom_site_occupancy
  Sm  Sm0  1  0.00000000  0.00000000  0.00000000  1
  Sm  Sm1  1  0.00000000  0.00000000  0.50000000  1
  Au  Au0  1  0.50000000  0.50000000  0.19227900  1
  Au  Au1  1  0.50000000  0.50000000  0.80772100  1
  O  O0  1  0.50000000  0.00000000  0.22713400  1
  O  O1  1  0.50000000  0.00000000  0.77286600  1
  O  O2  1  0.50000000  0.50000000  0.50000000  1
  O  O3  1  0.00000000  0.50000000  0.22713400  1
  O  O4  1  0.00000000  0.50000000  0.77286600  1
loop_
_geom_bond_atom_site_label_1
_geom_bond_atom_site_label_2
_geom_bond_distance
_geom_bond_site_symmetry_2
Au0 O0 2.120311 1_555
Au0 O3 2.120311 1_555
Au0 O0 2.120311 1_565
Au0 O3 2.120311 1_655
Au0 O2 2.198833 1_555
Au1 O1 2.120311 1_565
Au1 O4 2.120311 1_555
Au1 O4 2.120311 1_655
Au1 O1 2.120311 1_555
Au1 O2 2.198833 1_555
O0 Sm0 2.658534 1_655
O0 Sm0 2.658534 1_555
O0 Sm1 2.869723 1_555
O0 Sm1 2.869723 1_655
O1 Sm0 2.658534 1_556
O1 Sm0 2.658534 1_656
O1 Sm1 2.869723 1_655
O1 Sm1 2.869723 1_555
O2 Sm1 2.977815 1_655
O2 Sm1 2.977815 1_665
O2 Sm1 2.977815 1_555
O2 Sm1 2.977815 1_565
O3 Sm0 2.658534 1_565
O3 Sm0 2.658534 1_555
O3 Sm1 2.869723 1_555
O3 Sm1 2.869723 1_565
O4 Sm0 2.658534 1_556
O4 Sm0 2.658534 1_566
O4 Sm1 2.869723 1_565
O4 Sm1 2.869723 1_555
