# generated using pymatgen
data_SmY3
_symmetry_space_group_name_H-M   'P 1'
_cell_length_a   5.11042581
_cell_length_b   5.11043011
_cell_length_c   5.11042796
_cell_angle_alpha   89.99997578
_cell_angle_beta   90.00000000
_cell_angle_gamma   89.99997578
_symmetry_Int_Tables_number   1
_chemical_formula_structural   SmY3
_chemical_formula_sum   'Sm1 Y3'
_cell_volume   133.46635861
_cell_formula_units_Z   1
loop_
 _symmetry_equiv_pos_site_id
 _symmetry_equiv_pos_as_xyz
  1  'x, y, z'
loop_
 _atom_site_type_symbol
 _atom_site_label
 _atom_site_symmetry_multiplicity
 _atom_site_fract_x
 _atom_site_fract_y
 _atom_site_fract_z
 _atom_site_occupancy
  Sm  Sm0  1  -0.00000000  0.00000000  -0.00000000  1
  Y  Y0  1  0.00000000  0.50000000  0.50000000  1
  Y  Y1  1  0.50000000  0.00000000  0.50000000  1
  Y  Y2  1  0.50000000  0.50000000  -0.00000000  1
loop_
_geom_bond_atom_site_label_1
_geom_bond_atom_site_label_2
_geom_bond_distance
_geom_bond_site_symmetry_2
Sm0 Y2 3.613618 1_545
Sm0 Y2 3.613618 1_455
Sm0 Y1 3.613618 1_554
Sm0 Y1 3.613618 1_455
Sm0 Y1 3.613618 1_555
Sm0 Y1 3.613618 1_454
Sm0 Y0 3.613618 1_545
Sm0 Y0 3.613618 1_554
Sm0 Y2 3.613619 1_555
Sm0 Y2 3.613619 1_445
Sm0 Y0 3.613620 1_555
Sm0 Y0 3.613620 1_544
Y0 Y1 3.613618 1_465
Y0 Y1 3.613618 1_555
Y0 Y2 3.613618 1_555
Y0 Y2 3.613618 1_456
Y0 Y2 3.613618 1_455
Y0 Y2 3.613618 1_556
Y0 Y1 3.613619 1_455
Y0 Y1 3.613619 1_565
Y1 Y2 3.613618 1_555
Y1 Y2 3.613618 1_546
Y1 Y2 3.613620 1_545
Y1 Y2 3.613620 1_556
