# generated using pymatgen
data_Nd2CdHg
_symmetry_space_group_name_H-M   'P 1'
_cell_length_a   5.41250480
_cell_length_b   5.41250480
_cell_length_c   5.41250480
_cell_angle_alpha   60.00000000
_cell_angle_beta   60.00000000
_cell_angle_gamma   60.00000000
_symmetry_Int_Tables_number   1
_chemical_formula_structural   Nd2CdHg
_chemical_formula_sum   'Nd2 Cd1 Hg1'
_cell_volume   112.11917324
_cell_formula_units_Z   1
loop_
 _symmetry_equiv_pos_site_id
 _symmetry_equiv_pos_as_xyz
  1  'x, y, z'
loop_
 _atom_site_type_symbol
 _atom_site_label
 _atom_site_symmetry_multiplicity
 _atom_site_fract_x
 _atom_site_fract_y
 _atom_site_fract_z
 _atom_site_occupancy
  Nd  Nd0  1  0.50000000  0.50000000  0.50000000  1
  Nd  Nd1  1  -0.00000000  -0.00000000  -0.00000000  1
  Cd  Cd0  1  0.24999900  0.24999900  0.24999900  1
  Hg  Hg0  1  0.75000000  0.75000000  0.75000000  1
loop_
_geom_bond_atom_site_label_1
_geom_bond_atom_site_label_2
_geom_bond_distance
_geom_bond_site_symmetry_2
Cd0 Nd1 3.314455 1_555
Cd0 Nd0 3.314464 1_455
Cd0 Nd0 3.314464 1_545
Cd0 Nd0 3.314464 1_554
Cd0 Nd1 3.314473 1_655
Cd0 Nd1 3.314473 1_565
Cd0 Nd1 3.314473 1_556
Cd0 Nd0 3.314482 1_555
Hg0 Nd0 3.314469 1_655
Hg0 Nd1 3.314469 1_656
Hg0 Nd1 3.314469 1_665
Hg0 Nd1 3.314469 1_566
Hg0 Nd0 3.314469 1_555
Hg0 Nd0 3.314469 1_556
Hg0 Nd1 3.314469 1_666
Hg0 Nd0 3.314469 1_565
