# generated using pymatgen
data_USe3
_symmetry_space_group_name_H-M   'P 1'
_cell_length_a   4.09876860
_cell_length_b   5.44020296
_cell_length_c   9.67189103
_cell_angle_alpha   97.18583081
_cell_angle_beta   90.00000000
_cell_angle_gamma   90.00000000
_symmetry_Int_Tables_number   1
_chemical_formula_structural   USe3
_chemical_formula_sum   'U2 Se6'
_cell_volume   213.97120751
_cell_formula_units_Z   2
loop_
 _symmetry_equiv_pos_site_id
 _symmetry_equiv_pos_as_xyz
  1  'x, y, z'
loop_
 _atom_site_type_symbol
 _atom_site_label
 _atom_site_symmetry_multiplicity
 _atom_site_fract_x
 _atom_site_fract_y
 _atom_site_fract_z
 _atom_site_occupancy
  U  U0  1  0.75000000  0.21102043  0.83670102  1
  U  U1  1  0.25000000  0.78897957  0.16329898  1
  Se  Se0  1  0.75000000  0.59133248  0.32866856  1
  Se  Se1  1  0.25000000  0.40866752  0.67133144  1
  Se  Se2  1  0.25000000  0.26186595  0.05311926  1
  Se  Se3  1  0.75000000  0.73813405  0.94688074  1
  Se  Se4  1  0.25000000  0.93474145  0.67331856  1
  Se  Se5  1  0.75000000  0.06525855  0.32668144  1
loop_
_geom_bond_atom_site_label_1
_geom_bond_atom_site_label_2
_geom_bond_distance
_geom_bond_site_symmetry_2
Se0 Se5 2.580729 1_565
Se0 Se5 2.859608 1_555
Se0 U1 2.888696 1_655
Se0 U1 2.888696 1_555
Se1 Se4 2.580729 1_545
Se1 Se4 2.859608 1_555
Se1 U0 2.888696 1_555
Se1 U0 2.888696 1_455
Se2 U1 2.905118 1_545
Se2 U0 2.917707 1_454
Se2 U0 2.917707 1_554
Se2 U1 2.931597 1_555
Se3 U0 2.905118 1_565
Se3 U1 2.917707 1_656
Se3 U1 2.917707 1_556
Se3 U0 2.931597 1_555
Se4 U0 2.891699 1_465
Se4 U0 2.891699 1_565
Se5 U1 2.891699 1_545
Se5 U1 2.891699 1_645
