# generated using pymatgen
data_NaDyS2
_symmetry_space_group_name_H-M   'P 1'
_cell_length_a   3.96709349
_cell_length_b   3.96709340
_cell_length_c   6.97957028
_cell_angle_alpha   73.48936923
_cell_angle_beta   73.48936411
_cell_angle_gamma   60.00000077
_symmetry_Int_Tables_number   1
_chemical_formula_structural   NaDyS2
_chemical_formula_sum   'Na1 Dy1 S2'
_cell_volume   89.85921187
_cell_formula_units_Z   1
loop_
 _symmetry_equiv_pos_site_id
 _symmetry_equiv_pos_as_xyz
  1  'x, y, z'
loop_
 _atom_site_type_symbol
 _atom_site_label
 _atom_site_symmetry_multiplicity
 _atom_site_fract_x
 _atom_site_fract_y
 _atom_site_fract_z
 _atom_site_occupancy
  Na  Na0  1  0.50000000  0.50000000  0.50000000  1
  Dy  Dy0  1  -0.00000000  0.00000000  -0.00000000  1
  S  S0  1  0.74295813  0.74295813  0.77112461  1
  S  S1  1  0.25704187  0.25704187  0.22887539  1
loop_
_geom_bond_atom_site_label_1
_geom_bond_atom_site_label_2
_geom_bond_distance
_geom_bond_site_symmetry_2
Na0 S0 2.905381 1_555
Na0 S1 2.905381 1_555
Na0 S1 2.905383 1_655
Na0 S0 2.905383 1_455
Na0 S0 2.905383 1_545
Na0 S1 2.905383 1_565
Dy0 S0 2.742806 1_544
Dy0 S1 2.742806 1_455
Dy0 S1 2.742807 1_545
Dy0 S0 2.742807 1_454
Dy0 S1 2.742809 1_555
Dy0 S0 2.742809 1_444
