# generated using pymatgen
data_Tb2AgIr
_symmetry_space_group_name_H-M   'P 1'
_cell_length_a   4.99758748
_cell_length_b   4.99758748
_cell_length_c   4.99758748
_cell_angle_alpha   60.00000000
_cell_angle_beta   60.00000000
_cell_angle_gamma   60.00000000
_symmetry_Int_Tables_number   1
_chemical_formula_structural   Tb2AgIr
_chemical_formula_sum   'Tb2 Ag1 Ir1'
_cell_volume   88.26046643
_cell_formula_units_Z   1
loop_
 _symmetry_equiv_pos_site_id
 _symmetry_equiv_pos_as_xyz
  1  'x, y, z'
loop_
 _atom_site_type_symbol
 _atom_site_label
 _atom_site_symmetry_multiplicity
 _atom_site_fract_x
 _atom_site_fract_y
 _atom_site_fract_z
 _atom_site_occupancy
  Tb  Tb0  1  0.75000000  0.75000000  0.75000000  1
  Tb  Tb1  1  0.25000000  0.25000000  0.25000000  1
  Ag  Ag0  1  0.50000000  0.50000000  0.50000000  1
  Ir  Ir0  1  0.00000000  0.00000000  0.00000000  1
loop_
_geom_bond_atom_site_label_1
_geom_bond_atom_site_label_2
_geom_bond_distance
_geom_bond_site_symmetry_2
Ag0 Tb0 3.060385 1_555
Ag0 Tb0 3.060385 1_554
Ag0 Tb0 3.060385 1_455
Ag0 Tb0 3.060385 1_545
Ag0 Tb1 3.060385 1_565
Ag0 Tb1 3.060385 1_555
Ag0 Tb1 3.060385 1_655
Ag0 Tb1 3.060385 1_556
Ir0 Tb1 3.060385 1_545
Ir0 Tb0 3.060385 1_454
Ir0 Tb0 3.060385 1_445
Ir0 Tb1 3.060385 1_554
Ir0 Tb1 3.060385 1_455
Ir0 Tb0 3.060385 1_544
Ir0 Tb1 3.060385 1_555
Ir0 Tb0 3.060385 1_444
