# generated using pymatgen
data_LuAl3
_symmetry_space_group_name_H-M   'P 1'
_cell_length_a   6.09014707
_cell_length_b   6.09015736
_cell_length_c   4.58871703
_cell_angle_alpha   90.00000000
_cell_angle_beta   90.00000000
_cell_angle_gamma   120.00004110
_symmetry_Int_Tables_number   1
_chemical_formula_structural   LuAl3
_chemical_formula_sum   'Lu2 Al6'
_cell_volume   147.39339538
_cell_formula_units_Z   2
loop_
 _symmetry_equiv_pos_site_id
 _symmetry_equiv_pos_as_xyz
  1  'x, y, z'
loop_
 _atom_site_type_symbol
 _atom_site_label
 _atom_site_symmetry_multiplicity
 _atom_site_fract_x
 _atom_site_fract_y
 _atom_site_fract_z
 _atom_site_occupancy
  Lu  Lu0  1  0.33333300  0.66666600  0.75000000  1
  Lu  Lu1  1  0.66666700  0.33333300  0.25000000  1
  Al  Al0  1  0.15026268  0.30052437  0.25000000  1
  Al  Al1  1  0.69947263  0.84973632  0.25000000  1
  Al  Al2  1  0.15026268  0.84973632  0.25000000  1
  Al  Al3  1  0.84973732  0.69947463  0.75000000  1
  Al  Al4  1  0.30052537  0.15026268  0.75000000  1
  Al  Al5  1  0.84973732  0.15026268  0.75000000  1
loop_
_geom_bond_atom_site_label_1
_geom_bond_atom_site_label_2
_geom_bond_distance
_geom_bond_site_symmetry_2
Al0 Al2 2.745370 1_545
Al0 Al1 2.745372 1_445
Al0 Al4 2.788622 1_554
Al0 Al4 2.788622 1_555
Al0 Al5 2.788624 1_455
Al0 Al5 2.788624 1_454
Al0 Lu0 2.998881 1_555
Al0 Lu0 2.998881 1_554
Al0 Lu1 3.049986 1_555
Al0 Lu1 3.049986 1_455
Al1 Al2 2.745378 1_655
Al1 Al3 2.788628 1_554
Al1 Al3 2.788628 1_555
Al1 Al5 2.788628 1_565
Al1 Al5 2.788628 1_564
Al1 Lu0 2.998872 1_555
Al1 Lu0 2.998872 1_554
Al1 Lu1 3.049987 1_565
Al1 Lu1 3.049994 1_555
Al2 Al3 2.788624 1_455
Al2 Al3 2.788624 1_454
Al2 Al4 2.788628 1_565
Al2 Al4 2.788628 1_564
Al2 Lu0 2.998877 1_555
Al2 Lu0 2.998877 1_554
Al2 Lu1 3.049984 1_455
Al2 Lu1 3.049989 1_565
Al3 Al4 2.745366 1_665
Al3 Al5 2.745370 1_565
Al3 Lu1 2.998881 1_556
Al3 Lu1 2.998881 1_555
Al3 Lu0 3.049986 1_555
Al3 Lu0 3.049986 1_655
Al4 Al5 2.745366 1_455
Al4 Lu1 2.998879 1_556
Al4 Lu1 2.998879 1_555
Al4 Lu0 3.049988 1_555
Al4 Lu0 3.049994 1_545
Al5 Lu1 2.998877 1_556
Al5 Lu1 2.998877 1_555
Al5 Lu0 3.049984 1_655
Al5 Lu0 3.049989 1_545
