# generated using pymatgen
data_CoPt
_symmetry_space_group_name_H-M   'P 1'
_cell_length_a   3.72521526
_cell_length_b   3.78705947
_cell_length_c   3.78705947
_cell_angle_alpha   90.00000000
_cell_angle_beta   90.00000000
_cell_angle_gamma   90.00000000
_symmetry_Int_Tables_number   1
_chemical_formula_structural   CoPt
_chemical_formula_sum   'Co2 Pt2'
_cell_volume   53.42636459
_cell_formula_units_Z   2
loop_
 _symmetry_equiv_pos_site_id
 _symmetry_equiv_pos_as_xyz
  1  'x, y, z'
loop_
 _atom_site_type_symbol
 _atom_site_label
 _atom_site_symmetry_multiplicity
 _atom_site_fract_x
 _atom_site_fract_y
 _atom_site_fract_z
 _atom_site_occupancy
  Co  Co0  1  -0.00000000  -0.00000000  -0.00000000  1
  Co  Co1  1  0.00000000  0.50000000  0.50000000  1
  Pt  Pt0  1  0.50000000  -0.00000000  0.50000000  1
  Pt  Pt1  1  0.50000000  0.50000000  0.00000000  1
loop_
_geom_bond_atom_site_label_1
_geom_bond_atom_site_label_2
_geom_bond_distance
_geom_bond_site_symmetry_2
Co0 Pt1 2.656080 1_545
Co0 Pt0 2.656080 1_555
Co0 Pt0 2.656080 1_554
Co0 Pt0 2.656080 1_454
Co0 Pt1 2.656080 1_455
Co0 Pt1 2.656080 1_555
Co0 Pt1 2.656080 1_445
Co0 Pt0 2.656080 1_455
Co0 Co1 2.677855 1_545
Co0 Co1 2.677855 1_555
Co0 Co1 2.677855 1_554
Co0 Co1 2.677855 1_544
Co1 Pt0 2.656080 1_555
Co1 Pt0 2.656080 1_565
Co1 Pt1 2.656080 1_555
Co1 Pt1 2.656080 1_455
Co1 Pt1 2.656080 1_556
Co1 Pt1 2.656080 1_456
Co1 Pt0 2.656080 1_465
Co1 Pt0 2.656080 1_455
Pt0 Pt1 2.677855 1_555
Pt0 Pt1 2.677855 1_556
Pt0 Pt1 2.677855 1_546
Pt0 Pt1 2.677855 1_545
