# generated using pymatgen
data_Rb2Mg
_symmetry_space_group_name_H-M   'P 1'
_cell_length_a   9.79684358
_cell_length_b   9.79684358
_cell_length_c   5.61795900
_cell_angle_alpha   90.00000000
_cell_angle_beta   90.00000000
_cell_angle_gamma   131.12136322
_symmetry_Int_Tables_number   1
_chemical_formula_structural   Rb2Mg
_chemical_formula_sum   'Rb4 Mg2'
_cell_volume   406.19015395
_cell_formula_units_Z   2
loop_
 _symmetry_equiv_pos_site_id
 _symmetry_equiv_pos_as_xyz
  1  'x, y, z'
loop_
 _atom_site_type_symbol
 _atom_site_label
 _atom_site_symmetry_multiplicity
 _atom_site_fract_x
 _atom_site_fract_y
 _atom_site_fract_z
 _atom_site_occupancy
  Rb  Rb0  1  0.59199600  0.86807000  0.25000000  1
  Rb  Rb1  1  0.13193000  0.40800400  0.75000000  1
  Rb  Rb2  1  0.40800400  0.13193000  0.75000000  1
  Rb  Rb3  1  0.86807000  0.59199600  0.25000000  1
  Mg  Mg0  1  0.90859300  0.90859300  0.75000000  1
  Mg  Mg1  1  0.09140700  0.09140700  0.25000000  1
loop_
_geom_bond_atom_site_label_1
_geom_bond_atom_site_label_2
_geom_bond_distance
_geom_bond_site_symmetry_2
Rb0 Rb1 4.669011 1_555
Rb0 Rb1 4.669011 1_554
Rb0 Rb2 4.893924 1_565
Rb0 Rb2 4.893924 1_564
Rb1 Rb3 4.893924 1_455
Rb1 Rb3 4.893924 1_456
Rb2 Rb3 4.669011 1_556
Rb2 Rb3 4.669011 1_555
Mg0 Mg1 3.175945 1_665
Mg0 Mg1 3.175945 1_666
Mg0 Rb2 3.826854 1_665
Mg0 Rb1 3.826854 1_665
Mg0 Rb0 4.006071 1_556
Mg0 Rb3 4.006071 1_555
Mg0 Rb3 4.006071 1_556
Mg0 Rb0 4.006071 1_555
Mg1 Rb0 3.826854 1_445
Mg1 Rb3 3.826854 1_445
Mg1 Rb1 4.006071 1_555
Mg1 Rb2 4.006071 1_555
Mg1 Rb1 4.006071 1_554
Mg1 Rb2 4.006071 1_554
