# generated using pymatgen
data_RbYbS2
_symmetry_space_group_name_H-M   'P 1'
_cell_length_a   7.84684392
_cell_length_b   7.84684392
_cell_length_c   7.84684436
_cell_angle_alpha   31.42200383
_cell_angle_beta   31.42200383
_cell_angle_gamma   31.42200445
_symmetry_Int_Tables_number   1
_chemical_formula_structural   RbYbS2
_chemical_formula_sum   'Rb1 Yb1 S2'
_cell_volume   116.56962277
_cell_formula_units_Z   1
loop_
 _symmetry_equiv_pos_site_id
 _symmetry_equiv_pos_as_xyz
  1  'x, y, z'
loop_
 _atom_site_type_symbol
 _atom_site_label
 _atom_site_symmetry_multiplicity
 _atom_site_fract_x
 _atom_site_fract_y
 _atom_site_fract_z
 _atom_site_occupancy
  Rb  Rb0  1  0.00000000  0.00000000  0.00000000  1
  Yb  Yb0  1  0.50000000  0.50000000  0.50000000  1
  S  S0  1  0.77001600  0.77001600  0.77001600  1
  S  S1  1  0.22998400  0.22998400  0.22998400  1
loop_
_geom_bond_atom_site_label_1
_geom_bond_atom_site_label_2
_geom_bond_distance
_geom_bond_site_symmetry_2
Rb0 S0 3.370471 1_454
Rb0 S1 3.370471 1_545
Rb0 S1 3.370471 1_455
Rb0 S0 3.370471 1_544
Rb0 S1 3.370471 1_554
Rb0 S0 3.370471 1_445
S0 Yb0 2.832704 1_655
S0 Yb0 2.832704 1_565
S0 Yb0 2.832705 1_556
S1 Yb0 2.832704 1_455
S1 Yb0 2.832704 1_545
S1 Yb0 2.832705 1_554
