# generated using pymatgen
data_YRh2
_symmetry_space_group_name_H-M   'P 1'
_cell_length_a   5.30823804
_cell_length_b   5.30823854
_cell_length_c   5.30823811
_cell_angle_alpha   60.00000272
_cell_angle_beta   59.99999965
_cell_angle_gamma   60.00001024
_symmetry_Int_Tables_number   1
_chemical_formula_structural   YRh2
_chemical_formula_sum   'Y2 Rh4'
_cell_volume   105.76360852
_cell_formula_units_Z   2
loop_
 _symmetry_equiv_pos_site_id
 _symmetry_equiv_pos_as_xyz
  1  'x, y, z'
loop_
 _atom_site_type_symbol
 _atom_site_label
 _atom_site_symmetry_multiplicity
 _atom_site_fract_x
 _atom_site_fract_y
 _atom_site_fract_z
 _atom_site_occupancy
  Y  Y0  1  0.12500000  0.12500000  0.12500000  1
  Y  Y1  1  0.87500000  0.87500000  0.87500000  1
  Rh  Rh0  1  0.00000000  0.50000000  0.50000000  1
  Rh  Rh1  1  0.50000000  0.00000000  0.50000000  1
  Rh  Rh2  1  0.50000000  0.50000000  0.00000000  1
  Rh  Rh3  1  0.50000000  0.50000000  0.50000000  1
loop_
_geom_bond_atom_site_label_1
_geom_bond_atom_site_label_2
_geom_bond_distance
_geom_bond_site_symmetry_2
Y0 Y1 3.250619 1_444
Y0 Y1 3.250619 1_445
Y0 Y1 3.250619 1_544
Y0 Y1 3.250619 1_454
Rh0 Rh3 2.654119 1_455
Rh0 Rh3 2.654119 1_555
Rh0 Rh2 2.654119 1_456
Rh0 Rh2 2.654119 1_555
Rh0 Rh1 2.654120 1_555
Rh0 Rh1 2.654120 1_465
Rh0 Y1 3.112231 1_455
Rh0 Y0 3.112231 1_555
Rh0 Y1 3.112231 1_454
Rh0 Y0 3.112231 1_556
Rh0 Y1 3.112231 1_445
Rh0 Y0 3.112231 1_565
Rh1 Rh3 2.654119 1_545
Rh1 Rh3 2.654119 1_555
Rh1 Rh2 2.654119 1_546
Rh1 Rh2 2.654119 1_555
Rh1 Y0 3.112230 1_655
Rh1 Y1 3.112230 1_445
Rh1 Y0 3.112231 1_555
Rh1 Y1 3.112231 1_545
Rh1 Y1 3.112231 1_544
Rh1 Y0 3.112231 1_556
Rh2 Rh3 2.654119 1_555
Rh2 Rh3 2.654119 1_554
Rh2 Y0 3.112230 1_555
Rh2 Y1 3.112230 1_554
Rh2 Y0 3.112231 1_655
Rh2 Y1 3.112231 1_454
Rh2 Y0 3.112231 1_565
Rh2 Y1 3.112231 1_544
Rh3 Y0 3.112230 1_556
Rh3 Y1 3.112230 1_554
Rh3 Y0 3.112231 1_655
Rh3 Y1 3.112231 1_455
Rh3 Y0 3.112231 1_565
Rh3 Y1 3.112231 1_545
