# generated using pymatgen
data_Ga3(Ni10B3)2
_symmetry_space_group_name_H-M   'P 1'
_cell_length_a   7.35497135
_cell_length_b   7.35495084
_cell_length_c   7.35497709
_cell_angle_alpha   60.00486018
_cell_angle_beta   60.00482974
_cell_angle_gamma   60.00482355
_symmetry_Int_Tables_number   1
_chemical_formula_structural   Ga3(Ni10B3)2
_chemical_formula_sum   'Ga3 Ni20 B6'
_cell_volume   281.36800917
_cell_formula_units_Z   1
loop_
 _symmetry_equiv_pos_site_id
 _symmetry_equiv_pos_as_xyz
  1  'x, y, z'
loop_
 _atom_site_type_symbol
 _atom_site_label
 _atom_site_symmetry_multiplicity
 _atom_site_fract_x
 _atom_site_fract_y
 _atom_site_fract_z
 _atom_site_occupancy
  Ga  Ga0  1  0.00001113  0.00001176  -0.00000569  1
  Ga  Ga1  1  0.24996078  0.25001144  0.24993096  1
  Ga  Ga2  1  0.75003242  0.74998283  0.75007672  1
  Ni  Ni0  1  0.33754496  0.00003006  0.00002778  1
  Ni  Ni1  1  -0.00001153  0.33754332  0.66249627  1
  Ni  Ni2  1  0.66243176  -0.00002339  -0.00002427  1
  Ni  Ni3  1  0.00002718  0.66244920  0.33751151  1
  Ni  Ni4  1  0.00002044  0.33757146  0.00002047  1
  Ni  Ni5  1  0.00004334  0.00004557  0.33751019  1
  Ni  Ni6  1  0.33750930  -0.00000290  0.66251399  1
  Ni  Ni7  1  0.33753316  0.66245793  0.00001080  1
  Ni  Ni8  1  0.66248467  0.00002046  0.33749352  1
  Ni  Ni9  1  -0.00003063  -0.00003096  0.66246451  1
  Ni  Ni10  1  -0.00001445  0.66240528  -0.00001570  1
  Ni  Ni11  1  0.66247586  0.33754976  -0.00000531  1
  Ni  Ni12  1  0.38224266  0.38227818  0.38221615  1
  Ni  Ni13  1  0.38217348  0.38220902  0.85333130  1
  Ni  Ni14  1  0.85331550  0.38222332  0.38216058  1
  Ni  Ni15  1  0.38220466  0.85329894  0.38217706  1
  Ni  Ni16  1  0.61775696  0.61771804  0.61778971  1
  Ni  Ni17  1  0.61781523  0.61777882  0.14667488  1
  Ni  Ni18  1  0.61778028  0.14670925  0.61781343  1
  Ni  Ni19  1  0.14669172  0.61776139  0.61783163  1
  B  B0  1  0.72401673  0.72401459  0.27598048  1
  B  B1  1  0.27598248  0.27598431  0.72402037  1
  B  B2  1  0.27598228  0.72401345  0.72401689  1
  B  B3  1  0.72401398  0.27598385  0.72401527  1
  B  B4  1  0.72401806  0.27598737  0.27598253  1
  B  B5  1  0.27598658  0.72401666  0.27598398  1
loop_
_geom_bond_atom_site_label_1
_geom_bond_atom_site_label_2
_geom_bond_distance
_geom_bond_site_symmetry_2
Ga0 Ni6 2.482406 1_554
Ga0 Ni8 2.482579 1_455
Ga0 Ni1 2.482592 1_554
Ga0 Ni5 2.482664 1_555
Ga0 Ni0 2.482742 1_555
Ga0 Ni11 2.482750 1_455
Ga0 Ni7 2.482759 1_545
Ga0 Ni3 2.482776 1_545
Ga0 Ni9 2.482835 1_554
Ga0 Ni4 2.482865 1_555
Ga0 Ni2 2.483084 1_455
Ga0 Ni10 2.483210 1_545
Ga1 Ni13 2.381851 1_554
Ga1 Ni14 2.382122 1_455
Ga1 Ni15 2.382520 1_545
Ga1 Ni12 2.383021 1_555
Ga2 Ni17 2.381842 1_556
Ga2 Ni19 2.382206 1_655
Ga2 Ni18 2.382603 1_565
Ga2 Ni16 2.382982 1_555
B0 Ni17 2.054536 1_555
B0 Ni14 2.055018 1_555
B0 Ni16 2.055107 1_555
B0 Ni15 2.055141 1_555
B0 Ni8 2.079769 1_565
B0 Ni3 2.079794 1_655
B0 Ni2 2.079952 1_565
B0 Ni10 2.079974 1_655
B1 Ni13 2.054442 1_555
B1 Ni19 2.054932 1_555
B1 Ni18 2.055054 1_555
B1 Ni12 2.055077 1_555
B1 Ni6 2.079620 1_555
B1 Ni1 2.079663 1_555
B1 Ni0 2.079906 1_556
B1 Ni4 2.079936 1_556
B2 Ni19 2.054443 1_555
B2 Ni16 2.054901 1_555
B2 Ni13 2.055101 1_555
B2 Ni15 2.055308 1_555
B2 Ni6 2.079752 1_565
B2 Ni7 2.079791 1_556
B2 Ni9 2.079916 1_565
B2 Ni10 2.079970 1_556
B3 Ni18 2.054333 1_555
B3 Ni16 2.054656 1_555
B3 Ni13 2.055319 1_555
B3 Ni14 2.055400 1_555
B3 Ni1 2.079788 1_655
B3 Ni11 2.079800 1_556
B3 Ni9 2.079920 1_655
B3 Ni2 2.079953 1_556
B4 Ni14 2.054348 1_555
B4 Ni12 2.054905 1_555
B4 Ni17 2.055022 1_555
B4 Ni18 2.055253 1_555
B4 Ni8 2.079637 1_555
B4 Ni11 2.079691 1_555
B4 Ni5 2.079893 1_655
B4 Ni4 2.079942 1_655
B5 Ni15 2.054237 1_555
B5 Ni12 2.054681 1_555
B5 Ni17 2.055247 1_555
B5 Ni19 2.055357 1_555
B5 Ni3 2.079691 1_555
B5 Ni7 2.079700 1_555
B5 Ni5 2.079909 1_565
B5 Ni0 2.079930 1_565
