# generated using pymatgen
data_ScSiAu
_symmetry_space_group_name_H-M   'P 1'
_cell_length_a   4.22277924
_cell_length_b   4.22277889
_cell_length_c   6.89751733
_cell_angle_alpha   90.00000000
_cell_angle_beta   90.00000000
_cell_angle_gamma   119.99999491
_symmetry_Int_Tables_number   1
_chemical_formula_structural   ScSiAu
_chemical_formula_sum   'Sc2 Si2 Au2'
_cell_volume   106.51730598
_cell_formula_units_Z   2
loop_
 _symmetry_equiv_pos_site_id
 _symmetry_equiv_pos_as_xyz
  1  'x, y, z'
loop_
 _atom_site_type_symbol
 _atom_site_label
 _atom_site_symmetry_multiplicity
 _atom_site_fract_x
 _atom_site_fract_y
 _atom_site_fract_z
 _atom_site_occupancy
  Sc  Sc0  1  -0.00000000  0.00000000  -0.00000000  1
  Sc  Sc1  1  0.00000000  0.00000000  0.50000000  1
  Si  Si0  1  0.33333300  0.66666700  0.70553165  1
  Si  Si1  1  0.33333300  0.66666700  0.29446835  1
  Au  Au0  1  0.66666700  0.33333300  0.21488711  1
  Au  Au1  1  0.66666700  0.33333300  0.78511289  1
loop_
_geom_bond_atom_site_label_1
_geom_bond_atom_site_label_2
_geom_bond_distance
_geom_bond_site_symmetry_2
Sc1 Si1 2.820230 1_545
Sc1 Si0 2.820230 1_545
Sc1 Si1 2.820233 1_555
Sc1 Si0 2.820233 1_555
Sc1 Si0 2.820233 1_445
Sc1 Si1 2.820233 1_445
Au0 Si1 2.499049 1_545
Au0 Si1 2.499050 1_655
Au0 Si1 2.499056 1_555
Au0 Sc0 2.853213 1_655
Au0 Sc0 2.853216 1_665
Au0 Sc0 2.853216 1_555
Au0 Sc1 3.132307 1_655
Au0 Sc1 3.132309 1_665
Au0 Sc1 3.132310 1_555
Au1 Si0 2.499049 1_545
Au1 Si0 2.499050 1_655
Au1 Si0 2.499056 1_555
Au1 Sc0 2.853213 1_656
Au1 Sc0 2.853216 1_666
Au1 Sc0 2.853216 1_556
Au1 Sc1 3.132307 1_655
Au1 Sc1 3.132309 1_665
Au1 Sc1 3.132310 1_555
