# generated using pymatgen
data_Ru3I
_symmetry_space_group_name_H-M   'P 1'
_cell_length_a   3.97997300
_cell_length_b   3.97997300
_cell_length_c   3.97997300
_cell_angle_alpha   90.00000000
_cell_angle_beta   90.00000000
_cell_angle_gamma   90.00000000
_symmetry_Int_Tables_number   1
_chemical_formula_structural   Ru3I
_chemical_formula_sum   'Ru3 I1'
_cell_volume   63.04350894
_cell_formula_units_Z   1
loop_
 _symmetry_equiv_pos_site_id
 _symmetry_equiv_pos_as_xyz
  1  'x, y, z'
loop_
 _atom_site_type_symbol
 _atom_site_label
 _atom_site_symmetry_multiplicity
 _atom_site_fract_x
 _atom_site_fract_y
 _atom_site_fract_z
 _atom_site_occupancy
  Ru  Ru0  1  0.00000000  0.50000000  0.50000000  1
  Ru  Ru1  1  0.50000000  0.00000000  0.50000000  1
  Ru  Ru2  1  0.50000000  0.50000000  0.00000000  1
  I  I0  1  0.00000000  0.00000000  0.00000000  1
loop_
_geom_bond_atom_site_label_1
_geom_bond_atom_site_label_2
_geom_bond_distance
_geom_bond_site_symmetry_2
Ru0 Ru2 2.814266 1_555
Ru0 Ru2 2.814266 1_455
Ru0 Ru1 2.814266 1_455
Ru0 Ru2 2.814266 1_456
Ru0 Ru1 2.814266 1_565
Ru0 Ru2 2.814266 1_556
Ru0 Ru1 2.814266 1_465
Ru0 Ru1 2.814266 1_555
Ru1 Ru2 2.814266 1_545
Ru1 Ru2 2.814266 1_555
Ru1 Ru2 2.814266 1_546
Ru1 Ru2 2.814266 1_556
I0 Ru2 2.814266 1_545
I0 Ru2 2.814266 1_555
I0 Ru2 2.814266 1_445
I0 Ru1 2.814266 1_554
I0 Ru0 2.814266 1_545
I0 Ru2 2.814266 1_455
I0 Ru1 2.814266 1_454
I0 Ru1 2.814266 1_455
I0 Ru0 2.814266 1_544
I0 Ru0 2.814266 1_555
I0 Ru0 2.814266 1_554
I0 Ru1 2.814266 1_555
