# generated using pymatgen
data_LiHoSn2
_symmetry_space_group_name_H-M   'P 1'
_cell_length_a   5.18176759
_cell_length_b   5.18176759
_cell_length_c   5.18176759
_cell_angle_alpha   60.00000000
_cell_angle_beta   60.00000000
_cell_angle_gamma   60.00000000
_symmetry_Int_Tables_number   1
_chemical_formula_structural   LiHoSn2
_chemical_formula_sum   'Li1 Ho1 Sn2'
_cell_volume   98.38271259
_cell_formula_units_Z   1
loop_
 _symmetry_equiv_pos_site_id
 _symmetry_equiv_pos_as_xyz
  1  'x, y, z'
loop_
 _atom_site_type_symbol
 _atom_site_label
 _atom_site_symmetry_multiplicity
 _atom_site_fract_x
 _atom_site_fract_y
 _atom_site_fract_z
 _atom_site_occupancy
  Li  Li0  1  0.00000000  0.00000000  0.00000000  1
  Ho  Ho0  1  0.50000000  0.50000000  0.50000000  1
  Sn  Sn0  1  0.25000000  0.25000000  0.25000000  1
  Sn  Sn1  1  0.75000000  0.75000000  0.75000000  1
loop_
_geom_bond_atom_site_label_1
_geom_bond_atom_site_label_2
_geom_bond_distance
_geom_bond_site_symmetry_2
Li0 Sn1 3.173172 1_544
Li0 Sn0 3.173172 1_455
Li0 Sn0 3.173172 1_555
Li0 Sn1 3.173172 1_454
Li0 Sn0 3.173172 1_545
Li0 Sn0 3.173172 1_554
Li0 Sn1 3.173172 1_444
Li0 Sn1 3.173172 1_445
Ho0 Sn0 3.173172 1_655
Ho0 Sn1 3.173172 1_455
Ho0 Sn0 3.173172 1_565
Ho0 Sn0 3.173172 1_555
Ho0 Sn1 3.173172 1_554
Ho0 Sn1 3.173172 1_545
Ho0 Sn1 3.173172 1_555
Ho0 Sn0 3.173172 1_556
