# generated using pymatgen
data_Pr3Er
_symmetry_space_group_name_H-M   'P 1'
_cell_length_a   7.47879896
_cell_length_b   7.47878561
_cell_length_c   5.90322731
_cell_angle_alpha   90.00008346
_cell_angle_beta   90.00000546
_cell_angle_gamma   120.00031443
_symmetry_Int_Tables_number   1
_chemical_formula_structural   Pr3Er
_chemical_formula_sum   'Pr6 Er2'
_cell_volume   285.94447186
_cell_formula_units_Z   2
loop_
 _symmetry_equiv_pos_site_id
 _symmetry_equiv_pos_as_xyz
  1  'x, y, z'
loop_
 _atom_site_type_symbol
 _atom_site_label
 _atom_site_symmetry_multiplicity
 _atom_site_fract_x
 _atom_site_fract_y
 _atom_site_fract_z
 _atom_site_occupancy
  Pr  Pr0  1  0.16876108  0.33751268  0.25000164  1
  Pr  Pr1  1  0.66248226  0.83123723  0.25000091  1
  Pr  Pr2  1  0.16875843  0.83124086  0.25000089  1
  Pr  Pr3  1  0.83123942  0.66248487  0.74999957  1
  Pr  Pr4  1  0.33751492  0.16876220  0.75000019  1
  Pr  Pr5  1  0.83124113  0.16876155  0.74999975  1
  Er  Er0  1  0.33333675  0.66666822  0.74999942  1
  Er  Er1  1  0.66667001  0.33333439  0.25000164  1
loop_
_geom_bond_atom_site_label_1
_geom_bond_atom_site_label_2
_geom_bond_distance
_geom_bond_site_symmetry_2
Pr0 Pr4 3.672928 1_555
Pr0 Pr4 3.672939 1_554
Pr0 Pr5 3.672982 1_455
Pr0 Pr5 3.672996 1_454
Pr0 Pr1 3.692433 1_555
Pr0 Pr2 3.692497 1_555
Pr0 Pr2 3.786288 1_545
Pr0 Pr1 3.786324 1_445
Pr1 Pr3 3.672949 1_555
Pr1 Pr3 3.672959 1_554
Pr1 Pr5 3.672995 1_565
Pr1 Pr5 3.673012 1_564
Pr1 Pr2 3.692475 1_555
Pr1 Pr2 3.786324 1_655
Pr2 Pr3 3.672981 1_455
Pr2 Pr4 3.672986 1_565
Pr2 Pr3 3.672990 1_454
Pr2 Pr4 3.672998 1_564
Pr3 Pr4 3.692439 1_555
Pr3 Pr5 3.692457 1_555
Pr3 Pr4 3.786318 1_665
Pr3 Pr5 3.786328 1_565
Pr4 Pr5 3.692481 1_555
Pr4 Pr5 3.786317 1_455
Er0 Pr1 3.640963 1_555
Er0 Pr1 3.640974 1_556
Er0 Pr2 3.640988 1_555
Er0 Pr0 3.640990 1_555
Er0 Pr2 3.640999 1_556
Er0 Pr0 3.641018 1_556
Er0 Pr4 3.739454 1_555
Er0 Pr3 3.739455 1_555
Er0 Pr5 3.739468 1_565
Er0 Pr5 3.739485 1_455
Er0 Pr4 3.739527 1_565
Er0 Pr3 3.739540 1_455
Er1 Pr5 3.640959 1_555
Er1 Pr3 3.640972 1_555
Er1 Pr5 3.640975 1_554
Er1 Pr3 3.640998 1_554
Er1 Pr4 3.640999 1_555
Er1 Pr4 3.641010 1_554
Er1 Pr2 3.739457 1_655
Er1 Pr1 3.739467 1_555
Er1 Pr0 3.739483 1_555
Er1 Pr2 3.739496 1_545
Er1 Pr0 3.739512 1_655
Er1 Pr1 3.739516 1_545
