# generated using pymatgen
data_CsPdBr3
_symmetry_space_group_name_H-M   'P 1'
_cell_length_a   5.33332003
_cell_length_b   5.33280549
_cell_length_c   5.33162401
_cell_angle_alpha   90.02072608
_cell_angle_beta   89.99146912
_cell_angle_gamma   90.01612854
_symmetry_Int_Tables_number   1
_chemical_formula_structural   CsPdBr3
_chemical_formula_sum   'Cs1 Pd1 Br3'
_cell_volume   151.63967748
_cell_formula_units_Z   1
loop_
 _symmetry_equiv_pos_site_id
 _symmetry_equiv_pos_as_xyz
  1  'x, y, z'
loop_
 _atom_site_type_symbol
 _atom_site_label
 _atom_site_symmetry_multiplicity
 _atom_site_fract_x
 _atom_site_fract_y
 _atom_site_fract_z
 _atom_site_occupancy
  Cs  Cs0  1  0.99925600  0.00771800  0.99904700  1
  Pd  Pd0  1  0.50085000  0.51521300  0.50458200  1
  Br  Br0  1  0.00076900  0.51174900  0.50326900  1
  Br  Br1  1  0.49815300  0.01491600  0.49871000  1
  Br  Br2  1  0.50097300  0.51041000  0.00439300  1
loop_
_geom_bond_atom_site_label_1
_geom_bond_atom_site_label_2
_geom_bond_distance
_geom_bond_site_symmetry_2
Br0 Pd0 2.666305 1_455
Br0 Pd0 2.667161 1_555
Br0 Cs0 3.738661 1_465
Br0 Cs0 3.770548 1_455
Br0 Cs0 3.771980 1_464
Br0 Cs0 3.800883 1_454
Br1 Pd0 2.665057 1_545
Br1 Pd0 2.668194 1_555
Br1 Cs0 3.765656 1_454
Br1 Cs0 3.767658 1_455
Br1 Cs0 3.773433 1_554
Br1 Cs0 3.776553 1_555
Br2 Pd0 2.664937 1_554
Br2 Pd0 2.666933 1_555
Br2 Cs0 3.754004 1_564
Br2 Cs0 3.768055 1_464
Br2 Cs0 3.775385 1_554
Br2 Cs0 3.787243 1_454
