# generated using pymatgen
data_SiRh3
_symmetry_space_group_name_H-M   'P 1'
_cell_length_a   4.57618354
_cell_length_b   4.57618354
_cell_length_c   4.57618354
_cell_angle_alpha   130.01134812
_cell_angle_beta   130.01134812
_cell_angle_gamma   73.38862355
_symmetry_Int_Tables_number   1
_chemical_formula_structural   SiRh3
_chemical_formula_sum   'Si1 Rh3'
_cell_volume   54.87408858
_cell_formula_units_Z   1
loop_
 _symmetry_equiv_pos_site_id
 _symmetry_equiv_pos_as_xyz
  1  'x, y, z'
loop_
 _atom_site_type_symbol
 _atom_site_label
 _atom_site_symmetry_multiplicity
 _atom_site_fract_x
 _atom_site_fract_y
 _atom_site_fract_z
 _atom_site_occupancy
  Si  Si0  1  0.00000000  0.00000000  0.00000000  1
  Rh  Rh0  1  0.75000000  0.25000000  0.50000000  1
  Rh  Rh1  1  0.25000000  0.75000000  0.50000000  1
  Rh  Rh2  1  0.50000000  0.50000000  0.00000000  1
loop_
_geom_bond_atom_site_label_1
_geom_bond_atom_site_label_2
_geom_bond_distance
_geom_bond_site_symmetry_2
Rh0 Rh2 2.665466 1_656
Rh0 Si0 2.665466 1_555
Rh0 Si0 2.665466 1_656
Rh0 Si0 2.665466 1_655
Rh0 Rh2 2.665466 1_545
Rh0 Si0 2.665466 1_666
Rh0 Rh2 2.665466 1_555
Rh0 Rh2 2.665466 1_556
Rh0 Rh1 2.734478 1_544
Rh0 Rh1 2.734478 1_656
Rh0 Rh1 2.734478 1_645
Rh0 Rh1 2.734478 1_555
Rh1 Rh2 2.665466 1_455
Rh1 Si0 2.665466 1_666
Rh1 Si0 2.665466 1_555
Rh1 Si0 2.665466 1_566
Rh1 Rh2 2.665466 1_566
Rh1 Si0 2.665466 1_565
Rh1 Rh2 2.665466 1_555
Rh1 Rh2 2.665466 1_556
Rh2 Si0 2.734478 1_565
Rh2 Si0 2.734478 1_666
Rh2 Si0 2.734478 1_554
Rh2 Si0 2.734478 1_655
