# generated using pymatgen
data_BaZrSe3
_symmetry_space_group_name_H-M   'P 1'
_cell_length_a   4.06491020
_cell_length_b   9.14687945
_cell_length_c   15.11012795
_cell_angle_alpha   90.00000000
_cell_angle_beta   90.00000000
_cell_angle_gamma   90.00000000
_symmetry_Int_Tables_number   1
_chemical_formula_structural   BaZrSe3
_chemical_formula_sum   'Ba4 Zr4 Se12'
_cell_volume   561.81334775
_cell_formula_units_Z   4
loop_
 _symmetry_equiv_pos_site_id
 _symmetry_equiv_pos_as_xyz
  1  'x, y, z'
loop_
 _atom_site_type_symbol
 _atom_site_label
 _atom_site_symmetry_multiplicity
 _atom_site_fract_x
 _atom_site_fract_y
 _atom_site_fract_z
 _atom_site_occupancy
  Ba  Ba0  1  0.75000000  0.56660942  0.17443902  1
  Ba  Ba1  1  0.25000000  0.43339058  0.82556098  1
  Ba  Ba2  1  0.75000000  0.06660942  0.32556098  1
  Ba  Ba3  1  0.25000000  0.93339058  0.67443902  1
  Zr  Zr0  1  0.25000000  0.66377043  0.44073760  1
  Zr  Zr1  1  0.75000000  0.33622957  0.55926240  1
  Zr  Zr2  1  0.25000000  0.16377043  0.05926240  1
  Zr  Zr3  1  0.75000000  0.83622957  0.94073760  1
  Se  Se0  1  0.75000000  0.83075233  0.50491947  1
  Se  Se1  1  0.25000000  0.16924767  0.49508053  1
  Se  Se2  1  0.75000000  0.33075233  0.99508053  1
  Se  Se3  1  0.25000000  0.66924767  0.00491947  1
  Se  Se4  1  0.25000000  0.52376757  0.60463813  1
  Se  Se5  1  0.75000000  0.47623243  0.39536187  1
  Se  Se6  1  0.25000000  0.02376757  0.89536187  1
  Se  Se7  1  0.75000000  0.97623243  0.10463813  1
  Se  Se8  1  0.25000000  0.78577801  0.28701740  1
  Se  Se9  1  0.75000000  0.21422199  0.71298260  1
  Se  Se10  1  0.25000000  0.28577801  0.21298260  1
  Se  Se11  1  0.75000000  0.71422199  0.78701740  1
loop_
_geom_bond_atom_site_label_1
_geom_bond_atom_site_label_2
_geom_bond_distance
_geom_bond_site_symmetry_2
Ba0 Se8 3.323158 1_655
Ba0 Se8 3.323158 1_555
Ba0 Se10 3.326927 1_555
Ba0 Se10 3.326927 1_655
Ba0 Se3 3.401962 1_555
Ba0 Se3 3.401962 1_655
Ba0 Se5 3.439008 1_555
Ba0 Se2 3.463956 1_554
Ba0 Se7 3.892389 1_555
Ba1 Se9 3.323158 1_455
Ba1 Se9 3.323158 1_555
Ba1 Se11 3.326927 1_555
Ba1 Se11 3.326927 1_455
Ba1 Se2 3.401962 1_555
Ba1 Se2 3.401962 1_455
Ba1 Se4 3.439008 1_555
Ba1 Se3 3.463956 1_556
Ba1 Se6 3.892389 1_555
Ba2 Se10 3.323158 1_555
Ba2 Se10 3.323158 1_655
Ba2 Se8 3.326927 1_545
Ba2 Se8 3.326927 1_645
Ba2 Se1 3.401962 1_655
Ba2 Se1 3.401962 1_555
Ba2 Se7 3.439008 1_545
Ba2 Se0 3.463956 1_545
Ba2 Se5 3.892389 1_555
Ba3 Se11 3.323158 1_455
Ba3 Se11 3.323158 1_555
Ba3 Se9 3.326927 1_565
Ba3 Se9 3.326927 1_465
Ba3 Se0 3.401962 1_555
Ba3 Se0 3.401962 1_455
Ba3 Se6 3.439008 1_565
Ba3 Se1 3.463956 1_565
Ba3 Se4 3.892389 1_555
Se0 Zr0 2.721069 1_655
Se0 Zr0 2.721069 1_555
Se1 Zr1 2.721069 1_455
Se1 Zr1 2.721069 1_555
Se2 Zr2 2.721069 1_556
Se2 Zr2 2.721069 1_656
Se3 Zr3 2.721069 1_454
Se3 Zr3 2.721069 1_554
Se4 Zr1 2.746547 1_455
Se4 Zr1 2.746547 1_555
Se4 Zr0 2.788055 1_555
Se5 Zr0 2.746547 1_555
Se5 Zr0 2.746547 1_655
Se5 Zr1 2.788055 1_555
Se6 Zr3 2.746547 1_445
Se6 Zr3 2.746547 1_545
Se6 Zr2 2.788055 1_556
Se7 Zr2 2.746547 1_565
Se7 Zr2 2.746547 1_665
Se7 Zr3 2.788055 1_554
Se8 Zr0 2.576919 1_555
Se9 Zr1 2.576919 1_555
Se10 Zr2 2.576919 1_555
Se11 Zr3 2.576919 1_555
