# generated using pymatgen
data_SmHoIn2
_symmetry_space_group_name_H-M   'P 1'
_cell_length_a   5.33190276
_cell_length_b   5.33190276
_cell_length_c   5.33190276
_cell_angle_alpha   60.00000000
_cell_angle_beta   60.00000000
_cell_angle_gamma   60.00000000
_symmetry_Int_Tables_number   1
_chemical_formula_structural   SmHoIn2
_chemical_formula_sum   'Sm1 Ho1 In2'
_cell_volume   107.18442045
_cell_formula_units_Z   1
loop_
 _symmetry_equiv_pos_site_id
 _symmetry_equiv_pos_as_xyz
  1  'x, y, z'
loop_
 _atom_site_type_symbol
 _atom_site_label
 _atom_site_symmetry_multiplicity
 _atom_site_fract_x
 _atom_site_fract_y
 _atom_site_fract_z
 _atom_site_occupancy
  Sm  Sm0  1  0.75000000  0.75000000  0.75000000  1
  Ho  Ho0  1  0.25000000  0.25000000  0.25000000  1
  In  In0  1  0.00000000  -0.00000000  -0.00000000  1
  In  In1  1  0.49999900  0.49999900  0.49999900  1
loop_
_geom_bond_atom_site_label_1
_geom_bond_atom_site_label_2
_geom_bond_distance
_geom_bond_site_symmetry_2
Ho0 In1 3.265097 1_555
Ho0 In0 3.265110 1_655
Ho0 In0 3.265110 1_565
Ho0 In0 3.265110 1_556
Ho0 In0 3.265110 1_555
Ho0 In1 3.265115 1_554
Ho0 In1 3.265115 1_455
Ho0 In1 3.265115 1_545
In0 Sm0 3.265110 1_544
In0 Sm0 3.265110 1_454
In0 Sm0 3.265110 1_445
In0 Sm0 3.265110 1_444
In1 Sm0 3.265106 1_455
In1 Sm0 3.265106 1_554
In1 Sm0 3.265106 1_545
In1 Sm0 3.265123 1_555
