# generated using pymatgen
data_RbSrSiHO4
_symmetry_space_group_name_H-M   'P 1'
_cell_length_a   7.91372200
_cell_length_b   5.90488600
_cell_length_c   5.94749337
_cell_angle_alpha   59.22427323
_cell_angle_beta   90.00000000
_cell_angle_gamma   90.00000000
_symmetry_Int_Tables_number   1
_chemical_formula_structural   RbSrSiHO4
_chemical_formula_sum   'Rb2 Sr2 Si2 H2 O8'
_cell_volume   238.78596017
_cell_formula_units_Z   2
loop_
 _symmetry_equiv_pos_site_id
 _symmetry_equiv_pos_as_xyz
  1  'x, y, z'
loop_
 _atom_site_type_symbol
 _atom_site_label
 _atom_site_symmetry_multiplicity
 _atom_site_fract_x
 _atom_site_fract_y
 _atom_site_fract_z
 _atom_site_occupancy
  Rb  Rb0  1  0.23135900  0.64143900  0.64027100  1
  Rb  Rb1  1  0.73135900  0.35856100  0.35972900  1
  Sr  Sr0  1  0.48448300  0.00369800  0.98734700  1
  Sr  Sr1  1  0.98448300  0.99630200  0.01265300  1
  Si  Si0  1  0.24564500  0.31037300  0.31134700  1
  Si  Si1  1  0.74564500  0.68962700  0.68865300  1
  H  H0  1  0.00653400  0.04672300  0.49224300  1
  H  H1  1  0.50653400  0.95327700  0.50775700  1
  O  O0  1  0.23826500  0.63300200  0.14956800  1
  O  O1  1  0.73826500  0.36699800  0.85043200  1
  O  O2  1  0.23976000  0.18300600  0.12173800  1
  O  O3  1  0.73976000  0.81699400  0.87826200  1
  O  O4  1  0.40232100  0.18489100  0.52291400  1
  O  O5  1  0.90232100  0.81510900  0.47708600  1
  O  O6  1  0.06863500  0.18948000  0.50898800  1
  O  O7  1  0.56863500  0.81052000  0.49101200  1
loop_
_geom_bond_atom_site_label_1
_geom_bond_atom_site_label_2
_geom_bond_distance
_geom_bond_site_symmetry_2
H0 O6 1.023690 1_555
H0 O5 1.638574 1_445
H0 Rb1 2.696080 1_455
H0 Rb0 2.740751 1_545
H1 O7 1.023690 1_555
H1 O4 1.638574 1_565
H1 Rb0 2.696080 1_555
H1 Rb1 2.740751 1_565
O0 Si0 1.637897 1_555
O0 Sr0 2.712500 1_564
O0 Sr1 2.740619 1_455
O0 Rb0 2.944763 1_555
O0 Rb0 3.004351 1_554
O1 Si1 1.637897 1_555
O1 Sr1 2.712500 1_546
O1 Sr0 2.740619 1_555
O1 Rb1 2.944763 1_555
O1 Rb1 3.004351 1_556
O2 Si0 1.645432 1_555
O2 Sr0 2.525202 1_554
O2 Sr1 2.539584 1_445
O2 Rb0 2.756701 1_554
O2 Rb0 3.106323 1_545
O3 Si1 1.645432 1_555
O3 Sr1 2.525202 1_556
O3 Sr0 2.539584 1_565
O3 Rb1 2.756701 1_556
O3 Rb1 3.106323 1_565
O4 Si0 1.647886 1_555
O4 Sr0 2.484539 1_555
O4 Rb1 2.784859 1_555
O4 Rb0 3.392776 1_555
O5 Si1 1.647886 1_555
O5 Sr1 2.484539 1_555
O5 Rb0 2.784859 1_655
O5 Rb1 3.392776 1_555
O6 Si0 1.730568 1_555
O6 Sr1 2.687220 1_446
O6 Rb1 2.828779 1_455
O6 Rb0 3.394515 1_555
O7 Si1 1.730568 1_555
O7 Sr0 2.687220 1_564
O7 Rb0 2.828779 1_555
O7 Rb1 3.394515 1_555
