# generated using pymatgen
data_LuH2ClO2
_symmetry_space_group_name_H-M   'P 1'
_cell_length_a   12.59399841
_cell_length_b   3.45252811
_cell_length_c   6.11996123
_cell_angle_alpha   90.00000000
_cell_angle_beta   90.00000000
_cell_angle_gamma   90.00000000
_symmetry_Int_Tables_number   1
_chemical_formula_structural   LuH2ClO2
_chemical_formula_sum   'Lu4 H8 Cl4 O8'
_cell_volume   266.10285143
_cell_formula_units_Z   4
loop_
 _symmetry_equiv_pos_site_id
 _symmetry_equiv_pos_as_xyz
  1  'x, y, z'
loop_
 _atom_site_type_symbol
 _atom_site_label
 _atom_site_symmetry_multiplicity
 _atom_site_fract_x
 _atom_site_fract_y
 _atom_site_fract_z
 _atom_site_occupancy
  Lu  Lu0  1  0.05063897  0.75000000  0.24978262  1
  Lu  Lu1  1  0.55063997  0.75000000  0.25021738  1
  Lu  Lu2  1  0.44936103  0.24999900  0.74978262  1
  Lu  Lu3  1  0.94936003  0.24999900  0.75021738  1
  H  H0  1  0.84668200  0.75000000  0.04321988  1
  H  H1  1  0.38088316  0.24999900  0.18698254  1
  H  H2  1  0.88088416  0.24999900  0.31301746  1
  H  H3  1  0.34668200  0.75000000  0.45678012  1
  H  H4  1  0.65331700  0.24999900  0.54321988  1
  H  H5  1  0.11911684  0.75000000  0.68698254  1
  H  H6  1  0.61911584  0.75000000  0.81301746  1
  H  H7  1  0.15331700  0.24999900  0.95677912  1
  Cl  Cl0  1  0.71079254  0.24999900  0.11774984  1
  Cl  Cl1  1  0.21079254  0.24999900  0.38225016  1
  Cl  Cl2  1  0.78920646  0.75000000  0.61774984  1
  Cl  Cl3  1  0.28920746  0.75000000  0.88224916  1
  O  O0  1  0.07929641  0.24999900  0.00127813  1
  O  O1  1  0.45291272  0.24999900  0.12959229  1
  O  O2  1  0.95291272  0.24999900  0.37040771  1
  O  O3  1  0.57929741  0.24999900  0.49872187  1
  O  O4  1  0.42070359  0.75000000  0.50127813  1
  O  O5  1  0.04708828  0.75000000  0.62959229  1
  O  O6  1  0.54708728  0.75000000  0.87040771  1
  O  O7  1  0.92070259  0.75000000  0.99872187  1
loop_
_geom_bond_atom_site_label_1
_geom_bond_atom_site_label_2
_geom_bond_distance
_geom_bond_site_symmetry_2
Lu0 O7 2.244692 1_454
Lu0 O2 2.244933 1_465
Lu0 O2 2.244939 1_455
Lu0 O5 2.324851 1_555
Lu0 O0 2.328772 1_565
Lu0 O0 2.328777 1_555
Lu1 O4 2.244692 1_555
Lu1 O1 2.244940 1_565
Lu1 O1 2.244946 1_555
Lu1 O6 2.324851 1_554
Lu1 O3 2.328772 1_565
Lu1 O3 2.328777 1_555
Lu2 O3 2.244692 1_555
Lu2 O6 2.244933 1_545
Lu2 O6 2.244939 1_555
Lu2 O1 2.324851 1_556
Lu2 O4 2.328772 1_545
Lu2 O4 2.328777 1_555
Lu3 O0 2.244692 1_656
Lu3 O5 2.244947 1_645
Lu3 O5 2.244953 1_655
Lu3 O2 2.324851 1_555
Lu3 O7 2.328772 1_545
Lu3 O7 2.328777 1_555
H0 O7 0.971178 1_554
H1 O1 0.972761 1_555
H2 O2 0.972749 1_555
H3 O4 0.971190 1_555
H4 O3 0.971166 1_555
H5 O5 0.972749 1_555
H6 O6 0.972749 1_555
H7 O0 0.971180 1_556
Cl0 Lu1 2.775849 1_545
Cl0 Lu1 2.775853 1_555
Cl1 Lu0 2.775858 1_545
Cl1 Lu0 2.775862 1_555
Cl2 Lu3 2.775858 1_565
Cl2 Lu3 2.775862 1_555
Cl3 Lu2 2.775856 1_565
Cl3 Lu2 2.775860 1_555
