# generated using pymatgen
data_SrTa2H2O7
_symmetry_space_group_name_H-M   'P 1'
_cell_length_a   9.90515426
_cell_length_b   9.90515426
_cell_length_c   9.90515426
_cell_angle_alpha   156.79390391
_cell_angle_beta   156.79390391
_cell_angle_gamma   33.05085324
_symmetry_Int_Tables_number   1
_chemical_formula_structural   SrTa2H2O7
_chemical_formula_sum   'Sr1 Ta2 H2 O7'
_cell_volume   150.75696942
_cell_formula_units_Z   1
loop_
 _symmetry_equiv_pos_site_id
 _symmetry_equiv_pos_as_xyz
  1  'x, y, z'
loop_
 _atom_site_type_symbol
 _atom_site_label
 _atom_site_symmetry_multiplicity
 _atom_site_fract_x
 _atom_site_fract_y
 _atom_site_fract_z
 _atom_site_occupancy
  Sr  Sr0  1  0.00000000  0.00000000  0.00000000  1
  Ta  Ta0  1  0.60947800  0.60947800  0.00000000  1
  Ta  Ta1  1  0.39052200  0.39052200  0.00000000  1
  H  H0  1  0.75961100  0.75961100  0.00000000  1
  H  H1  1  0.24038900  0.24038900  0.00000000  1
  O  O0  1  0.50000000  0.50000000  0.00000000  1
  O  O1  1  0.29123300  0.29123300  0.00000000  1
  O  O2  1  0.70876700  0.70876700  0.00000000  1
  O  O3  1  0.90131300  0.40131300  0.50000000  1
  O  O4  1  0.40131300  0.90131300  0.50000000  1
  O  O5  1  0.59868700  0.09868700  0.50000000  1
  O  O6  1  0.09868700  0.59868700  0.50000000  1
loop_
_geom_bond_atom_site_label_1
_geom_bond_atom_site_label_2
_geom_bond_distance
_geom_bond_site_symmetry_2
H0 O2 0.965630 1_555
H1 O1 0.965630 1_555
O0 Ta0 2.079208 1_555
O0 Ta1 2.079208 1_555
O0 Sr0 2.817430 1_554
O0 Sr0 2.817430 1_666
O0 Sr0 2.817430 1_655
O0 Sr0 2.817430 1_565
O1 Ta1 1.885698 1_555
O2 Ta0 1.885698 1_555
O3 Ta1 2.002738 1_656
O3 Ta1 2.002738 1_555
O3 Sr0 2.735293 1_666
O3 Sr0 2.735293 1_655
O4 Ta1 2.002738 1_566
O4 Ta1 2.002738 1_555
O4 Sr0 2.735293 1_565
O4 Sr0 2.735293 1_666
O5 Ta0 2.002738 1_545
O5 Ta0 2.002738 1_556
O5 Sr0 2.735293 1_555
O5 Sr0 2.735293 1_656
O6 Ta0 2.002738 1_455
O6 Ta0 2.002738 1_556
O6 Sr0 2.735293 1_555
O6 Sr0 2.735293 1_566
