# generated using pymatgen
data_YbP5
_symmetry_space_group_name_H-M   'P 1'
_cell_length_a   9.67122500
_cell_length_b   4.71530900
_cell_length_c   5.48618410
_cell_angle_alpha   74.31740945
_cell_angle_beta   90.00000000
_cell_angle_gamma   90.00000000
_symmetry_Int_Tables_number   1
_chemical_formula_structural   YbP5
_chemical_formula_sum   'Yb2 P10'
_cell_volume   240.87201292
_cell_formula_units_Z   2
loop_
 _symmetry_equiv_pos_site_id
 _symmetry_equiv_pos_as_xyz
  1  'x, y, z'
loop_
 _atom_site_type_symbol
 _atom_site_label
 _atom_site_symmetry_multiplicity
 _atom_site_fract_x
 _atom_site_fract_y
 _atom_site_fract_z
 _atom_site_occupancy
  Yb  Yb0  1  0.25000000  0.92984100  0.38039500  1
  Yb  Yb1  1  0.75000000  0.07015900  0.61960500  1
  P  P0  1  0.25000000  0.72348500  0.92512300  1
  P  P1  1  0.75000000  0.27651500  0.07487700  1
  P  P2  1  0.40735600  0.37248700  0.97385400  1
  P  P3  1  0.90735600  0.62751300  0.02614600  1
  P  P4  1  0.59264400  0.62751300  0.02614600  1
  P  P5  1  0.09264400  0.37248700  0.97385400  1
  P  P6  1  0.44005200  0.30910800  0.59102400  1
  P  P7  1  0.94005200  0.69089200  0.40897600  1
  P  P8  1  0.55994800  0.69089200  0.40897600  1
  P  P9  1  0.05994800  0.30910800  0.59102400  1
loop_
_geom_bond_atom_site_label_1
_geom_bond_atom_site_label_2
_geom_bond_distance
_geom_bond_site_symmetry_2
P0 P5 2.210759 1_555
P0 P2 2.210759 1_555
P0 Yb0 2.881969 1_555
P0 Yb0 2.915341 1_556
P1 P4 2.210759 1_555
P1 P3 2.210759 1_555
P1 Yb1 2.881969 1_555
P1 Yb1 2.915341 1_554
P2 P4 2.219460 1_556
P2 P6 2.222564 1_555
P2 Yb0 3.021625 1_546
P3 P5 2.219460 1_654
P3 P7 2.222564 1_555
P3 Yb1 3.021625 1_564
P4 P8 2.222564 1_555
P4 Yb1 3.021625 1_564
P5 P9 2.222564 1_555
P5 Yb0 3.021625 1_546
P6 P8 2.147288 1_555
P6 Yb0 3.004848 1_545
P6 Yb1 3.191244 1_555
P6 Yb0 3.384111 1_555
P7 P9 2.147288 1_655
P7 Yb1 3.004848 1_565
P7 Yb0 3.191244 1_655
P7 Yb1 3.384111 1_555
P8 Yb1 3.004848 1_565
P8 Yb0 3.191244 1_555
P8 Yb1 3.384111 1_555
P9 Yb0 3.004848 1_545
P9 Yb1 3.191244 1_455
P9 Yb0 3.384111 1_555
