# generated using pymatgen
data_CaTcO3
_symmetry_space_group_name_H-M   'P 1'
_cell_length_a   5.49936721
_cell_length_b   5.49936721
_cell_length_c   5.49936725
_cell_angle_alpha   60.72498468
_cell_angle_beta   60.72498468
_cell_angle_gamma   60.72498979
_symmetry_Int_Tables_number   1
_chemical_formula_structural   CaTcO3
_chemical_formula_sum   'Ca2 Tc2 O6'
_cell_volume   119.52833820
_cell_formula_units_Z   2
loop_
 _symmetry_equiv_pos_site_id
 _symmetry_equiv_pos_as_xyz
  1  'x, y, z'
loop_
 _atom_site_type_symbol
 _atom_site_label
 _atom_site_symmetry_multiplicity
 _atom_site_fract_x
 _atom_site_fract_y
 _atom_site_fract_z
 _atom_site_occupancy
  Ca  Ca0  1  0.73501800  0.73501800  0.73501800  1
  Ca  Ca1  1  0.23501800  0.23501800  0.23501800  1
  Tc  Tc0  1  0.99501800  0.99501800  0.99501800  1
  Tc  Tc1  1  0.49501800  0.49501800  0.49501800  1
  O  O0  1  0.32768300  0.75006100  0.16372700  1
  O  O1  1  0.75006100  0.16372700  0.32768300  1
  O  O2  1  0.16372700  0.32768300  0.75006100  1
  O  O3  1  0.25006100  0.82768300  0.66372700  1
  O  O4  1  0.66372700  0.25006100  0.82768300  1
  O  O5  1  0.82768300  0.66372700  0.25006100  1
loop_
_geom_bond_atom_site_label_1
_geom_bond_atom_site_label_2
_geom_bond_distance
_geom_bond_site_symmetry_2
Ca0 O1 2.329726 1_565
Ca0 O0 2.329726 1_556
Ca0 O2 2.329726 1_655
Ca0 O4 2.650296 1_555
Ca0 O5 2.650297 1_555
Ca0 O3 2.650297 1_555
Ca0 O3 2.926800 1_655
Ca0 O5 2.926800 1_556
Ca0 O4 2.926800 1_565
Ca1 O4 2.329726 1_554
Ca1 O3 2.329726 1_545
Ca1 O5 2.329726 1_455
Ca1 O1 2.650296 1_455
Ca1 O2 2.650297 1_554
Ca1 O0 2.650297 1_545
Ca1 O0 2.926800 1_555
Ca1 O2 2.926800 1_555
Ca1 O1 2.926800 1_555
O0 Tc1 2.002895 1_555
O0 Tc0 2.012409 1_454
O1 Tc1 2.002895 1_555
O1 Tc0 2.012409 1_544
O2 Tc1 2.002895 1_555
O2 Tc0 2.012408 1_445
O3 Tc0 2.002895 1_455
O3 Tc1 2.012409 1_555
O4 Tc0 2.002895 1_545
O4 Tc1 2.012409 1_555
O5 Tc0 2.002895 1_554
O5 Tc1 2.012408 1_555
