# generated using pymatgen
data_BaHfS3
_symmetry_space_group_name_H-M   'P 1'
_cell_length_a   3.88351800
_cell_length_b   8.80353500
_cell_length_c   14.51503900
_cell_angle_alpha   90.00000000
_cell_angle_beta   90.00000000
_cell_angle_gamma   90.00000000
_symmetry_Int_Tables_number   1
_chemical_formula_structural   BaHfS3
_chemical_formula_sum   'Ba4 Hf4 S12'
_cell_volume   496.25011988
_cell_formula_units_Z   4
loop_
 _symmetry_equiv_pos_site_id
 _symmetry_equiv_pos_as_xyz
  1  'x, y, z'
loop_
 _atom_site_type_symbol
 _atom_site_label
 _atom_site_symmetry_multiplicity
 _atom_site_fract_x
 _atom_site_fract_y
 _atom_site_fract_z
 _atom_site_occupancy
  Ba  Ba0  1  0.75000000  0.56425400  0.67527400  1
  Ba  Ba1  1  0.25000000  0.43574600  0.32472600  1
  Ba  Ba2  1  0.75000000  0.06425400  0.82472600  1
  Ba  Ba3  1  0.25000000  0.93574600  0.17527400  1
  Hf  Hf0  1  0.25000000  0.66342300  0.94237400  1
  Hf  Hf1  1  0.75000000  0.33657700  0.05762600  1
  Hf  Hf2  1  0.25000000  0.16342300  0.55762600  1
  Hf  Hf3  1  0.75000000  0.83657700  0.44237400  1
  S  S0  1  0.75000000  0.82610100  0.00522900  1
  S  S1  1  0.25000000  0.17389900  0.99477100  1
  S  S2  1  0.75000000  0.32610100  0.49477100  1
  S  S3  1  0.25000000  0.67389900  0.50522900  1
  S  S4  1  0.25000000  0.52043900  0.10172900  1
  S  S5  1  0.75000000  0.47956100  0.89827100  1
  S  S6  1  0.25000000  0.02043900  0.39827100  1
  S  S7  1  0.75000000  0.97956100  0.60172900  1
  S  S8  1  0.25000000  0.78161300  0.79051900  1
  S  S9  1  0.75000000  0.21838700  0.20948100  1
  S  S10  1  0.25000000  0.28161300  0.70948100  1
  S  S11  1  0.75000000  0.71838700  0.29051900  1
loop_
_geom_bond_atom_site_label_1
_geom_bond_atom_site_label_2
_geom_bond_distance
_geom_bond_site_symmetry_2
Ba0 S10 3.195042 1_555
Ba0 S10 3.195042 1_655
Ba0 S8 3.198473 1_555
Ba0 S8 3.198473 1_655
Ba0 S3 3.285456 1_655
Ba0 S3 3.285456 1_555
Ba0 S5 3.321574 1_555
Ba0 S2 3.355611 1_555
Ba1 S11 3.195042 1_455
Ba1 S11 3.195042 1_555
Ba1 S9 3.198473 1_455
Ba1 S9 3.198473 1_555
Ba1 S2 3.285456 1_555
Ba1 S2 3.285456 1_455
Ba1 S4 3.321574 1_555
Ba1 S3 3.355611 1_555
Ba2 S8 3.195042 1_645
Ba2 S8 3.195042 1_545
Ba2 S10 3.198473 1_555
Ba2 S10 3.198473 1_655
Ba2 S1 3.285456 1_655
Ba2 S1 3.285456 1_555
Ba2 S7 3.321574 1_545
Ba2 S0 3.355611 1_546
Ba3 S9 3.195042 1_465
Ba3 S9 3.195042 1_565
Ba3 S11 3.198473 1_455
Ba3 S11 3.198473 1_555
Ba3 S0 3.285456 1_455
Ba3 S0 3.285456 1_555
Ba3 S6 3.321574 1_565
Ba3 S1 3.355611 1_564
Hf0 S8 2.437424 1_555
Hf0 S0 2.579501 1_456
Hf0 S0 2.579501 1_556
Hf0 S5 2.607721 1_455
Hf0 S5 2.607721 1_555
Hf0 S4 2.633374 1_556
Hf1 S9 2.437424 1_555
Hf1 S1 2.579501 1_654
Hf1 S1 2.579501 1_554
Hf1 S4 2.607721 1_655
Hf1 S4 2.607721 1_555
Hf1 S5 2.633374 1_554
Hf2 S10 2.437424 1_555
Hf2 S2 2.579501 1_555
Hf2 S2 2.579501 1_455
Hf2 S7 2.607721 1_445
Hf2 S7 2.607721 1_545
Hf2 S6 2.633374 1_555
Hf3 S11 2.437424 1_555
Hf3 S3 2.579501 1_555
Hf3 S3 2.579501 1_655
Hf3 S6 2.607721 1_565
Hf3 S6 2.607721 1_665
Hf3 S7 2.633374 1_555
