# generated using pymatgen
data_SrBr3
_symmetry_space_group_name_H-M   'P 1'
_cell_length_a   6.76406241
_cell_length_b   6.76406241
_cell_length_c   6.02425800
_cell_angle_alpha   90.00000000
_cell_angle_beta   90.00000000
_cell_angle_gamma   120.00000403
_symmetry_Int_Tables_number   1
_chemical_formula_structural   SrBr3
_chemical_formula_sum   'Sr2 Br6'
_cell_volume   238.69833487
_cell_formula_units_Z   2
loop_
 _symmetry_equiv_pos_site_id
 _symmetry_equiv_pos_as_xyz
  1  'x, y, z'
loop_
 _atom_site_type_symbol
 _atom_site_label
 _atom_site_symmetry_multiplicity
 _atom_site_fract_x
 _atom_site_fract_y
 _atom_site_fract_z
 _atom_site_occupancy
  Sr  Sr0  1  0.33333300  0.66666700  0.75000000  1
  Sr  Sr1  1  0.66666700  0.33333300  0.25000000  1
  Br  Br0  1  0.17269700  0.34539500  0.25000000  1
  Br  Br1  1  0.65460500  0.82730300  0.25000000  1
  Br  Br2  1  0.17269700  0.82730300  0.25000000  1
  Br  Br3  1  0.82730300  0.65460500  0.75000000  1
  Br  Br4  1  0.34539500  0.17269700  0.75000000  1
  Br  Br5  1  0.82730300  0.17269700  0.75000000  1
loop_
_geom_bond_atom_site_label_1
_geom_bond_atom_site_label_2
_geom_bond_distance
_geom_bond_site_symmetry_2
Br0 Sr1 3.382762 1_455
Br0 Sr1 3.382776 1_555
Br0 Sr0 3.551719 1_555
Br0 Sr0 3.551719 1_554
Br1 Sr1 3.382762 1_565
Br1 Sr1 3.382776 1_555
Br1 Sr0 3.551719 1_555
Br1 Sr0 3.551719 1_554
Br2 Sr1 3.382769 1_455
Br2 Sr1 3.382769 1_565
Br2 Sr0 3.551719 1_555
Br2 Sr0 3.551719 1_554
Br3 Sr0 3.382762 1_655
Br3 Sr0 3.382776 1_555
Br3 Sr1 3.551719 1_555
Br3 Sr1 3.551719 1_556
Br4 Sr0 3.382762 1_545
Br4 Sr0 3.382776 1_555
Br4 Sr1 3.551719 1_555
Br4 Sr1 3.551719 1_556
Br5 Sr0 3.382769 1_545
Br5 Sr0 3.382769 1_655
Br5 Sr1 3.551719 1_555
Br5 Sr1 3.551719 1_556
