# generated using pymatgen
data_HoLuTl2
_symmetry_space_group_name_H-M   'P 1'
_cell_length_a   5.27192010
_cell_length_b   5.27192010
_cell_length_c   5.27192010
_cell_angle_alpha   60.00000000
_cell_angle_beta   60.00000000
_cell_angle_gamma   60.00000000
_symmetry_Int_Tables_number   1
_chemical_formula_structural   HoLuTl2
_chemical_formula_sum   'Ho1 Lu1 Tl2'
_cell_volume   103.60756333
_cell_formula_units_Z   1
loop_
 _symmetry_equiv_pos_site_id
 _symmetry_equiv_pos_as_xyz
  1  'x, y, z'
loop_
 _atom_site_type_symbol
 _atom_site_label
 _atom_site_symmetry_multiplicity
 _atom_site_fract_x
 _atom_site_fract_y
 _atom_site_fract_z
 _atom_site_occupancy
  Ho  Ho0  1  0.25000000  0.25000000  0.25000000  1
  Lu  Lu0  1  0.75000200  0.75000200  0.75000200  1
  Tl  Tl0  1  -0.00000000  -0.00000000  -0.00000000  1
  Tl  Tl1  1  0.49999900  0.49999900  0.49999900  1
loop_
_geom_bond_atom_site_label_1
_geom_bond_atom_site_label_2
_geom_bond_distance
_geom_bond_site_symmetry_2
Ho0 Tl1 3.228366 1_555
Ho0 Tl0 3.228379 1_655
Ho0 Tl0 3.228379 1_556
Ho0 Tl0 3.228379 1_555
Ho0 Tl0 3.228379 1_565
Ho0 Tl1 3.228383 1_545
Ho0 Tl1 3.228383 1_455
Ho0 Tl1 3.228383 1_554
Lu0 Tl0 3.228353 1_666
Lu0 Tl1 3.228366 1_556
Lu0 Tl1 3.228366 1_565
Lu0 Tl1 3.228366 1_655
Lu0 Tl0 3.228387 1_656
Lu0 Tl0 3.228387 1_665
Lu0 Tl0 3.228387 1_566
Lu0 Tl1 3.228417 1_555
