# generated using pymatgen
data_KBiO3
_symmetry_space_group_name_H-M   'P 1'
_cell_length_a   4.28420400
_cell_length_b   4.28420400
_cell_length_c   4.28420400
_cell_angle_alpha   90.00000000
_cell_angle_beta   90.00000000
_cell_angle_gamma   90.00000000
_symmetry_Int_Tables_number   1
_chemical_formula_structural   KBiO3
_chemical_formula_sum   'K1 Bi1 O3'
_cell_volume   78.63401066
_cell_formula_units_Z   1
loop_
 _symmetry_equiv_pos_site_id
 _symmetry_equiv_pos_as_xyz
  1  'x, y, z'
loop_
 _atom_site_type_symbol
 _atom_site_label
 _atom_site_symmetry_multiplicity
 _atom_site_fract_x
 _atom_site_fract_y
 _atom_site_fract_z
 _atom_site_occupancy
  K  K0  1  0.00000000  0.00000000  0.00000000  1
  Bi  Bi0  1  0.50000000  0.50000000  0.50000000  1
  O  O0  1  0.50000000  0.50000000  0.00000000  1
  O  O1  1  0.50000000  0.00000000  0.50000000  1
  O  O2  1  0.00000000  0.50000000  0.50000000  1
loop_
_geom_bond_atom_site_label_1
_geom_bond_atom_site_label_2
_geom_bond_distance
_geom_bond_site_symmetry_2
K0 O0 3.029390 1_555
K0 O1 3.029390 1_555
K0 O0 3.029390 1_445
K0 O1 3.029390 1_554
K0 O2 3.029390 1_555
K0 O2 3.029390 1_554
K0 O0 3.029390 1_455
K0 O2 3.029390 1_544
K0 O2 3.029390 1_545
K0 O1 3.029390 1_455
K0 O1 3.029390 1_454
K0 O0 3.029390 1_545
Bi0 O1 2.142102 1_565
Bi0 O0 2.142102 1_556
Bi0 O2 2.142102 1_655
Bi0 O1 2.142102 1_555
Bi0 O0 2.142102 1_555
Bi0 O2 2.142102 1_555
