# generated using pymatgen
data_PrBN2
_symmetry_space_group_name_H-M   'P 1'
_cell_length_a   7.42758876
_cell_length_b   7.42758876
_cell_length_c   7.42758878
_cell_angle_alpha   110.53379077
_cell_angle_beta   110.53379077
_cell_angle_gamma   110.53379777
_symmetry_Int_Tables_number   1
_chemical_formula_structural   PrBN2
_chemical_formula_sum   'Pr6 B6 N12'
_cell_volume   302.39849290
_cell_formula_units_Z   6
loop_
 _symmetry_equiv_pos_site_id
 _symmetry_equiv_pos_as_xyz
  1  'x, y, z'
loop_
 _atom_site_type_symbol
 _atom_site_label
 _atom_site_symmetry_multiplicity
 _atom_site_fract_x
 _atom_site_fract_y
 _atom_site_fract_z
 _atom_site_occupancy
  Pr  Pr0  1  0.25000000  0.70447756  0.79552244  1
  Pr  Pr1  1  0.79552244  0.25000000  0.70447756  1
  Pr  Pr2  1  0.70447756  0.79552244  0.25000000  1
  Pr  Pr3  1  0.75000000  0.29552244  0.20447756  1
  Pr  Pr4  1  0.20447756  0.75000000  0.29552244  1
  Pr  Pr5  1  0.29552244  0.20447756  0.75000000  1
  B  B0  1  0.75000000  0.63120043  0.86879957  1
  B  B1  1  0.25000000  0.36879957  0.13120043  1
  B  B2  1  0.13120043  0.25000000  0.36879957  1
  B  B3  1  0.36879957  0.13120043  0.25000000  1
  B  B4  1  0.86879957  0.75000000  0.63120043  1
  B  B5  1  0.63120043  0.86879957  0.75000000  1
  N  N0  1  0.50990304  0.99009696  0.75000000  1
  N  N1  1  0.99009696  0.75000000  0.50990304  1
  N  N2  1  0.25000000  0.49009696  0.00990304  1
  N  N3  1  0.75000000  0.50990304  0.99009696  1
  N  N4  1  0.49009696  0.00990304  0.25000000  1
  N  N5  1  0.00990304  0.25000000  0.49009696  1
  N  N6  1  0.87149134  0.62850866  0.75000000  1
  N  N7  1  0.62850866  0.75000000  0.87149134  1
  N  N8  1  0.75000000  0.87149134  0.62850866  1
  N  N9  1  0.12850866  0.37149134  0.25000000  1
  N  N10  1  0.37149134  0.25000000  0.12850866  1
  N  N11  1  0.25000000  0.12850866  0.37149134  1
loop_
_geom_bond_atom_site_label_1
_geom_bond_atom_site_label_2
_geom_bond_distance
_geom_bond_site_symmetry_2
B0 N6 1.467037 1_555
B0 N7 1.467037 1_555
B0 N3 1.480824 1_555
B1 N9 1.467037 1_555
B1 N10 1.467037 1_555
B1 N2 1.480824 1_555
B2 N9 1.467037 1_555
B2 N11 1.467037 1_555
B2 N5 1.480824 1_555
B3 N10 1.467037 1_555
B3 N11 1.467037 1_555
B3 N4 1.480824 1_555
B4 N6 1.467037 1_555
B4 N8 1.467037 1_555
B4 N1 1.480824 1_555
B5 N8 1.467037 1_555
B5 N7 1.467037 1_555
B5 N0 1.480824 1_555
N0 Pr1 2.535685 1_565
N0 Pr0 2.535685 1_555
N0 Pr5 2.617203 1_565
N0 Pr3 2.699715 1_566
N0 Pr4 2.699715 1_555
N1 Pr0 2.535685 1_655
N1 Pr2 2.535685 1_555
N1 Pr4 2.617203 1_655
N1 Pr5 2.699715 1_665
N1 Pr3 2.699715 1_555
N2 Pr4 2.535685 1_555
N2 Pr5 2.535685 1_554
N2 Pr0 2.617203 1_554
N2 Pr2 2.699715 1_555
N2 Pr1 2.699715 1_454
N3 Pr1 2.535685 1_555
N3 Pr2 2.535685 1_556
N3 Pr3 2.617203 1_556
N3 Pr5 2.699715 1_555
N3 Pr4 2.699715 1_656
N4 Pr4 2.535685 1_545
N4 Pr3 2.535685 1_555
N4 Pr2 2.617203 1_545
N4 Pr0 2.699715 1_544
N4 Pr1 2.699715 1_555
N5 Pr3 2.535685 1_455
N5 Pr5 2.535685 1_555
N5 Pr1 2.617203 1_455
N5 Pr2 2.699715 1_445
N5 Pr0 2.699715 1_555
N6 Pr0 2.534393 1_655
N6 Pr1 2.534393 1_555
N7 Pr0 2.534393 1_555
N7 Pr2 2.534393 1_556
N8 Pr1 2.534393 1_565
N8 Pr2 2.534393 1_555
N9 Pr3 2.534393 1_455
N9 Pr4 2.534393 1_555
N10 Pr3 2.534393 1_555
N10 Pr5 2.534393 1_554
N11 Pr4 2.534393 1_545
N11 Pr5 2.534393 1_555
