# generated using pymatgen
data_Rb2H2C2O5
_symmetry_space_group_name_H-M   'P 1'
_cell_length_a   5.83449438
_cell_length_b   5.83449438
_cell_length_c   11.10720069
_cell_angle_alpha   74.69236435
_cell_angle_beta   74.69236435
_cell_angle_gamma   67.63163503
_symmetry_Int_Tables_number   1
_chemical_formula_structural   Rb2H2C2O5
_chemical_formula_sum   'Rb4 H4 C4 O10'
_cell_volume   331.53219779
_cell_formula_units_Z   2
loop_
 _symmetry_equiv_pos_site_id
 _symmetry_equiv_pos_as_xyz
  1  'x, y, z'
loop_
 _atom_site_type_symbol
 _atom_site_label
 _atom_site_symmetry_multiplicity
 _atom_site_fract_x
 _atom_site_fract_y
 _atom_site_fract_z
 _atom_site_occupancy
  Rb  Rb0  1  0.05021700  0.69006700  0.63018600  1
  Rb  Rb1  1  0.30993300  0.94978300  0.86981400  1
  Rb  Rb2  1  0.69006700  0.05021700  0.13018600  1
  Rb  Rb3  1  0.94978300  0.30993300  0.36981400  1
  H  H0  1  0.56996300  0.34635700  0.69849200  1
  H  H1  1  0.65364300  0.43003700  0.80150800  1
  H  H2  1  0.34635700  0.56996300  0.19849200  1
  H  H3  1  0.43003700  0.65364300  0.30150800  1
  C  C0  1  0.44152700  0.08417200  0.55345300  1
  C  C1  1  0.91582800  0.55847300  0.94654700  1
  C  C2  1  0.08417200  0.44152700  0.05345300  1
  C  C3  1  0.55847300  0.91582800  0.44654700  1
  O  O0  1  0.59652000  0.13950700  0.59334600  1
  O  O1  1  0.20559200  0.15018400  0.59266100  1
  O  O2  1  0.52206300  0.47793700  0.75000000  1
  O  O3  1  0.84981600  0.79440800  0.90733900  1
  O  O4  1  0.86049300  0.40348000  0.90665400  1
  O  O5  1  0.13950700  0.59652000  0.09334600  1
  O  O6  1  0.15018400  0.20559200  0.09266100  1
  O  O7  1  0.47793700  0.52206300  0.25000000  1
  O  O8  1  0.79440800  0.84981600  0.40733900  1
  O  O9  1  0.40348000  0.86049300  0.40665400  1
loop_
_geom_bond_atom_site_label_1
_geom_bond_atom_site_label_2
_geom_bond_distance
_geom_bond_site_symmetry_2
H0 O2 0.989427 1_555
H0 Rb0 3.094484 1_555
H0 Rb1 3.177923 1_545
H1 O2 0.989427 1_555
H1 Rb1 3.094484 1_555
H1 Rb0 3.177923 1_655
H2 O7 0.989427 1_555
H2 Rb2 3.094484 1_555
H2 Rb3 3.177923 1_455
H3 O7 0.989427 1_555
H3 Rb3 3.094484 1_555
H3 Rb2 3.177923 1_565
C0 O1 1.265471 1_555
C0 O0 1.275797 1_555
C1 O3 1.265471 1_555
C1 O4 1.275797 1_555
C2 O6 1.265471 1_555
C2 O5 1.275797 1_555
C3 O8 1.265471 1_555
C3 O9 1.275797 1_555
O0 Rb0 2.961912 1_645
O0 Rb3 2.992601 1_555
O0 Rb1 3.217734 1_545
O1 Rb3 2.982726 1_455
O1 Rb0 3.039405 1_555
O1 Rb0 3.043736 1_545
O1 Rb1 3.124339 1_545
O2 Rb1 3.058296 1_555
O2 Rb0 3.058296 1_555
O3 Rb2 2.982726 1_566
O3 Rb1 3.039405 1_555
O3 Rb1 3.043736 1_655
O3 Rb0 3.124339 1_655
O4 Rb1 2.961912 1_645
O4 Rb2 2.992601 1_556
O4 Rb0 3.217734 1_655
O5 Rb2 2.961912 1_465
O5 Rb1 2.992601 1_554
O5 Rb3 3.217734 1_455
O6 Rb1 2.982726 1_544
O6 Rb2 3.039405 1_555
O6 Rb2 3.043736 1_455
O6 Rb3 3.124339 1_455
O7 Rb3 3.058296 1_555
O7 Rb2 3.058296 1_555
O8 Rb0 2.982726 1_655
O8 Rb3 3.039405 1_555
O8 Rb3 3.043736 1_565
O8 Rb2 3.124339 1_565
O9 Rb3 2.961912 1_465
O9 Rb0 2.992601 1_555
O9 Rb2 3.217734 1_565
