# generated using pymatgen
data_NaGdSe2
_symmetry_space_group_name_H-M   'P 1'
_cell_length_a   4.17164734
_cell_length_b   4.17166455
_cell_length_c   7.31876801
_cell_angle_alpha   73.46423357
_cell_angle_beta   73.46331545
_cell_angle_gamma   59.96978475
_symmetry_Int_Tables_number   1
_chemical_formula_structural   NaGdSe2
_chemical_formula_sum   'Na1 Gd1 Se2'
_cell_volume   104.14553308
_cell_formula_units_Z   1
loop_
 _symmetry_equiv_pos_site_id
 _symmetry_equiv_pos_as_xyz
  1  'x, y, z'
loop_
 _atom_site_type_symbol
 _atom_site_label
 _atom_site_symmetry_multiplicity
 _atom_site_fract_x
 _atom_site_fract_y
 _atom_site_fract_z
 _atom_site_occupancy
  Na  Na0  1  0.50000000  0.50000100  0.50000000  1
  Gd  Gd0  1  -0.00000000  0.00000100  0.99999900  1
  Se  Se0  1  0.74439522  0.74437243  0.76640157  1
  Se  Se1  1  0.25560378  0.25562557  0.23359943  1
loop_
_geom_bond_atom_site_label_1
_geom_bond_atom_site_label_2
_geom_bond_distance
_geom_bond_site_symmetry_2
Na0 Se0 3.030417 1_555
Na0 Se1 3.030425 1_555
Na0 Se1 3.032006 1_655
Na0 Se0 3.032013 1_455
Na0 Se1 3.032116 1_565
Na0 Se0 3.032131 1_545
Gd0 Se0 2.898996 1_455
Gd0 Se1 2.899017 1_546
Gd0 Se0 2.899021 1_545
Gd0 Se1 2.899032 1_456
Gd0 Se0 2.900128 1_445
Gd0 Se1 2.900130 1_556
