# generated using pymatgen
data_NbCrSi
_symmetry_space_group_name_H-M   'P 1'
_cell_length_a   6.65052560
_cell_length_b   6.65052560
_cell_length_c   3.32229700
_cell_angle_alpha   90.00000000
_cell_angle_beta   90.00000000
_cell_angle_gamma   119.99999600
_symmetry_Int_Tables_number   1
_chemical_formula_structural   NbCrSi
_chemical_formula_sum   'Nb3 Cr3 Si3'
_cell_volume   127.25681282
_cell_formula_units_Z   3
loop_
 _symmetry_equiv_pos_site_id
 _symmetry_equiv_pos_as_xyz
  1  'x, y, z'
loop_
 _atom_site_type_symbol
 _atom_site_label
 _atom_site_symmetry_multiplicity
 _atom_site_fract_x
 _atom_site_fract_y
 _atom_site_fract_z
 _atom_site_occupancy
  Nb  Nb0  1  0.00000000  0.59539600  0.50000000  1
  Nb  Nb1  1  0.59539600  0.00000000  0.50000000  1
  Nb  Nb2  1  0.40460400  0.40460400  0.50000000  1
  Cr  Cr0  1  0.74638800  0.74638800  0.00000000  1
  Cr  Cr1  1  0.25361200  0.00000000  0.00000000  1
  Cr  Cr2  1  0.00000000  0.25361200  0.00000000  1
  Si  Si0  1  0.00000000  0.00000000  0.50000000  1
  Si  Si1  1  0.66666700  0.33333300  0.00000000  1
  Si  Si2  1  0.33333300  0.66666700  0.00000000  1
loop_
_geom_bond_atom_site_label_1
_geom_bond_atom_site_label_2
_geom_bond_distance
_geom_bond_site_symmetry_2
Nb0 Si2 2.616811 1_556
Nb0 Si2 2.616811 1_555
Nb0 Si1 2.616813 1_455
Nb0 Si1 2.616813 1_456
Nb0 Si0 2.690829 1_565
Nb1 Si1 2.616811 1_555
Nb1 Si1 2.616811 1_556
Nb1 Si2 2.616813 1_545
Nb1 Si2 2.616813 1_546
Nb1 Si0 2.690829 1_655
Nb2 Si1 2.616816 1_555
Nb2 Si1 2.616816 1_556
Nb2 Si2 2.616816 1_556
Nb2 Si2 2.616816 1_555
Nb2 Si0 2.690829 1_555
Cr0 Si0 2.367322 1_664
Cr0 Si0 2.367322 1_665
Cr0 Si2 2.524054 1_555
Cr0 Si1 2.524054 1_555
Cr0 Nb2 2.815340 1_555
Cr0 Nb2 2.815340 1_554
Cr0 Nb1 2.882062 1_565
Cr0 Nb1 2.882062 1_564
Cr0 Nb0 2.882062 1_655
Cr0 Nb0 2.882062 1_654
Cr1 Si0 2.367322 1_555
Cr1 Si0 2.367322 1_554
Cr1 Si2 2.524047 1_545
Cr1 Si1 2.524052 1_555
Cr1 Nb1 2.815340 1_555
Cr1 Nb1 2.815340 1_554
Cr1 Nb2 2.882062 1_555
Cr1 Nb2 2.882062 1_554
Cr1 Nb0 2.882062 1_545
Cr1 Nb0 2.882062 1_544
Cr2 Si0 2.367322 1_555
Cr2 Si0 2.367322 1_554
Cr2 Si1 2.524047 1_455
Cr2 Si2 2.524052 1_555
Cr2 Nb0 2.815340 1_555
Cr2 Nb0 2.815340 1_554
Cr2 Nb2 2.882062 1_555
Cr2 Nb2 2.882062 1_554
Cr2 Nb1 2.882062 1_455
Cr2 Nb1 2.882062 1_454
