# generated using pymatgen
data_Sr(SnAs)2
_symmetry_space_group_name_H-M   'P 1'
_cell_length_a   9.30893501
_cell_length_b   9.30893501
_cell_length_c   9.30893479
_cell_angle_alpha   26.35845453
_cell_angle_beta   26.35845453
_cell_angle_gamma   26.35845932
_symmetry_Int_Tables_number   1
_chemical_formula_structural   Sr(SnAs)2
_chemical_formula_sum   'Sr1 Sn2 As2'
_cell_volume   140.13758792
_cell_formula_units_Z   1
loop_
 _symmetry_equiv_pos_site_id
 _symmetry_equiv_pos_as_xyz
  1  'x, y, z'
loop_
 _atom_site_type_symbol
 _atom_site_label
 _atom_site_symmetry_multiplicity
 _atom_site_fract_x
 _atom_site_fract_y
 _atom_site_fract_z
 _atom_site_occupancy
  Sr  Sr0  1  -0.00000000  -0.00000000  0.00000000  1
  Sn  Sn0  1  0.20917527  0.20917527  0.20917527  1
  Sn  Sn1  1  0.79082473  0.79082473  0.79082473  1
  As  As0  1  0.59287365  0.59287365  0.59287365  1
  As  As1  1  0.40712635  0.40712635  0.40712635  1
loop_
_geom_bond_atom_site_label_1
_geom_bond_atom_site_label_2
_geom_bond_distance
_geom_bond_site_symmetry_2
As0 Sn0 2.801326 1_556
As0 Sn0 2.801326 1_655
As0 Sn0 2.801326 1_565
As0 Sr0 3.155750 1_665
As0 Sr0 3.155751 1_656
As0 Sr0 3.155751 1_566
As1 Sn1 2.801326 1_554
As1 Sn1 2.801326 1_545
As1 Sn1 2.801326 1_455
As1 Sr0 3.155750 1_556
As1 Sr0 3.155751 1_565
As1 Sr0 3.155751 1_655
