# generated using pymatgen
data_NbPt
_symmetry_space_group_name_H-M   'P 1'
_cell_length_a   9.30666466
_cell_length_b   5.59214876
_cell_length_c   10.08726508
_cell_angle_alpha   90.00000000
_cell_angle_beta   90.00000000
_cell_angle_gamma   90.00000000
_symmetry_Int_Tables_number   1
_chemical_formula_structural   NbPt
_chemical_formula_sum   'Nb16 Pt16'
_cell_volume   524.98417830
_cell_formula_units_Z   16
loop_
 _symmetry_equiv_pos_site_id
 _symmetry_equiv_pos_as_xyz
  1  'x, y, z'
loop_
 _atom_site_type_symbol
 _atom_site_label
 _atom_site_symmetry_multiplicity
 _atom_site_fract_x
 _atom_site_fract_y
 _atom_site_fract_z
 _atom_site_occupancy
  Nb  Nb0_0  1  0.12500000  0.00000000  0.08971135  1
  Nb  Nb0_1  1  0.12500000  0.00000000  0.58971135  1
  Nb  Nb0_2  1  0.12500000  0.50000000  0.08971135  1
  Nb  Nb0_3  1  0.12500000  0.50000000  0.58971135  1
  Nb  Nb0_4  1  0.62500000  0.00000000  0.08971135  1
  Nb  Nb0_5  1  0.62500000  0.00000000  0.58971135  1
  Nb  Nb0_6  1  0.62500000  0.50000000  0.08971135  1
  Nb  Nb0_7  1  0.62500000  0.50000000  0.58971135  1
  Nb  Nb1_0  1  0.37500000  0.00000000  0.41028865  1
  Nb  Nb1_1  1  0.37500000  0.00000000  0.91028865  1
  Nb  Nb1_2  1  0.37500000  0.50000000  0.41028865  1
  Nb  Nb1_3  1  0.37500000  0.50000000  0.91028865  1
  Nb  Nb1_4  1  0.87500000  0.00000000  0.41028865  1
  Nb  Nb1_5  1  0.87500000  0.00000000  0.91028865  1
  Nb  Nb1_6  1  0.87500000  0.50000000  0.41028865  1
  Nb  Nb1_7  1  0.87500000  0.50000000  0.91028865  1
  Pt  Pt0_0  1  0.12500000  0.25000000  0.33698178  1
  Pt  Pt0_1  1  0.12500000  0.25000000  0.83698178  1
  Pt  Pt0_2  1  0.12500000  0.75000000  0.33698178  1
  Pt  Pt0_3  1  0.12500000  0.75000000  0.83698178  1
  Pt  Pt0_4  1  0.62500000  0.25000000  0.33698178  1
  Pt  Pt0_5  1  0.62500000  0.25000000  0.83698178  1
  Pt  Pt0_6  1  0.62500000  0.75000000  0.33698178  1
  Pt  Pt0_7  1  0.62500000  0.75000000  0.83698178  1
  Pt  Pt1_0  1  0.37500000  0.25000000  0.16301821  1
  Pt  Pt1_1  1  0.37500000  0.25000000  0.66301822  1
  Pt  Pt1_2  1  0.37500000  0.75000000  0.16301821  1
  Pt  Pt1_3  1  0.37500000  0.75000000  0.66301822  1
  Pt  Pt1_4  1  0.87500000  0.25000000  0.16301821  1
  Pt  Pt1_5  1  0.87500000  0.25000000  0.66301822  1
  Pt  Pt1_6  1  0.87500000  0.75000000  0.16301821  1
  Pt  Pt1_7  1  0.87500000  0.75000000  0.66301822  1
loop_
_geom_bond_atom_site_label_1
_geom_bond_atom_site_label_2
_geom_bond_distance
_geom_bond_site_symmetry_2
Nb0_0 Nb0_2 2.796074 1_545
Nb0_0 Nb0_2 2.796074 1_555
Nb0_0 Pt1_6 2.813306 1_445
Nb0_0 Pt1_4 2.813306 1_455
Nb0_0 Pt1_2 2.813306 1_545
Nb0_0 Pt1_0 2.813306 1_555
Nb0_0 Pt0_2 2.859362 1_545
Nb0_0 Pt0_0 2.859362 1_555
Nb0_0 Pt0_1 2.907524 1_554
Nb0_0 Pt0_3 2.907524 1_544
Nb0_0 Nb1_5 2.947721 1_454
Nb0_0 Nb1_1 2.947721 1_554
Nb0_1 Nb0_3 2.796074 1_555
Nb0_1 Nb0_3 2.796074 1_545
Nb0_1 Pt1_5 2.813306 1_455
Nb0_1 Pt1_7 2.813306 1_445
Nb0_1 Pt1_1 2.813306 1_555
Nb0_1 Pt1_3 2.813306 1_545
Nb0_1 Pt0_3 2.859362 1_545
Nb0_1 Pt0_1 2.859362 1_555
Nb0_1 Pt0_2 2.907524 1_545
Nb0_1 Pt0_0 2.907524 1_555
Nb0_1 Nb1_4 2.947721 1_455
Nb0_1 Nb1_0 2.947721 1_555
Nb0_2 Pt1_6 2.813306 1_455
Nb0_2 Pt1_4 2.813306 1_455
Nb0_2 Pt1_2 2.813306 1_555
Nb0_2 Pt1_0 2.813306 1_555
Nb0_2 Pt0_2 2.859362 1_555
Nb0_2 Pt0_0 2.859362 1_555
Nb0_2 Pt0_1 2.907524 1_554
Nb0_2 Pt0_3 2.907524 1_554
Nb0_2 Nb1_7 2.947721 1_454
Nb0_2 Nb1_3 2.947721 1_554
Nb0_3 Pt1_7 2.813306 1_455
Nb0_3 Pt1_5 2.813306 1_455
Nb0_3 Pt1_1 2.813306 1_555
Nb0_3 Pt1_3 2.813306 1_555
Nb0_3 Pt0_3 2.859362 1_555
Nb0_3 Pt0_1 2.859362 1_555
Nb0_3 Pt0_0 2.907524 1_555
Nb0_3 Pt0_2 2.907524 1_555
Nb0_3 Nb1_6 2.947721 1_455
Nb0_3 Nb1_2 2.947721 1_555
Nb0_4 Nb0_6 2.796074 1_545
Nb0_4 Nb0_6 2.796074 1_555
Nb0_4 Pt1_2 2.813306 1_545
Nb0_4 Pt1_0 2.813306 1_555
Nb0_4 Pt1_6 2.813306 1_545
Nb0_4 Pt1_4 2.813306 1_555
Nb0_4 Pt0_4 2.859362 1_555
Nb0_4 Pt0_6 2.859362 1_545
Nb0_4 Pt0_7 2.907524 1_544
Nb0_4 Pt0_5 2.907524 1_554
Nb0_4 Nb1_1 2.947721 1_554
Nb0_4 Nb1_5 2.947721 1_554
Nb0_5 Nb0_7 2.796074 1_555
Nb0_5 Nb0_7 2.796074 1_545
Nb0_5 Pt1_1 2.813306 1_555
Nb0_5 Pt1_3 2.813306 1_545
Nb0_5 Pt1_7 2.813306 1_545
Nb0_5 Pt1_5 2.813306 1_555
Nb0_5 Pt0_5 2.859362 1_555
Nb0_5 Pt0_7 2.859362 1_545
Nb0_5 Pt0_4 2.907524 1_555
Nb0_5 Pt0_6 2.907524 1_545
Nb0_5 Nb1_0 2.947721 1_555
Nb0_5 Nb1_4 2.947721 1_555
Nb0_6 Pt1_2 2.813306 1_555
Nb0_6 Pt1_0 2.813306 1_555
Nb0_6 Pt1_6 2.813306 1_555
Nb0_6 Pt1_4 2.813306 1_555
Nb0_6 Pt0_6 2.859362 1_555
Nb0_6 Pt0_4 2.859362 1_555
Nb0_6 Pt0_7 2.907524 1_554
Nb0_6 Pt0_5 2.907524 1_554
Nb0_6 Nb1_3 2.947721 1_554
Nb0_6 Nb1_7 2.947721 1_554
Nb0_7 Pt1_1 2.813306 1_555
Nb0_7 Pt1_3 2.813306 1_555
Nb0_7 Pt1_7 2.813306 1_555
Nb0_7 Pt1_5 2.813306 1_555
Nb0_7 Pt0_5 2.859362 1_555
Nb0_7 Pt0_7 2.859362 1_555
Nb0_7 Pt0_4 2.907524 1_555
Nb0_7 Pt0_6 2.907524 1_555
Nb0_7 Nb1_2 2.947721 1_555
Nb0_7 Nb1_6 2.947721 1_555
Nb1_0 Nb1_2 2.796074 1_555
Nb1_0 Nb1_2 2.796074 1_545
Nb1_0 Pt0_2 2.813306 1_545
Nb1_0 Pt0_0 2.813306 1_555
Nb1_0 Pt0_4 2.813306 1_555
Nb1_0 Pt0_6 2.813306 1_545
Nb1_0 Pt1_2 2.859362 1_545
Nb1_0 Pt1_0 2.859362 1_555
Nb1_0 Pt1_1 2.907524 1_555
Nb1_0 Pt1_3 2.907524 1_545
Nb1_1 Nb1_3 2.796074 1_545
Nb1_1 Nb1_3 2.796074 1_555
Nb1_1 Pt0_1 2.813306 1_555
Nb1_1 Pt0_5 2.813306 1_555
Nb1_1 Pt0_3 2.813306 1_545
Nb1_1 Pt0_7 2.813306 1_545
Nb1_1 Pt1_1 2.859362 1_555
Nb1_1 Pt1_3 2.859362 1_545
Nb1_1 Pt1_0 2.907524 1_556
Nb1_1 Pt1_2 2.907524 1_546
Nb1_2 Pt0_6 2.813306 1_555
Nb1_2 Pt0_0 2.813306 1_555
Nb1_2 Pt0_4 2.813306 1_555
Nb1_2 Pt0_2 2.813306 1_555
Nb1_2 Pt1_2 2.859362 1_555
Nb1_2 Pt1_0 2.859362 1_555
Nb1_2 Pt1_3 2.907524 1_555
Nb1_2 Pt1_1 2.907524 1_555
Nb1_3 Pt0_1 2.813306 1_555
Nb1_3 Pt0_5 2.813306 1_555
Nb1_3 Pt0_3 2.813306 1_555
Nb1_3 Pt0_7 2.813306 1_555
Nb1_3 Pt1_3 2.859362 1_555
Nb1_3 Pt1_1 2.859362 1_555
Nb1_3 Pt1_2 2.907524 1_556
Nb1_3 Pt1_0 2.907524 1_556
Nb1_4 Nb1_6 2.796074 1_555
Nb1_4 Nb1_6 2.796074 1_545
Nb1_4 Pt0_0 2.813306 1_655
Nb1_4 Pt0_2 2.813306 1_645
Nb1_4 Pt0_4 2.813306 1_555
Nb1_4 Pt0_6 2.813306 1_545
Nb1_4 Pt1_6 2.859362 1_545
Nb1_4 Pt1_4 2.859362 1_555
Nb1_4 Pt1_5 2.907524 1_555
Nb1_4 Pt1_7 2.907524 1_545
Nb1_5 Nb1_7 2.796074 1_555
Nb1_5 Nb1_7 2.796074 1_545
Nb1_5 Pt0_1 2.813306 1_655
Nb1_5 Pt0_3 2.813306 1_645
Nb1_5 Pt0_5 2.813306 1_555
Nb1_5 Pt0_7 2.813306 1_545
Nb1_5 Pt1_7 2.859362 1_545
Nb1_5 Pt1_5 2.859362 1_555
Nb1_5 Pt1_4 2.907524 1_556
Nb1_5 Pt1_6 2.907524 1_546
Nb1_6 Pt0_2 2.813306 1_655
Nb1_6 Pt0_0 2.813306 1_655
Nb1_6 Pt0_6 2.813306 1_555
Nb1_6 Pt0_4 2.813306 1_555
Nb1_6 Pt1_6 2.859362 1_555
Nb1_6 Pt1_4 2.859362 1_555
Nb1_6 Pt1_7 2.907524 1_555
Nb1_6 Pt1_5 2.907524 1_555
Nb1_7 Pt0_3 2.813306 1_655
Nb1_7 Pt0_1 2.813306 1_655
Nb1_7 Pt0_5 2.813306 1_555
Nb1_7 Pt0_7 2.813306 1_555
Nb1_7 Pt1_7 2.859362 1_555
Nb1_7 Pt1_5 2.859362 1_555
Nb1_7 Pt1_6 2.907524 1_556
Nb1_7 Pt1_4 2.907524 1_556
Pt0_0 Pt0_2 2.796074 1_555
Pt0_0 Pt0_2 2.796074 1_545
Pt0_0 Pt1_4 2.914234 1_455
Pt0_0 Pt1_0 2.914234 1_555
Pt0_1 Pt0_3 2.796074 1_545
Pt0_1 Pt0_3 2.796074 1_555
Pt0_1 Pt1_5 2.914234 1_455
Pt0_1 Pt1_1 2.914234 1_555
Pt0_2 Pt1_6 2.914234 1_455
Pt0_2 Pt1_2 2.914234 1_555
Pt0_3 Pt1_7 2.914234 1_455
Pt0_3 Pt1_3 2.914234 1_555
Pt0_4 Pt0_6 2.796074 1_545
Pt0_4 Pt0_6 2.796074 1_555
Pt0_4 Pt1_0 2.914234 1_555
Pt0_4 Pt1_4 2.914234 1_555
Pt0_5 Pt0_7 2.796074 1_545
Pt0_5 Pt0_7 2.796074 1_555
Pt0_5 Pt1_1 2.914234 1_555
Pt0_5 Pt1_5 2.914234 1_555
Pt0_6 Pt1_2 2.914234 1_555
Pt0_6 Pt1_6 2.914234 1_555
Pt0_7 Pt1_3 2.914234 1_555
Pt0_7 Pt1_7 2.914234 1_555
Pt1_0 Pt1_2 2.796074 1_545
Pt1_0 Pt1_2 2.796074 1_555
Pt1_1 Pt1_3 2.796074 1_555
Pt1_1 Pt1_3 2.796074 1_545
Pt1_4 Pt1_6 2.796074 1_545
Pt1_4 Pt1_6 2.796074 1_555
Pt1_5 Pt1_7 2.796074 1_555
Pt1_5 Pt1_7 2.796074 1_545
