# generated using pymatgen
data_LiCd3
_symmetry_space_group_name_H-M   'P 1'
_cell_length_a   4.80367471
_cell_length_b   4.80367471
_cell_length_c   4.80367471
_cell_angle_alpha   60.00000000
_cell_angle_beta   60.00000000
_cell_angle_gamma   60.00000000
_symmetry_Int_Tables_number   1
_chemical_formula_structural   LiCd3
_chemical_formula_sum   'Li1 Cd3'
_cell_volume   78.38009280
_cell_formula_units_Z   1
loop_
 _symmetry_equiv_pos_site_id
 _symmetry_equiv_pos_as_xyz
  1  'x, y, z'
loop_
 _atom_site_type_symbol
 _atom_site_label
 _atom_site_symmetry_multiplicity
 _atom_site_fract_x
 _atom_site_fract_y
 _atom_site_fract_z
 _atom_site_occupancy
  Li  Li0  1  0.75000000  0.75000000  0.75000000  1
  Cd  Cd0  1  0.00000000  -0.00000000  -0.00000000  1
  Cd  Cd1  1  0.50000000  0.50000000  0.50000000  1
  Cd  Cd2  1  0.25000100  0.25000100  0.25000100  1
loop_
_geom_bond_atom_site_label_1
_geom_bond_atom_site_label_2
_geom_bond_distance
_geom_bond_site_symmetry_2
Cd0 Cd2 2.941634 1_545
Cd0 Cd2 2.941634 1_554
Cd0 Cd2 2.941634 1_455
Cd0 Li0 2.941638 1_544
Cd0 Li0 2.941638 1_444
Cd0 Li0 2.941638 1_445
Cd0 Li0 2.941638 1_454
Cd0 Cd2 2.941650 1_555
Cd1 Cd2 2.941626 1_555
Cd1 Li0 2.941638 1_554
Cd1 Li0 2.941638 1_545
Cd1 Li0 2.941638 1_455
Cd1 Li0 2.941638 1_555
Cd1 Cd2 2.941642 1_655
Cd1 Cd2 2.941642 1_565
Cd1 Cd2 2.941642 1_556
