# generated using pymatgen
data_Tl
_symmetry_space_group_name_H-M   'P 1'
_cell_length_a   7.01727440
_cell_length_b   7.01727591
_cell_length_c   22.53120926
_cell_angle_alpha   90.00000000
_cell_angle_beta   90.00000000
_cell_angle_gamma   119.99998291
_symmetry_Int_Tables_number   1
_chemical_formula_structural   Tl
_chemical_formula_sum   Tl32
_cell_volume   960.84253345
_cell_formula_units_Z   32
loop_
 _symmetry_equiv_pos_site_id
 _symmetry_equiv_pos_as_xyz
  1  'x, y, z'
loop_
 _atom_site_type_symbol
 _atom_site_label
 _atom_site_symmetry_multiplicity
 _atom_site_fract_x
 _atom_site_fract_y
 _atom_site_fract_z
 _atom_site_occupancy
  Tl  Tl0_0  1  0.00000000  0.00000000  0.00000000  1
  Tl  Tl0_1  1  0.00000000  0.00000000  0.50000000  1
  Tl  Tl0_2  1  0.00000000  0.50000000  0.00000000  1
  Tl  Tl0_3  1  0.00000000  0.50000000  0.50000000  1
  Tl  Tl0_4  1  0.50000000  0.00000000  0.00000000  1
  Tl  Tl0_5  1  0.50000000  0.00000000  0.50000000  1
  Tl  Tl0_6  1  0.50000000  0.50000000  0.00000000  1
  Tl  Tl0_7  1  0.50000000  0.50000000  0.50000000  1
  Tl  Tl1_0  1  0.16666700  0.33333400  0.12500000  1
  Tl  Tl1_1  1  0.16666700  0.33333400  0.62500000  1
  Tl  Tl1_2  1  0.16666700  0.83333400  0.12500000  1
  Tl  Tl1_3  1  0.16666700  0.83333400  0.62500000  1
  Tl  Tl1_4  1  0.66666700  0.33333400  0.12500000  1
  Tl  Tl1_5  1  0.66666700  0.33333400  0.62500000  1
  Tl  Tl1_6  1  0.66666700  0.83333400  0.12500000  1
  Tl  Tl1_7  1  0.66666700  0.83333400  0.62500000  1
  Tl  Tl2_0  1  0.00000000  0.00000000  0.25000000  1
  Tl  Tl2_1  1  0.00000000  0.00000000  0.75000000  1
  Tl  Tl2_2  1  0.00000000  0.50000000  0.25000000  1
  Tl  Tl2_3  1  0.00000000  0.50000000  0.75000000  1
  Tl  Tl2_4  1  0.50000000  0.00000000  0.25000000  1
  Tl  Tl2_5  1  0.50000000  0.00000000  0.75000000  1
  Tl  Tl2_6  1  0.50000000  0.50000000  0.25000000  1
  Tl  Tl2_7  1  0.50000000  0.50000000  0.75000000  1
  Tl  Tl3_0  1  0.33333300  0.16666700  0.37500000  1
  Tl  Tl3_1  1  0.33333300  0.16666700  0.87500000  1
  Tl  Tl3_2  1  0.33333300  0.66666700  0.37500000  1
  Tl  Tl3_3  1  0.33333300  0.66666700  0.87500000  1
  Tl  Tl3_4  1  0.83333300  0.16666700  0.37500000  1
  Tl  Tl3_5  1  0.83333300  0.16666700  0.87500000  1
  Tl  Tl3_6  1  0.83333300  0.66666700  0.37500000  1
  Tl  Tl3_7  1  0.83333300  0.66666700  0.87500000  1
loop_
_geom_bond_atom_site_label_1
_geom_bond_atom_site_label_2
_geom_bond_distance
_geom_bond_site_symmetry_2
Tl0_0 Tl1_2 3.469239 1_545
Tl0_0 Tl1_6 3.469239 1_445
Tl0_0 Tl3_1 3.469239 1_554
Tl0_0 Tl3_7 3.469239 1_444
Tl0_0 Tl3_5 3.469243 1_454
Tl0_0 Tl1_0 3.469243 1_555
Tl0_0 Tl0_4 3.508637 1_555
Tl0_0 Tl0_4 3.508637 1_455
Tl0_0 Tl0_2 3.508638 1_545
Tl0_0 Tl0_2 3.508638 1_555
Tl0_0 Tl0_6 3.508638 1_555
Tl0_0 Tl0_6 3.508638 1_445
Tl0_1 Tl1_3 3.469239 1_545
Tl0_1 Tl1_7 3.469239 1_445
Tl0_1 Tl3_0 3.469239 1_555
Tl0_1 Tl3_6 3.469239 1_445
Tl0_1 Tl3_4 3.469243 1_455
Tl0_1 Tl1_1 3.469243 1_555
Tl0_1 Tl0_5 3.508637 1_555
Tl0_1 Tl0_5 3.508637 1_455
Tl0_1 Tl0_3 3.508638 1_555
Tl0_1 Tl0_3 3.508638 1_545
Tl0_1 Tl0_7 3.508638 1_445
Tl0_1 Tl0_7 3.508638 1_555
Tl0_2 Tl1_0 3.469239 1_555
Tl0_2 Tl1_4 3.469239 1_455
Tl0_2 Tl3_3 3.469239 1_554
Tl0_2 Tl3_5 3.469239 1_454
Tl0_2 Tl3_7 3.469243 1_454
Tl0_2 Tl1_2 3.469243 1_555
Tl0_2 Tl0_6 3.508637 1_555
Tl0_2 Tl0_6 3.508637 1_455
Tl0_2 Tl0_4 3.508638 1_455
Tl0_2 Tl0_4 3.508638 1_565
Tl0_3 Tl1_1 3.469239 1_555
Tl0_3 Tl1_5 3.469239 1_455
Tl0_3 Tl3_2 3.469239 1_555
Tl0_3 Tl3_4 3.469239 1_455
Tl0_3 Tl3_6 3.469243 1_455
Tl0_3 Tl1_3 3.469243 1_555
Tl0_3 Tl0_7 3.508637 1_555
Tl0_3 Tl0_7 3.508637 1_455
Tl0_3 Tl0_5 3.508638 1_565
Tl0_3 Tl0_5 3.508638 1_455
Tl0_4 Tl1_6 3.469239 1_545
Tl0_4 Tl1_2 3.469239 1_545
Tl0_4 Tl3_5 3.469239 1_554
Tl0_4 Tl3_3 3.469239 1_544
Tl0_4 Tl3_1 3.469243 1_554
Tl0_4 Tl1_4 3.469243 1_555
Tl0_4 Tl0_6 3.508638 1_555
Tl0_4 Tl0_6 3.508638 1_545
Tl0_5 Tl1_7 3.469239 1_545
Tl0_5 Tl1_3 3.469239 1_545
Tl0_5 Tl3_4 3.469239 1_555
Tl0_5 Tl3_2 3.469239 1_545
Tl0_5 Tl3_0 3.469243 1_555
Tl0_5 Tl1_5 3.469243 1_555
Tl0_5 Tl0_7 3.508638 1_555
Tl0_5 Tl0_7 3.508638 1_545
Tl0_6 Tl1_4 3.469239 1_555
Tl0_6 Tl1_0 3.469239 1_555
Tl0_6 Tl3_7 3.469239 1_554
Tl0_6 Tl3_1 3.469239 1_554
Tl0_6 Tl3_3 3.469243 1_554
Tl0_6 Tl1_6 3.469243 1_555
Tl0_7 Tl1_5 3.469239 1_555
Tl0_7 Tl1_1 3.469239 1_555
Tl0_7 Tl3_6 3.469239 1_555
Tl0_7 Tl3_0 3.469239 1_555
Tl0_7 Tl3_2 3.469243 1_555
Tl0_7 Tl1_7 3.469243 1_555
Tl1_0 Tl2_2 3.469239 1_555
Tl1_0 Tl2_6 3.469239 1_555
Tl1_0 Tl2_0 3.469243 1_555
Tl1_0 Tl1_4 3.508637 1_555
Tl1_0 Tl1_4 3.508637 1_455
Tl1_0 Tl1_2 3.508638 1_545
Tl1_0 Tl1_2 3.508638 1_555
Tl1_0 Tl1_6 3.508638 1_555
Tl1_0 Tl1_6 3.508638 1_445
Tl1_1 Tl2_3 3.469239 1_555
Tl1_1 Tl2_7 3.469239 1_555
Tl1_1 Tl2_1 3.469243 1_555
Tl1_1 Tl1_5 3.508637 1_555
Tl1_1 Tl1_5 3.508637 1_455
Tl1_1 Tl1_3 3.508638 1_545
Tl1_1 Tl1_3 3.508638 1_555
Tl1_1 Tl1_7 3.508638 1_555
Tl1_1 Tl1_7 3.508638 1_445
Tl1_2 Tl2_0 3.469239 1_565
Tl1_2 Tl2_4 3.469239 1_565
Tl1_2 Tl2_2 3.469243 1_555
Tl1_2 Tl1_6 3.508637 1_455
Tl1_2 Tl1_6 3.508637 1_555
Tl1_2 Tl1_4 3.508638 1_565
Tl1_2 Tl1_4 3.508638 1_455
Tl1_3 Tl2_1 3.469239 1_565
Tl1_3 Tl2_5 3.469239 1_565
Tl1_3 Tl2_3 3.469243 1_555
Tl1_3 Tl1_7 3.508637 1_555
Tl1_3 Tl1_7 3.508637 1_455
Tl1_3 Tl1_5 3.508638 1_565
Tl1_3 Tl1_5 3.508638 1_455
Tl1_4 Tl2_6 3.469239 1_555
Tl1_4 Tl2_2 3.469239 1_655
Tl1_4 Tl2_4 3.469243 1_555
Tl1_4 Tl1_6 3.508638 1_555
Tl1_4 Tl1_6 3.508638 1_545
Tl1_5 Tl2_7 3.469239 1_555
Tl1_5 Tl2_3 3.469239 1_655
Tl1_5 Tl2_5 3.469243 1_555
Tl1_5 Tl1_7 3.508638 1_555
Tl1_5 Tl1_7 3.508638 1_545
Tl1_6 Tl2_4 3.469239 1_565
Tl1_6 Tl2_0 3.469239 1_665
Tl1_6 Tl2_6 3.469243 1_555
Tl1_7 Tl2_5 3.469239 1_565
Tl1_7 Tl2_1 3.469239 1_665
Tl1_7 Tl2_7 3.469243 1_555
Tl2_0 Tl3_0 3.469239 1_555
Tl2_0 Tl3_6 3.469239 1_445
Tl2_0 Tl3_4 3.469243 1_455
Tl2_0 Tl2_4 3.508637 1_555
Tl2_0 Tl2_4 3.508637 1_455
Tl2_0 Tl2_2 3.508638 1_545
Tl2_0 Tl2_2 3.508638 1_555
Tl2_0 Tl2_6 3.508638 1_445
Tl2_0 Tl2_6 3.508638 1_555
Tl2_1 Tl3_1 3.469239 1_555
Tl2_1 Tl3_7 3.469239 1_445
Tl2_1 Tl3_5 3.469243 1_455
Tl2_1 Tl2_5 3.508637 1_555
Tl2_1 Tl2_5 3.508637 1_455
Tl2_1 Tl2_3 3.508638 1_545
Tl2_1 Tl2_3 3.508638 1_555
Tl2_1 Tl2_7 3.508638 1_555
Tl2_1 Tl2_7 3.508638 1_445
Tl2_2 Tl3_2 3.469239 1_555
Tl2_2 Tl3_4 3.469239 1_455
Tl2_2 Tl3_6 3.469243 1_455
Tl2_2 Tl2_6 3.508637 1_455
Tl2_2 Tl2_6 3.508637 1_555
Tl2_2 Tl2_4 3.508638 1_455
Tl2_2 Tl2_4 3.508638 1_565
Tl2_3 Tl3_3 3.469239 1_555
Tl2_3 Tl3_5 3.469239 1_455
Tl2_3 Tl3_7 3.469243 1_455
Tl2_3 Tl2_7 3.508637 1_455
Tl2_3 Tl2_7 3.508637 1_555
Tl2_3 Tl2_5 3.508638 1_565
Tl2_3 Tl2_5 3.508638 1_455
Tl2_4 Tl3_4 3.469239 1_555
Tl2_4 Tl3_2 3.469239 1_545
Tl2_4 Tl3_0 3.469243 1_555
Tl2_4 Tl2_6 3.508638 1_555
Tl2_4 Tl2_6 3.508638 1_545
Tl2_5 Tl3_5 3.469239 1_555
Tl2_5 Tl3_3 3.469239 1_545
Tl2_5 Tl3_1 3.469243 1_555
Tl2_5 Tl2_7 3.508638 1_555
Tl2_5 Tl2_7 3.508638 1_545
Tl2_6 Tl3_6 3.469239 1_555
Tl2_6 Tl3_0 3.469239 1_555
Tl2_6 Tl3_2 3.469243 1_555
Tl2_7 Tl3_7 3.469239 1_555
Tl2_7 Tl3_1 3.469239 1_555
Tl2_7 Tl3_3 3.469243 1_555
Tl3_0 Tl3_4 3.508637 1_555
Tl3_0 Tl3_4 3.508637 1_455
Tl3_0 Tl3_2 3.508638 1_555
Tl3_0 Tl3_2 3.508638 1_545
Tl3_0 Tl3_6 3.508638 1_445
Tl3_0 Tl3_6 3.508638 1_555
Tl3_1 Tl3_5 3.508637 1_555
Tl3_1 Tl3_5 3.508637 1_455
Tl3_1 Tl3_3 3.508638 1_555
Tl3_1 Tl3_3 3.508638 1_545
Tl3_1 Tl3_7 3.508638 1_555
Tl3_1 Tl3_7 3.508638 1_445
Tl3_2 Tl3_6 3.508637 1_455
Tl3_2 Tl3_6 3.508637 1_555
Tl3_2 Tl3_4 3.508638 1_455
Tl3_2 Tl3_4 3.508638 1_565
Tl3_3 Tl3_7 3.508637 1_455
Tl3_3 Tl3_7 3.508637 1_555
Tl3_3 Tl3_5 3.508638 1_565
Tl3_3 Tl3_5 3.508638 1_455
Tl3_4 Tl3_6 3.508638 1_555
Tl3_4 Tl3_6 3.508638 1_545
Tl3_5 Tl3_7 3.508638 1_555
Tl3_5 Tl3_7 3.508638 1_545
