# generated using pymatgen
data_Ho4Ga16Co3
_symmetry_space_group_name_H-M   'P 1'
_cell_length_a   5.95236779
_cell_length_b   5.95238154
_cell_length_c   10.95266140
_cell_angle_alpha   90.00000576
_cell_angle_beta   90.00000075
_cell_angle_gamma   89.99999528
_symmetry_Int_Tables_number   1
_chemical_formula_structural   Ho4Ga16Co3
_chemical_formula_sum   'Ho4 Ga16 Co3'
_cell_volume   388.06116291
_cell_formula_units_Z   1
loop_
 _symmetry_equiv_pos_site_id
 _symmetry_equiv_pos_as_xyz
  1  'x, y, z'
loop_
 _atom_site_type_symbol
 _atom_site_label
 _atom_site_symmetry_multiplicity
 _atom_site_fract_x
 _atom_site_fract_y
 _atom_site_fract_z
 _atom_site_occupancy
  Ho  Ho0  1  -0.00000022  0.49999969  0.19507508  1
  Ho  Ho1  1  0.00000023  0.49999984  0.80492500  1
  Ho  Ho2  1  0.50000013  -0.00000002  0.80492280  1
  Ho  Ho3  1  0.50000025  0.00000022  0.19507678  1
  Ga  Ga0  1  -0.00000004  -0.00000004  0.21890592  1
  Ga  Ga1  1  0.00000003  0.00000001  0.78109408  1
  Ga  Ga2  1  0.49999995  0.50000019  0.19493245  1
  Ga  Ga3  1  0.49999990  0.49999988  0.80506758  1
  Ga  Ga4  1  0.28109599  0.28109898  0.00000017  1
  Ga  Ga5  1  0.71890381  0.71890095  -0.00000011  1
  Ga  Ga6  1  0.28109604  0.71890104  0.00000015  1
  Ga  Ga7  1  0.71890392  0.28109901  0.00000002  1
  Ga  Ga8  1  0.24951596  0.24951391  0.38460011  1
  Ga  Ga9  1  0.75048412  0.75048623  0.38460012  1
  Ga  Ga10  1  0.24951559  0.75048615  0.61539984  1
  Ga  Ga11  1  0.75048429  0.24951377  0.61539987  1
  Ga  Ga12  1  0.75048441  0.75048622  0.61539989  1
  Ga  Ga13  1  0.24951570  0.24951385  0.61539992  1
  Ga  Ga14  1  0.24951583  0.75048614  0.38460016  1
  Ga  Ga15  1  0.75048409  0.24951379  0.38460013  1
  Co  Co0  1  0.00000005  0.50000015  0.50000000  1
  Co  Co1  1  0.50000006  -0.00000000  0.49999997  1
  Co  Co2  1  -0.00000010  0.00000005  0.00000006  1
loop_
_geom_bond_atom_site_label_1
_geom_bond_atom_site_label_2
_geom_bond_distance
_geom_bond_site_symmetry_2
Ga0 Ga9 2.775814 1_445
Ga0 Ga15 2.775814 1_455
Ga0 Ga14 2.775815 1_545
Ga0 Ga8 2.775815 1_555
Ga0 Ho3 2.987604 1_455
Ga0 Ho3 2.987607 1_555
Ga0 Ho0 2.987613 1_555
Ga0 Ho0 2.987616 1_545
Ga1 Ga12 2.775813 1_445
Ga1 Ga10 2.775813 1_545
Ga1 Ga13 2.775814 1_555
Ga1 Ga11 2.775814 1_455
Ga1 Ho2 2.987605 1_455
Ga1 Ho2 2.987606 1_555
Ga1 Ho1 2.987613 1_555
Ga1 Ho1 2.987615 1_545
Ga2 Ga6 2.820266 1_555
Ga2 Ga4 2.820267 1_555
Ga2 Ga5 2.820268 1_555
Ga2 Ga7 2.820268 1_555
Ga2 Ga9 2.959983 1_555
Ga2 Ga8 2.959983 1_555
Ga2 Ho0 2.976183 1_655
Ga2 Ho0 2.976185 1_555
Ga2 Ho3 2.976191 1_555
Ga2 Ho3 2.976191 1_565
Ga3 Ga5 2.820267 1_556
Ga3 Ga7 2.820268 1_556
Ga3 Ga4 2.820269 1_556
Ga3 Ga6 2.820269 1_556
Ga3 Ho1 2.976182 1_555
Ga3 Ho1 2.976186 1_655
Ga3 Ho2 2.976191 1_555
Ga3 Ho2 2.976192 1_565
Ga4 Ga6 2.605965 1_555
Ga4 Ga7 2.605994 1_555
Ga4 Ho0 3.010370 1_555
Ga4 Ho1 3.010371 1_554
Ga4 Ho3 3.010402 1_555
Ga4 Ho2 3.010408 1_554
Ga5 Ga7 2.605964 1_555
Ga5 Ga6 2.605993 1_555
Ga5 Ho1 3.010372 1_654
Ga5 Ho0 3.010373 1_655
Ga5 Ho3 3.010404 1_565
Ga5 Ho2 3.010405 1_564
Ga6 Ho1 3.010372 1_554
Ga6 Ho0 3.010373 1_555
Ga6 Ho3 3.010404 1_565
Ga6 Ho2 3.010408 1_564
Ga7 Ho0 3.010370 1_655
Ga7 Ho1 3.010372 1_654
Ga7 Ho3 3.010402 1_555
Ga7 Ho2 3.010407 1_554
Ga8 Ho3 2.955961 1_555
Ga8 Ho0 2.955987 1_555
Ga9 Ho3 2.955961 1_565
Ga9 Ho0 2.955987 1_655
Ga10 Ga14 2.527871 1_555
Ga10 Ho2 2.955960 1_565
Ga10 Ho1 2.955987 1_555
Ga10 Ga3 2.959985 1_555
Ga10 Ga13 2.970403 1_565
Ga10 Ga12 2.970417 1_455
Ga10 Ga12 2.981951 1_555
Ga10 Ga13 2.981978 1_555
Ga11 Ga15 2.527871 1_555
Ga11 Ho2 2.955959 1_555
Ga11 Ho1 2.955988 1_655
Ga11 Ga3 2.959984 1_555
Ga11 Ga12 2.970402 1_545
Ga11 Ga13 2.970418 1_655
Ga11 Ga13 2.981949 1_555
Ga11 Ga12 2.981979 1_555
Ga12 Ga9 2.527872 1_555
Ga12 Ho2 2.955958 1_565
Ga12 Ho1 2.955988 1_655
Ga12 Ga3 2.959985 1_555
Ga13 Ga8 2.527872 1_555
Ga13 Ho2 2.955959 1_555
Ga13 Ho1 2.955985 1_555
Ga13 Ga3 2.959983 1_555
Ga14 Ho3 2.955964 1_565
Ga14 Ho0 2.955989 1_555
Ga14 Ga2 2.959983 1_555
Ga14 Ga8 2.970404 1_565
Ga14 Ga9 2.970420 1_455
Ga14 Ga9 2.981948 1_555
Ga14 Ga8 2.981978 1_555
Ga15 Ho3 2.955960 1_555
Ga15 Ho0 2.955986 1_655
Ga15 Ga2 2.959984 1_555
Ga15 Ga9 2.970402 1_545
Ga15 Ga8 2.970421 1_655
Ga15 Ga8 2.981947 1_555
Ga15 Ga9 2.981979 1_555
Co0 Ga10 2.454877 1_555
Co0 Ga12 2.454878 1_455
Co0 Ga14 2.454878 1_555
Co0 Ga9 2.454879 1_455
Co0 Ga13 2.454879 1_555
Co0 Ga8 2.454880 1_555
Co0 Ga11 2.454880 1_455
Co0 Ga15 2.454880 1_455
Co1 Ga9 2.454864 1_545
Co1 Ga15 2.454864 1_555
Co1 Ga8 2.454865 1_555
Co1 Ga14 2.454865 1_545
Co1 Ga11 2.454865 1_555
Co1 Ga12 2.454865 1_545
Co1 Ga13 2.454866 1_555
Co1 Ga10 2.454866 1_545
Co2 Ga7 2.366258 1_455
Co2 Ga4 2.366259 1_555
Co2 Ga6 2.366259 1_545
Co2 Ga5 2.366260 1_445
Co2 Ga0 2.397602 1_555
Co2 Ga1 2.397603 1_554
