# generated using pymatgen
data_TlCdTe2
_symmetry_space_group_name_H-M   'P 1'
_cell_length_a   4.39193587
_cell_length_b   4.39193587
_cell_length_c   7.57773200
_cell_angle_alpha   90.00000000
_cell_angle_beta   90.00000000
_cell_angle_gamma   119.99999807
_symmetry_Int_Tables_number   1
_chemical_formula_structural   TlCdTe2
_chemical_formula_sum   'Tl1 Cd1 Te2'
_cell_volume   126.58488815
_cell_formula_units_Z   1
loop_
 _symmetry_equiv_pos_site_id
 _symmetry_equiv_pos_as_xyz
  1  'x, y, z'
loop_
 _atom_site_type_symbol
 _atom_site_label
 _atom_site_symmetry_multiplicity
 _atom_site_fract_x
 _atom_site_fract_y
 _atom_site_fract_z
 _atom_site_occupancy
  Tl  Tl0  1  0.00000000  0.00000000  0.50000000  1
  Cd  Cd0  1  0.00000000  0.00000000  0.00000000  1
  Te  Te0  1  0.66666700  0.33333300  0.22401100  1
  Te  Te1  1  0.33333300  0.66666700  0.77598900  1
loop_
_geom_bond_atom_site_label_1
_geom_bond_atom_site_label_2
_geom_bond_distance
_geom_bond_site_symmetry_2
Cd0 Te1 3.051422 1_544
Cd0 Te0 3.051422 1_455
Cd0 Te1 3.051425 1_554
Cd0 Te0 3.051425 1_555
Cd0 Te0 3.051425 1_445
Cd0 Te1 3.051425 1_444
Te0 Tl0 3.286871 1_655
Te0 Tl0 3.286874 1_555
Te0 Tl0 3.286874 1_665
Te1 Tl0 3.286871 1_565
Te1 Tl0 3.286874 1_555
Te1 Tl0 3.286874 1_665
