# generated using pymatgen
data_Er2ZnAu
_symmetry_space_group_name_H-M   'P 1'
_cell_length_a   4.98234788
_cell_length_b   4.98234788
_cell_length_c   4.98234788
_cell_angle_alpha   60.00000000
_cell_angle_beta   60.00000000
_cell_angle_gamma   60.00000000
_symmetry_Int_Tables_number   1
_chemical_formula_structural   Er2ZnAu
_chemical_formula_sum   'Er2 Zn1 Au1'
_cell_volume   87.45550355
_cell_formula_units_Z   1
loop_
 _symmetry_equiv_pos_site_id
 _symmetry_equiv_pos_as_xyz
  1  'x, y, z'
loop_
 _atom_site_type_symbol
 _atom_site_label
 _atom_site_symmetry_multiplicity
 _atom_site_fract_x
 _atom_site_fract_y
 _atom_site_fract_z
 _atom_site_occupancy
  Er  Er0  1  0.49999900  0.49999900  0.49999900  1
  Er  Er1  1  -0.00000000  0.00000000  -0.00000000  1
  Zn  Zn0  1  0.75000000  0.75000000  0.75000000  1
  Au  Au0  1  0.25000000  0.25000000  0.25000000  1
loop_
_geom_bond_atom_site_label_1
_geom_bond_atom_site_label_2
_geom_bond_distance
_geom_bond_site_symmetry_2
Er0 Zn0 3.051048 1_554
Er0 Zn0 3.051048 1_545
Er0 Zn0 3.051048 1_455
Er0 Zn0 3.051065 1_555
Er1 Zn0 3.051053 1_544
Er1 Zn0 3.051053 1_454
Er1 Zn0 3.051053 1_445
Er1 Zn0 3.051053 1_444
Au0 Er0 3.051040 1_555
Au0 Er1 3.051053 1_655
Au0 Er1 3.051053 1_565
Au0 Er1 3.051053 1_555
Au0 Er1 3.051053 1_556
Au0 Er0 3.051057 1_545
Au0 Er0 3.051057 1_554
Au0 Er0 3.051057 1_455
