# generated using pymatgen
data_HgPd2Au
_symmetry_space_group_name_H-M   'P 1'
_cell_length_a   4.58123538
_cell_length_b   4.58123538
_cell_length_c   4.58123538
_cell_angle_alpha   60.00000000
_cell_angle_beta   60.00000000
_cell_angle_gamma   60.00000000
_symmetry_Int_Tables_number   1
_chemical_formula_structural   HgPd2Au
_chemical_formula_sum   'Hg1 Pd2 Au1'
_cell_volume   67.98808660
_cell_formula_units_Z   1
loop_
 _symmetry_equiv_pos_site_id
 _symmetry_equiv_pos_as_xyz
  1  'x, y, z'
loop_
 _atom_site_type_symbol
 _atom_site_label
 _atom_site_symmetry_multiplicity
 _atom_site_fract_x
 _atom_site_fract_y
 _atom_site_fract_z
 _atom_site_occupancy
  Hg  Hg0  1  0.75000000  0.75000000  0.75000000  1
  Pd  Pd0  1  0.00000000  0.00000000  0.00000000  1
  Pd  Pd1  1  0.50000000  0.50000000  0.50000000  1
  Au  Au0  1  0.24999900  0.24999900  0.24999900  1
loop_
_geom_bond_atom_site_label_1
_geom_bond_atom_site_label_2
_geom_bond_distance
_geom_bond_site_symmetry_2
Hg0 Pd1 2.805422 1_565
Hg0 Pd1 2.805422 1_655
Hg0 Pd0 2.805422 1_566
Hg0 Pd0 2.805422 1_666
Hg0 Pd1 2.805422 1_556
Hg0 Pd0 2.805422 1_665
Hg0 Pd0 2.805422 1_656
Hg0 Pd1 2.805422 1_555
Au0 Pd0 2.805411 1_555
Au0 Pd1 2.805419 1_545
Au0 Pd1 2.805419 1_455
Au0 Pd1 2.805419 1_554
Au0 Pd0 2.805426 1_565
Au0 Pd0 2.805426 1_655
Au0 Pd0 2.805426 1_556
Au0 Pd1 2.805433 1_555
Au0 Hg0 3.239416 1_454
Au0 Hg0 3.239416 1_544
Au0 Hg0 3.239416 1_445
Au0 Hg0 3.239429 1_545
Au0 Hg0 3.239429 1_554
Au0 Hg0 3.239429 1_455
