# generated using pymatgen
data_Rb2CuCl4
_symmetry_space_group_name_H-M   'P 1'
_cell_length_a   8.77751118
_cell_length_b   8.77751118
_cell_length_c   8.77751118
_cell_angle_alpha   147.26160625
_cell_angle_beta   147.26160625
_cell_angle_gamma   46.97658701
_symmetry_Int_Tables_number   1
_chemical_formula_structural   Rb2CuCl4
_chemical_formula_sum   'Rb2 Cu1 Cl4'
_cell_volume   197.04781803
_cell_formula_units_Z   1
loop_
 _symmetry_equiv_pos_site_id
 _symmetry_equiv_pos_as_xyz
  1  'x, y, z'
loop_
 _atom_site_type_symbol
 _atom_site_label
 _atom_site_symmetry_multiplicity
 _atom_site_fract_x
 _atom_site_fract_y
 _atom_site_fract_z
 _atom_site_occupancy
  Rb  Rb0  1  0.64198500  0.64198500  0.00000000  1
  Rb  Rb1  1  0.35801500  0.35801500  0.00000000  1
  Cu  Cu0  1  0.00000000  0.00000000  0.00000000  1
  Cl  Cl0  1  0.84925500  0.84925500  0.00000000  1
  Cl  Cl1  1  0.15074500  0.15074500  0.00000000  1
  Cl  Cl2  1  0.50000000  0.00000000  0.50000000  1
  Cl  Cl3  1  0.00000000  0.50000000  0.50000000  1
loop_
_geom_bond_atom_site_label_1
_geom_bond_atom_site_label_2
_geom_bond_distance
_geom_bond_site_symmetry_2
Cl0 Cu0 2.427061 1_665
Cl0 Rb0 3.337138 1_555
Cl0 Rb1 3.501222 1_666
Cl0 Rb1 3.501222 1_554
Cl0 Rb1 3.501222 1_565
Cl0 Rb1 3.501222 1_655
Cl1 Cu0 2.427061 1_555
Cl1 Rb1 3.337138 1_555
Cl1 Rb0 3.501222 1_444
Cl1 Rb0 3.501222 1_455
Cl1 Rb0 3.501222 1_556
Cl1 Rb0 3.501222 1_545
Cl2 Cu0 2.473728 1_656
Cl2 Cu0 2.473728 1_555
Cl2 Rb0 3.368267 1_556
Cl2 Rb0 3.368267 1_545
Cl2 Rb1 3.368267 1_556
Cl2 Rb1 3.368267 1_545
Cl3 Cu0 2.473728 1_566
Cl3 Cu0 2.473728 1_555
Cl3 Rb0 3.368267 1_556
Cl3 Rb0 3.368267 1_455
Cl3 Rb1 3.368267 1_455
Cl3 Rb1 3.368267 1_556
