# generated using pymatgen
data_Ni3Te
_symmetry_space_group_name_H-M   'P 1'
_cell_length_a   5.33612988
_cell_length_b   5.33612988
_cell_length_c   4.26821800
_cell_angle_alpha   90.00000000
_cell_angle_beta   90.00000000
_cell_angle_gamma   119.99999852
_symmetry_Int_Tables_number   1
_chemical_formula_structural   Ni3Te
_chemical_formula_sum   'Ni6 Te2'
_cell_volume   105.25191700
_cell_formula_units_Z   2
loop_
 _symmetry_equiv_pos_site_id
 _symmetry_equiv_pos_as_xyz
  1  'x, y, z'
loop_
 _atom_site_type_symbol
 _atom_site_label
 _atom_site_symmetry_multiplicity
 _atom_site_fract_x
 _atom_site_fract_y
 _atom_site_fract_z
 _atom_site_occupancy
  Ni  Ni0  1  0.83887200  0.16112800  0.75000000  1
  Ni  Ni1  1  0.16112800  0.32225600  0.25000000  1
  Ni  Ni2  1  0.67774400  0.83887200  0.25000000  1
  Ni  Ni3  1  0.16112800  0.83887200  0.25000000  1
  Ni  Ni4  1  0.83887200  0.67774400  0.75000000  1
  Ni  Ni5  1  0.32225600  0.16112800  0.75000000  1
  Te  Te0  1  0.33333300  0.66666700  0.75000000  1
  Te  Te1  1  0.66666700  0.33333300  0.25000000  1
loop_
_geom_bond_atom_site_label_1
_geom_bond_atom_site_label_2
_geom_bond_distance
_geom_bond_site_symmetry_2
Ni0 Ni5 2.579400 1_655
Ni0 Ni4 2.579400 1_545
Ni0 Ni1 2.602343 1_656
Ni0 Ni2 2.602343 1_546
Ni0 Ni2 2.602343 1_545
Ni0 Ni1 2.602343 1_655
Ni0 Te1 2.662254 1_555
Ni0 Te1 2.662254 1_556
Ni0 Te0 2.668556 1_545
Ni0 Te0 2.668556 1_655
Ni0 Ni4 2.756730 1_555
Ni0 Ni5 2.756730 1_555
Ni1 Ni3 2.579400 1_545
Ni1 Ni2 2.579400 1_445
Ni1 Ni5 2.602343 1_554
Ni1 Ni5 2.602343 1_555
Ni1 Te0 2.662257 1_555
Ni1 Te0 2.662257 1_554
Ni1 Te1 2.668553 1_455
Ni1 Te1 2.668559 1_555
Ni1 Ni3 2.756730 1_555
Ni1 Ni2 2.756730 1_555
Ni2 Ni3 2.579400 1_655
Ni2 Ni4 2.602343 1_555
Ni2 Ni4 2.602343 1_554
Ni2 Te0 2.662257 1_555
Ni2 Te0 2.662257 1_554
Ni2 Te1 2.668553 1_565
Ni2 Te1 2.668559 1_555
Ni2 Ni3 2.756730 1_555
Ni3 Ni4 2.602343 1_454
Ni3 Ni5 2.602343 1_565
Ni3 Ni5 2.602343 1_564
Ni3 Ni4 2.602343 1_455
Ni3 Te0 2.662254 1_555
Ni3 Te0 2.662254 1_554
Ni3 Te1 2.668556 1_455
Ni3 Te1 2.668556 1_565
Ni4 Ni5 2.579400 1_665
Ni4 Te1 2.662257 1_555
Ni4 Te1 2.662257 1_556
Ni4 Te0 2.668553 1_655
Ni4 Te0 2.668559 1_555
Ni4 Ni5 2.756730 1_555
Ni5 Te1 2.662257 1_555
Ni5 Te1 2.662257 1_556
Ni5 Te0 2.668553 1_545
Ni5 Te0 2.668559 1_555
