# generated using pymatgen
data_Zn3(PO4)2
_symmetry_space_group_name_H-M   'P 1'
_cell_length_a   9.14046900
_cell_length_b   4.99059300
_cell_length_c   8.24457098
_cell_angle_alpha   53.48524714
_cell_angle_beta   90.00000000
_cell_angle_gamma   90.00000000
_symmetry_Int_Tables_number   1
_chemical_formula_structural   Zn3(PO4)2
_chemical_formula_sum   'Zn6 P4 O16'
_cell_volume   302.26276373
_cell_formula_units_Z   2
loop_
 _symmetry_equiv_pos_site_id
 _symmetry_equiv_pos_as_xyz
  1  'x, y, z'
loop_
 _atom_site_type_symbol
 _atom_site_label
 _atom_site_symmetry_multiplicity
 _atom_site_fract_x
 _atom_site_fract_y
 _atom_site_fract_z
 _atom_site_occupancy
  Zn  Zn0  1  0.37107400  0.30428000  0.66581100  1
  Zn  Zn1  1  0.87107400  0.69572000  0.83418900  1
  Zn  Zn2  1  0.62892600  0.69572000  0.33418900  1
  Zn  Zn3  1  0.12892600  0.30428000  0.16581100  1
  Zn  Zn4  1  0.00000000  0.50000000  0.50000000  1
  Zn  Zn5  1  0.50000000  0.50000000  0.00000000  1
  P  P0  1  0.68795200  0.18485700  0.83082900  1
  P  P1  1  0.18795200  0.81514300  0.66917100  1
  P  P2  1  0.31204800  0.81514300  0.16917100  1
  P  P3  1  0.81204800  0.18485700  0.33082900  1
  O  O0  1  0.84801600  0.13872900  0.78856600  1
  O  O1  1  0.34801600  0.86127100  0.71143400  1
  O  O2  1  0.15198400  0.86127100  0.21143400  1
  O  O3  1  0.65198400  0.13872900  0.28856600  1
  O  O4  1  0.58891100  0.30428200  0.64734200  1
  O  O5  1  0.08891100  0.69571800  0.85265800  1
  O  O6  1  0.41108900  0.69571800  0.35265800  1
  O  O7  1  0.91108900  0.30428200  0.14734200  1
  O  O8  1  0.68199300  0.45679400  0.86991000  1
  O  O9  1  0.18199300  0.54320600  0.63009000  1
  O  O10  1  0.31800700  0.54320600  0.13009000  1
  O  O11  1  0.81800700  0.45679400  0.36991000  1
  O  O12  1  0.62858100  0.84634000  0.01897000  1
  O  O13  1  0.12858100  0.15366000  0.48103000  1
  O  O14  1  0.37141900  0.15366000  0.98103000  1
  O  O15  1  0.87141900  0.84634000  0.51897000  1
loop_
_geom_bond_atom_site_label_1
_geom_bond_atom_site_label_2
_geom_bond_distance
_geom_bond_site_symmetry_2
O0 P0 1.552549 1_555
O0 Zn1 2.020946 1_545
O0 Zn4 2.394997 1_655
O1 P1 1.552549 1_555
O1 Zn0 2.020946 1_565
O1 Zn5 2.394997 1_556
O2 P2 1.552549 1_555
O2 Zn3 2.020946 1_565
O2 Zn4 2.394997 1_555
O3 P3 1.552549 1_555
O3 Zn2 2.020946 1_545
O3 Zn5 2.394997 1_555
O4 P0 1.546045 1_555
O4 Zn0 1.996946 1_555
O4 Zn2 2.147918 1_555
O5 P1 1.546045 1_555
O5 Zn1 1.996946 1_455
O5 Zn3 2.147918 1_556
O6 P2 1.546045 1_555
O6 Zn2 1.996946 1_555
O6 Zn0 2.147918 1_555
O7 P3 1.546045 1_555
O7 Zn3 1.996946 1_655
O7 Zn1 2.147918 1_554
O8 P0 1.571292 1_555
O8 Zn1 2.019304 1_555
O8 Zn5 2.058952 1_556
O9 P1 1.571292 1_555
O9 Zn0 2.019304 1_555
O9 Zn4 2.058952 1_555
O10 P2 1.571292 1_555
O10 Zn3 2.019304 1_555
O10 Zn5 2.058952 1_555
O11 P3 1.571292 1_555
O11 Zn2 2.019304 1_555
O11 Zn4 2.058952 1_655
O12 P0 1.560790 1_564
O12 Zn5 2.171402 1_555
O12 Zn2 2.234781 1_555
O13 P1 1.560790 1_545
O13 Zn4 2.171402 1_555
O13 Zn3 2.234781 1_555
O14 P2 1.560790 1_546
O14 Zn5 2.171402 1_556
O14 Zn0 2.234781 1_555
O15 P3 1.560790 1_565
O15 Zn4 2.171402 1_655
O15 Zn1 2.234781 1_555
