# generated using pymatgen
data_Re3Mo
_symmetry_space_group_name_H-M   'P 1'
_cell_length_a   4.82093348
_cell_length_b   4.82093348
_cell_length_c   4.82093348
_cell_angle_alpha   131.60145090
_cell_angle_beta   131.60145090
_cell_angle_gamma   70.85922492
_symmetry_Int_Tables_number   1
_chemical_formula_structural   Re3Mo
_chemical_formula_sum   'Re3 Mo1'
_cell_volume   61.36202477
_cell_formula_units_Z   1
loop_
 _symmetry_equiv_pos_site_id
 _symmetry_equiv_pos_as_xyz
  1  'x, y, z'
loop_
 _atom_site_type_symbol
 _atom_site_label
 _atom_site_symmetry_multiplicity
 _atom_site_fract_x
 _atom_site_fract_y
 _atom_site_fract_z
 _atom_site_occupancy
  Re  Re0  1  0.75000000  0.25000000  0.50000000  1
  Re  Re1  1  0.25000000  0.75000000  0.50000000  1
  Re  Re2  1  0.50000000  0.50000000  0.00000000  1
  Mo  Mo0  1  0.00000000  0.00000000  0.00000000  1
loop_
_geom_bond_atom_site_label_1
_geom_bond_atom_site_label_2
_geom_bond_distance
_geom_bond_site_symmetry_2
Re0 Re2 2.786206 1_656
Re0 Re2 2.786206 1_555
Re0 Re2 2.786206 1_556
Re0 Re2 2.786206 1_545
Re0 Re1 2.794707 1_645
Re0 Re1 2.794707 1_555
Re0 Re1 2.794707 1_544
Re0 Re1 2.794707 1_656
Re1 Re2 2.786206 1_555
Re1 Re2 2.786206 1_455
Re1 Re2 2.786206 1_556
Re1 Re2 2.786206 1_566
Mo0 Re0 2.786206 1_455
Mo0 Re0 2.786206 1_555
Mo0 Re0 2.786206 1_444
Mo0 Re0 2.786206 1_454
Mo0 Re1 2.786206 1_555
Mo0 Re1 2.786206 1_544
Mo0 Re1 2.786206 1_444
Mo0 Re1 2.786206 1_545
Mo0 Re2 2.794707 1_556
Mo0 Re2 2.794707 1_444
Mo0 Re2 2.794707 1_545
Mo0 Re2 2.794707 1_455
