# generated using pymatgen
data_Co3Bi
_symmetry_space_group_name_H-M   'P 1'
_cell_length_a   4.64876231
_cell_length_b   4.64876231
_cell_length_c   4.64876231
_cell_angle_alpha   130.89775399
_cell_angle_beta   130.89775399
_cell_angle_gamma   71.97557690
_symmetry_Int_Tables_number   1
_chemical_formula_structural   Co3Bi
_chemical_formula_sum   'Co3 Bi1'
_cell_volume   56.13702725
_cell_formula_units_Z   1
loop_
 _symmetry_equiv_pos_site_id
 _symmetry_equiv_pos_as_xyz
  1  'x, y, z'
loop_
 _atom_site_type_symbol
 _atom_site_label
 _atom_site_symmetry_multiplicity
 _atom_site_fract_x
 _atom_site_fract_y
 _atom_site_fract_z
 _atom_site_occupancy
  Co  Co0  1  0.75000000  0.25000000  0.50000000  1
  Co  Co1  1  0.25000000  0.75000000  0.50000000  1
  Co  Co2  1  0.50000000  0.50000000  0.00000000  1
  Bi  Bi0  1  0.00000000  0.00000000  0.00000000  1
loop_
_geom_bond_atom_site_label_1
_geom_bond_atom_site_label_2
_geom_bond_distance
_geom_bond_site_symmetry_2
Co0 Co2 2.695970 1_556
Co0 Co2 2.695970 1_555
Co0 Co2 2.695970 1_656
Co0 Co2 2.695970 1_545
Co0 Co1 2.731672 1_555
Co0 Co1 2.731672 1_656
Co0 Co1 2.731672 1_544
Co0 Co1 2.731672 1_645
Co1 Co2 2.695970 1_556
Co1 Co2 2.695970 1_555
Co1 Co2 2.695970 1_566
Co1 Co2 2.695970 1_455
Bi0 Co1 2.695970 1_444
Bi0 Co0 2.695970 1_455
Bi0 Co1 2.695970 1_544
Bi0 Co0 2.695970 1_454
Bi0 Co0 2.695970 1_555
Bi0 Co0 2.695970 1_444
Bi0 Co1 2.695970 1_545
Bi0 Co1 2.695970 1_555
Bi0 Co2 2.731672 1_455
Bi0 Co2 2.731672 1_556
Bi0 Co2 2.731672 1_444
Bi0 Co2 2.731672 1_545
