# generated using pymatgen
data_Si
_symmetry_space_group_name_H-M   'P 1'
_cell_length_a   3.97462300
_cell_length_b   5.45513699
_cell_length_c   9.01450197
_cell_angle_alpha   106.17302309
_cell_angle_beta   89.29697547
_cell_angle_gamma   111.23949568
_symmetry_Int_Tables_number   1
_chemical_formula_structural   Si
_chemical_formula_sum   Si8
_cell_volume   174.10769029
_cell_formula_units_Z   8
loop_
 _symmetry_equiv_pos_site_id
 _symmetry_equiv_pos_as_xyz
  1  'x, y, z'
loop_
 _atom_site_type_symbol
 _atom_site_label
 _atom_site_symmetry_multiplicity
 _atom_site_fract_x
 _atom_site_fract_y
 _atom_site_fract_z
 _atom_site_occupancy
  Si  Si0  1  0.09474000  0.90998800  0.91766700  1
  Si  Si1  1  0.00072400  0.27071300  0.94028900  1
  Si  Si2  1  0.56659500  0.24435100  0.75928200  1
  Si  Si3  1  0.12570700  0.99016400  0.37154100  1
  Si  Si4  1  0.84100800  0.87114700  0.19835500  1
  Si  Si5  1  0.28671500  0.52458200  0.31767000  1
  Si  Si6  1  0.56787400  0.64399100  0.48867800  1
  Si  Si7  1  0.50925300  0.56651000  0.99990800  1
loop_
_geom_bond_atom_site_label_1
_geom_bond_atom_site_label_2
_geom_bond_distance
_geom_bond_site_symmetry_2
Si0 Si1 2.088259 1_565
Si0 Si7 2.654825 1_455
Si0 Si4 2.746888 1_456
Si0 Si2 2.790936 1_565
Si1 Si7 2.039214 1_555
Si1 Si2 2.327879 1_455
Si1 Si2 2.784819 1_555
Si2 Si7 2.449495 1_555
Si3 Si4 1.756610 1_455
Si4 Si7 2.124776 1_554
Si4 Si5 2.764344 1_555
Si5 Si6 1.733486 1_555
