# generated using pymatgen
data_FeAu3
_symmetry_space_group_name_H-M   'P 1'
_cell_length_a   4.58618569
_cell_length_b   4.58618569
_cell_length_c   4.58618569
_cell_angle_alpha   60.00000000
_cell_angle_beta   60.00000000
_cell_angle_gamma   60.00000000
_symmetry_Int_Tables_number   1
_chemical_formula_structural   FeAu3
_chemical_formula_sum   'Fe1 Au3'
_cell_volume   68.20872105
_cell_formula_units_Z   1
loop_
 _symmetry_equiv_pos_site_id
 _symmetry_equiv_pos_as_xyz
  1  'x, y, z'
loop_
 _atom_site_type_symbol
 _atom_site_label
 _atom_site_symmetry_multiplicity
 _atom_site_fract_x
 _atom_site_fract_y
 _atom_site_fract_z
 _atom_site_occupancy
  Fe  Fe0  1  0.50000000  0.50000000  0.50000000  1
  Au  Au0  1  0.75000000  0.75000000  0.75000000  1
  Au  Au1  1  0.25000000  0.25000000  0.25000000  1
  Au  Au2  1  0.00000000  0.00000000  0.00000000  1
loop_
_geom_bond_atom_site_label_1
_geom_bond_atom_site_label_2
_geom_bond_distance
_geom_bond_site_symmetry_2
Au0 Fe0 2.808454 1_565
Au0 Au2 2.808454 1_656
Au0 Au2 2.808454 1_665
Au0 Au2 2.808454 1_666
Au0 Fe0 2.808454 1_555
Au0 Fe0 2.808454 1_556
Au0 Au2 2.808454 1_566
Au0 Fe0 2.808454 1_655
Au1 Au2 2.808454 1_565
Au1 Fe0 2.808454 1_545
Au1 Fe0 2.808454 1_555
Au1 Fe0 2.808454 1_554
Au1 Au2 2.808454 1_555
Au1 Au2 2.808454 1_556
Au1 Fe0 2.808454 1_455
Au1 Au2 2.808454 1_655
Au2 Fe0 3.242923 1_455
Au2 Fe0 3.242923 1_454
Au2 Fe0 3.242923 1_445
Au2 Fe0 3.242923 1_544
Au2 Fe0 3.242923 1_545
Au2 Fe0 3.242923 1_554
