# generated using pymatgen
data_KNaMo(OF2)2
_symmetry_space_group_name_H-M   'P 1'
_cell_length_a   6.07679100
_cell_length_b   6.07679100
_cell_length_c   8.46392100
_cell_angle_alpha   90.00000000
_cell_angle_beta   90.00000000
_cell_angle_gamma   90.00000000
_symmetry_Int_Tables_number   1
_chemical_formula_structural   KNaMo(OF2)2
_chemical_formula_sum   'K2 Na2 Mo2 O4 F8'
_cell_volume   312.55050203
_cell_formula_units_Z   2
loop_
 _symmetry_equiv_pos_site_id
 _symmetry_equiv_pos_as_xyz
  1  'x, y, z'
loop_
 _atom_site_type_symbol
 _atom_site_label
 _atom_site_symmetry_multiplicity
 _atom_site_fract_x
 _atom_site_fract_y
 _atom_site_fract_z
 _atom_site_occupancy
  K  K0  1  0.00000000  0.00000000  0.50000000  1
  K  K1  1  0.50000000  0.50000000  0.50000000  1
  Na  Na0  1  0.50000000  0.00000000  0.22707100  1
  Na  Na1  1  0.00000000  0.50000000  0.77292900  1
  Mo  Mo0  1  0.00000000  0.50000000  0.25393500  1
  Mo  Mo1  1  0.50000000  0.00000000  0.74606500  1
  O  O0  1  0.00000000  0.50000000  0.04449100  1
  O  O1  1  0.00000000  0.50000000  0.47286400  1
  O  O2  1  0.50000000  0.00000000  0.52713600  1
  O  O3  1  0.50000000  0.00000000  0.95550900  1
  F  F0  1  0.77009800  0.27009800  0.26213100  1
  F  F1  1  0.22990200  0.27009800  0.26213100  1
  F  F2  1  0.77009800  0.72990200  0.26213100  1
  F  F3  1  0.22990200  0.72990200  0.26213100  1
  F  F4  1  0.27009800  0.77009800  0.73786900  1
  F  F5  1  0.72990200  0.77009800  0.73786900  1
  F  F6  1  0.27009800  0.22990200  0.73786900  1
  F  F7  1  0.72990200  0.22990200  0.73786900  1
loop_
_geom_bond_atom_site_label_1
_geom_bond_atom_site_label_2
_geom_bond_distance
_geom_bond_site_symmetry_2
K0 O1 3.047064 1_545
K0 O2 3.047064 1_455
K0 O1 3.047064 1_555
K0 O2 3.047064 1_555
K1 O1 3.047064 1_655
K1 O2 3.047064 1_565
K1 O1 3.047064 1_555
K1 O2 3.047064 1_555
Na0 O3 2.298479 1_554
Na0 O2 2.539726 1_555
Na1 O0 2.298479 1_556
Na1 O1 2.539726 1_555
Mo0 O0 1.772717 1_555
Mo0 O1 1.852998 1_555
Mo1 O3 1.772717 1_555
Mo1 O2 1.852998 1_555
F0 Mo0 1.976968 1_655
F0 Na0 2.340081 1_555
F0 K0 2.949432 1_655
F0 K1 2.949432 1_555
F1 Mo0 1.976968 1_555
F1 Na0 2.340081 1_555
F1 K0 2.949432 1_555
F1 K1 2.949432 1_555
F2 Mo0 1.976968 1_655
F2 Na0 2.340081 1_565
F2 K1 2.949432 1_555
F2 K0 2.949432 1_665
F3 Mo0 1.976968 1_555
F3 Na0 2.340081 1_565
F3 K1 2.949432 1_555
F3 K0 2.949432 1_565
F4 Mo1 1.976968 1_565
F4 Na1 2.340081 1_555
F4 K1 2.949432 1_555
F4 K0 2.949432 1_565
F5 Mo1 1.976968 1_565
F5 Na1 2.340081 1_655
F5 K1 2.949432 1_555
F5 K0 2.949432 1_665
F6 Mo1 1.976968 1_555
F6 Na1 2.340081 1_555
F6 K0 2.949432 1_555
F6 K1 2.949432 1_555
F7 Mo1 1.976968 1_555
F7 Na1 2.340081 1_655
F7 K0 2.949432 1_655
F7 K1 2.949432 1_555
