# generated using pymatgen
data_NbTc2Ge
_symmetry_space_group_name_H-M   'P 1'
_cell_length_a   4.40186456
_cell_length_b   4.40186456
_cell_length_c   4.40186456
_cell_angle_alpha   60.00000000
_cell_angle_beta   60.00000000
_cell_angle_gamma   60.00000000
_symmetry_Int_Tables_number   1
_chemical_formula_structural   NbTc2Ge
_chemical_formula_sum   'Nb1 Tc2 Ge1'
_cell_volume   60.31079166
_cell_formula_units_Z   1
loop_
 _symmetry_equiv_pos_site_id
 _symmetry_equiv_pos_as_xyz
  1  'x, y, z'
loop_
 _atom_site_type_symbol
 _atom_site_label
 _atom_site_symmetry_multiplicity
 _atom_site_fract_x
 _atom_site_fract_y
 _atom_site_fract_z
 _atom_site_occupancy
  Nb  Nb0  1  0.75000000  0.75000000  0.75000000  1
  Tc  Tc0  1  0.50000100  0.50000100  0.50000100  1
  Tc  Tc1  1  -0.00000000  -0.00000000  -0.00000000  1
  Ge  Ge0  1  0.25000000  0.25000000  0.25000000  1
loop_
_geom_bond_atom_site_label_1
_geom_bond_atom_site_label_2
_geom_bond_distance
_geom_bond_site_symmetry_2
Nb0 Tc0 2.695570 1_555
Nb0 Tc1 2.695581 1_656
Nb0 Tc1 2.695581 1_566
Nb0 Tc1 2.695581 1_665
Nb0 Tc1 2.695581 1_666
Nb0 Tc0 2.695584 1_556
Nb0 Tc0 2.695584 1_655
Nb0 Tc0 2.695584 1_565
Ge0 Tc0 2.695577 1_545
Ge0 Tc0 2.695577 1_455
Ge0 Tc0 2.695577 1_554
Ge0 Tc1 2.695581 1_655
Ge0 Tc1 2.695581 1_565
Ge0 Tc1 2.695581 1_555
Ge0 Tc1 2.695581 1_556
Ge0 Tc0 2.695591 1_555
Ge0 Nb0 3.112588 1_454
Ge0 Nb0 3.112588 1_554
Ge0 Nb0 3.112588 1_545
Ge0 Nb0 3.112588 1_544
Ge0 Nb0 3.112588 1_445
Ge0 Nb0 3.112588 1_455
