# generated using pymatgen
data_LaSmZn2
_symmetry_space_group_name_H-M   'P 1'
_cell_length_a   5.21441444
_cell_length_b   5.21441444
_cell_length_c   5.21441444
_cell_angle_alpha   60.00000000
_cell_angle_beta   60.00000000
_cell_angle_gamma   60.00000000
_symmetry_Int_Tables_number   1
_chemical_formula_structural   LaSmZn2
_chemical_formula_sum   'La1 Sm1 Zn2'
_cell_volume   100.25398384
_cell_formula_units_Z   1
loop_
 _symmetry_equiv_pos_site_id
 _symmetry_equiv_pos_as_xyz
  1  'x, y, z'
loop_
 _atom_site_type_symbol
 _atom_site_label
 _atom_site_symmetry_multiplicity
 _atom_site_fract_x
 _atom_site_fract_y
 _atom_site_fract_z
 _atom_site_occupancy
  La  La0  1  0.25000000  0.25000000  0.25000000  1
  Sm  Sm0  1  0.75000000  0.75000000  0.75000000  1
  Zn  Zn0  1  0.00000000  0.00000000  0.00000000  1
  Zn  Zn1  1  0.49999900  0.49999900  0.49999900  1
loop_
_geom_bond_atom_site_label_1
_geom_bond_atom_site_label_2
_geom_bond_distance
_geom_bond_site_symmetry_2
La0 Zn1 3.193151 1_555
La0 Zn0 3.193164 1_555
La0 Zn0 3.193164 1_556
La0 Zn0 3.193164 1_565
La0 Zn0 3.193164 1_655
La0 Zn1 3.193168 1_545
La0 Zn1 3.193168 1_554
La0 Zn1 3.193168 1_455
Sm0 Zn1 3.193159 1_655
Sm0 Zn1 3.193159 1_565
Sm0 Zn1 3.193159 1_556
Sm0 Zn0 3.193164 1_656
Sm0 Zn0 3.193164 1_566
Sm0 Zn0 3.193164 1_665
Sm0 Zn0 3.193164 1_666
Sm0 Zn1 3.193176 1_555
