# generated using pymatgen
data_La11In9Ni4
_symmetry_space_group_name_H-M   'P 1'
_cell_length_a   13.55957235
_cell_length_b   13.55957235
_cell_length_c   3.85054993
_cell_angle_alpha   90.00000000
_cell_angle_beta   90.00000000
_cell_angle_gamma   112.42077425
_symmetry_Int_Tables_number   1
_chemical_formula_structural   La11In9Ni4
_chemical_formula_sum   'La11 In9 Ni4'
_cell_volume   654.45282739
_cell_formula_units_Z   1
loop_
 _symmetry_equiv_pos_site_id
 _symmetry_equiv_pos_as_xyz
  1  'x, y, z'
loop_
 _atom_site_type_symbol
 _atom_site_label
 _atom_site_symmetry_multiplicity
 _atom_site_fract_x
 _atom_site_fract_y
 _atom_site_fract_z
 _atom_site_occupancy
  La  La0  1  0.31370319  0.31370319  -0.00000000  1
  La  La1  1  0.68629681  0.68629681  -0.00000000  1
  La  La2  1  0.00000000  0.00000000  -0.00000000  1
  La  La3  1  0.07835467  0.41732064  -0.00000000  1
  La  La4  1  0.92164533  0.58267936  -0.00000000  1
  La  La5  1  0.41732064  0.07835467  -0.00000000  1
  La  La6  1  0.58267936  0.92164533  -0.00000000  1
  La  La7  1  0.83851533  0.16148467  -0.00000000  1
  La  La8  1  0.16148467  0.83851533  -0.00000000  1
  La  La9  1  0.62476720  0.37523280  -0.00000000  1
  La  La10  1  0.37523280  0.62476720  -0.00000000  1
  In  In0  1  0.83456899  0.36611264  0.50000000  1
  In  In1  1  0.16543101  0.63388736  0.50000000  1
  In  In2  1  0.36611264  0.83456899  0.50000000  1
  In  In3  1  0.63388736  0.16543101  0.50000000  1
  In  In4  1  0.08371363  0.22109898  0.50000000  1
  In  In5  1  0.91628637  0.77890102  0.50000000  1
  In  In6  1  0.22109898  0.08371363  0.50000000  1
  In  In7  1  0.77890102  0.91628637  0.50000000  1
  In  In8  1  0.50000000  0.50000000  0.50000000  1
  Ni  Ni0  1  0.24158530  0.44686362  0.50000000  1
  Ni  Ni1  1  0.75841470  0.55313638  0.50000000  1
  Ni  Ni2  1  0.44686362  0.24158530  0.50000000  1
  Ni  Ni3  1  0.55313638  0.75841470  0.50000000  1
loop_
_geom_bond_atom_site_label_1
_geom_bond_atom_site_label_2
_geom_bond_distance
_geom_bond_site_symmetry_2
La0 Ni2 3.044669 1_555
La0 Ni0 3.044669 1_554
La0 Ni0 3.044669 1_555
La0 Ni2 3.044669 1_554
La1 Ni1 3.044669 1_554
La1 Ni3 3.044669 1_555
La1 Ni3 3.044669 1_554
La1 Ni1 3.044669 1_555
La3 Ni0 2.844236 1_554
La3 Ni0 2.844236 1_555
La4 Ni1 2.844236 1_554
La4 Ni1 2.844236 1_555
La5 Ni2 2.844236 1_554
La5 Ni2 2.844236 1_555
La6 Ni3 2.844236 1_555
La6 Ni3 2.844236 1_554
La9 Ni2 3.078190 1_554
La9 Ni2 3.078190 1_555
La9 Ni1 3.078190 1_554
La9 Ni1 3.078190 1_555
La10 Ni0 3.078190 1_554
La10 Ni0 3.078190 1_555
La10 Ni3 3.078190 1_555
La10 Ni3 3.078190 1_554
In0 In3 3.026716 1_555
In0 Ni1 3.081391 1_555
In0 La4 3.328553 1_556
In0 La4 3.328553 1_555
In0 La7 3.394346 1_556
In0 La7 3.394346 1_555
In0 La9 3.476112 1_556
In0 La9 3.476112 1_555
In0 La3 3.655835 1_656
In0 La3 3.655835 1_655
In1 In2 3.026716 1_555
In1 Ni0 3.081391 1_555
In1 La3 3.328553 1_556
In1 La3 3.328553 1_555
In1 La8 3.394346 1_556
In1 La8 3.394346 1_555
In1 La10 3.476112 1_555
In1 La10 3.476112 1_556
In1 La4 3.655835 1_455
In1 La4 3.655835 1_456
In2 Ni3 3.081391 1_555
In2 La6 3.328553 1_555
In2 La6 3.328553 1_556
In2 La8 3.394346 1_556
In2 La8 3.394346 1_555
In2 La10 3.476112 1_556
In2 La10 3.476112 1_555
In2 La5 3.655835 1_566
In2 La5 3.655835 1_565
In3 Ni2 3.081391 1_555
In3 La5 3.328553 1_556
In3 La5 3.328553 1_555
In3 La7 3.394346 1_556
In3 La7 3.394346 1_555
In3 La9 3.476112 1_556
In3 La9 3.476112 1_555
In3 La6 3.655835 1_546
In3 La6 3.655835 1_545
In4 Ni0 2.992495 1_555
In4 In6 3.096435 1_555
In4 La3 3.307366 1_556
In4 La3 3.307366 1_555
In4 La2 3.374509 1_556
In4 La2 3.374509 1_555
In4 La0 3.467237 1_555
In4 La0 3.467237 1_556
In4 La7 3.655706 1_456
In4 La7 3.655706 1_455
In5 Ni1 2.992495 1_555
In5 In7 3.096435 1_555
In5 La4 3.307366 1_556
In5 La4 3.307366 1_555
In5 La2 3.374509 1_665
In5 La2 3.374509 1_666
In5 La1 3.467237 1_555
In5 La1 3.467237 1_556
In5 La8 3.655706 1_655
In5 La8 3.655706 1_656
In6 Ni2 2.992495 1_555
In6 La5 3.307366 1_555
In6 La5 3.307366 1_556
In6 La2 3.374509 1_556
In6 La2 3.374509 1_555
In6 La0 3.467237 1_556
In6 La0 3.467237 1_555
In6 La8 3.655706 1_546
In6 La8 3.655706 1_545
In7 Ni3 2.992495 1_555
In7 La6 3.307366 1_556
In7 La6 3.307366 1_555
In7 La2 3.374509 1_665
In7 La2 3.374509 1_666
In7 La1 3.467237 1_555
In7 La1 3.467237 1_556
In7 La7 3.655706 1_565
In7 La7 3.655706 1_566
In8 Ni3 3.297160 1_555
In8 Ni0 3.297160 1_555
In8 Ni1 3.297160 1_555
In8 Ni2 3.297160 1_555
In8 La1 3.406089 1_555
In8 La1 3.406089 1_556
In8 La0 3.406089 1_556
In8 La0 3.406089 1_555
In8 La10 3.407972 1_556
In8 La9 3.407972 1_556
In8 La9 3.407972 1_555
In8 La10 3.407972 1_555
