# generated using pymatgen
data_Na2LiAlP2
_symmetry_space_group_name_H-M   'P 1'
_cell_length_a   8.95947350
_cell_length_b   8.95947350
_cell_length_c   5.80139200
_cell_angle_alpha   90.00000000
_cell_angle_beta   90.00000000
_cell_angle_gamma   99.28255677
_symmetry_Int_Tables_number   1
_chemical_formula_structural   Na2LiAlP2
_chemical_formula_sum   'Na8 Li4 Al4 P8'
_cell_volume   459.59202345
_cell_formula_units_Z   4
loop_
 _symmetry_equiv_pos_site_id
 _symmetry_equiv_pos_as_xyz
  1  'x, y, z'
loop_
 _atom_site_type_symbol
 _atom_site_label
 _atom_site_symmetry_multiplicity
 _atom_site_fract_x
 _atom_site_fract_y
 _atom_site_fract_z
 _atom_site_occupancy
  Na  Na0  1  0.56848900  0.93151100  0.25000000  1
  Na  Na1  1  0.67823000  0.32177000  0.21399600  1
  Na  Na2  1  0.32177000  0.67823000  0.78600400  1
  Na  Na3  1  0.06848900  0.43151100  0.25000000  1
  Na  Na4  1  0.93151100  0.56848900  0.75000000  1
  Na  Na5  1  0.43151100  0.06848900  0.75000000  1
  Na  Na6  1  0.82177000  0.17823000  0.71399600  1
  Na  Na7  1  0.17823000  0.82177000  0.28600400  1
  Li  Li0  1  0.88131000  0.88131000  0.50000000  1
  Li  Li1  1  0.11869000  0.11869000  0.50000000  1
  Li  Li2  1  0.61869000  0.61869000  0.00000000  1
  Li  Li3  1  0.38131000  0.38131000  0.00000000  1
  Al  Al0  1  0.87033500  0.87033500  0.00000000  1
  Al  Al1  1  0.12966500  0.12966500  0.00000000  1
  Al  Al2  1  0.37033500  0.37033500  0.50000000  1
  Al  Al3  1  0.62966500  0.62966500  0.50000000  1
  P  P0  1  0.10417900  0.89582100  0.78636600  1
  P  P1  1  0.60417900  0.39582100  0.71363400  1
  P  P2  1  0.89582100  0.10417900  0.21363400  1
  P  P3  1  0.39582100  0.60417900  0.28636600  1
  P  P4  1  0.35138500  0.14861500  0.25000000  1
  P  P5  1  0.14861500  0.35138500  0.75000000  1
  P  P6  1  0.64861500  0.85138500  0.75000000  1
  P  P7  1  0.85138500  0.64861500  0.25000000  1
loop_
_geom_bond_atom_site_label_1
_geom_bond_atom_site_label_2
_geom_bond_distance
_geom_bond_site_symmetry_2
Na0 P4 2.964409 1_565
Na0 P3 3.094345 1_555
Na0 P2 3.094345 1_565
Na0 P6 3.100164 1_555
Na0 P6 3.100164 1_554
Na1 P2 2.971060 1_555
Na1 P1 3.069888 1_555
Na1 P1 3.073855 1_554
Na1 P4 3.091939 1_555
Na1 P7 3.091939 1_555
Na2 P0 2.971060 1_555
Na2 P3 3.069888 1_555
Na2 P3 3.073855 1_556
Na2 P5 3.091939 1_555
Na2 P6 3.091939 1_555
Na3 P7 2.964409 1_455
Na3 P2 3.094345 1_455
Na3 P3 3.094345 1_555
Na3 P5 3.100164 1_554
Na3 P5 3.100164 1_555
Na4 P5 2.964409 1_655
Na4 P0 3.094345 1_655
Na4 P1 3.094345 1_555
Na4 P7 3.100164 1_556
Na4 P7 3.100164 1_555
Na5 P6 2.964409 1_545
Na5 P0 3.094345 1_545
Na5 P1 3.094345 1_555
Na5 P4 3.100164 1_555
Na5 P4 3.100164 1_556
Na6 P1 2.971060 1_555
Na6 P2 3.069888 1_556
Na6 P2 3.073855 1_555
Na6 P5 3.091939 1_655
Na6 P6 3.091939 1_545
Na7 P3 2.971060 1_555
Na7 P0 3.069888 1_554
Na7 P0 3.073855 1_555
Na7 P4 3.091939 1_565
Na7 P7 3.091939 1_455
Li0 P6 2.518246 1_555
Li0 P7 2.518246 1_555
Li0 P2 2.584629 1_565
Li0 P0 2.584629 1_655
Li1 P4 2.518246 1_555
Li1 P5 2.518246 1_555
Li1 P2 2.584629 1_455
Li1 P0 2.584629 1_545
Li2 P6 2.518246 1_554
Li2 P7 2.518246 1_555
Li2 P3 2.584629 1_555
Li2 P1 2.584629 1_554
Li3 P4 2.518246 1_555
Li3 P5 2.518246 1_554
Li3 P3 2.584629 1_555
Li3 P1 2.584629 1_554
Al0 P2 2.413168 1_565
Al0 P0 2.413168 1_654
Al0 P7 2.443295 1_555
Al0 P6 2.443295 1_554
Al1 P0 2.413168 1_544
Al1 P2 2.413168 1_455
Al1 P4 2.443295 1_555
Al1 P5 2.443295 1_554
Al2 P1 2.413168 1_555
Al2 P3 2.413168 1_555
Al2 P4 2.443295 1_555
Al2 P5 2.443295 1_555
Al3 P1 2.413168 1_555
Al3 P3 2.413168 1_555
Al3 P6 2.443295 1_555
Al3 P7 2.443295 1_555
