# generated using pymatgen
data_As4Pd5Pb
_symmetry_space_group_name_H-M   'P 1'
_cell_length_a   6.87209221
_cell_length_b   6.87209221
_cell_length_c   9.73982436
_cell_angle_alpha   74.58495837
_cell_angle_beta   74.58495837
_cell_angle_gamma   59.46138801
_symmetry_Int_Tables_number   1
_chemical_formula_structural   As4Pd5Pb
_chemical_formula_sum   'As8 Pd10 Pb2'
_cell_volume   377.14920402
_cell_formula_units_Z   2
loop_
 _symmetry_equiv_pos_site_id
 _symmetry_equiv_pos_as_xyz
  1  'x, y, z'
loop_
 _atom_site_type_symbol
 _atom_site_label
 _atom_site_symmetry_multiplicity
 _atom_site_fract_x
 _atom_site_fract_y
 _atom_site_fract_z
 _atom_site_occupancy
  As  As0  1  0.21266700  0.56682000  0.93995600  1
  As  As1  1  0.38432100  0.03406800  0.85987700  1
  As  As2  1  0.85821700  0.16274900  0.75741200  1
  As  As3  1  0.44417800  0.73921100  0.54717300  1
  As  As4  1  0.56682000  0.21266700  0.43995600  1
  As  As5  1  0.03406800  0.38432100  0.35987700  1
  As  As6  1  0.16274900  0.85821700  0.25741200  1
  As  As7  1  0.73921100  0.44417800  0.04717300  1
  Pd  Pd0  1  0.04560300  0.96660300  0.00142100  1
  Pd  Pd1  1  0.79982200  0.80264200  0.89731900  1
  Pd  Pd2  1  0.56328600  0.61799200  0.80434400  1
  Pd  Pd3  1  0.24602700  0.13046600  0.61793400  1
  Pd  Pd4  1  0.47551600  0.34507300  0.67823200  1
  Pd  Pd5  1  0.80264200  0.79982200  0.39731900  1
  Pd  Pd6  1  0.96660300  0.04560300  0.50142100  1
  Pd  Pd7  1  0.34507300  0.47551600  0.17823200  1
  Pd  Pd8  1  0.61799200  0.56328600  0.30434400  1
  Pd  Pd9  1  0.13046600  0.24602700  0.11793400  1
  Pb  Pb0  1  0.98834100  0.61108900  0.65154000  1
  Pb  Pb1  1  0.61108900  0.98834100  0.15154000  1
loop_
_geom_bond_atom_site_label_1
_geom_bond_atom_site_label_2
_geom_bond_distance
_geom_bond_site_symmetry_2
As0 Pd7 2.525049 1_556
As0 Pd1 2.538518 1_455
As0 Pd0 2.554991 1_556
As0 Pd2 2.568297 1_555
As0 Pd9 2.626278 1_556
As0 Pd4 2.983797 1_555
As1 Pd1 2.538854 1_545
As1 Pd0 2.566061 1_546
As1 Pd3 2.572147 1_555
As1 Pd4 2.617675 1_555
As1 Pd2 2.622147 1_545
As1 Pd9 2.918102 1_556
As2 Pd4 2.509411 1_555
As2 Pd3 2.575259 1_655
As2 Pd6 2.624859 1_555
As2 Pd1 2.658529 1_545
As2 Pd0 2.698779 1_646
As2 Pd2 2.815700 1_555
As3 Pd3 2.514767 1_565
As3 Pd4 2.593721 1_555
As3 Pd2 2.631672 1_555
As3 Pd8 2.651949 1_555
As3 Pd5 2.679596 1_555
As3 Pd6 2.942657 1_465
As4 Pd4 2.525049 1_555
As4 Pd5 2.538518 1_545
As4 Pd6 2.554991 1_555
As4 Pd8 2.568297 1_555
As4 Pd3 2.626278 1_555
As4 Pd7 2.983797 1_555
As5 Pd5 2.538854 1_455
As5 Pd6 2.566061 1_455
As5 Pd9 2.572147 1_555
As5 Pd7 2.617675 1_555
As5 Pd8 2.622147 1_455
As5 Pd3 2.918102 1_555
As6 Pd7 2.509411 1_555
As6 Pd9 2.575259 1_565
As6 Pd0 2.624859 1_555
As6 Pd5 2.658529 1_455
As6 Pd6 2.698779 1_465
As6 Pd8 2.815700 1_555
As7 Pd9 2.514767 1_655
As7 Pd7 2.593721 1_555
As7 Pd8 2.631672 1_555
As7 Pd2 2.651949 1_554
As7 Pd1 2.679596 1_554
As7 Pd0 2.942657 1_645
Pd0 Pd9 2.821968 1_565
Pd0 Pd7 3.213503 1_555
Pd1 Pd2 2.926093 1_555
Pd2 Pd4 2.856277 1_555
Pd3 Pd6 2.821968 1_455
Pd3 Pd4 2.885058 1_555
Pd4 Pd6 3.213503 1_555
Pd5 Pd8 2.926093 1_555
Pd7 Pd8 2.856277 1_555
Pd7 Pd9 2.885058 1_555
Pb0 Pd1 2.726747 1_555
Pb0 Pd5 2.780678 1_555
Pb0 Pd2 2.887073 1_555
Pb0 Pd6 2.901422 1_565
Pb0 Pd3 2.911150 1_655
Pb0 Pd4 2.934007 1_655
Pb1 Pd5 2.726747 1_555
Pb1 Pd1 2.780678 1_554
Pb1 Pd8 2.887073 1_555
Pb1 Pd0 2.901422 1_655
Pb1 Pd9 2.911150 1_565
Pb1 Pd7 2.934007 1_565
