# generated using pymatgen
data_MgZn
_symmetry_space_group_name_H-M   'P 1'
_cell_length_a   3.12748688
_cell_length_b   4.83965900
_cell_length_c   4.57911012
_cell_angle_alpha   90.00000000
_cell_angle_beta   90.00000000
_cell_angle_gamma   90.00000000
_symmetry_Int_Tables_number   1
_chemical_formula_structural   MgZn
_chemical_formula_sum   'Mg2 Zn2'
_cell_volume   69.30927352
_cell_formula_units_Z   2
loop_
 _symmetry_equiv_pos_site_id
 _symmetry_equiv_pos_as_xyz
  1  'x, y, z'
loop_
 _atom_site_type_symbol
 _atom_site_label
 _atom_site_symmetry_multiplicity
 _atom_site_fract_x
 _atom_site_fract_y
 _atom_site_fract_z
 _atom_site_occupancy
  Mg  Mg0  1  0.49999800  0.53000553  -0.00000000  1
  Mg  Mg1  1  0.49999800  0.13666247  0.49999800  1
  Zn  Zn0  1  0.00000000  0.01153358  -0.00000000  1
  Zn  Zn1  1  0.00000000  0.65513242  0.49999800  1
loop_
_geom_bond_atom_site_label_1
_geom_bond_atom_site_label_2
_geom_bond_distance
_geom_bond_site_symmetry_2
Mg0 Zn0 2.806454 1_565
Mg0 Zn0 2.806461 1_665
Mg0 Zn1 2.837959 1_555
Mg0 Zn1 2.837966 1_655
Mg0 Zn1 2.837974 1_554
Mg0 Zn1 2.837981 1_654
Mg0 Zn0 2.956602 1_555
Mg0 Zn0 2.956609 1_655
Mg1 Zn1 2.806462 1_545
Mg1 Zn1 2.806469 1_645
Mg1 Zn0 2.837961 1_555
Mg1 Zn0 2.837968 1_655
Mg1 Zn0 2.837976 1_556
Mg1 Zn0 2.837983 1_656
Mg1 Zn1 2.956594 1_555
Mg1 Zn1 2.956601 1_655
