# generated using pymatgen
data_ErZnAsO
_symmetry_space_group_name_H-M   'P 1'
_cell_length_a   3.93513000
_cell_length_b   3.93513000
_cell_length_c   8.87645300
_cell_angle_alpha   90.00000000
_cell_angle_beta   90.00000000
_cell_angle_gamma   90.00000000
_symmetry_Int_Tables_number   1
_chemical_formula_structural   ErZnAsO
_chemical_formula_sum   'Er2 Zn2 As2 O2'
_cell_volume   137.45407710
_cell_formula_units_Z   2
loop_
 _symmetry_equiv_pos_site_id
 _symmetry_equiv_pos_as_xyz
  1  'x, y, z'
loop_
 _atom_site_type_symbol
 _atom_site_label
 _atom_site_symmetry_multiplicity
 _atom_site_fract_x
 _atom_site_fract_y
 _atom_site_fract_z
 _atom_site_occupancy
  Er  Er0  1  0.50000000  0.00000000  0.12054900  1
  Er  Er1  1  0.00000000  0.50000000  0.87945100  1
  Zn  Zn0  1  0.00000000  0.00000000  0.50000000  1
  Zn  Zn1  1  0.50000000  0.50000000  0.50000000  1
  As  As0  1  0.00000000  0.50000000  0.31442400  1
  As  As1  1  0.50000000  0.00000000  0.68557600  1
  O  O0  1  0.00000000  0.00000000  0.00000000  1
  O  O1  1  0.50000000  0.50000000  0.00000000  1
loop_
_geom_bond_atom_site_label_1
_geom_bond_atom_site_label_2
_geom_bond_distance
_geom_bond_site_symmetry_2
Er0 O1 2.239713 1_545
Er0 O0 2.239713 1_655
Er0 O1 2.239713 1_555
Er0 O0 2.239713 1_555
Er1 O0 2.239713 1_556
Er1 O0 2.239713 1_566
Er1 O1 2.239713 1_456
Er1 O1 2.239713 1_556
As0 Zn0 2.566080 1_565
As0 Zn0 2.566080 1_555
As0 Zn1 2.566080 1_555
As0 Zn1 2.566080 1_455
As0 Er0 3.271727 1_465
As0 Er0 3.271727 1_555
As0 Er0 3.271727 1_455
As0 Er0 3.271727 1_565
As1 Zn0 2.566080 1_555
As1 Zn1 2.566080 1_555
As1 Zn1 2.566080 1_545
As1 Zn0 2.566080 1_655
As1 Er1 3.271727 1_645
As1 Er1 3.271727 1_555
As1 Er1 3.271727 1_545
As1 Er1 3.271727 1_655
