# generated using pymatgen
data_Ca(La2Se3)4
_symmetry_space_group_name_H-M   'P 1'
_cell_length_a   9.10352600
_cell_length_b   9.10352622
_cell_length_c   15.05580569
_cell_angle_alpha   107.54148426
_cell_angle_beta   107.54148694
_cell_angle_gamma   89.98746904
_symmetry_Int_Tables_number   1
_chemical_formula_structural   Ca(La2Se3)4
_chemical_formula_sum   'Ca2 La16 Se24'
_cell_volume   1128.74425359
_cell_formula_units_Z   2
loop_
 _symmetry_equiv_pos_site_id
 _symmetry_equiv_pos_as_xyz
  1  'x, y, z'
loop_
 _atom_site_type_symbol
 _atom_site_label
 _atom_site_symmetry_multiplicity
 _atom_site_fract_x
 _atom_site_fract_y
 _atom_site_fract_z
 _atom_site_occupancy
  Ca  Ca0  1  0.45071900  0.57995400  0.16636700  1
  Ca  Ca1  1  0.57995400  0.45071900  0.66636700  1
  La  La0  1  0.74464000  0.37759600  0.00139700  1
  La  La1  1  0.03927300  0.78997000  0.08326300  1
  La  La2  1  0.41321600  0.04437600  0.33427100  1
  La  La3  1  0.11919000  0.37741200  0.25116900  1
  La  La4  1  0.70412500  0.08380900  0.16610600  1
  La  La5  1  0.91035200  0.79310500  0.33366200  1
  La  La6  1  0.70129200  0.46050200  0.41546600  1
  La  La7  1  0.12268700  0.25111100  0.50007000  1
  La  La8  1  0.08380900  0.70412500  0.66610600  1
  La  La9  1  0.78997000  0.03927300  0.58326300  1
  La  La10  1  0.37759600  0.74464000  0.50139700  1
  La  La11  1  0.36944700  0.12673300  0.74836600  1
  La  La12  1  0.79310500  0.91035200  0.83366200  1
  La  La13  1  0.45387100  0.70835400  0.91887800  1
  La  La14  1  0.25111100  0.12268700  0.00007000  1
  La  La15  1  0.04437600  0.41321600  0.83427100  1
  Se  Se0  1  0.94864500  0.10030700  0.05121700  1
  Se  Se1  1  0.73259000  0.73490000  0.11848500  1
  Se  Se2  1  0.09196700  0.44879000  0.05060900  1
  Se  Se3  1  0.21040500  0.71867200  0.28472700  1
  Se  Se4  1  0.06224300  0.06695500  0.28241200  1
  Se  Se5  1  0.38138300  0.88056300  0.11847300  1
  Se  Se6  1  0.77654900  0.43251800  0.21676600  1
  Se  Se7  1  0.60803900  0.76652900  0.38152100  1
  Se  Se8  1  0.42698100  0.28462400  0.21744300  1
  Se  Se9  1  0.39606200  0.40032900  0.45256200  1
  Se  Se10  1  0.76223100  0.11952400  0.38383400  1
  Se  Se11  1  0.88056300  0.38138300  0.61847300  1
  Se  Se12  1  0.73490000  0.73259000  0.61848500  1
  Se  Se13  1  0.04333700  0.55048000  0.44936500  1
  Se  Se14  1  0.44879000  0.09196700  0.55060900  1
  Se  Se15  1  0.28462400  0.42698100  0.71744300  1
  Se  Se16  1  0.10030700  0.94864500  0.55121700  1
  Se  Se17  1  0.06695500  0.06224300  0.78241200  1
  Se  Se18  1  0.43251800  0.77654900  0.71676600  1
  Se  Se19  1  0.55048000  0.04333700  0.94936500  1
  Se  Se20  1  0.40032900  0.39606200  0.95256200  1
  Se  Se21  1  0.71867200  0.21040500  0.78472700  1
  Se  Se22  1  0.11952400  0.76223100  0.88383400  1
  Se  Se23  1  0.76652900  0.60803900  0.88152100  1
loop_
_geom_bond_atom_site_label_1
_geom_bond_atom_site_label_2
_geom_bond_distance
_geom_bond_site_symmetry_2
Ca0 Se8 3.035291 1_555
Ca0 Se20 3.039212 1_554
Ca0 Se7 3.052405 1_555
Ca0 Se5 3.053154 1_555
Ca0 Se6 3.229711 1_555
Ca0 Se2 3.231966 1_555
Ca0 Se3 3.247860 1_555
Ca0 Se1 3.289900 1_555
Ca1 Se15 3.035291 1_555
Ca1 Se9 3.039212 1_555
Ca1 Se23 3.052405 1_555
Ca1 Se11 3.053154 1_555
Ca1 Se18 3.229711 1_555
Ca1 Se14 3.231966 1_555
Ca1 Se21 3.247860 1_555
Ca1 Se12 3.289900 1_555
La0 Se20 3.013083 1_554
La0 Se2 3.043992 1_655
La0 Se6 3.050171 1_555
La0 Se21 3.091345 1_554
La0 Se23 3.193331 1_554
La0 Se1 3.218675 1_555
La0 Se0 3.268548 1_555
La0 Se19 3.275379 1_554
La1 Se2 3.056099 1_555
La1 Se1 3.062769 1_455
La1 Se5 3.066446 1_555
La1 Se0 3.078261 1_465
La1 Se3 3.222811 1_555
La1 Se4 3.233712 1_565
La1 Se22 3.236979 1_554
La1 Se23 3.249169 1_454
La2 Se5 3.062020 1_545
La2 Se10 3.063320 1_555
La2 Se14 3.068413 1_555
La2 Se4 3.074601 1_555
La2 Se8 3.216351 1_555
La2 Se7 3.220495 1_545
La2 Se9 3.222616 1_555
La2 Se3 3.255117 1_545
La3 Se3 3.065659 1_555
La3 Se8 3.069285 1_555
La3 Se4 3.070300 1_555
La3 Se6 3.071100 1_455
La3 Se13 3.204845 1_555
La3 Se2 3.214525 1_555
La3 Se0 3.231632 1_455
La3 Se9 3.256132 1_555
La4 Se19 3.043823 1_554
La4 Se6 3.054840 1_555
La4 Se1 3.067405 1_545
La4 Se10 3.073050 1_555
La4 Se4 3.230921 1_655
La4 Se0 3.232239 1_555
La4 Se5 3.240761 1_545
La4 Se8 3.259852 1_555
La5 Se1 3.033209 1_555
La5 Se3 3.061802 1_655
La5 Se7 3.074510 1_555
La5 Se16 3.084644 1_655
La5 Se13 3.228879 1_655
La5 Se10 3.237006 1_565
La5 Se4 3.244474 1_665
La5 Se6 3.253265 1_555
La6 Se7 3.055969 1_555
La6 Se13 3.068946 1_655
La6 Se10 3.072036 1_555
La6 Se9 3.074667 1_555
La6 Se6 3.203100 1_555
La6 Se8 3.213206 1_555
La6 Se12 3.231816 1_555
La6 Se11 3.292976 1_555
La7 Se15 3.062940 1_555
La7 Se13 3.074537 1_555
La7 Se4 3.074734 1_555
La7 Se16 3.096653 1_545
La7 Se9 3.195401 1_555
La7 Se11 3.245881 1_455
La7 Se10 3.246807 1_455
La7 Se14 3.285118 1_555
La8 Se13 3.043823 1_555
La8 Se18 3.054840 1_555
La8 Se12 3.067405 1_455
La8 Se22 3.073050 1_555
La8 Se17 3.230921 1_565
La8 Se16 3.232239 1_555
La8 Se11 3.240761 1_455
La8 Se15 3.259852 1_555
La9 Se14 3.056099 1_555
La9 Se12 3.062769 1_545
La9 Se11 3.066446 1_555
La9 Se16 3.078260 1_645
La9 Se21 3.222811 1_555
La9 Se17 3.233712 1_655
La9 Se10 3.236979 1_555
La9 Se7 3.249169 1_545
La10 Se9 3.013083 1_555
La10 Se14 3.043992 1_565
La10 Se18 3.050171 1_555
La10 Se3 3.091345 1_555
La10 Se7 3.193331 1_555
La10 Se12 3.218675 1_555
La10 Se16 3.268548 1_555
La10 Se13 3.275379 1_555
La11 Se15 2.972120 1_555
La11 Se17 3.037021 1_555
La11 Se21 3.112501 1_555
La11 Se18 3.157277 1_545
La11 Se16 3.187329 1_545
La11 Se14 3.196086 1_555
La11 Se20 3.236927 1_555
La11 Se19 3.290648 1_555
La12 Se12 3.033209 1_555
La12 Se21 3.061802 1_565
La12 Se23 3.074510 1_555
La12 Se0 3.084644 1_566
La12 Se19 3.228879 1_565
La12 Se22 3.237006 1_655
La12 Se17 3.244474 1_665
La12 Se18 3.253265 1_555
La13 Se22 2.995091 1_555
La13 Se19 3.032798 1_565
La13 Se20 3.097723 1_555
La13 Se23 3.147367 1_555
La13 Se5 3.206040 1_556
La13 Se18 3.234954 1_555
La13 Se1 3.239435 1_556
La13 Se15 3.261150 1_555
La14 Se8 3.062940 1_555
La14 Se19 3.074537 1_554
La14 Se17 3.074734 1_554
La14 Se0 3.096653 1_455
La14 Se20 3.195401 1_554
La14 Se5 3.245881 1_545
La14 Se22 3.246807 1_544
La14 Se2 3.285118 1_555
La15 Se11 3.062020 1_455
La15 Se22 3.063320 1_555
La15 Se2 3.068413 1_556
La15 Se17 3.074601 1_555
La15 Se15 3.216351 1_555
La15 Se23 3.220495 1_455
La15 Se20 3.222616 1_555
La15 Se21 3.255117 1_455
