# generated using pymatgen
data_Rh3Br
_symmetry_space_group_name_H-M   'P 1'
_cell_length_a   4.60396871
_cell_length_b   4.60396871
_cell_length_c   4.60396871
_cell_angle_alpha   126.02391385
_cell_angle_beta   126.02391385
_cell_angle_gamma   79.84883996
_symmetry_Int_Tables_number   1
_chemical_formula_structural   Rh3Br
_chemical_formula_sum   'Rh3 Br1'
_cell_volume   61.64939262
_cell_formula_units_Z   1
loop_
 _symmetry_equiv_pos_site_id
 _symmetry_equiv_pos_as_xyz
  1  'x, y, z'
loop_
 _atom_site_type_symbol
 _atom_site_label
 _atom_site_symmetry_multiplicity
 _atom_site_fract_x
 _atom_site_fract_y
 _atom_site_fract_z
 _atom_site_occupancy
  Rh  Rh0  1  0.75000000  0.25000000  0.50000000  1
  Rh  Rh1  1  0.25000000  0.75000000  0.50000000  1
  Rh  Rh2  1  0.50000000  0.50000000  -0.00000000  1
  Br  Br0  1  -0.00000000  -0.00000000  -0.00000000  1
loop_
_geom_bond_atom_site_label_1
_geom_bond_atom_site_label_2
_geom_bond_distance
_geom_bond_site_symmetry_2
Rh0 Rh2 2.735274 1_656
Rh0 Rh2 2.735274 1_556
Rh0 Rh2 2.735274 1_545
Rh0 Rh2 2.735274 1_555
Rh1 Rh2 2.735274 1_455
Rh1 Rh2 2.735274 1_555
Rh1 Rh2 2.735274 1_566
Rh1 Rh2 2.735274 1_556
Br0 Rh0 2.735274 1_555
Br0 Rh1 2.735274 1_444
Br0 Rh0 2.735274 1_444
Br0 Rh0 2.735274 1_454
Br0 Rh1 2.735274 1_544
Br0 Rh1 2.735274 1_545
Br0 Rh1 2.735274 1_555
Br0 Rh0 2.735274 1_455
Br0 Rh2 2.954719 1_455
Br0 Rh2 2.954719 1_545
Br0 Rh2 2.954719 1_556
Br0 Rh2 2.954719 1_444
