# generated using pymatgen
data_Hg3As
_symmetry_space_group_name_H-M   'P 1'
_cell_length_a   6.12245340
_cell_length_b   6.12245340
_cell_length_c   5.98354500
_cell_angle_alpha   90.00000000
_cell_angle_beta   90.00000000
_cell_angle_gamma   119.99999347
_symmetry_Int_Tables_number   1
_chemical_formula_structural   Hg3As
_chemical_formula_sum   'Hg6 As2'
_cell_volume   194.24068356
_cell_formula_units_Z   2
loop_
 _symmetry_equiv_pos_site_id
 _symmetry_equiv_pos_as_xyz
  1  'x, y, z'
loop_
 _atom_site_type_symbol
 _atom_site_label
 _atom_site_symmetry_multiplicity
 _atom_site_fract_x
 _atom_site_fract_y
 _atom_site_fract_z
 _atom_site_occupancy
  Hg  Hg0  1  0.16686500  0.33372900  0.25000000  1
  Hg  Hg1  1  0.66627100  0.83313500  0.25000000  1
  Hg  Hg2  1  0.16686500  0.83313500  0.25000000  1
  Hg  Hg3  1  0.83313500  0.66627100  0.75000000  1
  Hg  Hg4  1  0.33372900  0.16686500  0.75000000  1
  Hg  Hg5  1  0.83313500  0.16686500  0.75000000  1
  As  As0  1  0.33333300  0.66666700  0.75000000  1
  As  As1  1  0.66666700  0.33333300  0.25000000  1
loop_
_geom_bond_atom_site_label_1
_geom_bond_atom_site_label_2
_geom_bond_distance
_geom_bond_site_symmetry_2
Hg0 Hg2 3.057590 1_555
Hg0 Hg1 3.057590 1_555
Hg0 Hg2 3.064863 1_545
Hg0 Hg1 3.064864 1_445
Hg1 Hg2 3.057590 1_555
Hg1 Hg2 3.064863 1_655
Hg3 Hg5 3.057590 1_555
Hg3 Hg4 3.057590 1_555
Hg3 Hg5 3.064863 1_565
Hg3 Hg4 3.064864 1_665
Hg4 Hg5 3.057590 1_555
Hg4 Hg5 3.064863 1_455
As0 Hg3 3.061227 1_555
As0 Hg4 3.061227 1_555
As0 Hg4 3.061227 1_565
As0 Hg3 3.061227 1_455
As0 Hg5 3.061228 1_565
As0 Hg5 3.061228 1_455
As1 Hg0 3.061227 1_555
As1 Hg1 3.061227 1_555
As1 Hg1 3.061227 1_545
As1 Hg0 3.061227 1_655
As1 Hg2 3.061228 1_545
As1 Hg2 3.061228 1_655
