# generated using pymatgen
data_LiMgPO4
_symmetry_space_group_name_H-M   'P 1'
_cell_length_a   4.73930200
_cell_length_b   5.97221000
_cell_length_c   10.25467500
_cell_angle_alpha   90.00000000
_cell_angle_beta   90.00000000
_cell_angle_gamma   90.00000000
_symmetry_Int_Tables_number   1
_chemical_formula_structural   LiMgPO4
_chemical_formula_sum   'Li4 Mg4 P4 O16'
_cell_volume   290.24941637
_cell_formula_units_Z   4
loop_
 _symmetry_equiv_pos_site_id
 _symmetry_equiv_pos_as_xyz
  1  'x, y, z'
loop_
 _atom_site_type_symbol
 _atom_site_label
 _atom_site_symmetry_multiplicity
 _atom_site_fract_x
 _atom_site_fract_y
 _atom_site_fract_z
 _atom_site_occupancy
  Li  Li0  1  0.00000000  0.00000000  0.00000000  1
  Li  Li1  1  0.50000000  0.00000000  0.50000000  1
  Li  Li2  1  0.00000000  0.50000000  0.00000000  1
  Li  Li3  1  0.50000000  0.50000000  0.50000000  1
  Mg  Mg0  1  0.01737000  0.75000000  0.27810700  1
  Mg  Mg1  1  0.98263000  0.25000000  0.72189300  1
  Mg  Mg2  1  0.48263000  0.75000000  0.77810700  1
  Mg  Mg3  1  0.51737000  0.25000000  0.22189300  1
  P  P0  1  0.08237700  0.25000000  0.40494700  1
  P  P1  1  0.41762300  0.25000000  0.90494700  1
  P  P2  1  0.91762300  0.75000000  0.59505300  1
  P  P3  1  0.58237700  0.75000000  0.09505300  1
  O  O0  1  0.78036500  0.54426600  0.66624000  1
  O  O1  1  0.21963500  0.45573400  0.33376000  1
  O  O2  1  0.71963500  0.54426600  0.16624000  1
  O  O3  1  0.78036500  0.95573400  0.66624000  1
  O  O4  1  0.28036500  0.04426600  0.83376000  1
  O  O5  1  0.74176800  0.25000000  0.89840000  1
  O  O6  1  0.28036500  0.45573400  0.83376000  1
  O  O7  1  0.21963500  0.04426600  0.33376000  1
  O  O8  1  0.25823200  0.75000000  0.10160000  1
  O  O9  1  0.75823200  0.25000000  0.39840000  1
  O  O10  1  0.80148000  0.75000000  0.45343500  1
  O  O11  1  0.24176800  0.75000000  0.60160000  1
  O  O12  1  0.69852000  0.75000000  0.95343500  1
  O  O13  1  0.30148000  0.25000000  0.04656500  1
  O  O14  1  0.19852000  0.25000000  0.54656500  1
  O  O15  1  0.71963500  0.95573400  0.16624000  1
loop_
_geom_bond_atom_site_label_1
_geom_bond_atom_site_label_2
_geom_bond_distance
_geom_bond_site_symmetry_2
Li0 O12 2.121015 1_444
Li0 O13 2.121015 1_555
Li0 O15 2.177511 1_445
Li0 O4 2.177511 1_554
Li0 O8 2.193739 1_545
Li0 O5 2.193739 1_454
Li1 O14 2.121015 1_555
Li1 O10 2.121015 1_545
Li1 O7 2.177511 1_555
Li1 O3 2.177511 1_545
Li1 O9 2.193739 1_555
Li1 O11 2.193739 1_545
Li2 O12 2.121015 1_454
Li2 O13 2.121015 1_555
Li2 O2 2.177511 1_455
Li2 O6 2.177511 1_554
Li2 O8 2.193739 1_555
Li2 O5 2.193739 1_454
Li3 O14 2.121015 1_555
Li3 O10 2.121015 1_555
Li3 O1 2.177511 1_555
Li3 O0 2.177511 1_555
Li3 O11 2.193739 1_555
Li3 O9 2.193739 1_555
Mg0 O10 2.068679 1_455
Mg0 O7 2.081616 1_565
Mg0 O1 2.081616 1_555
Mg0 O8 2.139916 1_555
Mg0 O2 2.194704 1_455
Mg0 O15 2.194704 1_455
Mg1 O14 2.068679 1_655
Mg1 O0 2.081616 1_555
Mg1 O3 2.081616 1_545
Mg1 O5 2.139916 1_555
Mg1 O6 2.194704 1_655
Mg1 O4 2.194704 1_655
Mg2 O12 2.068679 1_555
Mg2 O4 2.081616 1_565
Mg2 O6 2.081616 1_555
Mg2 O11 2.139916 1_555
Mg2 O0 2.194704 1_555
Mg2 O3 2.194704 1_555
Mg3 O13 2.068679 1_555
Mg3 O2 2.081616 1_555
Mg3 O15 2.081616 1_545
Mg3 O9 2.139916 1_555
Mg3 O1 2.194704 1_555
Mg3 O7 2.194704 1_555
O0 P2 1.570264 1_555
O1 P0 1.570264 1_555
O2 P3 1.570264 1_555
O3 P2 1.570264 1_555
O4 P1 1.570264 1_555
O5 P1 1.537687 1_555
O6 P1 1.570264 1_555
O7 P0 1.570264 1_555
O8 P3 1.537687 1_555
O9 P0 1.537687 1_655
O10 P2 1.553062 1_555
O11 P2 1.537687 1_455
O12 P3 1.553062 1_556
O13 P1 1.553062 1_554
O14 P0 1.553062 1_555
O15 P3 1.570264 1_555
