# generated using pymatgen
data_K3Nd
_symmetry_space_group_name_H-M   'P 1'
_cell_length_a   8.66188126
_cell_length_b   8.66188126
_cell_length_c   7.17415400
_cell_angle_alpha   90.00000000
_cell_angle_beta   90.00000000
_cell_angle_gamma   119.99999433
_symmetry_Int_Tables_number   1
_chemical_formula_structural   K3Nd
_chemical_formula_sum   'K6 Nd2'
_cell_volume   466.15012310
_cell_formula_units_Z   2
loop_
 _symmetry_equiv_pos_site_id
 _symmetry_equiv_pos_as_xyz
  1  'x, y, z'
loop_
 _atom_site_type_symbol
 _atom_site_label
 _atom_site_symmetry_multiplicity
 _atom_site_fract_x
 _atom_site_fract_y
 _atom_site_fract_z
 _atom_site_occupancy
  K  K0  1  0.82899000  0.17101000  0.75000000  1
  K  K1  1  0.34201900  0.17101000  0.75000000  1
  K  K2  1  0.82899000  0.65798100  0.75000000  1
  K  K3  1  0.17101000  0.82899000  0.25000000  1
  K  K4  1  0.65798100  0.82899000  0.25000000  1
  K  K5  1  0.17101000  0.34201900  0.25000000  1
  Nd  Nd0  1  0.66666700  0.33333300  0.25000000  1
  Nd  Nd1  1  0.33333300  0.66666700  0.75000000  1
loop_
_geom_bond_atom_site_label_1
_geom_bond_atom_site_label_2
_geom_bond_distance
_geom_bond_site_symmetry_2
K0 K1 4.218085 1_555
K0 K2 4.218085 1_555
K0 Nd1 4.331431 1_545
K0 Nd1 4.331431 1_655
K0 Nd0 4.335645 1_555
K0 Nd0 4.335645 1_556
K0 K5 4.410169 1_656
K0 K5 4.410169 1_655
K0 K4 4.410169 1_546
K0 K4 4.410169 1_545
K0 K2 4.443796 1_545
K0 K1 4.443796 1_655
K1 K2 4.218085 1_555
K1 Nd1 4.331431 1_555
K1 Nd1 4.331431 1_545
K1 Nd0 4.335654 1_555
K1 Nd0 4.335654 1_556
K1 K5 4.410160 1_556
K1 K5 4.410160 1_555
K1 K3 4.410169 1_546
K1 K3 4.410169 1_545
K1 K2 4.443797 1_445
K2 Nd1 4.331431 1_555
K2 Nd1 4.331431 1_655
K2 Nd0 4.335654 1_555
K2 Nd0 4.335654 1_556
K2 K4 4.410160 1_555
K2 K4 4.410160 1_556
K2 K3 4.410169 1_656
K2 K3 4.410169 1_655
K3 K4 4.218085 1_555
K3 K5 4.218085 1_555
K3 Nd0 4.331431 1_455
K3 Nd0 4.331431 1_565
K3 Nd1 4.335645 1_555
K3 Nd1 4.335645 1_554
K3 K4 4.443796 1_455
K3 K5 4.443796 1_565
K4 K5 4.218085 1_555
K4 Nd0 4.331431 1_555
K4 Nd0 4.331431 1_565
K4 Nd1 4.335654 1_555
K4 Nd1 4.335654 1_554
K4 K5 4.443797 1_665
K5 Nd0 4.331431 1_555
K5 Nd0 4.331431 1_455
K5 Nd1 4.335654 1_555
K5 Nd1 4.335654 1_554
