# generated using pymatgen
data_Lu2ZnIn
_symmetry_space_group_name_H-M   'P 1'
_cell_length_a   5.05098888
_cell_length_b   5.05098888
_cell_length_c   5.05098888
_cell_angle_alpha   60.00000000
_cell_angle_beta   60.00000000
_cell_angle_gamma   60.00000000
_symmetry_Int_Tables_number   1
_chemical_formula_structural   Lu2ZnIn
_chemical_formula_sum   'Lu2 Zn1 In1'
_cell_volume   91.12011093
_cell_formula_units_Z   1
loop_
 _symmetry_equiv_pos_site_id
 _symmetry_equiv_pos_as_xyz
  1  'x, y, z'
loop_
 _atom_site_type_symbol
 _atom_site_label
 _atom_site_symmetry_multiplicity
 _atom_site_fract_x
 _atom_site_fract_y
 _atom_site_fract_z
 _atom_site_occupancy
  Lu  Lu0  1  0.00000000  -0.00000000  -0.00000000  1
  Lu  Lu1  1  0.50000100  0.50000100  0.50000100  1
  Zn  Zn0  1  0.75000000  0.75000000  0.75000000  1
  In  In0  1  0.25000000  0.25000000  0.25000000  1
loop_
_geom_bond_atom_site_label_1
_geom_bond_atom_site_label_2
_geom_bond_distance
_geom_bond_site_symmetry_2
Lu0 Zn0 3.093086 1_454
Lu0 Zn0 3.093086 1_445
Lu0 Zn0 3.093086 1_544
Lu0 Zn0 3.093086 1_444
Lu1 Zn0 3.093074 1_555
Lu1 Zn0 3.093090 1_545
Lu1 Zn0 3.093090 1_554
Lu1 Zn0 3.093090 1_455
In0 Lu1 3.093082 1_554
In0 Lu1 3.093082 1_455
In0 Lu1 3.093082 1_545
In0 Lu0 3.093086 1_565
In0 Lu0 3.093086 1_655
In0 Lu0 3.093086 1_556
In0 Lu0 3.093086 1_555
In0 Lu1 3.093099 1_555
