# generated using pymatgen
data_KCdF3
_symmetry_space_group_name_H-M   'P 1'
_cell_length_a   6.18108562
_cell_length_b   6.08209058
_cell_length_c   8.64136873
_cell_angle_alpha   90.00001605
_cell_angle_beta   90.00000000
_cell_angle_gamma   90.00000000
_symmetry_Int_Tables_number   1
_chemical_formula_structural   KCdF3
_chemical_formula_sum   'K4 Cd4 F12'
_cell_volume   324.86294740
_cell_formula_units_Z   4
loop_
 _symmetry_equiv_pos_site_id
 _symmetry_equiv_pos_as_xyz
  1  'x, y, z'
loop_
 _atom_site_type_symbol
 _atom_site_label
 _atom_site_symmetry_multiplicity
 _atom_site_fract_x
 _atom_site_fract_y
 _atom_site_fract_z
 _atom_site_occupancy
  K  K0  1  0.95645683  0.01000009  0.75000000  1
  K  K1  1  0.45645783  0.48999991  0.75000000  1
  K  K2  1  0.54354217  0.51000009  0.25000000  1
  K  K3  1  0.04354317  0.98999991  0.25000000  1
  Cd  Cd0  1  -0.00000000  0.50000000  0.00000000  1
  Cd  Cd1  1  0.50000000  0.00000000  0.50000000  1
  Cd  Cd2  1  0.50000000  -0.00000000  0.00000000  1
  Cd  Cd3  1  -0.00000000  0.50000000  0.50000000  1
  F  F0  1  0.70706834  0.29462519  0.54280801  1
  F  F1  1  0.20706834  0.20537481  0.95719199  1
  F  F2  1  0.79293166  0.79462619  0.45719199  1
  F  F3  1  0.29293166  0.70537481  0.04280801  1
  F  F4  1  0.29293166  0.70537481  0.45719199  1
  F  F5  1  0.79293166  0.79462519  0.04280801  1
  F  F6  1  0.20706834  0.20537381  0.54280801  1
  F  F7  1  0.70706834  0.29462519  0.95719199  1
  F  F8  1  0.52680765  0.91844157  0.75000000  1
  F  F9  1  0.02680765  0.58155843  0.75000000  1
  F  F10  1  0.97319235  0.41844157  0.25000000  1
  F  F11  1  0.47319235  0.08155843  0.25000000  1
loop_
_geom_bond_atom_site_label_1
_geom_bond_atom_site_label_2
_geom_bond_distance
_geom_bond_site_symmetry_2
Cd0 F9 2.222745 1_554
Cd0 F10 2.222745 1_455
Cd0 F3 2.230586 1_555
Cd0 F7 2.230586 1_454
Cd0 F5 2.232944 1_455
Cd0 F1 2.232944 1_554
Cd1 F11 2.222745 1_555
Cd1 F8 2.222745 1_545
Cd1 F6 2.230582 1_555
Cd1 F2 2.230582 1_545
Cd1 F0 2.232944 1_555
Cd1 F4 2.232944 1_545
Cd2 F8 2.222745 1_544
Cd2 F11 2.222745 1_555
Cd2 F1 2.230586 1_554
Cd2 F5 2.230586 1_545
Cd2 F7 2.232945 1_554
Cd2 F3 2.232945 1_545
Cd3 F10 2.222745 1_455
Cd3 F9 2.222745 1_555
Cd3 F4 2.230586 1_555
Cd3 F0 2.230586 1_455
Cd3 F2 2.232950 1_455
Cd3 F6 2.232950 1_555
F0 K1 2.648995 1_555
F0 K0 2.928920 1_555
F0 K2 3.023210 1_555
F1 K0 2.648999 1_455
F1 K1 2.928923 1_555
F1 K3 3.023208 1_546
F2 K3 2.648997 1_655
F2 K2 2.928926 1_555
F2 K0 3.023205 1_565
F3 K2 2.648996 1_555
F3 K3 2.928919 1_555
F3 K1 3.023209 1_554
F4 K2 2.648995 1_555
F4 K3 2.928920 1_555
F4 K1 3.023210 1_555
F5 K3 2.648999 1_655
F5 K2 2.928923 1_555
F5 K0 3.023208 1_564
F6 K0 2.648997 1_455
F6 K1 2.928926 1_555
F6 K3 3.023205 1_545
F7 K1 2.648996 1_555
F7 K0 2.928919 1_555
F7 K2 3.023209 1_556
F8 K1 2.641853 1_555
F8 K0 2.713454 1_565
F9 K0 2.641854 1_465
F9 K1 2.713460 1_555
F10 K3 2.641854 1_645
F10 K2 2.713460 1_555
F11 K2 2.641853 1_555
F11 K3 2.713454 1_545
