# generated using pymatgen
data_Re2S2O13
_symmetry_space_group_name_H-M   'P 1'
_cell_length_a   6.01135661
_cell_length_b   8.41402598
_cell_length_c   9.63763270
_cell_angle_alpha   90.00000000
_cell_angle_beta   90.00000000
_cell_angle_gamma   90.00000000
_symmetry_Int_Tables_number   1
_chemical_formula_structural   Re2S2O13
_chemical_formula_sum   'Re4 S4 O26'
_cell_volume   487.46867372
_cell_formula_units_Z   2
loop_
 _symmetry_equiv_pos_site_id
 _symmetry_equiv_pos_as_xyz
  1  'x, y, z'
loop_
 _atom_site_type_symbol
 _atom_site_label
 _atom_site_symmetry_multiplicity
 _atom_site_fract_x
 _atom_site_fract_y
 _atom_site_fract_z
 _atom_site_occupancy
  Re  Re0  1  0.96314323  0.18074056  0.60569657  1
  Re  Re1  1  0.96314323  0.81925944  0.39430343  1
  Re  Re2  1  0.96314323  0.68074056  0.89430343  1
  Re  Re3  1  0.96314323  0.31925944  0.10569657  1
  S  S0  1  0.29064206  0.36697164  0.82151253  1
  S  S1  1  0.29064206  0.63302836  0.17848747  1
  S  S2  1  0.29064206  0.86697164  0.67848747  1
  S  S3  1  0.29064206  0.13302836  0.32151253  1
  O  O0  1  0.15548457  0.34250924  0.68506848  1
  O  O1  1  0.15548457  0.65749076  0.31493152  1
  O  O2  1  0.15548457  0.84250924  0.81493152  1
  O  O3  1  0.15548457  0.15749076  0.18506848  1
  O  O4  1  0.17329271  0.27083203  0.92727107  1
  O  O5  1  0.17329271  0.72916797  0.07272893  1
  O  O6  1  0.17329271  0.77083203  0.57272893  1
  O  O7  1  0.17329271  0.22916797  0.42727107  1
  O  O8  1  0.26189249  0.53780208  0.85058831  1
  O  O9  1  0.26189249  0.46219792  0.14941169  1
  O  O10  1  0.26189249  0.03780208  0.64941169  1
  O  O11  1  0.26189249  0.96219792  0.35058831  1
  O  O12  1  0.51445902  0.32380654  0.80102787  1
  O  O13  1  0.51445902  0.67619346  0.19897213  1
  O  O14  1  0.51445902  0.82380654  0.69897213  1
  O  O15  1  0.51445902  0.17619346  0.30102787  1
  O  O16  1  0.88674117  -0.00000000  0.50000000  1
  O  O17  1  0.88674117  0.50000000  -0.00000000  1
  O  O18  1  0.85559492  0.11537947  0.75776112  1
  O  O19  1  0.85559492  0.88462053  0.24223888  1
  O  O20  1  0.85559492  0.61537947  0.74223888  1
  O  O21  1  0.85559492  0.38462053  0.25776112  1
  O  O22  1  0.76722092  0.30755409  0.54511845  1
  O  O23  1  0.76722092  0.69244591  0.45488155  1
  O  O24  1  0.76722092  0.80755409  0.95488155  1
  O  O25  1  0.76722092  0.19244591  0.04511845  1
loop_
_geom_bond_atom_site_label_1
_geom_bond_atom_site_label_2
_geom_bond_distance
_geom_bond_site_symmetry_2
O0 S0 1.559393 1_555
O0 Re0 1.942858 1_455
O1 S1 1.559393 1_555
O1 Re1 1.942858 1_455
O2 S2 1.559393 1_555
O2 Re2 1.942858 1_455
O3 S3 1.559393 1_555
O3 Re3 1.942858 1_455
O4 S0 1.480162 1_555
O4 Re3 2.172312 1_456
O5 S1 1.480162 1_555
O5 Re2 2.172312 1_454
O6 S2 1.480162 1_555
O6 Re1 2.172312 1_455
O7 S3 1.480162 1_555
O7 Re0 2.172312 1_455
O8 S0 1.474595 1_555
O8 Re2 2.202084 1_455
O9 S1 1.474595 1_555
O9 Re3 2.202084 1_455
O10 S2 1.474595 1_545
O10 Re0 2.202084 1_455
O11 S3 1.474595 1_565
O11 Re1 2.202084 1_455
O12 S0 1.407517 1_555
O13 S1 1.407517 1_555
O14 S2 1.407517 1_555
O15 S3 1.407517 1_555
O16 Re0 1.887144 1_555
O16 Re1 1.887144 1_545
O17 Re3 1.887144 1_555
O17 Re2 1.887144 1_554
O18 Re0 1.693587 1_555
O19 Re1 1.693587 1_555
O20 Re2 1.693587 1_555
O21 Re3 1.693587 1_555
O22 Re0 1.693071 1_555
O23 Re1 1.693071 1_555
O24 Re2 1.693071 1_555
O25 Re3 1.693071 1_555
