# generated using pymatgen
data_SiSb3
_symmetry_space_group_name_H-M   'P 1'
_cell_length_a   6.44969413
_cell_length_b   6.44969413
_cell_length_c   5.56222900
_cell_angle_alpha   90.00000000
_cell_angle_beta   90.00000000
_cell_angle_gamma   120.00000133
_symmetry_Int_Tables_number   1
_chemical_formula_structural   SiSb3
_chemical_formula_sum   'Si2 Sb6'
_cell_volume   200.38154885
_cell_formula_units_Z   2
loop_
 _symmetry_equiv_pos_site_id
 _symmetry_equiv_pos_as_xyz
  1  'x, y, z'
loop_
 _atom_site_type_symbol
 _atom_site_label
 _atom_site_symmetry_multiplicity
 _atom_site_fract_x
 _atom_site_fract_y
 _atom_site_fract_z
 _atom_site_occupancy
  Si  Si0  1  0.33333300  0.66666700  0.75000000  1
  Si  Si1  1  0.66666700  0.33333300  0.25000000  1
  Sb  Sb0  1  0.17463000  0.34926000  0.25000000  1
  Sb  Sb1  1  0.65074000  0.82537000  0.25000000  1
  Sb  Sb2  1  0.17463000  0.82537000  0.25000000  1
  Sb  Sb3  1  0.82537000  0.65074000  0.75000000  1
  Sb  Sb4  1  0.34926000  0.17463000  0.75000000  1
  Sb  Sb5  1  0.82537000  0.17463000  0.75000000  1
loop_
_geom_bond_atom_site_label_1
_geom_bond_atom_site_label_2
_geom_bond_distance
_geom_bond_site_symmetry_2
Sb0 Sb1 3.070764 1_555
Sb0 Sb2 3.070764 1_555
Sb0 Si1 3.226071 1_455
Sb0 Si1 3.226077 1_555
Sb0 Si0 3.298151 1_554
Sb0 Si0 3.298151 1_555
Sb0 Sb1 3.378930 1_445
Sb0 Sb2 3.378930 1_545
Sb0 Sb5 3.397105 1_454
Sb0 Sb5 3.397105 1_455
Sb0 Sb4 3.397105 1_554
Sb0 Sb4 3.397105 1_555
Sb1 Sb2 3.070764 1_555
Sb1 Si1 3.226071 1_565
Sb1 Si1 3.226077 1_555
Sb1 Si0 3.298151 1_554
Sb1 Si0 3.298151 1_555
Sb1 Sb2 3.378930 1_655
Sb1 Sb5 3.397105 1_564
Sb1 Sb5 3.397105 1_565
Sb1 Sb3 3.397105 1_554
Sb1 Sb3 3.397105 1_555
Sb2 Si1 3.226074 1_455
Sb2 Si1 3.226074 1_565
Sb2 Si0 3.298148 1_554
Sb2 Si0 3.298148 1_555
Sb2 Sb3 3.397105 1_455
Sb2 Sb3 3.397105 1_454
Sb2 Sb4 3.397105 1_565
Sb2 Sb4 3.397105 1_564
Sb3 Sb4 3.070764 1_555
Sb3 Sb5 3.070764 1_555
Sb3 Si0 3.226071 1_655
Sb3 Si0 3.226077 1_555
Sb3 Si1 3.298151 1_556
Sb3 Si1 3.298151 1_555
Sb3 Sb4 3.378930 1_665
Sb3 Sb5 3.378930 1_565
Sb4 Sb5 3.070764 1_555
Sb4 Si0 3.226071 1_545
Sb4 Si0 3.226077 1_555
Sb4 Si1 3.298151 1_556
Sb4 Si1 3.298151 1_555
Sb4 Sb5 3.378930 1_455
Sb5 Si0 3.226074 1_545
Sb5 Si0 3.226074 1_655
Sb5 Si1 3.298148 1_555
Sb5 Si1 3.298148 1_556
