# generated using pymatgen
data_Ce2ReC2
_symmetry_space_group_name_H-M   'P 1'
_cell_length_a   5.29934682
_cell_length_b   6.56773778
_cell_length_c   10.00160014
_cell_angle_alpha   90.00000000
_cell_angle_beta   90.00000000
_cell_angle_gamma   90.00000000
_symmetry_Int_Tables_number   1
_chemical_formula_structural   Ce2ReC2
_chemical_formula_sum   'Ce8 Re4 C8'
_cell_volume   348.10289562
_cell_formula_units_Z   4
loop_
 _symmetry_equiv_pos_site_id
 _symmetry_equiv_pos_as_xyz
  1  'x, y, z'
loop_
 _atom_site_type_symbol
 _atom_site_label
 _atom_site_symmetry_multiplicity
 _atom_site_fract_x
 _atom_site_fract_y
 _atom_site_fract_z
 _atom_site_occupancy
  Ce  Ce0  1  0.25000000  0.97941103  0.77541816  1
  Ce  Ce1  1  0.75000000  0.52058897  0.27541816  1
  Ce  Ce2  1  0.25000000  0.47941103  0.72458184  1
  Ce  Ce3  1  0.75000000  0.02058897  0.22458184  1
  Ce  Ce4  1  0.25000000  0.30341642  0.04548060  1
  Ce  Ce5  1  0.75000000  0.19658358  0.54548060  1
  Ce  Ce6  1  0.25000000  0.80341642  0.45451940  1
  Ce  Ce7  1  0.75000000  0.69658358  0.95451940  1
  Re  Re0  1  0.25000000  0.76828994  0.13870896  1
  Re  Re1  1  0.75000000  0.73171006  0.63870896  1
  Re  Re2  1  0.25000000  0.26828994  0.36129104  1
  Re  Re3  1  0.75000000  0.23171006  0.86129104  1
  C  C0  1  0.25000000  0.17775603  0.54796900  1
  C  C1  1  0.75000000  0.32224397  0.04796900  1
  C  C2  1  0.25000000  0.67775603  0.95203100  1
  C  C3  1  0.75000000  0.82224397  0.45203100  1
  C  C4  1  0.25000000  0.53014729  0.25711431  1
  C  C5  1  0.75000000  0.96985271  0.75711431  1
  C  C6  1  0.25000000  0.03014729  0.24288569  1
  C  C7  1  0.75000000  0.46985271  0.74288569  1
loop_
_geom_bond_atom_site_label_1
_geom_bond_atom_site_label_2
_geom_bond_distance
_geom_bond_site_symmetry_2
C0 Re2 1.959473 1_555
C0 Ce0 2.621438 1_545
C0 Ce6 2.630228 1_545
C0 Ce5 2.652674 1_455
C0 Ce5 2.652674 1_555
C0 Ce2 2.654303 1_555
C1 Re3 1.959473 1_554
C1 Ce1 2.621438 1_555
C1 Ce7 2.630228 1_554
C1 Ce4 2.652674 1_555
C1 Ce4 2.652674 1_655
C1 Ce3 2.654303 1_555
C2 Re0 1.959473 1_556
C2 Ce2 2.621438 1_555
C2 Ce4 2.630228 1_556
C2 Ce7 2.652674 1_455
C2 Ce7 2.652674 1_555
C2 Ce0 2.654303 1_555
C3 Re1 1.959473 1_555
C3 Ce3 2.621438 1_565
C3 Ce5 2.630228 1_565
C3 Ce6 2.652674 1_555
C3 Ce6 2.652674 1_655
C3 Ce1 2.654303 1_555
C4 Re0 1.961813 1_555
C4 Re2 2.010814 1_555
C4 Ce4 2.588003 1_555
C4 Ce1 2.656732 1_455
C4 Ce1 2.656732 1_555
C4 Ce6 2.668199 1_555
C5 Re1 1.961813 1_555
C5 Re3 2.010814 1_565
C5 Ce5 2.588003 1_565
C5 Ce0 2.656732 1_555
C5 Ce0 2.656732 1_655
C5 Ce7 2.668199 1_555
C6 Re2 1.961813 1_555
C6 Re0 2.010814 1_545
C6 Ce6 2.588003 1_545
C6 Ce3 2.656732 1_555
C6 Ce3 2.656732 1_455
C6 Ce4 2.668199 1_555
C7 Re3 1.961813 1_555
C7 Re1 2.010814 1_555
C7 Ce7 2.588003 1_555
C7 Ce2 2.656732 1_555
C7 Ce2 2.656732 1_655
C7 Ce5 2.668199 1_555
