# generated using pymatgen
data_Ta11O2
_symmetry_space_group_name_H-M   'P 1'
_cell_length_a   7.48816300
_cell_length_b   7.53281282
_cell_length_c   9.32062869
_cell_angle_alpha   110.03193937
_cell_angle_beta   107.19944702
_cell_angle_gamma   101.88424003
_symmetry_Int_Tables_number   1
_chemical_formula_structural   Ta11O2
_chemical_formula_sum   'Ta22 O4'
_cell_volume   443.34571652
_cell_formula_units_Z   2
loop_
 _symmetry_equiv_pos_site_id
 _symmetry_equiv_pos_as_xyz
  1  'x, y, z'
loop_
 _atom_site_type_symbol
 _atom_site_label
 _atom_site_symmetry_multiplicity
 _atom_site_fract_x
 _atom_site_fract_y
 _atom_site_fract_z
 _atom_site_occupancy
  Ta  Ta0  1  0.97437400  0.32884300  0.64833500  1
  Ta  Ta1  1  0.60051600  0.79133900  0.42180800  1
  Ta  Ta2  1  0.73293300  0.59504100  0.60486100  1
  Ta  Ta3  1  0.22215600  0.09391800  0.10879300  1
  Ta  Ta4  1  0.15847200  0.17340200  0.27724400  1
  Ta  Ta5  1  0.68102300  0.69774400  0.76039900  1
  Ta  Ta6  1  0.49196800  0.85377500  0.10167000  1
  Ta  Ta7  1  0.06015900  0.26303600  0.44392800  1
  Ta  Ta8  1  0.24846600  0.14049800  0.60063700  1
  Ta  Ta9  1  0.40488100  0.92543700  0.27785100  1
  Ta  Ta10  1  0.81627400  0.51611900  0.91797800  1
  Ta  Ta11  1  0.72896700  0.53813700  0.11632800  1
  Ta  Ta12  1  0.91483100  0.43056900  0.26578500  1
  Ta  Ta13  1  0.08767800  0.31073600  0.94665700  1
  Ta  Ta14  1  0.32594900  0.02265600  0.94082900  1
  Ta  Ta15  1  0.46334700  0.82966400  0.61213700  1
  Ta  Ta16  1  0.53955100  0.72521400  0.95596900  1
  Ta  Ta17  1  0.39722600  0.92715900  0.77781600  1
  Ta  Ta18  1  0.29216900  0.99132200  0.45899000  1
  Ta  Ta19  1  0.14873800  0.18233900  0.78147400  1
  Ta  Ta20  1  0.65292200  0.67004700  0.27094200  1
  Ta  Ta21  1  0.81341300  0.52522800  0.42565300  1
  O  O0  1  0.90580200  0.93374700  0.02280100  1
  O  O1  1  0.05713500  0.72868900  0.69446000  1
  O  O2  1  0.90261000  0.41907600  0.03428500  1
  O  O3  1  0.90742800  0.42267800  0.53169600  1
loop_
_geom_bond_atom_site_label_1
_geom_bond_atom_site_label_2
_geom_bond_distance
_geom_bond_site_symmetry_2
Ta0 Ta19 2.244120 1_655
Ta1 Ta20 1.599977 1_555
Ta1 Ta15 2.265894 1_555
Ta1 Ta9 2.311353 1_555
Ta2 Ta5 1.593750 1_555
Ta2 Ta21 1.885154 1_555
Ta3 Ta4 1.722610 1_555
Ta3 Ta9 2.603074 1_545
Ta4 Ta7 1.890506 1_555
Ta6 Ta9 1.893203 1_555
Ta7 Ta8 2.283741 1_555
Ta11 Ta20 1.767970 1_555
Ta13 Ta19 1.758751 1_555
Ta14 Ta17 1.731998 1_545
Ta14 Ta3 1.912800 1_556
Ta14 Ta19 2.475808 1_555
Ta14 Ta6 2.503400 1_546
Ta15 Ta17 1.730360 1_555
Ta15 Ta5 2.414501 1_555
Ta15 Ta18 2.432104 1_555
Ta16 Ta6 1.560874 1_556
Ta18 Ta8 1.582234 1_565
Ta18 Ta9 2.061628 1_555
Ta18 Ta4 2.628202 1_565
Ta19 Ta8 1.993833 1_555
Ta20 Ta21 2.303583 1_555
Ta20 Ta6 2.629758 1_555
O0 Ta3 2.178828 1_665
O0 Ta5 2.308570 1_554
O0 Ta4 2.338719 1_665
O0 Ta16 2.630981 1_554
O0 Ta10 2.817636 1_554
O1 Ta2 2.196123 1_455
O1 Ta21 2.338817 1_455
O1 Ta17 2.406284 1_555
O1 Ta14 2.485024 1_565
O1 Ta19 3.100451 1_565
O2 Ta10 1.565432 1_554
O2 Ta11 1.917890 1_555
O2 Ta13 1.982965 1_654
O2 Ta12 2.103243 1_555
O3 Ta0 1.510930 1_555
O3 Ta21 1.550749 1_555
O3 Ta7 1.967013 1_655
O3 Ta2 2.115960 1_555
