# generated using pymatgen
data_Ho3Mg
_symmetry_space_group_name_H-M   'P 1'
_cell_length_a   6.97289141
_cell_length_b   6.97288924
_cell_length_c   5.51727028
_cell_angle_alpha   90.00000000
_cell_angle_beta   90.00000000
_cell_angle_gamma   119.99998672
_symmetry_Int_Tables_number   1
_chemical_formula_structural   Ho3Mg
_chemical_formula_sum   'Ho6 Mg2'
_cell_volume   232.31680074
_cell_formula_units_Z   2
loop_
 _symmetry_equiv_pos_site_id
 _symmetry_equiv_pos_as_xyz
  1  'x, y, z'
loop_
 _atom_site_type_symbol
 _atom_site_label
 _atom_site_symmetry_multiplicity
 _atom_site_fract_x
 _atom_site_fract_y
 _atom_site_fract_z
 _atom_site_occupancy
  Ho  Ho0  1  0.17022536  0.34045271  0.25000000  1
  Ho  Ho1  1  0.65954729  0.82977364  0.25000000  1
  Ho  Ho2  1  0.17022536  0.82977364  0.25000000  1
  Ho  Ho3  1  0.82977464  0.17022736  0.75000000  1
  Ho  Ho4  1  0.34045371  0.17022736  0.75000000  1
  Ho  Ho5  1  0.82977564  0.65954829  0.75000000  1
  Mg  Mg0  1  0.66666700  0.33333300  0.25000000  1
  Mg  Mg1  1  0.33333300  0.66666700  0.75000000  1
loop_
_geom_bond_atom_site_label_1
_geom_bond_atom_site_label_2
_geom_bond_distance
_geom_bond_site_symmetry_2
Ho0 Mg1 3.389781 1_555
Ho0 Mg1 3.389781 1_554
Ho0 Ho2 3.411981 1_555
Ho0 Ho1 3.411985 1_555
Ho0 Ho3 3.440452 1_455
Ho0 Ho3 3.440452 1_454
Ho0 Ho4 3.440463 1_555
Ho0 Ho4 3.440463 1_554
Ho0 Mg0 3.486700 1_455
Ho0 Mg0 3.486721 1_555
Ho0 Ho1 3.560906 1_445
Ho0 Ho2 3.560909 1_545
Ho1 Mg1 3.389781 1_555
Ho1 Mg1 3.389781 1_554
Ho1 Ho2 3.411989 1_555
Ho1 Ho5 3.440463 1_555
Ho1 Ho5 3.440463 1_554
Ho1 Ho3 3.440463 1_564
Ho1 Ho3 3.440463 1_565
Ho1 Mg0 3.486706 1_565
Ho1 Mg0 3.486713 1_555
Ho1 Ho2 3.560903 1_655
Ho2 Mg1 3.389781 1_555
Ho2 Mg1 3.389781 1_554
Ho2 Ho5 3.440449 1_454
Ho2 Ho5 3.440449 1_455
Ho2 Ho4 3.440463 1_564
Ho2 Ho4 3.440463 1_565
Ho2 Mg0 3.486707 1_455
Ho2 Mg0 3.486714 1_565
Ho3 Mg0 3.389777 1_556
Ho3 Mg0 3.389777 1_555
Ho3 Ho5 3.411977 1_555
Ho3 Ho4 3.411982 1_555
Ho3 Mg1 3.486704 1_655
Ho3 Mg1 3.486718 1_545
Ho3 Ho4 3.560910 1_655
Ho3 Ho5 3.560912 1_545
Ho4 Mg0 3.389778 1_555
Ho4 Mg0 3.389778 1_556
Ho4 Ho5 3.411985 1_555
Ho4 Mg1 3.486710 1_555
Ho4 Mg1 3.486710 1_545
Ho4 Ho5 3.560906 1_445
Ho5 Mg0 3.389784 1_556
Ho5 Mg0 3.389784 1_555
Ho5 Mg1 3.486697 1_655
Ho5 Mg1 3.486725 1_555
