# generated using pymatgen
data_MoPt
_symmetry_space_group_name_H-M   'P 1'
_cell_length_a   8.95322986
_cell_length_b   5.46746996
_cell_length_c   9.91680500
_cell_angle_alpha   90.00000000
_cell_angle_beta   90.00000000
_cell_angle_gamma   90.00000000
_symmetry_Int_Tables_number   1
_chemical_formula_structural   MoPt
_chemical_formula_sum   'Mo16 Pt16'
_cell_volume   485.44263173
_cell_formula_units_Z   16
loop_
 _symmetry_equiv_pos_site_id
 _symmetry_equiv_pos_as_xyz
  1  'x, y, z'
loop_
 _atom_site_type_symbol
 _atom_site_label
 _atom_site_symmetry_multiplicity
 _atom_site_fract_x
 _atom_site_fract_y
 _atom_site_fract_z
 _atom_site_occupancy
  Mo  Mo0_0  1  0.12500000  0.00000000  0.08087519  1
  Mo  Mo0_1  1  0.12500000  0.00000000  0.58087519  1
  Mo  Mo0_2  1  0.12500000  0.50000000  0.08087519  1
  Mo  Mo0_3  1  0.12500000  0.50000000  0.58087519  1
  Mo  Mo0_4  1  0.62500000  0.00000000  0.08087519  1
  Mo  Mo0_5  1  0.62500000  0.00000000  0.58087519  1
  Mo  Mo0_6  1  0.62500000  0.50000000  0.08087519  1
  Mo  Mo0_7  1  0.62500000  0.50000000  0.58087519  1
  Mo  Mo1_0  1  0.37500000  0.00000000  0.41912481  1
  Mo  Mo1_1  1  0.37500000  0.00000000  0.91912481  1
  Mo  Mo1_2  1  0.37500000  0.50000000  0.41912481  1
  Mo  Mo1_3  1  0.37500000  0.50000000  0.91912481  1
  Mo  Mo1_4  1  0.87500000  0.00000000  0.41912481  1
  Mo  Mo1_5  1  0.87500000  0.00000000  0.91912481  1
  Mo  Mo1_6  1  0.87500000  0.50000000  0.41912481  1
  Mo  Mo1_7  1  0.87500000  0.50000000  0.91912481  1
  Pt  Pt0_0  1  0.12500000  0.25000000  0.33136447  1
  Pt  Pt0_1  1  0.12500000  0.25000000  0.83136447  1
  Pt  Pt0_2  1  0.12500000  0.75000000  0.33136447  1
  Pt  Pt0_3  1  0.12500000  0.75000000  0.83136447  1
  Pt  Pt0_4  1  0.62500000  0.25000000  0.33136447  1
  Pt  Pt0_5  1  0.62500000  0.25000000  0.83136447  1
  Pt  Pt0_6  1  0.62500000  0.75000000  0.33136447  1
  Pt  Pt0_7  1  0.62500000  0.75000000  0.83136447  1
  Pt  Pt1_0  1  0.37500000  0.25000000  0.16863553  1
  Pt  Pt1_1  1  0.37500000  0.25000000  0.66863553  1
  Pt  Pt1_2  1  0.37500000  0.75000000  0.16863553  1
  Pt  Pt1_3  1  0.37500000  0.75000000  0.66863553  1
  Pt  Pt1_4  1  0.87500000  0.25000000  0.16863553  1
  Pt  Pt1_5  1  0.87500000  0.25000000  0.66863553  1
  Pt  Pt1_6  1  0.87500000  0.75000000  0.16863553  1
  Pt  Pt1_7  1  0.87500000  0.75000000  0.66863553  1
loop_
_geom_bond_atom_site_label_1
_geom_bond_atom_site_label_2
_geom_bond_distance
_geom_bond_site_symmetry_2
Mo0_0 Mo0_2 2.733735 1_545
Mo0_0 Mo0_2 2.733735 1_555
Mo0_0 Mo1_1 2.753722 1_554
Mo0_0 Mo1_5 2.753722 1_454
Mo0_0 Pt1_0 2.763290 1_555
Mo0_0 Pt1_6 2.763290 1_445
Mo0_0 Pt1_2 2.763290 1_545
Mo0_0 Pt1_4 2.763290 1_455
Mo0_0 Pt0_1 2.826788 1_554
Mo0_0 Pt0_3 2.826788 1_544
Mo0_0 Pt0_2 2.835286 1_545
Mo0_0 Pt0_0 2.835286 1_555
Mo0_1 Mo0_3 2.733735 1_555
Mo0_1 Mo0_3 2.733735 1_545
Mo0_1 Mo1_4 2.753722 1_455
Mo0_1 Mo1_0 2.753722 1_555
Mo0_1 Pt1_1 2.763290 1_555
Mo0_1 Pt1_5 2.763290 1_455
Mo0_1 Pt1_3 2.763290 1_545
Mo0_1 Pt1_7 2.763290 1_445
Mo0_1 Pt0_2 2.826788 1_545
Mo0_1 Pt0_0 2.826788 1_555
Mo0_1 Pt0_1 2.835286 1_555
Mo0_1 Pt0_3 2.835286 1_545
Mo0_2 Mo1_7 2.753722 1_454
Mo0_2 Mo1_3 2.753722 1_554
Mo0_2 Pt1_0 2.763290 1_555
Mo0_2 Pt1_4 2.763290 1_455
Mo0_2 Pt1_2 2.763290 1_555
Mo0_2 Pt1_6 2.763290 1_455
Mo0_2 Pt0_1 2.826788 1_554
Mo0_2 Pt0_3 2.826788 1_554
Mo0_2 Pt0_2 2.835286 1_555
Mo0_2 Pt0_0 2.835286 1_555
Mo0_3 Mo1_6 2.753722 1_455
Mo0_3 Mo1_2 2.753722 1_555
Mo0_3 Pt1_3 2.763290 1_555
Mo0_3 Pt1_7 2.763290 1_455
Mo0_3 Pt1_1 2.763290 1_555
Mo0_3 Pt1_5 2.763290 1_455
Mo0_3 Pt0_2 2.826788 1_555
Mo0_3 Pt0_0 2.826788 1_555
Mo0_3 Pt0_1 2.835286 1_555
Mo0_3 Pt0_3 2.835286 1_555
Mo0_4 Mo0_6 2.733735 1_545
Mo0_4 Mo0_6 2.733735 1_555
Mo0_4 Mo1_5 2.753722 1_554
Mo0_4 Mo1_1 2.753722 1_554
Mo0_4 Pt1_6 2.763290 1_545
Mo0_4 Pt1_0 2.763290 1_555
Mo0_4 Pt1_4 2.763290 1_555
Mo0_4 Pt1_2 2.763290 1_545
Mo0_4 Pt0_7 2.826788 1_544
Mo0_4 Pt0_5 2.826788 1_554
Mo0_4 Pt0_6 2.835286 1_545
Mo0_4 Pt0_4 2.835286 1_555
Mo0_5 Mo0_7 2.733735 1_555
Mo0_5 Mo0_7 2.733735 1_545
Mo0_5 Mo1_4 2.753722 1_555
Mo0_5 Mo1_0 2.753722 1_555
Mo0_5 Pt1_1 2.763290 1_555
Mo0_5 Pt1_7 2.763290 1_545
Mo0_5 Pt1_3 2.763290 1_545
Mo0_5 Pt1_5 2.763290 1_555
Mo0_5 Pt0_4 2.826788 1_555
Mo0_5 Pt0_6 2.826788 1_545
Mo0_5 Pt0_7 2.835286 1_545
Mo0_5 Pt0_5 2.835286 1_555
Mo0_6 Mo1_3 2.753722 1_554
Mo0_6 Mo1_7 2.753722 1_554
Mo0_6 Pt1_6 2.763290 1_555
Mo0_6 Pt1_0 2.763290 1_555
Mo0_6 Pt1_4 2.763290 1_555
Mo0_6 Pt1_2 2.763290 1_555
Mo0_6 Pt0_7 2.826788 1_554
Mo0_6 Pt0_5 2.826788 1_554
Mo0_6 Pt0_6 2.835286 1_555
Mo0_6 Pt0_4 2.835286 1_555
Mo0_7 Mo1_6 2.753722 1_555
Mo0_7 Mo1_2 2.753722 1_555
Mo0_7 Pt1_3 2.763290 1_555
Mo0_7 Pt1_7 2.763290 1_555
Mo0_7 Pt1_1 2.763290 1_555
Mo0_7 Pt1_5 2.763290 1_555
Mo0_7 Pt0_6 2.826788 1_555
Mo0_7 Pt0_4 2.826788 1_555
Mo0_7 Pt0_7 2.835286 1_555
Mo0_7 Pt0_5 2.835286 1_555
Mo1_0 Mo1_2 2.733735 1_545
Mo1_0 Mo1_2 2.733735 1_555
Mo1_0 Pt0_2 2.763290 1_545
Mo1_0 Pt0_0 2.763290 1_555
Mo1_0 Pt0_4 2.763290 1_555
Mo1_0 Pt0_6 2.763290 1_545
Mo1_0 Pt1_3 2.826788 1_545
Mo1_0 Pt1_1 2.826788 1_555
Mo1_0 Pt1_2 2.835286 1_545
Mo1_0 Pt1_0 2.835286 1_555
Mo1_1 Mo1_3 2.733735 1_555
Mo1_1 Mo1_3 2.733735 1_545
Mo1_1 Pt0_3 2.763290 1_545
Mo1_1 Pt0_5 2.763290 1_555
Mo1_1 Pt0_7 2.763290 1_545
Mo1_1 Pt0_1 2.763290 1_555
Mo1_1 Pt1_0 2.826788 1_556
Mo1_1 Pt1_2 2.826788 1_546
Mo1_1 Pt1_1 2.835286 1_555
Mo1_1 Pt1_3 2.835286 1_545
Mo1_2 Pt0_2 2.763290 1_555
Mo1_2 Pt0_6 2.763290 1_555
Mo1_2 Pt0_0 2.763290 1_555
Mo1_2 Pt0_4 2.763290 1_555
Mo1_2 Pt1_3 2.826788 1_555
Mo1_2 Pt1_1 2.826788 1_555
Mo1_2 Pt1_2 2.835286 1_555
Mo1_2 Pt1_0 2.835286 1_555
Mo1_3 Pt0_5 2.763290 1_555
Mo1_3 Pt0_3 2.763290 1_555
Mo1_3 Pt0_7 2.763290 1_555
Mo1_3 Pt0_1 2.763290 1_555
Mo1_3 Pt1_2 2.826788 1_556
Mo1_3 Pt1_0 2.826788 1_556
Mo1_3 Pt1_3 2.835286 1_555
Mo1_3 Pt1_1 2.835286 1_555
Mo1_4 Mo1_6 2.733735 1_555
Mo1_4 Mo1_6 2.733735 1_545
Mo1_4 Pt0_0 2.763290 1_655
Mo1_4 Pt0_2 2.763290 1_645
Mo1_4 Pt0_4 2.763290 1_555
Mo1_4 Pt0_6 2.763290 1_545
Mo1_4 Pt1_7 2.826788 1_545
Mo1_4 Pt1_5 2.826788 1_555
Mo1_4 Pt1_6 2.835286 1_545
Mo1_4 Pt1_4 2.835286 1_555
Mo1_5 Mo1_7 2.733735 1_545
Mo1_5 Mo1_7 2.733735 1_555
Mo1_5 Pt0_5 2.763290 1_555
Mo1_5 Pt0_7 2.763290 1_545
Mo1_5 Pt0_1 2.763290 1_655
Mo1_5 Pt0_3 2.763290 1_645
Mo1_5 Pt1_4 2.826788 1_556
Mo1_5 Pt1_6 2.826788 1_546
Mo1_5 Pt1_5 2.835286 1_555
Mo1_5 Pt1_7 2.835286 1_545
Mo1_6 Pt0_0 2.763290 1_655
Mo1_6 Pt0_6 2.763290 1_555
Mo1_6 Pt0_2 2.763290 1_655
Mo1_6 Pt0_4 2.763290 1_555
Mo1_6 Pt1_5 2.826788 1_555
Mo1_6 Pt1_7 2.826788 1_555
Mo1_6 Pt1_6 2.835286 1_555
Mo1_6 Pt1_4 2.835286 1_555
Mo1_7 Pt0_5 2.763290 1_555
Mo1_7 Pt0_1 2.763290 1_655
Mo1_7 Pt0_7 2.763290 1_555
Mo1_7 Pt0_3 2.763290 1_655
Mo1_7 Pt1_4 2.826788 1_556
Mo1_7 Pt1_6 2.826788 1_556
Mo1_7 Pt1_5 2.835286 1_555
Mo1_7 Pt1_7 2.835286 1_555
Pt0_0 Pt0_2 2.733735 1_555
Pt0_0 Pt0_2 2.733735 1_545
Pt0_0 Pt1_0 2.759386 1_555
Pt0_0 Pt1_4 2.759386 1_455
Pt0_1 Pt0_3 2.733735 1_545
Pt0_1 Pt0_3 2.733735 1_555
Pt0_1 Pt1_5 2.759386 1_455
Pt0_1 Pt1_1 2.759386 1_555
Pt0_2 Pt1_2 2.759386 1_555
Pt0_2 Pt1_6 2.759386 1_455
Pt0_3 Pt1_3 2.759386 1_555
Pt0_3 Pt1_7 2.759386 1_455
Pt0_4 Pt0_6 2.733735 1_545
Pt0_4 Pt0_6 2.733735 1_555
Pt0_4 Pt1_0 2.759386 1_555
Pt0_4 Pt1_4 2.759386 1_555
Pt0_5 Pt0_7 2.733735 1_545
Pt0_5 Pt0_7 2.733735 1_555
Pt0_5 Pt1_1 2.759386 1_555
Pt0_5 Pt1_5 2.759386 1_555
Pt0_6 Pt1_2 2.759386 1_555
Pt0_6 Pt1_6 2.759386 1_555
Pt0_7 Pt1_3 2.759386 1_555
Pt0_7 Pt1_7 2.759386 1_555
Pt1_0 Pt1_2 2.733735 1_545
Pt1_0 Pt1_2 2.733735 1_555
Pt1_1 Pt1_3 2.733735 1_555
Pt1_1 Pt1_3 2.733735 1_545
Pt1_4 Pt1_6 2.733735 1_545
Pt1_4 Pt1_6 2.733735 1_555
Pt1_5 Pt1_7 2.733735 1_555
Pt1_5 Pt1_7 2.733735 1_545
