# generated using pymatgen
data_TbAg3
_symmetry_space_group_name_H-M   'P 1'
_cell_length_a   6.28053510
_cell_length_b   6.28053471
_cell_length_c   4.81493737
_cell_angle_alpha   90.00000000
_cell_angle_beta   90.00000000
_cell_angle_gamma   120.00000752
_symmetry_Int_Tables_number   1
_chemical_formula_structural   TbAg3
_chemical_formula_sum   'Tb2 Ag6'
_cell_volume   164.48053440
_cell_formula_units_Z   2
loop_
 _symmetry_equiv_pos_site_id
 _symmetry_equiv_pos_as_xyz
  1  'x, y, z'
loop_
 _atom_site_type_symbol
 _atom_site_label
 _atom_site_symmetry_multiplicity
 _atom_site_fract_x
 _atom_site_fract_y
 _atom_site_fract_z
 _atom_site_occupancy
  Tb  Tb0  1  0.33333400  0.66666700  0.75000100  1
  Tb  Tb1  1  0.66666700  0.33333400  0.24999900  1
  Ag  Ag0  1  0.15513591  0.31027082  0.24999900  1
  Ag  Ag1  1  0.68973118  0.84486409  0.24999900  1
  Ag  Ag2  1  0.15513491  0.84486409  0.24999900  1
  Ag  Ag3  1  0.84486509  0.68973018  0.75000100  1
  Ag  Ag4  1  0.31026882  0.15513491  0.75000100  1
  Ag  Ag5  1  0.84486509  0.15513491  0.75000100  1
loop_
_geom_bond_atom_site_label_1
_geom_bond_atom_site_label_2
_geom_bond_distance
_geom_bond_site_symmetry_2
Ag0 Ag1 2.922997 1_445
Ag0 Ag2 2.923000 1_545
Ag0 Ag4 2.940034 1_554
Ag0 Ag5 2.940040 1_454
Ag0 Ag4 2.940050 1_555
Ag0 Ag5 2.940056 1_455
Ag0 Tb0 3.090881 1_554
Ag0 Tb0 3.090896 1_555
Ag0 Tb1 3.142769 1_555
Ag0 Tb1 3.142775 1_455
Ag0 Ag2 3.357535 1_555
Ag0 Ag1 3.357538 1_555
Ag1 Ag2 2.922984 1_655
Ag1 Ag3 2.940031 1_554
Ag1 Ag5 2.940040 1_564
Ag1 Ag3 2.940047 1_555
Ag1 Ag5 2.940056 1_565
Ag1 Tb0 3.090884 1_554
Ag1 Tb0 3.090899 1_555
Ag1 Tb1 3.142760 1_555
Ag1 Tb1 3.142785 1_565
Ag1 Ag2 3.357551 1_555
Ag2 Ag3 2.940037 1_454
Ag2 Ag4 2.940040 1_564
Ag2 Ag3 2.940053 1_455
Ag2 Ag4 2.940056 1_565
Ag2 Tb0 3.090881 1_554
Ag2 Tb0 3.090896 1_555
Ag2 Tb1 3.142765 1_455
Ag2 Tb1 3.142778 1_565
Ag3 Ag4 2.922987 1_665
Ag3 Ag5 2.922991 1_565
Ag3 Tb1 3.090881 1_556
Ag3 Tb1 3.090896 1_555
Ag3 Tb0 3.142769 1_555
Ag3 Tb0 3.142775 1_655
Ag3 Ag5 3.357544 1_555
Ag3 Ag4 3.357547 1_555
Ag4 Ag5 2.922984 1_455
Ag4 Tb1 3.090888 1_556
Ag4 Tb1 3.090903 1_555
Ag4 Tb0 3.142769 1_555
Ag4 Tb0 3.142775 1_545
Ag4 Ag5 3.357551 1_555
Ag5 Tb1 3.090885 1_556
Ag5 Tb1 3.090900 1_555
Ag5 Tb0 3.142768 1_545
Ag5 Tb0 3.142775 1_655
