# generated using pymatgen
data_SiNi
_symmetry_space_group_name_H-M   'P 1'
_cell_length_a   3.28032554
_cell_length_b   2.94277066
_cell_length_c   4.67744676
_cell_angle_alpha   90.00000000
_cell_angle_beta   90.00000000
_cell_angle_gamma   90.00000000
_symmetry_Int_Tables_number   1
_chemical_formula_structural   SiNi
_chemical_formula_sum   'Si2 Ni2'
_cell_volume   45.15254308
_cell_formula_units_Z   2
loop_
 _symmetry_equiv_pos_site_id
 _symmetry_equiv_pos_as_xyz
  1  'x, y, z'
loop_
 _atom_site_type_symbol
 _atom_site_label
 _atom_site_symmetry_multiplicity
 _atom_site_fract_x
 _atom_site_fract_y
 _atom_site_fract_z
 _atom_site_occupancy
  Si  Si0  1  0.75000000  0.75000000  0.15685684  1
  Si  Si1  1  0.25000000  0.25000000  0.84314316  1
  Ni  Ni0  1  0.75000000  0.75000000  0.65750441  1
  Ni  Ni1  1  0.25000000  0.25000000  0.34249559  1
loop_
_geom_bond_atom_site_label_1
_geom_bond_atom_site_label_2
_geom_bond_distance
_geom_bond_site_symmetry_2
Si0 Si1 2.647321 1_564
Si0 Si1 2.647321 1_664
Si0 Si1 2.647321 1_654
Si0 Si1 2.647321 1_554
Ni0 Si0 2.335694 1_556
Ni0 Si0 2.341752 1_555
Ni0 Si1 2.368350 1_665
Ni0 Si1 2.368350 1_555
Ni0 Si1 2.368350 1_655
Ni0 Si1 2.368350 1_565
Ni1 Si1 2.335694 1_554
Ni1 Si1 2.341752 1_555
Ni1 Si0 2.368350 1_555
Ni1 Si0 2.368350 1_545
Ni1 Si0 2.368350 1_445
Ni1 Si0 2.368350 1_455
