# generated using pymatgen
data_LiBeH3
_symmetry_space_group_name_H-M   'P 1'
_cell_length_a   5.91169149
_cell_length_b   5.91169149
_cell_length_c   4.69228115
_cell_angle_alpha   76.01843499
_cell_angle_beta   76.01843499
_cell_angle_gamma   85.26266512
_symmetry_Int_Tables_number   1
_chemical_formula_structural   LiBeH3
_chemical_formula_sum   'Li4 Be4 H12'
_cell_volume   154.36249672
_cell_formula_units_Z   4
loop_
 _symmetry_equiv_pos_site_id
 _symmetry_equiv_pos_as_xyz
  1  'x, y, z'
loop_
 _atom_site_type_symbol
 _atom_site_label
 _atom_site_symmetry_multiplicity
 _atom_site_fract_x
 _atom_site_fract_y
 _atom_site_fract_z
 _atom_site_occupancy
  Li  Li0  1  0.09933500  0.90066500  0.25000000  1
  Li  Li1  1  0.29095500  0.70904500  0.75000000  1
  Li  Li2  1  0.70904500  0.29095500  0.25000000  1
  Li  Li3  1  0.90066500  0.09933500  0.75000000  1
  Be  Be0  1  0.62713200  0.80179500  0.26080700  1
  Be  Be1  1  0.80179500  0.62713200  0.76080700  1
  Be  Be2  1  0.19820500  0.37286800  0.23919300  1
  Be  Be3  1  0.37286800  0.19820500  0.73919300  1
  H  H0  1  0.79185200  0.97995800  0.16073200  1
  H  H1  1  0.39435500  0.88367000  0.34159700  1
  H  H2  1  0.97995800  0.79185200  0.66073200  1
  H  H3  1  0.63188600  0.65608400  0.04132100  1
  H  H4  1  0.65608400  0.63188600  0.54132100  1
  H  H5  1  0.11633000  0.60564500  0.15840300  1
  H  H6  1  0.88367000  0.39435500  0.84159700  1
  H  H7  1  0.34391600  0.36811400  0.45867900  1
  H  H8  1  0.36811400  0.34391600  0.95867900  1
  H  H9  1  0.02004200  0.20814800  0.33926800  1
  H  H10  1  0.60564500  0.11633000  0.65840300  1
  H  H11  1  0.20814800  0.02004200  0.83926800  1
loop_
_geom_bond_atom_site_label_1
_geom_bond_atom_site_label_2
_geom_bond_distance
_geom_bond_site_symmetry_2
Be0 H0 1.409795 1_555
Be0 H1 1.413584 1_555
Be0 H4 1.487389 1_555
Be0 H3 1.488009 1_555
Be1 H2 1.409795 1_555
Be1 H6 1.413584 1_555
Be1 H3 1.487389 1_556
Be1 H4 1.488009 1_555
Be2 H9 1.409795 1_555
Be2 H5 1.413584 1_555
Be2 H8 1.487389 1_554
Be2 H7 1.488009 1_555
Be3 H11 1.409795 1_555
Be3 H10 1.413584 1_555
Be3 H7 1.487389 1_555
Be3 H8 1.488009 1_555
H0 Li3 1.856040 1_564
H0 Li0 1.957468 1_655
H0 Li2 1.979804 1_565
H1 Li0 1.883880 1_555
H1 Li1 1.921967 1_555
H2 Li0 1.856040 1_655
H2 Li3 1.957468 1_565
H2 Li1 1.979804 1_655
H3 Li2 2.204082 1_555
H4 Li1 2.204082 1_555
H5 Li0 1.883880 1_555
H5 Li1 1.921967 1_554
H6 Li3 1.883880 1_555
H6 Li2 1.921967 1_556
H7 Li2 2.204082 1_555
H8 Li1 2.204082 1_555
H9 Li3 1.856040 1_455
H9 Li0 1.957468 1_545
H9 Li2 1.979804 1_455
H10 Li3 1.883880 1_555
H10 Li2 1.921967 1_555
H11 Li0 1.856040 1_546
H11 Li3 1.957468 1_455
H11 Li1 1.979804 1_545
