# generated using pymatgen
data_MoRu3
_symmetry_space_group_name_H-M   'P 1'
_cell_length_a   5.46418178
_cell_length_b   5.46418035
_cell_length_c   4.34151218
_cell_angle_alpha   90.00000000
_cell_angle_beta   90.00000000
_cell_angle_gamma   120.00000251
_symmetry_Int_Tables_number   1
_chemical_formula_structural   MoRu3
_chemical_formula_sum   'Mo2 Ru6'
_cell_volume   112.25916514
_cell_formula_units_Z   2
loop_
 _symmetry_equiv_pos_site_id
 _symmetry_equiv_pos_as_xyz
  1  'x, y, z'
loop_
 _atom_site_type_symbol
 _atom_site_label
 _atom_site_symmetry_multiplicity
 _atom_site_fract_x
 _atom_site_fract_y
 _atom_site_fract_z
 _atom_site_occupancy
  Mo  Mo0  1  0.66666800  0.33333300  0.25000200  1
  Mo  Mo1  1  0.33333400  0.66666800  0.75000100  1
  Ru  Ru0  1  0.83387890  0.16612310  0.75000100  1
  Ru  Ru1  1  0.33224620  0.16612310  0.75000100  1
  Ru  Ru2  1  0.83387790  0.66775580  0.75000100  1
  Ru  Ru3  1  0.16612310  0.83387790  0.25000200  1
  Ru  Ru4  1  0.66775580  0.83387790  0.25000200  1
  Ru  Ru5  1  0.16612310  0.33224520  0.25000200  1
loop_
_geom_bond_atom_site_label_1
_geom_bond_atom_site_label_2
_geom_bond_distance
_geom_bond_site_symmetry_2
Mo0 Ru0 2.686360 1_555
Mo0 Ru1 2.686363 1_555
Mo0 Ru2 2.686365 1_555
Mo0 Ru0 2.686367 1_554
Mo0 Ru1 2.686370 1_554
Mo0 Ru2 2.686372 1_554
Mo0 Ru4 2.732090 1_545
Mo0 Ru5 2.732090 1_655
Mo0 Ru3 2.732095 1_655
Mo0 Ru3 2.732095 1_545
Mo0 Ru4 2.732100 1_555
Mo0 Ru5 2.732101 1_555
Mo1 Ru3 2.686360 1_555
Mo1 Ru4 2.686363 1_555
Mo1 Ru5 2.686365 1_555
Mo1 Ru3 2.686367 1_556
Mo1 Ru4 2.686370 1_556
Mo1 Ru5 2.686372 1_556
Mo1 Ru1 2.732090 1_565
Mo1 Ru0 2.732095 1_455
Mo1 Ru0 2.732095 1_565
Mo1 Ru2 2.732096 1_455
Mo1 Ru2 2.732096 1_555
Mo1 Ru1 2.732100 1_555
Ru0 Ru5 2.680305 1_655
Ru0 Ru4 2.680308 1_545
Ru0 Ru5 2.680312 1_656
Ru0 Ru4 2.680315 1_546
Ru0 Ru2 2.723166 1_545
Ru0 Ru1 2.723170 1_655
Ru0 Ru1 2.741012 1_555
Ru0 Ru2 2.741014 1_555
Ru1 Ru3 2.680308 1_545
Ru1 Ru5 2.680308 1_555
Ru1 Ru3 2.680315 1_546
Ru1 Ru5 2.680315 1_556
Ru1 Ru2 2.723172 1_445
Ru1 Ru2 2.741009 1_555
Ru2 Ru4 2.680305 1_555
Ru2 Ru3 2.680308 1_655
Ru2 Ru4 2.680312 1_556
Ru2 Ru3 2.680315 1_656
Ru3 Ru5 2.723169 1_565
Ru3 Ru4 2.723170 1_455
Ru3 Ru5 2.741012 1_555
Ru3 Ru4 2.741012 1_555
Ru4 Ru5 2.723169 1_665
Ru4 Ru5 2.741012 1_555
