# generated using pymatgen
data_LaSn2Pd
_symmetry_space_group_name_H-M   'P 1'
_cell_length_a   9.89529321
_cell_length_b   9.89529321
_cell_length_c   4.63262783
_cell_angle_alpha   90.00000000
_cell_angle_beta   90.00000000
_cell_angle_gamma   26.62416121
_symmetry_Int_Tables_number   1
_chemical_formula_structural   LaSn2Pd
_chemical_formula_sum   'La2 Sn4 Pd2'
_cell_volume   203.28001473
_cell_formula_units_Z   2
loop_
 _symmetry_equiv_pos_site_id
 _symmetry_equiv_pos_as_xyz
  1  'x, y, z'
loop_
 _atom_site_type_symbol
 _atom_site_label
 _atom_site_symmetry_multiplicity
 _atom_site_fract_x
 _atom_site_fract_y
 _atom_site_fract_z
 _atom_site_occupancy
  La  La0  1  0.10861106  0.10861106  0.24999800  1
  La  La1  1  0.89138894  0.89138894  0.75000000  1
  Sn  Sn0  1  0.74891727  0.74891727  0.24999800  1
  Sn  Sn1  1  0.25108273  0.25108273  0.75000000  1
  Sn  Sn2  1  0.45806944  0.45806944  0.24999800  1
  Sn  Sn3  1  0.54193156  0.54193156  0.75000000  1
  Pd  Pd0  1  0.32304673  0.32304673  0.24999800  1
  Pd  Pd1  1  0.67695327  0.67695327  0.75000000  1
loop_
_geom_bond_atom_site_label_1
_geom_bond_atom_site_label_2
_geom_bond_distance
_geom_bond_site_symmetry_2
La0 Sn3 3.493658 1_544
La0 Sn3 3.493658 1_454
La0 Sn3 3.493670 1_545
La0 Sn3 3.493670 1_455
La0 Pd1 3.505555 1_544
La0 Pd1 3.505555 1_454
La0 Pd1 3.505567 1_545
La0 Pd1 3.505567 1_455
La0 Sn0 3.534516 1_545
La0 Sn0 3.534516 1_455
La0 Sn1 3.590808 1_554
La0 Sn1 3.590820 1_555
La0 Sn2 3.687406 1_545
La0 Sn2 3.687406 1_455
La1 Sn2 3.493665 1_566
La1 Sn2 3.493665 1_656
La1 Sn2 3.493677 1_565
La1 Sn2 3.493677 1_655
La1 Pd0 3.505555 1_656
La1 Pd0 3.505555 1_566
La1 Pd0 3.505567 1_565
La1 Pd0 3.505567 1_655
La1 Sn1 3.534516 1_655
La1 Sn1 3.534516 1_565
La1 Sn0 3.590808 1_556
La1 Sn0 3.590820 1_555
La1 Sn3 3.687421 1_655
La1 Sn3 3.687421 1_565
Sn2 Sn3 2.823786 1_554
Sn2 Sn3 2.823801 1_555
Pd0 Sn2 2.600378 1_555
Pd0 Sn0 2.688766 1_455
Pd0 Sn0 2.688766 1_545
Pd0 Sn1 2.699278 1_554
Pd0 Sn1 2.699294 1_555
Pd1 Sn3 2.600359 1_555
Pd1 Sn1 2.688766 1_565
Pd1 Sn1 2.688766 1_655
Pd1 Sn0 2.699278 1_556
Pd1 Sn0 2.699294 1_555
