# generated using pymatgen
data_BAs
_symmetry_space_group_name_H-M   'P 1'
_cell_length_a   3.39093401
_cell_length_b   3.39093401
_cell_length_c   5.60954600
_cell_angle_alpha   90.00000000
_cell_angle_beta   90.00000000
_cell_angle_gamma   120.00000023
_symmetry_Int_Tables_number   1
_chemical_formula_structural   BAs
_chemical_formula_sum   'B2 As2'
_cell_volume   55.85949707
_cell_formula_units_Z   2
loop_
 _symmetry_equiv_pos_site_id
 _symmetry_equiv_pos_as_xyz
  1  'x, y, z'
loop_
 _atom_site_type_symbol
 _atom_site_label
 _atom_site_symmetry_multiplicity
 _atom_site_fract_x
 _atom_site_fract_y
 _atom_site_fract_z
 _atom_site_occupancy
  B  B0  1  0.66666700  0.33333300  0.87467600  1
  B  B1  1  0.33333300  0.66666700  0.37467600  1
  As  As0  1  0.66666700  0.33333300  0.50032300  1
  As  As1  1  0.33333300  0.66666700  0.00032300  1
loop_
_geom_bond_atom_site_label_1
_geom_bond_atom_site_label_2
_geom_bond_distance
_geom_bond_site_symmetry_2
As0 B1 2.080764 1_545
As0 B1 2.080764 1_655
As0 B1 2.080769 1_555
As0 B0 2.099950 1_555
As1 B0 2.080764 1_454
As1 B0 2.080764 1_564
As1 B0 2.080769 1_554
As1 B1 2.099950 1_555
