# generated using pymatgen
data_Tl(IO3)3
_symmetry_space_group_name_H-M   'P 1'
_cell_length_a   5.78767100
_cell_length_b   8.18500300
_cell_length_c   8.18500366
_cell_angle_alpha   59.99999862
_cell_angle_beta   90.00000000
_cell_angle_gamma   90.00000000
_symmetry_Int_Tables_number   1
_chemical_formula_structural   Tl(IO3)3
_chemical_formula_sum   'Tl2 I6 O18'
_cell_volume   335.79342034
_cell_formula_units_Z   2
loop_
 _symmetry_equiv_pos_site_id
 _symmetry_equiv_pos_as_xyz
  1  'x, y, z'
loop_
 _atom_site_type_symbol
 _atom_site_label
 _atom_site_symmetry_multiplicity
 _atom_site_fract_x
 _atom_site_fract_y
 _atom_site_fract_z
 _atom_site_occupancy
  Tl  Tl0  1  0.17565200  0.17565200  0.82434800  1
  Tl  Tl1  1  0.82434800  0.82434800  0.17565200  1
  I  I0  1  0.71627400  0.12507300  0.57981800  1
  I  I1  1  0.42018200  0.71627400  0.87492700  1
  I  I2  1  0.12507300  0.42018200  0.28372600  1
  I  I3  1  0.28372600  0.87492700  0.42018200  1
  I  I4  1  0.57981800  0.28372600  0.12507300  1
  I  I5  1  0.87492700  0.57981800  0.71627400  1
  O  O0  1  0.78205300  0.25731700  0.41779800  1
  O  O1  1  0.58220200  0.78205300  0.74268300  1
  O  O2  1  0.25731700  0.58220200  0.21794700  1
  O  O3  1  0.21794700  0.74268300  0.58220200  1
  O  O4  1  0.41779800  0.21794700  0.25731700  1
  O  O5  1  0.74268300  0.41779800  0.78205300  1
  O  O6  1  0.68603000  0.91450500  0.42893500  1
  O  O7  1  0.57106500  0.68603000  0.08549500  1
  O  O8  1  0.91450500  0.57106500  0.31397000  1
  O  O9  1  0.31397000  0.08549500  0.57106500  1
  O  O10  1  0.42893500  0.31397000  0.91450500  1
  O  O11  1  0.08549500  0.42893500  0.68603000  1
  O  O12  1  0.93242100  0.03987100  0.69652700  1
  O  O13  1  0.30347300  0.93242100  0.96012900  1
  O  O14  1  0.03987100  0.30347300  0.06757900  1
  O  O15  1  0.06757900  0.96012900  0.30347300  1
  O  O16  1  0.69652700  0.06757900  0.03987100  1
  O  O17  1  0.96012900  0.69652700  0.93242100  1
loop_
_geom_bond_atom_site_label_1
_geom_bond_atom_site_label_2
_geom_bond_distance
_geom_bond_site_symmetry_2
I0 O0 1.280534 1_555
I0 O12 1.515802 1_555
I0 O9 2.356850 1_555
I0 O6 2.579679 1_545
I1 O1 1.325913 1_555
I1 O7 1.835121 1_556
I1 O13 2.303545 1_555
I1 O17 2.694651 1_455
I2 O2 1.385759 1_555
I2 O8 1.837768 1_455
I2 O14 2.444515 1_555
I3 O3 1.280534 1_555
I3 O15 1.515802 1_555
I3 O6 2.356850 1_555
I3 O9 2.579679 1_565
I4 O4 1.325913 1_555
I4 O10 1.835121 1_554
I4 O16 2.303545 1_555
I4 O14 2.694651 1_655
I5 O5 1.385759 1_555
I5 O11 1.837768 1_655
I5 O17 2.444515 1_555
O6 Tl1 2.648222 1_555
O7 Tl1 2.193316 1_555
O8 Tl1 1.872107 1_555
O9 Tl0 2.648222 1_555
O10 Tl0 2.193316 1_555
O11 Tl0 1.872107 1_555
O12 Tl0 2.339694 1_655
O13 Tl0 1.879715 1_565
O14 Tl0 2.785401 1_554
O15 Tl1 2.339694 1_455
O16 Tl1 1.879715 1_545
O17 Tl1 2.785401 1_556
