# generated using pymatgen
data_HfZr
_symmetry_space_group_name_H-M   'P 1'
_cell_length_a   6.43766165
_cell_length_b   6.43767245
_cell_length_c   10.20017904
_cell_angle_alpha   90.00535601
_cell_angle_beta   89.99455800
_cell_angle_gamma   119.99984797
_symmetry_Int_Tables_number   1
_chemical_formula_structural   HfZr
_chemical_formula_sum   'Hf8 Zr8'
_cell_volume   366.09695108
_cell_formula_units_Z   8
loop_
 _symmetry_equiv_pos_site_id
 _symmetry_equiv_pos_as_xyz
  1  'x, y, z'
loop_
 _atom_site_type_symbol
 _atom_site_label
 _atom_site_symmetry_multiplicity
 _atom_site_fract_x
 _atom_site_fract_y
 _atom_site_fract_z
 _atom_site_occupancy
  Hf  Hf0_0  1  0.33333223  0.16666777  0.37500039  1
  Hf  Hf0_1  1  0.33333224  0.16666777  0.87500040  1
  Hf  Hf0_2  1  0.33333224  0.66666777  0.37500039  1
  Hf  Hf0_3  1  0.33333224  0.66666777  0.87500039  1
  Hf  Hf0_4  1  0.83333224  0.16666777  0.37500039  1
  Hf  Hf0_5  1  0.83333224  0.16666777  0.87500039  1
  Hf  Hf0_6  1  0.83333223  0.66666777  0.37500039  1
  Hf  Hf0_7  1  0.83333223  0.66666777  0.87500039  1
  Zr  Zr0_0  1  0.16666876  0.33333224  0.12500011  1
  Zr  Zr0_1  1  0.16666877  0.33333224  0.62500010  1
  Zr  Zr0_2  1  0.16666877  0.83333224  0.12500011  1
  Zr  Zr0_3  1  0.16666876  0.83333224  0.62500011  1
  Zr  Zr0_4  1  0.66666877  0.33333224  0.12500011  1
  Zr  Zr0_5  1  0.66666877  0.33333224  0.62500010  1
  Zr  Zr0_6  1  0.66666877  0.83333224  0.12500011  1
  Zr  Zr0_7  1  0.66666877  0.83333224  0.62500011  1
loop_
_geom_bond_atom_site_label_1
_geom_bond_atom_site_label_2
_geom_bond_distance
_geom_bond_site_symmetry_2
Hf0_0 Zr0_1 3.155185 1_555
Hf0_0 Zr0_4 3.155300 1_555
Hf0_0 Zr0_2 3.155302 1_545
Hf0_0 Zr0_3 3.155457 1_545
Hf0_0 Zr0_5 3.155462 1_555
Hf0_0 Zr0_0 3.155517 1_555
Hf0_0 Hf0_4 3.218831 1_455
Hf0_0 Hf0_4 3.218831 1_555
Hf0_0 Hf0_2 3.218836 1_545
Hf0_0 Hf0_2 3.218836 1_555
Hf0_0 Hf0_6 3.218841 1_445
Hf0_0 Hf0_6 3.218841 1_555
Hf0_1 Zr0_0 3.155185 1_556
Hf0_1 Zr0_5 3.155300 1_555
Hf0_1 Zr0_3 3.155302 1_545
Hf0_1 Zr0_2 3.155457 1_546
Hf0_1 Zr0_4 3.155462 1_556
Hf0_1 Zr0_1 3.155517 1_555
Hf0_1 Hf0_5 3.218831 1_455
Hf0_1 Hf0_5 3.218831 1_555
Hf0_1 Hf0_3 3.218836 1_545
Hf0_1 Hf0_3 3.218836 1_555
Hf0_1 Hf0_7 3.218841 1_445
Hf0_1 Hf0_7 3.218841 1_555
Hf0_2 Zr0_3 3.155185 1_555
Hf0_2 Zr0_6 3.155300 1_555
Hf0_2 Zr0_0 3.155302 1_555
Hf0_2 Zr0_1 3.155457 1_555
Hf0_2 Zr0_7 3.155462 1_555
Hf0_2 Zr0_2 3.155517 1_555
Hf0_2 Hf0_6 3.218831 1_555
Hf0_2 Hf0_6 3.218831 1_455
Hf0_2 Hf0_4 3.218841 1_455
Hf0_2 Hf0_4 3.218841 1_565
Hf0_3 Zr0_2 3.155185 1_556
Hf0_3 Zr0_7 3.155300 1_555
Hf0_3 Zr0_1 3.155302 1_555
Hf0_3 Zr0_0 3.155457 1_556
Hf0_3 Zr0_6 3.155462 1_556
Hf0_3 Zr0_3 3.155517 1_555
Hf0_3 Hf0_7 3.218831 1_555
Hf0_3 Hf0_7 3.218831 1_455
Hf0_3 Hf0_5 3.218841 1_455
Hf0_3 Hf0_5 3.218841 1_565
Hf0_4 Zr0_5 3.155185 1_555
Hf0_4 Zr0_0 3.155300 1_655
Hf0_4 Zr0_6 3.155302 1_545
Hf0_4 Zr0_7 3.155457 1_545
Hf0_4 Zr0_1 3.155462 1_655
Hf0_4 Zr0_4 3.155517 1_555
Hf0_4 Hf0_6 3.218836 1_545
Hf0_4 Hf0_6 3.218836 1_555
Hf0_5 Zr0_4 3.155185 1_556
Hf0_5 Zr0_1 3.155300 1_655
Hf0_5 Zr0_7 3.155302 1_545
Hf0_5 Zr0_6 3.155457 1_546
Hf0_5 Zr0_0 3.155462 1_656
Hf0_5 Zr0_5 3.155517 1_555
Hf0_5 Hf0_7 3.218836 1_545
Hf0_5 Hf0_7 3.218836 1_555
Hf0_6 Zr0_7 3.155185 1_555
Hf0_6 Zr0_2 3.155300 1_655
Hf0_6 Zr0_4 3.155302 1_555
Hf0_6 Zr0_5 3.155457 1_555
Hf0_6 Zr0_3 3.155462 1_655
Hf0_6 Zr0_6 3.155517 1_555
Hf0_7 Zr0_6 3.155185 1_556
Hf0_7 Zr0_3 3.155300 1_655
Hf0_7 Zr0_5 3.155302 1_555
Hf0_7 Zr0_4 3.155457 1_556
Hf0_7 Zr0_2 3.155462 1_656
Hf0_7 Zr0_7 3.155517 1_555
Zr0_0 Zr0_4 3.218831 1_455
Zr0_0 Zr0_4 3.218831 1_555
Zr0_0 Zr0_2 3.218836 1_545
Zr0_0 Zr0_2 3.218836 1_555
Zr0_0 Zr0_6 3.218841 1_445
Zr0_0 Zr0_6 3.218841 1_555
Zr0_1 Zr0_5 3.218831 1_455
Zr0_1 Zr0_5 3.218831 1_555
Zr0_1 Zr0_3 3.218836 1_545
Zr0_1 Zr0_3 3.218836 1_555
Zr0_1 Zr0_7 3.218841 1_445
Zr0_1 Zr0_7 3.218841 1_555
Zr0_2 Zr0_6 3.218831 1_555
Zr0_2 Zr0_6 3.218831 1_455
Zr0_2 Zr0_4 3.218841 1_565
Zr0_2 Zr0_4 3.218841 1_455
Zr0_3 Zr0_7 3.218831 1_555
Zr0_3 Zr0_7 3.218831 1_455
Zr0_3 Zr0_5 3.218841 1_455
Zr0_3 Zr0_5 3.218841 1_565
Zr0_4 Zr0_6 3.218836 1_545
Zr0_4 Zr0_6 3.218836 1_555
Zr0_5 Zr0_7 3.218836 1_545
Zr0_5 Zr0_7 3.218836 1_555
