# generated using pymatgen
data_YbBiO3
_symmetry_space_group_name_H-M   'P 1'
_cell_length_a   8.57633700
_cell_length_b   8.51553483
_cell_length_c   9.89737355
_cell_angle_alpha   113.33685761
_cell_angle_beta   94.52343130
_cell_angle_gamma   102.84506040
_symmetry_Int_Tables_number   1
_chemical_formula_structural   YbBiO3
_chemical_formula_sum   'Yb8 Bi8 O24'
_cell_volume   635.73387891
_cell_formula_units_Z   8
loop_
 _symmetry_equiv_pos_site_id
 _symmetry_equiv_pos_as_xyz
  1  'x, y, z'
loop_
 _atom_site_type_symbol
 _atom_site_label
 _atom_site_symmetry_multiplicity
 _atom_site_fract_x
 _atom_site_fract_y
 _atom_site_fract_z
 _atom_site_occupancy
  Yb  Yb0  1  0.06688100  0.26073700  0.30291200  1
  Yb  Yb1  1  0.15825200  0.88535400  0.86152500  1
  Yb  Yb2  1  0.34538300  0.27560900  0.56401100  1
  Yb  Yb3  1  0.57860900  0.29752500  0.79588800  1
  Yb  Yb4  1  0.44580600  0.73189600  0.20666800  1
  Yb  Yb5  1  0.71181100  0.78171400  0.43651600  1
  Yb  Yb6  1  0.77077300  0.23198500  0.06022900  1
  Yb  Yb7  1  0.93291600  0.71217700  0.71827600  1
  Bi  Bi0  1  0.14491200  0.54874600  0.62739100  1
  Bi  Bi1  1  0.98989000  0.97255000  0.02304700  1
  Bi  Bi2  1  0.25225400  0.06170700  0.22069800  1
  Bi  Bi3  1  0.36345900  0.49222300  0.87663200  1
  Bi  Bi4  1  0.65693700  0.51052200  0.12713900  1
  Bi  Bi5  1  0.51845500  0.03321400  0.48174200  1
  Bi  Bi6  1  0.75837200  0.99029200  0.76104200  1
  Bi  Bi7  1  0.86201400  0.49371800  0.38248500  1
  O  O0  1  0.16662800  0.74750400  0.07753000  1
  O  O1  1  0.16443300  0.89937000  0.39221300  1
  O  O2  1  0.12097300  0.34965700  0.83644600  1
  O  O3  1  0.20792300  0.85880800  0.74083900  1
  O  O4  1  0.30617400  0.28014500  0.70401300  1
  O  O5  1  0.33575600  0.26408900  0.41218200  1
  O  O6  1  0.35766200  0.72314800  0.32877800  1
  O  O7  1  0.49400400  0.09419400  0.31545500  1
  O  O8  1  0.38060900  0.66436600  0.67461300  1
  O  O9  1  0.60184700  0.31439000  0.63043900  1
  O  O10  1  0.67585600  0.72050900  0.60303200  1
  O  O11  1  0.51928400  0.16197400  0.98468700  1
  O  O12  1  0.59204500  0.65615100  0.89285600  1
  O  O13  1  0.78392900  0.93784800  0.92218200  1
  O  O14  1  0.62751700  0.42904500  0.30196900  1
  O  O15  1  0.70829800  0.77889900  0.29201800  1
  O  O16  1  0.80866000  0.22026600  0.21891400  1
  O  O17  1  0.89519700  0.56328900  0.21521700  1
  O  O18  1  0.72462000  0.06161900  0.59227300  1
  O  O19  1  0.96921200  0.27346000  0.66213300  1
  O  O20  1  0.97794900  0.83171200  0.53030200  1
  O  O21  1  0.83116300  0.28576500  0.90542700  1
  O  O22  1  0.92674400  0.67781300  0.88663900  1
  O  O23  1  0.01689200  0.92581100  0.18374400  1
loop_
_geom_bond_atom_site_label_1
_geom_bond_atom_site_label_2
_geom_bond_distance
_geom_bond_site_symmetry_2
Bi0 O8 1.968611 1_555
Bi0 O19 2.652154 1_455
Bi0 Yb0 3.076938 1_555
Bi1 O23 1.796127 1_655
Bi1 O13 1.860136 1_554
Bi1 O22 2.238532 1_554
Bi1 Yb1 2.256611 1_654
Bi1 Yb0 2.781442 1_665
Bi2 O5 1.929807 1_555
Bi2 O23 2.014215 1_545
Bi2 O7 2.118370 1_555
Bi2 O0 2.380020 1_545
Bi2 Yb0 2.524210 1_555
Bi2 O1 2.637778 1_545
Bi3 O4 1.857508 1_555
Bi3 O2 2.078788 1_555
Bi3 O12 2.091332 1_555
Bi4 O17 2.034146 1_555
Bi4 O14 2.116928 1_555
Bi4 O15 2.136411 1_555
Bi5 O18 1.917468 1_555
Bi5 O7 1.921815 1_555
Bi5 O9 2.165911 1_555
Bi5 O6 2.459679 1_545
Bi6 O13 1.828592 1_555
Bi6 O18 2.012104 1_565
Bi6 O10 2.116705 1_555
Bi6 O21 2.252743 1_565
Bi7 O14 1.972310 1_555
Bi7 O17 1.987232 1_555
Bi7 O16 2.162244 1_555
Bi7 O20 2.564184 1_555
Bi7 Yb0 2.858964 1_655
O0 Yb4 2.679075 1_555
O0 Yb1 2.820498 1_554
O1 Yb2 2.936213 1_565
O3 Yb1 1.252395 1_555
O4 Yb2 1.439260 1_555
O4 Yb3 2.390078 1_555
O5 Yb2 1.461030 1_555
O5 Yb0 2.457804 1_555
O6 Yb4 1.492665 1_555
O7 Yb4 2.753065 1_545
O9 Yb3 1.722456 1_555
O9 Yb2 2.157806 1_555
O10 Yb5 1.942190 1_555
O10 Yb7 2.429705 1_555
O11 Yb6 2.094566 1_556
O13 Yb6 2.364708 1_566
O14 Yb5 2.651286 1_555
O15 Yb5 1.418638 1_555
O15 Yb4 2.230090 1_555
O16 Yb6 1.624903 1_555
O16 Yb0 2.203993 1_655
O17 Yb6 2.534884 1_555
O18 Yb5 2.239539 1_545
O19 O2 1.864115 1_655
O20 Yb5 2.274481 1_555
O20 Yb7 2.466876 1_555
O21 Yb6 1.844186 1_556
O21 Yb3 2.385157 1_555
O22 Yb7 1.805136 1_555
O23 Yb0 2.533909 1_565
