# generated using pymatgen
data_Nd2Pt2O7
_symmetry_space_group_name_H-M   'P 1'
_cell_length_a   7.37665567
_cell_length_b   7.37665567
_cell_length_c   7.37665567
_cell_angle_alpha   60.00000000
_cell_angle_beta   60.00000000
_cell_angle_gamma   60.00000000
_symmetry_Int_Tables_number   1
_chemical_formula_structural   Nd2Pt2O7
_chemical_formula_sum   'Nd4 Pt4 O14'
_cell_volume   283.83342533
_cell_formula_units_Z   2
loop_
 _symmetry_equiv_pos_site_id
 _symmetry_equiv_pos_as_xyz
  1  'x, y, z'
loop_
 _atom_site_type_symbol
 _atom_site_label
 _atom_site_symmetry_multiplicity
 _atom_site_fract_x
 _atom_site_fract_y
 _atom_site_fract_z
 _atom_site_occupancy
  Nd  Nd0  1  0.62500000  0.62500000  0.12500000  1
  Nd  Nd1  1  0.62500000  0.12500000  0.62500000  1
  Nd  Nd2  1  0.12500000  0.62500000  0.62500000  1
  Nd  Nd3  1  0.62500000  0.62500000  0.62500000  1
  Pt  Pt0  1  0.12500000  0.12500000  0.62500000  1
  Pt  Pt1  1  0.12500000  0.62500000  0.12500000  1
  Pt  Pt2  1  0.62500000  0.12500000  0.12500000  1
  Pt  Pt3  1  0.12500000  0.12500000  0.12500000  1
  O  O0  1  0.50000000  0.50000000  0.50000000  1
  O  O1  1  0.75000000  0.75000000  0.75000000  1
  O  O2  1  0.45952592  0.04047408  0.45952592  1
  O  O3  1  0.20952592  0.79047408  0.20952592  1
  O  O4  1  0.45952592  0.45952592  0.04047408  1
  O  O5  1  0.04047408  0.45952592  0.45952592  1
  O  O6  1  0.45952592  0.04047408  0.04047408  1
  O  O7  1  0.04047408  0.04047408  0.45952592  1
  O  O8  1  0.04047408  0.45952592  0.04047408  1
  O  O9  1  0.79047408  0.20952592  0.20952592  1
  O  O10  1  0.20952592  0.79047408  0.79047408  1
  O  O11  1  0.79047408  0.20952592  0.79047408  1
  O  O12  1  0.20952592  0.20952592  0.79047408  1
  O  O13  1  0.79047408  0.79047408  0.20952592  1
loop_
_geom_bond_atom_site_label_1
_geom_bond_atom_site_label_2
_geom_bond_distance
_geom_bond_site_symmetry_2
Nd0 O0 2.258630 1_555
Nd0 O1 2.258630 1_554
Nd0 O13 2.526042 1_555
Nd0 O3 2.526042 1_555
Nd0 O9 2.526042 1_555
Nd0 O6 2.526042 1_565
Nd0 O4 2.526042 1_555
Nd0 O8 2.526042 1_655
Nd1 O1 2.258630 1_545
Nd1 O0 2.258630 1_555
Nd1 O11 2.526042 1_555
Nd1 O9 2.526042 1_555
Nd1 O12 2.526042 1_555
Nd1 O7 2.526042 1_655
Nd1 O2 2.526042 1_555
Nd1 O6 2.526042 1_556
Nd2 O0 2.258630 1_555
Nd2 O1 2.258630 1_455
Nd2 O10 2.526042 1_555
Nd2 O3 2.526042 1_555
Nd2 O12 2.526042 1_555
Nd2 O8 2.526042 1_556
Nd2 O5 2.526042 1_555
Nd2 O7 2.526042 1_565
Nd3 O0 2.258630 1_555
Nd3 O1 2.258630 1_555
Nd3 O10 2.526042 1_555
Nd3 O11 2.526042 1_555
Nd3 O13 2.526042 1_555
Nd3 O2 2.526042 1_565
Nd3 O4 2.526042 1_556
Nd3 O5 2.526042 1_655
O2 Pt0 2.044136 1_555
O2 Pt2 2.044136 1_555
O3 Pt1 2.044136 1_555
O3 Pt3 2.044136 1_565
O4 Pt2 2.044136 1_555
O4 Pt1 2.044136 1_555
O5 Pt0 2.044136 1_555
O5 Pt1 2.044136 1_555
O6 Pt3 2.044136 1_555
O6 Pt2 2.044136 1_555
O7 Pt3 2.044136 1_555
O7 Pt0 2.044136 1_555
O8 Pt3 2.044136 1_555
O8 Pt1 2.044136 1_555
O9 Pt2 2.044136 1_555
O9 Pt3 2.044136 1_655
O10 Pt0 2.044136 1_565
O10 Pt1 2.044136 1_556
O11 Pt0 2.044136 1_655
O11 Pt2 2.044136 1_556
O12 Pt0 2.044136 1_555
O12 Pt3 2.044136 1_556
O13 Pt1 2.044136 1_655
O13 Pt2 2.044136 1_565
