# generated using pymatgen
data_U
_symmetry_space_group_name_H-M   'P 1'
_cell_length_a   5.58364995
_cell_length_b   10.44077124
_cell_length_c   10.44077124
_cell_angle_alpha   90.00000000
_cell_angle_beta   90.00000000
_cell_angle_gamma   90.00000000
_symmetry_Int_Tables_number   1
_chemical_formula_structural   U
_chemical_formula_sum   U30
_cell_volume   608.67202877
_cell_formula_units_Z   30
loop_
 _symmetry_equiv_pos_site_id
 _symmetry_equiv_pos_as_xyz
  1  'x, y, z'
loop_
 _atom_site_type_symbol
 _atom_site_label
 _atom_site_symmetry_multiplicity
 _atom_site_fract_x
 _atom_site_fract_y
 _atom_site_fract_z
 _atom_site_occupancy
  U  U0  1  0.50000000  0.00000000  -0.00000000  1
  U  U1  1  -0.00000000  0.50000000  0.50000000  1
  U  U2  1  -0.00000000  0.10940910  0.10940910  1
  U  U3  1  0.50000000  0.39059090  0.60940910  1
  U  U4  1  0.50000000  0.60940910  0.39059090  1
  U  U5  1  -0.00000000  0.89059090  0.89059090  1
  U  U6  1  0.27403974  0.32206775  0.32206775  1
  U  U7  1  0.77403974  0.17793225  0.82206775  1
  U  U8  1  0.77403974  0.82206775  0.17793225  1
  U  U9  1  0.27403974  0.67793225  0.67793225  1
  U  U10  1  0.22596026  0.82206775  0.17793225  1
  U  U11  1  0.22596026  0.17793225  0.82206775  1
  U  U12  1  0.72596026  0.32206775  0.32206775  1
  U  U13  1  0.72596026  0.67793225  0.67793225  1
  U  U14  1  -0.00000000  0.55775027  0.23252136  1
  U  U15  1  0.50000000  0.26747864  0.05775027  1
  U  U16  1  0.50000000  0.73252136  0.94224973  1
  U  U17  1  -0.00000000  0.44224973  0.76747864  1
  U  U18  1  0.50000000  0.05775027  0.26747864  1
  U  U19  1  0.50000000  0.94224973  0.73252136  1
  U  U20  1  -0.00000000  0.23252136  0.55775027  1
  U  U21  1  -0.00000000  0.76747864  0.44224973  1
  U  U22  1  -0.00000000  0.36607727  0.04829249  1
  U  U23  1  0.50000000  0.45170751  0.86607727  1
  U  U24  1  0.50000000  0.54829249  0.13392273  1
  U  U25  1  -0.00000000  0.63392273  0.95170751  1
  U  U26  1  0.50000000  0.86607727  0.45170751  1
  U  U27  1  0.50000000  0.13392273  0.54829249  1
  U  U28  1  -0.00000000  0.04829249  0.36607727  1
  U  U29  1  -0.00000000  0.95170751  0.63392273  1
loop_
_geom_bond_atom_site_label_1
_geom_bond_atom_site_label_2
_geom_bond_distance
_geom_bond_site_symmetry_2
U0 U19 2.857033 1_544
U0 U16 2.857033 1_544
U0 U15 2.857033 1_555
U0 U18 2.857033 1_555
U0 U8 3.040362 1_545
U0 U7 3.040362 1_554
U0 U11 3.040362 1_554
U0 U10 3.040362 1_545
U0 U2 3.225532 1_555
U0 U2 3.225532 1_655
U0 U5 3.225532 1_544
U0 U5 3.225532 1_644
U1 U20 2.857033 1_555
U1 U17 2.857033 1_555
U1 U14 2.857033 1_555
U1 U21 2.857033 1_555
U1 U12 3.040362 1_455
U1 U13 3.040362 1_455
U1 U9 3.040362 1_555
U1 U6 3.040362 1_555
U1 U4 3.225532 1_555
U1 U3 3.225532 1_455
U1 U3 3.225532 1_555
U1 U4 3.225532 1_455
U2 U28 2.754737 1_555
U2 U22 2.754737 1_555
U2 U5 3.230956 1_544
U2 U8 3.332279 1_445
U2 U7 3.332279 1_454
U2 U6 3.492990 1_555
U3 U4 3.230956 1_555
U3 U6 3.332279 1_555
U3 U9 3.332279 1_555
U3 U7 3.492990 1_555
U4 U6 3.332279 1_555
U4 U9 3.332279 1_555
U4 U8 3.492990 1_555
U5 U8 3.332279 1_456
U5 U7 3.332279 1_465
U5 U9 3.492990 1_555
U10 U8 2.523366 1_455
U10 U16 3.044752 1_554
U10 U18 3.044752 1_565
U10 U14 3.087477 1_555
U10 U21 3.087477 1_555
U10 U24 3.274609 1_555
U10 U26 3.274609 1_555
U10 U28 3.321067 1_565
U10 U25 3.321067 1_554
U10 U2 3.332279 1_565
U10 U5 3.332279 1_554
U10 U4 3.492990 1_555
U11 U7 2.523366 1_455
U11 U19 3.044752 1_545
U11 U15 3.044752 1_556
U11 U20 3.087477 1_555
U11 U17 3.087477 1_555
U11 U27 3.274609 1_555
U11 U23 3.274609 1_555
U11 U22 3.321067 1_556
U11 U29 3.321067 1_545
U11 U2 3.332279 1_556
U11 U5 3.332279 1_545
U11 U3 3.492990 1_555
U12 U6 2.523366 1_555
U12 U20 3.044752 1_655
U12 U14 3.044752 1_655
U12 U15 3.087477 1_555
U12 U18 3.087477 1_555
U12 U28 3.274609 1_655
U12 U22 3.274609 1_655
U12 U24 3.321067 1_555
U12 U27 3.321067 1_555
U12 U4 3.332279 1_555
U12 U3 3.332279 1_555
U12 U2 3.492990 1_655
U13 U9 2.523366 1_555
U13 U17 3.044752 1_655
U13 U21 3.044752 1_655
U13 U16 3.087477 1_555
U13 U19 3.087477 1_555
U13 U29 3.274609 1_655
U13 U25 3.274609 1_655
U13 U23 3.321067 1_555
U13 U26 3.321067 1_555
U13 U3 3.332279 1_555
U13 U4 3.332279 1_555
U13 U5 3.492990 1_655
U14 U22 2.775730 1_555
U14 U24 2.977213 1_555
U14 U24 2.977213 1_455
U14 U25 3.037864 1_554
U14 U6 3.044752 1_555
U14 U8 3.087477 1_455
U14 U21 3.096740 1_555
U14 U4 3.287690 1_555
U14 U4 3.287690 1_455
U15 U23 2.775730 1_554
U15 U22 2.977213 1_655
U15 U22 2.977213 1_555
U15 U24 3.037864 1_555
U15 U7 3.044752 1_554
U15 U6 3.087477 1_555
U15 U18 3.096740 1_555
U15 U2 3.287690 1_555
U15 U2 3.287690 1_655
U16 U24 2.775730 1_556
U16 U25 2.977213 1_555
U16 U25 2.977213 1_655
U16 U23 3.037864 1_555
U16 U8 3.044752 1_556
U16 U9 3.087477 1_555
U16 U19 3.096740 1_555
U16 U5 3.287690 1_655
U16 U5 3.287690 1_555
U17 U25 2.775730 1_555
U17 U23 2.977213 1_455
U17 U23 2.977213 1_555
U17 U22 3.037864 1_556
U17 U9 3.044752 1_555
U17 U7 3.087477 1_455
U17 U20 3.096740 1_555
U17 U3 3.287690 1_555
U17 U3 3.287690 1_455
U18 U26 2.775730 1_545
U18 U28 2.977213 1_555
U18 U28 2.977213 1_655
U18 U27 3.037864 1_555
U18 U8 3.044752 1_545
U18 U6 3.087477 1_555
U18 U2 3.287690 1_555
U18 U2 3.287690 1_655
U19 U27 2.775730 1_565
U19 U29 2.977213 1_655
U19 U29 2.977213 1_555
U19 U26 3.037864 1_555
U19 U7 3.044752 1_565
U19 U9 3.087477 1_555
U19 U5 3.287690 1_555
U19 U5 3.287690 1_655
U20 U28 2.775730 1_555
U20 U27 2.977213 1_555
U20 U27 2.977213 1_455
U20 U29 3.037864 1_545
U20 U6 3.044752 1_555
U20 U7 3.087477 1_455
U20 U3 3.287690 1_455
U20 U3 3.287690 1_555
U21 U29 2.775730 1_555
U21 U26 2.977213 1_455
U21 U26 2.977213 1_555
U21 U28 3.037864 1_565
U21 U9 3.044752 1_555
U21 U8 3.087477 1_455
U21 U4 3.287690 1_555
U21 U4 3.287690 1_455
U22 U25 2.972777 1_554
U22 U6 3.274609 1_555
U22 U7 3.321067 1_454
U22 U23 3.494708 1_454
U22 U23 3.494708 1_554
U22 U24 3.494708 1_555
U22 U24 3.494708 1_455
U23 U3 2.754737 1_555
U23 U24 2.972777 1_556
U23 U7 3.274609 1_555
U23 U9 3.321067 1_555
U23 U25 3.494708 1_555
U23 U25 3.494708 1_655
U24 U4 2.754737 1_555
U24 U8 3.274609 1_555
U24 U6 3.321067 1_555
U24 U25 3.494708 1_554
U24 U25 3.494708 1_654
U25 U5 2.754737 1_555
U25 U9 3.274609 1_555
U25 U8 3.321067 1_456
U26 U4 2.754737 1_555
U26 U27 2.972777 1_565
U26 U8 3.274609 1_555
U26 U9 3.321067 1_555
U26 U29 3.494708 1_555
U26 U28 3.494708 1_565
U26 U28 3.494708 1_665
U26 U29 3.494708 1_655
U27 U3 2.754737 1_555
U27 U7 3.274609 1_555
U27 U6 3.321067 1_555
U27 U29 3.494708 1_645
U27 U28 3.494708 1_555
U27 U29 3.494708 1_545
U27 U28 3.494708 1_655
U28 U29 2.972777 1_545
U28 U6 3.274609 1_555
U28 U8 3.321067 1_445
U29 U5 2.754737 1_555
U29 U9 3.274609 1_555
U29 U7 3.321067 1_465
