# generated using pymatgen
data_NaCd2Au
_symmetry_space_group_name_H-M   'P 1'
_cell_length_a   4.91656719
_cell_length_b   4.91656719
_cell_length_c   4.91656719
_cell_angle_alpha   60.00000000
_cell_angle_beta   60.00000000
_cell_angle_gamma   60.00000000
_symmetry_Int_Tables_number   1
_chemical_formula_structural   NaCd2Au
_chemical_formula_sum   'Na1 Cd2 Au1'
_cell_volume   84.03707694
_cell_formula_units_Z   1
loop_
 _symmetry_equiv_pos_site_id
 _symmetry_equiv_pos_as_xyz
  1  'x, y, z'
loop_
 _atom_site_type_symbol
 _atom_site_label
 _atom_site_symmetry_multiplicity
 _atom_site_fract_x
 _atom_site_fract_y
 _atom_site_fract_z
 _atom_site_occupancy
  Na  Na0  1  0.00000000  0.00000000  0.00000000  1
  Cd  Cd0  1  0.75000000  0.75000000  0.75000000  1
  Cd  Cd1  1  0.25000000  0.25000000  0.25000000  1
  Au  Au0  1  0.50000000  0.50000000  0.50000000  1
loop_
_geom_bond_atom_site_label_1
_geom_bond_atom_site_label_2
_geom_bond_distance
_geom_bond_site_symmetry_2
Cd0 Na0 3.010770 1_666
Cd0 Na0 3.010770 1_656
Cd0 Na0 3.010770 1_665
Cd0 Na0 3.010770 1_566
Cd1 Na0 3.010770 1_555
Cd1 Na0 3.010770 1_556
Cd1 Na0 3.010770 1_565
Cd1 Na0 3.010770 1_655
Au0 Cd1 3.010770 1_556
Au0 Cd1 3.010770 1_565
Au0 Cd0 3.010770 1_554
Au0 Cd0 3.010770 1_555
Au0 Cd1 3.010770 1_555
Au0 Cd0 3.010770 1_545
Au0 Cd1 3.010770 1_655
Au0 Cd0 3.010770 1_455
Au0 Na0 3.476538 1_656
Au0 Na0 3.476538 1_655
Au0 Na0 3.476538 1_556
Au0 Na0 3.476538 1_565
Au0 Na0 3.476538 1_665
Au0 Na0 3.476538 1_566
