# generated using pymatgen
data_Ba(Sb3Ru)4
_symmetry_space_group_name_H-M   'P 1'
_cell_length_a   8.12397818
_cell_length_b   8.12397804
_cell_length_c   8.12397768
_cell_angle_alpha   109.47121462
_cell_angle_beta   109.47121423
_cell_angle_gamma   109.47122730
_symmetry_Int_Tables_number   1
_chemical_formula_structural   Ba(Sb3Ru)4
_chemical_formula_sum   'Ba1 Sb12 Ru4'
_cell_volume   412.74740438
_cell_formula_units_Z   1
loop_
 _symmetry_equiv_pos_site_id
 _symmetry_equiv_pos_as_xyz
  1  'x, y, z'
loop_
 _atom_site_type_symbol
 _atom_site_label
 _atom_site_symmetry_multiplicity
 _atom_site_fract_x
 _atom_site_fract_y
 _atom_site_fract_z
 _atom_site_occupancy
  Ba  Ba0  1  0.00000000  0.00000000  0.00000000  1
  Sb  Sb0  1  0.65552090  0.15991149  0.81543239  1
  Sb  Sb1  1  0.34447910  0.15991149  0.50439058  1
  Sb  Sb2  1  0.84008851  0.49560942  0.65552090  1
  Sb  Sb3  1  0.18456761  0.34447910  0.84008851  1
  Sb  Sb4  1  0.15991149  0.81543239  0.65552090  1
  Sb  Sb5  1  0.49560942  0.65552090  0.84008851  1
  Sb  Sb6  1  0.84008851  0.18456761  0.34447910  1
  Sb  Sb7  1  0.81543239  0.65552090  0.15991149  1
  Sb  Sb8  1  0.50439058  0.34447910  0.15991149  1
  Sb  Sb9  1  0.15991149  0.50439058  0.34447910  1
  Sb  Sb10  1  0.65552090  0.84008851  0.49560942  1
  Sb  Sb11  1  0.34447910  0.84008851  0.18456761  1
  Ru  Ru0  1  0.50000000  0.50000000  0.50000000  1
  Ru  Ru1  1  0.50000000  0.00000000  0.00000000  1
  Ru  Ru2  1  0.00000000  0.50000000  0.00000000  1
  Ru  Ru3  1  0.00000000  0.00000000  0.50000000  1
loop_
_geom_bond_atom_site_label_1
_geom_bond_atom_site_label_2
_geom_bond_distance
_geom_bond_site_symmetry_2
Ba0 Sb3 3.562683 1_554
Ba0 Sb7 3.562683 1_445
Ba0 Sb5 3.562684 1_444
Ba0 Sb8 3.562684 1_555
Ba0 Sb6 3.562684 1_455
Ba0 Sb4 3.562684 1_544
Ba0 Sb2 3.562684 1_444
Ba0 Sb9 3.562684 1_555
Ba0 Sb10 3.562684 1_444
Ba0 Sb1 3.562684 1_555
Ba0 Sb11 3.562684 1_545
Ba0 Sb0 3.562684 1_454
Sb0 Sb1 2.917809 1_555
Sb0 Sb10 3.000183 1_545
Sb1 Sb11 3.000183 1_545
Sb2 Sb6 2.917809 1_555
Sb2 Sb4 3.000183 1_655
Sb3 Sb5 2.917809 1_555
Sb3 Sb8 3.000183 1_556
Sb4 Sb9 2.917809 1_555
Sb5 Sb7 3.000183 1_556
Sb6 Sb9 3.000183 1_655
Sb7 Sb8 2.917809 1_555
Sb10 Sb11 2.917809 1_555
Ru0 Sb10 2.645678 1_555
Ru0 Sb1 2.645678 1_555
Ru0 Sb8 2.645678 1_555
Ru0 Sb5 2.645678 1_555
Ru0 Sb9 2.645678 1_555
Ru0 Sb2 2.645678 1_555
Ru1 Sb11 2.645678 1_545
Ru1 Sb0 2.645678 1_554
Ru1 Sb8 2.645678 1_555
Ru1 Sb5 2.645678 1_544
Ru1 Sb4 2.645678 1_544
Ru1 Sb6 2.645678 1_555
Ru2 Sb0 2.645678 1_454
Ru2 Sb11 2.645678 1_555
Ru2 Sb7 2.645678 1_455
Ru2 Sb3 2.645678 1_554
Ru2 Sb9 2.645678 1_555
Ru2 Sb2 2.645678 1_454
Ru3 Sb1 2.645678 1_555
Ru3 Sb10 2.645678 1_445
Ru3 Sb6 2.645678 1_455
Ru3 Sb4 2.645678 1_545
Ru3 Sb7 2.645678 1_445
Ru3 Sb3 2.645678 1_555
