# generated using pymatgen
data_RbSm(CO3)2
_symmetry_space_group_name_H-M   'P 1'
_cell_length_a   6.57443359
_cell_length_b   6.57443359
_cell_length_c   7.32466753
_cell_angle_alpha   75.68453675
_cell_angle_beta   75.68453675
_cell_angle_gamma   94.84905539
_symmetry_Int_Tables_number   1
_chemical_formula_structural   RbSm(CO3)2
_chemical_formula_sum   'Rb2 Sm2 C4 O12'
_cell_volume   293.63995693
_cell_formula_units_Z   2
loop_
 _symmetry_equiv_pos_site_id
 _symmetry_equiv_pos_as_xyz
  1  'x, y, z'
loop_
 _atom_site_type_symbol
 _atom_site_label
 _atom_site_symmetry_multiplicity
 _atom_site_fract_x
 _atom_site_fract_y
 _atom_site_fract_z
 _atom_site_occupancy
  Rb  Rb0  1  0.88583000  0.11417000  0.25000000  1
  Rb  Rb1  1  0.11417000  0.88583000  0.75000000  1
  Sm  Sm0  1  0.40411100  0.59588900  0.25000000  1
  Sm  Sm1  1  0.59588900  0.40411100  0.75000000  1
  C  C0  1  0.60384200  0.85116000  0.75195800  1
  C  C1  1  0.14884000  0.39615800  0.74804200  1
  C  C2  1  0.39615800  0.14884000  0.24804200  1
  C  C3  1  0.85116000  0.60384200  0.25195800  1
  O  O0  1  0.04864300  0.60137200  0.23747600  1
  O  O1  1  0.39862800  0.95135700  0.26252400  1
  O  O2  1  0.95135700  0.39862800  0.76252400  1
  O  O3  1  0.60137200  0.04864300  0.73747600  1
  O  O4  1  0.78449600  0.73462000  0.12368500  1
  O  O5  1  0.26538000  0.21550400  0.37631500  1
  O  O6  1  0.21550400  0.26538000  0.87631500  1
  O  O7  1  0.73462000  0.78449600  0.62368500  1
  O  O8  1  0.70260800  0.46869800  0.39702000  1
  O  O9  1  0.53130200  0.29739200  0.10298000  1
  O  O10  1  0.29739200  0.53130200  0.60298000  1
  O  O11  1  0.46869800  0.70260800  0.89702000  1
loop_
_geom_bond_atom_site_label_1
_geom_bond_atom_site_label_2
_geom_bond_distance
_geom_bond_site_symmetry_2
C0 O3 1.278088 1_565
C0 O7 1.296902 1_555
C0 O11 1.321175 1_555
C1 O2 1.278088 1_455
C1 O6 1.296902 1_555
C1 O10 1.321175 1_555
C2 O1 1.278088 1_545
C2 O5 1.296902 1_555
C2 O9 1.321175 1_555
C3 O0 1.278088 1_655
C3 O4 1.296902 1_555
C3 O8 1.321175 1_555
O0 Sm0 2.364299 1_555
O1 Sm0 2.364299 1_555
O2 Sm1 2.364299 1_555
O3 Sm1 2.364299 1_555
O4 Sm0 2.448436 1_555
O4 Rb1 2.921333 1_654
O4 Rb0 2.948218 1_565
O5 Sm0 2.448436 1_555
O5 Rb1 2.921333 1_545
O5 Rb0 2.948218 1_455
O6 Sm1 2.448436 1_555
O6 Rb0 2.921333 1_456
O6 Rb1 2.948218 1_545
O7 Sm1 2.448436 1_555
O7 Rb0 2.921333 1_565
O7 Rb1 2.948218 1_655
O8 Sm1 2.422156 1_555
O8 Sm0 2.566574 1_555
O8 Rb0 3.019574 1_555
O9 Sm1 2.422156 1_554
O9 Sm0 2.566574 1_555
O9 Rb0 3.019574 1_555
O10 Sm0 2.422156 1_555
O10 Sm1 2.566574 1_555
O10 Rb1 3.019574 1_555
O11 Sm0 2.422156 1_556
O11 Sm1 2.566574 1_555
O11 Rb1 3.019574 1_555
