# generated using pymatgen
data_PrLu3
_symmetry_space_group_name_H-M   'P 1'
_cell_length_a   7.16379090
_cell_length_b   7.16374465
_cell_length_c   5.67854370
_cell_angle_alpha   90.00000000
_cell_angle_beta   90.00000000
_cell_angle_gamma   119.99979296
_symmetry_Int_Tables_number   1
_chemical_formula_structural   PrLu3
_chemical_formula_sum   'Pr2 Lu6'
_cell_volume   252.37800793
_cell_formula_units_Z   2
loop_
 _symmetry_equiv_pos_site_id
 _symmetry_equiv_pos_as_xyz
  1  'x, y, z'
loop_
 _atom_site_type_symbol
 _atom_site_label
 _atom_site_symmetry_multiplicity
 _atom_site_fract_x
 _atom_site_fract_y
 _atom_site_fract_z
 _atom_site_occupancy
  Pr  Pr0  1  0.33332733  0.66666416  0.74999900  1
  Pr  Pr1  1  0.66666309  0.33333104  0.25000000  1
  Lu  Lu0  1  0.16342796  0.32684131  0.25000000  1
  Lu  Lu1  1  0.67315033  0.83657366  0.25000000  1
  Lu  Lu2  1  0.16342696  0.83658465  0.25000000  1
  Lu  Lu3  1  0.83659472  0.67317191  0.74999900  1
  Lu  Lu4  1  0.32681590  0.16340945  0.74999900  1
  Lu  Lu5  1  0.83659372  0.16342381  0.74999900  1
loop_
_geom_bond_atom_site_label_1
_geom_bond_atom_site_label_2
_geom_bond_distance
_geom_bond_site_symmetry_2
Lu0 Lu4 3.488918 1_555
Lu0 Lu4 3.488928 1_554
Lu0 Lu5 3.488978 1_455
Lu0 Lu5 3.488987 1_454
Lu0 Lu2 3.512070 1_545
Lu0 Lu1 3.512210 1_445
Lu0 Pr0 3.536410 1_555
Lu0 Pr0 3.536419 1_554
Lu0 Pr1 3.582052 1_555
Lu0 Pr1 3.582191 1_455
Lu0 Lu1 3.651580 1_555
Lu0 Lu2 3.651675 1_555
Lu1 Lu3 3.489013 1_555
Lu1 Lu3 3.489023 1_554
Lu1 Lu5 3.489028 1_565
Lu1 Lu5 3.489037 1_564
Lu1 Lu2 3.512200 1_655
Lu1 Pr0 3.536418 1_555
Lu1 Pr0 3.536427 1_554
Lu1 Pr1 3.582091 1_555
Lu1 Pr1 3.582106 1_565
Lu1 Lu2 3.651591 1_555
Lu2 Lu4 3.488936 1_565
Lu2 Lu4 3.488946 1_564
Lu2 Lu3 3.488971 1_455
Lu2 Lu3 3.488980 1_454
Lu2 Pr0 3.536402 1_555
Lu2 Pr0 3.536412 1_554
Lu2 Pr1 3.582059 1_565
Lu2 Pr1 3.582184 1_455
Lu3 Lu4 3.511900 1_665
Lu3 Lu5 3.512043 1_565
Lu3 Pr1 3.536476 1_555
Lu3 Pr1 3.536485 1_556
Lu3 Pr0 3.582026 1_655
Lu3 Pr0 3.582220 1_555
Lu3 Lu5 3.651702 1_555
Lu3 Lu4 3.651890 1_555
Lu4 Lu5 3.511901 1_455
Lu4 Pr1 3.536508 1_555
Lu4 Pr1 3.536517 1_556
Lu4 Pr0 3.582093 1_555
Lu4 Pr0 3.582107 1_545
Lu4 Lu5 3.651890 1_555
Lu5 Pr1 3.536465 1_555
Lu5 Pr1 3.536474 1_556
Lu5 Pr0 3.582029 1_655
Lu5 Pr0 3.582216 1_545
