# generated using pymatgen
data_YErIr2
_symmetry_space_group_name_H-M   'P 1'
_cell_length_a   4.80334804
_cell_length_b   4.80330120
_cell_length_c   4.80048419
_cell_angle_alpha   60.02032404
_cell_angle_beta   60.01923557
_cell_angle_gamma   59.96025622
_symmetry_Int_Tables_number   1
_chemical_formula_structural   YErIr2
_chemical_formula_sum   'Y1 Er1 Ir2'
_cell_volume   78.31645217
_cell_formula_units_Z   1
loop_
 _symmetry_equiv_pos_site_id
 _symmetry_equiv_pos_as_xyz
  1  'x, y, z'
loop_
 _atom_site_type_symbol
 _atom_site_label
 _atom_site_symmetry_multiplicity
 _atom_site_fract_x
 _atom_site_fract_y
 _atom_site_fract_z
 _atom_site_occupancy
  Y  Y0  1  0.74999911  0.74999989  0.75000020  1
  Er  Er0  1  0.25000314  0.24999886  0.24999737  1
  Ir  Ir0  1  0.49999831  0.50000256  0.49999678  1
  Ir  Ir1  1  -0.00000056  0.99999769  0.00000565  1
loop_
_geom_bond_atom_site_label_1
_geom_bond_atom_site_label_2
_geom_bond_distance
_geom_bond_site_symmetry_2
Er0 Ir1 2.940817 1_645
Er0 Ir0 2.940821 1_545
Er0 Ir1 2.940830 1_555
Er0 Ir1 2.940832 1_545
Er0 Ir0 2.940839 1_555
Er0 Ir0 2.940850 1_455
Er0 Ir0 2.940861 1_554
Er0 Ir1 2.940891 1_546
Ir0 Y0 2.940828 1_455
Ir0 Y0 2.940845 1_554
Ir0 Y0 2.940846 1_545
Ir0 Y0 2.940851 1_555
Ir1 Y0 2.940830 1_554
Ir1 Y0 2.940837 1_455
Ir1 Y0 2.940844 1_464
Ir1 Y0 2.940859 1_454
