# generated using pymatgen
data_Tm2Ni12As7
_symmetry_space_group_name_H-M   'P 1'
_cell_length_a   9.27605291
_cell_length_b   9.27488210
_cell_length_c   3.77739960
_cell_angle_alpha   90.00002890
_cell_angle_beta   89.99997471
_cell_angle_gamma   119.99795875
_symmetry_Int_Tables_number   1
_chemical_formula_structural   Tm2Ni12As7
_chemical_formula_sum   'Tm2 Ni12 As7'
_cell_volume   281.45185128
_cell_formula_units_Z   1
loop_
 _symmetry_equiv_pos_site_id
 _symmetry_equiv_pos_as_xyz
  1  'x, y, z'
loop_
 _atom_site_type_symbol
 _atom_site_label
 _atom_site_symmetry_multiplicity
 _atom_site_fract_x
 _atom_site_fract_y
 _atom_site_fract_z
 _atom_site_occupancy
  Tm  Tm0  1  0.00005079  0.00001298  0.00000011  1
  Tm  Tm1  1  0.33334680  0.66667643  0.49999965  1
  Ni  Ni0  1  0.81869787  0.61307030  -0.00000028  1
  Ni  Ni1  1  0.38713882  0.20569599  -0.00000025  1
  Ni  Ni2  1  0.79447207  0.18134746  0.00000045  1
  Ni  Ni3  1  0.04363349  0.76065950  0.49999979  1
  Ni  Ni4  1  0.23938522  0.28301335  0.49999981  1
  Ni  Ni5  1  0.71696844  0.95641149  0.49999972  1
  Ni  Ni6  1  0.10477365  0.39255101  0.00000076  1
  Ni  Ni7  1  0.60748919  0.71221713  0.00000003  1
  Ni  Ni8  1  0.28796418  0.89541229  0.00000036  1
  Ni  Ni9  1  0.87709303  0.42778477  0.50000039  1
  Ni  Ni10  1  0.57141568  0.44930022  0.49999898  1
  Ni  Ni11  1  0.55059552  0.12233371  0.49999943  1
  As  As0  1  0.66674946  0.33335760  0.00000014  1
  As  As1  1  0.77702379  0.74143658  0.50000131  1
  As  As2  1  0.25859327  0.03563406  0.50000018  1
  As  As3  1  0.96443832  0.22293562  0.50000094  1
  As  As4  1  0.07251501  0.62213999  -0.00000014  1
  As  As5  1  0.37799487  0.45038143  -0.00000060  1
  As  As6  1  0.54965952  0.92762807  -0.00000077  1
loop_
_geom_bond_atom_site_label_1
_geom_bond_atom_site_label_2
_geom_bond_distance
_geom_bond_site_symmetry_2
Ni0 Tm0 3.110117 1_665
Ni1 Tm0 3.111691 1_555
Ni2 Tm0 3.110010 1_655
Ni3 Tm0 3.091333 1_566
Ni3 Tm0 3.091333 1_565
Ni3 Tm1 3.213151 1_555
Ni4 Tm0 3.091697 1_555
Ni4 Tm0 3.091698 1_556
Ni4 Tm1 3.212598 1_555
Ni5 Tm0 3.092597 1_665
Ni5 Tm0 3.092600 1_666
Ni5 Tm1 3.212824 1_555
Ni6 Tm1 3.022662 1_555
Ni6 Tm1 3.022668 1_554
Ni6 Tm0 3.265304 1_555
Ni7 Tm1 3.022944 1_555
Ni7 Tm1 3.022947 1_554
Ni7 Tm0 3.265827 1_665
Ni8 Tm1 3.022944 1_555
Ni8 Tm1 3.022945 1_554
Ni8 Tm0 3.265684 1_565
As0 Ni1 2.249068 1_555
As0 Ni0 2.249588 1_555
As0 Ni2 2.249817 1_555
As0 Ni9 2.536239 1_554
As0 Ni9 2.536241 1_555
As0 Ni11 2.539708 1_555
As0 Ni11 2.539711 1_554
As0 Ni10 2.540960 1_555
As0 Ni10 2.540968 1_554
As1 Ni5 2.323038 1_555
As1 Ni0 2.365229 1_556
As1 Ni0 2.365237 1_555
As1 Ni7 2.384860 1_556
As1 Ni7 2.384869 1_555
As1 Ni3 2.388941 1_655
As1 Ni10 2.410748 1_555
As1 Tm0 2.938975 1_666
As1 Tm0 2.938981 1_665
As2 Ni3 2.322763 1_545
As2 Ni1 2.365633 1_556
As2 Ni1 2.365636 1_555
As2 Ni8 2.384768 1_545
As2 Ni8 2.384770 1_546
As2 Ni4 2.388485 1_555
As2 Ni11 2.409427 1_555
As2 Tm0 2.938650 1_556
As2 Tm0 2.938652 1_555
As3 Ni4 2.322520 1_655
As3 Ni2 2.365074 1_556
As3 Ni2 2.365078 1_555
As3 Ni6 2.385131 1_656
As3 Ni6 2.385132 1_655
As3 Ni5 2.388727 1_545
As3 Ni9 2.409472 1_555
As3 Tm0 2.938395 1_656
As3 Tm0 2.938398 1_655
As4 Ni6 2.293705 1_555
As4 Ni0 2.313511 1_455
As4 Ni8 2.313664 1_555
As4 Ni3 2.373545 1_555
As4 Ni3 2.373547 1_554
As4 Ni9 2.614417 1_454
As4 Ni9 2.614420 1_455
As4 Tm1 2.931277 1_554
As4 Tm1 2.931277 1_555
As5 Ni7 2.293451 1_555
As5 Ni1 2.313003 1_555
As5 Ni6 2.313363 1_555
As5 Ni4 2.373659 1_554
As5 Ni4 2.373662 1_555
As5 Ni10 2.608517 1_555
As5 Ni10 2.608519 1_554
As5 Tm1 2.931550 1_555
As5 Tm1 2.931551 1_554
As6 Ni8 2.292760 1_555
As6 Ni2 2.313226 1_565
As6 Ni7 2.313241 1_555
As6 Ni5 2.373343 1_554
As6 Ni5 2.373346 1_555
As6 Ni11 2.610126 1_565
As6 Ni11 2.610126 1_564
As6 Tm1 2.931736 1_554
As6 Tm1 2.931738 1_555
