# generated using pymatgen
data_Sc2GaPt
_symmetry_space_group_name_H-M   'P 1'
_cell_length_a   4.69456885
_cell_length_b   4.69456885
_cell_length_c   4.69456885
_cell_angle_alpha   60.00000000
_cell_angle_beta   60.00000000
_cell_angle_gamma   60.00000000
_symmetry_Int_Tables_number   1
_chemical_formula_structural   Sc2GaPt
_chemical_formula_sum   'Sc2 Ga1 Pt1'
_cell_volume   73.15973791
_cell_formula_units_Z   1
loop_
 _symmetry_equiv_pos_site_id
 _symmetry_equiv_pos_as_xyz
  1  'x, y, z'
loop_
 _atom_site_type_symbol
 _atom_site_label
 _atom_site_symmetry_multiplicity
 _atom_site_fract_x
 _atom_site_fract_y
 _atom_site_fract_z
 _atom_site_occupancy
  Sc  Sc0  1  0.00000000  -0.00000000  0.00000000  1
  Sc  Sc1  1  0.49999900  0.49999900  0.49999900  1
  Ga  Ga0  1  0.25000000  0.25000000  0.25000000  1
  Pt  Pt0  1  0.74999900  0.74999900  0.74999900  1
loop_
_geom_bond_atom_site_label_1
_geom_bond_atom_site_label_2
_geom_bond_distance
_geom_bond_site_symmetry_2
Ga0 Sc1 2.874813 1_555
Ga0 Sc0 2.874825 1_555
Ga0 Sc0 2.874825 1_556
Ga0 Sc0 2.874825 1_565
Ga0 Sc0 2.874825 1_655
Ga0 Sc1 2.874828 1_554
Ga0 Sc1 2.874828 1_455
Ga0 Sc1 2.874828 1_545
Pt0 Sc0 2.874821 1_665
Pt0 Sc0 2.874821 1_566
Pt0 Sc0 2.874821 1_656
Pt0 Sc1 2.874825 1_555
Pt0 Sc1 2.874825 1_565
Pt0 Sc1 2.874825 1_556
Pt0 Sc1 2.874825 1_655
Pt0 Sc0 2.874836 1_666
