# generated using pymatgen
data_SmMg3
_symmetry_space_group_name_H-M   'P 1'
_cell_length_a   6.76044027
_cell_length_b   6.76044176
_cell_length_c   5.18102968
_cell_angle_alpha   90.00000000
_cell_angle_beta   90.00000000
_cell_angle_gamma   120.00000300
_symmetry_Int_Tables_number   1
_chemical_formula_structural   SmMg3
_chemical_formula_sum   'Sm2 Mg6'
_cell_volume   205.06746119
_cell_formula_units_Z   2
loop_
 _symmetry_equiv_pos_site_id
 _symmetry_equiv_pos_as_xyz
  1  'x, y, z'
loop_
 _atom_site_type_symbol
 _atom_site_label
 _atom_site_symmetry_multiplicity
 _atom_site_fract_x
 _atom_site_fract_y
 _atom_site_fract_z
 _atom_site_occupancy
  Sm  Sm0  1  0.66666800  0.33333300  0.25000100  1
  Sm  Sm1  1  0.33333300  0.66666600  0.75000000  1
  Mg  Mg0  1  0.16149351  0.32298501  0.25000100  1
  Mg  Mg1  1  0.16149351  0.83850649  0.25000100  1
  Mg  Mg2  1  0.67701399  0.83850649  0.25000100  1
  Mg  Mg3  1  0.32298501  0.16149251  0.75000000  1
  Mg  Mg4  1  0.83850749  0.16149251  0.75000000  1
  Mg  Mg5  1  0.83850749  0.67701499  0.75000000  1
loop_
_geom_bond_atom_site_label_1
_geom_bond_atom_site_label_2
_geom_bond_distance
_geom_bond_site_symmetry_2
Mg0 Mg3 3.207264 1_555
Mg0 Mg4 3.207271 1_455
Mg0 Mg3 3.207272 1_554
Mg0 Mg4 3.207279 1_454
Mg0 Mg1 3.275289 1_545
Mg0 Mg2 3.275292 1_445
Mg0 Sm1 3.280168 1_555
Mg0 Sm1 3.280176 1_554
Mg0 Sm0 3.380760 1_455
Mg0 Sm0 3.380766 1_555
Mg0 Mg2 3.485149 1_555
Mg0 Mg1 3.485153 1_555
Mg1 Mg5 3.207271 1_455
Mg1 Mg3 3.207271 1_565
Mg1 Mg5 3.207279 1_454
Mg1 Mg3 3.207279 1_564
Mg1 Mg2 3.275295 1_455
Mg1 Sm1 3.280165 1_555
Mg1 Sm1 3.280173 1_554
Mg1 Sm0 3.380760 1_455
Mg1 Sm0 3.380767 1_565
Mg1 Mg2 3.485145 1_555
Mg2 Mg5 3.207267 1_555
Mg2 Mg4 3.207271 1_565
Mg2 Mg5 3.207276 1_554
Mg2 Mg4 3.207279 1_564
Mg2 Sm1 3.280168 1_555
Mg2 Sm1 3.280176 1_554
Mg2 Sm0 3.380760 1_565
Mg2 Sm0 3.380767 1_555
Mg3 Mg4 3.275281 1_455
Mg3 Mg5 3.275282 1_445
Mg3 Sm0 3.280175 1_555
Mg3 Sm0 3.280183 1_556
Mg3 Sm1 3.380760 1_555
Mg3 Sm1 3.380767 1_545
Mg3 Mg4 3.485159 1_555
Mg3 Mg5 3.485159 1_555
Mg4 Mg5 3.275282 1_545
Mg4 Sm0 3.280165 1_555
Mg4 Sm0 3.280173 1_556
Mg4 Sm1 3.380760 1_655
Mg4 Sm1 3.380767 1_545
Mg4 Mg5 3.485160 1_555
Mg5 Sm0 3.280172 1_555
Mg5 Sm0 3.280180 1_556
Mg5 Sm1 3.380763 1_555
Mg5 Sm1 3.380763 1_655
