# generated using pymatgen
data_H4C6O
_symmetry_space_group_name_H-M   'P 1'
_cell_length_a   5.59623800
_cell_length_b   8.13218900
_cell_length_c   9.72498000
_cell_angle_alpha   90.00000000
_cell_angle_beta   90.00000000
_cell_angle_gamma   90.00000000
_symmetry_Int_Tables_number   1
_chemical_formula_structural   H4C6O
_chemical_formula_sum   'H16 C24 O4'
_cell_volume   442.58058295
_cell_formula_units_Z   4
loop_
 _symmetry_equiv_pos_site_id
 _symmetry_equiv_pos_as_xyz
  1  'x, y, z'
loop_
 _atom_site_type_symbol
 _atom_site_label
 _atom_site_symmetry_multiplicity
 _atom_site_fract_x
 _atom_site_fract_y
 _atom_site_fract_z
 _atom_site_occupancy
  H  H0  1  0.86550300  0.32975600  0.96572300  1
  H  H1  1  0.63449700  0.17024400  0.46572300  1
  H  H2  1  0.86550300  0.67024400  0.53427700  1
  H  H3  1  0.63449700  0.82975600  0.03427700  1
  H  H4  1  0.13449700  0.67024400  0.03427700  1
  H  H5  1  0.36550300  0.82975600  0.53427700  1
  H  H6  1  0.13449700  0.32975600  0.46572300  1
  H  H7  1  0.36550300  0.17024400  0.96572300  1
  H  H8  1  0.65742800  0.32927300  0.19193500  1
  H  H9  1  0.84257200  0.17072700  0.69193500  1
  H  H10  1  0.65742800  0.67072700  0.30806500  1
  H  H11  1  0.84257200  0.82927300  0.80806500  1
  H  H12  1  0.34257200  0.67072700  0.80806500  1
  H  H13  1  0.15742800  0.82927300  0.30806500  1
  H  H14  1  0.34257200  0.32927300  0.69193500  1
  H  H15  1  0.15742800  0.17072700  0.19193500  1
  C  C0  1  0.59040300  0.40529400  0.10834400  1
  C  C1  1  0.90959700  0.09470600  0.60834400  1
  C  C2  1  0.59040300  0.59470600  0.39165600  1
  C  C3  1  0.90959700  0.90529400  0.89165600  1
  C  C4  1  0.40959700  0.59470600  0.89165600  1
  C  C5  1  0.09040300  0.90529400  0.39165600  1
  C  C6  1  0.40959700  0.40529400  0.60834400  1
  C  C7  1  0.09040300  0.09470600  0.10834400  1
  C  C8  1  0.61452800  0.49868800  0.87283200  1
  C  C9  1  0.88547200  0.00131200  0.37283200  1
  C  C10  1  0.61452800  0.50131200  0.62716800  1
  C  C11  1  0.88547200  0.99868800  0.12716800  1
  C  C12  1  0.38547200  0.50131200  0.12716800  1
  C  C13  1  0.11452800  0.99868800  0.62716800  1
  C  C14  1  0.38547200  0.49868800  0.37283200  1
  C  C15  1  0.11452800  0.00131200  0.87283200  1
  C  C16  1  0.70594000  0.40421000  0.98095000  1
  C  C17  1  0.79406000  0.09579000  0.48095000  1
  C  C18  1  0.70594000  0.59579000  0.51905000  1
  C  C19  1  0.79406000  0.90421000  0.01905000  1
  C  C20  1  0.29406000  0.59579000  0.01905000  1
  C  C21  1  0.20594000  0.90421000  0.51905000  1
  C  C22  1  0.29406000  0.40421000  0.48095000  1
  C  C23  1  0.20594000  0.09579000  0.98095000  1
  O  O0  1  0.74281500  0.50000000  0.75000000  1
  O  O1  1  0.75718500  0.00000000  0.25000000  1
  O  O2  1  0.25718500  0.50000000  0.25000000  1
  O  O3  1  0.24281500  0.00000000  0.75000000  1
loop_
_geom_bond_atom_site_label_1
_geom_bond_atom_site_label_2
_geom_bond_distance
_geom_bond_site_symmetry_2
C0 H8 1.087991 1_555
C1 H9 1.087991 1_555
C2 H10 1.087991 1_555
C3 H11 1.087991 1_555
C4 H12 1.087991 1_555
C5 H13 1.087991 1_555
C6 H14 1.087991 1_555
C7 H15 1.087991 1_555
C8 O0 1.393719 1_555
C9 O1 1.393719 1_555
C10 O0 1.393719 1_555
C11 O1 1.393719 1_565
C12 O2 1.393719 1_555
C13 O3 1.393719 1_565
C14 O2 1.393719 1_555
C15 O3 1.393719 1_555
C16 H0 1.088986 1_555
C17 H1 1.088986 1_555
C18 H2 1.088986 1_555
C19 H3 1.088986 1_555
C20 H4 1.088986 1_555
C21 H5 1.088986 1_555
C22 H6 1.088986 1_555
C23 H7 1.088986 1_555
