# generated using pymatgen
data_KAgO2
_symmetry_space_group_name_H-M   'P 1'
_cell_length_a   3.04639000
_cell_length_b   3.72878000
_cell_length_c   5.93143000
_cell_angle_alpha   90.00000000
_cell_angle_beta   90.00000000
_cell_angle_gamma   90.00000000
_symmetry_Int_Tables_number   1
_chemical_formula_structural   KAgO2
_chemical_formula_sum   'K1 Ag1 O2'
_cell_volume   67.37700018
_cell_formula_units_Z   1
loop_
 _symmetry_equiv_pos_site_id
 _symmetry_equiv_pos_as_xyz
  1  'x, y, z'
loop_
 _atom_site_type_symbol
 _atom_site_label
 _atom_site_symmetry_multiplicity
 _atom_site_fract_x
 _atom_site_fract_y
 _atom_site_fract_z
 _atom_site_occupancy
  K  K0  1  0.00000000  0.50000000  0.00000000  1
  Ag  Ag0  1  0.00000000  0.00000000  0.50000000  1
  O  O0  1  0.50000000  0.00000000  0.73039000  1
  O  O1  1  0.50000000  0.00000000  0.26961000  1
loop_
_geom_bond_atom_site_label_1
_geom_bond_atom_site_label_2
_geom_bond_distance
_geom_bond_site_symmetry_2
K0 O0 2.890230 1_464
K0 O0 2.890230 1_454
K0 O1 2.890230 1_555
K0 O0 2.890230 1_564
K0 O1 2.890230 1_565
K0 O0 2.890230 1_554
K0 O1 2.890230 1_465
K0 O1 2.890230 1_455
Ag0 O0 2.046353 1_455
Ag0 O1 2.046353 1_555
Ag0 O1 2.046353 1_455
Ag0 O0 2.046353 1_555
