# generated using pymatgen
data_RbZn4As3
_symmetry_space_group_name_H-M   'P 1'
_cell_length_a   4.15008941
_cell_length_b   4.15008941
_cell_length_c   10.41824860
_cell_angle_alpha   90.00000000
_cell_angle_beta   90.00000000
_cell_angle_gamma   90.00000000
_symmetry_Int_Tables_number   1
_chemical_formula_structural   RbZn4As3
_chemical_formula_sum   'Rb1 Zn4 As3'
_cell_volume   179.43601801
_cell_formula_units_Z   1
loop_
 _symmetry_equiv_pos_site_id
 _symmetry_equiv_pos_as_xyz
  1  'x, y, z'
loop_
 _atom_site_type_symbol
 _atom_site_label
 _atom_site_symmetry_multiplicity
 _atom_site_fract_x
 _atom_site_fract_y
 _atom_site_fract_z
 _atom_site_occupancy
  Rb  Rb0  1  0.00000000  0.00000000  0.50000000  1
  Zn  Zn0  1  -0.00000000  0.49999800  0.15769671  1
  Zn  Zn1  1  -0.00000000  0.49999800  0.84230329  1
  Zn  Zn2  1  0.49999800  0.00000000  0.84230329  1
  Zn  Zn3  1  0.49999800  -0.00000000  0.15769671  1
  As  As0  1  0.00000000  0.00000000  -0.00000000  1
  As  As1  1  0.49999800  0.49999800  0.28945891  1
  As  As2  1  0.49999800  0.49999800  0.71054109  1
loop_
_geom_bond_atom_site_label_1
_geom_bond_atom_site_label_2
_geom_bond_distance
_geom_bond_site_symmetry_2
As0 Zn3 2.646691 1_555
As0 Zn2 2.646691 1_554
As0 Zn1 2.646691 1_554
As0 Zn0 2.646691 1_555
As0 Zn1 2.646704 1_544
As0 Zn2 2.646704 1_454
As0 Zn3 2.646704 1_455
As0 Zn0 2.646704 1_545
As1 Zn0 2.488005 1_555
As1 Zn3 2.488005 1_555
As1 Zn3 2.488019 1_565
As1 Zn0 2.488019 1_655
As1 Rb0 3.663722 1_555
As1 Rb0 3.663732 1_565
As1 Rb0 3.663732 1_655
As1 Rb0 3.663741 1_665
As2 Zn1 2.488005 1_555
As2 Zn2 2.488005 1_555
As2 Zn1 2.488019 1_655
As2 Zn2 2.488019 1_565
As2 Rb0 3.663722 1_555
As2 Rb0 3.663732 1_565
As2 Rb0 3.663732 1_655
As2 Rb0 3.663741 1_665
