# generated using pymatgen
data_RbSnF3
_symmetry_space_group_name_H-M   'P 1'
_cell_length_a   6.52264334
_cell_length_b   6.52264333
_cell_length_c   6.52264294
_cell_angle_alpha   62.42967913
_cell_angle_beta   62.42967916
_cell_angle_gamma   62.42967400
_symmetry_Int_Tables_number   1
_chemical_formula_structural   RbSnF3
_chemical_formula_sum   'Rb2 Sn2 F6'
_cell_volume   206.85611940
_cell_formula_units_Z   2
loop_
 _symmetry_equiv_pos_site_id
 _symmetry_equiv_pos_as_xyz
  1  'x, y, z'
loop_
 _atom_site_type_symbol
 _atom_site_label
 _atom_site_symmetry_multiplicity
 _atom_site_fract_x
 _atom_site_fract_y
 _atom_site_fract_z
 _atom_site_occupancy
  Rb  Rb0  1  0.12449543  0.12449543  0.12449543  1
  Rb  Rb1  1  0.87550457  0.87550457  0.87550457  1
  Sn  Sn0  1  0.36252077  0.36252077  0.36252077  1
  Sn  Sn1  1  0.63747923  0.63747923  0.63747923  1
  F  F0  1  0.05305009  0.25047866  0.52713487  1
  F  F1  1  0.25047866  0.52713487  0.05305009  1
  F  F2  1  0.52713487  0.05305009  0.25047866  1
  F  F3  1  0.94694991  0.74952134  0.47286513  1
  F  F4  1  0.47286513  0.94694991  0.74952134  1
  F  F5  1  0.74952134  0.47286513  0.94694991  1
loop_
_geom_bond_atom_site_label_1
_geom_bond_atom_site_label_2
_geom_bond_distance
_geom_bond_site_symmetry_2
F0 Sn0 2.096299 1_555
F0 Rb1 2.743711 1_445
F0 Rb0 2.880984 1_555
F1 Sn0 2.096299 1_555
F1 Rb1 2.743711 1_454
F1 Rb0 2.880984 1_555
F2 Sn0 2.096299 1_555
F2 Rb1 2.743711 1_544
F2 Rb0 2.880984 1_555
F3 Sn1 2.096299 1_555
F3 Rb0 2.743711 1_665
F3 Rb1 2.880984 1_555
F4 Sn1 2.096299 1_555
F4 Rb0 2.743711 1_566
F4 Rb1 2.880984 1_555
F5 Sn1 2.096299 1_555
F5 Rb0 2.743711 1_656
F5 Rb1 2.880984 1_555
