# generated using pymatgen
data_LaMnN3
_symmetry_space_group_name_H-M   'P 1'
_cell_length_a   5.90769846
_cell_length_b   5.90769846
_cell_length_c   7.03046776
_cell_angle_alpha   61.81864170
_cell_angle_beta   61.81864170
_cell_angle_gamma   41.23690212
_symmetry_Int_Tables_number   1
_chemical_formula_structural   LaMnN3
_chemical_formula_sum   'La2 Mn2 N6'
_cell_volume   139.64132123
_cell_formula_units_Z   2
loop_
 _symmetry_equiv_pos_site_id
 _symmetry_equiv_pos_as_xyz
  1  'x, y, z'
loop_
 _atom_site_type_symbol
 _atom_site_label
 _atom_site_symmetry_multiplicity
 _atom_site_fract_x
 _atom_site_fract_y
 _atom_site_fract_z
 _atom_site_occupancy
  La  La0  1  0.27762373  0.27762373  0.25269659  1
  La  La1  1  0.72237627  0.72237627  0.74730341  1
  Mn  Mn0  1  0.54177932  0.54177932  0.31128821  1
  Mn  Mn1  1  0.45822068  0.45822068  0.68871179  1
  N  N0  1  0.93192742  0.23584199  0.12391363  1
  N  N1  1  0.65116121  0.65116121  0.45574218  1
  N  N2  1  0.06807258  0.76415801  0.87608637  1
  N  N3  1  0.76415801  0.06807258  0.87608637  1
  N  N4  1  0.34883879  0.34883879  0.54425782  1
  N  N5  1  0.23584199  0.93192742  0.12391363  1
loop_
_geom_bond_atom_site_label_1
_geom_bond_atom_site_label_2
_geom_bond_distance
_geom_bond_site_symmetry_2
La0 N1 2.511329 1_545
La0 N1 2.511329 1_455
La0 N4 2.539891 1_555
La0 N2 2.713091 1_554
La0 N3 2.713091 1_554
La0 N5 2.786988 1_545
La0 N0 2.786988 1_455
La1 N4 2.511329 1_565
La1 N4 2.511329 1_655
La1 N1 2.539891 1_555
La1 N5 2.713091 1_556
La1 N0 2.713091 1_556
La1 N2 2.786988 1_655
La1 N3 2.786988 1_565
Mn0 N5 1.852071 1_555
Mn0 N0 1.852071 1_555
Mn0 N4 1.925722 1_555
Mn0 N1 1.932425 1_555
Mn1 N2 1.852071 1_555
Mn1 N3 1.852071 1_555
Mn1 N1 1.925722 1_555
Mn1 N4 1.932425 1_555
