# generated using pymatgen
data_La3Mg
_symmetry_space_group_name_H-M   'P 1'
_cell_length_a   7.35501901
_cell_length_b   7.35501596
_cell_length_c   5.73787020
_cell_angle_alpha   90.00000000
_cell_angle_beta   90.00000000
_cell_angle_gamma   119.99991501
_symmetry_Int_Tables_number   1
_chemical_formula_structural   La3Mg
_chemical_formula_sum   'La6 Mg2'
_cell_volume   268.81230351
_cell_formula_units_Z   2
loop_
 _symmetry_equiv_pos_site_id
 _symmetry_equiv_pos_as_xyz
  1  'x, y, z'
loop_
 _atom_site_type_symbol
 _atom_site_label
 _atom_site_symmetry_multiplicity
 _atom_site_fract_x
 _atom_site_fract_y
 _atom_site_fract_z
 _atom_site_occupancy
  La  La0  1  0.17746155  0.35492511  0.25000100  1
  La  La1  1  0.17746155  0.82253645  0.25000100  1
  La  La2  1  0.64507389  0.82253745  0.25000100  1
  La  La3  1  0.35492611  0.17746155  0.75000000  1
  La  La4  1  0.82253745  0.17746155  0.75000000  1
  La  La5  1  0.82253645  0.64507289  0.75000000  1
  Mg  Mg0  1  0.66666700  0.33333200  0.25000100  1
  Mg  Mg1  1  0.33333300  0.66666600  0.75000000  1
loop_
_geom_bond_atom_site_label_1
_geom_bond_atom_site_label_2
_geom_bond_distance
_geom_bond_site_symmetry_2
La0 La1 3.439289 1_555
La0 La2 3.439301 1_555
La0 Mg1 3.489078 1_555
La0 Mg1 3.489087 1_554
La0 La4 3.652628 1_455
La0 La4 3.652637 1_454
La0 La3 3.652642 1_555
La0 La3 3.652651 1_554
La0 Mg0 3.680066 1_455
La0 Mg0 3.680095 1_555
La0 La2 3.915726 1_445
La0 La1 3.915727 1_545
La1 La2 3.439294 1_555
La1 Mg1 3.489080 1_555
La1 Mg1 3.489090 1_554
La1 La3 3.652632 1_565
La1 La5 3.652632 1_455
La1 La3 3.652641 1_564
La1 La5 3.652641 1_454
La1 Mg0 3.680080 1_455
La1 Mg0 3.680087 1_565
La1 La2 3.915725 1_455
La2 Mg1 3.489078 1_555
La2 Mg1 3.489088 1_554
La2 La4 3.652628 1_565
La2 La4 3.652637 1_564
La2 La5 3.652638 1_555
La2 La5 3.652647 1_554
La2 Mg0 3.680065 1_565
La2 Mg0 3.680094 1_555
La3 La4 3.439290 1_555
La3 La5 3.439290 1_555
La3 Mg0 3.489078 1_555
La3 Mg0 3.489088 1_556
La3 Mg1 3.680072 1_545
La3 Mg1 3.680086 1_555
La3 La4 3.915729 1_455
La3 La5 3.915737 1_445
La4 La5 3.439293 1_555
La4 Mg0 3.489077 1_555
La4 Mg0 3.489086 1_556
La4 Mg1 3.680084 1_545
La4 Mg1 3.680084 1_655
La4 La5 3.915723 1_545
La5 Mg0 3.489078 1_555
La5 Mg0 3.489087 1_556
La5 Mg1 3.680080 1_555
La5 Mg1 3.680081 1_655
