# generated using pymatgen
data_Ac2Mg
_symmetry_space_group_name_H-M   'P 1'
_cell_length_a   8.23877377
_cell_length_b   8.23877377
_cell_length_c   14.96483240
_cell_angle_alpha   105.99553754
_cell_angle_beta   105.99553754
_cell_angle_gamma   89.93933044
_symmetry_Int_Tables_number   1
_chemical_formula_structural   Ac2Mg
_chemical_formula_sum   'Ac16 Mg8'
_cell_volume   935.55488016
_cell_formula_units_Z   8
loop_
 _symmetry_equiv_pos_site_id
 _symmetry_equiv_pos_as_xyz
  1  'x, y, z'
loop_
 _atom_site_type_symbol
 _atom_site_label
 _atom_site_symmetry_multiplicity
 _atom_site_fract_x
 _atom_site_fract_y
 _atom_site_fract_z
 _atom_site_occupancy
  Ac  Ac0_0  1  0.04967730  0.04967780  0.01602161  1
  Ac  Ac0_1  1  0.04967730  0.04967780  0.51602161  1
  Ac  Ac0_2  1  0.04967730  0.54967780  0.01602161  1
  Ac  Ac0_3  1  0.04967730  0.54967780  0.51602161  1
  Ac  Ac0_4  1  0.54967731  0.04967780  0.01602161  1
  Ac  Ac0_5  1  0.54967731  0.04967780  0.51602161  1
  Ac  Ac0_6  1  0.54967730  0.54967780  0.01602161  1
  Ac  Ac0_7  1  0.54967730  0.54967780  0.51602161  1
  Ac  Ac1_0  1  0.20032270  0.20032320  0.31731189  1
  Ac  Ac1_1  1  0.20032269  0.20032320  0.81731189  1
  Ac  Ac1_2  1  0.20032270  0.70032320  0.31731189  1
  Ac  Ac1_3  1  0.20032269  0.70032319  0.81731189  1
  Ac  Ac1_4  1  0.70032269  0.20032320  0.31731189  1
  Ac  Ac1_5  1  0.70032269  0.20032319  0.81731189  1
  Ac  Ac1_6  1  0.70032269  0.70032319  0.31731189  1
  Ac  Ac1_7  1  0.70032269  0.70032320  0.81731189  1
  Mg  Mg0_0  1  0.37500000  0.37500050  0.16666700  1
  Mg  Mg0_1  1  0.37500000  0.37500050  0.66666700  1
  Mg  Mg0_2  1  0.37500000  0.87500050  0.16666700  1
  Mg  Mg0_3  1  0.37500000  0.87500050  0.66666700  1
  Mg  Mg0_4  1  0.87500000  0.37500050  0.16666700  1
  Mg  Mg0_5  1  0.87500000  0.37500050  0.66666700  1
  Mg  Mg0_6  1  0.87500000  0.87500050  0.16666700  1
  Mg  Mg0_7  1  0.87500000  0.87500050  0.66666700  1
loop_
_geom_bond_atom_site_label_1
_geom_bond_atom_site_label_2
_geom_bond_distance
_geom_bond_site_symmetry_2
Ac0_0 Mg0_4 3.575879 1_455
Ac0_0 Mg0_2 3.575879 1_545
Ac0_0 Mg0_6 3.578390 1_445
Ac0_0 Mg0_0 3.578391 1_555
Ac0_0 Ac1_5 3.997102 1_454
Ac0_0 Ac1_3 3.997102 1_544
Ac0_0 Ac1_7 3.999347 1_444
Ac0_0 Ac1_1 3.999351 1_554
Ac0_0 Ac0_2 4.119387 1_555
Ac0_0 Ac0_2 4.119387 1_545
Ac0_0 Ac0_4 4.119387 1_455
Ac0_0 Ac0_4 4.119387 1_555
Ac0_0 Ac1_0 4.152690 1_555
Ac0_1 Mg0_5 3.575879 1_455
Ac0_1 Mg0_3 3.575879 1_545
Ac0_1 Mg0_7 3.578390 1_445
Ac0_1 Mg0_1 3.578391 1_555
Ac0_1 Ac1_2 3.997102 1_545
Ac0_1 Ac1_4 3.997102 1_455
Ac0_1 Ac1_6 3.999347 1_445
Ac0_1 Ac1_0 3.999351 1_555
Ac0_1 Ac0_5 4.119387 1_555
Ac0_1 Ac0_3 4.119387 1_545
Ac0_1 Ac0_3 4.119387 1_555
Ac0_1 Ac0_5 4.119387 1_455
Ac0_1 Ac1_1 4.152690 1_555
Ac0_2 Mg0_6 3.575879 1_455
Ac0_2 Mg0_0 3.575879 1_555
Ac0_2 Mg0_4 3.578390 1_455
Ac0_2 Mg0_2 3.578391 1_555
Ac0_2 Ac1_7 3.997102 1_454
Ac0_2 Ac1_1 3.997102 1_554
Ac0_2 Ac1_5 3.999347 1_454
Ac0_2 Ac1_3 3.999351 1_554
Ac0_2 Ac0_6 4.119387 1_555
Ac0_2 Ac0_6 4.119387 1_455
Ac0_2 Ac1_2 4.152690 1_555
Ac0_3 Mg0_7 3.575879 1_455
Ac0_3 Mg0_1 3.575879 1_555
Ac0_3 Mg0_5 3.578390 1_455
Ac0_3 Mg0_3 3.578391 1_555
Ac0_3 Ac1_6 3.997102 1_455
Ac0_3 Ac1_0 3.997102 1_555
Ac0_3 Ac1_4 3.999347 1_455
Ac0_3 Ac1_2 3.999351 1_555
Ac0_3 Ac0_7 4.119387 1_555
Ac0_3 Ac0_7 4.119387 1_455
Ac0_3 Ac1_3 4.152690 1_555
Ac0_4 Mg0_0 3.575879 1_555
Ac0_4 Mg0_6 3.575879 1_545
Ac0_4 Mg0_2 3.578390 1_545
Ac0_4 Mg0_4 3.578391 1_555
Ac0_4 Ac1_7 3.997102 1_544
Ac0_4 Ac1_1 3.997102 1_554
Ac0_4 Ac1_3 3.999347 1_544
Ac0_4 Ac1_5 3.999351 1_554
Ac0_4 Ac0_6 4.119387 1_545
Ac0_4 Ac0_6 4.119387 1_555
Ac0_4 Ac1_4 4.152690 1_555
Ac0_5 Mg0_1 3.575879 1_555
Ac0_5 Mg0_7 3.575879 1_545
Ac0_5 Mg0_3 3.578390 1_545
Ac0_5 Mg0_5 3.578391 1_555
Ac0_5 Ac1_6 3.997102 1_545
Ac0_5 Ac1_0 3.997102 1_555
Ac0_5 Ac1_2 3.999347 1_545
Ac0_5 Ac1_4 3.999351 1_555
Ac0_5 Ac0_7 4.119387 1_545
Ac0_5 Ac0_7 4.119387 1_555
Ac0_5 Ac1_5 4.152690 1_555
Ac0_6 Mg0_2 3.575879 1_555
Ac0_6 Mg0_4 3.575879 1_555
Ac0_6 Mg0_0 3.578390 1_555
Ac0_6 Mg0_6 3.578391 1_555
Ac0_6 Ac1_3 3.997102 1_554
Ac0_6 Ac1_5 3.997102 1_554
Ac0_6 Ac1_1 3.999347 1_554
Ac0_6 Ac1_7 3.999351 1_554
Ac0_6 Ac1_6 4.152690 1_555
Ac0_7 Mg0_3 3.575879 1_555
Ac0_7 Mg0_5 3.575879 1_555
Ac0_7 Mg0_1 3.578390 1_555
Ac0_7 Mg0_7 3.578391 1_555
Ac0_7 Ac1_2 3.997102 1_555
Ac0_7 Ac1_4 3.997102 1_555
Ac0_7 Ac1_0 3.999347 1_555
Ac0_7 Ac1_6 3.999351 1_555
Ac0_7 Ac1_7 4.152690 1_555
Ac1_0 Mg0_4 3.575875 1_455
Ac1_0 Mg0_2 3.575875 1_545
Ac1_0 Mg0_0 3.578384 1_555
Ac1_0 Mg0_6 3.578390 1_445
Ac1_0 Ac1_2 4.119387 1_545
Ac1_0 Ac1_4 4.119387 1_455
Ac1_0 Ac1_4 4.119387 1_555
Ac1_0 Ac1_2 4.119387 1_555
Ac1_1 Mg0_5 3.575875 1_455
Ac1_1 Mg0_3 3.575875 1_545
Ac1_1 Mg0_1 3.578384 1_555
Ac1_1 Mg0_7 3.578390 1_445
Ac1_1 Ac1_3 4.119387 1_545
Ac1_1 Ac1_5 4.119387 1_455
Ac1_1 Ac1_3 4.119387 1_555
Ac1_1 Ac1_5 4.119387 1_555
Ac1_2 Mg0_6 3.575875 1_455
Ac1_2 Mg0_0 3.575875 1_555
Ac1_2 Mg0_2 3.578384 1_555
Ac1_2 Mg0_4 3.578390 1_455
Ac1_2 Ac1_6 4.119387 1_555
Ac1_2 Ac1_6 4.119387 1_455
Ac1_3 Mg0_7 3.575875 1_455
Ac1_3 Mg0_1 3.575875 1_555
Ac1_3 Mg0_3 3.578384 1_555
Ac1_3 Mg0_5 3.578390 1_455
Ac1_3 Ac1_7 4.119387 1_555
Ac1_3 Ac1_7 4.119387 1_455
Ac1_4 Mg0_0 3.575875 1_555
Ac1_4 Mg0_6 3.575875 1_545
Ac1_4 Mg0_4 3.578384 1_555
Ac1_4 Mg0_2 3.578390 1_545
Ac1_4 Ac1_6 4.119387 1_545
Ac1_4 Ac1_6 4.119387 1_555
Ac1_5 Mg0_1 3.575875 1_555
Ac1_5 Mg0_7 3.575875 1_545
Ac1_5 Mg0_5 3.578384 1_555
Ac1_5 Mg0_3 3.578390 1_545
Ac1_5 Ac1_7 4.119387 1_555
Ac1_5 Ac1_7 4.119387 1_545
Ac1_6 Mg0_2 3.575875 1_555
Ac1_6 Mg0_4 3.575875 1_555
Ac1_6 Mg0_6 3.578384 1_555
Ac1_6 Mg0_0 3.578390 1_555
Ac1_7 Mg0_3 3.575875 1_555
Ac1_7 Mg0_5 3.575875 1_555
Ac1_7 Mg0_7 3.578384 1_555
Ac1_7 Mg0_1 3.578390 1_555
