# generated using pymatgen
data_Sr2MgGe2O7
_symmetry_space_group_name_H-M   'P 1'
_cell_length_a   8.26416500
_cell_length_b   8.26416500
_cell_length_c   5.37278800
_cell_angle_alpha   90.00000000
_cell_angle_beta   90.00000000
_cell_angle_gamma   90.00000000
_symmetry_Int_Tables_number   1
_chemical_formula_structural   Sr2MgGe2O7
_chemical_formula_sum   'Sr4 Mg2 Ge4 O14'
_cell_volume   366.94220273
_cell_formula_units_Z   2
loop_
 _symmetry_equiv_pos_site_id
 _symmetry_equiv_pos_as_xyz
  1  'x, y, z'
loop_
 _atom_site_type_symbol
 _atom_site_label
 _atom_site_symmetry_multiplicity
 _atom_site_fract_x
 _atom_site_fract_y
 _atom_site_fract_z
 _atom_site_occupancy
  Sr  Sr0  1  0.33486800  0.83486800  0.49186500  1
  Sr  Sr1  1  0.66513200  0.16513200  0.49186500  1
  Sr  Sr2  1  0.16513200  0.33486800  0.50813500  1
  Sr  Sr3  1  0.83486800  0.66513200  0.50813500  1
  Mg  Mg0  1  0.00000000  0.00000000  0.00000000  1
  Mg  Mg1  1  0.50000000  0.50000000  0.00000000  1
  Ge  Ge0  1  0.14326300  0.64326300  0.05046300  1
  Ge  Ge1  1  0.85673700  0.35673700  0.05046300  1
  Ge  Ge2  1  0.35673700  0.14326300  0.94953700  1
  Ge  Ge3  1  0.64326300  0.85673700  0.94953700  1
  O  O0  1  0.00000000  0.50000000  0.18432800  1
  O  O1  1  0.08236100  0.82200400  0.20667200  1
  O  O2  1  0.32200400  0.58236100  0.20667200  1
  O  O3  1  0.67799600  0.41763900  0.20667200  1
  O  O4  1  0.91763900  0.17799600  0.20667200  1
  O  O5  1  0.36107100  0.13892900  0.27380900  1
  O  O6  1  0.63892900  0.86107100  0.27380900  1
  O  O7  1  0.13892900  0.63892900  0.72619100  1
  O  O8  1  0.86107100  0.36107100  0.72619100  1
  O  O9  1  0.17799600  0.08236100  0.79332800  1
  O  O10  1  0.41763900  0.32200400  0.79332800  1
  O  O11  1  0.58236100  0.67799600  0.79332800  1
  O  O12  1  0.82200400  0.91763900  0.79332800  1
  O  O13  1  0.50000000  0.00000000  0.81567200  1
loop_
_geom_bond_atom_site_label_1
_geom_bond_atom_site_label_2
_geom_bond_distance
_geom_bond_site_symmetry_2
Mg0 O1 1.964709 1_545
Mg0 O4 1.964709 1_455
Mg0 O9 1.964709 1_554
Mg0 O12 1.964709 1_444
Mg1 O3 1.964709 1_555
Mg1 O11 1.964709 1_554
Mg1 O2 1.964709 1_555
Mg1 O10 1.964709 1_554
Ge0 O7 1.742981 1_554
Ge0 O2 1.771909 1_555
Ge0 O1 1.771909 1_555
Ge0 O0 1.822295 1_555
Ge1 O8 1.742981 1_554
Ge1 O4 1.771909 1_555
Ge1 O3 1.771909 1_555
Ge1 O0 1.822295 1_655
Ge2 O5 1.742981 1_556
Ge2 O9 1.771909 1_555
Ge2 O10 1.771909 1_555
Ge2 O13 1.822295 1_555
Ge3 O6 1.742981 1_556
Ge3 O11 1.771909 1_555
Ge3 O12 1.771909 1_555
Ge3 O13 1.822295 1_565
O0 Sr2 2.598348 1_555
O0 Sr3 2.598348 1_455
O1 Sr0 2.591091 1_555
O1 Sr3 2.913324 1_455
O2 Sr0 2.591091 1_555
O2 Sr2 2.913324 1_555
O3 Sr1 2.591091 1_555
O3 Sr3 2.913324 1_555
O4 Sr1 2.591091 1_555
O4 Sr2 2.913324 1_655
O5 Sr2 2.613260 1_555
O5 Sr1 2.780950 1_555
O5 Sr0 2.780950 1_545
O6 Sr3 2.613260 1_555
O6 Sr0 2.780950 1_555
O6 Sr1 2.780950 1_565
O7 Sr0 2.613260 1_555
O7 Sr2 2.780950 1_555
O7 Sr3 2.780950 1_455
O8 Sr1 2.613260 1_555
O8 Sr3 2.780950 1_555
O8 Sr2 2.780950 1_655
O9 Sr2 2.591091 1_555
O9 Sr0 2.913324 1_545
O10 Sr2 2.591091 1_555
O10 Sr1 2.913324 1_555
O11 Sr3 2.591091 1_555
O11 Sr0 2.913324 1_555
O12 Sr3 2.591091 1_555
O12 Sr1 2.913324 1_565
O13 Sr1 2.598348 1_555
O13 Sr0 2.598348 1_545
