# generated using pymatgen
data_HoScRu2
_symmetry_space_group_name_H-M   'P 1'
_cell_length_a   4.63896063
_cell_length_b   4.63896063
_cell_length_c   4.63896063
_cell_angle_alpha   60.00000000
_cell_angle_beta   60.00000000
_cell_angle_gamma   60.00000000
_symmetry_Int_Tables_number   1
_chemical_formula_structural   HoScRu2
_chemical_formula_sum   'Ho1 Sc1 Ru2'
_cell_volume   70.59063080
_cell_formula_units_Z   1
loop_
 _symmetry_equiv_pos_site_id
 _symmetry_equiv_pos_as_xyz
  1  'x, y, z'
loop_
 _atom_site_type_symbol
 _atom_site_label
 _atom_site_symmetry_multiplicity
 _atom_site_fract_x
 _atom_site_fract_y
 _atom_site_fract_z
 _atom_site_occupancy
  Ho  Ho0  1  0.25000000  0.25000000  0.25000000  1
  Sc  Sc0  1  0.75000000  0.75000000  0.75000000  1
  Ru  Ru0  1  -0.00000000  -0.00000000  -0.00000000  1
  Ru  Ru1  1  0.50000000  0.50000000  0.50000000  1
loop_
_geom_bond_atom_site_label_1
_geom_bond_atom_site_label_2
_geom_bond_distance
_geom_bond_site_symmetry_2
Ho0 Ru0 2.840772 1_556
Ho0 Ru1 2.840772 1_555
Ho0 Ru1 2.840772 1_554
Ho0 Ru0 2.840772 1_555
Ho0 Ru0 2.840772 1_655
Ho0 Ru1 2.840772 1_545
Ho0 Ru0 2.840772 1_565
Ho0 Ru1 2.840772 1_455
Ru0 Sc0 2.840772 1_445
Ru0 Sc0 2.840772 1_444
Ru0 Sc0 2.840772 1_454
Ru0 Sc0 2.840772 1_544
Ru1 Sc0 2.840772 1_554
Ru1 Sc0 2.840772 1_555
Ru1 Sc0 2.840772 1_545
Ru1 Sc0 2.840772 1_455
