# generated using pymatgen
data_Hf3Si3Ni2
_symmetry_space_group_name_H-M   'P 1'
_cell_length_a   3.81922179
_cell_length_b   5.25081174
_cell_length_c   12.85105857
_cell_angle_alpha   90.00000000
_cell_angle_beta   90.00000000
_cell_angle_gamma   111.32632553
_symmetry_Int_Tables_number   1
_chemical_formula_structural   Hf3Si3Ni2
_chemical_formula_sum   'Hf6 Si6 Ni4'
_cell_volume   240.06806099
_cell_formula_units_Z   2
loop_
 _symmetry_equiv_pos_site_id
 _symmetry_equiv_pos_as_xyz
  1  'x, y, z'
loop_
 _atom_site_type_symbol
 _atom_site_label
 _atom_site_symmetry_multiplicity
 _atom_site_fract_x
 _atom_site_fract_y
 _atom_site_fract_z
 _atom_site_occupancy
  Hf  Hf0  1  0.86614083  0.73228166  0.25000000  1
  Hf  Hf1  1  0.13385917  0.26771834  0.75000000  1
  Hf  Hf2  1  0.42640521  0.85281142  0.61768593  1
  Hf  Hf3  1  0.57359479  0.14718858  0.38231407  1
  Hf  Hf4  1  0.57359479  0.14718858  0.11768593  1
  Hf  Hf5  1  0.42640521  0.85281142  0.88231407  1
  Si  Si0  1  0.16073292  0.32146685  0.25000000  1
  Si  Si1  1  0.83926708  0.67853315  0.75000000  1
  Si  Si2  1  0.11194099  0.22388098  0.54073199  1
  Si  Si3  1  0.88805901  0.77611902  0.45926801  1
  Si  Si4  1  0.88805901  0.77611902  0.04073199  1
  Si  Si5  1  0.11194099  0.22388098  0.95926801  1
  Ni  Ni0  1  0.71882240  0.43764479  0.91111238  1
  Ni  Ni1  1  0.28117760  0.56235521  0.08888762  1
  Ni  Ni2  1  0.28117760  0.56235521  0.41111238  1
  Ni  Ni3  1  0.71882240  0.43764479  0.58888762  1
loop_
_geom_bond_atom_site_label_1
_geom_bond_atom_site_label_2
_geom_bond_distance
_geom_bond_site_symmetry_2
Hf0 Si4 2.697850 1_555
Hf0 Si3 2.697850 1_555
Hf0 Si0 2.772057 1_655
Hf0 Si0 2.772060 1_555
Hf0 Si0 2.881857 1_665
Hf0 Ni1 2.936708 1_555
Hf0 Ni2 2.936708 1_555
Hf0 Ni2 2.936708 1_655
Hf0 Ni1 2.936708 1_655
Hf1 Si2 2.697850 1_555
Hf1 Si5 2.697850 1_555
Hf1 Si1 2.772057 1_455
Hf1 Si1 2.772060 1_555
Hf1 Si1 2.881857 1_445
Hf1 Ni3 2.936708 1_555
Hf1 Ni0 2.936708 1_555
Hf1 Ni3 2.936708 1_455
Hf1 Ni0 2.936708 1_455
Hf2 Si1 2.695279 1_455
Hf2 Si1 2.695285 1_555
Hf2 Ni3 2.811985 1_455
Hf2 Ni3 2.811988 1_555
Hf2 Si2 2.814039 1_565
Hf2 Si2 2.814044 1_665
Hf2 Si3 2.816375 1_455
Hf2 Si3 2.816375 1_555
Hf2 Ni3 2.884412 1_565
Hf2 Ni2 3.010939 1_555
Hf3 Si0 2.695279 1_655
Hf3 Si0 2.695285 1_555
Hf3 Ni2 2.811985 1_655
Hf3 Ni2 2.811988 1_555
Hf3 Si3 2.814039 1_545
Hf3 Si3 2.814044 1_445
Hf3 Si2 2.816375 1_655
Hf3 Si2 2.816375 1_555
Hf3 Ni2 2.884412 1_545
Hf3 Ni3 3.010939 1_555
Hf4 Si0 2.695279 1_655
Hf4 Si0 2.695285 1_555
Hf4 Ni1 2.811985 1_655
Hf4 Ni1 2.811988 1_555
Hf4 Si4 2.814039 1_545
Hf4 Si4 2.814044 1_445
Hf4 Si5 2.816375 1_654
Hf4 Si5 2.816375 1_554
Hf4 Ni1 2.884412 1_545
Hf4 Ni0 3.010939 1_554
Hf5 Si1 2.695279 1_455
Hf5 Si1 2.695285 1_555
Hf5 Ni0 2.811985 1_455
Hf5 Ni0 2.811988 1_555
Hf5 Si5 2.814039 1_565
Hf5 Si5 2.814044 1_665
Hf5 Si4 2.816375 1_456
Hf5 Si4 2.816375 1_556
Hf5 Ni0 2.884412 1_565
Hf5 Ni1 3.010939 1_556
Si2 Si3 2.427472 1_445
Si4 Si5 2.427472 1_664
Ni0 Si5 2.263362 1_555
Ni0 Si5 2.263365 1_655
Ni0 Si4 2.348535 1_556
Ni0 Si1 2.382245 1_555
Ni1 Si4 2.263362 1_555
Ni1 Si4 2.263365 1_455
Ni1 Si5 2.348535 1_554
Ni1 Si0 2.382245 1_555
Ni2 Si3 2.263362 1_555
Ni2 Si3 2.263365 1_455
Ni2 Si2 2.348535 1_555
Ni2 Si0 2.382245 1_555
Ni3 Si2 2.263362 1_555
Ni3 Si2 2.263365 1_655
Ni3 Si3 2.348535 1_555
Ni3 Si1 2.382245 1_555
