# generated using pymatgen
data_Ba2AgSb
_symmetry_space_group_name_H-M   'P 1'
_cell_length_a   5.91298347
_cell_length_b   5.91298347
_cell_length_c   5.91298347
_cell_angle_alpha   60.00000000
_cell_angle_beta   60.00000000
_cell_angle_gamma   60.00000000
_symmetry_Int_Tables_number   1
_chemical_formula_structural   Ba2AgSb
_chemical_formula_sum   'Ba2 Ag1 Sb1'
_cell_volume   146.18573556
_cell_formula_units_Z   1
loop_
 _symmetry_equiv_pos_site_id
 _symmetry_equiv_pos_as_xyz
  1  'x, y, z'
loop_
 _atom_site_type_symbol
 _atom_site_label
 _atom_site_symmetry_multiplicity
 _atom_site_fract_x
 _atom_site_fract_y
 _atom_site_fract_z
 _atom_site_occupancy
  Ba  Ba0  1  0.50000100  0.50000100  0.50000100  1
  Ba  Ba1  1  0.00000000  -0.00000000  0.00000000  1
  Ag  Ag0  1  0.25000000  0.25000000  0.25000000  1
  Sb  Sb0  1  0.75000000  0.75000000  0.75000000  1
loop_
_geom_bond_atom_site_label_1
_geom_bond_atom_site_label_2
_geom_bond_distance
_geom_bond_site_symmetry_2
Ba0 Sb0 3.620934 1_555
Ba0 Sb0 3.620953 1_554
Ba0 Sb0 3.620953 1_545
Ba0 Sb0 3.620953 1_455
Ba1 Sb0 3.620948 1_444
Ba1 Sb0 3.620948 1_445
Ba1 Sb0 3.620948 1_544
Ba1 Sb0 3.620948 1_454
Ag0 Ba0 3.620943 1_455
Ag0 Ba0 3.620943 1_545
Ag0 Ba0 3.620943 1_554
Ag0 Ba1 3.620948 1_555
Ag0 Ba1 3.620948 1_556
Ag0 Ba1 3.620948 1_655
Ag0 Ba1 3.620948 1_565
Ag0 Ba0 3.620963 1_555
