# generated using pymatgen
data_HfMg3
_symmetry_space_group_name_H-M   'P 1'
_cell_length_a   6.30997419
_cell_length_b   6.30997419
_cell_length_c   5.03102000
_cell_angle_alpha   90.00000000
_cell_angle_beta   90.00000000
_cell_angle_gamma   120.00000199
_symmetry_Int_Tables_number   1
_chemical_formula_structural   HfMg3
_chemical_formula_sum   'Hf2 Mg6'
_cell_volume   173.47697174
_cell_formula_units_Z   2
loop_
 _symmetry_equiv_pos_site_id
 _symmetry_equiv_pos_as_xyz
  1  'x, y, z'
loop_
 _atom_site_type_symbol
 _atom_site_label
 _atom_site_symmetry_multiplicity
 _atom_site_fract_x
 _atom_site_fract_y
 _atom_site_fract_z
 _atom_site_occupancy
  Hf  Hf0  1  0.66666700  0.33333300  0.25000000  1
  Hf  Hf1  1  0.33333300  0.66666700  0.75000000  1
  Mg  Mg0  1  0.16783600  0.33567200  0.25000000  1
  Mg  Mg1  1  0.66432800  0.83216400  0.25000000  1
  Mg  Mg2  1  0.16783600  0.83216400  0.25000000  1
  Mg  Mg3  1  0.83216400  0.16783600  0.75000000  1
  Mg  Mg4  1  0.33567200  0.16783600  0.75000000  1
  Mg  Mg5  1  0.83216400  0.66432800  0.75000000  1
loop_
_geom_bond_atom_site_label_1
_geom_bond_atom_site_label_2
_geom_bond_distance
_geom_bond_site_symmetry_2
Hf0 Mg3 3.098284 1_555
Hf0 Mg3 3.098284 1_554
Hf0 Mg5 3.098287 1_554
Hf0 Mg4 3.098287 1_555
Hf0 Mg5 3.098287 1_555
Hf0 Mg4 3.098287 1_554
Hf0 Mg1 3.155010 1_545
Hf0 Mg0 3.155010 1_655
Hf0 Mg2 3.155013 1_545
Hf0 Mg2 3.155013 1_655
Hf0 Mg1 3.155016 1_555
Hf0 Mg0 3.155016 1_555
Hf1 Mg2 3.098284 1_555
Hf1 Mg2 3.098284 1_556
Hf1 Mg0 3.098287 1_555
Hf1 Mg1 3.098287 1_556
Hf1 Mg0 3.098287 1_556
Hf1 Mg1 3.098287 1_555
Hf1 Mg5 3.155010 1_455
Hf1 Mg4 3.155010 1_565
Hf1 Mg3 3.155013 1_455
Hf1 Mg3 3.155013 1_565
Hf1 Mg5 3.155016 1_555
Hf1 Mg4 3.155016 1_555
Mg0 Mg3 3.113277 1_455
Mg0 Mg3 3.113277 1_454
Mg0 Mg4 3.113277 1_554
Mg0 Mg4 3.113277 1_555
Mg0 Mg1 3.132852 1_555
Mg0 Mg2 3.132852 1_555
Mg0 Mg1 3.177122 1_445
Mg0 Mg2 3.177122 1_545
Mg1 Mg3 3.113277 1_564
Mg1 Mg3 3.113277 1_565
Mg1 Mg5 3.113277 1_554
Mg1 Mg5 3.113277 1_555
Mg1 Mg2 3.132852 1_555
Mg1 Mg2 3.177122 1_655
Mg2 Mg5 3.113277 1_455
Mg2 Mg5 3.113277 1_454
Mg2 Mg4 3.113277 1_565
Mg2 Mg4 3.113277 1_564
Mg3 Mg4 3.132852 1_555
Mg3 Mg5 3.132852 1_555
Mg3 Mg5 3.177122 1_545
Mg3 Mg4 3.177122 1_655
Mg4 Mg5 3.132852 1_555
Mg4 Mg5 3.177122 1_445
