# generated using pymatgen
data_PmDyCu2
_symmetry_space_group_name_H-M   'P 1'
_cell_length_a   4.93608183
_cell_length_b   4.93608199
_cell_length_c   4.93608200
_cell_angle_alpha   60.00121464
_cell_angle_beta   60.00121492
_cell_angle_gamma   60.00121795
_symmetry_Int_Tables_number   1
_chemical_formula_structural   PmDyCu2
_chemical_formula_sum   'Pm1 Dy1 Cu2'
_cell_volume   85.04407366
_cell_formula_units_Z   1
loop_
 _symmetry_equiv_pos_site_id
 _symmetry_equiv_pos_as_xyz
  1  'x, y, z'
loop_
 _atom_site_type_symbol
 _atom_site_label
 _atom_site_symmetry_multiplicity
 _atom_site_fract_x
 _atom_site_fract_y
 _atom_site_fract_z
 _atom_site_occupancy
  Pm  Pm0  1  0.75000075  0.75000074  0.75000072  1
  Dy  Dy0  1  0.25000005  0.25000007  0.25000007  1
  Cu  Cu0  1  0.49999900  0.49999920  0.49999908  1
  Cu  Cu1  1  0.00000020  -0.00000001  0.00000012  1
loop_
_geom_bond_atom_site_label_1
_geom_bond_atom_site_label_2
_geom_bond_distance
_geom_bond_site_symmetry_2
Cu0 Dy0 3.022681 1_555
Cu0 Pm0 3.022713 1_555
Cu0 Pm0 3.022760 1_455
Cu0 Pm0 3.022760 1_554
Cu0 Pm0 3.022761 1_545
Cu0 Dy0 3.022770 1_565
Cu0 Dy0 3.022771 1_556
Cu0 Dy0 3.022771 1_655
Cu1 Pm0 3.022685 1_444
Cu1 Dy0 3.022692 1_555
Cu1 Dy0 3.022767 1_545
Cu1 Dy0 3.022767 1_554
Cu1 Dy0 3.022767 1_455
Cu1 Pm0 3.022769 1_544
Cu1 Pm0 3.022769 1_445
Cu1 Pm0 3.022770 1_454
