# generated using pymatgen
data_SiTc3
_symmetry_space_group_name_H-M   'P 1'
_cell_length_a   5.41053323
_cell_length_b   5.41053323
_cell_length_c   4.42811800
_cell_angle_alpha   90.00000000
_cell_angle_beta   90.00000000
_cell_angle_gamma   119.99999055
_symmetry_Int_Tables_number   1
_chemical_formula_structural   SiTc3
_chemical_formula_sum   'Si2 Tc6'
_cell_volume   112.26128147
_cell_formula_units_Z   2
loop_
 _symmetry_equiv_pos_site_id
 _symmetry_equiv_pos_as_xyz
  1  'x, y, z'
loop_
 _atom_site_type_symbol
 _atom_site_label
 _atom_site_symmetry_multiplicity
 _atom_site_fract_x
 _atom_site_fract_y
 _atom_site_fract_z
 _atom_site_occupancy
  Si  Si0  1  0.66666700  0.33333300  0.25000000  1
  Si  Si1  1  0.33333300  0.66666700  0.75000000  1
  Tc  Tc0  1  0.17089900  0.34179700  0.25000000  1
  Tc  Tc1  1  0.65820300  0.82910100  0.25000000  1
  Tc  Tc2  1  0.17089900  0.82910100  0.25000000  1
  Tc  Tc3  1  0.82910100  0.65820300  0.75000000  1
  Tc  Tc4  1  0.34179700  0.17089900  0.75000000  1
  Tc  Tc5  1  0.82910100  0.17089900  0.75000000  1
loop_
_geom_bond_atom_site_label_1
_geom_bond_atom_site_label_2
_geom_bond_distance
_geom_bond_site_symmetry_2
Si0 Tc5 2.686859 1_554
Si0 Tc5 2.686859 1_555
Si0 Tc3 2.686865 1_555
Si0 Tc3 2.686865 1_554
Si0 Tc4 2.686865 1_555
Si0 Tc4 2.686865 1_554
Si0 Tc0 2.705557 1_555
Si0 Tc1 2.705557 1_555
Si0 Tc1 2.705557 1_545
Si0 Tc0 2.705557 1_655
Si0 Tc2 2.705558 1_545
Si0 Tc2 2.705558 1_655
Si1 Tc2 2.686859 1_556
Si1 Tc2 2.686859 1_555
Si1 Tc1 2.686865 1_556
Si1 Tc1 2.686865 1_555
Si1 Tc0 2.686865 1_556
Si1 Tc0 2.686865 1_555
Si1 Tc4 2.705557 1_555
Si1 Tc3 2.705557 1_555
Si1 Tc3 2.705557 1_455
Si1 Tc4 2.705557 1_565
Si1 Tc5 2.705558 1_565
Si1 Tc5 2.705558 1_455
Tc0 Tc2 2.636574 1_555
Tc0 Tc1 2.636575 1_555
Tc0 Tc4 2.732579 1_554
Tc0 Tc4 2.732579 1_555
Tc0 Tc5 2.732584 1_455
Tc0 Tc5 2.732584 1_454
Tc0 Tc2 2.773959 1_545
Tc0 Tc1 2.773959 1_445
Tc1 Tc2 2.636574 1_555
Tc1 Tc3 2.732579 1_555
Tc1 Tc3 2.732579 1_554
Tc1 Tc5 2.732584 1_565
Tc1 Tc5 2.732584 1_564
Tc1 Tc2 2.773959 1_655
Tc2 Tc4 2.732584 1_564
Tc2 Tc4 2.732584 1_565
Tc2 Tc3 2.732584 1_455
Tc2 Tc3 2.732584 1_454
Tc3 Tc5 2.636574 1_555
Tc3 Tc4 2.636575 1_555
Tc3 Tc5 2.773959 1_565
Tc3 Tc4 2.773959 1_665
Tc4 Tc5 2.636574 1_555
Tc4 Tc5 2.773959 1_455
