# generated using pymatgen
data_Yb3Y
_symmetry_space_group_name_H-M   'P 1'
_cell_length_a   7.49585538
_cell_length_b   7.49585538
_cell_length_c   6.12295600
_cell_angle_alpha   90.00000000
_cell_angle_beta   90.00000000
_cell_angle_gamma   119.99999450
_symmetry_Int_Tables_number   1
_chemical_formula_structural   Yb3Y
_chemical_formula_sum   'Yb6 Y2'
_cell_volume   297.94368986
_cell_formula_units_Z   2
loop_
 _symmetry_equiv_pos_site_id
 _symmetry_equiv_pos_as_xyz
  1  'x, y, z'
loop_
 _atom_site_type_symbol
 _atom_site_label
 _atom_site_symmetry_multiplicity
 _atom_site_fract_x
 _atom_site_fract_y
 _atom_site_fract_z
 _atom_site_occupancy
  Yb  Yb0  1  0.17047400  0.34094900  0.25000000  1
  Yb  Yb1  1  0.65905100  0.82952600  0.25000000  1
  Yb  Yb2  1  0.17047400  0.82952600  0.25000000  1
  Yb  Yb3  1  0.82952600  0.65905100  0.75000000  1
  Yb  Yb4  1  0.34094900  0.17047400  0.75000000  1
  Yb  Yb5  1  0.82952600  0.17047400  0.75000000  1
  Y  Y0  1  0.33333300  0.66666700  0.75000000  1
  Y  Y1  1  0.66666700  0.33333300  0.25000000  1
loop_
_geom_bond_atom_site_label_1
_geom_bond_atom_site_label_2
_geom_bond_distance
_geom_bond_site_symmetry_2
Yb0 Yb2 3.662303 1_555
Yb0 Yb1 3.662303 1_555
Yb0 Yb5 3.777742 1_454
Yb0 Yb5 3.777742 1_455
Yb0 Yb4 3.777750 1_555
Yb0 Yb4 3.777750 1_554
Yb0 Yb2 3.833553 1_545
Yb0 Yb1 3.833553 1_445
Yb1 Yb2 3.662303 1_555
Yb1 Yb5 3.777742 1_564
Yb1 Yb5 3.777742 1_565
Yb1 Yb3 3.777750 1_554
Yb1 Yb3 3.777750 1_555
Yb1 Yb2 3.833553 1_655
Yb2 Yb3 3.777742 1_454
Yb2 Yb4 3.777742 1_564
Yb2 Yb3 3.777742 1_455
Yb2 Yb4 3.777742 1_565
Yb3 Yb5 3.662303 1_555
Yb3 Yb4 3.662303 1_555
Yb3 Yb5 3.833553 1_565
Yb3 Yb4 3.833553 1_665
Yb4 Yb5 3.662303 1_555
Yb4 Yb5 3.833553 1_455
Y0 Yb2 3.720681 1_556
Y0 Yb2 3.720681 1_555
Y0 Yb0 3.720681 1_556
Y0 Yb1 3.720681 1_556
Y0 Yb1 3.720681 1_555
Y0 Yb0 3.720681 1_555
Y0 Yb3 3.748246 1_455
Y0 Yb4 3.748246 1_565
Y0 Yb5 3.748254 1_565
Y0 Yb5 3.748254 1_455
Y0 Yb4 3.748261 1_555
Y0 Yb3 3.748261 1_555
Y1 Yb5 3.720681 1_554
Y1 Yb5 3.720681 1_555
Y1 Yb3 3.720681 1_555
Y1 Yb4 3.720681 1_554
Y1 Yb4 3.720681 1_555
Y1 Yb3 3.720681 1_554
Y1 Yb0 3.748246 1_655
Y1 Yb1 3.748246 1_545
Y1 Yb2 3.748254 1_545
Y1 Yb2 3.748254 1_655
Y1 Yb1 3.748261 1_555
Y1 Yb0 3.748261 1_555
