# generated using pymatgen
data_K3BAs2
_symmetry_space_group_name_H-M   'P 1'
_cell_length_a   6.71906124
_cell_length_b   6.71906124
_cell_length_c   9.15415892
_cell_angle_alpha   74.93929986
_cell_angle_beta   74.93929986
_cell_angle_gamma   86.14102899
_symmetry_Int_Tables_number   1
_chemical_formula_structural   K3BAs2
_chemical_formula_sum   'K6 B2 As4'
_cell_volume   385.36840257
_cell_formula_units_Z   2
loop_
 _symmetry_equiv_pos_site_id
 _symmetry_equiv_pos_as_xyz
  1  'x, y, z'
loop_
 _atom_site_type_symbol
 _atom_site_label
 _atom_site_symmetry_multiplicity
 _atom_site_fract_x
 _atom_site_fract_y
 _atom_site_fract_z
 _atom_site_occupancy
  K  K0  1  0.25130300  0.14487100  0.02017300  1
  K  K1  1  0.14487100  0.25130300  0.52017300  1
  K  K2  1  0.64338500  0.35661500  0.25000000  1
  K  K3  1  0.35661500  0.64338500  0.75000000  1
  K  K4  1  0.85512900  0.74869700  0.47982700  1
  K  K5  1  0.74869700  0.85512900  0.97982700  1
  B  B0  1  0.71589600  0.28410400  0.75000000  1
  B  B1  1  0.28410400  0.71589600  0.25000000  1
  As  As0  1  0.58561300  0.14277500  0.64651000  1
  As  As1  1  0.85722500  0.41438700  0.85349000  1
  As  As2  1  0.14277500  0.58561300  0.14651000  1
  As  As3  1  0.41438700  0.85722500  0.35349000  1
loop_
_geom_bond_atom_site_label_1
_geom_bond_atom_site_label_2
_geom_bond_distance
_geom_bond_site_symmetry_2
B0 K5 3.128362 1_545
B0 K1 3.128362 1_655
B0 K3 3.297074 1_555
B0 K4 3.451810 1_555
B0 K0 3.451810 1_556
B1 K4 3.128362 1_455
B1 K0 3.128362 1_565
B1 K2 3.297074 1_555
B1 K1 3.451810 1_555
B1 K5 3.451810 1_554
As0 B0 1.891006 1_555
As0 K1 3.419048 1_555
As0 K2 3.467351 1_555
As0 K4 3.554829 1_545
As0 K3 3.579007 1_545
As1 B0 1.891006 1_555
As1 K5 3.419048 1_555
As1 K2 3.467351 1_556
As1 K0 3.554829 1_656
As1 K3 3.579007 1_655
As2 B1 1.891006 1_555
As2 K0 3.419048 1_555
As2 K3 3.467351 1_554
As2 K5 3.554829 1_454
As2 K2 3.579007 1_455
As3 B1 1.891006 1_555
As3 K4 3.419048 1_555
As3 K3 3.467351 1_555
As3 K1 3.554829 1_565
As3 K2 3.579007 1_565
