# generated using pymatgen
data_MnP2O7
_symmetry_space_group_name_H-M   'P 1'
_cell_length_a   6.27325200
_cell_length_b   9.38924766
_cell_length_c   10.59272729
_cell_angle_alpha   64.81729269
_cell_angle_beta   80.21558753
_cell_angle_gamma   73.71697620
_symmetry_Int_Tables_number   1
_chemical_formula_structural   MnP2O7
_chemical_formula_sum   'Mn4 P8 O28'
_cell_volume   541.05342245
_cell_formula_units_Z   4
loop_
 _symmetry_equiv_pos_site_id
 _symmetry_equiv_pos_as_xyz
  1  'x, y, z'
loop_
 _atom_site_type_symbol
 _atom_site_label
 _atom_site_symmetry_multiplicity
 _atom_site_fract_x
 _atom_site_fract_y
 _atom_site_fract_z
 _atom_site_occupancy
  Mn  Mn0  1  0.28573200  0.88336700  0.22497100  1
  Mn  Mn1  1  0.71426800  0.11663300  0.77502900  1
  Mn  Mn2  1  0.37617400  0.25036300  0.25257200  1
  Mn  Mn3  1  0.62382600  0.74963700  0.74742800  1
  P  P0  1  0.89597500  0.14908000  0.30043000  1
  P  P1  1  0.69923800  0.77973900  0.03643500  1
  P  P2  1  0.92132900  0.39849700  0.79027800  1
  P  P3  1  0.30076200  0.22026100  0.96356500  1
  P  P4  1  0.41056300  0.84143900  0.46537900  1
  P  P5  1  0.58943700  0.15856100  0.53462100  1
  P  P6  1  0.07867100  0.60150300  0.20972200  1
  P  P7  1  0.10402500  0.85092000  0.69957000  1
  O  O0  1  0.05946500  0.25236300  0.27859600  1
  O  O1  1  0.39105800  0.21689600  0.45022600  1
  O  O2  1  0.29474500  0.49201900  0.19494000  1
  O  O3  1  0.00097600  0.01508100  0.72141000  1
  O  O4  1  0.44031000  0.24273400  0.82996200  1
  O  O5  1  0.60111600  0.72842600  0.94510100  1
  O  O6  1  0.92723500  0.64680200  0.08613700  1
  O  O7  1  0.99902400  0.98491900  0.27859000  1
  O  O8  1  0.30781200  0.75142900  0.78781700  1
  O  O9  1  0.04722700  0.46523700  0.65201500  1
  O  O10  1  0.80136300  0.08818400  0.46219900  1
  O  O11  1  0.55969000  0.75726600  0.17003800  1
  O  O12  1  0.69218800  0.24857100  0.21218300  1
  O  O13  1  0.12805300  0.77487700  0.17069500  1
  O  O14  1  0.56659300  0.02090800  0.68776600  1
  O  O15  1  0.19863700  0.91181600  0.53780100  1
  O  O16  1  0.74428300  0.94957900  0.96197900  1
  O  O17  1  0.64672700  0.28120500  0.58546200  1
  O  O18  1  0.25571700  0.05042100  0.03802100  1
  O  O19  1  0.60894200  0.78310400  0.54977400  1
  O  O20  1  0.70525500  0.50798100  0.80506000  1
  O  O21  1  0.95190100  0.54381800  0.35206600  1
  O  O22  1  0.87194700  0.22512300  0.82930500  1
  O  O23  1  0.39888400  0.27157400  0.05489900  1
  O  O24  1  0.35327300  0.71879500  0.41453800  1
  O  O25  1  0.07276500  0.35319800  0.91386300  1
  O  O26  1  0.94053500  0.74763700  0.72140400  1
  O  O27  1  0.43340700  0.97909200  0.31223400  1
loop_
_geom_bond_atom_site_label_1
_geom_bond_atom_site_label_2
_geom_bond_distance
_geom_bond_site_symmetry_2
Mn0 O13 1.898241 1_555
Mn0 O7 1.902278 1_455
Mn0 O18 1.932632 1_565
Mn0 O11 1.949206 1_555
Mn0 O24 1.969994 1_555
Mn0 O27 1.996358 1_555
Mn1 O22 1.898241 1_555
Mn1 O3 1.902278 1_655
Mn1 O16 1.932632 1_545
Mn1 O4 1.949206 1_555
Mn1 O17 1.969994 1_555
Mn1 O14 1.996358 1_555
Mn2 O12 1.952568 1_555
Mn2 O0 1.954746 1_555
Mn2 O1 1.995276 1_555
Mn2 O23 2.001000 1_555
Mn2 O2 2.014720 1_555
Mn2 O27 2.282571 1_545
Mn3 O8 1.952568 1_555
Mn3 O26 1.954746 1_555
Mn3 O19 1.995276 1_555
Mn3 O5 2.001000 1_555
Mn3 O20 2.014720 1_555
Mn3 O14 2.282571 1_565
O0 P0 1.527098 1_455
O1 P5 1.492354 1_555
O2 P6 1.483934 1_555
O3 P7 1.594068 1_545
O4 P3 1.497365 1_555
O5 P1 1.520662 1_556
O6 P6 1.587267 1_655
O6 P1 1.605128 1_555
O7 P0 1.594068 1_565
O8 P7 1.540823 1_555
O9 P2 1.504925 1_455
O10 P5 1.544265 1_555
O10 P0 1.620604 1_555
O11 P1 1.497365 1_555
O12 P0 1.540823 1_555
O13 P6 1.607275 1_555
O14 P5 1.600988 1_555
O15 P4 1.544265 1_555
O15 P7 1.620604 1_555
O16 P1 1.533453 1_556
O17 P5 1.603386 1_555
O18 P3 1.533453 1_554
O19 P4 1.492354 1_555
O20 P2 1.483934 1_555
O21 P6 1.529144 1_655
O22 P2 1.607275 1_555
O23 P3 1.520662 1_554
O24 P4 1.603386 1_555
O25 P2 1.587267 1_455
O25 P3 1.605128 1_555
O26 P7 1.527098 1_655
O27 P4 1.600988 1_555
