# generated using pymatgen
data_K4Ba(SiO3)3
_symmetry_space_group_name_H-M   'P 1'
_cell_length_a   7.27235106
_cell_length_b   7.27235106
_cell_length_c   11.30352600
_cell_angle_alpha   90.00000000
_cell_angle_beta   90.00000000
_cell_angle_gamma   113.10978002
_symmetry_Int_Tables_number   1
_chemical_formula_structural   K4Ba(SiO3)3
_chemical_formula_sum   'K8 Ba2 Si6 O18'
_cell_volume   549.83899451
_cell_formula_units_Z   2
loop_
 _symmetry_equiv_pos_site_id
 _symmetry_equiv_pos_as_xyz
  1  'x, y, z'
loop_
 _atom_site_type_symbol
 _atom_site_label
 _atom_site_symmetry_multiplicity
 _atom_site_fract_x
 _atom_site_fract_y
 _atom_site_fract_z
 _atom_site_occupancy
  K  K0  1  0.28188400  0.80801000  0.75000000  1
  K  K1  1  0.19199000  0.71811600  0.25000000  1
  K  K2  1  0.97721000  0.02279000  0.00000000  1
  K  K3  1  0.97721000  0.02279000  0.50000000  1
  K  K4  1  0.48175300  0.51824700  0.00000000  1
  K  K5  1  0.48175300  0.51824700  0.50000000  1
  K  K6  1  0.28440700  0.30098500  0.75000000  1
  K  K7  1  0.69901500  0.71559300  0.25000000  1
  Ba  Ba0  1  0.76850600  0.22489700  0.75000000  1
  Ba  Ba1  1  0.77510300  0.23149400  0.25000000  1
  Si  Si0  1  0.81306000  0.73646900  0.75000000  1
  Si  Si1  1  0.26353100  0.18694000  0.25000000  1
  Si  Si2  1  0.00491500  0.57646500  0.97794200  1
  Si  Si3  1  0.42353500  0.99508500  0.02205800  1
  Si  Si4  1  0.00491500  0.57646500  0.52205800  1
  Si  Si5  1  0.42353500  0.99508500  0.47794200  1
  O  O0  1  0.57479500  0.67390500  0.75000000  1
  O  O1  1  0.32609500  0.42520500  0.25000000  1
  O  O2  1  0.95217100  0.97296600  0.75000000  1
  O  O3  1  0.02703400  0.04782900  0.25000000  1
  O  O4  1  0.87587400  0.62955300  0.86745700  1
  O  O5  1  0.37044700  0.12412600  0.13254300  1
  O  O6  1  0.87587400  0.62955300  0.63254300  1
  O  O7  1  0.37044700  0.12412600  0.36745700  1
  O  O8  1  0.87215900  0.53659400  0.09706300  1
  O  O9  1  0.46340600  0.12784100  0.90293700  1
  O  O10  1  0.87215900  0.53659400  0.40293700  1
  O  O11  1  0.46340600  0.12784100  0.59706300  1
  O  O12  1  0.21217900  0.78782100  0.00000000  1
  O  O13  1  0.21217900  0.78782100  0.50000000  1
  O  O14  1  0.06825100  0.40182800  0.92635700  1
  O  O15  1  0.59817200  0.93174900  0.07364300  1
  O  O16  1  0.06825100  0.40182800  0.57364300  1
  O  O17  1  0.59817200  0.93174900  0.42635700  1
loop_
_geom_bond_atom_site_label_1
_geom_bond_atom_site_label_2
_geom_bond_distance
_geom_bond_site_symmetry_2
K0 O0 2.668229 1_555
K0 O11 2.780433 1_565
K0 O9 2.780433 1_565
K0 O12 2.864560 1_556
K0 O13 2.864560 1_555
K0 O4 3.026071 1_455
K0 O6 3.026071 1_455
K0 O2 3.073506 1_455
K1 O1 2.668229 1_555
K1 O8 2.780433 1_455
K1 O10 2.780433 1_455
K1 O12 2.864560 1_555
K1 O13 2.864560 1_555
K1 O5 3.026071 1_565
K1 O7 3.026071 1_565
K1 O3 3.073506 1_565
K2 O14 2.701284 1_654
K2 O15 2.701284 1_545
K2 O2 2.845744 1_544
K2 O3 2.845744 1_655
K2 O12 2.851656 1_645
K2 O5 3.051485 1_655
K2 O4 3.051485 1_544
K3 O16 2.701284 1_655
K3 O17 2.701284 1_545
K3 O2 2.845744 1_545
K3 O3 2.845744 1_655
K3 O13 2.851656 1_645
K3 O7 3.051485 1_655
K3 O6 3.051485 1_545
K4 O15 2.907581 1_555
K4 O14 2.907581 1_554
K4 O8 2.997510 1_555
K4 O9 2.997510 1_554
K4 O0 3.020530 1_554
K4 O1 3.020530 1_555
K4 O5 3.048548 1_555
K4 O4 3.048548 1_554
K4 O12 3.271633 1_555
K5 O17 2.907581 1_555
K5 O16 2.907581 1_555
K5 O10 2.997510 1_555
K5 O11 2.997510 1_555
K5 O0 3.020530 1_555
K5 O1 3.020530 1_555
K5 O6 3.048548 1_555
K5 O7 3.048548 1_555
K5 O13 3.271633 1_555
K6 O2 2.646471 1_445
K6 O0 2.705344 1_555
K6 O9 2.748674 1_555
K6 O11 2.748674 1_555
K6 O14 2.808507 1_555
K6 O16 2.808507 1_555
K7 O3 2.646471 1_665
K7 O1 2.705344 1_555
K7 O8 2.748674 1_555
K7 O10 2.748674 1_555
K7 O17 2.808507 1_555
K7 O15 2.808507 1_555
Ba0 O2 2.657387 1_545
Ba0 O11 2.679623 1_555
Ba0 O9 2.679623 1_555
Ba0 O14 2.859977 1_655
Ba0 O16 2.859977 1_655
Ba0 O4 3.037884 1_555
Ba0 O6 3.037884 1_555
Ba1 O3 2.657387 1_655
Ba1 O8 2.679623 1_555
Ba1 O10 2.679623 1_555
Ba1 O17 2.859977 1_545
Ba1 O15 2.859977 1_545
Ba1 O7 3.037884 1_555
Ba1 O5 3.037884 1_555
O0 Si0 1.609521 1_555
O1 Si1 1.609521 1_555
O2 Si0 1.617295 1_555
O3 Si1 1.617295 1_555
O4 Si0 1.689606 1_555
O4 Si2 1.695225 1_655
O5 Si1 1.689606 1_555
O5 Si3 1.695225 1_545
O6 Si0 1.689606 1_555
O6 Si4 1.695225 1_655
O7 Si1 1.689606 1_555
O7 Si5 1.695225 1_545
O8 Si2 1.615378 1_654
O9 Si3 1.615378 1_546
O10 Si4 1.615378 1_655
O11 Si5 1.615378 1_545
O12 Si2 1.696464 1_554
O12 Si3 1.696464 1_555
O13 Si4 1.696464 1_555
O13 Si5 1.696464 1_555
O14 Si2 1.619970 1_555
O15 Si3 1.619970 1_555
O16 Si4 1.619970 1_555
O17 Si5 1.619970 1_555
