# generated using pymatgen
data_RbNdS2
_symmetry_space_group_name_H-M   'P 1'
_cell_length_a   8.05251605
_cell_length_b   8.05251605
_cell_length_c   8.05251533
_cell_angle_alpha   30.35713608
_cell_angle_beta   30.35713608
_cell_angle_gamma   30.35713658
_symmetry_Int_Tables_number   1
_chemical_formula_structural   RbNdS2
_chemical_formula_sum   'Rb1 Nd1 S2'
_cell_volume   118.19613574
_cell_formula_units_Z   1
loop_
 _symmetry_equiv_pos_site_id
 _symmetry_equiv_pos_as_xyz
  1  'x, y, z'
loop_
 _atom_site_type_symbol
 _atom_site_label
 _atom_site_symmetry_multiplicity
 _atom_site_fract_x
 _atom_site_fract_y
 _atom_site_fract_z
 _atom_site_occupancy
  Rb  Rb0  1  0.00000000  0.00000000  -0.00000000  1
  Nd  Nd0  1  0.50000000  0.50000000  0.50000000  1
  S  S0  1  0.76722615  0.76722615  0.76722615  1
  S  S1  1  0.23277385  0.23277385  0.23277385  1
loop_
_geom_bond_atom_site_label_1
_geom_bond_atom_site_label_2
_geom_bond_distance
_geom_bond_site_symmetry_2
Rb0 S1 3.359901 1_554
Rb0 S0 3.359901 1_445
Rb0 S1 3.359902 1_455
Rb0 S1 3.359902 1_545
Rb0 S0 3.359902 1_454
Rb0 S0 3.359902 1_544
Nd0 S0 2.871280 1_554
Nd0 S1 2.871280 1_556
Nd0 S0 2.871280 1_455
Nd0 S0 2.871280 1_545
Nd0 S1 2.871280 1_565
Nd0 S1 2.871280 1_655
