# generated using pymatgen
data_PrEr3
_symmetry_space_group_name_H-M   'P 1'
_cell_length_a   5.04441968
_cell_length_b   5.04523204
_cell_length_c   5.04519965
_cell_angle_alpha   89.99895179
_cell_angle_beta   89.99794386
_cell_angle_gamma   89.99863473
_symmetry_Int_Tables_number   1
_chemical_formula_structural   PrEr3
_chemical_formula_sum   'Pr1 Er3'
_cell_volume   128.40168209
_cell_formula_units_Z   1
loop_
 _symmetry_equiv_pos_site_id
 _symmetry_equiv_pos_as_xyz
  1  'x, y, z'
loop_
 _atom_site_type_symbol
 _atom_site_label
 _atom_site_symmetry_multiplicity
 _atom_site_fract_x
 _atom_site_fract_y
 _atom_site_fract_z
 _atom_site_occupancy
  Pr  Pr0  1  0.00000906  0.99999027  0.99999138  1
  Er  Er0  1  0.99999391  0.50000532  0.50000469  1
  Er  Er1  1  0.49999500  0.99999012  0.50000476  1
  Er  Er2  1  0.50000403  0.50001428  -0.00000184  1
loop_
_geom_bond_atom_site_label_1
_geom_bond_atom_site_label_2
_geom_bond_distance
_geom_bond_site_symmetry_2
Er0 Er2 3.567096 1_556
Er0 Er1 3.567130 1_555
Er0 Er2 3.567215 1_655
Er0 Er1 3.567223 1_655
Er0 Er1 3.567246 1_645
Er0 Er2 3.567270 1_555
Er0 Er2 3.567296 1_656
Er0 Er1 3.567323 1_545
Er0 Pr0 3.567438 1_655
Er0 Pr0 3.567467 1_654
Er0 Pr0 3.567480 1_645
Er0 Pr0 3.567640 1_644
Er1 Pr0 3.567057 1_555
Er1 Pr0 3.567253 1_654
Er1 Pr0 3.567281 1_554
Er1 Pr0 3.567286 1_655
Er1 Er2 3.567364 1_556
Er1 Er2 3.567476 1_555
Er1 Er2 3.567583 1_565
Er1 Er2 3.567602 1_566
Er2 Pr0 3.567084 1_554
Er2 Pr0 3.567205 1_654
Er2 Pr0 3.567292 1_644
Er2 Pr0 3.567341 1_544
