# generated using pymatgen
data_YbGa2Pd
_symmetry_space_group_name_H-M   'P 1'
_cell_length_a   5.40968325
_cell_length_b   5.40968325
_cell_length_c   6.88381100
_cell_angle_alpha   90.00000000
_cell_angle_beta   90.00000000
_cell_angle_gamma   131.60036622
_symmetry_Int_Tables_number   1
_chemical_formula_structural   YbGa2Pd
_chemical_formula_sum   'Yb2 Ga4 Pd2'
_cell_volume   150.64492263
_cell_formula_units_Z   2
loop_
 _symmetry_equiv_pos_site_id
 _symmetry_equiv_pos_as_xyz
  1  'x, y, z'
loop_
 _atom_site_type_symbol
 _atom_site_label
 _atom_site_symmetry_multiplicity
 _atom_site_fract_x
 _atom_site_fract_y
 _atom_site_fract_z
 _atom_site_occupancy
  Yb  Yb0  1  0.58362600  0.41637400  0.25000000  1
  Yb  Yb1  1  0.41637400  0.58362600  0.75000000  1
  Ga  Ga0  1  0.86743900  0.13256100  0.05624200  1
  Ga  Ga1  1  0.13256100  0.86743900  0.55624200  1
  Ga  Ga2  1  0.13256100  0.86743900  0.94375800  1
  Ga  Ga3  1  0.86743900  0.13256100  0.44375800  1
  Pd  Pd0  1  0.29641600  0.70358400  0.25000000  1
  Pd  Pd1  1  0.70358400  0.29641600  0.75000000  1
loop_
_geom_bond_atom_site_label_1
_geom_bond_atom_site_label_2
_geom_bond_distance
_geom_bond_site_symmetry_2
Ga0 Pd1 2.656854 1_554
Ga0 Ga3 2.667587 1_555
Ga0 Pd0 2.680995 1_545
Ga0 Pd0 2.680995 1_655
Ga0 Ga2 2.728552 1_644
Ga0 Yb1 3.097551 1_654
Ga0 Yb1 3.097551 1_544
Ga0 Yb0 3.102202 1_555
Ga0 Yb0 3.353822 1_545
Ga0 Yb0 3.353822 1_655
Ga1 Pd0 2.656854 1_555
Ga1 Ga2 2.667587 1_555
Ga1 Pd1 2.680995 1_565
Ga1 Pd1 2.680995 1_455
Ga1 Ga3 2.728552 1_465
Ga1 Yb0 3.097551 1_565
Ga1 Yb0 3.097551 1_455
Ga1 Yb1 3.102202 1_555
Ga1 Yb1 3.353822 1_565
Ga1 Yb1 3.353822 1_455
Ga2 Pd0 2.656854 1_556
Ga2 Pd1 2.680995 1_565
Ga2 Pd1 2.680995 1_455
Ga2 Yb0 3.097551 1_456
Ga2 Yb0 3.097551 1_566
Ga2 Yb1 3.102202 1_555
Ga2 Yb1 3.353822 1_565
Ga2 Yb1 3.353822 1_455
Ga3 Pd1 2.656854 1_555
Ga3 Pd0 2.680995 1_545
Ga3 Pd0 2.680995 1_655
Ga3 Yb1 3.097551 1_545
Ga3 Yb1 3.097551 1_655
Ga3 Yb0 3.102202 1_555
Ga3 Yb0 3.353822 1_545
Ga3 Yb0 3.353822 1_655
Pd0 Yb0 2.834354 1_555
Pd0 Yb0 3.054046 1_455
Pd0 Yb0 3.054046 1_565
Pd1 Yb1 2.834354 1_555
Pd1 Yb1 3.054046 1_545
Pd1 Yb1 3.054046 1_655
