# generated using pymatgen
data_K2Fe2(SO4)3
_symmetry_space_group_name_H-M   'P 1'
_cell_length_a   10.14497000
_cell_length_b   10.14497000
_cell_length_c   10.14497000
_cell_angle_alpha   90.00000000
_cell_angle_beta   90.00000000
_cell_angle_gamma   90.00000000
_symmetry_Int_Tables_number   1
_chemical_formula_structural   K2Fe2(SO4)3
_chemical_formula_sum   'K8 Fe8 S12 O48'
_cell_volume   1044.12453576
_cell_formula_units_Z   4
loop_
 _symmetry_equiv_pos_site_id
 _symmetry_equiv_pos_as_xyz
  1  'x, y, z'
loop_
 _atom_site_type_symbol
 _atom_site_label
 _atom_site_symmetry_multiplicity
 _atom_site_fract_x
 _atom_site_fract_y
 _atom_site_fract_z
 _atom_site_occupancy
  K  K0  1  0.68469600  0.18469600  0.31530400  1
  K  K1  1  0.31530400  0.68469600  0.18469600  1
  K  K2  1  0.94919500  0.55080500  0.44919500  1
  K  K3  1  0.18469600  0.31530400  0.68469600  1
  K  K4  1  0.05080500  0.05080500  0.05080500  1
  K  K5  1  0.44919500  0.94919500  0.55080500  1
  K  K6  1  0.55080500  0.44919500  0.94919500  1
  K  K7  1  0.81530400  0.81530400  0.81530400  1
  Fe  Fe0  1  0.33519300  0.33519300  0.33519300  1
  Fe  Fe1  1  0.16480700  0.66480700  0.83519300  1
  Fe  Fe2  1  0.83519300  0.16480700  0.66480700  1
  Fe  Fe3  1  0.66480700  0.83519300  0.16480700  1
  Fe  Fe4  1  0.59385800  0.59385800  0.59385800  1
  Fe  Fe5  1  0.09385800  0.90614200  0.40614200  1
  Fe  Fe6  1  0.40614200  0.09385800  0.90614200  1
  Fe  Fe7  1  0.90614200  0.40614200  0.09385800  1
  S  S0  1  0.28089700  0.62339400  0.51895800  1
  S  S1  1  0.78089700  0.87660600  0.48104200  1
  S  S2  1  0.71910300  0.12339400  0.98104200  1
  S  S3  1  0.87660600  0.48104200  0.78089700  1
  S  S4  1  0.98104200  0.71910300  0.12339400  1
  S  S5  1  0.48104200  0.78089700  0.87660600  1
  S  S6  1  0.62339400  0.51895800  0.28089700  1
  S  S7  1  0.51895800  0.28089700  0.62339400  1
  S  S8  1  0.12339400  0.98104200  0.71910300  1
  S  S9  1  0.21910300  0.37660600  0.01895800  1
  S  S10  1  0.01895800  0.21910300  0.37660600  1
  S  S11  1  0.37660600  0.01895800  0.21910300  1
  O  O0  1  0.25206700  0.59447100  0.65920300  1
  O  O1  1  0.75206700  0.90552900  0.34079700  1
  O  O2  1  0.74793300  0.09447100  0.84079700  1
  O  O3  1  0.90552900  0.34079700  0.75206700  1
  O  O4  1  0.84079700  0.74793300  0.09447100  1
  O  O5  1  0.34079700  0.75206700  0.90552900  1
  O  O6  1  0.59447100  0.65920300  0.25206700  1
  O  O7  1  0.65920300  0.25206700  0.59447100  1
  O  O8  1  0.09447100  0.84079700  0.74793300  1
  O  O9  1  0.40552900  0.15920300  0.24793300  1
  O  O10  1  0.15920300  0.24793300  0.40552900  1
  O  O11  1  0.24793300  0.40552900  0.15920300  1
  O  O12  1  0.25901100  0.49983000  0.44227300  1
  O  O13  1  0.75901100  0.00017000  0.55772700  1
  O  O14  1  0.74098900  0.99983000  0.05772700  1
  O  O15  1  0.00017000  0.55772700  0.75901100  1
  O  O16  1  0.05772700  0.74098900  0.99983000  1
  O  O17  1  0.55772700  0.75901100  0.00017000  1
  O  O18  1  0.99638000  0.58039900  0.17106700  1
  O  O19  1  0.44227300  0.25901100  0.49983000  1
  O  O20  1  0.99983000  0.05772700  0.74098900  1
  O  O21  1  0.50017000  0.94227300  0.24098900  1
  O  O22  1  0.94227300  0.24098900  0.50017000  1
  O  O23  1  0.24098900  0.50017000  0.94227300  1
  O  O24  1  0.41960100  0.67106700  0.50362000  1
  O  O25  1  0.91960100  0.82893300  0.49638000  1
  O  O26  1  0.58039900  0.17106700  0.99638000  1
  O  O27  1  0.82893300  0.49638000  0.91960100  1
  O  O28  1  0.30967200  0.27575800  0.96384400  1
  O  O29  1  0.96384400  0.30967200  0.27575800  1
  O  O30  1  0.27575800  0.96384400  0.30967200  1
  O  O31  1  0.22424200  0.03615600  0.80967200  1
  O  O32  1  0.46384400  0.19032800  0.72424200  1
  O  O33  1  0.72424200  0.46384400  0.19032800  1
  O  O34  1  0.53615600  0.69032800  0.77575800  1
  O  O35  1  0.03615600  0.80967200  0.22424200  1
  O  O36  1  0.77575800  0.53615600  0.69032800  1
  O  O37  1  0.80967200  0.22424200  0.03615600  1
  O  O38  1  0.69032800  0.77575800  0.53615600  1
  O  O39  1  0.19032800  0.72424200  0.46384400  1
  O  O40  1  0.08039900  0.32893300  0.00362000  1
  O  O41  1  0.00362000  0.08039900  0.32893300  1
  O  O42  1  0.32893300  0.00362000  0.08039900  1
  O  O43  1  0.17106700  0.99638000  0.58039900  1
  O  O44  1  0.50362000  0.41960100  0.67106700  1
  O  O45  1  0.67106700  0.50362000  0.41960100  1
  O  O46  1  0.49638000  0.91960100  0.82893300  1
  O  O47  1  0.49983000  0.44227300  0.25901100  1
loop_
_geom_bond_atom_site_label_1
_geom_bond_atom_site_label_2
_geom_bond_distance
_geom_bond_site_symmetry_2
K0 O1 2.924902 1_545
K0 O9 2.924902 1_555
K0 O7 2.924902 1_555
K0 O37 3.128642 1_555
K0 O33 3.128642 1_555
K0 O29 3.128642 1_555
K0 O21 3.181406 1_545
K0 O19 3.181406 1_555
K0 O13 3.181406 1_555
K0 O14 3.266779 1_545
K0 O47 3.266779 1_555
K0 O22 3.266779 1_555
K1 O5 2.924902 1_554
K1 O11 2.924902 1_555
K1 O6 2.924902 1_555
K1 O39 3.128642 1_555
K1 O35 3.128642 1_555
K1 O30 3.128642 1_555
K1 O23 3.181406 1_554
K1 O47 3.181406 1_555
K1 O17 3.181406 1_555
K1 O16 3.266779 1_554
K1 O12 3.266779 1_555
K1 O21 3.266779 1_555
K2 O25 2.877622 1_555
K2 O18 2.877622 1_555
K2 O45 2.877622 1_555
K2 O29 3.017001 1_555
K2 O36 3.017001 1_555
K2 O39 3.017001 1_655
K2 O22 3.186107 1_555
K2 O15 3.186107 1_655
K2 O12 3.186107 1_655
K3 O3 2.924902 1_455
K3 O0 2.924902 1_555
K3 O10 2.924902 1_555
K3 O31 3.128642 1_555
K3 O32 3.128642 1_555
K3 O28 3.128642 1_555
K3 O12 3.181406 1_555
K3 O22 3.181406 1_455
K3 O15 3.181406 1_555
K3 O20 3.266779 1_455
K3 O23 3.266779 1_555
K3 O19 3.266779 1_555
K4 O41 2.877622 1_555
K4 O42 2.877622 1_555
K4 O40 2.877622 1_555
K4 O37 3.017001 1_455
K4 O35 3.017001 1_545
K4 O31 3.017001 1_554
K4 O20 3.186107 1_454
K4 O16 3.186107 1_544
K4 O14 3.186107 1_445
K5 O46 2.877622 1_555
K5 O43 2.877622 1_555
K5 O24 2.877622 1_555
K5 O30 3.017001 1_555
K5 O32 3.017001 1_565
K5 O38 3.017001 1_555
K5 O21 3.186107 1_555
K5 O13 3.186107 1_565
K5 O19 3.186107 1_565
K6 O27 2.877622 1_555
K6 O44 2.877622 1_555
K6 O26 2.877622 1_555
K6 O28 3.017001 1_555
K6 O33 3.017001 1_556
K6 O34 3.017001 1_555
K6 O23 3.186107 1_555
K6 O17 3.186107 1_556
K6 O47 3.186107 1_556
K7 O8 2.924902 1_655
K7 O2 2.924902 1_565
K7 O4 2.924902 1_556
K7 O34 3.128642 1_555
K7 O38 3.128642 1_555
K7 O36 3.128642 1_555
K7 O14 3.181406 1_556
K7 O20 3.181406 1_565
K7 O16 3.181406 1_655
K7 O17 3.266779 1_556
K7 O13 3.266779 1_565
K7 O15 3.266779 1_655
Fe0 O10 2.116727 1_555
Fe0 O11 2.116727 1_555
Fe0 O9 2.116727 1_555
Fe0 O47 2.137080 1_555
Fe0 O19 2.137080 1_555
Fe0 O12 2.137080 1_555
Fe1 O8 2.116727 1_555
Fe1 O0 2.116727 1_555
Fe1 O5 2.116727 1_555
Fe1 O16 2.137080 1_555
Fe1 O15 2.137080 1_555
Fe1 O23 2.137080 1_555
Fe2 O2 2.116727 1_555
Fe2 O7 2.116727 1_555
Fe2 O3 2.116727 1_555
Fe2 O20 2.137080 1_555
Fe2 O13 2.137080 1_555
Fe2 O22 2.137080 1_555
Fe3 O6 2.116727 1_555
Fe3 O4 2.116727 1_555
Fe3 O1 2.116727 1_555
Fe3 O17 2.137080 1_555
Fe3 O14 2.137080 1_555
Fe3 O21 2.137080 1_555
Fe4 O24 2.139353 1_555
Fe4 O44 2.139353 1_555
Fe4 O45 2.139353 1_555
Fe4 O34 2.169307 1_555
Fe4 O38 2.169307 1_555
Fe4 O36 2.169307 1_555
Fe5 O41 2.139353 1_565
Fe5 O25 2.139353 1_455
Fe5 O43 2.139353 1_555
Fe5 O39 2.169307 1_555
Fe5 O30 2.169307 1_555
Fe5 O35 2.169307 1_555
Fe6 O42 2.139353 1_556
Fe6 O46 2.139353 1_545
Fe6 O26 2.139353 1_555
Fe6 O32 2.169307 1_555
Fe6 O28 2.169307 1_555
Fe6 O31 2.169307 1_555
Fe7 O40 2.139353 1_655
Fe7 O27 2.139353 1_554
Fe7 O18 2.139353 1_555
Fe7 O33 2.169307 1_555
Fe7 O29 2.169307 1_555
Fe7 O37 2.169307 1_555
O0 S0 1.481873 1_555
O1 S1 1.481873 1_555
O2 S2 1.481873 1_555
O3 S3 1.481873 1_555
O4 S4 1.481873 1_555
O5 S5 1.481873 1_555
O6 S6 1.481873 1_555
O7 S7 1.481873 1_555
O8 S8 1.481873 1_555
O9 S11 1.481873 1_555
O10 S10 1.481873 1_555
O11 S9 1.481873 1_555
O12 S0 1.491954 1_555
O13 S1 1.491954 1_545
O14 S2 1.491954 1_564
O15 S3 1.491954 1_455
O16 S4 1.491954 1_456
O17 S5 1.491954 1_554
O18 S4 1.496057 1_555
O19 S7 1.491954 1_555
O20 S8 1.491954 1_645
O21 S11 1.491954 1_565
O22 S10 1.491954 1_655
O23 S9 1.491954 1_556
O24 S0 1.496057 1_555
O25 S1 1.496057 1_555
O26 S2 1.496057 1_555
O27 S3 1.496057 1_555
O28 S9 1.484449 1_556
O29 S10 1.484449 1_655
O30 S11 1.484449 1_565
O31 S8 1.484449 1_545
O32 S7 1.484449 1_555
O33 S6 1.484449 1_555
O34 S5 1.484449 1_555
O35 S4 1.484449 1_455
O36 S3 1.484449 1_555
O37 S2 1.484449 1_554
O38 S1 1.484449 1_555
O39 S0 1.484449 1_555
O40 S9 1.496057 1_555
O41 S10 1.496057 1_555
O42 S11 1.496057 1_555
O43 S8 1.496057 1_555
O44 S7 1.496057 1_555
O45 S6 1.496057 1_555
O46 S5 1.496057 1_555
O47 S6 1.491954 1_555
