# generated using pymatgen
data_ZnGaRh2
_symmetry_space_group_name_H-M   'P 1'
_cell_length_a   4.23063813
_cell_length_b   4.23063813
_cell_length_c   4.23063813
_cell_angle_alpha   60.00000000
_cell_angle_beta   60.00000000
_cell_angle_gamma   60.00000000
_symmetry_Int_Tables_number   1
_chemical_formula_structural   ZnGaRh2
_chemical_formula_sum   'Zn1 Ga1 Rh2'
_cell_volume   53.54299247
_cell_formula_units_Z   1
loop_
 _symmetry_equiv_pos_site_id
 _symmetry_equiv_pos_as_xyz
  1  'x, y, z'
loop_
 _atom_site_type_symbol
 _atom_site_label
 _atom_site_symmetry_multiplicity
 _atom_site_fract_x
 _atom_site_fract_y
 _atom_site_fract_z
 _atom_site_occupancy
  Zn  Zn0  1  0.75000000  0.75000000  0.75000000  1
  Ga  Ga0  1  0.25000000  0.25000000  0.25000000  1
  Rh  Rh0  1  0.50000000  0.50000000  0.50000000  1
  Rh  Rh1  1  -0.00000000  -0.00000000  -0.00000000  1
loop_
_geom_bond_atom_site_label_1
_geom_bond_atom_site_label_2
_geom_bond_distance
_geom_bond_site_symmetry_2
Ga0 Rh0 2.590726 1_555
Ga0 Rh0 2.590726 1_554
Ga0 Rh1 2.590726 1_555
Ga0 Rh1 2.590726 1_655
Ga0 Rh1 2.590726 1_556
Ga0 Rh0 2.590726 1_455
Ga0 Rh1 2.590726 1_565
Ga0 Rh0 2.590726 1_545
Rh0 Zn0 2.590726 1_545
Rh0 Zn0 2.590726 1_555
Rh0 Zn0 2.590726 1_455
Rh0 Zn0 2.590726 1_554
Rh1 Zn0 2.590726 1_544
Rh1 Zn0 2.590726 1_444
Rh1 Zn0 2.590726 1_445
Rh1 Zn0 2.590726 1_454
