# generated using pymatgen
data_InP
_symmetry_space_group_name_H-M   'P 1'
_cell_length_a   4.16810927
_cell_length_b   4.16810927
_cell_length_c   6.83999007
_cell_angle_alpha   90.00000000
_cell_angle_beta   90.00000000
_cell_angle_gamma   119.99995598
_symmetry_Int_Tables_number   1
_chemical_formula_structural   InP
_chemical_formula_sum   'In2 P2'
_cell_volume   102.91163698
_cell_formula_units_Z   2
loop_
 _symmetry_equiv_pos_site_id
 _symmetry_equiv_pos_as_xyz
  1  'x, y, z'
loop_
 _atom_site_type_symbol
 _atom_site_label
 _atom_site_symmetry_multiplicity
 _atom_site_fract_x
 _atom_site_fract_y
 _atom_site_fract_z
 _atom_site_occupancy
  In  In0  1  0.00000000  0.00000000  0.00019625  1
  In  In1  1  0.33333400  0.66666700  0.50019625  1
  P  P0  1  0.00000000  0.00000000  0.37480475  1
  P  P1  1  0.33333400  0.66666700  0.87480375  1
loop_
_geom_bond_atom_site_label_1
_geom_bond_atom_site_label_2
_geom_bond_distance
_geom_bond_site_symmetry_2
In0 P1 2.554733 1_444
In0 P1 2.554735 1_544
In0 P1 2.554736 1_554
In0 P0 2.562318 1_555
In1 P0 2.554730 1_665
In1 P0 2.554732 1_565
In1 P0 2.554734 1_555
In1 P1 2.562312 1_555
