# generated using pymatgen
data_Ni3Sb
_symmetry_space_group_name_H-M   'P 1'
_cell_length_a   5.22885970
_cell_length_b   5.22886167
_cell_length_c   4.23866676
_cell_angle_alpha   90.00000000
_cell_angle_beta   90.00000000
_cell_angle_gamma   119.99874435
_symmetry_Int_Tables_number   1
_chemical_formula_structural   Ni3Sb
_chemical_formula_sum   'Ni6 Sb2'
_cell_volume   100.36436530
_cell_formula_units_Z   2
loop_
 _symmetry_equiv_pos_site_id
 _symmetry_equiv_pos_as_xyz
  1  'x, y, z'
loop_
 _atom_site_type_symbol
 _atom_site_label
 _atom_site_symmetry_multiplicity
 _atom_site_fract_x
 _atom_site_fract_y
 _atom_site_fract_z
 _atom_site_occupancy
  Ni  Ni0  1  0.67540056  0.83769993  0.24999997  1
  Ni  Ni1  1  0.16230045  0.83770028  0.25000000  1
  Ni  Ni2  1  0.83769699  0.67539694  0.74999998  1
  Ni  Ni3  1  0.32460459  0.16230313  0.75000002  1
  Ni  Ni4  1  0.83769504  0.16230087  0.75000000  1
  Ni  Ni5  1  0.16229958  0.32459880  0.25000003  1
  Sb  Sb0  1  0.33333428  0.66666844  0.75000000  1
  Sb  Sb1  1  0.66666752  0.33333259  0.25000000  1
loop_
_geom_bond_atom_site_label_1
_geom_bond_atom_site_label_2
_geom_bond_distance
_geom_bond_site_symmetry_2
Ni0 Ni1 2.545930 1_655
Ni0 Ni5 2.545975 1_665
Ni0 Ni2 2.579172 1_554
Ni0 Ni2 2.579172 1_555
Ni0 Ni4 2.579192 1_564
Ni0 Ni4 2.579192 1_565
Ni0 Sb1 2.614725 1_565
Ni0 Sb1 2.614735 1_555
Ni0 Sb0 2.625071 1_554
Ni0 Sb0 2.625071 1_555
Ni0 Ni1 2.682929 1_555
Ni0 Ni5 2.682985 1_555
Ni1 Ni5 2.545927 1_565
Ni1 Ni3 2.579197 1_564
Ni1 Ni3 2.579197 1_565
Ni1 Ni2 2.579198 1_455
Ni1 Ni2 2.579198 1_454
Ni1 Sb1 2.614778 1_565
Ni1 Sb1 2.614781 1_455
Ni1 Sb0 2.625052 1_555
Ni1 Sb0 2.625052 1_554
Ni1 Ni5 2.682934 1_555
Ni2 Ni4 2.545958 1_565
Ni2 Ni3 2.546017 1_665
Ni2 Sb0 2.614721 1_555
Ni2 Sb0 2.614736 1_655
Ni2 Sb1 2.625066 1_555
Ni2 Sb1 2.625066 1_556
Ni2 Ni4 2.682903 1_555
Ni2 Ni3 2.682943 1_555
Ni3 Ni4 2.545976 1_455
Ni3 Ni5 2.579175 1_555
Ni3 Ni5 2.579175 1_556
Ni3 Sb0 2.614726 1_545
Ni3 Sb0 2.614733 1_555
Ni3 Sb1 2.625062 1_556
Ni3 Sb1 2.625062 1_555
Ni3 Ni4 2.682884 1_555
Ni4 Ni5 2.579201 1_655
Ni4 Ni5 2.579201 1_656
Ni4 Sb0 2.614761 1_545
Ni4 Sb0 2.614797 1_655
Ni4 Sb1 2.625035 1_555
Ni4 Sb1 2.625035 1_556
Ni5 Sb1 2.614723 1_455
Ni5 Sb1 2.614735 1_555
Ni5 Sb0 2.625080 1_555
Ni5 Sb0 2.625080 1_554
