# generated using pymatgen
data_BaAs2Pd
_symmetry_space_group_name_H-M   'P 1'
_cell_length_a   4.61846783
_cell_length_b   4.74490483
_cell_length_c   8.99605208
_cell_angle_alpha   105.25565847
_cell_angle_beta   90.00000270
_cell_angle_gamma   90.00000061
_symmetry_Int_Tables_number   1
_chemical_formula_structural   BaAs2Pd
_chemical_formula_sum   'Ba2 As4 Pd2'
_cell_volume   190.19420611
_cell_formula_units_Z   2
loop_
 _symmetry_equiv_pos_site_id
 _symmetry_equiv_pos_as_xyz
  1  'x, y, z'
loop_
 _atom_site_type_symbol
 _atom_site_label
 _atom_site_symmetry_multiplicity
 _atom_site_fract_x
 _atom_site_fract_y
 _atom_site_fract_z
 _atom_site_occupancy
  Ba  Ba0  1  0.24999996  0.60554036  0.21103978  1
  Ba  Ba1  1  0.75000001  0.39446820  0.78894903  1
  As  As0  1  0.25000006  0.96131712  0.92276763  1
  As  As1  1  0.74999993  0.03862321  0.07719938  1
  As  As2  1  0.75000002  0.75053458  0.50095614  1
  As  As3  1  0.25000000  0.24947940  0.49904188  1
  Pd  Pd0  1  0.74999999  0.18824313  0.37619661  1
  Pd  Pd1  1  0.25000003  0.81179399  0.62384956  1
loop_
_geom_bond_atom_site_label_1
_geom_bond_atom_site_label_2
_geom_bond_distance
_geom_bond_site_symmetry_2
Ba0 Pd1 3.582794 1_555
Ba0 Pd0 3.606764 1_455
Ba0 Pd0 3.606764 1_555
Ba0 Pd0 3.608702 1_465
Ba0 Pd0 3.608702 1_565
Ba1 Pd0 3.582296 1_555
Ba1 Pd1 3.606566 1_555
Ba1 Pd1 3.606566 1_655
Ba1 Pd1 3.608505 1_545
Ba1 Pd1 3.608505 1_645
As0 Pd1 2.594324 1_555
As0 As1 2.670022 1_566
As0 As1 2.670023 1_466
As0 Ba0 3.446576 1_556
As0 Ba0 3.449269 1_566
As0 Ba1 3.508268 1_565
As0 Ba1 3.508268 1_465
As0 Ba1 3.508849 1_555
As0 Ba1 3.508849 1_455
As1 Pd0 2.595011 1_555
As1 Ba1 3.446626 1_554
As1 Ba1 3.448944 1_544
As1 Ba0 3.508146 1_545
As1 Ba0 3.508147 1_645
As1 Ba0 3.509096 1_555
As1 Ba0 3.509096 1_655
As2 Pd1 2.543657 1_655
As2 Pd1 2.543657 1_555
As2 Pd0 2.607641 1_565
As2 Pd0 2.608094 1_555
As2 Ba0 3.415232 1_655
As2 Ba0 3.415232 1_555
As2 Ba1 3.445308 1_555
As2 Ba1 3.447020 1_565
As3 Pd0 2.543482 1_455
As3 Pd0 2.543482 1_555
As3 Pd1 2.607818 1_545
As3 Pd1 2.608263 1_555
As3 Ba1 3.415173 1_555
As3 Ba1 3.415173 1_455
As3 Ba0 3.445363 1_555
As3 Ba0 3.447081 1_545
