# generated using pymatgen
data_Pr3I
_symmetry_space_group_name_H-M   'P 1'
_cell_length_a   7.14800842
_cell_length_b   7.14800842
_cell_length_c   5.86530200
_cell_angle_alpha   90.00000000
_cell_angle_beta   90.00000000
_cell_angle_gamma   120.00000389
_symmetry_Int_Tables_number   1
_chemical_formula_structural   Pr3I
_chemical_formula_sum   'Pr6 I2'
_cell_volume   259.53211388
_cell_formula_units_Z   2
loop_
 _symmetry_equiv_pos_site_id
 _symmetry_equiv_pos_as_xyz
  1  'x, y, z'
loop_
 _atom_site_type_symbol
 _atom_site_label
 _atom_site_symmetry_multiplicity
 _atom_site_fract_x
 _atom_site_fract_y
 _atom_site_fract_z
 _atom_site_occupancy
  Pr  Pr0  1  0.83315100  0.16684900  0.75000000  1
  Pr  Pr1  1  0.33369800  0.16684900  0.75000000  1
  Pr  Pr2  1  0.83315100  0.66630200  0.75000000  1
  Pr  Pr3  1  0.16684900  0.83315100  0.25000000  1
  Pr  Pr4  1  0.66630200  0.83315100  0.25000000  1
  Pr  Pr5  1  0.16684900  0.33369800  0.25000000  1
  I  I0  1  0.66666700  0.33333300  0.25000000  1
  I  I1  1  0.33333300  0.66666700  0.75000000  1
loop_
_geom_bond_atom_site_label_1
_geom_bond_atom_site_label_2
_geom_bond_distance
_geom_bond_site_symmetry_2
I0 Pr5 3.574001 1_655
I0 Pr4 3.574001 1_545
I0 Pr3 3.574005 1_545
I0 Pr3 3.574005 1_655
I0 Pr4 3.574008 1_555
I0 Pr5 3.574008 1_555
I0 Pr0 3.584543 1_554
I0 Pr0 3.584543 1_555
I0 Pr2 3.584547 1_554
I0 Pr1 3.584547 1_555
I0 Pr1 3.584547 1_554
I0 Pr2 3.584547 1_555
I1 Pr2 3.574001 1_455
I1 Pr1 3.574001 1_565
I1 Pr0 3.574005 1_565
I1 Pr0 3.574005 1_455
I1 Pr2 3.574008 1_555
I1 Pr1 3.574008 1_555
I1 Pr3 3.584543 1_556
I1 Pr3 3.584543 1_555
I1 Pr5 3.584547 1_556
I1 Pr4 3.584547 1_555
I1 Pr4 3.584547 1_556
I1 Pr5 3.584547 1_555
