# generated using pymatgen
data_LiNd2Ru
_symmetry_space_group_name_H-M   'P 1'
_cell_length_a   5.05463355
_cell_length_b   5.05463355
_cell_length_c   5.05463355
_cell_angle_alpha   60.00000000
_cell_angle_beta   60.00000000
_cell_angle_gamma   60.00000000
_symmetry_Int_Tables_number   1
_chemical_formula_structural   LiNd2Ru
_chemical_formula_sum   'Li1 Nd2 Ru1'
_cell_volume   91.31750336
_cell_formula_units_Z   1
loop_
 _symmetry_equiv_pos_site_id
 _symmetry_equiv_pos_as_xyz
  1  'x, y, z'
loop_
 _atom_site_type_symbol
 _atom_site_label
 _atom_site_symmetry_multiplicity
 _atom_site_fract_x
 _atom_site_fract_y
 _atom_site_fract_z
 _atom_site_occupancy
  Li  Li0  1  0.24999900  0.24999900  0.24999900  1
  Nd  Nd0  1  -0.00000000  -0.00000000  -0.00000000  1
  Nd  Nd1  1  0.50000000  0.50000000  0.50000000  1
  Ru  Ru0  1  0.74999900  0.74999900  0.74999900  1
loop_
_geom_bond_atom_site_label_1
_geom_bond_atom_site_label_2
_geom_bond_distance
_geom_bond_site_symmetry_2
Li0 Nd0 3.095306 1_555
Li0 Nd1 3.095314 1_545
Li0 Nd1 3.095314 1_554
Li0 Nd1 3.095314 1_455
Li0 Nd0 3.095322 1_556
Li0 Nd0 3.095322 1_565
Li0 Nd0 3.095322 1_655
Li0 Nd1 3.095331 1_555
Nd0 Ru0 3.095314 1_454
Nd0 Ru0 3.095314 1_445
Nd0 Ru0 3.095314 1_544
Nd0 Ru0 3.095331 1_444
Nd1 Ru0 3.095306 1_555
Nd1 Ru0 3.095322 1_545
Nd1 Ru0 3.095322 1_554
Nd1 Ru0 3.095322 1_455
