# generated using pymatgen
data_ScNb
_symmetry_space_group_name_H-M   'P 1'
_cell_length_a   6.13128872
_cell_length_b   6.13128872
_cell_length_c   10.14438800
_cell_angle_alpha   90.00000000
_cell_angle_beta   90.00000000
_cell_angle_gamma   120.00000779
_symmetry_Int_Tables_number   1
_chemical_formula_structural   ScNb
_chemical_formula_sum   'Sc8 Nb8'
_cell_volume   330.26304770
_cell_formula_units_Z   8
loop_
 _symmetry_equiv_pos_site_id
 _symmetry_equiv_pos_as_xyz
  1  'x, y, z'
loop_
 _atom_site_type_symbol
 _atom_site_label
 _atom_site_symmetry_multiplicity
 _atom_site_fract_x
 _atom_site_fract_y
 _atom_site_fract_z
 _atom_site_occupancy
  Sc  Sc0_0  1  0.00000000  0.00000000  0.00000000  1
  Sc  Sc0_1  1  0.00000000  0.00000000  0.50000000  1
  Sc  Sc0_2  1  0.00000000  0.50000000  0.00000000  1
  Sc  Sc0_3  1  0.00000000  0.50000000  0.50000000  1
  Sc  Sc0_4  1  0.50000000  0.00000000  0.00000000  1
  Sc  Sc0_5  1  0.50000000  0.00000000  0.50000000  1
  Sc  Sc0_6  1  0.50000000  0.50000000  0.00000000  1
  Sc  Sc0_7  1  0.50000000  0.50000000  0.50000000  1
  Nb  Nb0_0  1  0.16666650  0.33333350  0.25000000  1
  Nb  Nb0_1  1  0.16666650  0.33333350  0.75000000  1
  Nb  Nb0_2  1  0.16666650  0.83333350  0.25000000  1
  Nb  Nb0_3  1  0.16666650  0.83333350  0.75000000  1
  Nb  Nb0_4  1  0.66666650  0.33333350  0.25000000  1
  Nb  Nb0_5  1  0.66666650  0.33333350  0.75000000  1
  Nb  Nb0_6  1  0.66666650  0.83333350  0.25000000  1
  Nb  Nb0_7  1  0.66666650  0.83333350  0.75000000  1
loop_
_geom_bond_atom_site_label_1
_geom_bond_atom_site_label_2
_geom_bond_distance
_geom_bond_site_symmetry_2
Sc0_0 Sc0_6 3.065644 1_555
Sc0_0 Sc0_6 3.065644 1_445
Sc0_0 Sc0_2 3.065644 1_555
Sc0_0 Sc0_4 3.065644 1_555
Sc0_0 Sc0_2 3.065644 1_545
Sc0_0 Sc0_4 3.065644 1_455
Sc0_1 Sc0_7 3.065644 1_555
Sc0_1 Sc0_7 3.065644 1_445
Sc0_1 Sc0_5 3.065644 1_555
Sc0_1 Sc0_3 3.065644 1_555
Sc0_1 Sc0_3 3.065644 1_545
Sc0_1 Sc0_5 3.065644 1_455
Sc0_2 Sc0_4 3.065644 1_565
Sc0_2 Sc0_4 3.065644 1_455
Sc0_2 Sc0_6 3.065644 1_555
Sc0_2 Sc0_6 3.065644 1_455
Sc0_3 Sc0_5 3.065644 1_565
Sc0_3 Sc0_5 3.065644 1_455
Sc0_3 Sc0_7 3.065644 1_555
Sc0_3 Sc0_7 3.065644 1_455
Sc0_4 Sc0_6 3.065644 1_555
Sc0_4 Sc0_6 3.065644 1_545
Sc0_5 Sc0_7 3.065644 1_555
Sc0_5 Sc0_7 3.065644 1_545
Nb0_0 Nb0_6 3.065644 1_445
Nb0_0 Nb0_6 3.065644 1_555
Nb0_0 Nb0_2 3.065644 1_555
Nb0_0 Nb0_4 3.065644 1_455
Nb0_0 Nb0_4 3.065644 1_555
Nb0_0 Nb0_2 3.065644 1_545
Nb0_0 Sc0_2 3.092654 1_555
Nb0_0 Sc0_3 3.092654 1_555
Nb0_0 Sc0_7 3.092655 1_555
Nb0_0 Sc0_0 3.092655 1_555
Nb0_0 Sc0_6 3.092655 1_555
Nb0_0 Sc0_1 3.092655 1_555
Nb0_1 Nb0_7 3.065644 1_445
Nb0_1 Nb0_7 3.065644 1_555
Nb0_1 Nb0_3 3.065644 1_555
Nb0_1 Nb0_5 3.065644 1_455
Nb0_1 Nb0_5 3.065644 1_555
Nb0_1 Nb0_3 3.065644 1_545
Nb0_1 Sc0_3 3.092654 1_555
Nb0_1 Sc0_2 3.092654 1_556
Nb0_1 Sc0_7 3.092655 1_555
Nb0_1 Sc0_1 3.092655 1_555
Nb0_1 Sc0_0 3.092655 1_556
Nb0_1 Sc0_6 3.092655 1_556
Nb0_2 Nb0_4 3.065644 1_565
Nb0_2 Nb0_4 3.065644 1_455
Nb0_2 Nb0_6 3.065644 1_455
Nb0_2 Nb0_6 3.065644 1_555
Nb0_2 Sc0_1 3.092654 1_565
Nb0_2 Sc0_0 3.092654 1_565
Nb0_2 Sc0_3 3.092655 1_555
Nb0_2 Sc0_4 3.092655 1_565
Nb0_2 Sc0_5 3.092655 1_565
Nb0_2 Sc0_2 3.092655 1_555
Nb0_3 Nb0_5 3.065644 1_565
Nb0_3 Nb0_5 3.065644 1_455
Nb0_3 Nb0_7 3.065644 1_455
Nb0_3 Nb0_7 3.065644 1_555
Nb0_3 Sc0_1 3.092654 1_565
Nb0_3 Sc0_0 3.092654 1_566
Nb0_3 Sc0_2 3.092655 1_556
Nb0_3 Sc0_3 3.092655 1_555
Nb0_3 Sc0_4 3.092655 1_566
Nb0_3 Sc0_5 3.092655 1_565
Nb0_4 Nb0_6 3.065644 1_545
Nb0_4 Nb0_6 3.065644 1_555
Nb0_4 Sc0_7 3.092654 1_555
Nb0_4 Sc0_6 3.092654 1_555
Nb0_4 Sc0_5 3.092655 1_555
Nb0_4 Sc0_4 3.092655 1_555
Nb0_4 Sc0_2 3.092655 1_655
Nb0_4 Sc0_3 3.092655 1_655
Nb0_5 Nb0_7 3.065644 1_545
Nb0_5 Nb0_7 3.065644 1_555
Nb0_5 Sc0_6 3.092654 1_556
Nb0_5 Sc0_7 3.092654 1_555
Nb0_5 Sc0_5 3.092655 1_555
Nb0_5 Sc0_4 3.092655 1_556
Nb0_5 Sc0_3 3.092655 1_655
Nb0_5 Sc0_2 3.092655 1_656
Nb0_6 Sc0_5 3.092654 1_565
Nb0_6 Sc0_4 3.092654 1_565
Nb0_6 Sc0_1 3.092655 1_665
Nb0_6 Sc0_0 3.092655 1_665
Nb0_6 Sc0_6 3.092655 1_555
Nb0_6 Sc0_7 3.092655 1_555
Nb0_7 Sc0_4 3.092654 1_566
Nb0_7 Sc0_5 3.092654 1_565
Nb0_7 Sc0_1 3.092655 1_665
Nb0_7 Sc0_0 3.092655 1_666
Nb0_7 Sc0_6 3.092655 1_556
Nb0_7 Sc0_7 3.092655 1_555
