# generated using pymatgen
data_Lu2ZnPd
_symmetry_space_group_name_H-M   'P 1'
_cell_length_a   4.85447594
_cell_length_b   4.86084132
_cell_length_c   4.85645582
_cell_angle_alpha   59.95759734
_cell_angle_beta   60.01921740
_cell_angle_gamma   59.95496801
_symmetry_Int_Tables_number   1
_chemical_formula_structural   Lu2ZnPd
_chemical_formula_sum   'Lu2 Zn1 Pd1'
_cell_volume   80.99046642
_cell_formula_units_Z   1
loop_
 _symmetry_equiv_pos_site_id
 _symmetry_equiv_pos_as_xyz
  1  'x, y, z'
loop_
 _atom_site_type_symbol
 _atom_site_label
 _atom_site_symmetry_multiplicity
 _atom_site_fract_x
 _atom_site_fract_y
 _atom_site_fract_z
 _atom_site_occupancy
  Lu  Lu0  1  -0.00007088  0.00001679  0.99988011  1
  Lu  Lu1  1  0.50007376  0.49997672  0.50012887  1
  Zn  Zn0  1  0.74998365  0.74993716  0.75009213  1
  Pd  Pd0  1  0.25001347  0.25006833  0.24989990  1
loop_
_geom_bond_atom_site_label_1
_geom_bond_atom_site_label_2
_geom_bond_distance
_geom_bond_site_symmetry_2
Lu0 Pd0 2.972151 1_456
Lu0 Zn0 2.972700 1_545
Lu0 Pd0 2.973697 1_555
Lu0 Zn0 2.974222 1_445
Lu0 Zn0 2.974223 1_455
Lu0 Pd0 2.974332 1_546
Lu0 Zn0 2.974616 1_446
Lu0 Pd0 2.975580 1_556
Lu1 Pd0 2.972248 1_655
Lu1 Zn0 2.972842 1_455
Lu1 Pd0 2.972868 1_556
Lu1 Zn0 2.973921 1_554
Lu1 Zn0 2.974302 1_555
Lu1 Zn0 2.974695 1_545
Lu1 Pd0 2.974899 1_565
Lu1 Pd0 2.975745 1_555
