# generated using pymatgen
data_SmErZn2
_symmetry_space_group_name_H-M   'P 1'
_cell_length_a   5.04717449
_cell_length_b   5.04717449
_cell_length_c   5.04717449
_cell_angle_alpha   60.00000000
_cell_angle_beta   60.00000000
_cell_angle_gamma   60.00000000
_symmetry_Int_Tables_number   1
_chemical_formula_structural   SmErZn2
_chemical_formula_sum   'Sm1 Er1 Zn2'
_cell_volume   90.91383147
_cell_formula_units_Z   1
loop_
 _symmetry_equiv_pos_site_id
 _symmetry_equiv_pos_as_xyz
  1  'x, y, z'
loop_
 _atom_site_type_symbol
 _atom_site_label
 _atom_site_symmetry_multiplicity
 _atom_site_fract_x
 _atom_site_fract_y
 _atom_site_fract_z
 _atom_site_occupancy
  Sm  Sm0  1  0.75000100  0.75000100  0.75000100  1
  Er  Er0  1  0.25000100  0.25000100  0.25000100  1
  Zn  Zn0  1  0.00000000  0.00000000  0.00000000  1
  Zn  Zn1  1  0.50000000  0.50000000  0.50000000  1
loop_
_geom_bond_atom_site_label_1
_geom_bond_atom_site_label_2
_geom_bond_distance
_geom_bond_site_symmetry_2
Sm0 Zn0 3.090738 1_666
Sm0 Zn1 3.090746 1_556
Sm0 Zn1 3.090746 1_655
Sm0 Zn1 3.090746 1_565
Sm0 Zn0 3.090755 1_665
Sm0 Zn0 3.090755 1_656
Sm0 Zn0 3.090755 1_566
Sm0 Zn1 3.090763 1_555
Er0 Zn1 3.090738 1_555
Er0 Zn0 3.090746 1_655
Er0 Zn0 3.090746 1_556
Er0 Zn0 3.090746 1_565
Er0 Zn1 3.090755 1_554
Er0 Zn1 3.090755 1_455
Er0 Zn1 3.090755 1_545
Er0 Zn0 3.090763 1_555
