# generated using pymatgen
data_CsInI3
_symmetry_space_group_name_H-M   'P 1'
_cell_length_a   11.00212174
_cell_length_b   10.85624116
_cell_length_c   11.05191257
_cell_angle_alpha   92.85821202
_cell_angle_beta   111.38794011
_cell_angle_gamma   101.05748754
_symmetry_Int_Tables_number   1
_chemical_formula_structural   CsInI3
_chemical_formula_sum   'Cs4 In4 I12'
_cell_volume   1195.91901450
_cell_formula_units_Z   4
loop_
 _symmetry_equiv_pos_site_id
 _symmetry_equiv_pos_as_xyz
  1  'x, y, z'
loop_
 _atom_site_type_symbol
 _atom_site_label
 _atom_site_symmetry_multiplicity
 _atom_site_fract_x
 _atom_site_fract_y
 _atom_site_fract_z
 _atom_site_occupancy
  Cs  Cs0  1  0.72888387  0.89055126  0.05638439  1
  Cs  Cs1  1  0.27111613  0.10944874  0.94361561  1
  Cs  Cs2  1  0.74312047  0.37221411  0.75177169  1
  Cs  Cs3  1  0.25687953  0.62778589  0.24822831  1
  In  In0  1  0.74144975  0.80285944  0.61180605  1
  In  In1  1  0.77338485  0.42796589  0.24344012  1
  In  In2  1  0.25855025  0.19714056  0.38819395  1
  In  In3  1  0.22661515  0.57203411  0.75655988  1
  I  I0  1  0.54356996  0.66274565  0.67866230  1
  I  I1  1  0.07369780  0.33644336  0.38922912  1
  I  I2  1  0.45643004  0.33725435  0.32133770  1
  I  I3  1  0.92630220  0.66355664  0.61077088  1
  I  I4  1  0.12411946  0.39733109  0.92392474  1
  I  I5  1  0.38033336  0.13419751  0.63280880  1
  I  I6  1  0.87588054  0.60266891  0.07607526  1
  I  I7  1  0.61966664  0.86580249  0.36719120  1
  I  I8  1  0.86504510  0.01949084  0.78761520  1
  I  I9  1  0.64675164  0.21211064  0.01746936  1
  I  I10  1  0.13495490  0.98050916  0.21238480  1
  I  I11  1  0.35324836  0.78788936  0.98253064  1
loop_
_geom_bond_atom_site_label_1
_geom_bond_atom_site_label_2
_geom_bond_distance
_geom_bond_site_symmetry_2
Cs0 I6 3.765705 1_555
Cs0 I9 3.776822 1_565
Cs0 I11 3.830197 1_554
Cs0 I8 3.985328 1_564
Cs0 I7 4.036592 1_555
Cs0 I10 4.052965 1_655
Cs0 I0 4.304473 1_554
Cs1 I4 3.765705 1_555
Cs1 I11 3.776822 1_545
Cs1 I9 3.830197 1_556
Cs1 I10 3.985328 1_546
Cs1 I5 4.036592 1_555
Cs1 I8 4.052965 1_455
Cs1 I2 4.304473 1_556
Cs2 I9 3.852400 1_556
Cs2 I4 3.867603 1_655
Cs2 I6 3.889056 1_556
Cs2 I5 4.026714 1_555
Cs2 I3 4.102568 1_555
Cs2 I0 4.127682 1_555
Cs2 I8 4.284107 1_555
Cs3 I11 3.852400 1_554
Cs3 I6 3.867603 1_455
Cs3 I4 3.889056 1_554
Cs3 I7 4.026714 1_555
Cs3 I1 4.102568 1_555
Cs3 I2 4.127682 1_555
Cs3 I10 4.284107 1_555
I0 In0 2.759449 1_555
I1 In2 2.760154 1_555
I1 In1 3.469341 1_455
I2 In2 2.759449 1_555
I3 In0 2.760154 1_555
I3 In3 3.469341 1_655
I4 In3 3.056306 1_555
I5 In2 2.732100 1_555
I6 In1 3.056306 1_555
I7 In0 2.732100 1_555
I8 In0 2.746979 1_545
I9 In1 3.048894 1_555
I10 In2 2.746979 1_565
I11 In3 3.048894 1_555
