# generated using pymatgen
data_KAlSiO4
_symmetry_space_group_name_H-M   'P 1'
_cell_length_a   5.22974163
_cell_length_b   5.22974163
_cell_length_c   8.85771400
_cell_angle_alpha   90.00000000
_cell_angle_beta   90.00000000
_cell_angle_gamma   119.99999532
_symmetry_Int_Tables_number   1
_chemical_formula_structural   KAlSiO4
_chemical_formula_sum   'K2 Al2 Si2 O8'
_cell_volume   209.80352119
_cell_formula_units_Z   2
loop_
 _symmetry_equiv_pos_site_id
 _symmetry_equiv_pos_as_xyz
  1  'x, y, z'
loop_
 _atom_site_type_symbol
 _atom_site_label
 _atom_site_symmetry_multiplicity
 _atom_site_fract_x
 _atom_site_fract_y
 _atom_site_fract_z
 _atom_site_occupancy
  K  K0  1  0.00000000  0.00000000  0.75358900  1
  K  K1  1  0.00000000  0.00000000  0.25358900  1
  Al  Al0  1  0.33333300  0.66666700  0.05952500  1
  Al  Al1  1  0.66666700  0.33333300  0.55952500  1
  Si  Si0  1  0.66666700  0.33333300  0.94160900  1
  Si  Si1  1  0.33333300  0.66666700  0.44160900  1
  O  O0  1  0.66666700  0.33333300  0.75722300  1
  O  O1  1  0.33333300  0.66666700  0.25722300  1
  O  O2  1  0.38206200  0.39653700  0.49968500  1
  O  O3  1  0.60346300  0.98552500  0.49968500  1
  O  O4  1  0.01447500  0.61793800  0.49968500  1
  O  O5  1  0.39653700  0.38206200  0.99968500  1
  O  O6  1  0.61793800  0.01447500  0.99968500  1
  O  O7  1  0.98552500  0.60346300  0.99968500  1
loop_
_geom_bond_atom_site_label_1
_geom_bond_atom_site_label_2
_geom_bond_distance
_geom_bond_site_symmetry_2
K0 O6 2.983466 1_455
K0 O7 2.983466 1_445
K0 O5 2.983466 1_555
K0 O0 3.019561 1_455
K0 O0 3.019566 1_555
K0 O0 3.019566 1_445
K0 O4 3.034366 1_545
K0 O3 3.034366 1_445
K0 O2 3.034366 1_555
K1 O4 2.983466 1_545
K1 O3 2.983466 1_445
K1 O2 2.983466 1_555
K1 O1 3.019561 1_545
K1 O1 3.019566 1_555
K1 O1 3.019566 1_445
K1 O6 3.034366 1_454
K1 O7 3.034366 1_444
K1 O5 3.034366 1_554
Al0 O1 1.751152 1_555
Al0 O7 1.759981 1_454
Al0 O6 1.759983 1_564
Al0 O5 1.759986 1_554
Al1 O0 1.751152 1_555
Al1 O3 1.759981 1_545
Al1 O4 1.759983 1_655
Al1 O2 1.759986 1_555
O0 Si0 1.633238 1_555
O1 Si1 1.633238 1_555
O2 Si1 1.638700 1_555
O3 Si1 1.638697 1_555
O4 Si1 1.638695 1_555
O5 Si0 1.638700 1_555
O6 Si0 1.638695 1_555
O7 Si0 1.638697 1_555
