# generated using pymatgen
data_MnN
_symmetry_space_group_name_H-M   'P 1'
_cell_length_a   2.95076299
_cell_length_b   2.95076299
_cell_length_c   5.27915400
_cell_angle_alpha   90.00000000
_cell_angle_beta   90.00000000
_cell_angle_gamma   120.00002228
_symmetry_Int_Tables_number   1
_chemical_formula_structural   MnN
_chemical_formula_sum   'Mn2 N2'
_cell_volume   39.80737333
_cell_formula_units_Z   2
loop_
 _symmetry_equiv_pos_site_id
 _symmetry_equiv_pos_as_xyz
  1  'x, y, z'
loop_
 _atom_site_type_symbol
 _atom_site_label
 _atom_site_symmetry_multiplicity
 _atom_site_fract_x
 _atom_site_fract_y
 _atom_site_fract_z
 _atom_site_occupancy
  Mn  Mn0  1  0.33333300  0.66666700  0.48777200  1
  Mn  Mn1  1  0.66666700  0.33333300  0.98777200  1
  N  N0  1  0.33333300  0.66666700  0.13422800  1
  N  N1  1  0.66666700  0.33333300  0.63422800  1
loop_
_geom_bond_atom_site_label_1
_geom_bond_atom_site_label_2
_geom_bond_distance
_geom_bond_site_symmetry_2
Mn0 N0 1.866413 1_555
Mn0 N1 1.870858 1_455
Mn0 N1 1.870858 1_565
Mn0 N1 1.870863 1_555
Mn1 N1 1.866413 1_555
Mn1 N0 1.870858 1_546
Mn1 N0 1.870858 1_656
Mn1 N0 1.870863 1_556
