# generated using pymatgen
data_CaNd3
_symmetry_space_group_name_H-M   'P 1'
_cell_length_a   7.48345376
_cell_length_b   7.48345376
_cell_length_c   6.01186100
_cell_angle_alpha   90.00000000
_cell_angle_beta   90.00000000
_cell_angle_gamma   119.99999792
_symmetry_Int_Tables_number   1
_chemical_formula_structural   CaNd3
_chemical_formula_sum   'Ca2 Nd6'
_cell_volume   291.57060035
_cell_formula_units_Z   2
loop_
 _symmetry_equiv_pos_site_id
 _symmetry_equiv_pos_as_xyz
  1  'x, y, z'
loop_
 _atom_site_type_symbol
 _atom_site_label
 _atom_site_symmetry_multiplicity
 _atom_site_fract_x
 _atom_site_fract_y
 _atom_site_fract_z
 _atom_site_occupancy
  Ca  Ca0  1  0.33333300  0.66666700  0.75000000  1
  Ca  Ca1  1  0.66666700  0.33333300  0.25000000  1
  Nd  Nd0  1  0.16406500  0.32813100  0.25000000  1
  Nd  Nd1  1  0.67186900  0.83593500  0.25000000  1
  Nd  Nd2  1  0.16406500  0.83593500  0.25000000  1
  Nd  Nd3  1  0.83593500  0.67186900  0.75000000  1
  Nd  Nd4  1  0.32813100  0.16406500  0.75000000  1
  Nd  Nd5  1  0.83593500  0.16406500  0.75000000  1
loop_
_geom_bond_atom_site_label_1
_geom_bond_atom_site_label_2
_geom_bond_distance
_geom_bond_site_symmetry_2
Ca0 Nd2 3.721461 1_555
Ca0 Nd2 3.721461 1_556
Ca0 Nd1 3.721461 1_556
Ca0 Nd1 3.721461 1_555
Ca0 Nd0 3.721461 1_555
Ca0 Nd0 3.721461 1_556
Ca0 Nd4 3.741871 1_565
Ca0 Nd3 3.741871 1_455
Ca0 Nd5 3.741879 1_565
Ca0 Nd5 3.741879 1_455
Ca0 Nd4 3.741886 1_555
Ca0 Nd3 3.741886 1_555
Ca1 Nd5 3.721461 1_554
Ca1 Nd5 3.721461 1_555
Ca1 Nd4 3.721461 1_555
Ca1 Nd3 3.721461 1_554
Ca1 Nd4 3.721461 1_554
Ca1 Nd3 3.721461 1_555
Ca1 Nd0 3.741871 1_655
Ca1 Nd1 3.741871 1_545
Ca1 Nd2 3.741879 1_655
Ca1 Nd2 3.741879 1_545
Ca1 Nd1 3.741886 1_555
Ca1 Nd0 3.741886 1_555
Nd0 Nd5 3.682105 1_454
Nd0 Nd5 3.682105 1_455
Nd0 Nd4 3.682112 1_555
Nd0 Nd4 3.682112 1_554
Nd0 Nd2 3.683326 1_545
Nd0 Nd1 3.683326 1_445
Nd0 Nd2 3.800128 1_555
Nd0 Nd1 3.800128 1_555
Nd1 Nd5 3.682105 1_565
Nd1 Nd5 3.682105 1_564
Nd1 Nd3 3.682112 1_555
Nd1 Nd3 3.682112 1_554
Nd1 Nd2 3.683326 1_655
Nd1 Nd2 3.800128 1_555
Nd2 Nd4 3.682105 1_565
Nd2 Nd4 3.682105 1_564
Nd2 Nd3 3.682105 1_455
Nd2 Nd3 3.682105 1_454
Nd3 Nd5 3.683326 1_565
Nd3 Nd4 3.683326 1_665
Nd3 Nd5 3.800128 1_555
Nd3 Nd4 3.800128 1_555
Nd4 Nd5 3.683326 1_455
Nd4 Nd5 3.800128 1_555
