# generated using pymatgen
data_CrAuO2
_symmetry_space_group_name_H-M   'P 1'
_cell_length_a   3.01504443
_cell_length_b   3.01504559
_cell_length_c   6.35728448
_cell_angle_alpha   76.28260637
_cell_angle_beta   76.28262768
_cell_angle_gamma   59.99999288
_symmetry_Int_Tables_number   1
_chemical_formula_structural   CrAuO2
_chemical_formula_sum   'Cr1 Au1 O2'
_cell_volume   48.13559510
_cell_formula_units_Z   1
loop_
 _symmetry_equiv_pos_site_id
 _symmetry_equiv_pos_as_xyz
  1  'x, y, z'
loop_
 _atom_site_type_symbol
 _atom_site_label
 _atom_site_symmetry_multiplicity
 _atom_site_fract_x
 _atom_site_fract_y
 _atom_site_fract_z
 _atom_site_occupancy
  Cr  Cr0  1  0.50000000  0.50000000  0.50000000  1
  Au  Au0  1  0.00000000  0.00000000  -0.00000000  1
  O  O0  1  0.88672432  0.88672432  0.33982905  1
  O  O1  1  0.11327568  0.11327568  0.66017095  1
loop_
_geom_bond_atom_site_label_1
_geom_bond_atom_site_label_2
_geom_bond_distance
_geom_bond_site_symmetry_2
Cr0 O0 1.997312 1_455
Cr0 O1 1.997312 1_655
Cr0 O0 1.997313 1_545
Cr0 O1 1.997313 1_565
Cr0 O1 1.997318 1_555
Cr0 O0 1.997318 1_555
Au0 O1 2.077823 1_554
Au0 O0 2.077823 1_445
