# generated using pymatgen
data_SiO2
_symmetry_space_group_name_H-M   'P 1'
_cell_length_a   4.95800694
_cell_length_b   8.74132278
_cell_length_c   8.67864274
_cell_angle_alpha   90.00000000
_cell_angle_beta   90.00000000
_cell_angle_gamma   90.00000000
_symmetry_Int_Tables_number   1
_chemical_formula_structural   SiO2
_chemical_formula_sum   'Si8 O16'
_cell_volume   376.12837557
_cell_formula_units_Z   8
loop_
 _symmetry_equiv_pos_site_id
 _symmetry_equiv_pos_as_xyz
  1  'x, y, z'
loop_
 _atom_site_type_symbol
 _atom_site_label
 _atom_site_symmetry_multiplicity
 _atom_site_fract_x
 _atom_site_fract_y
 _atom_site_fract_z
 _atom_site_occupancy
  Si  Si0  1  0.93371437  0.17405478  0.18125693  1
  Si  Si1  1  0.06628563  0.82594522  0.18125693  1
  Si  Si2  1  0.43371437  0.32594522  0.31874307  1
  Si  Si3  1  0.93371437  0.17405478  0.81874307  1
  Si  Si4  1  0.06628563  0.82594522  0.81874307  1
  Si  Si5  1  0.43371437  0.32594522  0.68125693  1
  Si  Si6  1  0.56628563  0.67405478  0.31874307  1
  Si  Si7  1  0.56628563  0.67405478  0.68125693  1
  O  O0  1  0.01355129  0.80126560  -0.00000000  1
  O  O1  1  0.50000000  0.50000000  0.27156622  1
  O  O2  1  0.51355129  0.69873440  0.50000000  1
  O  O3  1  0.98644871  0.19873440  -0.00000000  1
  O  O4  1  0.12317522  0.28894736  0.72160604  1
  O  O5  1  0.87682478  0.71105264  0.72160604  1
  O  O6  1  0.00000000  -0.00000000  0.77156622  1
  O  O7  1  0.62317522  0.21105264  0.22160604  1
  O  O8  1  0.37682478  0.78894736  0.22160604  1
  O  O9  1  0.50000000  0.50000000  0.72843378  1
  O  O10  1  0.37682478  0.78894736  0.77839396  1
  O  O11  1  0.12317522  0.28894736  0.27839396  1
  O  O12  1  0.62317522  0.21105264  0.77839396  1
  O  O13  1  0.48644871  0.30126560  0.50000000  1
  O  O14  1  0.00000000  -0.00000000  0.22843378  1
  O  O15  1  0.87682478  0.71105264  0.27839396  1
loop_
_geom_bond_atom_site_label_1
_geom_bond_atom_site_label_2
_geom_bond_distance
_geom_bond_site_symmetry_2
O0 Si4 1.609171 1_554
O0 Si1 1.609171 1_555
O1 Si6 1.609506 1_555
O1 Si2 1.609506 1_555
O2 Si7 1.609171 1_555
O2 Si6 1.609171 1_555
O3 Si3 1.609171 1_554
O3 Si0 1.609171 1_555
O4 Si5 1.611755 1_555
O4 Si3 1.612978 1_455
O5 Si7 1.611755 1_555
O5 Si4 1.612978 1_655
O6 Si4 1.609506 1_545
O6 Si3 1.609506 1_455
O7 Si0 1.611755 1_555
O7 Si2 1.612978 1_555
O8 Si1 1.611755 1_555
O8 Si6 1.612978 1_555
O9 Si7 1.609506 1_555
O9 Si5 1.609506 1_555
O10 Si4 1.611755 1_555
O10 Si7 1.612978 1_555
O11 Si2 1.611755 1_555
O11 Si0 1.612978 1_455
O12 Si3 1.611755 1_555
O12 Si5 1.612978 1_555
O13 Si5 1.609171 1_555
O13 Si2 1.609171 1_555
O14 Si1 1.609506 1_545
O14 Si0 1.609506 1_455
O15 Si6 1.611755 1_555
O15 Si1 1.612978 1_655
