# generated using pymatgen
data_ZnPb3
_symmetry_space_group_name_H-M   'P 1'
_cell_length_a   6.07140560
_cell_length_b   6.07140560
_cell_length_c   6.07140560
_cell_angle_alpha   134.00461663
_cell_angle_beta   134.00461663
_cell_angle_gamma   67.08079763
_symmetry_Int_Tables_number   1
_chemical_formula_structural   ZnPb3
_chemical_formula_sum   'Zn1 Pb3'
_cell_volume   113.89510621
_cell_formula_units_Z   1
loop_
 _symmetry_equiv_pos_site_id
 _symmetry_equiv_pos_as_xyz
  1  'x, y, z'
loop_
 _atom_site_type_symbol
 _atom_site_label
 _atom_site_symmetry_multiplicity
 _atom_site_fract_x
 _atom_site_fract_y
 _atom_site_fract_z
 _atom_site_occupancy
  Zn  Zn0  1  0.00000000  0.00000000  0.00000000  1
  Pb  Pb0  1  0.75000000  0.25000000  0.50000000  1
  Pb  Pb1  1  0.25000000  0.75000000  0.50000000  1
  Pb  Pb2  1  0.50000000  0.50000000  0.00000000  1
loop_
_geom_bond_atom_site_label_1
_geom_bond_atom_site_label_2
_geom_bond_distance
_geom_bond_site_symmetry_2
Pb0 Pb1 3.354602 1_645
Pb0 Pb1 3.354602 1_656
Pb0 Pb1 3.354602 1_544
Pb0 Pb1 3.354602 1_555
Pb0 Pb2 3.468260 1_656
Pb0 Zn0 3.468260 1_555
Pb0 Pb2 3.468260 1_555
Pb0 Pb2 3.468260 1_545
Pb0 Zn0 3.468260 1_655
Pb0 Pb2 3.468260 1_556
Pb0 Zn0 3.468260 1_666
Pb0 Zn0 3.468260 1_656
Pb1 Zn0 3.468260 1_555
Pb1 Zn0 3.468260 1_566
Pb1 Zn0 3.468260 1_565
Pb1 Pb2 3.468260 1_555
Pb1 Pb2 3.468260 1_566
Pb1 Pb2 3.468260 1_455
Pb1 Pb2 3.468260 1_556
Pb1 Zn0 3.468260 1_666
Pb2 Zn0 3.354602 1_565
Pb2 Zn0 3.354602 1_655
Pb2 Zn0 3.354602 1_554
Pb2 Zn0 3.354602 1_666
