# generated using pymatgen
data_KHo(CO3)2
_symmetry_space_group_name_H-M   'P 1'
_cell_length_a   6.32547098
_cell_length_b   6.32547098
_cell_length_c   6.85680105
_cell_angle_alpha   77.20645440
_cell_angle_beta   77.20645440
_cell_angle_gamma   97.84977023
_symmetry_Int_Tables_number   1
_chemical_formula_structural   KHo(CO3)2
_chemical_formula_sum   'K2 Ho2 C4 O12'
_cell_volume   255.88076915
_cell_formula_units_Z   2
loop_
 _symmetry_equiv_pos_site_id
 _symmetry_equiv_pos_as_xyz
  1  'x, y, z'
loop_
 _atom_site_type_symbol
 _atom_site_label
 _atom_site_symmetry_multiplicity
 _atom_site_fract_x
 _atom_site_fract_y
 _atom_site_fract_z
 _atom_site_occupancy
  K  K0  1  0.87847848  0.12152152  0.25000000  1
  K  K1  1  0.12152152  0.87847848  0.75000000  1
  Ho  Ho0  1  0.40736776  0.59263224  0.25000000  1
  Ho  Ho1  1  0.59263224  0.40736776  0.75000000  1
  C  C0  1  0.60350566  0.85665324  0.74657802  1
  C  C1  1  0.14334676  0.39649434  0.75342198  1
  C  C2  1  0.39649434  0.14334676  0.25342198  1
  C  C3  1  0.85665324  0.60350566  0.24657802  1
  O  O0  1  0.05855338  0.59102047  0.22559601  1
  O  O1  1  0.40897953  0.94144662  0.27440399  1
  O  O2  1  0.94144662  0.40897953  0.77440399  1
  O  O3  1  0.59102047  0.05855338  0.72559601  1
  O  O4  1  0.79066232  0.74442305  0.11878995  1
  O  O5  1  0.25557695  0.20933768  0.38121005  1
  O  O6  1  0.20933768  0.25557695  0.88121005  1
  O  O7  1  0.74442305  0.79066232  0.61878995  1
  O  O8  1  0.70099063  0.46483941  0.39719345  1
  O  O9  1  0.53516059  0.29900937  0.10280655  1
  O  O10  1  0.29900937  0.53516059  0.60280655  1
  O  O11  1  0.46483941  0.70099063  0.89719345  1
loop_
_geom_bond_atom_site_label_1
_geom_bond_atom_site_label_2
_geom_bond_distance
_geom_bond_site_symmetry_2
K0 O4 2.759999 1_545
K0 O5 2.759999 1_655
K0 O7 2.777634 1_545
K0 O6 2.777634 1_654
K0 O9 2.851310 1_555
K0 O8 2.851310 1_555
K0 O1 2.986079 1_545
K0 O0 2.986079 1_655
K1 O7 2.759999 1_455
K1 O6 2.759999 1_565
K1 O4 2.777634 1_456
K1 O5 2.777634 1_565
K1 O10 2.851310 1_555
K1 O11 2.851310 1_555
K1 O2 2.986079 1_455
K1 O3 2.986079 1_565
Ho0 O0 2.248221 1_555
Ho0 O1 2.248221 1_555
Ho0 O11 2.293956 1_554
Ho0 O10 2.293956 1_555
Ho0 O5 2.371733 1_555
Ho0 O4 2.371733 1_555
Ho0 O8 2.449613 1_555
Ho0 O9 2.449613 1_555
Ho1 O2 2.248221 1_555
Ho1 O3 2.248221 1_555
Ho1 O9 2.293956 1_556
Ho1 O8 2.293956 1_555
Ho1 O6 2.371733 1_555
Ho1 O7 2.371733 1_555
Ho1 O11 2.449613 1_555
Ho1 O10 2.449613 1_555
C0 O3 1.268528 1_565
C0 O7 1.286178 1_555
C0 O11 1.310718 1_555
C1 O2 1.268528 1_455
C1 O6 1.286178 1_555
C1 O10 1.310718 1_555
C2 O1 1.268528 1_545
C2 O5 1.286178 1_555
C2 O9 1.310718 1_555
C3 O0 1.268528 1_655
C3 O4 1.286178 1_555
C3 O8 1.310718 1_555
