# generated using pymatgen
data_Ge3Rh2Se3
_symmetry_space_group_name_H-M   'P 1'
_cell_length_a   8.59012558
_cell_length_b   8.59012558
_cell_length_c   8.59012529
_cell_angle_alpha   89.77967196
_cell_angle_beta   89.77967200
_cell_angle_gamma   89.77967225
_symmetry_Int_Tables_number   1
_chemical_formula_structural   Ge3Rh2Se3
_chemical_formula_sum   'Ge12 Rh8 Se12'
_cell_volume   633.85353291
_cell_formula_units_Z   4
loop_
 _symmetry_equiv_pos_site_id
 _symmetry_equiv_pos_as_xyz
  1  'x, y, z'
loop_
 _atom_site_type_symbol
 _atom_site_label
 _atom_site_symmetry_multiplicity
 _atom_site_fract_x
 _atom_site_fract_y
 _atom_site_fract_z
 _atom_site_occupancy
  Ge  Ge0  1  0.84946049  0.66517666  0.00234595  1
  Ge  Ge1  1  0.00234595  0.84946049  0.66517666  1
  Ge  Ge2  1  0.66517666  0.00234595  0.84946049  1
  Ge  Ge3  1  0.15053951  0.33482334  0.99765405  1
  Ge  Ge4  1  0.99765405  0.15053951  0.33482334  1
  Ge  Ge5  1  0.33482334  0.99765405  0.15053951  1
  Ge  Ge6  1  0.65098422  0.16478290  0.50207277  1
  Ge  Ge7  1  0.50207277  0.65098422  0.16478290  1
  Ge  Ge8  1  0.16478290  0.50207277  0.65098422  1
  Ge  Ge9  1  0.34901578  0.83521710  0.49792723  1
  Ge  Ge10  1  0.49792723  0.34901578  0.83521710  1
  Ge  Ge11  1  0.83521710  0.49792723  0.34901578  1
  Rh  Rh0  1  0.75289783  0.75289783  0.75289783  1
  Rh  Rh1  1  0.24710217  0.24710217  0.24710217  1
  Rh  Rh2  1  0.24855603  0.25423869  0.74989061  1
  Rh  Rh3  1  0.74989061  0.24855603  0.25423869  1
  Rh  Rh4  1  0.25423869  0.74989061  0.24855603  1
  Rh  Rh5  1  0.75144397  0.74576131  0.25010939  1
  Rh  Rh6  1  0.25010939  0.75144397  0.74576131  1
  Rh  Rh7  1  0.74576131  0.25010939  0.75144397  1
  Se  Se0  1  0.00002289  0.85769116  0.35274885  1
  Se  Se1  1  0.35274885  0.00002289  0.85769116  1
  Se  Se2  1  0.85769116  0.35274885  0.00002289  1
  Se  Se3  1  0.64167195  0.85290299  0.50373592  1
  Se  Se4  1  0.50373592  0.64167195  0.85290299  1
  Se  Se5  1  0.85290299  0.50373592  0.64167195  1
  Se  Se6  1  0.35832805  0.14709701  0.49626408  1
  Se  Se7  1  0.49626408  0.35832805  0.14709701  1
  Se  Se8  1  0.14709701  0.49626408  0.35832805  1
  Se  Se9  1  0.64725115  0.99997711  0.14230884  1
  Se  Se10  1  0.14230884  0.64725115  0.99997711  1
  Se  Se11  1  0.99997711  0.14230884  0.64725115  1
loop_
_geom_bond_atom_site_label_1
_geom_bond_atom_site_label_2
_geom_bond_distance
_geom_bond_site_symmetry_2
Ge0 Rh5 2.389752 1_555
Ge0 Rh0 2.417407 1_554
Ge0 Se10 2.519730 1_654
Ge0 Se2 2.684602 1_555
Ge1 Rh6 2.389752 1_555
Ge1 Rh0 2.417407 1_455
Ge1 Se11 2.519730 1_465
Ge1 Se0 2.684602 1_555
Ge2 Rh7 2.389752 1_555
Ge2 Rh0 2.417407 1_545
Ge2 Se9 2.519730 1_546
Ge2 Se1 2.684602 1_555
Ge3 Rh2 2.389752 1_555
Ge3 Rh1 2.417407 1_556
Ge3 Se2 2.519730 1_456
Ge3 Se10 2.684602 1_555
Ge4 Rh3 2.389752 1_555
Ge4 Rh1 2.417407 1_655
Ge4 Se0 2.519730 1_645
Ge4 Se11 2.684602 1_555
Ge5 Rh4 2.389752 1_555
Ge5 Rh1 2.417407 1_565
Ge5 Se1 2.519730 1_564
Ge5 Se9 2.684602 1_555
Ge6 Rh3 2.398133 1_555
Ge6 Rh7 2.412234 1_555
Ge6 Se6 2.519820 1_555
Ge6 Se3 2.680571 1_545
Ge7 Rh4 2.398133 1_555
Ge7 Rh5 2.412234 1_555
Ge7 Se7 2.519820 1_555
Ge7 Se4 2.680570 1_554
Ge8 Rh2 2.398133 1_555
Ge8 Rh6 2.412234 1_555
Ge8 Se8 2.519820 1_555
Ge8 Se5 2.680571 1_455
Ge9 Rh6 2.398133 1_555
Ge9 Rh4 2.412234 1_555
Ge9 Se3 2.519820 1_555
Ge9 Se6 2.680571 1_565
Ge10 Rh7 2.398133 1_555
Ge10 Rh2 2.412234 1_555
Ge10 Se4 2.519820 1_555
Ge10 Se7 2.680570 1_556
Ge11 Rh5 2.398133 1_555
Ge11 Rh3 2.412234 1_555
Ge11 Se5 2.519820 1_555
Ge11 Se8 2.680571 1_655
Rh0 Se3 2.495425 1_555
Rh0 Se4 2.495425 1_555
Rh0 Se5 2.495425 1_555
Rh1 Se6 2.495425 1_555
Rh1 Se7 2.495425 1_555
Rh1 Se8 2.495425 1_555
Rh2 Se11 2.509628 1_455
Rh2 Se1 2.530440 1_555
Rh2 Se6 2.544767 1_555
Rh3 Se9 2.509628 1_545
Rh3 Se2 2.530440 1_555
Rh3 Se7 2.544767 1_555
Rh4 Se10 2.509628 1_554
Rh4 Se0 2.530440 1_555
Rh4 Se8 2.544767 1_555
Rh5 Se0 2.509628 1_655
Rh5 Se9 2.530440 1_555
Rh5 Se3 2.544767 1_555
Rh6 Se1 2.509628 1_565
Rh6 Se10 2.530440 1_555
Rh6 Se4 2.544767 1_555
Rh7 Se2 2.509628 1_556
Rh7 Se11 2.530440 1_555
Rh7 Se5 2.544767 1_555
