# generated using pymatgen
data_KCrCl3
_symmetry_space_group_name_H-M   'P 1'
_cell_length_a   4.97792000
_cell_length_b   4.97792000
_cell_length_c   4.97061600
_cell_angle_alpha   90.00000000
_cell_angle_beta   90.00000000
_cell_angle_gamma   90.00000000
_symmetry_Int_Tables_number   1
_chemical_formula_structural   KCrCl3
_chemical_formula_sum   'K1 Cr1 Cl3'
_cell_volume   123.17031129
_cell_formula_units_Z   1
loop_
 _symmetry_equiv_pos_site_id
 _symmetry_equiv_pos_as_xyz
  1  'x, y, z'
loop_
 _atom_site_type_symbol
 _atom_site_label
 _atom_site_symmetry_multiplicity
 _atom_site_fract_x
 _atom_site_fract_y
 _atom_site_fract_z
 _atom_site_occupancy
  K  K0  1  0.00000000  0.00000000  0.99675800  1
  Cr  Cr0  1  0.50000000  0.50000000  0.48507000  1
  Cl  Cl0  1  0.50000000  0.00000000  0.48536500  1
  Cl  Cl1  1  0.50000000  0.50000000  0.98504200  1
  Cl  Cl2  1  0.00000000  0.50000000  0.48536500  1
loop_
_geom_bond_atom_site_label_1
_geom_bond_atom_site_label_2
_geom_bond_distance
_geom_bond_site_symmetry_2
Cl0 Cr0 2.488960 1_545
Cl0 Cr0 2.488960 1_555
Cl0 K0 3.477556 1_554
Cl0 K0 3.477556 1_654
Cl0 K0 3.557579 1_555
Cl0 K0 3.557579 1_655
Cl1 Cr0 2.485169 1_555
Cl1 Cr0 2.485447 1_556
Cl1 K0 3.520403 1_555
Cl1 K0 3.520403 1_655
Cl1 K0 3.520403 1_565
Cl1 K0 3.520403 1_665
Cl2 Cr0 2.488960 1_555
Cl2 Cr0 2.488960 1_455
Cl2 K0 3.477556 1_564
Cl2 K0 3.477556 1_554
Cl2 K0 3.557579 1_555
Cl2 K0 3.557579 1_565
