# generated using pymatgen
data_AgAs3H2O9
_symmetry_space_group_name_H-M   'P 1'
_cell_length_a   7.33788300
_cell_length_b   7.80116927
_cell_length_c   8.05323735
_cell_angle_alpha   111.11043720
_cell_angle_beta   106.54837843
_cell_angle_gamma   105.98918387
_symmetry_Int_Tables_number   1
_chemical_formula_structural   AgAs3H2O9
_chemical_formula_sum   'Ag2 As6 H4 O18'
_cell_volume   373.59889975
_cell_formula_units_Z   2
loop_
 _symmetry_equiv_pos_site_id
 _symmetry_equiv_pos_as_xyz
  1  'x, y, z'
loop_
 _atom_site_type_symbol
 _atom_site_label
 _atom_site_symmetry_multiplicity
 _atom_site_fract_x
 _atom_site_fract_y
 _atom_site_fract_z
 _atom_site_occupancy
  Ag  Ag0  1  0.29665500  0.82912400  0.04188100  1
  Ag  Ag1  1  0.70334500  0.17087600  0.95811900  1
  As  As0  1  0.37164000  0.35233600  0.16571800  1
  As  As1  1  0.18460300  0.83403000  0.45689100  1
  As  As2  1  0.15606400  0.43665500  0.47616300  1
  As  As3  1  0.84393600  0.56334500  0.52383700  1
  As  As4  1  0.81539700  0.16597000  0.54310900  1
  As  As5  1  0.62836000  0.64766400  0.83428200  1
  H  H0  1  0.86864500  0.63499000  0.07781300  1
  H  H1  1  0.63644100  0.81239800  0.39062500  1
  H  H2  1  0.36355900  0.18760200  0.60937500  1
  H  H3  1  0.13135500  0.36501000  0.92218700  1
  O  O0  1  0.28124300  0.46790700  0.03227100  1
  O  O1  1  0.39838600  0.14636300  0.03925800  1
  O  O2  1  0.09365100  0.79069800  0.22262800  1
  O  O3  1  0.19003600  0.28572300  0.26056700  1
  O  O4  1  0.91342200  0.43665300  0.31971800  1
  O  O5  1  0.60756900  0.56190300  0.35434800  1
  O  O6  1  0.61026300  0.92668500  0.37708500  1
  O  O7  1  0.00498100  0.18021700  0.44862400  1
  O  O8  1  0.68119200  0.31072900  0.49461800  1
  O  O9  1  0.31880800  0.68927100  0.50538200  1
  O  O10  1  0.99501900  0.81978300  0.55137600  1
  O  O11  1  0.38973700  0.07331500  0.62291500  1
  O  O12  1  0.39243100  0.43809700  0.64565200  1
  O  O13  1  0.08657800  0.56334700  0.68028200  1
  O  O14  1  0.80996400  0.71427700  0.73943300  1
  O  O15  1  0.90634900  0.20930200  0.77737200  1
  O  O16  1  0.60161400  0.85363700  0.96074200  1
  O  O17  1  0.71875700  0.53209300  0.96772900  1
loop_
_geom_bond_atom_site_label_1
_geom_bond_atom_site_label_2
_geom_bond_distance
_geom_bond_site_symmetry_2
Ag0 O1 2.389846 1_565
Ag0 O2 2.393965 1_555
Ag0 O16 2.481591 1_554
Ag0 O13 2.547159 1_554
Ag0 O6 2.679270 1_555
Ag0 O0 2.760757 1_555
Ag1 O16 2.389846 1_545
Ag1 O15 2.393965 1_555
Ag1 O1 2.481591 1_556
Ag1 O4 2.547159 1_556
Ag1 O11 2.679270 1_555
Ag1 O17 2.760757 1_555
As0 O1 1.663253 1_555
As0 O0 1.740440 1_555
As0 O3 1.764527 1_555
As0 O5 1.769526 1_555
As1 O2 1.678672 1_555
As1 O11 1.745202 1_565
As1 O10 1.762202 1_455
As1 O9 1.763194 1_555
As2 O3 1.843562 1_555
As2 O4 1.865356 1_455
As2 O12 1.871107 1_555
As2 O13 1.877159 1_555
As2 O9 1.890637 1_555
As2 O7 1.897058 1_555
As3 O14 1.843562 1_555
As3 O13 1.865356 1_655
As3 O5 1.871107 1_555
As3 O4 1.877159 1_555
As3 O8 1.890637 1_555
As3 O10 1.897058 1_555
As4 O15 1.678672 1_555
As4 O6 1.745202 1_545
As4 O7 1.762202 1_655
As4 O8 1.763194 1_555
As5 O16 1.663253 1_555
As5 O17 1.740440 1_555
As5 O14 1.764527 1_555
As5 O12 1.769526 1_555
H0 O17 1.041894 1_554
H0 O2 1.529516 1_655
H1 O6 0.998067 1_555
H2 O11 0.998067 1_555
H3 O0 1.041894 1_556
H3 O15 1.529516 1_455
