# generated using pymatgen
data_Na3PS4
_symmetry_space_group_name_H-M   'P 1'
_cell_length_a   6.01599144
_cell_length_b   6.01599144
_cell_length_c   6.01599144
_cell_angle_alpha   109.47122063
_cell_angle_beta   109.47122063
_cell_angle_gamma   109.47122063
_symmetry_Int_Tables_number   1
_chemical_formula_structural   Na3PS4
_chemical_formula_sum   'Na3 P1 S4'
_cell_volume   167.60992786
_cell_formula_units_Z   1
loop_
 _symmetry_equiv_pos_site_id
 _symmetry_equiv_pos_as_xyz
  1  'x, y, z'
loop_
 _atom_site_type_symbol
 _atom_site_label
 _atom_site_symmetry_multiplicity
 _atom_site_fract_x
 _atom_site_fract_y
 _atom_site_fract_z
 _atom_site_occupancy
  Na  Na0  1  -0.00000000  0.50000000  0.50000000  1
  Na  Na1  1  0.50000000  0.50000000  -0.00000000  1
  Na  Na2  1  0.50000000  0.00000000  0.50000000  1
  P  P0  1  -0.00000000  0.00000000  -0.00000000  1
  S  S0  1  0.34167049  0.00000000  -0.00000000  1
  S  S1  1  0.65832951  0.65832951  0.65832951  1
  S  S2  1  -0.00000000  -0.00000000  0.34167049  1
  S  S3  1  -0.00000000  0.34167049  0.00000000  1
loop_
_geom_bond_atom_site_label_1
_geom_bond_atom_site_label_2
_geom_bond_distance
_geom_bond_site_symmetry_2
Na0 S1 2.836409 1_455
Na0 S2 2.836409 1_555
Na0 S0 2.836409 1_566
Na0 S3 2.836409 1_555
Na1 S1 2.836409 1_554
Na1 S0 2.836409 1_555
Na1 S2 2.836409 1_665
Na1 S3 2.836409 1_555
Na2 S1 2.836409 1_545
Na2 S2 2.836409 1_555
Na2 S3 2.836409 1_656
Na2 S0 2.836409 1_555
P0 S0 2.055487 1_555
P0 S3 2.055487 1_555
P0 S2 2.055487 1_555
P0 S1 2.055487 1_444
