# generated using pymatgen
data_Lu2AlTc
_symmetry_space_group_name_H-M   'P 1'
_cell_length_a   4.87162207
_cell_length_b   4.87162207
_cell_length_c   4.87162207
_cell_angle_alpha   60.00000000
_cell_angle_beta   60.00000000
_cell_angle_gamma   60.00000000
_symmetry_Int_Tables_number   1
_chemical_formula_structural   Lu2AlTc
_chemical_formula_sum   'Lu2 Al1 Tc1'
_cell_volume   81.75338989
_cell_formula_units_Z   1
loop_
 _symmetry_equiv_pos_site_id
 _symmetry_equiv_pos_as_xyz
  1  'x, y, z'
loop_
 _atom_site_type_symbol
 _atom_site_label
 _atom_site_symmetry_multiplicity
 _atom_site_fract_x
 _atom_site_fract_y
 _atom_site_fract_z
 _atom_site_occupancy
  Lu  Lu0  1  0.25000000  0.25000000  0.25000000  1
  Lu  Lu1  1  0.75000000  0.75000000  0.75000000  1
  Al  Al0  1  0.50000000  0.50000000  0.50000000  1
  Tc  Tc0  1  0.00000000  0.00000000  0.00000000  1
loop_
_geom_bond_atom_site_label_1
_geom_bond_atom_site_label_2
_geom_bond_distance
_geom_bond_site_symmetry_2
Lu0 Tc0 2.983247 1_556
Lu0 Tc0 2.983247 1_555
Lu0 Tc0 2.983247 1_565
Lu0 Tc0 2.983247 1_655
Lu1 Tc0 2.983247 1_666
Lu1 Tc0 2.983247 1_656
Lu1 Tc0 2.983247 1_566
Lu1 Tc0 2.983247 1_665
Al0 Lu1 2.983247 1_455
Al0 Lu0 2.983247 1_565
Al0 Lu1 2.983247 1_555
Al0 Lu1 2.983247 1_545
Al0 Lu1 2.983247 1_554
Al0 Lu0 2.983247 1_556
Al0 Lu0 2.983247 1_555
Al0 Lu0 2.983247 1_655
