# generated using pymatgen
data_Yb3Mg
_symmetry_space_group_name_H-M   'P 1'
_cell_length_a   5.21892500
_cell_length_b   5.21892500
_cell_length_c   5.21892500
_cell_angle_alpha   90.00000000
_cell_angle_beta   90.00000000
_cell_angle_gamma   90.00000000
_symmetry_Int_Tables_number   1
_chemical_formula_structural   Yb3Mg
_chemical_formula_sum   'Yb3 Mg1'
_cell_volume   142.14879001
_cell_formula_units_Z   1
loop_
 _symmetry_equiv_pos_site_id
 _symmetry_equiv_pos_as_xyz
  1  'x, y, z'
loop_
 _atom_site_type_symbol
 _atom_site_label
 _atom_site_symmetry_multiplicity
 _atom_site_fract_x
 _atom_site_fract_y
 _atom_site_fract_z
 _atom_site_occupancy
  Yb  Yb0  1  0.50000000  0.50000000  0.00000000  1
  Yb  Yb1  1  0.50000000  0.00000000  0.50000000  1
  Yb  Yb2  1  0.00000000  0.50000000  0.50000000  1
  Mg  Mg0  1  0.00000000  0.00000000  0.00000000  1
loop_
_geom_bond_atom_site_label_1
_geom_bond_atom_site_label_2
_geom_bond_distance
_geom_bond_site_symmetry_2
Yb0 Yb2 3.690337 1_555
Yb0 Yb2 3.690337 1_554
Yb0 Yb2 3.690337 1_655
Yb0 Yb2 3.690337 1_654
Yb0 Yb1 3.690337 1_555
Yb0 Yb1 3.690337 1_554
Yb0 Yb1 3.690337 1_565
Yb0 Yb1 3.690337 1_564
Yb1 Yb2 3.690337 1_555
Yb1 Yb2 3.690337 1_545
Yb1 Yb2 3.690337 1_655
Yb1 Yb2 3.690337 1_645
Mg0 Yb0 3.690337 1_455
Mg0 Yb2 3.690337 1_555
Mg0 Yb0 3.690337 1_545
Mg0 Yb1 3.690337 1_455
Mg0 Yb0 3.690337 1_555
Mg0 Yb1 3.690337 1_454
Mg0 Yb2 3.690337 1_545
Mg0 Yb2 3.690337 1_544
Mg0 Yb2 3.690337 1_554
Mg0 Yb0 3.690337 1_445
Mg0 Yb1 3.690337 1_555
Mg0 Yb1 3.690337 1_554
