# generated using pymatgen
data_CsTlF3
_symmetry_space_group_name_H-M   'P 1'
_cell_length_a   3.90727500
_cell_length_b   5.52572100
_cell_length_c   9.57082900
_cell_angle_alpha   90.00000000
_cell_angle_beta   90.00000000
_cell_angle_gamma   90.00000000
_symmetry_Int_Tables_number   1
_chemical_formula_structural   CsTlF3
_chemical_formula_sum   'Cs2 Tl2 F6'
_cell_volume   206.63909378
_cell_formula_units_Z   2
loop_
 _symmetry_equiv_pos_site_id
 _symmetry_equiv_pos_as_xyz
  1  'x, y, z'
loop_
 _atom_site_type_symbol
 _atom_site_label
 _atom_site_symmetry_multiplicity
 _atom_site_fract_x
 _atom_site_fract_y
 _atom_site_fract_z
 _atom_site_occupancy
  Cs  Cs0  1  0.00000000  0.05393200  0.00000000  1
  Cs  Cs1  1  0.00000000  0.55393200  0.50000000  1
  Tl  Tl0  1  0.50000000  0.54721100  0.00000000  1
  Tl  Tl1  1  0.50000000  0.04721100  0.50000000  1
  F  F0  1  0.50000000  0.29484100  0.75166300  1
  F  F1  1  0.50000000  0.29484100  0.24833700  1
  F  F2  1  0.00000000  0.54317900  0.00000000  1
  F  F3  1  0.50000000  0.79484100  0.25166300  1
  F  F4  1  0.50000000  0.79484100  0.74833700  1
  F  F5  1  0.00000000  0.04317900  0.50000000  1
loop_
_geom_bond_atom_site_label_1
_geom_bond_atom_site_label_2
_geom_bond_distance
_geom_bond_site_symmetry_2
Cs0 F2 2.703442 1_555
Cs0 F2 2.822279 1_545
Cs0 F0 3.352300 1_454
Cs0 F0 3.352300 1_554
Cs0 F1 3.352300 1_455
Cs0 F1 3.352300 1_555
Cs0 F3 3.415821 1_445
Cs0 F3 3.415821 1_545
Cs0 F4 3.415821 1_444
Cs0 F4 3.415821 1_544
Cs1 F5 2.703442 1_565
Cs1 F5 2.822279 1_555
Cs1 F4 3.352300 1_455
Cs1 F4 3.352300 1_555
Cs1 F3 3.352300 1_555
Cs1 F3 3.352300 1_455
Cs1 F0 3.415821 1_455
Cs1 F0 3.415821 1_555
Cs1 F1 3.415821 1_555
Cs1 F1 3.415821 1_455
F0 Tl0 2.755692 1_556
F0 Tl1 2.770164 1_555
F1 Tl0 2.755692 1_555
F1 Tl1 2.770164 1_555
F2 Tl0 1.953765 1_555
F2 Tl0 1.953765 1_455
F3 Tl1 2.755692 1_565
F3 Tl0 2.770164 1_555
F4 Tl1 2.755692 1_565
F4 Tl0 2.770164 1_556
F5 Tl1 1.953765 1_555
F5 Tl1 1.953765 1_455
