# generated using pymatgen
data_Ce4GdO9
_symmetry_space_group_name_H-M   'P 1'
_cell_length_a   3.81454091
_cell_length_b   10.36920554
_cell_length_c   5.53465361
_cell_angle_alpha   105.43158452
_cell_angle_beta   89.96573996
_cell_angle_gamma   79.37697467
_symmetry_Int_Tables_number   1
_chemical_formula_structural   Ce4GdO9
_chemical_formula_sum   'Ce4 Gd1 O9'
_cell_volume   207.12250248
_cell_formula_units_Z   1
loop_
 _symmetry_equiv_pos_site_id
 _symmetry_equiv_pos_as_xyz
  1  'x, y, z'
loop_
 _atom_site_type_symbol
 _atom_site_label
 _atom_site_symmetry_multiplicity
 _atom_site_fract_x
 _atom_site_fract_y
 _atom_site_fract_z
 _atom_site_occupancy
  Ce  Ce0  1  0.61010200  0.78711900  0.40648700  1
  Ce  Ce1  1  0.80379800  0.39681600  0.20453200  1
  Ce  Ce2  1  0.19948900  0.60190100  0.80578400  1
  Ce  Ce3  1  0.39897300  0.21292500  0.61889600  1
  Gd  Gd0  1  0.00511700  0.00023400  0.95189800  1
  O  O0  1  0.69831400  0.60714000  0.05955200  1
  O  O1  1  0.08550800  0.83405000  0.17601600  1
  O  O2  1  0.10715900  0.79054100  0.64800000  1
  O  O3  1  0.70382500  0.59507500  0.55241500  1
  O  O4  1  0.30368700  0.39336800  0.45667000  1
  O  O5  1  0.92169400  0.16949100  0.33836900  1
  O  O6  1  0.90104800  0.20926300  0.85322200  1
  O  O7  1  0.50503500  0.00029500  0.73377600  1
  O  O8  1  0.30186300  0.40393200  0.96082300  1
loop_
_geom_bond_atom_site_label_1
_geom_bond_atom_site_label_2
_geom_bond_distance
_geom_bond_site_symmetry_2
Ce0 O0 2.267987 1_555
Ce0 O3 2.310705 1_555
Ce0 O2 2.320685 1_655
Ce0 O2 2.327063 1_555
Ce0 O1 2.409457 1_655
Ce0 O1 2.417151 1_555
Ce0 O7 2.422743 1_565
Ce1 O6 2.328340 1_554
Ce1 O8 2.344074 1_554
Ce1 O8 2.352869 1_654
Ce1 O4 2.364181 1_655
Ce1 O4 2.374131 1_555
Ce1 O3 2.383800 1_555
Ce1 O0 2.483990 1_555
Ce1 O5 2.616488 1_555
Ce2 O2 2.316937 1_555
Ce2 O3 2.355002 1_455
Ce2 O0 2.355486 1_456
Ce2 O3 2.359296 1_555
Ce2 O0 2.365783 1_556
Ce2 O8 2.396868 1_555
Ce2 O4 2.454759 1_555
Ce2 O1 2.677785 1_556
Ce3 O4 2.254503 1_555
Ce3 O6 2.311023 1_455
Ce3 O6 2.313812 1_555
Ce3 O8 2.318469 1_555
Ce3 O7 2.417970 1_555
Ce3 O5 2.421077 1_455
Ce3 O5 2.425353 1_555
Gd0 O7 2.256544 1_555
Gd0 O7 2.258095 1_455
Gd0 O2 2.334360 1_545
Gd0 O6 2.338105 1_455
Gd0 O1 2.354828 1_546
Gd0 O5 2.356314 1_456
