# generated using pymatgen
data_Ba4Na(BN2)3
_symmetry_space_group_name_H-M   'P 1'
_cell_length_a   6.92069306
_cell_length_b   6.92069306
_cell_length_c   6.92069306
_cell_angle_alpha   109.47122063
_cell_angle_beta   109.47122063
_cell_angle_gamma   109.47122063
_symmetry_Int_Tables_number   1
_chemical_formula_structural   Ba4Na(BN2)3
_chemical_formula_sum   'Ba4 Na1 B3 N6'
_cell_volume   255.16839012
_cell_formula_units_Z   1
loop_
 _symmetry_equiv_pos_site_id
 _symmetry_equiv_pos_as_xyz
  1  'x, y, z'
loop_
 _atom_site_type_symbol
 _atom_site_label
 _atom_site_symmetry_multiplicity
 _atom_site_fract_x
 _atom_site_fract_y
 _atom_site_fract_z
 _atom_site_occupancy
  Ba  Ba0  1  0.00000000  0.50000000  0.00000000  1
  Ba  Ba1  1  0.50000000  0.00000000  0.00000000  1
  Ba  Ba2  1  0.00000000  0.00000000  0.50000000  1
  Ba  Ba3  1  0.50000000  0.50000000  0.50000000  1
  Na  Na0  1  0.00000000  0.00000000  0.00000000  1
  B  B0  1  0.50000000  0.50000000  0.00000000  1
  B  B1  1  0.00000000  0.50000000  0.50000000  1
  B  B2  1  0.50000000  0.00000000  0.50000000  1
  N  N0  1  0.66971300  0.00000000  0.66971300  1
  N  N1  1  0.66971300  0.66971300  0.00000000  1
  N  N2  1  0.33028700  0.00000000  0.33028700  1
  N  N3  1  0.00000000  0.33028700  0.33028700  1
  N  N4  1  0.00000000  0.66971300  0.66971300  1
  N  N5  1  0.33028700  0.33028700  0.00000000  1
loop_
_geom_bond_atom_site_label_1
_geom_bond_atom_site_label_2
_geom_bond_distance
_geom_bond_site_symmetry_2
Ba0 N1 2.897295 1_455
Ba0 N0 2.897295 1_454
Ba0 N3 2.897295 1_555
Ba0 N2 2.897295 1_565
Ba0 N5 2.897295 1_555
Ba0 N4 2.897295 1_554
Ba1 N2 2.897295 1_555
Ba1 N3 2.897295 1_655
Ba1 N1 2.897295 1_545
Ba1 N4 2.897295 1_544
Ba1 N0 2.897295 1_554
Ba1 N5 2.897295 1_555
Ba2 N3 2.897295 1_555
Ba2 N2 2.897295 1_555
Ba2 N5 2.897295 1_556
Ba2 N0 2.897295 1_455
Ba2 N4 2.897295 1_545
Ba2 N1 2.897295 1_445
Ba3 N3 2.897295 1_555
Ba3 N0 2.897295 1_565
Ba3 N2 2.897295 1_555
Ba3 N1 2.897295 1_556
Ba3 N4 2.897295 1_655
Ba3 N5 2.897295 1_555
B0 N5 1.356232 1_555
B0 N1 1.356232 1_555
B1 N3 1.356232 1_555
B1 N4 1.356232 1_555
B2 N2 1.356232 1_555
B2 N0 1.356232 1_555
N0 Na0 2.639432 1_656
N1 Na0 2.639432 1_665
N2 Na0 2.639432 1_555
N3 Na0 2.639432 1_555
N4 Na0 2.639432 1_566
N5 Na0 2.639432 1_555
