# generated using pymatgen
data_Nd3Al
_symmetry_space_group_name_H-M   'P 1'
_cell_length_a   4.88129481
_cell_length_b   4.88129481
_cell_length_c   4.88129481
_cell_angle_alpha   90.00000000
_cell_angle_beta   90.00000000
_cell_angle_gamma   90.00000000
_symmetry_Int_Tables_number   1
_chemical_formula_structural   Nd3Al
_chemical_formula_sum   'Nd3 Al1'
_cell_volume   116.30680192
_cell_formula_units_Z   1
loop_
 _symmetry_equiv_pos_site_id
 _symmetry_equiv_pos_as_xyz
  1  'x, y, z'
loop_
 _atom_site_type_symbol
 _atom_site_label
 _atom_site_symmetry_multiplicity
 _atom_site_fract_x
 _atom_site_fract_y
 _atom_site_fract_z
 _atom_site_occupancy
  Nd  Nd0  1  -0.00000000  0.49999800  0.49999800  1
  Nd  Nd1  1  0.49999800  0.00000000  0.49999800  1
  Nd  Nd2  1  0.49999800  0.49999800  -0.00000000  1
  Al  Al0  1  -0.00000000  0.00000000  -0.00000000  1
loop_
_geom_bond_atom_site_label_1
_geom_bond_atom_site_label_2
_geom_bond_distance
_geom_bond_site_symmetry_2
Nd0 Nd2 3.451583 1_555
Nd0 Nd1 3.451583 1_555
Nd0 Nd2 3.451597 1_455
Nd0 Nd1 3.451597 1_455
Nd0 Nd2 3.451597 1_556
Nd0 Nd1 3.451597 1_565
Nd0 Nd1 3.451610 1_465
Nd0 Nd2 3.451610 1_456
Nd1 Nd2 3.451583 1_555
Nd1 Nd2 3.451597 1_545
Nd1 Nd2 3.451597 1_556
Nd1 Nd2 3.451610 1_546
Al0 Nd2 3.451583 1_555
Al0 Nd0 3.451583 1_555
Al0 Nd1 3.451583 1_555
Al0 Nd0 3.451597 1_545
Al0 Nd2 3.451597 1_455
Al0 Nd1 3.451597 1_455
Al0 Nd0 3.451597 1_554
Al0 Nd1 3.451597 1_554
Al0 Nd2 3.451597 1_545
Al0 Nd1 3.451610 1_454
Al0 Nd0 3.451610 1_544
Al0 Nd2 3.451610 1_445
