# generated using pymatgen
data_Si(H3C)2
_symmetry_space_group_name_H-M   'P 1'
_cell_length_a   9.03357100
_cell_length_b   9.24677082
_cell_length_c   9.71668402
_cell_angle_alpha   76.69316515
_cell_angle_beta   82.15680227
_cell_angle_gamma   65.91625067
_symmetry_Int_Tables_number   1
_chemical_formula_structural   Si(H3C)2
_chemical_formula_sum   'Si8 H48 C16'
_cell_volume   720.27219603
_cell_formula_units_Z   8
loop_
 _symmetry_equiv_pos_site_id
 _symmetry_equiv_pos_as_xyz
  1  'x, y, z'
loop_
 _atom_site_type_symbol
 _atom_site_label
 _atom_site_symmetry_multiplicity
 _atom_site_fract_x
 _atom_site_fract_y
 _atom_site_fract_z
 _atom_site_occupancy
  Si  Si0  1  0.82818600  0.33879100  0.33250500  1
  Si  Si1  1  0.17181400  0.66120900  0.66749500  1
  Si  Si2  1  0.01495100  0.64263200  0.07075800  1
  Si  Si3  1  0.98504900  0.35736800  0.92924200  1
  Si  Si4  1  0.03535200  0.37064500  0.16177900  1
  Si  Si5  1  0.96464800  0.62935500  0.83822100  1
  Si  Si6  1  0.29755800  0.18300200  0.23953100  1
  Si  Si7  1  0.70244200  0.81699800  0.76046900  1
  H  H0  1  0.44304800  0.18765300  0.99743800  1
  H  H1  1  0.55695200  0.81234700  0.00256200  1
  H  H2  1  0.26096300  0.20132300  0.50020000  1
  H  H3  1  0.73903700  0.79867700  0.49980000  1
  H  H4  1  0.42995600  0.87997600  0.30469700  1
  H  H5  1  0.57004400  0.12002400  0.69530300  1
  H  H6  1  0.46810700  0.13445900  0.44266600  1
  H  H7  1  0.53189300  0.86554100  0.55733400  1
  H  H8  1  0.34034000  0.34115300  0.39922900  1
  H  H9  1  0.65966000  0.65884700  0.60077100  1
  H  H10  1  0.21833100  0.94509100  0.34289300  1
  H  H11  1  0.78166900  0.05490900  0.65710700  1
  H  H12  1  0.29618200  0.93895400  0.16642400  1
  H  H13  1  0.70381800  0.06104600  0.83357600  1
  H  H14  1  0.93873400  0.03563300  0.36240600  1
  H  H15  1  0.06126600  0.96436700  0.63759400  1
  H  H16  1  0.79525900  0.12800000  0.22999500  1
  H  H17  1  0.20474100  0.87200000  0.77000500  1
  H  H18  1  0.72844600  0.11209300  0.41049200  1
  H  H19  1  0.27155400  0.88790700  0.58950800  1
  H  H20  1  0.58200200  0.51829300  0.18549900  1
  H  H21  1  0.41799800  0.48170700  0.81450100  1
  H  H22  1  0.61352600  0.62141700  0.30349300  1
  H  H23  1  0.38647400  0.37858300  0.69650700  1
  H  H24  1  0.52637400  0.47700100  0.36749800  1
  H  H25  1  0.47362600  0.52299900  0.63250200  1
  H  H26  1  0.58078500  0.11547000  0.13406200  1
  H  H27  1  0.41921500  0.88453000  0.86593800  1
  H  H28  1  0.46521100  0.32499100  0.08508000  1
  H  H29  1  0.53478900  0.67500900  0.91492000  1
  H  H30  1  0.89283700  0.45171700  0.51966300  1
  H  H31  1  0.10716300  0.54828300  0.48033700  1
  H  H32  1  0.98276500  0.23823600  0.55591000  1
  H  H33  1  0.01723500  0.76176400  0.44409000  1
  H  H34  1  0.72516100  0.80165900  0.15105100  1
  H  H35  1  0.27483900  0.19834100  0.84894900  1
  H  H36  1  0.83726400  0.92571100  0.10015100  1
  H  H37  1  0.16273600  0.07428900  0.89984900  1
  H  H38  1  0.86482600  0.79339400  0.26690900  1
  H  H39  1  0.13517400  0.20660600  0.73309100  1
  H  H40  1  0.24805800  0.64893200  0.18457700  1
  H  H41  1  0.75194200  0.35106800  0.81542300  1
  H  H42  1  0.77278000  0.33887300  0.59288300  1
  H  H43  1  0.22722000  0.66112700  0.40711700  1
  H  H44  1  0.19093400  0.80281900  0.03183900  1
  H  H45  1  0.80906600  0.19718100  0.96816100  1
  H  H46  1  0.30971300  0.60117000  0.01413300  1
  H  H47  1  0.69028700  0.39883000  0.98586700  1
  C  C0  1  0.31117500  0.96779500  0.26587500  1
  C  C1  1  0.68882500  0.03220500  0.73412500  1
  C  C2  1  0.87386600  0.34213800  0.51663900  1
  C  C3  1  0.12613400  0.65786200  0.48336100  1
  C  C4  1  0.20875300  0.67598600  0.07631600  1
  C  C5  1  0.79124700  0.32401400  0.92368400  1
  C  C6  1  0.84428800  0.80496400  0.15543400  1
  C  C7  1  0.15571200  0.19503600  0.84456600  1
  C  C8  1  0.34522100  0.21789600  0.41125500  1
  C  C9  1  0.65477900  0.78210400  0.58874500  1
  C  C10  1  0.46057900  0.20497700  0.10101900  1
  C  C11  1  0.53942100  0.79502300  0.89898100  1
  C  C12  1  0.61918500  0.50335900  0.29217400  1
  C  C13  1  0.38081500  0.49664100  0.70782600  1
  C  C14  1  0.82200700  0.13527500  0.33443000  1
  C  C15  1  0.17799300  0.86472500  0.66557000  1
loop_
_geom_bond_atom_site_label_1
_geom_bond_atom_site_label_2
_geom_bond_distance
_geom_bond_site_symmetry_2
Si0 Si4 2.391369 1_655
Si1 Si5 2.391369 1_455
Si2 Si5 2.404226 1_454
Si2 Si4 2.404927 1_555
Si3 Si4 2.404226 1_656
Si3 Si5 2.404927 1_555
Si4 Si6 2.392197 1_555
Si5 Si7 2.392197 1_555
C0 H12 1.098680 1_555
C0 H10 1.098924 1_555
C0 H4 1.100637 1_555
C0 Si6 1.901305 1_565
C1 H13 1.098680 1_555
C1 H11 1.098924 1_555
C1 H5 1.100637 1_555
C1 Si7 1.901305 1_545
C2 H32 1.094869 1_555
C2 H42 1.100544 1_555
C2 H30 1.101686 1_555
C2 Si0 1.899945 1_555
C3 H33 1.094869 1_555
C3 H43 1.100544 1_555
C3 H31 1.101686 1_555
C3 Si1 1.899945 1_555
C4 H46 1.096605 1_555
C4 H40 1.097056 1_555
C4 H44 1.104412 1_555
C4 Si2 1.907151 1_555
C5 H47 1.096605 1_555
C5 H41 1.097056 1_555
C5 H45 1.104412 1_555
C5 Si3 1.907151 1_555
C6 H34 1.095800 1_555
C6 H38 1.097462 1_555
C6 H36 1.102083 1_555
C6 Si2 1.908024 1_655
C7 H35 1.095800 1_555
C7 H39 1.097462 1_555
C7 H37 1.102083 1_555
C7 Si3 1.908024 1_455
C8 H2 1.097478 1_555
C8 H6 1.098087 1_555
C8 H8 1.101665 1_555
C8 Si6 1.905512 1_555
C9 H3 1.097478 1_555
C9 H7 1.098087 1_555
C9 H9 1.101665 1_555
C9 Si7 1.905512 1_555
C10 H0 1.096419 1_554
C10 H26 1.098443 1_555
C10 H28 1.101942 1_555
C10 Si6 1.897050 1_555
C11 H1 1.096419 1_556
C11 H27 1.098443 1_555
C11 H29 1.101942 1_555
C11 Si7 1.897050 1_555
C12 H20 1.094331 1_555
C12 H22 1.102093 1_555
C12 H24 1.102361 1_555
C12 Si0 1.901697 1_555
C13 H21 1.094331 1_555
C13 H23 1.102093 1_555
C13 H25 1.102361 1_555
C13 Si1 1.901697 1_555
C14 H16 1.097389 1_555
C14 H14 1.097596 1_555
C14 H18 1.100442 1_555
C14 Si0 1.901085 1_555
C15 H17 1.097389 1_555
C15 H15 1.097596 1_555
C15 H19 1.100442 1_555
C15 Si1 1.901085 1_555
