# generated using pymatgen
data_NbSnS2
_symmetry_space_group_name_H-M   'P 1'
_cell_length_a   3.35555019
_cell_length_b   3.35555175
_cell_length_c   17.50146048
_cell_angle_alpha   90.00000000
_cell_angle_beta   90.00000000
_cell_angle_gamma   120.00000539
_symmetry_Int_Tables_number   1
_chemical_formula_structural   NbSnS2
_chemical_formula_sum   'Nb2 Sn2 S4'
_cell_volume   170.66032943
_cell_formula_units_Z   2
loop_
 _symmetry_equiv_pos_site_id
 _symmetry_equiv_pos_as_xyz
  1  'x, y, z'
loop_
 _atom_site_type_symbol
 _atom_site_label
 _atom_site_symmetry_multiplicity
 _atom_site_fract_x
 _atom_site_fract_y
 _atom_site_fract_z
 _atom_site_occupancy
  Nb  Nb0  1  0.66666700  0.33333300  0.75000000  1
  Nb  Nb1  1  0.33333300  0.66666700  0.25000000  1
  Sn  Sn0  1  0.00000000  0.00000000  0.00000000  1
  Sn  Sn1  1  0.00000000  0.00000000  0.50000000  1
  S  S0  1  0.00000000  0.00000000  0.33910024  1
  S  S1  1  0.00000000  0.00000000  0.83910024  1
  S  S2  1  -0.00000000  0.00000000  0.16089976  1
  S  S3  1  -0.00000000  0.00000000  0.66089976  1
loop_
_geom_bond_atom_site_label_1
_geom_bond_atom_site_label_2
_geom_bond_distance
_geom_bond_site_symmetry_2
Nb0 S3 2.486949 1_655
Nb0 S1 2.486949 1_655
Nb0 S1 2.486950 1_555
Nb0 S3 2.486950 1_555
Nb0 S3 2.486951 1_665
Nb0 S1 2.486951 1_665
Nb1 S0 2.486949 1_565
Nb1 S2 2.486949 1_565
Nb1 S2 2.486950 1_665
Nb1 S0 2.486950 1_665
Nb1 S2 2.486951 1_555
Nb1 S0 2.486951 1_555
S0 Sn1 2.815981 1_555
S1 Sn0 2.815981 1_556
S2 Sn0 2.815981 1_555
S3 Sn1 2.815981 1_555
