# generated using pymatgen
data_Ac3Er
_symmetry_space_group_name_H-M   'P 1'
_cell_length_a   7.81683639
_cell_length_b   7.81683639
_cell_length_c   6.25840800
_cell_angle_alpha   90.00000000
_cell_angle_beta   90.00000000
_cell_angle_gamma   120.00000327
_symmetry_Int_Tables_number   1
_chemical_formula_structural   Ac3Er
_chemical_formula_sum   'Ac6 Er2'
_cell_volume   331.17422872
_cell_formula_units_Z   2
loop_
 _symmetry_equiv_pos_site_id
 _symmetry_equiv_pos_as_xyz
  1  'x, y, z'
loop_
 _atom_site_type_symbol
 _atom_site_label
 _atom_site_symmetry_multiplicity
 _atom_site_fract_x
 _atom_site_fract_y
 _atom_site_fract_z
 _atom_site_occupancy
  Ac  Ac0  1  0.16962800  0.33925600  0.25000000  1
  Ac  Ac1  1  0.66074400  0.83037200  0.25000000  1
  Ac  Ac2  1  0.16962800  0.83037200  0.25000000  1
  Ac  Ac3  1  0.83037200  0.66074400  0.75000000  1
  Ac  Ac4  1  0.33925600  0.16962800  0.75000000  1
  Ac  Ac5  1  0.83037200  0.16962800  0.75000000  1
  Er  Er0  1  0.33333300  0.66666700  0.75000000  1
  Er  Er1  1  0.66666700  0.33333300  0.25000000  1
loop_
_geom_bond_atom_site_label_1
_geom_bond_atom_site_label_2
_geom_bond_distance
_geom_bond_site_symmetry_2
Ac0 Er0 3.834645 1_555
Ac0 Er0 3.834645 1_554
Ac0 Ac1 3.838973 1_555
Ac0 Ac2 3.838973 1_555
Ac0 Ac5 3.881544 1_455
Ac0 Ac5 3.881544 1_454
Ac0 Ac4 3.881544 1_554
Ac0 Ac4 3.881544 1_555
Ac0 Er1 3.908620 1_455
Ac0 Er1 3.908628 1_555
Ac0 Ac1 3.977863 1_445
Ac0 Ac2 3.977863 1_545
Ac1 Er0 3.834645 1_555
Ac1 Er0 3.834645 1_554
Ac1 Ac2 3.838973 1_555
Ac1 Ac5 3.881544 1_564
Ac1 Ac5 3.881544 1_565
Ac1 Ac3 3.881544 1_554
Ac1 Ac3 3.881544 1_555
Ac1 Er1 3.908620 1_565
Ac1 Er1 3.908628 1_555
Ac1 Ac2 3.977863 1_655
Ac2 Er0 3.834641 1_555
Ac2 Er0 3.834641 1_554
Ac2 Ac4 3.881544 1_565
Ac2 Ac4 3.881544 1_564
Ac2 Ac3 3.881544 1_455
Ac2 Ac3 3.881544 1_454
Ac2 Er1 3.908624 1_455
Ac2 Er1 3.908624 1_565
Ac3 Er1 3.834645 1_555
Ac3 Er1 3.834645 1_556
Ac3 Ac4 3.838973 1_555
Ac3 Ac5 3.838973 1_555
Ac3 Er0 3.908620 1_655
Ac3 Er0 3.908628 1_555
Ac3 Ac4 3.977863 1_665
Ac3 Ac5 3.977863 1_565
Ac4 Er1 3.834645 1_555
Ac4 Er1 3.834645 1_556
Ac4 Ac5 3.838973 1_555
Ac4 Er0 3.908620 1_545
Ac4 Er0 3.908628 1_555
Ac4 Ac5 3.977863 1_455
Ac5 Er1 3.834641 1_555
Ac5 Er1 3.834641 1_556
Ac5 Er0 3.908624 1_545
Ac5 Er0 3.908624 1_655
