# generated using pymatgen
data_Ba2Cu(PO4)2
_symmetry_space_group_name_H-M   'P 1'
_cell_length_a   6.63598441
_cell_length_b   6.63598441
_cell_length_c   6.91595398
_cell_angle_alpha   75.55319192
_cell_angle_beta   75.55319192
_cell_angle_gamma   45.60266346
_symmetry_Int_Tables_number   1
_chemical_formula_structural   Ba2Cu(PO4)2
_chemical_formula_sum   'Ba2 Cu1 P2 O8'
_cell_volume   209.48442845
_cell_formula_units_Z   1
loop_
 _symmetry_equiv_pos_site_id
 _symmetry_equiv_pos_as_xyz
  1  'x, y, z'
loop_
 _atom_site_type_symbol
 _atom_site_label
 _atom_site_symmetry_multiplicity
 _atom_site_fract_x
 _atom_site_fract_y
 _atom_site_fract_z
 _atom_site_occupancy
  Ba  Ba0  1  0.17358797  0.17358797  0.78484701  1
  Ba  Ba1  1  0.82641203  0.82641203  0.21515299  1
  Cu  Cu0  1  0.50000000  0.50000000  0.50000000  1
  P  P0  1  0.13273214  0.13273214  0.29861100  1
  P  P1  1  0.86726786  0.86726786  0.70138900  1
  O  O0  1  0.12244290  0.63516303  0.56313542  1
  O  O1  1  0.36483697  0.87755710  0.43686458  1
  O  O2  1  0.87755710  0.36483697  0.43686458  1
  O  O3  1  0.63516303  0.12244290  0.56313542  1
  O  O4  1  0.25428450  0.25428450  0.15946237  1
  O  O5  1  0.95314137  0.95314137  0.82293680  1
  O  O6  1  0.04685863  0.04685863  0.17706320  1
  O  O7  1  0.74571550  0.74571550  0.84053763  1
loop_
_geom_bond_atom_site_label_1
_geom_bond_atom_site_label_2
_geom_bond_distance
_geom_bond_site_symmetry_2
Ba0 O5 2.638051 1_445
Ba0 O6 2.735975 1_556
Ba0 O7 2.779325 1_455
Ba0 O7 2.779325 1_545
Ba0 O3 2.882693 1_555
Ba0 O0 2.882693 1_555
Ba0 O2 2.933948 1_455
Ba0 O1 2.933948 1_545
Ba0 O4 3.011917 1_556
Ba1 O6 2.638051 1_665
Ba1 O5 2.735975 1_554
Ba1 O4 2.779325 1_655
Ba1 O4 2.779325 1_565
Ba1 O1 2.882693 1_555
Ba1 O2 2.882693 1_555
Ba1 O0 2.933948 1_655
Ba1 O3 2.933948 1_565
Ba1 O7 3.011917 1_554
Cu0 O2 1.943597 1_555
Cu0 O1 1.943597 1_555
Cu0 O0 1.943597 1_555
Cu0 O3 1.943597 1_555
O0 P1 1.559312 1_455
O1 P0 1.559312 1_565
O2 P0 1.559312 1_655
O3 P1 1.559312 1_545
O4 P0 1.537255 1_555
O5 P1 1.512791 1_555
O6 P0 1.512791 1_555
O7 P1 1.537255 1_555
