# generated using pymatgen
data_ZnPd3
_symmetry_space_group_name_H-M   'P 1'
_cell_length_a   5.49817213
_cell_length_b   5.49817259
_cell_length_c   4.46573522
_cell_angle_alpha   90.00000000
_cell_angle_beta   90.00000000
_cell_angle_gamma   119.99999106
_symmetry_Int_Tables_number   1
_chemical_formula_structural   ZnPd3
_chemical_formula_sum   'Zn2 Pd6'
_cell_volume   116.91233670
_cell_formula_units_Z   2
loop_
 _symmetry_equiv_pos_site_id
 _symmetry_equiv_pos_as_xyz
  1  'x, y, z'
loop_
 _atom_site_type_symbol
 _atom_site_label
 _atom_site_symmetry_multiplicity
 _atom_site_fract_x
 _atom_site_fract_y
 _atom_site_fract_z
 _atom_site_occupancy
  Zn  Zn0  1  0.33333300  0.66666700  0.75000100  1
  Zn  Zn1  1  0.66666600  0.33333300  0.25000000  1
  Pd  Pd0  1  0.16833342  0.33666484  0.25000000  1
  Pd  Pd1  1  0.66333616  0.83166858  0.25000000  1
  Pd  Pd2  1  0.16833342  0.83166858  0.25000000  1
  Pd  Pd3  1  0.83166558  0.66333316  0.75000100  1
  Pd  Pd4  1  0.33666584  0.16833242  0.75000100  1
  Pd  Pd5  1  0.83166658  0.16833242  0.75000100  1
loop_
_geom_bond_atom_site_label_1
_geom_bond_atom_site_label_2
_geom_bond_distance
_geom_bond_site_symmetry_2
Pd0 Pd1 2.721613 1_555
Pd0 Pd2 2.721616 1_555
Pd0 Zn0 2.730337 1_554
Pd0 Zn0 2.730344 1_555
Pd0 Pd4 2.748717 1_554
Pd0 Pd5 2.748722 1_454
Pd0 Pd4 2.748724 1_555
Pd0 Pd5 2.748730 1_455
Pd0 Zn1 2.749124 1_555
Pd0 Zn1 2.749140 1_455
Pd0 Pd2 2.776557 1_545
Pd0 Pd1 2.776560 1_445
Pd1 Pd2 2.721610 1_555
Pd1 Zn0 2.730339 1_554
Pd1 Zn0 2.730347 1_555
Pd1 Pd5 2.748714 1_564
Pd1 Pd3 2.748717 1_554
Pd1 Pd5 2.748721 1_565
Pd1 Pd3 2.748724 1_555
Pd1 Zn1 2.749129 1_565
Pd1 Zn1 2.749135 1_555
Pd1 Pd2 2.776562 1_655
Pd2 Zn0 2.730334 1_554
Pd2 Zn0 2.730341 1_555
Pd2 Pd4 2.748714 1_564
Pd2 Pd4 2.748721 1_565
Pd2 Pd3 2.748725 1_454
Pd2 Pd3 2.748732 1_455
Pd2 Zn1 2.749124 1_565
Pd2 Zn1 2.749141 1_455
Pd3 Pd4 2.721597 1_555
Pd3 Pd5 2.721602 1_555
Pd3 Zn1 2.730331 1_556
Pd3 Zn1 2.730338 1_555
Pd3 Zn0 2.749129 1_555
Pd3 Zn0 2.749135 1_655
Pd3 Pd5 2.776570 1_565
Pd3 Pd4 2.776576 1_665
Pd4 Pd5 2.721599 1_555
Pd4 Zn1 2.730331 1_556
Pd4 Zn1 2.730338 1_555
Pd4 Zn0 2.749127 1_545
Pd4 Zn0 2.749138 1_555
Pd4 Pd5 2.776573 1_455
Pd5 Zn1 2.730334 1_556
Pd5 Zn1 2.730341 1_555
Pd5 Zn0 2.749130 1_545
Pd5 Zn0 2.749135 1_655
