# generated using pymatgen
data_Sr4Al6TeO12
_symmetry_space_group_name_H-M   'P 1'
_cell_length_a   8.20096439
_cell_length_b   8.20096439
_cell_length_c   8.20096439
_cell_angle_alpha   109.47122063
_cell_angle_beta   109.47122063
_cell_angle_gamma   109.47122063
_symmetry_Int_Tables_number   1
_chemical_formula_structural   Sr4Al6TeO12
_chemical_formula_sum   'Sr4 Al6 Te1 O12'
_cell_volume   424.59305686
_cell_formula_units_Z   1
loop_
 _symmetry_equiv_pos_site_id
 _symmetry_equiv_pos_as_xyz
  1  'x, y, z'
loop_
 _atom_site_type_symbol
 _atom_site_label
 _atom_site_symmetry_multiplicity
 _atom_site_fract_x
 _atom_site_fract_y
 _atom_site_fract_z
 _atom_site_occupancy
  Sr  Sr0  1  0.59201800  0.59201800  0.59201800  1
  Sr  Sr1  1  0.40798200  0.00000000  0.00000000  1
  Sr  Sr2  1  0.00000000  0.00000000  0.40798200  1
  Sr  Sr3  1  0.00000000  0.40798200  0.00000000  1
  Al  Al0  1  0.25000000  0.50000000  0.75000000  1
  Al  Al1  1  0.75000000  0.50000000  0.25000000  1
  Al  Al2  1  0.25000000  0.75000000  0.50000000  1
  Al  Al3  1  0.75000000  0.25000000  0.50000000  1
  Al  Al4  1  0.50000000  0.25000000  0.75000000  1
  Al  Al5  1  0.50000000  0.75000000  0.25000000  1
  Te  Te0  1  0.00000000  0.00000000  0.00000000  1
  O  O0  1  0.00000000  0.61620000  0.30551500  1
  O  O1  1  0.38380000  0.38380000  0.68931500  1
  O  O2  1  0.00000000  0.30551500  0.61620000  1
  O  O3  1  0.30551500  0.00000000  0.61620000  1
  O  O4  1  0.69448500  0.31068500  0.69448500  1
  O  O5  1  0.31068500  0.69448500  0.69448500  1
  O  O6  1  0.69448500  0.69448500  0.31068500  1
  O  O7  1  0.61620000  0.30551500  0.00000000  1
  O  O8  1  0.30551500  0.61620000  0.00000000  1
  O  O9  1  0.38380000  0.68931500  0.38380000  1
  O  O10  1  0.61620000  0.00000000  0.30551500  1
  O  O11  1  0.68931500  0.38380000  0.38380000  1
loop_
_geom_bond_atom_site_label_1
_geom_bond_atom_site_label_2
_geom_bond_distance
_geom_bond_site_symmetry_2
Sr0 Te0 3.345846 1_666
Sr1 Te0 3.345846 1_555
Sr2 Te0 3.345846 1_555
Sr3 Te0 3.345846 1_555
Al0 O2 1.762056 1_555
Al0 O5 1.762056 1_555
Al0 O8 1.762056 1_556
Al0 O1 1.762056 1_555
Al1 O0 1.762056 1_655
Al1 O7 1.762056 1_555
Al1 O11 1.762056 1_555
Al1 O6 1.762056 1_555
Al2 O0 1.762056 1_555
Al2 O9 1.762056 1_555
Al2 O5 1.762056 1_555
Al2 O3 1.762056 1_565
Al3 O10 1.762056 1_555
Al3 O2 1.762056 1_655
Al3 O11 1.762056 1_555
Al3 O4 1.762056 1_555
Al4 O3 1.762056 1_555
Al4 O7 1.762056 1_556
Al4 O4 1.762056 1_555
Al4 O1 1.762056 1_555
Al5 O9 1.762056 1_555
Al5 O8 1.762056 1_555
Al5 O6 1.762056 1_555
Al5 O10 1.762056 1_565
O0 Sr3 2.518177 1_555
O0 Sr2 2.974860 1_565
O1 Sr0 2.518177 1_555
O1 Sr2 2.974860 1_555
O2 Sr2 2.518177 1_555
O2 Sr3 2.974860 1_556
O3 Sr2 2.518177 1_555
O3 Sr1 2.974860 1_556
O4 Sr3 2.518177 1_656
O4 Sr0 2.974860 1_555
O5 Sr1 2.518177 1_566
O5 Sr0 2.974860 1_555
O6 Sr2 2.518177 1_665
O6 Sr0 2.974860 1_555
O7 Sr1 2.518177 1_555
O7 Sr3 2.974860 1_655
O8 Sr3 2.518177 1_555
O8 Sr1 2.974860 1_565
O9 Sr0 2.518177 1_555
O9 Sr3 2.974860 1_555
O10 Sr1 2.518177 1_555
O10 Sr2 2.974860 1_655
O11 Sr0 2.518177 1_555
O11 Sr1 2.974860 1_555
