# generated using pymatgen
data_V2B3
_symmetry_space_group_name_H-M   'P 1'
_cell_length_a   2.97291108
_cell_length_b   3.02552524
_cell_length_c   9.30255595
_cell_angle_alpha   99.35887370
_cell_angle_beta   90.00000000
_cell_angle_gamma   90.00000000
_symmetry_Int_Tables_number   1
_chemical_formula_structural   V2B3
_chemical_formula_sum   'V4 B6'
_cell_volume   82.55917415
_cell_formula_units_Z   2
loop_
 _symmetry_equiv_pos_site_id
 _symmetry_equiv_pos_as_xyz
  1  'x, y, z'
loop_
 _atom_site_type_symbol
 _atom_site_label
 _atom_site_symmetry_multiplicity
 _atom_site_fract_x
 _atom_site_fract_y
 _atom_site_fract_z
 _atom_site_occupancy
  V  V0  1  0.25000000  0.29477725  0.58955450  1
  V  V1  1  0.75000000  0.70522275  0.41044550  1
  V  V2  1  0.25000000  0.57067312  0.14134425  1
  V  V3  1  0.75000000  0.42932688  0.85865575  1
  B  B0  1  0.25000000  0.16892867  0.33785734  1
  B  B1  1  0.75000000  0.83107133  0.66214266  1
  B  B2  1  0.25000000  0.88230054  0.76459908  1
  B  B3  1  0.75000000  0.11769946  0.23540092  1
  B  B4  1  0.75000000  0.02364477  0.04728854  1
  B  B5  1  0.25000000  0.97635523  0.95271146  1
loop_
_geom_bond_atom_site_label_1
_geom_bond_atom_site_label_2
_geom_bond_distance
_geom_bond_site_symmetry_2
B0 B3 1.758960 1_555
B0 B3 1.758960 1_455
B0 V1 2.223041 1_445
B0 V1 2.223041 1_545
B0 V1 2.223041 1_555
B0 V1 2.223041 1_455
B0 V0 2.310261 1_555
B0 V2 2.354129 1_545
B0 V2 2.354132 1_555
B1 B2 1.758960 1_555
B1 B2 1.758960 1_655
B1 V0 2.223041 1_565
B1 V0 2.223041 1_665
B1 V0 2.223041 1_655
B1 V0 2.223041 1_555
B1 V1 2.310261 1_555
B1 V3 2.354129 1_565
B1 V3 2.354132 1_555
B2 B5 1.726633 1_555
B2 V0 2.206781 1_565
B2 V0 2.206786 1_555
B2 V3 2.289827 1_565
B2 V3 2.289827 1_465
B2 V3 2.289834 1_455
B2 V3 2.289834 1_555
B3 B4 1.726633 1_555
B3 V1 2.206781 1_545
B3 V1 2.206786 1_555
B3 V2 2.289827 1_645
B3 V2 2.289827 1_545
B3 V2 2.289834 1_655
B3 V2 2.289834 1_555
B4 B5 1.721378 1_544
B4 B5 1.721378 1_644
B4 V2 2.289826 1_545
B4 V2 2.289826 1_645
B4 V2 2.289828 1_655
B4 V2 2.289828 1_555
B4 V3 2.299177 1_554
B4 V3 2.299183 1_544
B5 V3 2.289826 1_565
B5 V3 2.289826 1_465
B5 V3 2.289828 1_455
B5 V3 2.289828 1_555
B5 V2 2.299177 1_556
B5 V2 2.299183 1_566
