# generated using pymatgen
data_Si(H3C)4
_symmetry_space_group_name_H-M   'P 1'
_cell_length_a   10.54898400
_cell_length_b   10.54898400
_cell_length_c   10.54898400
_cell_angle_alpha   90.00000000
_cell_angle_beta   90.00000000
_cell_angle_gamma   90.00000000
_symmetry_Int_Tables_number   1
_chemical_formula_structural   Si(H3C)4
_chemical_formula_sum   'Si8 H96 C32'
_cell_volume   1173.90215765
_cell_formula_units_Z   8
loop_
 _symmetry_equiv_pos_site_id
 _symmetry_equiv_pos_as_xyz
  1  'x, y, z'
loop_
 _atom_site_type_symbol
 _atom_site_label
 _atom_site_symmetry_multiplicity
 _atom_site_fract_x
 _atom_site_fract_y
 _atom_site_fract_z
 _atom_site_occupancy
  Si  Si0  1  0.13420300  0.13420300  0.13420300  1
  Si  Si1  1  0.36579700  0.86579700  0.63420300  1
  Si  Si2  1  0.63420300  0.36579700  0.86579700  1
  Si  Si3  1  0.86579700  0.63420300  0.36579700  1
  Si  Si4  1  0.86579700  0.86579700  0.86579700  1
  Si  Si5  1  0.63420300  0.13420300  0.36579700  1
  Si  Si6  1  0.36579700  0.63420300  0.13420300  1
  Si  Si7  1  0.13420300  0.36579700  0.63420300  1
  H  H0  1  0.09086000  0.96878900  0.29838900  1
  H  H1  1  0.40914000  0.03121100  0.79838900  1
  H  H2  1  0.59086000  0.53121100  0.70161100  1
  H  H3  1  0.90914000  0.46878900  0.20161100  1
  H  H4  1  0.29838900  0.09086000  0.96878900  1
  H  H5  1  0.96878900  0.29838900  0.09086000  1
  H  H6  1  0.20161100  0.90914000  0.46878900  1
  H  H7  1  0.03121100  0.79838900  0.40914000  1
  H  H8  1  0.79838900  0.40914000  0.03121100  1
  H  H9  1  0.53121100  0.70161100  0.59086000  1
  H  H10  1  0.70161100  0.59086000  0.53121100  1
  H  H11  1  0.46878900  0.20161100  0.90914000  1
  H  H12  1  0.90914000  0.03121100  0.70161100  1
  H  H13  1  0.59086000  0.96878900  0.20161100  1
  H  H14  1  0.40914000  0.46878900  0.29838900  1
  H  H15  1  0.09086000  0.53121100  0.79838900  1
  H  H16  1  0.70161100  0.90914000  0.03121100  1
  H  H17  1  0.03121100  0.70161100  0.90914000  1
  H  H18  1  0.79838900  0.09086000  0.53121100  1
  H  H19  1  0.96878900  0.20161100  0.59086000  1
  H  H20  1  0.20161100  0.59086000  0.96878900  1
  H  H21  1  0.46878900  0.29838900  0.40914000  1
  H  H22  1  0.29838900  0.40914000  0.46878900  1
  H  H23  1  0.53121100  0.79838900  0.09086000  1
  H  H24  1  0.31499400  0.28173900  0.18316600  1
  H  H25  1  0.18500600  0.71826100  0.68316600  1
  H  H26  1  0.81499400  0.21826100  0.81683400  1
  H  H27  1  0.68500600  0.78173900  0.31683400  1
  H  H28  1  0.18316600  0.31499400  0.28173900  1
  H  H29  1  0.28173900  0.18316600  0.31499400  1
  H  H30  1  0.31683400  0.68500600  0.78173900  1
  H  H31  1  0.71826100  0.68316600  0.18500600  1
  H  H32  1  0.68316600  0.18500600  0.71826100  1
  H  H33  1  0.21826100  0.81683400  0.81499400  1
  H  H34  1  0.81683400  0.81499400  0.21826100  1
  H  H35  1  0.78173900  0.31683400  0.68500600  1
  H  H36  1  0.68500600  0.71826100  0.81683400  1
  H  H37  1  0.81499400  0.28173900  0.31683400  1
  H  H38  1  0.18500600  0.78173900  0.18316600  1
  H  H39  1  0.31499400  0.21826100  0.68316600  1
  H  H40  1  0.81683400  0.68500600  0.71826100  1
  H  H41  1  0.71826100  0.81683400  0.68500600  1
  H  H42  1  0.68316600  0.31499400  0.21826100  1
  H  H43  1  0.28173900  0.31683400  0.81499400  1
  H  H44  1  0.31683400  0.81499400  0.28173900  1
  H  H45  1  0.78173900  0.18316600  0.18500600  1
  H  H46  1  0.18316600  0.18500600  0.78173900  1
  H  H47  1  0.21826100  0.68316600  0.31499400  1
  H  H48  1  0.96784400  0.96947800  0.18404600  1
  H  H49  1  0.53215600  0.03052200  0.68404600  1
  H  H50  1  0.46784400  0.53052200  0.81595400  1
  H  H51  1  0.03215600  0.46947800  0.31595400  1
  H  H52  1  0.18404600  0.96784400  0.96947800  1
  H  H53  1  0.96947800  0.18404600  0.96784400  1
  H  H54  1  0.31595400  0.03215600  0.46947800  1
  H  H55  1  0.03052200  0.68404600  0.53215600  1
  H  H56  1  0.68404600  0.53215600  0.03052200  1
  H  H57  1  0.53052200  0.81595400  0.46784400  1
  H  H58  1  0.81595400  0.46784400  0.53052200  1
  H  H59  1  0.46947800  0.31595400  0.03215600  1
  H  H60  1  0.03215600  0.03052200  0.81595400  1
  H  H61  1  0.46784400  0.96947800  0.31595400  1
  H  H62  1  0.53215600  0.46947800  0.18404600  1
  H  H63  1  0.96784400  0.53052200  0.68404600  1
  H  H64  1  0.81595400  0.03215600  0.03052200  1
  H  H65  1  0.03052200  0.81595400  0.03215600  1
  H  H66  1  0.68404600  0.96784400  0.53052200  1
  H  H67  1  0.96947800  0.31595400  0.46784400  1
  H  H68  1  0.31595400  0.46784400  0.96947800  1
  H  H69  1  0.46947800  0.18404600  0.53215600  1
  H  H70  1  0.18404600  0.53215600  0.46947800  1
  H  H71  1  0.53052200  0.68404600  0.96784400  1
  H  H72  1  0.97231800  0.08740400  0.30342700  1
  H  H73  1  0.52768200  0.91259600  0.80342700  1
  H  H74  1  0.47231800  0.41259600  0.69657300  1
  H  H75  1  0.02768200  0.58740400  0.19657300  1
  H  H76  1  0.30342700  0.97231800  0.08740400  1
  H  H77  1  0.08740400  0.30342700  0.97231800  1
  H  H78  1  0.19657300  0.02768200  0.58740400  1
  H  H79  1  0.91259600  0.80342700  0.52768200  1
  H  H80  1  0.80342700  0.52768200  0.91259600  1
  H  H81  1  0.41259600  0.69657300  0.47231800  1
  H  H82  1  0.69657300  0.47231800  0.41259600  1
  H  H83  1  0.58740400  0.19657300  0.02768200  1
  H  H84  1  0.02768200  0.91259600  0.69657300  1
  H  H85  1  0.47231800  0.08740400  0.19657300  1
  H  H86  1  0.52768200  0.58740400  0.30342700  1
  H  H87  1  0.97231800  0.41259600  0.80342700  1
  H  H88  1  0.69657300  0.02768200  0.91259600  1
  H  H89  1  0.91259600  0.69657300  0.02768200  1
  H  H90  1  0.80342700  0.97231800  0.41259600  1
  H  H91  1  0.08740400  0.19657300  0.47231800  1
  H  H92  1  0.19657300  0.47231800  0.08740400  1
  H  H93  1  0.58740400  0.30342700  0.52768200  1
  H  H94  1  0.30342700  0.52768200  0.58740400  1
  H  H95  1  0.41259600  0.80342700  0.97231800  1
  C  C0  1  0.03130000  0.03082800  0.23878500  1
  C  C1  1  0.46870000  0.96917200  0.73878500  1
  C  C2  1  0.53130000  0.46917200  0.76121500  1
  C  C3  1  0.96870000  0.53082800  0.26121500  1
  C  C4  1  0.23878500  0.03130000  0.03082800  1
  C  C5  1  0.03082800  0.23878500  0.03130000  1
  C  C6  1  0.26121500  0.96870000  0.53082800  1
  C  C7  1  0.96917200  0.73878500  0.46870000  1
  C  C8  1  0.73878500  0.46870000  0.96917200  1
  C  C9  1  0.46917200  0.76121500  0.53130000  1
  C  C10  1  0.76121500  0.53130000  0.46917200  1
  C  C11  1  0.53082800  0.26121500  0.96870000  1
  C  C12  1  0.96870000  0.96917200  0.76121500  1
  C  C13  1  0.53130000  0.03082800  0.26121500  1
  C  C14  1  0.46870000  0.53082800  0.23878500  1
  C  C15  1  0.03130000  0.46917200  0.73878500  1
  C  C16  1  0.76121500  0.96870000  0.96917200  1
  C  C17  1  0.96917200  0.76121500  0.96870000  1
  C  C18  1  0.73878500  0.03130000  0.46917200  1
  C  C19  1  0.03082800  0.26121500  0.53130000  1
  C  C20  1  0.26121500  0.53130000  0.03082800  1
  C  C21  1  0.53082800  0.23878500  0.46870000  1
  C  C22  1  0.23878500  0.46870000  0.53082800  1
  C  C23  1  0.46917200  0.73878500  0.03130000  1
  C  C24  1  0.23789000  0.23789000  0.23789000  1
  C  C25  1  0.26211000  0.76211000  0.73789000  1
  C  C26  1  0.73789000  0.26211000  0.76211000  1
  C  C27  1  0.76211000  0.73789000  0.26211000  1
  C  C28  1  0.76211000  0.76211000  0.76211000  1
  C  C29  1  0.73789000  0.23789000  0.26211000  1
  C  C30  1  0.26211000  0.73789000  0.23789000  1
  C  C31  1  0.23789000  0.26211000  0.73789000  1
loop_
_geom_bond_atom_site_label_1
_geom_bond_atom_site_label_2
_geom_bond_distance
_geom_bond_site_symmetry_2
C0 H48 1.095615 1_445
C0 H72 1.099238 1_455
C0 H0 1.103812 1_545
C0 Si0 1.893324 1_555
C1 H49 1.095615 1_565
C1 H73 1.099238 1_555
C1 H1 1.103812 1_565
C1 Si1 1.893324 1_555
C2 H50 1.095615 1_555
C2 H74 1.099238 1_555
C2 H2 1.103812 1_555
C2 Si2 1.893324 1_555
C3 H51 1.095615 1_655
C3 H75 1.099238 1_655
C3 H3 1.103812 1_555
C3 Si3 1.893324 1_555
C4 H52 1.095615 1_544
C4 H76 1.099238 1_545
C4 H4 1.103812 1_554
C4 Si0 1.893324 1_555
C5 H53 1.095615 1_454
C5 H77 1.099238 1_554
C5 H5 1.103812 1_455
C5 Si0 1.893324 1_555
C6 H54 1.095615 1_565
C6 H78 1.099238 1_565
C6 H6 1.103812 1_555
C6 Si1 1.893324 1_555
C7 H55 1.095615 1_655
C7 H79 1.099238 1_555
C7 H7 1.103812 1_655
C7 Si3 1.893324 1_555
C8 H56 1.095615 1_556
C8 H80 1.099238 1_555
C8 H8 1.103812 1_556
C8 Si2 1.893324 1_555
C9 H57 1.095615 1_555
C9 H81 1.099238 1_555
C9 H9 1.103812 1_555
C9 Si1 1.893324 1_555
C10 H58 1.095615 1_555
C10 H82 1.099238 1_555
C10 H10 1.103812 1_555
C10 Si3 1.893324 1_555
C11 H59 1.095615 1_556
C11 H83 1.099238 1_556
C11 H11 1.103812 1_555
C11 Si2 1.893324 1_555
C12 H60 1.095615 1_665
C12 H84 1.099238 1_655
C12 H12 1.103812 1_565
C12 Si4 1.893324 1_555
C13 H61 1.095615 1_545
C13 H85 1.099238 1_555
C13 H13 1.103812 1_545
C13 Si5 1.893324 1_555
C14 H62 1.095615 1_555
C14 H86 1.099238 1_555
C14 H14 1.103812 1_555
C14 Si6 1.893324 1_555
C15 H63 1.095615 1_455
C15 H87 1.099238 1_455
C15 H15 1.103812 1_555
C15 Si7 1.893324 1_555
C16 H64 1.095615 1_566
C16 H88 1.099238 1_565
C16 H16 1.103812 1_556
C16 Si4 1.893324 1_555
C17 H65 1.095615 1_656
C17 H89 1.099238 1_556
C17 H17 1.103812 1_655
C17 Si4 1.893324 1_555
C18 H66 1.095615 1_545
C18 H90 1.099238 1_545
C18 H18 1.103812 1_555
C18 Si5 1.893324 1_555
C19 H67 1.095615 1_455
C19 H91 1.099238 1_555
C19 H19 1.103812 1_455
C19 Si7 1.893324 1_555
C20 H68 1.095615 1_554
C20 H92 1.099238 1_555
C20 H20 1.103812 1_554
C20 Si6 1.893324 1_555
C21 H69 1.095615 1_555
C21 H93 1.099238 1_555
C21 H21 1.103812 1_555
C21 Si5 1.893324 1_555
C22 H70 1.095615 1_555
C22 H94 1.099238 1_555
C22 H22 1.103812 1_555
C22 Si7 1.893324 1_555
C23 H71 1.095615 1_554
C23 H95 1.099238 1_554
C23 H23 1.103812 1_555
C23 Si6 1.893324 1_555
C24 H28 1.099449 1_555
C24 H24 1.099449 1_555
C24 H29 1.099449 1_555
C24 Si0 1.894504 1_555
C25 H30 1.099449 1_555
C25 H25 1.099449 1_555
C25 H33 1.099449 1_555
C25 Si1 1.894504 1_555
C26 H35 1.099449 1_555
C26 H26 1.099449 1_555
C26 H32 1.099449 1_555
C26 Si2 1.894504 1_555
C27 H27 1.099449 1_555
C27 H34 1.099449 1_555
C27 H31 1.099449 1_555
C27 Si3 1.894504 1_555
C28 H41 1.099449 1_555
C28 H40 1.099449 1_555
C28 H36 1.099449 1_555
C28 Si4 1.894504 1_555
C29 H45 1.099449 1_555
C29 H37 1.099449 1_555
C29 H42 1.099449 1_555
C29 Si5 1.894504 1_555
C30 H38 1.099449 1_555
C30 H44 1.099449 1_555
C30 H47 1.099449 1_555
C30 Si6 1.894504 1_555
C31 H46 1.099449 1_555
C31 H43 1.099449 1_555
C31 H39 1.099449 1_555
C31 Si7 1.894504 1_555
