# generated using pymatgen
data_SmFeC2
_symmetry_space_group_name_H-M   'P 1'
_cell_length_a   3.78334524
_cell_length_b   3.77522220
_cell_length_c   3.77521444
_cell_angle_alpha   105.75523241
_cell_angle_beta   90.00000000
_cell_angle_gamma   90.00000000
_symmetry_Int_Tables_number   1
_chemical_formula_structural   SmFeC2
_chemical_formula_sum   'Sm1 Fe1 C2'
_cell_volume   51.89547245
_cell_formula_units_Z   1
loop_
 _symmetry_equiv_pos_site_id
 _symmetry_equiv_pos_as_xyz
  1  'x, y, z'
loop_
 _atom_site_type_symbol
 _atom_site_label
 _atom_site_symmetry_multiplicity
 _atom_site_fract_x
 _atom_site_fract_y
 _atom_site_fract_z
 _atom_site_occupancy
  Sm  Sm0  1  -0.00000000  0.99166924  0.00833176  1
  Fe  Fe0  1  0.50000000  0.39187833  0.60811867  1
  C  C0  1  0.50000000  0.85471485  0.45326642  1
  C  C1  1  0.50000000  0.54673558  0.14528415  1
loop_
_geom_bond_atom_site_label_1
_geom_bond_atom_site_label_2
_geom_bond_distance
_geom_bond_site_symmetry_2
C0 C1 1.403418 1_555
C0 Fe0 1.952019 1_565
C0 Fe0 1.987353 1_555
C0 Sm0 2.671863 1_555
C0 Sm0 2.671863 1_655
C0 Sm0 2.765585 1_556
C0 Sm0 2.765585 1_656
C1 Fe0 1.952023 1_554
C1 Fe0 1.987353 1_555
C1 Sm0 2.671859 1_555
C1 Sm0 2.671859 1_655
C1 Sm0 2.765591 1_545
C1 Sm0 2.765591 1_645
