# generated using pymatgen
data_Na3Rh
_symmetry_space_group_name_H-M   'P 1'
_cell_length_a   6.35847535
_cell_length_b   6.35847535
_cell_length_c   5.21392900
_cell_angle_alpha   90.00000000
_cell_angle_beta   90.00000000
_cell_angle_gamma   119.99999328
_symmetry_Int_Tables_number   1
_chemical_formula_structural   Na3Rh
_chemical_formula_sum   'Na6 Rh2'
_cell_volume   182.55837386
_cell_formula_units_Z   2
loop_
 _symmetry_equiv_pos_site_id
 _symmetry_equiv_pos_as_xyz
  1  'x, y, z'
loop_
 _atom_site_type_symbol
 _atom_site_label
 _atom_site_symmetry_multiplicity
 _atom_site_fract_x
 _atom_site_fract_y
 _atom_site_fract_z
 _atom_site_occupancy
  Na  Na0  1  0.17746900  0.35493800  0.25000000  1
  Na  Na1  1  0.64506200  0.82253100  0.25000000  1
  Na  Na2  1  0.17746900  0.82253100  0.25000000  1
  Na  Na3  1  0.82253100  0.64506200  0.75000000  1
  Na  Na4  1  0.35493800  0.17746900  0.75000000  1
  Na  Na5  1  0.82253100  0.17746900  0.75000000  1
  Rh  Rh0  1  0.33333300  0.66666700  0.75000000  1
  Rh  Rh1  1  0.66666700  0.33333300  0.25000000  1
loop_
_geom_bond_atom_site_label_1
_geom_bond_atom_site_label_2
_geom_bond_distance
_geom_bond_site_symmetry_2
Na0 Na2 2.973179 1_555
Na0 Na1 2.973179 1_555
Na0 Rh0 3.121357 1_554
Na0 Rh0 3.121357 1_555
Na0 Rh1 3.181460 1_455
Na0 Rh1 3.181466 1_555
Na0 Na4 3.258273 1_555
Na0 Na4 3.258273 1_554
Na0 Na5 3.258273 1_455
Na0 Na5 3.258273 1_454
Na0 Na2 3.385297 1_545
Na0 Na1 3.385297 1_445
Na1 Na2 2.973179 1_555
Na1 Rh0 3.121357 1_554
Na1 Rh0 3.121357 1_555
Na1 Rh1 3.181460 1_565
Na1 Rh1 3.181466 1_555
Na1 Na3 3.258273 1_554
Na1 Na3 3.258273 1_555
Na1 Na5 3.258273 1_564
Na1 Na5 3.258273 1_565
Na1 Na2 3.385297 1_655
Na2 Rh0 3.121354 1_555
Na2 Rh0 3.121354 1_554
Na2 Rh1 3.181463 1_455
Na2 Rh1 3.181463 1_565
Na2 Na4 3.258273 1_564
Na2 Na4 3.258273 1_565
Na2 Na3 3.258273 1_455
Na2 Na3 3.258273 1_454
Na3 Na5 2.973179 1_555
Na3 Na4 2.973179 1_555
Na3 Rh1 3.121357 1_555
Na3 Rh1 3.121357 1_556
Na3 Rh0 3.181460 1_655
Na3 Rh0 3.181466 1_555
Na3 Na5 3.385297 1_565
Na3 Na4 3.385297 1_665
Na4 Na5 2.973179 1_555
Na4 Rh1 3.121357 1_555
Na4 Rh1 3.121357 1_556
Na4 Rh0 3.181460 1_545
Na4 Rh0 3.181466 1_555
Na4 Na5 3.385297 1_455
Na5 Rh1 3.121354 1_555
Na5 Rh1 3.121354 1_556
Na5 Rh0 3.181463 1_545
Na5 Rh0 3.181463 1_655
