# generated using pymatgen
data_LaOsN3
_symmetry_space_group_name_H-M   'P 1'
_cell_length_a   5.57031831
_cell_length_b   5.57031831
_cell_length_c   5.57031855
_cell_angle_alpha   60.29869774
_cell_angle_beta   60.29869774
_cell_angle_gamma   60.29869398
_symmetry_Int_Tables_number   1
_chemical_formula_structural   LaOsN3
_chemical_formula_sum   'La2 Os2 N6'
_cell_volume   123.04124639
_cell_formula_units_Z   2
loop_
 _symmetry_equiv_pos_site_id
 _symmetry_equiv_pos_as_xyz
  1  'x, y, z'
loop_
 _atom_site_type_symbol
 _atom_site_label
 _atom_site_symmetry_multiplicity
 _atom_site_fract_x
 _atom_site_fract_y
 _atom_site_fract_z
 _atom_site_occupancy
  La  La0  1  0.25000000  0.25000000  0.25000000  1
  La  La1  1  0.75000000  0.75000000  0.75000000  1
  Os  Os0  1  0.00000000  0.00000000  0.00000000  1
  Os  Os1  1  0.50000000  0.50000000  0.50000000  1
  N  N0  1  0.70607200  0.79392800  0.25000000  1
  N  N1  1  0.79392800  0.25000000  0.70607200  1
  N  N2  1  0.29392800  0.20607200  0.75000000  1
  N  N3  1  0.25000000  0.70607200  0.79392800  1
  N  N4  1  0.75000000  0.29392800  0.20607200  1
  N  N5  1  0.20607200  0.75000000  0.29392800  1
loop_
_geom_bond_atom_site_label_1
_geom_bond_atom_site_label_2
_geom_bond_distance
_geom_bond_site_symmetry_2
La0 N0 2.551927 1_545
La0 N1 2.551927 1_455
La0 N3 2.551927 1_554
La0 N4 2.795984 1_455
La0 N5 2.795984 1_555
La0 N5 2.795984 1_545
La0 N4 2.795984 1_555
La0 N2 2.795984 1_555
La0 N2 2.795984 1_554
La0 N0 3.043521 1_455
La0 N1 3.043521 1_554
La0 N3 3.043521 1_545
La1 N2 2.551927 1_565
La1 N4 2.551927 1_556
La1 N5 2.551927 1_655
La1 N3 2.795984 1_655
La1 N1 2.795984 1_555
La1 N3 2.795984 1_555
La1 N1 2.795984 1_565
La1 N0 2.795984 1_555
La1 N0 2.795984 1_556
La1 N2 3.043521 1_655
La1 N4 3.043521 1_565
La1 N5 3.043521 1_556
N0 Os1 1.989098 1_555
N0 Os0 1.989098 1_665
N1 Os1 1.989098 1_555
N1 Os0 1.989098 1_656
N2 Os1 1.989098 1_555
N2 Os0 1.989098 1_556
N3 Os0 1.989098 1_566
N3 Os1 1.989098 1_555
N4 Os0 1.989098 1_655
N4 Os1 1.989098 1_555
N5 Os1 1.989098 1_555
N5 Os0 1.989098 1_565
