# generated using pymatgen
data_Ba2BiSbO6
_symmetry_space_group_name_H-M   'P 1'
_cell_length_a   5.65197300
_cell_length_b   5.69868521
_cell_length_c   7.47859276
_cell_angle_alpha   111.07578592
_cell_angle_beta   92.17620356
_cell_angle_gamma   111.94988815
_symmetry_Int_Tables_number   1
_chemical_formula_structural   Ba2BiSbO6
_chemical_formula_sum   'Ba2 Bi1 Sb1 O6'
_cell_volume   204.29298797
_cell_formula_units_Z   1
loop_
 _symmetry_equiv_pos_site_id
 _symmetry_equiv_pos_as_xyz
  1  'x, y, z'
loop_
 _atom_site_type_symbol
 _atom_site_label
 _atom_site_symmetry_multiplicity
 _atom_site_fract_x
 _atom_site_fract_y
 _atom_site_fract_z
 _atom_site_occupancy
  Ba  Ba0  1  0.35369800  0.99886500  0.64675100  1
  Ba  Ba1  1  0.64630200  0.00113500  0.35324900  1
  Bi  Bi0  1  0.00000000  0.00000000  0.00000000  1
  Sb  Sb0  1  0.00000000  0.50000000  0.00000000  1
  O  O0  1  0.35298900  0.58335800  0.27047600  1
  O  O1  1  0.23099100  0.24669200  0.31155600  1
  O  O2  1  0.53385700  0.39580300  0.99404100  1
  O  O3  1  0.64701100  0.41664200  0.72952400  1
  O  O4  1  0.76900900  0.75330800  0.68844400  1
  O  O5  1  0.46614300  0.60419700  0.00595900  1
loop_
_geom_bond_atom_site_label_1
_geom_bond_atom_site_label_2
_geom_bond_distance
_geom_bond_site_symmetry_2
Ba0 O3 2.170505 1_565
Ba0 O2 2.598292 1_565
Ba0 O4 3.148178 1_455
Ba0 O4 3.206121 1_555
Ba0 O1 3.450500 1_565
Ba1 O0 2.170505 1_545
Ba1 O5 2.598292 1_545
Ba1 O1 3.148178 1_655
Ba1 O1 3.206121 1_555
Ba1 O4 3.450500 1_545
Bi0 O1 2.269532 1_555
Bi0 O4 2.269532 1_444
O0 O1 1.923979 1_555
O0 Sb0 2.567408 1_555
O2 O5 1.353141 1_556
O2 Sb0 2.469483 1_656
O3 O4 1.923979 1_555
O3 Sb0 2.567408 1_656
O5 Sb0 2.469483 1_555
