# generated using pymatgen
data_Sr2YCu3O7
_symmetry_space_group_name_H-M   'P 1'
_cell_length_a   3.73095000
_cell_length_b   3.89694700
_cell_length_c   11.54373300
_cell_angle_alpha   90.00000000
_cell_angle_beta   90.00000000
_cell_angle_gamma   90.00000000
_symmetry_Int_Tables_number   1
_chemical_formula_structural   Sr2YCu3O7
_chemical_formula_sum   'Sr2 Y1 Cu3 O7'
_cell_volume   167.83796355
_cell_formula_units_Z   1
loop_
 _symmetry_equiv_pos_site_id
 _symmetry_equiv_pos_as_xyz
  1  'x, y, z'
loop_
 _atom_site_type_symbol
 _atom_site_label
 _atom_site_symmetry_multiplicity
 _atom_site_fract_x
 _atom_site_fract_y
 _atom_site_fract_z
 _atom_site_occupancy
  Sr  Sr0  1  0.50000000  0.00000000  0.82128400  1
  Sr  Sr1  1  0.50000000  0.00000000  0.17871600  1
  Y  Y0  1  0.50000000  0.00000000  0.50000000  1
  Cu  Cu0  1  0.00000000  0.50000000  0.00000000  1
  Cu  Cu1  1  0.00000000  0.50000000  0.65282300  1
  Cu  Cu2  1  0.00000000  0.50000000  0.34717700  1
  O  O0  1  0.50000000  0.50000000  0.62260700  1
  O  O1  1  0.50000000  0.50000000  0.37739300  1
  O  O2  1  0.00000000  0.50000000  0.83745600  1
  O  O3  1  0.00000000  0.50000000  0.16254400  1
  O  O4  1  0.00000000  0.00000000  0.00000000  1
  O  O5  1  0.00000000  0.00000000  0.62853300  1
  O  O6  1  0.00000000  0.00000000  0.37146700  1
loop_
_geom_bond_atom_site_label_1
_geom_bond_atom_site_label_2
_geom_bond_distance
_geom_bond_site_symmetry_2
Cu0 O3 1.876365 1_555
Cu0 O2 1.876365 1_554
Cu0 O4 1.948473 1_565
Cu0 O4 1.948473 1_555
Cu1 O0 1.897805 1_455
Cu1 O0 1.897805 1_555
Cu1 O5 1.968546 1_555
Cu1 O5 1.968546 1_565
Cu1 O2 2.131354 1_555
Cu2 O1 1.897805 1_455
Cu2 O1 1.897805 1_555
Cu2 O6 1.968546 1_565
Cu2 O6 1.968546 1_555
Cu2 O3 2.131354 1_555
O0 Y0 2.408266 1_565
O0 Y0 2.408266 1_555
O0 Sr0 3.009414 1_565
O0 Sr0 3.009414 1_555
O1 Y0 2.408266 1_565
O1 Y0 2.408266 1_555
O1 Sr1 3.009414 1_555
O1 Sr1 3.009414 1_565
O2 Sr0 2.703960 1_455
O2 Sr0 2.703960 1_465
O2 Sr0 2.703960 1_555
O2 Sr0 2.703960 1_565
O3 Sr1 2.703960 1_465
O3 Sr1 2.703960 1_455
O3 Sr1 2.703960 1_565
O3 Sr1 2.703960 1_555
O4 Sr1 2.781397 1_555
O4 Sr1 2.781397 1_455
O4 Sr0 2.781397 1_454
O4 Sr0 2.781397 1_554
O5 Y0 2.383592 1_455
O5 Y0 2.383592 1_555
O5 Sr0 2.903604 1_455
O5 Sr0 2.903604 1_555
O6 Y0 2.383592 1_455
O6 Y0 2.383592 1_555
O6 Sr1 2.903604 1_455
O6 Sr1 2.903604 1_555
