# generated using pymatgen
data_Na2NbF6
_symmetry_space_group_name_H-M   'P 1'
_cell_length_a   4.98869204
_cell_length_b   4.98869204
_cell_length_c   10.25945705
_cell_angle_alpha   90.00000000
_cell_angle_beta   90.00000000
_cell_angle_gamma   90.00784595
_symmetry_Int_Tables_number   1
_chemical_formula_structural   Na2NbF6
_chemical_formula_sum   'Na4 Nb2 F12'
_cell_volume   255.32760061
_cell_formula_units_Z   2
loop_
 _symmetry_equiv_pos_site_id
 _symmetry_equiv_pos_as_xyz
  1  'x, y, z'
loop_
 _atom_site_type_symbol
 _atom_site_label
 _atom_site_symmetry_multiplicity
 _atom_site_fract_x
 _atom_site_fract_y
 _atom_site_fract_z
 _atom_site_occupancy
  Na  Na0  1  -0.00000000  0.00000000  0.33250045  1
  Na  Na1  1  0.50000000  0.50000000  0.83274539  1
  Na  Na2  1  -0.00000000  0.00000000  0.66749955  1
  Na  Na3  1  0.50000000  0.50000000  0.16725461  1
  Nb  Nb0  1  -0.00000000  0.00000000  0.00000000  1
  Nb  Nb1  1  0.50000000  0.50000000  0.50000000  1
  F  F0  1  0.68756136  0.68756136  0.65017222  1
  F  F1  1  0.31243864  0.31243864  0.65017222  1
  F  F2  1  0.68756136  0.68756136  0.34982778  1
  F  F3  1  0.18770144  0.81229856  0.15003443  1
  F  F4  1  0.81229856  0.18770144  0.15003443  1
  F  F5  1  0.81229856  0.18770144  0.84996557  1
  F  F6  1  0.27874162  0.27874162  0.00000000  1
  F  F7  1  0.22136582  0.77863418  0.50000000  1
  F  F8  1  0.77863418  0.22136582  0.50000000  1
  F  F9  1  0.72125838  0.72125838  0.00000000  1
  F  F10  1  0.31243864  0.31243864  0.34982778  1
  F  F11  1  0.18770144  0.81229856  0.84996557  1
loop_
_geom_bond_atom_site_label_1
_geom_bond_atom_site_label_2
_geom_bond_distance
_geom_bond_site_symmetry_2
F0 Nb1 2.030884 1_555
F0 Na2 2.211285 1_665
F0 Na1 2.293313 1_555
F1 Nb1 2.030884 1_555
F1 Na2 2.211285 1_555
F1 Na1 2.293313 1_555
F2 Nb1 2.030884 1_555
F2 Na0 2.211285 1_665
F2 Na3 2.293313 1_555
F3 Nb0 2.030574 1_565
F3 Na3 2.210512 1_555
F3 Na0 2.293091 1_565
F4 Nb0 2.030574 1_655
F4 Na3 2.210512 1_555
F4 Na0 2.293091 1_655
F5 Nb0 2.030574 1_656
F5 Na1 2.210512 1_555
F5 Na2 2.293091 1_655
F6 Nb0 1.966409 1_555
F6 Na1 2.319661 1_554
F6 Na3 2.319661 1_555
F7 Nb1 1.965920 1_555
F7 Na0 2.322174 1_565
F7 Na2 2.322174 1_565
F8 Nb1 1.965920 1_555
F8 Na0 2.322174 1_655
F8 Na2 2.322174 1_655
F9 Nb0 1.966409 1_665
F9 Na1 2.319661 1_554
F9 Na3 2.319661 1_555
F10 Nb1 2.030884 1_555
F10 Na0 2.211285 1_555
F10 Na3 2.293313 1_555
F11 Nb0 2.030574 1_566
F11 Na1 2.210512 1_555
F11 Na2 2.293091 1_565
