# generated using pymatgen
data_Yb2Co2O5
_symmetry_space_group_name_H-M   'P 1'
_cell_length_a   3.68628517
_cell_length_b   3.68628517
_cell_length_c   6.56307264
_cell_angle_alpha   90.00000000
_cell_angle_beta   90.00000000
_cell_angle_gamma   90.00000000
_symmetry_Int_Tables_number   1
_chemical_formula_structural   Yb2Co2O5
_chemical_formula_sum   'Yb2 Co2 O5'
_cell_volume   89.18361428
_cell_formula_units_Z   1
loop_
 _symmetry_equiv_pos_site_id
 _symmetry_equiv_pos_as_xyz
  1  'x, y, z'
loop_
 _atom_site_type_symbol
 _atom_site_label
 _atom_site_symmetry_multiplicity
 _atom_site_fract_x
 _atom_site_fract_y
 _atom_site_fract_z
 _atom_site_occupancy
  Yb  Yb0  1  0.50000000  0.50000000  0.00000000  1
  Yb  Yb1  1  0.50000000  0.50000000  0.50000000  1
  Co  Co0  1  0.00000000  0.00000000  0.19236732  1
  Co  Co1  1  0.00000000  0.00000000  0.80763268  1
  O  O0  1  0.00000000  0.50000000  0.22566882  1
  O  O1  1  0.00000000  0.50000000  0.77433118  1
  O  O2  1  0.50000000  0.00000000  0.22566882  1
  O  O3  1  0.50000000  0.00000000  0.77433118  1
  O  O4  1  0.00000000  0.00000000  0.50000000  1
loop_
_geom_bond_atom_site_label_1
_geom_bond_atom_site_label_2
_geom_bond_distance
_geom_bond_site_symmetry_2
Co0 O2 1.856056 1_555
Co0 O2 1.856056 1_455
Co0 O0 1.856056 1_545
Co0 O0 1.856056 1_555
Co0 O4 2.019016 1_555
Co1 O1 1.856056 1_555
Co1 O3 1.856056 1_455
Co1 O3 1.856056 1_555
Co1 O1 1.856056 1_545
Co1 O4 2.019016 1_555
O0 Yb0 2.364482 1_455
O0 Yb0 2.364482 1_555
O0 Yb1 2.576590 1_455
O0 Yb1 2.576590 1_555
O1 Yb0 2.364482 1_456
O1 Yb0 2.364482 1_556
O1 Yb1 2.576590 1_455
O1 Yb1 2.576590 1_555
O2 Yb0 2.364482 1_545
O2 Yb0 2.364482 1_555
O2 Yb1 2.576590 1_545
O2 Yb1 2.576590 1_555
O3 Yb0 2.364482 1_546
O3 Yb0 2.364482 1_556
O3 Yb1 2.576590 1_545
O3 Yb1 2.576590 1_555
O4 Yb1 2.606597 1_455
O4 Yb1 2.606597 1_445
O4 Yb1 2.606597 1_545
O4 Yb1 2.606597 1_555
