# generated using pymatgen
data_Hg3Sb
_symmetry_space_group_name_H-M   'P 1'
_cell_length_a   6.47914957
_cell_length_b   6.47914957
_cell_length_c   5.77856100
_cell_angle_alpha   90.00000000
_cell_angle_beta   90.00000000
_cell_angle_gamma   119.99999562
_symmetry_Int_Tables_number   1
_chemical_formula_structural   Hg3Sb
_chemical_formula_sum   'Hg6 Sb2'
_cell_volume   210.08080095
_cell_formula_units_Z   2
loop_
 _symmetry_equiv_pos_site_id
 _symmetry_equiv_pos_as_xyz
  1  'x, y, z'
loop_
 _atom_site_type_symbol
 _atom_site_label
 _atom_site_symmetry_multiplicity
 _atom_site_fract_x
 _atom_site_fract_y
 _atom_site_fract_z
 _atom_site_occupancy
  Hg  Hg0  1  0.16772700  0.33545400  0.25000000  1
  Hg  Hg1  1  0.66454600  0.83227300  0.25000000  1
  Hg  Hg2  1  0.16772700  0.83227300  0.25000000  1
  Hg  Hg3  1  0.83227300  0.66454600  0.75000000  1
  Hg  Hg4  1  0.33545400  0.16772700  0.75000000  1
  Hg  Hg5  1  0.83227300  0.16772700  0.75000000  1
  Sb  Sb0  1  0.33333300  0.66666700  0.75000000  1
  Sb  Sb1  1  0.66666700  0.33333300  0.25000000  1
loop_
_geom_bond_atom_site_label_1
_geom_bond_atom_site_label_2
_geom_bond_distance
_geom_bond_site_symmetry_2
Hg0 Hg2 3.218965 1_555
Hg0 Hg1 3.218965 1_555
Hg0 Sb1 3.239593 1_455
Hg0 Sb1 3.239600 1_555
Hg0 Hg2 3.260185 1_545
Hg0 Hg1 3.260185 1_445
Hg0 Sb0 3.435384 1_554
Hg0 Sb0 3.435384 1_555
Hg1 Hg2 3.218965 1_555
Hg1 Sb1 3.239593 1_565
Hg1 Sb1 3.239600 1_555
Hg1 Hg2 3.260185 1_655
Hg1 Sb0 3.435384 1_554
Hg1 Sb0 3.435384 1_555
Hg2 Sb1 3.239597 1_455
Hg2 Sb1 3.239597 1_565
Hg2 Sb0 3.435380 1_554
Hg2 Sb0 3.435380 1_555
Hg3 Hg5 3.218965 1_555
Hg3 Hg4 3.218965 1_555
Hg3 Sb0 3.239593 1_655
Hg3 Sb0 3.239600 1_555
Hg3 Hg5 3.260185 1_565
Hg3 Hg4 3.260185 1_665
Hg3 Sb1 3.435384 1_556
Hg3 Sb1 3.435384 1_555
Hg4 Hg5 3.218965 1_555
Hg4 Sb0 3.239593 1_545
Hg4 Sb0 3.239600 1_555
Hg4 Hg5 3.260185 1_455
Hg4 Sb1 3.435384 1_556
Hg4 Sb1 3.435384 1_555
Hg5 Sb0 3.239597 1_545
Hg5 Sb0 3.239597 1_655
Hg5 Sb1 3.435380 1_556
Hg5 Sb1 3.435380 1_555
