# generated using pymatgen
data_BSb
_symmetry_space_group_name_H-M   'P 1'
_cell_length_a   3.73521520
_cell_length_b   3.73521520
_cell_length_c   3.73521520
_cell_angle_alpha   60.00000000
_cell_angle_beta   60.00000000
_cell_angle_gamma   60.00000000
_symmetry_Int_Tables_number   1
_chemical_formula_structural   BSb
_chemical_formula_sum   'B1 Sb1'
_cell_volume   36.84952451
_cell_formula_units_Z   1
loop_
 _symmetry_equiv_pos_site_id
 _symmetry_equiv_pos_as_xyz
  1  'x, y, z'
loop_
 _atom_site_type_symbol
 _atom_site_label
 _atom_site_symmetry_multiplicity
 _atom_site_fract_x
 _atom_site_fract_y
 _atom_site_fract_z
 _atom_site_occupancy
  B  B0  1  0.00000000  0.00000000  0.00000000  1
  Sb  Sb0  1  0.25000000  0.25000000  0.25000000  1
loop_
_geom_bond_atom_site_label_1
_geom_bond_atom_site_label_2
_geom_bond_distance
_geom_bond_site_symmetry_2
B0 Sb0 2.287343 1_554
B0 Sb0 2.287343 1_555
B0 Sb0 2.287343 1_545
B0 Sb0 2.287343 1_455
