# generated using pymatgen
data_SrAcTl2
_symmetry_space_group_name_H-M   'P 1'
_cell_length_a   5.79628671
_cell_length_b   5.79628671
_cell_length_c   5.79628671
_cell_angle_alpha   60.00000000
_cell_angle_beta   60.00000000
_cell_angle_gamma   60.00000000
_symmetry_Int_Tables_number   1
_chemical_formula_structural   SrAcTl2
_chemical_formula_sum   'Sr1 Ac1 Tl2'
_cell_volume   137.70020318
_cell_formula_units_Z   1
loop_
 _symmetry_equiv_pos_site_id
 _symmetry_equiv_pos_as_xyz
  1  'x, y, z'
loop_
 _atom_site_type_symbol
 _atom_site_label
 _atom_site_symmetry_multiplicity
 _atom_site_fract_x
 _atom_site_fract_y
 _atom_site_fract_z
 _atom_site_occupancy
  Sr  Sr0  1  0.75000000  0.75000000  0.75000000  1
  Ac  Ac0  1  0.25000000  0.25000000  0.25000000  1
  Tl  Tl0  1  -0.00000000  0.00000000  0.00000000  1
  Tl  Tl1  1  0.50000000  0.50000000  0.50000000  1
loop_
_geom_bond_atom_site_label_1
_geom_bond_atom_site_label_2
_geom_bond_distance
_geom_bond_site_symmetry_2
Sr0 Tl0 3.549486 1_566
Sr0 Tl1 3.549486 1_655
Sr0 Tl0 3.549486 1_665
Sr0 Tl0 3.549486 1_656
Sr0 Tl1 3.549486 1_555
Sr0 Tl1 3.549486 1_556
Sr0 Tl1 3.549486 1_565
Sr0 Tl0 3.549486 1_666
Ac0 Tl1 3.549486 1_455
Ac0 Tl0 3.549486 1_655
Ac0 Tl0 3.549486 1_555
Ac0 Tl1 3.549486 1_555
Ac0 Tl0 3.549486 1_565
Ac0 Tl1 3.549486 1_545
Ac0 Tl1 3.549486 1_554
Ac0 Tl0 3.549486 1_556
