# generated using pymatgen
data_SmEr3
_symmetry_space_group_name_H-M   'P 1'
_cell_length_a   7.24516609
_cell_length_b   7.24516054
_cell_length_c   5.58539671
_cell_angle_alpha   90.00000000
_cell_angle_beta   90.00000000
_cell_angle_gamma   120.00009869
_symmetry_Int_Tables_number   1
_chemical_formula_structural   SmEr3
_chemical_formula_sum   'Sm2 Er6'
_cell_volume   253.91045483
_cell_formula_units_Z   2
loop_
 _symmetry_equiv_pos_site_id
 _symmetry_equiv_pos_as_xyz
  1  'x, y, z'
loop_
 _atom_site_type_symbol
 _atom_site_label
 _atom_site_symmetry_multiplicity
 _atom_site_fract_x
 _atom_site_fract_y
 _atom_site_fract_z
 _atom_site_occupancy
  Sm  Sm0  1  0.33333364  0.66665874  0.74999900  1
  Sm  Sm1  1  0.66666605  0.33332445  0.25000000  1
  Er  Er0  1  0.16481472  0.32963513  0.25000000  1
  Er  Er1  1  0.67036416  0.83518826  0.25000000  1
  Er  Er2  1  0.16482430  0.83518445  0.25000000  1
  Er  Er3  1  0.83517069  0.67035030  0.74999900  1
  Er  Er4  1  0.32964831  0.16483294  0.74999900  1
  Er  Er5  1  0.83517913  0.16482772  0.74999900  1
loop_
_geom_bond_atom_site_label_1
_geom_bond_atom_site_label_2
_geom_bond_distance
_geom_bond_site_symmetry_2
Er0 Er5 3.475195 1_455
Er0 Er4 3.475197 1_555
Er0 Er5 3.475204 1_454
Er0 Er4 3.475206 1_554
Er0 Sm0 3.502981 1_555
Er0 Sm0 3.502990 1_554
Er0 Er1 3.582356 1_445
Er0 Er2 3.582409 1_545
Er0 Sm1 3.622609 1_455
Er0 Sm1 3.622705 1_555
Er0 Er2 3.662751 1_555
Er0 Er1 3.662796 1_555
Er1 Er5 3.475209 1_565
Er1 Er5 3.475217 1_564
Er1 Er3 3.475230 1_555
Er1 Er3 3.475239 1_554
Er1 Sm0 3.503009 1_555
Er1 Sm0 3.503017 1_554
Er1 Er2 3.582460 1_655
Er1 Sm1 3.622548 1_565
Er1 Sm1 3.622761 1_555
Er1 Er2 3.662706 1_555
Er2 Er4 3.475242 1_565
Er2 Er4 3.475251 1_564
Er2 Er3 3.475262 1_455
Er2 Er3 3.475271 1_454
Er2 Sm0 3.503027 1_555
Er2 Sm0 3.503036 1_554
Er2 Sm1 3.622585 1_565
Er2 Sm1 3.622717 1_455
Er3 Sm1 3.502990 1_555
Er3 Sm1 3.502999 1_556
Er3 Er5 3.582538 1_565
Er3 Er4 3.582584 1_665
Er3 Sm0 3.622594 1_555
Er3 Sm0 3.622720 1_655
Er3 Er4 3.662569 1_555
Er3 Er5 3.662623 1_555
Er4 Sm1 3.502960 1_555
Er4 Sm1 3.502969 1_556
Er4 Er5 3.582492 1_455
Er4 Sm0 3.622532 1_555
Er4 Sm0 3.622776 1_545
Er4 Er5 3.662674 1_555
Er5 Sm1 3.502931 1_555
Er5 Sm1 3.502940 1_556
Er5 Sm0 3.622597 1_655
Er5 Sm0 3.622702 1_545
