# generated using pymatgen
data_AlFe
_symmetry_space_group_name_H-M   'P 1'
_cell_length_a   5.30034352
_cell_length_b   5.30034352
_cell_length_c   9.80082800
_cell_angle_alpha   90.00000000
_cell_angle_beta   90.00000000
_cell_angle_gamma   119.99999402
_symmetry_Int_Tables_number   1
_chemical_formula_structural   AlFe
_chemical_formula_sum   'Al8 Fe8'
_cell_volume   238.45226975
_cell_formula_units_Z   8
loop_
 _symmetry_equiv_pos_site_id
 _symmetry_equiv_pos_as_xyz
  1  'x, y, z'
loop_
 _atom_site_type_symbol
 _atom_site_label
 _atom_site_symmetry_multiplicity
 _atom_site_fract_x
 _atom_site_fract_y
 _atom_site_fract_z
 _atom_site_occupancy
  Al  Al0_0  1  0.00000000  0.00000000  0.25000000  1
  Al  Al0_1  1  0.00000000  0.00000000  0.75000000  1
  Al  Al0_2  1  0.00000000  0.50000000  0.25000000  1
  Al  Al0_3  1  0.00000000  0.50000000  0.75000000  1
  Al  Al0_4  1  0.50000000  0.00000000  0.25000000  1
  Al  Al0_5  1  0.50000000  0.00000000  0.75000000  1
  Al  Al0_6  1  0.50000000  0.50000000  0.25000000  1
  Al  Al0_7  1  0.50000000  0.50000000  0.75000000  1
  Fe  Fe0_0  1  0.00000000  0.00000000  0.00000000  1
  Fe  Fe0_1  1  0.00000000  0.00000000  0.50000000  1
  Fe  Fe0_2  1  0.00000000  0.50000000  0.00000000  1
  Fe  Fe0_3  1  0.00000000  0.50000000  0.50000000  1
  Fe  Fe0_4  1  0.50000000  0.00000000  0.00000000  1
  Fe  Fe0_5  1  0.50000000  0.00000000  0.50000000  1
  Fe  Fe0_6  1  0.50000000  0.50000000  0.00000000  1
  Fe  Fe0_7  1  0.50000000  0.50000000  0.50000000  1
loop_
_geom_bond_atom_site_label_1
_geom_bond_atom_site_label_2
_geom_bond_distance
_geom_bond_site_symmetry_2
Al0_0 Fe0_0 2.450207 1_555
Al0_0 Fe0_1 2.450207 1_555
Al0_0 Al0_2 2.650172 1_555
Al0_0 Al0_2 2.650172 1_545
Al0_0 Al0_4 2.650172 1_455
Al0_0 Al0_4 2.650172 1_555
Al0_0 Al0_6 2.650172 1_445
Al0_0 Al0_6 2.650172 1_555
Al0_1 Fe0_0 2.450207 1_556
Al0_1 Fe0_1 2.450207 1_555
Al0_1 Al0_5 2.650172 1_455
Al0_1 Al0_5 2.650172 1_555
Al0_1 Al0_3 2.650172 1_545
Al0_1 Al0_3 2.650172 1_555
Al0_1 Al0_7 2.650172 1_445
Al0_1 Al0_7 2.650172 1_555
Al0_2 Fe0_3 2.450207 1_555
Al0_2 Fe0_2 2.450207 1_555
Al0_2 Al0_6 2.650172 1_455
Al0_2 Al0_6 2.650172 1_555
Al0_2 Al0_4 2.650172 1_565
Al0_2 Al0_4 2.650172 1_455
Al0_3 Fe0_3 2.450207 1_555
Al0_3 Fe0_2 2.450207 1_556
Al0_3 Al0_7 2.650172 1_455
Al0_3 Al0_7 2.650172 1_555
Al0_3 Al0_5 2.650172 1_455
Al0_3 Al0_5 2.650172 1_565
Al0_4 Fe0_4 2.450207 1_555
Al0_4 Fe0_5 2.450207 1_555
Al0_4 Al0_6 2.650172 1_545
Al0_4 Al0_6 2.650172 1_555
Al0_5 Fe0_4 2.450207 1_556
Al0_5 Fe0_5 2.450207 1_555
Al0_5 Al0_7 2.650172 1_545
Al0_5 Al0_7 2.650172 1_555
Al0_6 Fe0_6 2.450207 1_555
Al0_6 Fe0_7 2.450207 1_555
Al0_7 Fe0_6 2.450207 1_556
Al0_7 Fe0_7 2.450207 1_555
Fe0_0 Fe0_2 2.650172 1_555
Fe0_0 Fe0_4 2.650172 1_455
Fe0_0 Fe0_4 2.650172 1_555
Fe0_0 Fe0_2 2.650172 1_545
Fe0_0 Fe0_6 2.650172 1_555
Fe0_0 Fe0_6 2.650172 1_445
Fe0_1 Fe0_5 2.650172 1_555
Fe0_1 Fe0_3 2.650172 1_555
Fe0_1 Fe0_5 2.650172 1_455
Fe0_1 Fe0_3 2.650172 1_545
Fe0_1 Fe0_7 2.650172 1_555
Fe0_1 Fe0_7 2.650172 1_445
Fe0_2 Fe0_6 2.650172 1_455
Fe0_2 Fe0_6 2.650172 1_555
Fe0_2 Fe0_4 2.650172 1_565
Fe0_2 Fe0_4 2.650172 1_455
Fe0_3 Fe0_7 2.650172 1_555
Fe0_3 Fe0_7 2.650172 1_455
Fe0_3 Fe0_5 2.650172 1_455
Fe0_3 Fe0_5 2.650172 1_565
Fe0_4 Fe0_6 2.650172 1_555
Fe0_4 Fe0_6 2.650172 1_545
Fe0_5 Fe0_7 2.650172 1_545
Fe0_5 Fe0_7 2.650172 1_555
