# generated using pymatgen
data_CsScBr3
_symmetry_space_group_name_H-M   'P 1'
_cell_length_a   4.03999100
_cell_length_b   9.89068300
_cell_length_c   16.90108000
_cell_angle_alpha   90.00000000
_cell_angle_beta   90.00000000
_cell_angle_gamma   90.00000000
_symmetry_Int_Tables_number   1
_chemical_formula_structural   CsScBr3
_chemical_formula_sum   'Cs4 Sc4 Br12'
_cell_volume   675.33792307
_cell_formula_units_Z   4
loop_
 _symmetry_equiv_pos_site_id
 _symmetry_equiv_pos_as_xyz
  1  'x, y, z'
loop_
 _atom_site_type_symbol
 _atom_site_label
 _atom_site_symmetry_multiplicity
 _atom_site_fract_x
 _atom_site_fract_y
 _atom_site_fract_z
 _atom_site_occupancy
  Cs  Cs0  1  0.25000000  0.06264100  0.16991100  1
  Cs  Cs1  1  0.75000000  0.93735900  0.83008900  1
  Cs  Cs2  1  0.25000000  0.56264100  0.33008900  1
  Cs  Cs3  1  0.75000000  0.43735900  0.66991100  1
  Sc  Sc0  1  0.75000000  0.12774300  0.45243100  1
  Sc  Sc1  1  0.25000000  0.87225700  0.54756900  1
  Sc  Sc2  1  0.75000000  0.62774300  0.04756900  1
  Sc  Sc3  1  0.25000000  0.37225700  0.95243100  1
  Br  Br0  1  0.25000000  0.30843500  0.49948100  1
  Br  Br1  1  0.75000000  0.69156500  0.50051900  1
  Br  Br2  1  0.25000000  0.80843500  0.00051900  1
  Br  Br3  1  0.75000000  0.19156500  0.99948100  1
  Br  Br4  1  0.75000000  0.03749300  0.60516200  1
  Br  Br5  1  0.25000000  0.96250700  0.39483800  1
  Br  Br6  1  0.75000000  0.53749300  0.89483800  1
  Br  Br7  1  0.25000000  0.46250700  0.10516200  1
  Br  Br8  1  0.75000000  0.25657600  0.30860500  1
  Br  Br9  1  0.25000000  0.74342400  0.69139500  1
  Br  Br10  1  0.75000000  0.75657600  0.19139500  1
  Br  Br11  1  0.25000000  0.24342400  0.80860500  1
loop_
_geom_bond_atom_site_label_1
_geom_bond_atom_site_label_2
_geom_bond_distance
_geom_bond_site_symmetry_2
Br0 Sc0 2.811883 1_555
Br0 Sc0 2.811883 1_455
Br0 Cs3 3.742109 1_555
Br0 Cs3 3.742109 1_455
Br0 Cs2 3.810223 1_555
Br1 Sc1 2.811883 1_555
Br1 Sc1 2.811883 1_655
Br1 Cs2 3.742109 1_655
Br1 Cs2 3.742109 1_555
Br1 Cs3 3.810223 1_555
Br2 Sc2 2.811883 1_455
Br2 Sc2 2.811883 1_555
Br2 Cs1 3.742109 1_554
Br2 Cs1 3.742109 1_454
Br2 Cs0 3.810223 1_565
Br3 Sc3 2.811883 1_655
Br3 Sc3 2.811883 1_555
Br3 Cs0 3.742109 1_656
Br3 Cs0 3.742109 1_556
Br3 Cs1 3.810223 1_545
Br4 Sc0 2.731301 1_555
Br4 Sc1 2.774668 1_545
Br4 Sc1 2.774668 1_645
Br4 Cs1 3.928403 1_545
Br4 Cs3 4.103555 1_555
Br5 Sc1 2.731301 1_555
Br5 Sc0 2.774668 1_565
Br5 Sc0 2.774668 1_465
Br5 Cs0 3.928403 1_565
Br5 Cs2 4.103555 1_555
Br6 Sc2 2.731301 1_556
Br6 Sc3 2.774668 1_655
Br6 Sc3 2.774668 1_555
Br6 Cs3 3.928403 1_555
Br6 Cs1 4.103555 1_555
Br7 Sc3 2.731301 1_554
Br7 Sc2 2.774668 1_555
Br7 Sc2 2.774668 1_455
Br7 Cs2 3.928403 1_555
Br7 Cs0 4.103555 1_555
Br8 Sc0 2.744552 1_555
Br8 Cs0 3.640657 1_655
Br8 Cs0 3.640657 1_555
Br8 Cs2 3.657337 1_655
Br8 Cs2 3.657337 1_555
Br9 Sc1 2.744552 1_555
Br9 Cs1 3.640657 1_455
Br9 Cs1 3.640657 1_555
Br9 Cs3 3.657337 1_555
Br9 Cs3 3.657337 1_455
Br10 Sc2 2.744552 1_555
Br10 Cs2 3.640657 1_655
Br10 Cs2 3.640657 1_555
Br10 Cs0 3.657337 1_665
Br10 Cs0 3.657337 1_565
Br11 Sc3 2.744552 1_555
Br11 Cs3 3.640657 1_555
Br11 Cs3 3.640657 1_455
Br11 Cs1 3.657337 1_545
Br11 Cs1 3.657337 1_445
