# generated using pymatgen
data_Ag2HgS2
_symmetry_space_group_name_H-M   'P 1'
_cell_length_a   7.98014700
_cell_length_b   4.19811200
_cell_length_c   6.82305343
_cell_angle_alpha   69.76092987
_cell_angle_beta   90.00000000
_cell_angle_gamma   90.00000000
_symmetry_Int_Tables_number   1
_chemical_formula_structural   Ag2HgS2
_chemical_formula_sum   'Ag4 Hg2 S4'
_cell_volume   214.46955841
_cell_formula_units_Z   2
loop_
 _symmetry_equiv_pos_site_id
 _symmetry_equiv_pos_as_xyz
  1  'x, y, z'
loop_
 _atom_site_type_symbol
 _atom_site_label
 _atom_site_symmetry_multiplicity
 _atom_site_fract_x
 _atom_site_fract_y
 _atom_site_fract_z
 _atom_site_occupancy
  Ag  Ag0  1  0.15009900  0.38043100  0.40234600  1
  Ag  Ag1  1  0.65009900  0.61956900  0.09765400  1
  Ag  Ag2  1  0.34990100  0.38043100  0.90234600  1
  Ag  Ag3  1  0.84990100  0.61956900  0.59765400  1
  Hg  Hg0  1  0.50000000  0.00000000  0.50000000  1
  Hg  Hg1  1  0.00000000  0.00000000  0.00000000  1
  S  S0  1  0.87522300  0.18992300  0.26529300  1
  S  S1  1  0.37522300  0.81007700  0.23470700  1
  S  S2  1  0.12477700  0.81007700  0.73470700  1
  S  S3  1  0.62477700  0.18992300  0.76529300  1
loop_
_geom_bond_atom_site_label_1
_geom_bond_atom_site_label_2
_geom_bond_distance
_geom_bond_site_symmetry_2
Ag0 S1 2.522247 1_555
Ag0 S0 2.615950 1_455
Ag0 S2 2.675779 1_545
Ag1 S0 2.522247 1_555
Ag1 S1 2.615950 1_555
Ag1 S3 2.675779 1_564
Ag2 S2 2.522247 1_555
Ag2 S3 2.615950 1_555
Ag2 S1 2.675779 1_546
Ag3 S3 2.522247 1_555
Ag3 S2 2.615950 1_655
Ag3 S0 2.675779 1_565
Hg0 S3 2.429453 1_555
Hg0 S1 2.429453 1_545
Hg1 S0 2.429453 1_455
Hg1 S2 2.429453 1_544
