# generated using pymatgen
data_Au3N
_symmetry_space_group_name_H-M   'P 1'
_cell_length_a   5.49054600
_cell_length_b   11.12216070
_cell_length_c   19.37087645
_cell_angle_alpha   76.20009343
_cell_angle_beta   85.32584537
_cell_angle_gamma   83.42570804
_symmetry_Int_Tables_number   1
_chemical_formula_structural   Au3N
_chemical_formula_sum   'Au48 N16'
_cell_volume   1139.41585591
_cell_formula_units_Z   16
loop_
 _symmetry_equiv_pos_site_id
 _symmetry_equiv_pos_as_xyz
  1  'x, y, z'
loop_
 _atom_site_type_symbol
 _atom_site_label
 _atom_site_symmetry_multiplicity
 _atom_site_fract_x
 _atom_site_fract_y
 _atom_site_fract_z
 _atom_site_occupancy
  Au  Au0_0  1  0.36435450  0.17171150  0.31515550  1
  Au  Au0_1  1  0.36435450  0.17171150  0.81515550  1
  Au  Au0_2  1  0.36435450  0.67171150  0.31515550  1
  Au  Au0_3  1  0.36435450  0.67171150  0.81515550  1
  Au  Au0_4  1  0.86435450  0.17171150  0.31515550  1
  Au  Au0_5  1  0.86435450  0.17171150  0.81515550  1
  Au  Au0_6  1  0.86435450  0.67171150  0.31515550  1
  Au  Au0_7  1  0.86435450  0.67171150  0.81515550  1
  Au  Au1_0  1  0.11303150  0.22073500  0.06654000  1
  Au  Au1_1  1  0.11303150  0.22073500  0.56654000  1
  Au  Au1_2  1  0.11303150  0.72073500  0.06654000  1
  Au  Au1_3  1  0.11303150  0.72073500  0.56654000  1
  Au  Au1_4  1  0.61303150  0.22073500  0.06654000  1
  Au  Au1_5  1  0.61303150  0.22073500  0.56654000  1
  Au  Au1_6  1  0.61303150  0.72073500  0.06654000  1
  Au  Au1_7  1  0.61303150  0.72073500  0.56654000  1
  Au  Au2_0  1  0.36804300  0.06964400  0.18622900  1
  Au  Au2_1  1  0.36804300  0.06964400  0.68622900  1
  Au  Au2_2  1  0.36804300  0.56964400  0.18622900  1
  Au  Au2_3  1  0.36804300  0.56964400  0.68622900  1
  Au  Au2_4  1  0.86804300  0.06964400  0.18622900  1
  Au  Au2_5  1  0.86804300  0.06964400  0.68622900  1
  Au  Au2_6  1  0.86804300  0.56964400  0.18622900  1
  Au  Au2_7  1  0.86804300  0.56964400  0.68622900  1
  Au  Au3_0  1  0.38696850  0.27926500  0.43346000  1
  Au  Au3_1  1  0.38696850  0.27926500  0.93346000  1
  Au  Au3_2  1  0.38696850  0.77926500  0.43346000  1
  Au  Au3_3  1  0.38696850  0.77926500  0.93346000  1
  Au  Au3_4  1  0.88696850  0.27926500  0.43346000  1
  Au  Au3_5  1  0.88696850  0.27926500  0.93346000  1
  Au  Au3_6  1  0.88696850  0.77926500  0.43346000  1
  Au  Au3_7  1  0.88696850  0.77926500  0.93346000  1
  Au  Au4_0  1  0.13195700  0.43035600  0.31377100  1
  Au  Au4_1  1  0.13195700  0.43035600  0.81377100  1
  Au  Au4_2  1  0.13195700  0.93035600  0.31377100  1
  Au  Au4_3  1  0.13195700  0.93035600  0.81377100  1
  Au  Au4_4  1  0.63195700  0.43035600  0.31377100  1
  Au  Au4_5  1  0.63195700  0.43035600  0.81377100  1
  Au  Au4_6  1  0.63195700  0.93035600  0.31377100  1
  Au  Au4_7  1  0.63195700  0.93035600  0.81377100  1
  Au  Au5_0  1  0.13564550  0.32828850  0.18484450  1
  Au  Au5_1  1  0.13564550  0.32828850  0.68484450  1
  Au  Au5_2  1  0.13564550  0.82828850  0.18484450  1
  Au  Au5_3  1  0.13564550  0.82828850  0.68484450  1
  Au  Au5_4  1  0.63564550  0.32828850  0.18484450  1
  Au  Au5_5  1  0.63564550  0.32828850  0.68484450  1
  Au  Au5_6  1  0.63564550  0.82828850  0.18484450  1
  Au  Au5_7  1  0.63564550  0.82828850  0.68484450  1
  N  N0_0  1  0.25000000  0.00000000  0.00000000  1
  N  N0_1  1  0.25000000  0.00000000  0.50000000  1
  N  N0_2  1  0.25000000  0.50000000  0.00000000  1
  N  N0_3  1  0.25000000  0.50000000  0.50000000  1
  N  N0_4  1  0.75000000  0.00000000  0.00000000  1
  N  N0_5  1  0.75000000  0.00000000  0.50000000  1
  N  N0_6  1  0.75000000  0.50000000  0.00000000  1
  N  N0_7  1  0.75000000  0.50000000  0.50000000  1
  N  N1_0  1  0.00000000  0.00000000  0.00000000  1
  N  N1_1  1  0.00000000  0.00000000  0.50000000  1
  N  N1_2  1  0.00000000  0.50000000  0.00000000  1
  N  N1_3  1  0.00000000  0.50000000  0.50000000  1
  N  N1_4  1  0.50000000  0.00000000  0.00000000  1
  N  N1_5  1  0.50000000  0.00000000  0.50000000  1
  N  N1_6  1  0.50000000  0.50000000  0.00000000  1
  N  N1_7  1  0.50000000  0.50000000  0.50000000  1
loop_
_geom_bond_atom_site_label_1
_geom_bond_atom_site_label_2
_geom_bond_distance
_geom_bond_site_symmetry_2
Au0_0 Au0_4 2.745273 1_555
Au0_0 Au0_4 2.745273 1_455
Au0_0 Au3_0 2.843637 1_555
Au0_0 Au4_6 2.913807 1_545
Au0_0 Au2_0 2.977454 1_555
Au0_0 Au5_0 2.983307 1_555
Au0_0 Au4_0 3.005404 1_555
Au0_0 Au5_4 3.083391 1_555
Au0_0 Au4_2 3.107908 1_545
Au0_1 Au0_5 2.745273 1_555
Au0_1 Au0_5 2.745273 1_455
Au0_1 Au3_1 2.843637 1_555
Au0_1 Au4_7 2.913807 1_545
Au0_1 Au2_1 2.977454 1_555
Au0_1 Au5_1 2.983307 1_555
Au0_1 Au4_1 3.005404 1_555
Au0_1 Au5_5 3.083391 1_555
Au0_1 Au4_3 3.107908 1_545
Au0_2 Au0_6 2.745273 1_455
Au0_2 Au0_6 2.745273 1_555
Au0_2 Au3_2 2.843637 1_555
Au0_2 Au4_4 2.913807 1_555
Au0_2 Au2_2 2.977454 1_555
Au0_2 Au5_2 2.983307 1_555
Au0_2 Au4_2 3.005404 1_555
Au0_2 Au5_6 3.083391 1_555
Au0_2 Au4_0 3.107908 1_555
Au0_3 Au0_7 2.745273 1_455
Au0_3 Au0_7 2.745273 1_555
Au0_3 Au3_3 2.843637 1_555
Au0_3 Au4_5 2.913807 1_555
Au0_3 Au2_3 2.977454 1_555
Au0_3 Au5_3 2.983307 1_555
Au0_3 Au4_3 3.005404 1_555
Au0_3 Au5_7 3.083391 1_555
Au0_3 Au4_1 3.107908 1_555
Au0_4 Au3_4 2.843637 1_555
Au0_4 Au4_2 2.913807 1_645
Au0_4 Au2_4 2.977454 1_555
Au0_4 Au5_4 2.983307 1_555
Au0_4 Au4_4 3.005404 1_555
Au0_4 Au5_0 3.083391 1_655
Au0_4 Au4_6 3.107908 1_545
Au0_5 Au3_5 2.843637 1_555
Au0_5 Au4_3 2.913807 1_645
Au0_5 Au2_5 2.977454 1_555
Au0_5 Au5_5 2.983307 1_555
Au0_5 Au4_5 3.005404 1_555
Au0_5 Au5_1 3.083391 1_655
Au0_5 Au4_7 3.107908 1_545
Au0_6 Au3_6 2.843637 1_555
Au0_6 Au4_0 2.913807 1_655
Au0_6 Au2_6 2.977454 1_555
Au0_6 Au5_6 2.983307 1_555
Au0_6 Au4_6 3.005404 1_555
Au0_6 Au5_2 3.083391 1_655
Au0_6 Au4_4 3.107908 1_555
Au0_7 Au3_7 2.843637 1_555
Au0_7 Au4_1 2.913807 1_655
Au0_7 Au2_7 2.977454 1_555
Au0_7 Au5_7 2.983307 1_555
Au0_7 Au4_7 3.005404 1_555
Au0_7 Au5_3 3.083391 1_655
Au0_7 Au4_5 3.107908 1_555
Au1_0 Au1_4 2.745273 1_455
Au1_0 Au1_4 2.745273 1_555
Au1_0 Au5_0 2.843637 1_555
Au1_0 Au3_1 2.850111 1_554
Au1_0 Au3_5 2.854067 1_454
Au1_0 Au2_4 2.856445 1_455
Au1_0 Au2_0 2.879465 1_555
Au1_1 Au1_5 2.745273 1_555
Au1_1 Au1_5 2.745273 1_455
Au1_1 Au5_1 2.843637 1_555
Au1_1 Au3_0 2.850111 1_555
Au1_1 Au3_4 2.854067 1_455
Au1_1 Au2_5 2.856445 1_455
Au1_1 Au2_1 2.879465 1_555
Au1_2 Au1_6 2.745273 1_455
Au1_2 Au1_6 2.745273 1_555
Au1_2 Au5_2 2.843637 1_555
Au1_2 Au3_3 2.850111 1_554
Au1_2 Au3_7 2.854067 1_454
Au1_2 Au2_6 2.856445 1_455
Au1_2 Au2_2 2.879465 1_555
Au1_3 Au1_7 2.745273 1_555
Au1_3 Au1_7 2.745273 1_455
Au1_3 Au5_3 2.843637 1_555
Au1_3 Au3_2 2.850111 1_555
Au1_3 Au3_6 2.854067 1_455
Au1_3 Au2_7 2.856445 1_455
Au1_3 Au2_3 2.879465 1_555
Au1_4 Au5_4 2.843637 1_555
Au1_4 Au3_5 2.850111 1_554
Au1_4 Au3_1 2.854067 1_554
Au1_4 Au2_0 2.856445 1_555
Au1_4 Au2_4 2.879465 1_555
Au1_5 Au5_5 2.843637 1_555
Au1_5 Au3_4 2.850111 1_555
Au1_5 Au3_0 2.854067 1_555
Au1_5 Au2_1 2.856445 1_555
Au1_5 Au2_5 2.879465 1_555
Au1_6 Au5_6 2.843637 1_555
Au1_6 Au3_7 2.850111 1_554
Au1_6 Au3_3 2.854067 1_554
Au1_6 Au2_2 2.856445 1_555
Au1_6 Au2_6 2.879465 1_555
Au1_7 Au5_7 2.843637 1_555
Au1_7 Au3_6 2.850111 1_555
Au1_7 Au3_2 2.854067 1_555
Au1_7 Au2_3 2.856445 1_555
Au1_7 Au2_7 2.879465 1_555
Au2_0 Au2_4 2.745273 1_455
Au2_0 Au2_4 2.745273 1_555
Au2_0 Au4_2 2.880286 1_545
Au2_0 Au5_6 2.913807 1_545
Au2_0 Au4_6 2.974398 1_545
Au2_0 Au5_0 3.005404 1_555
Au2_0 Au5_2 3.107908 1_545
Au2_1 Au2_5 2.745273 1_455
Au2_1 Au2_5 2.745273 1_555
Au2_1 Au4_3 2.880286 1_545
Au2_1 Au5_7 2.913807 1_545
Au2_1 Au4_7 2.974398 1_545
Au2_1 Au5_1 3.005404 1_555
Au2_1 Au5_3 3.107908 1_545
Au2_2 Au2_6 2.745273 1_455
Au2_2 Au2_6 2.745273 1_555
Au2_2 Au4_0 2.880286 1_555
Au2_2 Au5_4 2.913807 1_555
Au2_2 Au4_4 2.974398 1_555
Au2_2 Au5_2 3.005404 1_555
Au2_2 Au5_0 3.107908 1_555
Au2_3 Au2_7 2.745273 1_555
Au2_3 Au2_7 2.745273 1_455
Au2_3 Au4_1 2.880286 1_555
Au2_3 Au5_5 2.913807 1_555
Au2_3 Au4_5 2.974398 1_555
Au2_3 Au5_3 3.005404 1_555
Au2_3 Au5_1 3.107908 1_555
Au2_4 Au4_6 2.880286 1_545
Au2_4 Au5_2 2.913807 1_645
Au2_4 Au4_2 2.974398 1_645
Au2_4 Au5_4 3.005404 1_555
Au2_4 Au5_6 3.107908 1_545
Au2_5 Au4_7 2.880286 1_545
Au2_5 Au5_3 2.913807 1_645
Au2_5 Au4_3 2.974398 1_645
Au2_5 Au5_5 3.005404 1_555
Au2_5 Au5_7 3.107908 1_545
Au2_6 Au4_4 2.880286 1_555
Au2_6 Au5_0 2.913807 1_655
Au2_6 Au4_0 2.974398 1_655
Au2_6 Au5_6 3.005404 1_555
Au2_6 Au5_4 3.107908 1_555
Au2_7 Au4_5 2.880286 1_555
Au2_7 Au5_1 2.913807 1_655
Au2_7 Au4_1 2.974398 1_655
Au2_7 Au5_7 3.005404 1_555
Au2_7 Au5_5 3.107908 1_555
Au3_0 Au3_4 2.745273 1_555
Au3_0 Au3_4 2.745273 1_455
Au3_0 Au4_4 2.856445 1_555
Au3_0 Au4_0 2.879465 1_555
Au3_1 Au3_5 2.745273 1_555
Au3_1 Au3_5 2.745273 1_455
Au3_1 Au4_5 2.856445 1_555
Au3_1 Au4_1 2.879465 1_555
Au3_2 Au3_6 2.745273 1_455
Au3_2 Au3_6 2.745273 1_555
Au3_2 Au4_6 2.856445 1_555
Au3_2 Au4_2 2.879465 1_555
Au3_3 Au3_7 2.745273 1_555
Au3_3 Au3_7 2.745273 1_455
Au3_3 Au4_7 2.856445 1_555
Au3_3 Au4_3 2.879465 1_555
Au3_4 Au4_0 2.856445 1_655
Au3_4 Au4_4 2.879465 1_555
Au3_5 Au4_1 2.856445 1_655
Au3_5 Au4_5 2.879465 1_555
Au3_6 Au4_2 2.856445 1_655
Au3_6 Au4_6 2.879465 1_555
Au3_7 Au4_3 2.856445 1_655
Au3_7 Au4_7 2.879465 1_555
Au4_0 Au4_4 2.745273 1_455
Au4_0 Au4_4 2.745273 1_555
Au4_0 Au5_0 2.977454 1_555
Au4_1 Au4_5 2.745273 1_455
Au4_1 Au4_5 2.745273 1_555
Au4_1 Au5_1 2.977454 1_555
Au4_2 Au4_6 2.745273 1_555
Au4_2 Au4_6 2.745273 1_455
Au4_2 Au5_2 2.977454 1_555
Au4_3 Au4_7 2.745273 1_455
Au4_3 Au4_7 2.745273 1_555
Au4_3 Au5_3 2.977454 1_555
Au4_4 Au5_4 2.977454 1_555
Au4_5 Au5_5 2.977454 1_555
Au4_6 Au5_6 2.977454 1_555
Au4_7 Au5_7 2.977454 1_555
Au5_0 Au5_4 2.745273 1_455
Au5_0 Au5_4 2.745273 1_555
Au5_1 Au5_5 2.745273 1_555
Au5_1 Au5_5 2.745273 1_455
Au5_2 Au5_6 2.745273 1_555
Au5_2 Au5_6 2.745273 1_455
Au5_3 Au5_7 2.745273 1_455
Au5_3 Au5_7 2.745273 1_555
N0_0 N1_4 1.372637 1_555
N0_0 N1_0 1.372637 1_555
N0_1 N1_5 1.372636 1_555
N0_1 N1_1 1.372637 1_555
N0_2 N1_2 1.372637 1_555
N0_2 N1_6 1.372637 1_555
N0_3 N1_7 1.372636 1_555
N0_3 N1_3 1.372637 1_555
N0_4 N1_4 1.372636 1_555
N0_4 N1_0 1.372637 1_655
N0_5 N1_5 1.372637 1_555
N0_5 N1_1 1.372637 1_655
N0_6 N1_2 1.372637 1_655
N0_6 N1_6 1.372637 1_555
N0_7 N1_3 1.372637 1_655
N0_7 N1_7 1.372637 1_555
