# generated using pymatgen
data_LiMg
_symmetry_space_group_name_H-M   'P 1'
_cell_length_a   15.18071623
_cell_length_b   15.18071623
_cell_length_c   9.84453626
_cell_angle_alpha   90.00000000
_cell_angle_beta   90.00000000
_cell_angle_gamma   154.87711890
_symmetry_Int_Tables_number   1
_chemical_formula_structural   LiMg
_chemical_formula_sum   'Li24 Mg24'
_cell_volume   963.20762857
_cell_formula_units_Z   24
loop_
 _symmetry_equiv_pos_site_id
 _symmetry_equiv_pos_as_xyz
  1  'x, y, z'
loop_
 _atom_site_type_symbol
 _atom_site_label
 _atom_site_symmetry_multiplicity
 _atom_site_fract_x
 _atom_site_fract_y
 _atom_site_fract_z
 _atom_site_occupancy
  Li  Li0_0  1  0.34582863  0.15417137  0.00000000  1
  Li  Li0_1  1  0.34582863  0.15417137  0.50000000  1
  Li  Li0_2  1  0.34582863  0.65417137  0.00000000  1
  Li  Li0_3  1  0.34582863  0.65417137  0.50000000  1
  Li  Li0_4  1  0.84582863  0.15417137  0.00000000  1
  Li  Li0_5  1  0.84582863  0.15417137  0.50000000  1
  Li  Li0_6  1  0.84582863  0.65417137  0.00000000  1
  Li  Li0_7  1  0.84582863  0.65417137  0.50000000  1
  Li  Li1_0  1  0.26437843  0.23562157  0.25000000  1
  Li  Li1_1  1  0.26437843  0.23562157  0.75000000  1
  Li  Li1_2  1  0.26437843  0.73562157  0.25000000  1
  Li  Li1_3  1  0.26437843  0.73562157  0.75000000  1
  Li  Li1_4  1  0.76437843  0.23562157  0.25000000  1
  Li  Li1_5  1  0.76437843  0.23562157  0.75000000  1
  Li  Li1_6  1  0.76437843  0.73562157  0.25000000  1
  Li  Li1_7  1  0.76437843  0.73562157  0.75000000  1
  Li  Li2_0  1  0.43311591  0.06688410  0.25000000  1
  Li  Li2_1  1  0.43311591  0.06688410  0.75000000  1
  Li  Li2_2  1  0.43311591  0.56688409  0.25000000  1
  Li  Li2_3  1  0.43311591  0.56688409  0.75000000  1
  Li  Li2_4  1  0.93311590  0.06688409  0.25000000  1
  Li  Li2_5  1  0.93311590  0.06688409  0.75000000  1
  Li  Li2_6  1  0.93311590  0.56688409  0.25000000  1
  Li  Li2_7  1  0.93311590  0.56688409  0.75000000  1
  Mg  Mg0_0  1  0.01495197  0.48504803  0.00000000  1
  Mg  Mg0_1  1  0.01495197  0.48504803  0.50000000  1
  Mg  Mg0_2  1  0.01495197  0.98504803  0.00000000  1
  Mg  Mg0_3  1  0.01495197  0.98504803  0.50000000  1
  Mg  Mg0_4  1  0.51495196  0.48504803  0.00000000  1
  Mg  Mg0_5  1  0.51495196  0.48504803  0.50000000  1
  Mg  Mg0_6  1  0.51495197  0.98504803  0.00000000  1
  Mg  Mg0_7  1  0.51495197  0.98504803  0.50000000  1
  Mg  Mg1_0  1  0.17679020  0.32320980  0.00000000  1
  Mg  Mg1_1  1  0.17679020  0.32320980  0.50000000  1
  Mg  Mg1_2  1  0.17679020  0.82320980  0.00000000  1
  Mg  Mg1_3  1  0.17679020  0.82320980  0.50000000  1
  Mg  Mg1_4  1  0.67679020  0.32320980  0.00000000  1
  Mg  Mg1_5  1  0.67679020  0.32320980  0.50000000  1
  Mg  Mg1_6  1  0.67679020  0.82320980  0.00000000  1
  Mg  Mg1_7  1  0.67679020  0.82320980  0.50000000  1
  Mg  Mg2_0  1  0.09827187  0.40172813  0.25000000  1
  Mg  Mg2_1  1  0.09827187  0.40172813  0.75000000  1
  Mg  Mg2_2  1  0.09827187  0.90172813  0.25000000  1
  Mg  Mg2_3  1  0.09827187  0.90172813  0.75000000  1
  Mg  Mg2_4  1  0.59827187  0.40172813  0.25000000  1
  Mg  Mg2_5  1  0.59827187  0.40172813  0.75000000  1
  Mg  Mg2_6  1  0.59827187  0.90172813  0.25000000  1
  Mg  Mg2_7  1  0.59827187  0.90172813  0.75000000  1
loop_
_geom_bond_atom_site_label_1
_geom_bond_atom_site_label_2
_geom_bond_distance
_geom_bond_site_symmetry_2
Li0_0 Mg0_2 2.910253 1_545
Li0_0 Mg0_4 2.910253 1_555
Li0_0 Mg1_4 2.912325 1_555
Li0_0 Mg1_2 2.912325 1_545
Li0_0 Mg2_5 2.964382 1_554
Li0_0 Mg2_3 2.964382 1_544
Li0_0 Mg2_4 2.964382 1_555
Li0_0 Mg2_2 2.964382 1_545
Li0_1 Mg0_3 2.910253 1_545
Li0_1 Mg0_5 2.910253 1_555
Li0_1 Mg1_5 2.912325 1_555
Li0_1 Mg1_3 2.912325 1_545
Li0_1 Mg2_4 2.964382 1_555
Li0_1 Mg2_2 2.964382 1_545
Li0_1 Mg2_5 2.964382 1_555
Li0_1 Mg2_3 2.964382 1_545
Li0_2 Mg0_6 2.910253 1_555
Li0_2 Mg0_0 2.910253 1_555
Li0_2 Mg1_0 2.912325 1_555
Li0_2 Mg1_6 2.912325 1_555
Li0_2 Mg2_7 2.964382 1_554
Li0_2 Mg2_1 2.964382 1_554
Li0_2 Mg2_6 2.964382 1_555
Li0_2 Mg2_0 2.964382 1_555
Li0_3 Mg0_7 2.910253 1_555
Li0_3 Mg0_1 2.910253 1_555
Li0_3 Mg1_1 2.912325 1_555
Li0_3 Mg1_7 2.912325 1_555
Li0_3 Mg2_6 2.964382 1_555
Li0_3 Mg2_0 2.964382 1_555
Li0_3 Mg2_7 2.964382 1_555
Li0_3 Mg2_1 2.964382 1_555
Li0_4 Mg0_6 2.910253 1_545
Li0_4 Mg0_0 2.910253 1_655
Li0_4 Mg1_0 2.912325 1_655
Li0_4 Mg1_6 2.912325 1_545
Li0_4 Mg2_7 2.964382 1_544
Li0_4 Mg2_1 2.964382 1_654
Li0_4 Mg2_0 2.964382 1_655
Li0_4 Mg2_6 2.964382 1_545
Li0_5 Mg0_7 2.910253 1_545
Li0_5 Mg0_1 2.910253 1_655
Li0_5 Mg1_1 2.912325 1_655
Li0_5 Mg1_7 2.912325 1_545
Li0_5 Mg2_0 2.964382 1_655
Li0_5 Mg2_6 2.964382 1_545
Li0_5 Mg2_1 2.964382 1_655
Li0_5 Mg2_7 2.964382 1_545
Li0_6 Mg0_2 2.910253 1_655
Li0_6 Mg0_4 2.910253 1_555
Li0_6 Mg1_2 2.912325 1_655
Li0_6 Mg1_4 2.912325 1_555
Li0_6 Mg2_5 2.964382 1_554
Li0_6 Mg2_3 2.964382 1_654
Li0_6 Mg2_2 2.964382 1_655
Li0_6 Mg2_4 2.964382 1_555
Li0_7 Mg0_3 2.910253 1_655
Li0_7 Mg0_5 2.910253 1_555
Li0_7 Mg1_3 2.912325 1_655
Li0_7 Mg1_5 2.912325 1_555
Li0_7 Mg2_2 2.964382 1_655
Li0_7 Mg2_4 2.964382 1_555
Li0_7 Mg2_5 2.964382 1_555
Li0_7 Mg2_3 2.964382 1_655
Li1_0 Li2_2 2.919677 1_555
Li1_0 Li2_4 2.919677 1_455
Li1_0 Mg0_5 2.963547 1_555
Li1_0 Mg0_4 2.963547 1_555
Li1_0 Mg0_3 2.963547 1_545
Li1_0 Mg0_2 2.963547 1_545
Li1_0 Mg2_4 2.984310 1_555
Li1_0 Mg2_2 2.984310 1_545
Li1_1 Li2_3 2.919677 1_555
Li1_1 Li2_5 2.919677 1_455
Li1_1 Mg0_4 2.963547 1_556
Li1_1 Mg0_2 2.963547 1_546
Li1_1 Mg0_5 2.963547 1_555
Li1_1 Mg0_3 2.963547 1_545
Li1_1 Mg2_5 2.984310 1_555
Li1_1 Mg2_3 2.984310 1_545
Li1_2 Li2_6 2.919677 1_455
Li1_2 Li2_0 2.919677 1_565
Li1_2 Mg0_1 2.963547 1_555
Li1_2 Mg0_0 2.963547 1_555
Li1_2 Mg0_6 2.963547 1_555
Li1_2 Mg0_7 2.963547 1_555
Li1_2 Mg2_0 2.984310 1_555
Li1_2 Mg2_6 2.984310 1_555
Li1_3 Li2_7 2.919677 1_455
Li1_3 Li2_1 2.919677 1_565
Li1_3 Mg0_0 2.963547 1_556
Li1_3 Mg0_6 2.963547 1_556
Li1_3 Mg0_7 2.963547 1_555
Li1_3 Mg0_1 2.963547 1_555
Li1_3 Mg2_1 2.984310 1_555
Li1_3 Mg2_7 2.984310 1_555
Li1_4 Li2_6 2.919677 1_555
Li1_4 Li2_0 2.919677 1_555
Li1_4 Mg0_0 2.963547 1_655
Li1_4 Mg0_6 2.963547 1_545
Li1_4 Mg0_7 2.963547 1_545
Li1_4 Mg0_1 2.963547 1_655
Li1_4 Mg2_0 2.984310 1_655
Li1_4 Mg2_6 2.984310 1_545
Li1_5 Li2_7 2.919677 1_555
Li1_5 Li2_1 2.919677 1_555
Li1_5 Mg0_6 2.963547 1_546
Li1_5 Mg0_0 2.963547 1_656
Li1_5 Mg0_7 2.963547 1_545
Li1_5 Mg0_1 2.963547 1_655
Li1_5 Mg2_1 2.984310 1_655
Li1_5 Mg2_7 2.984310 1_545
Li1_6 Li2_2 2.919677 1_555
Li1_6 Li2_4 2.919677 1_565
Li1_6 Mg0_5 2.963547 1_555
Li1_6 Mg0_3 2.963547 1_655
Li1_6 Mg0_4 2.963547 1_555
Li1_6 Mg0_2 2.963547 1_655
Li1_6 Mg2_4 2.984310 1_555
Li1_6 Mg2_2 2.984310 1_655
Li1_7 Li2_3 2.919677 1_555
Li1_7 Li2_5 2.919677 1_565
Li1_7 Mg0_2 2.963547 1_656
Li1_7 Mg0_4 2.963547 1_556
Li1_7 Mg0_5 2.963547 1_555
Li1_7 Mg0_3 2.963547 1_655
Li1_7 Mg2_5 2.984310 1_555
Li1_7 Mg2_3 2.984310 1_655
Li2_0 Mg1_5 2.969421 1_555
Li2_0 Mg1_4 2.969421 1_555
Li2_0 Mg1_2 2.969421 1_545
Li2_0 Mg1_3 2.969421 1_545
Li2_0 Mg2_4 3.007819 1_555
Li2_0 Mg2_2 3.007819 1_545
Li2_1 Mg1_4 2.969421 1_556
Li2_1 Mg1_5 2.969421 1_555
Li2_1 Mg1_2 2.969421 1_546
Li2_1 Mg1_3 2.969421 1_545
Li2_1 Mg2_3 3.007819 1_545
Li2_1 Mg2_5 3.007819 1_555
Li2_2 Mg1_6 2.969421 1_555
Li2_2 Mg1_7 2.969421 1_555
Li2_2 Mg1_1 2.969421 1_555
Li2_2 Mg1_0 2.969421 1_555
Li2_2 Mg2_6 3.007819 1_555
Li2_2 Mg2_0 3.007819 1_555
Li2_3 Mg1_6 2.969421 1_556
Li2_3 Mg1_7 2.969421 1_555
Li2_3 Mg1_0 2.969421 1_556
Li2_3 Mg1_1 2.969421 1_555
Li2_3 Mg2_7 3.007819 1_555
Li2_3 Mg2_1 3.007819 1_555
Li2_4 Mg1_1 2.969421 1_655
Li2_4 Mg1_0 2.969421 1_655
Li2_4 Mg1_6 2.969421 1_545
Li2_4 Mg1_7 2.969421 1_545
Li2_4 Mg2_6 3.007819 1_545
Li2_4 Mg2_0 3.007819 1_655
Li2_5 Mg1_0 2.969421 1_656
Li2_5 Mg1_1 2.969421 1_655
Li2_5 Mg1_6 2.969421 1_546
Li2_5 Mg1_7 2.969421 1_545
Li2_5 Mg2_7 3.007819 1_545
Li2_5 Mg2_1 3.007819 1_655
Li2_6 Mg1_3 2.969421 1_655
Li2_6 Mg1_2 2.969421 1_655
Li2_6 Mg1_4 2.969421 1_555
Li2_6 Mg1_5 2.969421 1_555
Li2_6 Mg2_2 3.007819 1_655
Li2_6 Mg2_4 3.007819 1_555
Li2_7 Mg1_2 2.969421 1_656
Li2_7 Mg1_3 2.969421 1_655
Li2_7 Mg1_4 2.969421 1_556
Li2_7 Mg1_5 2.969421 1_555
Li2_7 Mg2_3 3.007819 1_655
Li2_7 Mg2_5 3.007819 1_555
Mg0_0 Mg1_2 3.090479 1_555
Mg0_0 Mg1_4 3.090479 1_455
Mg0_1 Mg1_3 3.090479 1_555
Mg0_1 Mg1_5 3.090479 1_455
Mg0_2 Mg1_6 3.090479 1_455
Mg0_2 Mg1_0 3.090479 1_565
Mg0_3 Mg1_7 3.090479 1_455
Mg0_3 Mg1_1 3.090479 1_565
Mg0_4 Mg1_6 3.090479 1_555
Mg0_4 Mg1_0 3.090479 1_555
Mg0_5 Mg1_7 3.090479 1_555
Mg0_5 Mg1_1 3.090479 1_555
Mg0_6 Mg1_2 3.090479 1_555
Mg0_6 Mg1_4 3.090479 1_565
Mg0_7 Mg1_3 3.090479 1_555
Mg0_7 Mg1_5 3.090479 1_565
Mg1_0 Mg1_6 3.301599 1_555
Mg1_0 Mg1_6 3.301599 1_445
Mg1_0 Mg2_1 3.386958 1_554
Mg1_0 Mg2_0 3.386958 1_555
Mg1_1 Mg1_7 3.301599 1_555
Mg1_1 Mg1_7 3.301599 1_445
Mg1_1 Mg2_0 3.386958 1_555
Mg1_1 Mg2_1 3.386958 1_555
Mg1_2 Mg1_4 3.301599 1_455
Mg1_2 Mg1_4 3.301599 1_565
Mg1_2 Mg2_3 3.386958 1_554
Mg1_2 Mg2_2 3.386958 1_555
Mg1_3 Mg1_5 3.301599 1_455
Mg1_3 Mg1_5 3.301599 1_565
Mg1_3 Mg2_2 3.386958 1_555
Mg1_3 Mg2_3 3.386958 1_555
Mg1_4 Mg2_5 3.386958 1_554
Mg1_4 Mg2_4 3.386958 1_555
Mg1_5 Mg2_4 3.386958 1_555
Mg1_5 Mg2_5 3.386958 1_555
Mg1_6 Mg2_7 3.386958 1_554
Mg1_6 Mg2_6 3.386958 1_555
Mg1_7 Mg2_6 3.386958 1_555
Mg1_7 Mg2_7 3.386958 1_555
