# generated using pymatgen
data_LaMoN3
_symmetry_space_group_name_H-M   'P 1'
_cell_length_a   7.70367983
_cell_length_b   7.70367983
_cell_length_c   3.96224662
_cell_angle_alpha   90.00000000
_cell_angle_beta   90.00000000
_cell_angle_gamma   136.19857663
_symmetry_Int_Tables_number   1
_chemical_formula_structural   LaMoN3
_chemical_formula_sum   'La2 Mo2 N6'
_cell_volume   162.75904897
_cell_formula_units_Z   2
loop_
 _symmetry_equiv_pos_site_id
 _symmetry_equiv_pos_as_xyz
  1  'x, y, z'
loop_
 _atom_site_type_symbol
 _atom_site_label
 _atom_site_symmetry_multiplicity
 _atom_site_fract_x
 _atom_site_fract_y
 _atom_site_fract_z
 _atom_site_occupancy
  La  La0  1  0.61177171  0.96016944  0.75000000  1
  La  La1  1  0.96016944  0.61177171  0.25000000  1
  Mo  Mo0  1  0.42500048  0.24981229  0.75000000  1
  Mo  Mo1  1  0.24981229  0.42500048  0.25000000  1
  N  N0  1  0.91644943  0.19894648  0.25000000  1
  N  N1  1  0.45681939  0.34329998  0.25000000  1
  N  N2  1  0.35378120  0.72591059  0.25000000  1
  N  N3  1  0.34329998  0.45681939  0.75000000  1
  N  N4  1  0.19894648  0.91644943  0.75000000  1
  N  N5  1  0.72591059  0.35378120  0.75000000  1
loop_
_geom_bond_atom_site_label_1
_geom_bond_atom_site_label_2
_geom_bond_distance
_geom_bond_site_symmetry_2
La0 N2 2.440149 1_555
La0 N2 2.440149 1_556
La0 N5 2.473676 1_565
La0 N0 2.566188 1_565
La0 N0 2.566188 1_566
La0 N3 2.781578 1_555
La0 N4 2.946424 1_555
La1 N5 2.440149 1_554
La1 N5 2.440149 1_555
La1 N2 2.473676 1_655
La1 N4 2.566188 1_655
La1 N4 2.566188 1_654
La1 N1 2.781578 1_555
La1 N0 2.946424 1_555
Mo0 N4 1.781083 1_545
Mo0 N5 1.826220 1_555
Mo0 N1 2.061260 1_556
Mo0 N1 2.061260 1_555
Mo0 N3 2.094778 1_555
Mo1 N0 1.781083 1_455
Mo1 N2 1.826220 1_555
Mo1 N3 2.061260 1_555
Mo1 N3 2.061260 1_554
Mo1 N1 2.094778 1_555
