# generated using pymatgen
data_Tb3Al2
_symmetry_space_group_name_H-M   'P 1'
_cell_length_a   8.23793321
_cell_length_b   8.23793321
_cell_length_c   7.65073530
_cell_angle_alpha   90.00000000
_cell_angle_beta   90.00000000
_cell_angle_gamma   90.00025150
_symmetry_Int_Tables_number   1
_chemical_formula_structural   Tb3Al2
_chemical_formula_sum   'Tb12 Al8'
_cell_volume   519.20600839
_cell_formula_units_Z   4
loop_
 _symmetry_equiv_pos_site_id
 _symmetry_equiv_pos_as_xyz
  1  'x, y, z'
loop_
 _atom_site_type_symbol
 _atom_site_label
 _atom_site_symmetry_multiplicity
 _atom_site_fract_x
 _atom_site_fract_y
 _atom_site_fract_z
 _atom_site_occupancy
  Tb  Tb0  1  0.20310983  0.20310983  -0.00000000  1
  Tb  Tb1  1  0.79688917  0.79688917  -0.00000000  1
  Tb  Tb2  1  0.70308979  0.29691021  0.50000000  1
  Tb  Tb3  1  0.29691021  0.70308979  0.50000000  1
  Tb  Tb4  1  -0.00000000  0.50000000  0.24995700  1
  Tb  Tb5  1  0.50000000  0.00000000  0.24995700  1
  Tb  Tb6  1  0.50000000  0.00000000  0.75004100  1
  Tb  Tb7  1  -0.00000000  0.50000000  0.75004100  1
  Tb  Tb8  1  0.15135414  0.15135414  0.50000000  1
  Tb  Tb9  1  0.84864586  0.84864586  0.50000000  1
  Tb  Tb10  1  0.65133507  0.34866693  -0.00000000  1
  Tb  Tb11  1  0.34866693  0.65133507  -0.00000000  1
  Al  Al0  1  0.38277217  0.38277217  0.30771069  1
  Al  Al1  1  0.61722783  0.61722783  0.30771069  1
  Al  Al2  1  0.88276940  0.11722960  0.19226740  1
  Al  Al3  1  0.11722960  0.88276940  0.19226740  1
  Al  Al4  1  0.61722783  0.61722783  0.69229031  1
  Al  Al5  1  0.38277217  0.38277217  0.69229031  1
  Al  Al6  1  0.88276940  0.11722960  0.80773260  1
  Al  Al7  1  0.11722960  0.88276940  0.80773260  1
loop_
_geom_bond_atom_site_label_1
_geom_bond_atom_site_label_2
_geom_bond_distance
_geom_bond_site_symmetry_2
Tb0 Tb4 3.526826 1_555
Tb0 Tb5 3.526826 1_555
Tb0 Tb6 3.526834 1_554
Tb0 Tb7 3.526834 1_554
Tb1 Tb5 3.526824 1_565
Tb1 Tb4 3.526824 1_655
Tb1 Tb6 3.526832 1_564
Tb1 Tb7 3.526832 1_654
Tb2 Tb7 3.527200 1_655
Tb2 Tb6 3.527200 1_555
Tb2 Tb4 3.527209 1_655
Tb2 Tb5 3.527209 1_555
Tb3 Tb6 3.527200 1_565
Tb3 Tb7 3.527200 1_555
Tb3 Tb5 3.527209 1_565
Tb3 Tb4 3.527209 1_555
Tb4 Tb9 3.669244 1_455
Tb4 Tb8 3.669244 1_555
Tb4 Tb7 3.824725 1_554
Tb4 Tb7 3.826010 1_555
Tb5 Tb8 3.669244 1_555
Tb5 Tb9 3.669244 1_545
Tb5 Tb6 3.824725 1_554
Tb5 Tb6 3.826010 1_555
Tb6 Tb8 3.669236 1_555
Tb6 Tb9 3.669236 1_545
Tb7 Tb9 3.669236 1_455
Tb7 Tb8 3.669236 1_555
Tb10 Tb4 3.668957 1_655
Tb10 Tb7 3.668965 1_654
Tb10 Tb5 3.668975 1_555
Tb10 Tb6 3.668983 1_554
Tb11 Tb5 3.668957 1_565
Tb11 Tb6 3.668965 1_564
Tb11 Tb4 3.668975 1_555
Tb11 Tb7 3.668983 1_554
Al0 Al1 2.731449 1_555
Al0 Al5 2.942317 1_555
Al0 Tb8 3.071324 1_555
Al0 Tb3 3.102845 1_555
Al0 Tb2 3.102845 1_555
Al0 Tb0 3.150139 1_555
Al0 Tb10 3.242837 1_555
Al0 Tb11 3.242837 1_555
Al0 Tb4 3.327291 1_555
Al0 Tb5 3.327291 1_555
Al1 Al4 2.942317 1_555
Al1 Tb9 3.071324 1_555
Al1 Tb3 3.102845 1_555
Al1 Tb2 3.102845 1_555
Al1 Tb1 3.150131 1_555
Al1 Tb10 3.242827 1_555
Al1 Tb11 3.242827 1_555
Al1 Tb5 3.327291 1_565
Al1 Tb4 3.327291 1_655
Al2 Al3 2.731513 1_645
Al2 Al6 2.941974 1_554
Al2 Tb10 3.071437 1_555
Al2 Tb1 3.102955 1_545
Al2 Tb0 3.102955 1_655
Al2 Tb2 3.150408 1_555
Al2 Tb9 3.243087 1_545
Al2 Tb8 3.243093 1_655
Al2 Tb5 3.327201 1_555
Al2 Tb4 3.327211 1_655
Al3 Al7 2.941974 1_554
Al3 Tb11 3.071437 1_555
Al3 Tb1 3.102955 1_455
Al3 Tb0 3.102955 1_565
Al3 Tb3 3.150408 1_555
Al3 Tb9 3.243087 1_455
Al3 Tb8 3.243093 1_565
Al3 Tb4 3.327201 1_555
Al3 Tb5 3.327211 1_565
Al4 Al5 2.731449 1_555
Al4 Tb9 3.071328 1_555
Al4 Tb3 3.102849 1_555
Al4 Tb2 3.102849 1_555
Al4 Tb1 3.150125 1_556
Al4 Tb11 3.242821 1_556
Al4 Tb10 3.242821 1_556
Al4 Tb6 3.327288 1_565
Al4 Tb7 3.327288 1_655
Al5 Tb8 3.071328 1_555
Al5 Tb3 3.102849 1_555
Al5 Tb2 3.102849 1_555
Al5 Tb0 3.150133 1_556
Al5 Tb10 3.242831 1_556
Al5 Tb11 3.242831 1_556
Al5 Tb7 3.327288 1_555
Al5 Tb6 3.327288 1_555
Al6 Al7 2.731513 1_645
Al6 Tb10 3.071437 1_556
Al6 Tb1 3.102955 1_546
Al6 Tb0 3.102955 1_656
Al6 Tb2 3.150408 1_555
Al6 Tb9 3.243087 1_545
Al6 Tb8 3.243093 1_655
Al6 Tb6 3.327203 1_555
Al6 Tb7 3.327213 1_655
Al7 Tb11 3.071437 1_556
Al7 Tb1 3.102955 1_456
Al7 Tb0 3.102955 1_566
Al7 Tb3 3.150408 1_555
Al7 Tb9 3.243087 1_455
Al7 Tb8 3.243093 1_565
Al7 Tb7 3.327203 1_555
Al7 Tb6 3.327213 1_565
