# generated using pymatgen
data_Lu3U
_symmetry_space_group_name_H-M   'P 1'
_cell_length_a   6.89113528
_cell_length_b   6.89113528
_cell_length_c   5.53416200
_cell_angle_alpha   90.00000000
_cell_angle_beta   90.00000000
_cell_angle_gamma   119.99999304
_symmetry_Int_Tables_number   1
_chemical_formula_structural   Lu3U
_chemical_formula_sum   'Lu6 U2'
_cell_volume   227.59571477
_cell_formula_units_Z   2
loop_
 _symmetry_equiv_pos_site_id
 _symmetry_equiv_pos_as_xyz
  1  'x, y, z'
loop_
 _atom_site_type_symbol
 _atom_site_label
 _atom_site_symmetry_multiplicity
 _atom_site_fract_x
 _atom_site_fract_y
 _atom_site_fract_z
 _atom_site_occupancy
  Lu  Lu0  1  0.16894500  0.33789000  0.25000000  1
  Lu  Lu1  1  0.66211000  0.83105500  0.25000000  1
  Lu  Lu2  1  0.16894500  0.83105500  0.25000000  1
  Lu  Lu3  1  0.83105500  0.66211000  0.75000000  1
  Lu  Lu4  1  0.33789000  0.16894500  0.75000000  1
  Lu  Lu5  1  0.83105500  0.16894500  0.75000000  1
  U  U0  1  0.33333300  0.66666700  0.75000000  1
  U  U1  1  0.66666700  0.33333300  0.25000000  1
loop_
_geom_bond_atom_site_label_1
_geom_bond_atom_site_label_2
_geom_bond_distance
_geom_bond_site_symmetry_2
Lu0 U0 3.392139 1_555
Lu0 U0 3.392139 1_554
Lu0 Lu2 3.398467 1_555
Lu0 Lu1 3.398467 1_555
Lu0 Lu4 3.423884 1_554
Lu0 Lu4 3.423884 1_555
Lu0 Lu5 3.423884 1_455
Lu0 Lu5 3.423884 1_454
Lu0 U1 3.445672 1_455
Lu0 U1 3.445678 1_555
Lu0 Lu2 3.492669 1_545
Lu0 Lu1 3.492669 1_445
Lu1 U0 3.392139 1_555
Lu1 U0 3.392139 1_554
Lu1 Lu2 3.398467 1_555
Lu1 Lu3 3.423884 1_554
Lu1 Lu3 3.423884 1_555
Lu1 Lu5 3.423884 1_565
Lu1 Lu5 3.423884 1_564
Lu1 U1 3.445672 1_565
Lu1 U1 3.445678 1_555
Lu1 Lu2 3.492669 1_655
Lu2 U0 3.392135 1_555
Lu2 U0 3.392135 1_554
Lu2 Lu4 3.423884 1_564
Lu2 Lu4 3.423884 1_565
Lu2 Lu3 3.423884 1_455
Lu2 Lu3 3.423884 1_454
Lu2 U1 3.445675 1_455
Lu2 U1 3.445675 1_565
Lu3 U1 3.392139 1_555
Lu3 U1 3.392139 1_556
Lu3 Lu5 3.398467 1_555
Lu3 Lu4 3.398467 1_555
Lu3 U0 3.445672 1_655
Lu3 U0 3.445678 1_555
Lu3 Lu5 3.492669 1_565
Lu3 Lu4 3.492669 1_665
Lu4 U1 3.392139 1_555
Lu4 U1 3.392139 1_556
Lu4 Lu5 3.398467 1_555
Lu4 U0 3.445672 1_545
Lu4 U0 3.445678 1_555
Lu4 Lu5 3.492669 1_455
Lu5 U1 3.392135 1_556
Lu5 U1 3.392135 1_555
Lu5 U0 3.445675 1_545
Lu5 U0 3.445675 1_655
