# generated using pymatgen
data_Nd3Mg
_symmetry_space_group_name_H-M   'P 1'
_cell_length_a   6.19143908
_cell_length_b   6.19143908
_cell_length_c   6.19143908
_cell_angle_alpha   132.32725111
_cell_angle_beta   132.32725111
_cell_angle_gamma   69.71265783
_symmetry_Int_Tables_number   1
_chemical_formula_structural   Nd3Mg
_chemical_formula_sum   'Nd3 Mg1'
_cell_volume   127.23118749
_cell_formula_units_Z   1
loop_
 _symmetry_equiv_pos_site_id
 _symmetry_equiv_pos_as_xyz
  1  'x, y, z'
loop_
 _atom_site_type_symbol
 _atom_site_label
 _atom_site_symmetry_multiplicity
 _atom_site_fract_x
 _atom_site_fract_y
 _atom_site_fract_z
 _atom_site_occupancy
  Nd  Nd0  1  0.50000000  0.50000000  -0.00000000  1
  Nd  Nd1  1  0.75000000  0.25000000  0.50000100  1
  Nd  Nd2  1  0.25000000  0.75000000  0.50000100  1
  Mg  Mg0  1  0.00000000  -0.00000000  0.00000000  1
loop_
_geom_bond_atom_site_label_1
_geom_bond_atom_site_label_2
_geom_bond_distance
_geom_bond_site_symmetry_2
Nd0 Nd2 3.565634 1_554
Nd0 Nd1 3.565634 1_554
Nd0 Nd1 3.565638 1_565
Nd0 Nd2 3.565638 1_655
Nd0 Nd2 3.565642 1_544
Nd0 Nd1 3.565642 1_454
Nd0 Nd1 3.565645 1_555
Nd0 Nd2 3.565645 1_555
Nd1 Nd2 3.538535 1_645
Nd1 Nd2 3.538535 1_656
Nd1 Nd2 3.538535 1_555
Nd1 Nd2 3.538535 1_544
Mg0 Nd0 3.538535 1_455
Mg0 Nd0 3.538535 1_545
Mg0 Nd0 3.538535 1_444
Mg0 Nd0 3.538535 1_556
Mg0 Nd2 3.565634 1_544
Mg0 Nd1 3.565634 1_454
Mg0 Nd2 3.565638 1_555
Mg0 Nd1 3.565638 1_555
Mg0 Nd1 3.565642 1_444
Mg0 Nd2 3.565642 1_444
Mg0 Nd1 3.565645 1_455
Mg0 Nd2 3.565645 1_545
