# generated using pymatgen
data_ZnSn3
_symmetry_space_group_name_H-M   'P 1'
_cell_length_a   5.23357164
_cell_length_b   5.23357164
_cell_length_c   5.23357164
_cell_angle_alpha   60.00000000
_cell_angle_beta   60.00000000
_cell_angle_gamma   60.00000000
_symmetry_Int_Tables_number   1
_chemical_formula_structural   ZnSn3
_chemical_formula_sum   'Zn1 Sn3'
_cell_volume   101.36301585
_cell_formula_units_Z   1
loop_
 _symmetry_equiv_pos_site_id
 _symmetry_equiv_pos_as_xyz
  1  'x, y, z'
loop_
 _atom_site_type_symbol
 _atom_site_label
 _atom_site_symmetry_multiplicity
 _atom_site_fract_x
 _atom_site_fract_y
 _atom_site_fract_z
 _atom_site_occupancy
  Zn  Zn0  1  0.00000000  0.00000000  0.00000000  1
  Sn  Sn0  1  0.25000000  0.25000000  0.25000000  1
  Sn  Sn1  1  0.75000000  0.75000000  0.75000000  1
  Sn  Sn2  1  0.50000000  0.50000000  0.50000000  1
loop_
_geom_bond_atom_site_label_1
_geom_bond_atom_site_label_2
_geom_bond_distance
_geom_bond_site_symmetry_2
Sn0 Zn0 3.204895 1_556
Sn0 Sn2 3.204895 1_545
Sn0 Sn2 3.204895 1_554
Sn0 Zn0 3.204895 1_555
Sn0 Sn2 3.204895 1_455
Sn0 Zn0 3.204895 1_565
Sn0 Zn0 3.204895 1_655
Sn0 Sn2 3.204895 1_555
Sn1 Sn2 3.204895 1_655
Sn1 Zn0 3.204895 1_666
Sn1 Zn0 3.204895 1_656
Sn1 Sn2 3.204895 1_556
Sn1 Zn0 3.204895 1_566
Sn1 Zn0 3.204895 1_665
Sn1 Sn2 3.204895 1_565
Sn1 Sn2 3.204895 1_555
