# generated using pymatgen
data_LiZnAs
_symmetry_space_group_name_H-M   'P 1'
_cell_length_a   4.17541080
_cell_length_b   4.17541132
_cell_length_c   4.17541176
_cell_angle_alpha   60.00001233
_cell_angle_beta   60.00000821
_cell_angle_gamma   60.00000964
_symmetry_Int_Tables_number   1
_chemical_formula_structural   LiZnAs
_chemical_formula_sum   'Li1 Zn1 As1'
_cell_volume   51.47340347
_cell_formula_units_Z   1
loop_
 _symmetry_equiv_pos_site_id
 _symmetry_equiv_pos_as_xyz
  1  'x, y, z'
loop_
 _atom_site_type_symbol
 _atom_site_label
 _atom_site_symmetry_multiplicity
 _atom_site_fract_x
 _atom_site_fract_y
 _atom_site_fract_z
 _atom_site_occupancy
  Li  Li0  1  0.25000000  0.25000000  0.25000000  1
  Zn  Zn0  1  0.75000000  0.75000000  0.75000000  1
  As  As0  1  0.00000000  0.00000000  0.00000000  1
loop_
_geom_bond_atom_site_label_1
_geom_bond_atom_site_label_2
_geom_bond_distance
_geom_bond_site_symmetry_2
Li0 Zn0 2.952462 1_554
Li0 Zn0 2.952462 1_445
Li0 Zn0 2.952462 1_455
Li0 Zn0 2.952462 1_454
Li0 Zn0 2.952462 1_544
Li0 Zn0 2.952462 1_545
As0 Zn0 2.556907 1_444
As0 Li0 2.556907 1_555
As0 Li0 2.556907 1_455
As0 Zn0 2.556907 1_544
As0 Zn0 2.556907 1_454
As0 Li0 2.556907 1_545
As0 Li0 2.556907 1_554
As0 Zn0 2.556907 1_445
