# generated using pymatgen
data_CdNi
_symmetry_space_group_name_H-M   'P 1'
_cell_length_a   8.04117125
_cell_length_b   8.04111088
_cell_length_c   8.04071526
_cell_angle_alpha   60.00162146
_cell_angle_beta   60.00187583
_cell_angle_gamma   60.00313267
_symmetry_Int_Tables_number   1
_chemical_formula_structural   CdNi
_chemical_formula_sum   'Cd12 Ni12'
_cell_volume   367.65189336
_cell_formula_units_Z   12
loop_
 _symmetry_equiv_pos_site_id
 _symmetry_equiv_pos_as_xyz
  1  'x, y, z'
loop_
 _atom_site_type_symbol
 _atom_site_label
 _atom_site_symmetry_multiplicity
 _atom_site_fract_x
 _atom_site_fract_y
 _atom_site_fract_z
 _atom_site_occupancy
  Cd  Cd0  1  0.82325888  0.42675374  0.42674271  1
  Cd  Cd1  1  0.42674779  0.82325806  0.82324922  1
  Cd  Cd2  1  0.42674779  0.82325906  0.42674593  1
  Cd  Cd3  1  0.42673939  0.42673704  0.82326279  1
  Cd  Cd4  1  0.82325788  0.42675374  0.82324567  1
  Cd  Cd5  1  0.82324888  0.82324422  0.42675345  1
  Cd  Cd6  1  0.57325321  0.17674094  0.57325507  1
  Cd  Cd7  1  0.17674212  0.57324626  0.17675433  1
  Cd  Cd8  1  0.17674112  0.57324726  0.57325829  1
  Cd  Cd9  1  0.57326161  0.57326396  0.17673721  1
  Cd  Cd10  1  0.57325221  0.17674194  0.17675078  1
  Cd  Cd11  1  0.17675112  0.17675578  0.57324655  1
  Ni  Ni0  1  0.20156926  0.20153851  0.20153496  1
  Ni  Ni1  1  0.20156926  0.20153851  0.89535627  1
  Ni  Ni2  1  0.89540320  0.20153614  0.20153033  1
  Ni  Ni3  1  0.20156451  0.89537782  0.20152834  1
  Ni  Ni4  1  0.79843174  0.79846249  0.79846604  1
  Ni  Ni5  1  0.79843174  0.79846249  0.10464373  1
  Ni  Ni6  1  0.79843649  0.10462218  0.79847266  1
  Ni  Ni7  1  0.10459680  0.79846486  0.79847067  1
  Ni  Ni8  1  -0.00000000  0.00000000  -0.00000000  1
  Ni  Ni9  1  -0.00000000  0.00000000  0.50000100  1
  Ni  Ni10  1  0.50000100  0.00000000  -0.00000000  1
  Ni  Ni11  1  -0.00000000  0.50000100  -0.00000000  1
loop_
_geom_bond_atom_site_label_1
_geom_bond_atom_site_label_2
_geom_bond_distance
_geom_bond_site_symmetry_2
Cd0 Ni5 2.803736 1_555
Cd0 Ni6 2.803908 1_555
Cd0 Ni2 2.841453 1_555
Cd0 Ni0 2.841685 1_655
Cd0 Ni11 2.842609 1_655
Cd0 Ni9 2.842858 1_655
Cd0 Cd7 2.962172 1_655
Cd0 Cd9 2.962222 1_555
Cd0 Cd11 2.962307 1_655
Cd0 Cd6 2.962376 1_555
Cd0 Cd4 3.188163 1_555
Cd0 Cd5 3.188227 1_555
Cd0 Cd3 3.188483 1_555
Cd0 Cd2 3.188529 1_555
Cd1 Ni4 2.803668 1_555
Cd1 Ni7 2.803960 1_555
Cd1 Ni3 2.841333 1_556
Cd1 Ni1 2.841444 1_565
Cd1 Ni10 2.842619 1_566
Cd1 Ni8 2.842847 1_566
Cd1 Cd9 2.962200 1_556
Cd1 Cd6 2.962208 1_565
Cd1 Cd11 2.962323 1_565
Cd1 Cd7 2.962370 1_556
Cd1 Cd2 3.188166 1_555
Cd1 Cd5 3.188312 1_555
Cd1 Cd3 3.188449 1_555
Cd1 Cd4 3.188521 1_555
Cd2 Ni5 2.803658 1_555
Cd2 Ni7 2.803969 1_555
Cd2 Ni3 2.841350 1_555
Cd2 Ni0 2.841447 1_565
Cd2 Ni10 2.842619 1_565
Cd2 Ni9 2.842847 1_565
Cd2 Cd9 2.962214 1_555
Cd2 Cd8 2.962376 1_555
Cd2 Cd5 3.188304 1_555
Cd2 Cd3 3.188456 1_555
Cd3 Ni6 2.803864 1_555
Cd3 Ni7 2.804094 1_555
Cd3 Ni0 2.841266 1_556
Cd3 Ni1 2.841276 1_555
Cd3 Ni10 2.842711 1_556
Cd3 Ni11 2.842755 1_556
Cd3 Cd7 2.962211 1_556
Cd3 Cd6 2.962214 1_555
Cd3 Cd8 2.962222 1_555
Cd3 Cd4 3.188471 1_555
Cd4 Ni4 2.803750 1_555
Cd4 Ni6 2.803890 1_555
Cd4 Ni2 2.841449 1_556
Cd4 Ni1 2.841685 1_655
Cd4 Ni11 2.842616 1_656
Cd4 Ni8 2.842859 1_656
Cd4 Cd8 2.962176 1_655
Cd4 Cd9 2.962215 1_556
Cd4 Cd5 3.188231 1_555
Cd5 Ni5 2.803618 1_555
Cd5 Ni4 2.803650 1_555
Cd5 Ni2 2.841638 1_565
Cd5 Ni3 2.841755 1_655
Cd5 Ni8 2.842714 1_665
Cd5 Ni9 2.842720 1_665
Cd5 Cd8 2.962311 1_655
Cd5 Cd7 2.962314 1_655
Cd5 Cd6 2.962317 1_565
Cd6 Ni1 2.803655 1_555
Cd6 Ni2 2.803966 1_555
Cd6 Ni6 2.841350 1_555
Cd6 Ni4 2.841444 1_545
Cd6 Ni10 2.842613 1_556
Cd6 Ni9 2.842841 1_655
Cd6 Cd9 3.188465 1_555
Cd6 Cd8 3.188537 1_555
Cd7 Ni0 2.803735 1_555
Cd7 Ni3 2.803899 1_555
Cd7 Ni7 2.841442 1_554
Cd7 Ni5 2.841678 1_455
Cd7 Ni11 2.842604 1_555
Cd7 Ni8 2.842859 1_565
Cd7 Cd8 3.188175 1_555
Cd7 Cd9 3.188483 1_555
Cd8 Ni1 2.803733 1_555
Cd8 Ni3 2.803905 1_555
Cd8 Ni7 2.841453 1_555
Cd8 Ni4 2.841681 1_455
Cd8 Ni11 2.842603 1_556
Cd8 Ni9 2.842852 1_565
Cd8 Cd9 3.188492 1_555
Cd9 Ni3 2.803861 1_555
Cd9 Ni2 2.804090 1_555
Cd9 Ni4 2.841262 1_554
Cd9 Ni5 2.841276 1_555
Cd9 Ni10 2.842706 1_565
Cd9 Ni11 2.842750 1_655
Cd10 Ni0 2.803654 1_555
Cd10 Ni2 2.803969 1_555
Cd10 Ni6 2.841326 1_554
Cd10 Ni5 2.841438 1_545
Cd10 Ni10 2.842608 1_555
Cd10 Ni8 2.842847 1_655
Cd10 Cd3 2.962196 1_554
Cd10 Cd2 2.962204 1_545
Cd10 Cd5 2.962323 1_545
Cd10 Cd4 2.962370 1_554
Cd10 Cd6 3.188178 1_555
Cd10 Cd11 3.188312 1_555
Cd10 Cd9 3.188461 1_555
Cd10 Cd7 3.188521 1_555
Cd11 Ni1 2.803627 1_555
Cd11 Ni0 2.803635 1_555
Cd11 Ni7 2.841632 1_545
Cd11 Ni6 2.841748 1_455
Cd11 Ni9 2.842709 1_555
Cd11 Ni8 2.842714 1_556
Cd11 Cd2 2.962313 1_545
Cd11 Cd4 2.962314 1_455
Cd11 Cd7 3.188231 1_555
Cd11 Cd8 3.188239 1_555
Cd11 Cd6 3.188316 1_555
Ni0 Ni10 2.420725 1_555
Ni0 Ni9 2.420896 1_555
Ni0 Ni11 2.420921 1_555
Ni0 Ni1 2.461896 1_554
Ni0 Ni3 2.461918 1_545
Ni0 Ni2 2.461962 1_455
Ni1 Ni10 2.420733 1_556
Ni1 Ni8 2.420891 1_556
Ni1 Ni11 2.420929 1_556
Ni1 Ni3 2.461918 1_546
Ni1 Ni2 2.461966 1_456
Ni2 Ni8 2.420682 1_655
Ni2 Ni9 2.420689 1_655
Ni2 Ni3 2.461991 1_645
Ni3 Ni8 2.420799 1_565
Ni3 Ni9 2.420812 1_565
Ni4 Ni9 2.420885 1_665
Ni4 Ni5 2.461888 1_556
Ni4 Ni6 2.461910 1_565
Ni4 Ni7 2.461954 1_655
Ni5 Ni8 2.420877 1_665
Ni5 Ni6 2.461910 1_564
Ni5 Ni7 2.461958 1_654
Ni6 Ni8 2.420785 1_656
Ni6 Ni9 2.420805 1_655
Ni6 Ni7 2.461983 1_645
Ni7 Ni8 2.420669 1_566
Ni7 Ni9 2.420682 1_565
Ni10 Ni6 2.420645 1_554
Ni10 Ni3 2.420652 1_545
Ni10 Ni4 2.420714 1_544
Ni10 Ni5 2.420727 1_545
Ni11 Ni7 2.420715 1_554
Ni11 Ni2 2.420721 1_455
Ni11 Ni4 2.420910 1_454
Ni11 Ni5 2.420922 1_455
