# generated using pymatgen
data_Al2Cu
_symmetry_space_group_name_H-M   'P 1'
_cell_length_a   4.06067500
_cell_length_b   4.04639121
_cell_length_c   4.06067500
_cell_angle_alpha   120.11684878
_cell_angle_beta   90.00000000
_cell_angle_gamma   120.11684878
_symmetry_Int_Tables_number   1
_chemical_formula_structural   Al2Cu
_chemical_formula_sum   'Al2 Cu1'
_cell_volume   47.01192120
_cell_formula_units_Z   1
loop_
 _symmetry_equiv_pos_site_id
 _symmetry_equiv_pos_as_xyz
  1  'x, y, z'
loop_
 _atom_site_type_symbol
 _atom_site_label
 _atom_site_symmetry_multiplicity
 _atom_site_fract_x
 _atom_site_fract_y
 _atom_site_fract_z
 _atom_site_occupancy
  Al  Al0  1  0.00000000  0.00000000  0.00000000  1
  Al  Al1  1  0.50000000  0.00000000  0.50000000  1
  Cu  Cu0  1  0.25000000  0.50000000  0.75000000  1
loop_
_geom_bond_atom_site_label_1
_geom_bond_atom_site_label_2
_geom_bond_distance
_geom_bond_site_symmetry_2
Al0 Cu0 2.480817 1_444
Al0 Cu0 2.480817 1_555
Al0 Cu0 2.480818 1_554
Al0 Cu0 2.480818 1_544
Al0 Al1 2.851094 1_444
Al0 Al1 2.851094 1_565
Al0 Al1 2.871331 1_554
Al0 Al1 2.871331 1_455
Al0 Al1 2.871331 1_454
Al0 Al1 2.871331 1_555
Al1 Cu0 2.480817 1_544
Al1 Cu0 2.480817 1_655
Al1 Cu0 2.480818 1_555
Al1 Cu0 2.480818 1_545
