# generated using pymatgen
data_TiSn3
_symmetry_space_group_name_H-M   'P 1'
_cell_length_a   6.28609032
_cell_length_b   6.28609032
_cell_length_c   5.49263100
_cell_angle_alpha   90.00000000
_cell_angle_beta   90.00000000
_cell_angle_gamma   120.00000337
_symmetry_Int_Tables_number   1
_chemical_formula_structural   TiSn3
_chemical_formula_sum   'Ti2 Sn6'
_cell_volume   187.96295940
_cell_formula_units_Z   2
loop_
 _symmetry_equiv_pos_site_id
 _symmetry_equiv_pos_as_xyz
  1  'x, y, z'
loop_
 _atom_site_type_symbol
 _atom_site_label
 _atom_site_symmetry_multiplicity
 _atom_site_fract_x
 _atom_site_fract_y
 _atom_site_fract_z
 _atom_site_occupancy
  Ti  Ti0  1  0.33333300  0.66666700  0.75000000  1
  Ti  Ti1  1  0.66666700  0.33333300  0.25000000  1
  Sn  Sn0  1  0.17086400  0.34172800  0.25000000  1
  Sn  Sn1  1  0.65827200  0.82913600  0.25000000  1
  Sn  Sn2  1  0.17086400  0.82913600  0.25000000  1
  Sn  Sn3  1  0.82913600  0.65827200  0.75000000  1
  Sn  Sn4  1  0.34172800  0.17086400  0.75000000  1
  Sn  Sn5  1  0.82913600  0.17086400  0.75000000  1
loop_
_geom_bond_atom_site_label_1
_geom_bond_atom_site_label_2
_geom_bond_distance
_geom_bond_site_symmetry_2
Sn0 Sn1 3.063891 1_555
Sn0 Sn2 3.063891 1_555
Sn0 Ti1 3.143374 1_455
Sn0 Ti1 3.143381 1_555
Sn0 Sn1 3.222199 1_445
Sn0 Sn2 3.222200 1_545
Sn0 Ti0 3.266710 1_555
Sn0 Ti0 3.266710 1_554
Sn0 Sn5 3.317093 1_454
Sn0 Sn5 3.317093 1_455
Sn0 Sn4 3.317093 1_555
Sn0 Sn4 3.317093 1_554
Sn1 Sn2 3.063891 1_555
Sn1 Ti1 3.143374 1_565
Sn1 Ti1 3.143381 1_555
Sn1 Sn2 3.222200 1_655
Sn1 Ti0 3.266710 1_554
Sn1 Ti0 3.266710 1_555
Sn1 Sn5 3.317093 1_564
Sn1 Sn5 3.317093 1_565
Sn1 Sn3 3.317093 1_555
Sn1 Sn3 3.317093 1_554
Sn2 Ti1 3.143377 1_455
Sn2 Ti1 3.143377 1_565
Sn2 Ti0 3.266708 1_555
Sn2 Ti0 3.266708 1_554
Sn2 Sn4 3.317093 1_565
Sn2 Sn4 3.317093 1_564
Sn2 Sn3 3.317093 1_455
Sn2 Sn3 3.317093 1_454
Sn3 Sn4 3.063891 1_555
Sn3 Sn5 3.063891 1_555
Sn3 Ti0 3.143374 1_655
Sn3 Ti0 3.143381 1_555
Sn3 Sn4 3.222199 1_665
Sn3 Sn5 3.222200 1_565
Sn3 Ti1 3.266710 1_555
Sn3 Ti1 3.266710 1_556
Sn4 Sn5 3.063891 1_555
Sn4 Ti0 3.143374 1_545
Sn4 Ti0 3.143381 1_555
Sn4 Sn5 3.222200 1_455
Sn4 Ti1 3.266710 1_555
Sn4 Ti1 3.266710 1_556
Sn5 Ti0 3.143377 1_545
Sn5 Ti0 3.143377 1_655
Sn5 Ti1 3.266708 1_556
Sn5 Ti1 3.266708 1_555
