# generated using pymatgen
data_Sm2ZnHg
_symmetry_space_group_name_H-M   'P 1'
_cell_length_a   5.24410357
_cell_length_b   5.24424309
_cell_length_c   5.24408492
_cell_angle_alpha   59.99932750
_cell_angle_beta   60.00209157
_cell_angle_gamma   59.99929084
_symmetry_Int_Tables_number   1
_chemical_formula_structural   Sm2ZnHg
_chemical_formula_sum   'Sm2 Zn1 Hg1'
_cell_volume   101.97908762
_cell_formula_units_Z   1
loop_
 _symmetry_equiv_pos_site_id
 _symmetry_equiv_pos_as_xyz
  1  'x, y, z'
loop_
 _atom_site_type_symbol
 _atom_site_label
 _atom_site_symmetry_multiplicity
 _atom_site_fract_x
 _atom_site_fract_y
 _atom_site_fract_z
 _atom_site_occupancy
  Sm  Sm0  1  0.99999794  0.00000160  0.00000189  1
  Sm  Sm1  1  0.50000202  0.49999689  0.49999892  1
  Zn  Zn0  1  0.75000095  0.75000177  0.74999912  1
  Hg  Hg0  1  0.24999909  0.25000074  0.25000007  1
loop_
_geom_bond_atom_site_label_1
_geom_bond_atom_site_label_2
_geom_bond_distance
_geom_bond_site_symmetry_2
Sm0 Zn0 3.211361 1_545
Sm0 Zn0 3.211362 1_544
Sm0 Zn0 3.211380 1_554
Sm0 Zn0 3.211396 1_644
Sm1 Zn0 3.211359 1_545
Sm1 Zn0 3.211372 1_554
Sm1 Zn0 3.211381 1_555
Sm1 Zn0 3.211388 1_455
Hg0 Sm1 3.211355 1_555
Hg0 Sm0 3.211357 1_455
Hg0 Sm1 3.211371 1_455
Hg0 Sm1 3.211378 1_554
Hg0 Sm0 3.211379 1_555
Hg0 Sm0 3.211381 1_456
Hg0 Sm0 3.211383 1_465
Hg0 Sm1 3.211396 1_545
