# generated using pymatgen
data_SrMg5
_symmetry_space_group_name_H-M   'P 1'
_cell_length_a   5.02906601
_cell_length_b   6.18801912
_cell_length_c   6.18801900
_cell_angle_alpha   59.99986362
_cell_angle_beta   90.00000000
_cell_angle_gamma   90.00000000
_symmetry_Int_Tables_number   1
_chemical_formula_structural   SrMg5
_chemical_formula_sum   'Sr1 Mg5'
_cell_volume   166.77104750
_cell_formula_units_Z   1
loop_
 _symmetry_equiv_pos_site_id
 _symmetry_equiv_pos_as_xyz
  1  'x, y, z'
loop_
 _atom_site_type_symbol
 _atom_site_label
 _atom_site_symmetry_multiplicity
 _atom_site_fract_x
 _atom_site_fract_y
 _atom_site_fract_z
 _atom_site_occupancy
  Sr  Sr0  1  0.50000000  0.66666700  0.33333300  1
  Mg  Mg0  1  -0.00000000  0.16981442  0.83018558  1
  Mg  Mg1  1  0.50000000  0.33333300  0.00000100  1
  Mg  Mg2  1  -0.00000000  0.16351758  0.33333300  1
  Mg  Mg3  1  0.50000000  0.00000000  0.66666700  1
  Mg  Mg4  1  -0.00000000  0.66666700  0.83648142  1
loop_
_geom_bond_atom_site_label_1
_geom_bond_atom_site_label_2
_geom_bond_distance
_geom_bond_site_symmetry_2
Mg0 Mg3 3.084513 1_455
Mg0 Mg3 3.084513 1_555
Mg0 Mg1 3.084516 1_556
Mg0 Mg1 3.084516 1_456
Mg0 Mg2 3.094187 1_556
Mg0 Mg4 3.094190 1_545
Mg0 Mg4 3.094197 1_555
Mg0 Mg2 3.094200 1_555
Mg0 Sr0 3.971850 1_555
Mg0 Sr0 3.971850 1_455
Mg0 Sr0 4.002078 1_446
Mg0 Sr0 4.002078 1_546
Mg1 Mg2 3.084507 1_555
Mg1 Mg2 3.084507 1_655
Mg1 Mg4 3.084514 1_554
Mg1 Mg4 3.084514 1_654
Mg1 Sr0 3.572646 1_545
Mg1 Sr0 3.572653 1_555
Mg1 Sr0 3.572657 1_554
Mg2 Mg3 3.084514 1_555
Mg2 Mg3 3.084514 1_455
Mg2 Mg4 3.094184 1_545
Mg2 Mg4 3.094190 1_554
Mg2 Sr0 3.971845 1_445
Mg2 Sr0 3.971845 1_545
Mg2 Sr0 4.002093 1_555
Mg2 Sr0 4.002093 1_455
Mg3 Mg4 3.084511 1_545
Mg3 Mg4 3.084511 1_645
Mg3 Sr0 3.572646 1_546
Mg3 Sr0 3.572651 1_555
Mg3 Sr0 3.572659 1_545
Mg4 Sr0 3.971850 1_456
Mg4 Sr0 3.971850 1_556
Mg4 Sr0 4.002088 1_555
Mg4 Sr0 4.002088 1_455
