# generated using pymatgen
data_CaAgP
_symmetry_space_group_name_H-M   'P 1'
_cell_length_a   4.72550977
_cell_length_b   4.72550977
_cell_length_c   4.72550977
_cell_angle_alpha   60.00000000
_cell_angle_beta   60.00000000
_cell_angle_gamma   60.00000000
_symmetry_Int_Tables_number   1
_chemical_formula_structural   CaAgP
_chemical_formula_sum   'Ca1 Ag1 P1'
_cell_volume   74.61583394
_cell_formula_units_Z   1
loop_
 _symmetry_equiv_pos_site_id
 _symmetry_equiv_pos_as_xyz
  1  'x, y, z'
loop_
 _atom_site_type_symbol
 _atom_site_label
 _atom_site_symmetry_multiplicity
 _atom_site_fract_x
 _atom_site_fract_y
 _atom_site_fract_z
 _atom_site_occupancy
  Ca  Ca0  1  0.75000000  0.75000000  0.75000000  1
  Ag  Ag0  1  0.50000000  0.50000000  0.50000000  1
  P  P0  1  0.00000000  0.00000000  0.00000000  1
loop_
_geom_bond_atom_site_label_1
_geom_bond_atom_site_label_2
_geom_bond_distance
_geom_bond_site_symmetry_2
Ca0 P0 2.893772 1_566
Ca0 P0 2.893772 1_665
Ca0 P0 2.893772 1_656
Ca0 P0 2.893772 1_666
Ag0 Ca0 2.893772 1_555
Ag0 Ca0 2.893772 1_545
Ag0 Ca0 2.893772 1_554
Ag0 Ca0 2.893772 1_455
