# generated using pymatgen
data_AgPbO2
_symmetry_space_group_name_H-M   'P 1'
_cell_length_a   3.57167600
_cell_length_b   6.47803000
_cell_length_c   6.84445609
_cell_angle_alpha   69.43106204
_cell_angle_beta   90.00000000
_cell_angle_gamma   90.00000000
_symmetry_Int_Tables_number   1
_chemical_formula_structural   AgPbO2
_chemical_formula_sum   'Ag2 Pb2 O4'
_cell_volume   148.26746068
_cell_formula_units_Z   2
loop_
 _symmetry_equiv_pos_site_id
 _symmetry_equiv_pos_as_xyz
  1  'x, y, z'
loop_
 _atom_site_type_symbol
 _atom_site_label
 _atom_site_symmetry_multiplicity
 _atom_site_fract_x
 _atom_site_fract_y
 _atom_site_fract_z
 _atom_site_occupancy
  Ag  Ag0  1  0.50000000  0.00000000  0.50000000  1
  Ag  Ag1  1  0.00000000  0.50000000  0.50000000  1
  Pb  Pb0  1  0.50000000  0.50000000  0.00000000  1
  Pb  Pb1  1  0.00000000  0.00000000  0.00000000  1
  O  O0  1  0.00000000  0.58083700  0.17545400  1
  O  O1  1  0.00000000  0.41916300  0.82454600  1
  O  O2  1  0.50000000  0.14473800  0.17519800  1
  O  O3  1  0.50000000  0.85526200  0.82480200  1
loop_
_geom_bond_atom_site_label_1
_geom_bond_atom_site_label_2
_geom_bond_distance
_geom_bond_site_symmetry_2
Ag0 O3 2.087252 1_545
Ag0 O2 2.087252 1_555
Ag1 O1 2.095521 1_555
Ag1 O0 2.095521 1_555
O0 Pb0 2.312456 1_555
O0 Pb0 2.312456 1_455
O0 Pb1 2.554208 1_565
O1 Pb0 2.312456 1_556
O1 Pb0 2.312456 1_456
O1 Pb1 2.554208 1_556
O2 Pb0 2.189797 1_555
O2 Pb1 2.509243 1_555
O2 Pb1 2.509243 1_655
O3 Pb0 2.189797 1_556
O3 Pb1 2.509243 1_666
O3 Pb1 2.509243 1_566
