# generated using pymatgen
data_Cs2Li3(BO2)5
_symmetry_space_group_name_H-M   'P 1'
_cell_length_a   6.90882975
_cell_length_b   6.90882975
_cell_length_c   13.07438600
_cell_angle_alpha   90.00000000
_cell_angle_beta   90.00000000
_cell_angle_gamma   115.48720954
_symmetry_Int_Tables_number   1
_chemical_formula_structural   Cs2Li3(BO2)5
_chemical_formula_sum   'Cs4 Li6 B10 O20'
_cell_volume   563.33244091
_cell_formula_units_Z   2
loop_
 _symmetry_equiv_pos_site_id
 _symmetry_equiv_pos_as_xyz
  1  'x, y, z'
loop_
 _atom_site_type_symbol
 _atom_site_label
 _atom_site_symmetry_multiplicity
 _atom_site_fract_x
 _atom_site_fract_y
 _atom_site_fract_z
 _atom_site_occupancy
  Cs  Cs0  1  0.70869900  0.70869900  0.50000000  1
  Cs  Cs1  1  0.29130100  0.29130100  0.00000000  1
  Cs  Cs2  1  0.76618200  0.23381800  0.25000000  1
  Cs  Cs3  1  0.23381800  0.76618200  0.75000000  1
  Li  Li0  1  0.31969700  0.68030300  0.25000000  1
  Li  Li1  1  0.68030300  0.31969700  0.75000000  1
  Li  Li2  1  0.44479100  0.82224700  0.03714300  1
  Li  Li3  1  0.55520900  0.17775300  0.53714300  1
  Li  Li4  1  0.82224700  0.44479100  0.96285700  1
  Li  Li5  1  0.17775300  0.55520900  0.46285700  1
  B  B0  1  0.08352300  0.91647700  0.25000000  1
  B  B1  1  0.91647700  0.08352300  0.75000000  1
  B  B2  1  0.72183500  0.71887400  0.16382800  1
  B  B3  1  0.27816500  0.28112600  0.66382800  1
  B  B4  1  0.71887400  0.72183500  0.83617200  1
  B  B5  1  0.28112600  0.27816500  0.33617200  1
  B  B6  1  0.28487200  0.95398100  0.41770700  1
  B  B7  1  0.71512800  0.04601900  0.91770700  1
  B  B8  1  0.95398100  0.28487200  0.58229300  1
  B  B9  1  0.04601900  0.71512800  0.08229300  1
  O  O0  1  0.52216900  0.69550600  0.14956700  1
  O  O1  1  0.47783100  0.30449400  0.64956700  1
  O  O2  1  0.69550600  0.52216900  0.85043300  1
  O  O3  1  0.30449400  0.47783100  0.35043300  1
  O  O4  1  0.14911000  0.82715200  0.34080100  1
  O  O5  1  0.85089000  0.17284800  0.84080100  1
  O  O6  1  0.82715200  0.14911000  0.65919900  1
  O  O7  1  0.17284800  0.85089000  0.15919900  1
  O  O8  1  0.17151500  0.15209600  0.25293300  1
  O  O9  1  0.82848500  0.84790400  0.75293300  1
  O  O10  1  0.15209600  0.17151500  0.74706700  1
  O  O11  1  0.84790400  0.82848500  0.24706700  1
  O  O12  1  0.18067700  0.37004700  0.59256500  1
  O  O13  1  0.81932300  0.62995300  0.09256500  1
  O  O14  1  0.37004700  0.18067700  0.40743500  1
  O  O15  1  0.62995300  0.81932300  0.90743500  1
  O  O16  1  0.34091900  0.87044300  0.49869500  1
  O  O17  1  0.65908100  0.12955700  0.99869500  1
  O  O18  1  0.87044300  0.34091900  0.50130500  1
  O  O19  1  0.12955700  0.65908100  0.00130500  1
loop_
_geom_bond_atom_site_label_1
_geom_bond_atom_site_label_2
_geom_bond_distance
_geom_bond_site_symmetry_2
Cs0 O18 3.185745 1_555
Cs0 O16 3.185745 1_555
Cs0 O1 3.214528 1_555
Cs0 O3 3.214528 1_555
Cs0 O11 3.443941 1_555
Cs0 O9 3.443941 1_555
Cs0 O6 3.480983 1_565
Cs0 O4 3.480983 1_655
Cs1 O19 3.185745 1_555
Cs1 O17 3.185745 1_554
Cs1 O2 3.214528 1_554
Cs1 O0 3.214528 1_555
Cs1 O10 3.443941 1_554
Cs1 O8 3.443941 1_555
Cs1 O5 3.480983 1_454
Cs1 O7 3.480983 1_545
Cs2 O11 3.085949 1_545
Cs2 O8 3.085949 1_655
Cs2 O13 3.316194 1_555
Cs2 O14 3.316194 1_555
Cs2 O18 3.376866 1_555
Cs2 O17 3.376866 1_554
Cs3 O9 3.085949 1_455
Cs3 O10 3.085949 1_565
Cs3 O15 3.316194 1_555
Cs3 O12 3.316194 1_555
Cs3 O19 3.376866 1_556
Cs3 O16 3.376866 1_555
Li0 O3 1.888275 1_555
Li0 O0 1.888275 1_555
Li0 O4 2.203800 1_555
Li0 O7 2.203800 1_555
Li1 O1 1.888275 1_555
Li1 O2 1.888275 1_555
Li1 O5 2.203800 1_555
Li1 O6 2.203800 1_555
Li2 O0 1.901555 1_555
Li2 O19 2.029937 1_555
Li2 O17 2.060857 1_564
Li2 O15 2.129566 1_554
Li2 O7 2.536859 1_555
Li3 O1 1.901555 1_555
Li3 O18 2.029937 1_555
Li3 O16 2.060857 1_545
Li3 O14 2.129566 1_555
Li3 O6 2.536859 1_555
Li4 O2 1.901555 1_555
Li4 O17 2.029937 1_555
Li4 O19 2.060857 1_656
Li4 O13 2.129566 1_556
Li4 O5 2.536859 1_555
Li5 O3 1.901555 1_555
Li5 O16 2.029937 1_555
Li5 O18 2.060857 1_455
Li5 O12 2.129566 1_555
Li5 O4 2.536859 1_555
B0 O11 1.472843 1_455
B0 O8 1.472843 1_565
B0 O4 1.495395 1_555
B0 O7 1.495395 1_555
B1 O9 1.472843 1_545
B1 O10 1.472843 1_655
B1 O6 1.495395 1_555
B1 O5 1.495395 1_555
B2 O0 1.331191 1_555
B2 O11 1.396010 1_555
B2 O13 1.433617 1_555
B3 O1 1.331191 1_555
B3 O10 1.396010 1_555
B3 O12 1.433617 1_555
B4 O2 1.331191 1_555
B4 O9 1.396010 1_555
B4 O15 1.433617 1_555
B5 O3 1.331191 1_555
B5 O8 1.396010 1_555
B5 O14 1.433617 1_555
B6 O16 1.340365 1_555
B6 O4 1.396877 1_555
B6 O14 1.422719 1_565
B7 O17 1.340365 1_555
B7 O5 1.396877 1_555
B7 O15 1.422719 1_545
B8 O18 1.340365 1_555
B8 O6 1.396877 1_555
B8 O12 1.422719 1_655
B9 O19 1.340365 1_555
B9 O7 1.396877 1_555
B9 O13 1.422719 1_455
