# generated using pymatgen
data_YEr4Al15
_symmetry_space_group_name_H-M   'P 1'
_cell_length_a   12.48909238
_cell_length_b   12.48909238
_cell_length_c   12.48909226
_cell_angle_alpha   28.15085065
_cell_angle_beta   28.15085065
_cell_angle_gamma   28.15085246
_symmetry_Int_Tables_number   1
_chemical_formula_structural   YEr4Al15
_chemical_formula_sum   'Y1 Er4 Al15'
_cell_volume   383.06231832
_cell_formula_units_Z   1
loop_
 _symmetry_equiv_pos_site_id
 _symmetry_equiv_pos_as_xyz
  1  'x, y, z'
loop_
 _atom_site_type_symbol
 _atom_site_label
 _atom_site_symmetry_multiplicity
 _atom_site_fract_x
 _atom_site_fract_y
 _atom_site_fract_z
 _atom_site_occupancy
  Y  Y0  1  0.00000000  0.00000000  0.00000000  1
  Er  Er0  1  0.13120200  0.13120200  0.13120200  1
  Er  Er1  1  0.86879800  0.86879800  0.86879800  1
  Er  Er2  1  0.40006600  0.40006600  0.40006600  1
  Er  Er3  1  0.59993400  0.59993400  0.59993400  1
  Al  Al0  1  0.13064600  0.63522500  0.63522500  1
  Al  Al1  1  0.63522500  0.63522500  0.13064600  1
  Al  Al2  1  0.63522500  0.13064600  0.63522500  1
  Al  Al3  1  0.36477500  0.86935400  0.36477500  1
  Al  Al4  1  0.36477500  0.36477500  0.86935400  1
  Al  Al5  1  0.86935400  0.36477500  0.36477500  1
  Al  Al6  1  0.43364200  0.88298500  0.88298500  1
  Al  Al7  1  0.88298500  0.88298500  0.43364200  1
  Al  Al8  1  0.88298500  0.43364200  0.88298500  1
  Al  Al9  1  0.11701500  0.56635800  0.11701500  1
  Al  Al10  1  0.11701500  0.11701500  0.56635800  1
  Al  Al11  1  0.56635800  0.11701500  0.11701500  1
  Al  Al12  1  0.50000000  0.50000000  0.00000000  1
  Al  Al13  1  0.50000000  0.00000000  0.50000000  1
  Al  Al14  1  0.00000000  0.50000000  0.50000000  1
loop_
_geom_bond_atom_site_label_1
_geom_bond_atom_site_label_2
_geom_bond_distance
_geom_bond_site_symmetry_2
Al0 Al8 2.932075 1_455
Al0 Al7 2.932075 1_455
Al0 Al3 2.958633 1_555
Al0 Al4 2.958633 1_555
Al0 Er2 2.988397 1_555
Al0 Al1 3.009519 1_456
Al0 Al2 3.009519 1_465
Al0 Er1 3.012417 1_455
Al0 Er0 3.038704 1_565
Al0 Er0 3.038704 1_556
Al0 Al1 3.065151 1_555
Al0 Al2 3.065151 1_555
Al1 Al8 2.932075 1_554
Al1 Al6 2.932075 1_554
Al1 Al3 2.958633 1_555
Al1 Al5 2.958633 1_555
Al1 Er2 2.988397 1_555
Al1 Al2 3.009519 1_564
Al1 Er1 3.012417 1_554
Al1 Er0 3.038704 1_565
Al1 Er0 3.038704 1_655
Al1 Al2 3.065151 1_555
Al2 Al6 2.932075 1_545
Al2 Al7 2.932075 1_545
Al2 Al5 2.958633 1_555
Al2 Al4 2.958633 1_555
Al2 Er2 2.988397 1_555
Al2 Er1 3.012417 1_545
Al2 Er0 3.038704 1_655
Al2 Er0 3.038704 1_556
Al3 Er3 2.988397 1_555
Al3 Al4 3.009519 1_564
Al3 Al5 3.009519 1_465
Al3 Er0 3.012417 1_565
Al3 Er1 3.038704 1_455
Al3 Er1 3.038704 1_554
Al3 Al4 3.065151 1_555
Al3 Al5 3.065151 1_555
Al4 Al9 2.932075 1_556
Al4 Er3 2.988397 1_555
Al4 Al5 3.009519 1_456
Al4 Er0 3.012417 1_556
Al4 Er1 3.038704 1_455
Al4 Er1 3.038704 1_545
Al4 Al5 3.065151 1_555
Al5 Al9 2.932075 1_655
Al5 Er3 2.988397 1_555
Al5 Er0 3.012417 1_655
Al5 Er1 3.038704 1_545
Al5 Er1 3.038704 1_554
Al6 Al7 2.729610 1_555
Al6 Al8 2.729610 1_555
Al6 Er0 3.022730 1_566
Al6 Er2 3.042535 1_556
Al6 Er2 3.042535 1_565
Al6 Y0 3.074834 1_566
Al7 Al8 2.729610 1_555
Al7 Er0 3.022730 1_665
Al7 Er2 3.042535 1_565
Al7 Er2 3.042535 1_655
Al7 Y0 3.074834 1_665
Al8 Er0 3.022730 1_656
Al8 Er2 3.042535 1_556
Al8 Er2 3.042535 1_655
Al8 Y0 3.074834 1_656
Al9 Er1 3.022730 1_454
Al9 Er3 3.042535 1_554
Al9 Er3 3.042535 1_455
Al9 Y0 3.074834 1_565
Al10 Al11 2.729610 1_555
Al10 Al9 2.729610 1_555
Al10 Al13 2.918894 1_555
Al10 Al14 2.918894 1_555
Al10 Al3 2.932075 1_545
Al10 Al5 2.932075 1_455
Al10 Er1 3.022730 1_445
Al10 Er3 3.042535 1_455
Al10 Er3 3.042535 1_545
Al10 Y0 3.074834 1_556
Al11 Al9 2.729610 1_555
Al11 Al13 2.918894 1_555
Al11 Al12 2.918894 1_555
Al11 Al3 2.932075 1_545
Al11 Al4 2.932075 1_554
Al11 Er1 3.022730 1_544
Al11 Er3 3.042535 1_554
Al11 Er3 3.042535 1_545
Al11 Y0 3.074834 1_655
Al12 Al9 2.918894 1_555
Al12 Al6 2.918894 1_554
Al12 Al8 2.918894 1_554
Al12 Er2 2.972136 1_555
Al12 Er3 2.972136 1_554
Al12 Al13 3.037335 1_564
Al12 Al13 3.037335 1_555
Al12 Al14 3.037335 1_555
Al12 Al14 3.037335 1_654
Al12 Y0 3.037335 1_655
Al12 Y0 3.037335 1_565
Al13 Al6 2.918894 1_545
Al13 Al7 2.918894 1_545
Al13 Er2 2.972136 1_555
Al13 Er3 2.972136 1_545
Al13 Y0 3.037335 1_655
Al13 Y0 3.037335 1_556
Al13 Al14 3.037335 1_555
Al13 Al14 3.037335 1_645
Al14 Al9 2.918894 1_555
Al14 Al8 2.918894 1_455
Al14 Al7 2.918894 1_455
Al14 Er2 2.972136 1_555
Al14 Er3 2.972136 1_455
Al14 Y0 3.037335 1_556
Al14 Y0 3.037335 1_565
