# generated using pymatgen
data_TmTh3
_symmetry_space_group_name_H-M   'P 1'
_cell_length_a   5.03811406
_cell_length_b   5.03783911
_cell_length_c   5.03719029
_cell_angle_alpha   89.97555511
_cell_angle_beta   89.98279057
_cell_angle_gamma   90.01753362
_symmetry_Int_Tables_number   1
_chemical_formula_structural   TmTh3
_chemical_formula_sum   'Tm1 Th3'
_cell_volume   127.84995138
_cell_formula_units_Z   1
loop_
 _symmetry_equiv_pos_site_id
 _symmetry_equiv_pos_as_xyz
  1  'x, y, z'
loop_
 _atom_site_type_symbol
 _atom_site_label
 _atom_site_symmetry_multiplicity
 _atom_site_fract_x
 _atom_site_fract_y
 _atom_site_fract_z
 _atom_site_occupancy
  Tm  Tm0  1  0.00000148  0.99999877  0.99999767  1
  Th  Th0  1  0.99999530  0.50000034  0.49999802  1
  Th  Th1  1  0.50000048  0.00000134  0.50000046  1
  Th  Th2  1  0.50000374  0.49999954  0.00000285  1
loop_
_geom_bond_atom_site_label_1
_geom_bond_atom_site_label_2
_geom_bond_distance
_geom_bond_site_symmetry_2
Th0 Tm0 3.561297 1_654
Th0 Tm0 3.561305 1_645
Th0 Th2 3.561610 1_556
Th0 Th2 3.561636 1_655
Th0 Th1 3.561820 1_555
Th0 Th1 3.561864 1_665
Th0 Th2 3.562646 1_555
Th0 Th2 3.562740 1_656
Th0 Tm0 3.562814 1_655
Th0 Tm0 3.562827 1_644
Th0 Th1 3.562918 1_565
Th0 Th1 3.562947 1_655
Th1 Th2 3.561286 1_555
Th1 Th2 3.561316 1_546
Th1 Tm0 3.561610 1_545
Th1 Tm0 3.561637 1_644
Th1 Tm0 3.562687 1_645
Th1 Tm0 3.562699 1_544
Th1 Th2 3.562818 1_545
Th1 Th2 3.562823 1_556
Th2 Tm0 3.561831 1_654
Th2 Tm0 3.561853 1_544
Th2 Tm0 3.562927 1_644
Th2 Tm0 3.562938 1_554
