# generated using pymatgen
data_SnPb
_symmetry_space_group_name_H-M   'P 1'
_cell_length_a   6.89964044
_cell_length_b   6.91665931
_cell_length_c   11.27960771
_cell_angle_alpha   89.84015672
_cell_angle_beta   90.18557949
_cell_angle_gamma   120.27464030
_symmetry_Int_Tables_number   1
_chemical_formula_structural   SnPb
_chemical_formula_sum   'Sn8 Pb8'
_cell_volume   464.87505951
_cell_formula_units_Z   8
loop_
 _symmetry_equiv_pos_site_id
 _symmetry_equiv_pos_as_xyz
  1  'x, y, z'
loop_
 _atom_site_type_symbol
 _atom_site_label
 _atom_site_symmetry_multiplicity
 _atom_site_fract_x
 _atom_site_fract_y
 _atom_site_fract_z
 _atom_site_occupancy
  Sn  Sn0_0  1  0.16755640  0.33327067  0.12505996  1
  Sn  Sn0_1  1  0.16755640  0.33327067  0.62505996  1
  Sn  Sn0_2  1  0.16755640  0.83327067  0.12505996  1
  Sn  Sn0_3  1  0.16755640  0.83327066  0.62505995  1
  Sn  Sn0_4  1  0.66755640  0.33327067  0.12505995  1
  Sn  Sn0_5  1  0.66755640  0.33327066  0.62505996  1
  Sn  Sn0_6  1  0.66755640  0.83327066  0.12505996  1
  Sn  Sn0_7  1  0.66755640  0.83327066  0.62505995  1
  Pb  Pb0_0  1  0.33244409  0.16673034  0.37493905  1
  Pb  Pb0_1  1  0.33244409  0.16673034  0.87493905  1
  Pb  Pb0_2  1  0.33244409  0.66673034  0.37493905  1
  Pb  Pb0_3  1  0.33244409  0.66673034  0.87493904  1
  Pb  Pb0_4  1  0.83244409  0.16673034  0.37493905  1
  Pb  Pb0_5  1  0.83244409  0.16673034  0.87493905  1
  Pb  Pb0_6  1  0.83244409  0.66673034  0.37493905  1
  Pb  Pb0_7  1  0.83244409  0.66673034  0.87493905  1
loop_
_geom_bond_atom_site_label_1
_geom_bond_atom_site_label_2
_geom_bond_distance
_geom_bond_site_symmetry_2
Sn0_0 Sn0_6 3.439734 1_555
Sn0_0 Sn0_6 3.439734 1_445
Sn0_0 Sn0_4 3.449820 1_455
Sn0_0 Sn0_4 3.449820 1_555
Sn0_0 Sn0_2 3.458330 1_555
Sn0_0 Sn0_2 3.458330 1_545
Sn0_1 Sn0_7 3.439734 1_555
Sn0_1 Sn0_7 3.439734 1_445
Sn0_1 Sn0_5 3.449820 1_455
Sn0_1 Sn0_5 3.449820 1_555
Sn0_1 Sn0_3 3.458330 1_555
Sn0_1 Sn0_3 3.458330 1_545
Sn0_2 Sn0_4 3.439734 1_455
Sn0_2 Sn0_4 3.439734 1_565
Sn0_2 Sn0_6 3.449820 1_455
Sn0_2 Sn0_6 3.449820 1_555
Sn0_3 Sn0_5 3.439734 1_565
Sn0_3 Sn0_5 3.439734 1_455
Sn0_3 Sn0_7 3.449820 1_555
Sn0_3 Sn0_7 3.449820 1_455
Sn0_4 Sn0_6 3.458330 1_555
Sn0_4 Sn0_6 3.458330 1_545
Sn0_5 Sn0_7 3.458330 1_555
Sn0_5 Sn0_7 3.458330 1_545
Pb0_0 Pb0_6 3.439734 1_445
Pb0_0 Pb0_6 3.439734 1_555
Pb0_0 Sn0_0 3.442060 1_555
Pb0_0 Pb0_4 3.449820 1_555
Pb0_0 Pb0_4 3.449820 1_455
Pb0_0 Sn0_3 3.451408 1_545
Pb0_0 Sn0_5 3.452955 1_555
Pb0_0 Sn0_2 3.453672 1_545
Pb0_0 Sn0_1 3.455571 1_555
Pb0_0 Sn0_4 3.457707 1_555
Pb0_0 Pb0_2 3.458330 1_555
Pb0_0 Pb0_2 3.458330 1_545
Pb0_1 Pb0_7 3.439734 1_555
Pb0_1 Pb0_7 3.439734 1_445
Pb0_1 Sn0_1 3.442060 1_555
Pb0_1 Pb0_5 3.449820 1_555
Pb0_1 Pb0_5 3.449820 1_455
Pb0_1 Sn0_2 3.451408 1_546
Pb0_1 Sn0_4 3.452955 1_556
Pb0_1 Sn0_3 3.453672 1_545
Pb0_1 Sn0_0 3.455571 1_556
Pb0_1 Sn0_5 3.457707 1_555
Pb0_1 Pb0_3 3.458330 1_555
Pb0_1 Pb0_3 3.458330 1_545
Pb0_2 Pb0_4 3.439734 1_565
Pb0_2 Pb0_4 3.439734 1_455
Pb0_2 Sn0_2 3.442060 1_555
Pb0_2 Pb0_6 3.449820 1_555
Pb0_2 Pb0_6 3.449820 1_455
Pb0_2 Sn0_1 3.451408 1_555
Pb0_2 Sn0_7 3.452955 1_555
Pb0_2 Sn0_0 3.453672 1_555
Pb0_2 Sn0_3 3.455571 1_555
Pb0_2 Sn0_6 3.457707 1_555
Pb0_3 Pb0_5 3.439734 1_565
Pb0_3 Pb0_5 3.439734 1_455
Pb0_3 Sn0_3 3.442060 1_555
Pb0_3 Pb0_7 3.449820 1_555
Pb0_3 Pb0_7 3.449820 1_455
Pb0_3 Sn0_0 3.451408 1_556
Pb0_3 Sn0_6 3.452955 1_556
Pb0_3 Sn0_1 3.453672 1_555
Pb0_3 Sn0_2 3.455571 1_556
Pb0_3 Sn0_7 3.457707 1_555
Pb0_4 Sn0_4 3.442060 1_555
Pb0_4 Sn0_7 3.451408 1_545
Pb0_4 Sn0_1 3.452955 1_655
Pb0_4 Sn0_6 3.453672 1_545
Pb0_4 Sn0_5 3.455571 1_555
Pb0_4 Sn0_0 3.457707 1_655
Pb0_4 Pb0_6 3.458330 1_555
Pb0_4 Pb0_6 3.458330 1_545
Pb0_5 Sn0_5 3.442060 1_555
Pb0_5 Sn0_6 3.451408 1_546
Pb0_5 Sn0_0 3.452955 1_656
Pb0_5 Sn0_7 3.453672 1_545
Pb0_5 Sn0_4 3.455571 1_556
Pb0_5 Sn0_1 3.457707 1_655
Pb0_5 Pb0_7 3.458330 1_545
Pb0_5 Pb0_7 3.458330 1_555
Pb0_6 Sn0_6 3.442060 1_555
Pb0_6 Sn0_5 3.451408 1_555
Pb0_6 Sn0_3 3.452955 1_655
Pb0_6 Sn0_4 3.453672 1_555
Pb0_6 Sn0_7 3.455571 1_555
Pb0_6 Sn0_2 3.457707 1_655
Pb0_7 Sn0_7 3.442060 1_555
Pb0_7 Sn0_4 3.451408 1_556
Pb0_7 Sn0_2 3.452955 1_656
Pb0_7 Sn0_5 3.453672 1_555
Pb0_7 Sn0_6 3.455571 1_556
Pb0_7 Sn0_3 3.457707 1_655
