# generated using pymatgen
data_TiPt
_symmetry_space_group_name_H-M   'P 1'
_cell_length_a   9.20058638
_cell_length_b   5.53634508
_cell_length_c   9.70061398
_cell_angle_alpha   90.00000000
_cell_angle_beta   90.00000000
_cell_angle_gamma   90.00000000
_symmetry_Int_Tables_number   1
_chemical_formula_structural   TiPt
_chemical_formula_sum   'Ti16 Pt16'
_cell_volume   494.12619972
_cell_formula_units_Z   16
loop_
 _symmetry_equiv_pos_site_id
 _symmetry_equiv_pos_as_xyz
  1  'x, y, z'
loop_
 _atom_site_type_symbol
 _atom_site_label
 _atom_site_symmetry_multiplicity
 _atom_site_fract_x
 _atom_site_fract_y
 _atom_site_fract_z
 _atom_site_occupancy
  Ti  Ti0_0  1  0.12500000  0.25000000  0.34938954  1
  Ti  Ti0_1  1  0.12500000  0.25000000  0.84938954  1
  Ti  Ti0_2  1  0.12500000  0.75000000  0.34938954  1
  Ti  Ti0_3  1  0.12500000  0.75000000  0.84938954  1
  Ti  Ti0_4  1  0.62500000  0.25000000  0.34938954  1
  Ti  Ti0_5  1  0.62500000  0.25000000  0.84938954  1
  Ti  Ti0_6  1  0.62500000  0.75000000  0.34938954  1
  Ti  Ti0_7  1  0.62500000  0.75000000  0.84938954  1
  Ti  Ti1_0  1  0.37500000  0.25000000  0.15061046  1
  Ti  Ti1_1  1  0.37500000  0.25000000  0.65061046  1
  Ti  Ti1_2  1  0.37500000  0.75000000  0.15061046  1
  Ti  Ti1_3  1  0.37500000  0.75000000  0.65061046  1
  Ti  Ti1_4  1  0.87500000  0.25000000  0.15061046  1
  Ti  Ti1_5  1  0.87500000  0.25000000  0.65061046  1
  Ti  Ti1_6  1  0.87500000  0.75000000  0.15061046  1
  Ti  Ti1_7  1  0.87500000  0.75000000  0.65061046  1
  Pt  Pt0_0  1  0.12500000  0.00000000  0.09390374  1
  Pt  Pt0_1  1  0.12500000  0.00000000  0.59390374  1
  Pt  Pt0_2  1  0.12500000  0.50000000  0.09390374  1
  Pt  Pt0_3  1  0.12500000  0.50000000  0.59390374  1
  Pt  Pt0_4  1  0.62500000  0.00000000  0.09390374  1
  Pt  Pt0_5  1  0.62500000  0.00000000  0.59390374  1
  Pt  Pt0_6  1  0.62500000  0.50000000  0.09390374  1
  Pt  Pt0_7  1  0.62500000  0.50000000  0.59390374  1
  Pt  Pt1_0  1  0.37500000  0.00000000  0.40609626  1
  Pt  Pt1_1  1  0.37500000  0.00000000  0.90609626  1
  Pt  Pt1_2  1  0.37500000  0.50000000  0.40609626  1
  Pt  Pt1_3  1  0.37500000  0.50000000  0.90609626  1
  Pt  Pt1_4  1  0.87500000  0.00000000  0.40609626  1
  Pt  Pt1_5  1  0.87500000  0.00000000  0.90609626  1
  Pt  Pt1_6  1  0.87500000  0.50000000  0.40609626  1
  Pt  Pt1_7  1  0.87500000  0.50000000  0.90609626  1
loop_
_geom_bond_atom_site_label_1
_geom_bond_atom_site_label_2
_geom_bond_distance
_geom_bond_site_symmetry_2
Ti0_0 Ti0_2 2.768173 1_555
Ti0_0 Ti0_2 2.768173 1_545
Ti0_0 Ti1_0 3.001489 1_555
Ti0_0 Ti1_4 3.001489 1_455
Ti0_1 Ti0_3 2.768173 1_545
Ti0_1 Ti0_3 2.768173 1_555
Ti0_1 Ti1_1 3.001489 1_555
Ti0_1 Ti1_5 3.001489 1_455
Ti0_2 Ti1_2 3.001489 1_555
Ti0_2 Ti1_6 3.001489 1_455
Ti0_3 Ti1_3 3.001489 1_555
Ti0_3 Ti1_7 3.001489 1_455
Ti0_4 Ti0_6 2.768173 1_545
Ti0_4 Ti0_6 2.768173 1_555
Ti0_4 Ti1_4 3.001489 1_555
Ti0_4 Ti1_0 3.001489 1_555
Ti0_5 Ti0_7 2.768173 1_545
Ti0_5 Ti0_7 2.768173 1_555
Ti0_5 Ti1_5 3.001489 1_555
Ti0_5 Ti1_1 3.001489 1_555
Ti0_6 Ti1_6 3.001489 1_555
Ti0_6 Ti1_2 3.001489 1_555
Ti0_7 Ti1_7 3.001489 1_555
Ti0_7 Ti1_3 3.001489 1_555
Ti1_0 Ti1_2 2.768173 1_555
Ti1_0 Ti1_2 2.768173 1_545
Ti1_1 Ti1_3 2.768173 1_555
Ti1_1 Ti1_3 2.768173 1_545
Ti1_4 Ti1_6 2.768173 1_545
Ti1_4 Ti1_6 2.768173 1_555
Ti1_5 Ti1_7 2.768173 1_555
Ti1_5 Ti1_7 2.768173 1_545
Pt0_0 Ti1_2 2.740250 1_545
Pt0_0 Ti1_0 2.740250 1_555
Pt0_0 Ti1_4 2.740250 1_455
Pt0_0 Ti1_6 2.740250 1_445
Pt0_0 Ti0_3 2.746231 1_544
Pt0_0 Ti0_1 2.746231 1_554
Pt0_0 Pt0_2 2.768173 1_545
Pt0_0 Pt0_2 2.768173 1_555
Pt0_0 Ti0_2 2.838663 1_545
Pt0_0 Ti0_0 2.838663 1_555
Pt0_0 Pt1_1 2.934247 1_554
Pt0_0 Pt1_5 2.934247 1_454
Pt0_1 Ti1_1 2.740250 1_555
Pt0_1 Ti1_3 2.740250 1_545
Pt0_1 Ti1_7 2.740250 1_445
Pt0_1 Ti1_5 2.740250 1_455
Pt0_1 Ti0_0 2.746231 1_555
Pt0_1 Ti0_2 2.746231 1_545
Pt0_1 Pt0_3 2.768173 1_555
Pt0_1 Pt0_3 2.768173 1_545
Pt0_1 Ti0_1 2.838663 1_555
Pt0_1 Ti0_3 2.838663 1_545
Pt0_1 Pt1_0 2.934247 1_555
Pt0_1 Pt1_4 2.934247 1_455
Pt0_2 Ti1_0 2.740250 1_555
Pt0_2 Ti1_2 2.740250 1_555
Pt0_2 Ti1_6 2.740250 1_455
Pt0_2 Ti1_4 2.740250 1_455
Pt0_2 Ti0_3 2.746231 1_554
Pt0_2 Ti0_1 2.746231 1_554
Pt0_2 Ti0_2 2.838663 1_555
Pt0_2 Ti0_0 2.838663 1_555
Pt0_2 Pt1_3 2.934247 1_554
Pt0_2 Pt1_7 2.934247 1_454
Pt0_3 Ti1_3 2.740250 1_555
Pt0_3 Ti1_1 2.740250 1_555
Pt0_3 Ti1_7 2.740250 1_455
Pt0_3 Ti1_5 2.740250 1_455
Pt0_3 Ti0_0 2.746231 1_555
Pt0_3 Ti0_2 2.746231 1_555
Pt0_3 Ti0_1 2.838663 1_555
Pt0_3 Ti0_3 2.838663 1_555
Pt0_3 Pt1_2 2.934247 1_555
Pt0_3 Pt1_6 2.934247 1_455
Pt0_4 Ti1_6 2.740250 1_545
Pt0_4 Ti1_4 2.740250 1_555
Pt0_4 Ti1_2 2.740250 1_545
Pt0_4 Ti1_0 2.740250 1_555
Pt0_4 Ti0_7 2.746231 1_544
Pt0_4 Ti0_5 2.746231 1_554
Pt0_4 Pt0_6 2.768173 1_555
Pt0_4 Pt0_6 2.768173 1_545
Pt0_4 Ti0_4 2.838663 1_555
Pt0_4 Ti0_6 2.838663 1_545
Pt0_4 Pt1_5 2.934247 1_554
Pt0_4 Pt1_1 2.934247 1_554
Pt0_5 Ti1_7 2.740250 1_545
Pt0_5 Ti1_5 2.740250 1_555
Pt0_5 Ti1_1 2.740250 1_555
Pt0_5 Ti1_3 2.740250 1_545
Pt0_5 Ti0_4 2.746231 1_555
Pt0_5 Ti0_6 2.746231 1_545
Pt0_5 Pt0_7 2.768173 1_555
Pt0_5 Pt0_7 2.768173 1_545
Pt0_5 Ti0_7 2.838663 1_545
Pt0_5 Ti0_5 2.838663 1_555
Pt0_5 Pt1_4 2.934247 1_555
Pt0_5 Pt1_0 2.934247 1_555
Pt0_6 Ti1_6 2.740250 1_555
Pt0_6 Ti1_4 2.740250 1_555
Pt0_6 Ti1_0 2.740250 1_555
Pt0_6 Ti1_2 2.740250 1_555
Pt0_6 Ti0_5 2.746231 1_554
Pt0_6 Ti0_7 2.746231 1_554
Pt0_6 Ti0_6 2.838663 1_555
Pt0_6 Ti0_4 2.838663 1_555
Pt0_6 Pt1_7 2.934247 1_554
Pt0_6 Pt1_3 2.934247 1_554
Pt0_7 Ti1_7 2.740250 1_555
Pt0_7 Ti1_5 2.740250 1_555
Pt0_7 Ti1_3 2.740250 1_555
Pt0_7 Ti1_1 2.740250 1_555
Pt0_7 Ti0_6 2.746231 1_555
Pt0_7 Ti0_4 2.746231 1_555
Pt0_7 Ti0_5 2.838663 1_555
Pt0_7 Ti0_7 2.838663 1_555
Pt0_7 Pt1_6 2.934247 1_555
Pt0_7 Pt1_2 2.934247 1_555
Pt1_0 Ti0_4 2.740250 1_555
Pt1_0 Ti0_6 2.740250 1_545
Pt1_0 Ti0_2 2.740250 1_545
Pt1_0 Ti0_0 2.740250 1_555
Pt1_0 Ti1_1 2.746231 1_555
Pt1_0 Ti1_3 2.746231 1_545
Pt1_0 Pt1_2 2.768173 1_555
Pt1_0 Pt1_2 2.768173 1_545
Pt1_0 Ti1_0 2.838663 1_555
Pt1_0 Ti1_2 2.838663 1_545
Pt1_1 Ti0_3 2.740250 1_545
Pt1_1 Ti0_1 2.740250 1_555
Pt1_1 Ti0_7 2.740250 1_545
Pt1_1 Ti0_5 2.740250 1_555
Pt1_1 Ti1_0 2.746231 1_556
Pt1_1 Ti1_2 2.746231 1_546
Pt1_1 Pt1_3 2.768173 1_545
Pt1_1 Pt1_3 2.768173 1_555
Pt1_1 Ti1_1 2.838663 1_555
Pt1_1 Ti1_3 2.838663 1_545
Pt1_2 Ti0_4 2.740250 1_555
Pt1_2 Ti0_2 2.740250 1_555
Pt1_2 Ti0_6 2.740250 1_555
Pt1_2 Ti0_0 2.740250 1_555
Pt1_2 Ti1_1 2.746231 1_555
Pt1_2 Ti1_3 2.746231 1_555
Pt1_2 Ti1_0 2.838663 1_555
Pt1_2 Ti1_2 2.838663 1_555
Pt1_3 Ti0_1 2.740250 1_555
Pt1_3 Ti0_5 2.740250 1_555
Pt1_3 Ti0_3 2.740250 1_555
Pt1_3 Ti0_7 2.740250 1_555
Pt1_3 Ti1_2 2.746231 1_556
Pt1_3 Ti1_0 2.746231 1_556
Pt1_3 Ti1_3 2.838663 1_555
Pt1_3 Ti1_1 2.838663 1_555
Pt1_4 Ti0_4 2.740250 1_555
Pt1_4 Ti0_6 2.740250 1_545
Pt1_4 Ti0_2 2.740250 1_645
Pt1_4 Ti0_0 2.740250 1_655
Pt1_4 Ti1_5 2.746231 1_555
Pt1_4 Ti1_7 2.746231 1_545
Pt1_4 Pt1_6 2.768173 1_545
Pt1_4 Pt1_6 2.768173 1_555
Pt1_4 Ti1_6 2.838663 1_545
Pt1_4 Ti1_4 2.838663 1_555
Pt1_5 Ti0_5 2.740250 1_555
Pt1_5 Ti0_7 2.740250 1_545
Pt1_5 Ti0_1 2.740250 1_655
Pt1_5 Ti0_3 2.740250 1_645
Pt1_5 Ti1_4 2.746231 1_556
Pt1_5 Ti1_6 2.746231 1_546
Pt1_5 Pt1_7 2.768173 1_545
Pt1_5 Pt1_7 2.768173 1_555
Pt1_5 Ti1_7 2.838663 1_545
Pt1_5 Ti1_5 2.838663 1_555
Pt1_6 Ti0_4 2.740250 1_555
Pt1_6 Ti0_6 2.740250 1_555
Pt1_6 Ti0_2 2.740250 1_655
Pt1_6 Ti0_0 2.740250 1_655
Pt1_6 Ti1_5 2.746231 1_555
Pt1_6 Ti1_7 2.746231 1_555
Pt1_6 Ti1_6 2.838663 1_555
Pt1_6 Ti1_4 2.838663 1_555
Pt1_7 Ti0_5 2.740250 1_555
Pt1_7 Ti0_7 2.740250 1_555
Pt1_7 Ti0_1 2.740250 1_655
Pt1_7 Ti0_3 2.740250 1_655
Pt1_7 Ti1_4 2.746231 1_556
Pt1_7 Ti1_6 2.746231 1_556
Pt1_7 Ti1_7 2.838663 1_555
Pt1_7 Ti1_5 2.838663 1_555
