# generated using pymatgen
data_Tm2ZnAg
_symmetry_space_group_name_H-M   'P 1'
_cell_length_a   4.98846939
_cell_length_b   4.98846939
_cell_length_c   4.98846939
_cell_angle_alpha   60.00000000
_cell_angle_beta   60.00000000
_cell_angle_gamma   60.00000000
_symmetry_Int_Tables_number   1
_chemical_formula_structural   Tm2ZnAg
_chemical_formula_sum   'Tm2 Zn1 Ag1'
_cell_volume   87.77825357
_cell_formula_units_Z   1
loop_
 _symmetry_equiv_pos_site_id
 _symmetry_equiv_pos_as_xyz
  1  'x, y, z'
loop_
 _atom_site_type_symbol
 _atom_site_label
 _atom_site_symmetry_multiplicity
 _atom_site_fract_x
 _atom_site_fract_y
 _atom_site_fract_z
 _atom_site_occupancy
  Tm  Tm0  1  0.50000100  0.50000100  0.50000100  1
  Tm  Tm1  1  0.00000000  0.00000000  -0.00000000  1
  Zn  Zn0  1  0.75000000  0.75000000  0.75000000  1
  Ag  Ag0  1  0.25000000  0.25000000  0.25000000  1
loop_
_geom_bond_atom_site_label_1
_geom_bond_atom_site_label_2
_geom_bond_distance
_geom_bond_site_symmetry_2
Tm0 Zn0 3.054789 1_555
Tm0 Zn0 3.054805 1_455
Tm0 Zn0 3.054805 1_545
Tm0 Zn0 3.054805 1_554
Tm1 Zn0 3.054801 1_454
Tm1 Zn0 3.054801 1_445
Tm1 Zn0 3.054801 1_444
Tm1 Zn0 3.054801 1_544
Ag0 Tm0 3.054797 1_545
Ag0 Tm0 3.054797 1_455
Ag0 Tm0 3.054797 1_554
Ag0 Tm1 3.054801 1_655
Ag0 Tm1 3.054801 1_556
Ag0 Tm1 3.054801 1_565
Ag0 Tm1 3.054801 1_555
Ag0 Tm0 3.054813 1_555
