# generated using pymatgen
data_Rb3Ge
_symmetry_space_group_name_H-M   'P 1'
_cell_length_a   6.54962099
_cell_length_b   6.54962099
_cell_length_c   6.54962099
_cell_angle_alpha   122.94751539
_cell_angle_beta   122.94751539
_cell_angle_gamma   84.96633139
_symmetry_Int_Tables_number   1
_chemical_formula_structural   Rb3Ge
_chemical_formula_sum   'Rb3 Ge1'
_cell_volume   189.02288312
_cell_formula_units_Z   1
loop_
 _symmetry_equiv_pos_site_id
 _symmetry_equiv_pos_as_xyz
  1  'x, y, z'
loop_
 _atom_site_type_symbol
 _atom_site_label
 _atom_site_symmetry_multiplicity
 _atom_site_fract_x
 _atom_site_fract_y
 _atom_site_fract_z
 _atom_site_occupancy
  Rb  Rb0  1  0.75000000  0.25000000  0.50000000  1
  Rb  Rb1  1  0.25000000  0.75000000  0.50000000  1
  Rb  Rb2  1  0.50000000  0.50000000  0.00000000  1
  Ge  Ge0  1  0.00000000  0.00000000  0.00000000  1
loop_
_geom_bond_atom_site_label_1
_geom_bond_atom_site_label_2
_geom_bond_distance
_geom_bond_site_symmetry_2
Rb0 Rb2 3.951720 1_545
Rb0 Rb2 3.951720 1_656
Rb0 Rb2 3.951720 1_555
Rb0 Rb2 3.951720 1_556
Rb1 Rb2 3.951720 1_555
Rb1 Rb2 3.951720 1_566
Rb1 Rb2 3.951720 1_455
Rb1 Rb2 3.951720 1_556
Ge0 Rb0 3.951720 1_455
Ge0 Rb0 3.951720 1_555
Ge0 Rb1 3.951720 1_555
Ge0 Rb0 3.951720 1_454
Ge0 Rb1 3.951720 1_545
Ge0 Rb0 3.951720 1_444
Ge0 Rb1 3.951720 1_544
Ge0 Rb1 3.951720 1_444
