# generated using pymatgen
data_Li5Mg
_symmetry_space_group_name_H-M   'P 1'
_cell_length_a   11.91784630
_cell_length_b   11.91784630
_cell_length_c   14.53841180
_cell_angle_alpha   74.56168712
_cell_angle_beta   74.56168712
_cell_angle_gamma   29.58469500
_symmetry_Int_Tables_number   1
_chemical_formula_structural   Li5Mg
_chemical_formula_sum   'Li40 Mg8'
_cell_volume   980.09025348
_cell_formula_units_Z   8
loop_
 _symmetry_equiv_pos_site_id
 _symmetry_equiv_pos_as_xyz
  1  'x, y, z'
loop_
 _atom_site_type_symbol
 _atom_site_label
 _atom_site_symmetry_multiplicity
 _atom_site_fract_x
 _atom_site_fract_y
 _atom_site_fract_z
 _atom_site_occupancy
  Li  Li0_0  1  0.49989780  0.49989780  0.00169431  1
  Li  Li0_1  1  0.49989780  0.49989780  0.50169431  1
  Li  Li0_2  1  0.49989780  0.99989780  0.00169431  1
  Li  Li0_3  1  0.49989780  0.99989780  0.50169431  1
  Li  Li0_4  1  0.99989780  0.49989780  0.00169431  1
  Li  Li0_5  1  0.99989780  0.49989780  0.50169431  1
  Li  Li0_6  1  0.99989780  0.99989780  0.00169431  1
  Li  Li0_7  1  0.99989780  0.99989780  0.50169431  1
  Li  Li1_0  1  0.13892389  0.13892389  0.47187093  1
  Li  Li1_1  1  0.13892389  0.13892389  0.97187093  1
  Li  Li1_2  1  0.13892389  0.63892389  0.47187093  1
  Li  Li1_3  1  0.13892389  0.63892389  0.97187093  1
  Li  Li1_4  1  0.63892389  0.13892389  0.47187093  1
  Li  Li1_5  1  0.63892389  0.13892389  0.97187093  1
  Li  Li1_6  1  0.63892389  0.63892389  0.47187093  1
  Li  Li1_7  1  0.63892389  0.63892389  0.97187093  1
  Li  Li2_0  1  0.33318138  0.33318138  0.33424339  1
  Li  Li2_1  1  0.33318138  0.33318138  0.83424339  1
  Li  Li2_2  1  0.33318138  0.83318138  0.33424340  1
  Li  Li2_3  1  0.33318138  0.83318138  0.83424340  1
  Li  Li2_4  1  0.83318138  0.33318138  0.33424340  1
  Li  Li2_5  1  0.83318138  0.33318138  0.83424340  1
  Li  Li2_6  1  0.83318139  0.83318138  0.33424339  1
  Li  Li2_7  1  0.83318138  0.83318138  0.83424340  1
  Li  Li3_0  1  0.47242468  0.47242468  0.30591439  1
  Li  Li3_1  1  0.47242468  0.47242468  0.80591439  1
  Li  Li3_2  1  0.47242468  0.97242467  0.30591439  1
  Li  Li3_3  1  0.47242467  0.97242467  0.80591439  1
  Li  Li3_4  1  0.97242467  0.47242468  0.30591439  1
  Li  Li3_5  1  0.97242467  0.47242467  0.80591439  1
  Li  Li3_6  1  0.97242467  0.97242467  0.30591439  1
  Li  Li3_7  1  0.97242467  0.97242467  0.80591439  1
  Li  Li4_0  1  0.16626093  0.16626093  0.16590234  1
  Li  Li4_1  1  0.16626093  0.16626094  0.66590234  1
  Li  Li4_2  1  0.16626094  0.66626093  0.16590234  1
  Li  Li4_3  1  0.16626093  0.66626093  0.66590234  1
  Li  Li4_4  1  0.66626093  0.16626094  0.16590234  1
  Li  Li4_5  1  0.66626093  0.16626093  0.66590234  1
  Li  Li4_6  1  0.66626093  0.66626093  0.16590234  1
  Li  Li4_7  1  0.66626093  0.66626093  0.66590234  1
  Mg  Mg0_0  1  0.30597881  0.30597881  0.13704064  1
  Mg  Mg0_1  1  0.30597881  0.30597881  0.63704064  1
  Mg  Mg0_2  1  0.30597881  0.80597881  0.13704064  1
  Mg  Mg0_3  1  0.30597881  0.80597881  0.63704064  1
  Mg  Mg0_4  1  0.80597881  0.30597881  0.13704064  1
  Mg  Mg0_5  1  0.80597881  0.30597881  0.63704064  1
  Mg  Mg0_6  1  0.80597881  0.80597881  0.13704064  1
  Mg  Mg0_7  1  0.80597881  0.80597881  0.63704064  1
loop_
_geom_bond_atom_site_label_1
_geom_bond_atom_site_label_2
_geom_bond_distance
_geom_bond_site_symmetry_2
Li0_0 Li4_2 3.032381 1_555
Li0_0 Li4_4 3.032381 1_555
Li0_0 Mg0_2 3.042592 1_555
Li0_0 Mg0_4 3.042592 1_555
Li0_0 Li0_6 3.042824 1_545
Li0_0 Li0_6 3.042824 1_455
Li0_0 Li2_5 3.058140 1_554
Li0_0 Li2_3 3.058140 1_554
Li0_0 Li3_1 3.081362 1_554
Li0_0 Li1_5 3.107084 1_554
Li0_0 Li1_3 3.107084 1_554
Li0_0 Li1_7 3.112615 1_554
Li0_1 Li4_5 3.032381 1_555
Li0_1 Li4_3 3.032381 1_555
Li0_1 Mg0_3 3.042592 1_555
Li0_1 Mg0_5 3.042592 1_555
Li0_1 Li0_7 3.042824 1_455
Li0_1 Li0_7 3.042824 1_545
Li0_1 Li2_2 3.058140 1_555
Li0_1 Li2_4 3.058140 1_555
Li0_1 Li3_0 3.081362 1_555
Li0_1 Li1_4 3.107084 1_555
Li0_1 Li1_2 3.107084 1_555
Li0_1 Li1_6 3.112615 1_555
Li0_2 Li4_6 3.032381 1_555
Li0_2 Li4_0 3.032381 1_565
Li0_2 Mg0_6 3.042592 1_555
Li0_2 Mg0_0 3.042592 1_565
Li0_2 Li0_4 3.042824 1_555
Li0_2 Li0_4 3.042824 1_465
Li0_2 Li2_7 3.058140 1_554
Li0_2 Li2_1 3.058140 1_564
Li0_2 Li3_3 3.081362 1_554
Li0_2 Li1_1 3.107084 1_564
Li0_2 Li1_7 3.107084 1_554
Li0_2 Li1_5 3.112615 1_564
Li0_3 Li4_1 3.032381 1_565
Li0_3 Li4_7 3.032381 1_555
Li0_3 Mg0_7 3.042592 1_555
Li0_3 Mg0_1 3.042592 1_565
Li0_3 Li0_5 3.042824 1_555
Li0_3 Li0_5 3.042824 1_465
Li0_3 Li2_6 3.058140 1_555
Li0_3 Li2_0 3.058140 1_565
Li0_3 Li3_2 3.081362 1_555
Li0_3 Li1_0 3.107084 1_565
Li0_3 Li1_6 3.107084 1_555
Li0_3 Li1_4 3.112615 1_565
Li0_4 Li4_0 3.032381 1_655
Li0_4 Li4_6 3.032381 1_555
Li0_4 Mg0_6 3.042592 1_555
Li0_4 Mg0_0 3.042592 1_655
Li0_4 Li2_7 3.058140 1_554
Li0_4 Li2_1 3.058140 1_654
Li0_4 Li3_5 3.081362 1_554
Li0_4 Li1_1 3.107084 1_654
Li0_4 Li1_7 3.107084 1_554
Li0_4 Li1_3 3.112615 1_654
Li0_5 Li4_1 3.032381 1_655
Li0_5 Li4_7 3.032381 1_555
Li0_5 Mg0_7 3.042592 1_555
Li0_5 Mg0_1 3.042592 1_655
Li0_5 Li2_6 3.058140 1_555
Li0_5 Li2_0 3.058140 1_655
Li0_5 Li3_4 3.081362 1_555
Li0_5 Li1_0 3.107084 1_655
Li0_5 Li1_6 3.107084 1_555
Li0_5 Li1_2 3.112615 1_655
Li0_6 Li4_2 3.032381 1_655
Li0_6 Li4_4 3.032381 1_565
Li0_6 Mg0_2 3.042592 1_655
Li0_6 Mg0_4 3.042592 1_565
Li0_6 Li2_3 3.058140 1_654
Li0_6 Li2_5 3.058140 1_564
Li0_6 Li3_7 3.081362 1_554
Li0_6 Li1_3 3.107084 1_654
Li0_6 Li1_5 3.107084 1_564
Li0_6 Li1_1 3.112615 1_664
Li0_7 Li4_5 3.032381 1_565
Li0_7 Li4_3 3.032381 1_655
Li0_7 Mg0_3 3.042592 1_655
Li0_7 Mg0_5 3.042592 1_565
Li0_7 Li2_2 3.058140 1_655
Li0_7 Li2_4 3.058140 1_565
Li0_7 Li3_6 3.081362 1_555
Li0_7 Li1_4 3.107084 1_565
Li0_7 Li1_2 3.107084 1_655
Li0_7 Li1_0 3.112615 1_665
Li1_0 Mg0_5 3.034357 1_455
Li1_0 Mg0_3 3.034357 1_545
Li1_0 Li1_6 3.042824 1_545
Li1_0 Li1_6 3.042824 1_455
Li1_0 Li3_2 3.046713 1_545
Li1_0 Li3_4 3.046713 1_455
Li1_0 Li4_1 3.055001 1_555
Li1_0 Li2_4 3.063314 1_455
Li1_0 Li2_2 3.063314 1_545
Li1_1 Mg0_2 3.034357 1_546
Li1_1 Mg0_4 3.034357 1_456
Li1_1 Li1_7 3.042824 1_545
Li1_1 Li1_7 3.042824 1_455
Li1_1 Li3_3 3.046713 1_545
Li1_1 Li3_5 3.046713 1_455
Li1_1 Li4_0 3.055001 1_556
Li1_1 Li2_3 3.063314 1_545
Li1_1 Li2_5 3.063314 1_455
Li1_2 Mg0_1 3.034357 1_555
Li1_2 Mg0_7 3.034357 1_455
Li1_2 Li1_4 3.042824 1_555
Li1_2 Li1_4 3.042824 1_465
Li1_2 Li3_6 3.046713 1_455
Li1_2 Li3_0 3.046713 1_555
Li1_2 Li4_3 3.055001 1_555
Li1_2 Li2_6 3.063314 1_455
Li1_2 Li2_0 3.063314 1_555
Li1_3 Mg0_0 3.034357 1_556
Li1_3 Mg0_6 3.034357 1_456
Li1_3 Li1_5 3.042824 1_555
Li1_3 Li1_5 3.042824 1_465
Li1_3 Li3_1 3.046713 1_555
Li1_3 Li3_7 3.046713 1_455
Li1_3 Li4_2 3.055001 1_556
Li1_3 Li2_7 3.063314 1_455
Li1_3 Li2_1 3.063314 1_555
Li1_4 Mg0_1 3.034357 1_555
Li1_4 Mg0_7 3.034357 1_545
Li1_4 Li3_6 3.046713 1_545
Li1_4 Li3_0 3.046713 1_555
Li1_4 Li4_5 3.055001 1_555
Li1_4 Li2_6 3.063314 1_545
Li1_4 Li2_0 3.063314 1_555
Li1_5 Mg0_0 3.034357 1_556
Li1_5 Mg0_6 3.034357 1_546
Li1_5 Li3_7 3.046713 1_545
Li1_5 Li3_1 3.046713 1_555
Li1_5 Li4_4 3.055001 1_556
Li1_5 Li2_7 3.063314 1_545
Li1_5 Li2_1 3.063314 1_555
Li1_6 Mg0_5 3.034357 1_555
Li1_6 Mg0_3 3.034357 1_555
Li1_6 Li3_2 3.046713 1_555
Li1_6 Li3_4 3.046713 1_555
Li1_6 Li4_7 3.055001 1_555
Li1_6 Li2_2 3.063314 1_555
Li1_6 Li2_4 3.063314 1_555
Li1_7 Mg0_4 3.034357 1_556
Li1_7 Mg0_2 3.034357 1_556
Li1_7 Li3_3 3.046713 1_555
Li1_7 Li3_5 3.046713 1_555
Li1_7 Li4_6 3.055001 1_556
Li1_7 Li2_5 3.063314 1_555
Li1_7 Li2_3 3.063314 1_555
Li2_0 Li2_6 3.042824 1_455
Li2_0 Li2_6 3.042824 1_545
Li2_0 Li4_4 3.064316 1_555
Li2_0 Li4_2 3.064316 1_555
Li2_0 Li3_4 3.094881 1_455
Li2_0 Li3_2 3.094881 1_545
Li2_0 Mg0_0 3.098788 1_555
Li2_0 Li3_0 3.120785 1_555
Li2_1 Li2_7 3.042824 1_545
Li2_1 Li2_7 3.042824 1_455
Li2_1 Li4_3 3.064316 1_555
Li2_1 Li4_5 3.064316 1_555
Li2_1 Li3_3 3.094881 1_545
Li2_1 Li3_5 3.094881 1_455
Li2_1 Mg0_1 3.098788 1_555
Li2_1 Li3_1 3.120785 1_555
Li2_2 Li2_4 3.042824 1_555
Li2_2 Li2_4 3.042824 1_465
Li2_2 Li4_6 3.064316 1_555
Li2_2 Li4_0 3.064316 1_565
Li2_2 Li3_0 3.094881 1_555
Li2_2 Li3_6 3.094881 1_455
Li2_2 Mg0_2 3.098788 1_555
Li2_2 Li3_2 3.120785 1_555
Li2_3 Li2_5 3.042824 1_555
Li2_3 Li2_5 3.042824 1_465
Li2_3 Li4_7 3.064316 1_555
Li2_3 Li4_1 3.064316 1_565
Li2_3 Li3_1 3.094881 1_555
Li2_3 Li3_7 3.094881 1_455
Li2_3 Mg0_3 3.098788 1_555
Li2_3 Li3_3 3.120785 1_555
Li2_4 Li4_6 3.064316 1_555
Li2_4 Li4_0 3.064316 1_655
Li2_4 Li3_0 3.094881 1_555
Li2_4 Li3_6 3.094881 1_545
Li2_4 Mg0_4 3.098788 1_555
Li2_4 Li3_4 3.120785 1_555
Li2_5 Li4_7 3.064316 1_555
Li2_5 Li4_1 3.064316 1_655
Li2_5 Li3_1 3.094881 1_555
Li2_5 Li3_7 3.094881 1_545
Li2_5 Mg0_5 3.098788 1_555
Li2_5 Li3_5 3.120785 1_555
Li2_6 Li4_4 3.064316 1_565
Li2_6 Li4_2 3.064316 1_655
Li2_6 Li3_4 3.094881 1_555
Li2_6 Li3_2 3.094881 1_555
Li2_6 Mg0_6 3.098788 1_555
Li2_6 Li3_6 3.120785 1_555
Li2_7 Li4_5 3.064316 1_565
Li2_7 Li4_3 3.064316 1_655
Li2_7 Li3_3 3.094881 1_555
Li2_7 Li3_5 3.094881 1_555
Li2_7 Mg0_7 3.098788 1_555
Li2_7 Li3_7 3.120785 1_555
Li3_0 Li3_6 3.042824 1_545
Li3_0 Li3_6 3.042824 1_455
Li3_0 Mg0_2 3.073605 1_555
Li3_0 Mg0_4 3.073605 1_555
Li3_0 Li4_4 3.095846 1_555
Li3_0 Li4_2 3.095846 1_555
Li3_1 Li3_7 3.042824 1_455
Li3_1 Li3_7 3.042824 1_545
Li3_1 Mg0_3 3.073605 1_555
Li3_1 Mg0_5 3.073605 1_555
Li3_1 Li4_5 3.095846 1_555
Li3_1 Li4_3 3.095846 1_555
Li3_2 Li3_4 3.042824 1_555
Li3_2 Li3_4 3.042824 1_465
Li3_2 Mg0_6 3.073605 1_555
Li3_2 Mg0_0 3.073605 1_565
Li3_2 Li4_6 3.095846 1_555
Li3_2 Li4_0 3.095846 1_565
Li3_3 Li3_5 3.042824 1_555
Li3_3 Li3_5 3.042824 1_465
Li3_3 Mg0_7 3.073605 1_555
Li3_3 Mg0_1 3.073605 1_565
Li3_3 Li4_7 3.095846 1_555
Li3_3 Li4_1 3.095846 1_565
Li3_4 Mg0_6 3.073605 1_555
Li3_4 Mg0_0 3.073605 1_655
Li3_4 Li4_0 3.095846 1_655
Li3_4 Li4_6 3.095846 1_555
Li3_5 Mg0_7 3.073605 1_555
Li3_5 Mg0_1 3.073605 1_655
Li3_5 Li4_7 3.095846 1_555
Li3_5 Li4_1 3.095846 1_655
Li3_6 Mg0_2 3.073605 1_655
Li3_6 Mg0_4 3.073605 1_565
Li3_6 Li4_4 3.095846 1_565
Li3_6 Li4_2 3.095846 1_655
Li3_7 Mg0_3 3.073605 1_655
Li3_7 Mg0_5 3.073605 1_565
Li3_7 Li4_5 3.095846 1_565
Li3_7 Li4_3 3.095846 1_655
Li4_0 Li4_6 3.042824 1_545
Li4_0 Li4_6 3.042824 1_455
Li4_0 Mg0_4 3.088264 1_455
Li4_0 Mg0_2 3.088264 1_545
Li4_0 Mg0_0 3.130470 1_555
Li4_1 Li4_7 3.042824 1_455
Li4_1 Li4_7 3.042824 1_545
Li4_1 Mg0_5 3.088264 1_455
Li4_1 Mg0_3 3.088264 1_545
Li4_1 Mg0_1 3.130470 1_555
Li4_2 Li4_4 3.042824 1_555
Li4_2 Li4_4 3.042824 1_465
Li4_2 Mg0_0 3.088264 1_555
Li4_2 Mg0_6 3.088264 1_455
Li4_2 Mg0_2 3.130470 1_555
Li4_3 Li4_5 3.042824 1_555
Li4_3 Li4_5 3.042824 1_465
Li4_3 Mg0_1 3.088264 1_555
Li4_3 Mg0_7 3.088264 1_455
Li4_3 Mg0_3 3.130470 1_555
Li4_4 Mg0_0 3.088264 1_555
Li4_4 Mg0_6 3.088264 1_545
Li4_4 Mg0_4 3.130470 1_555
Li4_5 Mg0_1 3.088264 1_555
Li4_5 Mg0_7 3.088264 1_545
Li4_5 Mg0_5 3.130470 1_555
Li4_6 Mg0_4 3.088264 1_555
Li4_6 Mg0_2 3.088264 1_555
Li4_6 Mg0_6 3.130470 1_555
Li4_7 Mg0_5 3.088264 1_555
Li4_7 Mg0_3 3.088264 1_555
Li4_7 Mg0_7 3.130470 1_555
Mg0_0 Mg0_6 3.042824 1_545
Mg0_0 Mg0_6 3.042824 1_455
Mg0_1 Mg0_7 3.042824 1_545
Mg0_1 Mg0_7 3.042824 1_455
Mg0_2 Mg0_4 3.042824 1_555
Mg0_2 Mg0_4 3.042824 1_465
Mg0_3 Mg0_5 3.042824 1_555
Mg0_3 Mg0_5 3.042824 1_465
