# generated using pymatgen
data_NaLi3
_symmetry_space_group_name_H-M   'P 1'
_cell_length_a   6.54517502
_cell_length_b   6.54517502
_cell_length_c   5.39396723
_cell_angle_alpha   90.00000000
_cell_angle_beta   90.00000000
_cell_angle_gamma   120.00000847
_symmetry_Int_Tables_number   1
_chemical_formula_structural   NaLi3
_chemical_formula_sum   'Na2 Li6'
_cell_volume   200.11582168
_cell_formula_units_Z   2
loop_
 _symmetry_equiv_pos_site_id
 _symmetry_equiv_pos_as_xyz
  1  'x, y, z'
loop_
 _atom_site_type_symbol
 _atom_site_label
 _atom_site_symmetry_multiplicity
 _atom_site_fract_x
 _atom_site_fract_y
 _atom_site_fract_z
 _atom_site_occupancy
  Na  Na0  1  0.66666700  0.33333300  0.25000000  1
  Na  Na1  1  0.33333300  0.66666700  0.75000000  1
  Li  Li0  1  0.84016130  0.15983870  0.75000000  1
  Li  Li1  1  0.31967639  0.15983870  0.75000000  1
  Li  Li2  1  0.84016130  0.68032361  0.75000000  1
  Li  Li3  1  0.15983870  0.84016130  0.25000000  1
  Li  Li4  1  0.68032361  0.84016130  0.25000000  1
  Li  Li5  1  0.15983870  0.31967639  0.25000000  1
loop_
_geom_bond_atom_site_label_1
_geom_bond_atom_site_label_2
_geom_bond_distance
_geom_bond_site_symmetry_2
Li0 Li2 3.138510 1_545
Li0 Li1 3.138510 1_655
Li0 Li5 3.249177 1_655
Li0 Li5 3.249177 1_656
Li0 Li4 3.249177 1_545
Li0 Li4 3.249177 1_546
Li0 Na1 3.273502 1_655
Li0 Na1 3.273502 1_545
Li0 Na0 3.337985 1_555
Li0 Na0 3.337985 1_556
Li1 Li2 3.138510 1_445
Li1 Li5 3.249170 1_556
Li1 Li5 3.249170 1_555
Li1 Li3 3.249177 1_545
Li1 Li3 3.249177 1_546
Li1 Na1 3.273503 1_555
Li1 Na1 3.273503 1_545
Li1 Na0 3.337992 1_555
Li1 Na0 3.337992 1_556
Li2 Li4 3.249170 1_556
Li2 Li4 3.249170 1_555
Li2 Li3 3.249177 1_656
Li2 Li3 3.249177 1_655
Li2 Na1 3.273503 1_555
Li2 Na1 3.273503 1_655
Li2 Na0 3.337992 1_555
Li2 Na0 3.337992 1_556
Li3 Li4 3.138510 1_455
Li3 Li5 3.138510 1_565
Li3 Na0 3.273502 1_565
Li3 Na0 3.273502 1_455
Li3 Na1 3.337985 1_555
Li3 Na1 3.337985 1_554
Li4 Li5 3.138510 1_665
Li4 Na0 3.273503 1_555
Li4 Na0 3.273503 1_565
Li4 Na1 3.337992 1_554
Li4 Na1 3.337992 1_555
Li5 Na0 3.273503 1_555
Li5 Na0 3.273503 1_455
Li5 Na1 3.337992 1_554
Li5 Na1 3.337992 1_555
