# generated using pymatgen
data_Yb2Cu(GeO3)4
_symmetry_space_group_name_H-M   'P 1'
_cell_length_a   4.87479900
_cell_length_b   7.36132329
_cell_length_c   7.99779506
_cell_angle_alpha   113.67035404
_cell_angle_beta   86.94723739
_cell_angle_gamma   103.88307203
_symmetry_Int_Tables_number   1
_chemical_formula_structural   Yb2Cu(GeO3)4
_chemical_formula_sum   'Yb2 Cu1 Ge4 O12'
_cell_volume   254.87708960
_cell_formula_units_Z   1
loop_
 _symmetry_equiv_pos_site_id
 _symmetry_equiv_pos_as_xyz
  1  'x, y, z'
loop_
 _atom_site_type_symbol
 _atom_site_label
 _atom_site_symmetry_multiplicity
 _atom_site_fract_x
 _atom_site_fract_y
 _atom_site_fract_z
 _atom_site_occupancy
  Yb  Yb0  1  0.93624700  0.76044500  0.54386800  1
  Yb  Yb1  1  0.06375300  0.23955500  0.45613200  1
  Cu  Cu0  1  0.00000000  0.00000000  0.00000000  1
  Ge  Ge0  1  0.46955100  0.82646500  0.22189900  1
  Ge  Ge1  1  0.53044900  0.17353500  0.77810100  1
  Ge  Ge2  1  0.41161200  0.62108000  0.80126200  1
  Ge  Ge3  1  0.58838800  0.37892000  0.19873800  1
  O  O0  1  0.25936700  0.94422100  0.39830200  1
  O  O1  1  0.74063300  0.05577900  0.60169800  1
  O  O2  1  0.23433900  0.59292700  0.60853500  1
  O  O3  1  0.76566100  0.40707300  0.39146500  1
  O  O4  1  0.60123400  0.64793200  0.27267300  1
  O  O5  1  0.39876600  0.35206800  0.72732700  1
  O  O6  1  0.25081400  0.70393500  0.01615600  1
  O  O7  1  0.24263700  0.22248000  0.17846100  1
  O  O8  1  0.75736300  0.77752000  0.82153900  1
  O  O9  1  0.22434800  0.99973000  0.80401200  1
  O  O10  1  0.77565200  0.00027000  0.19598800  1
  O  O11  1  0.74918600  0.29606500  0.98384400  1
loop_
_geom_bond_atom_site_label_1
_geom_bond_atom_site_label_2
_geom_bond_distance
_geom_bond_site_symmetry_2
Cu0 O10 1.862525 1_455
Cu0 O9 1.862525 1_544
Cu0 O8 1.868610 1_444
Cu0 O7 1.868610 1_555
Ge0 O0 1.755549 1_555
Ge0 O4 1.779139 1_555
Ge0 O10 1.780531 1_565
Ge0 O6 1.786563 1_555
Ge1 O1 1.755549 1_555
Ge1 O5 1.779139 1_555
Ge1 O9 1.780531 1_545
Ge1 O11 1.786563 1_555
Ge2 O2 1.721935 1_555
Ge2 O8 1.772287 1_555
Ge2 O6 1.784526 1_556
Ge2 O5 1.810885 1_555
Ge3 O3 1.721935 1_555
Ge3 O7 1.772287 1_555
Ge3 O11 1.784526 1_554
Ge3 O4 1.810885 1_555
O0 Yb0 2.390260 1_455
O0 Yb1 2.447492 1_565
O1 Yb1 2.390260 1_655
O1 Yb0 2.447492 1_545
O2 Yb0 2.313405 1_455
O2 Yb1 2.338354 1_555
O3 Yb1 2.313405 1_655
O3 Yb0 2.338354 1_555
O4 Yb0 2.518573 1_555
O5 Yb1 2.518573 1_555
O7 Yb1 2.308719 1_555
O8 Yb0 2.308719 1_555
O9 Yb0 2.363336 1_455
O10 Yb1 2.363336 1_655
