# generated using pymatgen
data_Mg4Zn7
_symmetry_space_group_name_H-M   'P 1'
_cell_length_a   13.15153151
_cell_length_b   13.15153151
_cell_length_c   14.14062752
_cell_angle_alpha   77.68749914
_cell_angle_beta   77.68749914
_cell_angle_gamma   23.19028142
_symmetry_Int_Tables_number   1
_chemical_formula_structural   Mg4Zn7
_chemical_formula_sum   'Mg20 Zn35'
_cell_volume   940.02589769
_cell_formula_units_Z   5
loop_
 _symmetry_equiv_pos_site_id
 _symmetry_equiv_pos_as_xyz
  1  'x, y, z'
loop_
 _atom_site_type_symbol
 _atom_site_label
 _atom_site_symmetry_multiplicity
 _atom_site_fract_x
 _atom_site_fract_y
 _atom_site_fract_z
 _atom_site_occupancy
  Mg  Mg0  1  0.12736900  0.12736900  0.89754100  1
  Mg  Mg1  1  0.96568500  0.96568500  0.71275000  1
  Mg  Mg2  1  0.69636700  0.69636700  0.35029400  1
  Mg  Mg3  1  0.55946300  0.55946300  0.95097000  1
  Mg  Mg4  1  0.51768100  0.51768100  0.60068800  1
  Mg  Mg5  1  0.21565300  0.21565300  0.02425100  1
  Mg  Mg6  1  0.64276800  0.64276800  0.57240600  1
  Mg  Mg7  1  0.44053700  0.44053700  0.04903000  1
  Mg  Mg8  1  0.17874000  0.17874000  0.67480200  1
  Mg  Mg9  1  0.48231900  0.48231900  0.39931200  1
  Mg  Mg10  1  0.30363300  0.30363300  0.64970600  1
  Mg  Mg11  1  0.82126000  0.82126000  0.32519800  1
  Mg  Mg12  1  0.99428000  0.99428000  0.90274200  1
  Mg  Mg13  1  0.16306900  0.16306900  0.25142000  1
  Mg  Mg14  1  0.83693100  0.83693100  0.74858000  1
  Mg  Mg15  1  0.35723200  0.35723200  0.42759400  1
  Mg  Mg16  1  0.87263100  0.87263100  0.10245900  1
  Mg  Mg17  1  0.78434700  0.78434700  0.97574900  1
  Mg  Mg18  1  0.03431500  0.03431500  0.28725000  1
  Mg  Mg19  1  0.00572000  0.00572000  0.09725800  1
  Zn  Zn0  1  0.07878500  0.07878500  0.59170500  1
  Zn  Zn1  1  0.48264700  0.48264700  0.81982800  1
  Zn  Zn2  1  0.74253300  0.74253300  0.66074000  1
  Zn  Zn3  1  0.17751100  0.68743000  0.24396100  1
  Zn  Zn4  1  0.65794600  0.17004300  0.57067900  1
  Zn  Zn5  1  0.31257000  0.82248900  0.75603900  1
  Zn  Zn6  1  0.50191900  0.00212900  0.49811700  1
  Zn  Zn7  1  0.92121500  0.92121500  0.40829500  1
  Zn  Zn8  1  0.31262600  0.31262600  0.85860300  1
  Zn  Zn9  1  0.82995700  0.34205400  0.42932100  1
  Zn  Zn10  1  0.47709500  0.98960900  0.82450500  1
  Zn  Zn11  1  0.67071100  0.67071100  0.96297800  1
  Zn  Zn12  1  0.16961400  0.16961400  0.46566400  1
  Zn  Zn13  1  0.59915700  0.59915700  0.26680600  1
  Zn  Zn14  1  0.51735300  0.51735300  0.18017200  1
  Zn  Zn15  1  0.68737400  0.68737400  0.14139700  1
  Zn  Zn16  1  0.87057500  0.34488500  0.10064900  1
  Zn  Zn17  1  0.17004300  0.65794600  0.57067900  1
  Zn  Zn18  1  0.68743000  0.17751100  0.24396100  1
  Zn  Zn19  1  0.83038600  0.83038600  0.53433600  1
  Zn  Zn20  1  0.12942500  0.65511500  0.89935100  1
  Zn  Zn21  1  0.34205400  0.82995700  0.42932100  1
  Zn  Zn22  1  0.99787100  0.49808100  0.50188300  1
  Zn  Zn23  1  0.65100000  0.65100000  0.78536900  1
  Zn  Zn24  1  0.98960900  0.47709500  0.82450500  1
  Zn  Zn25  1  0.34488500  0.87057500  0.10064900  1
  Zn  Zn26  1  0.34900000  0.34900000  0.21463100  1
  Zn  Zn27  1  0.65511500  0.12942500  0.89935100  1
  Zn  Zn28  1  0.40084300  0.40084300  0.73319400  1
  Zn  Zn29  1  0.01039100  0.52290500  0.17549500  1
  Zn  Zn30  1  0.82248900  0.31257000  0.75603900  1
  Zn  Zn31  1  0.00000000  0.00000000  0.50000000  1
  Zn  Zn32  1  0.52290500  0.01039100  0.17549500  1
  Zn  Zn33  1  0.32928900  0.32928900  0.03702200  1
  Zn  Zn34  1  0.25746700  0.25746700  0.33926000  1
loop_
_geom_bond_atom_site_label_1
_geom_bond_atom_site_label_2
_geom_bond_distance
_geom_bond_site_symmetry_2
Mg0 Zn24 2.992738 1_455
Mg0 Zn10 2.992738 1_545
Mg0 Zn5 3.066335 1_545
Mg0 Zn30 3.066335 1_455
Mg0 Zn16 3.073127 1_456
Mg0 Zn25 3.073127 1_546
Mg0 Zn23 3.074694 1_455
Mg0 Zn23 3.074694 1_545
Mg0 Zn11 3.088816 1_455
Mg0 Zn11 3.088816 1_545
Mg0 Mg8 3.139643 1_555
Mg0 Mg3 3.169257 1_545
Mg0 Mg3 3.169257 1_455
Mg0 Mg5 3.187378 1_556
Mg1 Mg12 2.936411 1_555
Mg1 Zn31 2.945211 1_665
Mg1 Zn17 2.967694 1_655
Mg1 Zn4 2.967694 1_565
Mg1 Zn0 3.041458 1_665
Mg1 Zn30 3.104593 1_565
Mg1 Zn5 3.104593 1_655
Mg1 Zn28 3.106793 1_655
Mg1 Zn28 3.106793 1_565
Mg1 Zn1 3.123985 1_655
Mg1 Zn1 3.123985 1_565
Mg1 Zn27 3.152721 1_565
Mg1 Zn20 3.152721 1_655
Mg1 Mg4 3.220120 1_565
Mg1 Mg4 3.220120 1_655
Mg1 Mg14 3.245118 1_555
Mg2 Zn13 2.992471 1_555
Mg2 Zn15 3.012876 1_555
Mg2 Zn32 3.016736 1_565
Mg2 Zn29 3.016736 1_655
Mg2 Zn22 3.057707 1_555
Mg2 Zn34 3.063233 1_565
Mg2 Zn34 3.063233 1_655
Mg2 Zn6 3.078864 1_565
Mg2 Zn9 3.100769 1_555
Mg2 Zn21 3.100769 1_555
Mg2 Zn12 3.103958 1_565
Mg2 Zn12 3.103958 1_655
Mg2 Mg6 3.143798 1_555
Mg3 Zn11 2.908136 1_555
Mg3 Zn23 2.939698 1_555
Mg3 Zn1 2.992387 1_555
Mg3 Zn25 3.017203 1_556
Mg3 Zn16 3.017203 1_556
Mg3 Zn5 3.034575 1_555
Mg3 Zn30 3.034575 1_555
Mg3 Mg7 3.076142 1_556
Mg3 Zn14 3.186017 1_556
Mg4 Zn9 2.962665 1_555
Mg4 Zn21 2.962665 1_555
Mg4 Zn1 3.033057 1_555
Mg4 Zn0 3.065189 1_655
Mg4 Zn0 3.065189 1_565
Mg4 Zn4 3.078075 1_555
Mg4 Zn17 3.078075 1_555
Mg4 Zn31 3.082960 1_565
Mg4 Zn31 3.082960 1_655
Mg4 Zn30 3.085573 1_555
Mg4 Zn5 3.085573 1_555
Mg4 Mg6 3.160167 1_555
Mg4 Mg9 3.173093 1_555
Mg4 Zn28 3.180875 1_555
Mg5 Zn33 2.972519 1_555
Mg5 Zn16 3.027187 1_455
Mg5 Zn25 3.027187 1_545
Mg5 Zn8 3.030139 1_554
Mg5 Zn10 3.047243 1_544
Mg5 Zn24 3.047243 1_454
Mg5 Zn32 3.059298 1_555
Mg5 Zn29 3.059298 1_555
Mg5 Zn11 3.084799 1_544
Mg5 Zn11 3.084799 1_454
Mg5 Zn15 3.120414 1_545
Mg5 Zn15 3.120414 1_455
Mg6 Zn22 2.985210 1_555
Mg6 Zn9 3.030610 1_555
Mg6 Zn21 3.030610 1_555
Mg6 Zn12 3.047902 1_565
Mg6 Zn12 3.047902 1_655
Mg6 Zn23 3.064604 1_555
Mg6 Zn6 3.080467 1_565
Mg6 Zn2 3.092899 1_555
Mg6 Zn0 3.095804 1_655
Mg6 Zn0 3.095804 1_565
Mg6 Zn5 3.182174 1_555
Mg6 Zn30 3.182174 1_555
Mg6 Mg8 3.244599 1_655
Mg6 Mg8 3.244599 1_565
Mg7 Zn33 2.908136 1_555
Mg7 Zn26 2.939698 1_555
Mg7 Zn14 2.992387 1_555
Mg7 Zn20 3.017203 1_554
Mg7 Zn27 3.017203 1_554
Mg7 Zn18 3.034575 1_555
Mg7 Zn3 3.034575 1_555
Mg7 Zn1 3.186017 1_554
Mg8 Zn22 3.001770 1_455
Mg8 Zn12 3.017271 1_555
Mg8 Zn0 3.054722 1_555
Mg8 Zn24 3.068993 1_455
Mg8 Zn10 3.068993 1_545
Mg8 Zn23 3.075117 1_455
Mg8 Zn23 3.075117 1_545
Mg8 Zn6 3.082070 1_555
Mg8 Zn2 3.096212 1_455
Mg8 Zn2 3.096212 1_545
Mg8 Zn30 3.126616 1_455
Mg8 Zn5 3.126616 1_545
Mg9 Zn17 2.962665 1_555
Mg9 Zn4 2.962665 1_555
Mg9 Zn14 3.033057 1_555
Mg9 Zn7 3.065189 1_455
Mg9 Zn7 3.065189 1_545
Mg9 Zn21 3.078075 1_555
Mg9 Zn9 3.078075 1_555
Mg9 Zn31 3.082960 1_565
Mg9 Zn31 3.082960 1_655
Mg9 Zn18 3.085573 1_555
Mg9 Zn3 3.085573 1_555
Mg9 Zn13 3.180875 1_555
Mg10 Zn28 2.992471 1_555
Mg10 Zn8 3.012876 1_555
Mg10 Zn10 3.016736 1_545
Mg10 Zn24 3.016736 1_455
Mg10 Zn6 3.057707 1_555
Mg10 Zn2 3.063233 1_455
Mg10 Zn2 3.063233 1_545
Mg10 Zn22 3.078864 1_455
Mg10 Zn4 3.100769 1_555
Mg10 Zn17 3.100769 1_555
Mg10 Zn19 3.103958 1_545
Mg10 Zn19 3.103958 1_455
Mg10 Mg15 3.143798 1_555
Mg10 Mg8 3.159817 1_555
Mg10 Mg14 3.193848 1_455
Mg10 Mg14 3.193848 1_545
Mg11 Zn6 3.001770 1_565
Mg11 Zn19 3.017271 1_555
Mg11 Zn7 3.054722 1_555
Mg11 Zn32 3.068993 1_565
Mg11 Zn29 3.068993 1_655
Mg11 Zn26 3.075117 1_655
Mg11 Zn26 3.075117 1_565
Mg11 Zn22 3.082070 1_555
Mg11 Zn34 3.096212 1_565
Mg11 Zn34 3.096212 1_655
Mg11 Zn3 3.126616 1_655
Mg11 Zn18 3.126616 1_565
Mg11 Mg16 3.139643 1_555
Mg11 Mg2 3.159817 1_555
Mg11 Mg15 3.244599 1_565
Mg11 Mg15 3.244599 1_655
Mg12 Zn5 2.799864 1_655
Mg12 Zn30 2.799864 1_565
Mg12 Mg19 2.829409 1_666
Mg12 Zn20 2.921940 1_655
Mg12 Zn27 2.921940 1_565
Mg12 Zn1 2.933430 1_565
Mg12 Zn1 2.933430 1_655
Mg12 Mg3 3.282083 1_655
Mg12 Mg3 3.282083 1_565
Mg12 Mg7 3.455005 1_566
Mg12 Mg7 3.455005 1_656
Mg13 Zn34 2.962126 1_555
Mg13 Zn29 2.977135 1_555
Mg13 Zn32 2.977135 1_555
Mg13 Zn15 3.062026 1_545
Mg13 Zn15 3.062026 1_455
Mg13 Zn12 3.070670 1_555
Mg13 Zn25 3.077993 1_545
Mg13 Zn16 3.077993 1_455
Mg13 Zn13 3.096890 1_545
Mg13 Zn13 3.096890 1_455
Mg13 Zn9 3.151008 1_455
Mg13 Zn21 3.151008 1_545
Mg13 Mg2 3.193848 1_545
Mg13 Mg2 3.193848 1_455
Mg13 Mg5 3.203092 1_555
Mg13 Mg18 3.245118 1_555
Mg14 Zn2 2.962126 1_555
Mg14 Zn24 2.977135 1_555
Mg14 Zn10 2.977135 1_555
Mg14 Zn8 3.062026 1_565
Mg14 Zn8 3.062026 1_655
Mg14 Zn19 3.070670 1_555
Mg14 Zn20 3.077993 1_655
Mg14 Zn27 3.077993 1_565
Mg14 Zn28 3.096890 1_565
Mg14 Zn28 3.096890 1_655
Mg14 Zn4 3.151008 1_565
Mg14 Zn17 3.151008 1_655
Mg14 Mg17 3.203092 1_555
Mg15 Zn6 2.985210 1_555
Mg15 Zn4 3.030610 1_555
Mg15 Zn17 3.030610 1_555
Mg15 Zn19 3.047902 1_455
Mg15 Zn19 3.047902 1_545
Mg15 Zn26 3.064604 1_555
Mg15 Zn22 3.080467 1_455
Mg15 Zn34 3.092899 1_555
Mg15 Zn7 3.095804 1_455
Mg15 Zn7 3.095804 1_545
Mg15 Mg9 3.160167 1_555
Mg15 Zn18 3.182174 1_555
Mg15 Zn3 3.182174 1_555
Mg16 Zn32 2.992738 1_565
Mg16 Zn29 2.992738 1_655
Mg16 Zn3 3.066335 1_655
Mg16 Zn18 3.066335 1_565
Mg16 Zn27 3.073127 1_564
Mg16 Zn20 3.073127 1_654
Mg16 Zn26 3.074694 1_565
Mg16 Zn26 3.074694 1_655
Mg16 Zn33 3.088816 1_565
Mg16 Zn33 3.088816 1_655
Mg16 Mg7 3.169257 1_655
Mg16 Mg7 3.169257 1_565
Mg16 Mg17 3.187378 1_554
Mg17 Zn11 2.972519 1_555
Mg17 Zn27 3.027187 1_565
Mg17 Zn20 3.027187 1_655
Mg17 Zn15 3.030139 1_556
Mg17 Zn29 3.047243 1_656
Mg17 Zn32 3.047243 1_566
Mg17 Zn10 3.059298 1_555
Mg17 Zn24 3.059298 1_555
Mg17 Zn33 3.084799 1_566
Mg17 Zn33 3.084799 1_656
Mg17 Zn8 3.120414 1_655
Mg17 Zn8 3.120414 1_565
Mg17 Mg5 3.172104 1_566
Mg17 Mg5 3.172104 1_656
Mg18 Mg19 2.936411 1_555
Mg18 Zn31 2.945211 1_555
Mg18 Zn9 2.967694 1_455
Mg18 Zn21 2.967694 1_545
Mg18 Zn7 3.041458 1_445
Mg18 Zn3 3.104593 1_545
Mg18 Zn18 3.104593 1_455
Mg18 Zn13 3.106793 1_545
Mg18 Zn13 3.106793 1_455
Mg18 Zn14 3.123985 1_545
Mg18 Zn14 3.123985 1_455
Mg18 Zn16 3.152721 1_455
Mg18 Zn25 3.152721 1_545
Mg18 Mg9 3.220120 1_455
Mg18 Mg9 3.220120 1_545
Mg19 Zn18 2.799864 1_455
Mg19 Zn3 2.799864 1_545
Mg19 Zn25 2.921940 1_545
Mg19 Zn16 2.921940 1_455
Mg19 Zn14 2.933430 1_545
Mg19 Zn14 2.933430 1_455
Mg19 Mg7 3.282083 1_545
Mg19 Mg7 3.282083 1_455
Mg19 Mg3 3.455005 1_454
Mg19 Mg3 3.455005 1_544
Zn0 Zn12 2.614901 1_555
Zn0 Zn30 2.620865 1_455
Zn0 Zn5 2.620865 1_545
Zn0 Zn31 2.636015 1_555
Zn0 Zn21 2.636975 1_545
Zn0 Zn9 2.636975 1_455
Zn1 Zn5 2.560281 1_555
Zn1 Zn30 2.560281 1_555
Zn1 Zn28 2.658520 1_555
Zn1 Zn20 2.734627 1_555
Zn1 Zn27 2.734627 1_555
Zn2 Zn22 2.583400 1_555
Zn2 Zn6 2.617524 1_565
Zn2 Zn23 2.618891 1_555
Zn2 Zn24 2.648683 1_555
Zn3 Zn7 2.620865 1_455
Zn4 Zn7 2.636975 1_545
Zn10 Zn8 2.548333 1_565
Zn10 Zn24 2.577231 1_465
Zn10 Zn11 2.626532 1_555
Zn10 Zn2 2.648683 1_555
Zn10 Zn23 2.674958 1_555
Zn10 Zn24 2.709549 1_555
Zn11 Zn24 2.626532 1_555
Zn11 Zn25 2.641756 1_556
Zn11 Zn16 2.641756 1_556
Zn11 Zn15 2.649764 1_556
Zn11 Zn23 2.668505 1_555
Zn12 Zn22 2.556878 1_455
Zn12 Zn34 2.560749 1_555
Zn12 Zn6 2.624704 1_555
Zn12 Zn21 2.686906 1_545
Zn12 Zn9 2.686906 1_455
Zn13 Zn15 2.560569 1_555
Zn13 Zn21 2.592347 1_555
Zn13 Zn9 2.592347 1_555
Zn13 Zn14 2.658520 1_555
Zn13 Zn25 2.697088 1_555
Zn13 Zn16 2.697088 1_555
Zn14 Zn3 2.560281 1_555
Zn14 Zn18 2.560281 1_555
Zn14 Zn25 2.734627 1_555
Zn14 Zn16 2.734627 1_555
Zn15 Zn32 2.548333 1_565
Zn15 Zn29 2.548333 1_655
Zn15 Zn16 2.643680 1_555
Zn15 Zn25 2.643680 1_555
Zn16 Zn25 2.507573 1_645
Zn16 Zn25 2.779207 1_555
Zn17 Zn4 2.579436 1_555
Zn17 Zn28 2.592347 1_555
Zn17 Zn31 2.603439 1_565
Zn17 Zn7 2.636975 1_455
Zn17 Zn19 2.686906 1_455
Zn17 Zn4 2.707344 1_465
Zn18 Zn3 2.590950 1_645
Zn18 Zn7 2.620865 1_545
Zn18 Zn26 2.646291 1_555
Zn18 Zn3 2.695830 1_555
Zn19 Zn6 2.556878 1_565
Zn19 Zn2 2.560749 1_555
Zn19 Zn7 2.614901 1_555
Zn19 Zn22 2.624704 1_555
Zn19 Zn4 2.686906 1_565
Zn20 Zn27 2.507573 1_465
Zn20 Zn33 2.641756 1_556
Zn20 Zn8 2.643680 1_555
Zn20 Zn28 2.697088 1_555
Zn20 Zn27 2.779207 1_555
Zn21 Zn9 2.579436 1_555
Zn21 Zn31 2.603439 1_565
Zn21 Zn9 2.707344 1_465
Zn22 Zn34 2.617524 1_655
Zn22 Zn6 2.645526 1_565
Zn22 Zn6 2.645526 1_655
Zn23 Zn5 2.646291 1_555
Zn23 Zn30 2.646291 1_555
Zn23 Zn24 2.674958 1_555
Zn24 Zn8 2.548333 1_655
Zn26 Zn34 2.618891 1_555
Zn26 Zn3 2.646291 1_555
Zn26 Zn33 2.668505 1_555
Zn26 Zn29 2.674958 1_555
Zn26 Zn32 2.674958 1_555
Zn27 Zn33 2.641756 1_556
Zn27 Zn8 2.643680 1_555
Zn27 Zn28 2.697088 1_555
Zn28 Zn8 2.560569 1_555
Zn28 Zn4 2.592347 1_555
Zn29 Zn32 2.577231 1_465
Zn29 Zn33 2.626532 1_555
Zn29 Zn34 2.648683 1_555
Zn29 Zn32 2.709549 1_555
Zn30 Zn5 2.590950 1_645
Zn30 Zn5 2.695830 1_555
Zn31 Zn4 2.603439 1_455
Zn31 Zn9 2.603439 1_455
Zn31 Zn7 2.636015 1_445
Zn32 Zn33 2.626532 1_555
Zn32 Zn34 2.648683 1_555
Zn33 Zn8 2.649764 1_554
Zn34 Zn6 2.583400 1_555
