# generated using pymatgen
data_ZnFeRh2
_symmetry_space_group_name_H-M   'P 1'
_cell_length_a   4.22083974
_cell_length_b   4.22084913
_cell_length_c   4.22084985
_cell_angle_alpha   59.99989249
_cell_angle_beta   59.99992070
_cell_angle_gamma   59.99986982
_symmetry_Int_Tables_number   1
_chemical_formula_structural   ZnFeRh2
_chemical_formula_sum   'Zn1 Fe1 Rh2'
_cell_volume   53.17194619
_cell_formula_units_Z   1
loop_
 _symmetry_equiv_pos_site_id
 _symmetry_equiv_pos_as_xyz
  1  'x, y, z'
loop_
 _atom_site_type_symbol
 _atom_site_label
 _atom_site_symmetry_multiplicity
 _atom_site_fract_x
 _atom_site_fract_y
 _atom_site_fract_z
 _atom_site_occupancy
  Zn  Zn0  1  0.74999900  0.74999900  0.74999900  1
  Fe  Fe0  1  0.24999900  0.25000000  0.24999900  1
  Rh  Rh0  1  0.50000000  0.50000000  0.49999900  1
  Rh  Rh1  1  0.00000000  0.99999900  -0.00000000  1
loop_
_geom_bond_atom_site_label_1
_geom_bond_atom_site_label_2
_geom_bond_distance
_geom_bond_site_symmetry_2
Fe0 Rh0 2.584719 1_455
Fe0 Rh1 2.584724 1_555
Fe0 Rh1 2.584726 1_645
Fe0 Rh0 2.584728 1_545
Fe0 Rh1 2.584729 1_545
Fe0 Rh0 2.584729 1_554
Fe0 Rh1 2.584733 1_546
Fe0 Rh0 2.584735 1_555
Rh0 Zn0 2.584725 1_555
Rh0 Zn0 2.584726 1_455
Rh0 Zn0 2.584729 1_554
Rh0 Zn0 2.584731 1_545
Rh1 Zn0 2.584719 1_554
Rh1 Zn0 2.584726 1_455
Rh1 Zn0 2.584728 1_464
Rh1 Zn0 2.584739 1_454
