# generated using pymatgen
data_SrAuO2
_symmetry_space_group_name_H-M   'P 1'
_cell_length_a   6.13774538
_cell_length_b   6.13774538
_cell_length_c   3.67159854
_cell_angle_alpha   89.98187146
_cell_angle_beta   89.98187146
_cell_angle_gamma   108.52619295
_symmetry_Int_Tables_number   1
_chemical_formula_structural   SrAuO2
_chemical_formula_sum   'Sr2 Au2 O4'
_cell_volume   131.14839021
_cell_formula_units_Z   2
loop_
 _symmetry_equiv_pos_site_id
 _symmetry_equiv_pos_as_xyz
  1  'x, y, z'
loop_
 _atom_site_type_symbol
 _atom_site_label
 _atom_site_symmetry_multiplicity
 _atom_site_fract_x
 _atom_site_fract_y
 _atom_site_fract_z
 _atom_site_occupancy
  Sr  Sr0  1  0.00000000  0.50000000  0.00000000  1
  Sr  Sr1  1  0.50000000  0.00000000  0.00000000  1
  Au  Au0  1  0.00000000  0.00000000  0.50000000  1
  Au  Au1  1  0.50000000  0.50000000  0.50000000  1
  O  O0  1  0.29285600  0.70714400  0.50000000  1
  O  O1  1  0.70714400  0.29285600  0.50000000  1
  O  O2  1  0.75191900  0.75191900  0.22327900  1
  O  O3  1  0.24808100  0.24808100  0.77672100  1
loop_
_geom_bond_atom_site_label_1
_geom_bond_atom_site_label_2
_geom_bond_distance
_geom_bond_site_symmetry_2
Au0 O3 2.048868 1_555
Au0 O2 2.048868 1_445
Au1 O0 2.064005 1_555
Au1 O1 2.064005 1_555
Au1 O3 2.071850 1_555
Au1 O2 2.071850 1_555
O0 Sr0 2.600328 1_556
O0 Sr1 2.600328 1_565
O0 Sr1 2.601699 1_566
O0 Sr0 2.601699 1_555
O1 Sr1 2.600328 1_556
O1 Sr0 2.600328 1_655
O1 Sr1 2.601699 1_555
O1 Sr0 2.601699 1_656
O2 Sr1 2.622494 1_565
O2 Sr0 2.622494 1_655
O3 Sr0 2.622494 1_556
O3 Sr1 2.622494 1_556
