# generated using pymatgen
data_Ce2USe5
_symmetry_space_group_name_H-M   'P 1'
_cell_length_a   7.90239410
_cell_length_b   8.54859868
_cell_length_c   12.42875328
_cell_angle_alpha   90.00000000
_cell_angle_beta   90.00000000
_cell_angle_gamma   90.00000000
_symmetry_Int_Tables_number   1
_chemical_formula_structural   Ce2USe5
_chemical_formula_sum   'Ce8 U4 Se20'
_cell_volume   839.61691803
_cell_formula_units_Z   4
loop_
 _symmetry_equiv_pos_site_id
 _symmetry_equiv_pos_as_xyz
  1  'x, y, z'
loop_
 _atom_site_type_symbol
 _atom_site_label
 _atom_site_symmetry_multiplicity
 _atom_site_fract_x
 _atom_site_fract_y
 _atom_site_fract_z
 _atom_site_occupancy
  Ce  Ce0  1  0.47308510  0.49948582  0.32314018  1
  Ce  Ce1  1  0.97308510  0.50051418  0.17685982  1
  Ce  Ce2  1  0.02691490  0.00051418  0.82314018  1
  Ce  Ce3  1  0.52691490  -0.00051418  0.67685982  1
  Ce  Ce4  1  0.52691490  0.50051418  0.67685982  1
  Ce  Ce5  1  0.02691490  0.49948582  0.82314018  1
  Ce  Ce6  1  0.97308510  -0.00051418  0.17685982  1
  Ce  Ce7  1  0.47308510  0.00051418  0.32314018  1
  U  U0  1  0.92716172  0.75000000  0.49092619  1
  U  U1  1  0.42716172  0.25000000  0.00907381  1
  U  U2  1  0.57283828  0.75000000  0.99092619  1
  U  U3  1  0.07283828  0.25000000  0.50907381  1
  Se  Se0  1  0.80816845  0.75000000  0.71556494  1
  Se  Se1  1  0.30816845  0.25000000  0.78443506  1
  Se  Se2  1  0.69183155  0.75000000  0.21556494  1
  Se  Se3  1  0.19183155  0.25000000  0.28443506  1
  Se  Se4  1  0.54340080  0.75000000  0.49997044  1
  Se  Se5  1  0.04340080  0.25000000  0.00002956  1
  Se  Se6  1  0.95659920  0.75000000  0.99997044  1
  Se  Se7  1  0.45659920  0.25000000  0.50002956  1
  Se  Se8  1  0.16631092  0.75000000  0.31329383  1
  Se  Se9  1  0.66631092  0.25000000  0.18670617  1
  Se  Se10  1  0.33368908  0.75000000  0.81329383  1
  Se  Se11  1  0.83368908  0.25000000  0.68670617  1
  Se  Se12  1  0.16539810  0.95815517  0.59391061  1
  Se  Se13  1  0.66539810  0.04184483  0.90608939  1
  Se  Se14  1  0.33460190  0.54184483  0.09391061  1
  Se  Se15  1  0.83460190  0.45815517  0.40608939  1
  Se  Se16  1  0.83460190  0.04184483  0.40608939  1
  Se  Se17  1  0.33460190  0.95815517  0.09391061  1
  Se  Se18  1  0.66539810  0.45815517  0.90608939  1
  Se  Se19  1  0.16539810  0.54184483  0.59391061  1
loop_
_geom_bond_atom_site_label_1
_geom_bond_atom_site_label_2
_geom_bond_distance
_geom_bond_site_symmetry_2
Ce0 Se15 3.057660 1_555
Ce0 Se2 3.059736 1_555
Ce0 Se7 3.065792 1_555
Ce0 Se14 3.073392 1_555
Ce0 Se3 3.117676 1_555
Ce0 Se4 3.118527 1_555
Ce0 Se9 3.123399 1_555
Ce0 Se8 3.237002 1_555
Ce1 Se14 3.057660 1_655
Ce1 Se3 3.059736 1_655
Ce1 Se6 3.065792 1_554
Ce1 Se15 3.073392 1_555
Ce1 Se2 3.117676 1_555
Ce1 Se5 3.118527 1_655
Ce1 Se8 3.123399 1_655
Ce1 Se9 3.237002 1_555
Ce2 Se13 3.057660 1_455
Ce2 Se0 3.059736 1_445
Ce2 Se5 3.065792 1_556
Ce2 Se12 3.073392 1_545
Ce2 Se1 3.117676 1_555
Ce2 Se6 3.118527 1_445
Ce2 Se11 3.123399 1_455
Ce2 Se10 3.237002 1_545
Ce3 Se12 3.057660 1_545
Ce3 Se1 3.059736 1_555
Ce3 Se4 3.065792 1_545
Ce3 Se13 3.073392 1_555
Ce3 Se0 3.117676 1_545
Ce3 Se7 3.118527 1_555
Ce3 Se10 3.123399 1_545
Ce3 Se11 3.237002 1_555
Ce4 Se19 3.057660 1_555
Ce4 Se1 3.059736 1_555
Ce4 Se4 3.065792 1_555
Ce4 Se18 3.073392 1_555
Ce4 Se0 3.117676 1_555
Ce4 Se7 3.118527 1_555
Ce4 Se10 3.123399 1_555
Ce4 Se11 3.237002 1_555
Ce5 Se18 3.057660 1_455
Ce5 Se0 3.059736 1_455
Ce5 Se5 3.065792 1_556
Ce5 Se19 3.073392 1_555
Ce5 Se1 3.117676 1_555
Ce5 Se6 3.118527 1_455
Ce5 Se11 3.123399 1_455
Ce5 Se10 3.237002 1_555
Ce6 Se17 3.057660 1_645
Ce6 Se3 3.059736 1_655
Ce6 Se6 3.065792 1_544
Ce6 Se16 3.073392 1_555
Ce6 Se2 3.117676 1_545
Ce6 Se5 3.118527 1_655
Ce6 Se8 3.123399 1_645
Ce6 Se9 3.237002 1_555
Ce7 Se16 3.057660 1_555
Ce7 Se2 3.059736 1_545
Ce7 Se7 3.065792 1_555
Ce7 Se17 3.073392 1_545
Ce7 Se3 3.117676 1_555
Ce7 Se4 3.118527 1_545
Ce7 Se9 3.123399 1_555
Ce7 Se8 3.237002 1_545
Se0 U0 2.946078 1_555
Se1 U1 2.946078 1_556
Se2 U2 2.946078 1_554
Se3 U3 2.946078 1_555
Se4 U0 3.034713 1_555
Se5 U1 3.034713 1_555
Se6 U2 3.034713 1_555
Se7 U3 3.034713 1_555
Se8 U0 2.906147 1_455
Se9 U1 2.906147 1_555
Se10 U2 2.906147 1_555
Se11 U3 2.906147 1_655
Se12 U3 2.805557 1_565
Se12 U0 2.889469 1_455
Se13 U2 2.805557 1_545
Se13 U1 2.889469 1_556
Se14 U1 2.805557 1_555
Se14 U2 2.889469 1_554
Se15 U0 2.805557 1_555
Se15 U3 2.889469 1_655
Se16 U0 2.805557 1_545
Se16 U3 2.889469 1_655
Se17 U1 2.805557 1_565
Se17 U2 2.889469 1_554
Se18 U2 2.805557 1_555
Se18 U1 2.889469 1_556
Se19 U3 2.805557 1_555
Se19 U0 2.889469 1_455
