# generated using pymatgen
data_Yb3In3Ge2Au
_symmetry_space_group_name_H-M   'P 1'
_cell_length_a   7.34892175
_cell_length_b   7.34892175
_cell_length_c   4.23555737
_cell_angle_alpha   90.00000000
_cell_angle_beta   90.00000000
_cell_angle_gamma   119.99999833
_symmetry_Int_Tables_number   1
_chemical_formula_structural   Yb3In3Ge2Au
_chemical_formula_sum   'Yb3 In3 Ge2 Au1'
_cell_volume   198.10181467
_cell_formula_units_Z   1
loop_
 _symmetry_equiv_pos_site_id
 _symmetry_equiv_pos_as_xyz
  1  'x, y, z'
loop_
 _atom_site_type_symbol
 _atom_site_label
 _atom_site_symmetry_multiplicity
 _atom_site_fract_x
 _atom_site_fract_y
 _atom_site_fract_z
 _atom_site_occupancy
  Yb  Yb0  1  0.40493793  0.00000000  0.50000000  1
  Yb  Yb1  1  0.00000000  0.40493793  0.50000000  1
  Yb  Yb2  1  0.59506207  0.59506207  0.50000000  1
  In  In0  1  0.74746186  1.00000000  0.00000000  1
  In  In1  1  1.00000000  0.74746186  0.00000000  1
  In  In2  1  0.25253814  0.25253814  0.00000000  1
  Ge  Ge0  1  0.33333300  0.66666700  0.00000000  1
  Ge  Ge1  1  0.66666700  0.33333300  0.00000000  1
  Au  Au0  1  0.00000000  0.00000000  0.50000000  1
loop_
_geom_bond_atom_site_label_1
_geom_bond_atom_site_label_2
_geom_bond_distance
_geom_bond_site_symmetry_2
In0 Yb0 3.289558 1_564
In0 Yb0 3.289558 1_565
In0 Yb2 3.355916 1_555
In0 Yb2 3.355916 1_554
In0 Yb1 3.355916 1_664
In0 Yb1 3.355916 1_665
In1 Yb1 3.289558 1_655
In1 Yb1 3.289558 1_654
In1 Yb2 3.355916 1_554
In1 Yb2 3.355916 1_555
In1 Yb0 3.355916 1_664
In1 Yb0 3.355916 1_665
In2 Yb2 3.289558 1_555
In2 Yb2 3.289558 1_554
In2 Yb1 3.355916 1_554
In2 Yb1 3.355916 1_555
In2 Yb0 3.355916 1_555
In2 Yb0 3.355916 1_554
Ge0 In1 2.794236 1_455
Ge0 In0 2.794241 1_555
Ge0 In2 2.794244 1_555
Ge0 Yb0 3.077917 1_565
Ge0 Yb0 3.077917 1_564
Ge0 Yb1 3.077919 1_554
Ge0 Yb1 3.077919 1_555
Ge0 Yb2 3.077922 1_555
Ge0 Yb2 3.077922 1_554
Ge1 In0 2.794236 1_545
Ge1 In1 2.794241 1_555
Ge1 In2 2.794244 1_555
Ge1 Yb1 3.077917 1_655
Ge1 Yb1 3.077917 1_654
Ge1 Yb0 3.077919 1_555
Ge1 Yb0 3.077919 1_554
Ge1 Yb2 3.077922 1_555
Ge1 Yb2 3.077922 1_554
Au0 In1 2.815899 1_445
Au0 In0 2.815899 1_445
Au0 In0 2.815899 1_446
Au0 In1 2.815899 1_446
Au0 In2 2.815899 1_556
Au0 In2 2.815899 1_555
Au0 Yb0 2.975857 1_555
Au0 Yb1 2.975857 1_555
Au0 Yb2 2.975857 1_445
