# generated using pymatgen
data_ZrCoAs
_symmetry_space_group_name_H-M   'P 1'
_cell_length_a   4.38155323
_cell_length_b   4.38155323
_cell_length_c   4.38155323
_cell_angle_alpha   60.00000000
_cell_angle_beta   60.00000000
_cell_angle_gamma   60.00000000
_symmetry_Int_Tables_number   1
_chemical_formula_structural   ZrCoAs
_chemical_formula_sum   'Zr1 Co1 As1'
_cell_volume   59.47976968
_cell_formula_units_Z   1
loop_
 _symmetry_equiv_pos_site_id
 _symmetry_equiv_pos_as_xyz
  1  'x, y, z'
loop_
 _atom_site_type_symbol
 _atom_site_label
 _atom_site_symmetry_multiplicity
 _atom_site_fract_x
 _atom_site_fract_y
 _atom_site_fract_z
 _atom_site_occupancy
  Zr  Zr0  1  0.25000000  0.25000000  0.25000000  1
  Co  Co0  1  0.50000000  0.50000000  0.50000000  1
  As  As0  1  0.00000000  0.00000000  0.00000000  1
loop_
_geom_bond_atom_site_label_1
_geom_bond_atom_site_label_2
_geom_bond_distance
_geom_bond_site_symmetry_2
Co0 Zr0 2.683142 1_655
Co0 Zr0 2.683142 1_556
Co0 Zr0 2.683142 1_565
Co0 Zr0 2.683142 1_555
As0 Zr0 2.683142 1_455
As0 Zr0 2.683142 1_554
As0 Zr0 2.683142 1_545
As0 Zr0 2.683142 1_555
As0 Co0 3.098226 1_454
As0 Co0 3.098226 1_554
As0 Co0 3.098226 1_545
As0 Co0 3.098226 1_445
As0 Co0 3.098226 1_544
As0 Co0 3.098226 1_455
