# generated using pymatgen
data_Pr2Fe17C3
_symmetry_space_group_name_H-M   'P 1'
_cell_length_a   6.56205910
_cell_length_b   6.56205910
_cell_length_c   6.56205875
_cell_angle_alpha   84.07505889
_cell_angle_beta   84.07505889
_cell_angle_gamma   84.07506249
_symmetry_Int_Tables_number   1
_chemical_formula_structural   Pr2Fe17C3
_chemical_formula_sum   'Pr2 Fe17 C3'
_cell_volume   278.32901480
_cell_formula_units_Z   1
loop_
 _symmetry_equiv_pos_site_id
 _symmetry_equiv_pos_as_xyz
  1  'x, y, z'
loop_
 _atom_site_type_symbol
 _atom_site_label
 _atom_site_symmetry_multiplicity
 _atom_site_fract_x
 _atom_site_fract_y
 _atom_site_fract_z
 _atom_site_occupancy
  Pr  Pr0  1  0.65501700  0.65501700  0.65501700  1
  Pr  Pr1  1  0.34498300  0.34498300  0.34498300  1
  Fe  Fe0  1  0.00000000  0.00000000  0.50000000  1
  Fe  Fe1  1  0.50000000  0.00000000  0.00000000  1
  Fe  Fe2  1  0.00000000  0.50000000  0.00000000  1
  Fe  Fe3  1  0.71577400  0.28422600  0.00000000  1
  Fe  Fe4  1  0.00000000  0.71577400  0.28422600  1
  Fe  Fe5  1  0.28422600  0.00000000  0.71577400  1
  Fe  Fe6  1  0.00000000  0.28422600  0.71577400  1
  Fe  Fe7  1  0.71577400  0.00000000  0.28422600  1
  Fe  Fe8  1  0.28422600  0.71577400  0.00000000  1
  Fe  Fe9  1  0.34095300  0.34095300  0.85871800  1
  Fe  Fe10  1  0.85871800  0.34095300  0.34095300  1
  Fe  Fe11  1  0.34095300  0.85871800  0.34095300  1
  Fe  Fe12  1  0.65904700  0.65904700  0.14128200  1
  Fe  Fe13  1  0.14128200  0.65904700  0.65904700  1
  Fe  Fe14  1  0.65904700  0.14128200  0.65904700  1
  Fe  Fe15  1  0.90545200  0.90545200  0.90545200  1
  Fe  Fe16  1  0.09454800  0.09454800  0.09454800  1
  C  C0  1  0.50000000  0.50000000  0.00000000  1
  C  C1  1  0.00000000  0.50000000  0.50000000  1
  C  C2  1  0.50000000  0.00000000  0.50000000  1
loop_
_geom_bond_atom_site_label_1
_geom_bond_atom_site_label_2
_geom_bond_distance
_geom_bond_site_symmetry_2
Fe0 Fe7 2.455334 1_455
Fe0 Fe5 2.455334 1_555
Fe0 Fe6 2.455334 1_555
Fe0 Fe4 2.455334 1_545
Fe0 Fe10 2.498795 1_455
Fe0 Fe11 2.498795 1_545
Fe0 Fe13 2.498795 1_545
Fe0 Fe14 2.498795 1_455
Fe0 Fe15 2.691940 1_445
Fe0 Fe16 2.691940 1_555
Fe0 Pr1 3.375131 1_555
Fe0 Pr0 3.375131 1_445
Fe1 Fe7 2.455334 1_555
Fe1 Fe5 2.455334 1_554
Fe1 Fe3 2.455334 1_555
Fe1 Fe8 2.455334 1_545
Fe1 Fe11 2.498795 1_545
Fe1 Fe14 2.498795 1_554
Fe1 Fe9 2.498795 1_554
Fe1 Fe12 2.498795 1_545
Fe1 Fe15 2.691941 1_544
Fe1 Fe16 2.691941 1_555
Fe1 Pr1 3.375131 1_555
Fe1 Pr0 3.375131 1_544
Fe2 Fe4 2.455334 1_555
Fe2 Fe6 2.455334 1_554
Fe2 Fe8 2.455334 1_555
Fe2 Fe3 2.455334 1_455
Fe2 Fe9 2.498795 1_554
Fe2 Pr1 3.375131 1_555
Fe2 Pr0 3.375131 1_454
Fe10 Fe2 2.498795 1_655
Fe10 Fe16 2.670265 1_655
Fe11 Fe16 2.670265 1_565
Fe12 Fe2 2.498795 1_655
Fe12 Fe15 2.670264 1_554
Fe13 Fe2 2.498795 1_556
Fe13 Fe15 2.670265 1_455
Fe14 Fe15 2.670265 1_545
Fe15 Fe16 2.360684 1_666
Fe15 Fe2 2.691941 1_656
Fe15 Fe4 2.762661 1_656
Fe15 Fe7 2.762661 1_566
Fe15 Fe5 2.762661 1_665
Fe15 Fe6 2.762661 1_665
Fe15 Fe8 2.762661 1_656
Fe15 Fe3 2.762661 1_566
Fe15 Pr0 3.126444 1_555
Fe16 Fe9 2.670264 1_554
Fe16 Fe2 2.691941 1_555
Fe16 Fe6 2.762661 1_554
Fe16 Fe5 2.762661 1_554
Fe16 Fe7 2.762661 1_455
Fe16 Fe4 2.762661 1_545
Fe16 Fe8 2.762661 1_545
Fe16 Fe3 2.762661 1_455
Fe16 Pr1 3.126444 1_555
C0 Fe3 1.896251 1_555
C0 Fe8 1.896251 1_555
C0 Fe12 1.913749 1_555
C0 Fe9 1.913749 1_554
C0 Pr1 2.541081 1_555
C0 Pr0 2.541081 1_554
C1 Fe6 1.896251 1_555
C1 Fe4 1.896251 1_555
C1 Fe13 1.913749 1_555
C1 Fe10 1.913749 1_455
C1 Pr0 2.541082 1_455
C1 Pr1 2.541082 1_555
C2 Fe7 1.896251 1_555
C2 Fe5 1.896251 1_555
C2 Fe14 1.913749 1_555
C2 Fe11 1.913749 1_545
C2 Pr0 2.541082 1_545
C2 Pr1 2.541082 1_555
