# generated using pymatgen
data_Ti3Be
_symmetry_space_group_name_H-M   'P 1'
_cell_length_a   5.55114560
_cell_length_b   5.55114560
_cell_length_c   4.48577200
_cell_angle_alpha   90.00000000
_cell_angle_beta   90.00000000
_cell_angle_gamma   119.99999529
_symmetry_Int_Tables_number   1
_chemical_formula_structural   Ti3Be
_chemical_formula_sum   'Ti6 Be2'
_cell_volume   119.71073185
_cell_formula_units_Z   2
loop_
 _symmetry_equiv_pos_site_id
 _symmetry_equiv_pos_as_xyz
  1  'x, y, z'
loop_
 _atom_site_type_symbol
 _atom_site_label
 _atom_site_symmetry_multiplicity
 _atom_site_fract_x
 _atom_site_fract_y
 _atom_site_fract_z
 _atom_site_occupancy
  Ti  Ti0  1  0.17421700  0.34843300  0.25000000  1
  Ti  Ti1  1  0.65156700  0.82578300  0.25000000  1
  Ti  Ti2  1  0.17421700  0.82578300  0.25000000  1
  Ti  Ti3  1  0.82578300  0.65156700  0.75000000  1
  Ti  Ti4  1  0.34843300  0.17421700  0.75000000  1
  Ti  Ti5  1  0.82578300  0.17421700  0.75000000  1
  Be  Be0  1  0.33333300  0.66666700  0.75000000  1
  Be  Be1  1  0.66666700  0.33333300  0.25000000  1
loop_
_geom_bond_atom_site_label_1
_geom_bond_atom_site_label_2
_geom_bond_distance
_geom_bond_site_symmetry_2
Ti0 Ti2 2.649839 1_555
Ti0 Ti1 2.649840 1_555
Ti0 Ti4 2.799353 1_554
Ti0 Ti4 2.799353 1_555
Ti0 Ti5 2.799358 1_454
Ti0 Ti5 2.799358 1_455
Ti0 Ti2 2.901306 1_545
Ti0 Ti1 2.901306 1_445
Ti1 Ti2 2.649839 1_555
Ti1 Ti3 2.799353 1_555
Ti1 Ti3 2.799353 1_554
Ti1 Ti5 2.799358 1_565
Ti1 Ti5 2.799358 1_564
Ti1 Ti2 2.901306 1_655
Ti2 Ti4 2.799358 1_565
Ti2 Ti4 2.799358 1_564
Ti2 Ti3 2.799358 1_455
Ti2 Ti3 2.799358 1_454
Ti3 Ti5 2.649839 1_555
Ti3 Ti4 2.649840 1_555
Ti3 Ti5 2.901306 1_565
Ti3 Ti4 2.901306 1_665
Ti4 Ti5 2.649839 1_555
Ti4 Ti5 2.901306 1_455
Be0 Ti2 2.714971 1_555
Be0 Ti2 2.714971 1_556
Be0 Ti0 2.714976 1_556
Be0 Ti0 2.714976 1_555
Be0 Ti1 2.714976 1_555
Be0 Ti1 2.714976 1_556
Be0 Ti3 2.776522 1_555
Be0 Ti4 2.776522 1_555
Be0 Ti4 2.776522 1_565
Be0 Ti3 2.776522 1_455
Be0 Ti5 2.776522 1_565
Be0 Ti5 2.776522 1_455
Be1 Ti5 2.714971 1_554
Be1 Ti5 2.714971 1_555
Be1 Ti4 2.714976 1_554
Be1 Ti3 2.714976 1_555
Be1 Ti4 2.714976 1_555
Be1 Ti3 2.714976 1_554
Be1 Ti1 2.776522 1_555
Be1 Ti0 2.776522 1_555
Be1 Ti0 2.776522 1_655
Be1 Ti1 2.776522 1_545
Be1 Ti2 2.776522 1_655
Be1 Ti2 2.776522 1_545
