# generated using pymatgen
data_Ba3MnN3
_symmetry_space_group_name_H-M   'P 1'
_cell_length_a   8.20261968
_cell_length_b   8.20245301
_cell_length_c   5.53376274
_cell_angle_alpha   90.00000000
_cell_angle_beta   90.00000000
_cell_angle_gamma   120.00174635
_symmetry_Int_Tables_number   1
_chemical_formula_structural   Ba3MnN3
_chemical_formula_sum   'Ba6 Mn2 N6'
_cell_volume   322.43327215
_cell_formula_units_Z   2
loop_
 _symmetry_equiv_pos_site_id
 _symmetry_equiv_pos_as_xyz
  1  'x, y, z'
loop_
 _atom_site_type_symbol
 _atom_site_label
 _atom_site_symmetry_multiplicity
 _atom_site_fract_x
 _atom_site_fract_y
 _atom_site_fract_z
 _atom_site_occupancy
  Ba  Ba0  1  0.63714156  0.72173563  0.75000000  1
  Ba  Ba1  1  0.91537722  0.63713019  0.25000000  1
  Ba  Ba2  1  0.72173372  0.08461038  0.25000000  1
  Ba  Ba3  1  0.27826704  0.91540644  0.75000000  1
  Ba  Ba4  1  0.08460402  0.36285258  0.75000000  1
  Ba  Ba5  1  0.36286233  0.27825481  0.25000000  1
  Mn  Mn0  1  0.33332309  0.66667717  0.25000000  1
  Mn  Mn1  1  0.66668081  0.33332669  0.75000000  1
  N  N0  1  0.86771014  0.55086581  0.75000000  1
  N  N1  1  0.31684207  0.86773755  0.25000000  1
  N  N2  1  0.55078645  0.68315755  0.25000000  1
  N  N3  1  0.44917249  0.31683077  0.75000000  1
  N  N4  1  0.68317110  0.13223374  0.75000000  1
  N  N5  1  0.13232895  0.44918069  0.25000000  1
loop_
_geom_bond_atom_site_label_1
_geom_bond_atom_site_label_2
_geom_bond_distance
_geom_bond_site_symmetry_2
Ba0 N2 2.834317 1_555
Ba0 N2 2.834317 1_556
Ba0 N0 2.862182 1_555
Ba0 N3 2.878659 1_555
Ba0 N4 3.195075 1_565
Ba1 N0 2.834167 1_555
Ba1 N0 2.834167 1_554
Ba1 N1 2.862325 1_655
Ba1 N5 2.878745 1_655
Ba1 N2 3.196145 1_555
Ba2 N4 2.834051 1_555
Ba2 N4 2.834051 1_554
Ba2 N2 2.862130 1_545
Ba2 N1 2.878597 1_545
Ba2 N5 3.195853 1_655
Ba3 N1 2.834142 1_556
Ba3 N1 2.834142 1_555
Ba3 N3 2.861948 1_565
Ba3 N4 2.878668 1_565
Ba3 N0 3.195570 1_455
Ba4 N5 2.834268 1_555
Ba4 N5 2.834268 1_556
Ba4 N4 2.862118 1_455
Ba4 N0 2.878766 1_455
Ba4 N3 3.195936 1_555
Ba5 N3 2.834245 1_555
Ba5 N3 2.834245 1_554
Ba5 N5 2.862297 1_555
Ba5 N2 2.878659 1_555
Ba5 N1 3.195262 1_545
Mn0 N2 1.720164 1_555
Mn0 N5 1.720293 1_555
Mn0 N1 1.720773 1_555
Mn1 N3 1.720476 1_555
Mn1 N0 1.720615 1_555
Mn1 N4 1.721082 1_555
