# generated using pymatgen
data_MgPb3
_symmetry_space_group_name_H-M   'P 1'
_cell_length_a   6.06545067
_cell_length_b   6.06545067
_cell_length_c   6.06545067
_cell_angle_alpha   133.54884135
_cell_angle_beta   133.54884135
_cell_angle_gamma   67.79353034
_symmetry_Int_Tables_number   1
_chemical_formula_structural   MgPb3
_chemical_formula_sum   'Mg1 Pb3'
_cell_volume   115.21758690
_cell_formula_units_Z   1
loop_
 _symmetry_equiv_pos_site_id
 _symmetry_equiv_pos_as_xyz
  1  'x, y, z'
loop_
 _atom_site_type_symbol
 _atom_site_label
 _atom_site_symmetry_multiplicity
 _atom_site_fract_x
 _atom_site_fract_y
 _atom_site_fract_z
 _atom_site_occupancy
  Mg  Mg0  1  -0.00000000  -0.00000000  -0.00000000  1
  Pb  Pb0  1  0.50000000  0.50000000  -0.00000000  1
  Pb  Pb1  1  0.75000000  0.25000000  0.50000000  1
  Pb  Pb2  1  0.25000000  0.75000000  0.50000000  1
loop_
_geom_bond_atom_site_label_1
_geom_bond_atom_site_label_2
_geom_bond_distance
_geom_bond_site_symmetry_2
Mg0 Pb0 3.382691 1_444
Mg0 Pb0 3.382691 1_455
Mg0 Pb0 3.382691 1_545
Mg0 Pb0 3.382691 1_556
Mg0 Pb2 3.472474 1_544
Mg0 Pb2 3.472474 1_444
Mg0 Pb1 3.472474 1_454
Mg0 Pb2 3.472474 1_555
Mg0 Pb2 3.472474 1_545
Mg0 Pb1 3.472474 1_455
Mg0 Pb1 3.472474 1_444
Mg0 Pb1 3.472474 1_555
Pb0 Pb2 3.472474 1_544
Pb0 Pb1 3.472474 1_565
Pb0 Pb1 3.472474 1_454
Pb0 Pb2 3.472474 1_655
Pb0 Pb2 3.472474 1_555
Pb0 Pb1 3.472474 1_554
Pb0 Pb1 3.472474 1_555
Pb0 Pb2 3.472474 1_554
Pb1 Pb2 3.382691 1_544
Pb1 Pb2 3.382691 1_656
Pb1 Pb2 3.382691 1_645
Pb1 Pb2 3.382691 1_555
