# generated using pymatgen
data_K2PAu
_symmetry_space_group_name_H-M   'P 1'
_cell_length_a   6.13471059
_cell_length_b   6.13470866
_cell_length_c   6.19794041
_cell_angle_alpha   90.00000000
_cell_angle_beta   90.00000000
_cell_angle_gamma   105.80475711
_symmetry_Int_Tables_number   1
_chemical_formula_structural   K2PAu
_chemical_formula_sum   'K4 P2 Au2'
_cell_volume   224.43918719
_cell_formula_units_Z   2
loop_
 _symmetry_equiv_pos_site_id
 _symmetry_equiv_pos_as_xyz
  1  'x, y, z'
loop_
 _atom_site_type_symbol
 _atom_site_label
 _atom_site_symmetry_multiplicity
 _atom_site_fract_x
 _atom_site_fract_y
 _atom_site_fract_z
 _atom_site_occupancy
  K  K0  1  0.97398888  0.31804187  0.75000000  1
  K  K1  1  0.02601112  0.68195813  0.25000000  1
  K  K2  1  0.68195813  0.02601112  0.25000000  1
  K  K3  1  0.31804187  0.97398888  0.75000000  1
  P  P0  1  0.25194705  0.25194705  0.25000000  1
  P  P1  1  0.74805295  0.74805295  0.75000000  1
  Au  Au0  1  0.50000000  0.50000000  0.50000000  1
  Au  Au1  1  0.50000000  0.50000000  0.00000000  1
loop_
_geom_bond_atom_site_label_1
_geom_bond_atom_site_label_2
_geom_bond_distance
_geom_bond_site_symmetry_2
K0 P1 3.297250 1_555
K0 P1 3.392360 1_545
K0 P0 3.612801 1_656
K0 P0 3.612801 1_655
K1 P0 3.297250 1_555
K1 P0 3.392360 1_565
K1 P1 3.612801 1_455
K1 P1 3.612801 1_454
K2 P0 3.297250 1_555
K2 P0 3.392361 1_655
K2 P1 3.612801 1_545
K2 P1 3.612801 1_544
K3 P1 3.297250 1_555
K3 P1 3.392361 1_455
K3 P0 3.612801 1_565
K3 P0 3.612801 1_566
Au0 P0 2.402260 1_555
Au0 P1 2.402260 1_555
Au0 K2 3.478197 1_565
Au0 K3 3.478197 1_545
Au0 K1 3.478198 1_655
Au0 K0 3.478198 1_455
Au0 K2 3.724275 1_555
Au0 K3 3.724275 1_555
Au0 K0 3.724276 1_555
Au0 K1 3.724276 1_555
Au1 P0 2.402260 1_555
Au1 P1 2.402260 1_554
Au1 K2 3.478197 1_565
Au1 K3 3.478197 1_544
Au1 K1 3.478198 1_655
Au1 K0 3.478198 1_454
Au1 K3 3.724275 1_554
Au1 K2 3.724275 1_555
Au1 K0 3.724276 1_554
Au1 K1 3.724276 1_555
