# generated using pymatgen
data_ZnAgF3
_symmetry_space_group_name_H-M   'P 1'
_cell_length_a   6.26751240
_cell_length_b   6.26751240
_cell_length_c   6.26751243
_cell_angle_alpha   51.09539145
_cell_angle_beta   51.09539134
_cell_angle_gamma   51.09540754
_symmetry_Int_Tables_number   1
_chemical_formula_structural   ZnAgF3
_chemical_formula_sum   'Zn2 Ag2 F6'
_cell_volume   137.55397762
_cell_formula_units_Z   2
loop_
 _symmetry_equiv_pos_site_id
 _symmetry_equiv_pos_as_xyz
  1  'x, y, z'
loop_
 _atom_site_type_symbol
 _atom_site_label
 _atom_site_symmetry_multiplicity
 _atom_site_fract_x
 _atom_site_fract_y
 _atom_site_fract_z
 _atom_site_occupancy
  Zn  Zn0  1  0.65941733  0.65941733  0.65941733  1
  Zn  Zn1  1  0.34058267  0.34058267  0.34058267  1
  Ag  Ag0  1  0.85689178  0.85689178  0.85689178  1
  Ag  Ag1  1  0.14310822  0.14310822  0.14310822  1
  F  F0  1  0.69213330  0.05967982  0.45798783  1
  F  F1  1  0.45798783  0.69213330  0.05967982  1
  F  F2  1  0.05967982  0.45798783  0.69213330  1
  F  F3  1  0.30786670  0.94032018  0.54201217  1
  F  F4  1  0.94032018  0.54201217  0.30786670  1
  F  F5  1  0.54201217  0.30786670  0.94032018  1
loop_
_geom_bond_atom_site_label_1
_geom_bond_atom_site_label_2
_geom_bond_distance
_geom_bond_site_symmetry_2
Ag0 F3 2.389776 1_655
Ag0 F4 2.389776 1_556
Ag0 F5 2.389777 1_565
Ag0 F1 2.556440 1_556
Ag0 F0 2.556440 1_565
Ag0 F2 2.556440 1_655
Ag1 F0 2.389776 1_455
Ag1 F2 2.389776 1_554
Ag1 F1 2.389777 1_545
Ag1 F5 2.556440 1_554
Ag1 F3 2.556440 1_545
Ag1 F4 2.556440 1_455
F0 Zn1 2.008143 1_555
F0 Zn0 2.066912 1_545
F1 Zn1 2.008142 1_555
F1 Zn0 2.066913 1_554
F2 Zn1 2.008143 1_555
F2 Zn0 2.066913 1_455
F3 Zn0 2.008143 1_555
F3 Zn1 2.066912 1_565
F4 Zn0 2.008143 1_555
F4 Zn1 2.066913 1_655
F5 Zn0 2.008142 1_555
F5 Zn1 2.066913 1_556
