# generated using pymatgen
data_CsSeBr3
_symmetry_space_group_name_H-M   'P 1'
_cell_length_a   9.32187500
_cell_length_b   6.04660900
_cell_length_c   7.68406765
_cell_angle_alpha   80.62696368
_cell_angle_beta   90.00000000
_cell_angle_gamma   90.00000000
_symmetry_Int_Tables_number   1
_chemical_formula_structural   CsSeBr3
_chemical_formula_sum   'Cs2 Se2 Br6'
_cell_volume   427.33551039
_cell_formula_units_Z   2
loop_
 _symmetry_equiv_pos_site_id
 _symmetry_equiv_pos_as_xyz
  1  'x, y, z'
loop_
 _atom_site_type_symbol
 _atom_site_label
 _atom_site_symmetry_multiplicity
 _atom_site_fract_x
 _atom_site_fract_y
 _atom_site_fract_z
 _atom_site_occupancy
  Cs  Cs0  1  0.25000000  0.20345200  0.37588600  1
  Cs  Cs1  1  0.75000000  0.79654800  0.62411400  1
  Se  Se0  1  0.00000000  0.00000000  0.00000000  1
  Se  Se1  1  0.50000000  0.00000000  0.00000000  1
  Br  Br0  1  0.97709400  0.27964500  0.70432600  1
  Br  Br1  1  0.47709400  0.72035500  0.29567400  1
  Br  Br2  1  0.52290600  0.27964500  0.70432600  1
  Br  Br3  1  0.02290600  0.72035500  0.29567400  1
  Br  Br4  1  0.25000000  0.86315400  0.89593700  1
  Br  Br5  1  0.75000000  0.13684600  0.10406300  1
loop_
_geom_bond_atom_site_label_1
_geom_bond_atom_site_label_2
_geom_bond_distance
_geom_bond_site_symmetry_2
Cs0 Se0 4.055157 1_555
Cs0 Se1 4.055157 1_555
Cs1 Se0 4.055157 1_666
Cs1 Se1 4.055157 1_566
Br0 Se0 2.610614 1_656
Br0 Cs0 3.665001 1_655
Br0 Cs1 3.739064 1_545
Br0 Cs1 3.742014 1_555
Br1 Se1 2.610614 1_565
Br1 Cs1 3.665001 1_555
Br1 Cs0 3.739064 1_565
Br1 Cs0 3.742014 1_555
Br2 Se1 2.610614 1_556
Br2 Cs0 3.665001 1_555
Br2 Cs1 3.739064 1_545
Br2 Cs1 3.742014 1_555
Br3 Se0 2.610614 1_565
Br3 Cs1 3.665001 1_455
Br3 Cs0 3.739064 1_565
Br3 Cs0 3.742014 1_555
Br4 Se0 2.640206 1_566
Br4 Se1 2.640206 1_566
Br4 Cs0 4.186228 1_565
Br5 Se1 2.640206 1_555
Br5 Se0 2.640206 1_655
Br5 Cs1 4.186228 1_545
