# generated using pymatgen
data_SmRe3
_symmetry_space_group_name_H-M   'P 1'
_cell_length_a   4.62020742
_cell_length_b   4.62020742
_cell_length_c   4.62020742
_cell_angle_alpha   60.00000000
_cell_angle_beta   60.00000000
_cell_angle_gamma   60.00000000
_symmetry_Int_Tables_number   1
_chemical_formula_structural   SmRe3
_chemical_formula_sum   'Sm1 Re3'
_cell_volume   69.73798954
_cell_formula_units_Z   1
loop_
 _symmetry_equiv_pos_site_id
 _symmetry_equiv_pos_as_xyz
  1  'x, y, z'
loop_
 _atom_site_type_symbol
 _atom_site_label
 _atom_site_symmetry_multiplicity
 _atom_site_fract_x
 _atom_site_fract_y
 _atom_site_fract_z
 _atom_site_occupancy
  Sm  Sm0  1  0.00000000  0.00000000  0.00000000  1
  Re  Re0  1  0.25000000  0.25000000  0.25000000  1
  Re  Re1  1  0.75000000  0.75000000  0.75000000  1
  Re  Re2  1  0.50000000  0.50000000  0.50000000  1
loop_
_geom_bond_atom_site_label_1
_geom_bond_atom_site_label_2
_geom_bond_distance
_geom_bond_site_symmetry_2
Re0 Re2 2.829288 1_554
Re0 Sm0 2.829288 1_556
Re0 Sm0 2.829288 1_555
Re0 Sm0 2.829288 1_565
Re0 Re2 2.829288 1_555
Re0 Sm0 2.829288 1_655
Re0 Re2 2.829288 1_455
Re0 Re2 2.829288 1_545
Re1 Re2 2.829288 1_556
Re1 Sm0 2.829288 1_656
Re1 Sm0 2.829288 1_665
Re1 Re2 2.829288 1_565
Re1 Re2 2.829288 1_555
Re1 Re2 2.829288 1_655
Re1 Sm0 2.829288 1_566
Re1 Sm0 2.829288 1_666
Re2 Sm0 3.266980 1_565
Re2 Sm0 3.266980 1_656
Re2 Sm0 3.266980 1_665
Re2 Sm0 3.266980 1_655
Re2 Sm0 3.266980 1_566
Re2 Sm0 3.266980 1_556
