# generated using pymatgen
data_U3Si
_symmetry_space_group_name_H-M   'P 1'
_cell_length_a   6.00945098
_cell_length_b   6.00944873
_cell_length_c   6.00296366
_cell_angle_alpha   120.35359780
_cell_angle_beta   120.35353262
_cell_angle_gamma   89.42418020
_symmetry_Int_Tables_number   1
_chemical_formula_structural   U3Si
_chemical_formula_sum   'U6 Si2'
_cell_volume   152.41682621
_cell_formula_units_Z   2
loop_
 _symmetry_equiv_pos_site_id
 _symmetry_equiv_pos_as_xyz
  1  'x, y, z'
loop_
 _atom_site_type_symbol
 _atom_site_label
 _atom_site_symmetry_multiplicity
 _atom_site_fract_x
 _atom_site_fract_y
 _atom_site_fract_z
 _atom_site_occupancy
  U  U0  1  0.74997832  0.24997734  0.50006908  1
  U  U1  1  0.25002529  0.75002405  0.49993908  1
  U  U2  1  0.22131624  0.72131528  0.94270176  1
  U  U3  1  0.77869027  0.27868939  0.05730349  1
  U  U4  1  0.72154130  0.77845115  0.49999460  1
  U  U5  1  0.27845036  0.22154219  0.49999427  1
  Si  Si0  1  0.74993139  0.75006782  0.99999824  1
  Si  Si1  1  0.25006683  0.24993277  0.99999847  1
loop_
_geom_bond_atom_site_label_1
_geom_bond_atom_site_label_2
_geom_bond_distance
_geom_bond_site_symmetry_2
U0 U3 2.837534 1_555
U0 U2 2.838022 1_655
U0 U4 2.840236 1_545
U0 U5 2.840246 1_555
U0 U3 3.175359 1_556
U0 U2 3.177687 1_544
U0 U5 3.178920 1_655
U0 U4 3.178929 1_555
U1 U2 2.837496 1_555
U1 U3 2.838001 1_455
U1 U4 2.840232 1_555
U1 U5 2.840244 1_565
U1 U2 3.175394 1_554
U1 U3 3.177705 1_566
U1 U5 3.178919 1_555
U1 U4 3.178934 1_455
U2 U5 3.005889 1_555
U2 U4 3.005904 1_455
U2 U4 3.007015 1_556
U2 U5 3.007020 1_566
U3 U5 3.005849 1_655
U3 U4 3.005858 1_555
U3 U4 3.007065 1_544
U3 U5 3.007078 1_554
Si0 U1 2.986808 1_555
Si0 U0 2.986840 1_566
Si0 U0 2.987240 1_555
Si0 U1 2.987279 1_656
Si0 U4 3.011063 1_556
Si0 U4 3.011066 1_555
Si0 U5 3.012550 1_666
Si0 U5 3.012589 1_555
Si0 U2 3.014331 1_555
Si0 U3 3.014345 1_566
Si0 U3 3.014542 1_556
Si0 U2 3.014552 1_655
Si1 U1 2.986819 1_545
Si1 U0 2.986856 1_556
Si1 U0 2.987231 1_455
Si1 U1 2.987260 1_556
Si1 U5 3.011061 1_556
Si1 U5 3.011068 1_555
Si1 U4 3.012547 1_556
Si1 U4 3.012591 1_445
Si1 U2 3.014343 1_545
Si1 U3 3.014358 1_556
Si1 U3 3.014531 1_456
Si1 U2 3.014539 1_555
