# generated using pymatgen
data_Ac3Yb
_symmetry_space_group_name_H-M   'P 1'
_cell_length_a   7.88173603
_cell_length_b   7.88173603
_cell_length_c   6.22966536
_cell_angle_alpha   90.00000000
_cell_angle_beta   90.00000000
_cell_angle_gamma   119.99999480
_symmetry_Int_Tables_number   1
_chemical_formula_structural   Ac3Yb
_chemical_formula_sum   'Ac6 Yb2'
_cell_volume   335.14993835
_cell_formula_units_Z   2
loop_
 _symmetry_equiv_pos_site_id
 _symmetry_equiv_pos_as_xyz
  1  'x, y, z'
loop_
 _atom_site_type_symbol
 _atom_site_label
 _atom_site_symmetry_multiplicity
 _atom_site_fract_x
 _atom_site_fract_y
 _atom_site_fract_z
 _atom_site_occupancy
  Ac  Ac0  1  0.17066354  0.34132607  0.25000000  1
  Ac  Ac1  1  0.65867393  0.82933646  0.25000000  1
  Ac  Ac2  1  0.17066354  0.82933646  0.25000000  1
  Ac  Ac3  1  0.82933646  0.65867393  0.75000000  1
  Ac  Ac4  1  0.34132607  0.17066354  0.75000000  1
  Ac  Ac5  1  0.82933646  0.17066354  0.75000000  1
  Yb  Yb0  1  0.33333300  0.66666700  0.75000000  1
  Yb  Yb1  1  0.66666700  0.33333300  0.25000000  1
loop_
_geom_bond_atom_site_label_1
_geom_bond_atom_site_label_2
_geom_bond_distance
_geom_bond_site_symmetry_2
Ac0 Yb0 3.825405 1_555
Ac0 Yb0 3.825405 1_554
Ac0 Ac2 3.846369 1_555
Ac0 Ac1 3.846369 1_555
Ac0 Ac4 3.889756 1_554
Ac0 Ac4 3.889756 1_555
Ac0 Ac5 3.889764 1_455
Ac0 Ac5 3.889764 1_454
Ac0 Yb1 3.941246 1_555
Ac0 Yb1 3.941246 1_455
Ac0 Ac2 4.035367 1_545
Ac0 Ac1 4.035367 1_445
Ac1 Yb0 3.825405 1_554
Ac1 Yb0 3.825405 1_555
Ac1 Ac2 3.846369 1_555
Ac1 Ac3 3.889756 1_555
Ac1 Ac3 3.889756 1_554
Ac1 Ac5 3.889764 1_565
Ac1 Ac5 3.889764 1_564
Ac1 Yb1 3.941246 1_555
Ac1 Yb1 3.941246 1_565
Ac1 Ac2 4.035367 1_655
Ac2 Yb0 3.825397 1_554
Ac2 Yb0 3.825397 1_555
Ac2 Ac3 3.889764 1_455
Ac2 Ac3 3.889764 1_454
Ac2 Ac4 3.889764 1_565
Ac2 Ac4 3.889764 1_564
Ac2 Yb1 3.941246 1_565
Ac2 Yb1 3.941246 1_455
Ac3 Yb1 3.825405 1_555
Ac3 Yb1 3.825405 1_556
Ac3 Ac5 3.846369 1_555
Ac3 Ac4 3.846369 1_555
Ac3 Yb0 3.941246 1_555
Ac3 Yb0 3.941246 1_655
Ac3 Ac5 4.035367 1_565
Ac3 Ac4 4.035367 1_665
Ac4 Yb1 3.825405 1_555
Ac4 Yb1 3.825405 1_556
Ac4 Ac5 3.846369 1_555
Ac4 Yb0 3.941246 1_555
Ac4 Yb0 3.941246 1_545
Ac4 Ac5 4.035367 1_455
Ac5 Yb1 3.825397 1_555
Ac5 Yb1 3.825397 1_556
Ac5 Yb0 3.941246 1_545
Ac5 Yb0 3.941246 1_655
