# generated using pymatgen
data_Fe4O7F
_symmetry_space_group_name_H-M   'P 1'
_cell_length_a   5.99679900
_cell_length_b   4.64283200
_cell_length_c   9.26691834
_cell_angle_alpha   88.13092055
_cell_angle_beta   90.00000000
_cell_angle_gamma   90.00000000
_symmetry_Int_Tables_number   1
_chemical_formula_structural   Fe4O7F
_chemical_formula_sum   'Fe8 O14 F2'
_cell_volume   257.87347668
_cell_formula_units_Z   2
loop_
 _symmetry_equiv_pos_site_id
 _symmetry_equiv_pos_as_xyz
  1  'x, y, z'
loop_
 _atom_site_type_symbol
 _atom_site_label
 _atom_site_symmetry_multiplicity
 _atom_site_fract_x
 _atom_site_fract_y
 _atom_site_fract_z
 _atom_site_occupancy
  Fe  Fe0  1  0.99509800  0.98191200  0.74258100  1
  Fe  Fe1  1  0.50490200  0.98191200  0.74258100  1
  Fe  Fe2  1  0.00490200  0.01808800  0.25741900  1
  Fe  Fe3  1  0.49509800  0.01808800  0.25741900  1
  Fe  Fe4  1  0.25000000  0.50220700  0.50068900  1
  Fe  Fe5  1  0.75000000  0.49779300  0.49931100  1
  Fe  Fe6  1  0.25000000  0.52912300  0.01481700  1
  Fe  Fe7  1  0.75000000  0.47087700  0.98518300  1
  O  O0  1  0.25000000  0.21096100  0.35419500  1
  O  O1  1  0.75000000  0.19468600  0.34715700  1
  O  O2  1  0.75000000  0.17267400  0.83789000  1
  O  O3  1  0.00145700  0.30508000  0.59548300  1
  O  O4  1  0.49854300  0.30508000  0.59548300  1
  O  O5  1  0.99842000  0.31405200  0.09683300  1
  O  O6  1  0.50158000  0.31405200  0.09683300  1
  O  O7  1  0.99854300  0.69492000  0.40451700  1
  O  O8  1  0.50145700  0.69492000  0.40451700  1
  O  O9  1  0.00158000  0.68594800  0.90316700  1
  O  O10  1  0.49842000  0.68594800  0.90316700  1
  O  O11  1  0.25000000  0.80531400  0.65284300  1
  O  O12  1  0.75000000  0.78903900  0.64580500  1
  O  O13  1  0.25000000  0.82732600  0.16211000  1
  F  F0  1  0.25000000  0.18858800  0.84812300  1
  F  F1  1  0.75000000  0.81141200  0.15187700  1
loop_
_geom_bond_atom_site_label_1
_geom_bond_atom_site_label_2
_geom_bond_distance
_geom_bond_site_symmetry_2
Fe0 O11 1.935173 1_655
Fe0 O2 1.943155 1_565
Fe0 O12 1.954192 1_555
Fe0 O9 1.992700 1_655
Fe0 O3 1.994354 1_665
Fe1 O11 1.935173 1_555
Fe1 O2 1.943155 1_565
Fe1 O12 1.954192 1_555
Fe1 O10 1.992700 1_555
Fe1 O4 1.994354 1_565
Fe2 O1 1.935173 1_455
Fe2 O13 1.943155 1_545
Fe2 O0 1.954192 1_555
Fe2 O5 1.992700 1_455
Fe2 O7 1.994354 1_445
Fe3 O1 1.935173 1_555
Fe3 O13 1.943155 1_545
Fe3 O0 1.954192 1_555
Fe3 O6 1.992700 1_555
Fe3 O8 1.994354 1_545
Fe4 O4 1.943797 1_555
Fe4 O3 1.943797 1_555
Fe4 O0 1.947086 1_555
Fe4 O8 1.953632 1_555
Fe4 O7 1.953632 1_455
Fe4 O11 2.024341 1_555
Fe5 O8 1.943797 1_555
Fe5 O7 1.943797 1_555
Fe5 O12 1.947086 1_555
Fe5 O4 1.953632 1_555
Fe5 O3 1.953632 1_655
Fe5 O1 2.024341 1_555
Fe6 O10 1.941852 1_554
Fe6 O9 1.941852 1_554
Fe6 O6 1.949699 1_555
Fe6 O5 1.949699 1_455
Fe6 O13 1.975658 1_555
Fe7 O6 1.941852 1_556
Fe7 O5 1.941852 1_556
Fe7 O9 1.949699 1_655
Fe7 O10 1.949699 1_555
Fe7 O2 1.975658 1_555
F0 Fe1 2.067647 1_545
F0 Fe0 2.067647 1_445
F0 Fe6 2.246162 1_556
F1 Fe3 2.067647 1_565
F1 Fe2 2.067647 1_665
F1 Fe7 2.246162 1_554
