# generated using pymatgen
data_CeAlSi2
_symmetry_space_group_name_H-M   'P 1'
_cell_length_a   4.14447420
_cell_length_b   4.14447420
_cell_length_c   10.91442000
_cell_angle_alpha   90.00000000
_cell_angle_beta   90.00000000
_cell_angle_gamma   120.00000319
_symmetry_Int_Tables_number   1
_chemical_formula_structural   CeAlSi2
_chemical_formula_sum   'Ce2 Al2 Si4'
_cell_volume   162.35667946
_cell_formula_units_Z   2
loop_
 _symmetry_equiv_pos_site_id
 _symmetry_equiv_pos_as_xyz
  1  'x, y, z'
loop_
 _atom_site_type_symbol
 _atom_site_label
 _atom_site_symmetry_multiplicity
 _atom_site_fract_x
 _atom_site_fract_y
 _atom_site_fract_z
 _atom_site_occupancy
  Ce  Ce0  1  0.00000000  0.00000000  0.17887600  1
  Ce  Ce1  1  0.00000000  0.00000000  0.82112400  1
  Al  Al0  1  0.66666700  0.33333300  0.58586000  1
  Al  Al1  1  0.33333300  0.66666700  0.41414000  1
  Si  Si0  1  0.33333300  0.66666700  0.00306200  1
  Si  Si1  1  0.66666700  0.33333300  0.99693800  1
  Si  Si2  1  0.33333300  0.66666700  0.64911100  1
  Si  Si3  1  0.66666700  0.33333300  0.35088900  1
loop_
_geom_bond_atom_site_label_1
_geom_bond_atom_site_label_2
_geom_bond_distance
_geom_bond_site_symmetry_2
Ce0 Si3 3.041424 1_455
Ce0 Si3 3.041426 1_555
Ce0 Si3 3.041426 1_445
Ce0 Si0 3.067206 1_545
Ce0 Si0 3.067209 1_555
Ce0 Si0 3.067209 1_445
Ce0 Si1 3.109459 1_454
Ce0 Si1 3.109462 1_444
Ce0 Si1 3.109462 1_554
Ce1 Si2 3.041424 1_545
Ce1 Si2 3.041426 1_445
Ce1 Si2 3.041426 1_555
Ce1 Si1 3.067206 1_455
Ce1 Si1 3.067209 1_445
Ce1 Si1 3.067209 1_555
Ce1 Si0 3.109459 1_546
Ce1 Si0 3.109462 1_446
Ce1 Si0 3.109462 1_556
Al0 Si2 2.490406 1_545
Al0 Si2 2.490406 1_655
Al0 Si2 2.490413 1_555
Al0 Si3 2.564572 1_555
Al1 Si3 2.490406 1_455
Al1 Si3 2.490406 1_565
Al1 Si3 2.490413 1_555
Al1 Si2 2.564572 1_555
Si0 Si1 2.393744 1_454
Si0 Si1 2.393744 1_564
Si0 Si1 2.393751 1_554
