# generated using pymatgen
data_PaFe3
_symmetry_space_group_name_H-M   'P 1'
_cell_length_a   3.87102386
_cell_length_b   3.85927816
_cell_length_c   3.85894735
_cell_angle_alpha   90.00194597
_cell_angle_beta   89.99883157
_cell_angle_gamma   90.06947798
_symmetry_Int_Tables_number   1
_chemical_formula_structural   PaFe3
_chemical_formula_sum   'Pa1 Fe3'
_cell_volume   57.65015283
_cell_formula_units_Z   1
loop_
 _symmetry_equiv_pos_site_id
 _symmetry_equiv_pos_as_xyz
  1  'x, y, z'
loop_
 _atom_site_type_symbol
 _atom_site_label
 _atom_site_symmetry_multiplicity
 _atom_site_fract_x
 _atom_site_fract_y
 _atom_site_fract_z
 _atom_site_occupancy
  Pa  Pa0  1  0.00006188  0.99998981  0.99999702  1
  Fe  Fe0  1  0.00013474  0.49986632  0.50000146  1
  Fe  Fe1  1  0.49990816  0.00000455  0.49999191  1
  Fe  Fe2  1  0.49989222  0.50013532  0.00000661  1
loop_
_geom_bond_atom_site_label_1
_geom_bond_atom_site_label_2
_geom_bond_distance
_geom_bond_site_symmetry_2
Fe0 Pa0 2.728433 1_544
Fe0 Pa0 2.728502 1_545
Fe0 Pa0 2.729084 1_555
Fe0 Pa0 2.729201 1_554
Fe0 Fe1 2.731176 1_565
Fe0 Fe1 2.731665 1_455
Fe0 Fe2 2.732254 1_555
Fe0 Fe2 2.732337 1_556
Fe0 Fe2 2.733613 1_456
Fe0 Fe2 2.733641 1_455
Fe0 Fe1 2.733736 1_555
Fe0 Fe1 2.735733 1_465
Fe1 Fe2 2.728361 1_545
Fe1 Fe2 2.728534 1_546
Fe1 Fe2 2.729156 1_556
Fe1 Fe2 2.729168 1_555
Fe1 Pa0 2.732525 1_545
Fe1 Pa0 2.732553 1_544
Fe1 Pa0 2.733341 1_644
Fe1 Pa0 2.733424 1_645
Fe2 Pa0 2.731352 1_544
Fe2 Pa0 2.731489 1_654
Fe2 Pa0 2.733872 1_554
Fe2 Pa0 2.735596 1_644
