# generated using pymatgen
data_TmSi3
_symmetry_space_group_name_H-M   'P 1'
_cell_length_a   4.10504600
_cell_length_b   4.10504600
_cell_length_c   4.10504600
_cell_angle_alpha   90.00000000
_cell_angle_beta   90.00000000
_cell_angle_gamma   90.00000000
_symmetry_Int_Tables_number   1
_chemical_formula_structural   TmSi3
_chemical_formula_sum   'Tm1 Si3'
_cell_volume   69.17578309
_cell_formula_units_Z   1
loop_
 _symmetry_equiv_pos_site_id
 _symmetry_equiv_pos_as_xyz
  1  'x, y, z'
loop_
 _atom_site_type_symbol
 _atom_site_label
 _atom_site_symmetry_multiplicity
 _atom_site_fract_x
 _atom_site_fract_y
 _atom_site_fract_z
 _atom_site_occupancy
  Tm  Tm0  1  0.50000000  0.50000000  0.50000000  1
  Si  Si0  1  0.50000000  0.00000000  0.00000000  1
  Si  Si1  1  0.00000000  0.50000000  0.00000000  1
  Si  Si2  1  0.00000000  0.00000000  0.50000000  1
loop_
_geom_bond_atom_site_label_1
_geom_bond_atom_site_label_2
_geom_bond_distance
_geom_bond_site_symmetry_2
Si0 Tm0 2.902706 1_544
Si0 Tm0 2.902706 1_545
Si0 Tm0 2.902706 1_555
Si0 Tm0 2.902706 1_554
Si1 Tm0 2.902706 1_455
Si1 Tm0 2.902706 1_555
Si1 Tm0 2.902706 1_454
Si1 Tm0 2.902706 1_554
Si2 Tm0 2.902706 1_455
Si2 Tm0 2.902706 1_545
Si2 Tm0 2.902706 1_555
Si2 Tm0 2.902706 1_445
