# generated using pymatgen
data_Hf2FeTc
_symmetry_space_group_name_H-M   'P 1'
_cell_length_a   4.50232416
_cell_length_b   4.50232412
_cell_length_c   4.50232500
_cell_angle_alpha   60.00015082
_cell_angle_beta   60.00014448
_cell_angle_gamma   60.00016438
_symmetry_Int_Tables_number   1
_chemical_formula_structural   Hf2FeTc
_chemical_formula_sum   'Hf2 Fe1 Tc1'
_cell_volume   64.53523101
_cell_formula_units_Z   1
loop_
 _symmetry_equiv_pos_site_id
 _symmetry_equiv_pos_as_xyz
  1  'x, y, z'
loop_
 _atom_site_type_symbol
 _atom_site_label
 _atom_site_symmetry_multiplicity
 _atom_site_fract_x
 _atom_site_fract_y
 _atom_site_fract_z
 _atom_site_occupancy
  Hf  Hf0  1  0.00000003  0.00000013  0.00000013  1
  Hf  Hf1  1  0.49999907  0.49999916  0.49999917  1
  Fe  Fe0  1  0.25000094  0.25000072  0.25000073  1
  Tc  Tc0  1  0.74999996  0.74999998  0.74999998  1
loop_
_geom_bond_atom_site_label_1
_geom_bond_atom_site_label_2
_geom_bond_distance
_geom_bond_site_symmetry_2
Hf0 Tc0 2.757098 1_444
Hf0 Tc0 2.757104 1_445
Hf0 Tc0 2.757104 1_454
Hf0 Tc0 2.757104 1_544
Hf1 Tc0 2.757101 1_455
Hf1 Tc0 2.757102 1_545
Hf1 Tc0 2.757102 1_554
Hf1 Tc0 2.757105 1_555
Fe0 Hf1 2.757078 1_555
Fe0 Hf0 2.757101 1_655
Fe0 Hf0 2.757103 1_556
Fe0 Hf0 2.757103 1_565
Fe0 Hf0 2.757104 1_555
Fe0 Hf1 2.757110 1_554
Fe0 Hf1 2.757110 1_545
Fe0 Hf1 2.757111 1_455
