# generated using pymatgen
data_ScClO
_symmetry_space_group_name_H-M   'P 1'
_cell_length_a   4.32072100
_cell_length_b   4.32072100
_cell_length_c   5.64459200
_cell_angle_alpha   90.00000000
_cell_angle_beta   90.00000000
_cell_angle_gamma   90.00000000
_symmetry_Int_Tables_number   1
_chemical_formula_structural   ScClO
_chemical_formula_sum   'Sc2 Cl2 O2'
_cell_volume   105.37679932
_cell_formula_units_Z   2
loop_
 _symmetry_equiv_pos_site_id
 _symmetry_equiv_pos_as_xyz
  1  'x, y, z'
loop_
 _atom_site_type_symbol
 _atom_site_label
 _atom_site_symmetry_multiplicity
 _atom_site_fract_x
 _atom_site_fract_y
 _atom_site_fract_z
 _atom_site_occupancy
  Sc  Sc0  1  0.00000000  0.50000000  0.28274300  1
  Sc  Sc1  1  0.50000000  0.00000000  0.71725700  1
  Cl  Cl0  1  0.50000000  0.50000000  0.00000000  1
  Cl  Cl1  1  0.00000000  0.00000000  0.00000000  1
  O  O0  1  0.00000000  0.50000000  0.59888900  1
  O  O1  1  0.50000000  0.00000000  0.40111100  1
loop_
_geom_bond_atom_site_label_1
_geom_bond_atom_site_label_2
_geom_bond_distance
_geom_bond_site_symmetry_2
Cl0 Sc1 2.685940 1_564
Cl0 Sc1 2.685940 1_554
Cl0 Sc0 2.685940 1_655
Cl0 Sc0 2.685940 1_555
Cl1 Sc1 2.685940 1_554
Cl1 Sc1 2.685940 1_454
Cl1 Sc0 2.685940 1_545
Cl1 Sc0 2.685940 1_555
O0 Sc0 1.784515 1_555
O1 Sc1 1.784515 1_555
