# generated using pymatgen
data_Sr2Si5N8
_symmetry_space_group_name_H-M   'P 1'
_cell_length_a   5.70778879
_cell_length_b   6.83934074
_cell_length_c   9.33061690
_cell_angle_alpha   90.00000000
_cell_angle_beta   90.00000000
_cell_angle_gamma   90.00000000
_symmetry_Int_Tables_number   1
_chemical_formula_structural   Sr2Si5N8
_chemical_formula_sum   'Sr4 Si10 N16'
_cell_volume   364.24407300
_cell_formula_units_Z   2
loop_
 _symmetry_equiv_pos_site_id
 _symmetry_equiv_pos_as_xyz
  1  'x, y, z'
loop_
 _atom_site_type_symbol
 _atom_site_label
 _atom_site_symmetry_multiplicity
 _atom_site_fract_x
 _atom_site_fract_y
 _atom_site_fract_z
 _atom_site_occupancy
  Sr  Sr0  1  0.50000000  0.11747304  0.86813549  1
  Sr  Sr1  1  0.00000000  0.88252696  0.36813549  1
  Sr  Sr2  1  0.50000000  0.12880134  0.49983514  1
  Sr  Sr3  1  0.00000000  0.87119866  0.99983514  1
  Si  Si0  1  0.50000000  0.59811487  0.40189835  1
  Si  Si1  1  0.00000000  0.40188513  0.90189835  1
  Si  Si2  1  0.50000000  0.58008637  0.96115495  1
  Si  Si3  1  0.00000000  0.41991363  0.46115495  1
  Si  Si4  1  0.50000000  0.94526150  0.17747353  1
  Si  Si5  1  0.00000000  0.05473850  0.67747353  1
  Si  Si6  1  0.75172925  0.33278664  0.18295082  1
  Si  Si7  1  0.74827075  0.66721336  0.68295082  1
  Si  Si8  1  0.24827075  0.33278664  0.18295082  1
  Si  Si9  1  0.25172925  0.66721336  0.68295082  1
  N  N0  1  0.50000000  0.57472054  0.77174627  1
  N  N1  1  0.00000000  0.42527946  0.27174627  1
  N  N2  1  0.50000000  0.82508155  0.33800356  1
  N  N3  1  0.00000000  0.17491845  0.83800356  1
  N  N4  1  0.50000000  0.41405770  0.27320201  1
  N  N5  1  0.00000000  0.58594230  0.77320201  1
  N  N6  1  0.74936208  0.55590683  0.51102279  1
  N  N7  1  0.75063792  0.44409317  0.01102279  1
  N  N8  1  0.25063792  0.55590683  0.51102279  1
  N  N9  1  0.24936208  0.44409317  0.01102279  1
  N  N10  1  0.74704907  0.08733754  0.17186938  1
  N  N11  1  0.75295093  0.91266246  0.67186938  1
  N  N12  1  0.25295093  0.08733754  0.17186938  1
  N  N13  1  0.24704907  0.91266246  0.67186938  1
  N  N14  1  0.00000000  0.19092380  0.52221572  1
  N  N15  1  0.50000000  0.80907620  0.02221572  1
loop_
_geom_bond_atom_site_label_1
_geom_bond_atom_site_label_2
_geom_bond_distance
_geom_bond_site_symmetry_2
N0 Si7 1.759181 1_555
N0 Si9 1.759181 1_555
N0 Si2 1.767681 1_555
N0 Sr0 3.254027 1_555
N1 Si8 1.759181 1_555
N1 Si6 1.759181 1_455
N1 Si3 1.767681 1_555
N1 Sr1 3.254027 1_555
N2 Si0 1.662850 1_555
N2 Si4 1.708550 1_555
N2 Sr2 2.568074 1_565
N2 Sr1 2.894498 1_555
N2 Sr1 2.894498 1_655
N3 Si1 1.662850 1_555
N3 Si5 1.708550 1_555
N3 Sr3 2.568074 1_545
N3 Sr0 2.894498 1_455
N3 Sr0 2.894498 1_555
N4 Si0 1.739716 1_555
N4 Si8 1.755715 1_555
N4 Si6 1.755715 1_555
N4 Sr2 2.877136 1_555
N5 Si1 1.739716 1_555
N5 Si9 1.755715 1_555
N5 Si7 1.755715 1_455
N5 Sr3 2.877136 1_555
N6 Si3 1.768666 1_655
N6 Si0 1.773658 1_555
N6 Si7 1.775669 1_555
N6 Sr1 2.968878 1_655
N7 Si2 1.768666 1_554
N7 Si1 1.773658 1_654
N7 Si6 1.775669 1_555
N7 Sr0 2.968878 1_554
N8 Si3 1.768666 1_555
N8 Si0 1.773658 1_555
N8 Si9 1.775669 1_555
N8 Sr1 2.968878 1_555
N9 Si2 1.768666 1_554
N9 Si1 1.773658 1_554
N9 Si8 1.775669 1_555
N9 Sr0 2.968878 1_554
N10 Si6 1.682103 1_555
N10 Si4 1.713284 1_545
N10 Sr3 2.616556 1_644
N10 Sr1 2.720347 1_645
N10 Sr0 3.172155 1_554
N11 Si7 1.682103 1_555
N11 Si5 1.713284 1_665
N11 Sr2 2.616556 1_565
N11 Sr0 2.720347 1_565
N11 Sr1 3.172155 1_655
N12 Si8 1.682103 1_555
N12 Si4 1.713284 1_545
N12 Sr3 2.616556 1_544
N12 Sr1 2.720347 1_545
N12 Sr0 3.172155 1_554
N13 Si9 1.682103 1_555
N13 Si5 1.713284 1_565
N13 Sr2 2.616556 1_565
N13 Sr0 2.720347 1_565
N13 Sr1 3.172155 1_555
N14 Si3 1.666550 1_555
N14 Si5 1.722245 1_555
N14 Sr1 2.552593 1_545
N14 Sr2 2.892895 1_555
N14 Sr2 2.892895 1_455
N15 Si2 1.666550 1_554
N15 Si4 1.722245 1_555
N15 Sr0 2.552593 1_564
N15 Sr3 2.892895 1_654
N15 Sr3 2.892895 1_554
