# generated using pymatgen
data_Li2CoPHO5
_symmetry_space_group_name_H-M   'P 1'
_cell_length_a   5.38446380
_cell_length_b   11.01525542
_cell_length_c   7.50702143
_cell_angle_alpha   109.13386556
_cell_angle_beta   109.82028190
_cell_angle_gamma   93.97031185
_symmetry_Int_Tables_number   1
_chemical_formula_structural   Li2CoPHO5
_chemical_formula_sum   'Li8 Co4 P4 H4 O20'
_cell_volume   387.49838610
_cell_formula_units_Z   4
loop_
 _symmetry_equiv_pos_site_id
 _symmetry_equiv_pos_as_xyz
  1  'x, y, z'
loop_
 _atom_site_type_symbol
 _atom_site_label
 _atom_site_symmetry_multiplicity
 _atom_site_fract_x
 _atom_site_fract_y
 _atom_site_fract_z
 _atom_site_occupancy
  Li  Li0  1  0.48258900  0.43420100  0.15838500  1
  Li  Li1  1  0.48494500  0.93332800  0.15679400  1
  Li  Li2  1  0.51505100  0.06666900  0.84320100  1
  Li  Li3  1  0.51740500  0.56579600  0.84161200  1
  Li  Li4  1  0.22249800  0.30207300  0.29328400  1
  Li  Li5  1  0.22433600  0.80157100  0.29262600  1
  Li  Li6  1  0.77566500  0.19843000  0.70737200  1
  Li  Li7  1  0.77750500  0.69793000  0.70672400  1
  Co  Co0  1  0.99999800  0.50000100  0.49999900  1
  Co  Co1  1  0.00000000  0.00000000  0.99999900  1
  Co  Co2  1  0.00000000  0.00000100  0.49999900  1
  Co  Co3  1  0.00000000  0.50000000  0.00000000  1
  P  P0  1  0.32794900  0.31084600  0.75639600  1
  P  P1  1  0.33173600  0.81089200  0.75584700  1
  P  P2  1  0.66826500  0.18910700  0.24415300  1
  P  P3  1  0.67205100  0.68915500  0.24360500  1
  H  H0  1  0.69764500  0.44790900  0.63155700  1
  H  H1  1  0.69270700  0.95128400  0.63249300  1
  H  H2  1  0.30729600  0.04871600  0.36750500  1
  H  H3  1  0.30235700  0.55209100  0.36844200  1
  O  O0  1  0.16487100  0.47288300  0.27404200  1
  O  O1  1  0.16409300  0.97172600  0.27296300  1
  O  O2  1  0.83590800  0.02827400  0.72703700  1
  O  O3  1  0.83512800  0.52711800  0.72595800  1
  O  O4  1  0.26052500  0.37416500  0.59193700  1
  O  O5  1  0.26566500  0.87428700  0.59159500  1
  O  O6  1  0.73433900  0.12571500  0.40840900  1
  O  O7  1  0.73947100  0.62583600  0.40806400  1
  O  O8  1  0.64943700  0.33579600  0.33643800  1
  O  O9  1  0.65442000  0.83604700  0.33551000  1
  O  O10  1  0.34557800  0.16395300  0.66449100  1
  O  O11  1  0.35055700  0.66420200  0.66355800  1
  O  O12  1  0.61104800  0.38563300  0.92250800  1
  O  O13  1  0.61403100  0.88584100  0.92343200  1
  O  O14  1  0.38597300  0.11415300  0.07656800  1
  O  O15  1  0.38895100  0.61436800  0.07749000  1
  O  O16  1  0.12197600  0.32462000  0.86088900  1
  O  O17  1  0.12458700  0.82412500  0.85934700  1
  O  O18  1  0.87541700  0.17587500  0.14065600  1
  O  O19  1  0.87802600  0.67538100  0.13911400  1
loop_
_geom_bond_atom_site_label_1
_geom_bond_atom_site_label_2
_geom_bond_distance
_geom_bond_site_symmetry_2
Li0 O8 2.009731 1_555
Li0 O12 2.039838 1_554
Li0 O0 2.174331 1_555
Li0 O7 2.264088 1_555
Li0 O16 2.276492 1_554
Li0 O15 2.298386 1_555
Li1 O9 2.007132 1_555
Li1 O13 2.025110 1_554
Li1 O1 2.192070 1_555
Li1 O6 2.263582 1_565
Li1 O17 2.275018 1_554
Li1 O14 2.308647 1_565
Li2 O10 2.007124 1_555
Li2 O14 2.025115 1_556
Li2 O2 2.192069 1_555
Li2 O5 2.263516 1_545
Li2 O18 2.275075 1_556
Li2 O13 2.308705 1_545
Li3 O11 2.009745 1_555
Li3 O15 2.039827 1_556
Li3 O3 2.174338 1_555
Li3 O4 2.264048 1_555
Li3 O19 2.276543 1_556
Li3 O12 2.298352 1_555
Li4 O18 1.970228 1_455
Li4 O0 1.971261 1_555
Li4 O4 2.048929 1_555
Li4 O8 2.196683 1_555
Li4 O14 2.592718 1_555
Li5 O19 1.967481 1_455
Li5 O1 1.968020 1_555
Li5 O5 2.046072 1_555
Li5 O9 2.214308 1_555
Li5 O15 2.585891 1_555
Li6 O16 1.967486 1_655
Li6 O2 1.968036 1_555
Li6 O6 2.046034 1_555
Li6 O10 2.214330 1_555
Li6 O12 2.585898 1_555
Li7 O17 1.970216 1_655
Li7 O3 1.971258 1_555
Li7 O7 2.048968 1_555
Li7 O11 2.196710 1_555
Li7 O13 2.592625 1_555
Co0 O0 2.116694 1_655
Co0 O3 2.116697 1_555
Co0 O7 2.145993 1_555
Co0 O4 2.146009 1_655
Co0 O11 2.200374 1_655
Co0 O8 2.200406 1_555
Co1 O2 2.074919 1_455
Co1 O1 2.074933 1_546
Co1 O14 2.141231 1_556
Co1 O13 2.141245 1_445
Co1 O18 2.153461 1_456
Co1 O17 2.153461 1_545
Co2 O1 2.119872 1_545
Co2 O2 2.119883 1_455
Co2 O6 2.160558 1_455
Co2 O5 2.160584 1_545
Co2 O10 2.182495 1_555
Co2 O9 2.182514 1_445
Co3 O0 2.076201 1_555
Co3 O3 2.076207 1_454
Co3 O16 2.138288 1_554
Co3 O19 2.138298 1_455
Co3 O12 2.153965 1_454
Co3 O15 2.153969 1_555
H0 O3 0.980277 1_555
H1 O2 0.980424 1_565
H1 Li2 2.215638 1_565
H2 O1 0.980427 1_545
H2 Li1 2.215638 1_545
H3 O0 0.980276 1_555
O4 P0 1.561446 1_555
O5 P1 1.560765 1_555
O6 P2 1.560767 1_555
O7 P3 1.561446 1_555
O8 P2 1.561272 1_555
O9 P3 1.561082 1_555
O10 P0 1.561089 1_555
O11 P1 1.561275 1_555
O12 P0 1.555920 1_555
O13 P1 1.556692 1_555
O14 P2 1.556692 1_555
O15 P3 1.555930 1_555
O16 P0 1.550355 1_555
O17 P1 1.550804 1_555
O18 P2 1.550803 1_555
O19 P3 1.550354 1_555
