# generated using pymatgen
data_YbDyHg2
_symmetry_space_group_name_H-M   'P 1'
_cell_length_a   5.17364197
_cell_length_b   5.17364197
_cell_length_c   5.17364197
_cell_angle_alpha   60.00000000
_cell_angle_beta   60.00000000
_cell_angle_gamma   60.00000000
_symmetry_Int_Tables_number   1
_chemical_formula_structural   YbDyHg2
_chemical_formula_sum   'Yb1 Dy1 Hg2'
_cell_volume   97.92061112
_cell_formula_units_Z   1
loop_
 _symmetry_equiv_pos_site_id
 _symmetry_equiv_pos_as_xyz
  1  'x, y, z'
loop_
 _atom_site_type_symbol
 _atom_site_label
 _atom_site_symmetry_multiplicity
 _atom_site_fract_x
 _atom_site_fract_y
 _atom_site_fract_z
 _atom_site_occupancy
  Yb  Yb0  1  0.00000000  0.00000000  0.00000000  1
  Dy  Dy0  1  0.50000000  0.50000000  0.50000000  1
  Hg  Hg0  1  0.25000000  0.25000000  0.25000000  1
  Hg  Hg1  1  0.75000000  0.75000000  0.75000000  1
loop_
_geom_bond_atom_site_label_1
_geom_bond_atom_site_label_2
_geom_bond_distance
_geom_bond_site_symmetry_2
Dy0 Hg0 3.168196 1_556
Dy0 Hg0 3.168196 1_555
Dy0 Hg1 3.168196 1_545
Dy0 Hg1 3.168196 1_455
Dy0 Hg0 3.168196 1_565
Dy0 Hg1 3.168196 1_554
Dy0 Hg1 3.168196 1_555
Dy0 Hg0 3.168196 1_655
Hg0 Yb0 3.168196 1_655
Hg0 Yb0 3.168196 1_565
Hg0 Yb0 3.168196 1_555
Hg0 Yb0 3.168196 1_556
Hg1 Yb0 3.168196 1_566
Hg1 Yb0 3.168196 1_666
Hg1 Yb0 3.168196 1_656
Hg1 Yb0 3.168196 1_665
