# generated using pymatgen
data_RbAgBr3
_symmetry_space_group_name_H-M   'P 1'
_cell_length_a   5.44547123
_cell_length_b   5.44817713
_cell_length_c   5.44717008
_cell_angle_alpha   90.16348531
_cell_angle_beta   90.09040842
_cell_angle_gamma   90.00257384
_symmetry_Int_Tables_number   1
_chemical_formula_structural   RbAgBr3
_chemical_formula_sum   'Rb1 Ag1 Br3'
_cell_volume   161.60519348
_cell_formula_units_Z   1
loop_
 _symmetry_equiv_pos_site_id
 _symmetry_equiv_pos_as_xyz
  1  'x, y, z'
loop_
 _atom_site_type_symbol
 _atom_site_label
 _atom_site_symmetry_multiplicity
 _atom_site_fract_x
 _atom_site_fract_y
 _atom_site_fract_z
 _atom_site_occupancy
  Rb  Rb0  1  0.99989100  0.00120500  0.99707100  1
  Ag  Ag0  1  0.49878900  0.49450600  0.48387100  1
  Br  Br0  1  0.99898100  0.49369000  0.48576300  1
  Br  Br1  1  0.50466700  0.50571600  0.98422100  1
  Br  Br2  1  0.49767500  0.99488500  0.48907400  1
loop_
_geom_bond_atom_site_label_1
_geom_bond_atom_site_label_2
_geom_bond_distance
_geom_bond_site_symmetry_2
Ag0 Br0 2.721729 1_455
Ag0 Br2 2.722259 1_545
Ag0 Br1 2.722777 1_554
Ag0 Br0 2.723788 1_555
Ag0 Br1 2.726139 1_555
Ag0 Br2 2.726227 1_555
Br0 Rb0 3.774223 1_554
Br0 Rb0 3.843651 1_564
Br0 Rb0 3.872872 1_555
Br0 Rb0 3.919014 1_565
Br1 Rb0 3.816055 1_565
Br1 Rb0 3.851437 1_555
Br1 Rb0 3.853317 1_465
Br1 Rb0 3.888017 1_455
Br2 Rb0 3.809074 1_464
Br2 Rb0 3.832298 1_564
Br2 Rb0 3.876744 1_465
Br2 Rb0 3.887544 1_565
