# generated using pymatgen
data_Yb2C3
_symmetry_space_group_name_H-M   'P 1'
_cell_length_a   7.22919729
_cell_length_b   7.22919729
_cell_length_c   7.22919729
_cell_angle_alpha   109.47122063
_cell_angle_beta   109.47122063
_cell_angle_gamma   109.47122063
_symmetry_Int_Tables_number   1
_chemical_formula_structural   Yb2C3
_chemical_formula_sum   'Yb8 C12'
_cell_volume   290.83611867
_cell_formula_units_Z   4
loop_
 _symmetry_equiv_pos_site_id
 _symmetry_equiv_pos_as_xyz
  1  'x, y, z'
loop_
 _atom_site_type_symbol
 _atom_site_label
 _atom_site_symmetry_multiplicity
 _atom_site_fract_x
 _atom_site_fract_y
 _atom_site_fract_z
 _atom_site_occupancy
  Yb  Yb0  1  0.61310500  0.61310500  0.61310500  1
  Yb  Yb1  1  0.50000000  0.00000000  0.38689500  1
  Yb  Yb2  1  0.00000000  0.38689500  0.50000000  1
  Yb  Yb3  1  0.38689500  0.50000000  0.00000000  1
  Yb  Yb4  1  0.00000000  0.88689500  0.50000000  1
  Yb  Yb5  1  0.88689500  0.50000000  0.00000000  1
  Yb  Yb6  1  0.50000000  0.00000000  0.88689500  1
  Yb  Yb7  1  0.11310500  0.11310500  0.11310500  1
  C  C0  1  0.79757000  0.04757000  0.75000000  1
  C  C1  1  0.95243000  0.20243000  0.75000000  1
  C  C2  1  0.25000000  0.54757000  0.29757000  1
  C  C3  1  0.29757000  0.25000000  0.54757000  1
  C  C4  1  0.75000000  0.95243000  0.20243000  1
  C  C5  1  0.20243000  0.75000000  0.95243000  1
  C  C6  1  0.70243000  0.45243000  0.25000000  1
  C  C7  1  0.45243000  0.25000000  0.70243000  1
  C  C8  1  0.54757000  0.29757000  0.25000000  1
  C  C9  1  0.25000000  0.70243000  0.45243000  1
  C  C10  1  0.75000000  0.79757000  0.04757000  1
  C  C11  1  0.04757000  0.75000000  0.79757000  1
loop_
_geom_bond_atom_site_label_1
_geom_bond_atom_site_label_2
_geom_bond_distance
_geom_bond_site_symmetry_2
C0 C1 1.292703 1_555
C0 Yb7 2.603225 1_656
C0 Yb1 2.603225 1_555
C0 Yb0 2.622642 1_545
C0 Yb6 2.622642 1_555
C1 Yb4 2.603225 1_645
C1 Yb5 2.603225 1_556
C1 Yb2 2.622642 1_655
C1 Yb3 2.622642 1_656
C2 C9 1.292703 1_555
C2 Yb5 2.603225 1_455
C2 Yb0 2.603225 1_555
C2 Yb3 2.622642 1_555
C2 Yb7 2.622642 1_555
C3 C7 1.292703 1_555
C3 Yb4 2.603225 1_545
C3 Yb0 2.603225 1_555
C3 Yb2 2.622642 1_555
C3 Yb7 2.622642 1_555
C4 Yb4 2.603225 1_655
C4 Yb6 2.603225 1_564
C4 Yb2 2.622642 1_665
C4 Yb1 2.622642 1_565
C5 Yb5 2.603225 1_456
C5 Yb6 2.603225 1_565
C5 Yb1 2.622642 1_566
C5 Yb3 2.622642 1_556
C6 C8 1.292703 1_555
C6 Yb3 2.603225 1_555
C6 Yb2 2.603225 1_655
C6 Yb4 2.622642 1_655
C6 Yb5 2.622642 1_555
C7 Yb3 2.603225 1_556
C7 Yb1 2.603225 1_555
C7 Yb5 2.622642 1_556
C7 Yb6 2.622642 1_555
C8 Yb6 2.603225 1_554
C8 Yb0 2.603225 1_555
C8 Yb7 2.622642 1_555
C8 Yb1 2.622642 1_555
C9 Yb1 2.603225 1_565
C9 Yb2 2.603225 1_555
C9 Yb4 2.622642 1_555
C9 Yb6 2.622642 1_565
C10 C4 1.292703 1_555
C10 Yb3 2.603225 1_555
C10 Yb7 2.603225 1_665
C10 Yb5 2.622642 1_555
C10 Yb0 2.622642 1_554
C11 C5 1.292703 1_555
C11 Yb2 2.603225 1_555
C11 Yb7 2.603225 1_566
C11 Yb4 2.622642 1_555
C11 Yb0 2.622642 1_455
