# generated using pymatgen
data_Ba5Sb3
_symmetry_space_group_name_H-M   'P 1'
_cell_length_a   10.13492873
_cell_length_b   10.13491976
_cell_length_c   7.89536170
_cell_angle_alpha   90.00000000
_cell_angle_beta   90.00000000
_cell_angle_gamma   119.99997012
_symmetry_Int_Tables_number   1
_chemical_formula_structural   Ba5Sb3
_chemical_formula_sum   'Ba10 Sb6'
_cell_volume   702.33418368
_cell_formula_units_Z   2
loop_
 _symmetry_equiv_pos_site_id
 _symmetry_equiv_pos_as_xyz
  1  'x, y, z'
loop_
 _atom_site_type_symbol
 _atom_site_label
 _atom_site_symmetry_multiplicity
 _atom_site_fract_x
 _atom_site_fract_y
 _atom_site_fract_z
 _atom_site_occupancy
  Ba  Ba0  1  -0.00000000  0.25625462  0.75000000  1
  Ba  Ba1  1  0.00000000  0.74374538  0.25000000  1
  Ba  Ba2  1  0.25625462  0.25625462  0.25000000  1
  Ba  Ba3  1  0.25625462  -0.00000000  0.75000000  1
  Ba  Ba4  1  0.74374538  0.74374538  0.75000000  1
  Ba  Ba5  1  0.74374538  0.00000000  0.25000000  1
  Ba  Ba6  1  0.33333300  0.66666700  0.50000000  1
  Ba  Ba7  1  0.66666700  0.33333300  -0.00000000  1
  Ba  Ba8  1  0.66666700  0.33333300  0.50000000  1
  Ba  Ba9  1  0.33333300  0.66666700  -0.00000000  1
  Sb  Sb0  1  0.60986282  0.00000000  0.75000000  1
  Sb  Sb1  1  0.60986282  0.60986282  0.25000000  1
  Sb  Sb2  1  -0.00000000  0.39013718  0.25000000  1
  Sb  Sb3  1  0.00000000  0.60986282  0.75000000  1
  Sb  Sb4  1  0.39013718  0.39013718  0.75000000  1
  Sb  Sb5  1  0.39013718  -0.00000000  0.25000000  1
loop_
_geom_bond_atom_site_label_1
_geom_bond_atom_site_label_2
_geom_bond_distance
_geom_bond_site_symmetry_2
Ba0 Sb4 3.479973 1_555
Ba0 Sb0 3.479973 1_455
Ba0 Sb3 3.583791 1_555
Ba0 Sb2 4.174366 1_556
Ba0 Sb2 4.174366 1_555
Ba1 Sb1 3.479973 1_455
Ba1 Sb5 3.479973 1_565
Ba1 Sb2 3.583791 1_555
Ba1 Sb3 4.174366 1_554
Ba1 Sb3 4.174366 1_555
Ba2 Sb5 3.479969 1_555
Ba2 Sb2 3.479971 1_555
Ba2 Sb1 3.583794 1_555
Ba2 Sb4 4.174366 1_554
Ba2 Sb4 4.174366 1_555
Ba3 Sb4 3.479969 1_555
Ba3 Sb3 3.479971 1_545
Ba3 Sb0 3.583794 1_555
Ba3 Sb5 4.174366 1_555
Ba3 Sb5 4.174366 1_556
Ba4 Sb0 3.479969 1_565
Ba4 Sb3 3.479971 1_655
Ba4 Sb4 3.583794 1_555
Ba4 Sb1 4.174366 1_555
Ba4 Sb1 4.174366 1_556
Ba5 Sb1 3.479969 1_545
Ba5 Sb2 3.479971 1_655
Ba5 Sb5 3.583794 1_555
Ba5 Sb0 4.174366 1_555
Ba5 Sb0 4.174366 1_554
Ba6 Sb5 3.700744 1_565
Ba6 Sb3 3.700747 1_555
Ba6 Sb0 3.700749 1_565
Ba6 Sb2 3.700750 1_555
Ba6 Sb4 3.700753 1_555
Ba6 Sb1 3.700754 1_555
Ba7 Sb0 3.700744 1_554
Ba7 Sb2 3.700747 1_655
Ba7 Sb5 3.700749 1_555
Ba7 Sb3 3.700750 1_654
Ba7 Sb1 3.700753 1_555
Ba7 Sb4 3.700754 1_554
Ba8 Sb0 3.700744 1_555
Ba8 Sb2 3.700747 1_655
Ba8 Sb5 3.700749 1_555
Ba8 Sb3 3.700750 1_655
Ba8 Sb1 3.700753 1_555
Ba8 Sb4 3.700754 1_555
Ba9 Sb5 3.700744 1_565
Ba9 Sb3 3.700747 1_554
Ba9 Sb0 3.700749 1_564
Ba9 Sb2 3.700750 1_555
Ba9 Sb4 3.700753 1_554
Ba9 Sb1 3.700754 1_555
