# generated using pymatgen
data_AgPdO2
_symmetry_space_group_name_H-M   'P 1'
_cell_length_a   3.02383070
_cell_length_b   6.35167199
_cell_length_c   6.20272973
_cell_angle_alpha   117.50844134
_cell_angle_beta   90.00000000
_cell_angle_gamma   90.00000000
_symmetry_Int_Tables_number   1
_chemical_formula_structural   AgPdO2
_chemical_formula_sum   'Ag2 Pd2 O4'
_cell_volume   105.66325911
_cell_formula_units_Z   2
loop_
 _symmetry_equiv_pos_site_id
 _symmetry_equiv_pos_as_xyz
  1  'x, y, z'
loop_
 _atom_site_type_symbol
 _atom_site_label
 _atom_site_symmetry_multiplicity
 _atom_site_fract_x
 _atom_site_fract_y
 _atom_site_fract_z
 _atom_site_occupancy
  Ag  Ag0  1  0.00000000  0.00000000  0.50000000  1
  Ag  Ag1  1  0.00000000  0.50000000  0.50000000  1
  Pd  Pd0  1  0.50000000  0.50000000  0.00000000  1
  Pd  Pd1  1  0.00000000  0.00000000  0.00000000  1
  O  O0  1  0.50000000  0.23616512  0.09646076  1
  O  O1  1  -0.00000000  0.35857157  0.76129735  1
  O  O2  1  -0.00000000  0.64142843  0.23870265  1
  O  O3  1  0.50000000  0.76383488  0.90353924  1
loop_
_geom_bond_atom_site_label_1
_geom_bond_atom_site_label_2
_geom_bond_distance
_geom_bond_site_symmetry_2
Ag0 O2 2.098595 1_545
Ag0 O1 2.098595 1_555
Ag1 O1 2.186034 1_555
Ag1 O2 2.186034 1_555
O0 Pd1 2.016166 1_555
O0 Pd1 2.016166 1_655
O0 Pd0 2.022989 1_555
O1 Pd0 2.014052 1_456
O1 Pd0 2.014052 1_556
O2 Pd0 2.014052 1_455
O2 Pd0 2.014052 1_555
O3 Pd1 2.016166 1_566
O3 Pd1 2.016166 1_666
O3 Pd0 2.022989 1_556
