# generated using pymatgen
data_YbAu3
_symmetry_space_group_name_H-M   'P 1'
_cell_length_a   6.07089673
_cell_length_b   6.07089673
_cell_length_c   5.00719400
_cell_angle_alpha   90.00000000
_cell_angle_beta   90.00000000
_cell_angle_gamma   120.00000793
_symmetry_Int_Tables_number   1
_chemical_formula_structural   YbAu3
_chemical_formula_sum   'Yb2 Au6'
_cell_volume   159.81984510
_cell_formula_units_Z   2
loop_
 _symmetry_equiv_pos_site_id
 _symmetry_equiv_pos_as_xyz
  1  'x, y, z'
loop_
 _atom_site_type_symbol
 _atom_site_label
 _atom_site_symmetry_multiplicity
 _atom_site_fract_x
 _atom_site_fract_y
 _atom_site_fract_z
 _atom_site_occupancy
  Yb  Yb0  1  0.33333300  0.66666700  0.75000000  1
  Yb  Yb1  1  0.66666700  0.33333300  0.25000000  1
  Au  Au0  1  0.16457400  0.32914800  0.25000000  1
  Au  Au1  1  0.67085200  0.83542600  0.25000000  1
  Au  Au2  1  0.16457400  0.83542600  0.25000000  1
  Au  Au3  1  0.83542600  0.67085200  0.75000000  1
  Au  Au4  1  0.32914800  0.16457400  0.75000000  1
  Au  Au5  1  0.83542600  0.16457400  0.75000000  1
loop_
_geom_bond_atom_site_label_1
_geom_bond_atom_site_label_2
_geom_bond_distance
_geom_bond_site_symmetry_2
Au0 Yb1 3.035525 1_455
Au0 Yb1 3.035531 1_555
Au0 Yb0 3.068702 1_554
Au0 Yb0 3.068702 1_555
Au1 Yb1 3.035525 1_565
Au1 Yb1 3.035531 1_555
Au1 Yb0 3.068702 1_554
Au1 Yb0 3.068702 1_555
Au2 Yb1 3.035528 1_455
Au2 Yb1 3.035528 1_565
Au2 Yb0 3.068699 1_554
Au2 Yb0 3.068699 1_555
Au3 Yb0 3.035525 1_655
Au3 Yb0 3.035531 1_555
Au3 Yb1 3.068702 1_556
Au3 Yb1 3.068702 1_555
Au4 Yb0 3.035525 1_545
Au4 Yb0 3.035531 1_555
Au4 Yb1 3.068702 1_556
Au4 Yb1 3.068702 1_555
Au5 Yb0 3.035528 1_545
Au5 Yb0 3.035528 1_655
Au5 Yb1 3.068699 1_556
Au5 Yb1 3.068699 1_555
