# generated using pymatgen
data_Ti3Ga
_symmetry_space_group_name_H-M   'P 1'
_cell_length_a   5.07929214
_cell_length_b   5.07929214
_cell_length_c   5.07929214
_cell_angle_alpha   134.79902016
_cell_angle_beta   134.79902016
_cell_angle_gamma   65.84263765
_symmetry_Int_Tables_number   1
_chemical_formula_structural   Ti3Ga
_chemical_formula_sum   'Ti3 Ga1'
_cell_volume   64.98239767
_cell_formula_units_Z   1
loop_
 _symmetry_equiv_pos_site_id
 _symmetry_equiv_pos_as_xyz
  1  'x, y, z'
loop_
 _atom_site_type_symbol
 _atom_site_label
 _atom_site_symmetry_multiplicity
 _atom_site_fract_x
 _atom_site_fract_y
 _atom_site_fract_z
 _atom_site_occupancy
  Ti  Ti0  1  0.75000100  0.25000000  0.50000100  1
  Ti  Ti1  1  0.25000000  0.75000100  0.50000100  1
  Ti  Ti2  1  0.50000000  0.50000000  -0.00000000  1
  Ga  Ga0  1  -0.00000000  -0.00000000  -0.00000000  1
loop_
_geom_bond_atom_site_label_1
_geom_bond_atom_site_label_2
_geom_bond_distance
_geom_bond_site_symmetry_2
Ti0 Ti1 2.760523 1_645
Ti0 Ti1 2.760528 1_656
Ti0 Ti1 2.760528 1_544
Ti0 Ti1 2.760534 1_555
Ti0 Ti2 2.890487 1_656
Ti0 Ti2 2.890490 1_556
Ti0 Ti2 2.890490 1_545
Ti0 Ti2 2.890492 1_555
Ti1 Ti2 2.890487 1_566
Ti1 Ti2 2.890490 1_455
Ti1 Ti2 2.890490 1_556
Ti1 Ti2 2.890492 1_555
Ga0 Ti2 2.760528 1_556
Ga0 Ti2 2.760528 1_455
Ga0 Ti2 2.760528 1_444
Ga0 Ti2 2.760528 1_545
Ga0 Ti1 2.890487 1_544
Ga0 Ti0 2.890487 1_454
Ga0 Ti0 2.890490 1_455
Ga0 Ti1 2.890490 1_545
Ga0 Ti1 2.890490 1_444
Ga0 Ti0 2.890490 1_444
Ga0 Ti1 2.890492 1_555
Ga0 Ti0 2.890492 1_555
