# generated using pymatgen
data_Pr
_symmetry_space_group_name_H-M   'P 1'
_cell_length_a   7.51950563
_cell_length_b   7.51950563
_cell_length_c   18.50982486
_cell_angle_alpha   78.28041694
_cell_angle_beta   101.71958306
_cell_angle_gamma   119.99999748
_symmetry_Int_Tables_number   1
_chemical_formula_structural   Pr
_chemical_formula_sum   Pr24
_cell_volume   881.09922513
_cell_formula_units_Z   24
loop_
 _symmetry_equiv_pos_site_id
 _symmetry_equiv_pos_as_xyz
  1  'x, y, z'
loop_
 _atom_site_type_symbol
 _atom_site_label
 _atom_site_symmetry_multiplicity
 _atom_site_fract_x
 _atom_site_fract_y
 _atom_site_fract_z
 _atom_site_occupancy
  Pr  Pr0_0  1  0.00000000  0.00000000  0.00000000  1
  Pr  Pr0_1  1  0.00000000  0.00000000  0.50000000  1
  Pr  Pr0_2  1  0.00000000  0.50000000  0.00000000  1
  Pr  Pr0_3  1  0.00000000  0.50000000  0.50000000  1
  Pr  Pr0_4  1  0.50000000  0.00000000  0.00000000  1
  Pr  Pr0_5  1  0.50000000  0.00000000  0.50000000  1
  Pr  Pr0_6  1  0.50000000  0.50000000  0.00000000  1
  Pr  Pr0_7  1  0.50000000  0.50000000  0.50000000  1
  Pr  Pr1_0  1  0.38861962  0.11138037  0.16585738  1
  Pr  Pr1_1  1  0.38861963  0.11138037  0.66585738  1
  Pr  Pr1_2  1  0.38861962  0.61138037  0.16585738  1
  Pr  Pr1_3  1  0.38861963  0.61138037  0.66585738  1
  Pr  Pr1_4  1  0.88861963  0.11138037  0.16585738  1
  Pr  Pr1_5  1  0.88861962  0.11138037  0.66585738  1
  Pr  Pr1_6  1  0.88861963  0.61138037  0.16585738  1
  Pr  Pr1_7  1  0.88861963  0.61138037  0.66585738  1
  Pr  Pr2_0  1  0.11138037  0.38861963  0.33414262  1
  Pr  Pr2_1  1  0.11138037  0.38861963  0.83414262  1
  Pr  Pr2_2  1  0.11138037  0.88861962  0.33414262  1
  Pr  Pr2_3  1  0.11138038  0.88861962  0.83414262  1
  Pr  Pr2_4  1  0.61138037  0.38861962  0.33414262  1
  Pr  Pr2_5  1  0.61138037  0.38861962  0.83414262  1
  Pr  Pr2_6  1  0.61138037  0.88861963  0.33414262  1
  Pr  Pr2_7  1  0.61138037  0.88861963  0.83414262  1
loop_
_geom_bond_atom_site_label_1
_geom_bond_atom_site_label_2
_geom_bond_distance
_geom_bond_site_symmetry_2
Pr0_0 Pr2_3 3.690292 1_544
Pr0_0 Pr1_4 3.690292 1_455
Pr0_0 Pr2_7 3.690298 1_444
Pr0_0 Pr1_6 3.690298 1_445
Pr0_0 Pr1_0 3.690298 1_555
Pr0_0 Pr2_1 3.690298 1_554
Pr0_0 Pr0_4 3.759753 1_555
Pr0_0 Pr0_4 3.759753 1_455
Pr0_0 Pr0_2 3.759753 1_545
Pr0_0 Pr0_2 3.759753 1_555
Pr0_0 Pr0_6 3.759753 1_555
Pr0_0 Pr0_6 3.759753 1_445
Pr0_1 Pr2_2 3.690292 1_545
Pr0_1 Pr1_5 3.690292 1_455
Pr0_1 Pr2_0 3.690298 1_555
Pr0_1 Pr2_6 3.690298 1_445
Pr0_1 Pr1_1 3.690298 1_555
Pr0_1 Pr1_7 3.690298 1_445
Pr0_1 Pr0_5 3.759753 1_555
Pr0_1 Pr0_3 3.759753 1_555
Pr0_1 Pr0_3 3.759753 1_545
Pr0_1 Pr0_5 3.759753 1_455
Pr0_1 Pr0_7 3.759753 1_555
Pr0_1 Pr0_7 3.759753 1_445
Pr0_2 Pr2_1 3.690292 1_554
Pr0_2 Pr1_6 3.690292 1_455
Pr0_2 Pr2_3 3.690298 1_554
Pr0_2 Pr1_2 3.690298 1_555
Pr0_2 Pr2_5 3.690298 1_454
Pr0_2 Pr1_4 3.690298 1_455
Pr0_2 Pr0_6 3.759753 1_455
Pr0_2 Pr0_6 3.759753 1_555
Pr0_2 Pr0_4 3.759753 1_565
Pr0_2 Pr0_4 3.759753 1_455
Pr0_3 Pr2_0 3.690292 1_555
Pr0_3 Pr1_7 3.690292 1_455
Pr0_3 Pr2_2 3.690298 1_555
Pr0_3 Pr2_4 3.690298 1_455
Pr0_3 Pr1_3 3.690298 1_555
Pr0_3 Pr1_5 3.690298 1_455
Pr0_3 Pr0_7 3.759753 1_555
Pr0_3 Pr0_7 3.759753 1_455
Pr0_3 Pr0_5 3.759753 1_455
Pr0_3 Pr0_5 3.759753 1_565
Pr0_4 Pr2_7 3.690292 1_544
Pr0_4 Pr1_0 3.690292 1_555
Pr0_4 Pr2_3 3.690298 1_544
Pr0_4 Pr2_5 3.690298 1_554
Pr0_4 Pr1_2 3.690298 1_545
Pr0_4 Pr1_4 3.690298 1_555
Pr0_4 Pr0_6 3.759753 1_555
Pr0_4 Pr0_6 3.759753 1_545
Pr0_5 Pr2_6 3.690292 1_545
Pr0_5 Pr1_1 3.690292 1_555
Pr0_5 Pr2_4 3.690298 1_555
Pr0_5 Pr2_2 3.690298 1_545
Pr0_5 Pr1_3 3.690298 1_545
Pr0_5 Pr1_5 3.690298 1_555
Pr0_5 Pr0_7 3.759753 1_555
Pr0_5 Pr0_7 3.759753 1_545
Pr0_6 Pr2_5 3.690292 1_554
Pr0_6 Pr1_2 3.690292 1_555
Pr0_6 Pr2_1 3.690298 1_554
Pr0_6 Pr2_7 3.690298 1_554
Pr0_6 Pr1_0 3.690298 1_555
Pr0_6 Pr1_6 3.690298 1_555
Pr0_7 Pr2_4 3.690292 1_555
Pr0_7 Pr1_3 3.690292 1_555
Pr0_7 Pr2_0 3.690298 1_555
Pr0_7 Pr1_1 3.690298 1_555
Pr0_7 Pr2_6 3.690298 1_555
Pr0_7 Pr1_7 3.690298 1_555
Pr1_0 Pr2_6 3.725706 1_545
Pr1_0 Pr2_4 3.725717 1_555
Pr1_0 Pr2_2 3.725717 1_545
Pr1_0 Pr1_2 3.759753 1_555
Pr1_0 Pr1_4 3.759753 1_455
Pr1_0 Pr1_4 3.759753 1_555
Pr1_0 Pr1_2 3.759753 1_545
Pr1_0 Pr1_6 3.759753 1_555
Pr1_0 Pr1_6 3.759753 1_445
Pr1_1 Pr2_7 3.725706 1_545
Pr1_1 Pr2_5 3.725717 1_555
Pr1_1 Pr2_3 3.725717 1_545
Pr1_1 Pr1_5 3.759753 1_555
Pr1_1 Pr1_3 3.759753 1_555
Pr1_1 Pr1_3 3.759753 1_545
Pr1_1 Pr1_5 3.759753 1_455
Pr1_1 Pr1_7 3.759753 1_555
Pr1_1 Pr1_7 3.759753 1_445
Pr1_2 Pr2_4 3.725706 1_555
Pr1_2 Pr2_0 3.725717 1_555
Pr1_2 Pr2_6 3.725717 1_555
Pr1_2 Pr1_6 3.759753 1_555
Pr1_2 Pr1_6 3.759753 1_455
Pr1_2 Pr1_4 3.759753 1_455
Pr1_2 Pr1_4 3.759753 1_565
Pr1_3 Pr2_5 3.725706 1_555
Pr1_3 Pr2_7 3.725717 1_555
Pr1_3 Pr2_1 3.725717 1_555
Pr1_3 Pr1_7 3.759753 1_555
Pr1_3 Pr1_7 3.759753 1_455
Pr1_3 Pr1_5 3.759753 1_565
Pr1_3 Pr1_5 3.759753 1_455
Pr1_4 Pr2_2 3.725706 1_645
Pr1_4 Pr2_6 3.725717 1_545
Pr1_4 Pr2_0 3.725717 1_655
Pr1_4 Pr1_6 3.759753 1_545
Pr1_4 Pr1_6 3.759753 1_555
Pr1_5 Pr2_3 3.725706 1_645
Pr1_5 Pr2_7 3.725717 1_545
Pr1_5 Pr2_1 3.725717 1_655
Pr1_5 Pr1_7 3.759753 1_545
Pr1_5 Pr1_7 3.759753 1_555
Pr1_6 Pr2_0 3.725706 1_655
Pr1_6 Pr2_2 3.725717 1_655
Pr1_6 Pr2_4 3.725717 1_555
Pr1_7 Pr2_1 3.725706 1_655
Pr1_7 Pr2_3 3.725717 1_655
Pr1_7 Pr2_5 3.725717 1_555
Pr2_0 Pr2_2 3.759753 1_555
Pr2_0 Pr2_4 3.759753 1_555
Pr2_0 Pr2_4 3.759753 1_455
Pr2_0 Pr2_2 3.759753 1_545
Pr2_0 Pr2_6 3.759753 1_445
Pr2_0 Pr2_6 3.759753 1_555
Pr2_1 Pr2_3 3.759753 1_555
Pr2_1 Pr2_5 3.759753 1_555
Pr2_1 Pr2_5 3.759753 1_455
Pr2_1 Pr2_3 3.759753 1_545
Pr2_1 Pr2_7 3.759753 1_445
Pr2_1 Pr2_7 3.759753 1_555
Pr2_2 Pr2_6 3.759753 1_555
Pr2_2 Pr2_6 3.759753 1_455
Pr2_2 Pr2_4 3.759753 1_565
Pr2_2 Pr2_4 3.759753 1_455
Pr2_3 Pr2_7 3.759753 1_555
Pr2_3 Pr2_7 3.759753 1_455
Pr2_3 Pr2_5 3.759753 1_565
Pr2_3 Pr2_5 3.759753 1_455
Pr2_4 Pr2_6 3.759753 1_545
Pr2_4 Pr2_6 3.759753 1_555
Pr2_5 Pr2_7 3.759753 1_555
Pr2_5 Pr2_7 3.759753 1_545
