# generated using pymatgen
data_Sr2MgUO6
_symmetry_space_group_name_H-M   'P 1'
_cell_length_a   5.87601400
_cell_length_b   5.85147100
_cell_length_c   10.09713510
_cell_angle_alpha   54.89392903
_cell_angle_beta   90.00000000
_cell_angle_gamma   90.00000000
_symmetry_Int_Tables_number   1
_chemical_formula_structural   Sr2MgUO6
_chemical_formula_sum   'Sr4 Mg2 U2 O12'
_cell_volume   284.01840608
_cell_formula_units_Z   2
loop_
 _symmetry_equiv_pos_site_id
 _symmetry_equiv_pos_as_xyz
  1  'x, y, z'
loop_
 _atom_site_type_symbol
 _atom_site_label
 _atom_site_symmetry_multiplicity
 _atom_site_fract_x
 _atom_site_fract_y
 _atom_site_fract_z
 _atom_site_occupancy
  Sr  Sr0  1  0.03167400  0.26137700  0.74779300  1
  Sr  Sr1  1  0.53167400  0.73862300  0.75220700  1
  Sr  Sr2  1  0.46832600  0.26137700  0.24779300  1
  Sr  Sr3  1  0.96832600  0.73862300  0.25220700  1
  Mg  Mg0  1  0.50000000  0.50000000  0.50000000  1
  Mg  Mg1  1  0.00000000  0.50000000  0.00000000  1
  U  U0  1  0.00000000  0.00000000  0.50000000  1
  U  U1  1  0.50000000  0.00000000  0.00000000  1
  O  O0  1  0.72097200  0.25904500  0.45608900  1
  O  O1  1  0.78494300  0.67965700  0.54016600  1
  O  O2  1  0.27902800  0.74095500  0.54391100  1
  O  O3  1  0.98099700  0.83239900  0.74695200  1
  O  O4  1  0.48099700  0.16760100  0.75304800  1
  O  O5  1  0.77902800  0.25904500  0.95608900  1
  O  O6  1  0.28494300  0.32034300  0.95983400  1
  O  O7  1  0.71505700  0.67965700  0.04016600  1
  O  O8  1  0.22097200  0.74095500  0.04391100  1
  O  O9  1  0.51900300  0.83239900  0.24695200  1
  O  O10  1  0.01900300  0.16760100  0.25304800  1
  O  O11  1  0.21505700  0.32034300  0.45983400  1
loop_
_geom_bond_atom_site_label_1
_geom_bond_atom_site_label_2
_geom_bond_distance
_geom_bond_site_symmetry_2
Mg0 O1 2.136207 1_555
Mg0 O11 2.136207 1_555
Mg0 O0 2.142304 1_555
Mg0 O2 2.142304 1_555
Mg0 O9 2.146602 1_555
Mg0 O4 2.146602 1_555
Mg1 O7 2.136207 1_455
Mg1 O6 2.136207 1_554
Mg1 O5 2.142304 1_454
Mg1 O8 2.142304 1_555
Mg1 O10 2.146602 1_555
Mg1 O3 2.146602 1_454
O0 U0 2.099860 1_655
O0 Sr2 2.567974 1_555
O0 Sr3 2.753331 1_555
O0 Sr1 2.996323 1_545
O1 U0 2.097770 1_665
O1 Sr0 2.566265 1_655
O1 Sr1 2.787007 1_555
O1 Sr3 2.929200 1_555
O2 U0 2.099860 1_565
O2 Sr1 2.567974 1_555
O2 Sr0 2.753331 1_555
O2 Sr2 2.996323 1_565
O3 U0 2.092647 1_665
O3 Sr0 2.532612 1_665
O3 Sr1 2.690954 1_555
O4 U1 2.092647 1_556
O4 Sr1 2.532612 1_545
O4 Sr0 2.690954 1_555
O5 U1 2.099860 1_556
O5 Sr0 2.567974 1_655
O5 Sr1 2.753331 1_555
O5 Sr3 2.996323 1_546
O6 U1 2.097770 1_556
O6 Sr1 2.566265 1_555
O6 Sr0 2.787007 1_555
O6 Sr2 2.929200 1_556
O7 U1 2.097770 1_565
O7 Sr2 2.566265 1_555
O7 Sr3 2.787007 1_555
O7 Sr1 2.929200 1_554
O8 U1 2.099860 1_565
O8 Sr3 2.567974 1_455
O8 Sr2 2.753331 1_555
O8 Sr0 2.996323 1_564
O9 U1 2.092647 1_565
O9 Sr2 2.532612 1_565
O9 Sr3 2.690954 1_555
O10 U0 2.092647 1_555
O10 Sr3 2.532612 1_445
O10 Sr2 2.690954 1_555
O11 U0 2.097770 1_555
O11 Sr3 2.566265 1_455
O11 Sr2 2.787007 1_555
O11 Sr0 2.929200 1_555
