# generated using pymatgen
data_BaPAu
_symmetry_space_group_name_H-M   'P 1'
_cell_length_a   4.42798811
_cell_length_b   4.42798738
_cell_length_c   9.20051251
_cell_angle_alpha   90.00000000
_cell_angle_beta   90.00000000
_cell_angle_gamma   120.00005677
_symmetry_Int_Tables_number   1
_chemical_formula_structural   BaPAu
_chemical_formula_sum   'Ba2 P2 Au2'
_cell_volume   156.22668731
_cell_formula_units_Z   2
loop_
 _symmetry_equiv_pos_site_id
 _symmetry_equiv_pos_as_xyz
  1  'x, y, z'
loop_
 _atom_site_type_symbol
 _atom_site_label
 _atom_site_symmetry_multiplicity
 _atom_site_fract_x
 _atom_site_fract_y
 _atom_site_fract_z
 _atom_site_occupancy
  Ba  Ba0  1  -0.00000000  -0.00000000  0.00000000  1
  Ba  Ba1  1  -0.00000000  -0.00000000  0.50000000  1
  P  P0  1  0.33333630  0.66666570  0.25000000  1
  P  P1  1  0.66666270  0.33333430  0.75000000  1
  Au  Au0  1  0.33333365  0.66666735  0.75000000  1
  Au  Au1  1  0.66666735  0.33333365  0.25000000  1
loop_
_geom_bond_atom_site_label_1
_geom_bond_atom_site_label_2
_geom_bond_distance
_geom_bond_site_symmetry_2
Ba0 P1 3.438924 1_554
Ba0 P0 3.438927 1_445
Ba0 P0 3.438932 1_555
Ba0 P1 3.438932 1_444
Ba0 P0 3.438948 1_545
Ba0 P1 3.438951 1_454
Ba1 P1 3.438924 1_555
Ba1 P0 3.438927 1_445
Ba1 P0 3.438932 1_555
Ba1 P1 3.438932 1_445
Ba1 P0 3.438948 1_545
Ba1 P1 3.438951 1_455
Au0 P1 2.556483 1_555
Au0 P1 2.556499 1_565
Au0 P1 2.556515 1_455
Au0 Ba0 3.438934 1_666
Au0 Ba1 3.438934 1_665
Au0 Ba0 3.438936 1_566
Au0 Ba1 3.438936 1_565
Au0 Ba0 3.438937 1_556
Au0 Ba1 3.438937 1_555
Au1 P0 2.556487 1_555
Au1 P0 2.556503 1_545
Au1 P0 2.556507 1_655
Au1 Ba1 3.438934 1_665
Au1 Ba0 3.438934 1_665
Au1 Ba0 3.438936 1_655
Au1 Ba1 3.438936 1_655
Au1 Ba1 3.438937 1_555
Au1 Ba0 3.438937 1_555
