# generated using pymatgen
data_CeY3
_symmetry_space_group_name_H-M   'P 1'
_cell_length_a   5.05881200
_cell_length_b   5.05881200
_cell_length_c   5.05881200
_cell_angle_alpha   90.00000000
_cell_angle_beta   90.00000000
_cell_angle_gamma   90.00000000
_symmetry_Int_Tables_number   1
_chemical_formula_structural   CeY3
_chemical_formula_sum   'Ce1 Y3'
_cell_volume   129.46298619
_cell_formula_units_Z   1
loop_
 _symmetry_equiv_pos_site_id
 _symmetry_equiv_pos_as_xyz
  1  'x, y, z'
loop_
 _atom_site_type_symbol
 _atom_site_label
 _atom_site_symmetry_multiplicity
 _atom_site_fract_x
 _atom_site_fract_y
 _atom_site_fract_z
 _atom_site_occupancy
  Ce  Ce0  1  0.00000000  0.00000000  0.00000000  1
  Y  Y0  1  0.00000000  0.50000000  0.50000000  1
  Y  Y1  1  0.50000000  0.00000000  0.50000000  1
  Y  Y2  1  0.50000000  0.50000000  0.00000000  1
loop_
_geom_bond_atom_site_label_1
_geom_bond_atom_site_label_2
_geom_bond_distance
_geom_bond_site_symmetry_2
Ce0 Y0 3.577120 1_545
Ce0 Y1 3.577120 1_455
Ce0 Y2 3.577120 1_455
Ce0 Y0 3.577120 1_555
Ce0 Y1 3.577120 1_555
Ce0 Y1 3.577120 1_454
Ce0 Y0 3.577120 1_554
Ce0 Y2 3.577120 1_545
Ce0 Y2 3.577120 1_555
Ce0 Y1 3.577120 1_554
Ce0 Y2 3.577120 1_445
Ce0 Y0 3.577120 1_544
Y0 Y1 3.577120 1_455
Y0 Y2 3.577120 1_456
Y0 Y2 3.577120 1_455
Y0 Y2 3.577120 1_556
Y0 Y1 3.577120 1_555
Y0 Y2 3.577120 1_555
Y0 Y1 3.577120 1_465
Y0 Y1 3.577120 1_565
Y1 Y2 3.577120 1_556
Y1 Y2 3.577120 1_545
Y1 Y2 3.577120 1_546
Y1 Y2 3.577120 1_555
