# generated using pymatgen
data_Ba4Er(RuO4)3
_symmetry_space_group_name_H-M   'P 1'
_cell_length_a   10.37570492
_cell_length_b   10.37570492
_cell_length_c   10.37570468
_cell_angle_alpha   33.19852556
_cell_angle_beta   33.19852556
_cell_angle_gamma   33.19852255
_symmetry_Int_Tables_number   1
_chemical_formula_structural   Ba4Er(RuO4)3
_chemical_formula_sum   'Ba4 Er1 Ru3 O12'
_cell_volume   298.10902963
_cell_formula_units_Z   1
loop_
 _symmetry_equiv_pos_site_id
 _symmetry_equiv_pos_as_xyz
  1  'x, y, z'
loop_
 _atom_site_type_symbol
 _atom_site_label
 _atom_site_symmetry_multiplicity
 _atom_site_fract_x
 _atom_site_fract_y
 _atom_site_fract_z
 _atom_site_occupancy
  Ba  Ba0  1  0.28602000  0.28602000  0.28602000  1
  Ba  Ba1  1  0.71398000  0.71398000  0.71398100  1
  Ba  Ba2  1  0.12875400  0.12875400  0.12875400  1
  Ba  Ba3  1  0.87124600  0.87124600  0.87124700  1
  Er  Er0  1  0.00000000  0.00000000  0.00000000  1
  Ru  Ru0  1  0.41334200  0.41334200  0.41334200  1
  Ru  Ru1  1  0.58665800  0.58665800  0.58665900  1
  Ru  Ru2  1  0.50000000  0.50000000  0.50000000  1
  O  O0  1  0.78253500  0.30566100  0.78253600  1
  O  O1  1  0.78253600  0.78253600  0.30566100  1
  O  O2  1  0.30566100  0.78253500  0.78253600  1
  O  O3  1  0.69433900  0.21746500  0.21746400  1
  O  O4  1  0.21746400  0.21746400  0.69434000  1
  O  O5  1  0.21746500  0.69433900  0.21746400  1
  O  O6  1  0.61264700  0.14690700  0.61264700  1
  O  O7  1  0.61264800  0.61264800  0.14690600  1
  O  O8  1  0.14690700  0.61264700  0.61264700  1
  O  O9  1  0.85309200  0.38735300  0.38735400  1
  O  O10  1  0.38735200  0.38735200  0.85309500  1
  O  O11  1  0.38735300  0.85309200  0.38735400  1
loop_
_geom_bond_atom_site_label_1
_geom_bond_atom_site_label_2
_geom_bond_distance
_geom_bond_site_symmetry_2
Ba0 O10 2.903524 1_554
Ba0 O11 2.903534 1_545
Ba0 O9 2.903534 1_455
Ba0 O2 2.967741 1_554
Ba0 O0 2.967741 1_554
Ba0 O1 2.967744 1_455
Ba0 O1 2.967744 1_545
Ba0 O0 2.967746 1_455
Ba0 O2 2.967746 1_545
Ba0 O5 3.117817 1_555
Ba0 O3 3.117817 1_555
Ba0 O4 3.117819 1_555
Ba1 O8 2.903524 1_655
Ba1 O6 2.903524 1_565
Ba1 O7 2.903524 1_556
Ba1 O5 2.967738 1_556
Ba1 O3 2.967738 1_556
Ba1 O4 2.967744 1_655
Ba1 O4 2.967744 1_565
Ba1 O3 2.967750 1_565
Ba1 O5 2.967750 1_655
Ba1 O1 3.117819 1_555
Ba1 O2 3.117824 1_555
Ba1 O0 3.117824 1_555
Ba2 O7 2.969603 1_545
Ba2 O7 2.969603 1_455
Ba2 O6 2.969604 1_455
Ba2 O8 2.969604 1_545
Ba2 O6 2.969604 1_554
Ba2 O8 2.969604 1_554
Ba2 O10 2.990127 1_554
Ba2 O11 2.990136 1_545
Ba2 O9 2.990136 1_455
Ba2 O4 3.089054 1_554
Ba2 O3 3.089057 1_455
Ba2 O5 3.089057 1_545
Ba3 O10 2.969603 1_655
Ba3 O10 2.969603 1_565
Ba3 O11 2.969604 1_655
Ba3 O9 2.969604 1_565
Ba3 O9 2.969604 1_556
Ba3 O11 2.969604 1_556
Ba3 O7 2.990127 1_556
Ba3 O6 2.990142 1_565
Ba3 O8 2.990142 1_655
Ba3 O2 3.089050 1_655
Ba3 O0 3.089050 1_565
Ba3 O1 3.089054 1_556
Er0 O1 2.192929 1_445
Er0 O4 2.192932 1_554
Er0 O3 2.192936 1_455
Er0 O5 2.192936 1_545
Er0 O0 2.192936 1_454
Er0 O2 2.192936 1_544
O0 Ru1 1.959817 1_555
O1 Ru1 1.959829 1_555
O2 Ru1 1.959817 1_555
O3 Ru0 1.959824 1_555
O4 Ru0 1.959829 1_555
O5 Ru0 1.959824 1_555
O6 Ru2 2.026816 1_555
O6 Ru0 2.053565 1_555
O7 Ru2 2.026816 1_555
O7 Ru0 2.053577 1_555
O8 Ru2 2.026816 1_555
O8 Ru0 2.053565 1_555
O9 Ru2 2.026812 1_555
O9 Ru1 2.053569 1_555
O10 Ru2 2.026824 1_555
O10 Ru1 2.053577 1_555
O11 Ru2 2.026812 1_555
O11 Ru1 2.053569 1_555
