# generated using pymatgen
data_Er2Ga8Co
_symmetry_space_group_name_H-M   'P 1'
_cell_length_a   4.17043652
_cell_length_b   4.17043754
_cell_length_c   10.96686556
_cell_angle_alpha   89.99999472
_cell_angle_beta   90.00000000
_cell_angle_gamma   90.00040460
_symmetry_Int_Tables_number   1
_chemical_formula_structural   Er2Ga8Co
_chemical_formula_sum   'Er2 Ga8 Co1'
_cell_volume   190.74170299
_cell_formula_units_Z   1
loop_
 _symmetry_equiv_pos_site_id
 _symmetry_equiv_pos_as_xyz
  1  'x, y, z'
loop_
 _atom_site_type_symbol
 _atom_site_label
 _atom_site_symmetry_multiplicity
 _atom_site_fract_x
 _atom_site_fract_y
 _atom_site_fract_z
 _atom_site_occupancy
  Er  Er0  1  0.99999900  0.00000100  0.30573779  1
  Er  Er1  1  -0.00000000  -0.00000000  0.69426221  1
  Ga  Ga0  1  0.50000000  -0.00000000  0.11591624  1
  Ga  Ga1  1  -0.00000000  0.50000000  0.11591624  1
  Ga  Ga2  1  0.50000000  0.50000000  0.30499109  1
  Ga  Ga3  1  0.50000000  -0.00000000  0.50000000  1
  Ga  Ga4  1  0.00000100  0.50000000  0.50000000  1
  Ga  Ga5  1  0.50000000  0.50000000  0.69500991  1
  Ga  Ga6  1  0.50000100  0.00000000  0.88408376  1
  Ga  Ga7  1  0.00000000  0.50000000  0.88408376  1
  Co  Co0  1  0.00000100  0.00000000  -0.00000000  1
loop_
_geom_bond_atom_site_label_1
_geom_bond_atom_site_label_2
_geom_bond_distance
_geom_bond_site_symmetry_2
Er0 Ga0 2.946488 1_555
Er0 Ga1 2.946488 1_655
Er0 Ga0 2.946494 1_655
Er0 Ga1 2.946494 1_645
Er0 Ga2 2.948945 1_655
Er0 Ga2 2.948945 1_545
Er0 Ga2 2.948960 1_555
Er0 Ga2 2.948972 1_645
Er0 Ga3 2.981095 1_555
Er0 Ga4 2.981095 1_655
Er0 Ga3 2.981100 1_655
Er0 Ga4 2.981101 1_645
Er1 Ga6 2.946488 1_455
Er1 Ga7 2.946491 1_545
Er1 Ga7 2.946491 1_555
Er1 Ga6 2.946494 1_555
Er1 Ga5 2.948945 1_445
Er1 Ga5 2.948945 1_555
Er1 Ga5 2.948966 1_545
Er1 Ga5 2.948966 1_455
Er1 Ga3 2.981097 1_455
Er1 Ga3 2.981097 1_555
Er1 Ga4 2.981098 1_555
Er1 Ga4 2.981098 1_545
Ga0 Ga6 2.542476 1_554
Ga0 Ga2 2.940711 1_545
Ga0 Ga2 2.940711 1_555
Ga0 Ga1 2.948934 1_655
Ga0 Ga1 2.948934 1_545
Ga0 Ga1 2.948955 1_645
Ga0 Ga1 2.948955 1_555
Ga1 Ga7 2.542476 1_554
Ga1 Ga2 2.940711 1_555
Ga1 Ga2 2.940711 1_455
Ga2 Ga4 2.986952 1_555
Ga2 Ga3 2.986955 1_555
Ga2 Ga3 2.986956 1_565
Ga2 Ga4 2.986958 1_655
Ga3 Ga4 2.948931 1_545
Ga3 Ga4 2.948937 1_655
Ga3 Ga4 2.948952 1_555
Ga3 Ga4 2.948958 1_645
Ga3 Ga5 2.986963 1_545
Ga3 Ga5 2.986964 1_555
Ga4 Ga5 2.986960 1_555
Ga4 Ga5 2.986966 1_455
Ga5 Ga7 2.940703 1_655
Ga5 Ga7 2.940703 1_555
Ga5 Ga6 2.940703 1_555
Ga5 Ga6 2.940704 1_565
Ga6 Ga7 2.948931 1_655
Ga6 Ga7 2.948937 1_545
Ga6 Ga7 2.948952 1_645
Ga6 Ga7 2.948958 1_555
Co0 Ga0 2.442164 1_555
Co0 Ga6 2.442167 1_454
Co0 Ga6 2.442167 1_554
Co0 Ga1 2.442168 1_545
Co0 Ga7 2.442168 1_554
Co0 Ga7 2.442168 1_544
Co0 Ga1 2.442168 1_555
Co0 Ga0 2.442171 1_455
