# generated using pymatgen
data_LiAuO2
_symmetry_space_group_name_H-M   'P 1'
_cell_length_a   4.20950007
_cell_length_b   4.20950054
_cell_length_c   6.08415271
_cell_angle_alpha   110.23916815
_cell_angle_beta   110.23917135
_cell_angle_gamma   90.00001154
_symmetry_Int_Tables_number   1
_chemical_formula_structural   LiAuO2
_chemical_formula_sum   'Li2 Au2 O4'
_cell_volume   94.02731334
_cell_formula_units_Z   2
loop_
 _symmetry_equiv_pos_site_id
 _symmetry_equiv_pos_as_xyz
  1  'x, y, z'
loop_
 _atom_site_type_symbol
 _atom_site_label
 _atom_site_symmetry_multiplicity
 _atom_site_fract_x
 _atom_site_fract_y
 _atom_site_fract_z
 _atom_site_occupancy
  Li  Li0  1  0.25000000  0.75000000  0.50000000  1
  Li  Li1  1  0.00000000  0.00000000  0.00000000  1
  Au  Au0  1  0.50000000  0.50000000  0.00000000  1
  Au  Au1  1  0.75000000  0.25000000  0.50000000  1
  O  O0  1  0.12500000  0.62992883  0.75000000  1
  O  O1  1  0.62500000  0.12007117  0.75000000  1
  O  O2  1  0.37007117  0.87500000  0.25000000  1
  O  O3  1  0.87992883  0.37500000  0.25000000  1
loop_
_geom_bond_atom_site_label_1
_geom_bond_atom_site_label_2
_geom_bond_distance
_geom_bond_site_symmetry_2
Li0 O1 1.982816 1_565
Li0 O3 1.982816 1_455
Li0 O0 1.982816 1_555
Li0 O2 1.982816 1_555
Li1 O1 1.982816 1_454
Li1 O2 1.982816 1_545
Li1 O0 1.982816 1_544
Li1 O3 1.982816 1_455
Au0 O3 2.004719 1_555
Au0 O0 2.004719 1_554
Au0 O2 2.004719 1_555
Au0 O1 2.004719 1_554
Au0 Li1 2.976566 1_665
Au0 Li1 2.976566 1_555
Au1 O2 2.004718 1_545
Au1 O0 2.004718 1_655
Au1 O3 2.004719 1_555
Au1 O1 2.004719 1_555
Au1 Li0 2.976567 1_645
Au1 Li0 2.976567 1_555
