# generated using pymatgen
data_PrSmTl2
_symmetry_space_group_name_H-M   'P 1'
_cell_length_a   5.49255351
_cell_length_b   5.49255278
_cell_length_c   5.49255425
_cell_angle_alpha   60.00005323
_cell_angle_beta   60.00001329
_cell_angle_gamma   60.00009309
_symmetry_Int_Tables_number   1
_chemical_formula_structural   PrSmTl2
_chemical_formula_sum   'Pr1 Sm1 Tl2'
_cell_volume   117.16783808
_cell_formula_units_Z   1
loop_
 _symmetry_equiv_pos_site_id
 _symmetry_equiv_pos_as_xyz
  1  'x, y, z'
loop_
 _atom_site_type_symbol
 _atom_site_label
 _atom_site_symmetry_multiplicity
 _atom_site_fract_x
 _atom_site_fract_y
 _atom_site_fract_z
 _atom_site_occupancy
  Pr  Pr0  1  0.25000000  0.25000000  0.25000000  1
  Sm  Sm0  1  0.74999900  0.74999900  0.74999900  1
  Tl  Tl0  1  -0.00000000  0.00000000  0.00000000  1
  Tl  Tl1  1  0.49999900  0.49999900  0.49999900  1
loop_
_geom_bond_atom_site_label_1
_geom_bond_atom_site_label_2
_geom_bond_distance
_geom_bond_site_symmetry_2
Pr0 Tl1 3.363474 1_555
Pr0 Tl0 3.363487 1_555
Pr0 Tl0 3.363490 1_556
Pr0 Tl0 3.363491 1_655
Pr0 Tl0 3.363492 1_565
Pr0 Tl1 3.363494 1_554
Pr0 Tl1 3.363495 1_455
Pr0 Tl1 3.363496 1_545
Sm0 Tl0 3.363485 1_665
Sm0 Tl0 3.363486 1_566
Sm0 Tl1 3.363487 1_555
Sm0 Tl0 3.363487 1_656
Sm0 Tl1 3.363490 1_556
Sm0 Tl1 3.363491 1_655
Sm0 Tl1 3.363492 1_565
Sm0 Tl0 3.363500 1_666
