# generated using pymatgen
data_SmDyHg2
_symmetry_space_group_name_H-M   'P 1'
_cell_length_a   5.28270746
_cell_length_b   5.28270746
_cell_length_c   5.28270746
_cell_angle_alpha   60.00000000
_cell_angle_beta   60.00000000
_cell_angle_gamma   60.00000000
_symmetry_Int_Tables_number   1
_chemical_formula_structural   SmDyHg2
_chemical_formula_sum   'Sm1 Dy1 Hg2'
_cell_volume   104.24486885
_cell_formula_units_Z   1
loop_
 _symmetry_equiv_pos_site_id
 _symmetry_equiv_pos_as_xyz
  1  'x, y, z'
loop_
 _atom_site_type_symbol
 _atom_site_label
 _atom_site_symmetry_multiplicity
 _atom_site_fract_x
 _atom_site_fract_y
 _atom_site_fract_z
 _atom_site_occupancy
  Sm  Sm0  1  0.74999900  0.74999900  0.74999900  1
  Dy  Dy0  1  0.24999900  0.24999900  0.24999900  1
  Hg  Hg0  1  -0.00000000  0.00000000  -0.00000000  1
  Hg  Hg1  1  0.50000000  0.50000000  0.50000000  1
loop_
_geom_bond_atom_site_label_1
_geom_bond_atom_site_label_2
_geom_bond_distance
_geom_bond_site_symmetry_2
Dy0 Hg0 3.234971 1_555
Dy0 Hg1 3.234980 1_554
Dy0 Hg1 3.234980 1_545
Dy0 Hg1 3.234980 1_455
Dy0 Hg0 3.234989 1_556
Dy0 Hg0 3.234989 1_565
Dy0 Hg0 3.234989 1_655
Dy0 Hg1 3.234997 1_555
Hg0 Sm0 3.234980 1_454
Hg0 Sm0 3.234980 1_445
Hg0 Sm0 3.234980 1_544
Hg0 Sm0 3.234997 1_444
Hg1 Sm0 3.234971 1_555
Hg1 Sm0 3.234989 1_545
Hg1 Sm0 3.234989 1_455
Hg1 Sm0 3.234989 1_554
