# generated using pymatgen
data_CuHO2
_symmetry_space_group_name_H-M   'P 1'
_cell_length_a   2.74532954
_cell_length_b   3.34944178
_cell_length_c   4.38293530
_cell_angle_alpha   97.94526085
_cell_angle_beta   90.00001862
_cell_angle_gamma   114.19345572
_symmetry_Int_Tables_number   1
_chemical_formula_structural   CuHO2
_chemical_formula_sum   'Cu1 H1 O2'
_cell_volume   36.33805676
_cell_formula_units_Z   1
loop_
 _symmetry_equiv_pos_site_id
 _symmetry_equiv_pos_as_xyz
  1  'x, y, z'
loop_
 _atom_site_type_symbol
 _atom_site_label
 _atom_site_symmetry_multiplicity
 _atom_site_fract_x
 _atom_site_fract_y
 _atom_site_fract_z
 _atom_site_occupancy
  Cu  Cu0  1  0.50000000  -0.00000000  -0.00000000  1
  H  H0  1  -0.00000000  -0.00000000  0.50000000  1
  O  O0  1  0.91598324  0.83196849  0.23489020  1
  O  O1  1  0.08401676  0.16803151  0.76510980  1
loop_
_geom_bond_atom_site_label_1
_geom_bond_atom_site_label_2
_geom_bond_distance
_geom_bond_site_symmetry_2
Cu0 O0 1.835164 1_545
Cu0 O1 1.835164 1_554
Cu0 O0 1.835169 1_445
Cu0 O1 1.835169 1_654
H0 O1 1.197044 1_555
H0 O0 1.197044 1_445
