# generated using pymatgen
data_Zr9V4S
_symmetry_space_group_name_H-M   'P 1'
_cell_length_a   8.65631998
_cell_length_b   8.65631998
_cell_length_c   8.53839600
_cell_angle_alpha   90.00000000
_cell_angle_beta   90.00000000
_cell_angle_gamma   119.99999985
_symmetry_Int_Tables_number   1
_chemical_formula_structural   Zr9V4S
_chemical_formula_sum   'Zr18 V8 S2'
_cell_volume   554.08134539
_cell_formula_units_Z   2
loop_
 _symmetry_equiv_pos_site_id
 _symmetry_equiv_pos_as_xyz
  1  'x, y, z'
loop_
 _atom_site_type_symbol
 _atom_site_label
 _atom_site_symmetry_multiplicity
 _atom_site_fract_x
 _atom_site_fract_y
 _atom_site_fract_z
 _atom_site_occupancy
  Zr  Zr0  1  0.19553000  0.39105900  0.94876800  1
  Zr  Zr1  1  0.19553000  0.80447000  0.94876800  1
  Zr  Zr2  1  0.45800600  0.91601300  0.25000000  1
  Zr  Zr3  1  0.54199400  0.45800600  0.75000000  1
  Zr  Zr4  1  0.91601300  0.45800600  0.75000000  1
  Zr  Zr5  1  0.08398700  0.54199400  0.25000000  1
  Zr  Zr6  1  0.45800600  0.54199400  0.25000000  1
  Zr  Zr7  1  0.54199400  0.08398700  0.75000000  1
  Zr  Zr8  1  0.60894100  0.80447000  0.94876800  1
  Zr  Zr9  1  0.39105900  0.19553000  0.44876800  1
  Zr  Zr10  1  0.80447000  0.60894100  0.05123200  1
  Zr  Zr11  1  0.80447000  0.19553000  0.44876800  1
  Zr  Zr12  1  0.80447000  0.60894100  0.44876800  1
  Zr  Zr13  1  0.19553000  0.80447000  0.55123200  1
  Zr  Zr14  1  0.60894100  0.80447000  0.55123200  1
  Zr  Zr15  1  0.39105900  0.19553000  0.05123200  1
  Zr  Zr16  1  0.80447000  0.19553000  0.05123200  1
  Zr  Zr17  1  0.19553000  0.39105900  0.55123200  1
  V  V0  1  0.00000000  0.00000000  0.50000000  1
  V  V1  1  0.00000000  0.00000000  0.00000000  1
  V  V2  1  0.89612600  0.79225300  0.75000000  1
  V  V3  1  0.10387400  0.89612600  0.25000000  1
  V  V4  1  0.79225300  0.89612600  0.25000000  1
  V  V5  1  0.20774700  0.10387400  0.75000000  1
  V  V6  1  0.89612600  0.10387400  0.75000000  1
  V  V7  1  0.10387400  0.20774700  0.25000000  1
  S  S0  1  0.66666700  0.33333300  0.25000000  1
  S  S1  1  0.33333300  0.66666700  0.75000000  1
loop_
_geom_bond_atom_site_label_1
_geom_bond_atom_site_label_2
_geom_bond_distance
_geom_bond_site_symmetry_2
V0 V5 2.642346 1_555
V0 V7 2.642346 1_555
V0 V4 2.642346 1_445
V0 V2 2.642346 1_445
V0 V3 2.642350 1_545
V0 V6 2.642350 1_455
V0 Zr9 2.964067 1_555
V0 Zr17 2.964067 1_555
V0 Zr14 2.964067 1_445
V0 Zr12 2.964067 1_445
V0 Zr11 2.964074 1_455
V0 Zr13 2.964074 1_545
V1 V5 2.642346 1_554
V1 V7 2.642346 1_555
V1 V4 2.642346 1_445
V1 V2 2.642346 1_444
V1 V6 2.642350 1_454
V1 V3 2.642350 1_545
V1 Zr15 2.964067 1_555
V1 Zr0 2.964067 1_554
V1 Zr10 2.964067 1_445
V1 Zr8 2.964067 1_444
V1 Zr16 2.964074 1_455
V1 Zr1 2.964074 1_544
V2 V6 2.697491 1_565
V2 V5 2.697491 1_665
V2 Zr10 2.916136 1_556
V2 Zr12 2.916136 1_555
V2 Zr3 2.983141 1_555
V2 Zr4 2.983151 1_555
V2 Zr14 3.055235 1_555
V2 Zr8 3.055235 1_555
V2 Zr1 3.055249 1_655
V2 Zr13 3.055249 1_655
V3 V7 2.697491 1_565
V3 V4 2.697491 1_455
V3 Zr13 2.916136 1_555
V3 Zr1 2.916136 1_554
V3 Zr5 2.983133 1_555
V3 Zr2 2.983133 1_555
V3 Zr12 3.055243 1_455
V3 Zr15 3.055243 1_565
V3 Zr10 3.055243 1_455
V3 Zr9 3.055243 1_565
V4 V7 2.697491 1_665
V4 Zr8 2.916136 1_554
V4 Zr14 2.916136 1_555
V4 Zr6 2.983141 1_555
V4 Zr2 2.983151 1_555
V4 Zr10 3.055235 1_555
V4 Zr12 3.055235 1_555
V4 Zr16 3.055249 1_565
V4 Zr11 3.055249 1_565
V5 V6 2.697491 1_455
V5 Zr15 2.916136 1_556
V5 Zr9 2.916136 1_555
V5 Zr3 2.983141 1_555
V5 Zr7 2.983151 1_555
V5 Zr17 3.055235 1_555
V5 Zr0 3.055235 1_555
V5 Zr1 3.055249 1_545
V5 Zr13 3.055249 1_545
V6 Zr16 2.916136 1_556
V6 Zr11 2.916136 1_555
V6 Zr4 2.983133 1_555
V6 Zr7 2.983133 1_555
V6 Zr17 3.055243 1_655
V6 Zr14 3.055243 1_545
V6 Zr0 3.055243 1_655
V6 Zr8 3.055243 1_545
V7 Zr17 2.916136 1_555
V7 Zr0 2.916136 1_554
V7 Zr6 2.983141 1_555
V7 Zr5 2.983151 1_555
V7 Zr9 3.055235 1_555
V7 Zr15 3.055235 1_555
V7 Zr11 3.055249 1_455
V7 Zr16 3.055249 1_455
S0 Zr16 2.673789 1_555
S0 Zr11 2.673789 1_555
S0 Zr10 2.673800 1_555
S0 Zr12 2.673800 1_555
S0 Zr9 2.673800 1_555
S0 Zr15 2.673800 1_555
S0 Zr2 3.128478 1_545
S0 Zr5 3.128478 1_655
S0 Zr6 3.128493 1_555
S1 Zr1 2.673789 1_555
S1 Zr13 2.673789 1_555
S1 Zr8 2.673800 1_555
S1 Zr17 2.673800 1_555
S1 Zr14 2.673800 1_555
S1 Zr0 2.673800 1_555
S1 Zr7 3.128478 1_565
S1 Zr4 3.128478 1_455
S1 Zr3 3.128493 1_555
