# generated using pymatgen
data_La4Au2O9
_symmetry_space_group_name_H-M   'P 1'
_cell_length_a   6.33130087
_cell_length_b   12.11519718
_cell_length_c   12.12043998
_cell_angle_alpha   90.00000000
_cell_angle_beta   90.00000000
_cell_angle_gamma   90.00000000
_symmetry_Int_Tables_number   1
_chemical_formula_structural   La4Au2O9
_chemical_formula_sum   'La16 Au8 O36'
_cell_volume   929.69784501
_cell_formula_units_Z   4
loop_
 _symmetry_equiv_pos_site_id
 _symmetry_equiv_pos_as_xyz
  1  'x, y, z'
loop_
 _atom_site_type_symbol
 _atom_site_label
 _atom_site_symmetry_multiplicity
 _atom_site_fract_x
 _atom_site_fract_y
 _atom_site_fract_z
 _atom_site_occupancy
  La  La0  1  0.74311255  0.08910323  0.01072617  1
  La  La1  1  0.74311255  0.41089677  0.98927383  1
  La  La2  1  0.75688745  0.58910323  0.48927383  1
  La  La3  1  0.75688745  0.91089677  0.51072617  1
  La  La4  1  0.25688745  0.91089677  0.98927383  1
  La  La5  1  0.25688745  0.58910323  0.01072617  1
  La  La6  1  0.24311255  0.41089677  0.51072617  1
  La  La7  1  0.24311255  0.08910323  0.48927383  1
  La  La8  1  0.80132028  0.26345037  0.34031283  1
  La  La9  1  0.80132028  0.23654963  0.65968717  1
  La  La10  1  0.69867972  0.76345037  0.15968717  1
  La  La11  1  0.69867972  0.73654963  0.84031283  1
  La  La12  1  0.19867972  0.73654963  0.65968717  1
  La  La13  1  0.19867972  0.76345037  0.34031283  1
  La  La14  1  0.30132028  0.23654963  0.84031283  1
  La  La15  1  0.30132028  0.26345037  0.15968717  1
  Au  Au0  1  0.57828763  0.01058077  0.27061793  1
  Au  Au1  1  0.57828763  0.48941923  0.72938207  1
  Au  Au2  1  0.92171237  0.51058077  0.22938207  1
  Au  Au3  1  0.92171237  0.98941923  0.77061793  1
  Au  Au4  1  0.42171237  0.98941923  0.72938207  1
  Au  Au5  1  0.42171237  0.51058077  0.27061793  1
  Au  Au6  1  0.07828763  0.48941923  0.77061793  1
  Au  Au7  1  0.07828763  0.01058077  0.22938207  1
  O  O0  1  0.94350056  0.44700105  0.38273550  1
  O  O1  1  0.94350056  0.05299895  0.61726450  1
  O  O2  1  0.55649944  0.94700105  0.11726450  1
  O  O3  1  0.55649944  0.55299895  0.88273550  1
  O  O4  1  0.05649944  0.55299895  0.61726450  1
  O  O5  1  0.05649944  0.94700105  0.38273550  1
  O  O6  1  0.44350056  0.05299895  0.88273550  1
  O  O7  1  0.44350056  0.44700105  0.11726450  1
  O  O8  1  0.94390552  0.35511684  0.16459360  1
  O  O9  1  0.94390552  0.14488316  0.83540640  1
  O  O10  1  0.55609448  0.85511684  0.33540640  1
  O  O11  1  0.55609448  0.64488316  0.66459360  1
  O  O12  1  0.05609448  0.64488316  0.83540640  1
  O  O13  1  0.05609448  0.85511684  0.16459360  1
  O  O14  1  0.62025773  0.15650237  0.19835483  1
  O  O15  1  0.44390552  0.14488316  0.66459360  1
  O  O16  1  0.60886695  0.08587490  0.41991664  1
  O  O17  1  0.60886695  0.41412510  0.58008336  1
  O  O18  1  0.89113305  0.58587490  0.08008336  1
  O  O19  1  0.89113305  0.91412510  0.91991664  1
  O  O20  1  0.39113305  0.91412510  0.58008336  1
  O  O21  1  0.39113305  0.58587490  0.41991664  1
  O  O22  1  0.10886695  0.41412510  0.91991664  1
  O  O23  1  0.10886695  0.08587490  0.08008336  1
  O  O24  1  0.02300250  0.25000000  0.50000000  1
  O  O25  1  0.47699750  0.75000000  -0.00000000  1
  O  O26  1  0.97699750  0.75000000  0.50000000  1
  O  O27  1  0.52300250  0.25000000  -0.00000000  1
  O  O28  1  0.12025773  0.15650237  0.30164517  1
  O  O29  1  0.12025773  0.34349763  0.69835483  1
  O  O30  1  0.37974227  0.65650237  0.19835483  1
  O  O31  1  0.37974227  0.84349763  0.80164517  1
  O  O32  1  0.87974227  0.84349763  0.69835483  1
  O  O33  1  0.87974227  0.65650237  0.30164517  1
  O  O34  1  0.62025773  0.34349763  0.80164517  1
  O  O35  1  0.44390552  0.35511684  0.33540640  1
loop_
_geom_bond_atom_site_label_1
_geom_bond_atom_site_label_2
_geom_bond_distance
_geom_bond_site_symmetry_2
La0 O27 2.399735 1_555
La0 O2 2.455051 1_545
La0 O23 2.463874 1_655
La0 O6 2.489222 1_554
La0 O14 2.538405 1_555
La0 O19 2.565864 1_544
La0 O9 2.566761 1_554
La1 O27 2.399735 1_556
La1 O3 2.455051 1_555
La1 O22 2.463874 1_655
La1 O7 2.489222 1_556
La1 O34 2.538405 1_555
La1 O18 2.565864 1_556
La1 O8 2.566761 1_556
La2 O26 2.399735 1_555
La2 O0 2.455051 1_555
La2 O21 2.463874 1_555
La2 O4 2.489222 1_655
La2 O33 2.538405 1_555
La2 O17 2.565864 1_555
La2 O11 2.566761 1_555
La3 O26 2.399735 1_555
La3 O1 2.455051 1_565
La3 O20 2.463874 1_555
La3 O5 2.489222 1_655
La3 O32 2.538405 1_555
La3 O16 2.565864 1_565
La3 O10 2.566761 1_555
La4 O25 2.399735 1_556
La4 O6 2.455051 1_565
La4 O19 2.463874 1_455
La4 O2 2.489222 1_556
La4 O31 2.538405 1_555
La4 O23 2.565864 1_566
La4 O13 2.566761 1_556
La5 O25 2.399735 1_555
La5 O7 2.455051 1_555
La5 O18 2.463874 1_455
La5 O3 2.489222 1_554
La5 O30 2.538405 1_555
La5 O22 2.565864 1_554
La5 O12 2.566761 1_554
La6 O24 2.399735 1_555
La6 O4 2.455051 1_555
La6 O17 2.463874 1_555
La6 O0 2.489222 1_455
La6 O29 2.538405 1_555
La6 O21 2.565864 1_555
La6 O35 2.566761 1_555
La7 O24 2.399735 1_555
La7 O5 2.455051 1_545
La7 O16 2.463874 1_555
La7 O1 2.489222 1_455
La7 O28 2.538405 1_555
La7 O20 2.565864 1_545
La7 O15 2.566761 1_555
La8 O24 2.396361 1_655
La8 O14 2.439962 1_555
La8 O28 2.444587 1_655
La8 O0 2.453527 1_555
La8 O35 2.521427 1_555
La8 O8 2.565993 1_555
La8 O16 2.654045 1_555
La9 O24 2.396361 1_655
La9 O34 2.439962 1_555
La9 O29 2.444587 1_655
La9 O1 2.453527 1_555
La9 O15 2.521427 1_555
La9 O9 2.565993 1_555
La9 O17 2.654045 1_555
La10 O25 2.396361 1_555
La10 O33 2.439962 1_555
La10 O30 2.444587 1_555
La10 O2 2.453527 1_555
La10 O13 2.521427 1_655
La10 O10 2.565993 1_555
La10 O18 2.654045 1_555
La11 O25 2.396361 1_556
La11 O32 2.439962 1_555
La11 O31 2.444587 1_555
La11 O3 2.453527 1_555
La11 O12 2.521427 1_655
La11 O11 2.565993 1_555
La11 O19 2.654045 1_555
La12 O26 2.396361 1_455
La12 O31 2.439962 1_555
La12 O32 2.444587 1_455
La12 O4 2.453527 1_555
La12 O11 2.521427 1_555
La12 O12 2.565993 1_555
La12 O20 2.654045 1_555
La13 O26 2.396361 1_455
La13 O30 2.439962 1_555
La13 O33 2.444587 1_455
La13 O5 2.453527 1_555
La13 O10 2.521427 1_555
La13 O13 2.565993 1_555
La13 O21 2.654045 1_555
La14 O27 2.396361 1_556
La14 O29 2.439962 1_555
La14 O34 2.444587 1_555
La14 O6 2.453527 1_555
La14 O9 2.521427 1_455
La14 O15 2.565993 1_555
La14 O22 2.654045 1_555
La15 O27 2.396361 1_555
La15 O28 2.439962 1_555
La15 O14 2.444587 1_555
La15 O7 2.453527 1_555
La15 O8 2.521427 1_455
La15 O35 2.565993 1_555
La15 O23 2.654045 1_555
Au0 O14 1.990754 1_555
Au0 O2 2.016722 1_545
Au0 O16 2.035713 1_555
Au0 O10 2.045450 1_545
Au1 O34 1.990754 1_555
Au1 O3 2.016722 1_555
Au1 O17 2.035713 1_555
Au1 O11 2.045450 1_555
Au2 O33 1.990754 1_555
Au2 O0 2.016722 1_555
Au2 O18 2.035713 1_555
Au2 O8 2.045450 1_555
Au3 O32 1.990754 1_555
Au3 O1 2.016722 1_565
Au3 O19 2.035713 1_555
Au3 O9 2.045450 1_565
Au4 O31 1.990754 1_555
Au4 O6 2.016722 1_565
Au4 O20 2.035713 1_555
Au4 O15 2.045450 1_565
Au5 O30 1.990754 1_555
Au5 O7 2.016722 1_555
Au5 O21 2.035713 1_555
Au5 O35 2.045450 1_555
Au6 O29 1.990754 1_555
Au6 O4 2.016722 1_555
Au6 O22 2.035713 1_555
Au6 O12 2.045450 1_555
Au7 O28 1.990754 1_555
Au7 O5 2.016722 1_545
Au7 O23 2.035713 1_555
Au7 O13 2.045450 1_545
