# generated using pymatgen
data_TiPd
_symmetry_space_group_name_H-M   'P 1'
_cell_length_a   5.56156996
_cell_length_b   9.78227023
_cell_length_c   9.11517302
_cell_angle_alpha   90.00000000
_cell_angle_beta   90.00000000
_cell_angle_gamma   93.02821345
_symmetry_Int_Tables_number   1
_chemical_formula_structural   TiPd
_chemical_formula_sum   'Ti16 Pd16'
_cell_volume   495.21651900
_cell_formula_units_Z   16
loop_
 _symmetry_equiv_pos_site_id
 _symmetry_equiv_pos_as_xyz
  1  'x, y, z'
loop_
 _atom_site_type_symbol
 _atom_site_label
 _atom_site_symmetry_multiplicity
 _atom_site_fract_x
 _atom_site_fract_y
 _atom_site_fract_z
 _atom_site_occupancy
  Ti  Ti0_0  1  0.22739481  0.10016400  0.12499900  1
  Ti  Ti0_1  1  0.22739481  0.10016400  0.62499900  1
  Ti  Ti0_2  1  0.22739481  0.60016399  0.12499900  1
  Ti  Ti0_3  1  0.22739481  0.60016399  0.62499900  1
  Ti  Ti0_4  1  0.72739481  0.10016400  0.12499900  1
  Ti  Ti0_5  1  0.72739481  0.10016400  0.62499900  1
  Ti  Ti0_6  1  0.72739481  0.60016400  0.12499900  1
  Ti  Ti0_7  1  0.72739481  0.60016400  0.62499900  1
  Ti  Ti1_0  1  0.27260569  0.39983651  0.37500000  1
  Ti  Ti1_1  1  0.27260569  0.39983651  0.87500000  1
  Ti  Ti1_2  1  0.27260569  0.89983651  0.37500000  1
  Ti  Ti1_3  1  0.27260569  0.89983651  0.87500000  1
  Ti  Ti1_4  1  0.77260569  0.39983651  0.37500000  1
  Ti  Ti1_5  1  0.77260569  0.39983651  0.87500000  1
  Ti  Ti1_6  1  0.77260569  0.89983651  0.37500000  1
  Ti  Ti1_7  1  0.77260569  0.89983651  0.87500000  1
  Pd  Pd0_0  1  0.00590204  0.34223051  0.12499900  1
  Pd  Pd0_1  1  0.00590204  0.34223051  0.62499900  1
  Pd  Pd0_2  1  0.00590204  0.84223051  0.12499900  1
  Pd  Pd0_3  1  0.00590204  0.84223051  0.62499900  1
  Pd  Pd0_4  1  0.50590204  0.34223051  0.12499900  1
  Pd  Pd0_5  1  0.50590204  0.34223051  0.62499900  1
  Pd  Pd0_6  1  0.50590204  0.84223051  0.12499900  1
  Pd  Pd0_7  1  0.50590204  0.84223051  0.62499900  1
  Pd  Pd1_0  1  0.49409846  0.15776999  0.37500000  1
  Pd  Pd1_1  1  0.49409846  0.15776999  0.87500000  1
  Pd  Pd1_2  1  0.49409846  0.65776999  0.37500000  1
  Pd  Pd1_3  1  0.49409846  0.65776999  0.87500000  1
  Pd  Pd1_4  1  0.99409846  0.15776999  0.37500000  1
  Pd  Pd1_5  1  0.99409846  0.15776999  0.87500000  1
  Pd  Pd1_6  1  0.99409846  0.65776999  0.37500000  1
  Pd  Pd1_7  1  0.99409846  0.65776999  0.87500000  1
loop_
_geom_bond_atom_site_label_1
_geom_bond_atom_site_label_2
_geom_bond_distance
_geom_bond_site_symmetry_2
Ti0_0 Ti0_4 2.780785 1_455
Ti0_0 Ti0_4 2.780785 1_555
Ti0_0 Ti1_3 3.024632 1_544
Ti0_0 Ti1_2 3.024646 1_545
Ti0_1 Ti0_5 2.780785 1_455
Ti0_1 Ti0_5 2.780785 1_555
Ti0_1 Ti1_2 3.024632 1_545
Ti0_1 Ti1_3 3.024646 1_545
Ti0_2 Ti0_6 2.780785 1_555
Ti0_2 Ti0_6 2.780785 1_455
Ti0_2 Ti1_1 3.024632 1_554
Ti0_2 Ti1_0 3.024646 1_555
Ti0_3 Ti0_7 2.780785 1_555
Ti0_3 Ti0_7 2.780785 1_455
Ti0_3 Ti1_0 3.024632 1_555
Ti0_3 Ti1_1 3.024646 1_555
Ti0_4 Ti1_7 3.024632 1_544
Ti0_4 Ti1_6 3.024646 1_545
Ti0_5 Ti1_6 3.024632 1_545
Ti0_5 Ti1_7 3.024646 1_545
Ti0_6 Ti1_5 3.024632 1_554
Ti0_6 Ti1_4 3.024646 1_555
Ti0_7 Ti1_4 3.024632 1_555
Ti0_7 Ti1_5 3.024646 1_555
Ti1_0 Ti1_4 2.780785 1_555
Ti1_0 Ti1_4 2.780785 1_455
Ti1_1 Ti1_5 2.780785 1_455
Ti1_1 Ti1_5 2.780785 1_555
Ti1_2 Ti1_6 2.780785 1_455
Ti1_2 Ti1_6 2.780785 1_555
Ti1_3 Ti1_7 2.780785 1_455
Ti1_3 Ti1_7 2.780785 1_555
Pd0_0 Ti1_5 2.696507 1_454
Pd0_0 Ti1_4 2.696523 1_455
Pd0_0 Ti0_0 2.726330 1_555
Pd0_0 Ti0_2 2.748721 1_555
Pd0_0 Ti0_4 2.760239 1_455
Pd0_0 Ti1_1 2.760842 1_554
Pd0_0 Ti1_0 2.760857 1_555
Pd0_0 Pd0_4 2.780785 1_555
Pd0_0 Pd0_4 2.780785 1_455
Pd0_0 Pd1_5 2.905282 1_454
Pd0_0 Pd1_4 2.905296 1_455
Pd0_0 Ti0_6 3.029612 1_455
Pd0_1 Ti1_4 2.696507 1_455
Pd0_1 Ti1_5 2.696523 1_455
Pd0_1 Ti0_1 2.726330 1_555
Pd0_1 Ti0_3 2.748721 1_555
Pd0_1 Ti0_5 2.760239 1_455
Pd0_1 Ti1_0 2.760842 1_555
Pd0_1 Ti1_1 2.760857 1_555
Pd0_1 Pd0_5 2.780785 1_555
Pd0_1 Pd0_5 2.780785 1_455
Pd0_1 Pd1_4 2.905282 1_455
Pd0_1 Pd1_5 2.905296 1_455
Pd0_1 Ti0_7 3.029612 1_455
Pd0_2 Ti1_7 2.696507 1_454
Pd0_2 Ti1_6 2.696523 1_455
Pd0_2 Ti0_2 2.726330 1_555
Pd0_2 Ti0_0 2.748721 1_565
Pd0_2 Ti0_6 2.760239 1_455
Pd0_2 Ti1_3 2.760842 1_554
Pd0_2 Ti1_2 2.760857 1_555
Pd0_2 Pd0_6 2.780785 1_455
Pd0_2 Pd0_6 2.780785 1_555
Pd0_2 Pd1_7 2.905282 1_454
Pd0_2 Pd1_6 2.905296 1_455
Pd0_2 Ti0_4 3.029612 1_465
Pd0_3 Ti1_6 2.696507 1_455
Pd0_3 Ti1_7 2.696523 1_455
Pd0_3 Ti0_3 2.726330 1_555
Pd0_3 Ti0_1 2.748721 1_565
Pd0_3 Ti0_7 2.760239 1_455
Pd0_3 Ti1_2 2.760842 1_555
Pd0_3 Ti1_3 2.760857 1_555
Pd0_3 Pd0_7 2.780785 1_455
Pd0_3 Pd0_7 2.780785 1_555
Pd0_3 Pd1_6 2.905282 1_455
Pd0_3 Pd1_7 2.905296 1_455
Pd0_3 Ti0_5 3.029612 1_465
Pd0_4 Ti1_1 2.696507 1_554
Pd0_4 Ti1_0 2.696523 1_555
Pd0_4 Ti0_4 2.726330 1_555
Pd0_4 Ti0_6 2.748721 1_555
Pd0_4 Ti0_0 2.760239 1_555
Pd0_4 Ti1_5 2.760842 1_554
Pd0_4 Ti1_4 2.760857 1_555
Pd0_4 Pd1_1 2.905282 1_554
Pd0_4 Pd1_0 2.905296 1_555
Pd0_4 Ti0_2 3.029612 1_555
Pd0_5 Ti1_0 2.696507 1_555
Pd0_5 Ti1_1 2.696523 1_555
Pd0_5 Ti0_5 2.726330 1_555
Pd0_5 Ti0_7 2.748721 1_555
Pd0_5 Ti0_1 2.760239 1_555
Pd0_5 Ti1_4 2.760842 1_555
Pd0_5 Ti1_5 2.760857 1_555
Pd0_5 Pd1_0 2.905282 1_555
Pd0_5 Pd1_1 2.905296 1_555
Pd0_5 Ti0_3 3.029612 1_555
Pd0_6 Ti1_3 2.696507 1_554
Pd0_6 Ti1_2 2.696523 1_555
Pd0_6 Ti0_6 2.726330 1_555
Pd0_6 Ti0_4 2.748721 1_565
Pd0_6 Ti0_2 2.760239 1_555
Pd0_6 Ti1_7 2.760842 1_554
Pd0_6 Ti1_6 2.760857 1_555
Pd0_6 Pd1_3 2.905282 1_554
Pd0_6 Pd1_2 2.905296 1_555
Pd0_6 Ti0_0 3.029612 1_565
Pd0_7 Ti1_2 2.696507 1_555
Pd0_7 Ti1_3 2.696523 1_555
Pd0_7 Ti0_7 2.726330 1_555
Pd0_7 Ti0_5 2.748721 1_565
Pd0_7 Ti0_3 2.760239 1_555
Pd0_7 Ti1_6 2.760842 1_555
Pd0_7 Ti1_7 2.760857 1_555
Pd0_7 Pd1_2 2.905282 1_555
Pd0_7 Pd1_3 2.905296 1_555
Pd0_7 Ti0_1 3.029612 1_565
Pd1_0 Ti0_5 2.696507 1_555
Pd1_0 Ti0_4 2.696523 1_555
Pd1_0 Ti1_0 2.726330 1_555
Pd1_0 Ti1_2 2.748721 1_545
Pd1_0 Ti1_4 2.760239 1_555
Pd1_0 Ti0_1 2.760842 1_555
Pd1_0 Ti0_0 2.760857 1_555
Pd1_0 Pd1_4 2.780785 1_555
Pd1_0 Pd1_4 2.780785 1_455
Pd1_0 Ti1_6 3.029612 1_545
Pd1_1 Ti0_4 2.696507 1_556
Pd1_1 Ti0_5 2.696523 1_555
Pd1_1 Ti1_1 2.726330 1_555
Pd1_1 Ti1_3 2.748721 1_545
Pd1_1 Ti1_5 2.760239 1_555
Pd1_1 Ti0_0 2.760842 1_556
Pd1_1 Ti0_1 2.760857 1_555
Pd1_1 Pd1_5 2.780785 1_555
Pd1_1 Pd1_5 2.780785 1_455
Pd1_1 Ti1_7 3.029612 1_545
Pd1_2 Ti0_7 2.696507 1_555
Pd1_2 Ti0_6 2.696523 1_555
Pd1_2 Ti1_2 2.726330 1_555
Pd1_2 Ti1_0 2.748721 1_555
Pd1_2 Ti1_6 2.760239 1_555
Pd1_2 Ti0_3 2.760842 1_555
Pd1_2 Ti0_2 2.760857 1_555
Pd1_2 Pd1_6 2.780785 1_555
Pd1_2 Pd1_6 2.780785 1_455
Pd1_2 Ti1_4 3.029612 1_555
Pd1_3 Ti0_6 2.696507 1_556
Pd1_3 Ti0_7 2.696523 1_555
Pd1_3 Ti1_3 2.726330 1_555
Pd1_3 Ti1_1 2.748721 1_555
Pd1_3 Ti1_7 2.760239 1_555
Pd1_3 Ti0_2 2.760842 1_556
Pd1_3 Ti0_3 2.760857 1_555
Pd1_3 Pd1_7 2.780785 1_555
Pd1_3 Pd1_7 2.780785 1_455
Pd1_3 Ti1_5 3.029612 1_555
Pd1_4 Ti0_1 2.696507 1_655
Pd1_4 Ti0_0 2.696523 1_655
Pd1_4 Ti1_4 2.726330 1_555
Pd1_4 Ti1_6 2.748721 1_545
Pd1_4 Ti1_0 2.760239 1_655
Pd1_4 Ti0_5 2.760842 1_555
Pd1_4 Ti0_4 2.760857 1_555
Pd1_4 Ti1_2 3.029612 1_645
Pd1_5 Ti0_0 2.696507 1_656
Pd1_5 Ti0_1 2.696523 1_655
Pd1_5 Ti1_5 2.726330 1_555
Pd1_5 Ti1_7 2.748721 1_545
Pd1_5 Ti1_1 2.760239 1_655
Pd1_5 Ti0_4 2.760842 1_556
Pd1_5 Ti0_5 2.760857 1_555
Pd1_5 Ti1_3 3.029612 1_645
Pd1_6 Ti0_3 2.696507 1_655
Pd1_6 Ti0_2 2.696523 1_655
Pd1_6 Ti1_6 2.726330 1_555
Pd1_6 Ti1_4 2.748721 1_555
Pd1_6 Ti1_2 2.760239 1_655
Pd1_6 Ti0_7 2.760842 1_555
Pd1_6 Ti0_6 2.760857 1_555
Pd1_6 Ti1_0 3.029612 1_655
Pd1_7 Ti0_2 2.696507 1_656
Pd1_7 Ti0_3 2.696523 1_655
Pd1_7 Ti1_7 2.726330 1_555
Pd1_7 Ti1_5 2.748721 1_555
Pd1_7 Ti1_3 2.760239 1_655
Pd1_7 Ti0_6 2.760842 1_556
Pd1_7 Ti0_7 2.760857 1_555
Pd1_7 Ti1_1 3.029612 1_655
