# generated using pymatgen
data_Ba(LuS2)2
_symmetry_space_group_name_H-M   'P 1'
_cell_length_a   3.95904328
_cell_length_b   12.16681935
_cell_length_c   14.28681425
_cell_angle_alpha   90.00000000
_cell_angle_beta   90.00000000
_cell_angle_gamma   90.00000000
_symmetry_Int_Tables_number   1
_chemical_formula_structural   Ba(LuS2)2
_chemical_formula_sum   'Ba4 Lu8 S16'
_cell_volume   688.18104681
_cell_formula_units_Z   4
loop_
 _symmetry_equiv_pos_site_id
 _symmetry_equiv_pos_as_xyz
  1  'x, y, z'
loop_
 _atom_site_type_symbol
 _atom_site_label
 _atom_site_symmetry_multiplicity
 _atom_site_fract_x
 _atom_site_fract_y
 _atom_site_fract_z
 _atom_site_occupancy
  Ba  Ba0  1  0.25000000  0.75825213  0.66273131  1
  Ba  Ba1  1  0.75000000  0.74174787  0.16273131  1
  Ba  Ba2  1  0.25000000  0.25825213  0.83726869  1
  Ba  Ba3  1  0.75000000  0.24174787  0.33726869  1
  Lu  Lu0  1  0.25000000  0.43508827  0.60858144  1
  Lu  Lu1  1  0.75000000  0.06491173  0.10858144  1
  Lu  Lu2  1  0.25000000  0.93508827  0.89141856  1
  Lu  Lu3  1  0.75000000  0.56491173  0.39141856  1
  Lu  Lu4  1  0.25000000  0.42153283  0.10097022  1
  Lu  Lu5  1  0.75000000  0.07846717  0.60097022  1
  Lu  Lu6  1  0.25000000  0.92153283  0.39902978  1
  Lu  Lu7  1  0.75000000  0.57846717  0.89902978  1
  S  S0  1  0.25000000  0.52326301  0.78323432  1
  S  S1  1  0.75000000  0.97673699  0.28323432  1
  S  S2  1  0.25000000  0.02326301  0.71676568  1
  S  S3  1  0.75000000  0.47673699  0.21676568  1
  S  S4  1  0.25000000  0.12072347  0.47767562  1
  S  S5  1  0.75000000  0.37927653  0.97767562  1
  S  S6  1  0.25000000  0.62072347  0.02232438  1
  S  S7  1  0.75000000  0.87927653  0.52232438  1
  S  S8  1  0.25000000  0.20663356  0.15664018  1
  S  S9  1  0.75000000  0.29336644  0.65664018  1
  S  S10  1  0.25000000  0.70663356  0.34335982  1
  S  S11  1  0.75000000  0.79336644  0.84335982  1
  S  S12  1  0.25000000  0.41995424  0.42452825  1
  S  S13  1  0.75000000  0.08004576  0.92452825  1
  S  S14  1  0.25000000  0.91995424  0.07547175  1
  S  S15  1  0.75000000  0.58004576  0.57547175  1
loop_
_geom_bond_atom_site_label_1
_geom_bond_atom_site_label_2
_geom_bond_distance
_geom_bond_site_symmetry_2
Ba0 S7 3.179719 1_455
Ba0 S7 3.179719 1_555
Ba0 S15 3.189637 1_455
Ba0 S15 3.189637 1_555
Ba0 S11 3.280329 1_455
Ba0 S11 3.280329 1_555
Ba0 S2 3.315466 1_565
Ba0 S0 3.337395 1_555
Ba1 S6 3.179719 1_655
Ba1 S6 3.179719 1_555
Ba1 S14 3.189637 1_555
Ba1 S14 3.189637 1_655
Ba1 S10 3.280329 1_555
Ba1 S10 3.280329 1_655
Ba1 S3 3.315466 1_555
Ba1 S1 3.337395 1_555
Ba2 S5 3.179719 1_455
Ba2 S5 3.179719 1_555
Ba2 S13 3.189637 1_555
Ba2 S13 3.189637 1_455
Ba2 S9 3.280329 1_555
Ba2 S9 3.280329 1_455
Ba2 S0 3.315466 1_555
Ba2 S2 3.337395 1_555
Ba3 S4 3.179719 1_555
Ba3 S4 3.179719 1_655
Ba3 S12 3.189637 1_655
Ba3 S12 3.189637 1_555
Ba3 S8 3.280329 1_655
Ba3 S8 3.280329 1_555
Ba3 S1 3.315466 1_545
Ba3 S3 3.337395 1_555
Lu0 S12 2.635973 1_555
Lu0 S15 2.693103 1_455
Lu0 S15 2.693103 1_555
Lu0 S9 2.713514 1_555
Lu0 S9 2.713514 1_455
Lu0 S0 2.716082 1_555
Lu1 S13 2.635973 1_554
Lu1 S14 2.693103 1_645
Lu1 S14 2.693103 1_545
Lu1 S8 2.713514 1_555
Lu1 S8 2.713514 1_655
Lu1 S1 2.716082 1_545
Lu2 S14 2.635973 1_556
Lu2 S13 2.693103 1_465
Lu2 S13 2.693103 1_565
Lu2 S11 2.713514 1_555
Lu2 S11 2.713514 1_455
Lu2 S2 2.716082 1_565
Lu3 S15 2.635973 1_555
Lu3 S12 2.693103 1_655
Lu3 S12 2.693103 1_555
Lu3 S10 2.713514 1_555
Lu3 S10 2.713514 1_655
Lu3 S3 2.716082 1_555
Lu4 S3 2.665802 1_455
Lu4 S3 2.665802 1_555
Lu4 S6 2.671312 1_555
Lu4 S5 2.699197 1_454
Lu4 S5 2.699197 1_554
Lu4 S8 2.732933 1_555
Lu5 S2 2.665802 1_555
Lu5 S2 2.665802 1_655
Lu5 S7 2.671312 1_545
Lu5 S4 2.699197 1_555
Lu5 S4 2.699197 1_655
Lu5 S9 2.732933 1_555
Lu6 S1 2.665802 1_455
Lu6 S1 2.665802 1_555
Lu6 S4 2.671312 1_565
Lu6 S7 2.699197 1_455
Lu6 S7 2.699197 1_555
Lu6 S10 2.732933 1_555
Lu7 S0 2.665802 1_655
Lu7 S0 2.665802 1_555
Lu7 S5 2.671312 1_555
Lu7 S6 2.699197 1_556
Lu7 S6 2.699197 1_656
Lu7 S11 2.732933 1_555
