# generated using pymatgen
data_LiLu2Rh
_symmetry_space_group_name_H-M   'P 1'
_cell_length_a   4.79445642
_cell_length_b   4.79445642
_cell_length_c   4.79445642
_cell_angle_alpha   60.00000000
_cell_angle_beta   60.00000000
_cell_angle_gamma   60.00000000
_symmetry_Int_Tables_number   1
_chemical_formula_structural   LiLu2Rh
_chemical_formula_sum   'Li1 Lu2 Rh1'
_cell_volume   77.92972247
_cell_formula_units_Z   1
loop_
 _symmetry_equiv_pos_site_id
 _symmetry_equiv_pos_as_xyz
  1  'x, y, z'
loop_
 _atom_site_type_symbol
 _atom_site_label
 _atom_site_symmetry_multiplicity
 _atom_site_fract_x
 _atom_site_fract_y
 _atom_site_fract_z
 _atom_site_occupancy
  Li  Li0  1  0.25000000  0.25000000  0.25000000  1
  Lu  Lu0  1  -0.00000000  0.00000000  0.00000000  1
  Lu  Lu1  1  0.49999900  0.49999900  0.49999900  1
  Rh  Rh0  1  0.75000000  0.75000000  0.75000000  1
loop_
_geom_bond_atom_site_label_1
_geom_bond_atom_site_label_2
_geom_bond_distance
_geom_bond_site_symmetry_2
Li0 Lu1 2.935981 1_555
Li0 Lu0 2.935993 1_556
Li0 Lu0 2.935993 1_555
Li0 Lu0 2.935993 1_565
Li0 Lu0 2.935993 1_655
Li0 Lu1 2.935997 1_455
Li0 Lu1 2.935997 1_554
Li0 Lu1 2.935997 1_545
Lu0 Rh0 2.935993 1_445
Lu0 Rh0 2.935993 1_444
Lu0 Rh0 2.935993 1_454
Lu0 Rh0 2.935993 1_544
Lu1 Rh0 2.935989 1_554
Lu1 Rh0 2.935989 1_455
Lu1 Rh0 2.935989 1_545
Lu1 Rh0 2.936005 1_555
