# generated using pymatgen
data_MgRe3
_symmetry_space_group_name_H-M   'P 1'
_cell_length_a   4.40460774
_cell_length_b   4.40460774
_cell_length_c   4.40460774
_cell_angle_alpha   60.00000000
_cell_angle_beta   60.00000000
_cell_angle_gamma   60.00000000
_symmetry_Int_Tables_number   1
_chemical_formula_structural   MgRe3
_chemical_formula_sum   'Mg1 Re3'
_cell_volume   60.42361638
_cell_formula_units_Z   1
loop_
 _symmetry_equiv_pos_site_id
 _symmetry_equiv_pos_as_xyz
  1  'x, y, z'
loop_
 _atom_site_type_symbol
 _atom_site_label
 _atom_site_symmetry_multiplicity
 _atom_site_fract_x
 _atom_site_fract_y
 _atom_site_fract_z
 _atom_site_occupancy
  Mg  Mg0  1  0.00000000  0.00000000  0.00000000  1
  Re  Re0  1  0.25000000  0.25000000  0.25000000  1
  Re  Re1  1  0.50000000  0.50000000  0.50000000  1
  Re  Re2  1  0.75000000  0.75000000  0.75000000  1
loop_
_geom_bond_atom_site_label_1
_geom_bond_atom_site_label_2
_geom_bond_distance
_geom_bond_site_symmetry_2
Mg0 Re0 2.697260 1_545
Mg0 Re2 2.697260 1_445
Mg0 Re2 2.697260 1_444
Mg0 Re0 2.697260 1_455
Mg0 Re0 2.697260 1_554
Mg0 Re0 2.697260 1_555
Mg0 Re2 2.697260 1_544
Mg0 Re2 2.697260 1_454
Re0 Re1 2.697260 1_545
Re0 Re1 2.697260 1_555
Re0 Re1 2.697260 1_554
Re0 Re1 2.697260 1_455
Re1 Re2 2.697260 1_555
Re1 Re2 2.697260 1_554
Re1 Re2 2.697260 1_455
Re1 Re2 2.697260 1_545
