# generated using pymatgen
data_Lu2Ta2O5
_symmetry_space_group_name_H-M   'P 1'
_cell_length_a   3.46782700
_cell_length_b   3.46782700
_cell_length_c   9.76297500
_cell_angle_alpha   90.00000000
_cell_angle_beta   90.00000000
_cell_angle_gamma   90.00000000
_symmetry_Int_Tables_number   1
_chemical_formula_structural   Lu2Ta2O5
_chemical_formula_sum   'Lu2 Ta2 O5'
_cell_volume   117.40782006
_cell_formula_units_Z   1
loop_
 _symmetry_equiv_pos_site_id
 _symmetry_equiv_pos_as_xyz
  1  'x, y, z'
loop_
 _atom_site_type_symbol
 _atom_site_label
 _atom_site_symmetry_multiplicity
 _atom_site_fract_x
 _atom_site_fract_y
 _atom_site_fract_z
 _atom_site_occupancy
  Lu  Lu0  1  0.50000000  0.50000000  0.73564800  1
  Lu  Lu1  1  0.50000000  0.50000000  0.26435200  1
  Ta  Ta0  1  0.00000000  0.00000000  0.00000000  1
  Ta  Ta1  1  0.00000000  0.00000000  0.50000000  1
  O  O0  1  0.00000000  0.50000000  0.87624700  1
  O  O1  1  0.00000000  0.50000000  0.12375300  1
  O  O2  1  0.50000000  0.50000000  0.50000000  1
  O  O3  1  0.50000000  0.00000000  0.87624700  1
  O  O4  1  0.50000000  0.00000000  0.12375300  1
loop_
_geom_bond_atom_site_label_1
_geom_bond_atom_site_label_2
_geom_bond_distance
_geom_bond_site_symmetry_2
Lu0 O3 2.211485 1_565
Lu0 O0 2.211485 1_655
Lu0 O3 2.211485 1_555
Lu0 O0 2.211485 1_555
Lu0 O2 2.300626 1_555
Lu1 O1 2.211485 1_555
Lu1 O1 2.211485 1_655
Lu1 O4 2.211485 1_565
Lu1 O4 2.211485 1_555
Lu1 O2 2.300626 1_555
O0 Ta0 2.113338 1_566
O0 Ta0 2.113338 1_556
O1 Ta0 2.113338 1_555
O1 Ta0 2.113338 1_565
O2 Ta1 2.452124 1_555
O2 Ta1 2.452124 1_565
O2 Ta1 2.452124 1_655
O2 Ta1 2.452124 1_665
O3 Ta0 2.113338 1_556
O3 Ta0 2.113338 1_656
O4 Ta0 2.113338 1_555
O4 Ta0 2.113338 1_655
