# generated using pymatgen
data_Ca6Pb2SeN
_symmetry_space_group_name_H-M   'P 1'
_cell_length_a   7.35913180
_cell_length_b   7.35913180
_cell_length_c   7.35913180
_cell_angle_alpha   60.00000000
_cell_angle_beta   60.00000000
_cell_angle_gamma   60.00000000
_symmetry_Int_Tables_number   1
_chemical_formula_structural   Ca6Pb2SeN
_chemical_formula_sum   'Ca6 Pb2 Se1 N1'
_cell_volume   281.81541546
_cell_formula_units_Z   1
loop_
 _symmetry_equiv_pos_site_id
 _symmetry_equiv_pos_as_xyz
  1  'x, y, z'
loop_
 _atom_site_type_symbol
 _atom_site_label
 _atom_site_symmetry_multiplicity
 _atom_site_fract_x
 _atom_site_fract_y
 _atom_site_fract_z
 _atom_site_occupancy
  Ca  Ca0  1  0.26923000  0.73077000  0.73077000  1
  Ca  Ca1  1  0.26923000  0.73077000  0.26923000  1
  Ca  Ca2  1  0.73077000  0.26923000  0.73077000  1
  Ca  Ca3  1  0.73077000  0.73077000  0.26923000  1
  Ca  Ca4  1  0.26923000  0.26923000  0.73077000  1
  Ca  Ca5  1  0.73077000  0.26923000  0.26923000  1
  Pb  Pb0  1  0.25000000  0.25000000  0.25000000  1
  Pb  Pb1  1  0.75000000  0.75000000  0.75000000  1
  Se  Se0  1  0.00000000  0.00000000  0.00000000  1
  N  N0  1  0.50000000  0.50000000  0.50000000  1
loop_
_geom_bond_atom_site_label_1
_geom_bond_atom_site_label_2
_geom_bond_distance
_geom_bond_site_symmetry_2
Ca0 N0 2.401712 1_555
Ca0 Se0 2.801980 1_566
Ca0 Pb1 3.685005 1_555
Ca0 Pb0 3.685005 1_556
Ca0 Pb0 3.685005 1_565
Ca0 Pb1 3.685005 1_455
Ca1 N0 2.401712 1_555
Ca1 Se0 2.801980 1_565
Ca1 Pb0 3.685005 1_565
Ca1 Pb1 3.685005 1_455
Ca1 Pb1 3.685005 1_554
Ca1 Pb0 3.685005 1_555
Ca2 N0 2.401712 1_555
Ca2 Se0 2.801980 1_656
Ca2 Pb1 3.685005 1_555
Ca2 Pb0 3.685005 1_556
Ca2 Pb0 3.685005 1_655
Ca2 Pb1 3.685005 1_545
Ca3 N0 2.401712 1_555
Ca3 Se0 2.801980 1_665
Ca3 Pb1 3.685005 1_555
Ca3 Pb0 3.685005 1_565
Ca3 Pb0 3.685005 1_655
Ca3 Pb1 3.685005 1_554
Ca4 N0 2.401712 1_555
Ca4 Se0 2.801980 1_556
Ca4 Pb0 3.685005 1_556
Ca4 Pb1 3.685005 1_455
Ca4 Pb1 3.685005 1_545
Ca4 Pb0 3.685005 1_555
Ca5 N0 2.401712 1_555
Ca5 Se0 2.801980 1_655
Ca5 Pb0 3.685005 1_655
Ca5 Pb1 3.685005 1_545
Ca5 Pb1 3.685005 1_554
Ca5 Pb0 3.685005 1_555
