# generated using pymatgen
data_Sr3BPO3
_symmetry_space_group_name_H-M   'P 1'
_cell_length_a   5.30854180
_cell_length_b   5.30854180
_cell_length_c   12.78243700
_cell_angle_alpha   90.00000000
_cell_angle_beta   90.00000000
_cell_angle_gamma   119.99999753
_symmetry_Int_Tables_number   1
_chemical_formula_structural   Sr3BPO3
_chemical_formula_sum   'Sr6 B2 P2 O6'
_cell_volume   311.95703683
_cell_formula_units_Z   2
loop_
 _symmetry_equiv_pos_site_id
 _symmetry_equiv_pos_as_xyz
  1  'x, y, z'
loop_
 _atom_site_type_symbol
 _atom_site_label
 _atom_site_symmetry_multiplicity
 _atom_site_fract_x
 _atom_site_fract_y
 _atom_site_fract_z
 _atom_site_occupancy
  Sr  Sr0  1  0.33333300  0.66666700  0.39968500  1
  Sr  Sr1  1  0.00000000  0.00000000  0.25000000  1
  Sr  Sr2  1  0.00000000  0.00000000  0.75000000  1
  Sr  Sr3  1  0.66666700  0.33333300  0.89968500  1
  Sr  Sr4  1  0.66666700  0.33333300  0.60031500  1
  Sr  Sr5  1  0.33333300  0.66666700  0.10031500  1
  B  B0  1  0.33333300  0.66666700  0.75000000  1
  B  B1  1  0.66666700  0.33333300  0.25000000  1
  P  P0  1  0.00000000  0.00000000  0.00000000  1
  P  P1  1  0.00000000  0.00000000  0.50000000  1
  O  O0  1  0.51563200  0.48436800  0.25000000  1
  O  O1  1  0.96873600  0.48436800  0.25000000  1
  O  O2  1  0.48436800  0.96873600  0.75000000  1
  O  O3  1  0.51563200  0.03126400  0.25000000  1
  O  O4  1  0.03126400  0.51563200  0.75000000  1
  O  O5  1  0.48436800  0.51563200  0.75000000  1
loop_
_geom_bond_atom_site_label_1
_geom_bond_atom_site_label_2
_geom_bond_distance
_geom_bond_site_symmetry_2
B0 O4 1.388712 1_555
B0 O2 1.388712 1_555
B0 O5 1.388716 1_555
B1 O3 1.388712 1_555
B1 O1 1.388712 1_555
B1 O0 1.388716 1_555
P0 Sr1 3.195609 1_555
P0 Sr2 3.195609 1_554
P0 Sr3 3.322309 1_454
P0 Sr5 3.322309 1_545
P0 Sr3 3.322313 1_554
P0 Sr5 3.322313 1_555
P0 Sr5 3.322313 1_445
P0 Sr3 3.322313 1_444
P1 Sr1 3.195609 1_555
P1 Sr2 3.195609 1_555
P1 Sr0 3.322309 1_545
P1 Sr4 3.322309 1_455
P1 Sr4 3.322313 1_445
P1 Sr0 3.322313 1_555
P1 Sr4 3.322313 1_555
P1 Sr0 3.322313 1_445
O0 Sr5 2.543706 1_555
O0 Sr0 2.543706 1_555
O0 Sr1 2.658160 1_665
O0 Sr1 2.658160 1_555
O1 Sr0 2.543703 1_655
O1 Sr5 2.543703 1_655
O1 Sr1 2.658160 1_655
O1 Sr1 2.658160 1_665
O2 Sr3 2.543703 1_565
O2 Sr4 2.543703 1_565
O2 Sr2 2.658160 1_565
O2 Sr2 2.658160 1_665
O3 Sr0 2.543703 1_545
O3 Sr5 2.543703 1_545
O3 Sr1 2.658160 1_655
O3 Sr1 2.658160 1_555
O4 Sr3 2.543703 1_455
O4 Sr4 2.543703 1_455
O4 Sr2 2.658160 1_565
O4 Sr2 2.658160 1_555
O5 Sr3 2.543706 1_555
O5 Sr4 2.543706 1_555
O5 Sr2 2.658160 1_555
O5 Sr2 2.658160 1_665
