# generated using pymatgen
data_YWN3
_symmetry_space_group_name_H-M   'P 1'
_cell_length_a   7.26072061
_cell_length_b   7.26072061
_cell_length_c   6.23908910
_cell_angle_alpha   74.17254931
_cell_angle_beta   74.17254931
_cell_angle_gamma   81.51557641
_symmetry_Int_Tables_number   1
_chemical_formula_structural   YWN3
_chemical_formula_sum   'Y4 W4 N12'
_cell_volume   303.49333811
_cell_formula_units_Z   4
loop_
 _symmetry_equiv_pos_site_id
 _symmetry_equiv_pos_as_xyz
  1  'x, y, z'
loop_
 _atom_site_type_symbol
 _atom_site_label
 _atom_site_symmetry_multiplicity
 _atom_site_fract_x
 _atom_site_fract_y
 _atom_site_fract_z
 _atom_site_occupancy
  Y  Y0  1  0.70538150  0.29461850  0.75000000  1
  Y  Y1  1  0.08897458  0.91102542  0.75000000  1
  Y  Y2  1  0.29461850  0.70538150  0.25000000  1
  Y  Y3  1  0.91102542  0.08897458  0.25000000  1
  W  W0  1  0.38207371  0.20001498  0.23308150  1
  W  W1  1  0.61792629  0.79998502  0.76691850  1
  W  W2  1  0.79998502  0.61792629  0.26691850  1
  W  W3  1  0.20001498  0.38207371  0.73308150  1
  N  N0  1  0.62618363  0.10755517  0.15294779  1
  N  N1  1  0.35828459  0.35769364  0.44530100  1
  N  N2  1  0.00121725  0.22080708  0.84690992  1
  N  N3  1  0.37381637  0.89244483  0.84705221  1
  N  N4  1  0.77919292  -0.00121725  0.65309008  1
  N  N5  1  0.10755517  0.62618363  0.65294779  1
  N  N6  1  0.89244483  0.37381637  0.34705221  1
  N  N7  1  0.64171541  0.64230636  0.55469900  1
  N  N8  1  0.64230636  0.64171541  0.05469900  1
  N  N9  1  0.35769364  0.35828459  0.94530100  1
  N  N10  1  -0.00121725  0.77919292  0.15309008  1
  N  N11  1  0.22080708  0.00121725  0.34690992  1
loop_
_geom_bond_atom_site_label_1
_geom_bond_atom_site_label_2
_geom_bond_distance
_geom_bond_site_symmetry_2
N0 W0 1.786251 1_555
N0 Y3 2.284369 1_555
N0 Y0 2.464758 1_554
N1 W3 1.887729 1_555
N1 W0 1.933245 1_555
N1 Y2 2.521173 1_555
N2 W3 1.856015 1_555
N2 Y0 2.336367 1_455
N2 Y3 2.375572 1_456
N2 Y1 2.437094 1_545
N3 W1 1.786251 1_555
N3 Y1 2.284369 1_555
N3 Y2 2.464758 1_556
N4 W1 1.856015 1_545
N4 Y0 2.336367 1_555
N4 Y3 2.375572 1_555
N4 Y1 2.437094 1_645
N5 W3 1.786251 1_555
N5 Y1 2.284369 1_555
N5 Y2 2.464758 1_555
N6 W2 1.786251 1_555
N6 Y3 2.284369 1_555
N6 Y0 2.464758 1_555
N7 W2 1.887729 1_555
N7 W1 1.933245 1_555
N7 Y0 2.521173 1_555
N8 W1 1.887729 1_554
N8 W2 1.933245 1_555
N8 Y2 2.521173 1_555
N9 W0 1.887729 1_556
N9 W3 1.933245 1_555
N9 Y0 2.521173 1_555
N10 W2 1.856015 1_455
N10 Y2 2.336367 1_555
N10 Y1 2.375572 1_554
N10 Y3 2.437094 1_465
N11 W0 1.856015 1_555
N11 Y2 2.336367 1_545
N11 Y1 2.375572 1_545
N11 Y3 2.437094 1_455
