# generated using pymatgen
data_Ag2WS4
_symmetry_space_group_name_H-M   'P 1'
_cell_length_a   7.38433200
_cell_length_b   7.85205600
_cell_length_c   12.05865000
_cell_angle_alpha   90.00000000
_cell_angle_beta   90.00000000
_cell_angle_gamma   90.00000000
_symmetry_Int_Tables_number   1
_chemical_formula_structural   Ag2WS4
_chemical_formula_sum   'Ag8 W4 S16'
_cell_volume   699.18691599
_cell_formula_units_Z   4
loop_
 _symmetry_equiv_pos_site_id
 _symmetry_equiv_pos_as_xyz
  1  'x, y, z'
loop_
 _atom_site_type_symbol
 _atom_site_label
 _atom_site_symmetry_multiplicity
 _atom_site_fract_x
 _atom_site_fract_y
 _atom_site_fract_z
 _atom_site_occupancy
  Ag  Ag0  1  0.09317900  0.75000000  0.04568700  1
  Ag  Ag1  1  0.90682100  0.25000000  0.95431300  1
  Ag  Ag2  1  0.59317900  0.75000000  0.45431300  1
  Ag  Ag3  1  0.40682100  0.25000000  0.54568700  1
  Ag  Ag4  1  0.36407600  0.75000000  0.87096200  1
  Ag  Ag5  1  0.63592400  0.25000000  0.12903800  1
  Ag  Ag6  1  0.86407600  0.75000000  0.62903800  1
  Ag  Ag7  1  0.13592400  0.25000000  0.37096200  1
  W  W0  1  0.18484100  0.75000000  0.45497300  1
  W  W1  1  0.81515900  0.25000000  0.54502700  1
  W  W2  1  0.68484100  0.75000000  0.04502700  1
  W  W3  1  0.31515900  0.25000000  0.95497300  1
  S  S0  1  0.66223600  0.47446900  0.61026700  1
  S  S1  1  0.33776400  0.97446900  0.38973300  1
  S  S2  1  0.16223600  0.02553100  0.88973300  1
  S  S3  1  0.83776400  0.52553100  0.11026700  1
  S  S4  1  0.33776400  0.52553100  0.38973300  1
  S  S5  1  0.66223600  0.02553100  0.61026700  1
  S  S6  1  0.83776400  0.97446900  0.11026700  1
  S  S7  1  0.16223600  0.47446900  0.88973300  1
  S  S8  1  0.91405500  0.75000000  0.37885700  1
  S  S9  1  0.08594500  0.25000000  0.62114300  1
  S  S10  1  0.41405500  0.75000000  0.12114300  1
  S  S11  1  0.58594500  0.25000000  0.87885700  1
  S  S12  1  0.30283800  0.25000000  0.13966400  1
  S  S13  1  0.69716200  0.75000000  0.86033600  1
  S  S14  1  0.80283800  0.25000000  0.36033600  1
  S  S15  1  0.19716200  0.75000000  0.63966400  1
loop_
_geom_bond_atom_site_label_1
_geom_bond_atom_site_label_2
_geom_bond_distance
_geom_bond_site_symmetry_2
Ag0 S10 2.538155 1_555
Ag0 S6 2.696343 1_455
Ag0 S3 2.696343 1_455
Ag0 S2 2.911587 1_564
Ag0 S7 2.911587 1_554
Ag1 S11 2.538155 1_555
Ag1 S2 2.696343 1_655
Ag1 S7 2.696343 1_655
Ag1 S3 2.911587 1_556
Ag1 S6 2.911587 1_546
Ag2 S8 2.538155 1_555
Ag2 S1 2.696343 1_555
Ag2 S4 2.696343 1_555
Ag2 S0 2.911587 1_555
Ag2 S5 2.911587 1_565
Ag3 S9 2.538155 1_555
Ag3 S5 2.696343 1_555
Ag3 S0 2.696343 1_555
Ag3 S1 2.911587 1_545
Ag3 S4 2.911587 1_555
Ag4 S13 2.462953 1_555
Ag4 S2 2.636921 1_565
Ag4 S7 2.636921 1_555
Ag4 S10 3.039336 1_556
Ag4 S15 3.049342 1_555
Ag5 S12 2.462953 1_555
Ag5 S3 2.636921 1_555
Ag5 S6 2.636921 1_545
Ag5 S11 3.039336 1_554
Ag5 S14 3.049342 1_555
Ag6 S15 2.462953 1_655
Ag6 S5 2.636921 1_565
Ag6 S0 2.636921 1_555
Ag6 S8 3.039336 1_555
Ag6 S13 3.049342 1_555
Ag7 S14 2.462953 1_455
Ag7 S4 2.636921 1_555
Ag7 S1 2.636921 1_545
Ag7 S9 3.039336 1_555
Ag7 S12 3.049342 1_555
S0 W1 2.236210 1_555
S1 W0 2.236210 1_555
S2 W3 2.236210 1_555
S3 W2 2.236210 1_555
S4 W0 2.236210 1_555
S5 W1 2.236210 1_555
S6 W2 2.236210 1_555
S7 W3 2.236210 1_555
S8 W0 2.200172 1_655
S9 W1 2.200172 1_455
S10 W2 2.200172 1_555
S11 W3 2.200172 1_555
S12 W3 2.228982 1_554
S13 W2 2.228982 1_556
S14 W1 2.228982 1_555
S15 W0 2.228982 1_555
