# generated using pymatgen
data_SmAlCu
_symmetry_space_group_name_H-M   'P 1'
_cell_length_a   7.13157836
_cell_length_b   7.13114161
_cell_length_c   4.04867278
_cell_angle_alpha   90.00000000
_cell_angle_beta   90.00000000
_cell_angle_gamma   119.99788731
_symmetry_Int_Tables_number   1
_chemical_formula_structural   SmAlCu
_chemical_formula_sum   'Sm3 Al3 Cu3'
_cell_volume   178.31885806
_cell_formula_units_Z   3
loop_
 _symmetry_equiv_pos_site_id
 _symmetry_equiv_pos_as_xyz
  1  'x, y, z'
loop_
 _atom_site_type_symbol
 _atom_site_label
 _atom_site_symmetry_multiplicity
 _atom_site_fract_x
 _atom_site_fract_y
 _atom_site_fract_z
 _atom_site_occupancy
  Sm  Sm0  1  0.58317069  0.00000156  0.50000000  1
  Sm  Sm1  1  0.99999102  0.58319304  0.50000000  1
  Sm  Sm2  1  0.41679909  0.41680432  0.50000000  1
  Al  Al0  1  0.22889017  0.99999988  0.00000000  1
  Al  Al1  1  0.00000384  0.22892531  0.00000000  1
  Al  Al2  1  0.77107944  0.77107263  -0.00000000  1
  Cu  Cu0  1  0.99998430  0.00000073  0.50000000  1
  Cu  Cu1  1  0.33332265  0.66666158  0.00000000  1
  Cu  Cu2  1  0.66666080  0.33334096  0.00000000  1
loop_
_geom_bond_atom_site_label_1
_geom_bond_atom_site_label_2
_geom_bond_distance
_geom_bond_site_symmetry_2
Al0 Cu0 2.600553 1_465
Al0 Cu0 2.600553 1_464
Al0 Cu1 2.824087 1_555
Al0 Cu2 2.824295 1_565
Al0 Al1 2.827387 1_565
Al0 Al2 2.827558 1_455
Al0 Sm0 3.237516 1_565
Al0 Sm0 3.237516 1_564
Al0 Sm2 3.278020 1_565
Al0 Sm2 3.278020 1_564
Al0 Sm1 3.278049 1_454
Al0 Sm1 3.278049 1_455
Al1 Cu0 2.600528 1_455
Al1 Cu0 2.600528 1_454
Al1 Cu1 2.823993 1_555
Al1 Cu2 2.824148 1_455
Al1 Al2 2.827644 1_445
Al1 Sm1 3.237365 1_455
Al1 Sm1 3.237365 1_454
Al1 Sm2 3.278115 1_555
Al1 Sm2 3.278115 1_554
Al1 Sm0 3.278295 1_454
Al1 Sm0 3.278295 1_455
Al2 Cu0 2.600600 1_565
Al2 Cu0 2.600600 1_564
Al2 Cu2 2.823845 1_555
Al2 Cu1 2.824235 1_555
Al2 Sm2 3.237489 1_555
Al2 Sm2 3.237489 1_554
Al2 Sm1 3.277976 1_555
Al2 Sm1 3.277976 1_554
Al2 Sm0 3.278184 1_565
Al2 Sm0 3.278184 1_564
Cu0 Sm1 2.972339 1_545
Cu0 Sm2 2.972511 1_655
Cu0 Sm0 2.972542 1_555
Cu1 Sm2 2.947489 1_555
Cu1 Sm2 2.947489 1_554
Cu1 Sm0 2.947559 1_565
Cu1 Sm0 2.947559 1_564
Cu1 Sm1 2.947601 1_455
Cu1 Sm1 2.947601 1_454
Cu2 Sm0 2.947499 1_555
Cu2 Sm0 2.947499 1_554
Cu2 Sm2 2.947523 1_555
Cu2 Sm2 2.947523 1_554
Cu2 Sm1 2.947581 1_555
Cu2 Sm1 2.947581 1_554
