# generated using pymatgen
data_Sm5Mg
_symmetry_space_group_name_H-M   'P 1'
_cell_length_a   6.26803998
_cell_length_b   6.26820609
_cell_length_c   6.67321548
_cell_angle_alpha   118.02044744
_cell_angle_beta   61.98014502
_cell_angle_gamma   120.01536455
_symmetry_Int_Tables_number   1
_chemical_formula_structural   Sm5Mg
_chemical_formula_sum   'Sm5 Mg1'
_cell_volume   190.72597598
_cell_formula_units_Z   1
loop_
 _symmetry_equiv_pos_site_id
 _symmetry_equiv_pos_as_xyz
  1  'x, y, z'
loop_
 _atom_site_type_symbol
 _atom_site_label
 _atom_site_symmetry_multiplicity
 _atom_site_fract_x
 _atom_site_fract_y
 _atom_site_fract_z
 _atom_site_occupancy
  Sm  Sm0  1  0.70891615  0.37560137  1.00001104  1
  Sm  Sm1  1  0.95738319  0.00007290  1.00019692  1
  Sm  Sm2  1  0.33338314  0.62404314  -0.00020564  1
  Sm  Sm3  1  0.48843509  0.84501604  0.53453054  1
  Sm  Sm4  1  0.17835369  0.15508484  0.46545713  1
  Mg  Mg0  1  0.83352674  0.50018171  0.50001002  1
loop_
_geom_bond_atom_site_label_1
_geom_bond_atom_site_label_2
_geom_bond_distance
_geom_bond_site_symmetry_2
Sm0 Sm2 3.411512 1_556
Sm0 Sm1 3.411526 1_555
Sm0 Sm2 3.412396 1_656
Sm0 Sm1 3.412570 1_565
Sm0 Sm4 3.513894 1_556
Sm0 Sm3 3.513990 1_545
Sm0 Sm3 3.586958 1_556
Sm0 Sm4 3.587191 1_655
Sm1 Sm2 3.410802 1_656
Sm1 Sm2 3.410898 1_546
Sm1 Sm3 3.515895 1_645
Sm1 Sm4 3.515910 1_656
Sm1 Sm3 3.584622 1_546
Sm1 Sm4 3.586614 1_655
Sm2 Sm4 3.515818 1_565
Sm2 Sm3 3.515911 1_554
Sm2 Sm4 3.584571 1_554
Sm2 Sm3 3.586682 1_555
Sm3 Sm4 3.637349 1_565
Sm3 Sm4 3.640172 1_665
Sm3 Sm4 3.640331 1_555
Mg0 Sm1 3.425244 1_554
Mg0 Sm2 3.425270 1_556
Mg0 Sm1 3.425835 1_565
Mg0 Sm2 3.425903 1_655
Mg0 Sm0 3.426684 1_555
Mg0 Sm0 3.426811 1_554
Mg0 Sm3 3.622110 1_655
Mg0 Sm4 3.622248 1_665
Mg0 Sm3 3.623603 1_545
Mg0 Sm4 3.623613 1_555
Mg0 Sm4 3.625550 1_655
Mg0 Sm3 3.625669 1_555
