# generated using pymatgen
data_MgIn3
_symmetry_space_group_name_H-M   'P 1'
_cell_length_a   12.65544839
_cell_length_b   12.65544839
_cell_length_c   12.65544839
_cell_angle_alpha   149.02388022
_cell_angle_beta   126.64683515
_cell_angle_gamma   62.98248791
_symmetry_Int_Tables_number   1
_chemical_formula_structural   MgIn3
_chemical_formula_sum   'Mg8 In24'
_cell_volume   828.84453099
_cell_formula_units_Z   8
loop_
 _symmetry_equiv_pos_site_id
 _symmetry_equiv_pos_as_xyz
  1  'x, y, z'
loop_
 _atom_site_type_symbol
 _atom_site_label
 _atom_site_symmetry_multiplicity
 _atom_site_fract_x
 _atom_site_fract_y
 _atom_site_fract_z
 _atom_site_occupancy
  Mg  Mg0_0  1  0.08432600  0.25000000  0.33432600  1
  Mg  Mg0_1  1  0.08432600  0.25000000  0.83432600  1
  Mg  Mg0_2  1  0.08432600  0.75000000  0.33432600  1
  Mg  Mg0_3  1  0.08432600  0.75000000  0.83432600  1
  Mg  Mg0_4  1  0.58432600  0.25000000  0.33432600  1
  Mg  Mg0_5  1  0.58432600  0.25000000  0.83432600  1
  Mg  Mg0_6  1  0.58432600  0.75000000  0.33432600  1
  Mg  Mg0_7  1  0.58432600  0.75000000  0.83432600  1
  In  In0_0  1  0.37714900  0.37687800  0.00027100  1
  In  In0_1  1  0.37714900  0.37687800  0.50027100  1
  In  In0_2  1  0.37714900  0.87687800  0.00027100  1
  In  In0_3  1  0.37714900  0.87687800  0.50027100  1
  In  In0_4  1  0.87714900  0.37687800  0.00027100  1
  In  In0_5  1  0.87714900  0.37687800  0.50027100  1
  In  In0_6  1  0.87714900  0.87687800  0.00027100  1
  In  In0_7  1  0.87714900  0.87687800  0.50027100  1
  In  In1_0  1  0.12339300  0.12312200  0.00027100  1
  In  In1_1  1  0.12339300  0.12312200  0.50027100  1
  In  In1_2  1  0.12339300  0.62312200  0.00027100  1
  In  In1_3  1  0.12339300  0.62312200  0.50027100  1
  In  In1_4  1  0.62339300  0.12312200  0.00027100  1
  In  In1_5  1  0.62339300  0.12312200  0.50027100  1
  In  In1_6  1  0.62339300  0.62312200  0.00027100  1
  In  In1_7  1  0.62339300  0.62312200  0.50027100  1
  In  In2_0  1  0.33180000  0.00000000  0.33180000  1
  In  In2_1  1  0.33180000  0.00000000  0.83180000  1
  In  In2_2  1  0.33180000  0.50000000  0.33180000  1
  In  In2_3  1  0.33180000  0.50000000  0.83180000  1
  In  In2_4  1  0.83180000  0.00000000  0.33180000  1
  In  In2_5  1  0.83180000  0.00000000  0.83180000  1
  In  In2_6  1  0.83180000  0.50000000  0.33180000  1
  In  In2_7  1  0.83180000  0.50000000  0.83180000  1
loop_
_geom_bond_atom_site_label_1
_geom_bond_atom_site_label_2
_geom_bond_distance
_geom_bond_site_symmetry_2
Mg0_0 Mg0_3 3.379480 1_555
Mg0_0 Mg0_3 3.379480 1_544
Mg0_1 Mg0_2 3.379480 1_556
Mg0_1 Mg0_2 3.379480 1_545
Mg0_4 Mg0_7 3.379480 1_555
Mg0_4 Mg0_7 3.379480 1_544
Mg0_5 Mg0_6 3.379480 1_556
Mg0_5 Mg0_6 3.379480 1_545
In0_0 In2_3 3.275133 1_554
In0_0 Mg0_6 3.290756 1_555
In0_0 Mg0_5 3.290756 1_554
In0_0 In1_4 3.306396 1_555
In0_0 In1_7 3.306396 1_555
In0_0 In1_2 3.306396 1_555
In0_0 In1_1 3.306396 1_554
In0_0 Mg0_1 3.324880 1_554
In0_0 In2_2 3.348504 1_555
In0_0 In2_1 3.348504 1_554
In0_0 In0_3 3.379480 1_555
In0_0 In0_3 3.379480 1_544
In0_1 In2_2 3.275133 1_555
In0_1 Mg0_7 3.290756 1_555
In0_1 Mg0_4 3.290756 1_555
In0_1 In1_3 3.306396 1_555
In0_1 In1_6 3.306396 1_556
In0_1 In1_0 3.306396 1_555
In0_1 In1_5 3.306396 1_555
In0_1 Mg0_0 3.324880 1_555
In0_1 In2_3 3.348504 1_555
In0_1 In2_0 3.348504 1_555
In0_1 In0_2 3.379480 1_556
In0_1 In0_2 3.379480 1_545
In0_2 In2_1 3.275133 1_564
In0_2 Mg0_4 3.290756 1_565
In0_2 Mg0_7 3.290756 1_554
In0_2 In1_5 3.306396 1_565
In0_2 In1_0 3.306396 1_565
In0_2 In1_6 3.306396 1_555
In0_2 In1_3 3.306396 1_554
In0_2 Mg0_3 3.324880 1_554
In0_2 In2_0 3.348504 1_565
In0_2 In2_3 3.348504 1_554
In0_3 In2_0 3.275133 1_565
In0_3 Mg0_5 3.290756 1_565
In0_3 Mg0_6 3.290756 1_555
In0_3 In1_2 3.306396 1_555
In0_3 In1_1 3.306396 1_565
In0_3 In1_7 3.306396 1_555
In0_3 In1_4 3.306396 1_566
In0_3 Mg0_2 3.324880 1_555
In0_3 In2_1 3.348504 1_565
In0_3 In2_2 3.348504 1_555
In0_4 In2_7 3.275133 1_554
In0_4 Mg0_2 3.290756 1_655
In0_4 Mg0_1 3.290756 1_654
In0_4 In1_3 3.306396 1_655
In0_4 In1_0 3.306396 1_655
In0_4 In1_6 3.306396 1_555
In0_4 In1_5 3.306396 1_554
In0_4 Mg0_5 3.324880 1_554
In0_4 In2_6 3.348504 1_555
In0_4 In2_5 3.348504 1_554
In0_4 In0_7 3.379480 1_555
In0_4 In0_7 3.379480 1_544
In0_5 In2_6 3.275133 1_555
In0_5 Mg0_3 3.290756 1_655
In0_5 Mg0_0 3.290756 1_655
In0_5 In1_4 3.306396 1_555
In0_5 In1_7 3.306396 1_555
In0_5 In1_2 3.306396 1_656
In0_5 In1_1 3.306396 1_655
In0_5 Mg0_4 3.324880 1_555
In0_5 In2_7 3.348504 1_555
In0_5 In2_4 3.348504 1_555
In0_5 In0_6 3.379480 1_556
In0_5 In0_6 3.379480 1_545
In0_6 In2_5 3.275133 1_564
In0_6 Mg0_0 3.290756 1_665
In0_6 Mg0_3 3.290756 1_654
In0_6 In1_2 3.306396 1_655
In0_6 In1_1 3.306396 1_665
In0_6 In1_7 3.306396 1_554
In0_6 In1_4 3.306396 1_565
In0_6 Mg0_7 3.324880 1_554
In0_6 In2_4 3.348504 1_565
In0_6 In2_7 3.348504 1_554
In0_7 In2_4 3.275133 1_565
In0_7 Mg0_1 3.290756 1_665
In0_7 Mg0_2 3.290756 1_655
In0_7 In1_0 3.306396 1_666
In0_7 In1_6 3.306396 1_555
In0_7 In1_3 3.306396 1_655
In0_7 In1_5 3.306396 1_565
In0_7 Mg0_6 3.324880 1_555
In0_7 In2_5 3.348504 1_565
In0_7 In2_6 3.348504 1_555
In1_0 In2_5 3.275133 1_454
In1_0 Mg0_0 3.290756 1_555
In1_0 Mg0_3 3.290756 1_544
In1_0 Mg0_1 3.324880 1_554
In1_0 In2_2 3.348504 1_555
In1_0 In2_1 3.348504 1_554
In1_0 In1_3 3.379480 1_555
In1_0 In1_3 3.379480 1_544
In1_1 In2_4 3.275133 1_455
In1_1 Mg0_1 3.290756 1_555
In1_1 Mg0_2 3.290756 1_545
In1_1 Mg0_0 3.324880 1_555
In1_1 In2_3 3.348504 1_555
In1_1 In2_0 3.348504 1_555
In1_1 In1_2 3.379480 1_556
In1_1 In1_2 3.379480 1_545
In1_2 In2_7 3.275133 1_454
In1_2 Mg0_2 3.290756 1_555
In1_2 Mg0_1 3.290756 1_554
In1_2 Mg0_3 3.324880 1_554
In1_2 In2_0 3.348504 1_565
In1_2 In2_3 3.348504 1_554
In1_3 In2_6 3.275133 1_455
In1_3 Mg0_3 3.290756 1_555
In1_3 Mg0_0 3.290756 1_555
In1_3 Mg0_2 3.324880 1_555
In1_3 In2_1 3.348504 1_565
In1_3 In2_2 3.348504 1_555
In1_4 In2_1 3.275133 1_554
In1_4 Mg0_4 3.290756 1_555
In1_4 Mg0_7 3.290756 1_544
In1_4 Mg0_5 3.324880 1_554
In1_4 In2_6 3.348504 1_555
In1_4 In2_5 3.348504 1_554
In1_4 In1_7 3.379480 1_555
In1_4 In1_7 3.379480 1_544
In1_5 In2_0 3.275133 1_555
In1_5 Mg0_5 3.290756 1_555
In1_5 Mg0_6 3.290756 1_545
In1_5 Mg0_4 3.324880 1_555
In1_5 In2_7 3.348504 1_555
In1_5 In2_4 3.348504 1_555
In1_5 In1_6 3.379480 1_545
In1_5 In1_6 3.379480 1_556
In1_6 In2_3 3.275133 1_554
In1_6 Mg0_6 3.290756 1_555
In1_6 Mg0_5 3.290756 1_554
In1_6 Mg0_7 3.324880 1_554
In1_6 In2_4 3.348504 1_565
In1_6 In2_7 3.348504 1_554
In1_7 In2_2 3.275133 1_555
In1_7 Mg0_7 3.290756 1_555
In1_7 Mg0_4 3.290756 1_555
In1_7 Mg0_6 3.324880 1_555
In1_7 In2_5 3.348504 1_565
In1_7 In2_6 3.348504 1_555
In2_0 Mg0_0 3.280765 1_555
In2_0 Mg0_3 3.280765 1_544
In2_0 Mg0_5 3.330104 1_555
In2_0 Mg0_6 3.330104 1_545
In2_0 In2_3 3.379480 1_555
In2_0 In2_3 3.379480 1_544
In2_1 Mg0_1 3.280765 1_555
In2_1 Mg0_2 3.280765 1_545
In2_1 Mg0_4 3.330104 1_556
In2_1 Mg0_7 3.330104 1_545
In2_1 In2_2 3.379480 1_556
In2_1 In2_2 3.379480 1_545
In2_2 Mg0_2 3.280765 1_555
In2_2 Mg0_1 3.280765 1_554
In2_2 Mg0_7 3.330104 1_555
In2_2 Mg0_4 3.330104 1_555
In2_3 Mg0_0 3.280765 1_555
In2_3 Mg0_3 3.280765 1_555
In2_3 Mg0_5 3.330104 1_555
In2_3 Mg0_6 3.330104 1_556
In2_4 Mg0_4 3.280765 1_555
In2_4 Mg0_7 3.280765 1_544
In2_4 Mg0_1 3.330104 1_655
In2_4 Mg0_2 3.330104 1_645
In2_4 In2_7 3.379480 1_555
In2_4 In2_7 3.379480 1_544
In2_5 Mg0_6 3.280765 1_545
In2_5 Mg0_5 3.280765 1_555
In2_5 Mg0_0 3.330104 1_656
In2_5 Mg0_3 3.330104 1_645
In2_5 In2_6 3.379480 1_556
In2_5 In2_6 3.379480 1_545
In2_6 Mg0_6 3.280765 1_555
In2_6 Mg0_5 3.280765 1_554
In2_6 Mg0_3 3.330104 1_655
In2_6 Mg0_0 3.330104 1_655
In2_7 Mg0_4 3.280765 1_555
In2_7 Mg0_7 3.280765 1_555
In2_7 Mg0_2 3.330104 1_656
In2_7 Mg0_1 3.330104 1_655
