# generated using pymatgen
data_VInPt
_symmetry_space_group_name_H-M   'P 1'
_cell_length_a   4.38617629
_cell_length_b   4.38617629
_cell_length_c   4.38617629
_cell_angle_alpha   60.00000000
_cell_angle_beta   60.00000000
_cell_angle_gamma   60.00000000
_symmetry_Int_Tables_number   1
_chemical_formula_structural   VInPt
_chemical_formula_sum   'V1 In1 Pt1'
_cell_volume   59.66824328
_cell_formula_units_Z   1
loop_
 _symmetry_equiv_pos_site_id
 _symmetry_equiv_pos_as_xyz
  1  'x, y, z'
loop_
 _atom_site_type_symbol
 _atom_site_label
 _atom_site_symmetry_multiplicity
 _atom_site_fract_x
 _atom_site_fract_y
 _atom_site_fract_z
 _atom_site_occupancy
  V  V0  1  0.50000000  0.50000000  0.50000000  1
  In  In0  1  0.75000000  0.75000000  0.75000000  1
  Pt  Pt0  1  0.25000000  0.25000000  0.25000000  1
loop_
_geom_bond_atom_site_label_1
_geom_bond_atom_site_label_2
_geom_bond_distance
_geom_bond_site_symmetry_2
In0 V0 2.685973 1_556
In0 V0 2.685973 1_565
In0 V0 2.685973 1_655
In0 V0 2.685973 1_555
In0 Pt0 3.101495 1_556
In0 Pt0 3.101495 1_565
In0 Pt0 3.101495 1_566
In0 Pt0 3.101495 1_656
In0 Pt0 3.101495 1_655
In0 Pt0 3.101495 1_665
Pt0 V0 2.685973 1_545
Pt0 V0 2.685973 1_555
Pt0 V0 2.685973 1_455
Pt0 V0 2.685973 1_554
