# generated using pymatgen
data_Sr6In2NF
_symmetry_space_group_name_H-M   'P 1'
_cell_length_a   7.53068439
_cell_length_b   7.53068439
_cell_length_c   7.53068439
_cell_angle_alpha   60.00000000
_cell_angle_beta   60.00000000
_cell_angle_gamma   60.00000000
_symmetry_Int_Tables_number   1
_chemical_formula_structural   Sr6In2NF
_chemical_formula_sum   'Sr6 In2 N1 F1'
_cell_volume   301.98706598
_cell_formula_units_Z   1
loop_
 _symmetry_equiv_pos_site_id
 _symmetry_equiv_pos_as_xyz
  1  'x, y, z'
loop_
 _atom_site_type_symbol
 _atom_site_label
 _atom_site_symmetry_multiplicity
 _atom_site_fract_x
 _atom_site_fract_y
 _atom_site_fract_z
 _atom_site_occupancy
  Sr  Sr0  1  0.24046500  0.75953500  0.75953500  1
  Sr  Sr1  1  0.24046500  0.75953500  0.24046500  1
  Sr  Sr2  1  0.75953500  0.24046500  0.75953500  1
  Sr  Sr3  1  0.75953500  0.75953500  0.24046500  1
  Sr  Sr4  1  0.24046500  0.24046500  0.75953500  1
  Sr  Sr5  1  0.75953500  0.24046500  0.24046500  1
  In  In0  1  0.25000000  0.25000000  0.25000000  1
  In  In1  1  0.75000000  0.75000000  0.75000000  1
  N  N0  1  0.00000000  0.00000000  0.00000000  1
  F  F0  1  0.50000000  0.50000000  0.50000000  1
loop_
_geom_bond_atom_site_label_1
_geom_bond_atom_site_label_2
_geom_bond_distance
_geom_bond_site_symmetry_2
In0 Sr4 3.766711 1_555
In0 Sr1 3.766711 1_555
In0 Sr5 3.766711 1_555
In0 Sr3 3.766711 1_545
In0 Sr2 3.766711 1_455
In0 Sr2 3.766711 1_554
In0 Sr0 3.766711 1_545
In0 Sr3 3.766711 1_455
In0 Sr0 3.766711 1_554
In0 Sr5 3.766711 1_455
In0 Sr1 3.766711 1_545
In0 Sr4 3.766711 1_554
In1 Sr0 3.766711 1_655
In1 Sr2 3.766711 1_565
In1 Sr3 3.766711 1_556
In1 Sr5 3.766711 1_565
In1 Sr5 3.766711 1_556
In1 Sr1 3.766711 1_655
In1 Sr1 3.766711 1_556
In1 Sr4 3.766711 1_565
In1 Sr4 3.766711 1_655
In1 Sr3 3.766711 1_555
In1 Sr0 3.766711 1_555
In1 Sr2 3.766711 1_555
N0 Sr4 2.560951 1_554
N0 Sr5 2.560951 1_455
N0 Sr1 2.560951 1_545
N0 Sr2 2.560951 1_454
N0 Sr0 2.560951 1_544
N0 Sr3 2.560951 1_445
F0 Sr2 2.764047 1_555
F0 Sr3 2.764047 1_555
F0 Sr0 2.764047 1_555
F0 Sr1 2.764047 1_555
F0 Sr4 2.764047 1_555
F0 Sr5 2.764047 1_555
