# generated using pymatgen
data_HoNiGe2
_symmetry_space_group_name_H-M   'P 1'
_cell_length_a   8.61749573
_cell_length_b   8.61749573
_cell_length_c   4.07974983
_cell_angle_alpha   90.00000000
_cell_angle_beta   90.00000000
_cell_angle_gamma   27.24816536
_symmetry_Int_Tables_number   1
_chemical_formula_structural   HoNiGe2
_chemical_formula_sum   'Ho2 Ni2 Ge4'
_cell_volume   138.71217700
_cell_formula_units_Z   2
loop_
 _symmetry_equiv_pos_site_id
 _symmetry_equiv_pos_as_xyz
  1  'x, y, z'
loop_
 _atom_site_type_symbol
 _atom_site_label
 _atom_site_symmetry_multiplicity
 _atom_site_fract_x
 _atom_site_fract_y
 _atom_site_fract_z
 _atom_site_occupancy
  Ho  Ho0  1  0.89176734  0.89176734  0.75000000  1
  Ho  Ho1  1  0.10823166  0.10823166  0.25000000  1
  Ni  Ni0  1  0.67767873  0.67767873  0.75000000  1
  Ni  Ni1  1  0.32232027  0.32232027  0.25000000  1
  Ge  Ge0  1  0.74929668  0.74929668  0.25000000  1
  Ge  Ge1  1  0.54197494  0.54197494  0.75000000  1
  Ge  Ge2  1  0.45802506  0.45802506  0.25000000  1
  Ge  Ge3  1  0.25070232  0.25070232  0.75000000  1
loop_
_geom_bond_atom_site_label_1
_geom_bond_atom_site_label_2
_geom_bond_distance
_geom_bond_site_symmetry_2
Ho0 Ni1 3.103955 1_656
Ho0 Ni1 3.103955 1_565
Ho0 Ni1 3.103955 1_566
Ho0 Ni1 3.103955 1_655
Ho1 Ni0 3.103955 1_455
Ho1 Ni0 3.103955 1_454
Ho1 Ni0 3.103955 1_545
Ho1 Ni0 3.103955 1_544
Ge0 Ni0 2.366461 1_555
Ge0 Ni0 2.366461 1_554
Ge0 Ni1 2.369896 1_565
Ge0 Ni1 2.369896 1_655
Ge0 Ho1 3.115020 1_655
Ge0 Ho1 3.115020 1_565
Ge0 Ho0 3.139417 1_555
Ge0 Ho0 3.139417 1_554
Ge1 Ni0 2.273043 1_555
Ge1 Ge2 2.477576 1_555
Ge1 Ge2 2.477576 1_556
Ge1 Ho1 3.084326 1_565
Ge1 Ho1 3.084326 1_655
Ge1 Ho1 3.084326 1_656
Ge1 Ho1 3.084326 1_566
Ge1 Ho0 3.232721 1_455
Ge1 Ho0 3.232721 1_545
Ge2 Ni1 2.273060 1_555
Ge2 Ho0 3.084332 1_455
Ge2 Ho0 3.084332 1_544
Ge2 Ho0 3.084332 1_454
Ge2 Ho0 3.084332 1_545
Ge2 Ho1 3.232708 1_655
Ge2 Ho1 3.232708 1_565
Ge3 Ni1 2.366461 1_556
Ge3 Ni1 2.366461 1_555
Ge3 Ni0 2.369896 1_545
Ge3 Ni0 2.369896 1_455
Ge3 Ho0 3.115020 1_545
Ge3 Ho0 3.115020 1_455
Ge3 Ho1 3.139417 1_555
Ge3 Ho1 3.139417 1_556
