# generated using pymatgen
data_LaOsN3
_symmetry_space_group_name_H-M   'P 1'
_cell_length_a   4.76671900
_cell_length_b   3.83698300
_cell_length_c   7.40852622
_cell_angle_alpha   82.88486302
_cell_angle_beta   90.00000000
_cell_angle_gamma   90.00000000
_symmetry_Int_Tables_number   1
_chemical_formula_structural   LaOsN3
_chemical_formula_sum   'La2 Os2 N6'
_cell_volume   134.45715278
_cell_formula_units_Z   2
loop_
 _symmetry_equiv_pos_site_id
 _symmetry_equiv_pos_as_xyz
  1  'x, y, z'
loop_
 _atom_site_type_symbol
 _atom_site_label
 _atom_site_symmetry_multiplicity
 _atom_site_fract_x
 _atom_site_fract_y
 _atom_site_fract_z
 _atom_site_occupancy
  La  La0  1  0.25000000  0.91947400  0.28720700  1
  La  La1  1  0.75000000  0.08052600  0.71279300  1
  Os  Os0  1  0.75000000  0.48367900  0.09402900  1
  Os  Os1  1  0.25000000  0.51632100  0.90597100  1
  N  N0  1  0.25000000  0.53862500  0.63160500  1
  N  N1  1  0.75000000  0.46137500  0.36839500  1
  N  N2  1  0.75000000  0.98543100  0.09278500  1
  N  N3  1  0.25000000  0.29732700  0.53475200  1
  N  N4  1  0.75000000  0.70267300  0.46524800  1
  N  N5  1  0.25000000  0.01456900  0.90721500  1
loop_
_geom_bond_atom_site_label_1
_geom_bond_atom_site_label_2
_geom_bond_distance
_geom_bond_site_symmetry_2
La0 N3 2.474670 1_565
La0 N2 2.780080 1_455
La0 N2 2.780080 1_555
La0 N5 2.793549 1_564
La0 N4 2.800071 1_555
La0 N4 2.800071 1_455
La0 N3 2.824426 1_555
La1 N4 2.474670 1_545
La1 N5 2.780080 1_555
La1 N5 2.780080 1_655
La1 N2 2.793549 1_546
La1 N3 2.800071 1_555
La1 N3 2.800071 1_655
La1 N4 2.824426 1_555
N0 N3 1.239615 1_555
N0 Os1 2.023830 1_555
N1 N4 1.239615 1_555
N1 Os0 2.023830 1_555
N2 Os0 1.912933 1_565
N2 Os0 1.924094 1_555
N5 Os1 1.912933 1_545
N5 Os1 1.924094 1_555
