# generated using pymatgen
data_SrInO3
_symmetry_space_group_name_H-M   'P 1'
_cell_length_a   4.21442700
_cell_length_b   4.21442700
_cell_length_c   4.21442700
_cell_angle_alpha   90.00000000
_cell_angle_beta   90.00000000
_cell_angle_gamma   90.00000000
_symmetry_Int_Tables_number   1
_chemical_formula_structural   SrInO3
_chemical_formula_sum   'Sr1 In1 O3'
_cell_volume   74.85410239
_cell_formula_units_Z   1
loop_
 _symmetry_equiv_pos_site_id
 _symmetry_equiv_pos_as_xyz
  1  'x, y, z'
loop_
 _atom_site_type_symbol
 _atom_site_label
 _atom_site_symmetry_multiplicity
 _atom_site_fract_x
 _atom_site_fract_y
 _atom_site_fract_z
 _atom_site_occupancy
  Sr  Sr0  1  0.00000000  0.00000000  0.00000000  1
  In  In0  1  0.50000000  0.50000000  0.50000000  1
  O  O0  1  0.50000000  0.50000000  0.00000000  1
  O  O1  1  0.50000000  0.00000000  0.50000000  1
  O  O2  1  0.00000000  0.50000000  0.50000000  1
loop_
_geom_bond_atom_site_label_1
_geom_bond_atom_site_label_2
_geom_bond_distance
_geom_bond_site_symmetry_2
In0 O1 2.107213 1_565
In0 O2 2.107213 1_655
In0 O0 2.107213 1_556
In0 O1 2.107213 1_555
In0 O0 2.107213 1_555
In0 O2 2.107213 1_555
O0 Sr0 2.980050 1_665
O0 Sr0 2.980050 1_565
O0 Sr0 2.980050 1_655
O0 Sr0 2.980050 1_555
O1 Sr0 2.980050 1_656
O1 Sr0 2.980050 1_655
O1 Sr0 2.980050 1_555
O1 Sr0 2.980050 1_556
O2 Sr0 2.980050 1_565
O2 Sr0 2.980050 1_555
O2 Sr0 2.980050 1_556
O2 Sr0 2.980050 1_566
