# generated using pymatgen
data_Eu(Mo3S4)2
_symmetry_space_group_name_H-M   'P 1'
_cell_length_a   5.31512200
_cell_length_b   7.51671800
_cell_length_c   7.51671822
_cell_angle_alpha   60.00000099
_cell_angle_beta   90.00000000
_cell_angle_gamma   90.00000000
_symmetry_Int_Tables_number   1
_chemical_formula_structural   Eu(Mo3S4)2
_chemical_formula_sum   'Eu1 Mo6 S8'
_cell_volume   260.07607439
_cell_formula_units_Z   1
loop_
 _symmetry_equiv_pos_site_id
 _symmetry_equiv_pos_as_xyz
  1  'x, y, z'
loop_
 _atom_site_type_symbol
 _atom_site_label
 _atom_site_symmetry_multiplicity
 _atom_site_fract_x
 _atom_site_fract_y
 _atom_site_fract_z
 _atom_site_occupancy
  Eu  Eu0  1  0.00000000  0.00000000  0.00000000  1
  Mo  Mo0  1  0.58241800  0.43804400  0.22545000  1
  Mo  Mo1  1  0.41758200  0.56195600  0.77455000  1
  Mo  Mo2  1  0.77455000  0.58241800  0.56195600  1
  Mo  Mo3  1  0.22545000  0.41758200  0.43804400  1
  Mo  Mo4  1  0.43804400  0.77455000  0.41758200  1
  Mo  Mo5  1  0.56195600  0.22545000  0.58241800  1
  S  S0  1  0.87447200  0.25438400  0.37834400  1
  S  S1  1  0.12552800  0.74561600  0.62165600  1
  S  S2  1  0.25438400  0.62165600  0.12552800  1
  S  S3  1  0.74561600  0.37834400  0.87447200  1
  S  S4  1  0.75694700  0.75694700  0.24305300  1
  S  S5  1  0.24305300  0.24305300  0.75694700  1
  S  S6  1  0.62165600  0.87447200  0.74561600  1
  S  S7  1  0.37834400  0.12552800  0.25438400  1
loop_
_geom_bond_atom_site_label_1
_geom_bond_atom_site_label_2
_geom_bond_distance
_geom_bond_site_symmetry_2
Eu0 S5 2.237561 1_554
Eu0 S4 2.237561 1_445
Eu0 S3 2.850059 1_454
Eu0 S2 2.850059 1_545
Eu0 S7 3.224075 1_555
Eu0 S6 3.224075 1_444
Mo0 S0 2.012387 1_555
Mo0 S2 2.114778 1_555
Mo0 S7 2.496232 1_555
Mo0 S4 2.634637 1_555
Mo1 S1 2.012387 1_555
Mo1 S3 2.114778 1_555
Mo1 S6 2.496232 1_555
Mo1 S5 2.634637 1_555
Mo2 S3 2.071598 1_555
Mo2 S4 2.081148 1_555
Mo2 S1 2.395150 1_655
Mo3 S2 2.071598 1_555
Mo3 S5 2.081148 1_555
Mo3 S0 2.395150 1_455
Mo4 S4 2.187507 1_555
Mo4 S1 2.196783 1_555
Mo4 S7 2.308529 1_565
Mo5 S5 2.187507 1_555
Mo5 S0 2.196783 1_555
Mo5 S6 2.308529 1_545
