# generated using pymatgen
data_YHoAl2
_symmetry_space_group_name_H-M   'P 1'
_cell_length_a   5.07206062
_cell_length_b   5.07206062
_cell_length_c   5.07206062
_cell_angle_alpha   60.00000000
_cell_angle_beta   60.00000000
_cell_angle_gamma   60.00000000
_symmetry_Int_Tables_number   1
_chemical_formula_structural   YHoAl2
_chemical_formula_sum   'Y1 Ho1 Al2'
_cell_volume   92.26528105
_cell_formula_units_Z   1
loop_
 _symmetry_equiv_pos_site_id
 _symmetry_equiv_pos_as_xyz
  1  'x, y, z'
loop_
 _atom_site_type_symbol
 _atom_site_label
 _atom_site_symmetry_multiplicity
 _atom_site_fract_x
 _atom_site_fract_y
 _atom_site_fract_z
 _atom_site_occupancy
  Y  Y0  1  0.75000000  0.75000000  0.75000000  1
  Ho  Ho0  1  0.25000000  0.25000000  0.25000000  1
  Al  Al0  1  0.49999900  0.49999900  0.49999900  1
  Al  Al1  1  -0.00000000  0.00000000  0.00000000  1
loop_
_geom_bond_atom_site_label_1
_geom_bond_atom_site_label_2
_geom_bond_distance
_geom_bond_site_symmetry_2
Al0 Ho0 3.105978 1_555
Al0 Y0 3.105986 1_545
Al0 Y0 3.105986 1_554
Al0 Y0 3.105986 1_455
Al0 Ho0 3.105994 1_565
Al0 Ho0 3.105994 1_655
Al0 Ho0 3.105994 1_556
Al0 Y0 3.106003 1_555
Al1 Ho0 3.105990 1_555
Al1 Ho0 3.105990 1_455
Al1 Ho0 3.105990 1_545
Al1 Y0 3.105990 1_454
Al1 Y0 3.105990 1_444
Al1 Y0 3.105990 1_544
Al1 Ho0 3.105990 1_554
Al1 Y0 3.105990 1_445
