# generated using pymatgen
data_Ti3Al
_symmetry_space_group_name_H-M   'P 1'
_cell_length_a   4.57042852
_cell_length_b   4.57042852
_cell_length_c   4.57042852
_cell_angle_alpha   60.00000000
_cell_angle_beta   60.00000000
_cell_angle_gamma   60.00000000
_symmetry_Int_Tables_number   1
_chemical_formula_structural   Ti3Al
_chemical_formula_sum   'Ti3 Al1'
_cell_volume   67.50808145
_cell_formula_units_Z   1
loop_
 _symmetry_equiv_pos_site_id
 _symmetry_equiv_pos_as_xyz
  1  'x, y, z'
loop_
 _atom_site_type_symbol
 _atom_site_label
 _atom_site_symmetry_multiplicity
 _atom_site_fract_x
 _atom_site_fract_y
 _atom_site_fract_z
 _atom_site_occupancy
  Ti  Ti0  1  0.75000000  0.75000000  0.75000000  1
  Ti  Ti1  1  0.25000000  0.25000000  0.25000000  1
  Ti  Ti2  1  0.00000000  0.00000000  0.00000000  1
  Al  Al0  1  0.50000000  0.50000000  0.50000000  1
loop_
_geom_bond_atom_site_label_1
_geom_bond_atom_site_label_2
_geom_bond_distance
_geom_bond_site_symmetry_2
Ti0 Ti2 2.798804 1_656
Ti0 Ti2 2.798804 1_665
Ti0 Ti2 2.798804 1_666
Ti0 Ti2 2.798804 1_566
Ti1 Ti2 2.798804 1_565
Ti1 Ti2 2.798804 1_655
Ti1 Ti2 2.798804 1_555
Ti1 Ti2 2.798804 1_556
Al0 Ti0 2.798804 1_555
Al0 Ti0 2.798804 1_554
Al0 Ti0 2.798804 1_545
Al0 Ti1 2.798804 1_555
Al0 Ti1 2.798804 1_556
Al0 Ti0 2.798804 1_455
Al0 Ti1 2.798804 1_565
Al0 Ti1 2.798804 1_655
Al0 Ti2 3.231781 1_566
Al0 Ti2 3.231781 1_565
Al0 Ti2 3.231781 1_655
Al0 Ti2 3.231781 1_665
Al0 Ti2 3.231781 1_656
Al0 Ti2 3.231781 1_556
