# generated using pymatgen
data_ScOF
_symmetry_space_group_name_H-M   'P 1'
_cell_length_a   3.62752000
_cell_length_b   3.62752000
_cell_length_c   5.17219600
_cell_angle_alpha   90.00000000
_cell_angle_beta   90.00000000
_cell_angle_gamma   90.00000000
_symmetry_Int_Tables_number   1
_chemical_formula_structural   ScOF
_chemical_formula_sum   'Sc2 O2 F2'
_cell_volume   68.06041693
_cell_formula_units_Z   2
loop_
 _symmetry_equiv_pos_site_id
 _symmetry_equiv_pos_as_xyz
  1  'x, y, z'
loop_
 _atom_site_type_symbol
 _atom_site_label
 _atom_site_symmetry_multiplicity
 _atom_site_fract_x
 _atom_site_fract_y
 _atom_site_fract_z
 _atom_site_occupancy
  Sc  Sc0  1  0.50000000  0.00000000  0.70585400  1
  Sc  Sc1  1  0.00000000  0.50000000  0.29414600  1
  O  O0  1  0.00000000  0.00000000  0.50000000  1
  O  O1  1  0.50000000  0.50000000  0.50000000  1
  F  F0  1  0.50000000  0.50000000  0.00000000  1
  F  F1  1  0.00000000  0.00000000  0.00000000  1
loop_
_geom_bond_atom_site_label_1
_geom_bond_atom_site_label_2
_geom_bond_distance
_geom_bond_site_symmetry_2
O0 Sc0 2.103176 1_455
O0 Sc0 2.103176 1_555
O0 Sc1 2.103176 1_555
O0 Sc1 2.103176 1_545
O1 Sc0 2.103176 1_555
O1 Sc0 2.103176 1_565
O1 Sc1 2.103176 1_655
O1 Sc1 2.103176 1_555
F0 Sc1 2.367346 1_655
F0 Sc1 2.367346 1_555
F0 Sc0 2.367346 1_564
F0 Sc0 2.367346 1_554
F1 Sc1 2.367346 1_555
F1 Sc1 2.367346 1_545
F1 Sc0 2.367346 1_454
F1 Sc0 2.367346 1_554
