# generated using pymatgen
data_Ba2PrRuO6
_symmetry_space_group_name_H-M   'P 1'
_cell_length_a   6.07038600
_cell_length_b   6.07343900
_cell_length_c   10.57444383
_cell_angle_alpha   55.01964159
_cell_angle_beta   90.00000000
_cell_angle_gamma   90.00000000
_symmetry_Int_Tables_number   1
_chemical_formula_structural   Ba2PrRuO6
_chemical_formula_sum   'Ba4 Pr2 Ru2 O12'
_cell_volume   319.43113511
_cell_formula_units_Z   2
loop_
 _symmetry_equiv_pos_site_id
 _symmetry_equiv_pos_as_xyz
  1  'x, y, z'
loop_
 _atom_site_type_symbol
 _atom_site_label
 _atom_site_symmetry_multiplicity
 _atom_site_fract_x
 _atom_site_fract_y
 _atom_site_fract_z
 _atom_site_occupancy
  Ba  Ba0  1  0.49568100  0.25073300  0.74988700  1
  Ba  Ba1  1  0.99568100  0.74926700  0.75011300  1
  Ba  Ba2  1  0.50431900  0.74926700  0.25011300  1
  Ba  Ba3  1  0.00431900  0.25073300  0.24988700  1
  Pr  Pr0  1  0.50000000  0.00000000  0.50000000  1
  Pr  Pr1  1  0.00000000  0.00000000  0.00000000  1
  Ru  Ru0  1  0.50000000  0.50000000  0.00000000  1
  Ru  Ru1  1  0.00000000  0.50000000  0.50000000  1
  O  O0  1  0.26159800  0.70258100  0.49390500  1
  O  O1  1  0.76159800  0.29741900  0.00609500  1
  O  O2  1  0.73840200  0.29741900  0.50609500  1
  O  O3  1  0.23840200  0.70258100  0.99390500  1
  O  O4  1  0.80332700  0.76803000  0.49330300  1
  O  O5  1  0.30332700  0.23197000  0.00669700  1
  O  O6  1  0.19667300  0.23197000  0.50669700  1
  O  O7  1  0.69667300  0.76803000  0.99330300  1
  O  O8  1  0.00128700  0.28351600  0.72987200  1
  O  O9  1  0.50128700  0.71648400  0.77012800  1
  O  O10  1  0.99871300  0.71648400  0.27012800  1
  O  O11  1  0.49871300  0.28351600  0.22987200  1
loop_
_geom_bond_atom_site_label_1
_geom_bond_atom_site_label_2
_geom_bond_distance
_geom_bond_site_symmetry_2
Ba0 O7 2.838391 1_545
Ba0 O2 2.838858 1_555
Ba0 O0 2.891368 1_555
Ba0 O5 2.897621 1_556
Ba0 O9 2.956818 1_555
Ba0 O8 3.007174 1_555
Ba0 O8 3.075102 1_655
Ba0 O9 3.127129 1_545
Ba0 O6 3.202605 1_555
Ba0 O3 3.214193 1_545
Ba0 O1 3.302572 1_556
Ba0 O4 3.308486 1_555
Ba1 O6 2.838391 1_665
Ba1 O3 2.838858 1_655
Ba1 O1 2.891368 1_556
Ba1 O4 2.897621 1_555
Ba1 O8 2.956818 1_655
Ba1 O9 3.007174 1_555
Ba1 O9 3.075102 1_655
Ba1 O8 3.127129 1_665
Ba1 O7 3.202605 1_555
Ba1 O2 3.214193 1_565
Ba1 O0 3.302572 1_655
Ba1 O5 3.308486 1_656
Ba2 O5 2.838391 1_565
Ba2 O0 2.838858 1_555
Ba2 O2 2.891368 1_555
Ba2 O7 2.897621 1_554
Ba2 O11 2.956818 1_555
Ba2 O10 3.007174 1_555
Ba2 O10 3.075102 1_455
Ba2 O11 3.127129 1_565
Ba2 O4 3.202605 1_555
Ba2 O1 3.214193 1_565
Ba2 O3 3.302572 1_554
Ba2 O6 3.308486 1_555
Ba3 O4 2.838391 1_445
Ba3 O1 2.838858 1_455
Ba3 O3 2.891368 1_554
Ba3 O6 2.897621 1_555
Ba3 O10 2.956818 1_455
Ba3 O11 3.007174 1_555
Ba3 O11 3.075102 1_455
Ba3 O10 3.127129 1_445
Ba3 O5 3.202605 1_555
Ba3 O0 3.214193 1_545
Ba3 O2 3.302572 1_455
Ba3 O7 3.308486 1_454
O0 Ru1 1.987152 1_555
O0 Pr0 2.344127 1_565
O1 Ru0 1.987152 1_555
O1 Pr1 2.344127 1_655
O2 Ru1 1.987152 1_655
O2 Pr0 2.344127 1_555
O3 Ru0 1.987152 1_556
O3 Pr1 2.344127 1_566
O4 Ru1 1.986990 1_655
O4 Pr0 2.344081 1_565
O5 Ru0 1.986990 1_555
O5 Pr1 2.344081 1_555
O6 Ru1 1.986990 1_555
O6 Pr0 2.344081 1_555
O7 Ru0 1.986990 1_556
O7 Pr1 2.344081 1_666
O8 Ru1 1.993218 1_555
O8 Pr1 2.341963 1_556
O9 Ru0 1.993218 1_556
O9 Pr0 2.341963 1_565
O10 Ru1 1.993218 1_655
O10 Pr1 2.341963 1_665
O11 Ru0 1.993218 1_555
O11 Pr0 2.341963 1_555
