# generated using pymatgen
data_Tb3Yb
_symmetry_space_group_name_H-M   'P 1'
_cell_length_a   6.13773406
_cell_length_b   6.13773406
_cell_length_c   6.13773406
_cell_angle_alpha   131.83781218
_cell_angle_beta   131.83781218
_cell_angle_gamma   70.48530583
_symmetry_Int_Tables_number   1
_chemical_formula_structural   Tb3Yb
_chemical_formula_sum   'Tb3 Yb1'
_cell_volume   125.75856264
_cell_formula_units_Z   1
loop_
 _symmetry_equiv_pos_site_id
 _symmetry_equiv_pos_as_xyz
  1  'x, y, z'
loop_
 _atom_site_type_symbol
 _atom_site_label
 _atom_site_symmetry_multiplicity
 _atom_site_fract_x
 _atom_site_fract_y
 _atom_site_fract_z
 _atom_site_occupancy
  Tb  Tb0  1  0.75000000  0.25000000  0.50000000  1
  Tb  Tb1  1  0.25000000  0.75000000  0.50000000  1
  Tb  Tb2  1  0.50000000  0.50000000  0.00000000  1
  Yb  Yb0  1  0.00000000  0.00000000  0.00000000  1
loop_
_geom_bond_atom_site_label_1
_geom_bond_atom_site_label_2
_geom_bond_distance
_geom_bond_site_symmetry_2
Tb0 Tb1 3.541721 1_555
Tb0 Tb1 3.541721 1_656
Tb0 Tb1 3.541721 1_544
Tb0 Tb1 3.541721 1_645
Tb0 Yb0 3.543147 1_555
Tb0 Yb0 3.543147 1_656
Tb0 Yb0 3.543147 1_655
Tb0 Tb2 3.543147 1_555
Tb0 Tb2 3.543147 1_556
Tb0 Tb2 3.543147 1_656
Tb0 Yb0 3.543147 1_666
Tb0 Tb2 3.543147 1_545
Tb1 Tb2 3.543147 1_566
Tb1 Yb0 3.543147 1_565
Tb1 Tb2 3.543147 1_455
Tb1 Yb0 3.543147 1_555
Tb1 Tb2 3.543147 1_555
Tb1 Yb0 3.543147 1_566
Tb1 Tb2 3.543147 1_556
Tb1 Yb0 3.543147 1_666
Tb2 Yb0 3.541721 1_565
Tb2 Yb0 3.541721 1_655
Tb2 Yb0 3.541721 1_666
Tb2 Yb0 3.541721 1_554
