# generated using pymatgen
data_RbTcO4
_symmetry_space_group_name_H-M   'P 1'
_cell_length_a   7.78830037
_cell_length_b   5.79146926
_cell_length_c   5.79146926
_cell_angle_alpha   90.00000000
_cell_angle_beta   111.82702784
_cell_angle_gamma   111.82702784
_symmetry_Int_Tables_number   1
_chemical_formula_structural   RbTcO4
_chemical_formula_sum   'Rb2 Tc2 O8'
_cell_volume   222.20086716
_cell_formula_units_Z   2
loop_
 _symmetry_equiv_pos_site_id
 _symmetry_equiv_pos_as_xyz
  1  'x, y, z'
loop_
 _atom_site_type_symbol
 _atom_site_label
 _atom_site_symmetry_multiplicity
 _atom_site_fract_x
 _atom_site_fract_y
 _atom_site_fract_z
 _atom_site_occupancy
  Rb  Rb0  1  0.25000100  0.62500000  0.37500000  1
  Rb  Rb1  1  0.75000000  0.37500000  0.62500000  1
  Tc  Tc0  1  0.75000000  0.87500000  0.12500000  1
  Tc  Tc1  1  0.25000100  0.12500000  0.87500100  1
  O  O0  1  0.89769392  0.73203308  0.09068496  1
  O  O1  1  0.39769292  0.09068396  0.16565984  1
  O  O2  1  0.60230708  0.69299204  0.26796692  1
  O  O3  1  0.89769392  0.16566084  0.30700796  1
  O  O4  1  0.10230708  0.83434016  0.69299204  1
  O  O5  1  0.39769292  0.30700796  0.73203308  1
  O  O6  1  0.60230708  0.90931604  0.83434016  1
  O  O7  1  0.10230708  0.26796692  0.90931604  1
loop_
_geom_bond_atom_site_label_1
_geom_bond_atom_site_label_2
_geom_bond_distance
_geom_bond_site_symmetry_2
O0 Tc0 1.710683 1_555
O0 Rb0 2.920529 1_655
O0 Rb1 2.965964 1_554
O1 Tc1 1.710672 1_554
O1 Rb1 2.920530 1_555
O1 Rb0 2.965960 1_545
O2 Tc0 1.710676 1_555
O2 Rb0 2.920521 1_555
O2 Rb1 2.965966 1_555
O3 Tc0 1.710681 1_545
O3 Rb0 2.920525 1_655
O3 Rb1 2.965968 1_555
O4 Tc1 1.710679 1_565
O4 Rb1 2.920528 1_455
O4 Rb0 2.965972 1_555
O5 Tc1 1.710676 1_555
O5 Rb1 2.920529 1_555
O5 Rb0 2.965963 1_555
O6 Tc0 1.710679 1_556
O6 Rb0 2.920527 1_555
O6 Rb1 2.965961 1_565
O7 Tc1 1.710683 1_555
O7 Rb1 2.920530 1_455
O7 Rb0 2.965959 1_556
