# generated using pymatgen
data_NdSc3
_symmetry_space_group_name_H-M   'P 1'
_cell_length_a   6.87741327
_cell_length_b   6.87679613
_cell_length_c   5.37739480
_cell_angle_alpha   90.00000000
_cell_angle_beta   90.00000000
_cell_angle_gamma   119.99619782
_symmetry_Int_Tables_number   1
_chemical_formula_structural   NdSc3
_chemical_formula_sum   'Nd2 Sc6'
_cell_volume   220.25737761
_cell_formula_units_Z   2
loop_
 _symmetry_equiv_pos_site_id
 _symmetry_equiv_pos_as_xyz
  1  'x, y, z'
loop_
 _atom_site_type_symbol
 _atom_site_label
 _atom_site_symmetry_multiplicity
 _atom_site_fract_x
 _atom_site_fract_y
 _atom_site_fract_z
 _atom_site_occupancy
  Nd  Nd0  1  0.66666711  0.33332986  0.25000000  1
  Nd  Nd1  1  0.33333218  0.66666747  0.74999900  1
  Sc  Sc0  1  0.83786178  0.16219027  0.74999900  1
  Sc  Sc1  1  0.32443104  0.16220282  0.74999900  1
  Sc  Sc2  1  0.83786786  0.67567193  0.74999900  1
  Sc  Sc3  1  0.16217905  0.83775437  0.25000000  1
  Sc  Sc4  1  0.67545918  0.83772615  0.25000000  1
  Sc  Sc5  1  0.16220380  0.32446212  0.25000000  1
loop_
_geom_bond_atom_site_label_1
_geom_bond_atom_site_label_2
_geom_bond_distance
_geom_bond_site_symmetry_2
Nd0 Sc1 3.374064 1_555
Nd0 Sc1 3.374072 1_554
Nd0 Sc0 3.374291 1_555
Nd0 Sc0 3.374300 1_554
Nd0 Sc2 3.374335 1_555
Nd0 Sc2 3.374343 1_554
Nd0 Sc4 3.438794 1_545
Nd0 Sc4 3.438799 1_555
Nd0 Sc5 3.438903 1_655
Nd0 Sc3 3.438936 1_655
Nd0 Sc5 3.439321 1_555
Nd0 Sc3 3.439384 1_545
Nd1 Sc4 3.373671 1_555
Nd1 Sc4 3.373680 1_556
Nd1 Sc5 3.373843 1_555
Nd1 Sc5 3.373851 1_556
Nd1 Sc3 3.373952 1_555
Nd1 Sc3 3.373961 1_556
Nd1 Sc1 3.438709 1_565
Nd1 Sc2 3.438888 1_455
Nd1 Sc1 3.438904 1_555
Nd1 Sc0 3.438983 1_455
Nd1 Sc0 3.439354 1_565
Nd1 Sc2 3.439361 1_555
Sc0 Sc5 3.310762 1_655
Sc0 Sc5 3.310771 1_656
Sc0 Sc4 3.311086 1_545
Sc0 Sc4 3.311095 1_546
Sc0 Sc2 3.345708 1_545
Sc0 Sc1 3.346295 1_655
Sc0 Sc2 3.531088 1_555
Sc0 Sc1 3.531119 1_555
Sc1 Sc3 3.311031 1_545
Sc1 Sc3 3.311040 1_546
Sc1 Sc5 3.311149 1_555
Sc1 Sc5 3.311158 1_556
Sc1 Sc2 3.346227 1_445
Sc1 Sc2 3.531273 1_555
Sc2 Sc3 3.310655 1_655
Sc2 Sc3 3.310664 1_656
Sc2 Sc4 3.311067 1_555
Sc2 Sc4 3.311076 1_556
Sc3 Sc5 3.346905 1_565
Sc3 Sc4 3.347277 1_455
Sc3 Sc5 3.529891 1_555
Sc3 Sc4 3.530137 1_555
Sc4 Sc5 3.347556 1_665
Sc4 Sc5 3.529944 1_555
