# generated using pymatgen
data_TlHgF3
_symmetry_space_group_name_H-M   'P 1'
_cell_length_a   6.20059644
_cell_length_b   8.82826901
_cell_length_c   13.07913115
_cell_angle_alpha   90.00000000
_cell_angle_beta   90.00000000
_cell_angle_gamma   90.00000000
_symmetry_Int_Tables_number   1
_chemical_formula_structural   TlHgF3
_chemical_formula_sum   'Tl8 Hg8 F24'
_cell_volume   715.95861549
_cell_formula_units_Z   8
loop_
 _symmetry_equiv_pos_site_id
 _symmetry_equiv_pos_as_xyz
  1  'x, y, z'
loop_
 _atom_site_type_symbol
 _atom_site_label
 _atom_site_symmetry_multiplicity
 _atom_site_fract_x
 _atom_site_fract_y
 _atom_site_fract_z
 _atom_site_occupancy
  Tl  Tl0  1  0.26001290  0.00000000  0.88145539  1
  Tl  Tl1  1  0.76001290  0.00000000  0.61854461  1
  Tl  Tl2  1  0.73998710  0.00000000  0.11854461  1
  Tl  Tl3  1  0.23998710  0.00000000  0.38145539  1
  Tl  Tl4  1  0.25040072  0.50000000  0.87325395  1
  Tl  Tl5  1  0.75040072  0.50000000  0.62674605  1
  Tl  Tl6  1  0.74959928  0.50000000  0.12674605  1
  Tl  Tl7  1  0.24959928  0.50000000  0.37325395  1
  Hg  Hg0  1  0.74943804  0.25010384  0.87439559  1
  Hg  Hg1  1  0.24943804  0.74989616  0.62560441  1
  Hg  Hg2  1  0.25056196  0.25010384  0.12560441  1
  Hg  Hg3  1  0.75056196  0.74989616  0.37439559  1
  Hg  Hg4  1  0.25056196  0.74989616  0.12560441  1
  Hg  Hg5  1  0.75056196  0.25010384  0.37439559  1
  Hg  Hg6  1  0.74943804  0.74989616  0.87439559  1
  Hg  Hg7  1  0.24943804  0.25010384  0.62560441  1
  F  F0  1  0.71123559  0.00000000  0.82979066  1
  F  F1  1  0.21123559  0.00000000  0.67020934  1
  F  F2  1  0.28876441  0.00000000  0.17020934  1
  F  F3  1  0.78876441  0.00000000  0.32979066  1
  F  F4  1  0.69262225  0.50000000  0.91716091  1
  F  F5  1  0.19262225  0.50000000  0.58283909  1
  F  F6  1  0.30737775  0.50000000  0.08283909  1
  F  F7  1  0.80737775  0.50000000  0.41716091  1
  F  F8  1  0.96304222  0.30296701  0.73744144  1
  F  F9  1  0.46304222  0.69703299  0.76255856  1
  F  F10  1  0.03695778  0.30296701  0.26255856  1
  F  F11  1  0.53695778  0.69703299  0.23744144  1
  F  F12  1  0.03695778  0.69703299  0.26255856  1
  F  F13  1  0.53695778  0.30296701  0.23744144  1
  F  F14  1  0.96304222  0.69703299  0.73744144  1
  F  F15  1  0.46304222  0.30296701  0.76255856  1
  F  F16  1  0.00000000  0.18769132  0.50000000  1
  F  F17  1  0.50000000  0.81230868  0.00000000  1
  F  F18  1  -0.00000000  0.81230868  0.50000000  1
  F  F19  1  0.50000000  0.18769132  0.00000000  1
  F  F20  1  -0.00000000  0.20115790  0.00000000  1
  F  F21  1  0.50000000  0.79884210  0.50000000  1
  F  F22  1  -0.00000000  0.79884210  -0.00000000  1
  F  F23  1  0.50000000  0.20115790  0.50000000  1
loop_
_geom_bond_atom_site_label_1
_geom_bond_atom_site_label_2
_geom_bond_distance
_geom_bond_site_symmetry_2
F0 Hg6 2.296008 1_545
F0 Hg0 2.296008 1_555
F0 Tl1 2.779420 1_555
F1 Hg1 2.296008 1_545
F1 Hg7 2.296008 1_555
F1 Tl0 2.779420 1_555
F2 Hg4 2.296008 1_545
F2 Hg2 2.296008 1_555
F2 Tl3 2.779420 1_555
F3 Hg3 2.296008 1_545
F3 Hg5 2.296008 1_555
F3 Tl2 2.779420 1_555
F4 Hg0 2.303055 1_555
F4 Hg6 2.303055 1_555
F5 Hg7 2.303055 1_555
F5 Hg1 2.303055 1_555
F6 Hg2 2.303055 1_555
F6 Hg4 2.303055 1_555
F7 Hg5 2.303055 1_555
F7 Hg3 2.303055 1_555
F8 Hg0 2.276088 1_555
F8 Hg7 2.347538 1_655
F8 Tl5 2.619217 1_555
F9 Hg1 2.276088 1_555
F9 Hg6 2.347538 1_555
F9 Tl4 2.619217 1_555
F10 Hg2 2.276088 1_555
F10 Hg5 2.347538 1_455
F10 Tl7 2.619217 1_555
F11 Hg3 2.276088 1_555
F11 Hg4 2.347538 1_555
F11 Tl6 2.619217 1_555
F12 Hg4 2.276088 1_555
F12 Hg3 2.347538 1_455
F12 Tl7 2.619217 1_555
F13 Hg5 2.276088 1_555
F13 Hg2 2.347538 1_555
F13 Tl6 2.619217 1_555
F14 Hg6 2.276088 1_555
F14 Hg1 2.347538 1_655
F14 Tl5 2.619217 1_555
F15 Hg7 2.276088 1_555
F15 Hg0 2.347538 1_555
F15 Tl4 2.619217 1_555
F16 Hg7 2.322616 1_555
F16 Hg5 2.322616 1_455
F16 Tl3 2.713646 1_555
F16 Tl1 2.713646 1_455
F17 Hg4 2.322616 1_555
F17 Hg6 2.322616 1_554
F17 Tl2 2.713646 1_565
F17 Tl0 2.713646 1_564
F18 Hg1 2.322616 1_555
F18 Hg3 2.322616 1_455
F18 Tl3 2.713646 1_565
F18 Tl1 2.713646 1_465
F19 Hg2 2.322616 1_555
F19 Hg0 2.322616 1_554
F19 Tl2 2.713646 1_555
F19 Tl0 2.713646 1_554
F20 Hg2 2.302015 1_555
F20 Hg0 2.302015 1_454
F21 Hg1 2.302015 1_555
F21 Hg3 2.302015 1_555
F22 Hg4 2.302015 1_555
F22 Hg6 2.302015 1_454
F23 Hg5 2.302015 1_555
F23 Hg7 2.302015 1_555
