# generated using pymatgen
data_RbSmS2
_symmetry_space_group_name_H-M   'P 1'
_cell_length_a   8.03724235
_cell_length_b   8.03724235
_cell_length_c   8.03724147
_cell_angle_alpha   29.98844570
_cell_angle_beta   29.98844570
_cell_angle_gamma   29.98844164
_symmetry_Int_Tables_number   1
_chemical_formula_structural   RbSmS2
_chemical_formula_sum   'Rb1 Sm1 S2'
_cell_volume   114.88863139
_cell_formula_units_Z   1
loop_
 _symmetry_equiv_pos_site_id
 _symmetry_equiv_pos_as_xyz
  1  'x, y, z'
loop_
 _atom_site_type_symbol
 _atom_site_label
 _atom_site_symmetry_multiplicity
 _atom_site_fract_x
 _atom_site_fract_y
 _atom_site_fract_z
 _atom_site_occupancy
  Rb  Rb0  1  -0.00000000  0.00000000  -0.00000000  1
  Sm  Sm0  1  0.50000000  0.50000000  0.50000000  1
  S  S0  1  0.76801729  0.76801729  0.76801729  1
  S  S1  1  0.23198271  0.23198271  0.23198271  1
loop_
_geom_bond_atom_site_label_1
_geom_bond_atom_site_label_2
_geom_bond_distance
_geom_bond_site_symmetry_2
Rb0 S0 3.347256 1_445
Rb0 S1 3.347256 1_554
Rb0 S0 3.347257 1_544
Rb0 S0 3.347257 1_454
Rb0 S1 3.347257 1_545
Rb0 S1 3.347257 1_455
S0 Sm0 2.832692 1_556
S0 Sm0 2.832693 1_565
S0 Sm0 2.832693 1_655
S1 Sm0 2.832692 1_554
S1 Sm0 2.832693 1_545
S1 Sm0 2.832693 1_455
