# generated using pymatgen
data_Ni3Au
_symmetry_space_group_name_H-M   'P 1'
_cell_length_a   4.55435169
_cell_length_b   4.55435169
_cell_length_c   4.55435169
_cell_angle_alpha   132.42802603
_cell_angle_beta   132.42802603
_cell_angle_gamma   69.55384062
_symmetry_Int_Tables_number   1
_chemical_formula_structural   Ni3Au
_chemical_formula_sum   'Ni3 Au1'
_cell_volume   50.48775577
_cell_formula_units_Z   1
loop_
 _symmetry_equiv_pos_site_id
 _symmetry_equiv_pos_as_xyz
  1  'x, y, z'
loop_
 _atom_site_type_symbol
 _atom_site_label
 _atom_site_symmetry_multiplicity
 _atom_site_fract_x
 _atom_site_fract_y
 _atom_site_fract_z
 _atom_site_occupancy
  Ni  Ni0  1  0.75000000  0.25000000  0.50000000  1
  Ni  Ni1  1  0.25000000  0.75000000  0.50000000  1
  Ni  Ni2  1  0.50000000  0.50000000  0.00000000  1
  Au  Au0  1  0.00000000  0.00000000  0.00000000  1
loop_
_geom_bond_atom_site_label_1
_geom_bond_atom_site_label_2
_geom_bond_distance
_geom_bond_site_symmetry_2
Ni0 Ni1 2.597724 1_645
Ni0 Ni1 2.597724 1_656
Ni0 Ni1 2.597724 1_544
Ni0 Ni1 2.597724 1_555
Ni0 Ni2 2.621559 1_555
Ni0 Ni2 2.621559 1_656
Ni0 Ni2 2.621559 1_545
Ni0 Ni2 2.621559 1_556
Ni1 Ni2 2.621559 1_455
Ni1 Ni2 2.621559 1_555
Ni1 Ni2 2.621559 1_566
Ni1 Ni2 2.621559 1_556
Au0 Ni2 2.597724 1_556
Au0 Ni2 2.597724 1_455
Au0 Ni2 2.597724 1_444
Au0 Ni2 2.597724 1_545
Au0 Ni0 2.621559 1_444
Au0 Ni1 2.621559 1_444
Au0 Ni0 2.621559 1_454
Au0 Ni1 2.621559 1_555
Au0 Ni1 2.621559 1_545
Au0 Ni1 2.621559 1_544
Au0 Ni0 2.621559 1_455
Au0 Ni0 2.621559 1_555
