# generated using pymatgen
data_K3SbS4
_symmetry_space_group_name_H-M   'P 1'
_cell_length_a   7.73264606
_cell_length_b   7.82517503
_cell_length_c   7.82517451
_cell_angle_alpha   93.77463461
_cell_angle_beta   90.00000000
_cell_angle_gamma   90.00000000
_symmetry_Int_Tables_number   1
_chemical_formula_structural   K3SbS4
_chemical_formula_sum   'K6 Sb2 S8'
_cell_volume   472.46875155
_cell_formula_units_Z   2
loop_
 _symmetry_equiv_pos_site_id
 _symmetry_equiv_pos_as_xyz
  1  'x, y, z'
loop_
 _atom_site_type_symbol
 _atom_site_label
 _atom_site_symmetry_multiplicity
 _atom_site_fract_x
 _atom_site_fract_y
 _atom_site_fract_z
 _atom_site_occupancy
  K  K0  1  0.01989948  0.30268227  0.69731773  1
  K  K1  1  0.51989948  0.69731773  0.30268227  1
  K  K2  1  0.51309234  0.18544714  0.25547730  1
  K  K3  1  0.01309234  0.81455286  0.74452270  1
  K  K4  1  0.51309234  0.74452270  0.81455286  1
  K  K5  1  0.01309234  0.25547730  0.18544714  1
  Sb  Sb0  1  0.51846435  0.24277593  0.75722407  1
  Sb  Sb1  1  0.01846435  0.75722407  0.24277593  1
  S  S0  1  0.15732822  0.57367665  0.42632335  1
  S  S1  1  0.65732822  0.42632335  0.57367665  1
  S  S2  1  0.22662306  0.90774945  0.09225055  1
  S  S3  1  0.72662306  0.09225055  0.90774945  1
  S  S4  1  0.84464960  0.95330723  0.40520936  1
  S  S5  1  0.34464860  0.04669277  0.59479064  1
  S  S6  1  0.84464960  0.59479064  0.04669277  1
  S  S7  1  0.34464860  0.40520936  0.95330723  1
loop_
_geom_bond_atom_site_label_1
_geom_bond_atom_site_label_2
_geom_bond_distance
_geom_bond_site_symmetry_2
K0 S1 3.139392 1_455
K0 S0 3.273391 1_555
K0 S7 3.278827 1_555
K0 S5 3.278827 1_555
K0 S3 3.304989 1_455
K0 S6 3.703083 1_456
K0 S4 3.703083 1_445
K1 S0 3.139392 1_555
K1 S1 3.273391 1_555
K1 S6 3.278833 1_555
K1 S4 3.278833 1_555
K1 S2 3.304989 1_555
K1 S7 3.703086 1_554
K1 S5 3.703086 1_565
K2 S5 3.210148 1_555
K2 S1 3.221611 1_555
K2 S3 3.225044 1_554
K2 S7 3.283327 1_554
K2 S2 3.300761 1_545
K2 S4 3.394999 1_545
K3 S4 3.210145 1_455
K3 S0 3.221611 1_555
K3 S2 3.225044 1_556
K3 S6 3.283324 1_456
K3 S3 3.300761 1_465
K3 S5 3.394993 1_565
K4 S7 3.210149 1_555
K4 S1 3.221611 1_555
K4 S3 3.225044 1_565
K4 S5 3.283327 1_565
K4 S2 3.300761 1_556
K4 S6 3.394998 1_556
K5 S6 3.210145 1_455
K5 S0 3.221611 1_555
K5 S2 3.225044 1_545
K5 S4 3.283324 1_445
K5 S3 3.300761 1_454
K5 S7 3.394993 1_554
S0 Sb1 2.355948 1_555
S1 Sb0 2.355948 1_555
S2 Sb1 2.355500 1_555
S3 Sb0 2.355500 1_555
S4 Sb1 2.349390 1_655
S5 Sb0 2.349395 1_555
S6 Sb1 2.349390 1_655
S7 Sb0 2.349395 1_555
