# generated using pymatgen
data_PuCoC2
_symmetry_space_group_name_H-M   'P 1'
_cell_length_a   3.66726107
_cell_length_b   3.72943729
_cell_length_c   3.72943792
_cell_angle_alpha   105.04617773
_cell_angle_beta   90.00000000
_cell_angle_gamma   90.00000000
_symmetry_Int_Tables_number   1
_chemical_formula_structural   PuCoC2
_chemical_formula_sum   'Pu1 Co1 C2'
_cell_volume   49.25817969
_cell_formula_units_Z   1
loop_
 _symmetry_equiv_pos_site_id
 _symmetry_equiv_pos_as_xyz
  1  'x, y, z'
loop_
 _atom_site_type_symbol
 _atom_site_label
 _atom_site_symmetry_multiplicity
 _atom_site_fract_x
 _atom_site_fract_y
 _atom_site_fract_z
 _atom_site_occupancy
  Pu  Pu0  1  -0.00000000  0.00431698  0.99568202  1
  Co  Co0  1  0.50000000  0.38835693  0.61164307  1
  C  C0  1  0.50000000  0.84975395  0.45742886  1
  C  C1  1  0.50000000  0.54257114  0.15024605  1
loop_
_geom_bond_atom_site_label_1
_geom_bond_atom_site_label_2
_geom_bond_distance
_geom_bond_site_symmetry_2
C0 C1 1.394085 1_555
C0 Co0 1.940565 1_565
C0 Co0 1.950792 1_555
C0 Pu0 2.668948 1_565
C0 Pu0 2.668948 1_665
C0 Pu0 2.678681 1_564
C0 Pu0 2.678681 1_664
C1 Co0 1.940565 1_554
C1 Co0 1.950792 1_555
C1 Pu0 2.668951 1_654
C1 Pu0 2.668951 1_554
C1 Pu0 2.678680 1_564
C1 Pu0 2.678680 1_664
