# generated using pymatgen
data_LuIO
_symmetry_space_group_name_H-M   'P 1'
_cell_length_a   3.83828758
_cell_length_b   3.83828758
_cell_length_c   9.34550915
_cell_angle_alpha   90.00000000
_cell_angle_beta   90.00000000
_cell_angle_gamma   90.00000000
_symmetry_Int_Tables_number   1
_chemical_formula_structural   LuIO
_chemical_formula_sum   'Lu2 I2 O2'
_cell_volume   137.68226073
_cell_formula_units_Z   2
loop_
 _symmetry_equiv_pos_site_id
 _symmetry_equiv_pos_as_xyz
  1  'x, y, z'
loop_
 _atom_site_type_symbol
 _atom_site_label
 _atom_site_symmetry_multiplicity
 _atom_site_fract_x
 _atom_site_fract_y
 _atom_site_fract_z
 _atom_site_occupancy
  Lu  Lu0  1  0.75000000  0.75000000  0.38925788  1
  Lu  Lu1  1  0.25000000  0.25000000  0.61074212  1
  I  I0  1  0.25000000  0.25000000  0.18507502  1
  I  I1  1  0.75000000  0.75000000  0.81492498  1
  O  O0  1  0.75000000  0.25000000  0.50000000  1
  O  O1  1  0.25000000  0.75000000  0.50000000  1
loop_
_geom_bond_atom_site_label_1
_geom_bond_atom_site_label_2
_geom_bond_distance
_geom_bond_site_symmetry_2
Lu0 O0 2.180417 1_565
Lu0 O1 2.180417 1_655
Lu0 O0 2.180417 1_555
Lu0 O1 2.180417 1_555
Lu1 O1 2.180417 1_545
Lu1 O0 2.180417 1_455
Lu1 O0 2.180417 1_555
Lu1 O1 2.180417 1_555
I0 Lu0 3.317744 1_445
I0 Lu0 3.317744 1_455
I0 Lu0 3.317744 1_555
I0 Lu0 3.317744 1_545
I1 Lu1 3.317744 1_555
I1 Lu1 3.317744 1_565
I1 Lu1 3.317744 1_665
I1 Lu1 3.317744 1_655
