# generated using pymatgen
data_Al2SiO5
_symmetry_space_group_name_H-M   'P 1'
_cell_length_a   4.97357045
_cell_length_b   4.97357045
_cell_length_c   9.17111300
_cell_angle_alpha   90.00000000
_cell_angle_beta   90.00000000
_cell_angle_gamma   137.97801601
_symmetry_Int_Tables_number   1
_chemical_formula_structural   Al2SiO5
_chemical_formula_sum   'Al4 Si2 O10'
_cell_volume   151.86387772
_cell_formula_units_Z   2
loop_
 _symmetry_equiv_pos_site_id
 _symmetry_equiv_pos_as_xyz
  1  'x, y, z'
loop_
 _atom_site_type_symbol
 _atom_site_label
 _atom_site_symmetry_multiplicity
 _atom_site_fract_x
 _atom_site_fract_y
 _atom_site_fract_z
 _atom_site_occupancy
  Al  Al0  1  0.86472300  0.13527700  0.43255400  1
  Al  Al1  1  0.13527700  0.86472300  0.56744600  1
  Al  Al2  1  0.86472300  0.13527700  0.06744600  1
  Al  Al3  1  0.13527700  0.86472300  0.93255400  1
  Si  Si0  1  0.81601600  0.18398400  0.75000000  1
  Si  Si1  1  0.18398400  0.81601600  0.25000000  1
  O  O0  1  0.68728700  0.31271300  0.59002000  1
  O  O1  1  0.31271300  0.68728700  0.40998000  1
  O  O2  1  0.31271300  0.68728700  0.09002000  1
  O  O3  1  0.68728700  0.31271300  0.90998000  1
  O  O4  1  0.94499000  0.05501000  0.61776000  1
  O  O5  1  0.05501000  0.94499000  0.38224000  1
  O  O6  1  0.26020400  0.73979600  0.75000000  1
  O  O7  1  0.73979600  0.26020400  0.25000000  1
  O  O8  1  0.94499000  0.05501000  0.88224000  1
  O  O9  1  0.05501000  0.94499000  0.11776000  1
loop_
_geom_bond_atom_site_label_1
_geom_bond_atom_site_label_2
_geom_bond_distance
_geom_bond_site_symmetry_2
Al0 O5 1.826219 1_645
Al0 O4 1.854882 1_555
Al0 O1 1.859064 1_545
Al0 O1 1.859064 1_655
Al0 O7 2.036842 1_555
Al0 O0 2.190941 1_555
Al1 O4 1.826219 1_465
Al1 O5 1.854882 1_555
Al1 O0 1.859064 1_455
Al1 O0 1.859064 1_565
Al1 O6 2.036842 1_555
Al1 O1 2.190941 1_555
Al2 O9 1.826219 1_645
Al2 O8 1.854882 1_554
Al2 O2 1.859064 1_545
Al2 O2 1.859064 1_655
Al2 O7 2.036842 1_555
Al2 O3 2.190941 1_554
Al3 O8 1.826219 1_465
Al3 O9 1.854882 1_556
Al3 O3 1.859064 1_455
Al3 O3 1.859064 1_565
Al3 O6 2.036842 1_555
Al3 O2 2.190941 1_556
O0 Si0 1.892490 1_555
O1 Si1 1.892490 1_555
O2 Si1 1.892490 1_555
O3 Si0 1.892490 1_555
O4 Si0 1.704452 1_555
O5 Si1 1.704452 1_555
O6 Si0 1.857042 1_565
O6 Si0 1.857042 1_455
O7 Si1 1.857042 1_655
O7 Si1 1.857042 1_545
O8 Si0 1.704452 1_555
O9 Si1 1.704452 1_555
