# generated using pymatgen
data_Hf6Al16Os7
_symmetry_space_group_name_H-M   'P 1'
_cell_length_a   8.70717997
_cell_length_b   8.70717997
_cell_length_c   8.70717997
_cell_angle_alpha   60.00000000
_cell_angle_beta   60.00000000
_cell_angle_gamma   60.00000000
_symmetry_Int_Tables_number   1
_chemical_formula_structural   Hf6Al16Os7
_chemical_formula_sum   'Hf6 Al16 Os7'
_cell_volume   466.78572363
_cell_formula_units_Z   1
loop_
 _symmetry_equiv_pos_site_id
 _symmetry_equiv_pos_as_xyz
  1  'x, y, z'
loop_
 _atom_site_type_symbol
 _atom_site_label
 _atom_site_symmetry_multiplicity
 _atom_site_fract_x
 _atom_site_fract_y
 _atom_site_fract_z
 _atom_site_occupancy
  Hf  Hf0  1  0.20521600  0.79478400  0.79478400  1
  Hf  Hf1  1  0.79478400  0.20521600  0.20521600  1
  Hf  Hf2  1  0.79478400  0.20521600  0.79478400  1
  Hf  Hf3  1  0.79478400  0.79478400  0.20521600  1
  Hf  Hf4  1  0.20521600  0.79478400  0.20521600  1
  Hf  Hf5  1  0.20521600  0.20521600  0.79478400  1
  Al  Al0  1  0.83662800  0.83662800  0.83662800  1
  Al  Al1  1  0.83662800  0.83662800  0.49011600  1
  Al  Al2  1  0.49011600  0.83662800  0.83662800  1
  Al  Al3  1  0.83662800  0.49011600  0.83662800  1
  Al  Al4  1  0.16337200  0.16337200  0.16337200  1
  Al  Al5  1  0.16337200  0.16337200  0.50988400  1
  Al  Al6  1  0.16337200  0.50988400  0.16337200  1
  Al  Al7  1  0.50988400  0.16337200  0.16337200  1
  Al  Al8  1  0.61976000  0.61976000  0.61976000  1
  Al  Al9  1  0.61976000  0.61976000  0.14072100  1
  Al  Al10  1  0.14072100  0.61976000  0.61976000  1
  Al  Al11  1  0.61976000  0.14072100  0.61976000  1
  Al  Al12  1  0.38024000  0.38024000  0.38024000  1
  Al  Al13  1  0.38024000  0.38024000  0.85927900  1
  Al  Al14  1  0.38024000  0.85927900  0.38024000  1
  Al  Al15  1  0.85927900  0.38024000  0.38024000  1
  Os  Os0  1  0.50000000  0.50000000  0.50000000  1
  Os  Os1  1  0.00000000  0.50000000  0.50000000  1
  Os  Os2  1  0.50000000  0.00000000  0.00000000  1
  Os  Os3  1  0.50000000  0.00000000  0.50000000  1
  Os  Os4  1  0.50000000  0.50000000  0.00000000  1
  Os  Os5  1  0.00000000  0.50000000  0.00000000  1
  Os  Os6  1  0.00000000  0.00000000  0.50000000  1
loop_
_geom_bond_atom_site_label_1
_geom_bond_atom_site_label_2
_geom_bond_distance
_geom_bond_site_symmetry_2
Hf0 Os6 3.127456 1_565
Hf0 Os5 3.127456 1_556
Hf0 Os4 3.127456 1_556
Hf0 Os3 3.127456 1_565
Hf0 Hf3 3.573705 1_456
Hf0 Hf5 3.573705 1_565
Hf0 Hf2 3.573705 1_465
Hf0 Hf4 3.573705 1_556
Hf1 Os3 3.127456 1_555
Hf1 Os4 3.127456 1_555
Hf1 Os5 3.127456 1_655
Hf1 Os6 3.127456 1_655
Hf1 Hf5 3.573705 1_654
Hf1 Hf2 3.573705 1_554
Hf1 Hf3 3.573705 1_545
Hf1 Hf4 3.573705 1_645
Hf2 Os2 3.127456 1_556
Hf2 Os6 3.127456 1_655
Hf2 Os4 3.127456 1_556
Hf2 Os1 3.127456 1_655
Hf2 Hf5 3.573705 1_655
Hf2 Hf3 3.573705 1_546
Hf3 Os5 3.127456 1_655
Hf3 Os2 3.127456 1_565
Hf3 Os3 3.127456 1_565
Hf3 Os1 3.127456 1_655
Hf3 Hf4 3.573705 1_655
Hf4 Os4 3.127456 1_555
Hf4 Os1 3.127456 1_555
Hf4 Os2 3.127456 1_565
Hf4 Os6 3.127456 1_565
Hf4 Hf5 3.573705 1_564
Hf5 Os3 3.127456 1_555
Hf5 Os1 3.127456 1_555
Hf5 Os2 3.127456 1_556
Hf5 Os5 3.127456 1_556
Al0 Os6 2.514528 1_665
Al0 Os2 2.514528 1_566
Al0 Os5 2.514528 1_656
Al0 Al9 2.776371 1_556
Al0 Al10 2.776371 1_655
Al0 Al11 2.776371 1_565
Al0 Hf2 2.891301 1_565
Al0 Hf3 2.891301 1_556
Al0 Hf0 2.891301 1_655
Al0 Al3 3.017142 1_555
Al0 Al1 3.017142 1_555
Al0 Al2 3.017142 1_555
Al1 Os1 2.514528 1_655
Al1 Os3 2.514528 1_565
Al1 Os6 2.514528 1_665
Al1 Al8 2.776368 1_555
Al1 Al10 2.776376 1_655
Al1 Al11 2.776376 1_565
Al1 Hf1 2.891301 1_565
Al1 Hf4 2.891301 1_655
Al1 Hf3 2.891301 1_555
Al1 Al3 3.017142 1_555
Al1 Al2 3.017142 1_555
Al2 Os3 2.514528 1_565
Al2 Os4 2.514528 1_556
Al2 Os2 2.514528 1_566
Al2 Al8 2.776368 1_555
Al2 Al9 2.776376 1_556
Al2 Hf4 2.891301 1_556
Al2 Hf5 2.891301 1_565
Al2 Hf0 2.891301 1_555
Al2 Al3 3.017142 1_555
Al3 Os1 2.514528 1_655
Al3 Os4 2.514528 1_556
Al3 Os5 2.514528 1_656
Al3 Al8 2.776368 1_555
Al3 Al9 2.776376 1_556
Al3 Hf5 2.891301 1_655
Al3 Hf1 2.891301 1_556
Al3 Hf2 2.891301 1_555
Al4 Os2 2.514528 1_555
Al4 Os5 2.514528 1_555
Al4 Os6 2.514528 1_555
Al4 Hf5 2.891301 1_554
Al4 Hf1 2.891301 1_455
Al4 Hf4 2.891301 1_545
Al4 Al5 3.017142 1_555
Al4 Al6 3.017142 1_555
Al4 Al7 3.017142 1_555
Al5 Os6 2.514528 1_555
Al5 Os1 2.514528 1_555
Al5 Os3 2.514528 1_555
Al5 Hf5 2.891301 1_555
Al5 Hf0 2.891301 1_545
Al5 Hf2 2.891301 1_455
Al5 Al6 3.017142 1_555
Al5 Al7 3.017142 1_555
Al6 Os5 2.514528 1_555
Al6 Os1 2.514528 1_555
Al6 Os4 2.514528 1_555
Al6 Hf4 2.891301 1_555
Al6 Hf0 2.891301 1_554
Al6 Hf3 2.891301 1_455
Al6 Al7 3.017142 1_555
Al7 Os2 2.514528 1_555
Al7 Os4 2.514528 1_555
Al7 Os3 2.514528 1_555
Al7 Hf1 2.891301 1_555
Al7 Hf2 2.891301 1_554
Al7 Hf3 2.891301 1_545
Al8 Os0 2.554259 1_555
Al8 Os3 2.705324 1_565
Al8 Os4 2.705324 1_556
Al8 Os1 2.705324 1_655
Al8 Hf3 2.999072 1_555
Al8 Hf0 2.999072 1_555
Al8 Hf2 2.999072 1_555
Al9 Os0 2.554252 1_555
Al9 Os2 2.705325 1_565
Al9 Os5 2.705325 1_655
Al9 Os4 2.705332 1_555
Al9 Hf3 2.999066 1_555
Al9 Hf4 2.999074 1_555
Al9 Hf1 2.999074 1_555
Al10 Os0 2.554252 1_555
Al10 Os6 2.705325 1_565
Al10 Os5 2.705325 1_556
Al10 Os1 2.705332 1_555
Al10 Al3 2.776376 1_455
Al10 Al14 2.949392 1_555
Al10 Al13 2.949392 1_555
Al10 Al12 2.949404 1_555
Al10 Hf0 2.999066 1_555
Al10 Hf4 2.999074 1_555
Al10 Hf5 2.999074 1_555
Al11 Os0 2.554252 1_555
Al11 Os2 2.705325 1_556
Al11 Os6 2.705325 1_655
Al11 Os3 2.705332 1_555
Al11 Al2 2.776376 1_545
Al11 Al13 2.949392 1_555
Al11 Al15 2.949392 1_555
Al11 Al12 2.949404 1_555
Al11 Hf2 2.999066 1_555
Al11 Hf5 2.999074 1_555
Al11 Hf1 2.999074 1_555
Al12 Os0 2.554259 1_555
Al12 Os4 2.705324 1_555
Al12 Os3 2.705324 1_555
Al12 Os1 2.705324 1_555
Al12 Al7 2.776368 1_555
Al12 Al6 2.776368 1_555
Al12 Al5 2.776368 1_555
Al12 Al9 2.949404 1_555
Al12 Hf1 2.999072 1_555
Al12 Hf5 2.999072 1_555
Al12 Hf4 2.999072 1_555
Al13 Os0 2.554252 1_555
Al13 Os2 2.705325 1_556
Al13 Os5 2.705325 1_556
Al13 Os4 2.705332 1_556
Al13 Al4 2.776371 1_556
Al13 Al6 2.776376 1_556
Al13 Al7 2.776376 1_556
Al13 Al8 2.949404 1_555
Al13 Hf5 2.999066 1_555
Al13 Hf0 2.999074 1_555
Al13 Hf2 2.999074 1_555
Al14 Os0 2.554252 1_555
Al14 Os6 2.705325 1_565
Al14 Os2 2.705325 1_565
Al14 Os3 2.705332 1_565
Al14 Al4 2.776371 1_565
Al14 Al5 2.776376 1_565
Al14 Al7 2.776376 1_565
Al14 Al9 2.949392 1_555
Al14 Al8 2.949404 1_555
Al14 Hf4 2.999066 1_555
Al14 Hf0 2.999074 1_555
Al14 Hf3 2.999074 1_555
Al15 Os0 2.554252 1_555
Al15 Os5 2.705325 1_655
Al15 Os6 2.705325 1_655
Al15 Os1 2.705332 1_655
Al15 Al4 2.776371 1_655
Al15 Al5 2.776376 1_655
Al15 Al6 2.776376 1_655
Al15 Al9 2.949392 1_555
Al15 Al8 2.949404 1_555
Al15 Hf1 2.999066 1_555
Al15 Hf3 2.999074 1_555
Al15 Hf2 2.999074 1_555
