# generated using pymatgen
data_LuNiSn
_symmetry_space_group_name_H-M   'P 1'
_cell_length_a   6.91283688
_cell_length_b   4.38470356
_cell_length_c   7.58387577
_cell_angle_alpha   89.99892528
_cell_angle_beta   90.00046678
_cell_angle_gamma   90.00002819
_symmetry_Int_Tables_number   1
_chemical_formula_structural   LuNiSn
_chemical_formula_sum   'Lu4 Ni4 Sn4'
_cell_volume   229.87289025
_cell_formula_units_Z   4
loop_
 _symmetry_equiv_pos_site_id
 _symmetry_equiv_pos_as_xyz
  1  'x, y, z'
loop_
 _atom_site_type_symbol
 _atom_site_label
 _atom_site_symmetry_multiplicity
 _atom_site_fract_x
 _atom_site_fract_y
 _atom_site_fract_z
 _atom_site_occupancy
  Lu  Lu0  1  0.51180069  0.75000821  0.20142922  1
  Lu  Lu1  1  0.01182124  0.74999001  0.29852120  1
  Lu  Lu2  1  0.98822945  0.25001224  0.70145967  1
  Lu  Lu3  1  0.48815976  0.24999289  0.79852619  1
  Ni  Ni0  1  0.20685167  0.24998854  0.08528209  1
  Ni  Ni1  1  0.70674937  0.25001064  0.41465349  1
  Ni  Ni2  1  0.29318299  0.74998564  0.58546942  1
  Ni  Ni3  1  0.79319962  0.75001702  0.91463934  1
  Sn  Sn0  1  0.81064481  0.25000737  0.08604981  1
  Sn  Sn1  1  0.31066488  0.24998847  0.41394099  1
  Sn  Sn2  1  0.68935698  0.75000952  0.58607889  1
  Sn  Sn3  1  0.18933853  0.74999646  0.91395370  1
loop_
_geom_bond_atom_site_label_1
_geom_bond_atom_site_label_2
_geom_bond_distance
_geom_bond_site_symmetry_2
Lu0 Ni3 2.917989 1_554
Lu0 Ni1 3.039285 1_555
Lu0 Ni1 3.039343 1_565
Lu0 Sn1 3.055638 1_565
Lu0 Sn1 3.055717 1_555
Lu0 Sn3 3.118030 1_554
Lu0 Sn0 3.136844 1_565
Lu0 Sn0 3.136873 1_555
Lu0 Sn2 3.164834 1_555
Lu0 Ni0 3.166346 1_565
Lu0 Ni0 3.166487 1_555
Lu0 Ni2 3.281271 1_555
Lu1 Ni2 2.918689 1_555
Lu1 Ni0 3.039609 1_565
Lu1 Ni0 3.039663 1_555
Lu1 Sn0 3.055598 1_455
Lu1 Sn0 3.055665 1_465
Lu1 Sn2 3.118502 1_455
Lu1 Sn1 3.136926 1_555
Lu1 Sn1 3.136938 1_565
Lu1 Sn3 3.164173 1_554
Lu1 Ni1 3.166885 1_455
Lu1 Ni1 3.167035 1_465
Lu1 Ni3 3.280195 1_454
Lu2 Ni1 2.918431 1_555
Lu2 Ni3 3.039357 1_545
Lu2 Ni3 3.039432 1_555
Lu2 Sn3 3.055482 1_655
Lu2 Sn3 3.055539 1_645
Lu2 Sn1 3.118152 1_655
Lu2 Sn2 3.136962 1_555
Lu2 Sn2 3.137000 1_545
Lu2 Sn0 3.164512 1_556
Lu2 Ni2 3.166023 1_655
Lu2 Ni2 3.166209 1_645
Lu2 Ni0 3.279797 1_656
Lu3 Ni0 2.917378 1_556
Lu3 Ni2 3.038680 1_555
Lu3 Ni2 3.038769 1_545
Lu3 Sn2 3.055583 1_545
Lu3 Sn2 3.055643 1_555
Lu3 Sn0 3.118398 1_556
Lu3 Sn3 3.136833 1_545
Lu3 Sn3 3.136879 1_555
Lu3 Sn1 3.164219 1_555
Lu3 Ni3 3.166679 1_545
Lu3 Ni3 3.166847 1_555
Lu3 Ni1 3.280054 1_555
Ni0 Sn3 2.551329 1_544
Ni0 Sn3 2.551347 1_554
Ni0 Sn1 2.593758 1_555
Ni0 Sn0 2.738920 1_455
Ni1 Sn2 2.551658 1_545
Ni1 Sn2 2.551691 1_555
Ni1 Sn0 2.593524 1_555
Ni1 Sn1 2.738073 1_555
Ni2 Sn1 2.552092 1_565
Ni2 Sn1 2.552112 1_555
Ni2 Sn3 2.592557 1_555
Ni2 Sn2 2.738690 1_555
Ni3 Sn0 2.551618 1_566
Ni3 Sn0 2.551649 1_556
Ni3 Sn2 2.593097 1_555
Ni3 Sn3 2.738449 1_655
