# generated using pymatgen
data_NdLuIn2
_symmetry_space_group_name_H-M   'P 1'
_cell_length_a   5.33394305
_cell_length_b   5.33394305
_cell_length_c   5.33394305
_cell_angle_alpha   60.00000000
_cell_angle_beta   60.00000000
_cell_angle_gamma   60.00000000
_symmetry_Int_Tables_number   1
_chemical_formula_structural   NdLuIn2
_chemical_formula_sum   'Nd1 Lu1 In2'
_cell_volume   107.30751190
_cell_formula_units_Z   1
loop_
 _symmetry_equiv_pos_site_id
 _symmetry_equiv_pos_as_xyz
  1  'x, y, z'
loop_
 _atom_site_type_symbol
 _atom_site_label
 _atom_site_symmetry_multiplicity
 _atom_site_fract_x
 _atom_site_fract_y
 _atom_site_fract_z
 _atom_site_occupancy
  Nd  Nd0  1  0.74999900  0.74999900  0.74999900  1
  Lu  Lu0  1  0.24999900  0.24999900  0.24999900  1
  In  In0  1  0.50000000  0.50000000  0.50000000  1
  In  In1  1  -0.00000000  0.00000000  -0.00000000  1
loop_
_geom_bond_atom_site_label_1
_geom_bond_atom_site_label_2
_geom_bond_distance
_geom_bond_site_symmetry_2
In0 Nd0 3.266347 1_555
In0 Lu0 3.266355 1_565
In0 Lu0 3.266355 1_655
In0 Lu0 3.266355 1_556
In0 Nd0 3.266364 1_455
In0 Nd0 3.266364 1_545
In0 Nd0 3.266364 1_554
In0 Lu0 3.266373 1_555
In1 Lu0 3.266347 1_555
In1 Nd0 3.266355 1_445
In1 Nd0 3.266355 1_454
In1 Nd0 3.266355 1_544
In1 Lu0 3.266364 1_554
In1 Lu0 3.266364 1_455
In1 Lu0 3.266364 1_545
In1 Nd0 3.266373 1_444
