# generated using pymatgen
data_Hf2Ge
_symmetry_space_group_name_H-M   'P 1'
_cell_length_a   5.29294542
_cell_length_b   5.35309560
_cell_length_c   5.35309422
_cell_angle_alpha   75.85281495
_cell_angle_beta   60.37100184
_cell_angle_gamma   60.37097914
_symmetry_Int_Tables_number   1
_chemical_formula_structural   Hf2Ge
_chemical_formula_sum   'Hf4 Ge2'
_cell_volume   114.60179902
_cell_formula_units_Z   2
loop_
 _symmetry_equiv_pos_site_id
 _symmetry_equiv_pos_as_xyz
  1  'x, y, z'
loop_
 _atom_site_type_symbol
 _atom_site_label
 _atom_site_symmetry_multiplicity
 _atom_site_fract_x
 _atom_site_fract_y
 _atom_site_fract_z
 _atom_site_occupancy
  Hf  Hf0  1  0.65576085  0.18847830  0.50000000  1
  Hf  Hf1  1  0.84423915  0.50000000  0.81152170  1
  Hf  Hf2  1  0.34423915  0.81152170  0.50000000  1
  Hf  Hf3  1  0.15576085  0.50000000  0.18847830  1
  Ge  Ge0  1  0.75000000  -0.00000000  -0.00000000  1
  Ge  Ge1  1  0.25000000  -0.00000000  -0.00000000  1
loop_
_geom_bond_atom_site_label_1
_geom_bond_atom_site_label_2
_geom_bond_distance
_geom_bond_site_symmetry_2
Ge0 Ge1 2.646473 1_555
Ge0 Ge1 2.646473 1_655
Ge0 Hf3 2.816569 1_645
Ge0 Hf3 2.816569 1_555
Ge0 Hf0 2.816569 1_554
Ge0 Hf2 2.816569 1_644
Ge0 Hf2 2.816570 1_545
Ge0 Hf0 2.816570 1_555
Ge0 Hf1 2.816570 1_554
Ge0 Hf1 2.816570 1_544
Ge1 Hf1 2.816569 1_454
Ge1 Hf1 2.816569 1_544
Ge1 Hf2 2.816569 1_545
Ge1 Hf0 2.816569 1_455
Ge1 Hf0 2.816570 1_554
Ge1 Hf2 2.816570 1_544
Ge1 Hf3 2.816570 1_545
Ge1 Hf3 2.816570 1_555
