# generated using pymatgen
data_RbCa3
_symmetry_space_group_name_H-M   'P 1'
_cell_length_a   7.15040553
_cell_length_b   7.15040553
_cell_length_c   7.15040553
_cell_angle_alpha   131.89158095
_cell_angle_beta   131.89158095
_cell_angle_gamma   70.40031697
_symmetry_Int_Tables_number   1
_chemical_formula_structural   RbCa3
_chemical_formula_sum   'Rb1 Ca3'
_cell_volume   198.52732387
_cell_formula_units_Z   1
loop_
 _symmetry_equiv_pos_site_id
 _symmetry_equiv_pos_as_xyz
  1  'x, y, z'
loop_
 _atom_site_type_symbol
 _atom_site_label
 _atom_site_symmetry_multiplicity
 _atom_site_fract_x
 _atom_site_fract_y
 _atom_site_fract_z
 _atom_site_occupancy
  Rb  Rb0  1  0.00000000  0.00000000  0.00000000  1
  Ca  Ca0  1  0.75000000  0.25000000  0.50000000  1
  Ca  Ca1  1  0.25000000  0.75000000  0.50000000  1
  Ca  Ca2  1  0.50000000  0.50000000  0.00000000  1
loop_
_geom_bond_atom_site_label_1
_geom_bond_atom_site_label_2
_geom_bond_distance
_geom_bond_site_symmetry_2
Ca0 Ca1 4.121741 1_544
Ca0 Ca1 4.121741 1_656
Ca0 Ca1 4.121741 1_555
Ca0 Ca1 4.121741 1_645
Ca0 Rb0 4.126653 1_555
Ca0 Rb0 4.126653 1_666
Ca0 Ca2 4.126653 1_556
Ca0 Rb0 4.126653 1_656
Ca0 Ca2 4.126653 1_555
Ca0 Rb0 4.126653 1_655
Ca0 Ca2 4.126653 1_545
Ca0 Ca2 4.126653 1_656
Ca1 Rb0 4.126653 1_566
Ca1 Rb0 4.126653 1_555
Ca1 Rb0 4.126653 1_666
Ca1 Ca2 4.126653 1_566
Ca1 Rb0 4.126653 1_565
Ca1 Ca2 4.126653 1_455
Ca1 Ca2 4.126653 1_555
Ca1 Ca2 4.126653 1_556
Ca2 Rb0 4.121741 1_655
Ca2 Rb0 4.121741 1_554
Ca2 Rb0 4.121741 1_666
Ca2 Rb0 4.121741 1_565
