# generated using pymatgen
data_Na3N
_symmetry_space_group_name_H-M   'P 1'
_cell_length_a   4.48495255
_cell_length_b   4.48495255
_cell_length_c   4.75923600
_cell_angle_alpha   90.00000000
_cell_angle_beta   90.00000000
_cell_angle_gamma   120.00000809
_symmetry_Int_Tables_number   1
_chemical_formula_structural   Na3N
_chemical_formula_sum   'Na3 N1'
_cell_volume   82.90553808
_cell_formula_units_Z   1
loop_
 _symmetry_equiv_pos_site_id
 _symmetry_equiv_pos_as_xyz
  1  'x, y, z'
loop_
 _atom_site_type_symbol
 _atom_site_label
 _atom_site_symmetry_multiplicity
 _atom_site_fract_x
 _atom_site_fract_y
 _atom_site_fract_z
 _atom_site_occupancy
  Na  Na0  1  0.66666700  0.33333300  0.00000000  1
  Na  Na1  1  0.33333300  0.66666700  0.00000000  1
  Na  Na2  1  0.00000000  0.00000000  0.50000000  1
  N  N0  1  0.00000000  0.00000000  0.00000000  1
loop_
_geom_bond_atom_site_label_1
_geom_bond_atom_site_label_2
_geom_bond_distance
_geom_bond_site_symmetry_2
N0 Na2 2.379618 1_554
N0 Na2 2.379618 1_555
N0 Na1 2.589386 1_545
N0 Na0 2.589386 1_455
N0 Na0 2.589390 1_445
N0 Na1 2.589390 1_445
N0 Na1 2.589390 1_555
N0 Na0 2.589390 1_555
