# generated using pymatgen
data_Sc3Pb
_symmetry_space_group_name_H-M   'P 1'
_cell_length_a   5.85566343
_cell_length_b   5.85566343
_cell_length_c   5.85566343
_cell_angle_alpha   136.23401350
_cell_angle_beta   136.23401350
_cell_angle_gamma   63.61875347
_symmetry_Int_Tables_number   1
_chemical_formula_structural   Sc3Pb
_chemical_formula_sum   'Sc3 Pb1'
_cell_volume   94.81038849
_cell_formula_units_Z   1
loop_
 _symmetry_equiv_pos_site_id
 _symmetry_equiv_pos_as_xyz
  1  'x, y, z'
loop_
 _atom_site_type_symbol
 _atom_site_label
 _atom_site_symmetry_multiplicity
 _atom_site_fract_x
 _atom_site_fract_y
 _atom_site_fract_z
 _atom_site_occupancy
  Sc  Sc0  1  0.75000000  0.25000000  0.50000000  1
  Sc  Sc1  1  0.25000000  0.75000000  0.50000000  1
  Sc  Sc2  1  0.50000100  0.50000100  -0.00000000  1
  Pb  Pb0  1  0.00000000  0.00000000  0.00000000  1
loop_
_geom_bond_atom_site_label_1
_geom_bond_atom_site_label_2
_geom_bond_distance
_geom_bond_site_symmetry_2
Sc0 Sc1 3.086490 1_544
Sc0 Sc1 3.086490 1_656
Sc0 Sc1 3.086490 1_645
Sc0 Sc1 3.086490 1_555
Sc0 Sc2 3.309646 1_545
Sc0 Sc2 3.309646 1_556
Sc0 Sc2 3.309661 1_555
Sc0 Sc2 3.309661 1_656
Sc1 Sc2 3.309646 1_455
Sc1 Sc2 3.309646 1_556
Sc1 Sc2 3.309661 1_555
Sc1 Sc2 3.309661 1_566
Pb0 Sc2 3.086490 1_455
Pb0 Sc2 3.086490 1_444
Pb0 Sc2 3.086490 1_545
Pb0 Sc2 3.086490 1_556
Pb0 Sc0 3.309653 1_454
Pb0 Sc1 3.309653 1_555
Pb0 Sc0 3.309653 1_444
Pb0 Sc1 3.309653 1_544
Pb0 Sc1 3.309653 1_444
Pb0 Sc0 3.309653 1_455
Pb0 Sc1 3.309653 1_545
Pb0 Sc0 3.309653 1_555
