# generated using pymatgen
data_Li(Mg4Al3)4
_symmetry_space_group_name_H-M   'P 1'
_cell_length_a   9.11072928
_cell_length_b   9.11072928
_cell_length_c   9.11072928
_cell_angle_alpha   109.47122063
_cell_angle_beta   109.47122063
_cell_angle_gamma   109.47122063
_symmetry_Int_Tables_number   1
_chemical_formula_structural   Li(Mg4Al3)4
_chemical_formula_sum   'Li1 Mg16 Al12'
_cell_volume   582.15352934
_cell_formula_units_Z   1
loop_
 _symmetry_equiv_pos_site_id
 _symmetry_equiv_pos_as_xyz
  1  'x, y, z'
loop_
 _atom_site_type_symbol
 _atom_site_label
 _atom_site_symmetry_multiplicity
 _atom_site_fract_x
 _atom_site_fract_y
 _atom_site_fract_z
 _atom_site_occupancy
  Li  Li0  1  0.00000000  0.00000000  0.00000000  1
  Mg  Mg0  1  0.71397600  0.31503100  0.31503100  1
  Mg  Mg1  1  0.33838400  0.33838400  0.33838400  1
  Mg  Mg2  1  0.28602400  0.60105500  0.60105500  1
  Mg  Mg3  1  0.66161600  0.00000000  0.00000000  1
  Mg  Mg4  1  0.00000000  0.68496900  0.39894500  1
  Mg  Mg5  1  0.60105500  0.60105500  0.28602400  1
  Mg  Mg6  1  0.39894500  0.00000000  0.68496900  1
  Mg  Mg7  1  0.00000000  0.00000000  0.66161600  1
  Mg  Mg8  1  0.31503100  0.71397600  0.31503100  1
  Mg  Mg9  1  0.68496900  0.39894500  0.00000000  1
  Mg  Mg10  1  0.68496900  0.00000000  0.39894500  1
  Mg  Mg11  1  0.31503100  0.31503100  0.71397600  1
  Mg  Mg12  1  0.00000000  0.66161600  0.00000000  1
  Mg  Mg13  1  0.39894500  0.68496900  0.00000000  1
  Mg  Mg14  1  0.60105500  0.28602400  0.60105500  1
  Mg  Mg15  1  0.00000000  0.39894500  0.68496900  1
  Al  Al0  1  0.18143300  0.81386700  0.81386700  1
  Al  Al1  1  0.81856700  0.63243300  0.63243300  1
  Al  Al2  1  0.00000000  0.36756700  0.18613300  1
  Al  Al3  1  0.63243300  0.81856700  0.63243300  1
  Al  Al4  1  0.36756700  0.18613300  0.00000000  1
  Al  Al5  1  0.81386700  0.18143300  0.81386700  1
  Al  Al6  1  0.18613300  0.36756700  0.00000000  1
  Al  Al7  1  0.81386700  0.81386700  0.18143300  1
  Al  Al8  1  0.18613300  0.00000000  0.36756700  1
  Al  Al9  1  0.36756700  0.00000000  0.18613300  1
  Al  Al10  1  0.63243300  0.63243300  0.81856700  1
  Al  Al11  1  0.00000000  0.18613300  0.36756700  1
loop_
_geom_bond_atom_site_label_1
_geom_bond_atom_site_label_2
_geom_bond_distance
_geom_bond_site_symmetry_2
Li0 Mg3 3.082925 1_455
Li0 Mg12 3.082925 1_545
Li0 Mg1 3.082925 1_555
Li0 Mg7 3.082925 1_554
Mg0 Mg3 3.063621 1_555
Mg0 Mg15 3.135843 1_655
Mg0 Mg4 3.135843 1_655
Mg0 Mg5 3.159753 1_555
Mg0 Mg14 3.159753 1_555
Mg0 Mg10 3.159753 1_555
Mg0 Mg9 3.159753 1_555
Mg1 Mg14 3.063621 1_555
Mg1 Mg2 3.063621 1_555
Mg1 Mg5 3.063621 1_555
Mg2 Mg4 3.135843 1_555
Mg2 Mg6 3.159753 1_565
Mg2 Mg8 3.159753 1_555
Mg3 Mg6 3.063621 1_554
Mg4 Mg7 3.063621 1_565
Mg4 Mg9 3.159753 1_455
Mg4 Mg6 3.159753 1_565
Mg4 Mg5 3.159753 1_455
Mg4 Mg8 3.159753 1_555
Mg5 Mg9 3.135843 1_555
Mg5 Mg8 3.159753 1_555
Mg6 Mg8 3.135843 1_545
Mg6 Mg9 3.159753 1_556
Mg10 Mg7 3.063621 1_655
Mg10 Mg8 3.135843 1_545
Mg10 Mg14 3.135843 1_555
Mg10 Mg5 3.159753 1_545
Mg10 Mg15 3.159753 1_655
Mg10 Mg13 3.159753 1_545
Mg11 Mg7 3.063621 1_555
Mg11 Mg13 3.135843 1_556
Mg11 Mg9 3.135843 1_556
Mg11 Mg6 3.159753 1_555
Mg11 Mg14 3.159753 1_555
Mg11 Mg2 3.159753 1_555
Mg11 Mg15 3.159753 1_555
Mg12 Mg8 3.063621 1_555
Mg12 Mg9 3.063621 1_455
Mg12 Mg15 3.063621 1_554
Mg13 Mg3 3.063621 1_565
Mg13 Mg5 3.135843 1_555
Mg13 Mg15 3.159753 1_554
Mg13 Mg2 3.159753 1_554
Mg13 Mg8 3.159753 1_555
Mg14 Mg6 3.135843 1_555
Mg14 Mg15 3.159753 1_655
Mg14 Mg9 3.159753 1_556
Mg15 Mg2 3.135843 1_555
Al0 Al1 2.699316 1_455
Al0 Al4 2.769242 1_566
Al0 Al9 2.769242 1_566
Al0 Mg2 2.895466 1_555
Al0 Mg13 2.969971 1_556
Al0 Mg6 2.969971 1_565
Al0 Mg12 3.072554 1_556
Al0 Mg7 3.072554 1_565
Al0 Mg15 3.159465 1_555
Al0 Mg4 3.159465 1_555
Al0 Li0 3.210023 1_566
Al1 Al10 2.769257 1_555
Al1 Al3 2.769257 1_555
Al1 Mg0 2.895456 1_555
Al1 Mg5 2.969968 1_555
Al1 Mg14 2.969968 1_555
Al1 Mg7 3.072558 1_665
Al1 Mg12 3.072558 1_656
Al1 Mg15 3.159459 1_655
Al1 Mg4 3.159459 1_655
Al1 Li0 3.210032 1_666
Al2 Al6 2.769242 1_555
Al2 Al5 2.769242 1_454
Al2 Mg4 2.895459 1_555
Al2 Mg9 2.969965 1_455
Al2 Mg8 2.969965 1_555
Al2 Mg3 3.072559 1_455
Al2 Mg1 3.072559 1_555
Al2 Mg0 3.159465 1_455
Al2 Mg2 3.159465 1_555
Al2 Li0 3.210031 1_555
Al3 Al5 2.699316 1_565
Al3 Mg8 2.895456 1_555
Al3 Mg5 2.969968 1_555
Al3 Mg2 2.969968 1_555
Al3 Mg3 3.072558 1_566
Al3 Mg7 3.072558 1_665
Al3 Mg10 3.159459 1_565
Al3 Mg6 3.159459 1_565
Al3 Li0 3.210032 1_666
Al4 Al6 2.699331 1_555
Al4 Al9 2.769242 1_555
Al4 Mg9 2.895459 1_555
Al4 Mg6 2.969965 1_554
Al4 Mg0 2.969965 1_555
Al4 Mg7 3.072559 1_554
Al4 Mg1 3.072559 1_555
Al4 Mg11 3.159465 1_554
Al4 Mg5 3.159465 1_555
Al4 Li0 3.210031 1_555
Al5 Al6 2.769242 1_656
Al5 Mg14 2.895466 1_555
Al5 Mg15 2.969971 1_655
Al5 Mg9 2.969971 1_556
Al5 Mg7 3.072554 1_655
Al5 Mg3 3.072554 1_556
Al5 Mg6 3.159465 1_555
Al5 Mg10 3.159465 1_555
Al5 Li0 3.210023 1_656
Al6 Mg13 2.895459 1_555
Al6 Mg15 2.969965 1_554
Al6 Mg8 2.969965 1_555
Al6 Mg7 3.072559 1_554
Al6 Mg1 3.072559 1_555
Al6 Mg11 3.159465 1_554
Al6 Mg5 3.159465 1_555
Al6 Li0 3.210031 1_555
Al7 Al8 2.769242 1_665
Al7 Mg5 2.895466 1_555
Al7 Mg4 2.969971 1_655
Al7 Mg10 2.969971 1_565
Al7 Mg12 3.072554 1_655
Al7 Mg3 3.072554 1_565
Al7 Mg9 3.159465 1_555
Al7 Mg13 3.159465 1_555
Al7 Li0 3.210023 1_665
Al8 Al9 2.699331 1_555
Al8 Mg6 2.895459 1_555
Al8 Mg4 2.969965 1_545
Al8 Mg11 2.969965 1_555
Al8 Mg12 3.072559 1_545
Al8 Mg1 3.072559 1_555
Al8 Mg8 3.159465 1_545
Al8 Mg14 3.159465 1_555
Al8 Li0 3.210031 1_555
Al9 Mg10 2.895459 1_555
Al9 Mg13 2.969965 1_545
Al9 Mg0 2.969965 1_555
Al9 Mg12 3.072559 1_545
Al9 Mg1 3.072559 1_555
Al9 Mg14 3.159465 1_555
Al9 Mg8 3.159465 1_545
Al9 Li0 3.210031 1_555
Al10 Al7 2.699316 1_556
Al10 Al3 2.769257 1_555
Al10 Mg11 2.895456 1_555
Al10 Mg2 2.969968 1_555
Al10 Mg14 2.969968 1_555
Al10 Mg3 3.072558 1_566
Al10 Mg12 3.072558 1_656
Al10 Mg13 3.159459 1_556
Al10 Mg9 3.159459 1_556
Al10 Li0 3.210032 1_666
Al11 Al2 2.699331 1_555
Al11 Al8 2.769242 1_555
Al11 Al7 2.769242 1_445
Al11 Mg15 2.895459 1_555
Al11 Mg10 2.969965 1_455
Al11 Mg11 2.969965 1_555
Al11 Mg3 3.072559 1_455
Al11 Mg1 3.072559 1_555
Al11 Mg0 3.159465 1_455
Al11 Mg2 3.159465 1_555
Al11 Li0 3.210031 1_555
