# generated using pymatgen
data_SmTlSe2
_symmetry_space_group_name_H-M   'P 1'
_cell_length_a   4.25791674
_cell_length_b   4.25791582
_cell_length_c   8.10368504
_cell_angle_alpha   74.76878683
_cell_angle_beta   74.76878698
_cell_angle_gamma   59.99999894
_symmetry_Int_Tables_number   1
_chemical_formula_structural   SmTlSe2
_chemical_formula_sum   'Sm1 Tl1 Se2'
_cell_volume   121.23953228
_cell_formula_units_Z   1
loop_
 _symmetry_equiv_pos_site_id
 _symmetry_equiv_pos_as_xyz
  1  'x, y, z'
loop_
 _atom_site_type_symbol
 _atom_site_label
 _atom_site_symmetry_multiplicity
 _atom_site_fract_x
 _atom_site_fract_y
 _atom_site_fract_z
 _atom_site_occupancy
  Sm  Sm0  1  0.00000000  0.00000000  0.00000000  1
  Tl  Tl0  1  0.50000000  0.50000000  0.50000000  1
  Se  Se0  1  0.73628121  0.73628121  0.79115636  1
  Se  Se1  1  0.26371879  0.26371879  0.20884364  1
loop_
_geom_bond_atom_site_label_1
_geom_bond_atom_site_label_2
_geom_bond_distance
_geom_bond_site_symmetry_2
Se0 Sm0 2.940056 1_656
Se0 Sm0 2.940056 1_666
Se0 Sm0 2.940056 1_566
Se0 Tl0 3.331356 1_565
Se0 Tl0 3.331357 1_555
Se0 Tl0 3.331357 1_655
Se1 Sm0 2.940056 1_565
Se1 Sm0 2.940056 1_555
Se1 Sm0 2.940056 1_655
Se1 Tl0 3.331356 1_545
Se1 Tl0 3.331357 1_555
Se1 Tl0 3.331357 1_455
