# generated using pymatgen
data_Yb(ZnP)2
_symmetry_space_group_name_H-M   'P 1'
_cell_length_a   4.05315603
_cell_length_b   4.05315603
_cell_length_c   6.28815544
_cell_angle_alpha   90.00000000
_cell_angle_beta   90.00000000
_cell_angle_gamma   120.00000032
_symmetry_Int_Tables_number   1
_chemical_formula_structural   Yb(ZnP)2
_chemical_formula_sum   'Yb1 Zn2 P2'
_cell_volume   89.46239992
_cell_formula_units_Z   1
loop_
 _symmetry_equiv_pos_site_id
 _symmetry_equiv_pos_as_xyz
  1  'x, y, z'
loop_
 _atom_site_type_symbol
 _atom_site_label
 _atom_site_symmetry_multiplicity
 _atom_site_fract_x
 _atom_site_fract_y
 _atom_site_fract_z
 _atom_site_occupancy
  Yb  Yb0  1  0.00000000  0.00000000  0.00000000  1
  Zn  Zn0  1  0.66666700  0.33333300  0.64997004  1
  Zn  Zn1  1  0.33333300  0.66666700  0.35002996  1
  P  P0  1  0.66666700  0.33333300  0.25696570  1
  P  P1  1  0.33333300  0.66666700  0.74303430  1
loop_
_geom_bond_atom_site_label_1
_geom_bond_atom_site_label_2
_geom_bond_distance
_geom_bond_site_symmetry_2
P0 Zn1 2.412152 1_655
P0 Zn1 2.412152 1_545
P0 Zn1 2.412158 1_555
P0 Zn0 2.471272 1_555
P0 Yb0 2.843757 1_655
P0 Yb0 2.843760 1_555
P0 Yb0 2.843760 1_665
P1 Zn0 2.412152 1_565
P1 Zn0 2.412152 1_455
P1 Zn0 2.412158 1_555
P1 Zn1 2.471272 1_555
P1 Yb0 2.843757 1_566
P1 Yb0 2.843760 1_556
P1 Yb0 2.843760 1_666
