# generated using pymatgen
data_Sm2InAg
_symmetry_space_group_name_H-M   'P 1'
_cell_length_a   5.33925328
_cell_length_b   5.33925328
_cell_length_c   5.33925328
_cell_angle_alpha   60.00000000
_cell_angle_beta   60.00000000
_cell_angle_gamma   60.00000000
_symmetry_Int_Tables_number   1
_chemical_formula_structural   Sm2InAg
_chemical_formula_sum   'Sm2 In1 Ag1'
_cell_volume   107.62832247
_cell_formula_units_Z   1
loop_
 _symmetry_equiv_pos_site_id
 _symmetry_equiv_pos_as_xyz
  1  'x, y, z'
loop_
 _atom_site_type_symbol
 _atom_site_label
 _atom_site_symmetry_multiplicity
 _atom_site_fract_x
 _atom_site_fract_y
 _atom_site_fract_z
 _atom_site_occupancy
  Sm  Sm0  1  0.25000000  0.25000000  0.25000000  1
  Sm  Sm1  1  0.75000000  0.75000000  0.75000000  1
  In  In0  1  0.50000000  0.50000000  0.50000000  1
  Ag  Ag0  1  0.00000000  0.00000000  -0.00000000  1
loop_
_geom_bond_atom_site_label_1
_geom_bond_atom_site_label_2
_geom_bond_distance
_geom_bond_site_symmetry_2
In0 Sm1 3.269612 1_555
In0 Sm1 3.269612 1_545
In0 Sm0 3.269612 1_565
In0 Sm0 3.269612 1_556
In0 Sm0 3.269612 1_555
In0 Sm1 3.269612 1_554
In0 Sm0 3.269612 1_655
In0 Sm1 3.269612 1_455
Ag0 Sm1 3.269612 1_454
Ag0 Sm0 3.269612 1_555
Ag0 Sm1 3.269612 1_444
Ag0 Sm0 3.269612 1_545
Ag0 Sm1 3.269612 1_445
Ag0 Sm0 3.269612 1_554
Ag0 Sm1 3.269612 1_544
Ag0 Sm0 3.269612 1_455
