# generated using pymatgen
data_SnBrCl
_symmetry_space_group_name_H-M   'P 1'
_cell_length_a   6.07320600
_cell_length_b   6.07320600
_cell_length_c   5.73465400
_cell_angle_alpha   90.00000000
_cell_angle_beta   90.00000000
_cell_angle_gamma   90.00000000
_symmetry_Int_Tables_number   1
_chemical_formula_structural   SnBrCl
_chemical_formula_sum   'Sn2 Br2 Cl2'
_cell_volume   211.51600966
_cell_formula_units_Z   2
loop_
 _symmetry_equiv_pos_site_id
 _symmetry_equiv_pos_as_xyz
  1  'x, y, z'
loop_
 _atom_site_type_symbol
 _atom_site_label
 _atom_site_symmetry_multiplicity
 _atom_site_fract_x
 _atom_site_fract_y
 _atom_site_fract_z
 _atom_site_occupancy
  Sn  Sn0  1  0.50000000  0.00000000  0.87195900  1
  Sn  Sn1  1  0.00000000  0.50000000  0.12804100  1
  Br  Br0  1  0.50000000  0.50000000  0.00000000  1
  Br  Br1  1  0.00000000  0.00000000  0.00000000  1
  Cl  Cl0  1  0.00000000  0.50000000  0.56133200  1
  Cl  Cl1  1  0.50000000  0.00000000  0.43866800  1
loop_
_geom_bond_atom_site_label_1
_geom_bond_atom_site_label_2
_geom_bond_distance
_geom_bond_site_symmetry_2
Br0 Sn0 3.124118 1_554
Br0 Sn0 3.124118 1_564
Br0 Sn1 3.124118 1_655
Br0 Sn1 3.124118 1_555
Br1 Sn0 3.124118 1_454
Br1 Sn0 3.124118 1_554
Br1 Sn1 3.124118 1_545
Br1 Sn1 3.124118 1_555
Cl0 Sn1 2.484774 1_555
Cl1 Sn0 2.484774 1_555
