# generated using pymatgen
data_NdH3
_symmetry_space_group_name_H-M   'P 1'
_cell_length_a   6.67083608
_cell_length_b   6.67083631
_cell_length_c   6.93239533
_cell_angle_alpha   89.99999421
_cell_angle_beta   89.99999266
_cell_angle_gamma   120.00000289
_symmetry_Int_Tables_number   1
_chemical_formula_structural   NdH3
_chemical_formula_sum   'Nd6 H18'
_cell_volume   267.16188155
_cell_formula_units_Z   6
loop_
 _symmetry_equiv_pos_site_id
 _symmetry_equiv_pos_as_xyz
  1  'x, y, z'
loop_
 _atom_site_type_symbol
 _atom_site_label
 _atom_site_symmetry_multiplicity
 _atom_site_fract_x
 _atom_site_fract_y
 _atom_site_fract_z
 _atom_site_occupancy
  Nd  Nd0  1  0.66319103  0.99999956  0.25000004  1
  Nd  Nd1  1  0.00000046  0.66319010  0.25000002  1
  Nd  Nd2  1  0.33680988  0.33680896  0.25000002  1
  Nd  Nd3  1  0.66319178  0.66319075  0.75000005  1
  Nd  Nd4  1  0.00000056  0.33680849  0.75000006  1
  Nd  Nd5  1  0.33680942  -0.00000044  0.75000002  1
  H  H0  1  0.67921468  0.65018370  0.09203507  1
  H  H1  1  0.34981604  0.02902960  0.09203515  1
  H  H2  1  0.97097012  0.32078537  0.09203527  1
  H  H3  1  0.33333374  0.66666627  0.18291800  1
  H  H4  1  0.00000047  -0.00000038  0.25000007  1
  H  H5  1  0.66666694  0.33333280  0.31708197  1
  H  H6  1  0.02903063  0.34981568  0.40796486  1
  H  H7  1  0.32078603  0.97096938  0.40796489  1
  H  H8  1  0.65018466  0.67921397  0.40796486  1
  H  H9  1  0.67921650  0.02902877  0.59203518  1
  H  H10  1  0.34981330  0.32078365  0.59203519  1
  H  H11  1  0.97097139  0.65018650  0.59203515  1
  H  H12  1  0.33333403  0.66666636  0.68292014  1
  H  H13  1  0.00000048  -0.00000042  0.75000000  1
  H  H14  1  0.66666719  0.33333304  0.81708033  1
  H  H15  1  0.02902955  0.67921574  0.90796480  1
  H  H16  1  0.65018769  0.97097079  0.90796488  1
  H  H17  1  0.32078443  0.34981277  0.90796497  1
loop_
_geom_bond_atom_site_label_1
_geom_bond_atom_site_label_2
_geom_bond_distance
_geom_bond_site_symmetry_2
H0 Nd1 2.366488 1_655
H0 Nd3 2.377067 1_554
H0 Nd2 2.451855 1_555
H0 Nd0 2.627846 1_555
H1 Nd2 2.366487 1_555
H1 Nd5 2.377068 1_554
H1 Nd0 2.451856 1_545
H1 Nd1 2.627845 1_545
H2 Nd0 2.366486 1_545
H2 Nd4 2.377068 1_654
H2 Nd1 2.451854 1_655
H2 Nd2 2.627847 1_655
H3 Nd1 2.260461 1_555
H3 Nd0 2.260462 1_555
H3 Nd2 2.260462 1_555
H4 Nd2 2.246800 1_555
H4 Nd0 2.246800 1_445
H4 Nd1 2.246801 1_545
H5 Nd2 2.260461 1_555
H5 Nd0 2.260462 1_545
H5 Nd1 2.260462 1_655
H6 Nd2 2.366487 1_555
H6 Nd4 2.377068 1_555
H6 Nd1 2.451853 1_555
H6 Nd0 2.627847 1_445
H7 Nd1 2.366487 1_555
H7 Nd5 2.377068 1_565
H7 Nd0 2.451856 1_555
H7 Nd2 2.627846 1_565
H8 Nd0 2.366486 1_555
H8 Nd3 2.377068 1_555
H8 Nd2 2.451856 1_555
H8 Nd1 2.627846 1_655
H9 Nd4 2.366483 1_655
H9 Nd0 2.377068 1_545
H9 Nd5 2.451870 1_555
H9 Nd3 2.627834 1_545
H10 Nd5 2.366484 1_555
H10 Nd2 2.377068 1_555
H10 Nd3 2.451872 1_555
H10 Nd4 2.627831 1_555
H11 Nd3 2.366482 1_555
H11 Nd1 2.377067 1_655
H11 Nd4 2.451871 1_655
H11 Nd5 2.627833 1_665
H12 Nd5 2.260460 1_565
H12 Nd3 2.260461 1_555
H12 Nd4 2.260461 1_555
H13 Nd3 2.246796 1_445
H13 Nd4 2.246797 1_555
H13 Nd5 2.246797 1_555
H14 Nd3 2.260460 1_555
H14 Nd4 2.260462 1_655
H14 Nd5 2.260462 1_555
H15 Nd5 2.366482 1_565
H15 Nd1 2.377068 1_556
H15 Nd4 2.451872 1_555
H15 Nd3 2.627831 1_455
H16 Nd3 2.366484 1_555
H16 Nd0 2.377068 1_556
H16 Nd5 2.451872 1_565
H16 Nd4 2.627831 1_665
H17 Nd4 2.366482 1_555
H17 Nd2 2.377067 1_556
H17 Nd3 2.451872 1_555
H17 Nd5 2.627835 1_555
