# generated using pymatgen
data_Sr(GeIr)2
_symmetry_space_group_name_H-M   'P 1'
_cell_length_a   6.16492304
_cell_length_b   6.16492304
_cell_length_c   6.16492304
_cell_angle_alpha   140.12641079
_cell_angle_beta   140.12641079
_cell_angle_gamma   57.66141213
_symmetry_Int_Tables_number   1
_chemical_formula_structural   Sr(GeIr)2
_chemical_formula_sum   'Sr1 Ge2 Ir2'
_cell_volume   95.46349452
_cell_formula_units_Z   1
loop_
 _symmetry_equiv_pos_site_id
 _symmetry_equiv_pos_as_xyz
  1  'x, y, z'
loop_
 _atom_site_type_symbol
 _atom_site_label
 _atom_site_symmetry_multiplicity
 _atom_site_fract_x
 _atom_site_fract_y
 _atom_site_fract_z
 _atom_site_occupancy
  Sr  Sr0  1  0.00000000  0.00000000  -0.00000000  1
  Ge  Ge0  1  0.36870976  0.36870976  0.00000000  1
  Ge  Ge1  1  0.63129024  0.63129024  -0.00000000  1
  Ir  Ir0  1  0.25000000  0.75000000  0.50000000  1
  Ir  Ir1  1  0.75000000  0.25000000  0.50000000  1
loop_
_geom_bond_atom_site_label_1
_geom_bond_atom_site_label_2
_geom_bond_distance
_geom_bond_site_symmetry_2
Ge0 Ir0 2.462344 1_555
Ge0 Ir0 2.462344 1_544
Ge0 Ir1 2.462344 1_454
Ge0 Ir1 2.462344 1_555
Ge0 Ge1 2.836274 1_555
Ge0 Sr0 3.293792 1_554
Ge0 Sr0 3.293792 1_565
Ge0 Sr0 3.293792 1_655
Ge0 Sr0 3.293792 1_666
Ge1 Ir0 2.462344 1_554
Ge1 Ir1 2.462344 1_554
Ge1 Ir1 2.462344 1_565
Ge1 Ir0 2.462344 1_655
Ge1 Sr0 3.293792 1_565
Ge1 Sr0 3.293792 1_655
Ge1 Sr0 3.293792 1_666
Ge1 Sr0 3.293792 1_554
Ir0 Sr0 3.422142 1_555
Ir0 Sr0 3.422142 1_566
Ir0 Sr0 3.422142 1_565
Ir0 Sr0 3.422142 1_666
Ir1 Sr0 3.422142 1_555
Ir1 Sr0 3.422142 1_656
Ir1 Sr0 3.422142 1_666
Ir1 Sr0 3.422142 1_655
