# generated using pymatgen
data_RbHg3
_symmetry_space_group_name_H-M   'P 1'
_cell_length_a   7.42878092
_cell_length_b   7.42878182
_cell_length_c   5.52391976
_cell_angle_alpha   90.00000000
_cell_angle_beta   90.00000000
_cell_angle_gamma   119.99999601
_symmetry_Int_Tables_number   1
_chemical_formula_structural   RbHg3
_chemical_formula_sum   'Rb2 Hg6'
_cell_volume   264.00561558
_cell_formula_units_Z   2
loop_
 _symmetry_equiv_pos_site_id
 _symmetry_equiv_pos_as_xyz
  1  'x, y, z'
loop_
 _atom_site_type_symbol
 _atom_site_label
 _atom_site_symmetry_multiplicity
 _atom_site_fract_x
 _atom_site_fract_y
 _atom_site_fract_z
 _atom_site_occupancy
  Rb  Rb0  1  0.33333300  0.66666700  0.75000100  1
  Rb  Rb1  1  0.66666700  0.33333300  0.25000100  1
  Hg  Hg0  1  0.14639051  0.29278103  0.25000100  1
  Hg  Hg1  1  0.70721897  0.85360949  0.25000100  1
  Hg  Hg2  1  0.14639051  0.85360949  0.25000100  1
  Hg  Hg3  1  0.85360949  0.70721897  0.75000100  1
  Hg  Hg4  1  0.29278103  0.14639051  0.75000100  1
  Hg  Hg5  1  0.85360949  0.14639051  0.75000100  1
loop_
_geom_bond_atom_site_label_1
_geom_bond_atom_site_label_2
_geom_bond_distance
_geom_bond_site_symmetry_2
Hg0 Hg1 3.262510 1_445
Hg0 Hg2 3.262510 1_545
Hg0 Hg5 3.343114 1_455
Hg0 Hg5 3.343114 1_454
Hg0 Hg4 3.343114 1_555
Hg0 Hg4 3.343114 1_554
Hg0 Rb0 3.662564 1_555
Hg0 Rb0 3.662564 1_554
Hg0 Rb1 3.723538 1_455
Hg0 Rb1 3.723545 1_555
Hg1 Hg2 3.262509 1_655
Hg1 Hg3 3.343114 1_555
Hg1 Hg3 3.343114 1_554
Hg1 Hg5 3.343114 1_565
Hg1 Hg5 3.343114 1_564
Hg1 Rb0 3.662564 1_555
Hg1 Rb0 3.662564 1_554
Hg1 Rb1 3.723538 1_565
Hg1 Rb1 3.723546 1_555
Hg2 Hg3 3.343114 1_455
Hg2 Hg3 3.343114 1_454
Hg2 Hg4 3.343114 1_565
Hg2 Hg4 3.343114 1_564
Hg2 Rb0 3.662560 1_555
Hg2 Rb0 3.662560 1_554
Hg2 Rb1 3.723542 1_565
Hg2 Rb1 3.723542 1_455
Hg3 Hg4 3.262510 1_665
Hg3 Hg5 3.262510 1_565
Hg3 Rb1 3.662564 1_555
Hg3 Rb1 3.662564 1_556
Hg3 Rb0 3.723538 1_655
Hg3 Rb0 3.723545 1_555
Hg4 Hg5 3.262509 1_455
Hg4 Rb1 3.662564 1_555
Hg4 Rb1 3.662564 1_556
Hg4 Rb0 3.723538 1_545
Hg4 Rb0 3.723546 1_555
Hg5 Rb1 3.662560 1_555
Hg5 Rb1 3.662560 1_556
Hg5 Rb0 3.723542 1_545
Hg5 Rb0 3.723542 1_655
