# generated using pymatgen
data_Er2C3
_symmetry_space_group_name_H-M   'P 1'
_cell_length_a   7.05209163
_cell_length_b   7.05209163
_cell_length_c   7.05209163
_cell_angle_alpha   109.47122063
_cell_angle_beta   109.47122063
_cell_angle_gamma   109.47122063
_symmetry_Int_Tables_number   1
_chemical_formula_structural   Er2C3
_chemical_formula_sum   'Er8 C12'
_cell_volume   269.98022112
_cell_formula_units_Z   4
loop_
 _symmetry_equiv_pos_site_id
 _symmetry_equiv_pos_as_xyz
  1  'x, y, z'
loop_
 _atom_site_type_symbol
 _atom_site_label
 _atom_site_symmetry_multiplicity
 _atom_site_fract_x
 _atom_site_fract_y
 _atom_site_fract_z
 _atom_site_occupancy
  Er  Er0  1  0.50000000  0.00000000  0.60078700  1
  Er  Er1  1  0.10078700  0.50000000  0.00000000  1
  Er  Er2  1  0.39921300  0.39921300  0.39921300  1
  Er  Er3  1  0.00000000  0.10078700  0.50000000  1
  Er  Er4  1  0.89921300  0.89921300  0.89921300  1
  Er  Er5  1  0.00000000  0.60078700  0.50000000  1
  Er  Er6  1  0.60078700  0.50000000  0.00000000  1
  Er  Er7  1  0.50000000  0.00000000  0.10078700  1
  C  C0  1  0.79260400  0.25000000  0.04260400  1
  C  C1  1  0.95739600  0.25000000  0.20739600  1
  C  C2  1  0.75000000  0.29260400  0.54260400  1
  C  C3  1  0.20739600  0.95739600  0.25000000  1
  C  C4  1  0.25000000  0.20739600  0.95739600  1
  C  C5  1  0.29260400  0.54260400  0.75000000  1
  C  C6  1  0.70739600  0.75000000  0.45739600  1
  C  C7  1  0.04260400  0.79260400  0.25000000  1
  C  C8  1  0.54260400  0.75000000  0.29260400  1
  C  C9  1  0.75000000  0.45739600  0.70739600  1
  C  C10  1  0.25000000  0.04260400  0.79260400  1
  C  C11  1  0.45739600  0.70739600  0.75000000  1
loop_
_geom_bond_atom_site_label_1
_geom_bond_atom_site_label_2
_geom_bond_distance
_geom_bond_site_symmetry_2
C0 C1 1.341910 1_555
C0 Er1 2.481113 1_655
C0 Er7 2.481113 1_555
C0 Er0 2.588520 1_554
C0 Er6 2.588520 1_555
C1 Er5 2.481113 1_655
C1 Er4 2.481113 1_544
C1 Er3 2.588520 1_655
C1 Er2 2.588520 1_655
C2 C9 1.341910 1_555
C2 Er5 2.481113 1_655
C2 Er0 2.481113 1_555
C2 Er7 2.588520 1_555
C2 Er3 2.588520 1_655
C3 C7 1.341910 1_555
C3 Er0 2.481113 1_565
C3 Er4 2.481113 1_454
C3 Er7 2.588520 1_565
C3 Er2 2.588520 1_565
C4 Er6 2.481113 1_556
C4 Er4 2.481113 1_445
C4 Er1 2.588520 1_556
C4 Er2 2.588520 1_556
C5 Er5 2.481113 1_555
C5 Er6 2.481113 1_556
C5 Er1 2.588520 1_556
C5 Er3 2.588520 1_555
C6 C8 1.341910 1_555
C6 Er3 2.481113 1_665
C6 Er2 2.481113 1_555
C6 Er4 2.588520 1_555
C6 Er5 2.588520 1_655
C7 Er3 2.481113 1_565
C7 Er1 2.481113 1_555
C7 Er6 2.588520 1_455
C7 Er5 2.588520 1_555
C8 Er0 2.481113 1_565
C8 Er6 2.481113 1_555
C8 Er1 2.588520 1_555
C8 Er7 2.588520 1_565
C9 Er1 2.481113 1_656
C9 Er2 2.481113 1_555
C9 Er4 2.588520 1_555
C9 Er6 2.588520 1_556
C10 C4 1.341910 1_555
C10 Er7 2.481113 1_556
C10 Er3 2.481113 1_555
C10 Er5 2.588520 1_545
C10 Er0 2.588520 1_555
C11 C5 1.341910 1_555
C11 Er7 2.481113 1_566
C11 Er2 2.481113 1_555
C11 Er4 2.588520 1_555
C11 Er0 2.588520 1_565
