# generated using pymatgen
data_Pr
_symmetry_space_group_name_H-M   'P 1'
_cell_length_a   7.53094844
_cell_length_b   7.53094746
_cell_length_c   36.43365338
_cell_angle_alpha   90.00000000
_cell_angle_beta   90.00000000
_cell_angle_gamma   120.00002370
_symmetry_Int_Tables_number   1
_chemical_formula_structural   Pr
_chemical_formula_sum   Pr48
_cell_volume   1789.50345983
_cell_formula_units_Z   48
loop_
 _symmetry_equiv_pos_site_id
 _symmetry_equiv_pos_as_xyz
  1  'x, y, z'
loop_
 _atom_site_type_symbol
 _atom_site_label
 _atom_site_symmetry_multiplicity
 _atom_site_fract_x
 _atom_site_fract_y
 _atom_site_fract_z
 _atom_site_occupancy
  Pr  Pr0_0  1  0.49863341  0.33323947  0.45835955  1
  Pr  Pr0_1  1  0.49863341  0.33323947  0.95835955  1
  Pr  Pr0_2  1  0.49863341  0.83323947  0.45835955  1
  Pr  Pr0_3  1  0.49863341  0.83323947  0.95835955  1
  Pr  Pr0_4  1  0.99863341  0.33323947  0.45835955  1
  Pr  Pr0_5  1  0.99863341  0.33323947  0.95835955  1
  Pr  Pr0_6  1  0.99863341  0.83323947  0.45835955  1
  Pr  Pr0_7  1  0.99863341  0.83323947  0.95835955  1
  Pr  Pr1_0  1  0.16676054  0.16539345  0.12502605  1
  Pr  Pr1_1  1  0.16676054  0.16539345  0.62502605  1
  Pr  Pr1_2  1  0.16676053  0.66539344  0.12502605  1
  Pr  Pr1_3  1  0.16676053  0.66539344  0.62502605  1
  Pr  Pr1_4  1  0.66676053  0.16539345  0.12502605  1
  Pr  Pr1_5  1  0.66676053  0.16539345  0.62502605  1
  Pr  Pr1_6  1  0.66676053  0.66539344  0.12502605  1
  Pr  Pr1_7  1  0.66676053  0.66539344  0.62502605  1
  Pr  Pr2_0  1  0.33460656  0.00136659  0.29169256  1
  Pr  Pr2_1  1  0.33460656  0.00136659  0.79169256  1
  Pr  Pr2_2  1  0.33460656  0.50136659  0.29169256  1
  Pr  Pr2_3  1  0.33460656  0.50136659  0.79169256  1
  Pr  Pr2_4  1  0.83460656  0.00136659  0.29169256  1
  Pr  Pr2_5  1  0.83460656  0.00136659  0.79169256  1
  Pr  Pr2_6  1  0.83460656  0.50136659  0.29169256  1
  Pr  Pr2_7  1  0.83460656  0.50136659  0.79169256  1
  Pr  Pr3_0  1  0.00136659  0.33460656  0.20830745  1
  Pr  Pr3_1  1  0.00136659  0.33460656  0.70830744  1
  Pr  Pr3_2  1  0.00136659  0.83460656  0.20830745  1
  Pr  Pr3_3  1  0.00136659  0.83460656  0.70830744  1
  Pr  Pr3_4  1  0.50136659  0.33460656  0.20830745  1
  Pr  Pr3_5  1  0.50136659  0.33460656  0.70830744  1
  Pr  Pr3_6  1  0.50136659  0.83460656  0.20830745  1
  Pr  Pr3_7  1  0.50136659  0.83460656  0.70830744  1
  Pr  Pr4_0  1  0.33323947  0.49863341  0.04164044  1
  Pr  Pr4_1  1  0.33323947  0.49863341  0.54164044  1
  Pr  Pr4_2  1  0.33323947  0.99863341  0.04164044  1
  Pr  Pr4_3  1  0.33323947  0.99863341  0.54164044  1
  Pr  Pr4_4  1  0.83323947  0.49863341  0.04164044  1
  Pr  Pr4_5  1  0.83323947  0.49863341  0.54164044  1
  Pr  Pr4_6  1  0.83323947  0.99863341  0.04164044  1
  Pr  Pr4_7  1  0.83323947  0.99863341  0.54164044  1
  Pr  Pr5_0  1  0.16539345  0.16676054  0.37497394  1
  Pr  Pr5_1  1  0.16539345  0.16676054  0.87497394  1
  Pr  Pr5_2  1  0.16539345  0.66676054  0.37497394  1
  Pr  Pr5_3  1  0.16539345  0.66676054  0.87497394  1
  Pr  Pr5_4  1  0.66539345  0.16676054  0.37497394  1
  Pr  Pr5_5  1  0.66539345  0.16676054  0.87497394  1
  Pr  Pr5_6  1  0.66539344  0.66676053  0.37497394  1
  Pr  Pr5_7  1  0.66539344  0.66676053  0.87497394  1
loop_
_geom_bond_atom_site_label_1
_geom_bond_atom_site_label_2
_geom_bond_distance
_geom_bond_site_symmetry_2
Pr0_0 Pr4_1 3.723022 1_555
Pr0_0 Pr5_4 3.735411 1_555
Pr0_0 Pr5_0 3.735414 1_555
Pr0_0 Pr5_6 3.736481 1_555
Pr0_0 Pr4_3 3.737534 1_545
Pr0_0 Pr4_5 3.737534 1_555
Pr0_0 Pr0_6 3.765473 1_445
Pr0_0 Pr0_6 3.765473 1_555
Pr0_0 Pr0_2 3.765474 1_545
Pr0_0 Pr0_2 3.765474 1_555
Pr0_0 Pr0_4 3.765474 1_455
Pr0_0 Pr0_4 3.765474 1_555
Pr0_1 Pr4_0 3.723022 1_556
Pr0_1 Pr5_5 3.735411 1_555
Pr0_1 Pr5_1 3.735414 1_555
Pr0_1 Pr5_7 3.736481 1_555
Pr0_1 Pr4_2 3.737534 1_546
Pr0_1 Pr4_4 3.737534 1_556
Pr0_1 Pr0_7 3.765473 1_555
Pr0_1 Pr0_7 3.765473 1_445
Pr0_1 Pr0_3 3.765474 1_555
Pr0_1 Pr0_3 3.765474 1_545
Pr0_1 Pr0_5 3.765474 1_455
Pr0_1 Pr0_5 3.765474 1_555
Pr0_2 Pr4_3 3.723022 1_555
Pr0_2 Pr5_6 3.735411 1_555
Pr0_2 Pr5_2 3.735414 1_555
Pr0_2 Pr5_4 3.736481 1_565
Pr0_2 Pr4_1 3.737534 1_555
Pr0_2 Pr4_7 3.737534 1_555
Pr0_2 Pr0_4 3.765473 1_565
Pr0_2 Pr0_4 3.765473 1_455
Pr0_2 Pr0_6 3.765474 1_455
Pr0_2 Pr0_6 3.765474 1_555
Pr0_3 Pr4_2 3.723022 1_556
Pr0_3 Pr5_7 3.735411 1_555
Pr0_3 Pr5_3 3.735414 1_555
Pr0_3 Pr5_5 3.736481 1_565
Pr0_3 Pr4_0 3.737534 1_556
Pr0_3 Pr4_6 3.737534 1_556
Pr0_3 Pr0_5 3.765473 1_565
Pr0_3 Pr0_5 3.765473 1_455
Pr0_3 Pr0_7 3.765474 1_555
Pr0_3 Pr0_7 3.765474 1_455
Pr0_4 Pr4_5 3.723022 1_555
Pr0_4 Pr5_0 3.735411 1_655
Pr0_4 Pr5_4 3.735414 1_555
Pr0_4 Pr5_2 3.736481 1_655
Pr0_4 Pr4_7 3.737534 1_545
Pr0_4 Pr4_1 3.737534 1_655
Pr0_4 Pr0_6 3.765474 1_545
Pr0_4 Pr0_6 3.765474 1_555
Pr0_5 Pr4_4 3.723022 1_556
Pr0_5 Pr5_1 3.735411 1_655
Pr0_5 Pr5_5 3.735414 1_555
Pr0_5 Pr5_3 3.736481 1_655
Pr0_5 Pr4_6 3.737534 1_546
Pr0_5 Pr4_0 3.737534 1_656
Pr0_5 Pr0_7 3.765474 1_545
Pr0_5 Pr0_7 3.765474 1_555
Pr0_6 Pr4_7 3.723022 1_555
Pr0_6 Pr5_2 3.735411 1_655
Pr0_6 Pr5_6 3.735414 1_555
Pr0_6 Pr5_0 3.736481 1_665
Pr0_6 Pr4_5 3.737534 1_555
Pr0_6 Pr4_3 3.737534 1_655
Pr0_7 Pr4_6 3.723022 1_556
Pr0_7 Pr5_3 3.735411 1_655
Pr0_7 Pr5_7 3.735414 1_555
Pr0_7 Pr5_1 3.736481 1_665
Pr0_7 Pr4_4 3.737534 1_556
Pr0_7 Pr4_2 3.737534 1_656
Pr1_0 Pr3_2 3.723033 1_545
Pr1_0 Pr4_2 3.735411 1_545
Pr1_0 Pr4_0 3.735414 1_555
Pr1_0 Pr4_6 3.736481 1_445
Pr1_0 Pr3_4 3.737549 1_555
Pr1_0 Pr3_0 3.737553 1_555
Pr1_0 Pr1_6 3.765473 1_445
Pr1_0 Pr1_6 3.765473 1_555
Pr1_0 Pr1_2 3.765474 1_545
Pr1_0 Pr1_2 3.765474 1_555
Pr1_0 Pr1_4 3.765474 1_455
Pr1_0 Pr1_4 3.765474 1_555
Pr1_1 Pr3_3 3.723033 1_545
Pr1_1 Pr4_3 3.735411 1_545
Pr1_1 Pr4_1 3.735414 1_555
Pr1_1 Pr4_7 3.736481 1_445
Pr1_1 Pr3_5 3.737549 1_555
Pr1_1 Pr3_1 3.737553 1_555
Pr1_1 Pr1_7 3.765473 1_555
Pr1_1 Pr1_7 3.765473 1_445
Pr1_1 Pr1_3 3.765474 1_545
Pr1_1 Pr1_3 3.765474 1_555
Pr1_1 Pr1_5 3.765474 1_455
Pr1_1 Pr1_5 3.765474 1_555
Pr1_2 Pr3_0 3.723033 1_555
Pr1_2 Pr4_0 3.735411 1_555
Pr1_2 Pr4_2 3.735414 1_555
Pr1_2 Pr4_4 3.736481 1_455
Pr1_2 Pr3_6 3.737549 1_555
Pr1_2 Pr3_2 3.737553 1_555
Pr1_2 Pr1_4 3.765473 1_455
Pr1_2 Pr1_4 3.765473 1_565
Pr1_2 Pr1_6 3.765474 1_455
Pr1_2 Pr1_6 3.765474 1_555
Pr1_3 Pr3_1 3.723033 1_555
Pr1_3 Pr4_1 3.735411 1_555
Pr1_3 Pr4_3 3.735414 1_555
Pr1_3 Pr4_5 3.736481 1_455
Pr1_3 Pr3_7 3.737549 1_555
Pr1_3 Pr3_3 3.737553 1_555
Pr1_3 Pr1_5 3.765473 1_455
Pr1_3 Pr1_5 3.765473 1_565
Pr1_3 Pr1_7 3.765474 1_555
Pr1_3 Pr1_7 3.765474 1_455
Pr1_4 Pr3_6 3.723033 1_545
Pr1_4 Pr4_6 3.735411 1_545
Pr1_4 Pr4_4 3.735414 1_555
Pr1_4 Pr4_2 3.736481 1_545
Pr1_4 Pr3_0 3.737549 1_655
Pr1_4 Pr3_4 3.737553 1_555
Pr1_4 Pr1_6 3.765474 1_555
Pr1_4 Pr1_6 3.765474 1_545
Pr1_5 Pr3_7 3.723033 1_545
Pr1_5 Pr4_7 3.735411 1_545
Pr1_5 Pr4_5 3.735414 1_555
Pr1_5 Pr4_3 3.736481 1_545
Pr1_5 Pr3_1 3.737549 1_655
Pr1_5 Pr3_5 3.737553 1_555
Pr1_5 Pr1_7 3.765474 1_555
Pr1_5 Pr1_7 3.765474 1_545
Pr1_6 Pr3_4 3.723033 1_555
Pr1_6 Pr4_4 3.735411 1_555
Pr1_6 Pr4_6 3.735414 1_555
Pr1_6 Pr4_0 3.736481 1_555
Pr1_6 Pr3_2 3.737549 1_655
Pr1_6 Pr3_6 3.737553 1_555
Pr1_7 Pr3_5 3.723033 1_555
Pr1_7 Pr4_5 3.735411 1_555
Pr1_7 Pr4_7 3.735414 1_555
Pr1_7 Pr4_1 3.736481 1_555
Pr1_7 Pr3_3 3.737549 1_655
Pr1_7 Pr3_7 3.737553 1_555
Pr2_0 Pr5_4 3.723033 1_555
Pr2_0 Pr3_4 3.735399 1_555
Pr2_0 Pr3_2 3.735399 1_545
Pr2_0 Pr3_6 3.736463 1_545
Pr2_0 Pr5_2 3.737549 1_545
Pr2_0 Pr5_0 3.737553 1_555
Pr2_0 Pr2_6 3.765473 1_445
Pr2_0 Pr2_6 3.765473 1_555
Pr2_0 Pr2_2 3.765474 1_545
Pr2_0 Pr2_2 3.765474 1_555
Pr2_0 Pr2_4 3.765474 1_455
Pr2_0 Pr2_4 3.765474 1_555
Pr2_1 Pr5_5 3.723033 1_555
Pr2_1 Pr3_5 3.735399 1_555
Pr2_1 Pr3_3 3.735399 1_545
Pr2_1 Pr3_7 3.736463 1_545
Pr2_1 Pr5_3 3.737549 1_545
Pr2_1 Pr5_1 3.737553 1_555
Pr2_1 Pr2_7 3.765473 1_445
Pr2_1 Pr2_7 3.765473 1_555
Pr2_1 Pr2_3 3.765474 1_545
Pr2_1 Pr2_3 3.765474 1_555
Pr2_1 Pr2_5 3.765474 1_455
Pr2_1 Pr2_5 3.765474 1_555
Pr2_2 Pr5_6 3.723033 1_555
Pr2_2 Pr3_6 3.735399 1_555
Pr2_2 Pr3_0 3.735399 1_555
Pr2_2 Pr3_4 3.736463 1_555
Pr2_2 Pr5_0 3.737549 1_555
Pr2_2 Pr5_2 3.737553 1_555
Pr2_2 Pr2_4 3.765473 1_455
Pr2_2 Pr2_4 3.765473 1_565
Pr2_2 Pr2_6 3.765474 1_455
Pr2_2 Pr2_6 3.765474 1_555
Pr2_3 Pr5_7 3.723033 1_555
Pr2_3 Pr3_7 3.735399 1_555
Pr2_3 Pr3_1 3.735399 1_555
Pr2_3 Pr3_5 3.736463 1_555
Pr2_3 Pr5_1 3.737549 1_555
Pr2_3 Pr5_3 3.737553 1_555
Pr2_3 Pr2_5 3.765473 1_455
Pr2_3 Pr2_5 3.765473 1_565
Pr2_3 Pr2_7 3.765474 1_455
Pr2_3 Pr2_7 3.765474 1_555
Pr2_4 Pr5_0 3.723033 1_655
Pr2_4 Pr3_0 3.735399 1_655
Pr2_4 Pr3_6 3.735399 1_545
Pr2_4 Pr3_2 3.736463 1_645
Pr2_4 Pr5_6 3.737549 1_545
Pr2_4 Pr5_4 3.737553 1_555
Pr2_4 Pr2_6 3.765474 1_545
Pr2_4 Pr2_6 3.765474 1_555
Pr2_5 Pr5_1 3.723033 1_655
Pr2_5 Pr3_1 3.735399 1_655
Pr2_5 Pr3_7 3.735399 1_545
Pr2_5 Pr3_3 3.736463 1_645
Pr2_5 Pr5_7 3.737549 1_545
Pr2_5 Pr5_5 3.737553 1_555
Pr2_5 Pr2_7 3.765474 1_545
Pr2_5 Pr2_7 3.765474 1_555
Pr2_6 Pr5_2 3.723033 1_655
Pr2_6 Pr3_2 3.735399 1_655
Pr2_6 Pr3_4 3.735399 1_555
Pr2_6 Pr3_0 3.736463 1_655
Pr2_6 Pr5_4 3.737549 1_555
Pr2_6 Pr5_6 3.737553 1_555
Pr2_7 Pr5_3 3.723033 1_655
Pr2_7 Pr3_3 3.735399 1_655
Pr2_7 Pr3_5 3.735399 1_555
Pr2_7 Pr3_1 3.736463 1_655
Pr2_7 Pr5_5 3.737549 1_555
Pr2_7 Pr5_7 3.737553 1_555
Pr3_0 Pr3_6 3.765473 1_445
Pr3_0 Pr3_6 3.765473 1_555
Pr3_0 Pr3_2 3.765474 1_555
Pr3_0 Pr3_2 3.765474 1_545
Pr3_0 Pr3_4 3.765474 1_555
Pr3_0 Pr3_4 3.765474 1_455
Pr3_1 Pr3_7 3.765473 1_445
Pr3_1 Pr3_7 3.765473 1_555
Pr3_1 Pr3_3 3.765474 1_545
Pr3_1 Pr3_3 3.765474 1_555
Pr3_1 Pr3_5 3.765474 1_555
Pr3_1 Pr3_5 3.765474 1_455
Pr3_2 Pr3_4 3.765473 1_455
Pr3_2 Pr3_4 3.765473 1_565
Pr3_2 Pr3_6 3.765474 1_455
Pr3_2 Pr3_6 3.765474 1_555
Pr3_3 Pr3_5 3.765473 1_455
Pr3_3 Pr3_5 3.765473 1_565
Pr3_3 Pr3_7 3.765474 1_455
Pr3_3 Pr3_7 3.765474 1_555
Pr3_4 Pr3_6 3.765474 1_545
Pr3_4 Pr3_6 3.765474 1_555
Pr3_5 Pr3_7 3.765474 1_545
Pr3_5 Pr3_7 3.765474 1_555
Pr4_0 Pr4_6 3.765473 1_445
Pr4_0 Pr4_6 3.765473 1_555
Pr4_0 Pr4_2 3.765474 1_545
Pr4_0 Pr4_2 3.765474 1_555
Pr4_0 Pr4_4 3.765474 1_455
Pr4_0 Pr4_4 3.765474 1_555
Pr4_1 Pr4_7 3.765473 1_445
Pr4_1 Pr4_7 3.765473 1_555
Pr4_1 Pr4_3 3.765474 1_545
Pr4_1 Pr4_3 3.765474 1_555
Pr4_1 Pr4_5 3.765474 1_455
Pr4_1 Pr4_5 3.765474 1_555
Pr4_2 Pr4_4 3.765473 1_565
Pr4_2 Pr4_4 3.765473 1_455
Pr4_2 Pr4_6 3.765474 1_455
Pr4_2 Pr4_6 3.765474 1_555
Pr4_3 Pr4_5 3.765473 1_565
Pr4_3 Pr4_5 3.765473 1_455
Pr4_3 Pr4_7 3.765474 1_455
Pr4_3 Pr4_7 3.765474 1_555
Pr4_4 Pr4_6 3.765474 1_545
Pr4_4 Pr4_6 3.765474 1_555
Pr4_5 Pr4_7 3.765474 1_555
Pr4_5 Pr4_7 3.765474 1_545
Pr5_0 Pr5_6 3.765473 1_445
Pr5_0 Pr5_6 3.765473 1_555
Pr5_0 Pr5_2 3.765474 1_545
Pr5_0 Pr5_2 3.765474 1_555
Pr5_0 Pr5_4 3.765474 1_455
Pr5_0 Pr5_4 3.765474 1_555
Pr5_1 Pr5_7 3.765473 1_555
Pr5_1 Pr5_7 3.765473 1_445
Pr5_1 Pr5_3 3.765474 1_545
Pr5_1 Pr5_3 3.765474 1_555
Pr5_1 Pr5_5 3.765474 1_455
Pr5_1 Pr5_5 3.765474 1_555
Pr5_2 Pr5_4 3.765473 1_565
Pr5_2 Pr5_4 3.765473 1_455
Pr5_2 Pr5_6 3.765474 1_455
Pr5_2 Pr5_6 3.765474 1_555
Pr5_3 Pr5_5 3.765473 1_565
Pr5_3 Pr5_5 3.765473 1_455
Pr5_3 Pr5_7 3.765474 1_455
Pr5_3 Pr5_7 3.765474 1_555
Pr5_4 Pr5_6 3.765474 1_545
Pr5_4 Pr5_6 3.765474 1_555
Pr5_5 Pr5_7 3.765474 1_545
Pr5_5 Pr5_7 3.765474 1_555
