# generated using pymatgen
data_Nd3Ho
_symmetry_space_group_name_H-M   'P 1'
_cell_length_a   5.15223511
_cell_length_b   5.15054020
_cell_length_c   5.15454469
_cell_angle_alpha   90.00378825
_cell_angle_beta   90.02565913
_cell_angle_gamma   89.99812716
_symmetry_Int_Tables_number   1
_chemical_formula_structural   Nd3Ho
_chemical_formula_sum   'Nd3 Ho1'
_cell_volume   136.78507694
_cell_formula_units_Z   1
loop_
 _symmetry_equiv_pos_site_id
 _symmetry_equiv_pos_as_xyz
  1  'x, y, z'
loop_
 _atom_site_type_symbol
 _atom_site_label
 _atom_site_symmetry_multiplicity
 _atom_site_fract_x
 _atom_site_fract_y
 _atom_site_fract_z
 _atom_site_occupancy
  Nd  Nd0  1  0.99992022  0.50014091  0.50000204  1
  Nd  Nd1  1  0.50001609  0.00012040  0.50004560  1
  Nd  Nd2  1  0.50010002  0.50011181  0.99999502  1
  Ho  Ho0  1  0.99996067  0.99962588  0.99995634  1
loop_
_geom_bond_atom_site_label_1
_geom_bond_atom_site_label_2
_geom_bond_distance
_geom_bond_site_symmetry_2
Nd0 Nd1 3.642098 1_565
Nd0 Nd1 3.642366 1_555
Nd0 Nd2 3.642552 1_554
Nd0 Nd1 3.642915 1_665
Nd0 Nd1 3.642946 1_655
Nd0 Nd2 3.643810 1_655
Nd0 Nd2 3.644132 1_555
Nd0 Nd2 3.645494 1_654
Nd1 Nd2 3.643062 1_555
Nd1 Nd2 3.643365 1_545
Nd1 Nd2 3.643493 1_544
Nd1 Nd2 3.643672 1_554
Ho0 Nd2 3.640364 1_555
Ho0 Nd0 3.641236 1_555
Ho0 Nd2 3.641261 1_655
Ho0 Nd0 3.641811 1_556
Ho0 Nd1 3.642655 1_565
Ho0 Nd1 3.643709 1_666
Ho0 Nd2 3.643784 1_565
Ho0 Nd1 3.644690 1_665
Ho0 Nd2 3.644918 1_665
Ho0 Nd1 3.644937 1_566
Ho0 Nd0 3.645227 1_565
Ho0 Nd0 3.645320 1_566
