# generated using pymatgen
data_Sc9Ni5Ge8
_symmetry_space_group_name_H-M   'P 1'
_cell_length_a   11.59931793
_cell_length_b   11.59931793
_cell_length_c   11.59931793
_cell_angle_alpha   160.52948716
_cell_angle_beta   133.95113754
_cell_angle_gamma   50.44208816
_symmetry_Int_Tables_number   1
_chemical_formula_structural   Sc9Ni5Ge8
_chemical_formula_sum   'Sc9 Ni5 Ge8'
_cell_volume   373.50369808
_cell_formula_units_Z   1
loop_
 _symmetry_equiv_pos_site_id
 _symmetry_equiv_pos_as_xyz
  1  'x, y, z'
loop_
 _atom_site_type_symbol
 _atom_site_label
 _atom_site_symmetry_multiplicity
 _atom_site_fract_x
 _atom_site_fract_y
 _atom_site_fract_z
 _atom_site_occupancy
  Sc  Sc0  1  0.88987000  0.08450500  0.80536500  1
  Sc  Sc1  1  0.77156100  0.77156100  0.00000000  1
  Sc  Sc2  1  0.27914100  0.08450500  0.19463500  1
  Sc  Sc3  1  0.39164100  0.39164100  0.00000000  1
  Sc  Sc4  1  0.11013000  0.91549500  0.19463500  1
  Sc  Sc5  1  0.72085900  0.91549500  0.80536500  1
  Sc  Sc6  1  0.60835900  0.60835900  0.00000000  1
  Sc  Sc7  1  0.22843900  0.22843900  0.00000000  1
  Sc  Sc8  1  0.00000000  0.50000000  0.50000000  1
  Ni  Ni0  1  0.96975500  0.69484400  0.27491200  1
  Ni  Ni1  1  0.03024500  0.30515600  0.72508800  1
  Ni  Ni2  1  0.41993200  0.69484400  0.72508800  1
  Ni  Ni3  1  0.49747200  0.99747200  0.50000000  1
  Ni  Ni4  1  0.58006800  0.30515600  0.27491200  1
  Ge  Ge0  1  0.55277400  0.19059600  0.36217700  1
  Ge  Ge1  1  0.68727000  0.50000000  0.18727000  1
  Ge  Ge2  1  0.13285300  0.63285300  0.50000000  1
  Ge  Ge3  1  0.17158100  0.80940400  0.36217700  1
  Ge  Ge4  1  0.31273000  0.50000000  0.81273000  1
  Ge  Ge5  1  0.44722600  0.80940400  0.63782300  1
  Ge  Ge6  1  0.86714700  0.36714700  0.50000000  1
  Ge  Ge7  1  0.82841900  0.19059600  0.63782300  1
loop_
_geom_bond_atom_site_label_1
_geom_bond_atom_site_label_2
_geom_bond_distance
_geom_bond_site_symmetry_2
Ni0 Sc7 2.918113 1_666
Ni0 Sc7 2.918116 1_655
Ni0 Sc1 2.968919 1_555
Ni0 Sc0 3.047267 1_565
Ni0 Sc0 3.047269 1_554
Ni0 Sc6 3.084894 1_555
Ni1 Sc1 2.918113 1_445
Ni1 Sc1 2.918116 1_456
Ni1 Sc7 2.968919 1_556
Ni1 Sc4 3.047267 1_545
Ni1 Sc4 3.047269 1_556
Ni1 Sc3 3.084894 1_556
Ni2 Sc7 2.918109 1_555
Ni2 Sc7 2.918109 1_566
Ni2 Sc1 2.968917 1_556
Ni2 Sc2 3.047266 1_566
Ni2 Sc2 3.047268 1_555
Ni2 Sc6 3.084904 1_556
Ni3 Sc3 2.963159 1_555
Ni3 Sc3 2.963159 1_566
Ni3 Sc6 3.043507 1_555
Ni3 Sc6 3.043507 1_566
Ni3 Sc4 3.261439 1_555
Ni3 Sc5 3.261441 1_555
Ni3 Sc0 3.318639 1_565
Ni3 Sc2 3.318641 1_565
Ni4 Sc1 2.918109 1_556
Ni4 Sc1 2.918109 1_545
Ni4 Sc7 2.968917 1_555
Ni4 Sc5 3.047266 1_544
Ni4 Sc5 3.047268 1_555
Ni4 Sc3 3.084904 1_555
Ge0 Ni2 2.324278 1_544
Ge0 Ni2 2.324282 1_555
Ge0 Ge7 2.501079 1_555
Ge0 Ni4 2.531303 1_555
Ge0 Sc2 2.696016 1_555
Ge0 Sc1 2.880666 1_545
Ge0 Sc1 2.880668 1_556
Ge0 Sc6 2.896505 1_545
Ge0 Sc6 2.896508 1_556
Ge1 Ni3 2.595607 1_555
Ge1 Ni3 2.595607 1_544
Ge1 Sc8 2.837566 1_655
Ge1 Sc6 2.838840 1_555
Ge1 Sc3 2.838840 1_555
Ge1 Sc0 2.853180 1_565
Ge1 Sc0 2.853180 1_554
Ge1 Sc5 2.853183 1_544
Ge1 Sc5 2.853186 1_555
Ge2 Ni0 2.421527 1_455
Ge2 Ni2 2.421529 1_555
Ge2 Sc8 2.788202 1_555
Ge2 Sc7 2.805604 1_555
Ge2 Sc7 2.805604 1_566
Ge2 Sc2 2.827632 1_566
Ge2 Sc0 2.827635 1_454
Ge2 Sc0 2.827635 1_465
Ge2 Sc2 2.827635 1_555
Ge3 Ni1 2.324274 1_565
Ge3 Ni1 2.324277 1_554
Ge3 Ge5 2.501079 1_555
Ge3 Ni0 2.531323 1_455
Ge3 Sc4 2.696016 1_555
Ge3 Sc7 2.880675 1_555
Ge3 Sc7 2.880675 1_566
Ge3 Sc3 2.896502 1_566
Ge3 Sc3 2.896502 1_555
Ge4 Ni3 2.595607 1_556
Ge4 Ni3 2.595607 1_545
Ge4 Sc8 2.837566 1_555
Ge4 Sc6 2.838840 1_556
Ge4 Sc3 2.838840 1_556
Ge4 Sc4 2.853180 1_556
Ge4 Sc4 2.853180 1_545
Ge4 Sc2 2.853183 1_566
Ge4 Sc2 2.853186 1_555
Ge5 Ni4 2.324278 1_566
Ge5 Ni4 2.324282 1_555
Ge5 Ni2 2.531303 1_555
Ge5 Sc5 2.696016 1_555
Ge5 Sc7 2.880666 1_566
Ge5 Sc7 2.880668 1_555
Ge5 Sc3 2.896505 1_566
Ge5 Sc3 2.896508 1_555
Ge6 Ni1 2.421527 1_655
Ge6 Ni4 2.421529 1_555
Ge6 Sc8 2.788202 1_655
Ge6 Sc1 2.805604 1_556
Ge6 Sc1 2.805604 1_545
Ge6 Sc5 2.827632 1_544
Ge6 Sc4 2.827635 1_656
Ge6 Sc4 2.827635 1_645
Ge6 Sc5 2.827635 1_555
Ge7 Ni0 2.324274 1_545
Ge7 Ni0 2.324277 1_556
Ge7 Ni1 2.531323 1_655
Ge7 Sc0 2.696016 1_555
Ge7 Sc1 2.880675 1_556
Ge7 Sc1 2.880675 1_545
Ge7 Sc6 2.896502 1_545
Ge7 Sc6 2.896502 1_556
