# generated using pymatgen
data_ZrGeRu2
_symmetry_space_group_name_H-M   'P 1'
_cell_length_a   4.41871535
_cell_length_b   4.41871535
_cell_length_c   4.41871535
_cell_angle_alpha   60.00000000
_cell_angle_beta   60.00000000
_cell_angle_gamma   60.00000000
_symmetry_Int_Tables_number   1
_chemical_formula_structural   ZrGeRu2
_chemical_formula_sum   'Zr1 Ge1 Ru2'
_cell_volume   61.00607435
_cell_formula_units_Z   1
loop_
 _symmetry_equiv_pos_site_id
 _symmetry_equiv_pos_as_xyz
  1  'x, y, z'
loop_
 _atom_site_type_symbol
 _atom_site_label
 _atom_site_symmetry_multiplicity
 _atom_site_fract_x
 _atom_site_fract_y
 _atom_site_fract_z
 _atom_site_occupancy
  Zr  Zr0  1  0.74999900  0.74999900  0.74999900  1
  Ge  Ge0  1  0.24999900  0.24999900  0.24999900  1
  Ru  Ru0  1  0.00000000  -0.00000000  0.00000000  1
  Ru  Ru1  1  0.50000000  0.50000000  0.50000000  1
loop_
_geom_bond_atom_site_label_1
_geom_bond_atom_site_label_2
_geom_bond_distance
_geom_bond_site_symmetry_2
Ge0 Ru0 2.705889 1_555
Ge0 Ru1 2.705896 1_455
Ge0 Ru1 2.705896 1_545
Ge0 Ru1 2.705896 1_554
Ge0 Ru0 2.705903 1_556
Ge0 Ru0 2.705903 1_565
Ge0 Ru0 2.705903 1_655
Ge0 Ru1 2.705910 1_555
Ge0 Zr0 3.124504 1_445
Ge0 Zr0 3.124504 1_545
Ge0 Zr0 3.124504 1_455
Ge0 Zr0 3.124504 1_554
Ge0 Zr0 3.124504 1_544
Ge0 Zr0 3.124504 1_454
Ru0 Zr0 2.705896 1_454
Ru0 Zr0 2.705896 1_544
Ru0 Zr0 2.705896 1_445
Ru0 Zr0 2.705910 1_444
Ru1 Zr0 2.705889 1_555
Ru1 Zr0 2.705903 1_455
Ru1 Zr0 2.705903 1_554
Ru1 Zr0 2.705903 1_545
