# generated using pymatgen
data_Th3B
_symmetry_space_group_name_H-M   'P 1'
_cell_length_a   4.66091200
_cell_length_b   4.66091200
_cell_length_c   4.66091200
_cell_angle_alpha   90.00000000
_cell_angle_beta   90.00000000
_cell_angle_gamma   90.00000000
_symmetry_Int_Tables_number   1
_chemical_formula_structural   Th3B
_chemical_formula_sum   'Th3 B1'
_cell_volume   101.25412151
_cell_formula_units_Z   1
loop_
 _symmetry_equiv_pos_site_id
 _symmetry_equiv_pos_as_xyz
  1  'x, y, z'
loop_
 _atom_site_type_symbol
 _atom_site_label
 _atom_site_symmetry_multiplicity
 _atom_site_fract_x
 _atom_site_fract_y
 _atom_site_fract_z
 _atom_site_occupancy
  Th  Th0  1  0.00000000  0.50000000  0.50000000  1
  Th  Th1  1  0.50000000  0.00000000  0.50000000  1
  Th  Th2  1  0.50000000  0.50000000  0.00000000  1
  B  B0  1  0.00000000  0.00000000  0.00000000  1
loop_
_geom_bond_atom_site_label_1
_geom_bond_atom_site_label_2
_geom_bond_distance
_geom_bond_site_symmetry_2
Th0 Th2 3.295762 1_455
Th0 Th2 3.295762 1_456
Th0 Th1 3.295762 1_565
Th0 Th1 3.295762 1_555
Th0 Th2 3.295762 1_555
Th0 Th1 3.295762 1_465
Th0 Th2 3.295762 1_556
Th0 Th1 3.295762 1_455
Th1 Th2 3.295762 1_555
Th1 Th2 3.295762 1_545
Th1 Th2 3.295762 1_556
Th1 Th2 3.295762 1_546
B0 Th0 3.295762 1_544
B0 Th1 3.295762 1_454
B0 Th2 3.295762 1_455
B0 Th1 3.295762 1_555
B0 Th0 3.295762 1_554
B0 Th2 3.295762 1_445
B0 Th2 3.295762 1_555
B0 Th2 3.295762 1_545
B0 Th1 3.295762 1_554
B0 Th1 3.295762 1_455
B0 Th0 3.295762 1_555
B0 Th0 3.295762 1_545
