# generated using pymatgen
data_Sr(GePd)2
_symmetry_space_group_name_H-M   'P 1'
_cell_length_a   6.00965842
_cell_length_b   6.00965842
_cell_length_c   6.00965842
_cell_angle_alpha   137.03202457
_cell_angle_beta   137.03202457
_cell_angle_gamma   62.38878056
_symmetry_Int_Tables_number   1
_chemical_formula_structural   Sr(GePd)2
_chemical_formula_sum   'Sr1 Ge2 Pd2'
_cell_volume   99.61404619
_cell_formula_units_Z   1
loop_
 _symmetry_equiv_pos_site_id
 _symmetry_equiv_pos_as_xyz
  1  'x, y, z'
loop_
 _atom_site_type_symbol
 _atom_site_label
 _atom_site_symmetry_multiplicity
 _atom_site_fract_x
 _atom_site_fract_y
 _atom_site_fract_z
 _atom_site_occupancy
  Sr  Sr0  1  0.00000000  0.00000000  -0.00000000  1
  Ge  Ge0  1  0.62971105  0.62971105  0.00000000  1
  Ge  Ge1  1  0.37028795  0.37028795  0.00000000  1
  Pd  Pd0  1  0.25000100  0.75000300  0.50000200  1
  Pd  Pd1  1  0.75000300  0.25000100  0.50000200  1
loop_
_geom_bond_atom_site_label_1
_geom_bond_atom_site_label_2
_geom_bond_distance
_geom_bond_site_symmetry_2
Ge0 Pd1 2.524661 1_565
Ge0 Pd1 2.524661 1_554
Ge0 Pd0 2.524661 1_655
Ge0 Pd0 2.524661 1_554
Ge0 Ge1 2.667260 1_555
Ge0 Sr0 3.386328 1_554
Ge0 Sr0 3.386328 1_565
Ge0 Sr0 3.386328 1_666
Ge0 Sr0 3.386328 1_655
Ge1 Pd0 2.524638 1_544
Ge1 Pd1 2.524638 1_454
Ge1 Pd0 2.524653 1_555
Ge1 Pd1 2.524653 1_555
Ge1 Sr0 3.386332 1_554
Ge1 Sr0 3.386332 1_565
Ge1 Sr0 3.386332 1_666
Ge1 Sr0 3.386332 1_655
Pd0 Sr0 3.383949 1_666
Pd0 Sr0 3.383949 1_565
Pd0 Sr0 3.383959 1_566
Pd0 Sr0 3.383971 1_555
Pd1 Sr0 3.383949 1_655
Pd1 Sr0 3.383949 1_666
Pd1 Sr0 3.383959 1_656
Pd1 Sr0 3.383971 1_555
