# generated using pymatgen
data_LiCaAs
_symmetry_space_group_name_H-M   'P 1'
_cell_length_a   4.72466689
_cell_length_b   4.72466689
_cell_length_c   4.72466689
_cell_angle_alpha   60.00000000
_cell_angle_beta   60.00000000
_cell_angle_gamma   60.00000000
_symmetry_Int_Tables_number   1
_chemical_formula_structural   LiCaAs
_chemical_formula_sum   'Li1 Ca1 As1'
_cell_volume   74.57591423
_cell_formula_units_Z   1
loop_
 _symmetry_equiv_pos_site_id
 _symmetry_equiv_pos_as_xyz
  1  'x, y, z'
loop_
 _atom_site_type_symbol
 _atom_site_label
 _atom_site_symmetry_multiplicity
 _atom_site_fract_x
 _atom_site_fract_y
 _atom_site_fract_z
 _atom_site_occupancy
  Li  Li0  1  0.50000000  0.50000000  0.50000000  1
  Ca  Ca0  1  0.00000000  0.00000000  0.00000000  1
  As  As0  1  0.25000000  0.25000000  0.25000000  1
loop_
_geom_bond_atom_site_label_1
_geom_bond_atom_site_label_2
_geom_bond_distance
_geom_bond_site_symmetry_2
As0 Li0 2.893256 1_455
As0 Li0 2.893256 1_545
As0 Ca0 2.893256 1_655
As0 Ca0 2.893256 1_565
As0 Li0 2.893256 1_554
As0 Ca0 2.893256 1_556
As0 Ca0 2.893256 1_555
As0 Li0 2.893256 1_555
