# generated using pymatgen
data_CuAgF3
_symmetry_space_group_name_H-M   'P 1'
_cell_length_a   5.51326249
_cell_length_b   5.51326249
_cell_length_c   5.51326279
_cell_angle_alpha   60.93619720
_cell_angle_beta   60.93619720
_cell_angle_gamma   60.93618287
_symmetry_Int_Tables_number   1
_chemical_formula_structural   CuAgF3
_chemical_formula_sum   'Cu2 Ag2 F6'
_cell_volume   120.99792185
_cell_formula_units_Z   2
loop_
 _symmetry_equiv_pos_site_id
 _symmetry_equiv_pos_as_xyz
  1  'x, y, z'
loop_
 _atom_site_type_symbol
 _atom_site_label
 _atom_site_symmetry_multiplicity
 _atom_site_fract_x
 _atom_site_fract_y
 _atom_site_fract_z
 _atom_site_occupancy
  Cu  Cu0  1  0.00000000  -0.00000000  0.00000000  1
  Cu  Cu1  1  0.50000000  0.50000000  0.50000000  1
  Ag  Ag0  1  0.25000000  0.25000000  0.25000000  1
  Ag  Ag1  1  0.75000000  0.75000000  0.75000000  1
  F  F0  1  0.81797095  0.25000000  0.68202905  1
  F  F1  1  0.68202905  0.81797095  0.25000000  1
  F  F2  1  0.25000000  0.68202905  0.81797095  1
  F  F3  1  0.31797095  0.18202905  0.75000000  1
  F  F4  1  0.18202905  0.75000000  0.31797095  1
  F  F5  1  0.75000000  0.31797095  0.18202905  1
loop_
_geom_bond_atom_site_label_1
_geom_bond_atom_site_label_2
_geom_bond_distance
_geom_bond_site_symmetry_2
Cu0 F5 1.999487 1_455
Cu0 F2 1.999487 1_544
Cu0 F4 1.999487 1_545
Cu0 F0 1.999487 1_454
Cu0 F3 1.999487 1_554
Cu0 F1 1.999487 1_445
Cu1 F0 1.999487 1_555
Cu1 F4 1.999487 1_555
Cu1 F5 1.999487 1_555
Cu1 F2 1.999487 1_555
Cu1 F3 1.999487 1_555
Cu1 F1 1.999487 1_555
Ag0 F1 2.415514 1_545
Ag0 F2 2.415515 1_554
Ag0 F0 2.415515 1_455
Ag1 F3 2.415514 1_565
Ag1 F5 2.415515 1_556
Ag1 F4 2.415515 1_655
