# generated using pymatgen
data_Cs2NaGaH6
_symmetry_space_group_name_H-M   'P 1'
_cell_length_a   6.08881164
_cell_length_b   6.08881164
_cell_length_c   6.08881164
_cell_angle_alpha   60.00000000
_cell_angle_beta   60.00000000
_cell_angle_gamma   60.00000000
_symmetry_Int_Tables_number   1
_chemical_formula_structural   Cs2NaGaH6
_chemical_formula_sum   'Cs2 Na1 Ga1 H6'
_cell_volume   159.61827744
_cell_formula_units_Z   1
loop_
 _symmetry_equiv_pos_site_id
 _symmetry_equiv_pos_as_xyz
  1  'x, y, z'
loop_
 _atom_site_type_symbol
 _atom_site_label
 _atom_site_symmetry_multiplicity
 _atom_site_fract_x
 _atom_site_fract_y
 _atom_site_fract_z
 _atom_site_occupancy
  Cs  Cs0  1  0.25000000  0.25000000  0.25000000  1
  Cs  Cs1  1  0.75000000  0.75000000  0.75000000  1
  Na  Na0  1  0.50000000  0.50000000  0.50000000  1
  Ga  Ga0  1  0.00000000  0.00000000  0.00000000  1
  H  H0  1  0.20987500  0.79012500  0.79012500  1
  H  H1  1  0.20987500  0.79012500  0.20987500  1
  H  H2  1  0.79012500  0.20987500  0.79012500  1
  H  H3  1  0.79012500  0.79012500  0.20987500  1
  H  H4  1  0.20987500  0.20987500  0.79012500  1
  H  H5  1  0.79012500  0.20987500  0.20987500  1
loop_
_geom_bond_atom_site_label_1
_geom_bond_atom_site_label_2
_geom_bond_distance
_geom_bond_site_symmetry_2
Cs0 H1 3.063949 1_555
Cs0 H4 3.063949 1_555
Cs0 H5 3.063949 1_555
Cs0 H3 3.063949 1_455
Cs0 H0 3.063949 1_554
Cs0 H3 3.063949 1_545
Cs0 H2 3.063949 1_455
Cs0 H0 3.063949 1_545
Cs0 H2 3.063949 1_554
Cs0 H5 3.063949 1_455
Cs0 H1 3.063949 1_545
Cs0 H4 3.063949 1_554
Cs1 H3 3.063949 1_556
Cs1 H0 3.063949 1_655
Cs1 H2 3.063949 1_565
Cs1 H4 3.063949 1_655
Cs1 H5 3.063949 1_556
Cs1 H4 3.063949 1_565
Cs1 H5 3.063949 1_565
Cs1 H1 3.063949 1_655
Cs1 H1 3.063949 1_556
Cs1 H3 3.063949 1_555
Cs1 H0 3.063949 1_555
Cs1 H2 3.063949 1_555
Ga0 H1 1.807208 1_545
Ga0 H5 1.807208 1_455
Ga0 H4 1.807208 1_554
Ga0 H0 1.807208 1_544
Ga0 H3 1.807208 1_445
Ga0 H2 1.807208 1_454
H0 Na0 2.498232 1_555
H1 Na0 2.498232 1_555
H2 Na0 2.498232 1_555
H3 Na0 2.498232 1_555
H4 Na0 2.498232 1_555
H5 Na0 2.498232 1_555
