# generated using pymatgen
data_Na2CdHg
_symmetry_space_group_name_H-M   'P 1'
_cell_length_a   5.21454320
_cell_length_b   5.21454320
_cell_length_c   5.21454320
_cell_angle_alpha   60.00000000
_cell_angle_beta   60.00000000
_cell_angle_gamma   60.00000000
_symmetry_Int_Tables_number   1
_chemical_formula_structural   Na2CdHg
_chemical_formula_sum   'Na2 Cd1 Hg1'
_cell_volume   100.26141100
_cell_formula_units_Z   1
loop_
 _symmetry_equiv_pos_site_id
 _symmetry_equiv_pos_as_xyz
  1  'x, y, z'
loop_
 _atom_site_type_symbol
 _atom_site_label
 _atom_site_symmetry_multiplicity
 _atom_site_fract_x
 _atom_site_fract_y
 _atom_site_fract_z
 _atom_site_occupancy
  Na  Na0  1  -0.00000000  0.00000000  0.00000000  1
  Na  Na1  1  0.50000000  0.50000000  0.50000000  1
  Cd  Cd0  1  0.25000000  0.25000000  0.25000000  1
  Hg  Hg0  1  0.74999900  0.74999900  0.74999900  1
loop_
_geom_bond_atom_site_label_1
_geom_bond_atom_site_label_2
_geom_bond_distance
_geom_bond_site_symmetry_2
Cd0 Na1 3.193243 1_455
Cd0 Na0 3.193243 1_565
Cd0 Na0 3.193243 1_555
Cd0 Na0 3.193243 1_655
Cd0 Na0 3.193243 1_556
Cd0 Na1 3.193243 1_554
Cd0 Na1 3.193243 1_545
Cd0 Na1 3.193243 1_555
Hg0 Na1 3.193230 1_555
Hg0 Na0 3.193238 1_665
Hg0 Na0 3.193238 1_566
Hg0 Na0 3.193238 1_656
Hg0 Na1 3.193247 1_556
Hg0 Na1 3.193247 1_565
Hg0 Na1 3.193247 1_655
Hg0 Na0 3.193255 1_666
