# generated using pymatgen
data_PrNdTl2
_symmetry_space_group_name_H-M   'P 1'
_cell_length_a   5.52471602
_cell_length_b   5.52471603
_cell_length_c   5.52471529
_cell_angle_alpha   60.00001325
_cell_angle_beta   60.00000449
_cell_angle_gamma   60.00000004
_symmetry_Int_Tables_number   1
_chemical_formula_structural   PrNdTl2
_chemical_formula_sum   'Pr1 Nd1 Tl2'
_cell_volume   119.23805483
_cell_formula_units_Z   1
loop_
 _symmetry_equiv_pos_site_id
 _symmetry_equiv_pos_as_xyz
  1  'x, y, z'
loop_
 _atom_site_type_symbol
 _atom_site_label
 _atom_site_symmetry_multiplicity
 _atom_site_fract_x
 _atom_site_fract_y
 _atom_site_fract_z
 _atom_site_occupancy
  Pr  Pr0  1  0.75000000  0.75000000  0.75000000  1
  Nd  Nd0  1  0.25000000  0.25000000  0.25000000  1
  Tl  Tl0  1  0.50000000  0.50000000  0.50000000  1
  Tl  Tl1  1  0.00000000  -0.00000000  -0.00000000  1
loop_
_geom_bond_atom_site_label_1
_geom_bond_atom_site_label_2
_geom_bond_distance
_geom_bond_site_symmetry_2
Pr0 Tl1 3.383184 1_666
Pr0 Tl0 3.383184 1_555
Pr0 Tl0 3.383184 1_655
Pr0 Tl1 3.383184 1_566
Pr0 Tl0 3.383184 1_556
Pr0 Tl1 3.383184 1_665
Pr0 Tl1 3.383184 1_656
Pr0 Tl0 3.383184 1_565
Nd0 Tl1 3.383184 1_555
Nd0 Tl0 3.383184 1_555
Nd0 Tl0 3.383184 1_455
Nd0 Tl1 3.383184 1_655
Nd0 Tl0 3.383184 1_554
Nd0 Tl1 3.383184 1_556
Nd0 Tl1 3.383184 1_565
Nd0 Tl0 3.383184 1_545
