# generated using pymatgen
data_Sc2AlCd
_symmetry_space_group_name_H-M   'P 1'
_cell_length_a   4.89253841
_cell_length_b   4.89253841
_cell_length_c   4.89253841
_cell_angle_alpha   60.00000000
_cell_angle_beta   60.00000000
_cell_angle_gamma   60.00000000
_symmetry_Int_Tables_number   1
_chemical_formula_structural   Sc2AlCd
_chemical_formula_sum   'Sc2 Al1 Cd1'
_cell_volume   82.81094391
_cell_formula_units_Z   1
loop_
 _symmetry_equiv_pos_site_id
 _symmetry_equiv_pos_as_xyz
  1  'x, y, z'
loop_
 _atom_site_type_symbol
 _atom_site_label
 _atom_site_symmetry_multiplicity
 _atom_site_fract_x
 _atom_site_fract_y
 _atom_site_fract_z
 _atom_site_occupancy
  Sc  Sc0  1  0.00000000  -0.00000000  -0.00000000  1
  Sc  Sc1  1  0.50000000  0.50000000  0.50000000  1
  Al  Al0  1  0.24999900  0.24999900  0.24999900  1
  Cd  Cd0  1  0.75000000  0.75000000  0.75000000  1
loop_
_geom_bond_atom_site_label_1
_geom_bond_atom_site_label_2
_geom_bond_distance
_geom_bond_site_symmetry_2
Al0 Sc0 2.996044 1_555
Al0 Sc1 2.996052 1_455
Al0 Sc1 2.996052 1_554
Al0 Sc1 2.996052 1_545
Al0 Sc0 2.996060 1_565
Al0 Sc0 2.996060 1_655
Al0 Sc0 2.996060 1_556
Al0 Sc1 2.996068 1_555
Cd0 Sc1 2.996056 1_655
Cd0 Sc0 2.996056 1_566
Cd0 Sc0 2.996056 1_666
Cd0 Sc1 2.996056 1_565
Cd0 Sc0 2.996056 1_656
Cd0 Sc0 2.996056 1_665
Cd0 Sc1 2.996056 1_555
Cd0 Sc1 2.996056 1_556
