# generated using pymatgen
data_LiCuO2
_symmetry_space_group_name_H-M   'P 1'
_cell_length_a   2.75618100
_cell_length_b   5.14939400
_cell_length_c   5.33807800
_cell_angle_alpha   90.00000000
_cell_angle_beta   90.00000000
_cell_angle_gamma   90.00000000
_symmetry_Int_Tables_number   1
_chemical_formula_structural   LiCuO2
_chemical_formula_sum   'Li2 Cu2 O4'
_cell_volume   75.76153627
_cell_formula_units_Z   2
loop_
 _symmetry_equiv_pos_site_id
 _symmetry_equiv_pos_as_xyz
  1  'x, y, z'
loop_
 _atom_site_type_symbol
 _atom_site_label
 _atom_site_symmetry_multiplicity
 _atom_site_fract_x
 _atom_site_fract_y
 _atom_site_fract_z
 _atom_site_occupancy
  Li  Li0  1  0.00000000  0.00000000  0.50000000  1
  Li  Li1  1  0.50000000  0.50000000  0.00000000  1
  Cu  Cu0  1  0.50000000  0.00000000  0.00000000  1
  Cu  Cu1  1  0.00000000  0.50000000  0.50000000  1
  O  O0  1  0.00000000  0.19639900  0.85641500  1
  O  O1  1  0.50000000  0.69639900  0.64358500  1
  O  O2  1  0.00000000  0.80360100  0.14358500  1
  O  O3  1  0.50000000  0.30360100  0.35641500  1
loop_
_geom_bond_atom_site_label_1
_geom_bond_atom_site_label_2
_geom_bond_distance
_geom_bond_site_symmetry_2
Li0 O2 2.154664 1_545
Li0 O0 2.154664 1_555
Li0 O1 2.220519 1_445
Li0 O3 2.220519 1_555
Li0 O1 2.220519 1_545
Li0 O3 2.220519 1_455
Li1 O1 2.154664 1_554
Li1 O3 2.154664 1_555
Li1 O0 2.220519 1_654
Li1 O2 2.220519 1_655
Li1 O0 2.220519 1_554
Li1 O2 2.220519 1_555
Cu0 O0 1.873341 1_654
Cu0 O2 1.873341 1_645
Cu0 O0 1.873341 1_554
Cu0 O2 1.873341 1_545
Cu0 O3 2.462494 1_555
Cu0 O1 2.462494 1_544
Cu1 O1 1.873341 1_455
Cu1 O1 1.873341 1_555
Cu1 O3 1.873341 1_455
Cu1 O3 1.873341 1_555
Cu1 O0 2.462494 1_555
Cu1 O2 2.462494 1_555
