# generated using pymatgen
data_RbCaAs
_symmetry_space_group_name_H-M   'P 1'
_cell_length_a   5.15632712
_cell_length_b   5.15632712
_cell_length_c   7.93134729
_cell_angle_alpha   90.00000000
_cell_angle_beta   90.00000000
_cell_angle_gamma   90.00000000
_symmetry_Int_Tables_number   1
_chemical_formula_structural   RbCaAs
_chemical_formula_sum   'Rb2 Ca2 As2'
_cell_volume   210.87635665
_cell_formula_units_Z   2
loop_
 _symmetry_equiv_pos_site_id
 _symmetry_equiv_pos_as_xyz
  1  'x, y, z'
loop_
 _atom_site_type_symbol
 _atom_site_label
 _atom_site_symmetry_multiplicity
 _atom_site_fract_x
 _atom_site_fract_y
 _atom_site_fract_z
 _atom_site_occupancy
  Rb  Rb0  1  0.75000000  0.75000000  0.37296639  1
  Rb  Rb1  1  0.25000000  0.25000000  0.62703361  1
  Ca  Ca0  1  0.25000000  0.75000000  0.00000000  1
  Ca  Ca1  1  0.75000000  0.25000000  0.00000000  1
  As  As0  1  0.25000000  0.25000000  0.18465812  1
  As  As1  1  0.75000000  0.75000000  0.81534188  1
loop_
_geom_bond_atom_site_label_1
_geom_bond_atom_site_label_2
_geom_bond_distance
_geom_bond_site_symmetry_2
As0 Ca0 2.965121 1_555
As0 Ca1 2.965121 1_455
As0 Ca1 2.965121 1_555
As0 Ca0 2.965121 1_545
As0 Rb1 3.508634 1_555
As0 Rb0 3.940116 1_555
As0 Rb0 3.940116 1_545
As0 Rb0 3.940116 1_445
As0 Rb0 3.940116 1_455
As1 Ca1 2.965121 1_566
As1 Ca0 2.965121 1_656
As1 Ca0 2.965121 1_556
As1 Ca1 2.965121 1_556
As1 Rb0 3.508634 1_555
As1 Rb1 3.940116 1_555
As1 Rb1 3.940116 1_565
As1 Rb1 3.940116 1_655
As1 Rb1 3.940116 1_665
