# generated using pymatgen
data_PbAuO2
_symmetry_space_group_name_H-M   'P 1'
_cell_length_a   6.59227807
_cell_length_b   6.59227807
_cell_length_c   6.58967837
_cell_angle_alpha   81.21530353
_cell_angle_beta   81.21530353
_cell_angle_gamma   32.16634422
_symmetry_Int_Tables_number   1
_chemical_formula_structural   PbAuO2
_chemical_formula_sum   'Pb2 Au2 O4'
_cell_volume   150.52202067
_cell_formula_units_Z   2
loop_
 _symmetry_equiv_pos_site_id
 _symmetry_equiv_pos_as_xyz
  1  'x, y, z'
loop_
 _atom_site_type_symbol
 _atom_site_label
 _atom_site_symmetry_multiplicity
 _atom_site_fract_x
 _atom_site_fract_y
 _atom_site_fract_z
 _atom_site_occupancy
  Pb  Pb0  1  0.50000000  0.50000000  0.00000000  1
  Pb  Pb1  1  0.00000000  0.00000000  0.50000000  1
  Au  Au0  1  0.74926800  0.74926800  0.21355700  1
  Au  Au1  1  0.25073200  0.25073200  0.78644300  1
  O  O0  1  0.41323800  0.41323800  0.73148500  1
  O  O1  1  0.08785200  0.08785200  0.82605300  1
  O  O2  1  0.58676200  0.58676200  0.26851500  1
  O  O3  1  0.91214800  0.91214800  0.17394700  1
loop_
_geom_bond_atom_site_label_1
_geom_bond_atom_site_label_2
_geom_bond_distance
_geom_bond_site_symmetry_2
Au0 O2 2.032840 1_555
Au0 O3 2.038317 1_555
Au1 O0 2.032840 1_555
Au1 O1 2.038317 1_555
O0 Pb0 2.226486 1_556
O0 Pb1 2.517400 1_565
O0 Pb1 2.517400 1_655
O1 Pb0 2.341434 1_456
O1 Pb0 2.341434 1_546
O1 Pb1 2.572010 1_555
O2 Pb0 2.226486 1_555
O2 Pb1 2.517400 1_655
O2 Pb1 2.517400 1_565
O3 Pb0 2.341434 1_565
O3 Pb0 2.341434 1_655
O3 Pb1 2.572010 1_665
