# generated using pymatgen
data_DySi2
_symmetry_space_group_name_H-M   'P 1'
_cell_length_a   4.09466396
_cell_length_b   4.09466396
_cell_length_c   3.95187400
_cell_angle_alpha   90.00000000
_cell_angle_beta   90.00000000
_cell_angle_gamma   119.99999938
_symmetry_Int_Tables_number   1
_chemical_formula_structural   DySi2
_chemical_formula_sum   'Dy1 Si2'
_cell_volume   57.38128320
_cell_formula_units_Z   1
loop_
 _symmetry_equiv_pos_site_id
 _symmetry_equiv_pos_as_xyz
  1  'x, y, z'
loop_
 _atom_site_type_symbol
 _atom_site_label
 _atom_site_symmetry_multiplicity
 _atom_site_fract_x
 _atom_site_fract_y
 _atom_site_fract_z
 _atom_site_occupancy
  Dy  Dy0  1  0.00000000  0.00000000  0.00000000  1
  Si  Si0  1  0.66666700  0.33333300  0.50000000  1
  Si  Si1  1  0.33333300  0.66666700  0.50000000  1
loop_
_geom_bond_atom_site_label_1
_geom_bond_atom_site_label_2
_geom_bond_distance
_geom_bond_site_symmetry_2
Dy0 Si0 3.081083 1_455
Dy0 Si0 3.081083 1_454
Dy0 Si1 3.081083 1_544
Dy0 Si1 3.081083 1_545
Dy0 Si1 3.081086 1_444
Dy0 Si0 3.081086 1_555
Dy0 Si0 3.081086 1_445
Dy0 Si1 3.081086 1_445
Dy0 Si1 3.081086 1_555
Dy0 Si0 3.081086 1_554
Dy0 Si1 3.081086 1_554
Dy0 Si0 3.081086 1_444
Si0 Si1 2.364053 1_545
Si0 Si1 2.364053 1_655
Si0 Si1 2.364060 1_555
