# generated using pymatgen
data_TiNi
_symmetry_space_group_name_H-M   'P 1'
_cell_length_a   5.47160600
_cell_length_b   5.47160600
_cell_length_c   7.16282000
_cell_angle_alpha   90.00000000
_cell_angle_beta   90.00000000
_cell_angle_gamma   90.00000000
_symmetry_Int_Tables_number   1
_chemical_formula_structural   TiNi
_chemical_formula_sum   'Ti8 Ni8'
_cell_volume   214.44388758
_cell_formula_units_Z   8
loop_
 _symmetry_equiv_pos_site_id
 _symmetry_equiv_pos_as_xyz
  1  'x, y, z'
loop_
 _atom_site_type_symbol
 _atom_site_label
 _atom_site_symmetry_multiplicity
 _atom_site_fract_x
 _atom_site_fract_y
 _atom_site_fract_z
 _atom_site_occupancy
  Ti  Ti0_0  1  0.25000000  0.25000000  0.25000000  1
  Ti  Ti0_1  1  0.25000000  0.25000000  0.75000000  1
  Ti  Ti0_2  1  0.25000000  0.75000000  0.25000000  1
  Ti  Ti0_3  1  0.25000000  0.75000000  0.75000000  1
  Ti  Ti0_4  1  0.75000000  0.25000000  0.25000000  1
  Ti  Ti0_5  1  0.75000000  0.25000000  0.75000000  1
  Ti  Ti0_6  1  0.75000000  0.75000000  0.25000000  1
  Ti  Ti0_7  1  0.75000000  0.75000000  0.75000000  1
  Ni  Ni0_0  1  0.00000000  0.00000000  0.00000000  1
  Ni  Ni0_1  1  0.00000000  0.00000000  0.50000000  1
  Ni  Ni0_2  1  0.00000000  0.50000000  0.00000000  1
  Ni  Ni0_3  1  0.00000000  0.50000000  0.50000000  1
  Ni  Ni0_4  1  0.50000000  0.00000000  0.00000000  1
  Ni  Ni0_5  1  0.50000000  0.00000000  0.50000000  1
  Ni  Ni0_6  1  0.50000000  0.50000000  0.00000000  1
  Ni  Ni0_7  1  0.50000000  0.50000000  0.50000000  1
loop_
_geom_bond_atom_site_label_1
_geom_bond_atom_site_label_2
_geom_bond_distance
_geom_bond_site_symmetry_2
Ti0_0 Ti0_2 2.735803 1_545
Ti0_0 Ti0_4 2.735803 1_455
Ti0_0 Ti0_4 2.735803 1_555
Ti0_0 Ti0_2 2.735803 1_555
Ti0_1 Ti0_5 2.735803 1_555
Ti0_1 Ti0_3 2.735803 1_545
Ti0_1 Ti0_3 2.735803 1_555
Ti0_1 Ti0_5 2.735803 1_455
Ti0_2 Ti0_6 2.735803 1_455
Ti0_2 Ti0_6 2.735803 1_555
Ti0_3 Ti0_7 2.735803 1_455
Ti0_3 Ti0_7 2.735803 1_555
Ti0_4 Ti0_6 2.735803 1_545
Ti0_4 Ti0_6 2.735803 1_555
Ti0_5 Ti0_7 2.735803 1_555
Ti0_5 Ti0_7 2.735803 1_545
Ni0_0 Ti0_4 2.636083 1_455
Ni0_0 Ti0_2 2.636083 1_545
Ni0_0 Ti0_6 2.636083 1_445
Ni0_0 Ti0_0 2.636083 1_555
Ni0_0 Ti0_3 2.636083 1_544
Ni0_0 Ti0_1 2.636083 1_554
Ni0_0 Ti0_5 2.636083 1_454
Ni0_0 Ti0_7 2.636083 1_444
Ni0_0 Ni0_2 2.735803 1_555
Ni0_0 Ni0_4 2.735803 1_455
Ni0_0 Ni0_4 2.735803 1_555
Ni0_0 Ni0_2 2.735803 1_545
Ni0_1 Ti0_3 2.636083 1_545
Ni0_1 Ti0_5 2.636083 1_455
Ni0_1 Ti0_1 2.636083 1_555
Ni0_1 Ti0_4 2.636083 1_455
Ni0_1 Ti0_7 2.636083 1_445
Ni0_1 Ti0_2 2.636083 1_545
Ni0_1 Ti0_6 2.636083 1_445
Ni0_1 Ti0_0 2.636083 1_555
Ni0_1 Ni0_3 2.735803 1_555
Ni0_1 Ni0_3 2.735803 1_545
Ni0_1 Ni0_5 2.735803 1_455
Ni0_1 Ni0_5 2.735803 1_555
Ni0_2 Ti0_2 2.636083 1_555
Ni0_2 Ti0_6 2.636083 1_455
Ni0_2 Ti0_4 2.636083 1_455
Ni0_2 Ti0_0 2.636083 1_555
Ni0_2 Ti0_3 2.636083 1_554
Ni0_2 Ti0_1 2.636083 1_554
Ni0_2 Ti0_5 2.636083 1_454
Ni0_2 Ti0_7 2.636083 1_454
Ni0_2 Ni0_6 2.735803 1_555
Ni0_2 Ni0_6 2.735803 1_455
Ni0_3 Ti0_3 2.636083 1_555
Ni0_3 Ti0_5 2.636083 1_455
Ni0_3 Ti0_1 2.636083 1_555
Ni0_3 Ti0_2 2.636083 1_555
Ni0_3 Ti0_6 2.636083 1_455
Ni0_3 Ti0_7 2.636083 1_455
Ni0_3 Ti0_4 2.636083 1_455
Ni0_3 Ti0_0 2.636083 1_555
Ni0_3 Ni0_7 2.735803 1_555
Ni0_3 Ni0_7 2.735803 1_455
Ni0_4 Ti0_4 2.636083 1_555
Ni0_4 Ti0_2 2.636083 1_545
Ni0_4 Ti0_6 2.636083 1_545
Ni0_4 Ti0_0 2.636083 1_555
Ni0_4 Ti0_3 2.636083 1_544
Ni0_4 Ti0_1 2.636083 1_554
Ni0_4 Ti0_7 2.636083 1_544
Ni0_4 Ti0_5 2.636083 1_554
Ni0_4 Ni0_6 2.735803 1_555
Ni0_4 Ni0_6 2.735803 1_545
Ni0_5 Ti0_3 2.636083 1_545
Ni0_5 Ti0_4 2.636083 1_555
Ni0_5 Ti0_1 2.636083 1_555
Ni0_5 Ti0_7 2.636083 1_545
Ni0_5 Ti0_5 2.636083 1_555
Ni0_5 Ti0_2 2.636083 1_545
Ni0_5 Ti0_6 2.636083 1_545
Ni0_5 Ti0_0 2.636083 1_555
Ni0_5 Ni0_7 2.735803 1_545
Ni0_5 Ni0_7 2.735803 1_555
Ni0_6 Ti0_4 2.636083 1_555
Ni0_6 Ti0_2 2.636083 1_555
Ni0_6 Ti0_6 2.636083 1_555
Ni0_6 Ti0_0 2.636083 1_555
Ni0_6 Ti0_3 2.636083 1_554
Ni0_6 Ti0_7 2.636083 1_554
Ni0_6 Ti0_1 2.636083 1_554
Ni0_6 Ti0_5 2.636083 1_554
Ni0_7 Ti0_3 2.636083 1_555
Ni0_7 Ti0_7 2.636083 1_555
Ni0_7 Ti0_4 2.636083 1_555
Ni0_7 Ti0_1 2.636083 1_555
Ni0_7 Ti0_2 2.636083 1_555
Ni0_7 Ti0_5 2.636083 1_555
Ni0_7 Ti0_0 2.636083 1_555
Ni0_7 Ti0_6 2.636083 1_555
