# generated using pymatgen
data_NaSmTiO4
_symmetry_space_group_name_H-M   'P 1'
_cell_length_a   3.74322700
_cell_length_b   3.74322700
_cell_length_c   13.01488800
_cell_angle_alpha   90.00000000
_cell_angle_beta   90.00000000
_cell_angle_gamma   90.00000000
_symmetry_Int_Tables_number   1
_chemical_formula_structural   NaSmTiO4
_chemical_formula_sum   'Na2 Sm2 Ti2 O8'
_cell_volume   182.36133577
_cell_formula_units_Z   2
loop_
 _symmetry_equiv_pos_site_id
 _symmetry_equiv_pos_as_xyz
  1  'x, y, z'
loop_
 _atom_site_type_symbol
 _atom_site_label
 _atom_site_symmetry_multiplicity
 _atom_site_fract_x
 _atom_site_fract_y
 _atom_site_fract_z
 _atom_site_occupancy
  Na  Na0  1  0.50000000  0.00000000  0.58270500  1
  Na  Na1  1  0.00000000  0.50000000  0.41729500  1
  Sm  Sm0  1  0.00000000  0.50000000  0.10680100  1
  Sm  Sm1  1  0.50000000  0.00000000  0.89319900  1
  Ti  Ti0  1  0.50000000  0.00000000  0.26841600  1
  Ti  Ti1  1  0.00000000  0.50000000  0.73158400  1
  O  O0  1  0.00000000  0.50000000  0.93210500  1
  O  O1  1  0.50000000  0.00000000  0.06789500  1
  O  O2  1  0.00000000  0.50000000  0.59561100  1
  O  O3  1  0.50000000  0.00000000  0.40438900  1
  O  O4  1  0.00000000  0.00000000  0.23027600  1
  O  O5  1  0.50000000  0.50000000  0.23027600  1
  O  O6  1  0.00000000  0.00000000  0.76972400  1
  O  O7  1  0.50000000  0.50000000  0.76972400  1
loop_
_geom_bond_atom_site_label_1
_geom_bond_atom_site_label_2
_geom_bond_distance
_geom_bond_site_symmetry_2
Na0 O3 2.320763 1_555
Na0 O2 2.652186 1_545
Na0 O2 2.652186 1_645
Na0 O2 2.652186 1_655
Na0 O2 2.652186 1_555
Na1 O2 2.320763 1_555
Na1 O3 2.652186 1_555
Na1 O3 2.652186 1_565
Na1 O3 2.652186 1_465
Na1 O3 2.652186 1_455
O0 Sm0 2.273649 1_556
O0 Ti1 2.609758 1_555
O0 Sm1 2.694860 1_565
O0 Sm1 2.694860 1_465
O0 Sm1 2.694860 1_455
O0 Sm1 2.694860 1_555
O1 Sm1 2.273649 1_554
O1 Ti0 2.609758 1_555
O1 Sm0 2.694860 1_555
O1 Sm0 2.694860 1_655
O1 Sm0 2.694860 1_545
O1 Sm0 2.694860 1_645
O2 Ti1 1.769673 1_555
O3 Ti0 1.769673 1_555
O4 Ti0 1.936321 1_555
O4 Ti0 1.936321 1_455
O4 Sm0 2.466866 1_555
O4 Sm0 2.466866 1_545
O5 Ti0 1.936321 1_565
O5 Ti0 1.936321 1_555
O5 Sm0 2.466866 1_555
O5 Sm0 2.466866 1_655
O6 Ti1 1.936321 1_555
O6 Ti1 1.936321 1_545
O6 Sm1 2.466866 1_455
O6 Sm1 2.466866 1_555
O7 Ti1 1.936321 1_555
O7 Ti1 1.936321 1_655
O7 Sm1 2.466866 1_565
O7 Sm1 2.466866 1_555
