# generated using pymatgen
data_HoH2ClO2
_symmetry_space_group_name_H-M   'P 1'
_cell_length_a   3.61867000
_cell_length_b   6.18299700
_cell_length_c   6.63808987
_cell_angle_alpha   106.93119443
_cell_angle_beta   90.00000000
_cell_angle_gamma   90.00000000
_symmetry_Int_Tables_number   1
_chemical_formula_structural   HoH2ClO2
_chemical_formula_sum   'Ho2 H4 Cl2 O4'
_cell_volume   142.08445538
_cell_formula_units_Z   2
loop_
 _symmetry_equiv_pos_site_id
 _symmetry_equiv_pos_as_xyz
  1  'x, y, z'
loop_
 _atom_site_type_symbol
 _atom_site_label
 _atom_site_symmetry_multiplicity
 _atom_site_fract_x
 _atom_site_fract_y
 _atom_site_fract_z
 _atom_site_occupancy
  Ho  Ho0  1  0.25000000  0.28721400  0.11454700  1
  Ho  Ho1  1  0.75000000  0.71278600  0.88545300  1
  H  H0  1  0.25000000  0.87394100  0.23039200  1
  H  H1  1  0.75000000  0.65549700  0.30542800  1
  H  H2  1  0.25000000  0.34450300  0.69457200  1
  H  H3  1  0.75000000  0.12605900  0.76960800  1
  Cl  Cl0  1  0.75000000  0.23240600  0.42984100  1
  Cl  Cl1  1  0.25000000  0.76759400  0.57015900  1
  O  O0  1  0.25000000  0.89555200  0.09029300  1
  O  O1  1  0.75000000  0.55263700  0.16205700  1
  O  O2  1  0.25000000  0.44736300  0.83794300  1
  O  O3  1  0.75000000  0.10444800  0.90970700  1
loop_
_geom_bond_atom_site_label_1
_geom_bond_atom_site_label_2
_geom_bond_distance
_geom_bond_site_symmetry_2
Ho0 O2 2.326114 1_554
Ho0 O3 2.346194 1_554
Ho0 O3 2.346194 1_454
Ho0 O0 2.379748 1_545
Ho0 O1 2.401029 1_455
Ho0 O1 2.401029 1_555
Ho1 O1 2.326114 1_556
Ho1 O0 2.346194 1_656
Ho1 O0 2.346194 1_556
Ho1 O3 2.379748 1_565
Ho1 O2 2.401029 1_555
Ho1 O2 2.401029 1_655
H0 O0 0.977299 1_555
H1 O1 0.978615 1_555
H2 O2 0.978615 1_555
H3 O3 0.977299 1_555
Cl0 Ho0 2.860432 1_655
Cl0 Ho0 2.860432 1_555
Cl1 Ho1 2.860432 1_555
Cl1 Ho1 2.860432 1_455
