# generated using pymatgen
data_LiTb3
_symmetry_space_group_name_H-M   'P 1'
_cell_length_a   7.02532259
_cell_length_b   7.02532259
_cell_length_c   5.54800100
_cell_angle_alpha   90.00000000
_cell_angle_beta   90.00000000
_cell_angle_gamma   120.00000553
_symmetry_Int_Tables_number   1
_chemical_formula_structural   LiTb3
_chemical_formula_sum   'Li2 Tb6'
_cell_volume   237.13719580
_cell_formula_units_Z   2
loop_
 _symmetry_equiv_pos_site_id
 _symmetry_equiv_pos_as_xyz
  1  'x, y, z'
loop_
 _atom_site_type_symbol
 _atom_site_label
 _atom_site_symmetry_multiplicity
 _atom_site_fract_x
 _atom_site_fract_y
 _atom_site_fract_z
 _atom_site_occupancy
  Li  Li0  1  0.66666700  0.33333300  0.25000000  1
  Li  Li1  1  0.33333300  0.66666700  0.75000000  1
  Tb  Tb0  1  0.83102200  0.16897800  0.75000000  1
  Tb  Tb1  1  0.33795600  0.16897800  0.75000000  1
  Tb  Tb2  1  0.83102200  0.66204400  0.75000000  1
  Tb  Tb3  1  0.16897800  0.83102200  0.25000000  1
  Tb  Tb4  1  0.66204400  0.83102200  0.25000000  1
  Tb  Tb5  1  0.16897800  0.33795600  0.25000000  1
loop_
_geom_bond_atom_site_label_1
_geom_bond_atom_site_label_2
_geom_bond_distance
_geom_bond_site_symmetry_2
Li0 Tb0 3.419753 1_554
Li0 Tb0 3.419753 1_555
Li0 Tb2 3.419756 1_555
Li0 Tb2 3.419756 1_554
Li0 Tb1 3.419756 1_554
Li0 Tb1 3.419756 1_555
Li0 Tb5 3.512770 1_655
Li0 Tb4 3.512770 1_545
Li0 Tb3 3.512774 1_655
Li0 Tb3 3.512774 1_545
Li0 Tb4 3.512777 1_555
Li0 Tb5 3.512777 1_555
Li1 Tb3 3.419753 1_556
Li1 Tb3 3.419753 1_555
Li1 Tb4 3.419756 1_556
Li1 Tb4 3.419756 1_555
Li1 Tb5 3.419756 1_556
Li1 Tb5 3.419756 1_555
Li1 Tb1 3.512770 1_565
Li1 Tb2 3.512770 1_455
Li1 Tb0 3.512774 1_565
Li1 Tb0 3.512774 1_455
Li1 Tb2 3.512777 1_555
Li1 Tb1 3.512777 1_555
Tb0 Tb4 3.452952 1_546
Tb0 Tb4 3.452952 1_545
Tb0 Tb5 3.452952 1_655
Tb0 Tb5 3.452952 1_656
Tb0 Tb1 3.463948 1_555
Tb0 Tb2 3.463948 1_555
Tb0 Tb2 3.561375 1_545
Tb0 Tb1 3.561375 1_655
Tb1 Tb3 3.452952 1_546
Tb1 Tb3 3.452952 1_545
Tb1 Tb5 3.452952 1_556
Tb1 Tb5 3.452952 1_555
Tb1 Tb2 3.463947 1_555
Tb1 Tb2 3.561375 1_445
Tb2 Tb3 3.452952 1_656
Tb2 Tb3 3.452952 1_655
Tb2 Tb4 3.452952 1_556
Tb2 Tb4 3.452952 1_555
Tb3 Tb5 3.463948 1_555
Tb3 Tb4 3.463948 1_555
Tb3 Tb4 3.561375 1_455
Tb3 Tb5 3.561375 1_565
Tb4 Tb5 3.463947 1_555
Tb4 Tb5 3.561375 1_665
