# generated using pymatgen
data_Tl3Hg
_symmetry_space_group_name_H-M   'P 1'
_cell_length_a   4.85026739
_cell_length_b   4.85026739
_cell_length_c   4.85026739
_cell_angle_alpha   90.00002481
_cell_angle_beta   90.00002481
_cell_angle_gamma   90.00002481
_symmetry_Int_Tables_number   1
_chemical_formula_structural   Tl3Hg
_chemical_formula_sum   'Tl3 Hg1'
_cell_volume   114.10299508
_cell_formula_units_Z   1
loop_
 _symmetry_equiv_pos_site_id
 _symmetry_equiv_pos_as_xyz
  1  'x, y, z'
loop_
 _atom_site_type_symbol
 _atom_site_label
 _atom_site_symmetry_multiplicity
 _atom_site_fract_x
 _atom_site_fract_y
 _atom_site_fract_z
 _atom_site_occupancy
  Tl  Tl0  1  0.00000000  0.50000100  0.50000100  1
  Tl  Tl1  1  0.50000100  0.00000000  0.50000100  1
  Tl  Tl2  1  0.50000100  0.50000100  0.00000000  1
  Hg  Hg0  1  0.00000000  0.00000000  -0.00000000  1
loop_
_geom_bond_atom_site_label_1
_geom_bond_atom_site_label_2
_geom_bond_distance
_geom_bond_site_symmetry_2
Tl0 Tl1 3.429651 1_465
Tl0 Tl2 3.429651 1_456
Tl0 Tl1 3.429656 1_455
Tl0 Tl2 3.429656 1_455
Tl0 Tl1 3.429656 1_565
Tl0 Tl2 3.429656 1_556
Tl0 Tl2 3.429665 1_555
Tl0 Tl1 3.429665 1_555
Tl1 Tl2 3.429651 1_546
Tl1 Tl2 3.429656 1_545
Tl1 Tl2 3.429656 1_556
Tl1 Tl2 3.429665 1_555
Hg0 Tl1 3.429649 1_454
Hg0 Tl0 3.429649 1_544
Hg0 Tl2 3.429649 1_445
Hg0 Tl1 3.429658 1_455
Hg0 Tl0 3.429658 1_554
Hg0 Tl2 3.429658 1_455
Hg0 Tl2 3.429658 1_545
Hg0 Tl0 3.429658 1_545
Hg0 Tl1 3.429658 1_554
Hg0 Tl1 3.429663 1_555
Hg0 Tl2 3.429663 1_555
Hg0 Tl0 3.429663 1_555
