# generated using pymatgen
data_Yb2Mg
_symmetry_space_group_name_H-M   'P 1'
_cell_length_a   12.06880286
_cell_length_b   12.06880286
_cell_length_c   17.83247258
_cell_angle_alpha   68.76671907
_cell_angle_beta   68.76671907
_cell_angle_gamma   33.58581298
_symmetry_Int_Tables_number   1
_chemical_formula_structural   Yb2Mg
_chemical_formula_sum   'Yb32 Mg16'
_cell_volume   1330.06595306
_cell_formula_units_Z   16
loop_
 _symmetry_equiv_pos_site_id
 _symmetry_equiv_pos_as_xyz
  1  'x, y, z'
loop_
 _atom_site_type_symbol
 _atom_site_label
 _atom_site_symmetry_multiplicity
 _atom_site_fract_x
 _atom_site_fract_y
 _atom_site_fract_z
 _atom_site_occupancy
  Yb  Yb0_0  1  0.07981546  0.07981546  0.45893247  1
  Yb  Yb0_1  1  0.07981546  0.07981546  0.95893247  1
  Yb  Yb0_2  1  0.07981546  0.57981546  0.45893247  1
  Yb  Yb0_3  1  0.07981546  0.57981546  0.95893247  1
  Yb  Yb0_4  1  0.57981546  0.07981546  0.45893247  1
  Yb  Yb0_5  1  0.57981546  0.07981546  0.95893247  1
  Yb  Yb0_6  1  0.57981546  0.57981546  0.45893247  1
  Yb  Yb0_7  1  0.57981546  0.57981546  0.95893247  1
  Yb  Yb1_0  1  0.42018454  0.42018454  0.04106753  1
  Yb  Yb1_1  1  0.42018454  0.42018454  0.54106753  1
  Yb  Yb1_2  1  0.42018454  0.92018454  0.04106753  1
  Yb  Yb1_3  1  0.42018454  0.92018454  0.54106753  1
  Yb  Yb1_4  1  0.92018454  0.42018454  0.04106753  1
  Yb  Yb1_5  1  0.92018454  0.42018454  0.54106753  1
  Yb  Yb1_6  1  0.92018454  0.92018454  0.04106753  1
  Yb  Yb1_7  1  0.92018454  0.92018454  0.54106753  1
  Yb  Yb2_0  1  0.25525936  0.25525936  0.13756953  1
  Yb  Yb2_1  1  0.25525936  0.25525936  0.63756953  1
  Yb  Yb2_2  1  0.25525936  0.75525936  0.13756953  1
  Yb  Yb2_3  1  0.25525936  0.75525936  0.63756953  1
  Yb  Yb2_4  1  0.75525936  0.25525936  0.13756953  1
  Yb  Yb2_5  1  0.75525936  0.25525936  0.63756953  1
  Yb  Yb2_6  1  0.75525936  0.75525936  0.13756953  1
  Yb  Yb2_7  1  0.75525936  0.75525936  0.63756953  1
  Yb  Yb3_0  1  0.24474064  0.24474064  0.36243047  1
  Yb  Yb3_1  1  0.24474064  0.24474064  0.86243047  1
  Yb  Yb3_2  1  0.24474064  0.74474064  0.36243047  1
  Yb  Yb3_3  1  0.24474064  0.74474064  0.86243047  1
  Yb  Yb3_4  1  0.74474064  0.24474064  0.36243047  1
  Yb  Yb3_5  1  0.74474064  0.24474064  0.86243047  1
  Yb  Yb3_6  1  0.74474064  0.74474064  0.36243047  1
  Yb  Yb3_7  1  0.74474064  0.74474064  0.86243047  1
  Mg  Mg0_0  1  0.09345254  0.09345254  0.20763700  1
  Mg  Mg0_1  1  0.09345254  0.09345254  0.70763700  1
  Mg  Mg0_2  1  0.09345254  0.59345254  0.20763700  1
  Mg  Mg0_3  1  0.09345254  0.59345254  0.70763700  1
  Mg  Mg0_4  1  0.59345254  0.09345254  0.20763700  1
  Mg  Mg0_5  1  0.59345254  0.09345254  0.70763700  1
  Mg  Mg0_6  1  0.59345254  0.59345254  0.20763700  1
  Mg  Mg0_7  1  0.59345254  0.59345254  0.70763700  1
  Mg  Mg1_0  1  0.40654746  0.40654746  0.29236300  1
  Mg  Mg1_1  1  0.40654746  0.40654746  0.79236300  1
  Mg  Mg1_2  1  0.40654746  0.90654746  0.29236300  1
  Mg  Mg1_3  1  0.40654746  0.90654746  0.79236300  1
  Mg  Mg1_4  1  0.90654746  0.40654746  0.29236300  1
  Mg  Mg1_5  1  0.90654746  0.40654746  0.79236300  1
  Mg  Mg1_6  1  0.90654746  0.90654746  0.29236300  1
  Mg  Mg1_7  1  0.90654746  0.90654746  0.79236300  1
loop_
_geom_bond_atom_site_label_1
_geom_bond_atom_site_label_2
_geom_bond_distance
_geom_bond_site_symmetry_2
Yb0_0 Yb1_7 3.415357 1_445
Yb0_0 Yb1_3 3.443807 1_545
Yb0_0 Yb1_5 3.443807 1_455
Yb0_0 Yb2_5 3.464540 1_455
Yb0_0 Yb2_3 3.464540 1_545
Yb0_0 Yb0_6 3.486837 1_545
Yb0_0 Yb0_6 3.486837 1_455
Yb0_0 Yb3_4 3.524973 1_455
Yb0_0 Yb3_2 3.524973 1_545
Yb0_0 Yb3_0 3.538930 1_555
Yb0_1 Yb1_6 3.415357 1_446
Yb0_1 Yb1_2 3.443807 1_546
Yb0_1 Yb1_4 3.443807 1_456
Yb0_1 Yb2_2 3.464540 1_546
Yb0_1 Yb2_4 3.464540 1_456
Yb0_1 Yb0_7 3.486837 1_545
Yb0_1 Yb0_7 3.486837 1_455
Yb0_1 Yb3_3 3.524973 1_545
Yb0_1 Yb3_5 3.524973 1_455
Yb0_1 Yb3_1 3.538930 1_555
Yb0_2 Yb1_5 3.415357 1_455
Yb0_2 Yb1_7 3.443807 1_455
Yb0_2 Yb1_1 3.443807 1_555
Yb0_2 Yb2_7 3.464540 1_455
Yb0_2 Yb2_1 3.464540 1_555
Yb0_2 Yb0_4 3.486837 1_465
Yb0_2 Yb0_4 3.486837 1_555
Yb0_2 Yb3_0 3.524973 1_555
Yb0_2 Yb3_6 3.524973 1_455
Yb0_2 Yb3_2 3.538930 1_555
Yb0_3 Yb1_4 3.415357 1_456
Yb0_3 Yb1_0 3.443807 1_556
Yb0_3 Yb1_6 3.443807 1_456
Yb0_3 Yb2_6 3.464540 1_456
Yb0_3 Yb2_0 3.464540 1_556
Yb0_3 Yb0_5 3.486837 1_465
Yb0_3 Yb0_5 3.486837 1_555
Yb0_3 Yb3_1 3.524973 1_555
Yb0_3 Yb3_7 3.524973 1_455
Yb0_3 Yb3_3 3.538930 1_555
Yb0_4 Yb1_3 3.415357 1_545
Yb0_4 Yb1_7 3.443807 1_545
Yb0_4 Yb1_1 3.443807 1_555
Yb0_4 Yb2_7 3.464540 1_545
Yb0_4 Yb2_1 3.464540 1_555
Yb0_4 Yb3_0 3.524973 1_555
Yb0_4 Yb3_6 3.524973 1_545
Yb0_4 Yb3_4 3.538930 1_555
Yb0_5 Yb1_2 3.415357 1_546
Yb0_5 Yb1_0 3.443807 1_556
Yb0_5 Yb1_6 3.443807 1_546
Yb0_5 Yb2_6 3.464540 1_546
Yb0_5 Yb2_0 3.464540 1_556
Yb0_5 Yb3_7 3.524973 1_545
Yb0_5 Yb3_1 3.524973 1_555
Yb0_5 Yb3_5 3.538930 1_555
Yb0_6 Yb1_1 3.415357 1_555
Yb0_6 Yb1_3 3.443807 1_555
Yb0_6 Yb1_5 3.443807 1_555
Yb0_6 Yb2_5 3.464540 1_555
Yb0_6 Yb2_3 3.464540 1_555
Yb0_6 Yb3_2 3.524973 1_555
Yb0_6 Yb3_4 3.524973 1_555
Yb0_6 Yb3_6 3.538930 1_555
Yb0_7 Yb1_0 3.415357 1_556
Yb0_7 Yb1_2 3.443807 1_556
Yb0_7 Yb1_4 3.443807 1_556
Yb0_7 Yb2_4 3.464540 1_556
Yb0_7 Yb2_2 3.464540 1_556
Yb0_7 Yb3_3 3.524973 1_555
Yb0_7 Yb3_5 3.524973 1_555
Yb0_7 Yb3_7 3.538930 1_555
Yb1_0 Yb3_5 3.464540 1_554
Yb1_0 Yb3_3 3.464540 1_554
Yb1_0 Yb1_6 3.486837 1_545
Yb1_0 Yb1_6 3.486837 1_455
Yb1_0 Yb2_4 3.524973 1_555
Yb1_0 Yb2_2 3.524973 1_555
Yb1_0 Yb2_0 3.538930 1_555
Yb1_1 Yb3_2 3.464540 1_555
Yb1_1 Yb3_4 3.464540 1_555
Yb1_1 Yb1_7 3.486837 1_455
Yb1_1 Yb1_7 3.486837 1_545
Yb1_1 Yb2_5 3.524973 1_555
Yb1_1 Yb2_3 3.524973 1_555
Yb1_1 Yb2_1 3.538930 1_555
Yb1_2 Yb3_7 3.464540 1_554
Yb1_2 Yb3_1 3.464540 1_564
Yb1_2 Yb1_4 3.486837 1_555
Yb1_2 Yb1_4 3.486837 1_465
Yb1_2 Yb2_6 3.524973 1_555
Yb1_2 Yb2_0 3.524973 1_565
Yb1_2 Yb2_2 3.538930 1_555
Yb1_3 Yb3_0 3.464540 1_565
Yb1_3 Yb3_6 3.464540 1_555
Yb1_3 Yb1_5 3.486837 1_555
Yb1_3 Yb1_5 3.486837 1_465
Yb1_3 Yb2_7 3.524973 1_555
Yb1_3 Yb2_1 3.524973 1_565
Yb1_3 Yb2_3 3.538930 1_555
Yb1_4 Yb3_1 3.464540 1_654
Yb1_4 Yb3_7 3.464540 1_554
Yb1_4 Yb2_6 3.524973 1_555
Yb1_4 Yb2_0 3.524973 1_655
Yb1_4 Yb2_4 3.538930 1_555
Yb1_5 Yb3_0 3.464540 1_655
Yb1_5 Yb3_6 3.464540 1_555
Yb1_5 Yb2_7 3.524973 1_555
Yb1_5 Yb2_1 3.524973 1_655
Yb1_5 Yb2_5 3.538930 1_555
Yb1_6 Yb3_3 3.464540 1_654
Yb1_6 Yb3_5 3.464540 1_564
Yb1_6 Yb2_2 3.524973 1_655
Yb1_6 Yb2_4 3.524973 1_565
Yb1_6 Yb2_6 3.538930 1_555
Yb1_7 Yb3_4 3.464540 1_565
Yb1_7 Yb3_2 3.464540 1_655
Yb1_7 Yb2_5 3.524973 1_565
Yb1_7 Yb2_3 3.524973 1_655
Yb1_7 Yb2_7 3.538930 1_555
Yb2_0 Yb2_6 3.486837 1_455
Yb2_0 Yb2_6 3.486837 1_545
Yb2_1 Yb2_7 3.486837 1_545
Yb2_1 Yb2_7 3.486837 1_455
Yb2_2 Yb2_4 3.486837 1_555
Yb2_2 Yb2_4 3.486837 1_465
Yb2_3 Yb2_5 3.486837 1_465
Yb2_3 Yb2_5 3.486837 1_555
Yb3_0 Yb3_6 3.486837 1_455
Yb3_0 Yb3_6 3.486837 1_545
Yb3_1 Yb3_7 3.486837 1_455
Yb3_1 Yb3_7 3.486837 1_545
Yb3_2 Yb3_4 3.486837 1_555
Yb3_2 Yb3_4 3.486837 1_465
Yb3_3 Yb3_5 3.486837 1_555
Yb3_3 Yb3_5 3.486837 1_465
Mg0_0 Mg1_4 3.019063 1_455
Mg0_0 Mg1_2 3.019063 1_545
Mg0_0 Yb2_4 3.268138 1_455
Mg0_0 Yb2_2 3.268138 1_545
Mg0_0 Yb1_2 3.319882 1_545
Mg0_0 Yb1_4 3.319882 1_455
Mg0_0 Yb3_4 3.331418 1_455
Mg0_0 Yb3_2 3.331418 1_545
Mg0_0 Yb2_0 3.465131 1_555
Mg0_0 Mg0_6 3.486837 1_455
Mg0_0 Mg0_6 3.486837 1_545
Mg0_1 Mg1_5 3.019063 1_455
Mg0_1 Mg1_3 3.019063 1_545
Mg0_1 Yb2_3 3.268138 1_545
Mg0_1 Yb2_5 3.268138 1_455
Mg0_1 Yb1_5 3.319882 1_455
Mg0_1 Yb1_3 3.319882 1_545
Mg0_1 Yb3_3 3.331418 1_545
Mg0_1 Yb3_5 3.331418 1_455
Mg0_1 Yb2_1 3.465131 1_555
Mg0_1 Mg0_7 3.486837 1_545
Mg0_1 Mg0_7 3.486837 1_455
Mg0_2 Mg1_6 3.019063 1_455
Mg0_2 Mg1_0 3.019063 1_555
Mg0_2 Yb2_0 3.268138 1_555
Mg0_2 Yb2_6 3.268138 1_455
Mg0_2 Yb1_0 3.319882 1_555
Mg0_2 Yb1_6 3.319882 1_455
Mg0_2 Yb3_0 3.331418 1_555
Mg0_2 Yb3_6 3.331418 1_455
Mg0_2 Yb2_2 3.465131 1_555
Mg0_2 Mg0_4 3.486837 1_555
Mg0_2 Mg0_4 3.486837 1_465
Mg0_3 Mg1_1 3.019063 1_555
Mg0_3 Mg1_7 3.019063 1_455
Mg0_3 Yb2_1 3.268138 1_555
Mg0_3 Yb2_7 3.268138 1_455
Mg0_3 Yb1_7 3.319882 1_455
Mg0_3 Yb1_1 3.319882 1_555
Mg0_3 Yb3_1 3.331418 1_555
Mg0_3 Yb3_7 3.331418 1_455
Mg0_3 Yb2_3 3.465131 1_555
Mg0_3 Mg0_5 3.486837 1_555
Mg0_3 Mg0_5 3.486837 1_465
Mg0_4 Mg1_6 3.019063 1_545
Mg0_4 Mg1_0 3.019063 1_555
Mg0_4 Yb2_0 3.268138 1_555
Mg0_4 Yb2_6 3.268138 1_545
Mg0_4 Yb1_0 3.319882 1_555
Mg0_4 Yb1_6 3.319882 1_545
Mg0_4 Yb3_6 3.331418 1_545
Mg0_4 Yb3_0 3.331418 1_555
Mg0_4 Yb2_4 3.465131 1_555
Mg0_5 Mg1_1 3.019063 1_555
Mg0_5 Mg1_7 3.019063 1_545
Mg0_5 Yb2_1 3.268138 1_555
Mg0_5 Yb2_7 3.268138 1_545
Mg0_5 Yb1_7 3.319882 1_545
Mg0_5 Yb1_1 3.319882 1_555
Mg0_5 Yb3_1 3.331418 1_555
Mg0_5 Yb3_7 3.331418 1_545
Mg0_5 Yb2_5 3.465131 1_555
Mg0_6 Mg1_4 3.019063 1_555
Mg0_6 Mg1_2 3.019063 1_555
Mg0_6 Yb2_4 3.268138 1_555
Mg0_6 Yb2_2 3.268138 1_555
Mg0_6 Yb1_2 3.319882 1_555
Mg0_6 Yb1_4 3.319882 1_555
Mg0_6 Yb3_2 3.331418 1_555
Mg0_6 Yb3_4 3.331418 1_555
Mg0_6 Yb2_6 3.465131 1_555
Mg0_7 Mg1_3 3.019063 1_555
Mg0_7 Mg1_5 3.019063 1_555
Mg0_7 Yb2_3 3.268138 1_555
Mg0_7 Yb2_5 3.268138 1_555
Mg0_7 Yb1_3 3.319882 1_555
Mg0_7 Yb1_5 3.319882 1_555
Mg0_7 Yb3_3 3.331418 1_555
Mg0_7 Yb3_5 3.331418 1_555
Mg0_7 Yb2_7 3.465131 1_555
Mg1_0 Yb3_2 3.268138 1_555
Mg1_0 Yb3_4 3.268138 1_555
Mg1_0 Yb0_2 3.319882 1_555
Mg1_0 Yb0_4 3.319882 1_555
Mg1_0 Yb2_2 3.331418 1_555
Mg1_0 Yb2_4 3.331418 1_555
Mg1_0 Yb3_0 3.465131 1_555
Mg1_0 Mg1_6 3.486837 1_545
Mg1_0 Mg1_6 3.486837 1_455
Mg1_1 Yb3_5 3.268138 1_555
Mg1_1 Yb3_3 3.268138 1_555
Mg1_1 Yb0_5 3.319882 1_555
Mg1_1 Yb0_3 3.319882 1_555
Mg1_1 Yb2_5 3.331418 1_555
Mg1_1 Yb2_3 3.331418 1_555
Mg1_1 Yb3_1 3.465131 1_555
Mg1_1 Mg1_7 3.486837 1_545
Mg1_1 Mg1_7 3.486837 1_455
Mg1_2 Yb3_6 3.268138 1_555
Mg1_2 Yb3_0 3.268138 1_565
Mg1_2 Yb0_6 3.319882 1_555
Mg1_2 Yb0_0 3.319882 1_565
Mg1_2 Yb2_6 3.331418 1_555
Mg1_2 Yb2_0 3.331418 1_565
Mg1_2 Yb3_2 3.465131 1_555
Mg1_2 Mg1_4 3.486837 1_555
Mg1_2 Mg1_4 3.486837 1_465
Mg1_3 Yb3_7 3.268138 1_555
Mg1_3 Yb3_1 3.268138 1_565
Mg1_3 Yb0_7 3.319882 1_555
Mg1_3 Yb0_1 3.319882 1_565
Mg1_3 Yb2_7 3.331418 1_555
Mg1_3 Yb2_1 3.331418 1_565
Mg1_3 Yb3_3 3.465131 1_555
Mg1_3 Mg1_5 3.486837 1_555
Mg1_3 Mg1_5 3.486837 1_465
Mg1_4 Yb3_6 3.268138 1_555
Mg1_4 Yb3_0 3.268138 1_655
Mg1_4 Yb0_6 3.319882 1_555
Mg1_4 Yb0_0 3.319882 1_655
Mg1_4 Yb2_6 3.331418 1_555
Mg1_4 Yb2_0 3.331418 1_655
Mg1_4 Yb3_4 3.465131 1_555
Mg1_5 Yb3_1 3.268138 1_655
Mg1_5 Yb3_7 3.268138 1_555
Mg1_5 Yb0_1 3.319882 1_655
Mg1_5 Yb0_7 3.319882 1_555
Mg1_5 Yb2_7 3.331418 1_555
Mg1_5 Yb2_1 3.331418 1_655
Mg1_5 Yb3_5 3.465131 1_555
Mg1_6 Yb3_4 3.268138 1_565
Mg1_6 Yb3_2 3.268138 1_655
Mg1_6 Yb0_2 3.319882 1_655
Mg1_6 Yb0_4 3.319882 1_565
Mg1_6 Yb2_4 3.331418 1_565
Mg1_6 Yb2_2 3.331418 1_655
Mg1_6 Yb3_6 3.465131 1_555
Mg1_7 Yb3_5 3.268138 1_565
Mg1_7 Yb3_3 3.268138 1_655
Mg1_7 Yb0_5 3.319882 1_565
Mg1_7 Yb0_3 3.319882 1_655
Mg1_7 Yb2_5 3.331418 1_565
Mg1_7 Yb2_3 3.331418 1_655
Mg1_7 Yb3_7 3.465131 1_555
