# generated using pymatgen
data_CsTa(BO3)2
_symmetry_space_group_name_H-M   'P 1'
_cell_length_a   3.96778700
_cell_length_b   7.65830200
_cell_length_c   9.91713300
_cell_angle_alpha   90.00000000
_cell_angle_beta   90.00000000
_cell_angle_gamma   90.00000000
_symmetry_Int_Tables_number   1
_chemical_formula_structural   CsTa(BO3)2
_chemical_formula_sum   'Cs2 Ta2 B4 O12'
_cell_volume   301.34707216
_cell_formula_units_Z   2
loop_
 _symmetry_equiv_pos_site_id
 _symmetry_equiv_pos_as_xyz
  1  'x, y, z'
loop_
 _atom_site_type_symbol
 _atom_site_label
 _atom_site_symmetry_multiplicity
 _atom_site_fract_x
 _atom_site_fract_y
 _atom_site_fract_z
 _atom_site_occupancy
  Cs  Cs0  1  0.48002900  0.00000000  0.38575800  1
  Cs  Cs1  1  0.51997100  0.50000000  0.88575800  1
  Ta  Ta0  1  0.06625600  0.00000000  0.77356100  1
  Ta  Ta1  1  0.93374400  0.50000000  0.27356100  1
  B  B0  1  0.00646800  0.33712700  0.56231100  1
  B  B1  1  0.99353200  0.16287300  0.06231100  1
  B  B2  1  0.99353200  0.83712700  0.06231100  1
  B  B3  1  0.00646800  0.66287300  0.56231100  1
  O  O0  1  0.03891800  0.19151400  0.64019200  1
  O  O1  1  0.96108200  0.30848600  0.14019200  1
  O  O2  1  0.96108200  0.69151400  0.14019200  1
  O  O3  1  0.03891800  0.80848600  0.64019200  1
  O  O4  1  0.03585000  0.82396400  0.92632800  1
  O  O5  1  0.96415000  0.67603600  0.42632800  1
  O  O6  1  0.96415000  0.32396400  0.42632800  1
  O  O7  1  0.03585000  0.17603600  0.92632800  1
  O  O8  1  0.54003700  0.00000000  0.77159400  1
  O  O9  1  0.45996300  0.50000000  0.27159400  1
  O  O10  1  0.97906300  0.00000000  0.12822600  1
  O  O11  1  0.02093700  0.50000000  0.62822600  1
loop_
_geom_bond_atom_site_label_1
_geom_bond_atom_site_label_2
_geom_bond_distance
_geom_bond_site_symmetry_2
Cs0 O6 3.163404 1_555
Cs0 O5 3.163404 1_545
Cs0 O10 3.231633 1_555
Cs0 O10 3.236335 1_455
Cs0 O6 3.241465 1_455
Cs0 O5 3.241465 1_445
Cs0 O3 3.403126 1_545
Cs0 O0 3.403126 1_555
Cs1 O7 3.163404 1_555
Cs1 O4 3.163404 1_555
Cs1 O11 3.231633 1_555
Cs1 O11 3.236335 1_655
Cs1 O7 3.241465 1_655
Cs1 O4 3.241465 1_655
Cs1 O2 3.403126 1_556
Cs1 O1 3.403126 1_556
B0 O0 1.362596 1_555
B0 O6 1.362708 1_455
B0 O11 1.409410 1_555
B1 O1 1.362596 1_555
B1 O7 1.362708 1_654
B1 O10 1.409410 1_555
B2 O2 1.362596 1_555
B2 O4 1.362708 1_654
B2 O10 1.409410 1_565
B3 O3 1.362596 1_555
B3 O5 1.362708 1_455
B3 O11 1.409410 1_555
O0 Ta0 1.977945 1_555
O1 Ta1 1.977945 1_555
O2 Ta1 1.977945 1_555
O3 Ta0 1.977945 1_565
O4 Ta0 2.031572 1_565
O5 Ta1 2.031572 1_555
O6 Ta1 2.031572 1_555
O7 Ta0 2.031572 1_555
O8 Ta0 1.879963 1_555
O8 Ta0 2.088016 1_655
O9 Ta1 1.879963 1_555
O9 Ta1 2.088016 1_455
