# generated using pymatgen
data_Nd2Mg
_symmetry_space_group_name_H-M   'P 1'
_cell_length_a   7.72766862
_cell_length_b   18.01250801
_cell_length_c   11.23214946
_cell_angle_alpha   90.00000000
_cell_angle_beta   90.00000000
_cell_angle_gamma   77.61330864
_symmetry_Int_Tables_number   1
_chemical_formula_structural   Nd2Mg
_chemical_formula_sum   'Nd32 Mg16'
_cell_volume   1527.06167964
_cell_formula_units_Z   16
loop_
 _symmetry_equiv_pos_site_id
 _symmetry_equiv_pos_as_xyz
  1  'x, y, z'
loop_
 _atom_site_type_symbol
 _atom_site_label
 _atom_site_symmetry_multiplicity
 _atom_site_fract_x
 _atom_site_fract_y
 _atom_site_fract_z
 _atom_site_occupancy
  Nd  Nd0_0  1  0.48836156  0.02327640  0.00000000  1
  Nd  Nd0_1  1  0.48836156  0.02327640  0.50000000  1
  Nd  Nd0_2  1  0.48836156  0.52327640  0.00000000  1
  Nd  Nd0_3  1  0.48836156  0.52327640  0.50000000  1
  Nd  Nd0_4  1  0.98836156  0.02327640  0.00000000  1
  Nd  Nd0_5  1  0.98836156  0.02327640  0.50000000  1
  Nd  Nd0_6  1  0.98836156  0.52327640  0.00000000  1
  Nd  Nd0_7  1  0.98836156  0.52327640  0.50000000  1
  Nd  Nd1_0  1  0.33089065  0.33821870  0.00000000  1
  Nd  Nd1_1  1  0.33089065  0.33821870  0.50000000  1
  Nd  Nd1_2  1  0.33089065  0.83821870  0.00000000  1
  Nd  Nd1_3  1  0.33089065  0.83821870  0.50000000  1
  Nd  Nd1_4  1  0.83089065  0.33821870  0.00000000  1
  Nd  Nd1_5  1  0.83089065  0.33821870  0.50000000  1
  Nd  Nd1_6  1  0.83089065  0.83821870  0.00000000  1
  Nd  Nd1_7  1  0.83089065  0.83821870  0.50000000  1
  Nd  Nd2_0  1  0.40052794  0.19894611  0.25000000  1
  Nd  Nd2_1  1  0.40052794  0.19894611  0.75000000  1
  Nd  Nd2_2  1  0.40052795  0.69894611  0.25000000  1
  Nd  Nd2_3  1  0.40052795  0.69894611  0.75000000  1
  Nd  Nd2_4  1  0.90052795  0.19894611  0.25000000  1
  Nd  Nd2_5  1  0.90052795  0.19894611  0.75000000  1
  Nd  Nd2_6  1  0.90052794  0.69894611  0.25000000  1
  Nd  Nd2_7  1  0.90052794  0.69894611  0.75000000  1
  Nd  Nd3_0  1  0.05799785  0.38400430  0.25000000  1
  Nd  Nd3_1  1  0.05799785  0.38400430  0.75000000  1
  Nd  Nd3_2  1  0.05799785  0.88400430  0.25000000  1
  Nd  Nd3_3  1  0.05799785  0.88400430  0.75000000  1
  Nd  Nd3_4  1  0.55799785  0.38400430  0.25000000  1
  Nd  Nd3_5  1  0.55799785  0.38400430  0.75000000  1
  Nd  Nd3_6  1  0.55799785  0.88400430  0.25000000  1
  Nd  Nd3_7  1  0.55799785  0.88400430  0.75000000  1
  Mg  Mg0_0  1  0.16025919  0.17948012  0.00000000  1
  Mg  Mg0_1  1  0.16025919  0.17948012  0.50000000  1
  Mg  Mg0_2  1  0.16025918  0.67948012  0.00000000  1
  Mg  Mg0_3  1  0.16025918  0.67948012  0.50000000  1
  Mg  Mg0_4  1  0.66025919  0.17948012  0.00000000  1
  Mg  Mg0_5  1  0.66025919  0.17948012  0.50000000  1
  Mg  Mg0_6  1  0.66025919  0.67948012  0.00000000  1
  Mg  Mg0_7  1  0.66025919  0.67948012  0.50000000  1
  Mg  Mg1_0  1  0.22862882  0.04274187  0.25000000  1
  Mg  Mg1_1  1  0.22862882  0.04274187  0.75000000  1
  Mg  Mg1_2  1  0.22862882  0.54274188  0.25000000  1
  Mg  Mg1_3  1  0.22862882  0.54274188  0.75000000  1
  Mg  Mg1_4  1  0.72862881  0.04274187  0.25000000  1
  Mg  Mg1_5  1  0.72862881  0.04274187  0.75000000  1
  Mg  Mg1_6  1  0.72862882  0.54274188  0.25000000  1
  Mg  Mg1_7  1  0.72862882  0.54274188  0.75000000  1
loop_
_geom_bond_atom_site_label_1
_geom_bond_atom_site_label_2
_geom_bond_distance
_geom_bond_site_symmetry_2
Nd0_0 Nd3_6 3.726764 1_545
Nd0_0 Nd3_7 3.726764 1_544
Nd0_0 Nd1_2 3.785798 1_545
Nd0_0 Nd1_6 3.785800 1_545
Nd0_0 Nd0_4 3.863834 1_555
Nd0_0 Nd0_4 3.863834 1_455
Nd0_1 Nd3_7 3.726764 1_545
Nd0_1 Nd3_6 3.726764 1_545
Nd0_1 Nd1_3 3.785798 1_545
Nd0_1 Nd1_7 3.785800 1_545
Nd0_1 Nd0_5 3.863834 1_455
Nd0_1 Nd0_5 3.863834 1_555
Nd0_2 Nd3_4 3.726764 1_555
Nd0_2 Nd3_5 3.726764 1_554
Nd0_2 Nd1_0 3.785798 1_555
Nd0_2 Nd1_4 3.785800 1_555
Nd0_2 Nd0_6 3.863834 1_455
Nd0_2 Nd0_6 3.863834 1_555
Nd0_3 Nd3_5 3.726764 1_555
Nd0_3 Nd3_4 3.726764 1_555
Nd0_3 Nd1_1 3.785798 1_555
Nd0_3 Nd1_5 3.785800 1_555
Nd0_3 Nd0_7 3.863834 1_455
Nd0_3 Nd0_7 3.863834 1_555
Nd0_4 Nd3_2 3.726764 1_645
Nd0_4 Nd3_3 3.726764 1_644
Nd0_4 Nd1_6 3.785798 1_545
Nd0_4 Nd1_2 3.785800 1_645
Nd0_5 Nd3_3 3.726764 1_645
Nd0_5 Nd3_2 3.726764 1_645
Nd0_5 Nd1_7 3.785798 1_545
Nd0_5 Nd1_3 3.785800 1_645
Nd0_6 Nd3_0 3.726764 1_655
Nd0_6 Nd3_1 3.726764 1_654
Nd0_6 Nd1_4 3.785798 1_555
Nd0_6 Nd1_0 3.785800 1_655
Nd0_7 Nd3_1 3.726764 1_655
Nd0_7 Nd3_0 3.726764 1_655
Nd0_7 Nd1_5 3.785798 1_555
Nd0_7 Nd1_1 3.785800 1_655
Nd1_0 Nd3_0 3.502318 1_555
Nd1_0 Nd3_1 3.502318 1_554
Nd1_0 Nd3_4 3.502318 1_555
Nd1_0 Nd3_5 3.502318 1_554
Nd1_0 Nd2_0 3.726770 1_555
Nd1_0 Nd2_1 3.726770 1_554
Nd1_0 Nd1_4 3.863834 1_455
Nd1_0 Nd1_4 3.863834 1_555
Nd1_1 Nd3_1 3.502318 1_555
Nd1_1 Nd3_0 3.502318 1_555
Nd1_1 Nd3_5 3.502318 1_555
Nd1_1 Nd3_4 3.502318 1_555
Nd1_1 Nd2_1 3.726770 1_555
Nd1_1 Nd2_0 3.726770 1_555
Nd1_1 Nd1_5 3.863834 1_455
Nd1_1 Nd1_5 3.863834 1_555
Nd1_2 Nd3_2 3.502318 1_555
Nd1_2 Nd3_3 3.502318 1_554
Nd1_2 Nd3_6 3.502318 1_555
Nd1_2 Nd3_7 3.502318 1_554
Nd1_2 Nd2_2 3.726770 1_555
Nd1_2 Nd2_3 3.726770 1_554
Nd1_2 Nd1_6 3.863834 1_455
Nd1_2 Nd1_6 3.863834 1_555
Nd1_3 Nd3_3 3.502318 1_555
Nd1_3 Nd3_2 3.502318 1_555
Nd1_3 Nd3_7 3.502318 1_555
Nd1_3 Nd3_6 3.502318 1_555
Nd1_3 Nd2_3 3.726770 1_555
Nd1_3 Nd2_2 3.726770 1_555
Nd1_3 Nd1_7 3.863834 1_455
Nd1_3 Nd1_7 3.863834 1_555
Nd1_4 Nd3_4 3.502318 1_555
Nd1_4 Nd3_5 3.502318 1_554
Nd1_4 Nd3_0 3.502318 1_655
Nd1_4 Nd3_1 3.502318 1_654
Nd1_4 Nd2_4 3.726770 1_555
Nd1_4 Nd2_5 3.726770 1_554
Nd1_5 Nd3_5 3.502318 1_555
Nd1_5 Nd3_4 3.502318 1_555
Nd1_5 Nd3_1 3.502318 1_655
Nd1_5 Nd3_0 3.502318 1_655
Nd1_5 Nd2_5 3.726770 1_555
Nd1_5 Nd2_4 3.726770 1_555
Nd1_6 Nd3_6 3.502318 1_555
Nd1_6 Nd3_7 3.502318 1_554
Nd1_6 Nd3_2 3.502318 1_655
Nd1_6 Nd3_3 3.502318 1_654
Nd1_6 Nd2_6 3.726770 1_555
Nd1_6 Nd2_7 3.726770 1_554
Nd1_7 Nd3_7 3.502318 1_555
Nd1_7 Nd3_6 3.502318 1_555
Nd1_7 Nd3_3 3.502318 1_655
Nd1_7 Nd3_2 3.502318 1_655
Nd1_7 Nd2_7 3.726770 1_555
Nd1_7 Nd2_6 3.726770 1_555
Nd2_0 Nd3_4 3.785803 1_555
Nd2_0 Nd3_0 3.785811 1_555
Nd2_0 Nd2_4 3.863834 1_455
Nd2_0 Nd2_4 3.863834 1_555
Nd2_1 Nd3_5 3.785803 1_555
Nd2_1 Nd3_1 3.785811 1_555
Nd2_1 Nd2_5 3.863834 1_455
Nd2_1 Nd2_5 3.863834 1_555
Nd2_2 Nd3_6 3.785803 1_555
Nd2_2 Nd3_2 3.785811 1_555
Nd2_2 Nd2_6 3.863834 1_555
Nd2_2 Nd2_6 3.863834 1_455
Nd2_3 Nd3_7 3.785803 1_555
Nd2_3 Nd3_3 3.785811 1_555
Nd2_3 Nd2_7 3.863834 1_555
Nd2_3 Nd2_7 3.863834 1_455
Nd2_4 Nd3_0 3.785803 1_655
Nd2_4 Nd3_4 3.785811 1_555
Nd2_5 Nd3_1 3.785803 1_655
Nd2_5 Nd3_5 3.785811 1_555
Nd2_6 Nd3_2 3.785803 1_655
Nd2_6 Nd3_6 3.785811 1_555
Nd2_7 Nd3_3 3.785803 1_655
Nd2_7 Nd3_7 3.785811 1_555
Nd3_0 Nd3_4 3.863834 1_455
Nd3_0 Nd3_4 3.863834 1_555
Nd3_1 Nd3_5 3.863834 1_455
Nd3_1 Nd3_5 3.863834 1_555
Nd3_2 Nd3_6 3.863834 1_555
Nd3_2 Nd3_6 3.863834 1_455
Nd3_3 Nd3_7 3.863834 1_455
Nd3_3 Nd3_7 3.863834 1_555
Mg0_0 Nd0_4 3.359239 1_455
Mg0_0 Nd0_0 3.359243 1_555
Mg0_0 Nd1_4 3.395817 1_455
Mg0_0 Nd1_0 3.395824 1_555
Mg0_0 Nd2_4 3.425582 1_455
Mg0_0 Nd2_5 3.425582 1_454
Mg0_0 Nd2_0 3.425597 1_555
Mg0_0 Nd2_1 3.425597 1_554
Mg0_1 Nd0_5 3.359239 1_455
Mg0_1 Nd0_1 3.359243 1_555
Mg0_1 Nd1_5 3.395817 1_455
Mg0_1 Nd1_1 3.395824 1_555
Mg0_1 Nd2_5 3.425582 1_455
Mg0_1 Nd2_4 3.425582 1_455
Mg0_1 Nd2_1 3.425597 1_555
Mg0_1 Nd2_0 3.425597 1_555
Mg0_2 Nd0_6 3.359239 1_455
Mg0_2 Nd0_2 3.359243 1_555
Mg0_2 Nd1_6 3.395817 1_455
Mg0_2 Nd1_2 3.395824 1_555
Mg0_2 Nd2_6 3.425582 1_455
Mg0_2 Nd2_7 3.425582 1_454
Mg0_2 Nd2_2 3.425597 1_555
Mg0_2 Nd2_3 3.425597 1_554
Mg0_3 Nd0_7 3.359239 1_455
Mg0_3 Nd0_3 3.359243 1_555
Mg0_3 Nd1_7 3.395817 1_455
Mg0_3 Nd1_3 3.395824 1_555
Mg0_3 Nd2_7 3.425582 1_455
Mg0_3 Nd2_6 3.425582 1_455
Mg0_3 Nd2_3 3.425597 1_555
Mg0_3 Nd2_2 3.425597 1_555
Mg0_4 Nd0_0 3.359239 1_555
Mg0_4 Nd0_4 3.359243 1_555
Mg0_4 Nd1_0 3.395817 1_555
Mg0_4 Nd1_4 3.395824 1_555
Mg0_4 Nd2_0 3.425582 1_555
Mg0_4 Nd2_1 3.425582 1_554
Mg0_4 Nd2_4 3.425597 1_555
Mg0_4 Nd2_5 3.425597 1_554
Mg0_5 Nd0_1 3.359239 1_555
Mg0_5 Nd0_5 3.359243 1_555
Mg0_5 Nd1_1 3.395817 1_555
Mg0_5 Nd1_5 3.395824 1_555
Mg0_5 Nd2_1 3.425582 1_555
Mg0_5 Nd2_0 3.425582 1_555
Mg0_5 Nd2_5 3.425597 1_555
Mg0_5 Nd2_4 3.425597 1_555
Mg0_6 Nd0_2 3.359239 1_555
Mg0_6 Nd0_6 3.359243 1_555
Mg0_6 Nd1_2 3.395817 1_555
Mg0_6 Nd1_6 3.395824 1_555
Mg0_6 Nd2_2 3.425582 1_555
Mg0_6 Nd2_3 3.425582 1_554
Mg0_6 Nd2_6 3.425597 1_555
Mg0_6 Nd2_7 3.425597 1_554
Mg0_7 Nd0_3 3.359239 1_555
Mg0_7 Nd0_7 3.359243 1_555
Mg0_7 Nd1_3 3.395817 1_555
Mg0_7 Nd1_7 3.395824 1_555
Mg0_7 Nd2_3 3.425582 1_555
Mg0_7 Nd2_2 3.425582 1_555
Mg0_7 Nd2_7 3.425597 1_555
Mg0_7 Nd2_6 3.425597 1_555
Mg1_0 Nd2_4 3.359242 1_455
Mg1_0 Nd2_0 3.359254 1_555
Mg1_0 Nd3_2 3.395805 1_545
Mg1_0 Nd3_6 3.395807 1_545
Mg1_0 Nd0_1 3.425589 1_555
Mg1_0 Nd0_0 3.425589 1_555
Mg1_0 Nd0_5 3.425589 1_455
Mg1_0 Nd0_4 3.425589 1_455
Mg1_1 Nd2_5 3.359242 1_455
Mg1_1 Nd2_1 3.359254 1_555
Mg1_1 Nd3_3 3.395805 1_545
Mg1_1 Nd3_7 3.395807 1_545
Mg1_1 Nd0_1 3.425589 1_555
Mg1_1 Nd0_0 3.425589 1_556
Mg1_1 Nd0_5 3.425589 1_455
Mg1_1 Nd0_4 3.425589 1_456
Mg1_2 Nd2_6 3.359242 1_455
Mg1_2 Nd2_2 3.359254 1_555
Mg1_2 Nd3_0 3.395805 1_555
Mg1_2 Nd3_4 3.395807 1_555
Mg1_2 Nd0_2 3.425589 1_555
Mg1_2 Nd0_3 3.425589 1_555
Mg1_2 Nd0_7 3.425589 1_455
Mg1_2 Nd0_6 3.425589 1_455
Mg1_3 Nd2_7 3.359242 1_455
Mg1_3 Nd2_3 3.359254 1_555
Mg1_3 Nd3_1 3.395805 1_555
Mg1_3 Nd3_5 3.395807 1_555
Mg1_3 Nd0_3 3.425589 1_555
Mg1_3 Nd0_2 3.425589 1_556
Mg1_3 Nd0_7 3.425589 1_455
Mg1_3 Nd0_6 3.425589 1_456
Mg1_4 Nd2_0 3.359242 1_555
Mg1_4 Nd2_4 3.359254 1_555
Mg1_4 Nd3_6 3.395805 1_545
Mg1_4 Nd3_2 3.395807 1_645
Mg1_4 Nd0_4 3.425589 1_555
Mg1_4 Nd0_5 3.425589 1_555
Mg1_4 Nd0_1 3.425589 1_555
Mg1_4 Nd0_0 3.425589 1_555
Mg1_5 Nd2_1 3.359242 1_555
Mg1_5 Nd2_5 3.359254 1_555
Mg1_5 Nd3_7 3.395805 1_545
Mg1_5 Nd3_3 3.395807 1_645
Mg1_5 Nd0_5 3.425589 1_555
Mg1_5 Nd0_4 3.425589 1_556
Mg1_5 Nd0_1 3.425589 1_555
Mg1_5 Nd0_0 3.425589 1_556
Mg1_6 Nd2_2 3.359242 1_555
Mg1_6 Nd2_6 3.359254 1_555
Mg1_6 Nd3_4 3.395805 1_555
Mg1_6 Nd3_0 3.395807 1_655
Mg1_6 Nd0_7 3.425589 1_555
Mg1_6 Nd0_6 3.425589 1_555
Mg1_6 Nd0_2 3.425589 1_555
Mg1_6 Nd0_3 3.425589 1_555
Mg1_7 Nd2_3 3.359242 1_555
Mg1_7 Nd2_7 3.359254 1_555
Mg1_7 Nd3_5 3.395805 1_555
Mg1_7 Nd3_1 3.395807 1_655
Mg1_7 Nd0_7 3.425589 1_555
Mg1_7 Nd0_6 3.425589 1_556
Mg1_7 Nd0_3 3.425589 1_555
Mg1_7 Nd0_2 3.425589 1_556
