# generated using pymatgen
data_NaLa6OsI12
_symmetry_space_group_name_H-M   'P 1'
_cell_length_a   9.46627500
_cell_length_b   13.38733400
_cell_length_c   13.38733458
_cell_angle_alpha   119.99999857
_cell_angle_beta   90.00000000
_cell_angle_gamma   90.00000000
_symmetry_Int_Tables_number   1
_chemical_formula_structural   NaLa6OsI12
_chemical_formula_sum   'Na1 La6 Os1 I12'
_cell_volume   1469.25768473
_cell_formula_units_Z   1
loop_
 _symmetry_equiv_pos_site_id
 _symmetry_equiv_pos_as_xyz
  1  'x, y, z'
loop_
 _atom_site_type_symbol
 _atom_site_label
 _atom_site_symmetry_multiplicity
 _atom_site_fract_x
 _atom_site_fract_y
 _atom_site_fract_z
 _atom_site_occupancy
  Na  Na0  1  0.00000000  0.00000000  0.00000000  1
  La  La0  1  0.46745100  0.60457300  0.79496200  1
  La  La1  1  0.60457300  0.19038900  0.72293900  1
  La  La2  1  0.19038900  0.53254900  0.92797600  1
  La  La3  1  0.39542700  0.80961100  0.27706100  1
  La  La4  1  0.53254900  0.39542700  0.20503800  1
  La  La5  1  0.80961100  0.46745100  0.07202400  1
  Os  Os0  1  0.50000000  0.50000000  0.00000000  1
  I  I0  1  0.11980500  0.65174300  0.69226900  1
  I  I1  1  0.95947400  0.11980500  0.77154800  1
  I  I2  1  0.72748900  0.81564600  0.39095900  1
  I  I3  1  0.65174300  0.04052600  0.92072100  1
  I  I4  1  0.04052600  0.88019500  0.22845200  1
  I  I5  1  0.18435400  0.42468700  0.15217600  1
  I  I6  1  0.88019500  0.34825700  0.30773100  1
  I  I7  1  0.27251100  0.18435400  0.60904100  1
  I  I8  1  0.34825700  0.95947400  0.07927900  1
  I  I9  1  0.42468700  0.72748900  0.54313500  1
  I  I10  1  0.81564600  0.57531300  0.84782400  1
  I  I11  1  0.57531300  0.27251100  0.45686500  1
loop_
_geom_bond_atom_site_label_1
_geom_bond_atom_site_label_2
_geom_bond_distance
_geom_bond_site_symmetry_2
La0 Os0 3.664983 1_556
La1 Os0 4.067380 1_556
La2 Os0 3.182716 1_556
La3 Os0 4.067380 1_555
La4 Os0 3.664983 1_555
La5 Os0 3.182716 1_555
I0 La0 3.739928 1_555
I1 La1 3.635674 1_555
I2 La3 3.476956 1_555
I3 Na0 3.586753 1_656
I3 La1 4.067841 1_555
I4 La3 3.635674 1_555
I5 La4 3.434501 1_555
I5 La5 3.831138 1_455
I5 La2 3.928235 1_554
I6 La4 3.739928 1_555
I7 La1 3.476956 1_555
I8 Na0 3.586753 1_565
I8 La3 4.067841 1_555
I9 La3 4.229593 1_555
I10 La0 3.434501 1_555
I10 La2 3.831138 1_655
I10 La5 3.928235 1_556
I11 La1 4.229593 1_555
