# generated using pymatgen
data_Li2Mg
_symmetry_space_group_name_H-M   'P 1'
_cell_length_a   6.16257616
_cell_length_b   16.33018756
_cell_length_c   10.09407982
_cell_angle_alpha   90.00000000
_cell_angle_beta   90.00000000
_cell_angle_gamma   79.12385622
_symmetry_Int_Tables_number   1
_chemical_formula_structural   Li2Mg
_chemical_formula_sum   'Li32 Mg16'
_cell_volume   997.58111197
_cell_formula_units_Z   16
loop_
 _symmetry_equiv_pos_site_id
 _symmetry_equiv_pos_as_xyz
  1  'x, y, z'
loop_
 _atom_site_type_symbol
 _atom_site_label
 _atom_site_symmetry_multiplicity
 _atom_site_fract_x
 _atom_site_fract_y
 _atom_site_fract_z
 _atom_site_occupancy
  Li  Li0_0  1  0.00092833  0.49814385  0.00000000  1
  Li  Li0_1  1  0.00092833  0.49814385  0.50000000  1
  Li  Li0_2  1  0.00092832  0.99814385  0.00000000  1
  Li  Li0_3  1  0.00092832  0.99814385  0.50000000  1
  Li  Li0_4  1  0.50092832  0.49814385  0.00000000  1
  Li  Li0_5  1  0.50092832  0.49814385  0.50000000  1
  Li  Li0_6  1  0.50092832  0.99814385  0.00000000  1
  Li  Li0_7  1  0.50092832  0.99814385  0.50000000  1
  Li  Li1_0  1  0.33355864  0.33288221  0.00000000  1
  Li  Li1_1  1  0.33355864  0.33288221  0.50000000  1
  Li  Li1_2  1  0.33355865  0.83288221  0.00000000  1
  Li  Li1_3  1  0.33355865  0.83288221  0.50000000  1
  Li  Li1_4  1  0.83355864  0.33288221  0.00000000  1
  Li  Li1_5  1  0.83355864  0.33288221  0.50000000  1
  Li  Li1_6  1  0.83355865  0.83288221  0.00000000  1
  Li  Li1_7  1  0.83355865  0.83288221  0.50000000  1
  Li  Li2_0  1  0.22199686  0.05600629  0.25000050  1
  Li  Li2_1  1  0.22199686  0.05600629  0.75000050  1
  Li  Li2_2  1  0.22199686  0.55600629  0.25000050  1
  Li  Li2_3  1  0.22199686  0.55600629  0.75000050  1
  Li  Li2_4  1  0.72199686  0.05600629  0.25000050  1
  Li  Li2_5  1  0.72199686  0.05600629  0.75000050  1
  Li  Li2_6  1  0.72199686  0.55600629  0.25000050  1
  Li  Li2_7  1  0.72199686  0.55600629  0.75000050  1
  Li  Li3_0  1  0.05462717  0.39074465  0.25000050  1
  Li  Li3_1  1  0.05462717  0.39074465  0.75000050  1
  Li  Li3_2  1  0.05462717  0.89074465  0.25000050  1
  Li  Li3_3  1  0.05462717  0.89074465  0.75000050  1
  Li  Li3_4  1  0.55462718  0.39074465  0.25000050  1
  Li  Li3_5  1  0.55462718  0.39074465  0.75000050  1
  Li  Li3_6  1  0.55462718  0.89074465  0.25000050  1
  Li  Li3_7  1  0.55462718  0.89074465  0.75000050  1
  Mg  Mg0_0  1  0.16813802  0.16372395  0.00000000  1
  Mg  Mg0_1  1  0.16813802  0.16372395  0.50000000  1
  Mg  Mg0_2  1  0.16813802  0.66372395  0.00000000  1
  Mg  Mg0_3  1  0.16813802  0.66372395  0.50000000  1
  Mg  Mg0_4  1  0.66813802  0.16372395  0.00000000  1
  Mg  Mg0_5  1  0.66813802  0.16372395  0.50000000  1
  Mg  Mg0_6  1  0.66813803  0.66372395  0.00000000  1
  Mg  Mg0_7  1  0.66813803  0.66372395  0.50000000  1
  Mg  Mg1_0  1  0.38741798  0.22516505  0.25000050  1
  Mg  Mg1_1  1  0.38741798  0.22516505  0.75000050  1
  Mg  Mg1_2  1  0.38741798  0.72516505  0.25000050  1
  Mg  Mg1_3  1  0.38741798  0.72516505  0.75000050  1
  Mg  Mg1_4  1  0.88741798  0.22516505  0.25000050  1
  Mg  Mg1_5  1  0.88741798  0.22516505  0.75000050  1
  Mg  Mg1_6  1  0.88741798  0.72516505  0.25000050  1
  Mg  Mg1_7  1  0.88741798  0.72516505  0.75000050  1
loop_
_geom_bond_atom_site_label_1
_geom_bond_atom_site_label_2
_geom_bond_distance
_geom_bond_site_symmetry_2
Li0_0 Li3_1 3.055258 1_554
Li0_0 Li3_0 3.055266 1_555
Li0_0 Li1_0 3.065541 1_555
Li0_0 Li1_4 3.065544 1_455
Li0_0 Mg0_2 3.069958 1_555
Li0_0 Mg0_6 3.069960 1_455
Li0_0 Li0_4 3.081288 1_555
Li0_0 Li0_4 3.081288 1_455
Li0_0 Li2_3 3.098833 1_554
Li0_0 Li2_7 3.098834 1_454
Li0_0 Li2_2 3.098841 1_555
Li0_0 Li2_6 3.098842 1_455
Li0_1 Li3_0 3.055258 1_555
Li0_1 Li3_1 3.055266 1_555
Li0_1 Li1_1 3.065541 1_555
Li0_1 Li1_5 3.065544 1_455
Li0_1 Mg0_3 3.069958 1_555
Li0_1 Mg0_7 3.069960 1_455
Li0_1 Li0_5 3.081288 1_555
Li0_1 Li0_5 3.081288 1_455
Li0_1 Li2_2 3.098833 1_555
Li0_1 Li2_6 3.098834 1_455
Li0_1 Li2_3 3.098841 1_555
Li0_1 Li2_7 3.098842 1_455
Li0_2 Li3_3 3.055258 1_554
Li0_2 Li3_2 3.055266 1_555
Li0_2 Li1_2 3.065541 1_555
Li0_2 Li1_6 3.065544 1_455
Li0_2 Mg0_0 3.069958 1_565
Li0_2 Mg0_4 3.069960 1_465
Li0_2 Li0_6 3.081288 1_555
Li0_2 Li0_6 3.081288 1_455
Li0_2 Li2_1 3.098833 1_564
Li0_2 Li2_5 3.098834 1_464
Li0_2 Li2_0 3.098841 1_565
Li0_2 Li2_4 3.098842 1_465
Li0_3 Li3_2 3.055258 1_555
Li0_3 Li3_3 3.055266 1_555
Li0_3 Li1_3 3.065541 1_555
Li0_3 Li1_7 3.065544 1_455
Li0_3 Mg0_1 3.069958 1_565
Li0_3 Mg0_5 3.069960 1_465
Li0_3 Li0_7 3.081288 1_555
Li0_3 Li0_7 3.081288 1_455
Li0_3 Li2_0 3.098833 1_565
Li0_3 Li2_4 3.098834 1_465
Li0_3 Li2_1 3.098841 1_565
Li0_3 Li2_5 3.098842 1_465
Li0_4 Li3_5 3.055258 1_554
Li0_4 Li3_4 3.055266 1_555
Li0_4 Li1_4 3.065541 1_555
Li0_4 Li1_0 3.065544 1_555
Li0_4 Mg0_6 3.069958 1_555
Li0_4 Mg0_2 3.069960 1_555
Li0_4 Li2_7 3.098833 1_554
Li0_4 Li2_3 3.098834 1_554
Li0_4 Li2_6 3.098841 1_555
Li0_4 Li2_2 3.098842 1_555
Li0_5 Li3_4 3.055258 1_555
Li0_5 Li3_5 3.055266 1_555
Li0_5 Li1_5 3.065541 1_555
Li0_5 Li1_1 3.065544 1_555
Li0_5 Mg0_7 3.069958 1_555
Li0_5 Mg0_3 3.069960 1_555
Li0_5 Li2_6 3.098833 1_555
Li0_5 Li2_2 3.098834 1_555
Li0_5 Li2_7 3.098841 1_555
Li0_5 Li2_3 3.098842 1_555
Li0_6 Li3_7 3.055258 1_554
Li0_6 Li3_6 3.055266 1_555
Li0_6 Li1_6 3.065541 1_555
Li0_6 Li1_2 3.065544 1_555
Li0_6 Mg0_4 3.069958 1_565
Li0_6 Mg0_0 3.069960 1_565
Li0_6 Li2_5 3.098833 1_564
Li0_6 Li2_1 3.098834 1_564
Li0_6 Li2_4 3.098841 1_565
Li0_6 Li2_0 3.098842 1_565
Li0_7 Li3_6 3.055258 1_555
Li0_7 Li3_7 3.055266 1_555
Li0_7 Li1_7 3.065541 1_555
Li0_7 Li1_3 3.065544 1_555
Li0_7 Mg0_5 3.069958 1_565
Li0_7 Mg0_1 3.069960 1_565
Li0_7 Li2_4 3.098833 1_565
Li0_7 Li2_0 3.098834 1_565
Li0_7 Li2_5 3.098841 1_565
Li0_7 Li2_1 3.098842 1_565
Li1_0 Mg1_1 3.058135 1_554
Li1_0 Mg1_0 3.058144 1_555
Li1_0 Li1_4 3.081288 1_455
Li1_0 Li1_4 3.081288 1_555
Li1_0 Li3_5 3.098833 1_554
Li1_0 Li3_1 3.098834 1_554
Li1_0 Li3_4 3.098841 1_555
Li1_0 Li3_0 3.098842 1_555
Li1_0 Mg0_0 3.119724 1_555
Li1_0 Mg0_4 3.119726 1_555
Li1_1 Mg1_0 3.058135 1_555
Li1_1 Mg1_1 3.058144 1_555
Li1_1 Li1_5 3.081288 1_455
Li1_1 Li1_5 3.081288 1_555
Li1_1 Li3_4 3.098833 1_555
Li1_1 Li3_0 3.098834 1_555
Li1_1 Li3_5 3.098841 1_555
Li1_1 Li3_1 3.098842 1_555
Li1_1 Mg0_1 3.119724 1_555
Li1_1 Mg0_5 3.119726 1_555
Li1_2 Mg1_3 3.058135 1_554
Li1_2 Mg1_2 3.058144 1_555
Li1_2 Li1_6 3.081288 1_455
Li1_2 Li1_6 3.081288 1_555
Li1_2 Li3_7 3.098833 1_554
Li1_2 Li3_3 3.098834 1_554
Li1_2 Li3_6 3.098841 1_555
Li1_2 Li3_2 3.098842 1_555
Li1_2 Mg0_2 3.119724 1_555
Li1_2 Mg0_6 3.119726 1_555
Li1_3 Mg1_2 3.058135 1_555
Li1_3 Mg1_3 3.058144 1_555
Li1_3 Li1_7 3.081288 1_455
Li1_3 Li1_7 3.081288 1_555
Li1_3 Li3_6 3.098833 1_555
Li1_3 Li3_2 3.098834 1_555
Li1_3 Li3_7 3.098841 1_555
Li1_3 Li3_3 3.098842 1_555
Li1_3 Mg0_3 3.119724 1_555
Li1_3 Mg0_7 3.119726 1_555
Li1_4 Mg1_5 3.058135 1_554
Li1_4 Mg1_4 3.058144 1_555
Li1_4 Li3_1 3.098833 1_654
Li1_4 Li3_5 3.098834 1_554
Li1_4 Li3_0 3.098841 1_655
Li1_4 Li3_4 3.098842 1_555
Li1_4 Mg0_4 3.119724 1_555
Li1_4 Mg0_0 3.119726 1_655
Li1_5 Mg1_4 3.058135 1_555
Li1_5 Mg1_5 3.058144 1_555
Li1_5 Li3_0 3.098833 1_655
Li1_5 Li3_4 3.098834 1_555
Li1_5 Li3_1 3.098841 1_655
Li1_5 Li3_5 3.098842 1_555
Li1_5 Mg0_5 3.119724 1_555
Li1_5 Mg0_1 3.119726 1_655
Li1_6 Mg1_7 3.058135 1_554
Li1_6 Mg1_6 3.058144 1_555
Li1_6 Li3_3 3.098833 1_654
Li1_6 Li3_7 3.098834 1_554
Li1_6 Li3_2 3.098841 1_655
Li1_6 Li3_6 3.098842 1_555
Li1_6 Mg0_6 3.119724 1_555
Li1_6 Mg0_2 3.119726 1_655
Li1_7 Mg1_6 3.058135 1_555
Li1_7 Mg1_7 3.058144 1_555
Li1_7 Li3_2 3.098833 1_655
Li1_7 Li3_6 3.098834 1_555
Li1_7 Li3_3 3.098841 1_655
Li1_7 Li3_7 3.098842 1_555
Li1_7 Mg0_7 3.119724 1_555
Li1_7 Mg0_3 3.119726 1_655
Li2_0 Mg0_1 3.058140 1_555
Li2_0 Mg0_0 3.058148 1_555
Li2_0 Li3_6 3.065541 1_545
Li2_0 Li3_2 3.065544 1_545
Li2_0 Li2_4 3.081288 1_455
Li2_0 Li2_4 3.081288 1_555
Li2_0 Mg1_4 3.119731 1_455
Li2_0 Mg1_0 3.119734 1_555
Li2_1 Mg0_0 3.058140 1_556
Li2_1 Mg0_1 3.058148 1_555
Li2_1 Li3_7 3.065541 1_545
Li2_1 Li3_3 3.065544 1_545
Li2_1 Li2_5 3.081288 1_455
Li2_1 Li2_5 3.081288 1_555
Li2_1 Mg1_5 3.119731 1_455
Li2_1 Mg1_1 3.119734 1_555
Li2_2 Mg0_3 3.058140 1_555
Li2_2 Mg0_2 3.058148 1_555
Li2_2 Li3_4 3.065541 1_555
Li2_2 Li3_0 3.065544 1_555
Li2_2 Li2_6 3.081288 1_455
Li2_2 Li2_6 3.081288 1_555
Li2_2 Mg1_6 3.119731 1_455
Li2_2 Mg1_2 3.119734 1_555
Li2_3 Mg0_2 3.058140 1_556
Li2_3 Mg0_3 3.058148 1_555
Li2_3 Li3_5 3.065541 1_555
Li2_3 Li3_1 3.065544 1_555
Li2_3 Li2_7 3.081288 1_455
Li2_3 Li2_7 3.081288 1_555
Li2_3 Mg1_7 3.119731 1_455
Li2_3 Mg1_3 3.119734 1_555
Li2_4 Mg0_5 3.058140 1_555
Li2_4 Mg0_4 3.058148 1_555
Li2_4 Li3_2 3.065541 1_645
Li2_4 Li3_6 3.065544 1_545
Li2_4 Mg1_0 3.119731 1_555
Li2_4 Mg1_4 3.119734 1_555
Li2_5 Mg0_4 3.058140 1_556
Li2_5 Mg0_5 3.058148 1_555
Li2_5 Li3_3 3.065541 1_645
Li2_5 Li3_7 3.065544 1_545
Li2_5 Mg1_1 3.119731 1_555
Li2_5 Mg1_5 3.119734 1_555
Li2_6 Mg0_7 3.058140 1_555
Li2_6 Mg0_6 3.058148 1_555
Li2_6 Li3_0 3.065541 1_655
Li2_6 Li3_4 3.065544 1_555
Li2_6 Mg1_2 3.119731 1_555
Li2_6 Mg1_6 3.119734 1_555
Li2_7 Mg0_6 3.058140 1_556
Li2_7 Mg0_7 3.058148 1_555
Li2_7 Li3_1 3.065541 1_655
Li2_7 Li3_5 3.065544 1_555
Li2_7 Mg1_3 3.119731 1_555
Li2_7 Mg1_7 3.119734 1_555
Li3_0 Mg1_4 3.069949 1_455
Li3_0 Mg1_0 3.069955 1_555
Li3_0 Li3_4 3.081288 1_455
Li3_0 Li3_4 3.081288 1_555
Li3_1 Mg1_5 3.069949 1_455
Li3_1 Mg1_1 3.069955 1_555
Li3_1 Li3_5 3.081288 1_455
Li3_1 Li3_5 3.081288 1_555
Li3_2 Mg1_6 3.069949 1_455
Li3_2 Mg1_2 3.069955 1_555
Li3_2 Li3_6 3.081288 1_455
Li3_2 Li3_6 3.081288 1_555
Li3_3 Mg1_7 3.069949 1_455
Li3_3 Mg1_3 3.069955 1_555
Li3_3 Li3_7 3.081288 1_455
Li3_3 Li3_7 3.081288 1_555
Li3_4 Mg1_0 3.069949 1_555
Li3_4 Mg1_4 3.069955 1_555
Li3_5 Mg1_1 3.069949 1_555
Li3_5 Mg1_5 3.069955 1_555
Li3_6 Mg1_2 3.069949 1_555
Li3_6 Mg1_6 3.069955 1_555
Li3_7 Mg1_3 3.069949 1_555
Li3_7 Mg1_7 3.069955 1_555
Mg0_0 Mg0_4 3.081288 1_555
Mg0_0 Mg0_4 3.081288 1_455
Mg0_0 Mg1_5 3.116498 1_454
Mg0_0 Mg1_1 3.116501 1_554
Mg0_0 Mg1_4 3.116506 1_455
Mg0_0 Mg1_0 3.116509 1_555
Mg0_1 Mg0_5 3.081288 1_455
Mg0_1 Mg0_5 3.081288 1_555
Mg0_1 Mg1_4 3.116498 1_455
Mg0_1 Mg1_0 3.116501 1_555
Mg0_1 Mg1_5 3.116506 1_455
Mg0_1 Mg1_1 3.116509 1_555
Mg0_2 Mg0_6 3.081288 1_455
Mg0_2 Mg0_6 3.081288 1_555
Mg0_2 Mg1_7 3.116498 1_454
Mg0_2 Mg1_3 3.116501 1_554
Mg0_2 Mg1_6 3.116506 1_455
Mg0_2 Mg1_2 3.116509 1_555
Mg0_3 Mg0_7 3.081288 1_455
Mg0_3 Mg0_7 3.081288 1_555
Mg0_3 Mg1_6 3.116498 1_455
Mg0_3 Mg1_2 3.116501 1_555
Mg0_3 Mg1_7 3.116506 1_455
Mg0_3 Mg1_3 3.116509 1_555
Mg0_4 Mg1_1 3.116498 1_554
Mg0_4 Mg1_5 3.116501 1_554
Mg0_4 Mg1_0 3.116506 1_555
Mg0_4 Mg1_4 3.116509 1_555
Mg0_5 Mg1_0 3.116498 1_555
Mg0_5 Mg1_4 3.116501 1_555
Mg0_5 Mg1_1 3.116506 1_555
Mg0_5 Mg1_5 3.116509 1_555
Mg0_6 Mg1_3 3.116498 1_554
Mg0_6 Mg1_7 3.116501 1_554
Mg0_6 Mg1_2 3.116506 1_555
Mg0_6 Mg1_6 3.116509 1_555
Mg0_7 Mg1_2 3.116498 1_555
Mg0_7 Mg1_6 3.116501 1_555
Mg0_7 Mg1_3 3.116506 1_555
Mg0_7 Mg1_7 3.116509 1_555
Mg1_0 Mg1_4 3.081288 1_455
Mg1_0 Mg1_4 3.081288 1_555
Mg1_1 Mg1_5 3.081288 1_455
Mg1_1 Mg1_5 3.081288 1_555
Mg1_2 Mg1_6 3.081288 1_455
Mg1_2 Mg1_6 3.081288 1_555
Mg1_3 Mg1_7 3.081288 1_455
Mg1_3 Mg1_7 3.081288 1_555
