# generated using pymatgen
data_MgCu
_symmetry_space_group_name_H-M   'P 1'
_cell_length_a   3.09690004
_cell_length_b   4.42081481
_cell_length_c   4.41794082
_cell_angle_alpha   90.14851357
_cell_angle_beta   89.99992051
_cell_angle_gamma   90.00008517
_symmetry_Int_Tables_number   1
_chemical_formula_structural   MgCu
_chemical_formula_sum   'Mg2 Cu2'
_cell_volume   60.48503618
_cell_formula_units_Z   2
loop_
 _symmetry_equiv_pos_site_id
 _symmetry_equiv_pos_as_xyz
  1  'x, y, z'
loop_
 _atom_site_type_symbol
 _atom_site_label
 _atom_site_symmetry_multiplicity
 _atom_site_fract_x
 _atom_site_fract_y
 _atom_site_fract_z
 _atom_site_occupancy
  Mg  Mg0  1  0.49998981  0.57430958  0.00298685  1
  Mg  Mg1  1  0.50000883  0.09229896  0.49731815  1
  Cu  Cu0  1  -0.00000033  0.06856547  0.99754798  1
  Cu  Cu1  1  0.99999969  0.59815898  0.50214602  1
loop_
_geom_bond_atom_site_label_1
_geom_bond_atom_site_label_2
_geom_bond_distance
_geom_bond_site_symmetry_2
Cu0 Mg0 2.678199 1_546
Cu0 Mg0 2.678230 1_446
Cu0 Mg1 2.698606 1_456
Cu0 Mg1 2.698642 1_556
Cu0 Mg1 2.700716 1_455
Cu0 Mg1 2.700745 1_555
Cu0 Mg0 2.719687 1_556
Cu0 Mg0 2.719726 1_456
Cu1 Mg1 2.677753 1_565
Cu1 Mg1 2.677782 1_665
Cu1 Mg0 2.696416 1_655
Cu1 Mg0 2.696454 1_555
Cu1 Mg0 2.702945 1_656
Cu1 Mg0 2.702977 1_556
Cu1 Mg1 2.720093 1_555
Cu1 Mg1 2.720129 1_655
