# generated using pymatgen
data_Fe7Se3
_symmetry_space_group_name_H-M   'P 1'
_cell_length_a   5.64625500
_cell_length_b   7.96357600
_cell_length_c   12.53700400
_cell_angle_alpha   90.00000000
_cell_angle_beta   90.00000000
_cell_angle_gamma   90.00000000
_symmetry_Int_Tables_number   1
_chemical_formula_structural   Fe7Se3
_chemical_formula_sum   'Fe28 Se12'
_cell_volume   563.71862205
_cell_formula_units_Z   4
loop_
 _symmetry_equiv_pos_site_id
 _symmetry_equiv_pos_as_xyz
  1  'x, y, z'
loop_
 _atom_site_type_symbol
 _atom_site_label
 _atom_site_symmetry_multiplicity
 _atom_site_fract_x
 _atom_site_fract_y
 _atom_site_fract_z
 _atom_site_occupancy
  Fe  Fe0  1  0.48206700  0.50831100  0.19664600  1
  Fe  Fe1  1  0.68100000  0.41309600  0.00862100  1
  Fe  Fe2  1  0.25177600  0.25000000  0.29908200  1
  Fe  Fe3  1  0.18100000  0.08690400  0.49137900  1
  Fe  Fe4  1  0.01793300  0.49168900  0.69664600  1
  Fe  Fe5  1  0.81715500  0.25000000  0.81361600  1
  Fe  Fe6  1  0.18284500  0.75000000  0.18638400  1
  Fe  Fe7  1  0.13790700  0.75000000  0.59893500  1
  Fe  Fe8  1  0.51793300  0.00831100  0.80335400  1
  Fe  Fe9  1  0.74822400  0.75000000  0.70091800  1
  Fe  Fe10  1  0.51793300  0.49168900  0.80335400  1
  Fe  Fe11  1  0.86209300  0.25000000  0.40106500  1
  Fe  Fe12  1  0.31715500  0.25000000  0.68638400  1
  Fe  Fe13  1  0.01793300  0.00831100  0.69664600  1
  Fe  Fe14  1  0.98206700  0.50831100  0.30335400  1
  Fe  Fe15  1  0.68284500  0.75000000  0.31361600  1
  Fe  Fe16  1  0.81900000  0.91309600  0.50862100  1
  Fe  Fe17  1  0.98206700  0.99168900  0.30335400  1
  Fe  Fe18  1  0.81900000  0.58690400  0.50862100  1
  Fe  Fe19  1  0.31900000  0.58690400  0.99137900  1
  Fe  Fe20  1  0.68100000  0.08690400  0.00862100  1
  Fe  Fe21  1  0.24822400  0.75000000  0.79908200  1
  Fe  Fe22  1  0.63790700  0.75000000  0.90106500  1
  Fe  Fe23  1  0.75177600  0.25000000  0.20091800  1
  Fe  Fe24  1  0.48206700  0.99168900  0.19664600  1
  Fe  Fe25  1  0.31900000  0.91309600  0.99137900  1
  Fe  Fe26  1  0.18100000  0.41309600  0.49137900  1
  Fe  Fe27  1  0.36209300  0.25000000  0.09893500  1
  Se  Se0  1  0.61997500  0.75000000  0.09930100  1
  Se  Se1  1  0.11997500  0.75000000  0.40069900  1
  Se  Se2  1  0.95248500  0.53823400  0.87823200  1
  Se  Se3  1  0.54751500  0.46176600  0.37823200  1
  Se  Se4  1  0.04751500  0.46176600  0.12176800  1
  Se  Se5  1  0.88002500  0.25000000  0.59930100  1
  Se  Se6  1  0.45248500  0.53823400  0.62176800  1
  Se  Se7  1  0.54751500  0.03823400  0.37823200  1
  Se  Se8  1  0.95248500  0.96176600  0.87823200  1
  Se  Se9  1  0.04751500  0.03823400  0.12176800  1
  Se  Se10  1  0.38002500  0.25000000  0.90069900  1
  Se  Se11  1  0.45248500  0.96176600  0.62176800  1
loop_
_geom_bond_atom_site_label_1
_geom_bond_atom_site_label_2
_geom_bond_distance
_geom_bond_site_symmetry_2
Fe0 Se3 2.335937 1_555
Fe0 Se0 2.408367 1_555
Fe0 Se4 2.653064 1_555
Fe1 Se2 2.452551 1_554
Fe1 Se10 2.530911 1_554
Fe1 Se4 2.538702 1_655
Fe1 Se0 2.934185 1_555
Fe2 Se3 2.572344 1_555
Fe2 Se7 2.572344 1_555
Fe3 Se11 2.452551 1_545
Fe3 Se5 2.530911 1_455
Fe3 Se7 2.538702 1_555
Fe3 Se1 2.934185 1_545
Fe4 Se2 2.335937 1_455
Fe4 Se5 2.408367 1_455
Fe4 Se6 2.653064 1_555
Fe5 Se2 2.551244 1_555
Fe5 Se8 2.551244 1_545
Fe5 Se10 2.698832 1_555
Fe5 Se5 2.710216 1_555
Fe6 Se9 2.551244 1_565
Fe6 Se4 2.551244 1_555
Fe6 Se0 2.698832 1_555
Fe6 Se1 2.710216 1_555
Fe7 Se11 2.465924 1_555
Fe7 Se6 2.465924 1_555
Fe7 Se1 2.487347 1_555
Fe8 Se11 2.335937 1_545
Fe8 Se10 2.408367 1_555
Fe8 Se8 2.653064 1_545
Fe9 Se6 2.572344 1_555
Fe9 Se11 2.572344 1_555
Fe10 Se6 2.335937 1_555
Fe10 Se10 2.408367 1_555
Fe10 Se2 2.653064 1_555
Fe11 Se3 2.465924 1_555
Fe11 Se7 2.465924 1_555
Fe11 Se5 2.487347 1_555
Fe12 Se6 2.551244 1_555
Fe12 Se11 2.551244 1_545
Fe12 Se5 2.698832 1_455
Fe12 Se10 2.710216 1_555
Fe13 Se8 2.335937 1_445
Fe13 Se5 2.408367 1_455
Fe13 Se11 2.653064 1_545
Fe14 Se4 2.335937 1_655
Fe14 Se1 2.408367 1_655
Fe14 Se3 2.653064 1_555
Fe15 Se7 2.551244 1_565
Fe15 Se3 2.551244 1_555
Fe15 Se1 2.698832 1_655
Fe15 Se0 2.710216 1_555
Fe16 Se7 2.452551 1_565
Fe16 Se1 2.530911 1_655
Fe16 Se11 2.538702 1_555
Fe16 Se5 2.934185 1_565
Fe17 Se9 2.335937 1_665
Fe17 Se1 2.408367 1_655
Fe17 Se7 2.653064 1_565
Fe18 Se3 2.452551 1_555
Fe18 Se1 2.530911 1_655
Fe18 Se6 2.538702 1_555
Fe18 Se5 2.934185 1_555
Fe19 Se4 2.452551 1_556
Fe19 Se0 2.530911 1_556
Fe19 Se2 2.538702 1_455
Fe19 Se10 2.934185 1_555
Fe20 Se8 2.452551 1_544
Fe20 Se10 2.530911 1_554
Fe20 Se9 2.538702 1_655
Fe20 Se0 2.934185 1_545
Fe21 Se2 2.572344 1_455
Fe21 Se8 2.572344 1_455
Fe22 Se2 2.465924 1_555
Fe22 Se8 2.465924 1_555
Fe22 Se0 2.487347 1_556
Fe23 Se4 2.572344 1_655
Fe23 Se9 2.572344 1_655
Fe24 Se7 2.335937 1_565
Fe24 Se0 2.408367 1_555
Fe24 Se9 2.653064 1_565
Fe25 Se9 2.452551 1_566
Fe25 Se0 2.530911 1_556
Fe25 Se8 2.538702 1_455
Fe25 Se10 2.934185 1_565
Fe26 Se6 2.452551 1_555
Fe26 Se5 2.530911 1_455
Fe26 Se3 2.538702 1_555
Fe26 Se1 2.934185 1_555
Fe27 Se4 2.465924 1_555
Fe27 Se9 2.465924 1_555
Fe27 Se10 2.487347 1_554
