# generated using pymatgen
data_TbAs3
_symmetry_space_group_name_H-M   'P 1'
_cell_length_a   6.01499880
_cell_length_b   6.01499880
_cell_length_c   5.58357500
_cell_angle_alpha   90.00000000
_cell_angle_beta   90.00000000
_cell_angle_gamma   120.00000884
_symmetry_Int_Tables_number   1
_chemical_formula_structural   TbAs3
_chemical_formula_sum   'Tb2 As6'
_cell_volume   174.95003661
_cell_formula_units_Z   2
loop_
 _symmetry_equiv_pos_site_id
 _symmetry_equiv_pos_as_xyz
  1  'x, y, z'
loop_
 _atom_site_type_symbol
 _atom_site_label
 _atom_site_symmetry_multiplicity
 _atom_site_fract_x
 _atom_site_fract_y
 _atom_site_fract_z
 _atom_site_occupancy
  Tb  Tb0  1  0.33333300  0.66666700  0.75000000  1
  Tb  Tb1  1  0.66666700  0.33333300  0.25000000  1
  As  As0  1  0.18553700  0.37107300  0.25000000  1
  As  As1  1  0.62892700  0.81446300  0.25000000  1
  As  As2  1  0.18553700  0.81446300  0.25000000  1
  As  As3  1  0.81446300  0.62892700  0.75000000  1
  As  As4  1  0.37107300  0.18553700  0.75000000  1
  As  As5  1  0.81446300  0.18553700  0.75000000  1
loop_
_geom_bond_atom_site_label_1
_geom_bond_atom_site_label_2
_geom_bond_distance
_geom_bond_site_symmetry_2
As0 As1 2.666990 1_555
As0 As2 2.666990 1_555
As0 Tb1 3.013918 1_455
As0 Tb1 3.013918 1_555
As0 Tb0 3.188265 1_555
As0 Tb0 3.188265 1_554
As1 As2 2.666990 1_555
As1 Tb1 3.013918 1_565
As1 Tb1 3.013918 1_555
As1 Tb0 3.188265 1_555
As1 Tb0 3.188265 1_554
As2 Tb1 3.013918 1_455
As2 Tb1 3.013918 1_565
As2 Tb0 3.188260 1_554
As2 Tb0 3.188260 1_555
As3 As4 2.666990 1_555
As3 As5 2.666990 1_555
As3 Tb0 3.013918 1_655
As3 Tb0 3.013918 1_555
As3 Tb1 3.188265 1_555
As3 Tb1 3.188265 1_556
As4 As5 2.666990 1_555
As4 Tb0 3.013918 1_545
As4 Tb0 3.013918 1_555
As4 Tb1 3.188265 1_555
As4 Tb1 3.188265 1_556
As5 Tb0 3.013918 1_545
As5 Tb0 3.013918 1_655
As5 Tb1 3.188260 1_555
As5 Tb1 3.188260 1_556
