# generated using pymatgen
data_Sr6(RhO3)5
_symmetry_space_group_name_H-M   'P 1'
_cell_length_a   7.99900342
_cell_length_b   7.99900342
_cell_length_c   5.65614900
_cell_angle_alpha   90.00000000
_cell_angle_beta   90.00000000
_cell_angle_gamma   119.99999521
_symmetry_Int_Tables_number   1
_chemical_formula_structural   Sr6(RhO3)5
_chemical_formula_sum   'Sr6 Rh5 O15'
_cell_volume   313.41751237
_cell_formula_units_Z   1
loop_
 _symmetry_equiv_pos_site_id
 _symmetry_equiv_pos_as_xyz
  1  'x, y, z'
loop_
 _atom_site_type_symbol
 _atom_site_label
 _atom_site_symmetry_multiplicity
 _atom_site_fract_x
 _atom_site_fract_y
 _atom_site_fract_z
 _atom_site_occupancy
  Sr  Sr0  1  0.68274600  0.31725400  0.00000000  1
  Sr  Sr1  1  0.00000000  0.68274600  0.68274600  1
  Sr  Sr2  1  0.31725400  0.00000000  0.31725400  1
  Sr  Sr3  1  0.85279900  0.14720100  0.50000000  1
  Sr  Sr4  1  0.50000000  0.85279900  0.85279900  1
  Sr  Sr5  1  0.14720100  0.50000000  0.14720100  1
  Rh  Rh0  1  0.90325000  0.90325000  0.09675000  1
  Rh  Rh1  1  0.09675000  0.09675000  0.90325000  1
  Rh  Rh2  1  0.70745500  0.70745500  0.29254500  1
  Rh  Rh3  1  0.29254500  0.29254500  0.70745500  1
  Rh  Rh4  1  0.50000000  0.50000000  0.50000000  1
  O  O0  1  0.56704100  0.26945600  0.65616700  1
  O  O1  1  0.26945600  0.34383300  0.43295900  1
  O  O2  1  0.34383300  0.56704100  0.73054400  1
  O  O3  1  0.65616700  0.73054400  0.56704100  1
  O  O4  1  0.73054400  0.43295900  0.34383300  1
  O  O5  1  0.43295900  0.65616700  0.26945600  1
  O  O6  1  0.83514200  0.00000000  0.83514200  1
  O  O7  1  0.00000000  0.16485800  0.16485800  1
  O  O8  1  0.16485800  0.83514200  0.00000000  1
  O  O9  1  0.01738500  0.34783500  0.78856300  1
  O  O10  1  0.34783500  0.21143700  0.98261500  1
  O  O11  1  0.98261500  0.78856300  0.34783500  1
  O  O12  1  0.65216500  0.98261500  0.21143700  1
  O  O13  1  0.78856300  0.65216500  0.01738500  1
  O  O14  1  0.21143700  0.01738500  0.65216500  1
loop_
_geom_bond_atom_site_label_1
_geom_bond_atom_site_label_2
_geom_bond_distance
_geom_bond_site_symmetry_2
O0 Sr0 2.105006 1_556
O0 Rh4 2.336133 1_555
O0 Sr2 2.829483 1_555
O1 Rh3 1.639733 1_555
O1 Rh4 1.673734 1_555
O1 Sr5 2.520072 1_555
O2 Rh3 2.026240 1_555
O2 Rh4 2.053852 1_555
O2 Sr4 2.099536 1_555
O2 Sr5 2.733480 1_556
O3 Rh2 1.639733 1_555
O3 Rh4 1.673734 1_555
O3 Sr4 2.520072 1_555
O4 Sr0 2.105006 1_555
O4 Rh4 2.336133 1_555
O4 Sr1 2.829483 1_655
O5 Rh2 2.026240 1_555
O5 Rh4 2.053852 1_555
O5 Sr5 2.099536 1_555
O5 Sr4 2.733480 1_554
O6 Rh0 1.872657 1_546
O6 Rh1 1.872657 1_655
O6 Sr3 2.198502 1_555
O6 Sr4 2.329495 1_545
O7 Rh1 1.872657 1_554
O7 Rh0 1.872657 1_445
O7 Sr3 2.198502 1_455
O7 Sr5 2.329495 1_555
O8 Sr2 2.199421 1_565
O8 Sr1 2.199421 1_554
O8 Rh0 2.472913 1_455
O8 Rh1 2.472913 1_564
O8 Sr4 2.742485 1_554
O8 Sr5 2.742485 1_555
O9 Sr3 2.204525 1_455
O9 Sr5 2.326095 1_556
O9 Rh1 2.476417 1_555
O9 Rh3 2.494777 1_555
O9 Sr1 2.815475 1_555
O9 Sr0 2.828501 1_456
O10 Rh1 1.798442 1_555
O10 Rh3 1.823640 1_555
O10 Sr0 2.373892 1_556
O10 Sr2 2.467618 1_556
O11 Rh0 1.960586 1_555
O11 Rh2 1.983726 1_555
O11 Sr1 2.107579 1_655
O11 Sr2 2.351236 1_665
O12 Sr3 2.204525 1_565
O12 Sr4 2.326095 1_554
O12 Rh0 2.476417 1_555
O12 Rh2 2.494777 1_555
O12 Sr2 2.815475 1_565
O12 Sr0 2.828501 1_565
O13 Rh0 1.798442 1_555
O13 Rh2 1.823640 1_555
O13 Sr0 2.373892 1_555
O13 Sr1 2.467618 1_654
O14 Rh1 1.960586 1_555
O14 Rh3 1.983726 1_555
O14 Sr2 2.107579 1_555
O14 Sr1 2.351236 1_545
