# generated using pymatgen
data_CdAgO2
_symmetry_space_group_name_H-M   'P 1'
_cell_length_a   5.77441786
_cell_length_b   5.77441786
_cell_length_c   3.44813450
_cell_angle_alpha   88.68642510
_cell_angle_beta   88.68642510
_cell_angle_gamma   107.48801549
_symmetry_Int_Tables_number   1
_chemical_formula_structural   CdAgO2
_chemical_formula_sum   'Cd2 Ag2 O4'
_cell_volume   109.57771083
_cell_formula_units_Z   2
loop_
 _symmetry_equiv_pos_site_id
 _symmetry_equiv_pos_as_xyz
  1  'x, y, z'
loop_
 _atom_site_type_symbol
 _atom_site_label
 _atom_site_symmetry_multiplicity
 _atom_site_fract_x
 _atom_site_fract_y
 _atom_site_fract_z
 _atom_site_occupancy
  Cd  Cd0  1  0.50000000  0.00000000  0.50000000  1
  Cd  Cd1  1  0.00000000  0.50000000  0.50000000  1
  Ag  Ag0  1  0.00000000  0.00000000  0.00000000  1
  Ag  Ag1  1  0.50000000  0.50000000  0.00000000  1
  O  O0  1  0.22831600  0.77168400  0.00000000  1
  O  O1  1  0.25226300  0.25226300  0.63014700  1
  O  O2  1  0.77168400  0.22831600  0.00000000  1
  O  O3  1  0.74773700  0.74773700  0.36985300  1
loop_
_geom_bond_atom_site_label_1
_geom_bond_atom_site_label_2
_geom_bond_distance
_geom_bond_site_symmetry_2
Cd0 O3 2.371215 1_545
Cd0 O1 2.371215 1_555
Cd0 O0 2.387561 1_546
Cd0 O2 2.387561 1_555
Cd0 O0 2.481308 1_545
Cd0 O2 2.481308 1_556
Cd1 O3 2.371215 1_455
Cd1 O1 2.371215 1_555
Cd1 O2 2.387561 1_456
Cd1 O0 2.387561 1_555
Cd1 O2 2.481308 1_455
Cd1 O0 2.481308 1_556
Ag0 O3 2.103462 1_445
Ag0 O1 2.103462 1_554
Ag0 O2 2.126257 1_455
Ag0 O0 2.126257 1_545
Ag0 O3 2.824877 1_444
Ag0 O1 2.824877 1_555
Ag1 O1 2.157921 1_554
Ag1 O3 2.157921 1_555
Ag1 O0 2.530134 1_555
Ag1 O2 2.530134 1_555
Ag1 O1 2.701687 1_555
Ag1 O3 2.701687 1_554
