# generated using pymatgen
data_Nd
_symmetry_space_group_name_H-M   'P 1'
_cell_length_a   7.45700472
_cell_length_b   7.45700362
_cell_length_c   18.30684638
_cell_angle_alpha   78.24852508
_cell_angle_beta   101.75147389
_cell_angle_gamma   119.99997594
_symmetry_Int_Tables_number   1
_chemical_formula_structural   Nd
_chemical_formula_sum   Nd24
_cell_volume   856.87682957
_cell_formula_units_Z   24
loop_
 _symmetry_equiv_pos_site_id
 _symmetry_equiv_pos_as_xyz
  1  'x, y, z'
loop_
 _atom_site_type_symbol
 _atom_site_label
 _atom_site_symmetry_multiplicity
 _atom_site_fract_x
 _atom_site_fract_y
 _atom_site_fract_z
 _atom_site_occupancy
  Nd  Nd0_0  1  0.00000000  0.00000000  0.00000000  1
  Nd  Nd0_1  1  0.00000000  0.00000000  0.50000000  1
  Nd  Nd0_2  1  0.00000000  0.50000000  0.00000000  1
  Nd  Nd0_3  1  0.00000000  0.50000000  0.50000000  1
  Nd  Nd0_4  1  0.50000000  0.00000000  0.00000000  1
  Nd  Nd0_5  1  0.50000000  0.00000000  0.50000000  1
  Nd  Nd0_6  1  0.50000000  0.50000000  0.00000000  1
  Nd  Nd0_7  1  0.50000000  0.50000000  0.50000000  1
  Nd  Nd1_0  1  0.38873906  0.11126193  0.16621519  1
  Nd  Nd1_1  1  0.38873906  0.11126193  0.66621519  1
  Nd  Nd1_2  1  0.38873906  0.61126194  0.16621519  1
  Nd  Nd1_3  1  0.38873906  0.61126194  0.66621519  1
  Nd  Nd1_4  1  0.88873906  0.11126193  0.16621519  1
  Nd  Nd1_5  1  0.88873906  0.11126193  0.66621519  1
  Nd  Nd1_6  1  0.88873906  0.61126194  0.16621519  1
  Nd  Nd1_7  1  0.88873906  0.61126194  0.66621519  1
  Nd  Nd2_0  1  0.11126144  0.38873757  0.33378531  1
  Nd  Nd2_1  1  0.11126143  0.38873757  0.83378531  1
  Nd  Nd2_2  1  0.11126144  0.88873757  0.33378531  1
  Nd  Nd2_3  1  0.11126143  0.88873757  0.83378531  1
  Nd  Nd2_4  1  0.61126143  0.38873756  0.33378531  1
  Nd  Nd2_5  1  0.61126143  0.38873757  0.83378531  1
  Nd  Nd2_6  1  0.61126143  0.88873756  0.33378531  1
  Nd  Nd2_7  1  0.61126143  0.88873757  0.83378531  1
loop_
_geom_bond_atom_site_label_1
_geom_bond_atom_site_label_2
_geom_bond_distance
_geom_bond_site_symmetry_2
Nd0_0 Nd2_1 3.657983 1_554
Nd0_0 Nd2_3 3.657986 1_544
Nd0_0 Nd2_7 3.657987 1_444
Nd0_0 Nd1_4 3.657991 1_455
Nd0_0 Nd1_6 3.657992 1_445
Nd0_0 Nd1_0 3.657996 1_555
Nd0_0 Nd0_2 3.728502 1_555
Nd0_0 Nd0_2 3.728502 1_545
Nd0_0 Nd0_4 3.728502 1_555
Nd0_0 Nd0_4 3.728502 1_455
Nd0_0 Nd0_6 3.728503 1_555
Nd0_0 Nd0_6 3.728503 1_445
Nd0_1 Nd2_0 3.657983 1_555
Nd0_1 Nd2_2 3.657986 1_545
Nd0_1 Nd2_6 3.657987 1_445
Nd0_1 Nd1_5 3.657991 1_455
Nd0_1 Nd1_7 3.657992 1_445
Nd0_1 Nd1_1 3.657996 1_555
Nd0_1 Nd0_3 3.728502 1_545
Nd0_1 Nd0_3 3.728502 1_555
Nd0_1 Nd0_5 3.728502 1_455
Nd0_1 Nd0_5 3.728502 1_555
Nd0_1 Nd0_7 3.728503 1_555
Nd0_1 Nd0_7 3.728503 1_445
Nd0_2 Nd2_3 3.657983 1_554
Nd0_2 Nd2_1 3.657986 1_554
Nd0_2 Nd2_5 3.657987 1_454
Nd0_2 Nd1_6 3.657991 1_455
Nd0_2 Nd1_4 3.657992 1_455
Nd0_2 Nd1_2 3.657996 1_555
Nd0_2 Nd0_6 3.728502 1_555
Nd0_2 Nd0_6 3.728502 1_455
Nd0_2 Nd0_4 3.728503 1_565
Nd0_2 Nd0_4 3.728503 1_455
Nd0_3 Nd2_2 3.657983 1_555
Nd0_3 Nd2_0 3.657986 1_555
Nd0_3 Nd2_4 3.657987 1_455
Nd0_3 Nd1_7 3.657991 1_455
Nd0_3 Nd1_5 3.657992 1_455
Nd0_3 Nd1_3 3.657996 1_555
Nd0_3 Nd0_7 3.728502 1_555
Nd0_3 Nd0_7 3.728502 1_455
Nd0_3 Nd0_5 3.728503 1_565
Nd0_3 Nd0_5 3.728503 1_455
Nd0_4 Nd2_5 3.657983 1_554
Nd0_4 Nd2_7 3.657986 1_544
Nd0_4 Nd2_3 3.657987 1_544
Nd0_4 Nd1_0 3.657991 1_555
Nd0_4 Nd1_2 3.657992 1_545
Nd0_4 Nd1_4 3.657996 1_555
Nd0_4 Nd0_6 3.728502 1_555
Nd0_4 Nd0_6 3.728502 1_545
Nd0_5 Nd2_4 3.657983 1_555
Nd0_5 Nd2_6 3.657986 1_545
Nd0_5 Nd2_2 3.657987 1_545
Nd0_5 Nd1_1 3.657991 1_555
Nd0_5 Nd1_3 3.657992 1_545
Nd0_5 Nd1_5 3.657996 1_555
Nd0_5 Nd0_7 3.728502 1_545
Nd0_5 Nd0_7 3.728502 1_555
Nd0_6 Nd2_7 3.657983 1_554
Nd0_6 Nd2_5 3.657986 1_554
Nd0_6 Nd2_1 3.657987 1_554
Nd0_6 Nd1_2 3.657991 1_555
Nd0_6 Nd1_0 3.657992 1_555
Nd0_6 Nd1_6 3.657996 1_555
Nd0_7 Nd2_6 3.657983 1_555
Nd0_7 Nd2_4 3.657986 1_555
Nd0_7 Nd2_0 3.657987 1_555
Nd0_7 Nd1_3 3.657991 1_555
Nd0_7 Nd1_1 3.657992 1_555
Nd0_7 Nd1_7 3.657996 1_555
Nd1_0 Nd2_4 3.677509 1_555
Nd1_0 Nd2_6 3.677512 1_545
Nd1_0 Nd2_2 3.677516 1_545
Nd1_0 Nd1_2 3.728502 1_545
Nd1_0 Nd1_2 3.728502 1_555
Nd1_0 Nd1_4 3.728502 1_555
Nd1_0 Nd1_4 3.728502 1_455
Nd1_0 Nd1_6 3.728503 1_555
Nd1_0 Nd1_6 3.728503 1_445
Nd1_1 Nd2_5 3.677509 1_555
Nd1_1 Nd2_7 3.677512 1_545
Nd1_1 Nd2_3 3.677516 1_545
Nd1_1 Nd1_3 3.728502 1_545
Nd1_1 Nd1_3 3.728502 1_555
Nd1_1 Nd1_5 3.728502 1_555
Nd1_1 Nd1_5 3.728502 1_455
Nd1_1 Nd1_7 3.728503 1_445
Nd1_1 Nd1_7 3.728503 1_555
Nd1_2 Nd2_6 3.677509 1_555
Nd1_2 Nd2_4 3.677512 1_555
Nd1_2 Nd2_0 3.677516 1_555
Nd1_2 Nd1_6 3.728502 1_555
Nd1_2 Nd1_6 3.728502 1_455
Nd1_2 Nd1_4 3.728503 1_565
Nd1_2 Nd1_4 3.728503 1_455
Nd1_3 Nd2_7 3.677509 1_555
Nd1_3 Nd2_5 3.677512 1_555
Nd1_3 Nd2_1 3.677516 1_555
Nd1_3 Nd1_7 3.728502 1_455
Nd1_3 Nd1_7 3.728502 1_555
Nd1_3 Nd1_5 3.728503 1_565
Nd1_3 Nd1_5 3.728503 1_455
Nd1_4 Nd2_0 3.677509 1_655
Nd1_4 Nd2_2 3.677512 1_645
Nd1_4 Nd2_6 3.677516 1_545
Nd1_4 Nd1_6 3.728502 1_545
Nd1_4 Nd1_6 3.728502 1_555
Nd1_5 Nd2_1 3.677509 1_655
Nd1_5 Nd2_3 3.677512 1_645
Nd1_5 Nd2_7 3.677516 1_545
Nd1_5 Nd1_7 3.728502 1_545
Nd1_5 Nd1_7 3.728502 1_555
Nd1_6 Nd2_2 3.677509 1_655
Nd1_6 Nd2_0 3.677512 1_655
Nd1_6 Nd2_4 3.677516 1_555
Nd1_7 Nd2_3 3.677509 1_655
Nd1_7 Nd2_1 3.677512 1_655
Nd1_7 Nd2_5 3.677516 1_555
Nd2_0 Nd2_2 3.728502 1_545
Nd2_0 Nd2_2 3.728502 1_555
Nd2_0 Nd2_4 3.728502 1_455
Nd2_0 Nd2_4 3.728502 1_555
Nd2_0 Nd2_6 3.728503 1_555
Nd2_0 Nd2_6 3.728503 1_445
Nd2_1 Nd2_3 3.728502 1_545
Nd2_1 Nd2_3 3.728502 1_555
Nd2_1 Nd2_5 3.728502 1_455
Nd2_1 Nd2_5 3.728502 1_555
Nd2_1 Nd2_7 3.728503 1_555
Nd2_1 Nd2_7 3.728503 1_445
Nd2_2 Nd2_6 3.728502 1_455
Nd2_2 Nd2_6 3.728502 1_555
Nd2_2 Nd2_4 3.728503 1_565
Nd2_2 Nd2_4 3.728503 1_455
Nd2_3 Nd2_7 3.728502 1_555
Nd2_3 Nd2_7 3.728502 1_455
Nd2_3 Nd2_5 3.728503 1_565
Nd2_3 Nd2_5 3.728503 1_455
Nd2_4 Nd2_6 3.728502 1_555
Nd2_4 Nd2_6 3.728502 1_545
Nd2_5 Nd2_7 3.728502 1_545
Nd2_5 Nd2_7 3.728502 1_555
