# generated using pymatgen
data_AuS
_symmetry_space_group_name_H-M   'P 1'
_cell_length_a   3.93311654
_cell_length_b   3.93311654
_cell_length_c   6.81817500
_cell_angle_alpha   90.00000000
_cell_angle_beta   90.00000000
_cell_angle_gamma   120.00000915
_symmetry_Int_Tables_number   1
_chemical_formula_structural   AuS
_chemical_formula_sum   'Au2 S2'
_cell_volume   91.34238905
_cell_formula_units_Z   2
loop_
 _symmetry_equiv_pos_site_id
 _symmetry_equiv_pos_as_xyz
  1  'x, y, z'
loop_
 _atom_site_type_symbol
 _atom_site_label
 _atom_site_symmetry_multiplicity
 _atom_site_fract_x
 _atom_site_fract_y
 _atom_site_fract_z
 _atom_site_occupancy
  Au  Au0  1  0.66666700  0.33333300  0.51031400  1
  Au  Au1  1  0.33333300  0.66666700  0.01031400  1
  S  S0  1  0.66666700  0.33333300  0.86468500  1
  S  S1  1  0.33333300  0.66666700  0.36468500  1
loop_
_geom_bond_atom_site_label_1
_geom_bond_atom_site_label_2
_geom_bond_distance
_geom_bond_site_symmetry_2
Au0 S0 2.416163 1_555
Au0 S1 2.478378 1_545
Au0 S1 2.478378 1_655
Au0 S1 2.478384 1_555
Au1 S1 2.416163 1_555
Au1 S0 2.478378 1_454
Au1 S0 2.478378 1_564
Au1 S0 2.478384 1_554
