# generated using pymatgen
data_K3SbS4
_symmetry_space_group_name_H-M   'P 1'
_cell_length_a   6.71683786
_cell_length_b   6.71683947
_cell_length_c   6.71683786
_cell_angle_alpha   109.47121574
_cell_angle_beta   109.47122059
_cell_angle_gamma   109.47122464
_symmetry_Int_Tables_number   1
_chemical_formula_structural   K3SbS4
_chemical_formula_sum   'K3 Sb1 S4'
_cell_volume   233.27747895
_cell_formula_units_Z   1
loop_
 _symmetry_equiv_pos_site_id
 _symmetry_equiv_pos_as_xyz
  1  'x, y, z'
loop_
 _atom_site_type_symbol
 _atom_site_label
 _atom_site_symmetry_multiplicity
 _atom_site_fract_x
 _atom_site_fract_y
 _atom_site_fract_z
 _atom_site_occupancy
  K  K0  1  -0.00000000  0.50000000  0.50000000  1
  K  K1  1  0.50000000  -0.00000000  0.50000000  1
  K  K2  1  0.50000000  0.50000000  0.00000000  1
  Sb  Sb0  1  -0.00000000  -0.00000000  0.00000000  1
  S  S0  1  -0.00000000  -0.00000000  0.64875918  1
  S  S1  1  -0.00000000  0.64875918  -0.00000000  1
  S  S2  1  0.64875918  0.00000000  0.00000000  1
  S  S3  1  0.35124082  0.35124082  0.35124082  1
loop_
_geom_bond_atom_site_label_1
_geom_bond_atom_site_label_2
_geom_bond_distance
_geom_bond_site_symmetry_2
K0 S1 3.168632 1_556
K0 S3 3.168632 1_555
K0 S2 3.168632 1_455
K0 S0 3.168632 1_565
K1 S2 3.168632 1_556
K1 S0 3.168632 1_655
K1 S1 3.168632 1_545
K1 S3 3.168632 1_555
K2 S1 3.168631 1_655
K2 S3 3.168632 1_555
K2 S0 3.168632 1_554
K2 S2 3.168632 1_565
S0 Sb0 2.359228 1_556
S1 Sb0 2.359228 1_565
S2 Sb0 2.359228 1_655
S3 Sb0 2.359228 1_555
