# generated using pymatgen
data_CuBrO2
_symmetry_space_group_name_H-M   'P 1'
_cell_length_a   6.62096372
_cell_length_b   6.62096372
_cell_length_c   3.85682000
_cell_angle_alpha   90.00000000
_cell_angle_beta   90.00000000
_cell_angle_gamma   114.73777817
_symmetry_Int_Tables_number   1
_chemical_formula_structural   CuBrO2
_chemical_formula_sum   'Cu2 Br2 O4'
_cell_volume   153.55671249
_cell_formula_units_Z   2
loop_
 _symmetry_equiv_pos_site_id
 _symmetry_equiv_pos_as_xyz
  1  'x, y, z'
loop_
 _atom_site_type_symbol
 _atom_site_label
 _atom_site_symmetry_multiplicity
 _atom_site_fract_x
 _atom_site_fract_y
 _atom_site_fract_z
 _atom_site_occupancy
  Cu  Cu0  1  0.26486700  0.26486700  0.00000000  1
  Cu  Cu1  1  0.73513300  0.73513300  0.50000000  1
  Br  Br0  1  0.63277100  0.36722900  0.25000000  1
  Br  Br1  1  0.36722900  0.63277100  0.75000000  1
  O  O0  1  0.00348900  0.17728300  0.71687300  1
  O  O1  1  0.82271700  0.99651100  0.78312700  1
  O  O2  1  0.17728300  0.00348900  0.28312700  1
  O  O3  1  0.99651100  0.82271700  0.21687300  1
loop_
_geom_bond_atom_site_label_1
_geom_bond_atom_site_label_2
_geom_bond_distance
_geom_bond_site_symmetry_2
Cu0 O2 1.919287 1_555
Cu0 O0 1.919287 1_554
Cu1 O1 1.919287 1_555
Cu1 O3 1.919287 1_555
Br0 Cu1 2.437385 1_555
Br0 Cu0 2.437385 1_555
Br1 Cu1 2.437385 1_555
Br1 Cu0 2.437385 1_556
O0 O1 1.315838 1_445
O2 O3 1.315838 1_445
