# generated using pymatgen
data_Hg3Au
_symmetry_space_group_name_H-M   'P 1'
_cell_length_a   5.94765087
_cell_length_b   5.94765087
_cell_length_c   6.23701900
_cell_angle_alpha   90.00000000
_cell_angle_beta   90.00000000
_cell_angle_gamma   120.00000970
_symmetry_Int_Tables_number   1
_chemical_formula_structural   Hg3Au
_chemical_formula_sum   'Hg6 Au2'
_cell_volume   191.07267830
_cell_formula_units_Z   2
loop_
 _symmetry_equiv_pos_site_id
 _symmetry_equiv_pos_as_xyz
  1  'x, y, z'
loop_
 _atom_site_type_symbol
 _atom_site_label
 _atom_site_symmetry_multiplicity
 _atom_site_fract_x
 _atom_site_fract_y
 _atom_site_fract_z
 _atom_site_occupancy
  Hg  Hg0  1  0.16743400  0.33486700  0.25000000  1
  Hg  Hg1  1  0.66513300  0.83256600  0.25000000  1
  Hg  Hg2  1  0.16743400  0.83256600  0.25000000  1
  Hg  Hg3  1  0.83256600  0.66513300  0.75000000  1
  Hg  Hg4  1  0.33486700  0.16743400  0.75000000  1
  Hg  Hg5  1  0.83256600  0.16743400  0.75000000  1
  Au  Au0  1  0.33333300  0.66666700  0.75000000  1
  Au  Au1  1  0.66666700  0.33333300  0.25000000  1
loop_
_geom_bond_atom_site_label_1
_geom_bond_atom_site_label_2
_geom_bond_distance
_geom_bond_site_symmetry_2
Hg0 Hg1 2.960139 1_555
Hg0 Hg2 2.960140 1_555
Hg0 Hg1 2.987511 1_445
Hg0 Hg2 2.987511 1_545
Hg1 Hg2 2.960140 1_555
Hg1 Hg2 2.987511 1_655
Hg3 Hg4 2.960139 1_555
Hg3 Hg5 2.960140 1_555
Hg3 Hg4 2.987511 1_665
Hg3 Hg5 2.987511 1_565
Hg4 Hg5 2.960140 1_555
Hg4 Hg5 2.987511 1_455
Au0 Hg5 2.973835 1_455
Au0 Hg5 2.973835 1_565
Au0 Hg3 2.973836 1_455
Au0 Hg4 2.973836 1_565
Au0 Hg3 2.973836 1_555
Au0 Hg4 2.973836 1_555
Au1 Hg2 2.973835 1_545
Au1 Hg2 2.973835 1_655
Au1 Hg1 2.973836 1_545
Au1 Hg0 2.973836 1_655
Au1 Hg0 2.973836 1_555
Au1 Hg1 2.973836 1_555
