# generated using pymatgen
data_ScMnSi
_symmetry_space_group_name_H-M   'P 1'
_cell_length_a   6.65185327
_cell_length_b   6.65183442
_cell_length_c   3.87022449
_cell_angle_alpha   89.99999557
_cell_angle_beta   90.00000578
_cell_angle_gamma   120.00016072
_symmetry_Int_Tables_number   1
_chemical_formula_structural   ScMnSi
_chemical_formula_sum   'Sc3 Mn3 Si3'
_cell_volume   148.30308197
_cell_formula_units_Z   3
loop_
 _symmetry_equiv_pos_site_id
 _symmetry_equiv_pos_as_xyz
  1  'x, y, z'
loop_
 _atom_site_type_symbol
 _atom_site_label
 _atom_site_symmetry_multiplicity
 _atom_site_fract_x
 _atom_site_fract_y
 _atom_site_fract_z
 _atom_site_occupancy
  Sc  Sc0  1  0.41575025  0.41575779  0.49999983  1
  Sc  Sc1  1  0.58425775  -0.00000005  0.49999981  1
  Sc  Sc2  1  -0.00000770  0.58423189  0.50000004  1
  Mn  Mn0  1  0.00000095  0.24089101  -0.00000017  1
  Mn  Mn1  1  0.24088200  0.00000390  -0.00000008  1
  Mn  Mn2  1  0.75911507  0.75911761  0.99999997  1
  Si  Si0  1  -0.00000426  0.00000024  0.49999994  1
  Si  Si1  1  0.66667170  0.33333594  -0.00000010  1
  Si  Si2  1  0.33333324  0.66666067  -0.00000024  1
loop_
_geom_bond_atom_site_label_1
_geom_bond_atom_site_label_2
_geom_bond_distance
_geom_bond_site_symmetry_2
Sc0 Si0 2.765537 1_555
Sc0 Si2 2.783097 1_556
Sc0 Si2 2.783097 1_555
Sc0 Si1 2.783201 1_555
Sc0 Si1 2.783201 1_556
Sc1 Si0 2.765427 1_655
Sc1 Si1 2.783172 1_555
Sc1 Si1 2.783173 1_556
Sc1 Si2 2.783186 1_546
Sc1 Si2 2.783186 1_545
Sc2 Si0 2.765611 1_565
Sc2 Si1 2.783088 1_456
Sc2 Si1 2.783088 1_455
Sc2 Si2 2.783180 1_556
Sc2 Si2 2.783181 1_555
Mn0 Si0 2.512405 1_554
Mn0 Si0 2.512405 1_555
Mn0 Si2 2.580251 1_555
Mn0 Si1 2.580277 1_455
Mn0 Sc2 2.993450 1_554
Mn0 Sc2 2.993451 1_555
Mn0 Sc1 3.086862 1_454
Mn0 Sc1 3.086862 1_455
Mn0 Sc0 3.086885 1_555
Mn0 Sc0 3.086885 1_554
Mn1 Si0 2.512392 1_554
Mn1 Si0 2.512392 1_555
Mn1 Si1 2.580343 1_555
Mn1 Si2 2.580391 1_545
Mn1 Sc1 2.993620 1_555
Mn1 Sc1 2.993621 1_554
Mn1 Sc0 3.086900 1_555
Mn1 Sc0 3.086900 1_554
Mn1 Sc2 3.086978 1_544
Mn1 Sc2 3.086979 1_545
Mn2 Si0 2.512376 1_666
Mn2 Si0 2.512376 1_665
Mn2 Si2 2.580300 1_556
Mn2 Si1 2.580319 1_556
Mn2 Sc0 2.993535 1_556
Mn2 Sc0 2.993536 1_555
Mn2 Sc1 3.086845 1_566
Mn2 Sc1 3.086845 1_565
Mn2 Sc2 3.086942 1_655
Mn2 Sc2 3.086942 1_656
