# generated using pymatgen
data_PmDyRu2
_symmetry_space_group_name_H-M   'P 1'
_cell_length_a   4.84498502
_cell_length_b   4.84498502
_cell_length_c   4.84498502
_cell_angle_alpha   60.00000000
_cell_angle_beta   60.00000000
_cell_angle_gamma   60.00000000
_symmetry_Int_Tables_number   1
_chemical_formula_structural   PmDyRu2
_chemical_formula_sum   'Pm1 Dy1 Ru2'
_cell_volume   80.41967564
_cell_formula_units_Z   1
loop_
 _symmetry_equiv_pos_site_id
 _symmetry_equiv_pos_as_xyz
  1  'x, y, z'
loop_
 _atom_site_type_symbol
 _atom_site_label
 _atom_site_symmetry_multiplicity
 _atom_site_fract_x
 _atom_site_fract_y
 _atom_site_fract_z
 _atom_site_occupancy
  Pm  Pm0  1  0.75000000  0.75000000  0.75000000  1
  Dy  Dy0  1  0.25000000  0.25000000  0.25000000  1
  Ru  Ru0  1  0.50000000  0.50000000  0.50000000  1
  Ru  Ru1  1  -0.00000000  0.00000000  -0.00000000  1
loop_
_geom_bond_atom_site_label_1
_geom_bond_atom_site_label_2
_geom_bond_distance
_geom_bond_site_symmetry_2
Pm0 Ru0 2.966935 1_556
Pm0 Ru1 2.966935 1_666
Pm0 Ru1 2.966935 1_665
Pm0 Ru0 2.966935 1_555
Pm0 Ru1 2.966935 1_656
Pm0 Ru0 2.966935 1_565
Pm0 Ru1 2.966935 1_566
Pm0 Ru0 2.966935 1_655
Dy0 Ru1 2.966935 1_556
Dy0 Ru0 2.966935 1_554
Dy0 Ru1 2.966935 1_555
Dy0 Ru0 2.966935 1_555
Dy0 Ru1 2.966935 1_655
Dy0 Ru0 2.966935 1_545
Dy0 Ru1 2.966935 1_565
Dy0 Ru0 2.966935 1_455
