# generated using pymatgen
data_Er2Ge5Rh3
_symmetry_space_group_name_H-M   'P 1'
_cell_length_a   8.25582612
_cell_length_b   8.25582612
_cell_length_c   5.81978633
_cell_angle_alpha   71.32334772
_cell_angle_beta   71.32334772
_cell_angle_gamma   94.11162428
_symmetry_Int_Tables_number   1
_chemical_formula_structural   Er2Ge5Rh3
_chemical_formula_sum   'Er4 Ge10 Rh6'
_cell_volume   349.21811906
_cell_formula_units_Z   2
loop_
 _symmetry_equiv_pos_site_id
 _symmetry_equiv_pos_as_xyz
  1  'x, y, z'
loop_
 _atom_site_type_symbol
 _atom_site_label
 _atom_site_symmetry_multiplicity
 _atom_site_fract_x
 _atom_site_fract_y
 _atom_site_fract_z
 _atom_site_occupancy
  Er  Er0  1  0.86921692  0.59032649  0.26525019  1
  Er  Er1  1  0.40967351  0.13078308  0.23474981  1
  Er  Er2  1  0.13078308  0.40967351  0.73474981  1
  Er  Er3  1  0.59032649  0.86921692  0.76525019  1
  Ge  Ge0  1  0.26477351  0.07448586  0.83198572  1
  Ge  Ge1  1  0.20740395  0.79259605  0.25000000  1
  Ge  Ge2  1  0.79259605  0.20740395  0.75000000  1
  Ge  Ge3  1  0.51251559  0.48748441  0.25000000  1
  Ge  Ge4  1  0.48748441  0.51251559  0.75000000  1
  Ge  Ge5  1  0.77838715  0.22161285  0.25000000  1
  Ge  Ge6  1  0.22161285  0.77838715  0.75000000  1
  Ge  Ge7  1  0.07448586  0.26477351  0.33198572  1
  Ge  Ge8  1  0.73522649  0.92551414  0.16801428  1
  Ge  Ge9  1  0.92551414  0.73522649  0.66801428  1
  Rh  Rh0  1  0.00214637  0.99785363  0.25000000  1
  Rh  Rh1  1  0.99785363  0.00214637  0.75000000  1
  Rh  Rh2  1  0.26017307  0.54476759  0.12413182  1
  Rh  Rh3  1  0.45523241  0.73982693  0.37586818  1
  Rh  Rh4  1  0.73982693  0.45523241  0.87586818  1
  Rh  Rh5  1  0.54476759  0.26017307  0.62413182  1
loop_
_geom_bond_atom_site_label_1
_geom_bond_atom_site_label_2
_geom_bond_distance
_geom_bond_site_symmetry_2
Er0 Ge8 3.006418 1_555
Er0 Ge3 3.042711 1_555
Er0 Ge9 3.091165 1_555
Er0 Ge1 3.109595 1_655
Er0 Ge5 3.118440 1_555
Er0 Rh4 3.142146 1_555
Er0 Rh2 3.147698 1_655
Er0 Ge9 3.154490 1_554
Er0 Rh4 3.243229 1_554
Er0 Ge6 3.263396 1_654
Er0 Ge7 3.263840 1_655
Er0 Rh5 3.269634 1_555
Er0 Ge4 3.340415 1_555
Er0 Ge2 3.348345 1_555
Er0 Rh0 3.427657 1_655
Er0 Rh1 3.548560 1_564
Er1 Ge7 3.006418 1_555
Er1 Ge3 3.042711 1_555
Er1 Ge0 3.091165 1_554
Er1 Ge1 3.109595 1_545
Er1 Ge5 3.118440 1_555
Er1 Rh5 3.142146 1_554
Er1 Rh3 3.147698 1_545
Er1 Ge0 3.154490 1_555
Er1 Rh5 3.243229 1_555
Er1 Ge6 3.263396 1_545
Er1 Ge8 3.263840 1_545
Er1 Rh4 3.269634 1_554
Er1 Ge4 3.340415 1_554
Er1 Ge2 3.348345 1_554
Er1 Rh0 3.427657 1_545
Er1 Rh1 3.548560 1_455
Er2 Ge0 3.006418 1_555
Er2 Ge4 3.042711 1_555
Er2 Ge7 3.091165 1_555
Er2 Ge2 3.109595 1_455
Er2 Ge6 3.118440 1_555
Er2 Rh2 3.142146 1_555
Er2 Rh4 3.147698 1_455
Er2 Ge7 3.154490 1_556
Er2 Rh2 3.243229 1_556
Er2 Ge5 3.263396 1_456
Er2 Ge9 3.263840 1_455
Er2 Rh3 3.269634 1_555
Er2 Ge3 3.340415 1_555
Er2 Ge1 3.348345 1_555
Er2 Rh1 3.427657 1_455
Er2 Rh0 3.548560 1_546
Er3 Ge9 3.006418 1_555
Er3 Ge4 3.042711 1_555
Er3 Ge8 3.091165 1_556
Er3 Ge2 3.109595 1_565
Er3 Ge6 3.118440 1_555
Er3 Rh3 3.142146 1_556
Er3 Rh5 3.147698 1_565
Er3 Ge8 3.154490 1_555
Er3 Rh3 3.243229 1_555
Er3 Ge5 3.263396 1_565
Er3 Ge0 3.263840 1_565
Er3 Rh2 3.269634 1_556
Er3 Ge3 3.340415 1_556
Er3 Ge1 3.348345 1_556
Er3 Rh1 3.427657 1_565
Er3 Rh0 3.548560 1_655
Ge0 Rh5 2.381198 1_555
Ge0 Rh1 2.471349 1_455
Ge0 Rh0 2.541460 1_546
Ge0 Ge1 2.652665 1_546
Ge0 Ge6 2.657329 1_545
Ge1 Rh2 2.407477 1_555
Ge1 Rh3 2.407477 1_555
Ge1 Rh0 2.480912 1_555
Ge1 Ge9 2.652665 1_455
Ge1 Ge6 2.914957 1_554
Ge1 Ge6 2.914957 1_555
Ge2 Rh5 2.407477 1_555
Ge2 Rh4 2.407477 1_555
Ge2 Rh1 2.480912 1_555
Ge2 Ge8 2.652665 1_546
Ge2 Ge7 2.652665 1_655
Ge2 Ge5 2.914957 1_555
Ge2 Ge5 2.914957 1_556
Ge3 Rh3 2.448910 1_555
Ge3 Rh2 2.448910 1_555
Ge3 Rh5 2.481853 1_555
Ge3 Rh4 2.481853 1_554
Ge4 Rh4 2.448910 1_555
Ge4 Rh5 2.448910 1_555
Ge4 Rh3 2.481853 1_555
Ge4 Rh2 2.481853 1_556
Ge5 Rh4 2.530734 1_554
Ge5 Rh5 2.530734 1_555
Ge5 Ge7 2.657329 1_655
Ge5 Ge8 2.657329 1_545
Ge5 Rh0 2.704538 1_645
Ge6 Rh3 2.530734 1_555
Ge6 Rh2 2.530734 1_556
Ge6 Ge9 2.657329 1_455
Ge6 Rh1 2.704538 1_465
Ge7 Rh2 2.381198 1_555
Ge7 Rh0 2.471349 1_545
Ge7 Rh1 2.541460 1_455
Ge8 Rh3 2.381198 1_555
Ge8 Rh0 2.471349 1_655
Ge8 Rh1 2.541460 1_564
Ge9 Rh4 2.381198 1_555
Ge9 Rh1 2.471349 1_565
Ge9 Rh0 2.541460 1_655
