# generated using pymatgen
data_Tm2Co12P7
_symmetry_space_group_name_H-M   'P 1'
_cell_length_a   8.90263935
_cell_length_b   8.90256594
_cell_length_c   3.55911933
_cell_angle_alpha   90.00000301
_cell_angle_beta   89.99999705
_cell_angle_gamma   120.00124746
_symmetry_Int_Tables_number   1
_chemical_formula_structural   Tm2Co12P7
_chemical_formula_sum   'Tm2 Co12 P7'
_cell_volume   244.28775633
_cell_formula_units_Z   1
loop_
 _symmetry_equiv_pos_site_id
 _symmetry_equiv_pos_as_xyz
  1  'x, y, z'
loop_
 _atom_site_type_symbol
 _atom_site_label
 _atom_site_symmetry_multiplicity
 _atom_site_fract_x
 _atom_site_fract_y
 _atom_site_fract_z
 _atom_site_occupancy
  Tm  Tm0  1  0.66669870  0.33337246  0.00000000  1
  Tm  Tm1  1  -0.00002366  -0.00002334  0.49999936  1
  Co  Co0  1  0.76675302  0.72666538  -0.00000005  1
  Co  Co1  1  0.27333224  0.04015294  -0.00000014  1
  Co  Co2  1  0.95988128  0.23317363  -0.00000003  1
  Co  Co3  1  0.71548819  0.10073794  0.50000019  1
  Co  Co4  1  0.89923329  0.61474351  0.50000018  1
  Co  Co5  1  0.38526095  0.28450043  0.50000006  1
  Co  Co6  1  0.48724072  0.93979301  0.00000024  1
  Co  Co7  1  0.06020844  0.54741257  0.00000019  1
  Co  Co8  1  0.45255343  0.51279383  0.00000014  1
  Co  Co9  1  0.56357858  0.76726877  0.50000014  1
  Co  Co10  1  0.23276880  0.79632911  0.50000016  1
  Co  Co11  1  0.20371013  0.43640928  0.50000020  1
  P  P0  1  0.33334140  0.66668052  0.00000021  1
  P  P1  1  0.44624502  0.07158707  0.50000011  1
  P  P2  1  0.92845180  0.37467545  0.50000006  1
  P  P3  1  0.62532156  0.55375927  0.50000004  1
  P  P4  1  0.74272486  0.96244951  -0.00000037  1
  P  P5  1  0.03753680  0.78028092  -0.00000034  1
  P  P6  1  0.21969846  0.25723472  -0.00000034  1
loop_
_geom_bond_atom_site_label_1
_geom_bond_atom_site_label_2
_geom_bond_distance
_geom_bond_site_symmetry_2
Co0 P5 2.211007 1_655
Co0 P4 2.213809 1_555
Co0 P3 2.276715 1_554
Co0 P3 2.276715 1_555
Co0 Tm1 2.888943 1_665
Co0 Tm1 2.888946 1_664
Co0 Tm0 3.151784 1_555
Co1 P6 2.210358 1_555
Co1 P5 2.214117 1_545
Co1 P1 2.276847 1_554
Co1 P1 2.276848 1_555
Co1 Tm1 2.889057 1_555
Co1 Tm1 2.889059 1_554
Co1 Tm0 3.152180 1_555
Co2 P4 2.210582 1_545
Co2 P6 2.213738 1_655
Co2 P2 2.276957 1_554
Co2 P2 2.276957 1_555
Co2 Tm1 2.888825 1_655
Co2 Tm1 2.888827 1_654
Co2 Tm0 3.152252 1_555
Co3 P2 2.217697 1_555
Co3 P4 2.244953 1_546
Co3 P4 2.244956 1_545
Co3 P1 2.278323 1_555
Co3 Tm0 2.923067 1_556
Co3 Tm0 2.923068 1_555
Co4 P3 2.217488 1_555
Co4 P5 2.245008 1_656
Co4 P5 2.245011 1_655
Co4 P2 2.278451 1_555
Co4 Tm0 2.922545 1_556
Co4 Tm0 2.922546 1_555
Co5 P1 2.217367 1_555
Co5 P6 2.245098 1_556
Co5 P6 2.245100 1_555
Co5 P3 2.278239 1_555
Co5 Tm0 2.922959 1_556
Co5 Tm0 2.922959 1_555
Co6 P0 2.111280 1_555
Co6 P4 2.180636 1_555
Co6 P1 2.259406 1_565
Co6 P1 2.259407 1_564
Co6 Tm0 3.038323 1_565
Co7 P0 2.111432 1_555
Co7 P5 2.181064 1_555
Co7 P2 2.259131 1_455
Co7 P2 2.259132 1_454
Co7 Tm0 3.037783 1_455
Co8 P0 2.111220 1_555
Co8 P6 2.181071 1_555
Co8 P3 2.259337 1_555
Co8 P3 2.259338 1_554
Co8 Tm0 3.038306 1_555
Co9 P3 2.227099 1_555
Co9 P4 2.440976 1_556
Co9 P4 2.440979 1_555
Co9 P0 2.516845 1_555
Co9 P0 2.516845 1_556
Co10 P1 2.226995 1_565
Co10 P5 2.441277 1_556
Co10 P5 2.441279 1_555
Co10 P0 2.516776 1_555
Co10 P0 2.516777 1_556
Co11 P2 2.227171 1_455
Co11 P6 2.441009 1_556
Co11 P6 2.441012 1_555
Co11 P0 2.517000 1_556
Co11 P0 2.517000 1_555
P1 Tm0 2.806429 1_556
P1 Tm0 2.806430 1_555
P2 Tm0 2.806317 1_556
P2 Tm0 2.806318 1_555
P3 Tm0 2.806201 1_556
P3 Tm0 2.806201 1_555
P4 Tm1 2.785386 1_665
P4 Tm1 2.785387 1_664
P5 Tm1 2.785328 1_565
P5 Tm1 2.785330 1_564
P6 Tm1 2.785373 1_555
P6 Tm1 2.785374 1_554
