# generated using pymatgen
data_SmCu
_symmetry_space_group_name_H-M   'P 1'
_cell_length_a   7.31289139
_cell_length_b   4.53125117
_cell_length_c   5.41292541
_cell_angle_alpha   90.00000000
_cell_angle_beta   90.00000000
_cell_angle_gamma   90.00000000
_symmetry_Int_Tables_number   1
_chemical_formula_structural   SmCu
_chemical_formula_sum   'Sm4 Cu4'
_cell_volume   179.36566087
_cell_formula_units_Z   4
loop_
 _symmetry_equiv_pos_site_id
 _symmetry_equiv_pos_as_xyz
  1  'x, y, z'
loop_
 _atom_site_type_symbol
 _atom_site_label
 _atom_site_symmetry_multiplicity
 _atom_site_fract_x
 _atom_site_fract_y
 _atom_site_fract_z
 _atom_site_occupancy
  Sm  Sm0  1  0.18035593  0.25000000  0.12024428  1
  Sm  Sm1  1  0.31964307  0.75000000  0.62024428  1
  Sm  Sm2  1  0.68035793  0.25000000  0.37975472  1
  Sm  Sm3  1  0.81964307  0.75000000  0.87975672  1
  Cu  Cu0  1  0.03353692  0.25000000  0.61486897  1
  Cu  Cu1  1  0.46646208  0.75000000  0.11486897  1
  Cu  Cu2  1  0.53353792  0.25000000  0.88513103  1
  Cu  Cu3  1  0.96646108  0.75000000  0.38513103  1
loop_
_geom_bond_atom_site_label_1
_geom_bond_atom_site_label_2
_geom_bond_distance
_geom_bond_site_symmetry_2
Cu0 Cu3 2.630607 1_455
Cu0 Cu3 2.630607 1_445
Cu0 Sm2 2.879288 1_455
Cu0 Sm0 2.884625 1_555
Cu0 Sm0 2.938716 1_556
Cu0 Sm1 3.084067 1_555
Cu0 Sm1 3.084067 1_545
Cu0 Sm3 3.104120 1_455
Cu0 Sm3 3.104120 1_445
Cu1 Cu2 2.630607 1_564
Cu1 Cu2 2.630607 1_554
Cu1 Sm3 2.879296 1_554
Cu1 Sm1 2.884625 1_554
Cu1 Sm1 2.938716 1_555
Cu1 Sm0 3.084067 1_555
Cu1 Sm0 3.084067 1_565
Cu1 Sm2 3.104122 1_555
Cu1 Sm2 3.104122 1_565
Cu2 Sm0 2.879305 1_556
Cu2 Sm2 2.884623 1_556
Cu2 Sm2 2.938724 1_555
Cu2 Sm3 3.084062 1_545
Cu2 Sm3 3.084062 1_555
Cu2 Sm1 3.104121 1_555
Cu2 Sm1 3.104121 1_545
Cu3 Sm1 2.879305 1_655
Cu3 Sm3 2.884627 1_555
Cu3 Sm3 2.938708 1_554
Cu3 Sm2 3.084052 1_565
Cu3 Sm2 3.084052 1_555
Cu3 Sm0 3.104121 1_665
Cu3 Sm0 3.104121 1_655
