# generated using pymatgen
data_CsPb2Cl5
_symmetry_space_group_name_H-M   'P 1'
_cell_length_a   8.15590451
_cell_length_b   8.15590451
_cell_length_c   9.45902180
_cell_angle_alpha   115.53851324
_cell_angle_beta   115.53851324
_cell_angle_gamma   90.00000000
_symmetry_Int_Tables_number   1
_chemical_formula_structural   CsPb2Cl5
_chemical_formula_sum   'Cs2 Pb4 Cl10'
_cell_volume   498.72989231
_cell_formula_units_Z   2
loop_
 _symmetry_equiv_pos_site_id
 _symmetry_equiv_pos_as_xyz
  1  'x, y, z'
loop_
 _atom_site_type_symbol
 _atom_site_label
 _atom_site_symmetry_multiplicity
 _atom_site_fract_x
 _atom_site_fract_y
 _atom_site_fract_z
 _atom_site_occupancy
  Cs  Cs0  1  0.25000000  0.25000000  0.50000000  1
  Cs  Cs1  1  0.75000000  0.75000000  0.50000000  1
  Pb  Pb0  1  0.66654455  0.16654455  0.00000000  1
  Pb  Pb1  1  0.16654455  0.33345645  -0.00000000  1
  Pb  Pb2  1  0.83345645  0.66654455  -0.00000000  1
  Pb  Pb3  1  0.33345645  0.83345645  -0.00000000  1
  Cl  Cl0  1  -0.00000000  -0.00000000  -0.00000000  1
  Cl  Cl1  1  0.50000000  0.50000000  -0.00000000  1
  Cl  Cl2  1  0.46918635  0.27799667  0.24718401  1
  Cl  Cl3  1  0.96918635  0.46918635  0.24718401  1
  Cl  Cl4  1  0.27799667  0.77799667  0.24718401  1
  Cl  Cl5  1  0.77799667  0.96918635  0.24718401  1
  Cl  Cl6  1  0.22200333  0.03081365  0.75281599  1
  Cl  Cl7  1  0.72200333  0.22200333  0.75281599  1
  Cl  Cl8  1  0.03081365  0.53081365  0.75281599  1
  Cl  Cl9  1  0.53081365  0.72200333  0.75281599  1
loop_
_geom_bond_atom_site_label_1
_geom_bond_atom_site_label_2
_geom_bond_distance
_geom_bond_site_symmetry_2
Cl0 Pb2 3.039968 1_445
Cl0 Pb0 3.039972 1_455
Cl0 Pb3 3.039976 1_545
Cl0 Pb1 3.039979 1_555
Cl0 Cs1 3.748790 1_444
Cl0 Cs0 3.748790 1_555
Cl1 Pb1 3.039968 1_555
Cl1 Pb0 3.039972 1_555
Cl1 Pb3 3.039976 1_555
Cl1 Pb2 3.039979 1_555
Cl1 Cs1 3.748790 1_555
Cl1 Cs0 3.748790 1_554
Cl2 Pb1 2.774839 1_555
Cl2 Pb3 3.208801 1_545
Cl2 Pb0 3.208815 1_555
Cl2 Cs0 3.622639 1_555
Cl2 Cs1 3.622648 1_555
Cl3 Pb0 2.774830 1_555
Cl3 Pb2 3.208814 1_555
Cl3 Pb1 3.208814 1_655
Cl3 Cs0 3.622642 1_655
Cl3 Cs1 3.622642 1_555
Cl4 Pb3 2.774847 1_555
Cl4 Pb1 3.208802 1_555
Cl4 Pb2 3.208802 1_455
Cl4 Cs1 3.622645 1_555
Cl4 Cs0 3.622645 1_565
Cl5 Pb2 2.774839 1_555
Cl5 Pb3 3.208801 1_555
Cl5 Pb0 3.208815 1_565
Cl5 Cs1 3.622639 1_555
Cl5 Cs0 3.622648 1_665
Cl6 Pb1 2.774839 1_556
Cl6 Pb3 3.208808 1_546
Cl6 Pb0 3.208808 1_556
Cl6 Cs0 3.622639 1_555
Cl6 Cs1 3.622648 1_445
Cl7 Pb0 2.774839 1_556
Cl7 Pb1 3.208808 1_656
Cl7 Pb2 3.208808 1_556
Cl7 Cs1 3.622645 1_545
Cl7 Cs0 3.622645 1_555
Cl8 Pb3 2.774839 1_556
Cl8 Pb1 3.208808 1_556
Cl8 Pb2 3.208808 1_456
Cl8 Cs1 3.622642 1_455
Cl8 Cs0 3.622642 1_555
Cl9 Pb2 2.774839 1_556
Cl9 Pb3 3.208808 1_556
Cl9 Pb0 3.208808 1_566
Cl9 Cs1 3.622639 1_555
Cl9 Cs0 3.622648 1_555
