# generated using pymatgen
data_Ga3Te
_symmetry_space_group_name_H-M   'P 1'
_cell_length_a   6.39412192
_cell_length_b   6.39412192
_cell_length_c   5.26189500
_cell_angle_alpha   90.00000000
_cell_angle_beta   90.00000000
_cell_angle_gamma   119.99999922
_symmetry_Int_Tables_number   1
_chemical_formula_structural   Ga3Te
_chemical_formula_sum   'Ga6 Te2'
_cell_volume   186.30934508
_cell_formula_units_Z   2
loop_
 _symmetry_equiv_pos_site_id
 _symmetry_equiv_pos_as_xyz
  1  'x, y, z'
loop_
 _atom_site_type_symbol
 _atom_site_label
 _atom_site_symmetry_multiplicity
 _atom_site_fract_x
 _atom_site_fract_y
 _atom_site_fract_z
 _atom_site_occupancy
  Ga  Ga0  1  0.15840700  0.31681400  0.25000000  1
  Ga  Ga1  1  0.68318600  0.84159300  0.25000000  1
  Ga  Ga2  1  0.15840700  0.84159300  0.25000000  1
  Ga  Ga3  1  0.84159300  0.68318600  0.75000000  1
  Ga  Ga4  1  0.31681400  0.15840700  0.75000000  1
  Ga  Ga5  1  0.84159300  0.15840700  0.75000000  1
  Te  Te0  1  0.33333300  0.66666700  0.75000000  1
  Te  Te1  1  0.66666700  0.33333300  0.25000000  1
loop_
_geom_bond_atom_site_label_1
_geom_bond_atom_site_label_2
_geom_bond_distance
_geom_bond_site_symmetry_2
Ga0 Ga2 3.038621 1_545
Ga0 Ga1 3.038621 1_445
Ga0 Ga4 3.162218 1_555
Ga0 Ga4 3.162218 1_554
Ga0 Ga5 3.162218 1_455
Ga0 Ga5 3.162218 1_454
Ga0 Te1 3.198366 1_455
Ga0 Te1 3.198373 1_555
Ga0 Te0 3.267265 1_554
Ga0 Te0 3.267265 1_555
Ga1 Ga2 3.038621 1_655
Ga1 Ga3 3.162218 1_555
Ga1 Ga3 3.162218 1_554
Ga1 Ga5 3.162218 1_564
Ga1 Ga5 3.162218 1_565
Ga1 Te1 3.198366 1_565
Ga1 Te1 3.198373 1_555
Ga1 Te0 3.267265 1_554
Ga1 Te0 3.267265 1_555
Ga2 Ga3 3.162218 1_454
Ga2 Ga4 3.162218 1_564
Ga2 Ga4 3.162218 1_565
Ga2 Ga3 3.162218 1_455
Ga2 Te1 3.198369 1_455
Ga2 Te1 3.198369 1_565
Ga2 Te0 3.267262 1_554
Ga2 Te0 3.267262 1_555
Ga3 Ga5 3.038621 1_565
Ga3 Ga4 3.038621 1_665
Ga3 Te0 3.198366 1_655
Ga3 Te0 3.198373 1_555
Ga3 Te1 3.267265 1_555
Ga3 Te1 3.267265 1_556
Ga4 Ga5 3.038621 1_455
Ga4 Te0 3.198366 1_545
Ga4 Te0 3.198373 1_555
Ga4 Te1 3.267265 1_555
Ga4 Te1 3.267265 1_556
Ga5 Te0 3.198369 1_545
Ga5 Te0 3.198369 1_655
Ga5 Te1 3.267262 1_556
Ga5 Te1 3.267262 1_555
