# generated using pymatgen
data_ScTiRu2
_symmetry_space_group_name_H-M   'P 1'
_cell_length_a   4.42533968
_cell_length_b   4.42533968
_cell_length_c   4.42533968
_cell_angle_alpha   60.00000000
_cell_angle_beta   60.00000000
_cell_angle_gamma   60.00000000
_symmetry_Int_Tables_number   1
_chemical_formula_structural   ScTiRu2
_chemical_formula_sum   'Sc1 Ti1 Ru2'
_cell_volume   61.28085826
_cell_formula_units_Z   1
loop_
 _symmetry_equiv_pos_site_id
 _symmetry_equiv_pos_as_xyz
  1  'x, y, z'
loop_
 _atom_site_type_symbol
 _atom_site_label
 _atom_site_symmetry_multiplicity
 _atom_site_fract_x
 _atom_site_fract_y
 _atom_site_fract_z
 _atom_site_occupancy
  Sc  Sc0  1  0.25000100  0.25000100  0.25000100  1
  Ti  Ti0  1  0.75000000  0.75000000  0.75000000  1
  Ru  Ru0  1  -0.00000000  -0.00000000  -0.00000000  1
  Ru  Ru1  1  0.50000100  0.50000100  0.50000100  1
loop_
_geom_bond_atom_site_label_1
_geom_bond_atom_site_label_2
_geom_bond_distance
_geom_bond_site_symmetry_2
Ru0 Sc0 2.709952 1_545
Ru0 Sc0 2.709952 1_455
Ru0 Sc0 2.709952 1_554
Ru0 Ti0 2.709956 1_444
Ru0 Ti0 2.709956 1_445
Ru0 Ti0 2.709956 1_454
Ru0 Ti0 2.709956 1_544
Ru0 Sc0 2.709967 1_555
Ru1 Ti0 2.709945 1_555
Ru1 Sc0 2.709956 1_556
Ru1 Sc0 2.709956 1_565
Ru1 Sc0 2.709956 1_655
Ru1 Sc0 2.709956 1_555
Ru1 Ti0 2.709960 1_545
Ru1 Ti0 2.709960 1_554
Ru1 Ti0 2.709960 1_455
