# generated using pymatgen
data_Fe(SiP)4
_symmetry_space_group_name_H-M   'P 1'
_cell_length_a   4.86847905
_cell_length_b   5.53769270
_cell_length_c   6.05465878
_cell_angle_alpha   85.36806417
_cell_angle_beta   68.37631664
_cell_angle_gamma   70.41003838
_symmetry_Int_Tables_number   1
_chemical_formula_structural   Fe(SiP)4
_chemical_formula_sum   'Fe1 Si4 P4'
_cell_volume   142.79220690
_cell_formula_units_Z   1
loop_
 _symmetry_equiv_pos_site_id
 _symmetry_equiv_pos_as_xyz
  1  'x, y, z'
loop_
 _atom_site_type_symbol
 _atom_site_label
 _atom_site_symmetry_multiplicity
 _atom_site_fract_x
 _atom_site_fract_y
 _atom_site_fract_z
 _atom_site_occupancy
  Fe  Fe0  1  -0.00039349  -0.00011742  0.00002641  1
  Si  Si0  1  0.68036704  0.77703523  0.21706465  1
  Si  Si1  1  0.23821603  0.33831726  0.43106713  1
  Si  Si2  1  0.34590716  0.59924646  0.88523417  1
  Si  Si3  1  0.84662108  0.97133088  0.69717897  1
  P  P0  1  0.15641867  0.01146392  0.30925273  1
  P  P1  1  0.63346752  0.39987330  0.11798530  1
  P  P2  1  0.76350044  0.64198802  0.56459587  1
  P  P3  1  0.32909455  0.21916034  0.76839378  1
loop_
_geom_bond_atom_site_label_1
_geom_bond_atom_site_label_2
_geom_bond_distance
_geom_bond_site_symmetry_2
Fe0 Si3 2.252622 1_444
Fe0 Si2 2.263816 1_544
Fe0 Si0 2.276902 1_445
Fe0 P0 2.279910 1_555
Fe0 P1 2.294212 1_455
Fe0 P3 2.321124 1_554
P0 Si1 2.212269 1_555
P0 Si0 2.313155 1_545
P0 Si3 2.317423 1_445
P1 Si1 2.249321 1_555
P1 Si2 2.308922 1_554
P1 Si0 2.323227 1_555
P2 Si1 2.249265 1_655
P2 Si3 2.259466 1_555
P2 Si2 2.301676 1_555
P2 Si0 2.306777 1_555
P3 Si1 2.248358 1_555
P3 Si2 2.309985 1_555
P3 Si3 2.322447 1_545
