# generated using pymatgen
data_LiGe
_symmetry_space_group_name_H-M   'P 1'
_cell_length_a   5.74386891
_cell_length_b   7.45671376
_cell_length_c   7.45671242
_cell_angle_alpha   81.46934635
_cell_angle_beta   67.34711546
_cell_angle_gamma   67.34710862
_symmetry_Int_Tables_number   1
_chemical_formula_structural   LiGe
_chemical_formula_sum   'Li8 Ge8'
_cell_volume   271.99843956
_cell_formula_units_Z   8
loop_
 _symmetry_equiv_pos_site_id
 _symmetry_equiv_pos_as_xyz
  1  'x, y, z'
loop_
 _atom_site_type_symbol
 _atom_site_label
 _atom_site_symmetry_multiplicity
 _atom_site_fract_x
 _atom_site_fract_y
 _atom_site_fract_z
 _atom_site_occupancy
  Li  Li0  1  0.45981200  0.19363439  0.53445183  1
  Li  Li1  1  0.99426383  0.96554817  0.19363439  1
  Li  Li2  1  0.15344538  0.53445183  0.30636561  1
  Li  Li3  1  0.18789722  0.30636561  0.96554817  1
  Li  Li4  1  0.54018800  0.80636561  0.46554817  1
  Li  Li5  1  0.00573617  0.03445183  0.80636561  1
  Li  Li6  1  0.84655462  0.46554817  0.69363439  1
  Li  Li7  1  0.81210278  0.69363439  0.03445183  1
  Ge  Ge0  1  0.05765561  0.15914667  0.44463755  1
  Ge  Ge1  1  0.50229417  0.05536245  0.15914667  1
  Ge  Ge2  1  0.71680429  0.44463755  0.34085333  1
  Ge  Ge3  1  0.66144184  0.34085333  0.05536245  1
  Ge  Ge4  1  0.94234439  0.84085333  0.55536245  1
  Ge  Ge5  1  0.49770583  0.94463755  0.84085333  1
  Ge  Ge6  1  0.28319571  0.55536245  0.65914667  1
  Ge  Ge7  1  0.33855816  0.65914667  0.94463755  1
loop_
_geom_bond_atom_site_label_1
_geom_bond_atom_site_label_2
_geom_bond_distance
_geom_bond_site_symmetry_2
Ge0 Ge2 2.536074 1_455
Ge0 Ge1 2.536084 1_555
Ge0 Ge4 2.638522 1_445
Ge0 Li5 2.660610 1_555
Ge0 Li1 2.729678 1_445
Ge0 Li6 2.743724 1_455
Ge0 Li0 2.747868 1_555
Ge0 Li2 3.015077 1_555
Ge0 Li4 3.036628 1_545
Ge0 Li0 3.147368 1_455
Ge1 Ge3 2.536083 1_555
Ge1 Ge5 2.638527 1_544
Ge1 Li7 2.660610 1_545
Ge1 Li3 2.729686 1_554
Ge1 Li4 2.743722 1_545
Ge1 Li1 2.747863 1_545
Ge1 Li0 3.015077 1_555
Ge1 Li5 3.036625 1_654
Ge1 Li1 3.147373 1_445
Ge2 Ge3 2.536080 1_555
Ge2 Ge6 2.638533 1_555
Ge2 Li4 2.660608 1_555
Ge2 Li0 2.729686 1_555
Ge2 Li7 2.743722 1_555
Ge2 Li2 2.747852 1_655
Ge2 Li3 3.015073 1_654
Ge2 Li6 3.036624 1_555
Ge2 Li2 3.147385 1_555
Ge3 Ge7 2.638533 1_554
Ge3 Li6 2.660609 1_554
Ge3 Li2 2.729690 1_555
Ge3 Li5 2.743722 1_654
Ge3 Li3 2.747852 1_654
Ge3 Li1 3.015075 1_545
Ge3 Li7 3.036625 1_555
Ge3 Li3 3.147385 1_554
Ge4 Ge6 2.536074 1_655
Ge4 Ge5 2.536084 1_555
Ge4 Li1 2.660610 1_555
Ge4 Li5 2.729678 1_665
Ge4 Li2 2.743724 1_655
Ge4 Li4 2.747868 1_555
Ge4 Li6 3.015077 1_555
Ge4 Li0 3.036628 1_565
Ge4 Li4 3.147368 1_655
Ge5 Ge7 2.536083 1_555
Ge5 Li3 2.660610 1_565
Ge5 Li7 2.729686 1_556
Ge5 Li0 2.743722 1_565
Ge5 Li5 2.747863 1_565
Ge5 Li4 3.015077 1_555
Ge5 Li1 3.036625 1_456
Ge5 Li5 3.147373 1_665
Ge6 Ge7 2.536080 1_555
Ge6 Li0 2.660608 1_555
Ge6 Li4 2.729686 1_555
Ge6 Li3 2.743722 1_555
Ge6 Li6 2.747852 1_455
Ge6 Li7 3.015073 1_456
Ge6 Li2 3.036624 1_555
Ge6 Li6 3.147385 1_555
Ge7 Li2 2.660609 1_556
Ge7 Li6 2.729690 1_555
Ge7 Li1 2.743722 1_456
Ge7 Li7 2.747852 1_456
Ge7 Li5 3.015075 1_565
Ge7 Li3 3.036625 1_555
Ge7 Li7 3.147385 1_556
