# generated using pymatgen
data_Ni3Au
_symmetry_space_group_name_H-M   'P 1'
_cell_length_a   5.23849324
_cell_length_b   5.23849324
_cell_length_c   4.25418700
_cell_angle_alpha   90.00000000
_cell_angle_beta   90.00000000
_cell_angle_gamma   119.99999036
_symmetry_Int_Tables_number   1
_chemical_formula_structural   Ni3Au
_chemical_formula_sum   'Ni6 Au2'
_cell_volume   101.10206476
_cell_formula_units_Z   2
loop_
 _symmetry_equiv_pos_site_id
 _symmetry_equiv_pos_as_xyz
  1  'x, y, z'
loop_
 _atom_site_type_symbol
 _atom_site_label
 _atom_site_symmetry_multiplicity
 _atom_site_fract_x
 _atom_site_fract_y
 _atom_site_fract_z
 _atom_site_occupancy
  Ni  Ni0  1  0.15875400  0.31750800  0.25000000  1
  Ni  Ni1  1  0.68249200  0.84124600  0.25000000  1
  Ni  Ni2  1  0.15875400  0.84124600  0.25000000  1
  Ni  Ni3  1  0.84124600  0.68249200  0.75000000  1
  Ni  Ni4  1  0.31750800  0.15875400  0.75000000  1
  Ni  Ni5  1  0.84124600  0.15875400  0.75000000  1
  Au  Au0  1  0.33333300  0.66666700  0.75000000  1
  Au  Au1  1  0.66666700  0.33333300  0.25000000  1
loop_
_geom_bond_atom_site_label_1
_geom_bond_atom_site_label_2
_geom_bond_distance
_geom_bond_site_symmetry_2
Ni0 Ni2 2.494895 1_545
Ni0 Ni1 2.494896 1_445
Ni0 Ni4 2.568922 1_554
Ni0 Ni4 2.568922 1_555
Ni0 Ni5 2.568922 1_455
Ni0 Ni5 2.568922 1_454
Ni0 Ni2 2.743598 1_555
Ni0 Ni1 2.743598 1_555
Ni1 Ni2 2.494895 1_655
Ni1 Ni3 2.568922 1_554
Ni1 Ni3 2.568922 1_555
Ni1 Ni5 2.568922 1_564
Ni1 Ni5 2.568922 1_565
Ni1 Ni2 2.743598 1_555
Ni2 Ni3 2.568922 1_455
Ni2 Ni3 2.568922 1_454
Ni2 Ni4 2.568922 1_564
Ni2 Ni4 2.568922 1_565
Ni3 Ni5 2.494895 1_565
Ni3 Ni4 2.494896 1_665
Ni3 Ni5 2.743598 1_555
Ni3 Ni4 2.743598 1_555
Ni4 Ni5 2.494895 1_455
Ni4 Ni5 2.743598 1_555
Au0 Ni3 2.620228 1_455
Au0 Ni4 2.620228 1_565
Au0 Ni5 2.620231 1_455
Au0 Ni5 2.620231 1_565
Au0 Ni3 2.620233 1_555
Au0 Ni4 2.620233 1_555
Au0 Ni2 2.652099 1_556
Au0 Ni2 2.652099 1_555
Au0 Ni1 2.652101 1_555
Au0 Ni1 2.652101 1_556
Au0 Ni0 2.652101 1_555
Au0 Ni0 2.652101 1_556
Au1 Ni1 2.620228 1_545
Au1 Ni0 2.620228 1_655
Au1 Ni2 2.620231 1_545
Au1 Ni2 2.620231 1_655
Au1 Ni1 2.620233 1_555
Au1 Ni0 2.620233 1_555
Au1 Ni5 2.652099 1_554
Au1 Ni5 2.652099 1_555
Au1 Ni3 2.652101 1_554
Au1 Ni3 2.652101 1_555
Au1 Ni4 2.652101 1_555
Au1 Ni4 2.652101 1_554
