# generated using pymatgen
data_GaP
_symmetry_space_group_name_H-M   'P 1'
_cell_length_a   5.13065400
_cell_length_b   5.13065400
_cell_length_c   10.50077600
_cell_angle_alpha   90.00000000
_cell_angle_beta   90.00000000
_cell_angle_gamma   90.00000000
_symmetry_Int_Tables_number   1
_chemical_formula_structural   GaP
_chemical_formula_sum   'Ga8 P8'
_cell_volume   276.41833703
_cell_formula_units_Z   8
loop_
 _symmetry_equiv_pos_site_id
 _symmetry_equiv_pos_as_xyz
  1  'x, y, z'
loop_
 _atom_site_type_symbol
 _atom_site_label
 _atom_site_symmetry_multiplicity
 _atom_site_fract_x
 _atom_site_fract_y
 _atom_site_fract_z
 _atom_site_occupancy
  Ga  Ga0_0  1  0.00000000  0.00000000  0.25000000  1
  Ga  Ga0_1  1  0.00000000  0.00000000  0.75000000  1
  Ga  Ga0_2  1  0.00000000  0.50000000  0.25000000  1
  Ga  Ga0_3  1  0.00000000  0.50000000  0.75000000  1
  Ga  Ga0_4  1  0.50000000  0.00000000  0.25000000  1
  Ga  Ga0_5  1  0.50000000  0.00000000  0.75000000  1
  Ga  Ga0_6  1  0.50000000  0.50000000  0.25000000  1
  Ga  Ga0_7  1  0.50000000  0.50000000  0.75000000  1
  P  P0_0  1  0.00000000  0.00000000  0.00000000  1
  P  P0_1  1  0.00000000  0.00000000  0.50000000  1
  P  P0_2  1  0.00000000  0.50000000  0.00000000  1
  P  P0_3  1  0.00000000  0.50000000  0.50000000  1
  P  P0_4  1  0.50000000  0.00000000  0.00000000  1
  P  P0_5  1  0.50000000  0.00000000  0.50000000  1
  P  P0_6  1  0.50000000  0.50000000  0.00000000  1
  P  P0_7  1  0.50000000  0.50000000  0.50000000  1
loop_
_geom_bond_atom_site_label_1
_geom_bond_atom_site_label_2
_geom_bond_distance
_geom_bond_site_symmetry_2
Ga0_0 Ga0_4 2.565327 1_555
Ga0_0 Ga0_2 2.565327 1_545
Ga0_0 Ga0_2 2.565327 1_555
Ga0_0 Ga0_4 2.565327 1_455
Ga0_0 P0_1 2.625194 1_555
Ga0_0 P0_0 2.625194 1_555
Ga0_1 Ga0_3 2.565327 1_555
Ga0_1 Ga0_3 2.565327 1_545
Ga0_1 Ga0_5 2.565327 1_455
Ga0_1 Ga0_5 2.565327 1_555
Ga0_1 P0_1 2.625194 1_555
Ga0_1 P0_0 2.625194 1_556
Ga0_2 Ga0_6 2.565327 1_455
Ga0_2 Ga0_6 2.565327 1_555
Ga0_2 P0_2 2.625194 1_555
Ga0_2 P0_3 2.625194 1_555
Ga0_3 Ga0_7 2.565327 1_555
Ga0_3 Ga0_7 2.565327 1_455
Ga0_3 P0_3 2.625194 1_555
Ga0_3 P0_2 2.625194 1_556
Ga0_4 Ga0_6 2.565327 1_555
Ga0_4 Ga0_6 2.565327 1_545
Ga0_4 P0_4 2.625194 1_555
Ga0_4 P0_5 2.625194 1_555
Ga0_5 Ga0_7 2.565327 1_545
Ga0_5 Ga0_7 2.565327 1_555
Ga0_5 P0_5 2.625194 1_555
Ga0_5 P0_4 2.625194 1_556
Ga0_6 P0_7 2.625194 1_555
Ga0_6 P0_6 2.625194 1_555
Ga0_7 P0_7 2.625194 1_555
Ga0_7 P0_6 2.625194 1_556
P0_0 P0_2 2.565327 1_555
P0_0 P0_4 2.565327 1_555
P0_0 P0_2 2.565327 1_545
P0_0 P0_4 2.565327 1_455
P0_1 P0_3 2.565327 1_555
P0_1 P0_5 2.565327 1_455
P0_1 P0_3 2.565327 1_545
P0_1 P0_5 2.565327 1_555
P0_2 P0_6 2.565327 1_455
P0_2 P0_6 2.565327 1_555
P0_3 P0_7 2.565327 1_455
P0_3 P0_7 2.565327 1_555
P0_4 P0_6 2.565327 1_545
P0_4 P0_6 2.565327 1_555
P0_5 P0_7 2.565327 1_555
P0_5 P0_7 2.565327 1_545
