# generated using pymatgen
data_Pa3Re
_symmetry_space_group_name_H-M   'P 1'
_cell_length_a   6.19945790
_cell_length_b   6.19945790
_cell_length_c   5.40049400
_cell_angle_alpha   90.00000000
_cell_angle_beta   90.00000000
_cell_angle_gamma   119.99999891
_symmetry_Int_Tables_number   1
_chemical_formula_structural   Pa3Re
_chemical_formula_sum   'Pa6 Re2'
_cell_volume   179.75109897
_cell_formula_units_Z   2
loop_
 _symmetry_equiv_pos_site_id
 _symmetry_equiv_pos_as_xyz
  1  'x, y, z'
loop_
 _atom_site_type_symbol
 _atom_site_label
 _atom_site_symmetry_multiplicity
 _atom_site_fract_x
 _atom_site_fract_y
 _atom_site_fract_z
 _atom_site_occupancy
  Pa  Pa0  1  0.17646800  0.35293500  0.25000000  1
  Pa  Pa1  1  0.64706500  0.82353200  0.25000000  1
  Pa  Pa2  1  0.17646800  0.82353200  0.25000000  1
  Pa  Pa3  1  0.82353200  0.64706500  0.75000000  1
  Pa  Pa4  1  0.35293500  0.17646800  0.75000000  1
  Pa  Pa5  1  0.82353200  0.17646800  0.75000000  1
  Re  Re0  1  0.33333300  0.66666700  0.75000000  1
  Re  Re1  1  0.66666700  0.33333300  0.25000000  1
loop_
_geom_bond_atom_site_label_1
_geom_bond_atom_site_label_2
_geom_bond_distance
_geom_bond_site_symmetry_2
Pa0 Pa2 2.917446 1_555
Pa0 Pa1 2.917446 1_555
Pa0 Re1 3.101515 1_555
Pa0 Re1 3.101515 1_455
Pa0 Re0 3.182532 1_555
Pa0 Re0 3.182532 1_554
Pa0 Pa2 3.282012 1_545
Pa0 Pa1 3.282012 1_445
Pa0 Pa4 3.298763 1_555
Pa0 Pa4 3.298763 1_554
Pa0 Pa5 3.298770 1_455
Pa0 Pa5 3.298770 1_454
Pa1 Pa2 2.917446 1_555
Pa1 Re1 3.101515 1_555
Pa1 Re1 3.101515 1_565
Pa1 Re0 3.182532 1_555
Pa1 Re0 3.182532 1_554
Pa1 Pa2 3.282012 1_655
Pa1 Pa3 3.298763 1_555
Pa1 Pa3 3.298763 1_554
Pa1 Pa5 3.298770 1_565
Pa1 Pa5 3.298770 1_564
Pa2 Re1 3.101515 1_455
Pa2 Re1 3.101515 1_565
Pa2 Re0 3.182526 1_554
Pa2 Re0 3.182526 1_555
Pa2 Pa4 3.298770 1_564
Pa2 Pa4 3.298770 1_565
Pa2 Pa3 3.298770 1_454
Pa2 Pa3 3.298770 1_455
Pa3 Pa5 2.917446 1_555
Pa3 Pa4 2.917446 1_555
Pa3 Re0 3.101515 1_555
Pa3 Re0 3.101515 1_655
Pa3 Re1 3.182532 1_555
Pa3 Re1 3.182532 1_556
Pa3 Pa5 3.282012 1_565
Pa3 Pa4 3.282012 1_665
Pa4 Pa5 2.917446 1_555
Pa4 Re0 3.101515 1_555
Pa4 Re0 3.101515 1_545
Pa4 Re1 3.182532 1_555
Pa4 Re1 3.182532 1_556
Pa4 Pa5 3.282012 1_455
Pa5 Re0 3.101515 1_545
Pa5 Re0 3.101515 1_655
Pa5 Re1 3.182526 1_555
Pa5 Re1 3.182526 1_556
