# generated using pymatgen
data_Cs2AlTlH6
_symmetry_space_group_name_H-M   'P 1'
_cell_length_a   6.30544794
_cell_length_b   6.30544794
_cell_length_c   6.30544794
_cell_angle_alpha   60.00000000
_cell_angle_beta   60.00000000
_cell_angle_gamma   60.00000000
_symmetry_Int_Tables_number   1
_chemical_formula_structural   Cs2AlTlH6
_chemical_formula_sum   'Cs2 Al1 Tl1 H6'
_cell_volume   177.26901689
_cell_formula_units_Z   1
loop_
 _symmetry_equiv_pos_site_id
 _symmetry_equiv_pos_as_xyz
  1  'x, y, z'
loop_
 _atom_site_type_symbol
 _atom_site_label
 _atom_site_symmetry_multiplicity
 _atom_site_fract_x
 _atom_site_fract_y
 _atom_site_fract_z
 _atom_site_occupancy
  Cs  Cs0  1  0.25000000  0.25000000  0.25000000  1
  Cs  Cs1  1  0.75000000  0.75000000  0.75000000  1
  Al  Al0  1  0.50000000  0.50000000  0.50000000  1
  Tl  Tl0  1  0.00000000  0.00000000  0.00000000  1
  H  H0  1  0.29834300  0.70165700  0.70165700  1
  H  H1  1  0.29834300  0.70165700  0.29834300  1
  H  H2  1  0.70165700  0.29834300  0.70165700  1
  H  H3  1  0.70165700  0.70165700  0.29834300  1
  H  H4  1  0.29834300  0.29834300  0.70165700  1
  H  H5  1  0.70165700  0.29834300  0.29834300  1
loop_
_geom_bond_atom_site_label_1
_geom_bond_atom_site_label_2
_geom_bond_distance
_geom_bond_site_symmetry_2
Cs0 H5 3.182060 1_455
Cs0 H1 3.182060 1_545
Cs0 H1 3.182060 1_555
Cs0 H5 3.182060 1_555
Cs0 H2 3.182060 1_455
Cs0 H0 3.182060 1_545
Cs0 H0 3.182060 1_554
Cs0 H2 3.182060 1_554
Cs0 H4 3.182060 1_554
Cs0 H3 3.182060 1_545
Cs0 H3 3.182060 1_455
Cs0 H4 3.182060 1_555
Cs1 H5 3.182060 1_565
Cs1 H1 3.182060 1_655
Cs1 H1 3.182060 1_556
Cs1 H2 3.182060 1_565
Cs1 H5 3.182060 1_556
Cs1 H2 3.182060 1_555
Cs1 H0 3.182060 1_555
Cs1 H0 3.182060 1_655
Cs1 H4 3.182060 1_565
Cs1 H3 3.182060 1_555
Cs1 H3 3.182060 1_556
Cs1 H4 3.182060 1_655
Al0 H5 1.798226 1_555
Al0 H2 1.798226 1_555
Al0 H3 1.798226 1_555
Al0 H0 1.798226 1_555
Al0 H4 1.798226 1_555
Al0 H1 1.798226 1_555
