# generated using pymatgen
data_Zn3N2
_symmetry_space_group_name_H-M   'P 1'
_cell_length_a   8.42764716
_cell_length_b   8.42764607
_cell_length_c   8.42764586
_cell_angle_alpha   109.47122254
_cell_angle_beta   109.47121991
_cell_angle_gamma   109.47121720
_symmetry_Int_Tables_number   1
_chemical_formula_structural   Zn3N2
_chemical_formula_sum   'Zn24 N16'
_cell_volume   460.78362004
_cell_formula_units_Z   8
loop_
 _symmetry_equiv_pos_site_id
 _symmetry_equiv_pos_as_xyz
  1  'x, y, z'
loop_
 _atom_site_type_symbol
 _atom_site_label
 _atom_site_symmetry_multiplicity
 _atom_site_fract_x
 _atom_site_fract_y
 _atom_site_fract_z
 _atom_site_occupancy
  Zn  Zn0  1  0.04818938  0.27639289  0.02409417  1
  Zn  Zn1  1  0.27179749  0.74770127  0.22360711  1
  Zn  Zn2  1  0.75229873  0.02409522  0.47590583  1
  Zn  Zn3  1  0.45181062  0.47590478  0.22820251  1
  Zn  Zn4  1  0.22820251  0.45181062  0.47590478  1
  Zn  Zn5  1  0.27639289  0.02409417  0.04818938  1
  Zn  Zn6  1  0.22360711  0.27179749  0.74770127  1
  Zn  Zn7  1  0.02409522  0.47590583  0.75229873  1
  Zn  Zn8  1  0.47590583  0.75229873  0.02409522  1
  Zn  Zn9  1  0.74770127  0.22360711  0.27179749  1
  Zn  Zn10  1  0.02409417  0.04818938  0.27639289  1
  Zn  Zn11  1  0.47590478  0.22820251  0.45181062  1
  Zn  Zn12  1  0.97590478  0.52409417  0.24770127  1
  Zn  Zn13  1  0.77639289  0.72820251  0.25229873  1
  Zn  Zn14  1  0.72360711  0.97590583  0.95181062  1
  Zn  Zn15  1  0.77179749  0.54818938  0.52409522  1
  Zn  Zn16  1  0.54818938  0.52409522  0.77179749  1
  Zn  Zn17  1  0.24770127  0.97590478  0.52409417  1
  Zn  Zn18  1  0.72820251  0.25229873  0.77639289  1
  Zn  Zn19  1  0.95181062  0.72360711  0.97590583  1
  Zn  Zn20  1  0.52409417  0.24770127  0.97590478  1
  Zn  Zn21  1  0.25229873  0.77639289  0.72820251  1
  Zn  Zn22  1  0.97590583  0.95181062  0.72360711  1
  Zn  Zn23  1  0.52409522  0.77179749  0.54818938  1
  N  N0  1  0.25000000  0.72912153  0.47912153  1
  N  N1  1  0.02087847  0.75000000  0.77087847  1
  N  N2  1  0.77087847  0.02087847  0.75000000  1
  N  N3  1  0.47912153  0.25000000  0.72912153  1
  N  N4  1  0.72912153  0.47912153  0.25000000  1
  N  N5  1  0.75000000  0.77087847  0.02087847  1
  N  N6  1  0.75000000  0.27087847  0.52087847  1
  N  N7  1  0.97912153  0.25000000  0.22912153  1
  N  N8  1  0.22912153  0.97912153  0.25000000  1
  N  N9  1  0.52087847  0.75000000  0.27087847  1
  N  N10  1  0.27087847  0.52087847  0.75000000  1
  N  N11  1  0.25000000  0.22912153  0.97912153  1
  N  N12  1  -0.00000000  0.50000000  -0.00000000  1
  N  N13  1  0.50000000  -0.00000000  -0.00000000  1
  N  N14  1  -0.00000000  -0.00000000  0.50000000  1
  N  N15  1  0.50000000  0.50000000  0.50000000  1
loop_
_geom_bond_atom_site_label_1
_geom_bond_atom_site_label_2
_geom_bond_distance
_geom_bond_site_symmetry_2
N0 Zn21 1.993943 1_555
N0 Zn17 1.993952 1_555
N0 Zn23 2.052886 1_555
N0 Zn12 2.052888 1_455
N0 Zn4 2.272585 1_555
N0 Zn1 2.272590 1_555
N1 Zn15 1.993948 1_455
N1 Zn22 1.993952 1_455
N1 Zn19 2.052888 1_455
N1 Zn21 2.052893 1_555
N1 Zn7 2.272587 1_555
N1 Zn5 2.272587 1_566
N2 Zn23 1.993948 1_545
N2 Zn14 1.993952 1_545
N2 Zn22 2.052888 1_545
N2 Zn18 2.052892 1_555
N2 Zn2 2.272587 1_555
N2 Zn0 2.272587 1_656
N3 Zn18 1.993944 1_555
N3 Zn20 1.993952 1_555
N3 Zn16 2.052885 1_555
N3 Zn17 2.052888 1_545
N3 Zn11 2.272585 1_555
N3 Zn6 2.272590 1_555
N4 Zn13 1.993943 1_555
N4 Zn12 1.993952 1_555
N4 Zn15 2.052885 1_555
N4 Zn20 2.052888 1_554
N4 Zn3 2.272585 1_555
N4 Zn9 2.272590 1_555
N5 Zn16 1.993948 1_554
N5 Zn19 1.993952 1_554
N5 Zn14 2.052888 1_554
N5 Zn13 2.052892 1_555
N5 Zn10 2.272587 1_665
N5 Zn8 2.272587 1_555
N6 Zn9 1.993943 1_555
N6 Zn2 1.993952 1_555
N6 Zn11 2.052886 1_555
N6 Zn7 2.052888 1_655
N6 Zn15 2.272585 1_555
N6 Zn18 2.272590 1_555
N7 Zn4 1.993948 1_655
N7 Zn10 1.993952 1_655
N7 Zn0 2.052888 1_655
N7 Zn9 2.052893 1_555
N7 Zn12 2.272587 1_555
N7 Zn14 2.272587 1_544
N8 Zn11 1.993948 1_565
N8 Zn5 1.993952 1_565
N8 Zn10 2.052888 1_565
N8 Zn1 2.052892 1_555
N8 Zn17 2.272587 1_555
N8 Zn19 2.272587 1_454
N9 Zn1 1.993944 1_555
N9 Zn8 1.993952 1_555
N9 Zn3 2.052885 1_555
N9 Zn2 2.052888 1_565
N9 Zn23 2.272585 1_555
N9 Zn13 2.272590 1_555
N10 Zn6 1.993943 1_555
N10 Zn7 1.993952 1_555
N10 Zn4 2.052885 1_555
N10 Zn8 2.052888 1_556
N10 Zn16 2.272585 1_555
N10 Zn21 2.272590 1_555
N11 Zn3 1.993948 1_556
N11 Zn0 1.993952 1_556
N11 Zn5 2.052888 1_556
N11 Zn6 2.052892 1_555
N11 Zn22 2.272587 1_445
N11 Zn20 2.272587 1_555
N12 Zn7 2.113714 1_554
N12 Zn12 2.113714 1_455
N12 Zn19 2.113714 1_454
N12 Zn0 2.113714 1_555
N12 Zn1 2.113718 1_555
N12 Zn18 2.113718 1_454
N13 Zn8 2.113714 1_545
N13 Zn20 2.113714 1_554
N13 Zn14 2.113714 1_544
N13 Zn5 2.113714 1_555
N13 Zn21 2.113718 1_544
N13 Zn9 2.113718 1_555
N14 Zn22 2.113714 1_445
N14 Zn10 2.113714 1_555
N14 Zn2 2.113714 1_455
N14 Zn17 2.113714 1_545
N14 Zn6 2.113718 1_555
N14 Zn13 2.113718 1_445
N15 Zn3 2.113722 1_555
N15 Zn16 2.113722 1_555
N15 Zn11 2.113722 1_555
N15 Zn23 2.113722 1_555
N15 Zn15 2.113723 1_555
N15 Zn4 2.113723 1_555
