# generated using pymatgen
data_YbAl2Cu
_symmetry_space_group_name_H-M   'P 1'
_cell_length_a   8.81730442
_cell_length_b   8.81730442
_cell_length_c   8.81730508
_cell_angle_alpha   35.51465307
_cell_angle_beta   35.51465307
_cell_angle_gamma   35.51464906
_symmetry_Int_Tables_number   1
_chemical_formula_structural   YbAl2Cu
_chemical_formula_sum   'Yb3 Al6 Cu3'
_cell_volume   206.73060125
_cell_formula_units_Z   3
loop_
 _symmetry_equiv_pos_site_id
 _symmetry_equiv_pos_as_xyz
  1  'x, y, z'
loop_
 _atom_site_type_symbol
 _atom_site_label
 _atom_site_symmetry_multiplicity
 _atom_site_fract_x
 _atom_site_fract_y
 _atom_site_fract_z
 _atom_site_occupancy
  Yb  Yb0  1  0.00000000  0.00000000  0.00000000  1
  Yb  Yb1  1  0.14230066  0.14230066  0.14230066  1
  Yb  Yb2  1  0.85769934  0.85769934  0.85769934  1
  Al  Al0  1  0.07918517  0.58213779  0.58213779  1
  Al  Al1  1  0.58213779  0.07918517  0.58213779  1
  Al  Al2  1  0.58213779  0.58213779  0.07918517  1
  Al  Al3  1  0.41786221  0.41786221  0.92081483  1
  Al  Al4  1  0.41786221  0.92081483  0.41786221  1
  Al  Al5  1  0.92081483  0.41786221  0.41786221  1
  Cu  Cu0  1  0.33450198  0.33450198  0.33450198  1
  Cu  Cu1  1  0.50000000  0.50000000  0.50000000  1
  Cu  Cu2  1  0.66549802  0.66549802  0.66549802  1
loop_
_geom_bond_atom_site_label_1
_geom_bond_atom_site_label_2
_geom_bond_distance
_geom_bond_site_symmetry_2
Al0 Cu0 2.521966 1_555
Al0 Cu2 2.556540 1_455
Al0 Cu1 2.630794 1_555
Al0 Al1 2.673275 1_465
Al0 Al2 2.673275 1_456
Al0 Al1 2.705035 1_555
Al0 Al2 2.705035 1_555
Al0 Yb1 3.085992 1_565
Al0 Yb1 3.085992 1_556
Al0 Yb2 3.127656 1_455
Al0 Yb0 3.356830 1_556
Al0 Yb0 3.356830 1_565
Al1 Cu0 2.521966 1_555
Al1 Cu2 2.556540 1_545
Al1 Cu1 2.630794 1_555
Al1 Al2 2.673275 1_546
Al1 Al2 2.705035 1_555
Al1 Yb1 3.085992 1_655
Al1 Yb1 3.085992 1_556
Al1 Yb2 3.127656 1_545
Al1 Yb0 3.356830 1_556
Al1 Yb0 3.356830 1_655
Al2 Cu0 2.521966 1_555
Al2 Cu2 2.556540 1_554
Al2 Cu1 2.630795 1_555
Al2 Yb1 3.085992 1_565
Al2 Yb1 3.085992 1_655
Al2 Yb2 3.127656 1_554
Al2 Yb0 3.356829 1_655
Al2 Yb0 3.356829 1_565
Al3 Cu2 2.521966 1_555
Al3 Cu0 2.556540 1_556
Al3 Cu1 2.630795 1_555
Al3 Al4 2.673275 1_546
Al3 Al5 2.673275 1_456
Al3 Al4 2.705035 1_555
Al3 Al5 2.705035 1_555
Al3 Yb2 3.085992 1_455
Al3 Yb2 3.085992 1_545
Al3 Yb1 3.127656 1_556
Al3 Yb0 3.356829 1_566
Al3 Yb0 3.356829 1_656
Al4 Cu2 2.521966 1_555
Al4 Cu0 2.556540 1_565
Al4 Cu1 2.630794 1_555
Al4 Al5 2.673275 1_465
Al4 Al5 2.705035 1_555
Al4 Yb2 3.085992 1_455
Al4 Yb2 3.085992 1_554
Al4 Yb1 3.127656 1_565
Al4 Yb0 3.356830 1_665
Al4 Yb0 3.356830 1_566
Al5 Cu2 2.521966 1_555
Al5 Cu0 2.556540 1_655
Al5 Cu1 2.630794 1_555
Al5 Yb2 3.085992 1_545
Al5 Yb2 3.085992 1_554
Al5 Yb1 3.127656 1_655
Al5 Yb0 3.356830 1_665
Al5 Yb0 3.356830 1_656
Cu0 Yb0 3.105303 1_565
Cu0 Yb0 3.105303 1_655
Cu0 Yb0 3.105304 1_556
Cu1 Yb2 3.163221 1_455
Cu1 Yb2 3.163221 1_545
Cu1 Yb1 3.163221 1_565
Cu1 Yb1 3.163221 1_655
Cu1 Yb2 3.163221 1_554
Cu1 Yb1 3.163221 1_556
Cu2 Yb0 3.105303 1_656
Cu2 Yb0 3.105303 1_566
Cu2 Yb0 3.105304 1_665
