# generated using pymatgen
data_K3Hg
_symmetry_space_group_name_H-M   'P 1'
_cell_length_a   7.03461324
_cell_length_b   7.03461324
_cell_length_c   7.03461324
_cell_angle_alpha   131.16313428
_cell_angle_beta   131.16313428
_cell_angle_gamma   71.55402078
_symmetry_Int_Tables_number   1
_chemical_formula_structural   K3Hg
_chemical_formula_sum   'K3 Hg1'
_cell_volume   193.06198959
_cell_formula_units_Z   1
loop_
 _symmetry_equiv_pos_site_id
 _symmetry_equiv_pos_as_xyz
  1  'x, y, z'
loop_
 _atom_site_type_symbol
 _atom_site_label
 _atom_site_symmetry_multiplicity
 _atom_site_fract_x
 _atom_site_fract_y
 _atom_site_fract_z
 _atom_site_occupancy
  K  K0  1  0.75000100  0.25000100  0.50000000  1
  K  K1  1  0.25000100  0.75000100  0.50000000  1
  K  K2  1  0.50000000  0.50000000  0.00000000  1
  Hg  Hg0  1  0.00000000  0.00000000  0.00000000  1
loop_
_geom_bond_atom_site_label_1
_geom_bond_atom_site_label_2
_geom_bond_distance
_geom_bond_site_symmetry_2
K0 K2 4.074295 1_555
K0 K2 4.074295 1_656
K0 K2 4.074311 1_556
K0 K2 4.074311 1_545
K0 K1 4.112661 1_555
K0 K1 4.112661 1_544
K0 K1 4.112661 1_656
K0 K1 4.112661 1_645
K1 K2 4.074295 1_555
K1 K2 4.074295 1_566
K1 K2 4.074311 1_556
K1 K2 4.074311 1_455
Hg0 K1 4.074295 1_444
Hg0 K0 4.074295 1_444
Hg0 K1 4.074295 1_545
Hg0 K0 4.074295 1_455
Hg0 K0 4.074311 1_555
Hg0 K1 4.074311 1_555
Hg0 K0 4.074311 1_454
Hg0 K1 4.074311 1_544
Hg0 K2 4.112661 1_556
Hg0 K2 4.112661 1_444
Hg0 K2 4.112661 1_545
Hg0 K2 4.112661 1_455
