# generated using pymatgen
data_LiHf2Tc
_symmetry_space_group_name_H-M   'P 1'
_cell_length_a   4.61652996
_cell_length_b   4.61652996
_cell_length_c   4.61652996
_cell_angle_alpha   60.00000000
_cell_angle_beta   60.00000000
_cell_angle_gamma   60.00000000
_symmetry_Int_Tables_number   1
_chemical_formula_structural   LiHf2Tc
_chemical_formula_sum   'Li1 Hf2 Tc1'
_cell_volume   69.57159773
_cell_formula_units_Z   1
loop_
 _symmetry_equiv_pos_site_id
 _symmetry_equiv_pos_as_xyz
  1  'x, y, z'
loop_
 _atom_site_type_symbol
 _atom_site_label
 _atom_site_symmetry_multiplicity
 _atom_site_fract_x
 _atom_site_fract_y
 _atom_site_fract_z
 _atom_site_occupancy
  Li  Li0  1  0.25000100  0.25000100  0.25000100  1
  Hf  Hf0  1  0.00000000  -0.00000000  0.00000000  1
  Hf  Hf1  1  0.50000000  0.50000000  0.50000000  1
  Tc  Tc0  1  0.75000100  0.75000100  0.75000100  1
loop_
_geom_bond_atom_site_label_1
_geom_bond_atom_site_label_2
_geom_bond_distance
_geom_bond_site_symmetry_2
Li0 Tc0 3.264380 1_545
Li0 Tc0 3.264380 1_455
Li0 Tc0 3.264380 1_554
Li0 Tc0 3.264380 1_454
Li0 Tc0 3.264380 1_445
Li0 Tc0 3.264380 1_544
Hf0 Tc0 2.827024 1_444
Hf0 Li0 2.827032 1_455
Hf0 Li0 2.827032 1_554
Hf0 Li0 2.827032 1_545
Hf0 Tc0 2.827039 1_454
Hf0 Tc0 2.827039 1_445
Hf0 Tc0 2.827039 1_544
Hf0 Li0 2.827047 1_555
Hf1 Li0 2.827024 1_555
Hf1 Tc0 2.827032 1_545
Hf1 Tc0 2.827032 1_455
Hf1 Tc0 2.827032 1_554
Hf1 Li0 2.827039 1_565
Hf1 Li0 2.827039 1_655
Hf1 Li0 2.827039 1_556
Hf1 Tc0 2.827047 1_555
