# generated using pymatgen
data_LaHoMg2
_symmetry_space_group_name_H-M   'P 1'
_cell_length_a   5.47068049
_cell_length_b   5.47068080
_cell_length_c   5.47068183
_cell_angle_alpha   60.00268405
_cell_angle_beta   60.00267345
_cell_angle_gamma   60.00268281
_symmetry_Int_Tables_number   1
_chemical_formula_structural   LaHoMg2
_chemical_formula_sum   'La1 Ho1 Mg2'
_cell_volume   115.78054089
_cell_formula_units_Z   1
loop_
 _symmetry_equiv_pos_site_id
 _symmetry_equiv_pos_as_xyz
  1  'x, y, z'
loop_
 _atom_site_type_symbol
 _atom_site_label
 _atom_site_symmetry_multiplicity
 _atom_site_fract_x
 _atom_site_fract_y
 _atom_site_fract_z
 _atom_site_occupancy
  La  La0  1  0.75000067  0.75000061  0.75000062  1
  Ho  Ho0  1  0.24999999  0.25000009  0.25000004  1
  Mg  Mg0  1  0.00000013  0.00000018  0.00000018  1
  Mg  Mg1  1  0.49999921  0.49999912  0.49999916  1
loop_
_geom_bond_atom_site_label_1
_geom_bond_atom_site_label_2
_geom_bond_distance
_geom_bond_site_symmetry_2
La0 Mg0 3.350020 1_666
La0 Mg1 3.350046 1_555
La0 Mg1 3.350200 1_655
La0 Mg1 3.350201 1_565
La0 Mg1 3.350201 1_556
La0 Mg0 3.350209 1_566
La0 Mg0 3.350209 1_656
La0 Mg0 3.350210 1_665
Ho0 Mg1 3.350015 1_555
Ho0 Mg0 3.350025 1_555
Ho0 Mg0 3.350208 1_655
Ho0 Mg0 3.350208 1_565
Ho0 Mg0 3.350208 1_556
Ho0 Mg1 3.350210 1_455
Ho0 Mg1 3.350212 1_554
Ho0 Mg1 3.350212 1_545
