# generated using pymatgen
data_Lu3Si
_symmetry_space_group_name_H-M   'P 1'
_cell_length_a   5.84903975
_cell_length_b   5.84903975
_cell_length_c   5.84903975
_cell_angle_alpha   135.92649681
_cell_angle_beta   135.92649681
_cell_angle_gamma   64.09399278
_symmetry_Int_Tables_number   1
_chemical_formula_structural   Lu3Si
_chemical_formula_sum   'Lu3 Si1'
_cell_volume   95.50804120
_cell_formula_units_Z   1
loop_
 _symmetry_equiv_pos_site_id
 _symmetry_equiv_pos_as_xyz
  1  'x, y, z'
loop_
 _atom_site_type_symbol
 _atom_site_label
 _atom_site_symmetry_multiplicity
 _atom_site_fract_x
 _atom_site_fract_y
 _atom_site_fract_z
 _atom_site_occupancy
  Lu  Lu0  1  0.75000000  0.25000000  0.50000000  1
  Lu  Lu1  1  0.25000000  0.75000000  0.50000000  1
  Lu  Lu2  1  0.50000000  0.50000000  0.00000000  1
  Si  Si0  1  0.00000000  0.00000000  0.00000000  1
loop_
_geom_bond_atom_site_label_1
_geom_bond_atom_site_label_2
_geom_bond_distance
_geom_bond_site_symmetry_2
Lu0 Lu1 3.103586 1_645
Lu0 Lu1 3.103586 1_544
Lu0 Lu1 3.103586 1_555
Lu0 Lu1 3.103586 1_656
Lu0 Si0 3.310722 1_656
Lu0 Lu2 3.310722 1_555
Lu0 Si0 3.310722 1_555
Lu0 Lu2 3.310722 1_545
Lu0 Lu2 3.310722 1_656
Lu0 Si0 3.310722 1_666
Lu0 Si0 3.310722 1_655
Lu0 Lu2 3.310722 1_556
Lu1 Lu2 3.310722 1_555
Lu1 Lu2 3.310722 1_566
Lu1 Si0 3.310722 1_555
Lu1 Si0 3.310722 1_566
Lu1 Si0 3.310722 1_565
Lu1 Si0 3.310722 1_666
Lu1 Lu2 3.310722 1_455
Lu1 Lu2 3.310722 1_556
Lu2 Si0 3.103586 1_565
Lu2 Si0 3.103586 1_666
Lu2 Si0 3.103586 1_655
Lu2 Si0 3.103586 1_554
