# generated using pymatgen
data_Na6FeS4
_symmetry_space_group_name_H-M   'P 1'
_cell_length_a   8.94658758
_cell_length_b   8.94658758
_cell_length_c   6.94735400
_cell_angle_alpha   90.00000000
_cell_angle_beta   90.00000000
_cell_angle_gamma   119.99999689
_symmetry_Int_Tables_number   1
_chemical_formula_structural   Na6FeS4
_chemical_formula_sum   'Na12 Fe2 S8'
_cell_volume   481.57608237
_cell_formula_units_Z   2
loop_
 _symmetry_equiv_pos_site_id
 _symmetry_equiv_pos_as_xyz
  1  'x, y, z'
loop_
 _atom_site_type_symbol
 _atom_site_label
 _atom_site_symmetry_multiplicity
 _atom_site_fract_x
 _atom_site_fract_y
 _atom_site_fract_z
 _atom_site_occupancy
  Na  Na0  1  0.14686900  0.85313100  0.53943000  1
  Na  Na1  1  0.29373700  0.14686900  0.03943000  1
  Na  Na2  1  0.85313100  0.70626300  0.03943000  1
  Na  Na3  1  0.14686900  0.29373700  0.53943000  1
  Na  Na4  1  0.70626300  0.85313100  0.53943000  1
  Na  Na5  1  0.85313100  0.14686900  0.03943000  1
  Na  Na6  1  0.53170800  0.46829200  0.36870400  1
  Na  Na7  1  0.06341500  0.53170800  0.86870400  1
  Na  Na8  1  0.46829200  0.93658500  0.86870400  1
  Na  Na9  1  0.53170800  0.06341500  0.36870400  1
  Na  Na10  1  0.93658500  0.46829200  0.36870400  1
  Na  Na11  1  0.46829200  0.53170800  0.86870400  1
  Fe  Fe0  1  0.66666700  0.33333300  0.75286900  1
  Fe  Fe1  1  0.33333300  0.66666700  0.25286900  1
  S  S0  1  0.81089100  0.18910900  0.64587900  1
  S  S1  1  0.62178200  0.81089100  0.14587900  1
  S  S2  1  0.33333300  0.66666700  0.59199100  1
  S  S3  1  0.66666700  0.33333300  0.09199100  1
  S  S4  1  0.18910900  0.81089100  0.14587900  1
  S  S5  1  0.37821800  0.18910900  0.64587900  1
  S  S6  1  0.81089100  0.62178200  0.64587900  1
  S  S7  1  0.18910900  0.37821800  0.14587900  1
loop_
_geom_bond_atom_site_label_1
_geom_bond_atom_site_label_2
_geom_bond_distance
_geom_bond_site_symmetry_2
Na0 S5 2.764891 1_565
Na0 S6 2.764891 1_455
Na0 S4 2.811396 1_555
Na0 S2 2.912418 1_555
Na1 S7 2.764885 1_555
Na1 S4 2.764893 1_545
Na1 S5 2.811397 1_554
Na1 S3 2.912434 1_555
Na2 S1 2.764885 1_555
Na2 S4 2.764893 1_655
Na2 S6 2.811397 1_554
Na2 S3 2.912434 1_555
Na3 S5 2.764885 1_555
Na3 S0 2.764893 1_455
Na3 S7 2.811397 1_555
Na3 S2 2.912434 1_555
Na4 S6 2.764885 1_555
Na4 S0 2.764893 1_565
Na4 S1 2.811397 1_555
Na4 S2 2.912434 1_555
Na5 S7 2.764891 1_655
Na5 S1 2.764891 1_545
Na5 S0 2.811396 1_554
Na5 S3 2.912418 1_555
Na6 S3 2.840655 1_555
Na6 S6 2.898713 1_555
Na6 S5 2.898713 1_555
Na6 S1 3.157628 1_555
Na6 S7 3.157628 1_555
Na7 S2 2.840655 1_555
Na7 S4 2.898712 1_556
Na7 S7 2.898718 1_556
Na7 S6 3.157620 1_455
Na7 S0 3.157626 1_455
Na8 S2 2.840655 1_555
Na8 S4 2.898712 1_556
Na8 S1 2.898718 1_556
Na8 S5 3.157620 1_565
Na8 S0 3.157626 1_565
Na9 S3 2.840655 1_555
Na9 S0 2.898712 1_555
Na9 S5 2.898718 1_555
Na9 S1 3.157620 1_545
Na9 S4 3.157626 1_545
Na10 S3 2.840655 1_555
Na10 S0 2.898712 1_555
Na10 S6 2.898718 1_555
Na10 S7 3.157620 1_655
Na10 S4 3.157626 1_655
Na11 S2 2.840655 1_555
Na11 S1 2.898713 1_556
Na11 S7 2.898713 1_556
Na11 S6 3.157628 1_555
Na11 S5 3.157628 1_555
Fe0 S0 2.355252 1_555
Fe0 S6 2.355259 1_555
Fe0 S5 2.355259 1_555
Fe0 S3 2.356001 1_556
Fe1 S4 2.355252 1_555
Fe1 S1 2.355259 1_555
Fe1 S7 2.355259 1_555
Fe1 S2 2.356001 1_555
