# generated using pymatgen
data_Mn3Be
_symmetry_space_group_name_H-M   'P 1'
_cell_length_a   4.79077041
_cell_length_b   4.79077041
_cell_length_c   4.03335700
_cell_angle_alpha   90.00000000
_cell_angle_beta   90.00000000
_cell_angle_gamma   120.00000570
_symmetry_Int_Tables_number   1
_chemical_formula_structural   Mn3Be
_chemical_formula_sum   'Mn6 Be2'
_cell_volume   80.16928091
_cell_formula_units_Z   2
loop_
 _symmetry_equiv_pos_site_id
 _symmetry_equiv_pos_as_xyz
  1  'x, y, z'
loop_
 _atom_site_type_symbol
 _atom_site_label
 _atom_site_symmetry_multiplicity
 _atom_site_fract_x
 _atom_site_fract_y
 _atom_site_fract_z
 _atom_site_occupancy
  Mn  Mn0  1  0.17217300  0.34434500  0.25000000  1
  Mn  Mn1  1  0.65565500  0.82782700  0.25000000  1
  Mn  Mn2  1  0.17217300  0.82782700  0.25000000  1
  Mn  Mn3  1  0.82782700  0.65565500  0.75000000  1
  Mn  Mn4  1  0.34434500  0.17217300  0.75000000  1
  Mn  Mn5  1  0.82782700  0.17217300  0.75000000  1
  Be  Be0  1  0.33333300  0.66666700  0.75000000  1
  Be  Be1  1  0.66666700  0.33333300  0.25000000  1
loop_
_geom_bond_atom_site_label_1
_geom_bond_atom_site_label_2
_geom_bond_distance
_geom_bond_site_symmetry_2
Mn0 Mn1 2.316251 1_555
Mn0 Mn2 2.316251 1_555
Mn0 Mn4 2.471449 1_554
Mn0 Mn4 2.471449 1_555
Mn0 Mn5 2.471453 1_455
Mn0 Mn5 2.471453 1_454
Mn0 Mn1 2.474519 1_445
Mn0 Mn2 2.474519 1_545
Mn1 Mn2 2.316251 1_555
Mn1 Mn3 2.471449 1_554
Mn1 Mn3 2.471449 1_555
Mn1 Mn5 2.471453 1_564
Mn1 Mn5 2.471453 1_565
Mn1 Mn2 2.474519 1_655
Mn2 Mn4 2.471453 1_564
Mn2 Mn3 2.471453 1_454
Mn2 Mn3 2.471453 1_455
Mn2 Mn4 2.471453 1_565
Mn3 Mn4 2.316251 1_555
Mn3 Mn5 2.316251 1_555
Mn3 Mn4 2.474519 1_665
Mn3 Mn5 2.474519 1_565
Mn4 Mn5 2.316251 1_555
Mn4 Mn5 2.474519 1_455
Be0 Mn5 2.395821 1_565
Be0 Mn5 2.395821 1_455
Be0 Mn3 2.395821 1_455
Be0 Mn4 2.395821 1_565
Be0 Mn4 2.395821 1_555
Be0 Mn3 2.395821 1_555
Be0 Mn2 2.419776 1_555
Be0 Mn2 2.419776 1_556
Be0 Mn1 2.419781 1_556
Be0 Mn1 2.419781 1_555
Be0 Mn0 2.419781 1_555
Be0 Mn0 2.419781 1_556
Be1 Mn2 2.395821 1_655
Be1 Mn2 2.395821 1_545
Be1 Mn1 2.395821 1_545
Be1 Mn0 2.395821 1_655
Be1 Mn0 2.395821 1_555
Be1 Mn1 2.395821 1_555
Be1 Mn5 2.419776 1_555
Be1 Mn5 2.419776 1_554
Be1 Mn3 2.419781 1_555
Be1 Mn3 2.419781 1_554
Be1 Mn4 2.419781 1_554
Be1 Mn4 2.419781 1_555
