# generated using pymatgen
data_Ba2Si5N8
_symmetry_space_group_name_H-M   'P 1'
_cell_length_a   5.79253309
_cell_length_b   6.98324848
_cell_length_c   9.39654482
_cell_angle_alpha   90.00000000
_cell_angle_beta   90.00000000
_cell_angle_gamma   90.00000000
_symmetry_Int_Tables_number   1
_chemical_formula_structural   Ba2Si5N8
_chemical_formula_sum   'Ba4 Si10 N16'
_cell_volume   380.09679578
_cell_formula_units_Z   2
loop_
 _symmetry_equiv_pos_site_id
 _symmetry_equiv_pos_as_xyz
  1  'x, y, z'
loop_
 _atom_site_type_symbol
 _atom_site_label
 _atom_site_symmetry_multiplicity
 _atom_site_fract_x
 _atom_site_fract_y
 _atom_site_fract_z
 _atom_site_occupancy
  Ba  Ba0  1  0.50000000  0.12141130  0.13201393  1
  Ba  Ba1  1  -0.00000000  0.87858870  0.63201393  1
  Ba  Ba2  1  0.50000000  0.14554932  0.50010857  1
  Ba  Ba3  1  -0.00000000  0.85445068  0.00010857  1
  Si  Si0  1  0.50000000  0.60016597  0.60362311  1
  Si  Si1  1  -0.00000000  0.39983403  0.10362311  1
  Si  Si2  1  0.50000000  0.58047676  0.03933538  1
  Si  Si3  1  -0.00000000  0.41952324  0.53933538  1
  Si  Si4  1  0.50000000  0.94757078  0.82242815  1
  Si  Si5  1  -0.00000000  0.05242922  0.32242815  1
  Si  Si6  1  0.75062982  0.33622924  0.82089716  1
  Si  Si7  1  0.74937018  0.66377076  0.32089716  1
  Si  Si8  1  0.24937018  0.33622924  0.82089716  1
  Si  Si9  1  0.25062982  0.66377076  0.32089716  1
  N  N0  1  0.50000000  0.58210677  0.22951180  1
  N  N1  1  -0.00000000  0.41789323  0.72951180  1
  N  N2  1  0.50000000  0.82349037  0.66541073  1
  N  N3  1  -0.00000000  0.17650963  0.16541073  1
  N  N4  1  0.50000000  0.42409452  0.73562433  1
  N  N5  1  -0.00000000  0.57590548  0.23562433  1
  N  N6  1  0.74676242  0.55386872  0.49330511  1
  N  N7  1  0.75323758  0.44613128  0.99330511  1
  N  N8  1  0.25323758  0.55386872  0.49330511  1
  N  N9  1  0.24676242  0.44613128  0.99330511  1
  N  N10  1  0.73731470  0.09535637  0.83021630  1
  N  N11  1  0.76268530  0.90464363  0.33021630  1
  N  N12  1  0.26268530  0.09535637  0.83021630  1
  N  N13  1  0.23731470  0.90464363  0.33021630  1
  N  N14  1  -0.00000000  0.19932021  0.47014986  1
  N  N15  1  0.50000000  0.80067979  0.97014986  1
loop_
_geom_bond_atom_site_label_1
_geom_bond_atom_site_label_2
_geom_bond_distance
_geom_bond_site_symmetry_2
Ba0 N15 2.707360 1_544
Ba0 N13 2.841711 1_545
Ba0 N11 2.841711 1_545
Ba0 N3 2.938517 1_655
Ba0 N3 2.938517 1_555
Ba0 N9 2.998763 1_554
Ba0 N7 2.998763 1_554
Ba0 N12 3.156715 1_554
Ba0 N10 3.156715 1_554
Ba0 N0 3.345053 1_555
Ba1 N14 2.707360 1_565
Ba1 N12 2.841711 1_565
Ba1 N10 2.841711 1_465
Ba1 N2 2.938517 1_455
Ba1 N2 2.938517 1_555
Ba1 N6 2.998763 1_455
Ba1 N8 2.998763 1_555
Ba1 N13 3.156715 1_555
Ba1 N11 3.156715 1_455
Ba1 N1 3.345053 1_555
Ba2 N2 2.733263 1_545
Ba2 N13 2.773797 1_545
Ba2 N11 2.773797 1_545
Ba2 N14 2.934042 1_555
Ba2 N14 2.934042 1_655
Ba2 N4 2.946376 1_555
Ba3 N3 2.733263 1_565
Ba3 N10 2.773797 1_464
Ba3 N12 2.773797 1_564
Ba3 N15 2.934042 1_554
Ba3 N15 2.934042 1_454
Ba3 N5 2.946376 1_555
N0 Si7 1.774580 1_555
N0 Si9 1.774580 1_555
N0 Si2 1.787038 1_555
N1 Si6 1.774580 1_455
N1 Si8 1.774580 1_555
N1 Si3 1.787038 1_555
N2 Si0 1.664097 1_555
N2 Si4 1.711041 1_555
N3 Si1 1.664097 1_555
N3 Si5 1.711041 1_555
N4 Si0 1.746504 1_555
N4 Si8 1.768103 1_555
N4 Si6 1.768103 1_555
N5 Si1 1.746504 1_555
N5 Si7 1.768103 1_455
N5 Si9 1.768103 1_555
N6 Si7 1.792699 1_555
N6 Si3 1.794156 1_655
N6 Si0 1.795051 1_555
N7 Si6 1.792699 1_555
N7 Si2 1.794156 1_556
N7 Si1 1.795051 1_656
N8 Si9 1.792699 1_555
N8 Si3 1.794156 1_555
N8 Si0 1.795051 1_555
N9 Si8 1.792699 1_555
N9 Si2 1.794156 1_556
N9 Si1 1.795051 1_556
N10 Si6 1.686118 1_555
N10 Si4 1.720494 1_545
N11 Si7 1.686118 1_555
N11 Si5 1.720494 1_665
N12 Si8 1.686118 1_555
N12 Si4 1.720494 1_545
N13 Si9 1.686118 1_555
N13 Si5 1.720494 1_565
N14 Si3 1.669508 1_555
N14 Si5 1.725968 1_555
N15 Si2 1.669508 1_556
N15 Si4 1.725968 1_555
