# generated using pymatgen
data_NiGe3
_symmetry_space_group_name_H-M   'P 1'
_cell_length_a   4.82367308
_cell_length_b   4.82367308
_cell_length_c   4.82367308
_cell_angle_alpha   129.60173565
_cell_angle_beta   129.60173565
_cell_angle_gamma   74.04426326
_symmetry_Int_Tables_number   1
_chemical_formula_structural   NiGe3
_chemical_formula_sum   'Ni1 Ge3'
_cell_volume   64.97658104
_cell_formula_units_Z   1
loop_
 _symmetry_equiv_pos_site_id
 _symmetry_equiv_pos_as_xyz
  1  'x, y, z'
loop_
 _atom_site_type_symbol
 _atom_site_label
 _atom_site_symmetry_multiplicity
 _atom_site_fract_x
 _atom_site_fract_y
 _atom_site_fract_z
 _atom_site_occupancy
  Ni  Ni0  1  0.00000000  0.00000000  0.00000000  1
  Ge  Ge0  1  0.75000000  0.25000000  0.50000000  1
  Ge  Ge1  1  0.25000000  0.75000000  0.50000000  1
  Ge  Ge2  1  0.50000000  0.50000000  0.00000000  1
loop_
_geom_bond_atom_site_label_1
_geom_bond_atom_site_label_2
_geom_bond_distance
_geom_bond_site_symmetry_2
Ge0 Ni0 2.815299 1_656
Ge0 Ge2 2.815299 1_545
Ge0 Ge2 2.815299 1_555
Ge0 Ni0 2.815299 1_655
Ge0 Ni0 2.815299 1_666
Ge0 Ge2 2.815299 1_556
Ge0 Ge2 2.815299 1_656
Ge0 Ni0 2.815299 1_555
Ge0 Ge1 2.904447 1_555
Ge0 Ge1 2.904447 1_645
Ge0 Ge1 2.904447 1_544
Ge0 Ge1 2.904447 1_656
Ge1 Ni0 2.815299 1_555
Ge1 Ge2 2.815299 1_555
Ge1 Ni0 2.815299 1_565
Ge1 Ni0 2.815299 1_566
Ge1 Ge2 2.815299 1_556
Ge1 Ge2 2.815299 1_566
Ge1 Ni0 2.815299 1_666
Ge1 Ge2 2.815299 1_455
Ge2 Ni0 2.904447 1_565
Ge2 Ni0 2.904447 1_666
Ge2 Ni0 2.904447 1_655
Ge2 Ni0 2.904447 1_554
