# generated using pymatgen
data_NaVS2
_symmetry_space_group_name_H-M   'P 1'
_cell_length_a   3.54919386
_cell_length_b   3.54919386
_cell_length_c   6.68804700
_cell_angle_alpha   90.00000000
_cell_angle_beta   90.00000000
_cell_angle_gamma   119.99999730
_symmetry_Int_Tables_number   1
_chemical_formula_structural   NaVS2
_chemical_formula_sum   'Na1 V1 S2'
_cell_volume   72.96076885
_cell_formula_units_Z   1
loop_
 _symmetry_equiv_pos_site_id
 _symmetry_equiv_pos_as_xyz
  1  'x, y, z'
loop_
 _atom_site_type_symbol
 _atom_site_label
 _atom_site_symmetry_multiplicity
 _atom_site_fract_x
 _atom_site_fract_y
 _atom_site_fract_z
 _atom_site_occupancy
  Na  Na0  1  0.00000000  0.00000000  0.50000000  1
  V  V0  1  0.00000000  0.00000000  0.00000000  1
  S  S0  1  0.66666700  0.33333300  0.79795800  1
  S  S1  1  0.33333300  0.66666700  0.20204200  1
loop_
_geom_bond_atom_site_label_1
_geom_bond_atom_site_label_2
_geom_bond_distance
_geom_bond_site_symmetry_2
Na0 S0 2.858321 1_455
Na0 S1 2.858321 1_545
Na0 S0 2.858323 1_445
Na0 S0 2.858323 1_555
Na0 S1 2.858323 1_555
Na0 S1 2.858323 1_445
S0 V0 2.454555 1_656
S0 V0 2.454557 1_666
S0 V0 2.454557 1_556
S1 V0 2.454555 1_565
S1 V0 2.454557 1_555
S1 V0 2.454557 1_665
