# generated using pymatgen
data_Y4C7
_symmetry_space_group_name_H-M   'P 1'
_cell_length_a   3.71004100
_cell_length_b   6.46705032
_cell_length_c   13.71196223
_cell_angle_alpha   90.00000000
_cell_angle_beta   90.00000000
_cell_angle_gamma   104.63582494
_symmetry_Int_Tables_number   1
_chemical_formula_structural   Y4C7
_chemical_formula_sum   'Y8 C14'
_cell_volume   318.31608867
_cell_formula_units_Z   2
loop_
 _symmetry_equiv_pos_site_id
 _symmetry_equiv_pos_as_xyz
  1  'x, y, z'
loop_
 _atom_site_type_symbol
 _atom_site_label
 _atom_site_symmetry_multiplicity
 _atom_site_fract_x
 _atom_site_fract_y
 _atom_site_fract_z
 _atom_site_occupancy
  Y  Y0  1  0.63295090  0.26032912  0.94460989  1
  Y  Y1  1  0.36704910  0.23967088  0.44460989  1
  Y  Y2  1  0.36704910  0.73967088  0.05539011  1
  Y  Y3  1  0.63295090  0.76032912  0.55539011  1
  Y  Y4  1  0.94502033  0.33934112  0.66296914  1
  Y  Y5  1  0.05498067  0.16065888  0.16296914  1
  Y  Y6  1  0.05498067  0.66065888  0.33703086  1
  Y  Y7  1  0.94502033  0.83934112  0.83703086  1
  C  C0  1  0.00000000  0.50000000  0.50000000  1
  C  C1  1  0.00000000  -0.00000000  0.00000000  1
  C  C2  1  0.53204313  0.07631564  0.78394586  1
  C  C3  1  0.46795687  0.42368436  0.28394586  1
  C  C4  1  0.46795687  0.92368436  0.21605414  1
  C  C5  1  0.53204313  0.57631564  0.71605414  1
  C  C6  1  0.62015320  0.45299005  0.19645151  1
  C  C7  1  0.37984680  0.04700995  0.69645151  1
  C  C8  1  0.73287751  0.95057831  0.39527599  1
  C  C9  1  0.26712249  0.54942169  0.89527599  1
  C  C10  1  0.26712249  0.04942169  0.60472401  1
  C  C11  1  0.73287751  0.45057831  0.10472401  1
  C  C12  1  0.62015320  0.95299005  0.30354849  1
  C  C13  1  0.37984680  0.54700995  0.80354849  1
loop_
_geom_bond_atom_site_label_1
_geom_bond_atom_site_label_2
_geom_bond_distance
_geom_bond_site_symmetry_2
C0 Y6 2.451033 1_555
C0 Y4 2.451033 1_455
C0 Y1 2.534603 1_555
C0 Y3 2.534603 1_455
C0 Y3 2.632060 1_555
C0 Y1 2.632060 1_455
C1 Y5 2.451033 1_555
C1 Y7 2.451033 1_444
C1 Y2 2.534603 1_545
C1 Y0 2.534603 1_454
C1 Y0 2.632060 1_554
C1 Y2 2.632060 1_445
C2 C7 1.319091 1_555
C2 Y7 2.436175 1_445
C2 Y0 2.486859 1_555
C2 Y7 2.532310 1_545
C2 Y4 2.583716 1_555
C3 C6 1.319091 1_555
C3 Y6 2.436178 1_655
C3 Y1 2.486859 1_555
C3 Y6 2.532307 1_555
C3 Y5 2.583714 1_555
C4 Y5 2.436178 1_665
C4 Y2 2.486859 1_555
C4 Y5 2.532307 1_565
C4 Y6 2.583714 1_555
C5 Y4 2.436175 1_455
C5 Y3 2.486859 1_555
C5 Y4 2.532310 1_555
C5 Y7 2.583716 1_555
C6 Y5 2.485606 1_555
C6 Y6 2.650850 1_655
C6 Y5 2.815774 1_655
C6 Y2 2.989988 1_555
C7 Y4 2.485608 1_555
C7 Y7 2.650848 1_445
C7 Y4 2.815772 1_455
C7 Y3 2.989988 1_545
C8 Y3 2.498165 1_555
C8 Y6 2.591046 1_655
C8 Y1 2.660323 1_565
C8 Y1 2.695496 1_665
C8 Y6 2.845273 1_555
C9 Y2 2.498165 1_556
C9 Y7 2.591043 1_455
C9 Y0 2.660323 1_555
C9 Y0 2.695496 1_455
C9 Y7 2.845275 1_555
C10 C7 1.326805 1_555
C10 Y1 2.498165 1_555
C10 Y4 2.591043 1_455
C10 Y3 2.660323 1_545
C10 Y3 2.695496 1_445
C10 Y4 2.845275 1_555
C11 C6 1.326805 1_555
C11 Y0 2.498165 1_554
C11 Y5 2.591046 1_655
C11 Y2 2.660323 1_555
C11 Y2 2.695496 1_655
C11 Y5 2.845273 1_555
C12 C4 1.319091 1_555
C12 C8 1.326805 1_555
C12 Y6 2.485606 1_555
C12 Y5 2.650850 1_665
C12 Y6 2.815774 1_655
C12 Y1 2.989988 1_565
C13 C5 1.319091 1_555
C13 C9 1.326805 1_555
C13 Y7 2.485608 1_555
C13 Y4 2.650848 1_455
C13 Y7 2.815772 1_455
C13 Y0 2.989988 1_555
