# generated using pymatgen
data_Pb3I2(Cl2O3)2
_symmetry_space_group_name_H-M   'P 1'
_cell_length_a   8.71964746
_cell_length_b   8.71964746
_cell_length_c   12.19578929
_cell_angle_alpha   64.84131125
_cell_angle_beta   64.84131125
_cell_angle_gamma   51.23884703
_symmetry_Int_Tables_number   1
_chemical_formula_structural   Pb3I2(Cl2O3)2
_chemical_formula_sum   'Pb6 I4 Cl8 O12'
_cell_volume   637.64376091
_cell_formula_units_Z   2
loop_
 _symmetry_equiv_pos_site_id
 _symmetry_equiv_pos_as_xyz
  1  'x, y, z'
loop_
 _atom_site_type_symbol
 _atom_site_label
 _atom_site_symmetry_multiplicity
 _atom_site_fract_x
 _atom_site_fract_y
 _atom_site_fract_z
 _atom_site_occupancy
  Pb  Pb0  1  0.16796300  0.83203700  0.75000000  1
  Pb  Pb1  1  0.83203700  0.16796300  0.25000000  1
  Pb  Pb2  1  0.05566300  0.34302100  0.82473600  1
  Pb  Pb3  1  0.65697900  0.94433700  0.67526400  1
  Pb  Pb4  1  0.94433700  0.65697900  0.17526400  1
  Pb  Pb5  1  0.34302100  0.05566300  0.32473600  1
  I  I0  1  0.66473200  0.23283400  0.97293200  1
  I  I1  1  0.76716600  0.33526800  0.52706800  1
  I  I2  1  0.33526800  0.76716600  0.02706800  1
  I  I3  1  0.23283400  0.66473200  0.47293200  1
  Cl  Cl0  1  0.67416400  0.57548900  0.72921800  1
  Cl  Cl1  1  0.42451100  0.32583600  0.77078200  1
  Cl  Cl2  1  0.32583600  0.42451100  0.27078200  1
  Cl  Cl3  1  0.57548900  0.67416400  0.22921800  1
  Cl  Cl4  1  0.25778900  0.15001300  0.61007700  1
  Cl  Cl5  1  0.84998700  0.74221100  0.88992300  1
  Cl  Cl6  1  0.74221100  0.84998700  0.38992300  1
  Cl  Cl7  1  0.15001300  0.25778900  0.11007700  1
  O  O0  1  0.91856700  0.09204000  0.87850400  1
  O  O1  1  0.90796000  0.08143300  0.62149600  1
  O  O2  1  0.08143300  0.90796000  0.12149600  1
  O  O3  1  0.09204000  0.91856700  0.37850400  1
  O  O4  1  0.33340800  0.96198300  0.88425800  1
  O  O5  1  0.03801700  0.66659200  0.61574200  1
  O  O6  1  0.66659200  0.03801700  0.11574200  1
  O  O7  1  0.96198300  0.33340800  0.38425800  1
  O  O8  1  0.27699100  0.63964500  0.97647800  1
  O  O9  1  0.36035500  0.72300900  0.52352200  1
  O  O10  1  0.72300900  0.36035500  0.02352200  1
  O  O11  1  0.63964500  0.27699100  0.47647800  1
loop_
_geom_bond_atom_site_label_1
_geom_bond_atom_site_label_2
_geom_bond_distance
_geom_bond_site_symmetry_2
I0 O0 1.834329 1_555
I0 O6 1.842099 1_556
I0 O10 1.852755 1_556
I1 O1 1.834329 1_555
I1 O7 1.842099 1_555
I1 O11 1.852755 1_555
I2 O2 1.834329 1_555
I2 O4 1.842099 1_554
I2 O8 1.852755 1_554
I3 O3 1.834329 1_555
I3 O5 1.842099 1_555
I3 O9 1.852755 1_555
Cl0 Pb3 2.912130 1_555
Cl0 Pb2 3.061962 1_655
Cl1 Pb2 2.912130 1_555
Cl1 Pb3 3.061962 1_545
Cl2 Pb5 2.912130 1_555
Cl2 Pb4 3.061962 1_455
Cl3 Pb4 2.912130 1_555
Cl3 Pb5 3.061962 1_565
Cl4 Pb0 2.961917 1_545
Cl4 Pb2 2.983485 1_555
Cl4 Pb3 3.047677 1_545
Cl5 Pb0 2.961917 1_655
Cl5 Pb3 2.983485 1_555
Cl5 Pb2 3.047677 1_655
Cl6 Pb1 2.961917 1_565
Cl6 Pb4 2.983485 1_555
Cl6 Pb5 3.047677 1_565
Cl7 Pb1 2.961917 1_455
Cl7 Pb5 2.983485 1_555
Cl7 Pb4 3.047677 1_455
O0 Pb0 2.504994 1_645
O0 Pb2 2.835061 1_655
O1 Pb0 2.504994 1_645
O1 Pb3 2.835061 1_545
O2 Pb1 2.504994 1_465
O2 Pb4 2.835061 1_455
O3 Pb1 2.504994 1_465
O3 Pb5 2.835061 1_565
O4 Pb2 2.607664 1_565
O4 Pb3 2.855889 1_555
O5 Pb3 2.607664 1_455
O5 Pb2 2.855889 1_555
O6 Pb4 2.607664 1_545
O6 Pb5 2.855889 1_555
O7 Pb5 2.607664 1_655
O7 Pb4 2.855889 1_555
O8 Pb0 2.764610 1_555
O8 Pb4 2.845602 1_456
O9 Pb0 2.764610 1_555
O9 Pb5 2.845602 1_565
O10 Pb1 2.764610 1_555
O10 Pb2 2.845602 1_654
O11 Pb1 2.764610 1_555
O11 Pb3 2.845602 1_545
