# generated using pymatgen
data_Sm4In21Pd10
_symmetry_space_group_name_H-M   'P 1'
_cell_length_a   4.53076100
_cell_length_b   11.89594458
_cell_length_c   14.64793420
_cell_angle_alpha   95.21695583
_cell_angle_beta   98.89680669
_cell_angle_gamma   100.97805753
_symmetry_Int_Tables_number   1
_chemical_formula_structural   Sm4In21Pd10
_chemical_formula_sum   'Sm4 In21 Pd10'
_cell_volume   759.79650152
_cell_formula_units_Z   1
loop_
 _symmetry_equiv_pos_site_id
 _symmetry_equiv_pos_as_xyz
  1  'x, y, z'
loop_
 _atom_site_type_symbol
 _atom_site_label
 _atom_site_symmetry_multiplicity
 _atom_site_fract_x
 _atom_site_fract_y
 _atom_site_fract_z
 _atom_site_occupancy
  Sm  Sm0  1  0.08637500  0.13512800  0.67506100  1
  Sm  Sm1  1  0.70737400  0.41194700  0.16579000  1
  Sm  Sm2  1  0.28511100  0.58805300  0.83421000  1
  Sm  Sm3  1  0.89656400  0.86487200  0.32493900  1
  In  In0  1  0.67202800  0.78844300  0.86741600  1
  In  In1  1  0.31622300  0.22011800  0.13238800  1
  In  In2  1  0.40244900  0.97674800  0.20399900  1
  In  In3  1  0.23674000  0.83245900  0.70238600  1
  In  In4  1  0.88834100  0.70791000  0.50471200  1
  In  In5  1  0.30352500  0.90030700  0.49578300  1
  In  In6  1  0.06088500  0.56442000  0.29951400  1
  In  In7  1  0.77158500  0.16754100  0.29761400  1
  In  In8  1  0.57937300  0.43438400  0.40433600  1
  In  In9  1  0.69961500  0.09969300  0.50421700  1
  In  In10  1  0.92481900  0.43558000  0.70048600  1
  In  In11  1  0.49523500  0.00000000  0.00000000  1
  In  In12  1  0.45257300  0.29355100  0.79404700  1
  In  In13  1  0.69512400  0.60338700  0.00211600  1
  In  In14  1  0.57581900  0.03448000  0.79834800  1
  In  In15  1  0.10096200  0.29209000  0.49528800  1
  In  In16  1  0.29275700  0.40738200  0.00045700  1
  In  In17  1  0.54017000  0.70644900  0.20595300  1
  In  In18  1  0.92279100  0.18107100  0.94945300  1
  In  In19  1  0.41765200  0.57707500  0.59423400  1
  In  In20  1  0.05875100  0.82755200  0.05306300  1
  Pd  Pd0  1  0.82235500  0.67883900  0.68982400  1
  Pd  Pd1  1  0.25682000  0.08285900  0.38502200  1
  Pd  Pd2  1  0.73436200  0.92634600  0.61539600  1
  Pd  Pd3  1  0.52312400  0.33517100  0.60616400  1
  Pd  Pd4  1  0.12813100  0.61984000  0.11375800  1
  Pd  Pd5  1  0.90988400  0.06593900  0.11109500  1
  Pd  Pd6  1  0.85992100  0.38974800  0.88764800  1
  Pd  Pd7  1  0.45615600  0.67579200  0.39415500  1
  Pd  Pd8  1  0.08691800  0.93406100  0.88890500  1
  Pd  Pd9  1  0.19101800  0.32116100  0.31017600  1
loop_
_geom_bond_atom_site_label_1
_geom_bond_atom_site_label_2
_geom_bond_distance
_geom_bond_site_symmetry_2
In0 Pd8 2.260746 1_655
In0 Sm2 2.631753 1_555
In0 In20 2.943977 1_656
In0 Pd0 3.033216 1_555
In1 Pd5 2.298458 1_455
In1 Sm1 2.564382 1_555
In1 In18 2.924799 1_454
In1 Pd9 2.948897 1_555
In2 In7 2.666043 1_565
In2 In20 2.762585 1_555
In2 Pd5 2.860621 1_465
In2 Pd5 2.926538 1_565
In2 Pd1 3.051141 1_565
In2 Sm3 3.202838 1_555
In2 Sm3 3.268922 1_455
In3 Pd0 2.328866 1_455
In4 Pd7 2.285715 1_555
In4 In5 2.699030 1_655
In5 Pd2 2.364162 1_555
In5 In9 2.668072 1_565
In5 Sm3 2.815123 1_455
In5 Pd1 2.846498 1_565
In5 Pd7 3.182196 1_555
In5 Pd2 3.379158 1_455
In6 Pd7 2.208789 1_555
In6 Sm1 2.639907 1_455
In7 Pd9 2.343672 1_655
In7 Pd1 2.773953 1_655
In7 Pd1 2.890841 1_555
In8 Pd9 2.195756 1_555
In9 Pd1 2.411074 1_555
In9 Pd2 2.753971 1_545
In9 Sm0 2.771519 1_655
In9 Pd1 3.309719 1_655
In9 Pd3 3.343363 1_555
In10 Pd3 2.177638 1_555
In10 Sm2 2.651157 1_655
In11 Pd8 2.229324 1_544
In11 Pd5 2.248076 1_555
In11 In20 2.818457 1_545
In11 In18 2.843410 1_554
In12 Pd6 2.173286 1_555
In12 Sm0 2.580601 1_555
In12 Pd3 2.894991 1_555
In13 Pd4 2.316172 1_655
In13 Sm2 2.812362 1_554
In13 In20 2.822549 1_655
In14 In3 2.724534 1_545
In14 In18 2.754825 1_555
In14 Pd8 2.877912 1_545
In14 Pd8 2.990066 1_645
In14 Pd2 3.110119 1_545
In14 Sm0 3.126996 1_555
In14 Sm0 3.267448 1_655
In15 Pd3 2.252393 1_555
In15 In9 2.665511 1_455
In15 Pd1 3.097365 1_555
In16 Pd6 2.323417 1_454
In16 Sm1 2.815480 1_555
In16 In18 2.853750 1_454
In17 Pd4 2.145926 1_555
In17 Sm3 2.563183 1_555
In18 Pd6 2.767912 1_555
In18 Pd5 2.843833 1_556
In18 Pd8 3.245943 1_645
In19 Pd0 2.200087 1_555
In20 Pd4 2.757465 1_555
In20 Pd8 2.826836 1_554
In20 Pd5 3.112385 1_465
Pd0 Sm2 3.153016 1_655
Pd1 Sm3 2.773410 1_445
Pd2 Sm0 2.672358 1_665
Pd3 Sm0 3.139758 1_555
Pd4 Sm1 3.054140 1_455
Pd6 Sm2 2.993364 1_655
Pd7 Sm3 3.065917 1_555
Pd9 Sm1 3.213149 1_455
