# generated using pymatgen
data_Gd3MnB7
_symmetry_space_group_name_H-M   'P 1'
_cell_length_a   8.13922099
_cell_length_b   8.13922099
_cell_length_c   9.37076200
_cell_angle_alpha   90.00000000
_cell_angle_beta   90.00000000
_cell_angle_gamma   24.45961935
_symmetry_Int_Tables_number   1
_chemical_formula_structural   Gd3MnB7
_chemical_formula_sum   'Gd6 Mn2 B14'
_cell_volume   257.03678944
_cell_formula_units_Z   2
loop_
 _symmetry_equiv_pos_site_id
 _symmetry_equiv_pos_as_xyz
  1  'x, y, z'
loop_
 _atom_site_type_symbol
 _atom_site_label
 _atom_site_symmetry_multiplicity
 _atom_site_fract_x
 _atom_site_fract_y
 _atom_site_fract_z
 _atom_site_occupancy
  Gd  Gd0  1  0.10422500  0.10422500  0.06140500  1
  Gd  Gd1  1  0.89577400  0.89577400  0.56140500  1
  Gd  Gd2  1  0.89577400  0.89577400  0.93859500  1
  Gd  Gd3  1  0.10422500  0.10422500  0.43859400  1
  Gd  Gd4  1  0.75852900  0.75852900  0.25000000  1
  Gd  Gd5  1  0.24147100  0.24147100  0.75000100  1
  Mn  Mn0  1  0.94589800  0.94589800  0.25000000  1
  Mn  Mn1  1  0.05410200  0.05410200  0.75000100  1
  B  B0  1  0.53775800  0.53775800  0.25000000  1
  B  B1  1  0.46224200  0.46224200  0.75000100  1
  B  B2  1  0.27291500  0.27291500  0.03098400  1
  B  B3  1  0.72708400  0.72708400  0.53098300  1
  B  B4  1  0.72708400  0.72708400  0.96901700  1
  B  B5  1  0.27291500  0.27291500  0.46901800  1
  B  B6  1  0.36997900  0.36997900  0.34686000  1
  B  B7  1  0.63002100  0.63002100  0.84686100  1
  B  B8  1  0.63002100  0.63002100  0.65314000  1
  B  B9  1  0.36997900  0.36997900  0.15313900  1
  B  B10  1  0.47723400  0.47723400  0.40127200  1
  B  B11  1  0.52276600  0.52276600  0.90127200  1
  B  B12  1  0.52276600  0.52276600  0.59872900  1
  B  B13  1  0.47723400  0.47723400  0.09872900  1
loop_
_geom_bond_atom_site_label_1
_geom_bond_atom_site_label_2
_geom_bond_distance
_geom_bond_site_symmetry_2
B0 B13 1.713624 1_555
B0 B10 1.713632 1_555
B0 Mn0 2.260181 1_455
B0 Mn0 2.260181 1_545
B0 Gd3 2.685909 1_565
B0 Gd3 2.685909 1_655
B0 Gd0 2.685916 1_655
B0 Gd0 2.685916 1_565
B1 B11 1.713624 1_555
B1 B12 1.713632 1_555
B1 Mn1 2.260181 1_655
B1 Mn1 2.260181 1_565
B1 Gd2 2.685916 1_545
B1 Gd2 2.685916 1_455
B1 Gd1 2.685928 1_545
B1 Gd1 2.685928 1_455
B2 B9 1.922196 1_555
B2 B4 1.959983 1_544
B2 B4 1.959983 1_454
B2 Gd5 2.680124 1_554
B2 Gd4 2.690210 1_455
B2 Gd4 2.690210 1_545
B2 Gd0 2.698790 1_555
B2 Gd2 2.746376 1_544
B2 Gd2 2.746376 1_454
B3 B8 1.922194 1_555
B3 B5 1.959977 1_565
B3 B5 1.959977 1_655
B3 Gd4 2.680127 1_555
B3 Gd5 2.690225 1_565
B3 Gd5 2.690225 1_655
B3 Gd1 2.698791 1_555
B3 Gd3 2.746376 1_565
B3 Gd3 2.746376 1_655
B4 B7 1.922188 1_555
B4 Gd4 2.680127 1_556
B4 Gd5 2.690211 1_565
B4 Gd5 2.690211 1_655
B4 Gd2 2.698791 1_555
B4 Gd0 2.746373 1_566
B4 Gd0 2.746373 1_656
B5 B6 1.922212 1_555
B5 Gd5 2.680124 1_555
B5 Gd4 2.690224 1_455
B5 Gd4 2.690224 1_545
B5 Gd3 2.698793 1_555
B5 Gd1 2.746370 1_545
B5 Gd1 2.746370 1_455
B6 B9 1.815313 1_555
B6 Mn0 2.292450 1_545
B6 Mn0 2.292450 1_455
B6 Gd4 2.634444 1_455
B6 Gd4 2.634444 1_545
B6 Gd1 2.680119 1_455
B6 Gd1 2.680119 1_545
B7 B8 1.815313 1_555
B7 Mn1 2.292450 1_655
B7 Mn1 2.292450 1_565
B7 Gd5 2.634444 1_565
B7 Gd5 2.634444 1_655
B7 Gd0 2.680114 1_566
B7 Gd0 2.680114 1_656
B8 Mn1 2.292453 1_655
B8 Mn1 2.292453 1_565
B8 Gd5 2.634447 1_565
B8 Gd5 2.634447 1_655
B8 Gd3 2.680128 1_565
B8 Gd3 2.680128 1_655
B9 Mn0 2.292453 1_455
B9 Mn0 2.292453 1_545
B9 Gd4 2.634447 1_545
B9 Gd4 2.634447 1_455
B9 Gd2 2.680112 1_454
B9 Gd2 2.680112 1_544
B10 B6 1.780874 1_555
B10 B12 1.987059 1_555
B10 Mn0 2.287061 1_545
B10 Mn0 2.287061 1_455
B10 Gd1 2.627529 1_455
B10 Gd1 2.627529 1_545
B10 Gd3 2.678928 1_655
B10 Gd3 2.678928 1_565
B11 B7 1.780871 1_555
B11 B13 1.987059 1_556
B11 Mn1 2.287056 1_655
B11 Mn1 2.287056 1_565
B11 Gd0 2.627521 1_566
B11 Gd0 2.627521 1_656
B11 Gd2 2.678941 1_545
B11 Gd2 2.678941 1_455
B12 B8 1.780871 1_555
B12 Mn1 2.287061 1_655
B12 Mn1 2.287061 1_565
B12 Gd3 2.627532 1_565
B12 Gd3 2.627532 1_655
B12 Gd1 2.678942 1_455
B12 Gd1 2.678942 1_545
B13 B9 1.780869 1_555
B13 Mn0 2.287056 1_455
B13 Mn0 2.287056 1_545
B13 Gd2 2.627534 1_454
B13 Gd2 2.627534 1_544
B13 Gd0 2.678930 1_565
B13 Gd0 2.678930 1_655
