# generated using pymatgen
data_Na(Mg4Al3)4
_symmetry_space_group_name_H-M   'P 1'
_cell_length_a   9.13646715
_cell_length_b   9.13646715
_cell_length_c   9.17227127
_cell_angle_alpha   70.49136397
_cell_angle_beta   70.49136397
_cell_angle_gamma   109.07995971
_symmetry_Int_Tables_number   1
_chemical_formula_structural   Na(Mg4Al3)4
_chemical_formula_sum   'Na1 Mg16 Al12'
_cell_volume   591.68422625
_cell_formula_units_Z   1
loop_
 _symmetry_equiv_pos_site_id
 _symmetry_equiv_pos_as_xyz
  1  'x, y, z'
loop_
 _atom_site_type_symbol
 _atom_site_label
 _atom_site_symmetry_multiplicity
 _atom_site_fract_x
 _atom_site_fract_y
 _atom_site_fract_z
 _atom_site_occupancy
  Na  Na0  1  0.40429500  0.40429500  0.27972300  1
  Mg  Mg0  1  0.68431400  0.68431400  0.71397800  1
  Mg  Mg1  1  0.00136300  0.00136300  0.99938300  1
  Mg  Mg2  1  0.66125600  0.66125600  0.34157200  1
  Mg  Mg3  1  0.00076100  0.00076100  0.65653900  1
  Mg  Mg4  1  0.31590000  0.60463300  0.99771800  1
  Mg  Mg5  1  0.39802300  0.71258700  0.60194100  1
  Mg  Mg6  1  0.99952900  0.31476200  0.39782900  1
  Mg  Mg7  1  0.99987200  0.34444400  0.99973900  1
  Mg  Mg8  1  0.60224700  0.00026300  0.68388900  1
  Mg  Mg9  1  0.28424800  0.68528300  0.31701100  1
  Mg  Mg10  1  0.68528300  0.28424800  0.31701100  1
  Mg  Mg11  1  0.00026300  0.60224700  0.68388900  1
  Mg  Mg12  1  0.34444400  0.99987200  0.99973900  1
  Mg  Mg13  1  0.31476200  0.99952900  0.39782900  1
  Mg  Mg14  1  0.71258700  0.39802300  0.60194100  1
  Mg  Mg15  1  0.60463300  0.31590000  0.99771800  1
  Al  Al0  1  0.36607400  0.36607400  0.82182500  1
  Al  Al1  1  0.17862500  0.17862500  0.18077200  1
  Al  Al2  1  0.63643800  0.81950000  0.99562600  1
  Al  Al3  1  0.81204500  0.99861900  0.36696500  1
  Al  Al4  1  0.17711200  0.36465800  0.64013700  1
  Al  Al5  1  0.63223900  0.99899600  0.18593700  1
  Al  Al6  1  0.81752500  0.18433800  0.81630800  1
  Al  Al7  1  0.18433800  0.81752500  0.81630800  1
  Al  Al8  1  0.99899600  0.63223900  0.18593700  1
  Al  Al9  1  0.36465800  0.17711200  0.64013700  1
  Al  Al10  1  0.99861900  0.81204500  0.36696500  1
  Al  Al11  1  0.81950000  0.63643800  0.99562600  1
loop_
_geom_bond_atom_site_label_1
_geom_bond_atom_site_label_2
_geom_bond_distance
_geom_bond_site_symmetry_2
Mg0 Mg3 3.081568 1_665
Mg0 Mg15 3.148778 1_555
Mg0 Mg4 3.148778 1_555
Mg0 Mg8 3.161064 1_565
Mg0 Mg11 3.161064 1_655
Mg0 Mg5 3.166120 1_555
Mg0 Mg14 3.166120 1_555
Mg1 Mg2 3.134010 1_446
Mg1 Mg12 3.140113 1_545
Mg1 Mg7 3.140113 1_455
Mg1 Mg3 3.148336 1_555
Mg2 Mg5 3.058882 1_555
Mg2 Na0 3.085610 1_555
Mg3 Mg6 3.058354 1_455
Mg4 Mg7 3.071774 1_455
Mg4 Na0 3.145265 1_556
Mg4 Mg5 3.165362 1_555
Mg4 Mg8 3.167718 1_565
Mg4 Mg9 3.196639 1_556
Mg4 Mg6 3.202502 1_456
Mg5 Mg8 3.163016 1_565
Mg5 Mg9 3.170697 1_555
Mg6 Mg9 3.170983 1_655
Mg6 Mg8 3.178188 1_555
Mg6 Na0 3.205234 1_655
Mg9 Na0 3.176072 1_555
Mg10 Mg7 3.056706 1_554
Mg10 Mg8 3.131771 1_555
Mg10 Mg6 3.147482 1_555
Mg10 Mg14 3.170697 1_555
Mg10 Mg13 3.170983 1_545
Mg10 Na0 3.176072 1_555
Mg10 Mg15 3.196639 1_554
Mg11 Mg7 3.061199 1_455
Mg11 Mg9 3.131771 1_555
Mg11 Mg14 3.163016 1_455
Mg11 Mg15 3.167718 1_455
Mg11 Mg5 3.172130 1_555
Mg11 Mg13 3.178188 1_555
Mg12 Mg9 3.056706 1_556
Mg12 Mg8 3.061199 1_565
Mg12 Mg15 3.071774 1_565
Mg13 Mg3 3.058354 1_565
Mg13 Mg9 3.147482 1_555
Mg13 Mg5 3.151757 1_555
Mg13 Mg15 3.202502 1_564
Mg13 Na0 3.205234 1_565
Mg14 Mg2 3.058882 1_555
Mg14 Mg6 3.151757 1_555
Mg14 Mg15 3.165362 1_555
Mg14 Mg8 3.172130 1_555
Mg15 Na0 3.145265 1_556
Al0 Al1 2.693740 1_556
Al0 Al9 2.771170 1_555
Al0 Al4 2.771170 1_555
Al0 Mg0 2.918493 1_555
Al0 Mg5 2.985600 1_555
Al0 Mg14 2.985600 1_555
Al0 Mg7 3.098720 1_455
Al0 Mg12 3.098720 1_545
Al0 Mg15 3.173557 1_555
Al0 Mg4 3.173557 1_555
Al0 Mg1 3.217279 1_555
Al1 Al3 2.746175 1_445
Al1 Al10 2.746175 1_445
Al1 Mg13 2.999493 1_545
Al1 Mg6 2.999493 1_455
Al1 Na0 3.007729 1_555
Al1 Mg7 3.077067 1_454
Al1 Mg12 3.077067 1_544
Al1 Mg1 3.146181 1_554
Al1 Mg4 3.252487 1_554
Al1 Mg15 3.252487 1_554
Al2 Al6 2.732918 1_565
Al2 Al5 2.765211 1_556
Al2 Mg4 2.934191 1_555
Al2 Mg8 2.963244 1_565
Al2 Mg9 3.036140 1_556
Al2 Mg3 3.088213 1_665
Al2 Mg2 3.137061 1_556
Al2 Mg0 3.181219 1_555
Al2 Na0 3.182075 1_556
Al2 Mg1 3.220490 1_665
Al3 Al5 2.697697 1_555
Al3 Mg8 2.907059 1_565
Al3 Mg0 2.993750 1_555
Al3 Mg6 2.998777 1_565
Al3 Mg2 3.061119 1_555
Al3 Mg7 3.124088 1_564
Al3 Mg10 3.145353 1_565
Al3 Mg5 3.180180 1_555
Al3 Mg1 3.221812 1_664
Al4 Al6 2.693788 1_455
Al4 Al9 2.791375 1_555
Al4 Mg9 2.951691 1_555
Al4 Mg5 2.981739 1_555
Al4 Mg7 3.060370 1_455
Al4 Na0 3.081223 1_555
Al4 Mg3 3.110363 1_555
Al4 Mg11 3.150494 1_555
Al4 Mg1 3.182778 1_555
Al4 Mg6 3.222020 1_455
Al5 Al6 2.772319 1_564
Al5 Mg13 2.905382 1_555
Al5 Mg15 2.976075 1_564
Al5 Mg9 2.992824 1_555
Al5 Mg2 3.078229 1_555
Al5 Mg7 3.130157 1_564
Al5 Mg10 3.182552 1_565
Al5 Mg5 3.194209 1_555
Al5 Mg1 3.221091 1_664
Al6 Mg14 2.918189 1_555
Al6 Mg15 2.949509 1_555
Al6 Mg8 2.994916 1_555
Al6 Mg3 3.098740 1_655
Al6 Mg7 3.109462 1_555
Al6 Mg11 3.197181 1_655
Al6 Mg1 3.206280 1_655
Al6 Mg6 3.210145 1_555
Al7 Al9 2.693788 1_565
Al7 Al8 2.772319 1_456
Al7 Mg5 2.918189 1_555
Al7 Mg4 2.949509 1_555
Al7 Mg11 2.994916 1_555
Al7 Mg3 3.098740 1_565
Al7 Mg12 3.109462 1_555
Al7 Mg8 3.197181 1_565
Al7 Mg1 3.206280 1_565
Al7 Mg13 3.210145 1_555
Al8 Mg6 2.905382 1_555
Al8 Mg4 2.976075 1_654
Al8 Mg10 2.992824 1_555
Al8 Mg2 3.078229 1_555
Al8 Mg12 3.130157 1_654
Al8 Mg9 3.182552 1_655
Al8 Mg14 3.194209 1_555
Al8 Mg1 3.221091 1_664
Al9 Mg10 2.951691 1_555
Al9 Mg14 2.981739 1_555
Al9 Mg12 3.060370 1_545
Al9 Na0 3.081223 1_555
Al9 Mg3 3.110363 1_555
Al9 Mg8 3.150494 1_555
Al9 Mg1 3.182778 1_555
Al9 Mg13 3.222020 1_545
Al10 Al8 2.697697 1_555
Al10 Al3 2.776908 1_555
Al10 Mg11 2.907059 1_655
Al10 Mg0 2.993750 1_555
Al10 Mg13 2.998777 1_655
Al10 Mg2 3.061119 1_555
Al10 Mg12 3.124088 1_654
Al10 Mg9 3.145353 1_655
Al10 Mg14 3.180180 1_555
Al10 Mg1 3.221812 1_664
Al11 Al2 2.724636 1_555
Al11 Al7 2.732918 1_655
Al11 Al8 2.765211 1_556
Al11 Mg15 2.934191 1_555
Al11 Mg11 2.963244 1_655
Al11 Mg10 3.036140 1_556
Al11 Mg3 3.088213 1_665
Al11 Mg2 3.137061 1_556
Al11 Mg0 3.181219 1_555
Al11 Na0 3.182075 1_556
Al11 Mg1 3.220490 1_665
