# generated using pymatgen
data_CaAcIn2
_symmetry_space_group_name_H-M   'P 1'
_cell_length_a   5.65522838
_cell_length_b   5.65523208
_cell_length_c   5.65523652
_cell_angle_alpha   59.99998271
_cell_angle_beta   59.99994379
_cell_angle_gamma   59.99993519
_symmetry_Int_Tables_number   1
_chemical_formula_structural   CaAcIn2
_chemical_formula_sum   'Ca1 Ac1 In2'
_cell_volume   127.88979788
_cell_formula_units_Z   1
loop_
 _symmetry_equiv_pos_site_id
 _symmetry_equiv_pos_as_xyz
  1  'x, y, z'
loop_
 _atom_site_type_symbol
 _atom_site_label
 _atom_site_symmetry_multiplicity
 _atom_site_fract_x
 _atom_site_fract_y
 _atom_site_fract_z
 _atom_site_occupancy
  Ca  Ca0  1  0.74999900  0.74999900  0.74999900  1
  Ac  Ac0  1  0.25000000  0.25000000  0.25000000  1
  In  In0  1  0.00000000  0.00000000  -0.00000000  1
  In  In1  1  0.49999900  0.49999900  0.49999900  1
loop_
_geom_bond_atom_site_label_1
_geom_bond_atom_site_label_2
_geom_bond_distance
_geom_bond_site_symmetry_2
Ca0 In0 3.463098 1_566
Ca0 In0 3.463102 1_656
Ca0 In1 3.463103 1_655
Ca0 In0 3.463105 1_665
Ca0 In1 3.463107 1_565
Ca0 In1 3.463110 1_555
Ca0 In1 3.463110 1_556
Ca0 In0 3.463123 1_666
Ac0 In1 3.463096 1_555
Ac0 In0 3.463103 1_655
Ac0 In0 3.463107 1_565
Ac0 In1 3.463108 1_455
Ac0 In0 3.463110 1_555
Ac0 In0 3.463110 1_556
Ac0 In1 3.463111 1_545
Ac0 In1 3.463114 1_554
