# generated using pymatgen
data_Nb3Cr
_symmetry_space_group_name_H-M   'P 1'
_cell_length_a   5.47269649
_cell_length_b   5.47269649
_cell_length_c   5.47269649
_cell_angle_alpha   139.44436910
_cell_angle_beta   139.44436910
_cell_angle_gamma   58.69792466
_symmetry_Int_Tables_number   1
_chemical_formula_structural   Nb3Cr
_chemical_formula_sum   'Nb3 Cr1'
_cell_volume   68.64276040
_cell_formula_units_Z   1
loop_
 _symmetry_equiv_pos_site_id
 _symmetry_equiv_pos_as_xyz
  1  'x, y, z'
loop_
 _atom_site_type_symbol
 _atom_site_label
 _atom_site_symmetry_multiplicity
 _atom_site_fract_x
 _atom_site_fract_y
 _atom_site_fract_z
 _atom_site_occupancy
  Nb  Nb0  1  0.50000000  0.50000000  0.00000000  1
  Nb  Nb1  1  0.75000000  0.25000000  0.50000000  1
  Nb  Nb2  1  0.25000000  0.75000000  0.50000000  1
  Cr  Cr0  1  0.00000000  0.00000000  0.00000000  1
loop_
_geom_bond_atom_site_label_1
_geom_bond_atom_site_label_2
_geom_bond_distance
_geom_bond_site_symmetry_2
Nb0 Nb1 3.047345 1_555
Nb0 Nb2 3.047345 1_555
Nb0 Nb2 3.047345 1_544
Nb0 Nb2 3.047345 1_554
Nb0 Nb1 3.047345 1_565
Nb0 Nb2 3.047345 1_655
Nb0 Nb1 3.047345 1_454
Nb0 Nb1 3.047345 1_554
Nb1 Nb2 2.682319 1_645
Nb1 Nb2 2.682319 1_555
Nb1 Nb2 2.682319 1_544
Nb1 Nb2 2.682319 1_656
Cr0 Nb0 2.682319 1_455
Cr0 Nb0 2.682319 1_545
Cr0 Nb0 2.682319 1_556
Cr0 Nb0 2.682319 1_444
Cr0 Nb1 3.047345 1_555
Cr0 Nb2 3.047345 1_555
Cr0 Nb2 3.047345 1_544
Cr0 Nb2 3.047345 1_545
Cr0 Nb1 3.047345 1_444
Cr0 Nb2 3.047345 1_444
Cr0 Nb1 3.047345 1_455
Cr0 Nb1 3.047345 1_454
