# generated using pymatgen
data_MnNiP
_symmetry_space_group_name_H-M   'P 1'
_cell_length_a   5.85401054
_cell_length_b   5.85401054
_cell_length_c   3.46400000
_cell_angle_alpha   90.00000000
_cell_angle_beta   90.00000000
_cell_angle_gamma   120.00000613
_symmetry_Int_Tables_number   1
_chemical_formula_structural   MnNiP
_chemical_formula_sum   'Mn3 Ni3 P3'
_cell_volume   102.80529618
_cell_formula_units_Z   3
loop_
 _symmetry_equiv_pos_site_id
 _symmetry_equiv_pos_as_xyz
  1  'x, y, z'
loop_
 _atom_site_type_symbol
 _atom_site_label
 _atom_site_symmetry_multiplicity
 _atom_site_fract_x
 _atom_site_fract_y
 _atom_site_fract_z
 _atom_site_occupancy
  Mn  Mn0  1  0.60039400  0.00000000  0.00000000  1
  Mn  Mn1  1  0.00000000  0.60039400  0.00000000  1
  Mn  Mn2  1  0.39960600  0.39960600  0.00000000  1
  Ni  Ni0  1  0.25763000  0.00000000  0.50000000  1
  Ni  Ni1  1  0.00000000  0.25763000  0.50000000  1
  Ni  Ni2  1  0.74237000  0.74237000  0.50000000  1
  P  P0  1  0.00000000  0.00000000  0.00000000  1
  P  P1  1  0.33333300  0.66666700  0.50000000  1
  P  P2  1  0.66666700  0.33333300  0.50000000  1
loop_
_geom_bond_atom_site_label_1
_geom_bond_atom_site_label_2
_geom_bond_distance
_geom_bond_site_symmetry_2
Mn0 P0 2.339298 1_655
Mn0 P2 2.490181 1_555
Mn0 P2 2.490181 1_554
Mn0 P1 2.490182 1_544
Mn0 P1 2.490182 1_545
Mn0 Ni0 2.650668 1_554
Mn0 Ni0 2.650668 1_555
Mn0 Ni1 2.686755 1_655
Mn0 Ni1 2.686755 1_654
Mn0 Ni2 2.686756 1_544
Mn0 Ni2 2.686756 1_545
Mn1 P0 2.339298 1_565
Mn1 P1 2.490181 1_554
Mn1 P1 2.490181 1_555
Mn1 P2 2.490182 1_455
Mn1 P2 2.490182 1_454
Mn1 Ni1 2.650668 1_554
Mn1 Ni1 2.650668 1_555
Mn1 Ni0 2.686755 1_564
Mn1 Ni0 2.686755 1_565
Mn1 Ni2 2.686756 1_455
Mn1 Ni2 2.686756 1_454
Mn2 P0 2.339298 1_555
Mn2 P1 2.490185 1_554
Mn2 P2 2.490185 1_555
Mn2 P2 2.490185 1_554
Mn2 P1 2.490185 1_555
Mn2 Ni2 2.650668 1_554
Mn2 Ni2 2.650668 1_555
Mn2 Ni0 2.686755 1_554
Mn2 Ni1 2.686755 1_554
Mn2 Ni0 2.686755 1_555
Mn2 Ni1 2.686755 1_555
Ni0 P1 2.206552 1_545
Ni0 P2 2.206555 1_555
Ni0 P0 2.296606 1_555
Ni0 P0 2.296606 1_556
Ni1 P2 2.206552 1_455
Ni1 P1 2.206555 1_555
Ni1 P0 2.296606 1_555
Ni1 P0 2.296606 1_556
Ni2 P2 2.206557 1_555
Ni2 P1 2.206557 1_555
Ni2 P0 2.296605 1_665
Ni2 P0 2.296605 1_666
