# generated using pymatgen
data_BaTh3
_symmetry_space_group_name_H-M   'P 1'
_cell_length_a   6.37144523
_cell_length_b   6.37144523
_cell_length_c   6.37144523
_cell_angle_alpha   131.74814085
_cell_angle_beta   131.74814085
_cell_angle_gamma   70.62710307
_symmetry_Int_Tables_number   1
_chemical_formula_structural   BaTh3
_chemical_formula_sum   'Ba1 Th3'
_cell_volume   141.04778352
_cell_formula_units_Z   1
loop_
 _symmetry_equiv_pos_site_id
 _symmetry_equiv_pos_as_xyz
  1  'x, y, z'
loop_
 _atom_site_type_symbol
 _atom_site_label
 _atom_site_symmetry_multiplicity
 _atom_site_fract_x
 _atom_site_fract_y
 _atom_site_fract_z
 _atom_site_occupancy
  Ba  Ba0  1  0.00000000  0.00000000  0.00000000  1
  Th  Th0  1  0.25000000  0.75000000  0.50000000  1
  Th  Th1  1  0.75000000  0.25000000  0.50000000  1
  Th  Th2  1  0.50000000  0.50000000  0.00000000  1
loop_
_geom_bond_atom_site_label_1
_geom_bond_atom_site_label_2
_geom_bond_distance
_geom_bond_site_symmetry_2
Ba0 Th0 3.679672 1_544
Ba0 Th1 3.679672 1_444
Ba0 Th1 3.679672 1_555
Ba0 Th1 3.679672 1_455
Ba0 Th1 3.679672 1_454
Ba0 Th0 3.679672 1_444
Ba0 Th0 3.679672 1_555
Ba0 Th0 3.679672 1_545
Ba0 Th2 3.683018 1_455
Ba0 Th2 3.683018 1_556
Ba0 Th2 3.683018 1_444
Ba0 Th2 3.683018 1_545
Th0 Th2 3.679672 1_455
Th0 Th2 3.679672 1_556
Th0 Th2 3.679672 1_555
Th0 Th2 3.679672 1_566
Th0 Th1 3.683018 1_555
Th0 Th1 3.683018 1_465
Th0 Th1 3.683018 1_566
Th0 Th1 3.683018 1_454
Th1 Th2 3.679672 1_556
Th1 Th2 3.679672 1_656
Th1 Th2 3.679672 1_545
Th1 Th2 3.679672 1_555
