# generated using pymatgen
data_Lu2ZnGa
_symmetry_space_group_name_H-M   'P 1'
_cell_length_a   4.89071049
_cell_length_b   4.89071049
_cell_length_c   4.89071049
_cell_angle_alpha   60.00000000
_cell_angle_beta   60.00000000
_cell_angle_gamma   60.00000000
_symmetry_Int_Tables_number   1
_chemical_formula_structural   Lu2ZnGa
_chemical_formula_sum   'Lu2 Zn1 Ga1'
_cell_volume   82.71816026
_cell_formula_units_Z   1
loop_
 _symmetry_equiv_pos_site_id
 _symmetry_equiv_pos_as_xyz
  1  'x, y, z'
loop_
 _atom_site_type_symbol
 _atom_site_label
 _atom_site_symmetry_multiplicity
 _atom_site_fract_x
 _atom_site_fract_y
 _atom_site_fract_z
 _atom_site_occupancy
  Lu  Lu0  1  0.00000000  -0.00000000  0.00000000  1
  Lu  Lu1  1  0.50000000  0.50000000  0.50000000  1
  Zn  Zn0  1  0.75000000  0.75000000  0.75000000  1
  Ga  Ga0  1  0.24999900  0.24999900  0.24999900  1
loop_
_geom_bond_atom_site_label_1
_geom_bond_atom_site_label_2
_geom_bond_distance
_geom_bond_site_symmetry_2
Lu0 Zn0 2.994936 1_454
Lu0 Zn0 2.994936 1_445
Lu0 Zn0 2.994936 1_444
Lu0 Zn0 2.994936 1_544
Lu1 Zn0 2.994936 1_545
Lu1 Zn0 2.994936 1_555
Lu1 Zn0 2.994936 1_554
Lu1 Zn0 2.994936 1_455
Ga0 Lu0 2.994924 1_555
Ga0 Lu1 2.994932 1_455
Ga0 Lu1 2.994932 1_545
Ga0 Lu1 2.994932 1_554
Ga0 Lu0 2.994940 1_565
Ga0 Lu0 2.994940 1_655
Ga0 Lu0 2.994940 1_556
Ga0 Lu1 2.994948 1_555
