# generated using pymatgen
data_ScGeAu
_symmetry_space_group_name_H-M   'P 1'
_cell_length_a   4.32577329
_cell_length_b   4.32577397
_cell_length_c   6.91540042
_cell_angle_alpha   90.00000000
_cell_angle_beta   90.00000000
_cell_angle_gamma   120.00001014
_symmetry_Int_Tables_number   1
_chemical_formula_structural   ScGeAu
_chemical_formula_sum   'Sc2 Ge2 Au2'
_cell_volume   112.06641973
_cell_formula_units_Z   2
loop_
 _symmetry_equiv_pos_site_id
 _symmetry_equiv_pos_as_xyz
  1  'x, y, z'
loop_
 _atom_site_type_symbol
 _atom_site_label
 _atom_site_symmetry_multiplicity
 _atom_site_fract_x
 _atom_site_fract_y
 _atom_site_fract_z
 _atom_site_occupancy
  Sc  Sc0  1  -0.00000000  0.00000000  0.00198724  1
  Sc  Sc1  1  -0.00000000  0.00000000  0.50198724  1
  Ge  Ge0  1  0.33333300  0.66666700  0.29977945  1
  Ge  Ge1  1  0.66666700  0.33333300  0.79977945  1
  Au  Au0  1  0.33333300  0.66666700  0.69743332  1
  Au  Au1  1  0.66666700  0.33333300  0.19743332  1
loop_
_geom_bond_atom_site_label_1
_geom_bond_atom_site_label_2
_geom_bond_distance
_geom_bond_site_symmetry_2
Ge0 Sc1 2.862307 1_565
Ge0 Sc1 2.862310 1_665
Ge0 Sc1 2.862311 1_555
Ge0 Sc0 3.237029 1_565
Ge0 Sc0 3.237032 1_665
Ge0 Sc0 3.237032 1_555
Ge1 Sc0 2.862307 1_656
Ge1 Sc0 2.862310 1_556
Ge1 Sc0 2.862311 1_666
Ge1 Sc1 3.237029 1_655
Ge1 Sc1 3.237032 1_555
Ge1 Sc1 3.237032 1_665
Au0 Ge1 2.595834 1_455
Au0 Ge1 2.595835 1_565
Au0 Ge1 2.595842 1_555
Au0 Ge0 2.749936 1_555
Au0 Sc1 2.839757 1_565
Au0 Sc1 2.839759 1_665
Au0 Sc1 2.839760 1_555
Au0 Sc0 3.266977 1_566
Au0 Sc0 3.266979 1_666
Au0 Sc0 3.266979 1_556
Au1 Ge0 2.595834 1_655
Au1 Ge0 2.595835 1_545
Au1 Ge0 2.595842 1_555
Au1 Ge1 2.749936 1_554
Au1 Sc0 2.839757 1_655
Au1 Sc0 2.839759 1_555
Au1 Sc0 2.839760 1_665
Au1 Sc1 3.266977 1_655
Au1 Sc1 3.266979 1_555
Au1 Sc1 3.266979 1_665
