# generated using pymatgen
data_VGaPt
_symmetry_space_group_name_H-M   'P 1'
_cell_length_a   4.16524361
_cell_length_b   4.16524361
_cell_length_c   4.16524361
_cell_angle_alpha   60.00000000
_cell_angle_beta   60.00000000
_cell_angle_gamma   60.00000000
_symmetry_Int_Tables_number   1
_chemical_formula_structural   VGaPt
_chemical_formula_sum   'V1 Ga1 Pt1'
_cell_volume   51.09827293
_cell_formula_units_Z   1
loop_
 _symmetry_equiv_pos_site_id
 _symmetry_equiv_pos_as_xyz
  1  'x, y, z'
loop_
 _atom_site_type_symbol
 _atom_site_label
 _atom_site_symmetry_multiplicity
 _atom_site_fract_x
 _atom_site_fract_y
 _atom_site_fract_z
 _atom_site_occupancy
  V  V0  1  0.00000000  0.00000000  0.00000000  1
  Ga  Ga0  1  0.75000000  0.75000000  0.75000000  1
  Pt  Pt0  1  0.25000000  0.25000000  0.25000000  1
loop_
_geom_bond_atom_site_label_1
_geom_bond_atom_site_label_2
_geom_bond_distance
_geom_bond_site_symmetry_2
Ga0 V0 2.550680 1_666
Ga0 V0 2.550680 1_656
Ga0 V0 2.550680 1_665
Ga0 V0 2.550680 1_566
Ga0 Pt0 2.945272 1_656
Ga0 Pt0 2.945272 1_655
Ga0 Pt0 2.945272 1_665
Ga0 Pt0 2.945272 1_556
Ga0 Pt0 2.945272 1_565
Ga0 Pt0 2.945272 1_566
Pt0 V0 2.550680 1_556
Pt0 V0 2.550680 1_655
Pt0 V0 2.550680 1_565
Pt0 V0 2.550680 1_555
