# generated using pymatgen
data_Th3Br
_symmetry_space_group_name_H-M   'P 1'
_cell_length_a   6.08904336
_cell_length_b   6.08904336
_cell_length_c   6.08904336
_cell_angle_alpha   132.41846587
_cell_angle_beta   132.41846587
_cell_angle_gamma   69.56890313
_symmetry_Int_Tables_number   1
_chemical_formula_structural   Th3Br
_chemical_formula_sum   'Th3 Br1'
_cell_volume   120.69195346
_cell_formula_units_Z   1
loop_
 _symmetry_equiv_pos_site_id
 _symmetry_equiv_pos_as_xyz
  1  'x, y, z'
loop_
 _atom_site_type_symbol
 _atom_site_label
 _atom_site_symmetry_multiplicity
 _atom_site_fract_x
 _atom_site_fract_y
 _atom_site_fract_z
 _atom_site_occupancy
  Th  Th0  1  0.75000000  0.25000000  0.50000000  1
  Th  Th1  1  0.25000000  0.75000000  0.50000000  1
  Th  Th2  1  0.50000000  0.50000000  0.00000000  1
  Br  Br0  1  0.00000000  0.00000000  0.00000000  1
loop_
_geom_bond_atom_site_label_1
_geom_bond_atom_site_label_2
_geom_bond_distance
_geom_bond_site_symmetry_2
Br0 Th2 3.473743 1_444
Br0 Th2 3.473743 1_455
Br0 Th2 3.473743 1_545
Br0 Th2 3.473743 1_556
Br0 Th0 3.505115 1_555
Br0 Th0 3.505115 1_444
Br0 Th0 3.505115 1_454
Br0 Th1 3.505115 1_444
Br0 Th0 3.505115 1_455
Br0 Th1 3.505115 1_544
Br0 Th1 3.505115 1_555
Br0 Th1 3.505115 1_545
