# generated using pymatgen
data_Al6Cd4TeO12
_symmetry_space_group_name_H-M   'P 1'
_cell_length_a   7.86202976
_cell_length_b   7.86202976
_cell_length_c   7.86202976
_cell_angle_alpha   109.47122063
_cell_angle_beta   109.47122063
_cell_angle_gamma   109.47122063
_symmetry_Int_Tables_number   1
_chemical_formula_structural   Al6Cd4TeO12
_chemical_formula_sum   'Al6 Cd4 Te1 O12'
_cell_volume   374.09522081
_cell_formula_units_Z   1
loop_
 _symmetry_equiv_pos_site_id
 _symmetry_equiv_pos_as_xyz
  1  'x, y, z'
loop_
 _atom_site_type_symbol
 _atom_site_label
 _atom_site_symmetry_multiplicity
 _atom_site_fract_x
 _atom_site_fract_y
 _atom_site_fract_z
 _atom_site_occupancy
  Al  Al0  1  0.75000000  0.50000000  0.25000000  1
  Al  Al1  1  0.25000000  0.50000000  0.75000000  1
  Al  Al2  1  0.50000000  0.75000000  0.25000000  1
  Al  Al3  1  0.50000000  0.25000000  0.75000000  1
  Al  Al4  1  0.25000000  0.75000000  0.50000000  1
  Al  Al5  1  0.75000000  0.25000000  0.50000000  1
  Cd  Cd0  1  0.35858600  0.35858600  0.35858600  1
  Cd  Cd1  1  0.00000000  0.64141400  0.00000000  1
  Cd  Cd2  1  0.00000000  0.00000000  0.64141400  1
  Cd  Cd3  1  0.64141400  0.00000000  0.00000000  1
  Te  Te0  1  0.00000000  0.00000000  0.00000000  1
  O  O0  1  0.72207000  0.00000000  0.43547300  1
  O  O1  1  0.27793000  0.71340400  0.27793000  1
  O  O2  1  0.28659600  0.56452700  0.56452700  1
  O  O3  1  0.56452700  0.56452700  0.28659600  1
  O  O4  1  0.00000000  0.43547300  0.72207000  1
  O  O5  1  0.71340400  0.27793000  0.27793000  1
  O  O6  1  0.27793000  0.27793000  0.71340400  1
  O  O7  1  0.72207000  0.43547300  0.00000000  1
  O  O8  1  0.43547300  0.00000000  0.72207000  1
  O  O9  1  0.43547300  0.72207000  0.00000000  1
  O  O10  1  0.56452700  0.28659600  0.56452700  1
  O  O11  1  0.00000000  0.72207000  0.43547300  1
loop_
_geom_bond_atom_site_label_1
_geom_bond_atom_site_label_2
_geom_bond_distance
_geom_bond_site_symmetry_2
Al0 O3 1.772581 1_555
Al0 O11 1.772584 1_655
Al0 O7 1.772584 1_555
Al0 O5 1.772585 1_555
Al1 O2 1.772581 1_555
Al1 O4 1.772584 1_555
Al1 O9 1.772584 1_556
Al1 O6 1.772585 1_555
Al2 O3 1.772581 1_555
Al2 O0 1.772584 1_565
Al2 O9 1.772584 1_555
Al2 O1 1.772585 1_555
Al3 O10 1.772581 1_555
Al3 O7 1.772584 1_556
Al3 O8 1.772584 1_555
Al3 O6 1.772585 1_555
Al4 O2 1.772581 1_555
Al4 O11 1.772584 1_555
Al4 O8 1.772584 1_565
Al4 O1 1.772585 1_555
Al5 O10 1.772581 1_555
Al5 O0 1.772584 1_555
Al5 O4 1.772584 1_655
Al5 O5 1.772585 1_555
Cd0 O3 2.244456 1_555
Cd0 O2 2.244456 1_555
Cd0 O10 2.244456 1_555
Cd0 Te0 2.819214 1_555
Cd1 O1 2.244447 1_555
Cd1 O7 2.244450 1_455
Cd1 O4 2.244450 1_554
Cd1 Te0 2.819214 1_565
Cd2 O6 2.244447 1_555
Cd2 O11 2.244450 1_545
Cd2 O0 2.244450 1_455
Cd2 Te0 2.819214 1_556
Cd3 O5 2.244447 1_555
Cd3 O9 2.244450 1_545
Cd3 O8 2.244450 1_554
Cd3 Te0 2.819214 1_655
