# generated using pymatgen
data_AsAu3
_symmetry_space_group_name_H-M   'P 1'
_cell_length_a   5.95898491
_cell_length_b   5.95898491
_cell_length_c   4.80890700
_cell_angle_alpha   90.00000000
_cell_angle_beta   90.00000000
_cell_angle_gamma   119.99998792
_symmetry_Int_Tables_number   1
_chemical_formula_structural   AsAu3
_chemical_formula_sum   'As2 Au6'
_cell_volume   147.88415168
_cell_formula_units_Z   2
loop_
 _symmetry_equiv_pos_site_id
 _symmetry_equiv_pos_as_xyz
  1  'x, y, z'
loop_
 _atom_site_type_symbol
 _atom_site_label
 _atom_site_symmetry_multiplicity
 _atom_site_fract_x
 _atom_site_fract_y
 _atom_site_fract_z
 _atom_site_occupancy
  As  As0  1  0.33333300  0.66666700  0.75000000  1
  As  As1  1  0.66666700  0.33333300  0.25000000  1
  Au  Au0  1  0.16683200  0.33366400  0.25000000  1
  Au  Au1  1  0.66633600  0.83316800  0.25000000  1
  Au  Au2  1  0.16683200  0.83316800  0.25000000  1
  Au  Au3  1  0.83316800  0.66633600  0.75000000  1
  Au  Au4  1  0.33366400  0.16683200  0.75000000  1
  Au  Au5  1  0.83316800  0.16683200  0.75000000  1
loop_
_geom_bond_atom_site_label_1
_geom_bond_atom_site_label_2
_geom_bond_distance
_geom_bond_site_symmetry_2
As0 Au2 2.955443 1_556
As0 Au2 2.955443 1_555
As0 Au0 2.955446 1_556
As0 Au0 2.955446 1_555
As0 Au1 2.955446 1_555
As0 Au1 2.955446 1_556
As0 Au4 2.979490 1_565
As0 Au3 2.979490 1_455
As0 Au5 2.979493 1_455
As0 Au5 2.979493 1_565
As0 Au3 2.979496 1_555
As0 Au4 2.979496 1_555
As1 Au5 2.955443 1_554
As1 Au5 2.955443 1_555
As1 Au4 2.955446 1_554
As1 Au4 2.955446 1_555
As1 Au3 2.955446 1_554
As1 Au3 2.955446 1_555
As1 Au1 2.979490 1_545
As1 Au0 2.979490 1_655
As1 Au2 2.979493 1_545
As1 Au2 2.979493 1_655
As1 Au1 2.979496 1_555
As1 Au0 2.979496 1_555
Au0 Au4 2.957431 1_555
Au0 Au4 2.957431 1_554
Au0 Au5 2.957431 1_455
Au0 Au5 2.957431 1_454
Au0 Au2 2.976537 1_555
Au0 Au1 2.976537 1_555
Au0 Au2 2.982448 1_545
Au0 Au1 2.982449 1_445
Au1 Au3 2.957431 1_555
Au1 Au3 2.957431 1_554
Au1 Au5 2.957431 1_565
Au1 Au5 2.957431 1_564
Au1 Au2 2.976537 1_555
Au1 Au2 2.982448 1_655
Au2 Au3 2.957431 1_455
Au2 Au3 2.957431 1_454
Au2 Au4 2.957431 1_565
Au2 Au4 2.957431 1_564
Au3 Au5 2.976537 1_555
Au3 Au4 2.976537 1_555
Au3 Au5 2.982448 1_565
Au3 Au4 2.982449 1_665
Au4 Au5 2.976537 1_555
Au4 Au5 2.982448 1_455
