# generated using pymatgen
data_Yb2PtAu
_symmetry_space_group_name_H-M   'P 1'
_cell_length_a   4.88780796
_cell_length_b   4.88780796
_cell_length_c   4.88780796
_cell_angle_alpha   60.00000000
_cell_angle_beta   60.00000000
_cell_angle_gamma   60.00000000
_symmetry_Int_Tables_number   1
_chemical_formula_structural   Yb2PtAu
_chemical_formula_sum   'Yb2 Pt1 Au1'
_cell_volume   82.57097363
_cell_formula_units_Z   1
loop_
 _symmetry_equiv_pos_site_id
 _symmetry_equiv_pos_as_xyz
  1  'x, y, z'
loop_
 _atom_site_type_symbol
 _atom_site_label
 _atom_site_symmetry_multiplicity
 _atom_site_fract_x
 _atom_site_fract_y
 _atom_site_fract_z
 _atom_site_occupancy
  Yb  Yb0  1  0.25000000  0.25000000  0.25000000  1
  Yb  Yb1  1  0.75000000  0.75000000  0.75000000  1
  Pt  Pt0  1  0.00000000  0.00000000  0.00000000  1
  Au  Au0  1  0.50000000  0.50000000  0.50000000  1
loop_
_geom_bond_atom_site_label_1
_geom_bond_atom_site_label_2
_geom_bond_distance
_geom_bond_site_symmetry_2
Pt0 Yb1 2.993159 1_454
Pt0 Yb1 2.993159 1_444
Pt0 Yb0 2.993159 1_455
Pt0 Yb1 2.993159 1_445
Pt0 Yb0 2.993159 1_545
Pt0 Yb1 2.993159 1_544
Pt0 Yb0 2.993159 1_555
Pt0 Yb0 2.993159 1_554
Au0 Yb0 2.993159 1_556
Au0 Yb1 2.993159 1_554
Au0 Yb1 2.993159 1_545
Au0 Yb1 2.993159 1_555
Au0 Yb0 2.993159 1_655
Au0 Yb0 2.993159 1_565
Au0 Yb0 2.993159 1_555
Au0 Yb1 2.993159 1_455
