# generated using pymatgen
data_Ru3Cl
_symmetry_space_group_name_H-M   'P 1'
_cell_length_a   4.45883606
_cell_length_b   4.45883606
_cell_length_c   4.45883606
_cell_angle_alpha   123.90062747
_cell_angle_beta   123.90062747
_cell_angle_gamma   83.36705050
_symmetry_Int_Tables_number   1
_chemical_formula_structural   Ru3Cl
_chemical_formula_sum   'Ru3 Cl1'
_cell_volume   58.55711257
_cell_formula_units_Z   1
loop_
 _symmetry_equiv_pos_site_id
 _symmetry_equiv_pos_as_xyz
  1  'x, y, z'
loop_
 _atom_site_type_symbol
 _atom_site_label
 _atom_site_symmetry_multiplicity
 _atom_site_fract_x
 _atom_site_fract_y
 _atom_site_fract_z
 _atom_site_occupancy
  Ru  Ru0  1  0.75000000  0.25000000  0.50000000  1
  Ru  Ru1  1  0.25000000  0.75000000  0.50000000  1
  Ru  Ru2  1  0.50000000  0.50000000  0.00000000  1
  Cl  Cl0  1  0.00000000  0.00000000  0.00000000  1
loop_
_geom_bond_atom_site_label_1
_geom_bond_atom_site_label_2
_geom_bond_distance
_geom_bond_site_symmetry_2
Ru0 Ru2 2.677387 1_545
Ru0 Ru2 2.677387 1_555
Ru0 Ru2 2.677387 1_656
Ru0 Ru2 2.677387 1_556
Ru1 Ru2 2.677387 1_555
Ru1 Ru2 2.677387 1_455
Ru1 Ru2 2.677387 1_566
Ru1 Ru2 2.677387 1_556
Cl0 Ru1 2.677387 1_545
Cl0 Ru1 2.677387 1_555
Cl0 Ru0 2.677387 1_444
Cl0 Ru0 2.677387 1_455
Cl0 Ru0 2.677387 1_454
Cl0 Ru1 2.677387 1_544
Cl0 Ru1 2.677387 1_444
Cl0 Ru0 2.677387 1_555
Cl0 Ru2 2.965196 1_444
Cl0 Ru2 2.965196 1_545
Cl0 Ru2 2.965196 1_556
Cl0 Ru2 2.965196 1_455
