# generated using pymatgen
data_Ag2GeS3
_symmetry_space_group_name_H-M   'P 1'
_cell_length_a   6.44584315
_cell_length_b   6.87778197
_cell_length_c   6.87778316
_cell_angle_alpha   118.53273260
_cell_angle_beta   90.00000000
_cell_angle_gamma   90.00000000
_symmetry_Int_Tables_number   1
_chemical_formula_structural   Ag2GeS3
_chemical_formula_sum   'Ag4 Ge2 S6'
_cell_volume   267.88001724
_cell_formula_units_Z   2
loop_
 _symmetry_equiv_pos_site_id
 _symmetry_equiv_pos_as_xyz
  1  'x, y, z'
loop_
 _atom_site_type_symbol
 _atom_site_label
 _atom_site_symmetry_multiplicity
 _atom_site_fract_x
 _atom_site_fract_y
 _atom_site_fract_z
 _atom_site_occupancy
  Ag  Ag0  1  0.48833909  0.30514799  0.99443073  1
  Ag  Ag1  1  0.98833909  0.69485201  0.00556927  1
  Ag  Ag2  1  0.48833909  0.99443073  0.30514799  1
  Ag  Ag3  1  0.98833909  0.00556927  0.69485201  1
  Ge  Ge0  1  0.96040091  0.33922124  0.33922124  1
  Ge  Ge1  1  0.46040091  0.66077876  0.66077876  1
  S  S0  1  0.82413849  0.64016390  0.64016390  1
  S  S1  1  0.32413849  0.35983610  0.35983610  1
  S  S2  1  0.37789370  0.64987557  0.96249014  1
  S  S3  1  0.37789370  0.96249014  0.64987557  1
  S  S4  1  0.87789370  0.03750986  0.35012443  1
  S  S5  1  0.87789370  0.35012443  0.03750986  1
loop_
_geom_bond_atom_site_label_1
_geom_bond_atom_site_label_2
_geom_bond_distance
_geom_bond_site_symmetry_2
Ag0 S3 2.518219 1_545
Ag0 S5 2.530035 1_556
Ag0 S2 2.583432 1_555
Ag0 S1 2.583549 1_556
Ag1 S4 2.518219 1_565
Ag1 S2 2.530035 1_654
Ag1 S5 2.583432 1_555
Ag1 S0 2.583549 1_554
Ag2 S2 2.518219 1_554
Ag2 S4 2.530035 1_565
Ag2 S3 2.583432 1_555
Ag2 S1 2.583548 1_565
Ag3 S5 2.518219 1_556
Ag3 S3 2.530035 1_645
Ag3 S4 2.583432 1_555
Ag3 S0 2.583548 1_545
Ge0 S4 2.177886 1_555
Ge0 S5 2.177886 1_555
Ge0 S0 2.290636 1_555
Ge0 S1 2.349070 1_655
Ge1 S3 2.177886 1_555
Ge1 S2 2.177886 1_555
Ge1 S1 2.290636 1_555
Ge1 S0 2.349070 1_555
