# generated using pymatgen
data_Sr2ZnCu2(SO)2
_symmetry_space_group_name_H-M   'P 1'
_cell_length_a   9.36401861
_cell_length_b   9.36401861
_cell_length_c   9.36401861
_cell_angle_alpha   155.12920977
_cell_angle_beta   155.12920977
_cell_angle_gamma   35.46035955
_symmetry_Int_Tables_number   1
_chemical_formula_structural   Sr2ZnCu2(SO)2
_chemical_formula_sum   'Sr2 Zn1 Cu2 S2 O2'
_cell_volume   145.06286376
_cell_formula_units_Z   1
loop_
 _symmetry_equiv_pos_site_id
 _symmetry_equiv_pos_as_xyz
  1  'x, y, z'
loop_
 _atom_site_type_symbol
 _atom_site_label
 _atom_site_symmetry_multiplicity
 _atom_site_fract_x
 _atom_site_fract_y
 _atom_site_fract_z
 _atom_site_occupancy
  Sr  Sr0  1  0.59239000  0.59239000  0.00000000  1
  Sr  Sr1  1  0.40761000  0.40761000  0.00000000  1
  Zn  Zn0  1  0.00000000  0.00000000  0.00000000  1
  Cu  Cu0  1  0.25000000  0.75000000  0.50000000  1
  Cu  Cu1  1  0.75000000  0.25000000  0.50000000  1
  S  S0  1  0.82604600  0.82604600  0.00000000  1
  S  S1  1  0.17395400  0.17395400  0.00000000  1
  O  O0  1  0.00000000  0.50000000  0.50000000  1
  O  O1  1  0.50000000  0.00000000  0.50000000  1
loop_
_geom_bond_atom_site_label_1
_geom_bond_atom_site_label_2
_geom_bond_distance
_geom_bond_site_symmetry_2
Cu0 S0 2.430272 1_556
Cu0 S0 2.430272 1_455
Cu0 S1 2.430272 1_566
Cu0 S1 2.430272 1_555
Cu1 S0 2.430272 1_556
Cu1 S0 2.430272 1_545
Cu1 S1 2.430272 1_656
Cu1 S1 2.430272 1_555
S0 Sr1 3.201403 1_554
S0 Sr1 3.201403 1_655
S0 Sr1 3.201403 1_565
S0 Sr1 3.201403 1_666
S1 Sr0 3.201403 1_556
S1 Sr0 3.201403 1_444
S1 Sr0 3.201403 1_455
S1 Sr0 3.201403 1_545
O0 Zn0 2.016435 1_566
O0 Zn0 2.016435 1_555
O0 Sr1 2.604272 1_556
O0 Sr1 2.604272 1_455
O0 Sr0 2.604272 1_455
O0 Sr0 2.604272 1_556
O1 Zn0 2.016435 1_555
O1 Zn0 2.016435 1_656
O1 Sr1 2.604272 1_556
O1 Sr1 2.604272 1_545
O1 Sr0 2.604272 1_545
O1 Sr0 2.604272 1_556
