# generated using pymatgen
data_Li3H3N2
_symmetry_space_group_name_H-M   'P 1'
_cell_length_a   3.46047900
_cell_length_b   3.72946300
_cell_length_c   5.14346119
_cell_angle_alpha   88.17387607
_cell_angle_beta   90.00000000
_cell_angle_gamma   90.00000000
_symmetry_Int_Tables_number   1
_chemical_formula_structural   Li3H3N2
_chemical_formula_sum   'Li3 H3 N2'
_cell_volume   66.34640090
_cell_formula_units_Z   1
loop_
 _symmetry_equiv_pos_site_id
 _symmetry_equiv_pos_as_xyz
  1  'x, y, z'
loop_
 _atom_site_type_symbol
 _atom_site_label
 _atom_site_symmetry_multiplicity
 _atom_site_fract_x
 _atom_site_fract_y
 _atom_site_fract_z
 _atom_site_occupancy
  Li  Li0  1  0.00000000  0.45823700  0.23873700  1
  Li  Li1  1  0.50000000  0.96259900  0.31656200  1
  Li  Li2  1  0.00000000  0.60873000  0.68029200  1
  H  H0  1  0.22927900  0.03917800  0.90712600  1
  H  H1  1  0.50000000  0.30142300  0.63276200  1
  H  H2  1  0.77072100  0.03917800  0.90712600  1
  N  N0  1  0.00000000  0.94926900  0.02030800  1
  N  N1  1  0.50000000  0.47938600  0.47308600  1
loop_
_geom_bond_atom_site_label_1
_geom_bond_atom_site_label_2
_geom_bond_distance
_geom_bond_site_symmetry_2
Li0 N1 2.111614 1_455
Li0 N1 2.111614 1_555
Li0 N0 2.117709 1_555
Li0 N0 2.236337 1_545
Li1 N1 1.950214 1_555
Li2 N1 2.096431 1_555
Li2 N1 2.096431 1_455
Li2 N0 2.193863 1_556
H0 N0 1.033633 1_546
H0 Li2 2.164997 1_545
H1 N1 1.039365 1_555
H1 Li2 2.094009 1_555
H1 Li2 2.094009 1_655
H2 N0 1.033633 1_646
H2 Li2 2.164997 1_645
