# generated using pymatgen
data_Sc2MnSi
_symmetry_space_group_name_H-M   'P 1'
_cell_length_a   4.51082225
_cell_length_b   4.51082225
_cell_length_c   4.51082225
_cell_angle_alpha   60.00000000
_cell_angle_beta   60.00000000
_cell_angle_gamma   60.00000000
_symmetry_Int_Tables_number   1
_chemical_formula_structural   Sc2MnSi
_chemical_formula_sum   'Sc2 Mn1 Si1'
_cell_volume   64.90111281
_cell_formula_units_Z   1
loop_
 _symmetry_equiv_pos_site_id
 _symmetry_equiv_pos_as_xyz
  1  'x, y, z'
loop_
 _atom_site_type_symbol
 _atom_site_label
 _atom_site_symmetry_multiplicity
 _atom_site_fract_x
 _atom_site_fract_y
 _atom_site_fract_z
 _atom_site_occupancy
  Sc  Sc0  1  0.00000000  0.00000000  0.00000000  1
  Sc  Sc1  1  0.25000000  0.25000000  0.25000000  1
  Mn  Mn0  1  0.50000000  0.50000000  0.50000000  1
  Si  Si0  1  0.75000000  0.75000000  0.75000000  1
loop_
_geom_bond_atom_site_label_1
_geom_bond_atom_site_label_2
_geom_bond_distance
_geom_bond_site_symmetry_2
Sc0 Si0 2.762303 1_544
Sc0 Sc1 2.762303 1_555
Sc0 Sc1 2.762303 1_545
Sc0 Sc1 2.762303 1_554
Sc0 Sc1 2.762303 1_455
Sc0 Si0 2.762303 1_444
Sc0 Si0 2.762303 1_445
Sc0 Si0 2.762303 1_454
Sc1 Si0 3.189633 1_544
Sc1 Si0 3.189633 1_455
Sc1 Si0 3.189633 1_454
Sc1 Si0 3.189633 1_545
Sc1 Si0 3.189633 1_445
Sc1 Si0 3.189633 1_554
Mn0 Sc1 2.762303 1_565
Mn0 Sc1 2.762303 1_555
Mn0 Sc1 2.762303 1_556
Mn0 Si0 2.762303 1_554
Mn0 Sc1 2.762303 1_655
Mn0 Si0 2.762303 1_555
Mn0 Si0 2.762303 1_455
Mn0 Si0 2.762303 1_545
