# generated using pymatgen
data_SmHoTl2
_symmetry_space_group_name_H-M   'P 1'
_cell_length_a   5.37371023
_cell_length_b   5.37371033
_cell_length_c   5.37371017
_cell_angle_alpha   59.99999125
_cell_angle_beta   59.99999552
_cell_angle_gamma   59.99999321
_symmetry_Int_Tables_number   1
_chemical_formula_structural   SmHoTl2
_chemical_formula_sum   'Sm1 Ho1 Tl2'
_cell_volume   109.72552607
_cell_formula_units_Z   1
loop_
 _symmetry_equiv_pos_site_id
 _symmetry_equiv_pos_as_xyz
  1  'x, y, z'
loop_
 _atom_site_type_symbol
 _atom_site_label
 _atom_site_symmetry_multiplicity
 _atom_site_fract_x
 _atom_site_fract_y
 _atom_site_fract_z
 _atom_site_occupancy
  Sm  Sm0  1  0.74999924  0.74999924  0.74999922  1
  Ho  Ho0  1  0.25000001  0.25000001  0.25000005  1
  Tl  Tl0  1  0.00000004  0.00000004  0.00000002  1
  Tl  Tl1  1  0.50000071  0.50000072  0.50000071  1
loop_
_geom_bond_atom_site_label_1
_geom_bond_atom_site_label_2
_geom_bond_distance
_geom_bond_site_symmetry_2
Sm0 Tl1 3.290693 1_555
Sm0 Tl0 3.290708 1_665
Sm0 Tl0 3.290708 1_656
Sm0 Tl0 3.290708 1_566
Sm0 Tl1 3.290718 1_565
Sm0 Tl1 3.290718 1_556
Sm0 Tl1 3.290718 1_655
Sm0 Tl0 3.290723 1_666
Ho0 Tl1 3.290709 1_545
Ho0 Tl1 3.290709 1_455
Ho0 Tl1 3.290709 1_554
Ho0 Tl0 3.290712 1_556
Ho0 Tl0 3.290712 1_565
Ho0 Tl0 3.290712 1_655
Ho0 Tl0 3.290712 1_555
Ho0 Tl1 3.290721 1_555
