# generated using pymatgen
data_Ho3Lu
_symmetry_space_group_name_H-M   'P 1'
_cell_length_a   7.16911224
_cell_length_b   7.16911119
_cell_length_c   5.53250176
_cell_angle_alpha   89.99997878
_cell_angle_beta   90.00000000
_cell_angle_gamma   119.99998164
_symmetry_Int_Tables_number   1
_chemical_formula_structural   Ho3Lu
_chemical_formula_sum   'Ho6 Lu2'
_cell_volume   246.25381571
_cell_formula_units_Z   2
loop_
 _symmetry_equiv_pos_site_id
 _symmetry_equiv_pos_as_xyz
  1  'x, y, z'
loop_
 _atom_site_type_symbol
 _atom_site_label
 _atom_site_symmetry_multiplicity
 _atom_site_fract_x
 _atom_site_fract_y
 _atom_site_fract_z
 _atom_site_occupancy
  Ho  Ho0  1  0.16759063  0.33518127  0.25000150  1
  Ho  Ho1  1  0.83240893  0.16758944  0.75000195  1
  Ho  Ho2  1  0.33518051  0.16758944  0.75000195  1
  Ho  Ho3  1  0.83240902  0.66481804  0.75000140  1
  Ho  Ho4  1  0.16759000  0.83240978  0.25000107  1
  Ho  Ho5  1  0.66481977  0.83240978  0.25000107  1
  Lu  Lu0  1  0.66666575  0.33333051  0.25000035  1
  Lu  Lu1  1  0.33333337  0.66666674  0.75000272  1
loop_
_geom_bond_atom_site_label_1
_geom_bond_atom_site_label_2
_geom_bond_distance
_geom_bond_site_symmetry_2
Ho0 Lu1 3.447863 1_554
Ho0 Lu1 3.447876 1_555
Ho0 Ho2 3.461615 1_554
Ho0 Ho1 3.461615 1_454
Ho0 Ho2 3.461618 1_555
Ho0 Ho1 3.461618 1_455
Ho0 Ho4 3.564689 1_555
Ho0 Ho5 3.564690 1_555
Ho0 Lu0 3.584571 1_455
Ho0 Lu0 3.584578 1_555
Ho0 Ho4 3.604422 1_545
Ho0 Ho5 3.604424 1_445
Ho1 Lu0 3.447858 1_556
Ho1 Lu0 3.447871 1_555
Ho1 Ho5 3.461604 1_546
Ho1 Ho5 3.461614 1_545
Ho1 Ho2 3.564686 1_555
Ho1 Ho3 3.564687 1_555
Ho1 Lu1 3.584569 1_545
Ho1 Lu1 3.584581 1_655
Ho1 Ho3 3.604424 1_545
Ho1 Ho2 3.604426 1_655
Ho2 Lu0 3.447862 1_556
Ho2 Lu0 3.447875 1_555
Ho2 Ho4 3.461604 1_546
Ho2 Ho4 3.461614 1_545
Ho2 Ho3 3.564688 1_555
Ho2 Lu1 3.584568 1_545
Ho2 Lu1 3.584580 1_555
Ho2 Ho3 3.604426 1_445
Ho3 Lu0 3.447872 1_556
Ho3 Lu0 3.447882 1_555
Ho3 Ho5 3.461613 1_556
Ho3 Ho4 3.461613 1_656
Ho3 Ho5 3.461615 1_555
Ho3 Ho4 3.461615 1_655
Ho3 Lu1 3.584574 1_555
Ho3 Lu1 3.584575 1_655
Ho4 Lu1 3.447866 1_554
Ho4 Lu1 3.447880 1_555
Ho4 Ho5 3.564696 1_555
Ho4 Lu0 3.584563 1_565
Ho4 Lu0 3.584588 1_455
Ho4 Ho5 3.604416 1_455
Ho5 Lu1 3.447866 1_554
Ho5 Lu1 3.447880 1_555
Ho5 Lu0 3.584558 1_565
Ho5 Lu0 3.584590 1_555
