# generated using pymatgen
data_Sm2As2O5
_symmetry_space_group_name_H-M   'P 1'
_cell_length_a   3.79415300
_cell_length_b   3.79415300
_cell_length_c   9.70050900
_cell_angle_alpha   90.00000000
_cell_angle_beta   90.00000000
_cell_angle_gamma   90.00000000
_symmetry_Int_Tables_number   1
_chemical_formula_structural   Sm2As2O5
_chemical_formula_sum   'Sm2 As2 O5'
_cell_volume   139.64461814
_cell_formula_units_Z   1
loop_
 _symmetry_equiv_pos_site_id
 _symmetry_equiv_pos_as_xyz
  1  'x, y, z'
loop_
 _atom_site_type_symbol
 _atom_site_label
 _atom_site_symmetry_multiplicity
 _atom_site_fract_x
 _atom_site_fract_y
 _atom_site_fract_z
 _atom_site_occupancy
  Sm  Sm0  1  0.50000000  0.50000000  0.74761400  1
  Sm  Sm1  1  0.50000000  0.50000000  0.25238600  1
  As  As0  1  0.00000000  0.00000000  0.00000000  1
  As  As1  1  0.00000000  0.00000000  0.50000000  1
  O  O0  1  0.00000000  0.50000000  0.86945100  1
  O  O1  1  0.00000000  0.50000000  0.13054900  1
  O  O2  1  0.50000000  0.50000000  0.50000000  1
  O  O3  1  0.50000000  0.00000000  0.86945100  1
  O  O4  1  0.50000000  0.00000000  0.13054900  1
loop_
_geom_bond_atom_site_label_1
_geom_bond_atom_site_label_2
_geom_bond_distance
_geom_bond_site_symmetry_2
As0 O1 2.280931 1_545
As0 O0 2.280931 1_554
As0 O3 2.280931 1_554
As0 O4 2.280931 1_455
As0 O0 2.280931 1_544
As0 O3 2.280931 1_454
As0 O4 2.280931 1_555
As0 O1 2.280931 1_555
O0 Sm0 2.235116 1_555
O0 Sm0 2.235116 1_455
O1 Sm1 2.235116 1_455
O1 Sm1 2.235116 1_555
O2 Sm1 2.401982 1_555
O2 Sm0 2.401982 1_555
O3 Sm0 2.235116 1_555
O3 Sm0 2.235116 1_545
O4 Sm1 2.235116 1_545
O4 Sm1 2.235116 1_555
