# generated using pymatgen
data_DyBC
_symmetry_space_group_name_H-M   'P 1'
_cell_length_a   3.38960200
_cell_length_b   3.52650400
_cell_length_c   9.68788832
_cell_angle_alpha   90.00000000
_cell_angle_beta   100.07517742
_cell_angle_gamma   90.00000000
_symmetry_Int_Tables_number   1
_chemical_formula_structural   DyBC
_chemical_formula_sum   'Dy2 B2 C2'
_cell_volume   114.01783961
_cell_formula_units_Z   2
loop_
 _symmetry_equiv_pos_site_id
 _symmetry_equiv_pos_as_xyz
  1  'x, y, z'
loop_
 _atom_site_type_symbol
 _atom_site_label
 _atom_site_symmetry_multiplicity
 _atom_site_fract_x
 _atom_site_fract_y
 _atom_site_fract_z
 _atom_site_occupancy
  Dy  Dy0  1  0.84373400  0.00000000  0.68746800  1
  Dy  Dy1  1  0.15626600  0.00000000  0.31253200  1
  B  B0  1  0.27668900  0.50000000  0.55337800  1
  B  B1  1  0.72331100  0.50000000  0.44662200  1
  C  C0  1  0.64512500  0.50000000  0.29025000  1
  C  C1  1  0.35487500  0.50000000  0.70975000  1
loop_
_geom_bond_atom_site_label_1
_geom_bond_atom_site_label_2
_geom_bond_distance
_geom_bond_site_symmetry_2
B0 C1 1.491553 1_555
B0 Dy0 2.759944 1_455
B0 Dy0 2.759944 1_465
B0 Dy0 2.759944 1_565
B0 Dy0 2.759944 1_555
B0 Dy1 2.895977 1_555
B0 Dy1 2.895977 1_565
B1 C0 1.491553 1_555
B1 Dy1 2.759944 1_555
B1 Dy1 2.759944 1_565
B1 Dy1 2.759944 1_655
B1 Dy1 2.759944 1_665
B1 Dy0 2.895977 1_565
B1 Dy0 2.895977 1_555
C0 Dy1 2.454909 1_565
C0 Dy1 2.454909 1_555
C0 Dy1 2.454909 1_655
C0 Dy1 2.454909 1_665
C1 Dy0 2.454909 1_455
C1 Dy0 2.454909 1_565
C1 Dy0 2.454909 1_555
C1 Dy0 2.454909 1_465
