# generated using pymatgen
data_Pr2Zn17
_symmetry_space_group_name_H-M   'P 1'
_cell_length_a   8.96212418
_cell_length_b   8.96216842
_cell_length_c   8.76610289
_cell_angle_alpha   89.99999841
_cell_angle_beta   89.99994875
_cell_angle_gamma   119.99282690
_symmetry_Int_Tables_number   1
_chemical_formula_structural   Pr2Zn17
_chemical_formula_sum   'Pr4 Zn34'
_cell_volume   609.80732963
_cell_formula_units_Z   2
loop_
 _symmetry_equiv_pos_site_id
 _symmetry_equiv_pos_as_xyz
  1  'x, y, z'
loop_
 _atom_site_type_symbol
 _atom_site_label
 _atom_site_symmetry_multiplicity
 _atom_site_fract_x
 _atom_site_fract_y
 _atom_site_fract_z
 _atom_site_occupancy
  Pr  Pr0  1  0.99996328  0.00004099  0.24999929  1
  Pr  Pr1  1  0.00003545  0.99996386  0.75000050  1
  Pr  Pr2  1  0.33345413  0.66653766  0.75000230  1
  Pr  Pr3  1  0.66653720  0.33346064  0.25000165  1
  Zn  Zn0  1  0.16248855  0.32503682  0.98250588  1
  Zn  Zn1  1  0.83749434  0.67495101  0.48251459  1
  Zn  Zn2  1  0.67497211  0.83751531  0.98251443  1
  Zn  Zn3  1  0.16265783  0.83734557  0.98261400  1
  Zn  Zn4  1  0.83732511  0.16266908  0.48260698  1
  Zn  Zn5  1  0.32504193  0.16249179  0.48251859  1
  Zn  Zn6  1  0.83749935  0.67494240  0.01750019  1
  Zn  Zn7  1  0.83732515  0.16267058  0.01738725  1
  Zn  Zn8  1  0.32507140  0.16251300  0.01748909  1
  Zn  Zn9  1  0.67494558  0.83749982  0.51749494  1
  Zn  Zn10  1  0.16266323  0.83732577  0.51737962  1
  Zn  Zn11  1  0.16248555  0.32504459  0.51749639  1
  Zn  Zn12  1  0.33017219  0.95555510  0.25000125  1
  Zn  Zn13  1  0.66981147  0.04443696  0.74999976  1
  Zn  Zn14  1  0.04416924  0.37458921  0.24999925  1
  Zn  Zn15  1  0.62496906  0.67014220  0.25000132  1
  Zn  Zn16  1  0.37503343  0.32986335  0.75000043  1
  Zn  Zn17  1  0.95583115  0.62542261  0.74999911  1
  Zn  Zn18  1  0.37457187  0.04415148  0.74999881  1
  Zn  Zn19  1  0.67013263  0.62497694  0.75000073  1
  Zn  Zn20  1  0.95553253  0.33018575  0.74999262  1
  Zn  Zn21  1  0.04444818  0.66982121  0.24999710  1
  Zn  Zn22  1  0.32986683  0.37502931  0.24999832  1
  Zn  Zn23  1  0.62541794  0.95583833  0.24999945  1
  Zn  Zn24  1  0.49999154  0.99999373  0.00000183  1
  Zn  Zn25  1  0.49998379  0.99998517  0.49999839  1
  Zn  Zn26  1  0.00002302  0.50002074  0.99999834  1
  Zn  Zn27  1  0.49999789  0.50000109  0.00000235  1
  Zn  Zn28  1  0.49999773  0.49998786  0.50000179  1
  Zn  Zn29  1  0.99999113  0.50000295  0.49999356  1
  Zn  Zn30  1  0.33326698  0.66675150  0.10390900  1
  Zn  Zn31  1  0.66673318  0.33324458  0.60391468  1
  Zn  Zn32  1  0.66674497  0.33326126  0.89608442  1
  Zn  Zn33  1  0.33325105  0.66673081  0.39609583  1
loop_
_geom_bond_atom_site_label_1
_geom_bond_atom_site_label_2
_geom_bond_distance
_geom_bond_site_symmetry_2
Pr0 Zn23 3.177268 1_545
Pr0 Zn14 3.177299 1_655
Pr0 Zn12 3.177493 1_645
Pr0 Zn21 3.177598 1_645
Pr0 Zn22 3.178336 1_655
Pr0 Zn15 3.178347 1_545
Pr0 Zn5 3.243679 1_655
Pr0 Zn6 3.243697 1_545
Pr0 Zn1 3.243733 1_545
Pr0 Zn8 3.243803 1_655
Pr0 Zn4 3.245088 1_555
Pr0 Zn7 3.245123 1_555
Pr0 Zn2 3.444052 1_544
Pr0 Zn0 3.444136 1_654
Pr0 Zn11 3.444204 1_655
Pr0 Zn9 3.444264 1_545
Pr0 Zn3 3.445528 1_644
Pr0 Zn10 3.445643 1_645
Pr1 Zn17 3.177243 1_455
Pr1 Zn18 3.177243 1_565
Pr1 Zn13 3.177559 1_465
Pr1 Zn20 3.177712 1_465
Pr1 Zn19 3.178326 1_455
Pr1 Zn16 3.178369 1_565
Pr1 Zn2 3.243554 1_455
Pr1 Zn0 3.243577 1_565
Pr1 Zn11 3.243615 1_565
Pr1 Zn9 3.243671 1_455
Pr1 Zn3 3.244967 1_555
Pr1 Zn10 3.245158 1_555
Pr1 Zn5 3.444118 1_565
Pr1 Zn1 3.444190 1_455
Pr1 Zn6 3.444319 1_456
Pr1 Zn8 3.444329 1_566
Pr1 Zn7 3.445690 1_466
Pr1 Zn4 3.445724 1_465
Pr2 Zn33 3.102382 1_555
Pr2 Zn30 3.102384 1_556
Pr2 Zn18 3.215904 1_565
Pr2 Zn17 3.215978 1_455
Pr2 Zn13 3.217181 1_565
Pr2 Zn20 3.217275 1_455
Pr2 Zn19 3.219753 1_555
Pr2 Zn16 3.219826 1_555
Pr2 Zn9 3.343672 1_555
Pr2 Zn11 3.343688 1_555
Pr2 Zn0 3.343721 1_555
Pr2 Zn2 3.343864 1_555
Pr2 Zn10 3.344606 1_555
Pr2 Zn3 3.344701 1_555
Pr2 Zn27 3.389025 1_556
Pr2 Zn28 3.389103 1_555
Pr2 Zn26 3.391287 1_555
Pr2 Zn25 3.391439 1_555
Pr2 Zn24 3.391467 1_556
Pr2 Zn29 3.391551 1_455
Pr3 Zn31 3.102440 1_555
Pr3 Zn32 3.102476 1_554
Pr3 Zn23 3.215974 1_545
Pr3 Zn14 3.216009 1_655
Pr3 Zn12 3.217242 1_545
Pr3 Zn21 3.217251 1_655
Pr3 Zn22 3.219722 1_555
Pr3 Zn15 3.219833 1_555
Pr3 Zn8 3.343546 1_555
Pr3 Zn6 3.343592 1_555
Pr3 Zn1 3.343708 1_555
Pr3 Zn5 3.343747 1_555
Pr3 Zn4 3.344517 1_555
Pr3 Zn7 3.344554 1_555
Pr3 Zn28 3.388943 1_555
Pr3 Zn27 3.389018 1_555
Pr3 Zn29 3.391402 1_555
Pr3 Zn24 3.391532 1_545
Pr3 Zn25 3.391564 1_545
Pr3 Zn26 3.391652 1_654
Zn0 Zn8 2.541774 1_556
Zn0 Zn7 2.542370 1_456
Zn0 Zn26 2.624086 1_555
Zn0 Zn27 2.624827 1_556
Zn0 Zn22 2.697665 1_556
Zn0 Zn14 2.700167 1_556
Zn0 Zn20 2.771690 1_455
Zn0 Zn16 2.775261 1_555
Zn0 Zn30 2.857938 1_556
Zn1 Zn9 2.541701 1_555
Zn1 Zn10 2.542395 1_655
Zn1 Zn29 2.624038 1_555
Zn1 Zn28 2.624724 1_555
Zn1 Zn19 2.697563 1_555
Zn1 Zn17 2.700098 1_555
Zn1 Zn21 2.771641 1_655
Zn1 Zn15 2.775247 1_555
Zn1 Zn31 2.857868 1_555
Zn2 Zn6 2.541727 1_556
Zn2 Zn7 2.542311 1_566
Zn2 Zn24 2.624155 1_556
Zn2 Zn27 2.624874 1_556
Zn2 Zn23 2.700127 1_556
Zn2 Zn30 2.857828 1_556
Zn3 Zn6 2.542336 1_456
Zn3 Zn8 2.542407 1_566
Zn3 Zn30 2.853628 1_556
Zn4 Zn9 2.542434 1_545
Zn10 Zn5 2.542381 1_565
Zn10 Zn25 2.623252 1_555
Zn10 Zn29 2.623283 1_455
Zn10 Zn12 2.698109 1_555
Zn10 Zn21 2.698116 1_555
Zn10 Zn18 2.771518 1_565
Zn10 Zn17 2.771519 1_455
Zn10 Zn33 2.853443 1_555
Zn11 Zn5 2.541788 1_555
Zn11 Zn4 2.542356 1_455
Zn11 Zn29 2.624112 1_455
Zn11 Zn28 2.624843 1_555
Zn11 Zn22 2.697726 1_555
Zn11 Zn14 2.700159 1_555
Zn11 Zn20 2.771535 1_455
Zn11 Zn16 2.775296 1_555
Zn11 Zn33 2.857724 1_555
Zn12 Zn21 2.561022 1_555
Zn12 Zn25 2.582919 1_555
Zn12 Zn24 2.582958 1_555
Zn12 Zn23 2.644761 1_555
Zn12 Zn3 2.698177 1_554
Zn12 Zn5 2.771545 1_565
Zn12 Zn8 2.771548 1_565
Zn12 Zn30 2.900338 1_555
Zn12 Zn33 2.900449 1_555
Zn13 Zn20 2.561076 1_555
Zn13 Zn24 2.582975 1_546
Zn13 Zn25 2.582997 1_545
Zn13 Zn18 2.644696 1_555
Zn13 Zn7 2.698201 1_556
Zn13 Zn4 2.698237 1_555
Zn13 Zn9 2.771479 1_545
Zn13 Zn2 2.771532 1_545
Zn13 Zn31 2.900276 1_555
Zn13 Zn32 2.900360 1_555
Zn14 Zn22 2.558488 1_555
Zn14 Zn29 2.582165 1_455
Zn14 Zn26 2.582190 1_554
Zn14 Zn21 2.644670 1_555
Zn14 Zn4 2.771532 1_455
Zn14 Zn7 2.771557 1_455
Zn14 Zn33 2.902701 1_555
Zn14 Zn30 2.902822 1_555
Zn15 Zn23 2.558448 1_555
Zn15 Zn27 2.583569 1_555
Zn15 Zn28 2.583623 1_555
Zn15 Zn22 2.645084 1_555
Zn15 Zn2 2.697592 1_554
Zn15 Zn9 2.697605 1_555
Zn15 Zn6 2.775222 1_555
Zn15 Zn30 2.897586 1_555
Zn15 Zn33 2.897639 1_555
Zn16 Zn18 2.558533 1_555
Zn16 Zn28 2.583501 1_555
Zn16 Zn27 2.583571 1_556
Zn16 Zn19 2.645073 1_555
Zn16 Zn8 2.697550 1_556
Zn16 Zn5 2.697559 1_555
Zn16 Zn31 2.897577 1_555
Zn16 Zn32 2.897601 1_555
Zn17 Zn19 2.558471 1_555
Zn17 Zn26 2.582193 1_655
Zn17 Zn29 2.582215 1_555
Zn17 Zn20 2.644626 1_555
Zn17 Zn6 2.700173 1_556
Zn17 Zn3 2.771539 1_655
Zn17 Zn32 2.902753 1_555
Zn17 Zn31 2.902867 1_555
Zn18 Zn25 2.582160 1_545
Zn18 Zn24 2.582188 1_546
Zn18 Zn5 2.700086 1_555
Zn18 Zn8 2.700157 1_556
Zn18 Zn3 2.771449 1_545
Zn18 Zn31 2.902776 1_555
Zn18 Zn32 2.902898 1_555
Zn19 Zn28 2.583568 1_555
Zn19 Zn27 2.583569 1_556
Zn19 Zn6 2.697696 1_556
Zn19 Zn9 2.775177 1_555
Zn19 Zn2 2.775245 1_555
Zn19 Zn32 2.897684 1_555
Zn19 Zn31 2.897781 1_555
Zn20 Zn29 2.582926 1_555
Zn20 Zn26 2.583017 1_655
Zn20 Zn4 2.698171 1_555
Zn20 Zn7 2.698233 1_556
Zn20 Zn31 2.900092 1_555
Zn20 Zn32 2.900116 1_555
Zn21 Zn26 2.582889 1_554
Zn21 Zn29 2.582913 1_455
Zn21 Zn3 2.698177 1_554
Zn21 Zn6 2.771454 1_455
Zn21 Zn33 2.900329 1_555
Zn21 Zn30 2.900330 1_555
Zn22 Zn27 2.583510 1_555
Zn22 Zn28 2.583551 1_555
Zn22 Zn8 2.775211 1_555
Zn22 Zn5 2.775325 1_555
Zn22 Zn33 2.897638 1_555
Zn22 Zn30 2.897709 1_555
Zn23 Zn24 2.582171 1_555
Zn23 Zn25 2.582186 1_555
Zn23 Zn9 2.700187 1_555
Zn23 Zn4 2.771453 1_565
Zn23 Zn7 2.771485 1_565
Zn23 Zn30 2.902735 1_555
Zn23 Zn33 2.902903 1_555
Zn24 Zn7 2.623354 1_565
Zn24 Zn3 2.623361 1_554
Zn24 Zn8 2.623994 1_565
Zn24 Zn30 2.742325 1_555
Zn24 Zn32 2.742540 1_564
Zn25 Zn4 2.623416 1_565
Zn25 Zn5 2.624064 1_565
Zn25 Zn9 2.624066 1_555
Zn25 Zn33 2.742401 1_555
Zn25 Zn31 2.742479 1_565
Zn26 Zn3 2.623305 1_555
Zn26 Zn7 2.623494 1_456
Zn26 Zn6 2.624048 1_456
Zn26 Zn30 2.742337 1_556
Zn26 Zn32 2.742596 1_455
Zn27 Zn8 2.624664 1_555
Zn27 Zn6 2.624763 1_555
Zn27 Zn30 2.743803 1_555
Zn27 Zn32 2.743877 1_554
Zn28 Zn5 2.624729 1_555
Zn28 Zn9 2.624854 1_555
Zn28 Zn31 2.743803 1_555
Zn28 Zn33 2.743863 1_555
Zn29 Zn4 2.623371 1_555
Zn29 Zn33 2.742415 1_655
Zn29 Zn31 2.742469 1_555
Zn30 Zn33 2.561340 1_555
Zn31 Zn32 2.561190 1_555
Zn31 Zn4 2.853411 1_555
Zn31 Zn5 2.857735 1_555
Zn32 Zn7 2.853421 1_556
Zn32 Zn8 2.857633 1_556
Zn32 Zn6 2.857738 1_556
Zn33 Zn9 2.857768 1_555
