# generated using pymatgen
data_Ba3TiS5
_symmetry_space_group_name_H-M   'P 1'
_cell_length_a   9.22017072
_cell_length_b   9.22017278
_cell_length_c   9.22022466
_cell_angle_alpha   124.87576462
_cell_angle_beta   124.87575059
_cell_angle_gamma   81.74338474
_symmetry_Int_Tables_number   1
_chemical_formula_structural   Ba3TiS5
_chemical_formula_sum   'Ba6 Ti2 S10'
_cell_volume   507.59902047
_cell_formula_units_Z   2
loop_
 _symmetry_equiv_pos_site_id
 _symmetry_equiv_pos_as_xyz
  1  'x, y, z'
loop_
 _atom_site_type_symbol
 _atom_site_label
 _atom_site_symmetry_multiplicity
 _atom_site_fract_x
 _atom_site_fract_y
 _atom_site_fract_z
 _atom_site_occupancy
  Ba  Ba0  1  0.66269622  0.16269654  0.82539007  1
  Ba  Ba1  1  0.16269915  0.33730016  0.49999974  1
  Ba  Ba2  1  0.83730055  0.66269941  0.50000029  1
  Ba  Ba3  1  0.33730365  0.83730375  0.17460952  1
  Ba  Ba4  1  0.25000030  0.24999951  -0.00000013  1
  Ba  Ba5  1  0.74999964  0.75000076  0.00000010  1
  Ti  Ti0  1  0.74999918  0.24999872  0.49999910  1
  Ti  Ti1  1  0.25000059  0.75000090  0.50000042  1
  S  S0  1  0.00491768  0.50491774  0.20451428  1
  S  S1  1  0.69960254  0.19960223  0.20451451  1
  S  S2  1  0.99508557  0.49508548  0.79549062  1
  S  S3  1  0.49508939  0.69960351  0.49999898  1
  S  S4  1  0.19960312  0.99508951  0.49999902  1
  S  S5  1  0.50490928  0.30039678  0.50000033  1
  S  S6  1  0.80039698  0.00490903  0.50000083  1
  S  S7  1  0.30039621  0.80039628  0.79548066  1
  S  S8  1  0.49999991  0.49999982  -0.00000007  1
  S  S9  1  0.00000002  -0.00000014  -0.00000028  1
loop_
_geom_bond_atom_site_label_1
_geom_bond_atom_site_label_2
_geom_bond_distance
_geom_bond_site_symmetry_2
Ba0 S1 3.124669 1_556
Ba0 S0 3.124705 1_656
Ba0 S8 3.195352 1_556
Ba0 S9 3.195357 1_656
Ba0 S6 3.400515 1_555
Ba0 S5 3.400517 1_555
Ba0 S3 3.400550 1_545
Ba0 S4 3.400550 1_545
Ba1 S5 3.124567 1_555
Ba1 S4 3.124572 1_545
Ba1 S9 3.195378 1_555
Ba1 S8 3.195379 1_556
Ba1 S1 3.400572 1_455
Ba1 S7 3.400572 1_555
Ba1 S0 3.400621 1_555
Ba1 S2 3.400627 1_455
Ba2 S6 3.124563 1_565
Ba2 S3 3.124573 1_555
Ba2 S9 3.195374 1_666
Ba2 S8 3.195380 1_555
Ba2 S7 3.400569 1_655
Ba2 S1 3.400576 1_555
Ba2 S0 3.400621 1_655
Ba2 S2 3.400626 1_555
Ba3 S2 3.124677 1_454
Ba3 S7 3.124696 1_554
Ba3 S9 3.195353 1_565
Ba3 S8 3.195354 1_555
Ba3 S3 3.400516 1_555
Ba3 S4 3.400518 1_555
Ba3 S5 3.400548 1_565
Ba3 S6 3.400550 1_565
Ba4 S9 3.486039 1_555
Ba4 S8 3.486039 1_555
Ba4 S2 3.530622 1_454
Ba4 S0 3.530628 1_555
Ba4 S1 3.530655 1_555
Ba4 S7 3.530657 1_544
Ba4 S5 3.530696 1_555
Ba4 S4 3.530698 1_544
Ba4 S6 3.530698 1_454
Ba4 S3 3.530701 1_555
Ba5 S9 3.486039 1_665
Ba5 S8 3.486044 1_555
Ba5 S2 3.530623 1_554
Ba5 S0 3.530630 1_655
Ba5 S1 3.530649 1_565
Ba5 S7 3.530657 1_554
Ba5 S6 3.530697 1_565
Ba5 S4 3.530698 1_655
Ba5 S3 3.530700 1_554
Ba5 S5 3.530703 1_554
S0 Ti1 2.240703 1_555
S1 Ti0 2.240739 1_555
S2 Ti0 2.240736 1_555
S3 Ti1 2.240731 1_555
S4 Ti1 2.240730 1_555
S5 Ti0 2.240741 1_555
S6 Ti0 2.240741 1_555
S7 Ti1 2.240708 1_555
