# generated using pymatgen
data_Sm3Zn
_symmetry_space_group_name_H-M   'P 1'
_cell_length_a   6.98142936
_cell_length_b   6.98142936
_cell_length_c   5.30030600
_cell_angle_alpha   90.00000000
_cell_angle_beta   90.00000000
_cell_angle_gamma   119.99999397
_symmetry_Int_Tables_number   1
_chemical_formula_structural   Sm3Zn
_chemical_formula_sum   'Sm6 Zn2'
_cell_volume   223.72797816
_cell_formula_units_Z   2
loop_
 _symmetry_equiv_pos_site_id
 _symmetry_equiv_pos_as_xyz
  1  'x, y, z'
loop_
 _atom_site_type_symbol
 _atom_site_label
 _atom_site_symmetry_multiplicity
 _atom_site_fract_x
 _atom_site_fract_y
 _atom_site_fract_z
 _atom_site_occupancy
  Sm  Sm0  1  0.17665900  0.35331800  0.25000000  1
  Sm  Sm1  1  0.64668200  0.82334100  0.25000000  1
  Sm  Sm2  1  0.17665900  0.82334100  0.25000000  1
  Sm  Sm3  1  0.82334100  0.64668200  0.75000000  1
  Sm  Sm4  1  0.35331800  0.17665900  0.75000000  1
  Sm  Sm5  1  0.82334100  0.17665900  0.75000000  1
  Zn  Zn0  1  0.33333300  0.66666700  0.75000000  1
  Zn  Zn1  1  0.66666700  0.33333300  0.25000000  1
loop_
_geom_bond_atom_site_label_1
_geom_bond_atom_site_label_2
_geom_bond_distance
_geom_bond_site_symmetry_2
Sm0 Zn0 3.257696 1_554
Sm0 Zn0 3.257696 1_555
Sm0 Sm2 3.281432 1_555
Sm0 Sm1 3.281433 1_555
Sm0 Sm4 3.403915 1_555
Sm0 Sm4 3.403915 1_554
Sm0 Sm5 3.403915 1_454
Sm0 Sm5 3.403915 1_455
Sm0 Zn1 3.492802 1_455
Sm0 Zn1 3.492809 1_555
Sm0 Sm2 3.699997 1_545
Sm0 Sm1 3.699997 1_445
Sm1 Zn0 3.257696 1_554
Sm1 Zn0 3.257696 1_555
Sm1 Sm2 3.281432 1_555
Sm1 Sm3 3.403915 1_555
Sm1 Sm3 3.403915 1_554
Sm1 Sm5 3.403915 1_565
Sm1 Sm5 3.403915 1_564
Sm1 Zn1 3.492802 1_565
Sm1 Zn1 3.492809 1_555
Sm1 Sm2 3.699997 1_655
Sm2 Zn0 3.257693 1_555
Sm2 Zn0 3.257693 1_554
Sm2 Sm4 3.403915 1_565
Sm2 Sm4 3.403915 1_564
Sm2 Sm3 3.403915 1_455
Sm2 Sm3 3.403915 1_454
Sm2 Zn1 3.492805 1_455
Sm2 Zn1 3.492805 1_565
Sm3 Zn1 3.257696 1_556
Sm3 Zn1 3.257696 1_555
Sm3 Sm5 3.281432 1_555
Sm3 Sm4 3.281433 1_555
Sm3 Zn0 3.492802 1_655
Sm3 Zn0 3.492809 1_555
Sm3 Sm5 3.699997 1_565
Sm3 Sm4 3.699997 1_665
Sm4 Zn1 3.257696 1_556
Sm4 Zn1 3.257696 1_555
Sm4 Sm5 3.281432 1_555
Sm4 Zn0 3.492802 1_545
Sm4 Zn0 3.492809 1_555
Sm4 Sm5 3.699997 1_455
Sm5 Zn1 3.257693 1_556
Sm5 Zn1 3.257693 1_555
Sm5 Zn0 3.492805 1_545
Sm5 Zn0 3.492805 1_655
