# generated using pymatgen
data_Ba2ZnN2
_symmetry_space_group_name_H-M   'P 1'
_cell_length_a   4.19674924
_cell_length_b   4.19674811
_cell_length_c   7.13797758
_cell_angle_alpha   107.09597893
_cell_angle_beta   107.09597442
_cell_angle_gamma   89.99999532
_symmetry_Int_Tables_number   1
_chemical_formula_structural   Ba2ZnN2
_chemical_formula_sum   'Ba2 Zn1 N2'
_cell_volume   114.33935544
_cell_formula_units_Z   1
loop_
 _symmetry_equiv_pos_site_id
 _symmetry_equiv_pos_as_xyz
  1  'x, y, z'
loop_
 _atom_site_type_symbol
 _atom_site_label
 _atom_site_symmetry_multiplicity
 _atom_site_fract_x
 _atom_site_fract_y
 _atom_site_fract_z
 _atom_site_occupancy
  Ba  Ba0  1  0.65471746  0.65471746  0.30943491  1
  Ba  Ba1  1  0.34528254  0.34528254  0.69056509  1
  Zn  Zn0  1  0.00000000  0.00000000  0.00000000  1
  N  N0  1  0.85929431  0.85929431  0.71858963  1
  N  N1  1  0.14070569  0.14070569  0.28141037  1
loop_
_geom_bond_atom_site_label_1
_geom_bond_atom_site_label_2
_geom_bond_distance
_geom_bond_site_symmetry_2
Ba0 N0 2.656179 1_555
Ba0 N1 2.973118 1_555
Ba0 N1 2.973121 1_655
Ba0 N1 2.973121 1_565
Ba0 N1 2.973124 1_665
Ba1 N1 2.656179 1_555
Ba1 N0 2.973118 1_555
Ba1 N0 2.973121 1_455
Ba1 N0 2.973121 1_545
Ba1 N0 2.973124 1_445
N0 Zn0 1.826880 1_666
N1 Zn0 1.826880 1_555
