# generated using pymatgen
data_K3Sm
_symmetry_space_group_name_H-M   'P 1'
_cell_length_a   8.64882907
_cell_length_b   8.64882907
_cell_length_c   7.16484600
_cell_angle_alpha   90.00000000
_cell_angle_beta   90.00000000
_cell_angle_gamma   120.00000821
_symmetry_Int_Tables_number   1
_chemical_formula_structural   K3Sm
_chemical_formula_sum   'K6 Sm2'
_cell_volume   464.14329860
_cell_formula_units_Z   2
loop_
 _symmetry_equiv_pos_site_id
 _symmetry_equiv_pos_as_xyz
  1  'x, y, z'
loop_
 _atom_site_type_symbol
 _atom_site_label
 _atom_site_symmetry_multiplicity
 _atom_site_fract_x
 _atom_site_fract_y
 _atom_site_fract_z
 _atom_site_occupancy
  K  K0  1  0.17140700  0.34281400  0.25000000  1
  K  K1  1  0.65718600  0.82859300  0.25000000  1
  K  K2  1  0.17140700  0.82859300  0.25000000  1
  K  K3  1  0.82859300  0.65718600  0.75000000  1
  K  K4  1  0.34281400  0.17140700  0.75000000  1
  K  K5  1  0.82859300  0.17140700  0.75000000  1
  Sm  Sm0  1  0.33333300  0.66666700  0.75000000  1
  Sm  Sm1  1  0.66666700  0.33333300  0.25000000  1
loop_
_geom_bond_atom_site_label_1
_geom_bond_atom_site_label_2
_geom_bond_distance
_geom_bond_site_symmetry_2
K0 K1 4.201419 1_555
K0 K2 4.201420 1_555
K0 Sm1 4.324993 1_455
K0 Sm1 4.325002 1_555
K0 Sm0 4.326400 1_555
K0 Sm0 4.326400 1_554
K0 K5 4.407596 1_454
K0 K5 4.407596 1_455
K0 K4 4.407596 1_555
K0 K4 4.407596 1_554
K0 K1 4.447409 1_445
K0 K2 4.447410 1_545
K1 K2 4.201420 1_555
K1 Sm1 4.324993 1_565
K1 Sm1 4.325002 1_555
K1 Sm0 4.326400 1_555
K1 Sm0 4.326400 1_554
K1 K5 4.407596 1_564
K1 K5 4.407596 1_565
K1 K3 4.407596 1_555
K1 K3 4.407596 1_554
K1 K2 4.447410 1_655
K2 Sm1 4.324997 1_565
K2 Sm1 4.324997 1_455
K2 Sm0 4.326396 1_555
K2 Sm0 4.326396 1_554
K2 K3 4.407596 1_455
K2 K3 4.407596 1_454
K2 K4 4.407596 1_564
K2 K4 4.407596 1_565
K3 K4 4.201419 1_555
K3 K5 4.201420 1_555
K3 Sm0 4.324993 1_655
K3 Sm0 4.325002 1_555
K3 Sm1 4.326400 1_556
K3 Sm1 4.326400 1_555
K3 K4 4.447409 1_665
K3 K5 4.447410 1_565
K4 K5 4.201420 1_555
K4 Sm0 4.324993 1_545
K4 Sm0 4.325002 1_555
K4 Sm1 4.326400 1_556
K4 Sm1 4.326400 1_555
K4 K5 4.447410 1_455
K5 Sm0 4.324997 1_545
K5 Sm0 4.324997 1_655
K5 Sm1 4.326396 1_556
K5 Sm1 4.326396 1_555
