# generated using pymatgen
data_ZrTc2W
_symmetry_space_group_name_H-M   'P 1'
_cell_length_a   4.50734192
_cell_length_b   4.50734192
_cell_length_c   4.50734192
_cell_angle_alpha   60.00000000
_cell_angle_beta   60.00000000
_cell_angle_gamma   60.00000000
_symmetry_Int_Tables_number   1
_chemical_formula_structural   ZrTc2W
_chemical_formula_sum   'Zr1 Tc2 W1'
_cell_volume   64.75100540
_cell_formula_units_Z   1
loop_
 _symmetry_equiv_pos_site_id
 _symmetry_equiv_pos_as_xyz
  1  'x, y, z'
loop_
 _atom_site_type_symbol
 _atom_site_label
 _atom_site_symmetry_multiplicity
 _atom_site_fract_x
 _atom_site_fract_y
 _atom_site_fract_z
 _atom_site_occupancy
  Zr  Zr0  1  0.00000000  -0.00000000  -0.00000000  1
  Tc  Tc0  1  0.25000000  0.25000000  0.25000000  1
  Tc  Tc1  1  0.75000000  0.75000000  0.75000000  1
  W  W0  1  0.50000000  0.50000000  0.50000000  1
loop_
_geom_bond_atom_site_label_1
_geom_bond_atom_site_label_2
_geom_bond_distance
_geom_bond_site_symmetry_2
Tc0 W0 2.760172 1_455
Tc0 Zr0 2.760172 1_555
Tc0 W0 2.760172 1_554
Tc0 Zr0 2.760172 1_556
Tc0 W0 2.760172 1_545
Tc0 W0 2.760172 1_555
Tc0 Zr0 2.760172 1_655
Tc0 Zr0 2.760172 1_565
Tc1 W0 2.760172 1_556
Tc1 Zr0 2.760172 1_566
Tc1 W0 2.760172 1_555
Tc1 W0 2.760172 1_655
Tc1 W0 2.760172 1_565
Tc1 Zr0 2.760172 1_656
Tc1 Zr0 2.760172 1_665
Tc1 Zr0 2.760172 1_666
W0 Zr0 3.187172 1_556
W0 Zr0 3.187172 1_655
W0 Zr0 3.187172 1_566
W0 Zr0 3.187172 1_656
W0 Zr0 3.187172 1_665
W0 Zr0 3.187172 1_565
