# generated using pymatgen
data_PrTlSe2
_symmetry_space_group_name_H-M   'P 1'
_cell_length_a   4.34946635
_cell_length_b   4.34946546
_cell_length_c   8.09886125
_cell_angle_alpha   74.42357654
_cell_angle_beta   74.42357709
_cell_angle_gamma   59.99998277
_symmetry_Int_Tables_number   1
_chemical_formula_structural   PrTlSe2
_chemical_formula_sum   'Pr1 Tl1 Se2'
_cell_volume   126.14702469
_cell_formula_units_Z   1
loop_
 _symmetry_equiv_pos_site_id
 _symmetry_equiv_pos_as_xyz
  1  'x, y, z'
loop_
 _atom_site_type_symbol
 _atom_site_label
 _atom_site_symmetry_multiplicity
 _atom_site_fract_x
 _atom_site_fract_y
 _atom_site_fract_z
 _atom_site_occupancy
  Pr  Pr0  1  -0.00000000  -0.00000000  0.00000000  1
  Tl  Tl0  1  0.50000000  0.50000000  0.50000000  1
  Se  Se0  1  0.73768559  0.73768559  0.78694322  1
  Se  Se1  1  0.26231441  0.26231441  0.21305678  1
loop_
_geom_bond_atom_site_label_1
_geom_bond_atom_site_label_2
_geom_bond_distance
_geom_bond_site_symmetry_2
Pr0 Se1 2.999518 1_545
Pr0 Se0 2.999518 1_454
Pr0 Se0 2.999519 1_544
Pr0 Se1 2.999519 1_455
Pr0 Se0 2.999519 1_444
Pr0 Se1 2.999519 1_555
Se0 Tl0 3.344744 1_565
Se0 Tl0 3.344744 1_655
Se0 Tl0 3.344745 1_555
Se1 Tl0 3.344744 1_545
Se1 Tl0 3.344744 1_455
Se1 Tl0 3.344745 1_555
