# generated using pymatgen
data_Ti2MnSi
_symmetry_space_group_name_H-M   'P 1'
_cell_length_a   4.26109335
_cell_length_b   4.26109335
_cell_length_c   4.26109335
_cell_angle_alpha   60.00000000
_cell_angle_beta   60.00000000
_cell_angle_gamma   60.00000000
_symmetry_Int_Tables_number   1
_chemical_formula_structural   Ti2MnSi
_chemical_formula_sum   'Ti2 Mn1 Si1'
_cell_volume   54.70766095
_cell_formula_units_Z   1
loop_
 _symmetry_equiv_pos_site_id
 _symmetry_equiv_pos_as_xyz
  1  'x, y, z'
loop_
 _atom_site_type_symbol
 _atom_site_label
 _atom_site_symmetry_multiplicity
 _atom_site_fract_x
 _atom_site_fract_y
 _atom_site_fract_z
 _atom_site_occupancy
  Ti  Ti0  1  0.00000000  0.00000000  0.00000000  1
  Ti  Ti1  1  0.25000000  0.25000000  0.25000000  1
  Mn  Mn0  1  0.50000000  0.50000000  0.50000000  1
  Si  Si0  1  0.75000000  0.75000000  0.75000000  1
loop_
_geom_bond_atom_site_label_1
_geom_bond_atom_site_label_2
_geom_bond_distance
_geom_bond_site_symmetry_2
Ti0 Ti1 2.609376 1_545
Ti0 Ti1 2.609376 1_555
Ti0 Ti1 2.609376 1_455
Ti0 Ti1 2.609376 1_554
Mn0 Si0 2.609376 1_555
Mn0 Si0 2.609376 1_545
Mn0 Ti1 2.609376 1_555
Mn0 Ti1 2.609376 1_556
Mn0 Ti1 2.609376 1_565
Mn0 Ti1 2.609376 1_655
Mn0 Si0 2.609376 1_554
Mn0 Si0 2.609376 1_455
Si0 Ti0 2.609376 1_566
Si0 Ti0 2.609376 1_656
Si0 Ti0 2.609376 1_665
Si0 Ti0 2.609376 1_666
Si0 Ti1 3.013048 1_556
Si0 Ti1 3.013048 1_655
Si0 Ti1 3.013048 1_566
Si0 Ti1 3.013048 1_565
Si0 Ti1 3.013048 1_665
Si0 Ti1 3.013048 1_656
