# generated using pymatgen
data_K2LiGaAs2
_symmetry_space_group_name_H-M   'P 1'
_cell_length_a   10.00776545
_cell_length_b   10.00776545
_cell_length_c   6.28527900
_cell_angle_alpha   90.00000000
_cell_angle_beta   90.00000000
_cell_angle_gamma   102.04872888
_symmetry_Int_Tables_number   1
_chemical_formula_structural   K2LiGaAs2
_chemical_formula_sum   'K8 Li4 Ga4 As8'
_cell_volume   615.63672291
_cell_formula_units_Z   4
loop_
 _symmetry_equiv_pos_site_id
 _symmetry_equiv_pos_as_xyz
  1  'x, y, z'
loop_
 _atom_site_type_symbol
 _atom_site_label
 _atom_site_symmetry_multiplicity
 _atom_site_fract_x
 _atom_site_fract_y
 _atom_site_fract_z
 _atom_site_occupancy
  K  K0  1  0.07778000  0.42222000  0.75000000  1
  K  K1  1  0.67061900  0.32938100  0.78037900  1
  K  K2  1  0.32938100  0.67061900  0.21962100  1
  K  K3  1  0.57778000  0.92222000  0.75000000  1
  K  K4  1  0.42222000  0.07778000  0.25000000  1
  K  K5  1  0.92222000  0.57778000  0.25000000  1
  K  K6  1  0.82938100  0.17061900  0.28037900  1
  K  K7  1  0.17061900  0.82938100  0.71962100  1
  Li  Li0  1  0.12008500  0.12008500  0.50000000  1
  Li  Li1  1  0.87991500  0.87991500  0.50000000  1
  Li  Li2  1  0.37991500  0.37991500  0.00000000  1
  Li  Li3  1  0.62008500  0.62008500  0.00000000  1
  Ga  Ga0  1  0.86848700  0.86848700  0.00000000  1
  Ga  Ga1  1  0.36848700  0.36848700  0.50000000  1
  Ga  Ga2  1  0.63151300  0.63151300  0.50000000  1
  Ga  Ga3  1  0.13151300  0.13151300  0.00000000  1
  As  As0  1  0.84300300  0.65699700  0.75000000  1
  As  As1  1  0.09270400  0.90729600  0.21284000  1
  As  As2  1  0.40729600  0.59270400  0.71284000  1
  As  As3  1  0.59270400  0.40729600  0.28716000  1
  As  As4  1  0.65699700  0.84300300  0.25000000  1
  As  As5  1  0.15699700  0.34300300  0.25000000  1
  As  As6  1  0.34300300  0.15699700  0.75000000  1
  As  As7  1  0.90729600  0.09270400  0.78716000  1
loop_
_geom_bond_atom_site_label_1
_geom_bond_atom_site_label_2
_geom_bond_distance
_geom_bond_site_symmetry_2
Ga0 K5 3.446093 1_555
Ga0 K3 3.446093 1_554
Ga1 K0 3.446093 1_555
Ga1 K4 3.446093 1_555
Ga2 K3 3.446093 1_555
Ga2 K5 3.446093 1_555
Ga3 K4 3.446093 1_555
Ga3 K0 3.446093 1_554
As0 Ga2 2.605472 1_555
As0 Ga0 2.605472 1_556
As0 Li3 2.690430 1_556
As0 Li1 2.690430 1_555
As0 K5 3.375736 1_556
As0 K5 3.375736 1_555
As0 K1 3.376558 1_555
As0 K7 3.376558 1_655
As0 K0 3.653211 1_655
As1 Ga3 2.571330 1_565
As1 Ga0 2.571330 1_455
As1 Li0 2.761161 1_565
As1 Li1 2.761161 1_455
As1 K7 3.328662 1_554
As1 K5 3.389915 1_455
As1 K4 3.389915 1_565
As1 K7 3.408190 1_555
As1 K2 3.683022 1_555
As2 Ga2 2.571330 1_555
As2 Ga1 2.571330 1_555
As2 Li2 2.761161 1_556
As2 Li3 2.761161 1_556
As2 K2 3.328662 1_555
As2 K0 3.389915 1_555
As2 K3 3.389915 1_555
As2 K2 3.408190 1_556
As2 K7 3.683022 1_555
As3 Ga1 2.571330 1_555
As3 Ga2 2.571330 1_555
As3 Li2 2.761161 1_555
As3 Li3 2.761161 1_555
As3 K1 3.328662 1_555
As3 K4 3.389915 1_555
As3 K5 3.389915 1_555
As3 K1 3.408190 1_554
As3 K6 3.683022 1_555
As4 Ga2 2.605472 1_555
As4 Ga0 2.605472 1_555
As4 Li3 2.690430 1_555
As4 Li1 2.690430 1_555
As4 K3 3.375736 1_555
As4 K3 3.375736 1_554
As4 K2 3.376558 1_555
As4 K6 3.376558 1_565
As4 K4 3.653211 1_565
As5 Ga1 2.605472 1_555
As5 Ga3 2.605472 1_555
As5 Li2 2.690430 1_555
As5 Li0 2.690430 1_555
As5 K0 3.375736 1_554
As5 K0 3.375736 1_555
As5 K2 3.376558 1_555
As5 K6 3.376558 1_455
As5 K5 3.653211 1_455
As6 Ga1 2.605472 1_555
As6 Ga3 2.605472 1_556
As6 Li2 2.690430 1_556
As6 Li0 2.690430 1_555
As6 K4 3.375736 1_555
As6 K4 3.375736 1_556
As6 K1 3.376558 1_555
As6 K7 3.376558 1_545
As6 K3 3.653211 1_545
As7 Ga3 2.571330 1_656
As7 Ga0 2.571330 1_546
As7 Li1 2.761161 1_545
As7 Li0 2.761161 1_655
As7 K6 3.328662 1_556
As7 K3 3.389915 1_545
As7 K0 3.389915 1_655
As7 K6 3.408190 1_555
As7 K1 3.683022 1_555
