# generated using pymatgen
data_U3Sb4Rh3
_symmetry_space_group_name_H-M   'P 1'
_cell_length_a   8.31184855
_cell_length_b   8.31184855
_cell_length_c   8.31184855
_cell_angle_alpha   109.47122063
_cell_angle_beta   109.47122063
_cell_angle_gamma   109.47122063
_symmetry_Int_Tables_number   1
_chemical_formula_structural   U3Sb4Rh3
_chemical_formula_sum   'U6 Sb8 Rh6'
_cell_volume   442.04957148
_cell_formula_units_Z   2
loop_
 _symmetry_equiv_pos_site_id
 _symmetry_equiv_pos_as_xyz
  1  'x, y, z'
loop_
 _atom_site_type_symbol
 _atom_site_label
 _atom_site_symmetry_multiplicity
 _atom_site_fract_x
 _atom_site_fract_y
 _atom_site_fract_z
 _atom_site_occupancy
  U  U0  1  0.37500000  0.25000000  0.62500000  1
  U  U1  1  0.12500000  0.75000000  0.87500000  1
  U  U2  1  0.62500000  0.37500000  0.25000000  1
  U  U3  1  0.87500000  0.12500000  0.75000000  1
  U  U4  1  0.25000000  0.62500000  0.37500000  1
  U  U5  1  0.75000000  0.87500000  0.12500000  1
  Sb  Sb0  1  0.50000000  0.00000000  0.82443300  1
  Sb  Sb1  1  0.82443300  0.50000000  0.00000000  1
  Sb  Sb2  1  0.00000000  0.82443300  0.50000000  1
  Sb  Sb3  1  0.67556700  0.67556700  0.67556700  1
  Sb  Sb4  1  0.32443300  0.50000000  0.00000000  1
  Sb  Sb5  1  0.50000000  0.00000000  0.32443300  1
  Sb  Sb6  1  0.00000000  0.32443300  0.50000000  1
  Sb  Sb7  1  0.17556700  0.17556700  0.17556700  1
  Rh  Rh0  1  0.87500000  0.25000000  0.12500000  1
  Rh  Rh1  1  0.62500000  0.75000000  0.37500000  1
  Rh  Rh2  1  0.12500000  0.87500000  0.25000000  1
  Rh  Rh3  1  0.37500000  0.62500000  0.75000000  1
  Rh  Rh4  1  0.25000000  0.12500000  0.87500000  1
  Rh  Rh5  1  0.75000000  0.37500000  0.62500000  1
loop_
_geom_bond_atom_site_label_1
_geom_bond_atom_site_label_2
_geom_bond_distance
_geom_bond_site_symmetry_2
Sb0 U3 3.276084 1_555
Sb0 U4 3.276084 1_545
Sb0 U0 3.276084 1_555
Sb0 U5 3.368623 1_546
Sb0 U2 3.368623 1_556
Sb0 U1 3.368623 1_545
Sb1 U2 3.276084 1_555
Sb1 U0 3.276084 1_554
Sb1 U5 3.276084 1_555
Sb1 U3 3.368623 1_554
Sb1 U4 3.368623 1_655
Sb1 U1 3.368623 1_654
Sb2 U4 3.276084 1_555
Sb2 U2 3.276084 1_455
Sb2 U1 3.276084 1_555
Sb2 U5 3.368623 1_455
Sb2 U0 3.368623 1_565
Sb2 U3 3.368623 1_465
Sb3 U5 3.276084 1_556
Sb3 U1 3.276084 1_655
Sb3 U3 3.276084 1_565
Sb3 U2 3.368623 1_555
Sb3 U4 3.368623 1_555
Sb3 U0 3.368623 1_555
Sb4 U3 3.276084 1_454
Sb4 U1 3.276084 1_554
Sb4 U4 3.276084 1_555
Sb4 U2 3.368623 1_555
Sb4 U0 3.368623 1_554
Sb4 U5 3.368623 1_555
Sb5 U2 3.276084 1_555
Sb5 U1 3.276084 1_544
Sb5 U5 3.276084 1_545
Sb5 U3 3.368623 1_555
Sb5 U4 3.368623 1_545
Sb5 U0 3.368623 1_555
Sb6 U0 3.276084 1_555
Sb6 U3 3.276084 1_455
Sb6 U5 3.276084 1_445
Sb6 U2 3.368623 1_455
Sb6 U1 3.368623 1_555
Sb6 U4 3.368623 1_555
Sb7 U4 3.276084 1_555
Sb7 U2 3.276084 1_555
Sb7 U0 3.276084 1_555
Sb7 U3 3.368623 1_454
Sb7 U1 3.368623 1_544
Sb7 U5 3.368623 1_445
Rh0 Sb0 2.702684 1_554
Rh0 Sb1 2.702684 1_555
Rh0 Sb7 2.702684 1_655
Rh0 Sb6 2.702684 1_655
Rh0 U5 2.938682 1_545
Rh0 U4 2.938682 1_655
Rh0 U3 2.938682 1_554
Rh0 U2 2.938682 1_555
Rh1 Sb3 2.702684 1_555
Rh1 Sb2 2.702684 1_655
Rh1 Sb4 2.702684 1_555
Rh1 Sb5 2.702684 1_565
Rh1 U3 2.938682 1_565
Rh1 U4 2.938682 1_555
Rh1 U5 2.938682 1_555
Rh1 U2 2.938682 1_555
Rh2 Sb2 2.702684 1_555
Rh2 Sb1 2.702684 1_455
Rh2 Sb7 2.702684 1_565
Rh2 Sb5 2.702684 1_565
Rh2 U4 2.938682 1_555
Rh2 U1 2.938682 1_554
Rh2 U0 2.938682 1_565
Rh2 U5 2.938682 1_455
Rh3 Sb3 2.702684 1_555
Rh3 Sb0 2.702684 1_565
Rh3 Sb4 2.702684 1_556
Rh3 Sb6 2.702684 1_555
Rh3 U1 2.938682 1_555
Rh3 U4 2.938682 1_555
Rh3 U5 2.938682 1_556
Rh3 U0 2.938682 1_555
Rh4 Sb2 2.702684 1_545
Rh4 Sb0 2.702684 1_555
Rh4 Sb7 2.702684 1_556
Rh4 Sb4 2.702684 1_556
Rh4 U3 2.938682 1_455
Rh4 U2 2.938682 1_556
Rh4 U1 2.938682 1_545
Rh4 U0 2.938682 1_555
Rh5 Sb3 2.702684 1_555
Rh5 Sb1 2.702684 1_556
Rh5 Sb6 2.702684 1_655
Rh5 Sb5 2.702684 1_555
Rh5 U1 2.938682 1_655
Rh5 U3 2.938682 1_555
Rh5 U2 2.938682 1_555
Rh5 U0 2.938682 1_555
