# generated using pymatgen
data_RbSnF3
_symmetry_space_group_name_H-M   'P 1'
_cell_length_a   4.60990800
_cell_length_b   4.63933808
_cell_length_c   5.30034890
_cell_angle_alpha   96.68175125
_cell_angle_beta   94.43941503
_cell_angle_gamma   89.56276906
_symmetry_Int_Tables_number   1
_chemical_formula_structural   RbSnF3
_chemical_formula_sum   'Rb1 Sn1 F3'
_cell_volume   112.25028907
_cell_formula_units_Z   1
loop_
 _symmetry_equiv_pos_site_id
 _symmetry_equiv_pos_as_xyz
  1  'x, y, z'
loop_
 _atom_site_type_symbol
 _atom_site_label
 _atom_site_symmetry_multiplicity
 _atom_site_fract_x
 _atom_site_fract_y
 _atom_site_fract_z
 _atom_site_occupancy
  Rb  Rb0  1  0.02360400  0.03384500  0.92031400  1
  Sn  Sn0  1  0.49258200  0.48529900  0.49055300  1
  F  F0  1  0.97546500  0.49701700  0.56884500  1
  F  F1  1  0.51193800  0.51341300  0.88897000  1
  F  F2  1  0.49641100  0.96042700  0.57131600  1
loop_
_geom_bond_atom_site_label_1
_geom_bond_atom_site_label_2
_geom_bond_distance
_geom_bond_site_symmetry_2
F0 Sn0 2.232495 1_555
F0 Sn0 2.450280 1_655
F0 Rb0 2.930384 1_665
F0 Rb0 2.999555 1_655
F1 Sn0 2.095559 1_555
F1 Rb0 3.204033 1_555
F1 Rb0 3.238296 1_655
F1 Rb0 3.287340 1_565
F1 Rb0 3.369532 1_665
F2 Sn0 2.195962 1_555
F2 Sn0 2.520677 1_565
F2 Rb0 2.935009 1_665
F2 Rb0 2.958830 1_565
