# generated using pymatgen
data_NdDy3
_symmetry_space_group_name_H-M   'P 1'
_cell_length_a   5.06544256
_cell_length_b   5.06330699
_cell_length_c   5.06414558
_cell_angle_alpha   90.03760265
_cell_angle_beta   89.99629215
_cell_angle_gamma   90.00229296
_symmetry_Int_Tables_number   1
_chemical_formula_structural   NdDy3
_chemical_formula_sum   'Nd1 Dy3'
_cell_volume   129.88462415
_cell_formula_units_Z   1
loop_
 _symmetry_equiv_pos_site_id
 _symmetry_equiv_pos_as_xyz
  1  'x, y, z'
loop_
 _atom_site_type_symbol
 _atom_site_label
 _atom_site_symmetry_multiplicity
 _atom_site_fract_x
 _atom_site_fract_y
 _atom_site_fract_z
 _atom_site_occupancy
  Nd  Nd0  1  0.99999850  0.00000280  0.00000569  1
  Dy  Dy0  1  0.00000217  0.50000150  0.49999864  1
  Dy  Dy1  1  0.50000151  0.49999976  0.00000564  1
  Dy  Dy2  1  0.50000182  0.99999894  0.49999303  1
loop_
_geom_bond_atom_site_label_1
_geom_bond_atom_site_label_2
_geom_bond_distance
_geom_bond_site_symmetry_2
Dy0 Nd0 3.579390 1_455
Dy0 Nd0 3.579450 1_466
Dy0 Dy2 3.580972 1_555
Dy0 Dy2 3.580993 1_445
Dy0 Dy2 3.581118 1_455
Dy0 Dy2 3.581133 1_545
Dy0 Dy1 3.581207 1_555
Dy0 Dy1 3.581262 1_456
Dy0 Dy1 3.581443 1_455
Dy0 Dy1 3.581489 1_556
Dy0 Nd0 3.581749 1_465
Dy0 Nd0 3.581791 1_456
Dy1 Dy2 3.579372 1_555
Dy1 Dy2 3.579468 1_544
Dy1 Nd0 3.580982 1_455
Dy1 Nd0 3.580982 1_565
Dy1 Nd0 3.581104 1_555
Dy1 Nd0 3.581147 1_465
Dy1 Dy2 3.581728 1_545
Dy1 Dy2 3.581812 1_554
Dy2 Nd0 3.581177 1_565
Dy2 Nd0 3.581292 1_466
Dy2 Nd0 3.581433 1_465
Dy2 Nd0 3.581500 1_566
