# generated using pymatgen
data_HoGa2Pd
_symmetry_space_group_name_H-M   'P 1'
_cell_length_a   5.48825473
_cell_length_b   5.48825473
_cell_length_c   6.54531146
_cell_angle_alpha   90.00000000
_cell_angle_beta   90.00000000
_cell_angle_gamma   47.18429333
_symmetry_Int_Tables_number   1
_chemical_formula_structural   HoGa2Pd
_chemical_formula_sum   'Ho2 Ga4 Pd2'
_cell_volume   144.61880141
_cell_formula_units_Z   2
loop_
 _symmetry_equiv_pos_site_id
 _symmetry_equiv_pos_as_xyz
  1  'x, y, z'
loop_
 _atom_site_type_symbol
 _atom_site_label
 _atom_site_symmetry_multiplicity
 _atom_site_fract_x
 _atom_site_fract_y
 _atom_site_fract_z
 _atom_site_occupancy
  Ho  Ho0  1  0.41176965  0.41176965  0.25000000  1
  Ho  Ho1  1  0.58822935  0.58822935  0.75000000  1
  Ga  Ga0  1  0.12721014  0.12721014  0.05440001  1
  Ga  Ga1  1  0.87278886  0.87278886  0.55440101  1
  Ga  Ga2  1  0.87278886  0.87278886  0.94559999  1
  Ga  Ga3  1  0.12721014  0.12721014  0.44559899  1
  Pd  Pd0  1  0.70136355  0.70136355  0.25000000  1
  Pd  Pd1  1  0.29863645  0.29863645  0.75000000  1
loop_
_geom_bond_atom_site_label_1
_geom_bond_atom_site_label_2
_geom_bond_distance
_geom_bond_site_symmetry_2
Ho0 Pd0 2.913044 1_555
Ho0 Pd0 3.050289 1_545
Ho0 Pd0 3.050289 1_455
Ho0 Pd1 3.464874 1_555
Ho0 Pd1 3.464874 1_554
Ho1 Pd1 2.913034 1_555
Ho1 Pd1 3.050296 1_655
Ho1 Pd1 3.050296 1_565
Ho1 Pd0 3.464877 1_555
Ho1 Pd0 3.464877 1_556
Ga0 Ga3 2.560519 1_555
Ga0 Pd1 2.634985 1_554
Ga0 Pd0 2.649565 1_455
Ga0 Pd0 2.649565 1_545
Ga0 Ga2 2.656472 1_444
Ga0 Ho1 2.991340 1_544
Ga0 Ho1 2.991340 1_454
Ga0 Ho0 3.135670 1_555
Ga0 Ho0 3.340698 1_455
Ga0 Ho0 3.340698 1_545
Ga1 Ga2 2.560519 1_555
Ga1 Pd0 2.634983 1_555
Ga1 Pd1 2.649559 1_565
Ga1 Pd1 2.649559 1_655
Ga1 Ga3 2.656475 1_665
Ga1 Ho0 2.991344 1_655
Ga1 Ho0 2.991344 1_565
Ga1 Ho1 3.135667 1_555
Ga1 Ho1 3.340695 1_655
Ga1 Ho1 3.340695 1_565
Ga2 Pd0 2.634978 1_556
Ga2 Pd1 2.649563 1_565
Ga2 Pd1 2.649563 1_655
Ga2 Ho0 2.991340 1_656
Ga2 Ho0 2.991340 1_566
Ga2 Ho1 3.135670 1_555
Ga2 Ho1 3.340698 1_655
Ga2 Ho1 3.340698 1_565
Ga3 Pd1 2.634990 1_555
Ga3 Pd0 2.649562 1_455
Ga3 Pd0 2.649562 1_545
Ga3 Ho1 2.991344 1_455
Ga3 Ho1 2.991344 1_545
Ga3 Ho0 3.135667 1_555
Ga3 Ho0 3.340695 1_455
Ga3 Ho0 3.340695 1_545
