# generated using pymatgen
data_SmTmTl2
_symmetry_space_group_name_H-M   'P 1'
_cell_length_a   5.35397068
_cell_length_b   5.35396554
_cell_length_c   5.35396481
_cell_angle_alpha   60.00009533
_cell_angle_beta   60.00009083
_cell_angle_gamma   60.00004994
_symmetry_Int_Tables_number   1
_chemical_formula_structural   SmTmTl2
_chemical_formula_sum   'Sm1 Tm1 Tl2'
_cell_volume   108.52076568
_cell_formula_units_Z   1
loop_
 _symmetry_equiv_pos_site_id
 _symmetry_equiv_pos_as_xyz
  1  'x, y, z'
loop_
 _atom_site_type_symbol
 _atom_site_label
 _atom_site_symmetry_multiplicity
 _atom_site_fract_x
 _atom_site_fract_y
 _atom_site_fract_z
 _atom_site_occupancy
  Sm  Sm0  1  0.25000000  0.25000000  0.25000000  1
  Tm  Tm0  1  0.75000100  0.74999900  0.75000000  1
  Tl  Tl0  1  0.00000000  -0.00000000  -0.00000000  1
  Tl  Tl1  1  0.49999900  0.50000000  0.49999900  1
loop_
_geom_bond_atom_site_label_1
_geom_bond_atom_site_label_2
_geom_bond_distance
_geom_bond_site_symmetry_2
Sm0 Tl1 3.278611 1_555
Sm0 Tl0 3.278620 1_555
Sm0 Tl0 3.278624 1_565
Sm0 Tl1 3.278624 1_545
Sm0 Tl0 3.278625 1_556
Sm0 Tl0 3.278627 1_655
Sm0 Tl1 3.278629 1_554
Sm0 Tl1 3.278631 1_455
Tl0 Tm0 3.278619 1_454
Tl0 Tm0 3.278620 1_444
Tl0 Tm0 3.278625 1_445
Tl0 Tm0 3.278631 1_544
Tl1 Tm0 3.278618 1_455
Tl1 Tm0 3.278620 1_554
Tl1 Tm0 3.278628 1_545
Tl1 Tm0 3.278629 1_555
