# generated using pymatgen
data_Nd3AlNiS7
_symmetry_space_group_name_H-M   'P 1'
_cell_length_a   10.01488763
_cell_length_b   10.01488763
_cell_length_c   6.02138600
_cell_angle_alpha   90.00000000
_cell_angle_beta   90.00000000
_cell_angle_gamma   119.99999757
_symmetry_Int_Tables_number   1
_chemical_formula_structural   Nd3AlNiS7
_chemical_formula_sum   'Nd6 Al2 Ni2 S14'
_cell_volume   523.02117558
_cell_formula_units_Z   2
loop_
 _symmetry_equiv_pos_site_id
 _symmetry_equiv_pos_as_xyz
  1  'x, y, z'
loop_
 _atom_site_type_symbol
 _atom_site_label
 _atom_site_symmetry_multiplicity
 _atom_site_fract_x
 _atom_site_fract_y
 _atom_site_fract_z
 _atom_site_occupancy
  Nd  Nd0  1  0.14043900  0.37222200  0.22912000  1
  Nd  Nd1  1  0.85956100  0.62777800  0.72912000  1
  Nd  Nd2  1  0.62777800  0.76821700  0.22912000  1
  Nd  Nd3  1  0.23178300  0.85956100  0.22912000  1
  Nd  Nd4  1  0.76821700  0.14043900  0.72912000  1
  Nd  Nd5  1  0.37222200  0.23178300  0.72912000  1
  Al  Al0  1  0.33333300  0.66666700  0.65211100  1
  Al  Al1  1  0.66666700  0.33333300  0.15211100  1
  Ni  Ni0  1  0.00000000  0.00000000  0.00415300  1
  Ni  Ni1  1  0.00000000  0.00000000  0.50415300  1
  S  S0  1  0.33333300  0.66666700  0.02128600  1
  S  S1  1  0.66666700  0.33333300  0.52128600  1
  S  S2  1  0.42000100  0.51757700  0.50354100  1
  S  S3  1  0.57999900  0.48242300  0.00354100  1
  S  S4  1  0.48242300  0.90242400  0.50354100  1
  S  S5  1  0.09757600  0.57999900  0.50354100  1
  S  S6  1  0.90242400  0.42000100  0.00354100  1
  S  S7  1  0.51757700  0.09757600  0.00354100  1
  S  S8  1  0.08702600  0.22771700  0.76880900  1
  S  S9  1  0.91297400  0.77228300  0.26880900  1
  S  S10  1  0.77228300  0.85930900  0.76880900  1
  S  S11  1  0.14069100  0.91297400  0.76880900  1
  S  S12  1  0.85930900  0.08702600  0.26880900  1
  S  S13  1  0.22771700  0.14069100  0.26880900  1
loop_
_geom_bond_atom_site_label_1
_geom_bond_atom_site_label_2
_geom_bond_distance
_geom_bond_site_symmetry_2
Nd0 S12 2.846116 1_455
Nd0 S5 2.852704 1_555
Nd0 S13 2.867846 1_555
Nd0 S0 2.880460 1_555
Nd0 S2 2.934725 1_555
Nd0 S6 2.982706 1_455
Nd0 S8 3.047748 1_554
Nd0 S8 3.488092 1_555
Nd1 S11 2.846116 1_655
Nd1 S6 2.852704 1_556
Nd1 S10 2.867846 1_555
Nd1 S1 2.880460 1_555
Nd1 S3 2.934725 1_556
Nd1 S5 2.982706 1_655
Nd1 S9 3.047748 1_555
Nd1 S9 3.488092 1_556
Nd2 S9 2.846116 1_555
Nd2 S2 2.852704 1_555
Nd2 S12 2.867846 1_565
Nd2 S0 2.880461 1_555
Nd2 S4 2.934725 1_555
Nd2 S3 2.982706 1_555
Nd2 S10 3.047748 1_554
Nd2 S10 3.488092 1_555
Nd3 S13 2.846116 1_565
Nd3 S4 2.852704 1_555
Nd3 S9 2.867846 1_455
Nd3 S0 2.880453 1_555
Nd3 S5 2.934725 1_555
Nd3 S7 2.982706 1_565
Nd3 S11 3.047748 1_554
Nd3 S11 3.488092 1_555
Nd4 S10 2.846116 1_545
Nd4 S7 2.852704 1_556
Nd4 S8 2.867846 1_655
Nd4 S1 2.880453 1_555
Nd4 S6 2.934725 1_556
Nd4 S4 2.982706 1_545
Nd4 S12 3.047748 1_555
Nd4 S12 3.488092 1_556
Nd5 S8 2.846116 1_555
Nd5 S3 2.852704 1_556
Nd5 S11 2.867846 1_545
Nd5 S1 2.880461 1_555
Nd5 S7 2.934725 1_556
Nd5 S2 2.982706 1_555
Nd5 S13 3.047748 1_555
Nd5 S13 3.488092 1_556
Al0 S0 2.222945 1_556
Al0 S5 2.253670 1_555
Al0 S4 2.253671 1_555
Al0 S2 2.253678 1_555
Al1 S1 2.222945 1_555
Al1 S6 2.253670 1_555
Al1 S7 2.253671 1_555
Al1 S3 2.253678 1_555
Ni0 S11 2.445627 1_544
Ni0 S8 2.445627 1_554
Ni0 S10 2.445627 1_444
Ni0 S12 2.551955 1_455
Ni0 S9 2.551956 1_445
Ni0 S13 2.551956 1_555
Ni1 S12 2.445627 1_455
Ni1 S9 2.445627 1_445
Ni1 S13 2.445627 1_555
Ni1 S11 2.551955 1_545
Ni1 S8 2.551956 1_555
Ni1 S10 2.551956 1_445
