# generated using pymatgen
data_KLa3
_symmetry_space_group_name_H-M   'P 1'
_cell_length_a   6.71545475
_cell_length_b   6.71545475
_cell_length_c   6.71545475
_cell_angle_alpha   132.29149451
_cell_angle_beta   132.29149451
_cell_angle_gamma   69.76903081
_symmetry_Int_Tables_number   1
_chemical_formula_structural   KLa3
_chemical_formula_sum   'K1 La3'
_cell_volume   162.52095427
_cell_formula_units_Z   1
loop_
 _symmetry_equiv_pos_site_id
 _symmetry_equiv_pos_as_xyz
  1  'x, y, z'
loop_
 _atom_site_type_symbol
 _atom_site_label
 _atom_site_symmetry_multiplicity
 _atom_site_fract_x
 _atom_site_fract_y
 _atom_site_fract_z
 _atom_site_occupancy
  K  K0  1  0.00000000  0.00000000  0.00000000  1
  La  La0  1  0.75000000  0.25000000  0.50000000  1
  La  La1  1  0.25000000  0.75000000  0.50000000  1
  La  La2  1  0.50000000  0.50000000  0.00000000  1
loop_
_geom_bond_atom_site_label_1
_geom_bond_atom_site_label_2
_geom_bond_distance
_geom_bond_site_symmetry_2
K0 La2 3.840731 1_455
K0 La2 3.840731 1_444
K0 La2 3.840731 1_556
K0 La2 3.840731 1_545
K0 La1 3.868092 1_555
K0 La1 3.868092 1_545
K0 La1 3.868092 1_444
K0 La1 3.868092 1_544
K0 La0 3.868092 1_455
K0 La0 3.868092 1_454
K0 La0 3.868092 1_555
K0 La0 3.868092 1_444
La0 La1 3.840731 1_645
La0 La1 3.840731 1_555
La0 La1 3.840731 1_544
La0 La1 3.840731 1_656
La0 La2 3.868092 1_656
La0 La2 3.868092 1_556
La0 La2 3.868092 1_555
La0 La2 3.868092 1_545
La1 La2 3.868092 1_455
La1 La2 3.868092 1_556
La1 La2 3.868092 1_555
La1 La2 3.868092 1_566
