# generated using pymatgen
data_Nd3IrO7
_symmetry_space_group_name_H-M   'P 1'
_cell_length_a   6.62010940
_cell_length_b   6.62010940
_cell_length_c   7.54129676
_cell_angle_alpha   90.00000000
_cell_angle_beta   90.00000000
_cell_angle_gamma   111.91291148
_symmetry_Int_Tables_number   1
_chemical_formula_structural   Nd3IrO7
_chemical_formula_sum   'Nd6 Ir2 O14'
_cell_volume   306.62555473
_cell_formula_units_Z   2
loop_
 _symmetry_equiv_pos_site_id
 _symmetry_equiv_pos_as_xyz
  1  'x, y, z'
loop_
 _atom_site_type_symbol
 _atom_site_label
 _atom_site_symmetry_multiplicity
 _atom_site_fract_x
 _atom_site_fract_y
 _atom_site_fract_z
 _atom_site_occupancy
  Nd  Nd0  1  0.00000000  0.00000000  -0.00000000  1
  Nd  Nd1  1  0.00000000  0.00000000  0.50000000  1
  Nd  Nd2  1  0.47178642  0.91449439  0.75000000  1
  Nd  Nd3  1  0.52821358  0.08550561  0.25000000  1
  Nd  Nd4  1  0.91449439  0.47178642  0.75000000  1
  Nd  Nd5  1  0.08550561  0.52821358  0.25000000  1
  Ir  Ir0  1  0.50000000  0.50000000  -0.00000000  1
  Ir  Ir1  1  0.50000000  0.50000000  0.50000000  1
  O  O0  1  0.59343804  0.59343804  0.75000000  1
  O  O1  1  0.40656196  0.40656196  0.25000000  1
  O  O2  1  0.84291264  0.10535601  0.75000000  1
  O  O3  1  0.15708736  0.89464399  0.25000000  1
  O  O4  1  0.10535601  0.84291264  0.75000000  1
  O  O5  1  0.89464399  0.15708736  0.25000000  1
  O  O6  1  0.44221157  0.18870940  0.95939792  1
  O  O7  1  0.55778843  0.81129060  0.45939792  1
  O  O8  1  0.18870940  0.44221157  0.95939792  1
  O  O9  1  0.81129060  0.55778843  0.45939792  1
  O  O10  1  0.44221157  0.18870940  0.54060208  1
  O  O11  1  0.55778843  0.81129060  0.04060208  1
  O  O12  1  0.81129060  0.55778843  0.04060208  1
  O  O13  1  0.18870940  0.44221157  0.54060208  1
loop_
_geom_bond_atom_site_label_1
_geom_bond_atom_site_label_2
_geom_bond_distance
_geom_bond_site_symmetry_2
Nd0 O5 2.379864 1_455
Nd0 O3 2.379864 1_545
Nd0 O2 2.379864 1_454
Nd0 O4 2.379864 1_544
Nd0 O6 2.737680 1_554
Nd0 O8 2.737680 1_554
Nd0 O12 2.737680 1_445
Nd0 O11 2.737680 1_445
Nd1 O5 2.379864 1_455
Nd1 O3 2.379864 1_545
Nd1 O2 2.379864 1_455
Nd1 O4 2.379864 1_545
Nd1 O10 2.737680 1_555
Nd1 O13 2.737680 1_555
Nd1 O7 2.737680 1_445
Nd1 O9 2.737680 1_445
Nd2 O4 2.291529 1_555
Nd2 O2 2.305595 1_565
Nd2 O7 2.425701 1_555
Nd2 O11 2.425701 1_556
Nd2 O10 2.468342 1_565
Nd2 O6 2.468342 1_565
Nd2 O0 2.538432 1_555
Nd3 O5 2.291529 1_555
Nd3 O3 2.305595 1_545
Nd3 O10 2.425701 1_555
Nd3 O6 2.425701 1_554
Nd3 O11 2.468342 1_545
Nd3 O7 2.468342 1_545
Nd3 O1 2.538432 1_555
Nd4 O2 2.291529 1_555
Nd4 O4 2.305595 1_655
Nd4 O9 2.425701 1_555
Nd4 O12 2.425701 1_556
Nd4 O13 2.468342 1_655
Nd4 O8 2.468342 1_655
Nd4 O0 2.538432 1_555
Nd5 O3 2.291529 1_555
Nd5 O5 2.305595 1_455
Nd5 O13 2.425701 1_555
Nd5 O8 2.425701 1_554
Nd5 O12 2.468342 1_455
Nd5 O9 2.468342 1_455
Nd5 O1 2.538432 1_555
Ir0 O8 1.974455 1_554
Ir0 O11 1.974455 1_555
Ir0 O6 1.974455 1_554
Ir0 O12 1.974455 1_555
Ir0 O0 2.008510 1_554
Ir0 O1 2.008510 1_555
Ir1 O13 1.974455 1_555
Ir1 O7 1.974455 1_555
Ir1 O10 1.974455 1_555
Ir1 O9 1.974455 1_555
Ir1 O0 2.008510 1_555
Ir1 O1 2.008510 1_555
