# generated using pymatgen
data_CaMoN3
_symmetry_space_group_name_H-M   'P 1'
_cell_length_a   3.58152400
_cell_length_b   4.40380800
_cell_length_c   10.17818471
_cell_angle_alpha   79.05024373
_cell_angle_beta   90.00000000
_cell_angle_gamma   90.00000000
_symmetry_Int_Tables_number   1
_chemical_formula_structural   CaMoN3
_chemical_formula_sum   'Ca2 Mo2 N6'
_cell_volume   157.61117289
_cell_formula_units_Z   2
loop_
 _symmetry_equiv_pos_site_id
 _symmetry_equiv_pos_as_xyz
  1  'x, y, z'
loop_
 _atom_site_type_symbol
 _atom_site_label
 _atom_site_symmetry_multiplicity
 _atom_site_fract_x
 _atom_site_fract_y
 _atom_site_fract_z
 _atom_site_occupancy
  Ca  Ca0  1  0.50000000  0.88732300  0.24206000  1
  Ca  Ca1  1  0.50000000  0.11267700  0.75794000  1
  Mo  Mo0  1  0.00000000  0.32420200  0.40680100  1
  Mo  Mo1  1  0.00000000  0.67579800  0.59319900  1
  N  N0  1  0.00000000  0.97282500  0.05968700  1
  N  N1  1  0.00000000  0.81795500  0.40079200  1
  N  N2  1  0.00000000  0.02717500  0.94031300  1
  N  N3  1  0.50000000  0.34865000  0.32671400  1
  N  N4  1  0.50000000  0.65135000  0.67328600  1
  N  N5  1  0.00000000  0.18204500  0.59920800  1
loop_
_geom_bond_atom_site_label_1
_geom_bond_atom_site_label_2
_geom_bond_distance
_geom_bond_site_symmetry_2
Ca0 N3 2.352610 1_565
Ca0 N3 2.365015 1_555
Ca0 N1 2.392244 1_655
Ca0 N1 2.392244 1_555
Ca0 N0 2.555124 1_555
Ca0 N0 2.555124 1_655
Ca1 N4 2.352610 1_545
Ca1 N4 2.365015 1_555
Ca1 N5 2.392244 1_555
Ca1 N5 2.392244 1_655
Ca1 N2 2.555124 1_555
Ca1 N2 2.555124 1_655
Mo0 N5 1.939411 1_555
Mo0 N3 1.962023 1_455
Mo0 N3 1.962023 1_555
Mo0 N1 2.163609 1_555
Mo0 N1 2.241836 1_545
Mo1 N1 1.939411 1_555
Mo1 N4 1.962023 1_555
Mo1 N4 1.962023 1_455
Mo1 N5 2.163609 1_555
Mo1 N5 2.241836 1_565
N0 N2 1.192921 1_564
