# generated using pymatgen
data_PtRh3
_symmetry_space_group_name_H-M   'P 1'
_cell_length_a   4.70612555
_cell_length_b   4.70612555
_cell_length_c   4.70612555
_cell_angle_alpha   131.86657667
_cell_angle_beta   131.86657667
_cell_angle_gamma   70.43983633
_symmetry_Int_Tables_number   1
_chemical_formula_structural   PtRh3
_chemical_formula_sum   'Pt1 Rh3'
_cell_volume   56.64187010
_cell_formula_units_Z   1
loop_
 _symmetry_equiv_pos_site_id
 _symmetry_equiv_pos_as_xyz
  1  'x, y, z'
loop_
 _atom_site_type_symbol
 _atom_site_label
 _atom_site_symmetry_multiplicity
 _atom_site_fract_x
 _atom_site_fract_y
 _atom_site_fract_z
 _atom_site_occupancy
  Pt  Pt0  1  0.00000000  0.00000000  0.00000000  1
  Rh  Rh0  1  0.75000100  0.25000000  0.50000100  1
  Rh  Rh1  1  0.25000000  0.75000100  0.50000100  1
  Rh  Rh2  1  0.50000000  0.50000000  0.00000000  1
loop_
_geom_bond_atom_site_label_1
_geom_bond_atom_site_label_2
_geom_bond_distance
_geom_bond_site_symmetry_2
Pt0 Rh2 2.714100 1_444
Pt0 Rh2 2.714100 1_545
Pt0 Rh2 2.714100 1_455
Pt0 Rh2 2.714100 1_556
Pt0 Rh1 2.716335 1_544
Pt0 Rh0 2.716335 1_454
Pt0 Rh0 2.716337 1_444
Pt0 Rh1 2.716337 1_444
Pt0 Rh0 2.716337 1_455
Pt0 Rh1 2.716337 1_545
Pt0 Rh0 2.716340 1_555
Pt0 Rh1 2.716340 1_555
Rh0 Rh1 2.714094 1_645
Rh0 Rh1 2.714100 1_656
Rh0 Rh1 2.714100 1_544
Rh0 Rh1 2.714105 1_555
Rh0 Rh2 2.716335 1_656
Rh0 Rh2 2.716337 1_556
Rh0 Rh2 2.716337 1_545
Rh0 Rh2 2.716340 1_555
Rh1 Rh2 2.716335 1_566
Rh1 Rh2 2.716337 1_556
Rh1 Rh2 2.716337 1_455
Rh1 Rh2 2.716340 1_555
