# generated using pymatgen
data_Na2ZrO3
_symmetry_space_group_name_H-M   'P 1'
_cell_length_a   5.61267079
_cell_length_b   5.61267079
_cell_length_c   11.03312248
_cell_angle_alpha   85.03736097
_cell_angle_beta   85.03736097
_cell_angle_gamma   120.06179335
_symmetry_Int_Tables_number   1
_chemical_formula_structural   Na2ZrO3
_chemical_formula_sum   'Na8 Zr4 O12'
_cell_volume   296.26866752
_cell_formula_units_Z   4
loop_
 _symmetry_equiv_pos_site_id
 _symmetry_equiv_pos_as_xyz
  1  'x, y, z'
loop_
 _atom_site_type_symbol
 _atom_site_label
 _atom_site_symmetry_multiplicity
 _atom_site_fract_x
 _atom_site_fract_y
 _atom_site_fract_z
 _atom_site_occupancy
  Na  Na0  1  0.08460259  0.91539741  0.75000000  1
  Na  Na1  1  0.91539741  0.08460259  0.25000000  1
  Na  Na2  1  -0.00000000  0.50000000  -0.00000000  1
  Na  Na3  1  0.50000000  -0.00000000  0.50000000  1
  Na  Na4  1  0.15791580  0.31589616  0.49992714  1
  Na  Na5  1  0.68410384  0.84208420  0.00007286  1
  Na  Na6  1  0.84208420  0.68410384  0.50007286  1
  Na  Na7  1  0.31589616  0.15791580  -0.00007286  1
  Zr  Zr0  1  0.41779543  0.58220457  0.75000000  1
  Zr  Zr1  1  0.58220457  0.41779543  0.25000000  1
  Zr  Zr2  1  0.24969957  0.75030043  0.25000000  1
  Zr  Zr3  1  0.75030043  0.24969957  0.75000000  1
  O  O0  1  0.32019801  0.48935807  0.14395078  1
  O  O1  1  0.51064193  0.67980199  0.35604922  1
  O  O2  1  0.67980199  0.51064193  0.85604922  1
  O  O3  1  0.48935807  0.32019801  0.64395078  1
  O  O4  1  0.12053439  0.58151599  0.64421782  1
  O  O5  1  0.41848401  0.87946561  0.85578218  1
  O  O6  1  0.87946561  0.41848401  0.35578218  1
  O  O7  1  0.58151599  0.12053439  0.14421782  1
  O  O8  1  0.04803540  0.24699256  0.85752937  1
  O  O9  1  0.75300744  0.95196460  0.64247063  1
  O  O10  1  0.95196460  0.75300744  0.14247063  1
  O  O11  1  0.24699256  0.04803540  0.35752937  1
loop_
_geom_bond_atom_site_label_1
_geom_bond_atom_site_label_2
_geom_bond_distance
_geom_bond_site_symmetry_2
Na0 O3 2.366652 1_565
Na0 O2 2.366652 1_455
Na0 O4 2.372946 1_555
Na0 O5 2.372946 1_555
Na0 O8 2.374033 1_565
Na0 O9 2.374033 1_455
Na1 O1 2.366652 1_545
Na1 O0 2.366652 1_655
Na1 O6 2.372946 1_555
Na1 O7 2.372946 1_555
Na1 O11 2.374033 1_655
Na1 O10 2.374033 1_545
Na2 O10 2.292710 1_455
Na2 O8 2.292710 1_554
Na2 O7 2.517947 1_455
Na2 O5 2.517947 1_554
Na2 O0 2.518094 1_555
Na2 O2 2.518094 1_454
Na3 O11 2.292710 1_555
Na3 O9 2.292710 1_545
Na3 O6 2.517947 1_555
Na3 O4 2.517947 1_545
Na3 O3 2.518094 1_555
Na3 O1 2.518094 1_545
Na4 O1 2.335637 1_555
Na4 O4 2.338208 1_555
Na4 O9 2.446540 1_445
Na4 O11 2.450377 1_555
Na4 O3 2.541515 1_555
Na4 O6 2.544888 1_455
Na5 O0 2.335637 1_555
Na5 O5 2.338208 1_554
Na5 O8 2.446540 1_664
Na5 O10 2.450377 1_555
Na5 O2 2.541515 1_554
Na5 O7 2.544888 1_565
Na6 O3 2.335637 1_555
Na6 O6 2.338208 1_555
Na6 O11 2.446540 1_665
Na6 O9 2.450377 1_555
Na6 O1 2.541515 1_555
Na6 O4 2.544888 1_655
Na7 O2 2.335637 1_554
Na7 O7 2.338208 1_555
Na7 O10 2.446540 1_445
Na7 O8 2.450377 1_554
Na7 O0 2.541515 1_555
Na7 O5 2.544888 1_544
O0 Zr2 2.113664 1_555
O0 Zr1 2.121565 1_555
O1 Zr2 2.113664 1_555
O1 Zr1 2.121565 1_555
O2 Zr3 2.113664 1_555
O2 Zr0 2.121565 1_555
O3 Zr3 2.113664 1_555
O3 Zr0 2.121565 1_555
O4 Zr3 2.115602 1_455
O4 Zr0 2.115898 1_555
O5 Zr3 2.115602 1_565
O5 Zr0 2.115898 1_555
O6 Zr2 2.115602 1_655
O6 Zr1 2.115898 1_555
O7 Zr2 2.115602 1_545
O7 Zr1 2.115898 1_555
O8 Zr0 2.128443 1_555
O8 Zr3 2.136727 1_455
O9 Zr0 2.128443 1_555
O9 Zr3 2.136727 1_565
O10 Zr1 2.128443 1_555
O10 Zr2 2.136727 1_655
O11 Zr1 2.128443 1_555
O11 Zr2 2.136727 1_545
