# generated using pymatgen
data_H4C2O
_symmetry_space_group_name_H-M   'P 1'
_cell_length_a   4.54885300
_cell_length_b   5.35150378
_cell_length_c   19.19558230
_cell_angle_alpha   86.69905006
_cell_angle_beta   87.45244874
_cell_angle_gamma   81.49752772
_symmetry_Int_Tables_number   1
_chemical_formula_structural   H4C2O
_chemical_formula_sum   'H28 C14 O7'
_cell_volume   461.07387354
_cell_formula_units_Z   7
loop_
 _symmetry_equiv_pos_site_id
 _symmetry_equiv_pos_as_xyz
  1  'x, y, z'
loop_
 _atom_site_type_symbol
 _atom_site_label
 _atom_site_symmetry_multiplicity
 _atom_site_fract_x
 _atom_site_fract_y
 _atom_site_fract_z
 _atom_site_occupancy
  H  H0  1  0.72720700  0.07876900  0.40777700  1
  H  H1  1  0.55592200  0.18603300  0.52675800  1
  H  H2  1  0.16021600  0.77034700  0.12011500  1
  H  H3  1  0.12880100  0.92060600  0.71658300  1
  H  H4  1  0.87791200  0.15583300  0.62745700  1
  H  H5  1  0.11822900  0.01619300  0.39398000  1
  H  H6  1  0.82384400  0.75217100  0.73938300  1
  H  H7  1  0.80950000  0.86906900  0.16256500  1
  H  H8  1  0.76921500  0.49567700  0.45721300  1
  H  H9  1  0.43836800  0.50724300  0.68293800  1
  H  H10  1  0.20379500  0.05353700  0.83017100  1
  H  H11  1  0.55529200  0.00381500  0.64494800  1
  H  H12  1  0.16221800  0.42794300  0.45081000  1
  H  H13  1  0.68748800  0.69542400  0.05897600  1
  H  H14  1  0.53448600  0.95651700  0.87626800  1
  H  H15  1  0.36515900  0.61225900  0.35739700  1
  H  H16  1  0.98874900  0.96400700  0.93884100  1
  H  H17  1  0.27352800  0.97496800  0.99883900  1
  H  H18  1  0.06423900  0.85807700  0.26387800  1
  H  H19  1  0.41822400  0.70051600  0.23401900  1
  H  H20  1  0.64873600  0.45409600  0.12536800  1
  H  H21  1  0.72634500  0.38203400  0.97953000  1
  H  H22  1  0.71814400  0.36641400  0.84209200  1
  H  H23  1  0.64216600  0.20320000  0.76778400  1
  H  H24  1  0.13961100  0.34480800  0.71579200  1
  H  H25  1  0.74106200  0.12676200  0.04321000  1
  H  H26  1  0.59068900  0.85141200  0.52422900  1
  H  H27  1  0.35052100  0.32655800  0.31525100  1
  C  C0  1  0.76967100  0.99232000  0.61466500  1
  C  C1  1  0.87918100  0.25131000  0.01273900  1
  C  C2  1  0.94102300  0.11303300  0.42787900  1
  C  C3  1  0.37580000  0.12490600  0.85945900  1
  C  C4  1  0.24748300  0.51508600  0.72095000  1
  C  C5  1  0.53940700  0.30432900  0.81335200  1
  C  C6  1  0.95618000  0.39720300  0.42620600  1
  C  C7  1  0.19473800  0.67015900  0.25499400  1
  C  C8  1  0.96455900  0.70049200  0.14659800  1
  C  C9  1  0.10414700  0.09374600  0.96686700  1
  C  C10  1  0.22875500  0.51805800  0.32373100  1
  C  C11  1  0.70796900  0.00824000  0.53762800  1
  C  C12  1  0.02702700  0.75201700  0.70529900  1
  C  C13  1  0.81248000  0.55833700  0.09636800  1
  O  O0  1  0.02518300  0.38861400  0.05882400  1
  O  O1  1  0.94175000  0.50964400  0.35695100  1
  O  O2  1  0.34710800  0.52785300  0.78984900  1
  O  O3  1  0.95601100  0.76160600  0.63366000  1
  O  O4  1  0.98089000  0.00391500  0.49729600  1
  O  O5  1  0.04959500  0.54110000  0.20657600  1
  O  O6  1  0.24208500  0.25563200  0.91795100  1
loop_
_geom_bond_atom_site_label_1
_geom_bond_atom_site_label_2
_geom_bond_distance
_geom_bond_site_symmetry_2
C0 H11 1.108446 1_565
C0 H4 1.109647 1_565
C0 O3 1.428984 1_555
C1 H21 1.106041 1_554
C1 H25 1.107868 1_555
C1 O0 1.426515 1_655
C2 H5 1.100203 1_655
C2 H0 1.105781 1_555
C2 O4 1.431780 1_555
C3 H10 1.107397 1_555
C3 H14 1.109989 1_545
C3 O6 1.422657 1_555
C4 H9 1.106596 1_555
C4 H24 1.108097 1_555
C4 O2 1.425496 1_555
C5 H22 1.103019 1_555
C5 H23 1.104471 1_555
C5 O2 1.436350 1_555
C6 H8 1.101759 1_555
C6 H12 1.105631 1_655
C6 O1 1.427452 1_555
C7 H19 1.107657 1_555
C7 H18 1.107705 1_555
C7 O5 1.428299 1_555
C8 H2 1.107511 1_655
C8 H7 1.108948 1_555
C8 O5 1.425364 1_655
C9 H16 1.105852 1_445
C9 H17 1.107536 1_545
C9 O6 1.428493 1_555
C10 H15 1.105628 1_555
C10 H27 1.107647 1_555
C10 O1 1.432889 1_455
C11 H1 1.105691 1_555
C11 H26 1.106610 1_545
C11 O4 1.431540 1_555
C12 H6 1.108322 1_455
C12 H3 1.109120 1_555
C12 O3 1.422848 1_455
C13 H20 1.107303 1_555
C13 H13 1.108580 1_555
C13 O0 1.426194 1_655
