# generated using pymatgen
data_Fe5B2P
_symmetry_space_group_name_H-M   'P 1'
_cell_length_a   5.48873633
_cell_length_b   5.48873099
_cell_length_c   6.43594629
_cell_angle_alpha   115.23125888
_cell_angle_beta   115.23116786
_cell_angle_gamma   90.00240253
_symmetry_Int_Tables_number   1
_chemical_formula_structural   Fe5B2P
_chemical_formula_sum   'Fe10 B4 P2'
_cell_volume   154.69611953
_cell_formula_units_Z   2
loop_
 _symmetry_equiv_pos_site_id
 _symmetry_equiv_pos_as_xyz
  1  'x, y, z'
loop_
 _atom_site_type_symbol
 _atom_site_label
 _atom_site_symmetry_multiplicity
 _atom_site_fract_x
 _atom_site_fract_y
 _atom_site_fract_z
 _atom_site_occupancy
  Fe  Fe0  1  0.49999891  0.49999992  0.00000031  1
  Fe  Fe1  1  0.46884154  0.30931809  0.27803920  1
  Fe  Fe2  1  0.30933235  0.80933068  0.27810556  1
  Fe  Fe3  1  0.53115656  0.69068158  0.72195880  1
  Fe  Fe4  1  0.19068313  0.03115875  0.72195954  1
  Fe  Fe5  1  0.03128780  0.53128592  0.72196273  1
  Fe  Fe6  1  0.69066817  0.19066835  0.72189320  1
  Fe  Fe7  1  0.96871240  0.46871405  0.27803685  1
  Fe  Fe8  1  0.00000109  0.99999888  0.00000025  1
  Fe  Fe9  1  0.80931809  0.96883989  0.27804004  1
  B  B0  1  0.38374564  0.88374425  0.00003613  1
  B  B1  1  0.11626925  0.38373142  0.00000196  1
  B  B2  1  0.61625919  0.11625796  -0.00003129  1
  B  B3  1  0.88373013  0.61627153  0.00000181  1
  P  P0  1  0.24998436  0.25001010  0.49999402  1
  P  P1  1  0.75001337  0.74998762  0.50000091  1
loop_
_geom_bond_atom_site_label_1
_geom_bond_atom_site_label_2
_geom_bond_distance
_geom_bond_site_symmetry_2
Fe0 Fe1 2.486822 1_555
Fe0 Fe3 2.486838 1_554
Fe0 Fe5 2.487424 1_554
Fe0 Fe7 2.487431 1_555
Fe0 Fe2 2.487518 1_555
Fe0 Fe6 2.487538 1_554
Fe0 Fe4 2.488031 1_554
Fe0 Fe9 2.488034 1_555
Fe0 P1 2.567472 1_555
Fe0 P0 2.567501 1_554
Fe1 P1 2.333886 1_555
Fe1 P0 2.334287 1_555
Fe1 Fe8 2.488038 1_545
Fe2 P0 2.334043 1_565
Fe2 P1 2.334053 1_555
Fe2 Fe8 2.487529 1_555
Fe3 P0 2.333893 1_555
Fe3 P1 2.334299 1_555
Fe3 Fe8 2.488050 1_656
Fe4 P1 2.333890 1_445
Fe4 P0 2.334309 1_555
Fe4 Fe8 2.486839 1_546
Fe5 P1 2.333878 1_455
Fe5 P0 2.333881 1_555
Fe5 Fe8 2.487428 1_556
Fe6 P1 2.334048 1_545
Fe6 P0 2.334067 1_555
Fe6 Fe8 2.487544 1_646
Fe7 P0 2.333865 1_655
Fe7 P1 2.333870 1_555
Fe7 Fe8 2.487439 1_645
Fe8 Fe9 2.486835 1_455
Fe8 P0 2.567436 1_565
Fe8 P1 2.567465 1_454
Fe9 P0 2.333876 1_665
Fe9 P1 2.334294 1_555
B0 B2 1.805051 1_565
B0 Fe3 2.144361 1_554
B0 Fe4 2.144373 1_564
B0 Fe1 2.144771 1_565
B0 Fe9 2.144771 1_555
B0 Fe2 2.186956 1_555
B0 Fe5 2.187280 1_554
B0 Fe0 2.200760 1_555
B0 Fe8 2.200765 1_555
B1 B3 1.805067 1_455
B1 Fe7 2.144648 1_455
B1 Fe5 2.144665 1_554
B1 Fe2 2.145137 1_555
B1 Fe6 2.145153 1_454
B1 Fe1 2.187399 1_555
B1 Fe4 2.187416 1_554
B1 Fe0 2.200729 1_555
B1 Fe8 2.200730 1_545
B2 Fe1 2.144352 1_555
B2 Fe9 2.144358 1_545
B2 Fe3 2.144788 1_544
B2 Fe4 2.144792 1_554
B2 Fe6 2.186972 1_554
B2 Fe7 2.187258 1_555
B2 Fe8 2.200766 1_645
B2 Fe0 2.200767 1_555
B3 Fe7 2.144652 1_555
B3 Fe5 2.144673 1_654
B3 Fe2 2.145149 1_655
B3 Fe6 2.145157 1_554
B3 Fe9 2.187384 1_555
B3 Fe3 2.187413 1_554
B3 Fe8 2.200719 1_655
B3 Fe0 2.200732 1_555
