# generated using pymatgen
data_NaZnAs(H2O3)2
_symmetry_space_group_name_H-M   'P 1'
_cell_length_a   5.75402100
_cell_length_b   6.21789649
_cell_length_c   7.95419985
_cell_angle_alpha   92.12646933
_cell_angle_beta   91.44311420
_cell_angle_gamma   91.38497793
_symmetry_Int_Tables_number   1
_chemical_formula_structural   NaZnAs(H2O3)2
_chemical_formula_sum   'Na2 Zn2 As2 H8 O12'
_cell_volume   284.20866128
_cell_formula_units_Z   2
loop_
 _symmetry_equiv_pos_site_id
 _symmetry_equiv_pos_as_xyz
  1  'x, y, z'
loop_
 _atom_site_type_symbol
 _atom_site_label
 _atom_site_symmetry_multiplicity
 _atom_site_fract_x
 _atom_site_fract_y
 _atom_site_fract_z
 _atom_site_occupancy
  Na  Na0  1  0.50000000  0.50000000  0.00000000  1
  Na  Na1  1  0.00000000  0.00000000  0.00000000  1
  Zn  Zn0  1  0.31349300  0.25352400  0.38806200  1
  Zn  Zn1  1  0.68650700  0.74647600  0.61193800  1
  As  As0  1  0.18738000  0.74860900  0.38212500  1
  As  As1  1  0.81262000  0.25139100  0.61787500  1
  H  H0  1  0.13154500  0.61096800  0.02613900  1
  H  H1  1  0.54058500  0.90514600  0.14926300  1
  H  H2  1  0.93763400  0.39696500  0.16738400  1
  H  H3  1  0.75042100  0.79455300  0.23120700  1
  H  H4  1  0.24957900  0.20544700  0.76879300  1
  H  H5  1  0.06236600  0.60303500  0.83261600  1
  H  H6  1  0.45941500  0.09485400  0.85073700  1
  H  H7  1  0.86845500  0.38903200  0.97386100  1
  O  O0  1  0.83300100  0.32452200  0.08146400  1
  O  O1  1  0.67591300  0.81942900  0.11842800  1
  O  O2  1  0.22532500  0.51511000  0.25438600  1
  O  O3  1  0.25834200  0.96768400  0.26155600  1
  O  O4  1  0.89398400  0.75746800  0.41747400  1
  O  O5  1  0.64828500  0.26374100  0.43849200  1
  O  O6  1  0.35171500  0.73625900  0.56150800  1
  O  O7  1  0.10601600  0.24253200  0.58252600  1
  O  O8  1  0.74165800  0.03231600  0.73844400  1
  O  O9  1  0.77467500  0.48489000  0.74561400  1
  O  O10  1  0.32408700  0.18057100  0.88157200  1
  O  O11  1  0.16699900  0.67547800  0.91853600  1
loop_
_geom_bond_atom_site_label_1
_geom_bond_atom_site_label_2
_geom_bond_distance
_geom_bond_site_symmetry_2
Na0 O0 2.317930 1_555
Na0 O11 2.317930 1_554
Na0 O1 2.360671 1_555
Na0 O10 2.360671 1_554
Na0 O2 2.599079 1_555
Na0 O9 2.599079 1_554
Na1 O0 2.333023 1_455
Na1 O11 2.333023 1_544
Na1 O10 2.385630 1_554
Na1 O1 2.385630 1_445
Na1 O3 2.543249 1_545
Na1 O8 2.543249 1_454
As0 O6 1.696942 1_555
As0 O4 1.720288 1_455
As0 O3 1.741205 1_555
As0 O2 1.762103 1_555
As1 O5 1.696942 1_555
As1 O7 1.720288 1_655
As1 O8 1.741205 1_555
As1 O9 1.762103 1_555
H0 O11 0.982541 1_554
H0 Na0 2.257520 1_555
H1 O1 0.985163 1_555
H2 O0 0.987808 1_555
H3 O1 1.003288 1_555
H3 O4 1.704002 1_555
H4 O10 1.003288 1_555
H4 O7 1.704002 1_555
H5 O11 0.987808 1_555
H6 O10 0.985163 1_555
H7 O0 0.982541 1_556
H7 Na0 2.257520 1_556
O2 Zn0 2.043175 1_555
O3 Zn0 2.023873 1_565
O4 Zn1 1.979751 1_555
O5 Zn0 1.956842 1_555
O6 Zn1 1.956842 1_555
O7 Zn0 1.979751 1_555
O8 Zn1 2.023873 1_545
O9 Zn1 2.043175 1_555
