# generated using pymatgen
data_SrLi2(SiN2)2
_symmetry_space_group_name_H-M   'P 1'
_cell_length_a   10.70433669
_cell_length_b   10.70433669
_cell_length_c   10.70433669
_cell_angle_alpha   90.00000000
_cell_angle_beta   90.00000000
_cell_angle_gamma   90.00000000
_symmetry_Int_Tables_number   1
_chemical_formula_structural   SrLi2(SiN2)2
_chemical_formula_sum   'Sr12 Li24 Si24 N48'
_cell_volume   1226.53312670
_cell_formula_units_Z   12
loop_
 _symmetry_equiv_pos_site_id
 _symmetry_equiv_pos_as_xyz
  1  'x, y, z'
loop_
 _atom_site_type_symbol
 _atom_site_label
 _atom_site_symmetry_multiplicity
 _atom_site_fract_x
 _atom_site_fract_y
 _atom_site_fract_z
 _atom_site_occupancy
  Sr  Sr0  1  0.50000000  0.00000000  0.00000000  1
  Sr  Sr1  1  -0.00000000  0.00000000  0.50000000  1
  Sr  Sr2  1  -0.00000000  0.50000000  0.00000000  1
  Sr  Sr3  1  0.50000000  0.50000000  0.50000000  1
  Sr  Sr4  1  0.21839281  0.21839281  0.21839281  1
  Sr  Sr5  1  0.28160719  0.78160719  0.71839281  1
  Sr  Sr6  1  0.71839281  0.28160719  0.78160719  1
  Sr  Sr7  1  0.78160719  0.71839281  0.28160719  1
  Sr  Sr8  1  0.78160719  0.78160719  0.78160719  1
  Sr  Sr9  1  0.71839281  0.21839281  0.28160719  1
  Sr  Sr10  1  0.28160719  0.71839281  0.21839281  1
  Sr  Sr11  1  0.21839281  0.28160719  0.71839281  1
  Li  Li0  1  0.23022168  0.97411171  0.10842750  1
  Li  Li1  1  0.26977832  0.02588829  0.60842750  1
  Li  Li2  1  0.73022168  0.52588829  0.89157250  1
  Li  Li3  1  0.76977832  0.47411171  0.39157250  1
  Li  Li4  1  0.10842750  0.23022168  0.97411171  1
  Li  Li5  1  0.97411171  0.10842750  0.23022168  1
  Li  Li6  1  0.39157250  0.76977832  0.47411171  1
  Li  Li7  1  0.02588829  0.60842750  0.26977832  1
  Li  Li8  1  0.60842750  0.26977832  0.02588829  1
  Li  Li9  1  0.52588829  0.89157250  0.73022168  1
  Li  Li10  1  0.89157250  0.73022168  0.52588829  1
  Li  Li11  1  0.47411171  0.39157250  0.76977832  1
  Li  Li12  1  0.76977832  0.02588829  0.89157250  1
  Li  Li13  1  0.73022168  0.97411171  0.39157250  1
  Li  Li14  1  0.26977832  0.47411171  0.10842750  1
  Li  Li15  1  0.23022168  0.52588829  0.60842750  1
  Li  Li16  1  0.89157250  0.76977832  0.02588829  1
  Li  Li17  1  0.02588829  0.89157250  0.76977832  1
  Li  Li18  1  0.60842750  0.23022168  0.52588829  1
  Li  Li19  1  0.97411171  0.39157250  0.73022168  1
  Li  Li20  1  0.39157250  0.73022168  0.97411171  1
  Li  Li21  1  0.47411171  0.10842750  0.26977832  1
  Li  Li22  1  0.10842750  0.26977832  0.47411171  1
  Li  Li23  1  0.52588829  0.60842750  0.23022168  1
  Si  Si0  1  0.47942016  0.37045789  0.24311438  1
  Si  Si1  1  0.02057984  0.62954211  0.74311438  1
  Si  Si2  1  0.97942016  0.12954211  0.75688562  1
  Si  Si3  1  0.52057984  0.87045789  0.25688562  1
  Si  Si4  1  0.24311438  0.47942016  0.37045789  1
  Si  Si5  1  0.37045789  0.24311438  0.47942016  1
  Si  Si6  1  0.25688562  0.52057984  0.87045789  1
  Si  Si7  1  0.62954211  0.74311438  0.02057984  1
  Si  Si8  1  0.74311438  0.02057984  0.62954211  1
  Si  Si9  1  0.12954211  0.75688562  0.97942016  1
  Si  Si10  1  0.75688562  0.97942016  0.12954211  1
  Si  Si11  1  0.87045789  0.25688562  0.52057984  1
  Si  Si12  1  0.52057984  0.62954211  0.75688562  1
  Si  Si13  1  0.97942016  0.37045789  0.25688562  1
  Si  Si14  1  0.02057984  0.87045789  0.24311438  1
  Si  Si15  1  0.47942016  0.12954211  0.74311438  1
  Si  Si16  1  0.75688562  0.52057984  0.62954211  1
  Si  Si17  1  0.62954211  0.75688562  0.52057984  1
  Si  Si18  1  0.74311438  0.47942016  0.12954211  1
  Si  Si19  1  0.37045789  0.25688562  0.97942016  1
  Si  Si20  1  0.25688562  0.97942016  0.37045789  1
  Si  Si21  1  0.87045789  0.24311438  0.02057984  1
  Si  Si22  1  0.24311438  0.02057984  0.87045789  1
  Si  Si23  1  0.12954211  0.74311438  0.47942016  1
  N  N0  1  0.27167251  0.12528970  0.99105861  1
  N  N1  1  0.22832749  0.87471030  0.49105861  1
  N  N2  1  0.77167251  0.37471030  0.00894139  1
  N  N3  1  0.72832749  0.62528970  0.50894139  1
  N  N4  1  0.99105861  0.27167251  0.12528970  1
  N  N5  1  0.12528970  0.99105861  0.27167251  1
  N  N6  1  0.50894139  0.72832749  0.62528970  1
  N  N7  1  0.87471030  0.49105861  0.22832749  1
  N  N8  1  0.49105861  0.22832749  0.87471030  1
  N  N9  1  0.37471030  0.00894139  0.77167251  1
  N  N10  1  0.00894139  0.77167251  0.37471030  1
  N  N11  1  0.62528970  0.50894139  0.72832749  1
  N  N12  1  0.72832749  0.87471030  0.00894139  1
  N  N13  1  0.77167251  0.12528970  0.50894139  1
  N  N14  1  0.22832749  0.62528970  0.99105861  1
  N  N15  1  0.27167251  0.37471030  0.49105861  1
  N  N16  1  0.00894139  0.72832749  0.87471030  1
  N  N17  1  0.87471030  0.00894139  0.72832749  1
  N  N18  1  0.49105861  0.27167251  0.37471030  1
  N  N19  1  0.12528970  0.50894139  0.77167251  1
  N  N20  1  0.50894139  0.77167251  0.12528970  1
  N  N21  1  0.62528970  0.99105861  0.22832749  1
  N  N22  1  0.99105861  0.22832749  0.62528970  1
  N  N23  1  0.37471030  0.49105861  0.27167251  1
  N  N24  1  0.26798979  0.12414259  0.44284451  1
  N  N25  1  0.23201021  0.87585741  0.94284451  1
  N  N26  1  0.76798979  0.37585741  0.55715549  1
  N  N27  1  0.73201021  0.62414259  0.05715549  1
  N  N28  1  0.44284451  0.26798979  0.12414259  1
  N  N29  1  0.12414259  0.44284451  0.26798979  1
  N  N30  1  0.05715549  0.73201021  0.62414259  1
  N  N31  1  0.87585741  0.94284451  0.23201021  1
  N  N32  1  0.94284451  0.23201021  0.87585741  1
  N  N33  1  0.37585741  0.55715549  0.76798979  1
  N  N34  1  0.55715549  0.76798979  0.37585741  1
  N  N35  1  0.62414259  0.05715549  0.73201021  1
  N  N36  1  0.73201021  0.87585741  0.55715549  1
  N  N37  1  0.76798979  0.12414259  0.05715549  1
  N  N38  1  0.23201021  0.62414259  0.44284451  1
  N  N39  1  0.26798979  0.37585741  0.94284451  1
  N  N40  1  0.55715549  0.73201021  0.87585741  1
  N  N41  1  0.87585741  0.55715549  0.73201021  1
  N  N42  1  0.94284451  0.26798979  0.37585741  1
  N  N43  1  0.12414259  0.05715549  0.76798979  1
  N  N44  1  0.05715549  0.76798979  0.12414259  1
  N  N45  1  0.62414259  0.44284451  0.23201021  1
  N  N46  1  0.44284451  0.23201021  0.62414259  1
  N  N47  1  0.37585741  0.94284451  0.26798979  1
loop_
_geom_bond_atom_site_label_1
_geom_bond_atom_site_label_2
_geom_bond_distance
_geom_bond_site_symmetry_2
Li0 N25 2.061101 1_554
Li0 N5 2.085200 1_555
Li0 N0 2.096204 1_564
Li0 N47 2.336576 1_555
Li1 N24 2.061101 1_555
Li1 N9 2.085200 1_555
Li1 N1 2.096204 1_545
Li1 N43 2.336576 1_555
Li2 N27 2.061101 1_556
Li2 N11 2.085200 1_555
Li2 N2 2.096204 1_556
Li2 N41 2.336576 1_555
Li3 N26 2.061101 1_555
Li3 N7 2.085200 1_555
Li3 N3 2.096204 1_555
Li3 N45 2.336576 1_555
Li4 N32 2.061101 1_455
Li4 N0 2.085200 1_555
Li4 N4 2.096204 1_456
Li4 N39 2.336576 1_555
Li5 N31 2.061101 1_545
Li5 N4 2.085200 1_555
Li5 N5 2.096204 1_645
Li5 N42 2.336576 1_555
Li6 N34 2.061101 1_555
Li6 N1 2.085200 1_555
Li6 N6 2.096204 1_555
Li6 N38 2.336576 1_555
Li7 N29 2.061101 1_555
Li7 N10 2.085200 1_555
Li7 N7 2.096204 1_455
Li7 N44 2.336576 1_555
Li8 N28 2.061101 1_555
Li8 N2 2.085200 1_555
Li8 N8 2.096204 1_554
Li8 N37 2.336576 1_555
Li9 N35 2.061101 1_565
Li9 N6 2.085200 1_555
Li9 N9 2.096204 1_565
Li9 N40 2.336576 1_555
Li10 N30 2.061101 1_655
Li10 N3 2.085200 1_555
Li10 N10 2.096204 1_655
Li10 N36 2.336576 1_555
Li11 N33 2.061101 1_555
Li11 N8 2.085200 1_555
Li11 N11 2.096204 1_555
Li11 N46 2.336576 1_555
Li12 N37 2.061101 1_556
Li12 N17 2.085200 1_555
Li12 N12 2.096204 1_546
Li12 N35 2.336576 1_555
Li13 N36 2.061101 1_555
Li13 N21 2.085200 1_555
Li13 N13 2.096204 1_565
Li13 N31 2.336576 1_555
Li14 N39 2.061101 1_554
Li14 N23 2.085200 1_555
Li14 N14 2.096204 1_554
Li14 N29 2.336576 1_555
Li15 N38 2.061101 1_555
Li15 N19 2.085200 1_555
Li15 N15 2.096204 1_555
Li15 N33 2.336576 1_555
Li16 N44 2.061101 1_655
Li16 N12 2.085200 1_555
Li16 N16 2.096204 1_654
Li16 N27 2.336576 1_555
Li17 N43 2.061101 1_565
Li17 N16 2.085200 1_555
Li17 N17 2.096204 1_465
Li17 N30 2.336576 1_555
Li18 N46 2.061101 1_555
Li18 N13 2.085200 1_555
Li18 N18 2.096204 1_555
Li18 N26 2.336576 1_555
Li19 N41 2.061101 1_555
Li19 N22 2.085200 1_555
Li19 N19 2.096204 1_655
Li19 N32 2.336576 1_555
Li20 N40 2.061101 1_555
Li20 N14 2.085200 1_555
Li20 N20 2.096204 1_556
Li20 N25 2.336576 1_555
Li21 N47 2.061101 1_545
Li21 N18 2.085200 1_555
Li21 N21 2.096204 1_545
Li21 N28 2.336576 1_555
Li22 N42 2.061101 1_455
Li22 N15 2.085200 1_555
Li22 N22 2.096204 1_455
Li22 N24 2.336576 1_555
Li23 N45 2.061101 1_555
Li23 N20 2.085200 1_555
Li23 N23 2.096204 1_555
Li23 N34 2.336576 1_555
N0 Si22 1.736752 1_555
N0 Si19 1.765777 1_555
N0 Sr4 2.690768 1_556
N0 Sr0 2.789520 1_556
N1 Si20 1.736752 1_555
N1 Si23 1.765777 1_555
N1 Sr5 2.690768 1_555
N1 Sr1 2.789520 1_565
N2 Si18 1.736752 1_555
N2 Si21 1.765777 1_555
N2 Sr6 2.690768 1_554
N2 Sr2 2.789520 1_655
N3 Si16 1.736752 1_555
N3 Si17 1.765777 1_555
N3 Sr7 2.690768 1_555
N3 Sr3 2.789520 1_555
N4 Si21 1.736752 1_555
N4 Si13 1.765777 1_555
N4 Sr4 2.690768 1_655
N4 Sr2 2.789520 1_655
N5 Si14 1.736752 1_555
N5 Si20 1.765777 1_555
N5 Sr4 2.690768 1_565
N5 Sr1 2.789520 1_565
N6 Si17 1.736752 1_555
N6 Si12 1.765777 1_555
N6 Sr5 2.690768 1_555
N6 Sr3 2.789520 1_555
N7 Si13 1.736752 1_555
N7 Si18 1.765777 1_555
N7 Sr7 2.690768 1_555
N7 Sr2 2.789520 1_655
N8 Si19 1.736752 1_555
N8 Si15 1.765777 1_555
N8 Sr6 2.690768 1_555
N8 Sr0 2.789520 1_556
N9 Si15 1.736752 1_555
N9 Si22 1.765777 1_555
N9 Sr5 2.690768 1_545
N9 Sr0 2.789520 1_556
N10 Si23 1.736752 1_555
N10 Si14 1.765777 1_555
N10 Sr7 2.690768 1_455
N10 Sr1 2.789520 1_565
N11 Si12 1.736752 1_555
N11 Si16 1.765777 1_555
N11 Sr6 2.690768 1_555
N11 Sr3 2.789520 1_555
N12 Si10 1.736752 1_555
N12 Si7 1.765777 1_555
N12 Sr8 2.690768 1_554
N12 Sr0 2.789520 1_565
N13 Si8 1.736752 1_555
N13 Si11 1.765777 1_555
N13 Sr9 2.690768 1_555
N13 Sr1 2.789520 1_655
N14 Si6 1.736752 1_555
N14 Si9 1.765777 1_555
N14 Sr10 2.690768 1_556
N14 Sr2 2.789520 1_556
N15 Si4 1.736752 1_555
N15 Si5 1.765777 1_555
N15 Sr11 2.690768 1_555
N15 Sr3 2.789520 1_555
N16 Si9 1.736752 1_555
N16 Si1 1.765777 1_555
N16 Sr8 2.690768 1_455
N16 Sr2 2.789520 1_556
N17 Si2 1.736752 1_555
N17 Si8 1.765777 1_555
N17 Sr8 2.690768 1_545
N17 Sr1 2.789520 1_655
N18 Si5 1.736752 1_555
N18 Si0 1.765777 1_555
N18 Sr9 2.690768 1_555
N18 Sr3 2.789520 1_555
N19 Si1 1.736752 1_555
N19 Si6 1.765777 1_555
N19 Sr11 2.690768 1_555
N19 Sr2 2.789520 1_556
N20 Si7 1.736752 1_555
N20 Si3 1.765777 1_555
N20 Sr10 2.690768 1_555
N20 Sr0 2.789520 1_565
N21 Si3 1.736752 1_555
N21 Si10 1.765777 1_555
N21 Sr9 2.690768 1_565
N21 Sr0 2.789520 1_565
N22 Si11 1.736752 1_555
N22 Si2 1.765777 1_555
N22 Sr11 2.690768 1_655
N22 Sr1 2.789520 1_655
N23 Si0 1.736752 1_555
N23 Si4 1.765777 1_555
N23 Sr10 2.690768 1_555
N23 Sr3 2.789520 1_555
N24 Si5 1.725749 1_555
N24 Si20 1.736206 1_545
N24 Sr4 2.659366 1_555
N25 Si9 1.725749 1_555
N25 Si22 1.736206 1_565
N25 Sr5 2.659366 1_555
N26 Si11 1.725749 1_555
N26 Si16 1.736206 1_555
N26 Sr6 2.659366 1_555
N27 Si7 1.725749 1_555
N27 Si18 1.736206 1_555
N27 Sr7 2.659366 1_555
N28 Si0 1.725749 1_555
N28 Si19 1.736206 1_554
N28 Sr4 2.659366 1_555
N29 Si4 1.725749 1_555
N29 Si13 1.736206 1_455
N29 Sr4 2.659366 1_555
N30 Si1 1.725749 1_555
N30 Si23 1.736206 1_555
N30 Sr5 2.659366 1_555
N31 Si10 1.725749 1_555
N31 Si14 1.736206 1_655
N31 Sr7 2.659366 1_555
N32 Si2 1.725749 1_555
N32 Si21 1.736206 1_556
N32 Sr6 2.659366 1_555
N33 Si6 1.725749 1_555
N33 Si12 1.736206 1_555
N33 Sr5 2.659366 1_555
N34 Si3 1.725749 1_555
N34 Si17 1.736206 1_555
N34 Sr7 2.659366 1_555
N35 Si8 1.725749 1_555
N35 Si15 1.736206 1_555
N35 Sr6 2.659366 1_555
N36 Si17 1.725749 1_555
N36 Si8 1.736206 1_565
N36 Sr8 2.659366 1_555
N37 Si21 1.725749 1_555
N37 Si10 1.736206 1_545
N37 Sr9 2.659366 1_555
N38 Si23 1.725749 1_555
N38 Si4 1.736206 1_555
N38 Sr10 2.659366 1_555
N39 Si19 1.725749 1_555
N39 Si6 1.736206 1_555
N39 Sr11 2.659366 1_555
N40 Si12 1.725749 1_555
N40 Si7 1.736206 1_556
N40 Sr8 2.659366 1_555
N41 Si16 1.725749 1_555
N41 Si1 1.736206 1_655
N41 Sr8 2.659366 1_555
N42 Si13 1.725749 1_555
N42 Si11 1.736206 1_555
N42 Sr9 2.659366 1_555
N43 Si22 1.725749 1_555
N43 Si2 1.736206 1_455
N43 Sr11 2.659366 1_555
N44 Si14 1.725749 1_555
N44 Si9 1.736206 1_554
N44 Sr10 2.659366 1_555
N45 Si18 1.725749 1_555
N45 Si0 1.736206 1_555
N45 Sr9 2.659366 1_555
N46 Si15 1.725749 1_555
N46 Si5 1.736206 1_555
N46 Sr11 2.659366 1_555
N47 Si20 1.725749 1_555
N47 Si3 1.736206 1_555
N47 Sr10 2.659366 1_555
