# generated using pymatgen
data_ZnCuNi2
_symmetry_space_group_name_H-M   'P 1'
_cell_length_a   3.98501971
_cell_length_b   3.98501971
_cell_length_c   3.98501971
_cell_angle_alpha   60.00000000
_cell_angle_beta   60.00000000
_cell_angle_gamma   60.00000000
_symmetry_Int_Tables_number   1
_chemical_formula_structural   ZnCuNi2
_chemical_formula_sum   'Zn1 Cu1 Ni2'
_cell_volume   44.74828789
_cell_formula_units_Z   1
loop_
 _symmetry_equiv_pos_site_id
 _symmetry_equiv_pos_as_xyz
  1  'x, y, z'
loop_
 _atom_site_type_symbol
 _atom_site_label
 _atom_site_symmetry_multiplicity
 _atom_site_fract_x
 _atom_site_fract_y
 _atom_site_fract_z
 _atom_site_occupancy
  Zn  Zn0  1  0.75000000  0.75000000  0.75000000  1
  Cu  Cu0  1  0.24999900  0.24999900  0.24999900  1
  Ni  Ni0  1  0.00000000  0.00000000  0.00000000  1
  Ni  Ni1  1  0.50000100  0.50000100  0.50000100  1
loop_
_geom_bond_atom_site_label_1
_geom_bond_atom_site_label_2
_geom_bond_distance
_geom_bond_site_symmetry_2
Cu0 Ni0 2.440306 1_555
Cu0 Ni1 2.440310 1_554
Cu0 Ni1 2.440310 1_455
Cu0 Ni1 2.440310 1_545
Cu0 Ni0 2.440319 1_655
Cu0 Ni0 2.440319 1_556
Cu0 Ni0 2.440319 1_565
Cu0 Ni1 2.440336 1_555
Cu0 Zn0 2.817829 1_544
Cu0 Zn0 2.817829 1_445
Cu0 Zn0 2.817829 1_454
Cu0 Zn0 2.817840 1_554
Cu0 Zn0 2.817840 1_545
Cu0 Zn0 2.817840 1_455
Ni0 Zn0 2.440316 1_444
Ni0 Zn0 2.440316 1_445
Ni0 Zn0 2.440316 1_454
Ni0 Zn0 2.440316 1_544
Ni1 Zn0 2.440306 1_555
Ni1 Zn0 2.440319 1_455
Ni1 Zn0 2.440319 1_545
Ni1 Zn0 2.440319 1_554
