# generated using pymatgen
data_Ti3N
_symmetry_space_group_name_H-M   'P 1'
_cell_length_a   4.98308210
_cell_length_b   4.98308210
_cell_length_c   4.98308210
_cell_angle_alpha   139.00646009
_cell_angle_beta   139.00646009
_cell_angle_gamma   59.36500174
_symmetry_Int_Tables_number   1
_chemical_formula_structural   Ti3N
_chemical_formula_sum   'Ti3 N1'
_cell_volume   52.72115838
_cell_formula_units_Z   1
loop_
 _symmetry_equiv_pos_site_id
 _symmetry_equiv_pos_as_xyz
  1  'x, y, z'
loop_
 _atom_site_type_symbol
 _atom_site_label
 _atom_site_symmetry_multiplicity
 _atom_site_fract_x
 _atom_site_fract_y
 _atom_site_fract_z
 _atom_site_occupancy
  Ti  Ti0  1  0.75000000  0.25000000  0.50000000  1
  Ti  Ti1  1  0.25000000  0.75000000  0.50000000  1
  Ti  Ti2  1  0.50000000  0.50000000  0.00000000  1
  N  N0  1  0.00000000  0.00000000  0.00000000  1
loop_
_geom_bond_atom_site_label_1
_geom_bond_atom_site_label_2
_geom_bond_distance
_geom_bond_site_symmetry_2
Ti0 Ti1 2.467589 1_656
Ti0 Ti1 2.467589 1_645
Ti0 Ti1 2.467589 1_544
Ti0 Ti1 2.467589 1_555
Ti0 Ti2 2.780292 1_555
Ti0 Ti2 2.780292 1_656
Ti0 Ti2 2.780292 1_556
Ti0 Ti2 2.780292 1_545
Ti1 Ti2 2.780292 1_555
Ti1 Ti2 2.780292 1_455
Ti1 Ti2 2.780292 1_556
Ti1 Ti2 2.780292 1_566
N0 Ti2 2.467589 1_545
N0 Ti2 2.467589 1_455
N0 Ti2 2.467589 1_556
N0 Ti2 2.467589 1_444
N0 Ti1 2.780292 1_544
N0 Ti1 2.780292 1_555
N0 Ti0 2.780292 1_455
N0 Ti0 2.780292 1_454
N0 Ti0 2.780292 1_444
N0 Ti0 2.780292 1_555
N0 Ti1 2.780292 1_444
N0 Ti1 2.780292 1_545
