# generated using pymatgen
data_Ir3Ru
_symmetry_space_group_name_H-M   'P 1'
_cell_length_a   4.69861714
_cell_length_b   4.69861714
_cell_length_c   4.69861714
_cell_angle_alpha   131.84114789
_cell_angle_beta   131.84114789
_cell_angle_gamma   70.48003252
_symmetry_Int_Tables_number   1
_chemical_formula_structural   Ir3Ru
_chemical_formula_sum   'Ir3 Ru1'
_cell_volume   56.41324546
_cell_formula_units_Z   1
loop_
 _symmetry_equiv_pos_site_id
 _symmetry_equiv_pos_as_xyz
  1  'x, y, z'
loop_
 _atom_site_type_symbol
 _atom_site_label
 _atom_site_symmetry_multiplicity
 _atom_site_fract_x
 _atom_site_fract_y
 _atom_site_fract_z
 _atom_site_occupancy
  Ir  Ir0  1  0.74999900  0.25000000  0.49999800  1
  Ir  Ir1  1  0.25000000  0.74999900  0.49999800  1
  Ir  Ir2  1  0.49999900  0.49999900  0.00000000  1
  Ru  Ru0  1  0.00000000  0.00000000  0.00000000  1
loop_
_geom_bond_atom_site_label_1
_geom_bond_atom_site_label_2
_geom_bond_distance
_geom_bond_site_symmetry_2
Ir0 Ir1 2.711110 1_555
Ir0 Ir1 2.711116 1_656
Ir0 Ir1 2.711116 1_544
Ir0 Ir1 2.711121 1_645
Ir0 Ir2 2.712328 1_555
Ir0 Ir2 2.712336 1_656
Ir0 Ru0 2.712336 1_655
Ir0 Ru0 2.712339 1_666
Ir0 Ru0 2.712339 1_555
Ir0 Ru0 2.712347 1_656
Ir0 Ir2 2.712347 1_545
Ir0 Ir2 2.712349 1_556
Ir1 Ir2 2.712328 1_555
Ir1 Ir2 2.712336 1_566
Ir1 Ru0 2.712336 1_565
Ir1 Ru0 2.712339 1_666
Ir1 Ru0 2.712339 1_555
Ir1 Ru0 2.712347 1_566
Ir1 Ir2 2.712347 1_455
Ir1 Ir2 2.712349 1_556
Ir2 Ru0 2.711116 1_655
Ir2 Ru0 2.711116 1_565
Ir2 Ru0 2.711116 1_554
Ir2 Ru0 2.711116 1_666
