# generated using pymatgen
data_B2(CN2)3
_symmetry_space_group_name_H-M   'P 1'
_cell_length_a   9.14363887
_cell_length_b   9.14363887
_cell_length_c   9.14363875
_cell_angle_alpha   54.64308331
_cell_angle_beta   54.64308331
_cell_angle_gamma   54.64307696
_symmetry_Int_Tables_number   1
_chemical_formula_structural   B2(CN2)3
_chemical_formula_sum   'B4 C6 N12'
_cell_volume   473.08637612
_cell_formula_units_Z   2
loop_
 _symmetry_equiv_pos_site_id
 _symmetry_equiv_pos_as_xyz
  1  'x, y, z'
loop_
 _atom_site_type_symbol
 _atom_site_label
 _atom_site_symmetry_multiplicity
 _atom_site_fract_x
 _atom_site_fract_y
 _atom_site_fract_z
 _atom_site_occupancy
  B  B0  1  0.41124100  0.41124100  0.41124100  1
  B  B1  1  0.08875900  0.08875900  0.08875900  1
  B  B2  1  0.58875900  0.58875900  0.58875900  1
  B  B3  1  0.91124100  0.91124100  0.91124100  1
  C  C0  1  0.82805000  0.67195000  0.25000000  1
  C  C1  1  0.17195000  0.32805000  0.75000000  1
  C  C2  1  0.75000000  0.17195000  0.32805000  1
  C  C3  1  0.32805000  0.75000000  0.17195000  1
  C  C4  1  0.67195000  0.25000000  0.82805000  1
  C  C5  1  0.25000000  0.82805000  0.67195000  1
  N  N0  1  0.92080100  0.08145100  0.26142400  1
  N  N1  1  0.73857600  0.07919900  0.91854900  1
  N  N2  1  0.57919900  0.23857600  0.41854900  1
  N  N3  1  0.23857600  0.41854900  0.57919900  1
  N  N4  1  0.08145100  0.26142400  0.92080100  1
  N  N5  1  0.58145100  0.42080100  0.76142400  1
  N  N6  1  0.07919900  0.91854900  0.73857600  1
  N  N7  1  0.91854900  0.73857600  0.07919900  1
  N  N8  1  0.42080100  0.76142400  0.58145100  1
  N  N9  1  0.76142400  0.58145100  0.42080100  1
  N  N10  1  0.26142400  0.92080100  0.08145100  1
  N  N11  1  0.41854900  0.57919900  0.23857600  1
loop_
_geom_bond_atom_site_label_1
_geom_bond_atom_site_label_2
_geom_bond_distance
_geom_bond_site_symmetry_2
B0 N2 1.430428 1_555
B0 N3 1.430429 1_555
B0 N11 1.430429 1_555
B1 N10 1.430428 1_545
B1 N4 1.430429 1_554
B1 N0 1.430429 1_455
B2 N8 1.430428 1_555
B2 N9 1.430429 1_555
B2 N5 1.430429 1_555
B3 N1 1.430428 1_565
B3 N7 1.430429 1_556
B3 N6 1.430429 1_655
C0 N9 1.217196 1_555
C0 N7 1.217196 1_555
C1 N3 1.217196 1_555
C1 N4 1.217196 1_555
C2 N0 1.217196 1_555
C2 N2 1.217196 1_555
C3 N11 1.217196 1_555
C3 N10 1.217196 1_555
C4 N5 1.217196 1_555
C4 N1 1.217196 1_555
C5 N6 1.217196 1_555
C5 N8 1.217196 1_555
