# generated using pymatgen
data_LiPmZn2
_symmetry_space_group_name_H-M   'P 1'
_cell_length_a   4.83009281
_cell_length_b   4.83009281
_cell_length_c   4.83009281
_cell_angle_alpha   60.00000000
_cell_angle_beta   60.00000000
_cell_angle_gamma   60.00000000
_symmetry_Int_Tables_number   1
_chemical_formula_structural   LiPmZn2
_chemical_formula_sum   'Li1 Pm1 Zn2'
_cell_volume   79.68038606
_cell_formula_units_Z   1
loop_
 _symmetry_equiv_pos_site_id
 _symmetry_equiv_pos_as_xyz
  1  'x, y, z'
loop_
 _atom_site_type_symbol
 _atom_site_label
 _atom_site_symmetry_multiplicity
 _atom_site_fract_x
 _atom_site_fract_y
 _atom_site_fract_z
 _atom_site_occupancy
  Li  Li0  1  0.25000000  0.25000000  0.25000000  1
  Pm  Pm0  1  0.75000000  0.75000000  0.75000000  1
  Zn  Zn0  1  0.50000000  0.50000000  0.50000000  1
  Zn  Zn1  1  0.00000000  0.00000000  0.00000000  1
loop_
_geom_bond_atom_site_label_1
_geom_bond_atom_site_label_2
_geom_bond_distance
_geom_bond_site_symmetry_2
Li0 Zn0 2.957816 1_555
Li0 Zn1 2.957816 1_555
Li0 Zn0 2.957816 1_554
Li0 Zn1 2.957816 1_556
Li0 Zn1 2.957816 1_655
Li0 Zn0 2.957816 1_455
Li0 Zn0 2.957816 1_545
Li0 Zn1 2.957816 1_565
Pm0 Zn0 2.957816 1_555
Pm0 Zn1 2.957816 1_666
Pm0 Zn0 2.957816 1_556
Pm0 Zn1 2.957816 1_665
Pm0 Zn1 2.957816 1_566
Pm0 Zn0 2.957816 1_655
Pm0 Zn0 2.957816 1_565
Pm0 Zn1 2.957816 1_656
