# generated using pymatgen
data_NaCo3
_symmetry_space_group_name_H-M   'P 1'
_cell_length_a   6.01068037
_cell_length_b   6.01068037
_cell_length_c   4.01609200
_cell_angle_alpha   90.00000000
_cell_angle_beta   90.00000000
_cell_angle_gamma   120.00000406
_symmetry_Int_Tables_number   1
_chemical_formula_structural   NaCo3
_chemical_formula_sum   'Na2 Co6'
_cell_volume   125.65550936
_cell_formula_units_Z   2
loop_
 _symmetry_equiv_pos_site_id
 _symmetry_equiv_pos_as_xyz
  1  'x, y, z'
loop_
 _atom_site_type_symbol
 _atom_site_label
 _atom_site_symmetry_multiplicity
 _atom_site_fract_x
 _atom_site_fract_y
 _atom_site_fract_z
 _atom_site_occupancy
  Na  Na0  1  0.66666700  0.33333300  0.25000000  1
  Na  Na1  1  0.33333300  0.66666700  0.75000000  1
  Co  Co0  1  0.13149400  0.86850600  0.25000000  1
  Co  Co1  1  0.73701200  0.86850600  0.25000000  1
  Co  Co2  1  0.13149400  0.26298800  0.25000000  1
  Co  Co3  1  0.86850600  0.13149400  0.75000000  1
  Co  Co4  1  0.26298800  0.13149400  0.75000000  1
  Co  Co5  1  0.86850600  0.73701200  0.75000000  1
loop_
_geom_bond_atom_site_label_1
_geom_bond_atom_site_label_2
_geom_bond_distance
_geom_bond_site_symmetry_2
Co0 Co1 2.371105 1_455
Co0 Co2 2.371105 1_565
Co0 Co4 2.430287 1_565
Co0 Co5 2.430287 1_455
Co0 Co5 2.430287 1_454
Co0 Co4 2.430287 1_564
Co0 Na1 2.906499 1_554
Co0 Na1 2.906499 1_555
Co0 Na0 3.027566 1_455
Co0 Na0 3.027566 1_565
Co1 Co2 2.371105 1_665
Co1 Co3 2.430287 1_565
Co1 Co3 2.430287 1_564
Co1 Co5 2.430287 1_554
Co1 Co5 2.430287 1_555
Co1 Na1 2.906503 1_554
Co1 Na1 2.906503 1_555
Co1 Na0 3.027563 1_565
Co1 Na0 3.027568 1_555
Co2 Co3 2.430287 1_454
Co2 Co3 2.430287 1_455
Co2 Co4 2.430287 1_555
Co2 Co4 2.430287 1_554
Co2 Na1 2.906503 1_554
Co2 Na1 2.906503 1_555
Co2 Na0 3.027563 1_455
Co2 Na0 3.027568 1_555
Co3 Co5 2.371105 1_545
Co3 Co4 2.371105 1_655
Co3 Na0 2.906499 1_555
Co3 Na0 2.906499 1_556
Co3 Na1 3.027566 1_545
Co3 Na1 3.027566 1_655
Co4 Co5 2.371105 1_445
Co4 Na0 2.906503 1_555
Co4 Na0 2.906503 1_556
Co4 Na1 3.027563 1_545
Co4 Na1 3.027568 1_555
Co5 Na0 2.906503 1_555
Co5 Na0 2.906503 1_556
Co5 Na1 3.027563 1_655
Co5 Na1 3.027568 1_555
