# generated using pymatgen
data_Re3Sn
_symmetry_space_group_name_H-M   'P 1'
_cell_length_a   5.72732033
_cell_length_b   5.72732033
_cell_length_c   4.58133100
_cell_angle_alpha   90.00000000
_cell_angle_beta   90.00000000
_cell_angle_gamma   120.00000385
_symmetry_Int_Tables_number   1
_chemical_formula_structural   Re3Sn
_chemical_formula_sum   'Re6 Sn2'
_cell_volume   130.14432456
_cell_formula_units_Z   2
loop_
 _symmetry_equiv_pos_site_id
 _symmetry_equiv_pos_as_xyz
  1  'x, y, z'
loop_
 _atom_site_type_symbol
 _atom_site_label
 _atom_site_symmetry_multiplicity
 _atom_site_fract_x
 _atom_site_fract_y
 _atom_site_fract_z
 _atom_site_occupancy
  Re  Re0  1  0.16436500  0.32873100  0.25000000  1
  Re  Re1  1  0.67126900  0.83563500  0.25000000  1
  Re  Re2  1  0.16436500  0.83563500  0.25000000  1
  Re  Re3  1  0.83563500  0.67126900  0.75000000  1
  Re  Re4  1  0.32873100  0.16436500  0.75000000  1
  Re  Re5  1  0.83563500  0.16436500  0.75000000  1
  Sn  Sn0  1  0.33333300  0.66666700  0.75000000  1
  Sn  Sn1  1  0.66666700  0.33333300  0.25000000  1
loop_
_geom_bond_atom_site_label_1
_geom_bond_atom_site_label_2
_geom_bond_distance
_geom_bond_site_symmetry_2
Re0 Re5 2.811705 1_455
Re0 Re5 2.811705 1_454
Re0 Re4 2.811711 1_555
Re0 Re4 2.811711 1_554
Re0 Re1 2.824119 1_445
Re0 Re2 2.824119 1_545
Re0 Sn0 2.838428 1_554
Re0 Sn0 2.838428 1_555
Re0 Sn1 2.863745 1_455
Re0 Sn1 2.863757 1_555
Re0 Re1 2.903201 1_555
Re0 Re2 2.903202 1_555
Re1 Re5 2.811705 1_564
Re1 Re5 2.811705 1_565
Re1 Re3 2.811711 1_555
Re1 Re3 2.811711 1_554
Re1 Re2 2.824119 1_655
Re1 Sn0 2.838428 1_554
Re1 Sn0 2.838428 1_555
Re1 Sn1 2.863745 1_565
Re1 Sn1 2.863757 1_555
Re1 Re2 2.903202 1_555
Re2 Re4 2.811705 1_565
Re2 Re3 2.811705 1_455
Re2 Re3 2.811705 1_454
Re2 Re4 2.811705 1_564
Re2 Sn0 2.838428 1_555
Re2 Sn0 2.838428 1_554
Re2 Sn1 2.863751 1_565
Re2 Sn1 2.863751 1_455
Re3 Re4 2.824119 1_665
Re3 Re5 2.824119 1_565
Re3 Sn1 2.838428 1_555
Re3 Sn1 2.838428 1_556
Re3 Sn0 2.863745 1_655
Re3 Sn0 2.863757 1_555
Re3 Re4 2.903201 1_555
Re3 Re5 2.903202 1_555
Re4 Re5 2.824119 1_455
Re4 Sn1 2.838428 1_555
Re4 Sn1 2.838428 1_556
Re4 Sn0 2.863745 1_545
Re4 Sn0 2.863757 1_555
Re4 Re5 2.903202 1_555
Re5 Sn1 2.838428 1_555
Re5 Sn1 2.838428 1_556
Re5 Sn0 2.863751 1_545
Re5 Sn0 2.863751 1_655
