# generated using pymatgen
data_LaWN3
_symmetry_space_group_name_H-M   'P 1'
_cell_length_a   5.65469300
_cell_length_b   5.69262800
_cell_length_c   8.00222000
_cell_angle_alpha   90.00000000
_cell_angle_beta   90.00000000
_cell_angle_gamma   90.00000000
_symmetry_Int_Tables_number   1
_chemical_formula_structural   LaWN3
_chemical_formula_sum   'La4 W4 N12'
_cell_volume   257.59197157
_cell_formula_units_Z   4
loop_
 _symmetry_equiv_pos_site_id
 _symmetry_equiv_pos_as_xyz
  1  'x, y, z'
loop_
 _atom_site_type_symbol
 _atom_site_label
 _atom_site_symmetry_multiplicity
 _atom_site_fract_x
 _atom_site_fract_y
 _atom_site_fract_z
 _atom_site_occupancy
  La  La0  1  0.01767600  0.99799500  0.25000000  1
  La  La1  1  0.98232400  0.00200500  0.75000000  1
  La  La2  1  0.51767600  0.50200500  0.25000000  1
  La  La3  1  0.48232400  0.49799500  0.75000000  1
  W  W0  1  0.50000000  0.00000000  0.00000000  1
  W  W1  1  0.00000000  0.50000000  0.50000000  1
  W  W2  1  0.00000000  0.50000000  0.00000000  1
  W  W3  1  0.50000000  0.00000000  0.50000000  1
  N  N0  1  0.72735700  0.27073400  0.96952100  1
  N  N1  1  0.77264300  0.77073400  0.46952100  1
  N  N2  1  0.77264300  0.77073400  0.03047900  1
  N  N3  1  0.72735700  0.27073400  0.53047900  1
  N  N4  1  0.22735700  0.22926600  0.96952100  1
  N  N5  1  0.27264300  0.72926600  0.46952100  1
  N  N6  1  0.00510500  0.55866100  0.75000000  1
  N  N7  1  0.99489500  0.44133900  0.25000000  1
  N  N8  1  0.49489500  0.05866100  0.25000000  1
  N  N9  1  0.27264300  0.72926600  0.03047900  1
  N  N10  1  0.22735700  0.22926600  0.53047900  1
  N  N11  1  0.50510500  0.94133900  0.75000000  1
loop_
_geom_bond_atom_site_label_1
_geom_bond_atom_site_label_2
_geom_bond_distance
_geom_bond_site_symmetry_2
La0 N7 2.527078 1_465
La0 N1 2.584449 1_455
La0 N2 2.584449 1_455
La0 N8 2.720536 1_565
La0 N5 2.739474 1_555
La0 N9 2.739474 1_555
La0 N10 2.859492 1_565
La0 N4 2.859492 1_564
La0 N8 2.976270 1_465
La0 N7 3.171453 1_455
La0 N3 3.184841 1_465
La0 N0 3.184841 1_464
La1 N6 2.527078 1_645
La1 N4 2.584449 1_655
La1 N10 2.584449 1_655
La1 N11 2.720536 1_545
La1 N0 2.739474 1_555
La1 N3 2.739474 1_555
La1 N2 2.859492 1_546
La1 N1 2.859492 1_545
La1 N11 2.976270 1_645
La1 N6 3.171453 1_655
La1 N9 3.184841 1_646
La1 N5 3.184841 1_645
La2 N8 2.527078 1_555
La2 N5 2.584449 1_555
La2 N9 2.584449 1_555
La2 N7 2.720536 1_555
La2 N1 2.739474 1_555
La2 N2 2.739474 1_555
La2 N3 2.859492 1_555
La2 N0 2.859492 1_554
La2 N7 2.976270 1_455
La2 N8 3.171453 1_565
La2 N10 3.184841 1_555
La2 N4 3.184841 1_554
La3 N11 2.527078 1_555
La3 N0 2.584449 1_555
La3 N3 2.584449 1_555
La3 N6 2.720536 1_555
La3 N4 2.739474 1_555
La3 N10 2.739474 1_555
La3 N9 2.859492 1_556
La3 N5 2.859492 1_555
La3 N6 2.976270 1_655
La3 N11 3.171453 1_545
La3 N2 3.184841 1_556
La3 N1 3.184841 1_555
N0 W0 2.021782 1_556
N0 W2 2.034630 1_656
N1 W1 2.021782 1_655
N1 W3 2.034630 1_565
N2 W2 2.021782 1_655
N2 W0 2.034630 1_565
N3 W3 2.021782 1_555
N3 W1 2.034630 1_655
N4 W2 2.021782 1_556
N4 W0 2.034630 1_556
N5 W3 2.021782 1_565
N5 W1 2.034630 1_555
N6 W2 2.028439 1_556
N6 W1 2.028439 1_555
N7 W1 2.028439 1_655
N7 W2 2.028439 1_655
N8 W3 2.028439 1_555
N8 W0 2.028439 1_555
N9 W0 2.021782 1_565
N9 W2 2.034630 1_555
N10 W1 2.021782 1_555
N10 W3 2.034630 1_555
N11 W3 2.028439 1_565
N11 W0 2.028439 1_566
