# generated using pymatgen
data_PrTm3
_symmetry_space_group_name_H-M   'P 1'
_cell_length_a   7.21174787
_cell_length_b   7.21668192
_cell_length_c   5.74691264
_cell_angle_alpha   90.00000000
_cell_angle_beta   90.00000000
_cell_angle_gamma   120.02108509
_symmetry_Int_Tables_number   1
_chemical_formula_structural   PrTm3
_chemical_formula_sum   'Pr2 Tm6'
_cell_volume   258.97092835
_cell_formula_units_Z   2
loop_
 _symmetry_equiv_pos_site_id
 _symmetry_equiv_pos_as_xyz
  1  'x, y, z'
loop_
 _atom_site_type_symbol
 _atom_site_label
 _atom_site_symmetry_multiplicity
 _atom_site_fract_x
 _atom_site_fract_y
 _atom_site_fract_z
 _atom_site_occupancy
  Pr  Pr0  1  0.66737691  0.33371624  0.25000000  1
  Pr  Pr1  1  0.33262209  0.66628076  0.75000000  1
  Tm  Tm0  1  0.16415914  0.83647151  0.25000000  1
  Tm  Tm1  1  0.83585784  0.67230154  0.75000000  1
  Tm  Tm2  1  0.32736245  0.16369359  0.75000000  1
  Tm  Tm3  1  0.67263755  0.83630641  0.25000000  1
  Tm  Tm4  1  0.16414416  0.32769846  0.25000000  1
  Tm  Tm5  1  0.83583986  0.16352849  0.75000000  1
loop_
_geom_bond_atom_site_label_1
_geom_bond_atom_site_label_2
_geom_bond_distance
_geom_bond_site_symmetry_2
Pr0 Tm1 3.568303 1_554
Pr0 Tm1 3.568303 1_555
Pr0 Tm5 3.568517 1_554
Pr0 Tm5 3.568517 1_555
Pr0 Tm2 3.572734 1_554
Pr0 Tm2 3.572734 1_555
Pr0 Tm4 3.604484 1_655
Pr0 Tm0 3.604513 1_655
Pr0 Tm4 3.607656 1_555
Pr0 Tm0 3.607790 1_545
Pr0 Tm3 3.608202 1_555
Pr0 Tm3 3.608779 1_545
Pr1 Tm4 3.568292 1_555
Pr1 Tm4 3.568292 1_556
Pr1 Tm0 3.568528 1_556
Pr1 Tm0 3.568528 1_555
Pr1 Tm3 3.572737 1_555
Pr1 Tm3 3.572737 1_556
Pr1 Tm1 3.604474 1_455
Pr1 Tm5 3.604502 1_455
Pr1 Tm1 3.607667 1_555
Pr1 Tm5 3.607800 1_565
Pr1 Tm2 3.608184 1_555
Pr1 Tm2 3.608797 1_565
Tm0 Tm2 3.526664 1_564
Tm0 Tm2 3.526664 1_565
Tm0 Tm1 3.529760 1_455
Tm0 Tm1 3.529760 1_454
Tm0 Tm3 3.544134 1_455
Tm0 Tm4 3.545083 1_565
Tm0 Tm3 3.667614 1_555
Tm0 Tm4 3.671599 1_555
Tm1 Tm3 3.526647 1_555
Tm1 Tm3 3.526647 1_556
Tm1 Tm2 3.544284 1_665
Tm1 Tm5 3.545094 1_565
Tm1 Tm2 3.667633 1_555
Tm1 Tm5 3.671588 1_555
Tm2 Tm4 3.526640 1_556
Tm2 Tm4 3.526640 1_555
Tm2 Tm5 3.544141 1_455
Tm2 Tm5 3.667607 1_555
Tm3 Tm5 3.526664 1_565
Tm3 Tm5 3.526664 1_564
Tm3 Tm4 3.544291 1_665
Tm3 Tm4 3.667626 1_555
Tm4 Tm5 3.529771 1_454
Tm4 Tm5 3.529771 1_455
