# generated using pymatgen
data_W18O49
_symmetry_space_group_name_H-M   'P 1'
_cell_length_a   3.85862000
_cell_length_b   14.19921800
_cell_length_c   18.28656537
_cell_angle_alpha   70.29058972
_cell_angle_beta   90.00000000
_cell_angle_gamma   90.00000000
_symmetry_Int_Tables_number   1
_chemical_formula_structural   W18O49
_chemical_formula_sum   'W18 O49'
_cell_volume   943.21298696
_cell_formula_units_Z   1
loop_
 _symmetry_equiv_pos_site_id
 _symmetry_equiv_pos_as_xyz
  1  'x, y, z'
loop_
 _atom_site_type_symbol
 _atom_site_label
 _atom_site_symmetry_multiplicity
 _atom_site_fract_x
 _atom_site_fract_y
 _atom_site_fract_z
 _atom_site_occupancy
  W  W0  1  0.50000000  0.28650900  0.54944600  1
  W  W1  1  0.50000000  0.74629100  0.26046200  1
  W  W2  1  0.50000000  0.02538500  0.72339500  1
  W  W3  1  0.50000000  0.12524800  0.41514800  1
  W  W4  1  0.50000000  0.71349100  0.45055400  1
  W  W5  1  0.50000000  0.19207000  0.08236200  1
  W  W6  1  0.50000000  0.62750600  0.12768300  1
  W  W7  1  0.50000000  0.25370900  0.73953800  1
  W  W8  1  0.50000000  0.97461500  0.27660500  1
  W  W9  1  0.50000000  0.65512500  0.77974300  1
  W  W10  1  0.50000000  0.37249400  0.87231700  1
  W  W11  1  0.50000000  0.49983800  0.64315300  1
  W  W12  1  0.50000000  0.34487500  0.22025700  1
  W  W13  1  0.50000000  0.80793000  0.91763800  1
  W  W14  1  0.50000000  0.50016200  0.35684700  1
  W  W15  1  0.50000000  0.91696900  0.08342000  1
  W  W16  1  0.50000000  0.08303100  0.91658000  1
  W  W17  1  0.50000000  0.87475200  0.58485200  1
  O  O0  1  0.00000000  0.03380400  0.72279500  1
  O  O1  1  0.50000000  0.07378500  0.03134400  1
  O  O2  1  0.50000000  0.36193800  0.62892500  1
  O  O3  1  0.00000000  0.28534500  0.55051600  1
  O  O4  1  0.00000000  0.65016800  0.77929600  1
  O  O5  1  0.00000000  0.12513300  0.41222300  1
  O  O6  1  0.50000000  0.58852500  0.69607700  1
  O  O7  1  0.00000000  0.62791200  0.13216200  1
  O  O8  1  0.50000000  0.20673700  0.47693100  1
  O  O9  1  0.50000000  0.79326300  0.52306900  1
  O  O10  1  0.50000000  0.22665900  0.31022600  1
  O  O11  1  0.50000000  0.08620200  0.18803400  1
  O  O12  1  0.50000000  0.58545800  0.54140000  1
  O  O13  1  0.50000000  0.02888300  0.35396500  1
  O  O14  1  0.50000000  0.77334100  0.68977400  1
  O  O15  1  0.50000000  0.41147500  0.30392300  1
  O  O16  1  0.50000000  0.48816900  0.14878000  1
  O  O17  1  0.50000000  0.28959000  0.14108800  1
  O  O18  1  0.00000000  0.18993100  0.07920700  1
  O  O19  1  0.00000000  0.87486700  0.58777700  1
  O  O20  1  0.00000000  0.50942800  0.35634700  1
  O  O21  1  0.50000000  0.51183100  0.85122000  1
  O  O22  1  0.50000000  0.61093400  0.24550400  1
  O  O23  1  0.00000000  0.49057200  0.64365300  1
  O  O24  1  0.50000000  0.97111700  0.64603500  1
  O  O25  1  0.00000000  0.81006900  0.92079300  1
  O  O26  1  0.00000000  0.96619600  0.27720500  1
  O  O27  1  0.00000000  0.71465500  0.44948400  1
  O  O28  1  0.50000000  0.17558500  0.65873700  1
  O  O29  1  0.50000000  0.41454200  0.45860000  1
  O  O30  1  0.50000000  0.30809000  0.97846000  1
  O  O31  1  0.50000000  0.71041000  0.85891200  1
  O  O32  1  0.50000000  0.92621500  0.96865600  1
  O  O33  1  0.50000000  0.69191000  0.02154000  1
  O  O34  1  0.00000000  0.37208800  0.86783800  1
  O  O35  1  0.00000000  0.25273900  0.73939500  1
  O  O36  1  0.00000000  0.91881500  0.08354500  1
  O  O37  1  0.50000000  0.38906600  0.75449600  1
  O  O38  1  0.00000000  0.08118500  0.91645500  1
  O  O39  1  0.50000000  0.89503100  0.19977000  1
  O  O40  1  0.50000000  0.23359000  0.86016700  1
  O  O41  1  0.50000000  0.63806200  0.37107500  1
  O  O42  1  0.50000000  0.00000000  0.50000000  1
  O  O43  1  0.50000000  0.82441500  0.34126300  1
  O  O44  1  0.00000000  0.34983200  0.22070400  1
  O  O45  1  0.00000000  0.74726100  0.26060500  1
  O  O46  1  0.50000000  0.10496900  0.80023000  1
  O  O47  1  0.50000000  0.76641000  0.13983300  1
  O  O48  1  0.50000000  0.91379800  0.81196600  1
loop_
_geom_bond_atom_site_label_1
_geom_bond_atom_site_label_2
_geom_bond_distance
_geom_bond_site_symmetry_2
O0 W2 1.932812 1_555
O0 W2 1.932812 1_455
O1 W16 2.058078 1_554
O1 W15 2.105864 1_545
O1 W5 2.179032 1_555
O2 W11 2.060429 1_555
O2 W0 2.075916 1_555
O2 W7 2.087208 1_555
O3 W0 1.929423 1_555
O3 W0 1.929423 1_455
O4 W9 1.930711 1_555
O4 W9 1.930711 1_455
O5 W3 1.930067 1_455
O5 W3 1.930067 1_555
O6 W11 1.828789 1_555
O6 W9 2.052064 1_555
O7 W6 1.931139 1_555
O7 W6 1.931139 1_455
O8 W3 1.870035 1_555
O8 W0 2.013586 1_555
O9 W17 1.870035 1_555
O9 W4 2.013586 1_555
O10 W12 1.913545 1_555
O10 W3 1.972623 1_555
O11 W8 1.844675 1_545
O11 W5 2.008610 1_555
O12 W11 1.847825 1_555
O12 W4 2.006920 1_555
O13 W8 1.824899 1_545
O13 W3 2.038782 1_555
O14 W9 1.913545 1_555
O14 W17 1.972623 1_555
O15 W14 1.828789 1_555
O15 W12 2.052064 1_555
O16 W6 1.883712 1_555
O16 W12 2.013576 1_555
O17 W12 1.865128 1_555
O17 W5 2.018334 1_555
O18 W5 1.930718 1_555
O18 W5 1.930718 1_455
O19 W17 1.930067 1_555
O19 W17 1.930067 1_455
O20 W14 1.933603 1_555
O20 W14 1.933603 1_455
O21 W10 1.883712 1_555
O21 W9 2.013576 1_555
O22 W1 2.030605 1_555
O22 W6 2.086974 1_555
O22 W14 2.111747 1_555
O23 W11 1.933603 1_455
O23 W11 1.933603 1_555
O24 W2 1.824899 1_565
O24 W17 2.038782 1_555
O25 W13 1.930718 1_455
O25 W13 1.930718 1_555
O26 W8 1.932812 1_455
O26 W8 1.932812 1_555
O27 W4 1.929423 1_555
O27 W4 1.929423 1_455
O28 W2 2.060496 1_555
O28 W0 2.086091 1_555
O28 W7 2.125869 1_555
O29 W14 1.847825 1_555
O29 W0 2.006920 1_555
O30 W10 1.845667 1_555
O30 W5 2.052491 1_556
O31 W9 1.865128 1_555
O31 W13 2.018334 1_555
O32 W15 2.058078 1_556
O32 W16 2.105864 1_565
O32 W13 2.179032 1_555
O33 W6 1.845667 1_555
O33 W13 2.052491 1_554
O34 W10 1.931139 1_455
O34 W10 1.931139 1_555
O35 W7 1.929367 1_455
O35 W7 1.929367 1_555
O36 W15 1.929500 1_455
O36 W15 1.929500 1_555
O37 W7 2.030605 1_555
O37 W10 2.086974 1_555
O37 W11 2.111747 1_555
O38 W16 1.929500 1_555
O38 W16 1.929500 1_455
O39 W1 2.027622 1_555
O39 W15 2.043736 1_555
O39 W8 2.078958 1_555
O40 W16 2.036406 1_555
O40 W10 2.057916 1_555
O40 W7 2.126620 1_555
O41 W14 2.060429 1_555
O41 W4 2.075916 1_555
O41 W1 2.087208 1_555
O42 W17 1.925912 1_545
O42 W3 1.925912 1_555
O43 W8 2.060496 1_555
O43 W4 2.086091 1_555
O43 W1 2.125869 1_555
O44 W12 1.930711 1_555
O44 W12 1.930711 1_455
O45 W1 1.929367 1_455
O45 W1 1.929367 1_555
O46 W7 2.027622 1_555
O46 W16 2.043736 1_555
O46 W2 2.078958 1_555
O47 W15 2.036406 1_555
O47 W6 2.057916 1_555
O47 W1 2.126620 1_555
O48 W2 1.844675 1_565
O48 W13 2.008610 1_555
