# generated using pymatgen
data_Br
_symmetry_space_group_name_H-M   'P 1'
_cell_length_a   5.14707362
_cell_length_b   6.87998880
_cell_length_c   8.34654112
_cell_angle_alpha   114.33972885
_cell_angle_beta   107.95896980
_cell_angle_gamma   90.00000000
_symmetry_Int_Tables_number   1
_chemical_formula_structural   Br
_chemical_formula_sum   Br8
_cell_volume   253.40627811
_cell_formula_units_Z   8
loop_
 _symmetry_equiv_pos_site_id
 _symmetry_equiv_pos_as_xyz
  1  'x, y, z'
loop_
 _atom_site_type_symbol
 _atom_site_label
 _atom_site_symmetry_multiplicity
 _atom_site_fract_x
 _atom_site_fract_y
 _atom_site_fract_z
 _atom_site_occupancy
  Br  Br0_0  1  0.00000000  0.00000000  0.00000000  1
  Br  Br0_1  1  0.00000000  0.00000000  0.50000000  1
  Br  Br0_2  1  0.00000000  0.50000000  0.00000000  1
  Br  Br0_3  1  0.00000000  0.50000000  0.50000000  1
  Br  Br0_4  1  0.50000000  0.00000000  0.00000000  1
  Br  Br0_5  1  0.50000000  0.00000000  0.50000000  1
  Br  Br0_6  1  0.50000000  0.50000000  0.00000000  1
  Br  Br0_7  1  0.50000000  0.50000000  0.50000000  1
loop_
_geom_bond_atom_site_label_1
_geom_bond_atom_site_label_2
_geom_bond_distance
_geom_bond_site_symmetry_2
Br0_0 Br0_4 2.573537 1_555
Br0_0 Br0_4 2.573537 1_455
Br0_1 Br0_5 2.573537 1_555
Br0_1 Br0_5 2.573537 1_455
Br0_2 Br0_6 2.573537 1_455
Br0_2 Br0_6 2.573537 1_555
Br0_3 Br0_7 2.573537 1_555
Br0_3 Br0_7 2.573537 1_455
