# generated using pymatgen
data_ZrSnTe
_symmetry_space_group_name_H-M   'P 1'
_cell_length_a   4.09707926
_cell_length_b   4.09707926
_cell_length_c   8.78583658
_cell_angle_alpha   90.00000000
_cell_angle_beta   90.00000000
_cell_angle_gamma   90.00000000
_symmetry_Int_Tables_number   1
_chemical_formula_structural   ZrSnTe
_chemical_formula_sum   'Zr2 Sn2 Te2'
_cell_volume   147.47956648
_cell_formula_units_Z   2
loop_
 _symmetry_equiv_pos_site_id
 _symmetry_equiv_pos_as_xyz
  1  'x, y, z'
loop_
 _atom_site_type_symbol
 _atom_site_label
 _atom_site_symmetry_multiplicity
 _atom_site_fract_x
 _atom_site_fract_y
 _atom_site_fract_z
 _atom_site_occupancy
  Zr  Zr0  1  0.25000000  0.25000000  0.26356537  1
  Zr  Zr1  1  0.75000000  0.75000000  0.73643463  1
  Sn  Sn0  1  0.75000000  0.25000000  -0.00000000  1
  Sn  Sn1  1  0.25000000  0.75000000  -0.00000000  1
  Te  Te0  1  0.25000000  0.25000000  0.61941346  1
  Te  Te1  1  0.75000000  0.75000000  0.38058654  1
loop_
_geom_bond_atom_site_label_1
_geom_bond_atom_site_label_2
_geom_bond_distance
_geom_bond_site_symmetry_2
Sn0 Sn1 2.897073 1_655
Sn0 Sn1 2.897073 1_645
Sn0 Sn1 2.897073 1_545
Sn0 Sn1 2.897073 1_555
Sn0 Zr1 3.091717 1_544
Sn0 Zr0 3.091717 1_555
Sn0 Zr1 3.091717 1_554
Sn0 Zr0 3.091717 1_655
Sn1 Zr0 3.091717 1_555
Sn1 Zr1 3.091717 1_454
Sn1 Zr1 3.091717 1_554
Sn1 Zr0 3.091717 1_565
Te0 Zr1 3.074098 1_445
Te0 Zr1 3.074098 1_555
Te0 Zr1 3.074098 1_455
Te0 Zr1 3.074098 1_545
Te0 Zr0 3.126423 1_555
Te1 Zr0 3.074098 1_555
Te1 Zr0 3.074098 1_655
Te1 Zr0 3.074098 1_565
Te1 Zr0 3.074098 1_665
Te1 Zr1 3.126423 1_555
