# generated using pymatgen
data_Sm3Hg
_symmetry_space_group_name_H-M   'P 1'
_cell_length_a   6.99910353
_cell_length_b   6.99909536
_cell_length_c   5.47526881
_cell_angle_alpha   90.00000094
_cell_angle_beta   90.00000792
_cell_angle_gamma   119.99994738
_symmetry_Int_Tables_number   1
_chemical_formula_structural   Sm3Hg
_chemical_formula_sum   'Sm6 Hg2'
_cell_volume   232.28471672
_cell_formula_units_Z   2
loop_
 _symmetry_equiv_pos_site_id
 _symmetry_equiv_pos_as_xyz
  1  'x, y, z'
loop_
 _atom_site_type_symbol
 _atom_site_label
 _atom_site_symmetry_multiplicity
 _atom_site_fract_x
 _atom_site_fract_y
 _atom_site_fract_z
 _atom_site_occupancy
  Sm  Sm0  1  0.17579758  0.35159385  0.25000287  1
  Sm  Sm1  1  0.64840317  0.82420086  0.25000222  1
  Sm  Sm2  1  0.17579746  0.82420251  0.25000285  1
  Sm  Sm3  1  0.82421056  0.64840168  0.74999808  1
  Sm  Sm4  1  0.35159557  0.17579232  0.74999873  1
  Sm  Sm5  1  0.82420444  0.17580304  0.74999806  1
  Hg  Hg0  1  0.33332651  0.66667056  0.75001689  1
  Hg  Hg1  1  0.66666170  0.33333619  0.24998429  1
loop_
_geom_bond_atom_site_label_1
_geom_bond_atom_site_label_2
_geom_bond_distance
_geom_bond_site_symmetry_2
Sm0 Sm1 3.307821 1_555
Sm0 Sm2 3.307833 1_555
Sm0 Sm5 3.469336 1_455
Sm0 Sm4 3.469361 1_555
Sm0 Sm5 3.469377 1_454
Sm0 Sm4 3.469397 1_554
Sm0 Sm2 3.691262 1_545
Sm0 Sm1 3.691284 1_445
Sm1 Sm2 3.307822 1_555
Sm1 Sm5 3.469371 1_565
Sm1 Sm3 3.469387 1_555
Sm1 Sm5 3.469407 1_564
Sm1 Sm3 3.469423 1_554
Sm1 Sm2 3.691281 1_655
Sm2 Sm3 3.469313 1_455
Sm2 Sm4 3.469325 1_565
Sm2 Sm3 3.469354 1_454
Sm2 Sm4 3.469361 1_564
Sm3 Sm5 3.307742 1_555
Sm3 Sm4 3.307862 1_555
Sm3 Sm4 3.691243 1_665
Sm3 Sm5 3.691354 1_565
Sm4 Sm5 3.307801 1_555
Sm4 Sm5 3.691303 1_455
Hg0 Sm2 3.337846 1_556
Hg0 Sm1 3.337898 1_556
Hg0 Sm0 3.337900 1_556
Hg0 Sm2 3.337971 1_555
Hg0 Sm0 3.338026 1_555
Hg0 Sm1 3.338030 1_555
Hg0 Sm3 3.501174 1_455
Hg0 Sm4 3.501210 1_565
Hg0 Sm5 3.501265 1_455
Hg0 Sm5 3.501338 1_565
Hg0 Sm4 3.501389 1_555
Hg0 Sm3 3.501432 1_555
Hg1 Sm3 3.337862 1_554
Hg1 Sm4 3.337863 1_554
Hg1 Sm5 3.337898 1_554
Hg1 Sm3 3.337986 1_555
Hg1 Sm4 3.337993 1_555
Hg1 Sm5 3.338022 1_555
Hg1 Sm0 3.501252 1_555
Hg1 Sm1 3.501255 1_555
Hg1 Sm2 3.501297 1_545
Hg1 Sm2 3.501312 1_655
Hg1 Sm1 3.501340 1_545
Hg1 Sm0 3.501351 1_655
