# generated using pymatgen
data_Tm3Al2
_symmetry_space_group_name_H-M   'P 1'
_cell_length_a   8.07445461
_cell_length_b   8.07445461
_cell_length_c   7.50119937
_cell_angle_alpha   90.00000000
_cell_angle_beta   90.00000000
_cell_angle_gamma   90.00000000
_symmetry_Int_Tables_number   1
_chemical_formula_structural   Tm3Al2
_chemical_formula_sum   'Tm12 Al8'
_cell_volume   489.05432447
_cell_formula_units_Z   4
loop_
 _symmetry_equiv_pos_site_id
 _symmetry_equiv_pos_as_xyz
  1  'x, y, z'
loop_
 _atom_site_type_symbol
 _atom_site_label
 _atom_site_symmetry_multiplicity
 _atom_site_fract_x
 _atom_site_fract_y
 _atom_site_fract_z
 _atom_site_occupancy
  Tm  Tm0  1  0.00000100  0.49999900  0.25000000  1
  Tm  Tm1  1  0.49999900  -0.00000000  0.25000000  1
  Tm  Tm2  1  0.49999900  -0.00000000  0.75000000  1
  Tm  Tm3  1  0.00000100  0.49999900  0.75000000  1
  Tm  Tm4  1  0.34820208  0.34813705  -0.00000000  1
  Tm  Tm5  1  0.65179792  0.65186295  -0.00000000  1
  Tm  Tm6  1  0.84813805  0.15179992  0.50000100  1
  Tm  Tm7  1  0.15186495  0.84820208  0.50000100  1
  Tm  Tm8  1  0.20183191  0.79820197  -0.00000000  1
  Tm  Tm9  1  0.79817009  0.20179903  -0.00000000  1
  Tm  Tm10  1  0.70179703  0.70183091  0.50000100  1
  Tm  Tm11  1  0.29820197  0.29816909  0.50000100  1
  Al  Al0  1  0.11877706  0.11880764  0.19826976  1
  Al  Al1  1  0.88122194  0.88119036  0.19826976  1
  Al  Al2  1  0.61880864  0.38122294  0.30173124  1
  Al  Al3  1  0.38119236  0.61877806  0.30173124  1
  Al  Al4  1  0.88122194  0.88119036  0.80173124  1
  Al  Al5  1  0.11877706  0.11880764  0.80173124  1
  Al  Al6  1  0.61880864  0.38122294  0.69826976  1
  Al  Al7  1  0.38119236  0.61877806  0.69826876  1
loop_
_geom_bond_atom_site_label_1
_geom_bond_atom_site_label_2
_geom_bond_distance
_geom_bond_site_symmetry_2
Tm0 Tm9 3.459783 1_455
Tm0 Tm11 3.459789 1_555
Tm0 Tm8 3.459800 1_555
Tm0 Tm10 3.459814 1_455
Tm0 Tm6 3.595136 1_455
Tm0 Tm4 3.595142 1_555
Tm0 Tm5 3.595160 1_455
Tm0 Tm7 3.595164 1_555
Tm0 Tm3 3.750600 1_554
Tm0 Tm3 3.750600 1_555
Tm1 Tm8 3.459473 1_545
Tm1 Tm11 3.459485 1_555
Tm1 Tm10 3.459489 1_545
Tm1 Tm9 3.459500 1_555
Tm1 Tm7 3.594546 1_545
Tm1 Tm4 3.594558 1_555
Tm1 Tm5 3.594564 1_545
Tm1 Tm6 3.594583 1_555
Tm1 Tm2 3.750600 1_554
Tm1 Tm2 3.750600 1_555
Tm2 Tm8 3.459473 1_546
Tm2 Tm9 3.459500 1_556
Tm2 Tm7 3.594538 1_545
Tm2 Tm4 3.594558 1_556
Tm2 Tm5 3.594564 1_546
Tm2 Tm6 3.594575 1_555
Tm3 Tm9 3.459783 1_456
Tm3 Tm8 3.459800 1_556
Tm3 Tm6 3.595128 1_455
Tm3 Tm4 3.595142 1_556
Tm3 Tm7 3.595156 1_555
Tm3 Tm5 3.595160 1_456
Tm10 Tm2 3.459481 1_565
Tm10 Tm3 3.459805 1_655
Tm11 Tm2 3.459477 1_555
Tm11 Tm3 3.459781 1_555
Al0 Al1 2.712998 1_445
Al0 Al5 2.974514 1_554
Al0 Tm4 3.012053 1_555
Al0 Tm11 3.052712 1_555
Al0 Tm9 3.059820 1_455
Al0 Tm8 3.059923 1_545
Al0 Tm7 3.157262 1_545
Al0 Tm6 3.157384 1_455
Al0 Tm0 3.247137 1_555
Al0 Tm1 3.247446 1_555
Al1 Al4 2.974514 1_554
Al1 Tm5 3.012038 1_555
Al1 Tm10 3.052705 1_555
Al1 Tm8 3.059835 1_655
Al1 Tm9 3.059938 1_565
Al1 Tm6 3.157282 1_565
Al1 Tm7 3.157404 1_655
Al1 Tm0 3.247144 1_655
Al1 Tm1 3.247459 1_565
Al2 Al3 2.712992 1_555
Al2 Al6 2.974514 1_555
Al2 Tm6 3.012043 1_555
Al2 Tm9 3.052709 1_555
Al2 Tm10 3.059821 1_555
Al2 Tm11 3.059928 1_555
Al2 Tm4 3.157267 1_555
Al2 Tm5 3.157388 1_555
Al2 Tm0 3.247146 1_655
Al2 Tm1 3.247460 1_555
Al3 Al7 2.974507 1_555
Al3 Tm7 3.012038 1_555
Al3 Tm8 3.052705 1_555
Al3 Tm11 3.059832 1_555
Al3 Tm10 3.059913 1_555
Al3 Tm5 3.157260 1_555
Al3 Tm4 3.157394 1_555
Al3 Tm0 3.247145 1_555
Al3 Tm1 3.247445 1_565
Al4 Al5 2.712998 1_665
Al4 Tm5 3.012035 1_556
Al4 Tm10 3.052699 1_555
Al4 Tm8 3.059831 1_656
Al4 Tm9 3.059935 1_566
Al4 Tm6 3.157277 1_565
Al4 Tm7 3.157398 1_655
Al4 Tm3 3.247145 1_655
Al4 Tm2 3.247460 1_565
Al5 Tm4 3.012049 1_556
Al5 Tm11 3.052707 1_555
Al5 Tm9 3.059816 1_456
Al5 Tm8 3.059920 1_546
Al5 Tm7 3.157257 1_545
Al5 Tm6 3.157379 1_455
Al5 Tm3 3.247138 1_555
Al5 Tm2 3.247447 1_555
Al6 Al7 2.712992 1_555
Al6 Tm6 3.012040 1_555
Al6 Tm9 3.052703 1_556
Al6 Tm10 3.059818 1_555
Al6 Tm11 3.059925 1_555
Al6 Tm4 3.157261 1_556
Al6 Tm5 3.157382 1_556
Al6 Tm3 3.247145 1_655
Al6 Tm2 3.247459 1_555
Al7 Tm7 3.012031 1_555
Al7 Tm8 3.052705 1_556
Al7 Tm11 3.059824 1_555
Al7 Tm10 3.059906 1_555
Al7 Tm5 3.157260 1_556
Al7 Tm4 3.157394 1_556
Al7 Tm3 3.247145 1_555
Al7 Tm2 3.247445 1_565
