# generated using pymatgen
data_Na3N
_symmetry_space_group_name_H-M   'P 1'
_cell_length_a   4.44993611
_cell_length_b   4.44993611
_cell_length_c   4.44993611
_cell_angle_alpha   60.00000000
_cell_angle_beta   60.00000000
_cell_angle_gamma   60.00000000
_symmetry_Int_Tables_number   1
_chemical_formula_structural   Na3N
_chemical_formula_sum   'Na3 N1'
_cell_volume   62.30836128
_cell_formula_units_Z   1
loop_
 _symmetry_equiv_pos_site_id
 _symmetry_equiv_pos_as_xyz
  1  'x, y, z'
loop_
 _atom_site_type_symbol
 _atom_site_label
 _atom_site_symmetry_multiplicity
 _atom_site_fract_x
 _atom_site_fract_y
 _atom_site_fract_z
 _atom_site_occupancy
  Na  Na0  1  0.50000000  0.50000000  0.50000000  1
  Na  Na1  1  0.25000000  0.25000000  0.25000000  1
  Na  Na2  1  0.75000000  0.75000000  0.75000000  1
  N  N0  1  0.00000000  0.00000000  0.00000000  1
loop_
_geom_bond_atom_site_label_1
_geom_bond_atom_site_label_2
_geom_bond_distance
_geom_bond_site_symmetry_2
Na0 Na2 2.725018 1_555
Na0 Na2 2.725018 1_554
Na0 Na2 2.725018 1_545
Na0 Na1 2.725018 1_556
Na0 Na2 2.725018 1_455
Na0 Na1 2.725018 1_555
Na0 Na1 2.725018 1_655
Na0 Na1 2.725018 1_565
N0 Na2 2.725018 1_454
N0 Na1 2.725018 1_455
N0 Na2 2.725018 1_445
N0 Na2 2.725018 1_544
N0 Na1 2.725018 1_554
N0 Na2 2.725018 1_444
N0 Na1 2.725018 1_545
N0 Na1 2.725018 1_555
N0 Na0 3.146580 1_445
N0 Na0 3.146580 1_554
N0 Na0 3.146580 1_545
N0 Na0 3.146580 1_544
N0 Na0 3.146580 1_454
N0 Na0 3.146580 1_455
