# generated using pymatgen
data_CuAg3
_symmetry_space_group_name_H-M   'P 1'
_cell_length_a   5.74601752
_cell_length_b   5.74601752
_cell_length_c   4.63982300
_cell_angle_alpha   90.00000000
_cell_angle_beta   90.00000000
_cell_angle_gamma   119.99999443
_symmetry_Int_Tables_number   1
_chemical_formula_structural   CuAg3
_chemical_formula_sum   'Cu2 Ag6'
_cell_volume   132.66793234
_cell_formula_units_Z   2
loop_
 _symmetry_equiv_pos_site_id
 _symmetry_equiv_pos_as_xyz
  1  'x, y, z'
loop_
 _atom_site_type_symbol
 _atom_site_label
 _atom_site_symmetry_multiplicity
 _atom_site_fract_x
 _atom_site_fract_y
 _atom_site_fract_z
 _atom_site_occupancy
  Cu  Cu0  1  0.33333300  0.66666700  0.75000000  1
  Cu  Cu1  1  0.66666700  0.33333300  0.25000000  1
  Ag  Ag0  1  0.16939700  0.33879400  0.25000000  1
  Ag  Ag1  1  0.66120600  0.83060300  0.25000000  1
  Ag  Ag2  1  0.16939700  0.83060300  0.25000000  1
  Ag  Ag3  1  0.83060300  0.66120600  0.75000000  1
  Ag  Ag4  1  0.33879400  0.16939700  0.75000000  1
  Ag  Ag5  1  0.83060300  0.16939700  0.75000000  1
loop_
_geom_bond_atom_site_label_1
_geom_bond_atom_site_label_2
_geom_bond_distance
_geom_bond_site_symmetry_2
Ag0 Ag2 2.825943 1_555
Ag0 Ag1 2.825943 1_555
Ag0 Cu0 2.836191 1_554
Ag0 Cu0 2.836191 1_555
Ag0 Ag4 2.867798 1_554
Ag0 Ag4 2.867798 1_555
Ag0 Ag5 2.867798 1_454
Ag0 Ag5 2.867798 1_455
Ag0 Cu1 2.873134 1_455
Ag0 Cu1 2.873140 1_555
Ag0 Ag2 2.920074 1_545
Ag0 Ag1 2.920075 1_445
Ag1 Ag2 2.825943 1_555
Ag1 Cu0 2.836191 1_554
Ag1 Cu0 2.836191 1_555
Ag1 Ag3 2.867798 1_555
Ag1 Ag3 2.867798 1_554
Ag1 Ag5 2.867798 1_565
Ag1 Ag5 2.867798 1_564
Ag1 Cu1 2.873134 1_565
Ag1 Cu1 2.873140 1_555
Ag1 Ag2 2.920074 1_655
Ag2 Cu0 2.836188 1_555
Ag2 Cu0 2.836188 1_554
Ag2 Ag3 2.867798 1_454
Ag2 Ag4 2.867798 1_564
Ag2 Ag3 2.867798 1_455
Ag2 Ag4 2.867798 1_565
Ag2 Cu1 2.873137 1_455
Ag2 Cu1 2.873137 1_565
Ag3 Ag5 2.825943 1_555
Ag3 Ag4 2.825943 1_555
Ag3 Cu1 2.836191 1_555
Ag3 Cu1 2.836191 1_556
Ag3 Cu0 2.873134 1_655
Ag3 Cu0 2.873140 1_555
Ag3 Ag5 2.920074 1_565
Ag3 Ag4 2.920075 1_665
Ag4 Ag5 2.825943 1_555
Ag4 Cu1 2.836191 1_555
Ag4 Cu1 2.836191 1_556
Ag4 Cu0 2.873134 1_545
Ag4 Cu0 2.873140 1_555
Ag4 Ag5 2.920074 1_455
Ag5 Cu1 2.836188 1_555
Ag5 Cu1 2.836188 1_556
Ag5 Cu0 2.873137 1_655
Ag5 Cu0 2.873137 1_545
