# generated using pymatgen
data_TmLuRh2
_symmetry_space_group_name_H-M   'P 1'
_cell_length_a   4.71949007
_cell_length_b   4.71949072
_cell_length_c   4.71948874
_cell_angle_alpha   60.00000392
_cell_angle_beta   60.00002419
_cell_angle_gamma   59.99999529
_symmetry_Int_Tables_number   1
_chemical_formula_structural   TmLuRh2
_chemical_formula_sum   'Tm1 Lu1 Rh2'
_cell_volume   74.33104644
_cell_formula_units_Z   1
loop_
 _symmetry_equiv_pos_site_id
 _symmetry_equiv_pos_as_xyz
  1  'x, y, z'
loop_
 _atom_site_type_symbol
 _atom_site_label
 _atom_site_symmetry_multiplicity
 _atom_site_fract_x
 _atom_site_fract_y
 _atom_site_fract_z
 _atom_site_occupancy
  Tm  Tm0  1  0.74999932  0.74999903  0.74999908  1
  Lu  Lu0  1  0.24999919  0.24999914  0.24999898  1
  Rh  Rh0  1  0.00000034  0.00000007  0.00000007  1
  Rh  Rh1  1  0.50000014  0.50000076  0.50000087  1
loop_
_geom_bond_atom_site_label_1
_geom_bond_atom_site_label_2
_geom_bond_distance
_geom_bond_site_symmetry_2
Lu0 Rh0 2.890073 1_555
Lu0 Rh1 2.890078 1_554
Lu0 Rh1 2.890080 1_545
Lu0 Rh1 2.890082 1_455
Lu0 Rh0 2.890089 1_565
Lu0 Rh0 2.890090 1_556
Lu0 Rh0 2.890090 1_655
Lu0 Rh1 2.890103 1_555
Rh0 Tm0 2.890082 1_445
Rh0 Tm0 2.890082 1_454
Rh0 Tm0 2.890082 1_544
Rh0 Tm0 2.890097 1_444
Rh1 Tm0 2.890069 1_555
Rh1 Tm0 2.890089 1_455
Rh1 Tm0 2.890092 1_554
Rh1 Tm0 2.890092 1_545
