# generated using pymatgen
data_KCe(PO3)4
_symmetry_space_group_name_H-M   'P 1'
_cell_length_a   7.26252199
_cell_length_b   8.49464463
_cell_length_c   8.02792337
_cell_angle_alpha   89.99691998
_cell_angle_beta   91.98494589
_cell_angle_gamma   90.00102208
_symmetry_Int_Tables_number   1
_chemical_formula_structural   KCe(PO3)4
_chemical_formula_sum   'K2 Ce2 P8 O24'
_cell_volume   494.96583392
_cell_formula_units_Z   2
loop_
 _symmetry_equiv_pos_site_id
 _symmetry_equiv_pos_as_xyz
  1  'x, y, z'
loop_
 _atom_site_type_symbol
 _atom_site_label
 _atom_site_symmetry_multiplicity
 _atom_site_fract_x
 _atom_site_fract_y
 _atom_site_fract_z
 _atom_site_occupancy
  K  K0  1  0.22876101  0.31210478  0.27870636  1
  K  K1  1  0.77134793  0.81192637  0.72131155  1
  Ce  Ce0  1  0.73353605  0.49671388  0.24165947  1
  Ce  Ce1  1  0.26649254  0.99677599  0.75833180  1
  P  P0  1  0.93448375  0.87412319  0.10032031  1
  P  P1  1  0.06549396  0.37415873  0.89960305  1
  P  P2  1  0.87680944  0.24228994  0.60287389  1
  P  P3  1  0.12318929  0.74229903  0.39710914  1
  P  P4  1  0.49625159  0.34972767  0.61857964  1
  P  P5  1  0.50378281  0.84964123  0.38144151  1
  P  P6  1  0.60294068  0.07469629  0.10623046  1
  P  P7  1  0.39702833  0.57471930  0.89383358  1
  O  O0  1  0.89083591  0.30003894  0.42980156  1
  O  O1  1  0.10914985  0.80013263  0.57014158  1
  O  O2  1  0.49281120  0.95100000  0.21521055  1
  O  O3  1  0.50726527  0.45121724  0.78470894  1
  O  O4  1  0.95456739  0.37672294  0.72569329  1
  O  O5  1  0.04552897  0.87668921  0.27417063  1
  O  O6  1  0.32713977  0.25162313  0.61108266  1
  O  O7  1  0.67286698  0.75150907  0.38901100  1
  O  O8  1  0.93612184  0.40644071  0.03478973  1
  O  O9  1  0.06376276  0.90638297  0.96505263  1
  O  O10  1  0.81473868  0.73427789  0.07434836  1
  O  O11  1  0.18523577  0.23432974  0.92568225  1
  O  O12  1  0.52834025  0.45174619  0.47204630  1
  O  O13  1  0.47169161  0.95174572  0.52790064  1
  O  O14  1  0.66681378  0.23626270  0.65274943  1
  O  O15  1  0.33320366  0.73617983  0.34731987  1
  O  O16  1  0.45896713  0.54464630  0.06933309  1
  O  O17  1  0.54089026  0.04487216  0.93071811  1
  O  O18  1  0.04067448  0.58882767  0.34909336  1
  O  O19  1  0.95928944  0.08882691  0.65096797  1
  O  O20  1  0.81398700  0.02782267  0.13062615  1
  O  O21  1  0.18599653  0.52786575  0.86927991  1
  O  O22  1  0.58231275  0.23356241  0.17890761  1
  O  O23  1  0.41769335  0.73368083  0.82137361  1
loop_
_geom_bond_atom_site_label_1
_geom_bond_atom_site_label_2
_geom_bond_distance
_geom_bond_site_symmetry_2
K0 O0 2.776881 1_455
K0 O6 2.786040 1_555
K0 O18 2.786493 1_555
K0 O22 2.796894 1_555
K0 O12 2.883747 1_555
K0 O11 2.916571 1_554
K0 O8 2.950421 1_455
K0 O16 3.117147 1_555
K1 O1 2.776281 1_655
K1 O7 2.785576 1_555
K1 O19 2.787074 1_565
K1 O23 2.797618 1_555
K1 O13 2.885036 1_555
K1 O10 2.916287 1_556
K1 O9 2.948700 1_655
K1 O17 3.120639 1_565
Ce0 O8 2.383317 1_555
Ce0 O16 2.421735 1_555
Ce0 O12 2.445060 1_555
Ce0 O18 2.489666 1_655
Ce0 O0 2.501558 1_555
Ce0 O10 2.505757 1_555
Ce0 O7 2.512861 1_555
Ce0 O22 2.533492 1_555
Ce1 O9 2.383383 1_555
Ce1 O17 2.421244 1_565
Ce1 O13 2.445474 1_555
Ce1 O19 2.489732 1_465
Ce1 O1 2.501823 1_555
Ce1 O11 2.506092 1_565
Ce1 O6 2.512696 1_565
Ce1 O23 2.533416 1_555
O0 P2 1.480276 1_555
O1 P3 1.480273 1_555
O2 P5 1.587784 1_555
O2 P6 1.599238 1_565
O3 P4 1.587785 1_555
O3 P7 1.599296 1_555
O4 P1 1.587687 1_655
O4 P2 1.598960 1_555
O5 P0 1.587689 1_455
O5 P3 1.598982 1_555
O6 P4 1.483707 1_555
O7 P5 1.483701 1_555
O8 P1 1.485420 1_654
O9 P0 1.485402 1_456
O10 P0 1.482696 1_555
O11 P1 1.482682 1_555
O12 P4 1.485940 1_555
O13 P5 1.485973 1_555
O14 P4 1.585915 1_555
O14 P2 1.590962 1_555
O15 P5 1.585927 1_555
O15 P3 1.590925 1_555
O16 P7 1.486156 1_554
O17 P6 1.486133 1_556
O18 P3 1.480311 1_555
O19 P2 1.480286 1_555
O20 P6 1.589143 1_555
O20 P0 1.595144 1_545
O21 P7 1.589105 1_555
O21 P1 1.595196 1_555
O22 P6 1.479926 1_555
O23 P7 1.479942 1_555
