# generated using pymatgen
data_Sc7CBr12
_symmetry_space_group_name_H-M   'P 1'
_cell_length_a   8.03310200
_cell_length_b   11.36052100
_cell_length_c   11.36052144
_cell_angle_alpha   120.00000164
_cell_angle_beta   90.00000000
_cell_angle_gamma   90.00000000
_symmetry_Int_Tables_number   1
_chemical_formula_structural   Sc7CBr12
_chemical_formula_sum   'Sc7 C1 Br12'
_cell_volume   897.86371349
_cell_formula_units_Z   1
loop_
 _symmetry_equiv_pos_site_id
 _symmetry_equiv_pos_as_xyz
  1  'x, y, z'
loop_
 _atom_site_type_symbol
 _atom_site_label
 _atom_site_symmetry_multiplicity
 _atom_site_fract_x
 _atom_site_fract_y
 _atom_site_fract_z
 _atom_site_occupancy
  Sc  Sc0  1  0.47821900  0.47821900  0.52178100  1
  Sc  Sc1  1  0.97771600  0.71394800  0.08948900  1
  Sc  Sc2  1  0.71394800  0.91051100  0.02228400  1
  Sc  Sc3  1  0.91051100  0.97771600  0.28605200  1
  Sc  Sc4  1  0.29470200  0.10390000  0.96103400  1
  Sc  Sc5  1  0.10390000  0.03896600  0.70529800  1
  Sc  Sc6  1  0.03896600  0.29470200  0.89610000  1
  C  C0  1  0.00057000  0.00057000  0.99943000  1
  Br  Br0  1  0.07690900  0.69496200  0.77298700  1
  Br  Br1  1  0.69496200  0.22701300  0.92309100  1
  Br  Br2  1  0.22701300  0.07690900  0.30503800  1
  Br  Br3  1  0.84163800  0.61958100  0.45411200  1
  Br  Br4  1  0.61958100  0.54588800  0.15836200  1
  Br  Br5  1  0.54588800  0.84163800  0.38041900  1
  Br  Br6  1  0.31101800  0.78095300  0.07462700  1
  Br  Br7  1  0.78095300  0.92537300  0.68898200  1
  Br  Br8  1  0.92537300  0.31101800  0.21904700  1
  Br  Br9  1  0.46600300  0.14904900  0.61271900  1
  Br  Br10  1  0.14904900  0.38728100  0.53399700  1
  Br  Br11  1  0.38728100  0.46600300  0.85095100  1
loop_
_geom_bond_atom_site_label_1
_geom_bond_atom_site_label_2
_geom_bond_distance
_geom_bond_site_symmetry_2
C0 Sc2 2.584793 1_446
C0 Sc4 2.768231 1_555
Br0 Sc1 3.582520 1_456
Br1 Sc6 2.925344 1_655
Br2 Sc3 2.745469 1_445
Br3 Sc0 3.595472 1_555
Br6 Sc1 2.811620 1_455
Br7 Sc5 2.861940 1_665
Br9 Sc5 3.527983 1_555
Br10 Sc0 2.867408 1_555
Br11 Sc6 3.588526 1_555
