# generated using pymatgen
data_Li7ZrO6
_symmetry_space_group_name_H-M   'P 1'
_cell_length_a   6.03888175
_cell_length_b   6.03888175
_cell_length_c   6.03888227
_cell_angle_alpha   56.00218999
_cell_angle_beta   56.00218999
_cell_angle_gamma   56.00218672
_symmetry_Int_Tables_number   1
_chemical_formula_structural   Li7ZrO6
_chemical_formula_sum   'Li7 Zr1 O6'
_cell_volume   141.30106333
_cell_formula_units_Z   1
loop_
 _symmetry_equiv_pos_site_id
 _symmetry_equiv_pos_as_xyz
  1  'x, y, z'
loop_
 _atom_site_type_symbol
 _atom_site_label
 _atom_site_symmetry_multiplicity
 _atom_site_fract_x
 _atom_site_fract_y
 _atom_site_fract_z
 _atom_site_occupancy
  Li  Li0  1  0.49131400  0.92798400  0.22982500  1
  Li  Li1  1  0.72935100  0.49486800  0.12493400  1
  Li  Li2  1  0.12493400  0.72935100  0.49486800  1
  Li  Li3  1  0.65328600  0.65328600  0.65328600  1
  Li  Li4  1  0.92798400  0.22982500  0.49131400  1
  Li  Li5  1  0.22982500  0.49131400  0.92798400  1
  Li  Li6  1  0.49486800  0.12493400  0.72935100  1
  Zr  Zr0  1  0.00019500  0.00019500  0.00019500  1
  O  O0  1  0.38727000  0.79682400  0.07014700  1
  O  O1  1  0.88098600  0.63003000  0.23809100  1
  O  O2  1  0.23809100  0.88098600  0.63003000  1
  O  O3  1  0.79682400  0.07014700  0.38727000  1
  O  O4  1  0.07014700  0.38727000  0.79682400  1
  O  O5  1  0.63003000  0.23809100  0.88098600  1
loop_
_geom_bond_atom_site_label_1
_geom_bond_atom_site_label_2
_geom_bond_distance
_geom_bond_site_symmetry_2
Li0 O2 1.960894 1_555
Li0 O5 2.003885 1_564
Li0 O0 2.010022 1_555
Li0 O1 2.018242 1_555
Li1 O0 1.891834 1_555
Li1 O4 1.991913 1_654
Li1 O1 2.032510 1_555
Li1 O3 2.064773 1_555
Li2 O4 1.891834 1_555
Li2 O3 1.991913 1_465
Li2 O2 2.032510 1_555
Li2 O0 2.064774 1_555
Li3 O2 2.125869 1_555
Li3 O5 2.125869 1_555
Li3 O1 2.125869 1_555
Li3 O4 2.455546 1_655
Li3 O3 2.455546 1_565
Li3 O0 2.455546 1_556
Li4 O1 1.960894 1_555
Li4 O2 2.003885 1_645
Li4 O3 2.010022 1_555
Li4 O5 2.018242 1_555
Li5 O5 1.960894 1_555
Li5 O1 2.003885 1_456
Li5 O4 2.010022 1_555
Li5 O2 2.018242 1_555
Li6 O3 1.891834 1_555
Li6 O0 1.991913 1_546
Li6 O5 2.032510 1_555
Li6 O4 2.064773 1_555
O0 Zr0 2.112892 1_565
O1 Zr0 2.151914 1_665
O2 Zr0 2.151914 1_566
O3 Zr0 2.112892 1_655
O4 Zr0 2.112892 1_556
O5 Zr0 2.151914 1_656
