# generated using pymatgen
data_CrGa3P4
_symmetry_space_group_name_H-M   'P 1'
_cell_length_a   5.49118400
_cell_length_b   5.49118400
_cell_length_c   5.49118400
_cell_angle_alpha   90.00000000
_cell_angle_beta   90.00000000
_cell_angle_gamma   90.00000000
_symmetry_Int_Tables_number   1
_chemical_formula_structural   CrGa3P4
_chemical_formula_sum   'Cr1 Ga3 P4'
_cell_volume   165.57622973
_cell_formula_units_Z   1
loop_
 _symmetry_equiv_pos_site_id
 _symmetry_equiv_pos_as_xyz
  1  'x, y, z'
loop_
 _atom_site_type_symbol
 _atom_site_label
 _atom_site_symmetry_multiplicity
 _atom_site_fract_x
 _atom_site_fract_y
 _atom_site_fract_z
 _atom_site_occupancy
  Cr  Cr0  1  0.00000000  0.00000000  0.00000000  1
  Ga  Ga0  1  0.00000000  0.50000000  0.50000000  1
  Ga  Ga1  1  0.50000000  0.00000000  0.50000000  1
  Ga  Ga2  1  0.50000000  0.50000000  0.00000000  1
  P  P0  1  0.24627700  0.24627700  0.24627700  1
  P  P1  1  0.75372300  0.75372300  0.24627700  1
  P  P2  1  0.24627700  0.75372300  0.75372300  1
  P  P3  1  0.75372300  0.24627700  0.75372300  1
loop_
_geom_bond_atom_site_label_1
_geom_bond_atom_site_label_2
_geom_bond_distance
_geom_bond_site_symmetry_2
Cr0 P0 2.342343 1_555
Cr0 P1 2.342343 1_445
Cr0 P2 2.342343 1_544
Cr0 P3 2.342343 1_454
Ga0 P2 2.389789 1_555
Ga0 P1 2.389789 1_455
Ga0 P0 2.389789 1_555
Ga0 P3 2.389789 1_455
Ga1 P3 2.389789 1_555
Ga1 P1 2.389789 1_545
Ga1 P2 2.389789 1_545
Ga1 P0 2.389789 1_555
Ga2 P1 2.389789 1_555
Ga2 P3 2.389789 1_554
Ga2 P2 2.389789 1_554
Ga2 P0 2.389789 1_555
