# generated using pymatgen
data_Ba4Pr(RuO4)3
_symmetry_space_group_name_H-M   'P 1'
_cell_length_a   5.98880050
_cell_length_b   5.98879989
_cell_length_c   30.17999223
_cell_angle_alpha   88.42359264
_cell_angle_beta   88.42359319
_cell_angle_gamma   60.02536880
_symmetry_Int_Tables_number   1
_chemical_formula_structural   Ba4Pr(RuO4)3
_chemical_formula_sum   'Ba12 Pr3 Ru9 O36'
_cell_volume   937.17583793
_cell_formula_units_Z   3
loop_
 _symmetry_equiv_pos_site_id
 _symmetry_equiv_pos_as_xyz
  1  'x, y, z'
loop_
 _atom_site_type_symbol
 _atom_site_label
 _atom_site_symmetry_multiplicity
 _atom_site_fract_x
 _atom_site_fract_y
 _atom_site_fract_z
 _atom_site_occupancy
  Ba  Ba0  1  0.99654300  0.99654300  0.72032500  1
  Ba  Ba1  1  0.00345700  0.00345700  0.27967500  1
  Ba  Ba2  1  0.00010000  0.00010000  0.13062100  1
  Ba  Ba3  1  0.99990000  0.99990000  0.86937900  1
  Ba  Ba4  1  0.33860700  0.33860700  0.61312700  1
  Ba  Ba5  1  0.66139300  0.66139300  0.38687300  1
  Ba  Ba6  1  0.33283900  0.33283900  0.20280900  1
  Ba  Ba7  1  0.66663400  0.66663400  0.53600000  1
  Ba  Ba8  1  0.32945000  0.32945000  0.05381000  1
  Ba  Ba9  1  0.33336600  0.33336600  0.46400000  1
  Ba  Ba10  1  0.67055000  0.67055000  0.94619000  1
  Ba  Ba11  1  0.66716100  0.66716100  0.79719100  1
  Pr  Pr0  1  0.33214200  0.33214200  0.33324200  1
  Pr  Pr1  1  0.66785800  0.66785800  0.66675800  1
  Pr  Pr2  1  0.00000000  0.00000000  0.00000000  1
  Ru  Ru0  1  0.65814600  0.65814600  0.08183900  1
  Ru  Ru1  1  0.33374000  0.33374000  0.83324400  1
  Ru  Ru2  1  0.98976600  0.98976600  0.41514200  1
  Ru  Ru3  1  0.66626000  0.66626000  0.16675600  1
  Ru  Ru4  1  0.01023400  0.01023400  0.58485800  1
  Ru  Ru5  1  0.00000000  0.00000000  0.50000000  1
  Ru  Ru6  1  0.34185400  0.34185400  0.91816100  1
  Ru  Ru7  1  0.67475100  0.67475100  0.25151800  1
  Ru  Ru8  1  0.32524900  0.32524900  0.74848200  1
  O  O0  1  0.15870700  0.15870700  0.53716600  1
  O  O1  1  0.50925000  0.97222600  0.12365500  1
  O  O2  1  0.86464100  0.86464100  0.62649900  1
  O  O3  1  0.49075000  0.02777400  0.87634500  1
  O  O4  1  0.17554300  0.17554300  0.79563300  1
  O  O5  1  0.00520600  0.47471400  0.71615800  1
  O  O6  1  0.52528600  0.99479400  0.28384200  1
  O  O7  1  0.66124600  0.19215000  0.95042200  1
  O  O8  1  0.63969900  0.17684100  0.79011400  1
  O  O9  1  0.47242700  0.47242700  0.70710600  1
  O  O10  1  0.17684100  0.63969900  0.79011400  1
  O  O11  1  0.80550700  0.80550700  0.04101000  1
  O  O12  1  0.33096100  0.86176400  0.61665200  1
  O  O13  1  0.82315900  0.36030100  0.20988600  1
  O  O14  1  0.52757300  0.52757300  0.29289400  1
  O  O15  1  0.69474600  0.15808000  0.54332400  1
  O  O16  1  0.84192000  0.30525400  0.45667600  1
  O  O17  1  0.99479400  0.52528600  0.28384200  1
  O  O18  1  0.13823700  0.66903900  0.38334800  1
  O  O19  1  0.19449300  0.19449300  0.95899000  1
  O  O20  1  0.02777400  0.49075000  0.87634500  1
  O  O21  1  0.97222600  0.50925000  0.12365500  1
  O  O22  1  0.50814200  0.50814200  0.12907100  1
  O  O23  1  0.33875400  0.80785000  0.04957800  1
  O  O24  1  0.36030100  0.82315900  0.20988600  1
  O  O25  1  0.15808000  0.69474600  0.54332400  1
  O  O26  1  0.86176400  0.33096100  0.61665200  1
  O  O27  1  0.13535900  0.13535900  0.37350100  1
  O  O28  1  0.47471400  0.00520600  0.71615800  1
  O  O29  1  0.19215000  0.66124600  0.95042200  1
  O  O30  1  0.82445700  0.82445700  0.20436700  1
  O  O31  1  0.80785000  0.33875400  0.04957800  1
  O  O32  1  0.49185800  0.49185800  0.87092900  1
  O  O33  1  0.66903900  0.13823700  0.38334800  1
  O  O34  1  0.84129300  0.84129300  0.46283400  1
  O  O35  1  0.30525400  0.84192000  0.45667600  1
loop_
_geom_bond_atom_site_label_1
_geom_bond_atom_site_label_2
_geom_bond_distance
_geom_bond_site_symmetry_2
Ba0 O10 2.782243 1_655
Ba0 O8 2.782243 1_565
Ba0 O5 2.889186 1_665
Ba0 O28 2.889187 1_665
Ba0 O4 2.979990 1_665
Ba0 O9 3.033376 1_655
Ba0 O9 3.033376 1_565
Ba0 O5 3.105511 1_655
Ba0 O28 3.105511 1_565
Ba0 O2 3.183708 1_555
Ba1 O13 2.782243 1_455
Ba1 O24 2.782243 1_545
Ba1 O17 2.889186 1_445
Ba1 O6 2.889187 1_445
Ba1 O30 2.979990 1_445
Ba1 O14 3.033376 1_455
Ba1 O14 3.033376 1_545
Ba1 O17 3.105511 1_455
Ba1 O6 3.105511 1_545
Ba1 O27 3.183708 1_555
Ba2 O30 2.830987 1_445
Ba2 O21 2.971147 1_455
Ba2 O1 2.971147 1_545
Ba2 O31 2.994987 1_455
Ba2 O23 2.994987 1_545
Ba2 O22 2.997033 1_455
Ba2 O22 2.997033 1_545
Ba2 O21 3.039671 1_445
Ba2 O1 3.039671 1_445
Ba2 O13 3.059299 1_455
Ba2 O24 3.059299 1_545
Ba3 O4 2.830987 1_665
Ba3 O20 2.971147 1_655
Ba3 O3 2.971147 1_565
Ba3 O29 2.994987 1_655
Ba3 O7 2.994987 1_565
Ba3 O32 2.997033 1_655
Ba3 O32 2.997033 1_565
Ba3 O20 3.039671 1_665
Ba3 O3 3.039671 1_665
Ba3 O10 3.059299 1_655
Ba3 O8 3.059299 1_565
Ba4 O25 2.780260 1_555
Ba4 O15 2.780260 1_555
Ba4 O12 2.877884 1_545
Ba4 O26 2.877884 1_455
Ba4 O0 3.001457 1_555
Ba4 O2 3.035788 1_455
Ba4 O2 3.035788 1_545
Ba4 O12 3.115178 1_555
Ba4 O26 3.115179 1_555
Ba4 O9 3.197027 1_555
Ba5 O16 2.780260 1_555
Ba5 O35 2.780260 1_555
Ba5 O33 2.877890 1_565
Ba5 O18 2.877890 1_655
Ba5 O34 3.001457 1_555
Ba5 O27 3.035788 1_655
Ba5 O27 3.035788 1_565
Ba5 O33 3.115172 1_555
Ba5 O18 3.115173 1_555
Ba5 O14 3.197027 1_555
Ba6 O22 2.828623 1_555
Ba6 O24 2.975581 1_545
Ba6 O13 2.975581 1_455
Ba6 O6 2.993139 1_545
Ba6 O17 2.993139 1_455
Ba6 O30 2.997135 1_545
Ba6 O30 2.997135 1_455
Ba6 O24 3.035504 1_555
Ba6 O13 3.035504 1_555
Ba6 O1 3.058105 1_545
Ba6 O21 3.058105 1_455
Ba7 O34 2.811273 1_555
Ba7 O15 2.967440 1_555
Ba7 O25 2.967440 1_555
Ba7 O26 2.978497 1_555
Ba7 O12 2.978497 1_555
Ba7 O0 2.996852 1_655
Ba7 O0 2.996852 1_565
Ba7 O15 3.045066 1_565
Ba7 O25 3.045066 1_655
Ba7 O16 3.064921 1_555
Ba7 O35 3.064921 1_555
Ba8 O1 2.784692 1_545
Ba8 O21 2.784692 1_455
Ba8 O23 2.892555 1_555
Ba8 O31 2.892555 1_555
Ba8 O22 2.976813 1_555
Ba8 O11 3.031551 1_545
Ba8 O11 3.031551 1_455
Ba8 O23 3.102406 1_545
Ba8 O31 3.102406 1_455
Ba8 O19 3.225346 1_554
Ba9 O0 2.811273 1_555
Ba9 O35 2.967440 1_555
Ba9 O16 2.967440 1_555
Ba9 O18 2.978496 1_555
Ba9 O33 2.978496 1_555
Ba9 O34 2.996852 1_455
Ba9 O34 2.996852 1_545
Ba9 O35 3.045066 1_545
Ba9 O16 3.045066 1_455
Ba9 O25 3.064921 1_555
Ba9 O15 3.064921 1_555
Ba10 O3 2.784692 1_565
Ba10 O20 2.784692 1_655
Ba10 O7 2.892555 1_555
Ba10 O29 2.892555 1_555
Ba10 O32 2.976813 1_555
Ba10 O19 3.031551 1_565
Ba10 O19 3.031551 1_655
Ba10 O7 3.102406 1_565
Ba10 O29 3.102406 1_655
Ba10 O11 3.225346 1_556
Ba11 O32 2.828623 1_555
Ba11 O8 2.975581 1_565
Ba11 O10 2.975581 1_655
Ba11 O28 2.993139 1_565
Ba11 O5 2.993139 1_655
Ba11 O4 2.997135 1_565
Ba11 O4 2.997135 1_655
Ba11 O8 3.035504 1_555
Ba11 O10 3.035504 1_555
Ba11 O3 3.058105 1_565
Ba11 O20 3.058105 1_655
O0 Ru5 2.021117 1_555
O0 Ru4 2.074167 1_555
O1 Ru3 2.036735 1_555
O1 Ru0 2.078107 1_555
O2 Ru4 1.933641 1_665
O2 Pr1 2.341832 1_555
O3 Ru1 2.036735 1_555
O3 Ru6 2.078107 1_555
O4 Ru1 2.024564 1_555
O4 Ru8 2.072541 1_555
O5 Ru8 1.940888 1_555
O5 Pr1 2.319074 1_455
O6 Ru7 1.940888 1_555
O6 Pr0 2.319074 1_565
O7 Ru6 1.936836 1_555
O7 Pr2 2.327721 1_656
O8 Ru1 2.037237 1_555
O8 Ru8 2.076357 1_555
O9 Ru8 1.941214 1_555
O9 Pr1 2.331182 1_555
O10 Ru1 2.037237 1_555
O10 Ru8 2.076357 1_555
O11 Ru0 1.932512 1_555
O11 Pr2 2.332877 1_665
O12 Ru4 1.936127 1_565
O12 Pr1 2.331543 1_555
O13 Ru3 2.037237 1_555
O13 Ru7 2.076357 1_555
O14 Ru7 1.941214 1_555
O14 Pr0 2.331182 1_555
O15 Ru5 2.038398 1_655
O15 Ru4 2.079098 1_655
O16 Ru5 2.038398 1_655
O16 Ru2 2.079098 1_545
O17 Ru7 1.940888 1_555
O17 Pr0 2.319074 1_655
O18 Ru2 1.936126 1_455
O18 Pr0 2.331543 1_555
O19 Ru6 1.932512 1_555
O19 Pr2 2.332877 1_556
O20 Ru1 2.036735 1_555
O20 Ru6 2.078107 1_555
O21 Ru3 2.036735 1_555
O21 Ru0 2.078107 1_555
O22 Ru3 2.025196 1_555
O22 Ru0 2.076409 1_555
O23 Ru0 1.936836 1_555
O23 Pr2 2.327721 1_565
O24 Ru3 2.037237 1_555
O24 Ru7 2.076357 1_555
O25 Ru5 2.038398 1_565
O25 Ru4 2.079098 1_565
O26 Ru4 1.936127 1_655
O26 Pr1 2.331543 1_555
O27 Ru2 1.933641 1_445
O27 Pr0 2.341832 1_555
O28 Ru8 1.940888 1_555
O28 Pr1 2.319074 1_545
O29 Ru6 1.936836 1_555
O29 Pr2 2.327721 1_566
O30 Ru3 2.024564 1_555
O30 Ru7 2.072541 1_555
O31 Ru0 1.936836 1_555
O31 Pr2 2.327721 1_655
O32 Ru1 2.025196 1_555
O32 Ru6 2.076409 1_555
O33 Ru2 1.936126 1_545
O33 Pr0 2.331543 1_555
O34 Ru5 2.021117 1_665
O34 Ru2 2.074167 1_555
O35 Ru5 2.038398 1_565
O35 Ru2 2.079098 1_455
