# generated using pymatgen
data_Cr(PO3)3
_symmetry_space_group_name_H-M   'P 1'
_cell_length_a   11.74472605
_cell_length_b   11.74472605
_cell_length_c   9.54670290
_cell_angle_alpha   70.14574189
_cell_angle_beta   70.14574189
_cell_angle_gamma   111.06503194
_symmetry_Int_Tables_number   1
_chemical_formula_structural   Cr(PO3)3
_chemical_formula_sum   'Cr6 P18 O54'
_cell_volume   982.97868003
_cell_formula_units_Z   6
loop_
 _symmetry_equiv_pos_site_id
 _symmetry_equiv_pos_as_xyz
  1  'x, y, z'
loop_
 _atom_site_type_symbol
 _atom_site_label
 _atom_site_symmetry_multiplicity
 _atom_site_fract_x
 _atom_site_fract_y
 _atom_site_fract_z
 _atom_site_occupancy
  Cr  Cr0  1  0.02107800  0.85905600  0.27250200  1
  Cr  Cr1  1  0.85905600  0.02107800  0.77250200  1
  Cr  Cr2  1  0.16863400  0.67155900  0.80239600  1
  Cr  Cr3  1  0.67155900  0.16863400  0.30239600  1
  Cr  Cr4  1  0.52937600  0.35425700  0.76947100  1
  Cr  Cr5  1  0.35425700  0.52937600  0.26947100  1
  P  P0  1  0.77779100  0.84339900  0.58640800  1
  P  P1  1  0.84339900  0.77779100  0.08640800  1
  P  P2  1  0.09666100  0.48850400  0.61598600  1
  P  P3  1  0.48850400  0.09666100  0.11598600  1
  P  P4  1  0.15213400  0.42404100  0.11902400  1
  P  P5  1  0.42404100  0.15213400  0.61902400  1
  P  P6  1  0.21979500  0.18356200  0.50536000  1
  P  P7  1  0.18356200  0.21979500  0.00536000  1
  P  P8  1  0.87751100  0.50446500  0.51816400  1
  P  P9  1  0.50446500  0.87751100  0.01816400  1
  P  P10  1  0.61105400  0.56127700  0.93159600  1
  P  P11  1  0.56127700  0.61105400  0.43159600  1
  P  P12  1  0.81377100  0.52138300  0.05537800  1
  P  P13  1  0.52138300  0.81377100  0.55537800  1
  P  P14  1  0.87085600  0.26367000  0.46550900  1
  P  P15  1  0.26367000  0.87085600  0.96550900  1
  P  P16  1  0.20289000  0.92915300  0.46428400  1
  P  P17  1  0.92915300  0.20289000  0.96428400  1
  O  O0  1  0.81896500  0.62340100  0.13338800  1
  O  O1  1  0.62340100  0.81896500  0.63338800  1
  O  O2  1  0.91357800  0.64528000  0.38479400  1
  O  O3  1  0.64528000  0.91357800  0.88479400  1
  O  O4  1  0.07640200  0.85201400  0.45237200  1
  O  O5  1  0.85201400  0.07640200  0.95237200  1
  O  O6  1  0.95682700  0.58830600  0.89699900  1
  O  O7  1  0.58830600  0.95682700  0.39699900  1
  O  O8  1  0.60091400  0.18711200  0.13846300  1
  O  O9  1  0.18711200  0.60091400  0.63846300  1
  O  O10  1  0.52177400  0.45242600  0.90442000  1
  O  O11  1  0.45242600  0.52177400  0.40442000  1
  O  O12  1  0.70131700  0.50884100  0.99527200  1
  O  O13  1  0.50884100  0.70131700  0.49527200  1
  O  O14  1  0.97087600  0.86690500  0.08931300  1
  O  O15  1  0.86690500  0.97087600  0.58931300  1
  O  O16  1  0.74815600  0.37734800  0.21143600  1
  O  O17  1  0.37734800  0.74815600  0.71143600  1
  O  O18  1  0.00250000  0.53890700  0.55868900  1
  O  O19  1  0.53890700  0.00250000  0.05868900  1
  O  O20  1  0.53056500  0.25891900  0.63236700  1
  O  O21  1  0.25891900  0.53056500  0.13236700  1
  O  O22  1  0.32427800  0.28340500  0.84489600  1
  O  O23  1  0.28340500  0.32427800  0.34489600  1
  O  O24  1  0.73905800  0.70235200  0.74562100  1
  O  O25  1  0.70235200  0.73905800  0.24562100  1
  O  O26  1  0.73547900  0.41178100  0.68885600  1
  O  O27  1  0.41178100  0.73547900  0.18885600  1
  O  O28  1  0.89525900  0.41882500  0.41904600  1
  O  O29  1  0.41882500  0.89525900  0.91904600  1
  O  O30  1  0.30227900  0.01286800  0.80823700  1
  O  O31  1  0.01286800  0.30227900  0.30823700  1
  O  O32  1  0.34537300  0.97366700  0.30117700  1
  O  O33  1  0.97366700  0.34537300  0.80117700  1
  O  O34  1  0.45583600  0.17465100  0.99064600  1
  O  O35  1  0.17465100  0.45583600  0.49064600  1
  O  O36  1  0.59843200  0.53404200  0.55169100  1
  O  O37  1  0.53404200  0.59843200  0.05169100  1
  O  O38  1  0.17254800  0.74489800  0.96245400  1
  O  O39  1  0.74489800  0.17254800  0.46245400  1
  O  O40  1  0.84139100  0.84404300  0.42020900  1
  O  O41  1  0.84404300  0.84139100  0.92020900  1
  O  O42  1  0.19964400  0.86993200  0.13189700  1
  O  O43  1  0.86993200  0.19964400  0.63189700  1
  O  O44  1  0.20053300  0.85273400  0.62784600  1
  O  O45  1  0.85273400  0.20053300  0.12784600  1
  O  O46  1  0.48413400  0.11104000  0.49242000  1
  O  O47  1  0.11104000  0.48413400  0.99242000  1
  O  O48  1  0.32824700  0.20698100  0.57368400  1
  O  O49  1  0.20698100  0.32824700  0.07368400  1
  O  O50  1  0.22904400  0.08164300  0.43136000  1
  O  O51  1  0.08164300  0.22904400  0.93136000  1
  O  O52  1  0.11502300  0.07336800  0.15837100  1
  O  O53  1  0.07336800  0.11502300  0.65837100  1
loop_
_geom_bond_atom_site_label_1
_geom_bond_atom_site_label_2
_geom_bond_distance
_geom_bond_site_symmetry_2
Cr0 O42 1.998795 1_555
Cr0 O40 2.003854 1_455
Cr0 O2 2.005176 1_455
Cr0 O14 2.011116 1_455
Cr0 O52 2.015982 1_565
Cr0 O4 2.019341 1_555
Cr1 O43 1.998795 1_555
Cr1 O41 2.003854 1_545
Cr1 O3 2.005176 1_545
Cr1 O15 2.011116 1_545
Cr1 O53 2.015982 1_655
Cr1 O5 2.019341 1_555
Cr2 O9 1.991369 1_555
Cr2 O47 1.994412 1_555
Cr2 O38 1.998038 1_555
Cr2 O17 2.002609 1_555
Cr2 O44 2.009797 1_555
Cr2 O6 2.021273 1_455
Cr3 O8 1.991369 1_555
Cr3 O46 1.994412 1_555
Cr3 O39 1.998038 1_555
Cr3 O16 2.002609 1_555
Cr3 O45 2.009797 1_555
Cr3 O7 2.021273 1_545
Cr4 O20 1.990351 1_555
Cr4 O22 1.996812 1_555
Cr4 O10 2.000475 1_555
Cr4 O34 2.019939 1_555
Cr4 O36 2.020024 1_555
Cr4 O26 2.028290 1_555
Cr5 O21 1.990351 1_555
Cr5 O23 1.996812 1_555
Cr5 O11 2.000475 1_555
Cr5 O35 2.019939 1_555
Cr5 O37 2.020024 1_555
Cr5 O27 2.028290 1_555
O0 P1 1.599235 1_555
O0 P12 1.605743 1_555
O1 P0 1.599235 1_555
O1 P13 1.605743 1_555
O2 P8 1.495146 1_555
O3 P9 1.495146 1_556
O4 P16 1.502622 1_555
O5 P17 1.502622 1_555
O6 P12 1.498234 1_556
O7 P13 1.498234 1_555
O8 P3 1.502212 1_555
O9 P2 1.502212 1_555
O10 P10 1.499207 1_555
O11 P11 1.499207 1_555
O12 P10 1.589154 1_555
O12 P12 1.589862 1_556
O13 P11 1.589154 1_555
O13 P13 1.589862 1_555
O14 P1 1.503072 1_555
O15 P0 1.503072 1_555
O16 P12 1.498753 1_555
O17 P13 1.498753 1_555
O18 P8 1.591674 1_455
O18 P2 1.591914 1_555
O19 P9 1.591674 1_545
O19 P3 1.591914 1_555
O20 P5 1.497737 1_555
O21 P4 1.497737 1_555
O22 P7 1.500514 1_556
O23 P6 1.500514 1_555
O24 P0 1.593649 1_555
O24 P10 1.598681 1_555
O25 P1 1.593649 1_555
O25 P11 1.598681 1_555
O26 P8 1.505447 1_555
O27 P9 1.505447 1_555
O28 P14 1.608935 1_555
O28 P8 1.616704 1_555
O29 P15 1.608935 1_555
O29 P9 1.616704 1_556
O30 P15 1.592051 1_545
O30 P5 1.593837 1_555
O31 P14 1.592051 1_455
O31 P4 1.593837 1_555
O32 P3 1.593469 1_565
O32 P16 1.595773 1_555
O33 P2 1.593469 1_655
O33 P17 1.595773 1_555
O34 P3 1.495999 1_556
O35 P2 1.495999 1_555
O36 P11 1.497391 1_555
O37 P10 1.497391 1_554
O38 P15 1.499019 1_555
O39 P14 1.499019 1_555
O40 P0 1.502740 1_555
O41 P1 1.502740 1_556
O42 P15 1.503277 1_554
O43 P14 1.503277 1_555
O44 P16 1.498449 1_555
O45 P17 1.498449 1_554
O46 P5 1.501189 1_555
O47 P4 1.501189 1_556
O48 P5 1.590744 1_555
O48 P6 1.599337 1_555
O49 P4 1.590744 1_555
O49 P7 1.599337 1_555
O50 P16 1.599139 1_545
O50 P6 1.599832 1_555
O51 P17 1.599139 1_455
O51 P7 1.599832 1_556
O52 P7 1.496349 1_555
O53 P6 1.496349 1_555
