# generated using pymatgen
data_SrTcN3
_symmetry_space_group_name_H-M   'P 1'
_cell_length_a   6.08821131
_cell_length_b   7.52532566
_cell_length_c   7.52532633
_cell_angle_alpha   92.20739880
_cell_angle_beta   101.00720616
_cell_angle_gamma   78.99280676
_symmetry_Int_Tables_number   1
_chemical_formula_structural   SrTcN3
_chemical_formula_sum   'Sr4 Tc4 N12'
_cell_volume   332.20892005
_cell_formula_units_Z   4
loop_
 _symmetry_equiv_pos_site_id
 _symmetry_equiv_pos_as_xyz
  1  'x, y, z'
loop_
 _atom_site_type_symbol
 _atom_site_label
 _atom_site_symmetry_multiplicity
 _atom_site_fract_x
 _atom_site_fract_y
 _atom_site_fract_z
 _atom_site_occupancy
  Sr  Sr0  1  0.75000000  0.32773109  0.32773109  1
  Sr  Sr1  1  0.25000000  0.09285912  0.09285912  1
  Sr  Sr2  1  0.25000000  0.67226891  0.67226891  1
  Sr  Sr3  1  0.75000000  0.90714088  0.90714088  1
  Tc  Tc0  1  0.74396143  0.79896811  0.37580875  1
  Tc  Tc1  1  0.75603857  0.37580875  0.79896811  1
  Tc  Tc2  1  0.24396143  0.62419125  0.20103189  1
  Tc  Tc3  1  0.25603857  0.20103189  0.62419125  1
  N  N0  1  0.00493598  0.36895472  0.67777857  1
  N  N1  1  0.66776250  0.98591945  0.23383673  1
  N  N2  1  0.33223750  0.01408055  0.76616327  1
  N  N3  1  0.66695677  0.59141661  0.86744077  1
  N  N4  1  0.83223750  0.23383673  0.98591945  1
  N  N5  1  0.50493598  0.32222143  0.63104528  1
  N  N6  1  0.16776250  0.76616327  0.01408055  1
  N  N7  1  0.99506402  0.63104528  0.32222143  1
  N  N8  1  0.49506402  0.67777857  0.36895472  1
  N  N9  1  0.83304323  0.86744077  0.59141661  1
  N  N10  1  0.33304323  0.40858339  0.13255923  1
  N  N11  1  0.16695677  0.13255923  0.40858339  1
loop_
_geom_bond_atom_site_label_1
_geom_bond_atom_site_label_2
_geom_bond_distance
_geom_bond_site_symmetry_2
N0 Tc3 1.885489 1_555
N0 Tc1 1.903917 1_455
N0 Sr0 2.829137 1_455
N0 Sr2 2.961273 1_555
N1 Tc0 1.735868 1_555
N1 Sr1 2.548710 1_565
N1 Sr3 2.625023 1_554
N1 Sr0 2.753738 1_565
N2 Tc3 1.735868 1_555
N2 Sr3 2.548710 1_545
N2 Sr1 2.625023 1_556
N2 Sr2 2.753738 1_545
N3 Tc1 1.702500 1_555
N3 Sr3 2.517192 1_555
N3 Sr2 2.650802 1_555
N4 Tc1 1.735868 1_555
N4 Sr1 2.548710 1_656
N4 Sr3 2.625022 1_545
N4 Sr0 2.753738 1_556
N5 Tc1 1.885489 1_555
N5 Tc3 1.903917 1_555
N5 Sr2 2.829137 1_555
N5 Sr0 2.961274 1_555
N6 Tc2 1.735868 1_555
N6 Sr3 2.548710 1_454
N6 Sr1 2.625022 1_565
N6 Sr2 2.753738 1_554
N7 Tc0 1.885489 1_555
N7 Tc2 1.903917 1_655
N7 Sr2 2.829137 1_655
N7 Sr0 2.961273 1_555
N8 Tc2 1.885489 1_555
N8 Tc0 1.903917 1_555
N8 Sr0 2.829137 1_555
N8 Sr2 2.961274 1_555
N9 Tc0 1.702500 1_555
N9 Sr3 2.517192 1_555
N9 Sr2 2.650802 1_655
N10 Tc2 1.702500 1_555
N10 Sr1 2.517192 1_555
N10 Sr0 2.650802 1_555
N11 Tc3 1.702500 1_555
N11 Sr1 2.517192 1_555
N11 Sr0 2.650802 1_455
