# generated using pymatgen
data_K3Sr
_symmetry_space_group_name_H-M   'P 1'
_cell_length_a   9.20686837
_cell_length_b   9.20686837
_cell_length_c   7.51062000
_cell_angle_alpha   90.00000000
_cell_angle_beta   90.00000000
_cell_angle_gamma   120.00000263
_symmetry_Int_Tables_number   1
_chemical_formula_structural   K3Sr
_chemical_formula_sum   'K6 Sr2'
_cell_volume   551.35367979
_cell_formula_units_Z   2
loop_
 _symmetry_equiv_pos_site_id
 _symmetry_equiv_pos_as_xyz
  1  'x, y, z'
loop_
 _atom_site_type_symbol
 _atom_site_label
 _atom_site_symmetry_multiplicity
 _atom_site_fract_x
 _atom_site_fract_y
 _atom_site_fract_z
 _atom_site_occupancy
  K  K0  1  0.16794300  0.33588600  0.25000000  1
  K  K1  1  0.66411400  0.83205700  0.25000000  1
  K  K2  1  0.16794300  0.83205700  0.25000000  1
  K  K3  1  0.83205700  0.66411400  0.75000000  1
  K  K4  1  0.33588600  0.16794300  0.75000000  1
  K  K5  1  0.83205700  0.16794300  0.75000000  1
  Sr  Sr0  1  0.33333300  0.66666700  0.75000000  1
  Sr  Sr1  1  0.66666700  0.33333300  0.25000000  1
loop_
_geom_bond_atom_site_label_1
_geom_bond_atom_site_label_2
_geom_bond_distance
_geom_bond_site_symmetry_2
K0 K1 4.568181 1_555
K0 K2 4.568181 1_555
K0 Sr0 4.588950 1_554
K0 Sr0 4.588950 1_555
K0 Sr1 4.603475 1_455
K0 Sr1 4.603484 1_555
K0 K5 4.612464 1_454
K0 K5 4.612464 1_455
K0 K4 4.612464 1_555
K0 K4 4.612464 1_554
K0 K1 4.638687 1_445
K0 K2 4.638687 1_545
K1 K2 4.568181 1_555
K1 Sr0 4.588950 1_554
K1 Sr0 4.588950 1_555
K1 Sr1 4.603475 1_565
K1 Sr1 4.603484 1_555
K1 K5 4.612464 1_565
K1 K5 4.612464 1_564
K1 K3 4.612464 1_555
K1 K3 4.612464 1_554
K1 K2 4.638687 1_655
K2 Sr0 4.588945 1_554
K2 Sr0 4.588945 1_555
K2 Sr1 4.603479 1_455
K2 Sr1 4.603479 1_565
K2 K4 4.612464 1_564
K2 K3 4.612464 1_455
K2 K4 4.612464 1_565
K2 K3 4.612464 1_454
K3 K4 4.568181 1_555
K3 K5 4.568181 1_555
K3 Sr1 4.588950 1_555
K3 Sr1 4.588950 1_556
K3 Sr0 4.603475 1_655
K3 Sr0 4.603484 1_555
K3 K4 4.638687 1_665
K3 K5 4.638687 1_565
K4 K5 4.568181 1_555
K4 Sr1 4.588950 1_556
K4 Sr1 4.588950 1_555
K4 Sr0 4.603475 1_545
K4 Sr0 4.603484 1_555
K4 K5 4.638687 1_455
K5 Sr1 4.588945 1_556
K5 Sr1 4.588945 1_555
K5 Sr0 4.603479 1_655
K5 Sr0 4.603479 1_545
