# generated using pymatgen
data_CsSnF3
_symmetry_space_group_name_H-M   'P 1'
_cell_length_a   6.63918769
_cell_length_b   6.63918769
_cell_length_c   6.63918676
_cell_angle_alpha   64.60244617
_cell_angle_beta   64.60244617
_cell_angle_gamma   64.60245488
_symmetry_Int_Tables_number   1
_chemical_formula_structural   CsSnF3
_chemical_formula_sum   'Cs2 Sn2 F6'
_cell_volume   227.80237626
_cell_formula_units_Z   2
loop_
 _symmetry_equiv_pos_site_id
 _symmetry_equiv_pos_as_xyz
  1  'x, y, z'
loop_
 _atom_site_type_symbol
 _atom_site_label
 _atom_site_symmetry_multiplicity
 _atom_site_fract_x
 _atom_site_fract_y
 _atom_site_fract_z
 _atom_site_occupancy
  Cs  Cs0  1  0.25372100  0.25372100  0.25372100  1
  Cs  Cs1  1  0.75372100  0.75372100  0.75372100  1
  Sn  Sn0  1  0.00490838  0.00490838  0.00490838  1
  Sn  Sn1  1  0.50490838  0.50490838  0.50490838  1
  F  F0  1  0.87441414  0.17490881  0.72054766  1
  F  F1  1  0.72054766  0.87441414  0.17490881  1
  F  F2  1  0.17490881  0.72054766  0.87441414  1
  F  F3  1  0.37441414  0.22054766  0.67490881  1
  F  F4  1  0.22054766  0.67490881  0.37441414  1
  F  F5  1  0.67490881  0.37441414  0.22054766  1
loop_
_geom_bond_atom_site_label_1
_geom_bond_atom_site_label_2
_geom_bond_distance
_geom_bond_site_symmetry_2
Cs0 F0 3.043946 1_455
Cs0 F2 3.043947 1_554
Cs0 F1 3.043947 1_545
Cs0 F3 3.122905 1_555
Cs0 F5 3.122905 1_555
Cs0 F4 3.122905 1_555
Cs1 F5 3.043946 1_556
Cs1 F4 3.043947 1_655
Cs1 F3 3.043947 1_565
Cs1 F1 3.122905 1_556
Cs1 F0 3.122905 1_565
Cs1 F2 3.122905 1_655
F0 Sn0 2.079710 1_656
F1 Sn0 2.079710 1_665
F2 Sn0 2.079710 1_566
F3 Sn1 2.079710 1_555
F4 Sn1 2.079710 1_555
F5 Sn1 2.079710 1_555
