# generated using pymatgen
data_Eu(CuO2)2
_symmetry_space_group_name_H-M   'P 1'
_cell_length_a   6.30439981
_cell_length_b   6.30416847
_cell_length_c   6.30431587
_cell_angle_alpha   125.60704401
_cell_angle_beta   125.60769293
_cell_angle_gamma   80.53232193
_symmetry_Int_Tables_number   1
_chemical_formula_structural   Eu(CuO2)2
_chemical_formula_sum   'Eu2 Cu4 O8'
_cell_volume   159.74689950
_cell_formula_units_Z   2
loop_
 _symmetry_equiv_pos_site_id
 _symmetry_equiv_pos_as_xyz
  1  'x, y, z'
loop_
 _atom_site_type_symbol
 _atom_site_label
 _atom_site_symmetry_multiplicity
 _atom_site_fract_x
 _atom_site_fract_y
 _atom_site_fract_z
 _atom_site_occupancy
  Eu  Eu0  1  0.00008918  0.00009101  0.00000178  1
  Eu  Eu1  1  0.75011253  0.25010843  0.50000426  1
  Cu  Cu0  1  0.37475588  0.62496536  0.24962765  1
  Cu  Cu1  1  0.37533423  0.12512120  0.75036247  1
  Cu  Cu2  1  0.37499096  0.62535872  0.75023020  1
  Cu  Cu3  1  0.87513278  0.62476159  0.24977883  1
  O  O0  1  0.73011931  0.30684716  0.13441186  1
  O  O1  1  0.17242643  0.59570502  0.86556374  1
  O  O2  1  0.02061777  0.94296341  0.36636189  1
  O  O3  1  0.57660706  0.65426657  0.63366201  1
  O  O4  1  0.05683932  0.42241457  0.07668456  1
  O  O5  1  0.34572492  0.98014384  0.92329905  1
  O  O6  1  0.40426040  0.27065473  0.57766674  1
  O  O7  1  0.69298924  0.82659841  0.42234497  1
loop_
_geom_bond_atom_site_label_1
_geom_bond_atom_site_label_2
_geom_bond_distance
_geom_bond_site_symmetry_2
Eu0 O1 2.458231 1_544
Eu0 O0 2.458256 1_455
Eu0 O7 2.460723 1_444
Eu0 O6 2.460795 1_555
Eu0 O4 2.462376 1_555
Eu0 O5 2.462483 1_544
Eu0 O2 2.467005 1_545
Eu0 O3 2.467075 1_444
Eu1 O4 2.458188 1_656
Eu1 O5 2.458322 1_544
Eu1 O2 2.460594 1_645
Eu1 O3 2.460626 1_555
Eu1 O0 2.462283 1_555
Eu1 O1 2.462334 1_655
Eu1 O7 2.467093 1_545
Eu1 O6 2.467174 1_555
Cu0 O3 1.866556 1_555
Cu0 O1 1.866683 1_554
Cu0 O7 1.873489 1_555
Cu0 O4 1.874176 1_555
Cu1 O2 1.866496 1_545
Cu1 O0 1.866653 1_556
Cu1 O6 1.873421 1_555
Cu1 O5 1.874094 1_545
Cu2 O6 1.866303 1_555
Cu2 O5 1.866549 1_555
Cu2 O3 1.873164 1_555
Cu2 O1 1.874177 1_555
Cu3 O7 1.866363 1_555
Cu3 O4 1.866632 1_655
Cu3 O2 1.873221 1_655
Cu3 O0 1.874215 1_555
