# generated using pymatgen
data_SmYIn2
_symmetry_space_group_name_H-M   'P 1'
_cell_length_a   5.35530787
_cell_length_b   5.35531008
_cell_length_c   5.35531376
_cell_angle_alpha   59.99857138
_cell_angle_beta   59.99863956
_cell_angle_gamma   59.99860785
_symmetry_Int_Tables_number   1
_chemical_formula_structural   SmYIn2
_chemical_formula_sum   'Sm1 Y1 In2'
_cell_volume   108.59885951
_cell_formula_units_Z   1
loop_
 _symmetry_equiv_pos_site_id
 _symmetry_equiv_pos_as_xyz
  1  'x, y, z'
loop_
 _atom_site_type_symbol
 _atom_site_label
 _atom_site_symmetry_multiplicity
 _atom_site_fract_x
 _atom_site_fract_y
 _atom_site_fract_z
 _atom_site_occupancy
  Sm  Sm0  1  0.24999551  0.24999451  0.24999451  1
  Y  Y0  1  0.74999500  0.74999500  0.74999500  1
  In  In0  1  0.99999808  0.99999808  0.99999808  1
  In  In1  1  0.50001240  0.50001240  0.50001240  1
loop_
_geom_bond_atom_site_label_1
_geom_bond_atom_site_label_2
_geom_bond_distance
_geom_bond_site_symmetry_2
In0 Y0 3.279372 1_565
In0 Y0 3.279373 1_655
In0 Y0 3.279375 1_556
In0 Sm0 3.279398 1_566
In0 Sm0 3.279401 1_656
In0 Sm0 3.279405 1_665
In0 Sm0 3.279437 1_666
In0 Y0 3.279520 1_555
In1 Y0 3.279251 1_555
In1 Sm0 3.279307 1_565
In1 Sm0 3.279311 1_556
In1 Sm0 3.279313 1_655
In1 Y0 3.279462 1_545
In1 Y0 3.279463 1_455
In1 Y0 3.279465 1_554
In1 Sm0 3.279709 1_555
