# generated using pymatgen
data_Ho(AlC)3
_symmetry_space_group_name_H-M   'P 1'
_cell_length_a   3.40857966
_cell_length_b   3.40862780
_cell_length_c   17.20542100
_cell_angle_alpha   90.00000000
_cell_angle_beta   90.00000000
_cell_angle_gamma   119.99952313
_symmetry_Int_Tables_number   1
_chemical_formula_structural   Ho(AlC)3
_chemical_formula_sum   'Ho2 Al6 C6'
_cell_volume   173.12151818
_cell_formula_units_Z   2
loop_
 _symmetry_equiv_pos_site_id
 _symmetry_equiv_pos_as_xyz
  1  'x, y, z'
loop_
 _atom_site_type_symbol
 _atom_site_label
 _atom_site_symmetry_multiplicity
 _atom_site_fract_x
 _atom_site_fract_y
 _atom_site_fract_z
 _atom_site_occupancy
  Ho  Ho0  1  0.00000000  0.00000000  -0.00000000  1
  Ho  Ho1  1  0.00000000  0.00000000  0.50000000  1
  Al  Al0  1  0.33334925  0.66669850  0.13375291  1
  Al  Al1  1  0.66666392  0.33332684  0.25000000  1
  Al  Al2  1  0.33334925  0.66669850  0.36624709  1
  Al  Al3  1  0.66664975  0.33329850  0.63375291  1
  Al  Al4  1  0.33333608  0.66667416  0.75000000  1
  Al  Al5  1  0.66664975  0.33329850  0.86624709  1
  C  C0  1  0.66666474  0.33333048  0.09274946  1
  C  C1  1  0.33332969  0.66665937  0.25000000  1
  C  C2  1  0.66666474  0.33333048  0.40725054  1
  C  C3  1  0.33333526  0.66667052  0.59275046  1
  C  C4  1  0.66666931  0.33333863  0.75000000  1
  C  C5  1  0.33333526  0.66667052  0.90725054  1
loop_
_geom_bond_atom_site_label_1
_geom_bond_atom_site_label_2
_geom_bond_distance
_geom_bond_site_symmetry_2
Al0 C1 2.000080 1_555
Al0 C0 2.090515 1_565
Al0 C0 2.090632 1_555
Al0 C0 2.090635 1_455
Al1 C1 1.967951 1_655
Al1 C1 1.967954 1_555
Al1 C1 1.967984 1_545
Al2 C1 2.000080 1_555
Al2 C2 2.090515 1_565
Al2 C2 2.090632 1_555
Al2 C2 2.090635 1_455
Al3 C4 2.000080 1_555
Al3 C3 2.090498 1_545
Al3 C3 2.090632 1_655
Al3 C3 2.090634 1_555
Al4 C4 1.967954 1_455
Al4 C4 1.967960 1_555
Al4 C4 1.967975 1_565
Al5 C4 2.000080 1_555
Al5 C5 2.090504 1_545
Al5 C5 2.090638 1_655
Al5 C5 2.090640 1_555
C0 Ho0 2.533649 1_555
C0 Ho0 2.533651 1_655
C0 Ho0 2.533681 1_665
C2 Ho1 2.533649 1_555
C2 Ho1 2.533651 1_655
C2 Ho1 2.533681 1_665
C3 Ho1 2.533660 1_565
C3 Ho1 2.533660 1_665
C3 Ho1 2.533695 1_555
C5 Ho0 2.533649 1_566
C5 Ho0 2.533649 1_666
C5 Ho0 2.533684 1_556
