# generated using pymatgen
data_Np(SiOs)2
_symmetry_space_group_name_H-M   'P 1'
_cell_length_a   4.18896222
_cell_length_b   4.18896191
_cell_length_c   5.64383751
_cell_angle_alpha   111.78405343
_cell_angle_beta   111.78406459
_cell_angle_gamma   90.00000071
_symmetry_Int_Tables_number   1
_chemical_formula_structural   Np(SiOs)2
_chemical_formula_sum   'Np1 Si2 Os2'
_cell_volume   84.29914688
_cell_formula_units_Z   1
loop_
 _symmetry_equiv_pos_site_id
 _symmetry_equiv_pos_as_xyz
  1  'x, y, z'
loop_
 _atom_site_type_symbol
 _atom_site_label
 _atom_site_symmetry_multiplicity
 _atom_site_fract_x
 _atom_site_fract_y
 _atom_site_fract_z
 _atom_site_occupancy
  Np  Np0  1  0.00000000  0.00000000  0.00000000  1
  Si  Si0  1  0.62967752  0.62967752  0.25935504  1
  Si  Si1  1  0.37032248  0.37032248  0.74064496  1
  Os  Os0  1  0.75000000  0.25000000  0.50000000  1
  Os  Os1  1  0.25000000  0.75000000  0.50000000  1
loop_
_geom_bond_atom_site_label_1
_geom_bond_atom_site_label_2
_geom_bond_distance
_geom_bond_site_symmetry_2
Np0 Os0 3.186950 1_555
Np0 Os1 3.186950 1_444
Np0 Os0 3.186950 1_444
Np0 Os1 3.186950 1_555
Np0 Os0 3.186950 1_454
Np0 Os1 3.186950 1_545
Np0 Os0 3.186950 1_455
Np0 Os1 3.186950 1_544
Np0 Si0 3.213429 1_555
Np0 Si1 3.213429 1_444
Np0 Si1 3.213429 1_454
Np0 Si0 3.213429 1_545
Np0 Si1 3.213429 1_544
Np0 Si0 3.213429 1_455
Np0 Si1 3.213429 1_554
Np0 Si0 3.213429 1_445
Os0 Si1 2.392356 1_655
Os0 Si0 2.392356 1_545
Os0 Si0 2.392356 1_555
Os0 Si1 2.392356 1_555
Os1 Si0 2.392356 1_455
Os1 Si1 2.392356 1_565
Os1 Si1 2.392356 1_555
Os1 Si0 2.392356 1_555
