# generated using pymatgen
data_PdAu3
_symmetry_space_group_name_H-M   'P 1'
_cell_length_a   4.94444322
_cell_length_b   4.94444322
_cell_length_c   4.94444322
_cell_angle_alpha   130.94471726
_cell_angle_beta   130.94471726
_cell_angle_gamma   71.90092643
_symmetry_Int_Tables_number   1
_chemical_formula_structural   PdAu3
_chemical_formula_sum   'Pd1 Au3'
_cell_volume   67.45516267
_cell_formula_units_Z   1
loop_
 _symmetry_equiv_pos_site_id
 _symmetry_equiv_pos_as_xyz
  1  'x, y, z'
loop_
 _atom_site_type_symbol
 _atom_site_label
 _atom_site_symmetry_multiplicity
 _atom_site_fract_x
 _atom_site_fract_y
 _atom_site_fract_z
 _atom_site_occupancy
  Pd  Pd0  1  0.00000000  0.00000000  0.00000000  1
  Au  Au0  1  0.75000100  0.25000100  0.50000000  1
  Au  Au1  1  0.25000100  0.75000100  0.50000000  1
  Au  Au2  1  0.50000000  0.50000000  0.00000000  1
loop_
_geom_bond_atom_site_label_1
_geom_bond_atom_site_label_2
_geom_bond_distance
_geom_bond_site_symmetry_2
Au0 Pd0 2.866780 1_655
Au0 Au2 2.866780 1_555
Au0 Au2 2.866780 1_656
Au0 Pd0 2.866780 1_666
Au0 Pd0 2.866791 1_555
Au0 Pd0 2.866791 1_656
Au0 Au2 2.866791 1_556
Au0 Au2 2.866791 1_545
Au0 Au1 2.902811 1_645
Au0 Au1 2.902811 1_555
Au0 Au1 2.902811 1_656
Au0 Au1 2.902811 1_544
Au1 Pd0 2.866780 1_565
Au1 Au2 2.866780 1_555
Au1 Au2 2.866780 1_566
Au1 Pd0 2.866780 1_666
Au1 Pd0 2.866791 1_566
Au1 Pd0 2.866791 1_555
Au1 Au2 2.866791 1_556
Au1 Au2 2.866791 1_455
Au2 Pd0 2.902811 1_554
Au2 Pd0 2.902811 1_655
Au2 Pd0 2.902811 1_565
Au2 Pd0 2.902811 1_666
