# generated using pymatgen
data_ZrGaPd2
_symmetry_space_group_name_H-M   'P 1'
_cell_length_a   4.53553381
_cell_length_b   4.53553381
_cell_length_c   4.53553381
_cell_angle_alpha   60.00000000
_cell_angle_beta   60.00000000
_cell_angle_gamma   60.00000000
_symmetry_Int_Tables_number   1
_chemical_formula_structural   ZrGaPd2
_chemical_formula_sum   'Zr1 Ga1 Pd2'
_cell_volume   65.97360668
_cell_formula_units_Z   1
loop_
 _symmetry_equiv_pos_site_id
 _symmetry_equiv_pos_as_xyz
  1  'x, y, z'
loop_
 _atom_site_type_symbol
 _atom_site_label
 _atom_site_symmetry_multiplicity
 _atom_site_fract_x
 _atom_site_fract_y
 _atom_site_fract_z
 _atom_site_occupancy
  Zr  Zr0  1  0.75000000  0.75000000  0.75000000  1
  Ga  Ga0  1  0.25000000  0.25000000  0.25000000  1
  Pd  Pd0  1  0.50000100  0.50000100  0.50000100  1
  Pd  Pd1  1  -0.00000000  0.00000000  0.00000000  1
loop_
_geom_bond_atom_site_label_1
_geom_bond_atom_site_label_2
_geom_bond_distance
_geom_bond_site_symmetry_2
Ga0 Pd0 2.777432 1_455
Ga0 Pd0 2.777432 1_545
Ga0 Pd0 2.777432 1_554
Ga0 Pd1 2.777436 1_556
Ga0 Pd1 2.777436 1_555
Ga0 Pd1 2.777436 1_655
Ga0 Pd1 2.777436 1_565
Ga0 Pd0 2.777447 1_555
Pd0 Zr0 2.777425 1_555
Pd0 Zr0 2.777440 1_545
Pd0 Zr0 2.777440 1_455
Pd0 Zr0 2.777440 1_554
Pd1 Zr0 2.777436 1_444
Pd1 Zr0 2.777436 1_445
Pd1 Zr0 2.777436 1_454
Pd1 Zr0 2.777436 1_544
