# generated using pymatgen
data_YMg3
_symmetry_space_group_name_H-M   'P 1'
_cell_length_a   6.68493068
_cell_length_b   6.68493109
_cell_length_c   5.16703123
_cell_angle_alpha   90.00000000
_cell_angle_beta   90.00000000
_cell_angle_gamma   120.00000311
_symmetry_Int_Tables_number   1
_chemical_formula_structural   YMg3
_chemical_formula_sum   'Y2 Mg6'
_cell_volume   199.97032273
_cell_formula_units_Z   2
loop_
 _symmetry_equiv_pos_site_id
 _symmetry_equiv_pos_as_xyz
  1  'x, y, z'
loop_
 _atom_site_type_symbol
 _atom_site_label
 _atom_site_symmetry_multiplicity
 _atom_site_fract_x
 _atom_site_fract_y
 _atom_site_fract_z
 _atom_site_occupancy
  Y  Y0  1  0.66666800  0.33333400  0.25000000  1
  Y  Y1  1  0.33333400  0.66666700  0.75000000  1
  Mg  Mg0  1  0.16261052  0.32522204  0.25000000  1
  Mg  Mg1  1  0.16261052  0.83738948  0.25000000  1
  Mg  Mg2  1  0.67477696  0.83738948  0.25000000  1
  Mg  Mg3  1  0.32522204  0.16261152  0.75000000  1
  Mg  Mg4  1  0.83739048  0.16261152  0.75000000  1
  Mg  Mg5  1  0.83738948  0.67477896  0.75000000  1
loop_
_geom_bond_atom_site_label_1
_geom_bond_atom_site_label_2
_geom_bond_distance
_geom_bond_site_symmetry_2
Mg0 Mg4 3.196795 1_455
Mg0 Mg4 3.196795 1_454
Mg0 Mg3 3.196802 1_555
Mg0 Mg3 3.196802 1_554
Mg0 Y1 3.253003 1_555
Mg0 Y1 3.253003 1_554
Mg0 Mg1 3.261127 1_545
Mg0 Mg2 3.261130 1_445
Mg0 Y0 3.342785 1_455
Mg0 Y0 3.342805 1_555
Mg0 Mg2 3.423800 1_555
Mg0 Mg1 3.423804 1_555
Mg1 Mg5 3.196799 1_455
Mg1 Mg5 3.196799 1_454
Mg1 Mg3 3.196802 1_565
Mg1 Mg3 3.196802 1_564
Mg1 Y1 3.253007 1_554
Mg1 Y1 3.253007 1_555
Mg1 Mg2 3.261134 1_455
Mg1 Y0 3.342789 1_455
Mg1 Y0 3.342802 1_565
Mg1 Mg2 3.423797 1_555
Mg2 Mg4 3.196802 1_565
Mg2 Mg4 3.196802 1_564
Mg2 Mg5 3.196805 1_554
Mg2 Mg5 3.196805 1_555
Mg2 Y1 3.252996 1_555
Mg2 Y1 3.252996 1_554
Mg2 Y0 3.342789 1_565
Mg2 Y0 3.342802 1_555
Mg3 Y0 3.253007 1_556
Mg3 Y0 3.253007 1_555
Mg3 Mg4 3.261120 1_455
Mg3 Mg5 3.261127 1_445
Mg3 Y1 3.342792 1_555
Mg3 Y1 3.342799 1_545
Mg3 Mg5 3.423804 1_555
Mg3 Mg4 3.423811 1_555
Mg4 Y0 3.253003 1_556
Mg4 Y0 3.253003 1_555
Mg4 Mg5 3.261124 1_545
Mg4 Y1 3.342792 1_655
Mg4 Y1 3.342799 1_545
Mg4 Mg5 3.423807 1_555
Mg5 Y0 3.253003 1_556
Mg5 Y0 3.253003 1_555
Mg5 Y1 3.342792 1_555
Mg5 Y1 3.342799 1_655
