# generated using pymatgen
data_Zr2TcPd
_symmetry_space_group_name_H-M   'P 1'
_cell_length_a   4.67344035
_cell_length_b   4.67344035
_cell_length_c   4.67344035
_cell_angle_alpha   60.00000000
_cell_angle_beta   60.00000000
_cell_angle_gamma   60.00000000
_symmetry_Int_Tables_number   1
_chemical_formula_structural   Zr2TcPd
_chemical_formula_sum   'Zr2 Tc1 Pd1'
_cell_volume   72.17638273
_cell_formula_units_Z   1
loop_
 _symmetry_equiv_pos_site_id
 _symmetry_equiv_pos_as_xyz
  1  'x, y, z'
loop_
 _atom_site_type_symbol
 _atom_site_label
 _atom_site_symmetry_multiplicity
 _atom_site_fract_x
 _atom_site_fract_y
 _atom_site_fract_z
 _atom_site_occupancy
  Zr  Zr0  1  0.00000000  -0.00000000  0.00000000  1
  Zr  Zr1  1  0.49999900  0.49999900  0.49999900  1
  Tc  Tc0  1  0.75000000  0.75000000  0.75000000  1
  Pd  Pd0  1  0.25000000  0.25000000  0.25000000  1
loop_
_geom_bond_atom_site_label_1
_geom_bond_atom_site_label_2
_geom_bond_distance
_geom_bond_site_symmetry_2
Tc0 Zr1 2.861882 1_655
Tc0 Zr1 2.861882 1_565
Tc0 Zr1 2.861882 1_556
Tc0 Zr0 2.861886 1_566
Tc0 Zr0 2.861886 1_656
Tc0 Zr0 2.861886 1_665
Tc0 Zr0 2.861886 1_666
Tc0 Zr1 2.861897 1_555
Pd0 Zr1 2.861875 1_555
Pd0 Zr0 2.861886 1_655
Pd0 Zr0 2.861886 1_565
Pd0 Zr0 2.861886 1_555
Pd0 Zr0 2.861886 1_556
Pd0 Zr1 2.861890 1_455
Pd0 Zr1 2.861890 1_545
Pd0 Zr1 2.861890 1_554
