# generated using pymatgen
data_Lu
_symmetry_space_group_name_H-M   'P 1'
_cell_length_a   17.43994580
_cell_length_b   17.43994580
_cell_length_c   17.43994627
_cell_angle_alpha   23.03018099
_cell_angle_beta   23.03018099
_cell_angle_gamma   23.03017864
_symmetry_Int_Tables_number   1
_chemical_formula_structural   Lu
_chemical_formula_sum   Lu24
_cell_volume   712.53226923
_cell_formula_units_Z   24
loop_
 _symmetry_equiv_pos_site_id
 _symmetry_equiv_pos_as_xyz
  1  'x, y, z'
loop_
 _atom_site_type_symbol
 _atom_site_label
 _atom_site_symmetry_multiplicity
 _atom_site_fract_x
 _atom_site_fract_y
 _atom_site_fract_z
 _atom_site_occupancy
  Lu  Lu0_0  1  0.00000000  0.00000000  0.00000000  1
  Lu  Lu0_1  1  0.00000000  0.00000000  0.50000000  1
  Lu  Lu0_2  1  0.00000000  0.50000000  0.00000000  1
  Lu  Lu0_3  1  0.00000000  0.50000000  0.50000000  1
  Lu  Lu0_4  1  0.50000000  0.00000000  0.00000000  1
  Lu  Lu0_5  1  0.50000000  0.00000000  0.50000000  1
  Lu  Lu0_6  1  0.50000000  0.50000000  0.00000000  1
  Lu  Lu0_7  1  0.50000000  0.50000000  0.50000000  1
  Lu  Lu1_0  1  0.11084570  0.11084570  0.11084569  1
  Lu  Lu1_1  1  0.11084570  0.11084570  0.61084570  1
  Lu  Lu1_2  1  0.11084570  0.61084570  0.11084569  1
  Lu  Lu1_3  1  0.11084570  0.61084570  0.61084570  1
  Lu  Lu1_4  1  0.61084570  0.11084570  0.11084569  1
  Lu  Lu1_5  1  0.61084570  0.11084570  0.61084570  1
  Lu  Lu1_6  1  0.61084570  0.61084570  0.11084569  1
  Lu  Lu1_7  1  0.61084570  0.61084570  0.61084569  1
  Lu  Lu2_0  1  0.38915431  0.38915431  0.38915430  1
  Lu  Lu2_1  1  0.38915431  0.38915430  0.88915431  1
  Lu  Lu2_2  1  0.38915431  0.88915431  0.38915430  1
  Lu  Lu2_3  1  0.38915431  0.88915430  0.88915431  1
  Lu  Lu2_4  1  0.88915431  0.38915431  0.38915430  1
  Lu  Lu2_5  1  0.88915431  0.38915430  0.88915431  1
  Lu  Lu2_6  1  0.88915431  0.88915431  0.38915431  1
  Lu  Lu2_7  1  0.88915431  0.88915431  0.88915431  1
loop_
_geom_bond_atom_site_label_1
_geom_bond_atom_site_label_2
_geom_bond_distance
_geom_bond_site_symmetry_2
Lu0_0 Lu1_2 3.480886 1_545
Lu0_0 Lu1_4 3.480886 1_455
Lu0_0 Lu2_5 3.480886 1_454
Lu0_0 Lu2_3 3.480886 1_544
Lu0_0 Lu1_1 3.480887 1_554
Lu0_0 Lu2_6 3.480887 1_445
Lu0_0 Lu0_6 3.481467 1_545
Lu0_0 Lu0_6 3.481467 1_455
Lu0_0 Lu0_5 3.481467 1_455
Lu0_0 Lu0_3 3.481467 1_545
Lu0_0 Lu0_3 3.481467 1_554
Lu0_0 Lu0_5 3.481467 1_554
Lu0_1 Lu1_5 3.480886 1_455
Lu0_1 Lu1_3 3.480886 1_545
Lu0_1 Lu2_4 3.480886 1_455
Lu0_1 Lu2_2 3.480886 1_545
Lu0_1 Lu1_0 3.480887 1_555
Lu0_1 Lu2_7 3.480887 1_445
Lu0_1 Lu0_7 3.481467 1_545
Lu0_1 Lu0_7 3.481467 1_455
Lu0_1 Lu0_2 3.481467 1_555
Lu0_1 Lu0_4 3.481467 1_555
Lu0_1 Lu0_2 3.481467 1_546
Lu0_1 Lu0_4 3.481467 1_456
Lu0_2 Lu1_6 3.480886 1_455
Lu0_2 Lu1_0 3.480886 1_555
Lu0_2 Lu2_1 3.480886 1_554
Lu0_2 Lu2_7 3.480886 1_454
Lu0_2 Lu1_3 3.480887 1_554
Lu0_2 Lu2_4 3.480887 1_455
Lu0_2 Lu0_4 3.481467 1_555
Lu0_2 Lu0_4 3.481467 1_465
Lu0_2 Lu0_7 3.481467 1_554
Lu0_2 Lu0_7 3.481467 1_455
Lu0_3 Lu1_1 3.480886 1_555
Lu0_3 Lu2_0 3.480886 1_555
Lu0_3 Lu1_7 3.480886 1_455
Lu0_3 Lu2_6 3.480886 1_455
Lu0_3 Lu2_5 3.480887 1_455
Lu0_3 Lu1_2 3.480887 1_555
Lu0_3 Lu0_5 3.481467 1_555
Lu0_3 Lu0_5 3.481467 1_465
Lu0_3 Lu0_6 3.481467 1_456
Lu0_3 Lu0_6 3.481467 1_555
Lu0_4 Lu1_6 3.480886 1_545
Lu0_4 Lu1_0 3.480886 1_555
Lu0_4 Lu2_1 3.480886 1_554
Lu0_4 Lu2_7 3.480886 1_544
Lu0_4 Lu1_5 3.480887 1_554
Lu0_4 Lu2_2 3.480887 1_545
Lu0_4 Lu0_7 3.481467 1_554
Lu0_4 Lu0_7 3.481467 1_545
Lu0_5 Lu1_1 3.480886 1_555
Lu0_5 Lu1_7 3.480886 1_545
Lu0_5 Lu2_6 3.480886 1_545
Lu0_5 Lu2_0 3.480886 1_555
Lu0_5 Lu2_3 3.480887 1_545
Lu0_5 Lu1_4 3.480887 1_555
Lu0_5 Lu0_6 3.481467 1_546
Lu0_5 Lu0_6 3.481467 1_555
Lu0_6 Lu2_5 3.480886 1_554
Lu0_6 Lu2_3 3.480886 1_554
Lu0_6 Lu1_2 3.480886 1_555
Lu0_6 Lu1_4 3.480886 1_555
Lu0_6 Lu2_0 3.480887 1_555
Lu0_6 Lu1_7 3.480887 1_554
Lu0_7 Lu1_5 3.480886 1_555
Lu0_7 Lu1_3 3.480886 1_555
Lu0_7 Lu2_4 3.480886 1_555
Lu0_7 Lu2_2 3.480886 1_555
Lu0_7 Lu1_6 3.480887 1_555
Lu0_7 Lu2_1 3.480887 1_555
Lu1_0 Lu2_6 3.447870 1_445
Lu1_0 Lu2_3 3.447870 1_544
Lu1_0 Lu2_5 3.447870 1_454
Lu1_0 Lu1_6 3.481467 1_455
Lu1_0 Lu1_6 3.481467 1_545
Lu1_0 Lu1_5 3.481467 1_455
Lu1_0 Lu1_3 3.481467 1_554
Lu1_0 Lu1_5 3.481467 1_554
Lu1_0 Lu1_3 3.481467 1_545
Lu1_1 Lu2_7 3.447870 1_445
Lu1_1 Lu2_2 3.447870 1_545
Lu1_1 Lu2_4 3.447870 1_455
Lu1_1 Lu1_7 3.481467 1_545
Lu1_1 Lu1_7 3.481467 1_455
Lu1_1 Lu1_2 3.481467 1_546
Lu1_1 Lu1_4 3.481467 1_555
Lu1_1 Lu1_4 3.481467 1_456
Lu1_1 Lu1_2 3.481467 1_555
Lu1_2 Lu2_4 3.447870 1_455
Lu1_2 Lu2_7 3.447870 1_454
Lu1_2 Lu2_1 3.447870 1_554
Lu1_2 Lu1_4 3.481467 1_555
Lu1_2 Lu1_4 3.481467 1_465
Lu1_2 Lu1_7 3.481467 1_554
Lu1_2 Lu1_7 3.481467 1_455
Lu1_3 Lu2_5 3.447870 1_455
Lu1_3 Lu2_6 3.447870 1_455
Lu1_3 Lu2_0 3.447870 1_555
Lu1_3 Lu1_5 3.481467 1_555
Lu1_3 Lu1_5 3.481467 1_465
Lu1_3 Lu1_6 3.481467 1_456
Lu1_3 Lu1_6 3.481467 1_555
Lu1_4 Lu2_2 3.447870 1_545
Lu1_4 Lu2_7 3.447870 1_544
Lu1_4 Lu2_1 3.447870 1_554
Lu1_4 Lu1_7 3.481467 1_545
Lu1_4 Lu1_7 3.481467 1_554
Lu1_5 Lu2_3 3.447870 1_545
Lu1_5 Lu2_0 3.447870 1_555
Lu1_5 Lu2_6 3.447870 1_545
Lu1_5 Lu1_6 3.481467 1_546
Lu1_5 Lu1_6 3.481467 1_555
Lu1_6 Lu2_0 3.447870 1_555
Lu1_6 Lu2_3 3.447870 1_554
Lu1_6 Lu2_5 3.447870 1_554
Lu1_7 Lu2_1 3.447870 1_555
Lu1_7 Lu2_2 3.447870 1_555
Lu1_7 Lu2_4 3.447870 1_555
Lu2_0 Lu2_6 3.481467 1_455
Lu2_0 Lu2_6 3.481467 1_545
Lu2_0 Lu2_5 3.481467 1_554
Lu2_0 Lu2_3 3.481467 1_554
Lu2_0 Lu2_5 3.481467 1_455
Lu2_0 Lu2_3 3.481467 1_545
Lu2_1 Lu2_7 3.481467 1_455
Lu2_1 Lu2_7 3.481467 1_545
Lu2_1 Lu2_2 3.481467 1_546
Lu2_1 Lu2_4 3.481467 1_456
Lu2_1 Lu2_4 3.481467 1_555
Lu2_1 Lu2_2 3.481467 1_555
Lu2_2 Lu2_4 3.481467 1_465
Lu2_2 Lu2_4 3.481467 1_555
Lu2_2 Lu2_7 3.481467 1_554
Lu2_2 Lu2_7 3.481467 1_455
Lu2_3 Lu2_5 3.481467 1_555
Lu2_3 Lu2_5 3.481467 1_465
Lu2_3 Lu2_6 3.481467 1_456
Lu2_3 Lu2_6 3.481467 1_555
Lu2_4 Lu2_7 3.481467 1_554
Lu2_4 Lu2_7 3.481467 1_545
Lu2_5 Lu2_6 3.481467 1_546
Lu2_5 Lu2_6 3.481467 1_555
