# generated using pymatgen
data_LiTl2InCl6
_symmetry_space_group_name_H-M   'P 1'
_cell_length_a   7.24160075
_cell_length_b   7.24160075
_cell_length_c   7.24160075
_cell_angle_alpha   60.00000000
_cell_angle_beta   60.00000000
_cell_angle_gamma   60.00000000
_symmetry_Int_Tables_number   1
_chemical_formula_structural   LiTl2InCl6
_chemical_formula_sum   'Li1 Tl2 In1 Cl6'
_cell_volume   268.52747906
_cell_formula_units_Z   1
loop_
 _symmetry_equiv_pos_site_id
 _symmetry_equiv_pos_as_xyz
  1  'x, y, z'
loop_
 _atom_site_type_symbol
 _atom_site_label
 _atom_site_symmetry_multiplicity
 _atom_site_fract_x
 _atom_site_fract_y
 _atom_site_fract_z
 _atom_site_occupancy
  Li  Li0  1  0.50000000  0.50000000  0.50000000  1
  Tl  Tl0  1  0.25000000  0.25000000  0.25000000  1
  Tl  Tl1  1  0.75000000  0.75000000  0.75000000  1
  In  In0  1  0.00000000  0.00000000  0.00000000  1
  Cl  Cl0  1  0.24814200  0.75185800  0.75185800  1
  Cl  Cl1  1  0.24814200  0.75185800  0.24814200  1
  Cl  Cl2  1  0.75185800  0.24814200  0.75185800  1
  Cl  Cl3  1  0.75185800  0.75185800  0.24814200  1
  Cl  Cl4  1  0.24814200  0.24814200  0.75185800  1
  Cl  Cl5  1  0.75185800  0.24814200  0.24814200  1
loop_
_geom_bond_atom_site_label_1
_geom_bond_atom_site_label_2
_geom_bond_distance
_geom_bond_site_symmetry_2
Cl0 In0 2.541264 1_566
Cl0 Li0 2.579321 1_555
Cl1 In0 2.541264 1_565
Cl1 Li0 2.579321 1_555
Cl2 In0 2.541264 1_656
Cl2 Li0 2.579321 1_555
Cl3 In0 2.541264 1_665
Cl3 Li0 2.579321 1_555
Cl4 In0 2.541264 1_556
Cl4 Li0 2.579321 1_555
Cl5 In0 2.541264 1_655
Cl5 Li0 2.579321 1_555
