# generated using pymatgen
data_Na8Ta7VO24
_symmetry_space_group_name_H-M   'P 1'
_cell_length_a   7.91866600
_cell_length_b   7.91866600
_cell_length_c   7.91866600
_cell_angle_alpha   90.00000000
_cell_angle_beta   90.00000000
_cell_angle_gamma   90.00000000
_symmetry_Int_Tables_number   1
_chemical_formula_structural   Na8Ta7VO24
_chemical_formula_sum   'Na8 Ta7 V1 O24'
_cell_volume   496.54209923
_cell_formula_units_Z   1
loop_
 _symmetry_equiv_pos_site_id
 _symmetry_equiv_pos_as_xyz
  1  'x, y, z'
loop_
 _atom_site_type_symbol
 _atom_site_label
 _atom_site_symmetry_multiplicity
 _atom_site_fract_x
 _atom_site_fract_y
 _atom_site_fract_z
 _atom_site_occupancy
  Na  Na0  1  0.75146000  0.75146000  0.75146000  1
  Na  Na1  1  0.75146000  0.75146000  0.24854000  1
  Na  Na2  1  0.75146000  0.24854000  0.75146000  1
  Na  Na3  1  0.75146000  0.24854000  0.24854000  1
  Na  Na4  1  0.24854000  0.75146000  0.75146000  1
  Na  Na5  1  0.24854000  0.75146000  0.24854000  1
  Na  Na6  1  0.24854000  0.24854000  0.75146000  1
  Na  Na7  1  0.24854000  0.24854000  0.24854000  1
  Ta  Ta0  1  0.00000000  0.00000000  0.50000000  1
  Ta  Ta1  1  0.00000000  0.50000000  0.00000000  1
  Ta  Ta2  1  0.00000000  0.50000000  0.50000000  1
  Ta  Ta3  1  0.50000000  0.00000000  0.00000000  1
  Ta  Ta4  1  0.50000000  0.00000000  0.50000000  1
  Ta  Ta5  1  0.50000000  0.50000000  0.00000000  1
  Ta  Ta6  1  0.50000000  0.50000000  0.50000000  1
  V  V0  1  0.00000000  0.00000000  0.00000000  1
  O  O0  1  0.00000000  0.75606600  0.00000000  1
  O  O1  1  0.00000000  0.75053200  0.50000000  1
  O  O2  1  0.00000000  0.24393400  0.00000000  1
  O  O3  1  0.00000000  0.24946800  0.50000000  1
  O  O4  1  0.50000000  0.75053200  0.00000000  1
  O  O5  1  0.50000000  0.75005000  0.50000000  1
  O  O6  1  0.50000000  0.24946800  0.00000000  1
  O  O7  1  0.50000000  0.24995000  0.50000000  1
  O  O8  1  0.75606600  0.00000000  0.00000000  1
  O  O9  1  0.75053200  0.00000000  0.50000000  1
  O  O10  1  0.75053200  0.50000000  0.00000000  1
  O  O11  1  0.75005000  0.50000000  0.50000000  1
  O  O12  1  0.24393400  0.00000000  0.00000000  1
  O  O13  1  0.24946800  0.00000000  0.50000000  1
  O  O14  1  0.24946800  0.50000000  0.00000000  1
  O  O15  1  0.24995000  0.50000000  0.50000000  1
  O  O16  1  0.00000000  0.00000000  0.75606600  1
  O  O17  1  0.00000000  0.00000000  0.24393400  1
  O  O18  1  0.00000000  0.50000000  0.75053200  1
  O  O19  1  0.00000000  0.50000000  0.24946800  1
  O  O20  1  0.50000000  0.00000000  0.75053200  1
  O  O21  1  0.50000000  0.00000000  0.24946800  1
  O  O22  1  0.50000000  0.50000000  0.75005000  1
  O  O23  1  0.50000000  0.50000000  0.24995000  1
loop_
_geom_bond_atom_site_label_1
_geom_bond_atom_site_label_2
_geom_bond_distance
_geom_bond_site_symmetry_2
Na0 O8 2.783560 1_566
Na0 O0 2.783560 1_656
Na0 O16 2.783560 1_665
Na0 O1 2.799729 1_655
Na0 O20 2.799729 1_565
Na0 O10 2.799729 1_556
Na0 O9 2.799729 1_565
Na0 O4 2.799729 1_556
Na0 O18 2.799729 1_655
Na0 O11 2.816043 1_555
Na0 O5 2.816043 1_555
Na0 O22 2.816043 1_555
Na1 O17 2.783560 1_665
Na1 O8 2.783560 1_565
Na1 O0 2.783560 1_655
Na1 O1 2.799729 1_655
Na1 O4 2.799729 1_555
Na1 O19 2.799729 1_655
Na1 O10 2.799729 1_555
Na1 O21 2.799729 1_565
Na1 O9 2.799729 1_565
Na1 O11 2.816043 1_555
Na1 O23 2.816043 1_555
Na1 O5 2.816043 1_555
Na2 O2 2.783560 1_656
Na2 O8 2.783560 1_556
Na2 O16 2.783560 1_655
Na2 O3 2.799729 1_655
Na2 O6 2.799729 1_556
Na2 O9 2.799729 1_555
Na2 O10 2.799729 1_556
Na2 O20 2.799729 1_555
Na2 O18 2.799729 1_655
Na2 O11 2.816043 1_555
Na2 O7 2.816043 1_555
Na2 O22 2.816043 1_555
Na3 O17 2.783560 1_655
Na3 O2 2.783560 1_655
Na3 O8 2.783560 1_555
Na3 O21 2.799729 1_555
Na3 O6 2.799729 1_555
Na3 O9 2.799729 1_555
Na3 O10 2.799729 1_555
Na3 O19 2.799729 1_655
Na3 O3 2.799729 1_655
Na3 O23 2.816043 1_555
Na3 O11 2.816043 1_555
Na3 O7 2.816043 1_555
Na4 O12 2.783560 1_566
Na4 O0 2.783560 1_556
Na4 O16 2.783560 1_565
Na4 O1 2.799729 1_555
Na4 O13 2.799729 1_565
Na4 O14 2.799729 1_556
Na4 O18 2.799729 1_555
Na4 O20 2.799729 1_565
Na4 O4 2.799729 1_556
Na4 O15 2.816043 1_555
Na4 O5 2.816043 1_555
Na4 O22 2.816043 1_555
Na5 O12 2.783560 1_565
Na5 O17 2.783560 1_565
Na5 O0 2.783560 1_555
Na5 O1 2.799729 1_555
Na5 O13 2.799729 1_565
Na5 O4 2.799729 1_555
Na5 O14 2.799729 1_555
Na5 O19 2.799729 1_555
Na5 O21 2.799729 1_565
Na5 O23 2.816043 1_555
Na5 O15 2.816043 1_555
Na5 O5 2.816043 1_555
Na6 O12 2.783560 1_556
Na6 O2 2.783560 1_556
Na6 O16 2.783560 1_555
Na6 O14 2.799729 1_556
Na6 O18 2.799729 1_555
Na6 O6 2.799729 1_556
Na6 O13 2.799729 1_555
Na6 O3 2.799729 1_555
Na6 O20 2.799729 1_555
Na6 O15 2.816043 1_555
Na6 O7 2.816043 1_555
Na6 O22 2.816043 1_555
Na7 O17 2.783560 1_555
Na7 O12 2.783560 1_555
Na7 O2 2.783560 1_555
Na7 O21 2.799729 1_555
Na7 O14 2.799729 1_555
Na7 O6 2.799729 1_555
Na7 O13 2.799729 1_555
Na7 O19 2.799729 1_555
Na7 O3 2.799729 1_555
Na7 O23 2.816043 1_555
Na7 O15 2.816043 1_555
Na7 O7 2.816043 1_555
O0 V0 1.931632 1_565
O0 Ta1 2.027701 1_555
O1 Ta0 1.975454 1_565
O1 Ta2 1.983879 1_555
O2 V0 1.931632 1_555
O2 Ta1 2.027701 1_555
O3 Ta0 1.975454 1_555
O3 Ta2 1.983879 1_555
O4 Ta3 1.975454 1_565
O4 Ta5 1.983879 1_555
O5 Ta4 1.979271 1_565
O5 Ta6 1.980062 1_555
O6 Ta3 1.975454 1_555
O6 Ta5 1.983879 1_555
O7 Ta4 1.979271 1_555
O7 Ta6 1.980062 1_555
O8 V0 1.931632 1_655
O8 Ta3 2.027701 1_555
O9 Ta0 1.975454 1_655
O9 Ta4 1.983879 1_555
O10 Ta1 1.975454 1_655
O10 Ta5 1.983879 1_555
O11 Ta2 1.979271 1_655
O11 Ta6 1.980062 1_555
O12 V0 1.931632 1_555
O12 Ta3 2.027701 1_555
O13 Ta0 1.975454 1_555
O13 Ta4 1.983879 1_555
O14 Ta1 1.975454 1_555
O14 Ta5 1.983879 1_555
O15 Ta2 1.979271 1_555
O15 Ta6 1.980062 1_555
O16 V0 1.931632 1_556
O16 Ta0 2.027701 1_555
O17 V0 1.931632 1_555
O17 Ta0 2.027701 1_555
O18 Ta1 1.975454 1_556
O18 Ta2 1.983879 1_555
O19 Ta1 1.975454 1_555
O19 Ta2 1.983879 1_555
O20 Ta3 1.975454 1_556
O20 Ta4 1.983879 1_555
O21 Ta3 1.975454 1_555
O21 Ta4 1.983879 1_555
O22 Ta5 1.979271 1_556
O22 Ta6 1.980062 1_555
O23 Ta5 1.979271 1_555
O23 Ta6 1.980062 1_555
