# generated using pymatgen
data_Rb2Al2Si3O10
_symmetry_space_group_name_H-M   'P 1'
_cell_length_a   12.90392996
_cell_length_b   9.99619337
_cell_length_c   9.40258956
_cell_angle_alpha   83.33394897
_cell_angle_beta   50.30234387
_cell_angle_gamma   46.36370716
_symmetry_Int_Tables_number   1
_chemical_formula_structural   Rb2Al2Si3O10
_chemical_formula_sum   'Rb4 Al4 Si6 O20'
_cell_volume   548.68988609
_cell_formula_units_Z   2
loop_
 _symmetry_equiv_pos_site_id
 _symmetry_equiv_pos_as_xyz
  1  'x, y, z'
loop_
 _atom_site_type_symbol
 _atom_site_label
 _atom_site_symmetry_multiplicity
 _atom_site_fract_x
 _atom_site_fract_y
 _atom_site_fract_z
 _atom_site_occupancy
  Rb  Rb0  1  0.98407600  0.63889500  0.10783100  1
  Rb  Rb1  1  0.26919700  0.10783100  0.63889500  1
  Rb  Rb2  1  0.14216900  0.98080300  0.26592400  1
  Rb  Rb3  1  0.61110500  0.26592400  0.98080300  1
  Al  Al0  1  0.56526100  0.24977400  0.51632900  1
  Al  Al1  1  0.66863600  0.51632900  0.24977400  1
  Al  Al2  1  0.73367100  0.58136400  0.68473900  1
  Al  Al3  1  0.00022600  0.68473900  0.58136400  1
  Si  Si0  1  0.55892600  0.01011900  0.73927400  1
  Si  Si1  1  0.69168000  0.73927400  0.01011900  1
  Si  Si2  1  0.51072600  0.55832000  0.69107400  1
  Si  Si3  1  0.23988100  0.69107400  0.55832000  1
  Si  Si4  1  0.99980800  0.00019200  0.00019200  1
  Si  Si5  1  0.24980800  0.25019200  0.25019200  1
  O  O0  1  0.37026200  0.20961400  0.00254400  1
  O  O1  1  0.41758000  0.00254400  0.20961400  1
  O  O2  1  0.24745600  0.83242000  0.87973800  1
  O  O3  1  0.04038600  0.87973800  0.83242000  1
  O  O4  1  0.81015000  0.85830600  0.58475900  1
  O  O5  1  0.74678500  0.58475900  0.85830600  1
  O  O6  1  0.66524100  0.50321500  0.43985000  1
  O  O7  1  0.39169400  0.43985000  0.50321500  1
  O  O8  1  0.50676100  0.39776300  0.70073600  1
  O  O9  1  0.39474000  0.70073600  0.39776300  1
  O  O10  1  0.54926400  0.85526000  0.74323900  1
  O  O11  1  0.85223700  0.74323900  0.85526000  1
  O  O12  1  0.48717700  0.14385500  0.63732300  1
  O  O13  1  0.73164400  0.63732300  0.14385500  1
  O  O14  1  0.61267700  0.51835600  0.76282300  1
  O  O15  1  0.10614500  0.76282300  0.51835600  1
  O  O16  1  0.85067100  0.02895000  0.23603500  1
  O  O17  1  0.88434300  0.23603500  0.02895000  1
  O  O18  1  0.01396500  0.36565700  0.39932900  1
  O  O19  1  0.22105000  0.39932900  0.36565700  1
loop_
_geom_bond_atom_site_label_1
_geom_bond_atom_site_label_2
_geom_bond_distance
_geom_bond_site_symmetry_2
Al0 O7 1.751207 1_555
Al0 O16 1.764424 1_555
Al0 O8 1.773941 1_555
Al0 O12 1.777331 1_555
Al1 O6 1.751207 1_555
Al1 O17 1.764427 1_555
Al1 O9 1.773941 1_555
Al1 O13 1.777324 1_555
Al2 O5 1.751207 1_555
Al2 O18 1.764424 1_655
Al2 O10 1.773941 1_555
Al2 O14 1.777322 1_555
Al3 O4 1.751207 1_455
Al3 O19 1.764421 1_555
Al3 O11 1.773941 1_455
Al3 O15 1.777333 1_555
O0 Si5 1.651695 1_555
O0 Si0 1.666829 1_554
O0 Rb0 3.065629 1_455
O0 Rb3 3.404887 1_554
O1 Si5 1.651695 1_555
O1 Si1 1.666825 1_545
O1 Rb1 3.065624 1_555
O1 Rb2 3.404874 1_545
O2 Si4 1.651695 1_466
O2 Si2 1.666825 1_555
O2 Rb2 3.065633 1_556
O2 Rb1 3.404879 1_565
O3 Si4 1.651695 1_466
O3 Si3 1.666822 1_555
O3 Rb3 3.065624 1_465
O3 Rb0 3.404882 1_456
O4 Si0 1.621204 1_565
O5 Si1 1.621194 1_556
O6 Si2 1.621201 1_555
O7 Si3 1.621202 1_555
O8 Si2 1.631045 1_555
O8 Rb3 3.429147 1_555
O9 Si3 1.631036 1_555
O9 Rb2 3.429139 1_555
O10 Si0 1.631035 1_565
O10 Rb1 3.429147 1_565
O11 Si1 1.631044 1_556
O11 Rb0 3.429138 1_556
O12 Si0 1.640517 1_555
O12 Rb1 3.063550 1_555
O12 Rb0 3.203102 1_456
O12 Rb0 3.429785 1_545
O13 Si1 1.640517 1_555
O13 Rb0 3.063550 1_555
O13 Rb1 3.203102 1_565
O13 Rb1 3.429785 1_654
O14 Si2 1.640517 1_555
O14 Rb3 3.063550 1_555
O14 Rb2 3.203102 1_556
O14 Rb2 3.429785 1_645
O15 Si3 1.640517 1_555
O15 Rb2 3.063550 1_555
O15 Rb3 3.203102 1_465
O15 Rb3 3.429785 1_554
O16 Si4 1.623705 1_555
O16 Rb0 2.965777 1_545
O17 Si4 1.623702 1_555
O17 Rb1 2.965777 1_654
O18 Si5 1.623700 1_555
O18 Rb2 2.965777 1_545
O19 Si5 1.623710 1_555
O19 Rb3 2.965777 1_554
