# generated using pymatgen
data_RbHoS2
_symmetry_space_group_name_H-M   'P 1'
_cell_length_a   7.99596831
_cell_length_b   7.99596831
_cell_length_c   7.99596815
_cell_angle_alpha   29.26277319
_cell_angle_beta   29.26277319
_cell_angle_gamma   29.26277341
_symmetry_Int_Tables_number   1
_chemical_formula_structural   RbHoS2
_chemical_formula_sum   'Rb1 Ho1 S2'
_cell_volume   108.08395350
_cell_formula_units_Z   1
loop_
 _symmetry_equiv_pos_site_id
 _symmetry_equiv_pos_as_xyz
  1  'x, y, z'
loop_
 _atom_site_type_symbol
 _atom_site_label
 _atom_site_symmetry_multiplicity
 _atom_site_fract_x
 _atom_site_fract_y
 _atom_site_fract_z
 _atom_site_occupancy
  Rb  Rb0  1  -0.00000000  -0.00000000  -0.00000000  1
  Ho  Ho0  1  0.50000000  0.50000000  0.50000000  1
  S  S0  1  0.76947430  0.76947430  0.76947430  1
  S  S1  1  0.23052570  0.23052570  0.23052570  1
loop_
_geom_bond_atom_site_label_1
_geom_bond_atom_site_label_2
_geom_bond_distance
_geom_bond_site_symmetry_2
Rb0 S1 3.317192 1_554
Rb0 S0 3.317192 1_445
Rb0 S1 3.317192 1_545
Rb0 S1 3.317192 1_455
Rb0 S0 3.317192 1_454
Rb0 S0 3.317192 1_544
Ho0 S0 2.754314 1_554
Ho0 S1 2.754314 1_556
Ho0 S0 2.754314 1_455
Ho0 S0 2.754314 1_545
Ho0 S1 2.754314 1_565
Ho0 S1 2.754314 1_655
