# generated using pymatgen
data_Li4NpO5
_symmetry_space_group_name_H-M   'P 1'
_cell_length_a   4.39815641
_cell_length_b   5.18389477
_cell_length_c   5.18180913
_cell_angle_alpha   79.66837679
_cell_angle_beta   64.88810682
_cell_angle_gamma   64.89611778
_symmetry_Int_Tables_number   1
_chemical_formula_structural   Li4NpO5
_chemical_formula_sum   'Li4 Np1 O5'
_cell_volume   96.87126561
_cell_formula_units_Z   1
loop_
 _symmetry_equiv_pos_site_id
 _symmetry_equiv_pos_as_xyz
  1  'x, y, z'
loop_
 _atom_site_type_symbol
 _atom_site_label
 _atom_site_symmetry_multiplicity
 _atom_site_fract_x
 _atom_site_fract_y
 _atom_site_fract_z
 _atom_site_occupancy
  Li  Li0  1  0.18790155  0.22661302  0.39761282  1
  Li  Li1  1  0.58709700  0.60219233  0.22530298  1
  Li  Li2  1  0.41290300  0.39780767  0.77469702  1
  Li  Li3  1  0.81209845  0.77338698  0.60238718  1
  Np  Np0  1  -0.00000000  0.00000000  0.00000000  1
  O  O0  1  0.50000000  0.00000000  0.00000000  1
  O  O1  1  0.91177830  0.37559532  0.80123817  1
  O  O2  1  0.28738821  0.80086262  0.62446201  1
  O  O3  1  0.08822170  0.62440468  0.19876183  1
  O  O4  1  0.71261179  0.19913738  0.37553799  1
loop_
_geom_bond_atom_site_label_1
_geom_bond_atom_site_label_2
_geom_bond_distance
_geom_bond_site_symmetry_2
Li0 O1 2.018262 1_455
Li0 O3 2.088160 1_555
Li0 O0 2.146788 1_555
Li0 O4 2.204994 1_555
Li0 O4 2.205578 1_455
Li0 O2 2.265137 1_545
Li1 O4 2.019650 1_555
Li1 O2 2.091501 1_555
Li1 O0 2.146650 1_565
Li1 O3 2.200518 1_655
Li1 O3 2.209629 1_555
Li1 O1 2.255398 1_554
Li2 O2 2.019650 1_555
Li2 O4 2.091501 1_555
Li2 O0 2.146650 1_556
Li2 O1 2.200518 1_455
Li2 O1 2.209629 1_555
Li2 O3 2.255398 1_556
Li3 O3 2.018262 1_655
Li3 O1 2.088160 1_555
Li3 O0 2.146788 1_566
Li3 O2 2.204994 1_555
Li3 O2 2.205578 1_655
Li3 O4 2.265137 1_565
Np0 O4 1.993934 1_455
Np0 O2 1.993934 1_544
Np0 O3 1.995292 1_545
Np0 O1 1.995292 1_454
Np0 O0 2.199078 1_555
Np0 O0 2.199078 1_455
