# generated using pymatgen
data_SmTm3
_symmetry_space_group_name_H-M   'P 1'
_cell_length_a   7.20851996
_cell_length_b   7.20851904
_cell_length_c   5.56600296
_cell_angle_alpha   90.00000000
_cell_angle_beta   90.00000000
_cell_angle_gamma   119.99995954
_symmetry_Int_Tables_number   1
_chemical_formula_structural   SmTm3
_chemical_formula_sum   'Sm2 Tm6'
_cell_volume   250.47616032
_cell_formula_units_Z   2
loop_
 _symmetry_equiv_pos_site_id
 _symmetry_equiv_pos_as_xyz
  1  'x, y, z'
loop_
 _atom_site_type_symbol
 _atom_site_label
 _atom_site_symmetry_multiplicity
 _atom_site_fract_x
 _atom_site_fract_y
 _atom_site_fract_z
 _atom_site_occupancy
  Sm  Sm0  1  0.33333300  0.66666700  0.75000100  1
  Sm  Sm1  1  0.66666700  0.33333300  0.25000000  1
  Tm  Tm0  1  0.16475500  0.32950899  0.25000000  1
  Tm  Tm1  1  0.67049001  0.83524500  0.25000000  1
  Tm  Tm2  1  0.16475400  0.83524500  0.25000000  1
  Tm  Tm3  1  0.83524500  0.67049001  0.75000100  1
  Tm  Tm4  1  0.32950999  0.16475500  0.75000100  1
  Tm  Tm5  1  0.83524500  0.16475500  0.75000100  1
loop_
_geom_bond_atom_site_label_1
_geom_bond_atom_site_label_2
_geom_bond_distance
_geom_bond_site_symmetry_2
Sm0 Tm2 3.489299 1_556
Sm0 Tm1 3.489300 1_556
Sm0 Tm0 3.489304 1_556
Sm0 Tm2 3.489308 1_555
Sm0 Tm1 3.489309 1_555
Sm0 Tm0 3.489312 1_555
Sm0 Tm4 3.604335 1_565
Sm0 Tm3 3.604335 1_455
Sm0 Tm5 3.604341 1_455
Sm0 Tm5 3.604341 1_565
Sm0 Tm4 3.604342 1_555
Sm0 Tm3 3.604343 1_555
Sm1 Tm5 3.489295 1_554
Sm1 Tm3 3.489300 1_554
Sm1 Tm4 3.489300 1_554
Sm1 Tm5 3.489304 1_555
Sm1 Tm3 3.489309 1_555
Sm1 Tm4 3.489309 1_555
Sm1 Tm1 3.604335 1_545
Sm1 Tm2 3.604337 1_655
Sm1 Tm0 3.604339 1_555
Sm1 Tm0 3.604339 1_655
Sm1 Tm1 3.604342 1_555
Sm1 Tm2 3.604345 1_545
Tm0 Tm4 3.460708 1_554
Tm0 Tm5 3.460713 1_454
Tm0 Tm4 3.460717 1_555
Tm0 Tm5 3.460722 1_455
Tm0 Tm2 3.562908 1_545
Tm0 Tm1 3.562917 1_445
Tm0 Tm1 3.645607 1_555
Tm0 Tm2 3.645611 1_555
Tm1 Tm3 3.460712 1_554
Tm1 Tm5 3.460713 1_564
Tm1 Tm3 3.460721 1_555
Tm1 Tm5 3.460722 1_565
Tm1 Tm2 3.562912 1_655
Tm1 Tm2 3.645608 1_555
Tm2 Tm3 3.460709 1_454
Tm2 Tm4 3.460713 1_564
Tm2 Tm3 3.460718 1_455
Tm2 Tm4 3.460722 1_565
Tm3 Tm5 3.562919 1_565
Tm3 Tm4 3.562921 1_665
Tm3 Tm5 3.645600 1_555
Tm3 Tm4 3.645603 1_555
Tm4 Tm5 3.562919 1_455
Tm4 Tm5 3.645601 1_555
