# generated using pymatgen
data_AgPtO2
_symmetry_space_group_name_H-M   'P 1'
_cell_length_a   5.62771976
_cell_length_b   5.62771976
_cell_length_c   6.52955384
_cell_angle_alpha   85.20886777
_cell_angle_beta   85.20886777
_cell_angle_gamma   32.23910013
_symmetry_Int_Tables_number   1
_chemical_formula_structural   AgPtO2
_chemical_formula_sum   'Ag2 Pt2 O4'
_cell_volume   109.89994458
_cell_formula_units_Z   2
loop_
 _symmetry_equiv_pos_site_id
 _symmetry_equiv_pos_as_xyz
  1  'x, y, z'
loop_
 _atom_site_type_symbol
 _atom_site_label
 _atom_site_symmetry_multiplicity
 _atom_site_fract_x
 _atom_site_fract_y
 _atom_site_fract_z
 _atom_site_occupancy
  Ag  Ag0  1  0.63924000  0.63924000  0.55159000  1
  Ag  Ag1  1  0.36076000  0.36076000  0.44841000  1
  Pt  Pt0  1  0.11569000  0.11569000  0.05662000  1
  Pt  Pt1  1  0.88431000  0.88431000  0.94338000  1
  O  O0  1  0.68310000  0.68310000  0.87287000  1
  O  O1  1  0.43192000  0.43192000  0.75208000  1
  O  O2  1  0.56808000  0.56808000  0.24792000  1
  O  O3  1  0.31690000  0.31690000  0.12713000  1
loop_
_geom_bond_atom_site_label_1
_geom_bond_atom_site_label_2
_geom_bond_distance
_geom_bond_site_symmetry_2
Ag0 O2 2.188368 1_555
Ag0 O0 2.190603 1_555
Ag0 O1 2.495768 1_555
Ag1 O1 2.188368 1_555
Ag1 O3 2.190603 1_555
Ag1 O2 2.495768 1_555
O0 Pt0 2.064012 1_566
O0 Pt0 2.064012 1_656
O0 Pt1 2.262670 1_555
O1 Pt1 2.038346 1_455
O1 Pt1 2.038346 1_545
O2 Pt0 2.038346 1_655
O2 Pt0 2.038346 1_565
O3 Pt1 2.064012 1_454
O3 Pt1 2.064012 1_544
O3 Pt0 2.262670 1_555
