# generated using pymatgen
data_Hg3Rh
_symmetry_space_group_name_H-M   'P 1'
_cell_length_a   5.45445954
_cell_length_b   5.45445954
_cell_length_c   5.45445954
_cell_angle_alpha   135.15984382
_cell_angle_beta   135.15984382
_cell_angle_gamma   65.28193953
_symmetry_Int_Tables_number   1
_chemical_formula_structural   Hg3Rh
_chemical_formula_sum   'Hg3 Rh1'
_cell_volume   79.50789692
_cell_formula_units_Z   1
loop_
 _symmetry_equiv_pos_site_id
 _symmetry_equiv_pos_as_xyz
  1  'x, y, z'
loop_
 _atom_site_type_symbol
 _atom_site_label
 _atom_site_symmetry_multiplicity
 _atom_site_fract_x
 _atom_site_fract_y
 _atom_site_fract_z
 _atom_site_occupancy
  Hg  Hg0  1  0.75000000  0.25000000  0.50000000  1
  Hg  Hg1  1  0.25000000  0.75000000  0.50000000  1
  Hg  Hg2  1  0.50000000  0.50000000  0.00000000  1
  Rh  Rh0  1  0.00000000  0.00000000  0.00000000  1
loop_
_geom_bond_atom_site_label_1
_geom_bond_atom_site_label_2
_geom_bond_distance
_geom_bond_site_symmetry_2
Hg0 Hg1 2.941988 1_645
Hg0 Hg1 2.941988 1_555
Hg0 Hg1 2.941988 1_544
Hg0 Hg1 2.941988 1_656
Hg0 Rh0 3.098646 1_656
Hg0 Rh0 3.098646 1_655
Hg0 Hg2 3.098646 1_556
Hg0 Hg2 3.098646 1_555
Hg0 Hg2 3.098646 1_545
Hg0 Rh0 3.098646 1_666
Hg0 Hg2 3.098646 1_656
Hg0 Rh0 3.098646 1_555
Hg1 Hg2 3.098646 1_556
Hg1 Hg2 3.098646 1_555
Hg1 Rh0 3.098646 1_565
Hg1 Rh0 3.098646 1_566
Hg1 Hg2 3.098646 1_566
Hg1 Rh0 3.098646 1_555
Hg1 Rh0 3.098646 1_666
Hg1 Hg2 3.098646 1_455
Hg2 Rh0 2.941988 1_666
Hg2 Rh0 2.941988 1_554
Hg2 Rh0 2.941988 1_655
Hg2 Rh0 2.941988 1_565
