# generated using pymatgen
data_MnAgO2
_symmetry_space_group_name_H-M   'P 1'
_cell_length_a   2.90318675
_cell_length_b   3.13088246
_cell_length_c   6.34860802
_cell_angle_alpha   100.55490576
_cell_angle_beta   89.99998743
_cell_angle_gamma   117.62204861
_symmetry_Int_Tables_number   1
_chemical_formula_structural   MnAgO2
_chemical_formula_sum   'Mn1 Ag1 O2'
_cell_volume   50.02428544
_cell_formula_units_Z   1
loop_
 _symmetry_equiv_pos_site_id
 _symmetry_equiv_pos_as_xyz
  1  'x, y, z'
loop_
 _atom_site_type_symbol
 _atom_site_label
 _atom_site_symmetry_multiplicity
 _atom_site_fract_x
 _atom_site_fract_y
 _atom_site_fract_z
 _atom_site_occupancy
  Mn  Mn0  1  0.50000000  0.00000000  0.50000000  1
  Ag  Ag0  1  0.00000000  0.00000000  0.00000000  1
  O  O0  1  0.10099056  0.20198213  0.33561696  1
  O  O1  1  0.89900944  0.79801787  0.66438304  1
loop_
_geom_bond_atom_site_label_1
_geom_bond_atom_site_label_2
_geom_bond_distance
_geom_bond_site_symmetry_2
Mn0 O0 1.936995 1_655
Mn0 O1 1.936995 1_445
Mn0 O0 1.936997 1_555
Mn0 O1 1.936997 1_545
Mn0 O1 2.243764 1_555
Mn0 O0 2.243764 1_545
Ag0 O1 2.088108 1_444
Ag0 O0 2.088108 1_555
