# generated using pymatgen
data_Li7MnAs4
_symmetry_space_group_name_H-M   'P 1'
_cell_length_a   8.45891725
_cell_length_b   8.45891725
_cell_length_c   6.03409498
_cell_angle_alpha   89.79265185
_cell_angle_beta   89.79265185
_cell_angle_gamma   89.96703846
_symmetry_Int_Tables_number   1
_chemical_formula_structural   Li7MnAs4
_chemical_formula_sum   'Li14 Mn2 As8'
_cell_volume   431.75357100
_cell_formula_units_Z   2
loop_
 _symmetry_equiv_pos_site_id
 _symmetry_equiv_pos_as_xyz
  1  'x, y, z'
loop_
 _atom_site_type_symbol
 _atom_site_label
 _atom_site_symmetry_multiplicity
 _atom_site_fract_x
 _atom_site_fract_y
 _atom_site_fract_z
 _atom_site_occupancy
  Li  Li0  1  0.25365600  0.24868100  0.18767100  1
  Li  Li1  1  0.73333900  0.75256100  0.82184200  1
  Li  Li2  1  0.01058600  0.98941400  0.25000000  1
  Li  Li3  1  0.48700200  0.51299800  0.25000000  1
  Li  Li4  1  0.25018100  0.74981900  0.25000000  1
  Li  Li5  1  0.01312500  0.50954400  0.24918800  1
  Li  Li6  1  0.49045600  0.98687500  0.25081200  1
  Li  Li7  1  0.24868100  0.25365600  0.68767100  1
  Li  Li8  1  0.75131900  0.74634400  0.31232900  1
  Li  Li9  1  0.98687500  0.49045600  0.75081200  1
  Li  Li10  1  0.74981900  0.25018100  0.75000000  1
  Li  Li11  1  0.50954400  0.01312500  0.74918800  1
  Li  Li12  1  0.98941400  0.01058600  0.75000000  1
  Li  Li13  1  0.51299800  0.48700200  0.75000000  1
  Mn  Mn0  1  0.74795900  0.25204100  0.25000000  1
  Mn  Mn1  1  0.25204100  0.74795900  0.75000000  1
  As  As0  1  0.74908500  0.01604300  0.03711600  1
  As  As1  1  0.25091500  0.98395700  0.96288400  1
  As  As2  1  0.01604300  0.74908500  0.53711600  1
  As  As3  1  0.98395700  0.25091500  0.46288400  1
  As  As4  1  0.51294000  0.25032700  0.46373000  1
  As  As5  1  0.48706000  0.74967300  0.53627000  1
  As  As6  1  0.74967300  0.48706000  0.03627000  1
  As  As7  1  0.25032700  0.51294000  0.96373000  1
loop_
_geom_bond_atom_site_label_1
_geom_bond_atom_site_label_2
_geom_bond_distance
_geom_bond_site_symmetry_2
As0 Mn0 2.377773 1_555
As0 Li6 2.547079 1_545
As0 Li2 2.571332 1_645
As0 Li1 2.587484 1_544
As0 Li10 2.626640 1_554
As0 Li12 2.666719 1_554
As0 Li11 2.674076 1_554
As0 Li8 2.817006 1_545
As1 Mn1 2.377773 1_555
As1 Li11 2.547079 1_565
As1 Li12 2.571332 1_465
As1 Li0 2.622396 1_566
As1 Li4 2.626640 1_556
As1 Li2 2.666719 1_556
As1 Li6 2.674076 1_556
As1 Li7 2.817006 1_565
As2 Mn1 2.377773 1_555
As2 Li9 2.547079 1_455
As2 Li12 2.571332 1_465
As2 Li8 2.622396 1_455
As2 Li4 2.626640 1_555
As2 Li2 2.666719 1_555
As2 Li5 2.674076 1_555
As2 Li1 2.939695 1_455
As3 Mn0 2.377773 1_555
As3 Li5 2.547079 1_655
As3 Li2 2.571332 1_645
As3 Li7 2.622396 1_655
As3 Li10 2.626640 1_555
As3 Li12 2.666719 1_555
As3 Li9 2.674076 1_555
As3 Li0 2.817006 1_655
As4 Mn0 2.365790 1_555
As4 Li3 2.574689 1_555
As4 Li6 2.583810 1_545
As4 Li7 2.608038 1_555
As4 Li11 2.639771 1_555
As4 Li13 2.648951 1_555
As4 Li10 2.650255 1_555
As4 Li0 2.758988 1_555
As5 Mn1 2.365790 1_555
As5 Li13 2.574689 1_555
As5 Li11 2.583810 1_565
As5 Li8 2.608038 1_555
As5 Li6 2.639771 1_555
As5 Li3 2.648951 1_555
As5 Li4 2.650255 1_555
As5 Li1 2.708542 1_555
As6 Mn0 2.365790 1_555
As6 Li3 2.574689 1_555
As6 Li5 2.583810 1_655
As6 Li1 2.591711 1_554
As6 Li9 2.639771 1_554
As6 Li13 2.648951 1_554
As6 Li10 2.650255 1_554
As6 Li8 2.758988 1_555
As7 Mn1 2.365790 1_555
As7 Li13 2.574689 1_555
As7 Li9 2.583810 1_455
As7 Li0 2.608038 1_556
As7 Li5 2.639771 1_556
As7 Li3 2.648951 1_556
As7 Li4 2.650255 1_556
As7 Li7 2.758988 1_555
