# generated using pymatgen
data_Ge
_symmetry_space_group_name_H-M   'P 1'
_cell_length_a   5.73910504
_cell_length_b   5.73910504
_cell_length_c   5.73910504
_cell_angle_alpha   109.47122063
_cell_angle_beta   109.47122063
_cell_angle_gamma   109.47122063
_symmetry_Int_Tables_number   1
_chemical_formula_structural   Ge
_chemical_formula_sum   Ge8
_cell_volume   145.51596035
_cell_formula_units_Z   8
loop_
 _symmetry_equiv_pos_site_id
 _symmetry_equiv_pos_as_xyz
  1  'x, y, z'
loop_
 _atom_site_type_symbol
 _atom_site_label
 _atom_site_symmetry_multiplicity
 _atom_site_fract_x
 _atom_site_fract_y
 _atom_site_fract_z
 _atom_site_occupancy
  Ge  Ge0_0  1  0.00000000  0.00000000  0.00000000  1
  Ge  Ge0_1  1  0.00000000  0.00000000  0.50000000  1
  Ge  Ge0_2  1  0.00000000  0.50000000  0.00000000  1
  Ge  Ge0_3  1  0.00000000  0.50000000  0.50000000  1
  Ge  Ge0_4  1  0.50000000  0.00000000  0.00000000  1
  Ge  Ge0_5  1  0.50000000  0.00000000  0.50000000  1
  Ge  Ge0_6  1  0.50000000  0.50000000  0.00000000  1
  Ge  Ge0_7  1  0.50000000  0.50000000  0.50000000  1
loop_
_geom_bond_atom_site_label_1
_geom_bond_atom_site_label_2
_geom_bond_distance
_geom_bond_site_symmetry_2
Ge0_0 Ge0_4 2.869553 1_455
Ge0_0 Ge0_2 2.869553 1_545
Ge0_0 Ge0_7 2.869553 1_555
Ge0_0 Ge0_1 2.869553 1_555
Ge0_0 Ge0_1 2.869553 1_554
Ge0_0 Ge0_2 2.869553 1_555
Ge0_0 Ge0_7 2.869553 1_444
Ge0_0 Ge0_4 2.869553 1_555
Ge0_1 Ge0_6 2.869553 1_556
Ge0_1 Ge0_3 2.869553 1_555
Ge0_1 Ge0_6 2.869553 1_445
Ge0_1 Ge0_5 2.869553 1_455
Ge0_1 Ge0_3 2.869553 1_545
Ge0_1 Ge0_5 2.869553 1_555
Ge0_2 Ge0_3 2.869553 1_554
Ge0_2 Ge0_3 2.869553 1_555
Ge0_2 Ge0_5 2.869553 1_454
Ge0_2 Ge0_5 2.869553 1_565
Ge0_2 Ge0_6 2.869553 1_455
Ge0_2 Ge0_6 2.869553 1_555
Ge0_3 Ge0_4 2.869553 1_455
Ge0_3 Ge0_7 2.869553 1_555
Ge0_3 Ge0_7 2.869553 1_455
Ge0_3 Ge0_4 2.869553 1_566
Ge0_4 Ge0_6 2.869553 1_545
Ge0_4 Ge0_5 2.869553 1_555
Ge0_4 Ge0_5 2.869553 1_554
Ge0_4 Ge0_6 2.869553 1_555
Ge0_5 Ge0_7 2.869553 1_555
Ge0_5 Ge0_7 2.869553 1_545
Ge0_6 Ge0_7 2.869553 1_555
Ge0_6 Ge0_7 2.869553 1_554
