# generated using pymatgen
data_NiAg3
_symmetry_space_group_name_H-M   'P 1'
_cell_length_a   4.00903000
_cell_length_b   4.00903000
_cell_length_c   4.00903000
_cell_angle_alpha   90.00000000
_cell_angle_beta   90.00000000
_cell_angle_gamma   90.00000000
_symmetry_Int_Tables_number   1
_chemical_formula_structural   NiAg3
_chemical_formula_sum   'Ni1 Ag3'
_cell_volume   64.43441923
_cell_formula_units_Z   1
loop_
 _symmetry_equiv_pos_site_id
 _symmetry_equiv_pos_as_xyz
  1  'x, y, z'
loop_
 _atom_site_type_symbol
 _atom_site_label
 _atom_site_symmetry_multiplicity
 _atom_site_fract_x
 _atom_site_fract_y
 _atom_site_fract_z
 _atom_site_occupancy
  Ni  Ni0  1  0.50000000  0.50000000  0.50000000  1
  Ag  Ag0  1  0.50000000  0.00000000  0.00000000  1
  Ag  Ag1  1  0.00000000  0.00000000  0.50000000  1
  Ag  Ag2  1  0.00000000  0.50000000  0.00000000  1
loop_
_geom_bond_atom_site_label_1
_geom_bond_atom_site_label_2
_geom_bond_distance
_geom_bond_site_symmetry_2
Ag0 Ni0 2.834812 1_544
Ag0 Ni0 2.834812 1_555
Ag0 Ag2 2.834812 1_645
Ag0 Ag1 2.834812 1_555
Ag0 Ag2 2.834812 1_655
Ag0 Ag1 2.834812 1_655
Ag0 Ag2 2.834812 1_545
Ag0 Ag1 2.834812 1_554
Ag0 Ni0 2.834812 1_545
Ag0 Ag2 2.834812 1_555
Ag0 Ni0 2.834812 1_554
Ag0 Ag1 2.834812 1_654
Ag1 Ni0 2.834812 1_555
Ag1 Ag2 2.834812 1_546
Ag1 Ni0 2.834812 1_445
Ag1 Ag2 2.834812 1_545
Ag1 Ni0 2.834812 1_545
Ag1 Ag2 2.834812 1_555
Ag1 Ag2 2.834812 1_556
Ag1 Ni0 2.834812 1_455
Ag2 Ni0 2.834812 1_454
Ag2 Ni0 2.834812 1_555
Ag2 Ni0 2.834812 1_554
Ag2 Ni0 2.834812 1_455
