# generated using pymatgen
data_Li6PS5Cl
_symmetry_space_group_name_H-M   'P 1'
_cell_length_a   7.26870274
_cell_length_b   7.26870274
_cell_length_c   7.26870274
_cell_angle_alpha   60.00000000
_cell_angle_beta   60.00000000
_cell_angle_gamma   60.00000000
_symmetry_Int_Tables_number   1
_chemical_formula_structural   Li6PS5Cl
_chemical_formula_sum   'Li6 P1 S5 Cl1'
_cell_volume   271.55370203
_cell_formula_units_Z   1
loop_
 _symmetry_equiv_pos_site_id
 _symmetry_equiv_pos_as_xyz
  1  'x, y, z'
loop_
 _atom_site_type_symbol
 _atom_site_label
 _atom_site_symmetry_multiplicity
 _atom_site_fract_x
 _atom_site_fract_y
 _atom_site_fract_z
 _atom_site_occupancy
  Li  Li0  1  0.52311300  0.97688700  0.52311300  1
  Li  Li1  1  0.97688700  0.52311300  0.97688700  1
  Li  Li2  1  0.52311300  0.52311300  0.97688700  1
  Li  Li3  1  0.97688700  0.97688700  0.52311300  1
  Li  Li4  1  0.97688700  0.52311300  0.52311300  1
  Li  Li5  1  0.52311300  0.97688700  0.97688700  1
  P  P0  1  0.50000000  0.50000000  0.50000000  1
  S  S0  1  0.38447800  0.84656700  0.38447800  1
  S  S1  1  0.84656700  0.38447800  0.38447800  1
  S  S2  1  0.38447800  0.38447800  0.38447800  1
  S  S3  1  0.38447800  0.38447800  0.84656700  1
  S  S4  1  0.75000000  0.75000000  0.75000000  1
  Cl  Cl0  1  0.00000000  0.00000000  0.00000000  1
loop_
_geom_bond_atom_site_label_1
_geom_bond_atom_site_label_2
_geom_bond_distance
_geom_bond_site_symmetry_2
Li0 S4 2.332284 1_555
Li0 S0 2.419246 1_555
Li0 S2 2.419252 1_565
Li1 S4 2.332284 1_555
Li1 S3 2.419252 1_655
Li1 S1 2.419252 1_556
Li2 S4 2.332284 1_555
Li2 S3 2.419246 1_555
Li2 S2 2.419252 1_556
Li3 S4 2.332284 1_555
Li3 S1 2.419252 1_565
Li3 S0 2.419252 1_655
Li4 S4 2.332284 1_555
Li4 S1 2.419246 1_555
Li4 S2 2.419252 1_655
Li5 S4 2.332284 1_555
Li5 S3 2.419252 1_565
Li5 S0 2.419252 1_556
P0 S2 2.056824 1_555
P0 S3 2.056830 1_555
P0 S1 2.056830 1_555
P0 S0 2.056830 1_555
