# generated using pymatgen
data_LiAlB4
_symmetry_space_group_name_H-M   'P 1'
_cell_length_a   3.32147800
_cell_length_b   5.90027500
_cell_length_c   11.33280100
_cell_angle_alpha   90.00000000
_cell_angle_beta   90.00000000
_cell_angle_gamma   90.00000000
_symmetry_Int_Tables_number   1
_chemical_formula_structural   LiAlB4
_chemical_formula_sum   'Li4 Al4 B16'
_cell_volume   222.09608173
_cell_formula_units_Z   4
loop_
 _symmetry_equiv_pos_site_id
 _symmetry_equiv_pos_as_xyz
  1  'x, y, z'
loop_
 _atom_site_type_symbol
 _atom_site_label
 _atom_site_symmetry_multiplicity
 _atom_site_fract_x
 _atom_site_fract_y
 _atom_site_fract_z
 _atom_site_occupancy
  Li  Li0  1  0.00000000  0.37266000  0.14980400  1
  Li  Li1  1  0.00000000  0.62734000  0.85019600  1
  Li  Li2  1  0.00000000  0.12734000  0.64980400  1
  Li  Li3  1  0.00000000  0.87266000  0.35019600  1
  Al  Al0  1  0.00000000  0.85678300  0.09257300  1
  Al  Al1  1  0.00000000  0.14321700  0.90742700  1
  Al  Al2  1  0.00000000  0.64321700  0.59257300  1
  Al  Al3  1  0.00000000  0.35678300  0.40742700  1
  B  B0  1  0.50000000  0.01910700  0.19694800  1
  B  B1  1  0.50000000  0.98089300  0.80305200  1
  B  B2  1  0.50000000  0.48089300  0.69694800  1
  B  B3  1  0.50000000  0.51910700  0.30305200  1
  B  B4  1  0.50000000  0.11642600  0.04998600  1
  B  B5  1  0.50000000  0.88357400  0.95001400  1
  B  B6  1  0.50000000  0.38357400  0.54998600  1
  B  B7  1  0.50000000  0.61642600  0.45001400  1
  B  B8  1  0.50000000  0.63192000  0.02861800  1
  B  B9  1  0.50000000  0.36808000  0.97138200  1
  B  B10  1  0.50000000  0.86808000  0.52861800  1
  B  B11  1  0.50000000  0.13192000  0.47138200  1
  B  B12  1  0.50000000  0.69796400  0.18671400  1
  B  B13  1  0.50000000  0.30203600  0.81328600  1
  B  B14  1  0.50000000  0.80203600  0.68671400  1
  B  B15  1  0.50000000  0.19796400  0.31328600  1
loop_
_geom_bond_atom_site_label_1
_geom_bond_atom_site_label_2
_geom_bond_distance
_geom_bond_site_symmetry_2
Al0 B12 2.185040 1_455
Al0 B12 2.185040 1_555
Al0 B8 2.245807 1_455
Al0 B8 2.245807 1_555
Al0 B0 2.252668 1_465
Al0 B0 2.252668 1_565
Al0 B4 2.310390 1_565
Al0 B4 2.310390 1_465
Al0 B5 2.322322 1_554
Al0 B5 2.322322 1_454
Al1 B13 2.185040 1_555
Al1 B13 2.185040 1_455
Al1 B9 2.245807 1_455
Al1 B9 2.245807 1_555
Al1 B1 2.252668 1_445
Al1 B1 2.252668 1_545
Al1 B5 2.310390 1_445
Al1 B5 2.310390 1_545
Al1 B4 2.322322 1_556
Al1 B4 2.322322 1_456
Al2 B14 2.185040 1_555
Al2 B14 2.185040 1_455
Al2 B10 2.245807 1_455
Al2 B10 2.245807 1_555
Al2 B2 2.252668 1_455
Al2 B2 2.252668 1_555
Al2 B6 2.310390 1_455
Al2 B6 2.310390 1_555
Al2 B7 2.322322 1_455
Al2 B7 2.322322 1_555
Al3 B15 2.185040 1_455
Al3 B15 2.185040 1_555
Al3 B11 2.245807 1_555
Al3 B11 2.245807 1_455
Al3 B3 2.252668 1_455
Al3 B3 2.252668 1_555
Al3 B7 2.310390 1_555
Al3 B7 2.310390 1_455
Al3 B6 2.322322 1_455
Al3 B6 2.322322 1_555
B0 B15 1.688769 1_555
B0 B4 1.761697 1_555
B0 B12 1.898378 1_545
B0 Li3 2.553608 1_645
B0 Li3 2.553608 1_545
B0 Li0 2.719402 1_655
B0 Li0 2.719402 1_555
B1 B14 1.688769 1_555
B1 B5 1.761697 1_555
B1 B13 1.898378 1_565
B1 Li2 2.553608 1_565
B1 Li2 2.553608 1_665
B1 Li1 2.719402 1_655
B1 Li1 2.719402 1_555
B2 B6 1.761697 1_555
B2 Li1 2.553608 1_655
B2 Li1 2.553608 1_555
B2 Li2 2.719402 1_655
B2 Li2 2.719402 1_555
B3 B7 1.761697 1_555
B3 Li0 2.553608 1_555
B3 Li0 2.553608 1_655
B3 Li3 2.719402 1_555
B3 Li3 2.719402 1_655
B4 B9 1.731544 1_554
B4 B5 1.780781 1_544
B4 Li0 2.514637 1_555
B4 Li0 2.514637 1_655
B5 B8 1.731544 1_556
B5 Li1 2.514637 1_555
B5 Li1 2.514637 1_655
B6 B7 1.780781 1_555
B6 Li2 2.514637 1_655
B6 Li2 2.514637 1_555
B7 Li3 2.514637 1_555
B7 Li3 2.514637 1_655
B8 B9 1.686459 1_554
B8 Li1 2.616745 1_654
B8 Li1 2.616745 1_554
B8 Li0 2.642767 1_555
B8 Li0 2.642767 1_655
B9 Li0 2.616745 1_556
B9 Li0 2.616745 1_656
B9 Li1 2.642767 1_655
B9 Li1 2.642767 1_555
B10 B11 1.686459 1_565
B10 B7 1.731544 1_555
B10 B14 1.833557 1_555
B10 Li3 2.616745 1_555
B10 Li3 2.616745 1_655
B10 Li2 2.642767 1_565
B10 Li2 2.642767 1_665
B11 B6 1.731544 1_555
B11 B15 1.833557 1_555
B11 Li2 2.616745 1_655
B11 Li2 2.616745 1_555
B11 Li3 2.642767 1_645
B11 Li3 2.642767 1_545
B12 B3 1.688769 1_555
B12 B8 1.833557 1_555
B12 Li0 2.572364 1_555
B12 Li0 2.572364 1_655
B12 Li3 2.693147 1_555
B12 Li3 2.693147 1_655
B13 B2 1.688769 1_555
B13 B9 1.833557 1_555
B13 Li1 2.572364 1_655
B13 Li1 2.572364 1_555
B13 Li2 2.693147 1_655
B13 Li2 2.693147 1_555
B14 B2 1.898378 1_555
B14 Li2 2.572364 1_665
B14 Li2 2.572364 1_565
B14 Li1 2.693147 1_655
B14 Li1 2.693147 1_555
B15 B3 1.898378 1_555
B15 Li3 2.572364 1_645
B15 Li3 2.572364 1_545
B15 Li0 2.693147 1_555
B15 Li0 2.693147 1_655
