# generated using pymatgen
data_BaCuSeF
_symmetry_space_group_name_H-M   'P 1'
_cell_length_a   4.26353300
_cell_length_b   4.26353300
_cell_length_c   9.24654700
_cell_angle_alpha   90.00000000
_cell_angle_beta   90.00000000
_cell_angle_gamma   90.00000000
_symmetry_Int_Tables_number   1
_chemical_formula_structural   BaCuSeF
_chemical_formula_sum   'Ba2 Cu2 Se2 F2'
_cell_volume   168.08108354
_cell_formula_units_Z   2
loop_
 _symmetry_equiv_pos_site_id
 _symmetry_equiv_pos_as_xyz
  1  'x, y, z'
loop_
 _atom_site_type_symbol
 _atom_site_label
 _atom_site_symmetry_multiplicity
 _atom_site_fract_x
 _atom_site_fract_y
 _atom_site_fract_z
 _atom_site_occupancy
  Ba  Ba0  1  0.00000000  0.50000000  0.67242300  1
  Ba  Ba1  1  0.50000000  0.00000000  0.32757700  1
  Cu  Cu0  1  0.50000000  0.50000000  0.00000000  1
  Cu  Cu1  1  0.00000000  0.00000000  0.00000000  1
  Se  Se0  1  0.00000000  0.50000000  0.15115500  1
  Se  Se1  1  0.50000000  0.00000000  0.84884500  1
  F  F0  1  0.00000000  0.00000000  0.50000000  1
  F  F1  1  0.50000000  0.50000000  0.50000000  1
loop_
_geom_bond_atom_site_label_1
_geom_bond_atom_site_label_2
_geom_bond_distance
_geom_bond_site_symmetry_2
Ba0 F0 2.662006 1_565
Ba0 F0 2.662006 1_555
Ba0 F1 2.662006 1_555
Ba0 F1 2.662006 1_455
Ba0 Se1 3.427824 1_565
Ba0 Se1 3.427824 1_455
Ba0 Se1 3.427824 1_555
Ba0 Se1 3.427824 1_465
Ba1 F0 2.662006 1_655
Ba1 F1 2.662006 1_545
Ba1 F0 2.662006 1_555
Ba1 F1 2.662006 1_555
Ba1 Se0 3.427824 1_545
Ba1 Se0 3.427824 1_655
Ba1 Se0 3.427824 1_645
Ba1 Se0 3.427824 1_555
Cu0 Se1 2.549095 1_554
Cu0 Se0 2.549095 1_555
Cu0 Se1 2.549095 1_564
Cu0 Se0 2.549095 1_655
Cu1 Se0 2.549095 1_545
Cu1 Se0 2.549095 1_555
Cu1 Se1 2.549095 1_554
Cu1 Se1 2.549095 1_454
