# generated using pymatgen
data_Sr2LiTaN3F
_symmetry_space_group_name_H-M   'P 1'
_cell_length_a   5.61215783
_cell_length_b   10.77981948
_cell_length_c   15.87938463
_cell_angle_alpha   90.00000000
_cell_angle_beta   90.00000000
_cell_angle_gamma   90.00000000
_symmetry_Int_Tables_number   1
_chemical_formula_structural   Sr2LiTaN3F
_chemical_formula_sum   'Sr16 Li8 Ta8 N24 F8'
_cell_volume   960.67177833
_cell_formula_units_Z   8
loop_
 _symmetry_equiv_pos_site_id
 _symmetry_equiv_pos_as_xyz
  1  'x, y, z'
loop_
 _atom_site_type_symbol
 _atom_site_label
 _atom_site_symmetry_multiplicity
 _atom_site_fract_x
 _atom_site_fract_y
 _atom_site_fract_z
 _atom_site_occupancy
  Sr  Sr0  1  0.78175042  0.86896182  0.71496064  1
  Sr  Sr1  1  0.21824958  0.63103818  0.21496064  1
  Sr  Sr2  1  0.71824958  0.36896182  0.28503936  1
  Sr  Sr3  1  0.28175042  0.13103818  0.78503936  1
  Sr  Sr4  1  0.21824958  0.13103818  0.28503936  1
  Sr  Sr5  1  0.78175042  0.36896182  0.78503936  1
  Sr  Sr6  1  0.28175042  0.63103818  0.71496064  1
  Sr  Sr7  1  0.71824958  0.86896182  0.21496064  1
  Sr  Sr8  1  0.70731812  0.05081051  0.41480101  1
  Sr  Sr9  1  0.29268188  0.44918949  0.91480101  1
  Sr  Sr10  1  0.79268188  0.55081051  0.58519899  1
  Sr  Sr11  1  0.20731812  0.94918949  0.08519899  1
  Sr  Sr12  1  0.29268188  0.94918949  0.58519899  1
  Sr  Sr13  1  0.70731812  0.55081051  0.08519899  1
  Sr  Sr14  1  0.20731812  0.44918949  0.41480101  1
  Sr  Sr15  1  0.79268188  0.05081051  0.91480101  1
  Li  Li0  1  0.21069454  0.16600595  0.47861345  1
  Li  Li1  1  0.78930546  0.33399405  0.97861345  1
  Li  Li2  1  0.28930546  0.66600595  0.52138655  1
  Li  Li3  1  0.71069454  0.83399405  0.02138655  1
  Li  Li4  1  0.78930546  0.83399405  0.52138655  1
  Li  Li5  1  0.21069454  0.66600595  0.02138655  1
  Li  Li6  1  0.71069454  0.33399405  0.47861345  1
  Li  Li7  1  0.28930546  0.16600595  0.97861345  1
  Ta  Ta0  1  0.83417211  0.15511090  0.63403633  1
  Ta  Ta1  1  0.16582789  0.34488910  0.13403633  1
  Ta  Ta2  1  0.66582789  0.65511090  0.36596367  1
  Ta  Ta3  1  0.33417211  0.84488910  0.86596367  1
  Ta  Ta4  1  0.16582789  0.84488910  0.36596367  1
  Ta  Ta5  1  0.83417211  0.65511090  0.86596367  1
  Ta  Ta6  1  0.33417211  0.34488910  0.63403633  1
  Ta  Ta7  1  0.66582789  0.15511090  0.13403633  1
  N  N0  1  0.80625855  0.11814386  0.75135939  1
  N  N1  1  0.19374145  0.38185614  0.25135939  1
  N  N2  1  0.69374145  0.61814386  0.24864061  1
  N  N3  1  0.30625855  0.88185614  0.74864061  1
  N  N4  1  0.19374145  0.88185614  0.24864061  1
  N  N5  1  0.80625855  0.61814386  0.74864061  1
  N  N6  1  0.30625855  0.38185614  0.75135939  1
  N  N7  1  0.69374145  0.11814386  0.25135939  1
  N  N8  1  0.74892308  0.00554542  0.57543943  1
  N  N9  1  0.25107692  0.49445458  0.07543943  1
  N  N10  1  0.75107692  0.50554542  0.42456057  1
  N  N11  1  0.24892308  0.99445458  0.92456057  1
  N  N12  1  0.25107692  0.99445458  0.42456057  1
  N  N13  1  0.74892308  0.50554542  0.92456057  1
  N  N14  1  0.24892308  0.49445458  0.57543943  1
  N  N15  1  0.75107692  0.00554542  0.07543943  1
  N  N16  1  0.17766816  0.18017128  0.61136766  1
  N  N17  1  0.82233184  0.31982872  0.11136766  1
  N  N18  1  0.32233184  0.68017128  0.38863234  1
  N  N19  1  0.67766816  0.81982872  0.88863234  1
  N  N20  1  0.82233184  0.81982872  0.38863234  1
  N  N21  1  0.17766816  0.68017128  0.88863234  1
  N  N22  1  0.67766816  0.31982872  0.61136766  1
  N  N23  1  0.32233184  0.18017128  0.11136766  1
  F  F0  1  0.96005554  0.24517768  0.41864980  1
  F  F1  1  0.03994446  0.25482232  0.91864980  1
  F  F2  1  0.53994446  0.74517768  0.58135020  1
  F  F3  1  0.46005554  0.75482232  0.08135020  1
  F  F4  1  0.03994446  0.75482232  0.58135020  1
  F  F5  1  0.96005554  0.74517768  0.08135020  1
  F  F6  1  0.46005554  0.25482232  0.41864980  1
  F  F7  1  0.53994446  0.24517768  0.91864980  1
loop_
_geom_bond_atom_site_label_1
_geom_bond_atom_site_label_2
_geom_bond_distance
_geom_bond_site_symmetry_2
Li0 N12 2.051334 1_545
Li0 N16 2.121690 1_555
Li1 N13 2.051334 1_555
Li1 N17 2.121690 1_556
Li2 N14 2.051334 1_555
Li2 N18 2.121690 1_555
Li3 N15 2.051334 1_565
Li3 N19 2.121690 1_554
Li4 N8 2.051334 1_565
Li4 N20 2.121690 1_555
Li5 N9 2.051334 1_555
Li5 N21 2.121690 1_554
Li6 N10 2.051334 1_555
Li6 N22 2.121690 1_555
Li7 N11 2.051334 1_545
Li7 N23 2.121690 1_556
N0 Ta0 1.911590 1_555
N0 Sr15 2.696017 1_555
N0 Sr3 2.725148 1_655
N0 Sr0 2.751059 1_545
N0 Sr5 2.759589 1_555
N0 Sr3 2.995040 1_555
N1 Ta1 1.911590 1_555
N1 Sr14 2.696017 1_555
N1 Sr2 2.725148 1_455
N1 Sr1 2.751059 1_555
N1 Sr4 2.759589 1_555
N1 Sr2 2.995040 1_555
N2 Ta2 1.911590 1_555
N2 Sr13 2.696017 1_555
N2 Sr1 2.725148 1_555
N2 Sr2 2.751059 1_555
N2 Sr7 2.759589 1_555
N2 Sr1 2.995040 1_655
N3 Ta3 1.911590 1_555
N3 Sr12 2.696017 1_555
N3 Sr0 2.725148 1_555
N3 Sr3 2.751059 1_565
N3 Sr6 2.759589 1_555
N3 Sr0 2.995040 1_455
N4 Ta4 1.911590 1_555
N4 Sr11 2.696017 1_555
N4 Sr7 2.725148 1_455
N4 Sr4 2.751059 1_565
N4 Sr1 2.759589 1_555
N4 Sr7 2.995040 1_555
N5 Ta5 1.911590 1_555
N5 Sr10 2.696017 1_555
N5 Sr6 2.725148 1_655
N5 Sr5 2.751059 1_555
N5 Sr0 2.759589 1_555
N5 Sr6 2.995040 1_555
N6 Ta6 1.911590 1_555
N6 Sr9 2.696017 1_555
N6 Sr5 2.725148 1_555
N6 Sr6 2.751059 1_555
N6 Sr3 2.759589 1_555
N6 Sr5 2.995040 1_455
N7 Ta7 1.911590 1_555
N7 Sr8 2.696017 1_555
N7 Sr4 2.725148 1_555
N7 Sr7 2.751059 1_545
N7 Sr2 2.759589 1_555
N7 Sr4 2.995040 1_655
N8 Ta0 1.922022 1_555
N8 Sr8 2.607565 1_555
N8 Sr12 2.636139 1_545
N8 Sr0 2.666502 1_545
N8 Sr12 3.115399 1_645
N9 Ta1 1.922022 1_555
N9 Sr9 2.607565 1_554
N9 Sr13 2.636139 1_555
N9 Sr1 2.666502 1_555
N9 Sr13 3.115399 1_455
N10 Ta2 1.922022 1_555
N10 Sr10 2.607565 1_555
N10 Sr14 2.636139 1_655
N10 Sr2 2.666502 1_555
N10 Sr14 3.115399 1_555
N11 Ta3 1.922022 1_555
N11 Sr11 2.607565 1_556
N11 Sr15 2.636139 1_465
N11 Sr3 2.666502 1_565
N11 Sr15 3.115399 1_565
N12 Ta4 1.922022 1_555
N12 Sr12 2.607565 1_555
N12 Sr8 2.636139 1_565
N12 Sr4 2.666502 1_565
N12 Sr8 3.115399 1_465
N13 Ta5 1.922022 1_555
N13 Sr13 2.607565 1_556
N13 Sr9 2.636139 1_555
N13 Sr5 2.666502 1_555
N13 Sr9 3.115399 1_655
N14 Ta6 1.922022 1_555
N14 Sr14 2.607565 1_555
N14 Sr10 2.636139 1_455
N14 Sr6 2.666502 1_555
N14 Sr10 3.115399 1_555
N15 Ta7 1.922022 1_555
N15 Sr15 2.607565 1_554
N15 Sr11 2.636139 1_645
N15 Sr7 2.666502 1_545
N15 Sr11 3.115399 1_545
N16 Ta0 1.979593 1_455
N16 Ta6 2.013426 1_555
N16 Sr12 2.605595 1_545
N16 Sr3 2.868307 1_555
N17 Ta1 1.979593 1_655
N17 Ta7 2.013426 1_555
N17 Sr13 2.605595 1_555
N17 Sr2 2.868307 1_555
N18 Ta2 1.979593 1_555
N18 Ta4 2.013426 1_555
N18 Sr14 2.605595 1_555
N18 Sr1 2.868307 1_555
N19 Ta3 1.979593 1_555
N19 Ta5 2.013426 1_555
N19 Sr15 2.605595 1_565
N19 Sr0 2.868307 1_555
N20 Ta4 1.979593 1_655
N20 Ta2 2.013426 1_555
N20 Sr8 2.605595 1_565
N20 Sr7 2.868307 1_555
N21 Ta5 1.979593 1_455
N21 Ta3 2.013426 1_555
N21 Sr9 2.605595 1_555
N21 Sr6 2.868307 1_555
N22 Ta6 1.979593 1_555
N22 Ta0 2.013426 1_555
N22 Sr10 2.605595 1_555
N22 Sr5 2.868307 1_555
N23 Ta7 1.979593 1_555
N23 Ta1 2.013426 1_555
N23 Sr11 2.605595 1_545
N23 Sr4 2.868307 1_555
F0 Li0 1.900958 1_655
F0 Li6 1.944682 1_555
F0 Sr8 2.530937 1_555
F0 Sr14 2.601136 1_655
F0 Sr4 2.848679 1_655
F0 Sr2 2.850183 1_555
F1 Li1 1.900958 1_455
F1 Li7 1.944682 1_555
F1 Sr9 2.530937 1_555
F1 Sr15 2.601136 1_455
F1 Sr5 2.848679 1_455
F1 Sr3 2.850183 1_555
F2 Li2 1.900958 1_555
F2 Li4 1.944682 1_555
F2 Sr10 2.530937 1_555
F2 Sr12 2.601136 1_555
F2 Sr6 2.848679 1_555
F2 Sr0 2.850183 1_555
F3 Li3 1.900958 1_555
F3 Li5 1.944682 1_555
F3 Sr11 2.530937 1_555
F3 Sr13 2.601136 1_555
F3 Sr7 2.848679 1_555
F3 Sr1 2.850183 1_555
F4 Li4 1.900958 1_455
F4 Li2 1.944682 1_555
F4 Sr12 2.530937 1_555
F4 Sr10 2.601136 1_455
F4 Sr0 2.848679 1_455
F4 Sr6 2.850183 1_555
F5 Li5 1.900958 1_655
F5 Li3 1.944682 1_555
F5 Sr13 2.530937 1_555
F5 Sr11 2.601136 1_655
F5 Sr1 2.848679 1_655
F5 Sr7 2.850183 1_555
F6 Li6 1.900958 1_555
F6 Li0 1.944682 1_555
F6 Sr14 2.530937 1_555
F6 Sr8 2.601136 1_555
F6 Sr2 2.848679 1_555
F6 Sr4 2.850183 1_555
F7 Li7 1.900958 1_555
F7 Li1 1.944682 1_555
F7 Sr15 2.530937 1_555
F7 Sr9 2.601136 1_555
F7 Sr3 2.848679 1_555
F7 Sr5 2.850183 1_555
