# generated using pymatgen
data_LaTcN3
_symmetry_space_group_name_H-M   'P 1'
_cell_length_a   7.38744935
_cell_length_b   7.38744935
_cell_length_c   6.19209875
_cell_angle_alpha   77.48969471
_cell_angle_beta   77.48969471
_cell_angle_gamma   87.60435925
_symmetry_Int_Tables_number   1
_chemical_formula_structural   LaTcN3
_chemical_formula_sum   'La4 Tc4 N12'
_cell_volume   322.06906338
_cell_formula_units_Z   4
loop_
 _symmetry_equiv_pos_site_id
 _symmetry_equiv_pos_as_xyz
  1  'x, y, z'
loop_
 _atom_site_type_symbol
 _atom_site_label
 _atom_site_symmetry_multiplicity
 _atom_site_fract_x
 _atom_site_fract_y
 _atom_site_fract_z
 _atom_site_occupancy
  La  La0  1  0.90456924  0.09543076  0.25000000  1
  La  La1  1  0.32516903  0.67483097  0.25000000  1
  La  La2  1  0.67483097  0.32516903  0.75000000  1
  La  La3  1  0.09543076  0.90456924  0.75000000  1
  Tc  Tc0  1  0.79940227  0.61890080  0.24758735  1
  Tc  Tc1  1  0.38109920  0.20059773  0.25241265  1
  Tc  Tc2  1  0.61890080  0.79940227  0.74758735  1
  Tc  Tc3  1  0.20059773  0.38109920  0.75241265  1
  N  N0  1  0.76721355  -0.00275984  0.66166074  1
  N  N1  1  0.38629581  0.85733259  0.85665260  1
  N  N2  1  0.67184613  0.63768320  0.00745670  1
  N  N3  1  -0.00275984  0.76721355  0.16166074  1
  N  N4  1  0.14266741  0.61370419  0.64334740  1
  N  N5  1  0.63768320  0.67184613  0.50745670  1
  N  N6  1  0.36231680  0.32815387  0.49254330  1
  N  N7  1  0.61370419  0.14266741  0.14334740  1
  N  N8  1  0.85733259  0.38629581  0.35665260  1
  N  N9  1  0.32815387  0.36231680  0.99254330  1
  N  N10  1  0.23278645  0.00275984  0.33833926  1
  N  N11  1  0.00275984  0.23278645  0.83833926  1
loop_
_geom_bond_atom_site_label_1
_geom_bond_atom_site_label_2
_geom_bond_distance
_geom_bond_site_symmetry_2
La0 N8 2.372189 1_555
La0 N7 2.372189 1_555
La0 N0 2.488643 1_555
La0 N11 2.488643 1_654
La0 N3 2.630703 1_645
La0 N10 2.630703 1_655
La1 N4 2.470982 1_555
La1 N1 2.470982 1_554
La1 N10 2.628292 1_565
La1 N3 2.628292 1_555
La1 N6 2.709861 1_555
La1 N2 2.709861 1_555
La1 N5 3.073595 1_555
La1 N9 3.073595 1_554
La2 N7 2.470982 1_556
La2 N8 2.470982 1_555
La2 N11 2.628292 1_655
La2 N0 2.628292 1_555
La2 N9 2.709861 1_555
La2 N5 2.709861 1_555
La2 N2 3.073595 1_556
La2 N6 3.073595 1_555
La3 N1 2.372189 1_555
La3 N4 2.372189 1_555
La3 N10 2.488643 1_565
La3 N3 2.488643 1_556
La3 N0 2.630703 1_465
La3 N11 2.630703 1_565
N0 Tc2 1.778765 1_545
N1 Tc2 1.775659 1_555
N2 Tc2 1.889535 1_554
N2 Tc0 1.903897 1_555
N3 Tc0 1.778765 1_455
N4 Tc3 1.775659 1_555
N5 Tc0 1.889535 1_555
N5 Tc2 1.903897 1_555
N6 Tc3 1.889535 1_555
N6 Tc1 1.903897 1_555
N7 Tc1 1.775659 1_555
N8 Tc0 1.775659 1_555
N9 Tc1 1.889535 1_556
N9 Tc3 1.903897 1_555
N10 Tc1 1.778765 1_555
N11 Tc3 1.778765 1_555
