# generated using pymatgen
data_SmDyIn2
_symmetry_space_group_name_H-M   'P 1'
_cell_length_a   5.34289598
_cell_length_b   5.34289745
_cell_length_c   5.34289598
_cell_angle_alpha   60.00000911
_cell_angle_beta   59.99999089
_cell_angle_gamma   59.99998179
_symmetry_Int_Tables_number   1
_chemical_formula_structural   SmDyIn2
_chemical_formula_sum   'Sm1 Dy1 In2'
_cell_volume   107.84877576
_cell_formula_units_Z   1
loop_
 _symmetry_equiv_pos_site_id
 _symmetry_equiv_pos_as_xyz
  1  'x, y, z'
loop_
 _atom_site_type_symbol
 _atom_site_label
 _atom_site_symmetry_multiplicity
 _atom_site_fract_x
 _atom_site_fract_y
 _atom_site_fract_z
 _atom_site_occupancy
  Sm  Sm0  1  0.75000000  0.75000000  0.75000000  1
  Dy  Dy0  1  0.25000000  0.25000000  0.25000000  1
  In  In0  1  -0.00000000  -0.00000000  0.00000000  1
  In  In1  1  0.50000000  0.50000000  0.50000000  1
loop_
_geom_bond_atom_site_label_1
_geom_bond_atom_site_label_2
_geom_bond_distance
_geom_bond_site_symmetry_2
Dy0 In1 3.271841 1_455
Dy0 In0 3.271841 1_655
Dy0 In1 3.271842 1_554
Dy0 In0 3.271842 1_556
Dy0 In1 3.271843 1_555
Dy0 In0 3.271843 1_555
Dy0 In1 3.271843 1_545
Dy0 In0 3.271843 1_565
In0 Sm0 3.271841 1_544
In0 Sm0 3.271842 1_445
In0 Sm0 3.271843 1_444
In0 Sm0 3.271843 1_454
In1 Sm0 3.271841 1_455
In1 Sm0 3.271842 1_554
In1 Sm0 3.271843 1_555
In1 Sm0 3.271843 1_545
