# generated using pymatgen
data_SmNiC2
_symmetry_space_group_name_H-M   'P 1'
_cell_length_a   3.77009511
_cell_length_b   3.77009511
_cell_length_c   3.75467334
_cell_angle_alpha   90.00000000
_cell_angle_beta   90.00000000
_cell_angle_gamma   106.71229392
_symmetry_Int_Tables_number   1
_chemical_formula_structural   SmNiC2
_chemical_formula_sum   'Sm1 Ni1 C2'
_cell_volume   51.11328998
_cell_formula_units_Z   1
loop_
 _symmetry_equiv_pos_site_id
 _symmetry_equiv_pos_as_xyz
  1  'x, y, z'
loop_
 _atom_site_type_symbol
 _atom_site_label
 _atom_site_symmetry_multiplicity
 _atom_site_fract_x
 _atom_site_fract_y
 _atom_site_fract_z
 _atom_site_occupancy
  Sm  Sm0  1  0.00040107  0.99959893  -0.00000000  1
  Ni  Ni0  1  0.61135756  0.38864244  0.50000000  1
  C  C0  1  0.45310424  0.84986286  0.50000000  1
  C  C1  1  0.15013714  0.54689576  0.50000000  1
loop_
_geom_bond_atom_site_label_1
_geom_bond_atom_site_label_2
_geom_bond_distance
_geom_bond_site_symmetry_2
C0 C1 1.363437 1_555
C0 Ni0 1.945492 1_565
C0 Ni0 1.994046 1_555
C0 Sm0 2.703728 1_556
C0 Sm0 2.703728 1_555
C0 Sm0 2.725916 1_655
C0 Sm0 2.725916 1_656
C1 Ni0 1.945492 1_455
C1 Ni0 1.994046 1_555
C1 Sm0 2.703728 1_556
C1 Sm0 2.703728 1_555
C1 Sm0 2.725916 1_545
C1 Sm0 2.725916 1_546
