# generated using pymatgen
data_SbPH4(O2F3)2
_symmetry_space_group_name_H-M   'P 1'
_cell_length_a   5.17117075
_cell_length_b   5.17117075
_cell_length_c   14.31610721
_cell_angle_alpha   86.27013050
_cell_angle_beta   86.27013050
_cell_angle_gamma   98.08876811
_symmetry_Int_Tables_number   1
_chemical_formula_structural   SbPH4(O2F3)2
_chemical_formula_sum   'Sb2 P2 H8 O8 F12'
_cell_volume   377.14727123
_cell_formula_units_Z   2
loop_
 _symmetry_equiv_pos_site_id
 _symmetry_equiv_pos_as_xyz
  1  'x, y, z'
loop_
 _atom_site_type_symbol
 _atom_site_label
 _atom_site_symmetry_multiplicity
 _atom_site_fract_x
 _atom_site_fract_y
 _atom_site_fract_z
 _atom_site_occupancy
  Sb  Sb0  1  0.50000000  0.50000000  0.50000000  1
  Sb  Sb1  1  0.50000000  0.50000000  0.00000000  1
  P  P0  1  0.87498800  0.12501200  0.75000000  1
  P  P1  1  0.12501200  0.87498800  0.25000000  1
  H  H0  1  0.91368800  0.00239500  0.60647800  1
  H  H1  1  0.99760500  0.08631200  0.89352200  1
  H  H2  1  0.08631200  0.99760500  0.39352200  1
  H  H3  1  0.00239500  0.91368800  0.10647800  1
  H  H4  1  0.49586300  0.90288400  0.80312700  1
  H  H5  1  0.09711600  0.50413700  0.69687300  1
  H  H6  1  0.50413700  0.09711600  0.19687300  1
  H  H7  1  0.90288400  0.49586300  0.30312700  1
  O  O0  1  0.99274900  0.98738700  0.66699600  1
  O  O1  1  0.01261300  0.00725100  0.83300400  1
  O  O2  1  0.00725100  0.01261300  0.33300400  1
  O  O3  1  0.98738700  0.99274900  0.16699600  1
  O  O4  1  0.57187700  0.06902200  0.76602500  1
  O  O5  1  0.93097800  0.42812300  0.73397500  1
  O  O6  1  0.42812300  0.93097800  0.23397500  1
  O  O7  1  0.06902200  0.57187700  0.26602500  1
  F  F0  1  0.37568700  0.58921500  0.62315700  1
  F  F1  1  0.41078500  0.62431300  0.87684300  1
  F  F2  1  0.62431300  0.41078500  0.37684300  1
  F  F3  1  0.58921500  0.37568700  0.12315700  1
  F  F4  1  0.62206000  0.20000700  0.55747000  1
  F  F5  1  0.79999300  0.37794000  0.94253000  1
  F  F6  1  0.37794000  0.79999300  0.44253000  1
  F  F7  1  0.20000700  0.62206000  0.05747000  1
  F  F8  1  0.16903700  0.29226700  0.48596700  1
  F  F9  1  0.70773300  0.83096300  0.01403300  1
  F  F10  1  0.83096300  0.70773300  0.51403300  1
  F  F11  1  0.29226700  0.16903700  0.98596700  1
loop_
_geom_bond_atom_site_label_1
_geom_bond_atom_site_label_2
_geom_bond_distance
_geom_bond_site_symmetry_2
H0 O0 0.984914 1_545
H1 O1 0.984914 1_655
H2 O2 0.984914 1_565
H3 O3 0.984914 1_455
H4 O4 0.996579 1_565
H5 O5 0.996579 1_455
H6 O6 0.996579 1_545
H7 O7 0.996579 1_655
O0 P0 1.557951 1_565
O1 P0 1.557951 1_455
O2 P1 1.557951 1_545
O3 P1 1.557951 1_655
O4 P0 1.552477 1_555
O5 P0 1.552477 1_555
O6 P1 1.552477 1_555
O7 P1 1.552477 1_555
F0 Sb0 1.943331 1_555
F1 Sb1 1.943331 1_556
F2 Sb0 1.943331 1_555
F3 Sb1 1.943331 1_555
F4 Sb0 1.912840 1_555
F5 Sb1 1.912840 1_556
F6 Sb0 1.912840 1_555
F7 Sb1 1.912840 1_555
F8 Sb0 1.918036 1_555
F9 Sb1 1.918036 1_555
F10 Sb0 1.918036 1_555
F11 Sb1 1.918036 1_556
