# generated using pymatgen
data_K2H4Pt
_symmetry_space_group_name_H-M   'P 1'
_cell_length_a   5.57794204
_cell_length_b   5.57794204
_cell_length_c   8.11163913
_cell_angle_alpha   90.00000000
_cell_angle_beta   90.00000000
_cell_angle_gamma   90.00000000
_symmetry_Int_Tables_number   1
_chemical_formula_structural   K2H4Pt
_chemical_formula_sum   'K4 H8 Pt2'
_cell_volume   252.38097630
_cell_formula_units_Z   2
loop_
 _symmetry_equiv_pos_site_id
 _symmetry_equiv_pos_as_xyz
  1  'x, y, z'
loop_
 _atom_site_type_symbol
 _atom_site_label
 _atom_site_symmetry_multiplicity
 _atom_site_fract_x
 _atom_site_fract_y
 _atom_site_fract_z
 _atom_site_occupancy
  K  K0  1  0.49999900  0.00000000  0.25000000  1
  K  K1  1  -0.00000000  0.49999900  0.25000000  1
  K  K2  1  0.49999900  -0.00000000  0.75000000  1
  K  K3  1  0.00000000  0.49999900  0.75000000  1
  H  H0  1  0.20920683  0.20920683  -0.00000000  1
  H  H1  1  0.79079317  0.79079317  -0.00000000  1
  H  H2  1  -0.00000000  -0.00000000  0.20328518  1
  H  H3  1  0.49999900  0.49999900  0.29671482  1
  H  H4  1  0.70920783  0.29079217  0.50000000  1
  H  H5  1  0.29079217  0.70920783  0.50000000  1
  H  H6  1  0.49999900  0.49999900  0.70328518  1
  H  H7  1  -0.00000000  -0.00000000  0.79671482  1
  Pt  Pt0  1  -0.00000000  0.00000000  0.00000000  1
  Pt  Pt1  1  0.49999900  0.49999900  0.50000000  1
loop_
_geom_bond_atom_site_label_1
_geom_bond_atom_site_label_2
_geom_bond_distance
_geom_bond_site_symmetry_2
H0 Pt0 1.650307 1_555
H0 K0 2.846951 1_555
H0 K3 2.846951 1_554
H0 K1 2.846951 1_555
H0 K2 2.846951 1_554
H1 Pt0 1.650307 1_665
H1 K0 2.846957 1_565
H1 K1 2.846957 1_655
H1 K3 2.846957 1_654
H1 K2 2.846957 1_564
H2 Pt0 1.648976 1_555
H2 K1 2.814590 1_555
H2 K0 2.814590 1_555
H2 K1 2.814601 1_545
H2 K0 2.814601 1_455
H3 Pt1 1.648976 1_555
H3 K1 2.814590 1_555
H3 K0 2.814590 1_555
H3 K0 2.814601 1_565
H3 K1 2.814601 1_655
H4 Pt1 1.650315 1_555
H4 K3 2.846951 1_655
H4 K1 2.846951 1_655
H4 K2 2.846956 1_555
H4 K0 2.846956 1_555
H5 Pt1 1.650315 1_555
H5 K2 2.846951 1_565
H5 K0 2.846951 1_565
H5 K1 2.846956 1_555
H5 K3 2.846956 1_555
H6 Pt1 1.648976 1_555
H6 K2 2.814590 1_555
H6 K3 2.814590 1_555
H6 K2 2.814601 1_565
H6 K3 2.814601 1_655
H7 Pt0 1.648976 1_556
H7 K2 2.814590 1_555
H7 K3 2.814590 1_555
H7 K2 2.814601 1_455
H7 K3 2.814601 1_545
