# generated using pymatgen
data_Sm3Ho
_symmetry_space_group_name_H-M   'P 1'
_cell_length_a   6.22532374
_cell_length_b   6.22532374
_cell_length_c   6.22532374
_cell_angle_alpha   131.52256077
_cell_angle_beta   131.52256077
_cell_angle_gamma   70.98414360
_symmetry_Int_Tables_number   1
_chemical_formula_structural   Sm3Ho
_chemical_formula_sum   'Sm3 Ho1'
_cell_volume   132.42935381
_cell_formula_units_Z   1
loop_
 _symmetry_equiv_pos_site_id
 _symmetry_equiv_pos_as_xyz
  1  'x, y, z'
loop_
 _atom_site_type_symbol
 _atom_site_label
 _atom_site_symmetry_multiplicity
 _atom_site_fract_x
 _atom_site_fract_y
 _atom_site_fract_z
 _atom_site_occupancy
  Sm  Sm0  1  0.75000200  0.25000000  0.50000100  1
  Sm  Sm1  1  0.25000000  0.75000200  0.50000100  1
  Sm  Sm2  1  0.50000000  0.50000000  0.00000000  1
  Ho  Ho0  1  -0.00000000  0.00000000  0.00000000  1
loop_
_geom_bond_atom_site_label_1
_geom_bond_atom_site_label_2
_geom_bond_distance
_geom_bond_site_symmetry_2
Sm0 Sm2 3.599236 1_656
Sm0 Sm2 3.599247 1_545
Sm0 Sm2 3.599247 1_555
Sm0 Sm2 3.599251 1_556
Sm0 Sm1 3.614348 1_645
Sm0 Sm1 3.614363 1_656
Sm0 Sm1 3.614363 1_544
Sm0 Sm1 3.614377 1_555
Sm1 Sm2 3.599236 1_566
Sm1 Sm2 3.599247 1_455
Sm1 Sm2 3.599247 1_555
Sm1 Sm2 3.599251 1_556
Ho0 Sm0 3.599240 1_455
Ho0 Sm1 3.599240 1_545
Ho0 Sm1 3.599244 1_544
Ho0 Sm0 3.599244 1_454
Ho0 Sm0 3.599244 1_444
Ho0 Sm1 3.599244 1_444
Ho0 Sm1 3.599255 1_555
Ho0 Sm0 3.599255 1_555
Ho0 Sm2 3.614363 1_455
Ho0 Sm2 3.614363 1_556
Ho0 Sm2 3.614363 1_545
Ho0 Sm2 3.614363 1_444
