# generated using pymatgen
data_ScFeGe
_symmetry_space_group_name_H-M   'P 1'
_cell_length_a   6.58513716
_cell_length_b   6.58526444
_cell_length_c   3.95167433
_cell_angle_alpha   90.00000000
_cell_angle_beta   90.00000000
_cell_angle_gamma   119.99833628
_symmetry_Int_Tables_number   1
_chemical_formula_structural   ScFeGe
_chemical_formula_sum   'Sc3 Fe3 Ge3'
_cell_volume   148.40792822
_cell_formula_units_Z   3
loop_
 _symmetry_equiv_pos_site_id
 _symmetry_equiv_pos_as_xyz
  1  'x, y, z'
loop_
 _atom_site_type_symbol
 _atom_site_label
 _atom_site_symmetry_multiplicity
 _atom_site_fract_x
 _atom_site_fract_y
 _atom_site_fract_z
 _atom_site_occupancy
  Sc  Sc0  1  0.58396357  -0.00001110  0.50000000  1
  Sc  Sc1  1  0.41602525  0.41599458  0.50000000  1
  Sc  Sc2  1  0.00001936  0.58403453  0.50000000  1
  Fe  Fe0  1  0.22948771  0.99999351  0.00000000  1
  Fe  Fe1  1  0.77050879  0.77050871  0.00000000  1
  Fe  Fe2  1  0.99999359  0.22947267  0.00000000  1
  Ge  Ge0  1  0.99999321  0.00000031  0.50000000  1
  Ge  Ge1  1  0.33333563  0.66666643  0.00000000  1
  Ge  Ge2  1  0.66667290  0.33333936  0.00000000  1
loop_
_geom_bond_atom_site_label_1
_geom_bond_atom_site_label_2
_geom_bond_distance
_geom_bond_site_symmetry_2
Fe0 Ge0 2.487546 1_464
Fe0 Ge0 2.487546 1_465
Fe0 Ge1 2.605168 1_555
Fe0 Ge2 2.605296 1_565
Fe0 Fe2 2.617480 1_465
Fe0 Fe1 2.617553 1_455
Fe0 Sc0 3.058240 1_565
Fe0 Sc0 3.058240 1_564
Fe0 Sc2 3.090561 1_554
Fe0 Sc2 3.090561 1_555
Fe0 Sc1 3.090734 1_565
Fe0 Sc1 3.090734 1_564
Fe1 Ge0 2.487538 1_565
Fe1 Ge0 2.487538 1_564
Fe1 Ge1 2.605155 1_555
Fe1 Ge2 2.605201 1_555
Fe1 Fe2 2.617518 1_565
Fe1 Sc1 3.058406 1_554
Fe1 Sc1 3.058406 1_555
Fe1 Sc2 3.090615 1_654
Fe1 Sc2 3.090615 1_655
Fe1 Sc0 3.090783 1_564
Fe1 Sc0 3.090783 1_565
Fe2 Ge0 2.487461 1_555
Fe2 Ge0 2.487461 1_554
Fe2 Ge2 2.605179 1_555
Fe2 Ge1 2.605353 1_655
Fe2 Sc2 3.058630 1_655
Fe2 Sc2 3.058630 1_654
Fe2 Sc0 3.090834 1_555
Fe2 Sc0 3.090834 1_554
Fe2 Sc1 3.090840 1_654
Fe2 Sc1 3.090840 1_655
Ge0 Sc2 2.739331 1_645
Ge0 Sc0 2.739575 1_555
Ge0 Sc1 2.739599 1_655
Ge1 Sc0 2.797034 1_564
Ge1 Sc0 2.797034 1_565
Ge1 Sc2 2.797043 1_554
Ge1 Sc2 2.797043 1_555
Ge1 Sc1 2.797177 1_554
Ge1 Sc1 2.797177 1_555
Ge2 Sc1 2.796940 1_554
Ge2 Sc1 2.796940 1_555
Ge2 Sc0 2.797128 1_555
Ge2 Sc0 2.797128 1_554
Ge2 Sc2 2.797184 1_654
Ge2 Sc2 2.797184 1_655
