# generated using pymatgen
data_V2Se2O11
_symmetry_space_group_name_H-M   'P 1'
_cell_length_a   8.20297183
_cell_length_b   8.20297183
_cell_length_c   9.73636876
_cell_angle_alpha   69.39895328
_cell_angle_beta   69.39895328
_cell_angle_gamma   39.61487392
_symmetry_Int_Tables_number   1
_chemical_formula_structural   V2Se2O11
_chemical_formula_sum   'V4 Se4 O22'
_cell_volume   387.42486545
_cell_formula_units_Z   2
loop_
 _symmetry_equiv_pos_site_id
 _symmetry_equiv_pos_as_xyz
  1  'x, y, z'
loop_
 _atom_site_type_symbol
 _atom_site_label
 _atom_site_symmetry_multiplicity
 _atom_site_fract_x
 _atom_site_fract_y
 _atom_site_fract_z
 _atom_site_occupancy
  V  V0  1  0.20767424  0.03545613  0.70790403  1
  V  V1  1  0.96454387  0.79232576  0.79209597  1
  V  V2  1  0.79232576  0.96454387  0.29209597  1
  V  V3  1  0.03545613  0.20767424  0.20790403  1
  Se  Se0  1  0.77558171  0.51713995  0.90107457  1
  Se  Se1  1  0.48286005  0.22441829  0.59892543  1
  Se  Se2  1  0.22441829  0.48286005  0.09892543  1
  Se  Se3  1  0.51713995  0.77558171  0.40107457  1
  O  O0  1  0.89137404  0.10862596  0.25000000  1
  O  O1  1  0.10862596  0.89137404  0.75000000  1
  O  O2  1  0.04049361  0.26846959  0.58329811  1
  O  O3  1  0.73153041  0.95950639  0.91670189  1
  O  O4  1  0.95950639  0.73153041  0.41670189  1
  O  O5  1  0.26846959  0.04049361  0.08329811  1
  O  O6  1  0.77811369  0.51540156  0.07215498  1
  O  O7  1  0.48459844  0.22188631  0.42784502  1
  O  O8  1  0.22188631  0.48459844  0.92784502  1
  O  O9  1  0.51540156  0.77811369  0.57215498  1
  O  O10  1  0.97699511  0.21059956  0.88258422  1
  O  O11  1  0.78940044  0.02300489  0.61741578  1
  O  O12  1  0.02300489  0.78940044  0.11741578  1
  O  O13  1  0.21059956  0.97699511  0.38258422  1
  O  O14  1  0.90334555  0.60776670  0.77794235  1
  O  O15  1  0.39223330  0.09665445  0.72205765  1
  O  O16  1  0.09665445  0.39223330  0.22205765  1
  O  O17  1  0.60776670  0.90334555  0.27794235  1
  O  O18  1  0.48738307  0.69337433  0.87639490  1
  O  O19  1  0.30662567  0.51261693  0.62360510  1
  O  O20  1  0.51261693  0.30662567  0.12360510  1
  O  O21  1  0.69337433  0.48738307  0.37639490  1
loop_
_geom_bond_atom_site_label_1
_geom_bond_atom_site_label_2
_geom_bond_distance
_geom_bond_site_symmetry_2
O0 V2 1.768979 1_545
O0 V3 1.768979 1_655
O1 V1 1.768979 1_455
O1 V0 1.768979 1_565
O2 V0 1.583164 1_555
O3 V1 1.583164 1_555
O4 V2 1.583164 1_555
O5 V3 1.583164 1_555
O6 Se0 1.668044 1_554
O6 V3 1.995192 1_655
O7 Se1 1.668044 1_555
O7 V2 1.995192 1_545
O8 Se2 1.668044 1_556
O8 V1 1.995192 1_455
O9 Se3 1.668044 1_555
O9 V0 1.995192 1_565
O10 Se0 1.671375 1_555
O10 V0 1.950260 1_655
O11 Se1 1.671375 1_555
O11 V1 1.950260 1_545
O12 Se2 1.671375 1_555
O12 V2 1.950260 1_455
O13 Se3 1.671375 1_555
O13 V3 1.950260 1_565
O14 Se0 1.666534 1_555
O14 V1 1.982279 1_555
O15 Se1 1.666534 1_555
O15 V0 1.982279 1_555
O16 Se2 1.666534 1_555
O16 V3 1.982279 1_555
O17 Se3 1.666534 1_555
O17 V2 1.982279 1_555
O18 Se0 1.620589 1_555
O18 V0 2.306407 1_565
O19 Se1 1.620589 1_555
O19 V1 2.306407 1_455
O20 Se2 1.620589 1_555
O20 V2 2.306407 1_545
O21 Se3 1.620589 1_555
O21 V3 2.306407 1_655
