# generated using pymatgen
data_ZrScOs2
_symmetry_space_group_name_H-M   'P 1'
_cell_length_a   4.58146744
_cell_length_b   4.58146742
_cell_length_c   4.58146750
_cell_angle_alpha   59.99997728
_cell_angle_beta   59.99997805
_cell_angle_gamma   59.99997891
_symmetry_Int_Tables_number   1
_chemical_formula_structural   ZrScOs2
_chemical_formula_sum   'Zr1 Sc1 Os2'
_cell_volume   67.99838579
_cell_formula_units_Z   1
loop_
 _symmetry_equiv_pos_site_id
 _symmetry_equiv_pos_as_xyz
  1  'x, y, z'
loop_
 _atom_site_type_symbol
 _atom_site_label
 _atom_site_symmetry_multiplicity
 _atom_site_fract_x
 _atom_site_fract_y
 _atom_site_fract_z
 _atom_site_occupancy
  Zr  Zr0  1  0.74999928  0.74999929  0.74999929  1
  Sc  Sc0  1  0.24999997  0.24999999  0.24999999  1
  Os  Os0  1  0.00000004  0.00000003  0.00000002  1
  Os  Os1  1  0.50000071  0.50000069  0.50000069  1
loop_
_geom_bond_atom_site_label_1
_geom_bond_atom_site_label_2
_geom_bond_distance
_geom_bond_site_symmetry_2
Os0 Zr0 2.805561 1_544
Os0 Zr0 2.805561 1_454
Os0 Zr0 2.805561 1_445
Os0 Sc0 2.805564 1_554
Os0 Sc0 2.805564 1_545
Os0 Sc0 2.805564 1_455
Os0 Sc0 2.805564 1_555
Os0 Zr0 2.805573 1_444
Os1 Zr0 2.805549 1_555
Os1 Sc0 2.805561 1_655
Os1 Sc0 2.805561 1_565
Os1 Sc0 2.805561 1_556
Os1 Zr0 2.805569 1_545
Os1 Zr0 2.805569 1_554
Os1 Zr0 2.805569 1_455
Os1 Sc0 2.805573 1_555
