# generated using pymatgen
data_TbNi
_symmetry_space_group_name_H-M   'P 1'
_cell_length_a   3.72261276
_cell_length_b   4.20332662
_cell_length_c   5.39465066
_cell_angle_alpha   90.00000000
_cell_angle_beta   69.81648537
_cell_angle_gamma   90.00000000
_symmetry_Int_Tables_number   1
_chemical_formula_structural   TbNi
_chemical_formula_sum   'Tb2 Ni2'
_cell_volume   79.22848101
_cell_formula_units_Z   2
loop_
 _symmetry_equiv_pos_site_id
 _symmetry_equiv_pos_as_xyz
  1  'x, y, z'
loop_
 _atom_site_type_symbol
 _atom_site_label
 _atom_site_symmetry_multiplicity
 _atom_site_fract_x
 _atom_site_fract_y
 _atom_site_fract_z
 _atom_site_occupancy
  Tb  Tb0  1  0.13894307  0.75000000  0.72211386  1
  Tb  Tb1  1  0.86105693  0.25000000  0.27788614  1
  Ni  Ni0  1  0.42928942  0.75000000  0.14142116  1
  Ni  Ni1  1  0.57071058  0.25000000  0.85857884  1
loop_
_geom_bond_atom_site_label_1
_geom_bond_atom_site_label_2
_geom_bond_distance
_geom_bond_site_symmetry_2
Ni0 Ni1 2.543228 1_564
Ni0 Ni1 2.543228 1_554
Ni0 Tb0 2.823484 1_554
Ni0 Tb0 2.823484 1_654
Ni0 Tb1 2.891175 1_455
Ni0 Tb1 2.891175 1_465
Ni0 Tb1 2.891175 1_565
Ni0 Tb1 2.891175 1_555
Ni0 Tb0 2.940267 1_555
Ni1 Tb1 2.823484 1_456
Ni1 Tb1 2.823484 1_556
Ni1 Tb0 2.891175 1_555
Ni1 Tb0 2.891175 1_545
Ni1 Tb0 2.891175 1_645
Ni1 Tb0 2.891175 1_655
Ni1 Tb1 2.940267 1_555
