# generated using pymatgen
data_ErLu3
_symmetry_space_group_name_H-M   'P 1'
_cell_length_a   7.07042459
_cell_length_b   7.06977889
_cell_length_c   5.46473461
_cell_angle_alpha   90.00000000
_cell_angle_beta   90.00000000
_cell_angle_gamma   119.98482614
_symmetry_Int_Tables_number   1
_chemical_formula_structural   ErLu3
_chemical_formula_sum   'Er2 Lu6'
_cell_volume   236.60145834
_cell_formula_units_Z   2
loop_
 _symmetry_equiv_pos_site_id
 _symmetry_equiv_pos_as_xyz
  1  'x, y, z'
loop_
 _atom_site_type_symbol
 _atom_site_label
 _atom_site_symmetry_multiplicity
 _atom_site_fract_x
 _atom_site_fract_y
 _atom_site_fract_z
 _atom_site_occupancy
  Er  Er0  1  0.33332156  0.66667024  0.75000000  1
  Er  Er1  1  0.66667318  0.33331700  0.25000000  1
  Lu  Lu0  1  0.16616145  0.33253154  0.25000000  1
  Lu  Lu1  1  0.66744674  0.83380146  0.25000000  1
  Lu  Lu2  1  0.16623125  0.83376171  0.25000000  1
  Lu  Lu3  1  0.83383002  0.66752412  0.75000000  1
  Lu  Lu4  1  0.33256199  0.16621236  0.75000000  1
  Lu  Lu5  1  0.83377482  0.16617957  0.75000000  1
loop_
_geom_bond_atom_site_label_1
_geom_bond_atom_site_label_2
_geom_bond_distance
_geom_bond_site_symmetry_2
Er0 Lu2 3.413495 1_556
Er0 Lu2 3.413495 1_555
Er0 Lu0 3.413563 1_556
Er0 Lu0 3.413563 1_555
Er0 Lu1 3.413625 1_555
Er0 Lu1 3.413625 1_556
Er0 Lu4 3.534339 1_565
Er0 Lu3 3.534638 1_455
Er0 Lu4 3.535446 1_555
Er0 Lu5 3.535735 1_565
Er0 Lu3 3.535794 1_555
Er0 Lu5 3.535998 1_455
Er1 Lu4 3.413574 1_555
Er1 Lu4 3.413574 1_554
Er1 Lu5 3.413706 1_554
Er1 Lu5 3.413706 1_555
Er1 Lu3 3.413814 1_555
Er1 Lu3 3.413814 1_554
Er1 Lu1 3.534201 1_545
Er1 Lu0 3.534373 1_655
Er1 Lu1 3.535584 1_555
Er1 Lu2 3.535857 1_545
Er1 Lu2 3.535875 1_655
Er1 Lu0 3.536058 1_555
Lu0 Lu5 3.407254 1_455
Lu0 Lu5 3.407254 1_454
Lu0 Lu4 3.408138 1_555
Lu0 Lu4 3.408138 1_554
Lu0 Lu2 3.526439 1_545
Lu0 Lu1 3.526827 1_445
Lu0 Lu2 3.543340 1_555
Lu0 Lu1 3.544897 1_555
Lu1 Lu5 3.407112 1_565
Lu1 Lu5 3.407112 1_564
Lu1 Lu3 3.407921 1_555
Lu1 Lu3 3.407921 1_554
Lu1 Lu2 3.526759 1_655
Lu1 Lu2 3.543666 1_555
Lu2 Lu3 3.407307 1_455
Lu2 Lu3 3.407307 1_454
Lu2 Lu4 3.407377 1_565
Lu2 Lu4 3.407377 1_564
Lu3 Lu5 3.525579 1_565
Lu3 Lu4 3.526740 1_665
Lu3 Lu5 3.544200 1_555
Lu3 Lu4 3.544983 1_555
Lu4 Lu5 3.526521 1_455
Lu4 Lu5 3.543903 1_555
