# generated using pymatgen
data_Ni3Sb
_symmetry_space_group_name_H-M   'P 1'
_cell_length_a   3.69118709
_cell_length_b   3.69114216
_cell_length_c   3.69212079
_cell_angle_alpha   90.00006239
_cell_angle_beta   90.00003135
_cell_angle_gamma   90.00000000
_symmetry_Int_Tables_number   1
_chemical_formula_structural   Ni3Sb
_chemical_formula_sum   'Ni3 Sb1'
_cell_volume   50.30402442
_cell_formula_units_Z   1
loop_
 _symmetry_equiv_pos_site_id
 _symmetry_equiv_pos_as_xyz
  1  'x, y, z'
loop_
 _atom_site_type_symbol
 _atom_site_label
 _atom_site_symmetry_multiplicity
 _atom_site_fract_x
 _atom_site_fract_y
 _atom_site_fract_z
 _atom_site_occupancy
  Ni  Ni0  1  0.99999800  0.49999800  0.49999808  1
  Ni  Ni1  1  0.49999800  0.99999900  0.49999842  1
  Ni  Ni2  1  0.50000000  0.50000000  0.00000084  1
  Sb  Sb0  1  0.99999900  0.99999800  0.99999766  1
loop_
_geom_bond_atom_site_label_1
_geom_bond_atom_site_label_2
_geom_bond_distance
_geom_bond_site_symmetry_2
Ni0 Ni1 2.610045 1_645
Ni0 Ni1 2.610045 1_545
Ni0 Ni1 2.610050 1_655
Ni0 Ni1 2.610050 1_555
Ni0 Sb0 2.610375 1_555
Ni0 Sb0 2.610377 1_544
Ni0 Sb0 2.610378 1_545
Ni0 Sb0 2.610380 1_554
Ni0 Ni2 2.610380 1_555
Ni0 Ni2 2.610392 1_655
Ni0 Ni2 2.610396 1_556
Ni0 Ni2 2.610405 1_656
Ni1 Ni2 2.610367 1_555
Ni1 Ni2 2.610375 1_565
Ni1 Ni2 2.610383 1_556
Ni1 Ni2 2.610385 1_566
Ni1 Sb0 2.610390 1_455
Ni1 Sb0 2.610392 1_454
Ni1 Sb0 2.610393 1_555
Ni1 Sb0 2.610399 1_554
Ni2 Sb0 2.610040 1_554
Ni2 Sb0 2.610045 1_454
Ni2 Sb0 2.610050 1_544
Ni2 Sb0 2.610055 1_444
