# generated using pymatgen
data_Yb4As2O
_symmetry_space_group_name_H-M   'P 1'
_cell_length_a   4.25523998
_cell_length_b   4.25523998
_cell_length_c   8.40333216
_cell_angle_alpha   104.66622186
_cell_angle_beta   104.66622186
_cell_angle_gamma   90.00000000
_symmetry_Int_Tables_number   1
_chemical_formula_structural   Yb4As2O
_chemical_formula_sum   'Yb4 As2 O1'
_cell_volume   142.07121336
_cell_formula_units_Z   1
loop_
 _symmetry_equiv_pos_site_id
 _symmetry_equiv_pos_as_xyz
  1  'x, y, z'
loop_
 _atom_site_type_symbol
 _atom_site_label
 _atom_site_symmetry_multiplicity
 _atom_site_fract_x
 _atom_site_fract_y
 _atom_site_fract_z
 _atom_site_occupancy
  Yb  Yb0  1  0.81770608  0.81770608  0.63541217  1
  Yb  Yb1  1  0.18229392  0.18229392  0.36458783  1
  Yb  Yb2  1  0.00000000  0.50000000  0.00000000  1
  Yb  Yb3  1  0.50000000  0.00000000  0.00000000  1
  As  As0  1  0.63398202  0.63398202  0.26796404  1
  As  As1  1  0.36601798  0.36601798  0.73203596  1
  O  O0  1  0.00000000  0.00000000  0.00000000  1
loop_
_geom_bond_atom_site_label_1
_geom_bond_atom_site_label_2
_geom_bond_distance
_geom_bond_site_symmetry_2
As0 Yb0 2.883062 1_555
As0 Yb3 2.991194 1_555
As0 Yb2 2.991194 1_555
As0 Yb2 2.991194 1_655
As0 Yb3 2.991194 1_565
As0 Yb1 3.102949 1_665
As0 Yb1 3.102949 1_565
As0 Yb1 3.102949 1_655
As0 Yb1 3.102949 1_555
As1 Yb1 2.883062 1_555
As1 Yb3 2.991194 1_566
As1 Yb2 2.991194 1_656
As1 Yb2 2.991194 1_556
As1 Yb3 2.991194 1_556
As1 Yb0 3.102949 1_555
As1 Yb0 3.102949 1_445
As1 Yb0 3.102949 1_455
As1 Yb0 3.102949 1_545
O0 Yb3 2.127620 1_455
O0 Yb2 2.127620 1_555
O0 Yb2 2.127620 1_545
O0 Yb3 2.127620 1_555
O0 Yb1 2.860620 1_555
O0 Yb0 2.860620 1_444
