# generated using pymatgen
data_SnH16C4(NO4)3
_symmetry_space_group_name_H-M   'P 1'
_cell_length_a   8.10036900
_cell_length_b   11.57491000
_cell_length_c   16.08571300
_cell_angle_alpha   90.00000000
_cell_angle_beta   90.00000000
_cell_angle_gamma   90.00000000
_symmetry_Int_Tables_number   1
_chemical_formula_structural   SnH16C4(NO4)3
_chemical_formula_sum   'Sn4 H64 C16 N12 O48'
_cell_volume   1508.21321447
_cell_formula_units_Z   4
loop_
 _symmetry_equiv_pos_site_id
 _symmetry_equiv_pos_as_xyz
  1  'x, y, z'
loop_
 _atom_site_type_symbol
 _atom_site_label
 _atom_site_symmetry_multiplicity
 _atom_site_fract_x
 _atom_site_fract_y
 _atom_site_fract_z
 _atom_site_occupancy
  Sn  Sn0  1  0.54258000  0.03825500  0.24077300  1
  Sn  Sn1  1  0.04258000  0.46174500  0.75922700  1
  Sn  Sn2  1  0.45742000  0.53825500  0.25922700  1
  Sn  Sn3  1  0.95742000  0.96174500  0.74077300  1
  H  H0  1  0.48830700  0.07760100  0.01070900  1
  H  H1  1  0.98830700  0.42239900  0.98929100  1
  H  H2  1  0.51169300  0.57760100  0.48929100  1
  H  H3  1  0.01169300  0.92239900  0.51070900  1
  H  H4  1  0.40588400  0.10759000  0.92480200  1
  H  H5  1  0.90588400  0.39241000  0.07519800  1
  H  H6  1  0.59411600  0.60759000  0.57519800  1
  H  H7  1  0.09411600  0.89241000  0.42480200  1
  H  H8  1  0.15795900  0.96039900  0.16579600  1
  H  H9  1  0.65795900  0.53960100  0.83420400  1
  H  H10  1  0.84204100  0.46039900  0.33420400  1
  H  H11  1  0.34204100  0.03960100  0.66579600  1
  H  H12  1  0.96328100  0.96489800  0.16800000  1
  H  H13  1  0.46328100  0.53510200  0.83200000  1
  H  H14  1  0.03671900  0.46489800  0.33200000  1
  H  H15  1  0.53671900  0.03510200  0.66800000  1
  H  H16  1  0.96155900  0.09606200  0.42096000  1
  H  H17  1  0.46155900  0.40393800  0.57904000  1
  H  H18  1  0.03844100  0.59606200  0.07904000  1
  H  H19  1  0.53844100  0.90393800  0.92096000  1
  H  H20  1  0.02478500  0.23381000  0.40500100  1
  H  H21  1  0.52478500  0.26619000  0.59499900  1
  H  H22  1  0.97521500  0.73381000  0.09499900  1
  H  H23  1  0.47521500  0.76619000  0.90500100  1
  H  H24  1  0.83374600  0.20748200  0.44460900  1
  H  H25  1  0.33374600  0.29251700  0.55539100  1
  H  H26  1  0.16625400  0.70748300  0.05539100  1
  H  H27  1  0.66625400  0.79251700  0.94460900  1
  H  H28  1  0.86905300  0.17672000  0.34494300  1
  H  H29  1  0.36905300  0.32328000  0.65505700  1
  H  H30  1  0.13094700  0.67672000  0.15505700  1
  H  H31  1  0.63094700  0.82328000  0.84494300  1
  H  H32  1  0.10124800  0.28566700  0.15881100  1
  H  H33  1  0.60124800  0.21433300  0.84118900  1
  H  H34  1  0.89875200  0.78566700  0.34118900  1
  H  H35  1  0.39875200  0.71433300  0.65881100  1
  H  H36  1  0.26966100  0.20492400  0.17180800  1
  H  H37  1  0.76966100  0.29507600  0.82819200  1
  H  H38  1  0.73033900  0.70492400  0.32819200  1
  H  H39  1  0.23033900  0.79507600  0.67180800  1
  H  H40  1  0.29249500  0.34610100  0.14037900  1
  H  H41  1  0.79249500  0.15389900  0.85962100  1
  H  H42  1  0.70750500  0.84610100  0.35962100  1
  H  H43  1  0.20750500  0.65389900  0.64037900  1
  H  H44  1  0.20670400  0.24815200  0.07302300  1
  H  H45  1  0.70670400  0.25184800  0.92697700  1
  H  H46  1  0.79329600  0.74815200  0.42697700  1
  H  H47  1  0.29329600  0.75184800  0.57302300  1
  H  H48  1  0.25764700  0.02261200  0.46786900  1
  H  H49  1  0.75764700  0.47738800  0.53213100  1
  H  H50  1  0.74235300  0.52261200  0.03213100  1
  H  H51  1  0.24235300  0.97738800  0.96786900  1
  H  H52  1  0.42483800  0.05177200  0.52512700  1
  H  H53  1  0.92483800  0.44822800  0.47487300  1
  H  H54  1  0.57516200  0.55177200  0.97487300  1
  H  H55  1  0.07516200  0.94822800  0.02512700  1
  H  H56  1  0.45078500  0.02186600  0.41973400  1
  H  H57  1  0.95078500  0.47813400  0.58026600  1
  H  H58  1  0.54921500  0.52186600  0.08026600  1
  H  H59  1  0.04921500  0.97813400  0.91973400  1
  H  H60  1  0.35828100  0.14761900  0.45173400  1
  H  H61  1  0.85828100  0.35238100  0.54826600  1
  H  H62  1  0.64171900  0.64761900  0.04826600  1
  H  H63  1  0.14171900  0.85238100  0.95173400  1
  C  C0  1  0.77577600  0.22865300  0.18822600  1
  C  C1  1  0.27577600  0.27134700  0.81177400  1
  C  C2  1  0.22422400  0.72865300  0.31177400  1
  C  C3  1  0.72422400  0.77134700  0.68822600  1
  C  C4  1  0.67622600  0.20582600  0.10746300  1
  C  C5  1  0.17622600  0.29417400  0.89253700  1
  C  C6  1  0.32377400  0.70582600  0.39253700  1
  C  C7  1  0.82377400  0.79417400  0.60746300  1
  C  C8  1  0.48255900  0.84700400  0.12217500  1
  C  C9  1  0.98255900  0.65299600  0.87782500  1
  C  C10  1  0.51744100  0.34700400  0.37782500  1
  C  C11  1  0.01744100  0.15299600  0.62217500  1
  C  C12  1  0.67380800  0.85537000  0.12862700  1
  C  C13  1  0.17380800  0.64463000  0.87137300  1
  C  C14  1  0.32619200  0.35537000  0.37137300  1
  C  C15  1  0.82619200  0.14463000  0.62862700  1
  N  N0  1  0.92301400  0.17870600  0.40370100  1
  N  N1  1  0.42301400  0.32129400  0.59629900  1
  N  N2  1  0.07698600  0.67870600  0.09629900  1
  N  N3  1  0.57698600  0.82129400  0.90370100  1
  N  N4  1  0.21806200  0.27113300  0.13503300  1
  N  N5  1  0.71806200  0.22886700  0.86496700  1
  N  N6  1  0.78193800  0.77113300  0.36496700  1
  N  N7  1  0.28193800  0.72886700  0.63503300  1
  N  N8  1  0.37346000  0.06125000  0.46620500  1
  N  N9  1  0.87346000  0.43875000  0.53379500  1
  N  N10  1  0.62654000  0.56125000  0.03379500  1
  N  N11  1  0.12654000  0.93875000  0.96620500  1
  O  O0  1  0.57102600  0.96369300  0.35021800  1
  O  O1  1  0.07102600  0.53630700  0.64978200  1
  O  O2  1  0.42897400  0.46369300  0.14978200  1
  O  O3  1  0.92897400  0.03630700  0.85021800  1
  O  O4  1  0.73809900  0.16522200  0.25233100  1
  O  O5  1  0.23809900  0.33477800  0.74766900  1
  O  O6  1  0.26190100  0.66522200  0.24766900  1
  O  O7  1  0.76190100  0.83477800  0.75233100  1
  O  O8  1  0.56602800  0.12482500  0.11266300  1
  O  O9  1  0.06602800  0.37517500  0.88733700  1
  O  O10  1  0.43397200  0.62482500  0.38733700  1
  O  O11  1  0.93397200  0.87517500  0.61266300  1
  O  O12  1  0.88554400  0.30329100  0.18815200  1
  O  O13  1  0.38554400  0.19670900  0.81184800  1
  O  O14  1  0.11445600  0.80329100  0.31184800  1
  O  O15  1  0.61445600  0.69670900  0.68815200  1
  O  O16  1  0.71003800  0.26397000  0.04492400  1
  O  O17  1  0.21003800  0.23603000  0.95507600  1
  O  O18  1  0.28996200  0.76397000  0.45507600  1
  O  O19  1  0.78996200  0.73603000  0.54492400  1
  O  O20  1  0.34817000  0.14199000  0.26038600  1
  O  O21  1  0.84817000  0.35801000  0.73961400  1
  O  O22  1  0.65183000  0.64199000  0.23961400  1
  O  O23  1  0.15183000  0.85801000  0.76038600  1
  O  O24  1  0.39993100  0.91477100  0.17204300  1
  O  O25  1  0.89993100  0.58522900  0.82795700  1
  O  O26  1  0.60006900  0.41477100  0.32795700  1
  O  O27  1  0.10006900  0.08522900  0.67204300  1
  O  O28  1  0.73107800  0.92835800  0.18250500  1
  O  O29  1  0.23107800  0.57164200  0.81749500  1
  O  O30  1  0.26892200  0.42835800  0.31749500  1
  O  O31  1  0.76892200  0.07164200  0.68250500  1
  O  O32  1  0.42092500  0.77992900  0.07160800  1
  O  O33  1  0.92092500  0.72007100  0.92839200  1
  O  O34  1  0.57907500  0.27992900  0.42839200  1
  O  O35  1  0.07907500  0.22007100  0.57160800  1
  O  O36  1  0.75912400  0.79414000  0.08187300  1
  O  O37  1  0.25912400  0.70586000  0.91812700  1
  O  O38  1  0.24087600  0.29414000  0.41812700  1
  O  O39  1  0.74087600  0.20586000  0.58187300  1
  O  O40  1  0.45139800  0.04291600  0.95754200  1
  O  O41  1  0.95139800  0.45708400  0.04245800  1
  O  O42  1  0.54860200  0.54291600  0.54245800  1
  O  O43  1  0.04860200  0.95708400  0.45754200  1
  O  O44  1  0.06065100  0.99001300  0.13650600  1
  O  O45  1  0.56065100  0.50998700  0.86349400  1
  O  O46  1  0.93934900  0.49001300  0.36349400  1
  O  O47  1  0.43934900  0.00998700  0.63650600  1
loop_
_geom_bond_atom_site_label_1
_geom_bond_atom_site_label_2
_geom_bond_distance
_geom_bond_site_symmetry_2
H0 O40 0.990952 1_554
H1 O41 0.990952 1_556
H2 O42 0.990952 1_555
H3 O43 0.990952 1_555
H4 O40 0.986751 1_555
H5 O41 0.986751 1_555
H6 O42 0.986751 1_555
H7 O43 0.986751 1_555
H8 O44 0.980198 1_555
H9 O45 0.980198 1_555
H10 O46 0.980198 1_555
H11 O47 0.980198 1_555
H12 O44 0.981456 1_655
H13 O45 0.981456 1_555
H14 O46 0.981456 1_455
H15 O47 0.981456 1_555
H16 N0 1.043858 1_555
H17 N1 1.043858 1_555
H18 N2 1.043858 1_555
H19 N3 1.043858 1_555
H20 N0 1.042527 1_455
H21 N1 1.042527 1_555
H22 N2 1.042527 1_655
H23 N3 1.042527 1_555
H24 N0 1.032875 1_555
H25 N1 1.032878 1_555
H26 N2 1.032878 1_555
H27 N3 1.032878 1_555
H28 N0 1.041597 1_555
H29 N1 1.041597 1_555
H30 N2 1.041597 1_555
H31 N3 1.041597 1_555
H32 N4 1.034389 1_555
H33 N5 1.034389 1_555
H34 N6 1.034389 1_555
H35 N7 1.034389 1_555
H36 N4 1.054489 1_555
H36 O20 1.721991 1_555
H37 N5 1.054489 1_555
H37 O21 1.721991 1_555
H38 N6 1.054489 1_555
H38 O22 1.721991 1_555
H39 N7 1.054489 1_555
H39 O23 1.721991 1_555
H40 N4 1.060147 1_555
H41 N5 1.060147 1_555
H42 N6 1.060147 1_555
H43 N7 1.060147 1_555
H44 N4 1.036426 1_555
H45 N5 1.036426 1_555
H46 N6 1.036426 1_555
H47 N7 1.036426 1_555
H48 N8 1.039623 1_555
H49 N9 1.039623 1_555
H50 N10 1.039623 1_555
H51 N11 1.039623 1_555
H52 N8 1.040947 1_555
H53 N9 1.040947 1_555
H54 N10 1.040947 1_556
H55 N11 1.040947 1_554
H56 N8 1.076535 1_555
H56 O0 1.628640 1_545
H57 N9 1.076535 1_555
H57 O1 1.628640 1_655
H58 N10 1.076535 1_555
H58 O2 1.628640 1_555
H59 N11 1.076535 1_555
H59 O3 1.628640 1_465
H60 N8 1.033794 1_555
H61 N9 1.033794 1_555
H62 N10 1.033794 1_555
H63 N11 1.033794 1_555
C0 O12 1.239750 1_555
C0 O4 1.302125 1_555
C1 O13 1.239750 1_555
C1 O5 1.302125 1_555
C2 O14 1.239750 1_555
C2 O6 1.302125 1_555
C3 O15 1.239750 1_555
C3 O7 1.302125 1_555
C4 O16 1.240953 1_555
C4 O8 1.297253 1_555
C5 O17 1.240953 1_555
C5 O9 1.297253 1_555
C6 O18 1.240953 1_555
C6 O10 1.297253 1_555
C7 O19 1.240953 1_555
C7 O11 1.297253 1_555
C8 O32 1.230311 1_555
C8 O24 1.306418 1_555
C9 O33 1.230311 1_555
C9 O25 1.306418 1_555
C10 O34 1.230311 1_555
C10 O26 1.306418 1_555
C11 O35 1.230311 1_555
C11 O27 1.306418 1_555
C12 O36 1.243189 1_555
C12 O28 1.296170 1_555
C13 O37 1.243189 1_555
C13 O29 1.296170 1_555
C14 O38 1.243189 1_555
C14 O30 1.296170 1_555
C15 O39 1.243189 1_555
C15 O31 1.296170 1_555
O0 Sn0 1.974161 1_565
O1 Sn1 1.974161 1_555
O2 Sn2 1.974161 1_555
O3 Sn3 1.974161 1_545
O4 Sn0 2.168578 1_555
O5 Sn1 2.168578 1_555
O6 Sn2 2.168578 1_555
O7 Sn3 2.168578 1_555
O8 Sn0 2.299307 1_555
O9 Sn1 2.299307 1_555
O10 Sn2 2.299307 1_555
O11 Sn3 2.299307 1_555
O20 Sn0 2.005303 1_555
O21 Sn1 2.005303 1_655
O22 Sn2 2.005303 1_555
O23 Sn3 2.005303 1_455
O24 Sn0 2.144862 1_565
O25 Sn1 2.144862 1_655
O26 Sn2 2.144862 1_555
O27 Sn3 2.144862 1_445
O28 Sn0 2.197280 1_565
O29 Sn1 2.197280 1_555
O30 Sn2 2.197280 1_555
O31 Sn3 2.197280 1_545
