# generated using pymatgen
data_Sr2GaCuSO3
_symmetry_space_group_name_H-M   'P 1'
_cell_length_a   3.90318300
_cell_length_b   3.90318300
_cell_length_c   15.83844000
_cell_angle_alpha   90.00000000
_cell_angle_beta   90.00000000
_cell_angle_gamma   90.00000000
_symmetry_Int_Tables_number   1
_chemical_formula_structural   Sr2GaCuSO3
_chemical_formula_sum   'Sr4 Ga2 Cu2 S2 O6'
_cell_volume   241.29606015
_cell_formula_units_Z   2
loop_
 _symmetry_equiv_pos_site_id
 _symmetry_equiv_pos_as_xyz
  1  'x, y, z'
loop_
 _atom_site_type_symbol
 _atom_site_label
 _atom_site_symmetry_multiplicity
 _atom_site_fract_x
 _atom_site_fract_y
 _atom_site_fract_z
 _atom_site_occupancy
  Sr  Sr0  1  0.50000000  0.00000000  0.81674600  1
  Sr  Sr1  1  0.00000000  0.50000000  0.18325400  1
  Sr  Sr2  1  0.00000000  0.50000000  0.41319300  1
  Sr  Sr3  1  0.50000000  0.00000000  0.58680700  1
  Ga  Ga0  1  0.00000000  0.50000000  0.68875300  1
  Ga  Ga1  1  0.50000000  0.00000000  0.31124700  1
  Cu  Cu0  1  0.50000000  0.50000000  0.00000000  1
  Cu  Cu1  1  0.00000000  0.00000000  0.00000000  1
  S  S0  1  0.00000000  0.50000000  0.91033400  1
  S  S1  1  0.50000000  0.00000000  0.08966600  1
  O  O0  1  0.00000000  0.50000000  0.56887600  1
  O  O1  1  0.50000000  0.00000000  0.43112400  1
  O  O2  1  0.50000000  0.50000000  0.71275400  1
  O  O3  1  0.50000000  0.50000000  0.28724600  1
  O  O4  1  0.00000000  0.00000000  0.71275400  1
  O  O5  1  0.00000000  0.00000000  0.28724600  1
loop_
_geom_bond_atom_site_label_1
_geom_bond_atom_site_label_2
_geom_bond_distance
_geom_bond_site_symmetry_2
Ga0 O0 1.898665 1_555
Ga0 O2 1.988269 1_455
Ga0 O4 1.988269 1_555
Ga0 O4 1.988269 1_565
Ga0 O2 1.988269 1_555
Ga1 O1 1.898665 1_555
Ga1 O5 1.988269 1_655
Ga1 O3 1.988269 1_555
Ga1 O5 1.988269 1_555
Ga1 O3 1.988269 1_545
Cu0 S1 2.413626 1_555
Cu0 S1 2.413626 1_565
Cu0 S0 2.413626 1_554
Cu0 S0 2.413626 1_654
Cu1 S1 2.413626 1_555
Cu1 S1 2.413626 1_455
Cu1 S0 2.413626 1_544
Cu1 S0 2.413626 1_554
S0 Sr0 3.132826 1_565
S0 Sr0 3.132826 1_455
S0 Sr0 3.132826 1_465
S0 Sr0 3.132826 1_555
S1 Sr1 3.132826 1_655
S1 Sr1 3.132826 1_645
S1 Sr1 3.132826 1_545
S1 Sr1 3.132826 1_555
O0 Sr2 2.465776 1_555
O0 Sr3 2.774540 1_565
O0 Sr3 2.774540 1_555
O0 Sr3 2.774540 1_465
O0 Sr3 2.774540 1_455
O1 Sr3 2.465776 1_555
O1 Sr2 2.774540 1_645
O1 Sr2 2.774540 1_555
O1 Sr2 2.774540 1_545
O1 Sr2 2.774540 1_655
O2 Sr0 2.553733 1_555
O2 Sr0 2.553733 1_565
O2 Sr3 2.790690 1_555
O2 Sr3 2.790690 1_565
O3 Sr1 2.553733 1_655
O3 Sr1 2.553733 1_555
O3 Sr2 2.790690 1_655
O3 Sr2 2.790690 1_555
O4 Sr0 2.553733 1_555
O4 Sr0 2.553733 1_455
O4 Sr3 2.790690 1_455
O4 Sr3 2.790690 1_555
O5 Sr1 2.553733 1_545
O5 Sr1 2.553733 1_555
O5 Sr2 2.790690 1_545
O5 Sr2 2.790690 1_555
