# generated using pymatgen
data_BaAuO2
_symmetry_space_group_name_H-M   'P 1'
_cell_length_a   6.37250312
_cell_length_b   6.37250312
_cell_length_c   3.93256210
_cell_angle_alpha   89.84497013
_cell_angle_beta   89.84497013
_cell_angle_gamma   108.42522010
_symmetry_Int_Tables_number   1
_chemical_formula_structural   BaAuO2
_chemical_formula_sum   'Ba2 Au2 O4'
_cell_volume   151.50845956
_cell_formula_units_Z   2
loop_
 _symmetry_equiv_pos_site_id
 _symmetry_equiv_pos_as_xyz
  1  'x, y, z'
loop_
 _atom_site_type_symbol
 _atom_site_label
 _atom_site_symmetry_multiplicity
 _atom_site_fract_x
 _atom_site_fract_y
 _atom_site_fract_z
 _atom_site_occupancy
  Ba  Ba0  1  0.50000000  0.00000000  0.00000000  1
  Ba  Ba1  1  0.00000000  0.50000000  0.00000000  1
  Au  Au0  1  0.00000000  0.00000000  0.50000000  1
  Au  Au1  1  0.50000000  0.50000000  0.50000000  1
  O  O0  1  0.75317200  0.75317200  0.27177000  1
  O  O1  1  0.30113600  0.69886400  0.50000000  1
  O  O2  1  0.69886400  0.30113600  0.50000000  1
  O  O3  1  0.24682800  0.24682800  0.72823000  1
loop_
_geom_bond_atom_site_label_1
_geom_bond_atom_site_label_2
_geom_bond_distance
_geom_bond_site_symmetry_2
Ba0 O2 2.753828 1_554
Ba0 O1 2.753828 1_545
Ba0 O2 2.766112 1_555
Ba0 O1 2.766112 1_544
Ba0 O0 2.797054 1_545
Ba0 O3 2.797054 1_554
Ba1 O1 2.753828 1_554
Ba1 O2 2.753828 1_455
Ba1 O1 2.766112 1_555
Ba1 O2 2.766112 1_454
Ba1 O0 2.797054 1_455
Ba1 O3 2.797054 1_554
Au0 O3 2.050612 1_555
Au0 O0 2.050612 1_445
Au1 O2 2.055986 1_555
Au1 O1 2.055986 1_555
Au1 O0 2.085727 1_555
Au1 O3 2.085727 1_555
