# generated using pymatgen
data_RuRh3
_symmetry_space_group_name_H-M   'P 1'
_cell_length_a   3.79953071
_cell_length_b   3.79953071
_cell_length_c   3.79953071
_cell_angle_alpha   90.00003076
_cell_angle_beta   90.00003076
_cell_angle_gamma   90.00003076
_symmetry_Int_Tables_number   1
_chemical_formula_structural   RuRh3
_chemical_formula_sum   'Ru1 Rh3'
_cell_volume   54.85167287
_cell_formula_units_Z   1
loop_
 _symmetry_equiv_pos_site_id
 _symmetry_equiv_pos_as_xyz
  1  'x, y, z'
loop_
 _atom_site_type_symbol
 _atom_site_label
 _atom_site_symmetry_multiplicity
 _atom_site_fract_x
 _atom_site_fract_y
 _atom_site_fract_z
 _atom_site_occupancy
  Ru  Ru0  1  0.00000000  0.00000000  -0.00000000  1
  Rh  Rh0  1  0.00000000  0.49999900  0.49999900  1
  Rh  Rh1  1  0.49999900  0.00000000  0.49999900  1
  Rh  Rh2  1  0.49999900  0.49999900  -0.00000000  1
loop_
_geom_bond_atom_site_label_1
_geom_bond_atom_site_label_2
_geom_bond_distance
_geom_bond_site_symmetry_2
Rh0 Ru0 2.686668 1_555
Rh0 Rh2 2.686669 1_555
Rh0 Rh1 2.686669 1_555
Rh0 Rh1 2.686673 1_565
Rh0 Rh1 2.686673 1_455
Rh0 Rh2 2.686673 1_455
Rh0 Rh2 2.686673 1_556
Rh0 Ru0 2.686675 1_565
Rh0 Ru0 2.686675 1_556
Rh0 Ru0 2.686679 1_566
Rh0 Rh2 2.686680 1_456
Rh0 Rh1 2.686680 1_465
Rh1 Ru0 2.686668 1_555
Rh1 Rh2 2.686669 1_555
Rh1 Rh2 2.686673 1_545
Rh1 Rh2 2.686673 1_556
Rh1 Ru0 2.686675 1_655
Rh1 Ru0 2.686675 1_556
Rh1 Ru0 2.686679 1_656
Rh1 Rh2 2.686680 1_546
Rh2 Ru0 2.686668 1_555
Rh2 Ru0 2.686675 1_655
Rh2 Ru0 2.686675 1_565
Rh2 Ru0 2.686679 1_665
