# generated using pymatgen
data_RbVP2S7
_symmetry_space_group_name_H-M   'P 1'
_cell_length_a   6.53877979
_cell_length_b   6.53877979
_cell_length_c   6.82840904
_cell_angle_alpha   84.93725242
_cell_angle_beta   84.93725242
_cell_angle_gamma   96.82280759
_symmetry_Int_Tables_number   1
_chemical_formula_structural   RbVP2S7
_chemical_formula_sum   'Rb1 V1 P2 S7'
_cell_volume   287.31224230
_cell_formula_units_Z   1
loop_
 _symmetry_equiv_pos_site_id
 _symmetry_equiv_pos_as_xyz
  1  'x, y, z'
loop_
 _atom_site_type_symbol
 _atom_site_label
 _atom_site_symmetry_multiplicity
 _atom_site_fract_x
 _atom_site_fract_y
 _atom_site_fract_z
 _atom_site_occupancy
  Rb  Rb0  1  0.10913600  0.89086400  0.50000000  1
  V  V0  1  0.49839600  0.50160400  0.00000000  1
  P  P0  1  0.65367800  0.94802900  0.07882800  1
  P  P1  1  0.05197100  0.34632200  0.92117200  1
  S  S0  1  0.98346300  0.01653700  0.00000000  1
  S  S1  1  0.81673700  0.45757200  0.78922900  1
  S  S2  1  0.63325700  0.68877200  0.26988900  1
  S  S3  1  0.31122800  0.36674300  0.73011100  1
  S  S4  1  0.15319500  0.47358800  0.16416300  1
  S  S5  1  0.52641200  0.84680500  0.83583700  1
  S  S6  1  0.54242800  0.18326300  0.21077100  1
loop_
_geom_bond_atom_site_label_1
_geom_bond_atom_site_label_2
_geom_bond_distance
_geom_bond_site_symmetry_2
Rb0 S6 3.555556 1_565
Rb0 S1 3.555556 1_455
Rb0 S0 3.628743 1_466
Rb0 S0 3.628743 1_465
Rb0 S5 3.736439 1_555
Rb0 S4 3.736439 1_555
Rb0 S3 3.761656 1_565
Rb0 S2 3.761656 1_455
P0 S6 2.025227 1_565
P0 S2 2.029491 1_555
P0 S5 2.047028 1_554
P0 S0 2.159513 1_565
P1 S1 2.025227 1_455
P1 S3 2.029491 1_555
P1 S4 2.047028 1_556
P1 S0 2.159513 1_456
S1 V0 2.484746 1_556
S2 V0 2.469864 1_555
S3 V0 2.469864 1_556
S4 V0 2.409149 1_555
S5 V0 2.409149 1_556
S6 V0 2.484746 1_555
