# generated using pymatgen
data_CsYbS2
_symmetry_space_group_name_H-M   'P 1'
_cell_length_a   8.37197034
_cell_length_b   8.37197034
_cell_length_c   8.37196987
_cell_angle_alpha   27.69833682
_cell_angle_beta   27.69833682
_cell_angle_gamma   27.69833680
_symmetry_Int_Tables_number   1
_chemical_formula_structural   CsYbS2
_chemical_formula_sum   'Cs1 Yb1 S2'
_cell_volume   111.92944829
_cell_formula_units_Z   1
loop_
 _symmetry_equiv_pos_site_id
 _symmetry_equiv_pos_as_xyz
  1  'x, y, z'
loop_
 _atom_site_type_symbol
 _atom_site_label
 _atom_site_symmetry_multiplicity
 _atom_site_fract_x
 _atom_site_fract_y
 _atom_site_fract_z
 _atom_site_occupancy
  Cs  Cs0  1  0.00000000  0.00000000  0.00000000  1
  Yb  Yb0  1  0.50000000  0.50000000  0.50000000  1
  S  S0  1  0.77381183  0.77381183  0.77381183  1
  S  S1  1  0.22618817  0.22618817  0.22618817  1
loop_
_geom_bond_atom_site_label_1
_geom_bond_atom_site_label_2
_geom_bond_distance
_geom_bond_site_symmetry_2
Cs0 S0 3.470308 1_445
Cs0 S1 3.470308 1_554
Cs0 S0 3.470309 1_544
Cs0 S0 3.470309 1_454
Cs0 S1 3.470309 1_455
Cs0 S1 3.470309 1_545
S0 Yb0 2.723718 1_556
S0 Yb0 2.723718 1_565
S0 Yb0 2.723718 1_655
S1 Yb0 2.723718 1_554
S1 Yb0 2.723718 1_545
S1 Yb0 2.723718 1_455
