# generated using pymatgen
data_RbCaCl3
_symmetry_space_group_name_H-M   'P 1'
_cell_length_a   5.37769766
_cell_length_b   5.37749118
_cell_length_c   5.37721141
_cell_angle_alpha   90.01122959
_cell_angle_beta   90.04305037
_cell_angle_gamma   90.00225986
_symmetry_Int_Tables_number   1
_chemical_formula_structural   RbCaCl3
_chemical_formula_sum   'Rb1 Ca1 Cl3'
_cell_volume   155.50095814
_cell_formula_units_Z   1
loop_
 _symmetry_equiv_pos_site_id
 _symmetry_equiv_pos_as_xyz
  1  'x, y, z'
loop_
 _atom_site_type_symbol
 _atom_site_label
 _atom_site_symmetry_multiplicity
 _atom_site_fract_x
 _atom_site_fract_y
 _atom_site_fract_z
 _atom_site_occupancy
  Rb  Rb0  1  0.99557131  0.99789525  0.99618279  1
  Ca  Ca0  1  0.48738880  0.50030540  0.49853092  1
  Cl  Cl0  1  0.48355777  0.00034563  0.49414809  1
  Cl  Cl1  1  0.98700579  0.50370678  0.50276754  1
  Cl  Cl2  1  0.48647932  0.49774894  0.99836965  1
loop_
_geom_bond_atom_site_label_1
_geom_bond_atom_site_label_2
_geom_bond_distance
_geom_bond_site_symmetry_2
Ca0 Cl1 2.686930 1_555
Ca0 Cl2 2.687784 1_555
Ca0 Cl0 2.688706 1_555
Ca0 Cl0 2.689149 1_565
Ca0 Cl2 2.689506 1_554
Ca0 Cl1 2.691085 1_455
Cl0 Rb0 3.747818 1_444
Cl0 Rb0 3.766303 1_445
Cl0 Rb0 3.842218 1_544
Cl0 Rb0 3.854618 1_545
Cl1 Rb0 3.755117 1_555
Cl1 Rb0 3.800345 1_545
Cl1 Rb0 3.806266 1_554
Cl1 Rb0 3.849422 1_544
Cl2 Rb0 3.767493 1_445
Cl2 Rb0 3.768768 1_455
Cl2 Rb0 3.836810 1_545
Cl2 Rb0 3.837765 1_555
