# generated using pymatgen
data_Nb4Ag2O11
_symmetry_space_group_name_H-M   'P 1'
_cell_length_a   13.24308660
_cell_length_b   13.24308660
_cell_length_c   13.24308617
_cell_angle_alpha   27.34979933
_cell_angle_beta   27.34979933
_cell_angle_gamma   27.34979700
_symmetry_Int_Tables_number   1
_chemical_formula_structural   Nb4Ag2O11
_chemical_formula_sum   'Nb8 Ag4 O22'
_cell_volume   432.59587499
_cell_formula_units_Z   2
loop_
 _symmetry_equiv_pos_site_id
 _symmetry_equiv_pos_as_xyz
  1  'x, y, z'
loop_
 _atom_site_type_symbol
 _atom_site_label
 _atom_site_symmetry_multiplicity
 _atom_site_fract_x
 _atom_site_fract_y
 _atom_site_fract_z
 _atom_site_occupancy
  Nb  Nb0  1  0.00393700  0.00393700  0.00393700  1
  Nb  Nb1  1  0.50393700  0.50393700  0.50393700  1
  Nb  Nb2  1  0.88507200  0.62198400  0.24739100  1
  Nb  Nb3  1  0.62198400  0.24739100  0.88507200  1
  Nb  Nb4  1  0.24739100  0.88507200  0.62198400  1
  Nb  Nb5  1  0.12198400  0.38507200  0.74739100  1
  Nb  Nb6  1  0.74739100  0.12198400  0.38507200  1
  Nb  Nb7  1  0.38507200  0.74739100  0.12198400  1
  Ag  Ag0  1  0.32861700  0.32861700  0.32861700  1
  Ag  Ag1  1  0.82861700  0.82861700  0.82861700  1
  Ag  Ag2  1  0.17390900  0.17390900  0.17390900  1
  Ag  Ag3  1  0.67390900  0.67390900  0.67390900  1
  O  O0  1  0.94739600  0.71698800  0.23595700  1
  O  O1  1  0.71698800  0.23595700  0.94739600  1
  O  O2  1  0.23595700  0.94739600  0.71698800  1
  O  O3  1  0.21698800  0.44739600  0.73595700  1
  O  O4  1  0.73595700  0.21698800  0.44739600  1
  O  O5  1  0.44739600  0.73595700  0.21698800  1
  O  O6  1  0.09298000  0.09298000  0.09298000  1
  O  O7  1  0.59298000  0.59298000  0.59298000  1
  O  O8  1  0.40316100  0.40316100  0.40316100  1
  O  O9  1  0.90316100  0.90316100  0.90316100  1
  O  O10  1  0.50258300  0.99152500  0.25117600  1
  O  O11  1  0.99152500  0.25117600  0.50258300  1
  O  O12  1  0.25117600  0.50258300  0.99152500  1
  O  O13  1  0.49152500  0.00258300  0.75117600  1
  O  O14  1  0.75117600  0.49152500  0.00258300  1
  O  O15  1  0.00258300  0.75117600  0.49152500  1
  O  O16  1  0.54657900  0.25510400  0.78494000  1
  O  O17  1  0.25510400  0.78494000  0.54657900  1
  O  O18  1  0.78494000  0.54657900  0.25510400  1
  O  O19  1  0.75510400  0.04657900  0.28494000  1
  O  O20  1  0.28494000  0.75510400  0.04657900  1
  O  O21  1  0.04657900  0.28494000  0.75510400  1
loop_
_geom_bond_atom_site_label_1
_geom_bond_atom_site_label_2
_geom_bond_distance
_geom_bond_site_symmetry_2
Nb0 O20 1.915554 1_545
Nb0 O19 1.915554 1_455
Nb0 O21 1.915554 1_554
Nb0 O2 2.160516 1_544
Nb0 O1 2.160516 1_454
Nb0 O0 2.160516 1_445
Nb1 O17 1.915554 1_555
Nb1 O16 1.915554 1_555
Nb1 O18 1.915554 1_555
Nb1 O5 2.160516 1_555
Nb1 O4 2.160516 1_555
Nb1 O3 2.160516 1_555
Nb2 O0 1.889798 1_555
Nb2 O7 2.030737 1_555
Nb2 O9 2.047989 1_554
Nb2 O12 2.050268 1_654
Nb2 O11 2.051213 1_555
Nb2 O18 2.167160 1_555
Nb2 O10 2.357663 1_555
Nb3 O1 1.889798 1_555
Nb3 O7 2.030737 1_555
Nb3 O9 2.047989 1_545
Nb3 O10 2.050268 1_546
Nb3 O12 2.051213 1_555
Nb3 O16 2.167160 1_555
Nb3 O11 2.357663 1_555
Nb4 O2 1.889798 1_555
Nb4 O7 2.030737 1_555
Nb4 O9 2.047989 1_455
Nb4 O11 2.050268 1_465
Nb4 O10 2.051213 1_555
Nb4 O17 2.167160 1_555
Nb4 O12 2.357663 1_555
Nb5 O3 1.889798 1_555
Nb5 O6 2.030737 1_556
Nb5 O8 2.047989 1_555
Nb5 O15 2.050268 1_555
Nb5 O14 2.051213 1_456
Nb5 O21 2.167160 1_555
Nb5 O13 2.357663 1_555
Nb6 O4 1.889798 1_555
Nb6 O6 2.030737 1_655
Nb6 O8 2.047989 1_555
Nb6 O13 2.050268 1_555
Nb6 O15 2.051213 1_645
Nb6 O19 2.167160 1_555
Nb6 O14 2.357663 1_555
Nb7 O5 1.889798 1_555
Nb7 O6 2.030737 1_565
Nb7 O8 2.047989 1_555
Nb7 O14 2.050268 1_555
Nb7 O13 2.051213 1_564
Nb7 O20 2.167160 1_555
Nb7 O15 2.357663 1_555
Ag0 O19 2.597027 1_555
Ag0 O21 2.597027 1_555
Ag0 O20 2.597028 1_555
Ag0 O0 2.667087 1_455
Ag0 O1 2.667087 1_554
Ag0 O2 2.667087 1_545
Ag1 O16 2.597027 1_565
Ag1 O18 2.597027 1_556
Ag1 O17 2.597028 1_655
Ag1 O3 2.667087 1_655
Ag1 O4 2.667087 1_565
Ag1 O5 2.667087 1_556
Ag2 O18 2.544412 1_455
Ag2 O17 2.544412 1_545
Ag2 O16 2.544412 1_554
Ag2 O5 2.749197 1_545
Ag2 O3 2.749197 1_554
Ag2 O4 2.749197 1_455
Ag3 O21 2.544412 1_655
Ag3 O20 2.544412 1_556
Ag3 O19 2.544412 1_565
Ag3 O2 2.749197 1_555
Ag3 O0 2.749197 1_555
Ag3 O1 2.749197 1_555
