# generated using pymatgen
data_RbBeH3
_symmetry_space_group_name_H-M   'P 1'
_cell_length_a   5.89329800
_cell_length_b   7.35315300
_cell_length_c   9.40290436
_cell_angle_alpha   73.82387418
_cell_angle_beta   90.00000000
_cell_angle_gamma   90.00000000
_symmetry_Int_Tables_number   1
_chemical_formula_structural   RbBeH3
_chemical_formula_sum   'Rb4 Be4 H12'
_cell_volume   391.33674711
_cell_formula_units_Z   4
loop_
 _symmetry_equiv_pos_site_id
 _symmetry_equiv_pos_as_xyz
  1  'x, y, z'
loop_
 _atom_site_type_symbol
 _atom_site_label
 _atom_site_symmetry_multiplicity
 _atom_site_fract_x
 _atom_site_fract_y
 _atom_site_fract_z
 _atom_site_occupancy
  Rb  Rb0  1  0.25382700  0.25985600  0.72311700  1
  Rb  Rb1  1  0.75382700  0.74014400  0.77688300  1
  Rb  Rb2  1  0.24617300  0.25985600  0.22311700  1
  Rb  Rb3  1  0.74617300  0.74014400  0.27688300  1
  Be  Be0  1  0.25251200  0.75791500  0.50411600  1
  Be  Be1  1  0.75251200  0.24208500  0.99588400  1
  Be  Be2  1  0.24748800  0.75791500  0.00411600  1
  Be  Be3  1  0.74748800  0.24208500  0.49588400  1
  H  H0  1  0.01805800  0.73994100  0.52394400  1
  H  H1  1  0.39880800  0.64369700  0.60922200  1
  H  H2  1  0.65687900  0.11856200  0.62478100  1
  H  H3  1  0.15687900  0.88143800  0.87521900  1
  H  H4  1  0.89880800  0.35630300  0.89077800  1
  H  H5  1  0.51805800  0.26005900  0.97605600  1
  H  H6  1  0.48194200  0.73994100  0.02394400  1
  H  H7  1  0.10119200  0.64369700  0.10922200  1
  H  H8  1  0.84312100  0.11856200  0.12478100  1
  H  H9  1  0.34312100  0.88143800  0.37521900  1
  H  H10  1  0.60119200  0.35630300  0.39077800  1
  H  H11  1  0.98194200  0.26005900  0.47605600  1
loop_
_geom_bond_atom_site_label_1
_geom_bond_atom_site_label_2
_geom_bond_distance
_geom_bond_site_symmetry_2
Be0 H0 1.395569 1_555
Be0 H1 1.401056 1_555
Be0 H9 1.402037 1_555
Be1 H5 1.395569 1_555
Be1 H4 1.401056 1_555
Be1 H8 1.402037 1_556
Be2 H6 1.395569 1_555
Be2 H7 1.401056 1_555
Be2 H3 1.402037 1_554
Be3 H11 1.395569 1_555
Be3 H10 1.401056 1_555
Be3 H2 1.402037 1_555
H0 Rb3 2.821734 1_455
H0 Rb1 2.843137 1_455
H1 Rb1 2.826427 1_555
H1 Rb0 2.856386 1_555
H2 Rb1 2.810196 1_545
H2 Rb0 2.848111 1_555
H3 Rb0 2.810196 1_565
H3 Rb1 2.848111 1_455
H4 Rb0 2.826427 1_655
H4 Rb1 2.856386 1_555
H5 Rb2 2.821734 1_556
H5 Rb0 2.843137 1_555
H6 Rb1 2.821734 1_554
H6 Rb3 2.843137 1_555
H7 Rb3 2.826427 1_455
H7 Rb2 2.856386 1_555
H8 Rb3 2.810196 1_545
H8 Rb2 2.848111 1_655
H9 Rb2 2.810196 1_565
H9 Rb3 2.848111 1_555
H10 Rb2 2.826427 1_555
H10 Rb3 2.856386 1_555
H11 Rb0 2.821734 1_655
H11 Rb2 2.843137 1_655
