# generated using pymatgen
data_TmMn12
_symmetry_space_group_name_H-M   'P 1'
_cell_length_a   6.30536696
_cell_length_b   6.30536696
_cell_length_c   6.30536696
_cell_angle_alpha   97.73026313
_cell_angle_beta   97.73026313
_cell_angle_gamma   136.96868190
_symmetry_Int_Tables_number   1
_chemical_formula_structural   TmMn12
_chemical_formula_sum   'Tm1 Mn12'
_cell_volume   159.14756073
_cell_formula_units_Z   1
loop_
 _symmetry_equiv_pos_site_id
 _symmetry_equiv_pos_as_xyz
  1  'x, y, z'
loop_
 _atom_site_type_symbol
 _atom_site_label
 _atom_site_symmetry_multiplicity
 _atom_site_fract_x
 _atom_site_fract_y
 _atom_site_fract_z
 _atom_site_occupancy
  Tm  Tm0  1  0.00000000  0.00000000  0.00000000  1
  Mn  Mn0  1  0.50000000  0.50000000  0.50000000  1
  Mn  Mn1  1  0.00000000  0.00000000  0.50000000  1
  Mn  Mn2  1  0.00000000  0.50000000  0.00000000  1
  Mn  Mn3  1  0.50000000  0.00000000  0.00000000  1
  Mn  Mn4  1  0.36157300  0.00000000  0.36157300  1
  Mn  Mn5  1  0.63842700  0.00000000  0.63842700  1
  Mn  Mn6  1  0.00000000  0.63842700  0.63842700  1
  Mn  Mn7  1  0.00000000  0.36157300  0.36157300  1
  Mn  Mn8  1  0.27388000  0.50000000  0.77388000  1
  Mn  Mn9  1  0.72612000  0.50000000  0.22612000  1
  Mn  Mn10  1  0.50000000  0.72612000  0.22612000  1
  Mn  Mn11  1  0.50000000  0.27388000  0.77388000  1
loop_
_geom_bond_atom_site_label_1
_geom_bond_atom_site_label_2
_geom_bond_distance
_geom_bond_site_symmetry_2
Mn0 Mn1 2.312528 1_665
Mn0 Mn1 2.312528 1_555
Mn0 Mn11 2.382735 1_555
Mn0 Mn10 2.382735 1_555
Mn0 Mn8 2.382735 1_555
Mn0 Mn9 2.382735 1_555
Mn0 Mn7 2.548506 1_555
Mn0 Mn5 2.548506 1_565
Mn0 Mn4 2.548506 1_555
Mn0 Mn6 2.548506 1_655
Mn0 Tm0 3.152683 1_666
Mn0 Tm0 3.152683 1_555
Mn1 Mn11 2.382735 1_555
Mn1 Mn9 2.382735 1_445
Mn1 Mn10 2.382735 1_445
Mn1 Mn8 2.382735 1_555
Mn1 Mn7 2.548506 1_555
Mn1 Mn4 2.548506 1_555
Mn1 Mn6 2.548506 1_545
Mn1 Mn5 2.548506 1_455
Mn1 Tm0 3.152683 1_555
Mn1 Tm0 3.152683 1_556
Mn2 Mn3 2.312528 1_565
Mn2 Mn3 2.312528 1_455
Mn2 Mn9 2.382735 1_455
Mn2 Mn8 2.382735 1_554
Mn2 Mn7 2.548506 1_555
Mn2 Mn4 2.548506 1_565
Mn2 Mn6 2.548506 1_554
Mn2 Mn5 2.548506 1_454
Mn2 Tm0 3.152683 1_565
Mn2 Tm0 3.152683 1_555
Mn3 Mn9 2.382735 1_555
Mn3 Mn8 2.382735 1_544
Mn3 Mn7 2.548506 1_655
Mn3 Mn6 2.548506 1_544
Mn3 Mn5 2.548506 1_554
Mn3 Mn4 2.548506 1_555
Mn3 Tm0 3.152683 1_555
Mn3 Tm0 3.152683 1_655
Mn4 Mn5 2.296716 1_555
Mn4 Mn9 2.571081 1_555
Mn4 Mn9 2.571081 1_445
Mn4 Mn6 2.825816 1_545
Mn4 Mn6 2.825816 1_655
Mn4 Mn7 2.825816 1_545
Mn4 Mn7 2.825816 1_655
Mn4 Tm0 2.999525 1_555
Mn5 Mn8 2.571081 1_545
Mn5 Mn8 2.571081 1_655
Mn5 Mn6 2.825816 1_655
Mn5 Mn6 2.825816 1_545
Mn5 Mn7 2.825816 1_545
Mn5 Mn7 2.825816 1_655
Mn5 Tm0 2.999525 1_656
Mn6 Mn7 2.296716 1_555
Mn6 Mn9 2.545764 1_455
Mn6 Mn8 2.545764 1_555
Mn6 Tm0 2.999525 1_566
Mn7 Mn9 2.545764 1_455
Mn7 Mn8 2.545764 1_555
Mn7 Tm0 2.999525 1_555
Mn8 Tm0 2.977676 1_556
Mn8 Tm0 2.977676 1_666
Mn9 Tm0 2.977676 1_665
Mn9 Tm0 2.977676 1_555
Mn10 Mn2 2.382735 1_555
Mn10 Mn3 2.382735 1_565
Mn10 Mn4 2.545764 1_565
Mn10 Mn5 2.545764 1_565
Mn10 Mn7 2.571081 1_555
Mn10 Mn7 2.571081 1_665
Mn10 Mn8 2.652836 1_554
Mn10 Mn9 2.652836 1_555
Mn10 Tm0 2.977676 1_665
Mn10 Tm0 2.977676 1_555
Mn11 Mn2 2.382735 1_656
Mn11 Mn3 2.382735 1_556
Mn11 Mn5 2.545764 1_555
Mn11 Mn4 2.545764 1_555
Mn11 Mn6 2.571081 1_655
Mn11 Mn6 2.571081 1_545
Mn11 Mn8 2.652836 1_555
Mn11 Mn9 2.652836 1_556
Mn11 Tm0 2.977676 1_556
Mn11 Tm0 2.977676 1_666
