# generated using pymatgen
data_Ba3(AsO4)2
_symmetry_space_group_name_H-M   'P 1'
_cell_length_a   7.88626034
_cell_length_b   7.88626049
_cell_length_c   7.88625911
_cell_angle_alpha   43.18127298
_cell_angle_beta   43.18128392
_cell_angle_gamma   43.18126737
_symmetry_Int_Tables_number   1
_chemical_formula_structural   Ba3(AsO4)2
_chemical_formula_sum   'Ba3 As2 O8'
_cell_volume   208.25679382
_cell_formula_units_Z   1
loop_
 _symmetry_equiv_pos_site_id
 _symmetry_equiv_pos_as_xyz
  1  'x, y, z'
loop_
 _atom_site_type_symbol
 _atom_site_label
 _atom_site_symmetry_multiplicity
 _atom_site_fract_x
 _atom_site_fract_y
 _atom_site_fract_z
 _atom_site_occupancy
  Ba  Ba0  1  0.79402731  0.79402731  0.79402731  1
  Ba  Ba1  1  0.20597269  0.20597269  0.20597269  1
  Ba  Ba2  1  -0.00000000  -0.00000000  0.00000000  1
  As  As0  1  0.59271011  0.59271011  0.59271011  1
  As  As1  1  0.40728989  0.40728989  0.40728989  1
  O  O0  1  0.67179162  0.67179162  0.67179162  1
  O  O1  1  0.32820838  0.32820838  0.32820838  1
  O  O2  1  0.72552929  0.72552929  0.24619822  1
  O  O3  1  0.72552929  0.24619822  0.72552929  1
  O  O4  1  0.24619822  0.72552929  0.72552929  1
  O  O5  1  0.27447071  0.75380178  0.27447071  1
  O  O6  1  0.27447071  0.27447071  0.75380178  1
  O  O7  1  0.75380178  0.27447071  0.27447071  1
loop_
_geom_bond_atom_site_label_1
_geom_bond_atom_site_label_2
_geom_bond_distance
_geom_bond_site_symmetry_2
Ba0 O0 2.617910 1_555
Ba0 O2 2.847198 1_556
Ba0 O3 2.847198 1_565
Ba0 O4 2.847198 1_655
Ba0 O7 2.957496 1_565
Ba0 O6 2.957496 1_565
Ba0 O6 2.957496 1_655
Ba0 O7 2.957497 1_556
Ba0 O5 2.957497 1_655
Ba0 O5 2.957497 1_556
Ba1 O1 2.617910 1_555
Ba1 O6 2.847198 1_554
Ba1 O5 2.847198 1_545
Ba1 O7 2.847198 1_455
Ba1 O4 2.957496 1_545
Ba1 O2 2.957496 1_545
Ba1 O2 2.957496 1_455
Ba1 O4 2.957497 1_554
Ba1 O3 2.957497 1_455
Ba1 O3 2.957497 1_554
Ba2 O3 2.777595 1_454
Ba2 O5 2.777595 1_545
Ba2 O7 2.777596 1_455
Ba2 O4 2.777596 1_544
Ba2 O2 2.777596 1_445
Ba2 O6 2.777596 1_554
As0 O0 1.693681 1_555
As0 O3 1.706786 1_555
As0 O2 1.706786 1_555
As0 O4 1.706786 1_555
As1 O1 1.693681 1_555
As1 O5 1.706786 1_555
As1 O6 1.706786 1_555
As1 O7 1.706786 1_555
