# generated using pymatgen
data_K2NaAlAs2
_symmetry_space_group_name_H-M   'P 1'
_cell_length_a   8.81089830
_cell_length_b   8.81089830
_cell_length_c   8.81089830
_cell_angle_alpha   136.97487254
_cell_angle_beta   134.91926548
_cell_angle_gamma   64.07691179
_symmetry_Int_Tables_number   1
_chemical_formula_structural   K2NaAlAs2
_chemical_formula_sum   'K4 Na2 Al2 As4'
_cell_volume   326.02694660
_cell_formula_units_Z   2
loop_
 _symmetry_equiv_pos_site_id
 _symmetry_equiv_pos_as_xyz
  1  'x, y, z'
loop_
 _atom_site_type_symbol
 _atom_site_label
 _atom_site_symmetry_multiplicity
 _atom_site_fract_x
 _atom_site_fract_y
 _atom_site_fract_z
 _atom_site_occupancy
  K  K0  1  0.08409437  0.32501050  0.75908387  1
  K  K1  1  0.43407338  0.17498950  0.25908387  1
  K  K2  1  0.91590563  0.67498950  0.24091613  1
  K  K3  1  0.56592662  0.82501050  0.74091613  1
  Na  Na0  1  0.50000000  0.75000000  0.25000000  1
  Na  Na1  1  0.50000000  0.25000000  0.75000000  1
  Al  Al0  1  0.00000000  0.75000000  0.75000000  1
  Al  Al1  1  0.00000000  0.25000000  0.25000000  1
  As  As0  1  0.10758953  0.90622355  0.20136598  1
  As  As1  1  0.89241047  0.09377645  0.79863402  1
  As  As2  1  0.29514243  0.59377645  0.70136598  1
  As  As3  1  0.70485757  0.40622355  0.29863402  1
loop_
_geom_bond_atom_site_label_1
_geom_bond_atom_site_label_2
_geom_bond_distance
_geom_bond_site_symmetry_2
Al0 As2 2.534241 1_555
Al0 As3 2.534241 1_455
Al0 As1 2.534241 1_465
Al0 As0 2.534241 1_556
Al1 As2 2.534241 1_555
Al1 As0 2.534241 1_545
Al1 As3 2.534241 1_455
Al1 As1 2.534241 1_454
As0 Na0 2.939656 1_555
As0 Na1 2.939656 1_565
As0 K3 3.338570 1_454
As0 K2 3.464458 1_455
As0 K0 3.473200 1_565
As0 K0 3.473200 1_554
As0 K3 3.841281 1_555
As1 Na0 2.939656 1_545
As1 Na1 2.939656 1_555
As1 K1 3.338570 1_656
As1 K0 3.464458 1_655
As1 K2 3.473200 1_556
As1 K2 3.473200 1_545
As1 K1 3.841281 1_555
As2 Na0 2.939656 1_556
As2 Na1 2.939656 1_555
As2 K2 3.338570 1_455
As2 K3 3.464458 1_555
As2 K1 3.473200 1_566
As2 K1 3.473200 1_555
As2 K2 3.841281 1_556
As3 Na1 2.939656 1_554
As3 Na0 2.939656 1_555
As3 K0 3.338570 1_655
As3 K1 3.464458 1_555
As3 K3 3.473200 1_544
As3 K3 3.473200 1_555
As3 K0 3.841281 1_554
