# generated using pymatgen
data_YB2C
_symmetry_space_group_name_H-M   'P 1'
_cell_length_a   6.79171232
_cell_length_b   6.79171232
_cell_length_c   7.47882125
_cell_angle_alpha   90.00000000
_cell_angle_beta   90.00000000
_cell_angle_gamma   90.00000000
_symmetry_Int_Tables_number   1
_chemical_formula_structural   YB2C
_chemical_formula_sum   'Y8 B16 C8'
_cell_volume   344.97825204
_cell_formula_units_Z   8
loop_
 _symmetry_equiv_pos_site_id
 _symmetry_equiv_pos_as_xyz
  1  'x, y, z'
loop_
 _atom_site_type_symbol
 _atom_site_label
 _atom_site_symmetry_multiplicity
 _atom_site_fract_x
 _atom_site_fract_y
 _atom_site_fract_z
 _atom_site_occupancy
  Y  Y0  1  0.30922071  0.80922071  0.75000000  1
  Y  Y1  1  0.19077929  0.30922071  0.25000000  1
  Y  Y2  1  0.80922071  0.69077929  0.25000000  1
  Y  Y3  1  0.69077929  0.19077929  0.75000000  1
  Y  Y4  1  0.69077929  0.19077929  0.25000000  1
  Y  Y5  1  0.80922071  0.69077929  0.75000000  1
  Y  Y6  1  0.19077929  0.30922071  0.75000000  1
  Y  Y7  1  0.30922071  0.80922071  0.25000000  1
  B  B0  1  0.15136556  0.03431296  0.00000000  1
  B  B1  1  0.53431296  0.65136556  0.50000000  1
  B  B2  1  0.84863444  0.96568704  -0.00000000  1
  B  B3  1  0.34863444  0.53431296  0.00000000  1
  B  B4  1  0.65136556  0.46568704  -0.00000000  1
  B  B5  1  0.03431296  0.84863444  0.50000000  1
  B  B6  1  0.96568704  0.15136556  0.50000000  1
  B  B7  1  0.46568704  0.34863444  0.50000000  1
  B  B8  1  0.09745118  0.59478906  0.00000000  1
  B  B9  1  0.40521094  0.09745118  0.50000000  1
  B  B10  1  0.59478906  0.90254882  0.50000000  1
  B  B11  1  0.59745118  0.90521094  -0.00000000  1
  B  B12  1  0.40254882  0.09478906  0.00000000  1
  B  B13  1  0.90254882  0.40521094  -0.00000000  1
  B  B14  1  0.09478906  0.59745118  0.50000000  1
  B  B15  1  0.90521094  0.40254882  0.50000000  1
  C  C0  1  0.17737003  0.04075549  0.50000000  1
  C  C1  1  0.67737003  0.45924451  0.50000000  1
  C  C2  1  0.32262997  0.54075549  0.50000000  1
  C  C3  1  0.95924451  0.17737003  0.00000000  1
  C  C4  1  0.04075549  0.82262997  -0.00000000  1
  C  C5  1  0.54075549  0.67737003  0.00000000  1
  C  C6  1  0.82262997  0.95924451  0.50000000  1
  C  C7  1  0.45924451  0.32262997  -0.00000000  1
loop_
_geom_bond_atom_site_label_1
_geom_bond_atom_site_label_2
_geom_bond_distance
_geom_bond_site_symmetry_2
B0 C4 1.622129 1_545
B0 C3 1.626836 1_455
B0 Y0 2.642409 1_544
B0 Y7 2.642409 1_545
B0 Y1 2.655842 1_555
B0 Y6 2.655842 1_554
B1 C2 1.622129 1_555
B1 C1 1.626836 1_555
B1 Y7 2.642409 1_555
B1 Y0 2.642409 1_555
B1 Y2 2.655842 1_555
B1 Y5 2.655842 1_555
B2 C3 1.622129 1_565
B2 C4 1.626836 1_655
B2 Y3 2.642409 1_564
B2 Y4 2.642409 1_565
B2 Y2 2.655842 1_555
B2 Y5 2.655842 1_554
B3 C7 1.622129 1_555
B3 C5 1.626836 1_555
B3 Y1 2.642409 1_555
B3 Y6 2.642409 1_554
B3 Y0 2.655842 1_554
B3 Y7 2.655842 1_555
B4 C5 1.622129 1_555
B4 C7 1.626836 1_555
B4 Y5 2.642409 1_554
B4 Y2 2.642409 1_555
B4 Y3 2.655842 1_554
B4 Y4 2.655842 1_555
B5 C6 1.622129 1_455
B5 C0 1.626836 1_565
B5 Y5 2.642409 1_455
B5 Y2 2.642409 1_455
B5 Y0 2.655842 1_555
B5 Y7 2.655842 1_555
B6 C0 1.622129 1_655
B6 C6 1.626836 1_545
B6 Y1 2.642409 1_655
B6 Y6 2.642409 1_655
B6 Y3 2.655842 1_555
B6 Y4 2.655842 1_555
B7 C1 1.622129 1_555
B7 C2 1.626836 1_555
B7 Y3 2.642409 1_555
B7 Y4 2.642409 1_555
B7 Y1 2.655842 1_555
B7 Y6 2.655842 1_555
B8 C4 1.594619 1_555
B8 Y6 2.767531 1_554
B8 Y1 2.767531 1_555
B8 Y0 2.772259 1_554
B8 Y7 2.772259 1_555
B8 Y5 2.784409 1_454
B8 Y2 2.784409 1_455
B9 C0 1.594619 1_555
B9 Y4 2.767531 1_555
B9 Y3 2.767531 1_555
B9 Y1 2.772259 1_555
B9 Y6 2.772259 1_555
B9 Y0 2.784409 1_545
B9 Y7 2.784409 1_545
B10 C6 1.594619 1_555
B10 Y0 2.767531 1_555
B10 Y7 2.767531 1_555
B10 Y2 2.772259 1_555
B10 Y5 2.772259 1_555
B10 Y3 2.784409 1_565
B10 Y4 2.784409 1_565
B11 C5 1.594619 1_555
B11 Y3 2.767531 1_564
B11 Y4 2.767531 1_565
B11 Y2 2.772259 1_555
B11 Y5 2.772259 1_554
B11 Y7 2.784409 1_555
B11 Y0 2.784409 1_554
B12 C7 1.594619 1_555
B12 Y0 2.767531 1_544
B12 Y7 2.767531 1_545
B12 Y1 2.772259 1_555
B12 Y6 2.772259 1_554
B12 Y4 2.784409 1_555
B12 Y3 2.784409 1_554
B13 C3 1.594619 1_555
B13 Y2 2.767531 1_555
B13 Y5 2.767531 1_554
B13 Y4 2.772259 1_555
B13 Y3 2.772259 1_554
B13 Y1 2.784409 1_655
B13 Y6 2.784409 1_654
B14 C2 1.594619 1_555
B14 Y2 2.767531 1_455
B14 Y5 2.767531 1_455
B14 Y0 2.772259 1_555
B14 Y7 2.772259 1_555
B14 Y6 2.784409 1_555
B14 Y1 2.784409 1_555
B15 C1 1.594619 1_555
B15 Y6 2.767531 1_655
B15 Y1 2.767531 1_655
B15 Y4 2.772259 1_555
B15 Y3 2.772259 1_555
B15 Y2 2.784409 1_555
B15 Y5 2.784409 1_555
C0 Y7 2.602021 1_545
C0 Y0 2.602021 1_545
C0 Y1 2.613170 1_555
C0 Y6 2.613170 1_555
C1 Y5 2.602021 1_555
C1 Y2 2.602021 1_555
C1 Y4 2.613170 1_555
C1 Y3 2.613170 1_555
C2 Y1 2.602021 1_555
C2 Y6 2.602021 1_555
C2 Y7 2.613170 1_555
C2 Y0 2.613170 1_555
C3 Y1 2.602021 1_655
C3 Y6 2.602021 1_654
C3 Y3 2.613170 1_554
C3 Y4 2.613170 1_555
C4 Y2 2.602021 1_455
C4 Y5 2.602021 1_454
C4 Y7 2.613170 1_555
C4 Y0 2.613170 1_554
C5 Y7 2.602021 1_555
C5 Y0 2.602021 1_554
C5 Y5 2.613170 1_554
C5 Y2 2.613170 1_555
C6 Y3 2.602021 1_565
C6 Y4 2.602021 1_565
C6 Y2 2.613170 1_555
C6 Y5 2.613170 1_555
C7 Y4 2.602021 1_555
C7 Y3 2.602021 1_554
C7 Y6 2.613170 1_554
C7 Y1 2.613170 1_555
