# generated using pymatgen
data_ZnSiRh2
_symmetry_space_group_name_H-M   'P 1'
_cell_length_a   4.17155012
_cell_length_b   4.17160069
_cell_length_c   4.17151398
_cell_angle_alpha   59.99809785
_cell_angle_beta   60.00014729
_cell_angle_gamma   59.99899744
_symmetry_Int_Tables_number   1
_chemical_formula_structural   ZnSiRh2
_chemical_formula_sum   'Zn1 Si1 Rh2'
_cell_volume   51.32983289
_cell_formula_units_Z   1
loop_
 _symmetry_equiv_pos_site_id
 _symmetry_equiv_pos_as_xyz
  1  'x, y, z'
loop_
 _atom_site_type_symbol
 _atom_site_label
 _atom_site_symmetry_multiplicity
 _atom_site_fract_x
 _atom_site_fract_y
 _atom_site_fract_z
 _atom_site_occupancy
  Zn  Zn0  1  0.74999979  0.74999924  0.75000004  1
  Si  Si0  1  0.25000076  0.25000001  0.25000089  1
  Rh  Rh0  1  0.99999848  0.00000011  0.99999713  1
  Rh  Rh1  1  0.49999897  0.50000064  0.50000295  1
loop_
_geom_bond_atom_site_label_1
_geom_bond_atom_site_label_2
_geom_bond_distance
_geom_bond_site_symmetry_2
Rh0 Si0 2.554480 1_655
Rh0 Zn0 2.554503 1_546
Rh0 Zn0 2.554513 1_555
Rh0 Si0 2.554517 1_646
Rh0 Si0 2.554530 1_556
Rh0 Zn0 2.554542 1_645
Rh0 Zn0 2.554552 1_545
Rh0 Si0 2.554583 1_656
Rh1 Si0 2.554486 1_556
Rh1 Zn0 2.554503 1_554
Rh1 Si0 2.554514 1_565
Rh1 Zn0 2.554521 1_545
Rh1 Zn0 2.554535 1_455
Rh1 Si0 2.554544 1_655
Rh1 Zn0 2.554551 1_555
Rh1 Si0 2.554566 1_555
