# generated using pymatgen
data_Ni3As
_symmetry_space_group_name_H-M   'P 1'
_cell_length_a   5.09400325
_cell_length_b   5.09400325
_cell_length_c   4.10956400
_cell_angle_alpha   90.00000000
_cell_angle_beta   90.00000000
_cell_angle_gamma   119.99999020
_symmetry_Int_Tables_number   1
_chemical_formula_structural   Ni3As
_chemical_formula_sum   'Ni6 As2'
_cell_volume   92.35169219
_cell_formula_units_Z   2
loop_
 _symmetry_equiv_pos_site_id
 _symmetry_equiv_pos_as_xyz
  1  'x, y, z'
loop_
 _atom_site_type_symbol
 _atom_site_label
 _atom_site_symmetry_multiplicity
 _atom_site_fract_x
 _atom_site_fract_y
 _atom_site_fract_z
 _atom_site_occupancy
  Ni  Ni0  1  0.16706200  0.33412400  0.25000000  1
  Ni  Ni1  1  0.66587600  0.83293800  0.25000000  1
  Ni  Ni2  1  0.16706200  0.83293800  0.25000000  1
  Ni  Ni3  1  0.83293800  0.66587600  0.75000000  1
  Ni  Ni4  1  0.33412400  0.16706200  0.75000000  1
  Ni  Ni5  1  0.83293800  0.16706200  0.75000000  1
  As  As0  1  0.33333300  0.66666700  0.75000000  1
  As  As1  1  0.66666700  0.33333300  0.25000000  1
loop_
_geom_bond_atom_site_label_1
_geom_bond_atom_site_label_2
_geom_bond_distance
_geom_bond_site_symmetry_2
Ni0 Ni4 2.528795 1_555
Ni0 Ni4 2.528795 1_554
Ni0 Ni5 2.528795 1_454
Ni0 Ni5 2.528795 1_455
Ni0 Ni2 2.540960 1_555
Ni0 Ni1 2.540961 1_555
Ni0 Ni2 2.553043 1_545
Ni0 Ni1 2.553043 1_445
Ni1 Ni3 2.528795 1_555
Ni1 Ni3 2.528795 1_554
Ni1 Ni5 2.528795 1_565
Ni1 Ni5 2.528795 1_564
Ni1 Ni2 2.540960 1_555
Ni1 Ni2 2.553043 1_655
Ni2 Ni3 2.528795 1_455
Ni2 Ni3 2.528795 1_454
Ni2 Ni4 2.528795 1_565
Ni2 Ni4 2.528795 1_564
Ni3 Ni5 2.540960 1_555
Ni3 Ni4 2.540961 1_555
Ni3 Ni5 2.553043 1_565
Ni3 Ni4 2.553043 1_665
Ni4 Ni5 2.540960 1_555
Ni4 Ni5 2.553043 1_455
As0 Ni2 2.524734 1_555
As0 Ni2 2.524734 1_556
As0 Ni1 2.524736 1_555
As0 Ni0 2.524736 1_555
As0 Ni1 2.524736 1_556
As0 Ni0 2.524736 1_556
As0 Ni3 2.547001 1_455
As0 Ni4 2.547001 1_565
As0 Ni5 2.547004 1_565
As0 Ni5 2.547004 1_455
As0 Ni3 2.547007 1_555
As0 Ni4 2.547007 1_555
As1 Ni5 2.524734 1_555
As1 Ni5 2.524734 1_554
As1 Ni4 2.524736 1_555
As1 Ni3 2.524736 1_554
As1 Ni4 2.524736 1_554
As1 Ni3 2.524736 1_555
As1 Ni0 2.547001 1_655
As1 Ni1 2.547001 1_545
As1 Ni2 2.547004 1_545
As1 Ni2 2.547004 1_655
As1 Ni1 2.547007 1_555
As1 Ni0 2.547007 1_555
