# generated using pymatgen
data_LiAgO2
_symmetry_space_group_name_H-M   'P 1'
_cell_length_a   3.14785000
_cell_length_b   5.26533300
_cell_length_c   6.19423668
_cell_angle_alpha   87.79278140
_cell_angle_beta   90.00000000
_cell_angle_gamma   90.00000000
_symmetry_Int_Tables_number   1
_chemical_formula_structural   LiAgO2
_chemical_formula_sum   'Li2 Ag2 O4'
_cell_volume   102.59007158
_cell_formula_units_Z   2
loop_
 _symmetry_equiv_pos_site_id
 _symmetry_equiv_pos_as_xyz
  1  'x, y, z'
loop_
 _atom_site_type_symbol
 _atom_site_label
 _atom_site_symmetry_multiplicity
 _atom_site_fract_x
 _atom_site_fract_y
 _atom_site_fract_z
 _atom_site_occupancy
  Li  Li0  1  0.00000000  0.02525600  0.76879800  1
  Li  Li1  1  0.00000000  0.97474400  0.23120200  1
  Ag  Ag0  1  0.50000000  0.50000000  0.00000000  1
  Ag  Ag1  1  0.50000000  0.50000000  0.50000000  1
  O  O0  1  0.50000000  0.09258700  0.58719100  1
  O  O1  1  0.00000000  0.74770200  0.98484100  1
  O  O2  1  0.00000000  0.25229800  0.01515900  1
  O  O3  1  0.50000000  0.90741300  0.41280900  1
loop_
_geom_bond_atom_site_label_1
_geom_bond_atom_site_label_2
_geom_bond_distance
_geom_bond_site_symmetry_2
Li0 O1 1.943174 1_545
Li0 O0 1.958990 1_555
Li0 O0 1.958990 1_455
Li0 O2 1.974426 1_556
Li1 O2 1.943174 1_565
Li1 O3 1.958990 1_555
Li1 O3 1.958990 1_455
Li1 O1 1.974426 1_554
Ag0 O1 2.043930 1_654
Ag0 O2 2.043930 1_655
Ag0 O2 2.043930 1_555
Ag0 O1 2.043930 1_554
Ag1 O0 2.191844 1_555
Ag1 O3 2.191844 1_555
O0 O3 1.482736 1_545
