# generated using pymatgen
data_Ba(Cu5P2)2
_symmetry_space_group_name_H-M   'P 1'
_cell_length_a   11.78420466
_cell_length_b   11.78420466
_cell_length_c   9.53727001
_cell_angle_alpha   87.30447099
_cell_angle_beta   87.30447099
_cell_angle_gamma   19.05667637
_symmetry_Int_Tables_number   1
_chemical_formula_structural   Ba(Cu5P2)2
_chemical_formula_sum   'Ba2 Cu20 P8'
_cell_volume   431.93444849
_cell_formula_units_Z   2
loop_
 _symmetry_equiv_pos_site_id
 _symmetry_equiv_pos_as_xyz
  1  'x, y, z'
loop_
 _atom_site_type_symbol
 _atom_site_label
 _atom_site_symmetry_multiplicity
 _atom_site_fract_x
 _atom_site_fract_y
 _atom_site_fract_z
 _atom_site_occupancy
  Ba  Ba0  1  0.14106300  0.14106300  0.21674000  1
  Ba  Ba1  1  0.85893700  0.85893700  0.78326000  1
  Cu  Cu0  1  0.14898100  0.14898100  0.84829000  1
  Cu  Cu1  1  0.94934800  0.94934800  0.06854400  1
  Cu  Cu2  1  0.27358500  0.27358500  0.56776100  1
  Cu  Cu3  1  0.05065200  0.05065200  0.93145600  1
  Cu  Cu4  1  0.28438600  0.28438600  0.30260800  1
  Cu  Cu5  1  0.16409500  0.16409500  0.56895800  1
  Cu  Cu6  1  0.72122800  0.72122800  0.42804600  1
  Cu  Cu7  1  0.58348300  0.58348300  0.72583700  1
  Cu  Cu8  1  0.52473500  0.52473500  0.11778100  1
  Cu  Cu9  1  0.94124900  0.94124900  0.45140900  1
  Cu  Cu10  1  0.71217400  0.71217400  0.96217400  1
  Cu  Cu11  1  0.85101900  0.85101900  0.15171000  1
  Cu  Cu12  1  0.83126100  0.83126100  0.43061300  1
  Cu  Cu13  1  0.71017000  0.71017000  0.69627200  1
  Cu  Cu14  1  0.46565800  0.46565800  0.61793100  1
  Cu  Cu15  1  0.47526500  0.47526500  0.88221900  1
  Cu  Cu16  1  0.41249700  0.41249700  0.27225100  1
  Cu  Cu17  1  0.53434200  0.53434200  0.38206900  1
  Cu  Cu18  1  0.05875100  0.05875100  0.54859100  1
  Cu  Cu19  1  0.28343200  0.28343200  0.03647200  1
  P  P0  1  0.60597300  0.60597300  0.96147200  1
  P  P1  1  0.61994200  0.61994200  0.49608000  1
  P  P2  1  0.75117100  0.75117100  0.18664900  1
  P  P3  1  0.37589400  0.37589400  0.50183400  1
  P  P4  1  0.39402700  0.39402700  0.03852800  1
  P  P5  1  0.99063900  0.99063900  0.73315900  1
  P  P6  1  0.24882900  0.24882900  0.81335100  1
  P  P7  1  0.00936100  0.00936100  0.26684100  1
loop_
_geom_bond_atom_site_label_1
_geom_bond_atom_site_label_2
_geom_bond_distance
_geom_bond_site_symmetry_2
Ba0 P7 3.075656 1_555
Ba0 P2 3.219846 1_455
Ba0 P2 3.219846 1_545
Ba0 P0 3.253754 1_454
Ba0 P0 3.253754 1_544
Ba0 P1 3.319511 1_455
Ba0 P1 3.319511 1_545
Ba1 P5 3.075656 1_555
Ba1 P6 3.219846 1_565
Ba1 P6 3.219846 1_655
Ba1 P4 3.253754 1_656
Ba1 P4 3.253754 1_566
Ba1 P3 3.326220 1_655
Ba1 P3 3.326220 1_565
Cu0 P6 2.328811 1_555
Cu0 P0 2.422153 1_545
Cu0 P0 2.422153 1_455
Cu1 P4 2.361289 1_655
Cu1 P4 2.361289 1_565
Cu1 P7 2.402919 1_665
Cu2 P6 2.385106 1_555
Cu2 P3 2.430555 1_555
Cu3 P0 2.361289 1_455
Cu3 P0 2.361289 1_545
Cu3 P5 2.402919 1_445
Cu4 P2 2.388678 1_455
Cu4 P2 2.388678 1_545
Cu4 P3 2.918835 1_555
Cu5 P1 2.325852 1_545
Cu5 P1 2.325852 1_455
Cu6 P2 2.373184 1_555
Cu6 P1 2.411984 1_555
Cu7 P1 2.311412 1_555
Cu7 P0 2.331463 1_555
Cu8 P0 2.349327 1_554
Cu8 P7 2.430124 1_565
Cu8 P7 2.430124 1_655
Cu9 P7 2.310656 1_665
Cu9 P3 2.504876 1_655
Cu9 P3 2.504876 1_565
Cu10 P2 2.364324 1_556
Cu10 P0 2.468785 1_555
Cu10 P6 2.535819 1_565
Cu10 P6 2.535819 1_655
Cu11 P2 2.328811 1_555
Cu11 P4 2.422153 1_565
Cu11 P4 2.422153 1_655
Cu12 P3 2.325955 1_655
Cu12 P3 2.325955 1_565
Cu13 P6 2.440322 1_655
Cu13 P6 2.440322 1_565
Cu13 P1 2.902666 1_555
Cu14 P5 2.326146 1_455
Cu14 P5 2.326146 1_545
Cu14 P3 2.408199 1_555
Cu15 P4 2.349327 1_556
Cu15 P5 2.430124 1_455
Cu15 P5 2.430124 1_545
Cu16 P4 2.290057 1_555
Cu16 P3 2.310947 1_555
Cu17 P1 2.312416 1_555
Cu17 P7 2.326146 1_565
Cu17 P7 2.326146 1_655
Cu18 P5 2.310656 1_445
Cu18 P1 2.451733 1_455
Cu18 P1 2.451733 1_545
Cu19 P6 2.310485 1_554
Cu19 P2 2.513267 1_455
Cu19 P2 2.513267 1_545
Cu19 P4 2.571598 1_555
