# generated using pymatgen
data_CsGdO3
_symmetry_space_group_name_H-M   'P 1'
_cell_length_a   4.54545500
_cell_length_b   4.54545500
_cell_length_c   4.54545500
_cell_angle_alpha   90.00000000
_cell_angle_beta   90.00000000
_cell_angle_gamma   90.00000000
_symmetry_Int_Tables_number   1
_chemical_formula_structural   CsGdO3
_chemical_formula_sum   'Cs1 Gd1 O3'
_cell_volume   93.91437829
_cell_formula_units_Z   1
loop_
 _symmetry_equiv_pos_site_id
 _symmetry_equiv_pos_as_xyz
  1  'x, y, z'
loop_
 _atom_site_type_symbol
 _atom_site_label
 _atom_site_symmetry_multiplicity
 _atom_site_fract_x
 _atom_site_fract_y
 _atom_site_fract_z
 _atom_site_occupancy
  Cs  Cs0  1  0.00000000  0.00000000  0.00000000  1
  Gd  Gd0  1  0.50000000  0.50000000  0.50000000  1
  O  O0  1  0.50000000  0.50000000  0.00000000  1
  O  O1  1  0.50000000  0.00000000  0.50000000  1
  O  O2  1  0.00000000  0.50000000  0.50000000  1
loop_
_geom_bond_atom_site_label_1
_geom_bond_atom_site_label_2
_geom_bond_distance
_geom_bond_site_symmetry_2
Cs0 O2 3.214122 1_545
Cs0 O1 3.214122 1_455
Cs0 O1 3.214122 1_454
Cs0 O1 3.214122 1_555
Cs0 O1 3.214122 1_554
Cs0 O0 3.214122 1_545
Cs0 O0 3.214122 1_555
Cs0 O0 3.214122 1_445
Cs0 O2 3.214122 1_555
Cs0 O0 3.214122 1_455
Cs0 O2 3.214122 1_554
Cs0 O2 3.214122 1_544
Gd0 O0 2.272727 1_556
Gd0 O1 2.272727 1_555
Gd0 O0 2.272727 1_555
Gd0 O2 2.272727 1_555
Gd0 O1 2.272727 1_565
Gd0 O2 2.272727 1_655
