# generated using pymatgen
data_K3Rb
_symmetry_space_group_name_H-M   'P 1'
_cell_length_a   9.71382670
_cell_length_b   9.71382670
_cell_length_c   7.92169962
_cell_angle_alpha   90.00000000
_cell_angle_beta   90.00000000
_cell_angle_gamma   119.99998567
_symmetry_Int_Tables_number   1
_chemical_formula_structural   K3Rb
_chemical_formula_sum   'K6 Rb2'
_cell_volume   647.33601045
_cell_formula_units_Z   2
loop_
 _symmetry_equiv_pos_site_id
 _symmetry_equiv_pos_as_xyz
  1  'x, y, z'
loop_
 _atom_site_type_symbol
 _atom_site_label
 _atom_site_symmetry_multiplicity
 _atom_site_fract_x
 _atom_site_fract_y
 _atom_site_fract_z
 _atom_site_occupancy
  K  K0  1  0.16497772  0.32995544  0.25000000  1
  K  K1  1  0.67004456  0.83502228  0.25000000  1
  K  K2  1  0.16497772  0.83502228  0.25000000  1
  K  K3  1  0.83502228  0.67004456  0.75000000  1
  K  K4  1  0.32995544  0.16497772  0.75000000  1
  K  K5  1  0.83502228  0.16497772  0.75000000  1
  Rb  Rb0  1  0.33333300  0.66666700  0.75000000  1
  Rb  Rb1  1  0.66666700  0.33333300  0.25000000  1
loop_
_geom_bond_atom_site_label_1
_geom_bond_atom_site_label_2
_geom_bond_distance
_geom_bond_site_symmetry_2
K0 Rb1 4.856992 1_455
K0 Rb1 4.857001 1_555
K0 Rb0 4.869469 1_555
K0 Rb0 4.869469 1_554
K1 Rb1 4.856992 1_565
K1 Rb1 4.857001 1_555
K1 Rb0 4.869469 1_555
K1 Rb0 4.869469 1_554
K2 Rb1 4.856998 1_455
K2 Rb1 4.856998 1_565
K2 Rb0 4.869463 1_555
K2 Rb0 4.869463 1_554
K3 Rb0 4.856992 1_655
K3 Rb0 4.857001 1_555
K3 Rb1 4.869469 1_555
K3 Rb1 4.869469 1_556
K4 Rb0 4.856992 1_545
K4 Rb0 4.857001 1_555
K4 Rb1 4.869469 1_555
K4 Rb1 4.869469 1_556
K5 Rb0 4.856998 1_655
K5 Rb0 4.856998 1_545
K5 Rb1 4.869463 1_555
K5 Rb1 4.869463 1_556
