# generated using pymatgen
data_RbSnCl3
_symmetry_space_group_name_H-M   'P 1'
_cell_length_a   5.59874100
_cell_length_b   5.59874100
_cell_length_c   5.61290575
_cell_angle_alpha   89.40499047
_cell_angle_beta   89.40499047
_cell_angle_gamma   90.03880110
_symmetry_Int_Tables_number   1
_chemical_formula_structural   RbSnCl3
_chemical_formula_sum   'Rb1 Sn1 Cl3'
_cell_volume   175.92255861
_cell_formula_units_Z   1
loop_
 _symmetry_equiv_pos_site_id
 _symmetry_equiv_pos_as_xyz
  1  'x, y, z'
loop_
 _atom_site_type_symbol
 _atom_site_label
 _atom_site_symmetry_multiplicity
 _atom_site_fract_x
 _atom_site_fract_y
 _atom_site_fract_z
 _atom_site_occupancy
  Rb  Rb0  1  0.00966700  0.00966700  0.01806200  1
  Sn  Sn0  1  0.49121300  0.49121300  0.47939000  1
  Cl  Cl0  1  0.49532300  0.49532300  0.99246900  1
  Cl  Cl1  1  0.99095800  0.48543000  0.47522700  1
  Cl  Cl2  1  0.48543000  0.99095800  0.47522700  1
loop_
_geom_bond_atom_site_label_1
_geom_bond_atom_site_label_2
_geom_bond_distance
_geom_bond_site_symmetry_2
Cl0 Sn0 2.732757 1_556
Cl0 Sn0 2.880526 1_555
Cl0 Rb0 3.844606 1_556
Cl1 Sn0 2.798010 1_555
Cl1 Sn0 2.801306 1_655
Cl1 Rb0 3.718516 1_655
Cl1 Rb0 3.879130 1_665
Cl2 Sn0 2.798010 1_555
Cl2 Sn0 2.801306 1_565
Cl2 Rb0 3.718516 1_565
Cl2 Rb0 3.879130 1_665
