# generated using pymatgen
data_ZnNi3
_symmetry_space_group_name_H-M   'P 1'
_cell_length_a   3.53145767
_cell_length_b   3.53147868
_cell_length_c   3.53146458
_cell_angle_alpha   90.00000000
_cell_angle_beta   90.00000000
_cell_angle_gamma   90.00000000
_symmetry_Int_Tables_number   1
_chemical_formula_structural   ZnNi3
_chemical_formula_sum   'Zn1 Ni3'
_cell_volume   44.04183934
_cell_formula_units_Z   1
loop_
 _symmetry_equiv_pos_site_id
 _symmetry_equiv_pos_as_xyz
  1  'x, y, z'
loop_
 _atom_site_type_symbol
 _atom_site_label
 _atom_site_symmetry_multiplicity
 _atom_site_fract_x
 _atom_site_fract_y
 _atom_site_fract_z
 _atom_site_occupancy
  Zn  Zn0  1  -0.00000000  0.00000000  -0.00000000  1
  Ni  Ni0  1  -0.00000000  0.50000000  0.50000000  1
  Ni  Ni1  1  0.50000000  -0.00000000  0.50000000  1
  Ni  Ni2  1  0.50000000  0.50000000  -0.00000000  1
loop_
_geom_bond_atom_site_label_1
_geom_bond_atom_site_label_2
_geom_bond_distance
_geom_bond_site_symmetry_2
Ni0 Ni2 2.497120 1_556
Ni0 Ni2 2.497120 1_555
Ni0 Ni2 2.497120 1_455
Ni0 Ni2 2.497120 1_456
Ni0 Ni1 2.497125 1_565
Ni0 Ni1 2.497125 1_465
Ni0 Ni1 2.497125 1_455
Ni0 Ni1 2.497125 1_555
Ni0 Zn0 2.497128 1_556
Ni0 Zn0 2.497128 1_555
Ni0 Zn0 2.497128 1_566
Ni0 Zn0 2.497128 1_565
Ni1 Zn0 2.497120 1_655
Ni1 Zn0 2.497120 1_556
Ni1 Zn0 2.497120 1_656
Ni1 Zn0 2.497120 1_555
Ni1 Ni2 2.497128 1_546
Ni1 Ni2 2.497128 1_545
Ni1 Ni2 2.497128 1_555
Ni1 Ni2 2.497128 1_556
Ni2 Zn0 2.497125 1_655
Ni2 Zn0 2.497125 1_555
Ni2 Zn0 2.497125 1_565
Ni2 Zn0 2.497125 1_665
