# generated using pymatgen
data_La(CuO2)2
_symmetry_space_group_name_H-M   'P 1'
_cell_length_a   5.83040899
_cell_length_b   5.90909889
_cell_length_c   6.37763859
_cell_angle_alpha   117.04494366
_cell_angle_beta   116.62010949
_cell_angle_gamma   91.14527971
_symmetry_Int_Tables_number   1
_chemical_formula_structural   La(CuO2)2
_chemical_formula_sum   'La2 Cu4 O8'
_cell_volume   167.90591229
_cell_formula_units_Z   2
loop_
 _symmetry_equiv_pos_site_id
 _symmetry_equiv_pos_as_xyz
  1  'x, y, z'
loop_
 _atom_site_type_symbol
 _atom_site_label
 _atom_site_symmetry_multiplicity
 _atom_site_fract_x
 _atom_site_fract_y
 _atom_site_fract_z
 _atom_site_occupancy
  La  La0  1  0.87463933  0.12459544  0.74927393  1
  La  La1  1  0.12536067  0.87540456  0.25072607  1
  Cu  Cu0  1  0.50000000  0.00000000  0.00000000  1
  Cu  Cu1  1  0.50000000  0.50000000  0.00000000  1
  Cu  Cu2  1  0.00000000  0.50000000  0.50000000  1
  Cu  Cu3  1  0.50000000  0.50000000  0.50000000  1
  O  O0  1  0.70195841  0.52734290  0.85149375  1
  O  O1  1  0.14945720  0.82421164  0.85150422  1
  O  O2  1  0.29804159  0.47265710  0.14850625  1
  O  O3  1  0.85054280  0.17578836  0.14849578  1
  O  O4  1  0.53652171  0.14721838  0.34494333  1
  O  O5  1  0.80859973  0.69770211  0.34498759  1
  O  O6  1  0.19140027  0.30229789  0.65501241  1
  O  O7  1  0.46347829  0.85278162  0.65505667  1
loop_
_geom_bond_atom_site_label_1
_geom_bond_atom_site_label_2
_geom_bond_distance
_geom_bond_site_symmetry_2
La0 O2 2.491833 1_656
La0 O3 2.493128 1_556
La0 O5 2.513249 1_545
La0 O4 2.514391 1_555
La0 O7 2.522927 1_545
La0 O6 2.523164 1_655
La0 O1 2.524476 1_645
La0 O0 2.524981 1_555
La1 O0 2.491833 1_454
La1 O1 2.493128 1_554
La1 O6 2.513249 1_565
La1 O7 2.514391 1_555
La1 O4 2.522927 1_565
La1 O5 2.523164 1_455
La1 O3 2.524476 1_465
La1 O2 2.524981 1_555
Cu0 O1 1.854459 1_544
Cu0 O3 1.854459 1_555
Cu0 O4 1.863930 1_555
Cu0 O7 1.863930 1_544
Cu1 O2 1.854889 1_555
Cu1 O0 1.854889 1_554
Cu1 O5 1.863856 1_555
Cu1 O6 1.863856 1_554
Cu2 O6 1.923851 1_555
Cu2 O5 1.923851 1_455
Cu2 O3 1.931899 1_455
Cu2 O1 1.931899 1_555
Cu3 O7 1.923718 1_555
Cu3 O4 1.923718 1_555
Cu3 O2 1.932714 1_555
Cu3 O0 1.932714 1_555
