# generated using pymatgen
data_CdSe2O5
_symmetry_space_group_name_H-M   'P 1'
_cell_length_a   6.00983270
_cell_length_b   6.99162093
_cell_length_c   6.99162123
_cell_angle_alpha   109.19381128
_cell_angle_beta   106.52989318
_cell_angle_gamma   106.52989784
_symmetry_Int_Tables_number   1
_chemical_formula_structural   CdSe2O5
_chemical_formula_sum   'Cd2 Se4 O10'
_cell_volume   241.68229769
_cell_formula_units_Z   2
loop_
 _symmetry_equiv_pos_site_id
 _symmetry_equiv_pos_as_xyz
  1  'x, y, z'
loop_
 _atom_site_type_symbol
 _atom_site_label
 _atom_site_symmetry_multiplicity
 _atom_site_fract_x
 _atom_site_fract_y
 _atom_site_fract_z
 _atom_site_occupancy
  Cd  Cd0  1  0.25000000  0.58886366  0.41113634  1
  Cd  Cd1  1  0.75000000  0.41113634  0.58886366  1
  Se  Se0  1  0.88430115  0.99719353  0.71385567  1
  Se  Se1  1  0.61569885  0.28614433  0.00280647  1
  Se  Se2  1  0.11569885  0.00280647  0.28614433  1
  Se  Se3  1  0.38430115  0.71385567  0.99719353  1
  O  O0  1  0.75000000  0.08582255  0.91417745  1
  O  O1  1  0.25000000  0.91417745  0.08582255  1
  O  O2  1  0.68497120  0.72501883  0.59545263  1
  O  O3  1  0.81502880  0.40454737  0.27498117  1
  O  O4  1  0.31502880  0.27498117  0.40454737  1
  O  O5  1  0.18497120  0.59545263  0.72501883  1
  O  O6  1  0.27207751  0.51999136  0.07642951  1
  O  O7  1  0.22792249  0.92357049  0.48000864  1
  O  O8  1  0.72792249  0.48000864  0.92357049  1
  O  O9  1  0.77207751  0.07642951  0.51999136  1
loop_
_geom_bond_atom_site_label_1
_geom_bond_atom_site_label_2
_geom_bond_distance
_geom_bond_site_symmetry_2
Cd0 O7 2.279879 1_555
Cd0 O6 2.279879 1_555
Cd0 O3 2.293657 1_455
Cd0 O2 2.293657 1_555
Cd0 O4 2.324370 1_555
Cd0 O5 2.324370 1_555
Cd1 O9 2.279879 1_555
Cd1 O8 2.279879 1_555
Cd1 O5 2.293657 1_655
Cd1 O4 2.293657 1_555
Cd1 O2 2.324370 1_555
Cd1 O3 2.324370 1_555
O0 Se1 1.831458 1_556
O0 Se0 1.831458 1_545
O1 Se3 1.831458 1_554
O1 Se2 1.831458 1_565
O2 Se0 1.686495 1_555
O3 Se1 1.686495 1_555
O4 Se2 1.686495 1_555
O5 Se3 1.686495 1_555
O6 Se3 1.668866 1_554
O7 Se2 1.668866 1_565
O8 Se1 1.668866 1_556
O9 Se0 1.668866 1_545
