# generated using pymatgen
data_CaMgSn
_symmetry_space_group_name_H-M   'P 1'
_cell_length_a   4.96387688
_cell_length_b   4.96387688
_cell_length_c   4.96387688
_cell_angle_alpha   60.00000000
_cell_angle_beta   60.00000000
_cell_angle_gamma   60.00000000
_symmetry_Int_Tables_number   1
_chemical_formula_structural   CaMgSn
_chemical_formula_sum   'Ca1 Mg1 Sn1'
_cell_volume   86.48643672
_cell_formula_units_Z   1
loop_
 _symmetry_equiv_pos_site_id
 _symmetry_equiv_pos_as_xyz
  1  'x, y, z'
loop_
 _atom_site_type_symbol
 _atom_site_label
 _atom_site_symmetry_multiplicity
 _atom_site_fract_x
 _atom_site_fract_y
 _atom_site_fract_z
 _atom_site_occupancy
  Ca  Ca0  1  0.50000000  0.50000000  0.50000000  1
  Mg  Mg0  1  0.75000000  0.75000000  0.75000000  1
  Sn  Sn0  1  0.00000000  0.00000000  0.00000000  1
loop_
_geom_bond_atom_site_label_1
_geom_bond_atom_site_label_2
_geom_bond_distance
_geom_bond_site_symmetry_2
Ca0 Mg0 3.039741 1_555
Ca0 Mg0 3.039741 1_554
Ca0 Mg0 3.039741 1_455
Ca0 Mg0 3.039741 1_545
Ca0 Sn0 3.509991 1_556
Ca0 Sn0 3.509991 1_565
Ca0 Sn0 3.509991 1_656
Ca0 Sn0 3.509991 1_665
Ca0 Sn0 3.509991 1_566
Ca0 Sn0 3.509991 1_655
Mg0 Sn0 3.039741 1_666
Mg0 Sn0 3.039741 1_656
Mg0 Sn0 3.039741 1_665
Mg0 Sn0 3.039741 1_566
