# generated using pymatgen
data_As2Se3
_symmetry_space_group_name_H-M   'P 1'
_cell_length_a   4.49068397
_cell_length_b   10.37672095
_cell_length_c   12.05402148
_cell_angle_alpha   90.00000000
_cell_angle_beta   90.46318073
_cell_angle_gamma   90.00000000
_symmetry_Int_Tables_number   1
_chemical_formula_structural   As2Se3
_chemical_formula_sum   'As8 Se12'
_cell_volume   561.68186284
_cell_formula_units_Z   4
loop_
 _symmetry_equiv_pos_site_id
 _symmetry_equiv_pos_as_xyz
  1  'x, y, z'
loop_
 _atom_site_type_symbol
 _atom_site_label
 _atom_site_symmetry_multiplicity
 _atom_site_fract_x
 _atom_site_fract_y
 _atom_site_fract_z
 _atom_site_occupancy
  As  As0  1  0.11697537  0.80261700  0.73662783  1
  As  As1  1  0.38302463  0.30261700  0.76337217  1
  As  As2  1  0.88302463  0.19738300  0.26337217  1
  As  As3  1  0.61697537  0.69738300  0.23662783  1
  As  As4  1  0.62391689  0.67809965  0.51506356  1
  As  As5  1  0.87608311  0.17809965  0.98493644  1
  As  As6  1  0.37608311  0.32190035  0.48493644  1
  As  As7  1  0.12391689  0.82190035  0.01506356  1
  Se  Se0  1  0.46800765  0.87574766  0.59910048  1
  Se  Se1  1  0.03199235  0.37574766  0.90089952  1
  Se  Se2  1  0.53199235  0.12425234  0.40089952  1
  Se  Se3  1  0.96800765  0.62425234  0.09910048  1
  Se  Se4  1  0.97012508  0.59961726  0.65582367  1
  Se  Se5  1  0.52987492  0.09961726  0.84417633  1
  Se  Se6  1  0.02987492  0.40038274  0.34417633  1
  Se  Se7  1  0.47012508  0.90038274  0.15582367  1
  Se  Se8  1  0.42906442  0.70641442  0.88043046  1
  Se  Se9  1  0.07093558  0.20641442  0.61956954  1
  Se  Se10  1  0.57093558  0.29358558  0.11956954  1
  Se  Se11  1  0.92906442  0.79358558  0.38043046  1
loop_
_geom_bond_atom_site_label_1
_geom_bond_atom_site_label_2
_geom_bond_distance
_geom_bond_site_symmetry_2
As0 Se4 2.410483 1_455
As0 Se0 2.418932 1_555
As0 Se8 2.434362 1_555
As1 Se5 2.410483 1_555
As1 Se1 2.418932 1_555
As1 Se9 2.434362 1_555
As2 Se6 2.410483 1_655
As2 Se2 2.418932 1_555
As2 Se10 2.434362 1_555
As3 Se7 2.410483 1_555
As3 Se3 2.418932 1_555
As3 Se11 2.434362 1_555
As4 Se0 2.394607 1_555
As4 Se4 2.432403 1_555
As4 Se11 2.446124 1_555
As5 Se1 2.394607 1_655
As5 Se5 2.432403 1_555
As5 Se10 2.446124 1_556
As6 Se2 2.394607 1_555
As6 Se6 2.432403 1_555
As6 Se9 2.446124 1_555
As7 Se3 2.394607 1_455
As7 Se7 2.432403 1_555
As7 Se8 2.446124 1_554
