# generated using pymatgen
data_MgCd2
_symmetry_space_group_name_H-M   'P 1'
_cell_length_a   5.00791481
_cell_length_b   5.41316776
_cell_length_c   5.41316953
_cell_angle_alpha   60.00000790
_cell_angle_beta   90.00000000
_cell_angle_gamma   90.00000000
_symmetry_Int_Tables_number   1
_chemical_formula_structural   MgCd2
_chemical_formula_sum   'Mg2 Cd4'
_cell_volume   127.08395249
_cell_formula_units_Z   2
loop_
 _symmetry_equiv_pos_site_id
 _symmetry_equiv_pos_as_xyz
  1  'x, y, z'
loop_
 _atom_site_type_symbol
 _atom_site_label
 _atom_site_symmetry_multiplicity
 _atom_site_fract_x
 _atom_site_fract_y
 _atom_site_fract_z
 _atom_site_occupancy
  Mg  Mg0  1  0.50000000  0.66666600  0.33333400  1
  Mg  Mg1  1  0.50000000  0.99999900  0.66666900  1
  Cd  Cd0  1  -0.00000000  0.00184305  0.00000100  1
  Cd  Cd1  1  0.50000000  0.33333300  -0.00000000  1
  Cd  Cd2  1  -0.00000000  0.33333300  0.33148795  1
  Cd  Cd3  1  0.00000000  0.66482195  0.66851305  1
loop_
_geom_bond_atom_site_label_1
_geom_bond_atom_site_label_2
_geom_bond_distance
_geom_bond_site_symmetry_2
Mg0 Mg1 3.125287 1_554
Mg0 Mg1 3.125296 1_545
Mg0 Mg1 3.125300 1_555
Cd0 Cd1 3.080536 1_455
Cd0 Cd1 3.080536 1_555
Cd0 Mg1 3.089290 1_544
Cd0 Mg1 3.089290 1_444
Cd0 Mg0 3.089293 1_445
Cd0 Mg0 3.089293 1_545
Cd0 Cd2 3.107997 1_555
Cd0 Cd3 3.108006 1_554
Cd0 Cd3 3.133967 1_544
Cd0 Cd2 3.133972 1_545
Cd0 Cd3 3.133982 1_545
Cd0 Cd2 3.133987 1_554
Cd1 Cd3 3.080532 1_554
Cd1 Cd3 3.080532 1_654
Cd1 Cd2 3.080532 1_555
Cd1 Cd2 3.080532 1_655
Cd1 Mg1 3.125286 1_544
Cd1 Mg1 3.125291 1_554
Cd1 Mg0 3.125292 1_554
Cd1 Mg0 3.125296 1_545
Cd1 Mg0 3.125296 1_555
Cd1 Mg1 3.125306 1_545
Cd2 Mg0 3.089296 1_555
Cd2 Mg0 3.089296 1_455
Cd2 Mg1 3.089301 1_445
Cd2 Mg1 3.089301 1_545
Cd2 Cd3 3.107988 1_554
Cd2 Cd3 3.133976 1_545
Cd2 Cd3 3.133990 1_555
Cd3 Mg1 3.089292 1_455
Cd3 Mg1 3.089292 1_555
Cd3 Mg0 3.089299 1_455
Cd3 Mg0 3.089299 1_555
