# generated using pymatgen
data_TcGe3
_symmetry_space_group_name_H-M   'P 1'
_cell_length_a   4.81031674
_cell_length_b   4.81031674
_cell_length_c   4.81031674
_cell_angle_alpha   129.90248277
_cell_angle_beta   129.90248277
_cell_angle_gamma   73.56271012
_symmetry_Int_Tables_number   1
_chemical_formula_structural   TcGe3
_chemical_formula_sum   'Tc1 Ge3'
_cell_volume   63.92245669
_cell_formula_units_Z   1
loop_
 _symmetry_equiv_pos_site_id
 _symmetry_equiv_pos_as_xyz
  1  'x, y, z'
loop_
 _atom_site_type_symbol
 _atom_site_label
 _atom_site_symmetry_multiplicity
 _atom_site_fract_x
 _atom_site_fract_y
 _atom_site_fract_z
 _atom_site_occupancy
  Tc  Tc0  1  0.00000000  0.00000000  0.00000000  1
  Ge  Ge0  1  0.75000000  0.25000000  0.50000000  1
  Ge  Ge1  1  0.25000000  0.75000000  0.50000000  1
  Ge  Ge2  1  0.50000000  0.50000000  0.00000000  1
loop_
_geom_bond_atom_site_label_1
_geom_bond_atom_site_label_2
_geom_bond_distance
_geom_bond_site_symmetry_2
Ge0 Tc0 2.803343 1_655
Ge0 Tc0 2.803343 1_656
Ge0 Ge2 2.803343 1_555
Ge0 Ge2 2.803343 1_656
Ge0 Tc0 2.803343 1_666
Ge0 Ge2 2.803343 1_556
Ge0 Ge2 2.803343 1_545
Ge0 Tc0 2.803343 1_555
Ge0 Ge1 2.880240 1_555
Ge0 Ge1 2.880240 1_645
Ge0 Ge1 2.880240 1_544
Ge0 Ge1 2.880240 1_656
Ge1 Tc0 2.803343 1_566
Ge1 Tc0 2.803343 1_565
Ge1 Ge2 2.803343 1_455
Ge1 Ge2 2.803343 1_555
Ge1 Tc0 2.803343 1_666
Ge1 Ge2 2.803343 1_556
Ge1 Ge2 2.803343 1_566
Ge1 Tc0 2.803343 1_555
Ge2 Tc0 2.880240 1_554
Ge2 Tc0 2.880240 1_565
Ge2 Tc0 2.880240 1_655
Ge2 Tc0 2.880240 1_666
