# generated using pymatgen
data_Ni3Hg
_symmetry_space_group_name_H-M   'P 1'
_cell_length_a   5.33630638
_cell_length_b   5.33630638
_cell_length_c   4.27025000
_cell_angle_alpha   90.00000000
_cell_angle_beta   90.00000000
_cell_angle_gamma   120.00000474
_symmetry_Int_Tables_number   1
_chemical_formula_structural   Ni3Hg
_chemical_formula_sum   'Ni6 Hg2'
_cell_volume   105.30898461
_cell_formula_units_Z   2
loop_
 _symmetry_equiv_pos_site_id
 _symmetry_equiv_pos_as_xyz
  1  'x, y, z'
loop_
 _atom_site_type_symbol
 _atom_site_label
 _atom_site_symmetry_multiplicity
 _atom_site_fract_x
 _atom_site_fract_y
 _atom_site_fract_z
 _atom_site_occupancy
  Ni  Ni0  1  0.15556100  0.31112100  0.25000000  1
  Ni  Ni1  1  0.68887900  0.84443900  0.25000000  1
  Ni  Ni2  1  0.15556100  0.84443900  0.25000000  1
  Ni  Ni3  1  0.84443900  0.68887900  0.75000000  1
  Ni  Ni4  1  0.31112100  0.15556100  0.75000000  1
  Ni  Ni5  1  0.84443900  0.15556100  0.75000000  1
  Hg  Hg0  1  0.33333300  0.66666700  0.75000000  1
  Hg  Hg1  1  0.66666700  0.33333300  0.25000000  1
loop_
_geom_bond_atom_site_label_1
_geom_bond_atom_site_label_2
_geom_bond_distance
_geom_bond_site_symmetry_2
Ni0 Ni1 2.490358 1_445
Ni0 Ni2 2.490358 1_545
Ni0 Ni4 2.574109 1_554
Ni0 Ni4 2.574109 1_555
Ni0 Ni5 2.574114 1_454
Ni0 Ni5 2.574114 1_455
Ni0 Ni1 2.845948 1_555
Ni0 Ni2 2.845948 1_555
Ni1 Ni2 2.490358 1_655
Ni1 Ni3 2.574109 1_554
Ni1 Ni3 2.574109 1_555
Ni1 Ni5 2.574114 1_564
Ni1 Ni5 2.574114 1_565
Ni1 Ni2 2.845948 1_555
Ni2 Ni3 2.574114 1_455
Ni2 Ni3 2.574114 1_454
Ni2 Ni4 2.574114 1_564
Ni2 Ni4 2.574114 1_565
Ni3 Ni4 2.490358 1_665
Ni3 Ni5 2.490358 1_565
Ni3 Ni4 2.845948 1_555
Ni3 Ni5 2.845948 1_555
Ni4 Ni5 2.490358 1_455
Ni4 Ni5 2.845948 1_555
Hg0 Ni5 2.670127 1_565
Hg0 Ni5 2.670127 1_455
Hg0 Ni3 2.670127 1_555
Hg0 Ni4 2.670127 1_555
Hg0 Ni4 2.670127 1_565
Hg0 Ni3 2.670127 1_455
Hg0 Ni2 2.694169 1_555
Hg0 Ni2 2.694169 1_556
Hg0 Ni1 2.694174 1_555
Hg0 Ni1 2.694174 1_556
Hg0 Ni0 2.694174 1_555
Hg0 Ni0 2.694174 1_556
Hg1 Ni2 2.670127 1_655
Hg1 Ni2 2.670127 1_545
Hg1 Ni1 2.670127 1_555
Hg1 Ni0 2.670127 1_555
Hg1 Ni0 2.670127 1_655
Hg1 Ni1 2.670127 1_545
Hg1 Ni5 2.694169 1_554
Hg1 Ni5 2.694169 1_555
Hg1 Ni4 2.694174 1_554
Hg1 Ni3 2.694174 1_555
Hg1 Ni4 2.694174 1_555
Hg1 Ni3 2.694174 1_554
