# generated using pymatgen
data_Sm3Dy
_symmetry_space_group_name_H-M   'P 1'
_cell_length_a   7.35525562
_cell_length_b   7.35525941
_cell_length_c   5.87359017
_cell_angle_alpha   89.99999974
_cell_angle_beta   89.99999904
_cell_angle_gamma   119.99997981
_symmetry_Int_Tables_number   1
_chemical_formula_structural   Sm3Dy
_chemical_formula_sum   'Sm6 Dy2'
_cell_volume   275.18840146
_cell_formula_units_Z   2
loop_
 _symmetry_equiv_pos_site_id
 _symmetry_equiv_pos_as_xyz
  1  'x, y, z'
loop_
 _atom_site_type_symbol
 _atom_site_label
 _atom_site_symmetry_multiplicity
 _atom_site_fract_x
 _atom_site_fract_y
 _atom_site_fract_z
 _atom_site_occupancy
  Sm  Sm0  1  0.16847424  0.33694967  0.25000012  1
  Sm  Sm1  1  0.66305214  0.83152709  0.25000009  1
  Sm  Sm2  1  0.16847425  0.83152667  0.25000013  1
  Sm  Sm3  1  0.83152344  0.66304803  0.74999987  1
  Sm  Sm4  1  0.33695259  0.16847676  0.74999992  1
  Sm  Sm5  1  0.83152386  0.16847605  0.74999987  1
  Dy  Dy0  1  0.33333444  0.66666730  0.74999999  1
  Dy  Dy1  1  0.66666804  0.33333442  0.25000001  1
loop_
_geom_bond_atom_site_label_1
_geom_bond_atom_site_label_2
_geom_bond_distance
_geom_bond_site_symmetry_2
Sm0 Sm5 3.637505 1_455
Sm0 Sm5 3.637508 1_454
Sm0 Sm4 3.637509 1_555
Sm0 Sm4 3.637511 1_554
Sm0 Sm2 3.637742 1_555
Sm0 Sm1 3.637747 1_555
Sm0 Sm1 3.717513 1_445
Sm0 Sm2 3.717517 1_545
Sm1 Sm5 3.637501 1_565
Sm1 Sm5 3.637503 1_564
Sm1 Sm3 3.637505 1_555
Sm1 Sm3 3.637507 1_554
Sm1 Sm2 3.637745 1_555
Sm1 Sm2 3.717510 1_655
Sm2 Sm4 3.637505 1_565
Sm2 Sm3 3.637507 1_455
Sm2 Sm4 3.637507 1_564
Sm2 Sm3 3.637509 1_454
Sm3 Sm4 3.637699 1_555
Sm3 Sm5 3.637707 1_555
Sm3 Sm5 3.717553 1_565
Sm3 Sm4 3.717561 1_665
Sm4 Sm5 3.637701 1_555
Sm4 Sm5 3.717555 1_455
Dy0 Sm1 3.610513 1_555
Dy0 Sm0 3.610514 1_555
Dy0 Sm1 3.610514 1_556
Dy0 Sm0 3.610515 1_556
Dy0 Sm2 3.610520 1_555
Dy0 Sm2 3.610521 1_556
Dy0 Sm3 3.677690 1_555
Dy0 Sm5 3.677695 1_565
Dy0 Sm4 3.677699 1_555
Dy0 Sm4 3.677705 1_565
Dy0 Sm5 3.677709 1_455
Dy0 Sm3 3.677710 1_455
Dy1 Sm3 3.610499 1_555
Dy1 Sm3 3.610500 1_554
Dy1 Sm5 3.610500 1_555
Dy1 Sm5 3.610501 1_554
Dy1 Sm4 3.610505 1_555
Dy1 Sm4 3.610506 1_554
Dy1 Sm0 3.677689 1_655
Dy1 Sm2 3.677696 1_655
Dy1 Sm1 3.677697 1_545
Dy1 Sm1 3.677706 1_555
Dy1 Sm2 3.677708 1_545
Dy1 Sm0 3.677710 1_555
