# generated using pymatgen
data_Sc3P
_symmetry_space_group_name_H-M   'P 1'
_cell_length_a   5.53948316
_cell_length_b   5.53948316
_cell_length_c   5.53948316
_cell_angle_alpha   136.90948215
_cell_angle_beta   136.90948215
_cell_angle_gamma   62.57735180
_symmetry_Int_Tables_number   1
_chemical_formula_structural   Sc3P
_chemical_formula_sum   'Sc3 P1'
_cell_volume   78.36131248
_cell_formula_units_Z   1
loop_
 _symmetry_equiv_pos_site_id
 _symmetry_equiv_pos_as_xyz
  1  'x, y, z'
loop_
 _atom_site_type_symbol
 _atom_site_label
 _atom_site_symmetry_multiplicity
 _atom_site_fract_x
 _atom_site_fract_y
 _atom_site_fract_z
 _atom_site_occupancy
  Sc  Sc0  1  0.75000000  0.25000000  0.50000000  1
  Sc  Sc1  1  0.25000000  0.75000000  0.50000000  1
  Sc  Sc2  1  0.50000000  0.50000000  0.00000000  1
  P  P0  1  0.00000000  0.00000000  0.00000000  1
loop_
_geom_bond_atom_site_label_1
_geom_bond_atom_site_label_2
_geom_bond_distance
_geom_bond_site_symmetry_2
Sc0 Sc1 2.876932 1_656
Sc0 Sc1 2.876932 1_645
Sc0 Sc1 2.876932 1_555
Sc0 Sc1 2.876932 1_544
Sc0 Sc2 3.121002 1_556
Sc0 Sc2 3.121002 1_656
Sc0 Sc2 3.121002 1_545
Sc0 Sc2 3.121002 1_555
Sc1 Sc2 3.121002 1_556
Sc1 Sc2 3.121002 1_566
Sc1 Sc2 3.121002 1_455
Sc1 Sc2 3.121002 1_555
P0 Sc2 2.876932 1_455
P0 Sc2 2.876932 1_444
P0 Sc2 2.876932 1_545
P0 Sc2 2.876932 1_556
P0 Sc1 3.121002 1_544
P0 Sc1 3.121002 1_444
P0 Sc0 3.121002 1_455
P0 Sc1 3.121002 1_545
P0 Sc0 3.121002 1_555
P0 Sc0 3.121002 1_454
P0 Sc1 3.121002 1_555
P0 Sc0 3.121002 1_444
