# generated using pymatgen
data_Sm3Ag
_symmetry_space_group_name_H-M   'P 1'
_cell_length_a   7.01463689
_cell_length_b   7.01463689
_cell_length_c   5.42635200
_cell_angle_alpha   90.00000000
_cell_angle_beta   90.00000000
_cell_angle_gamma   120.00000838
_symmetry_Int_Tables_number   1
_chemical_formula_structural   Sm3Ag
_chemical_formula_sum   'Sm6 Ag2'
_cell_volume   231.23253851
_cell_formula_units_Z   2
loop_
 _symmetry_equiv_pos_site_id
 _symmetry_equiv_pos_as_xyz
  1  'x, y, z'
loop_
 _atom_site_type_symbol
 _atom_site_label
 _atom_site_symmetry_multiplicity
 _atom_site_fract_x
 _atom_site_fract_y
 _atom_site_fract_z
 _atom_site_occupancy
  Sm  Sm0  1  0.17401300  0.34802500  0.25000000  1
  Sm  Sm1  1  0.65197500  0.82598700  0.25000000  1
  Sm  Sm2  1  0.17401300  0.82598700  0.25000000  1
  Sm  Sm3  1  0.82598700  0.65197500  0.75000000  1
  Sm  Sm4  1  0.34802500  0.17401300  0.75000000  1
  Sm  Sm5  1  0.82598700  0.17401300  0.75000000  1
  Ag  Ag0  1  0.33333300  0.66666700  0.75000000  1
  Ag  Ag1  1  0.66666700  0.33333300  0.25000000  1
loop_
_geom_bond_atom_site_label_1
_geom_bond_atom_site_label_2
_geom_bond_distance
_geom_bond_site_symmetry_2
Sm0 Sm1 3.352729 1_555
Sm0 Sm2 3.352730 1_555
Sm0 Sm4 3.439643 1_555
Sm0 Sm4 3.439643 1_554
Sm0 Sm5 3.439650 1_454
Sm0 Sm5 3.439650 1_455
Sm0 Sm1 3.661907 1_445
Sm0 Sm2 3.661907 1_545
Sm1 Sm2 3.352730 1_555
Sm1 Sm3 3.439643 1_554
Sm1 Sm3 3.439643 1_555
Sm1 Sm5 3.439650 1_565
Sm1 Sm5 3.439650 1_564
Sm1 Sm2 3.661907 1_655
Sm2 Sm4 3.439650 1_565
Sm2 Sm4 3.439650 1_564
Sm2 Sm3 3.439650 1_455
Sm2 Sm3 3.439650 1_454
Sm3 Sm4 3.352729 1_555
Sm3 Sm5 3.352730 1_555
Sm3 Sm4 3.661907 1_665
Sm3 Sm5 3.661907 1_565
Sm4 Sm5 3.352730 1_555
Sm4 Sm5 3.661907 1_455
Ag0 Sm2 3.332900 1_555
Ag0 Sm2 3.332900 1_556
Ag0 Sm1 3.332907 1_556
Ag0 Sm1 3.332907 1_555
Ag0 Sm0 3.332907 1_556
Ag0 Sm0 3.332907 1_555
Ag0 Sm5 3.508453 1_565
Ag0 Sm5 3.508453 1_455
Ag0 Sm4 3.508454 1_565
Ag0 Sm3 3.508454 1_455
Ag0 Sm3 3.508454 1_555
Ag0 Sm4 3.508454 1_555
Ag1 Sm5 3.332900 1_554
Ag1 Sm5 3.332900 1_555
Ag1 Sm3 3.332907 1_555
Ag1 Sm4 3.332907 1_555
Ag1 Sm4 3.332907 1_554
Ag1 Sm3 3.332907 1_554
Ag1 Sm2 3.508453 1_655
Ag1 Sm2 3.508453 1_545
Ag1 Sm0 3.508454 1_655
Ag1 Sm1 3.508454 1_545
Ag1 Sm1 3.508454 1_555
Ag1 Sm0 3.508454 1_555
