# generated using pymatgen
data_Sc2OsAu
_symmetry_space_group_name_H-M   'P 1'
_cell_length_a   4.64887650
_cell_length_b   4.64887650
_cell_length_c   4.64887650
_cell_angle_alpha   60.00000000
_cell_angle_beta   60.00000000
_cell_angle_gamma   60.00000000
_symmetry_Int_Tables_number   1
_chemical_formula_structural   Sc2OsAu
_chemical_formula_sum   'Sc2 Os1 Au1'
_cell_volume   71.04426575
_cell_formula_units_Z   1
loop_
 _symmetry_equiv_pos_site_id
 _symmetry_equiv_pos_as_xyz
  1  'x, y, z'
loop_
 _atom_site_type_symbol
 _atom_site_label
 _atom_site_symmetry_multiplicity
 _atom_site_fract_x
 _atom_site_fract_y
 _atom_site_fract_z
 _atom_site_occupancy
  Sc  Sc0  1  -0.00000000  -0.00000000  -0.00000000  1
  Sc  Sc1  1  0.49999900  0.49999900  0.49999900  1
  Os  Os0  1  0.75000000  0.75000000  0.75000000  1
  Au  Au0  1  0.25000000  0.25000000  0.25000000  1
loop_
_geom_bond_atom_site_label_1
_geom_bond_atom_site_label_2
_geom_bond_distance
_geom_bond_site_symmetry_2
Os0 Sc1 2.846840 1_655
Os0 Sc1 2.846840 1_565
Os0 Sc1 2.846840 1_556
Os0 Sc0 2.846844 1_666
Os0 Sc0 2.846844 1_656
Os0 Sc0 2.846844 1_665
Os0 Sc0 2.846844 1_566
Os0 Sc1 2.846855 1_555
Au0 Sc1 2.846832 1_555
Au0 Sc0 2.846844 1_555
Au0 Sc0 2.846844 1_556
Au0 Sc0 2.846844 1_655
Au0 Sc0 2.846844 1_565
Au0 Sc1 2.846848 1_554
Au0 Sc1 2.846848 1_455
Au0 Sc1 2.846848 1_545
