# generated using pymatgen
data_Ho6Bi2Rh
_symmetry_space_group_name_H-M   'P 1'
_cell_length_a   8.33705953
_cell_length_b   8.33705147
_cell_length_c   4.12258787
_cell_angle_alpha   90.00000000
_cell_angle_beta   90.00000000
_cell_angle_gamma   120.00006333
_symmetry_Int_Tables_number   1
_chemical_formula_structural   Ho6Bi2Rh
_chemical_formula_sum   'Ho6 Bi2 Rh1'
_cell_volume   248.15650326
_cell_formula_units_Z   1
loop_
 _symmetry_equiv_pos_site_id
 _symmetry_equiv_pos_as_xyz
  1  'x, y, z'
loop_
 _atom_site_type_symbol
 _atom_site_label
 _atom_site_symmetry_multiplicity
 _atom_site_fract_x
 _atom_site_fract_y
 _atom_site_fract_z
 _atom_site_occupancy
  Ho  Ho0  1  0.60510401  0.00000000  0.50000000  1
  Ho  Ho1  1  0.00000100  0.60510501  0.50000000  1
  Ho  Ho2  1  0.39489399  0.39489399  0.50000000  1
  Ho  Ho3  1  0.23713221  -0.00000000  -0.00000000  1
  Ho  Ho4  1  -0.00000000  0.23713221  -0.00000000  1
  Ho  Ho5  1  0.76286879  0.76286879  0.00000000  1
  Bi  Bi0  1  0.33333400  0.66666700  0.00000000  1
  Bi  Bi1  1  0.66666800  0.33333600  0.00000000  1
  Rh  Rh0  1  0.99999800  0.99999700  0.50000000  1
loop_
_geom_bond_atom_site_label_1
_geom_bond_atom_site_label_2
_geom_bond_distance
_geom_bond_site_symmetry_2
Ho0 Rh0 3.292267 1_545
Ho0 Ho4 3.533790 1_656
Ho0 Ho4 3.533790 1_655
Ho0 Ho5 3.533790 1_545
Ho0 Ho5 3.533790 1_546
Ho0 Ho3 3.695991 1_556
Ho0 Ho3 3.695991 1_555
Ho1 Rh0 3.292247 1_455
Ho1 Ho3 3.533781 1_565
Ho1 Ho3 3.533781 1_566
Ho1 Ho5 3.533791 1_455
Ho1 Ho5 3.533791 1_456
Ho1 Ho4 3.695992 1_555
Ho1 Ho4 3.695992 1_556
Ho2 Rh0 3.292271 1_445
Ho2 Ho3 3.533777 1_556
Ho2 Ho3 3.533777 1_555
Ho2 Ho4 3.533780 1_555
Ho2 Ho4 3.533780 1_556
Ho2 Ho5 3.696008 1_556
Ho2 Ho5 3.696008 1_555
Ho3 Rh0 2.856120 1_445
Ho3 Rh0 2.856120 1_444
Ho3 Ho5 3.424230 1_445
Ho3 Ho4 3.424239 1_555
Ho4 Rh0 2.856127 1_444
Ho4 Rh0 2.856127 1_445
Ho4 Ho5 3.424226 1_445
Ho5 Rh0 2.856095 1_554
Ho5 Rh0 2.856095 1_555
Bi0 Ho4 3.255007 1_555
Bi0 Ho3 3.255008 1_565
Bi0 Ho5 3.255009 1_555
Bi0 Ho0 3.287695 1_564
Bi0 Ho0 3.287695 1_565
Bi0 Ho1 3.287700 1_555
Bi0 Ho1 3.287700 1_554
Bi0 Ho2 3.287703 1_555
Bi0 Ho2 3.287703 1_554
Bi1 Ho5 3.254992 1_555
Bi1 Ho4 3.255013 1_655
Bi1 Ho3 3.255019 1_555
Bi1 Ho1 3.287693 1_654
Bi1 Ho1 3.287693 1_655
Bi1 Ho2 3.287702 1_554
Bi1 Ho2 3.287702 1_555
Bi1 Ho0 3.287712 1_555
Bi1 Ho0 3.287712 1_554
