# generated using pymatgen
data_Hf9Mo4As
_symmetry_space_group_name_H-M   'P 1'
_cell_length_a   8.65838866
_cell_length_b   8.65823226
_cell_length_c   8.63174991
_cell_angle_alpha   89.99999664
_cell_angle_beta   90.00000316
_cell_angle_gamma   119.99956545
_symmetry_Int_Tables_number   1
_chemical_formula_structural   Hf9Mo4As
_chemical_formula_sum   'Hf18 Mo8 As2'
_cell_volume   560.39943746
_cell_formula_units_Z   2
loop_
 _symmetry_equiv_pos_site_id
 _symmetry_equiv_pos_as_xyz
  1  'x, y, z'
loop_
 _atom_site_type_symbol
 _atom_site_label
 _atom_site_symmetry_multiplicity
 _atom_site_fract_x
 _atom_site_fract_y
 _atom_site_fract_z
 _atom_site_occupancy
  Hf  Hf0  1  0.60851273  0.80425552  0.04442191  1
  Hf  Hf1  1  0.80427111  0.60853389  0.54445973  1
  Hf  Hf2  1  0.19574677  0.39150119  0.04443371  1
  Hf  Hf3  1  0.19574481  0.80424539  0.04443010  1
  Hf  Hf4  1  0.80427287  0.19573700  0.54445805  1
  Hf  Hf5  1  0.39145204  0.19572666  0.54444833  1
  Hf  Hf6  1  0.80427099  0.60853400  0.95553960  1
  Hf  Hf7  1  0.80427288  0.19573693  0.95554144  1
  Hf  Hf8  1  0.39145161  0.19572656  0.95555135  1
  Hf  Hf9  1  0.60851269  0.80425553  0.45557859  1
  Hf  Hf10  1  0.19574502  0.80424541  0.45557009  1
  Hf  Hf11  1  0.19574683  0.39150119  0.45556670  1
  Hf  Hf12  1  0.54073823  0.08147906  0.25000039  1
  Hf  Hf13  1  0.45925077  0.91849693  0.74999948  1
  Hf  Hf14  1  0.91852466  0.45926202  0.25000021  1
  Hf  Hf15  1  0.54073786  0.45925879  0.25000018  1
  Hf  Hf16  1  0.45924947  0.54075281  0.74999961  1
  Hf  Hf17  1  0.08149986  0.54074867  0.74999969  1
  Mo  Mo0  1  0.00000001  -0.00000000  0.99996160  1
  Mo  Mo1  1  -0.00000017  -0.00000009  0.50003846  1
  Mo  Mo2  1  0.89009763  0.78018329  0.24999973  1
  Mo  Mo3  1  0.10992180  0.21985673  0.75000024  1
  Mo  Mo4  1  0.21981516  0.10990828  0.24999971  1
  Mo  Mo5  1  0.89009811  0.10991536  0.24999976  1
  Mo  Mo6  1  0.10992110  0.89006583  0.75000023  1
  Mo  Mo7  1  0.78014528  0.89007270  0.75000017  1
  As  As0  1  0.66661870  0.33330663  0.74999990  1
  As  As1  1  0.33337915  0.66669370  0.25000005  1
loop_
_geom_bond_atom_site_label_1
_geom_bond_atom_site_label_2
_geom_bond_distance
_geom_bond_site_symmetry_2
Hf0 Mo7 2.848664 1_554
Hf0 Mo0 2.960514 1_664
Hf0 Mo2 3.105578 1_555
Hf0 Mo5 3.105585 1_565
Hf1 Mo2 2.849005 1_555
Hf1 Mo1 2.960260 1_665
Hf1 Mo6 3.105201 1_655
Hf1 Mo7 3.105246 1_555
Hf2 Mo3 2.848784 1_554
Hf2 Mo0 2.960578 1_554
Hf2 Mo5 3.105490 1_455
Hf2 Mo4 3.105527 1_555
Hf3 Mo6 2.848756 1_554
Hf3 Mo0 2.960568 1_564
Hf3 Mo2 3.105504 1_455
Hf3 Mo4 3.105549 1_565
Hf4 Mo5 2.848985 1_555
Hf4 Mo1 2.960251 1_655
Hf4 Mo3 3.105202 1_655
Hf4 Mo7 3.105245 1_545
Hf5 Mo4 2.848885 1_555
Hf5 Mo1 2.960197 1_555
Hf5 Mo6 3.105291 1_545
Hf5 Mo3 3.105293 1_555
Hf6 Mo2 2.849005 1_556
Hf6 Mo0 2.960261 1_665
Hf6 Mo6 3.105196 1_655
Hf6 Mo7 3.105239 1_555
Hf7 Mo5 2.848984 1_556
Hf7 Mo0 2.960251 1_655
Hf7 Mo3 3.105197 1_655
Hf7 Mo7 3.105241 1_545
Hf8 Mo4 2.848882 1_556
Hf8 Mo0 2.960193 1_555
Hf8 Mo6 3.105286 1_545
Hf8 Mo3 3.105286 1_555
Hf9 Mo7 2.848662 1_555
Hf9 Mo1 2.960513 1_665
Hf9 Mo2 3.105583 1_555
Hf9 Mo5 3.105590 1_565
Hf10 Mo6 2.848759 1_555
Hf10 Mo1 2.960570 1_565
Hf10 Mo2 3.105509 1_455
Hf10 Mo4 3.105553 1_565
Hf11 Mo3 2.848784 1_555
Hf11 Mo1 2.960579 1_555
Hf11 Mo5 3.105494 1_455
Hf11 Mo4 3.105531 1_555
Hf12 Mo4 2.909568 1_555
Hf12 Mo5 2.909614 1_555
Hf13 Mo7 2.909297 1_555
Hf13 Mo6 2.909373 1_555
Hf14 Mo5 2.909481 1_555
Hf14 Mo2 2.909494 1_555
Hf15 Mo4 2.909550 1_555
Hf15 Mo2 2.909611 1_555
Hf16 Mo7 2.909300 1_555
Hf16 Mo3 2.909348 1_555
Hf17 Mo3 2.909216 1_555
Hf17 Mo6 2.909246 1_555
Mo0 Mo6 2.715316 1_545
Mo0 Mo3 2.715320 1_555
Mo0 Mo7 2.715330 1_445
Mo0 Mo2 2.715665 1_446
Mo0 Mo5 2.715670 1_456
Mo0 Mo4 2.715676 1_556
Mo1 Mo6 2.715319 1_545
Mo1 Mo3 2.715324 1_555
Mo1 Mo7 2.715331 1_445
Mo1 Mo2 2.715669 1_445
Mo1 Mo5 2.715673 1_455
Mo1 Mo4 2.715681 1_555
Mo2 Mo4 2.854848 1_665
Mo2 Mo5 2.854895 1_565
Mo3 Mo7 2.855359 1_445
Mo3 Mo6 2.855403 1_545
Mo4 Mo5 2.854849 1_455
Mo6 Mo7 2.855357 1_455
As0 Hf5 2.721268 1_555
As0 Hf8 2.721270 1_555
As0 Hf7 2.721512 1_555
As0 Hf4 2.721514 1_555
As0 Hf6 2.721518 1_555
As0 Hf1 2.721520 1_555
As0 Hf13 3.110360 1_545
As0 Hf16 3.110411 1_555
As0 Hf17 3.110952 1_655
As1 Hf0 2.721230 1_555
As1 Hf9 2.721231 1_555
As1 Hf10 2.721457 1_555
As1 Hf3 2.721457 1_555
As1 Hf2 2.721470 1_555
As1 Hf11 2.721472 1_555
As1 Hf12 3.110178 1_565
As1 Hf15 3.110247 1_555
As1 Hf14 3.110752 1_455
