# generated using pymatgen
data_SiBiO3
_symmetry_space_group_name_H-M   'P 1'
_cell_length_a   3.79866600
_cell_length_b   3.79866600
_cell_length_c   3.79866600
_cell_angle_alpha   90.00000000
_cell_angle_beta   90.00000000
_cell_angle_gamma   90.00000000
_symmetry_Int_Tables_number   1
_chemical_formula_structural   SiBiO3
_chemical_formula_sum   'Si1 Bi1 O3'
_cell_volume   54.81423140
_cell_formula_units_Z   1
loop_
 _symmetry_equiv_pos_site_id
 _symmetry_equiv_pos_as_xyz
  1  'x, y, z'
loop_
 _atom_site_type_symbol
 _atom_site_label
 _atom_site_symmetry_multiplicity
 _atom_site_fract_x
 _atom_site_fract_y
 _atom_site_fract_z
 _atom_site_occupancy
  Si  Si0  1  0.00000000  0.00000000  0.00000000  1
  Bi  Bi0  1  0.50000000  0.50000000  0.50000000  1
  O  O0  1  0.00000000  0.00000000  0.50000000  1
  O  O1  1  0.00000000  0.50000000  0.00000000  1
  O  O2  1  0.50000000  0.00000000  0.00000000  1
loop_
_geom_bond_atom_site_label_1
_geom_bond_atom_site_label_2
_geom_bond_distance
_geom_bond_site_symmetry_2
Bi0 O2 2.686062 1_565
Bi0 O2 2.686062 1_566
Bi0 O1 2.686062 1_555
Bi0 O0 2.686062 1_555
Bi0 O0 2.686062 1_565
Bi0 O1 2.686062 1_556
Bi0 O0 2.686062 1_655
Bi0 O2 2.686062 1_555
Bi0 O2 2.686062 1_556
Bi0 O0 2.686062 1_665
Bi0 O1 2.686062 1_656
Bi0 O1 2.686062 1_655
O0 Si0 1.899333 1_556
O0 Si0 1.899333 1_555
O1 Si0 1.899333 1_565
O1 Si0 1.899333 1_555
O2 Si0 1.899333 1_555
O2 Si0 1.899333 1_655
