# generated using pymatgen
data_Mg3Pa
_symmetry_space_group_name_H-M   'P 1'
_cell_length_a   5.13721986
_cell_length_b   5.13721986
_cell_length_c   5.13721986
_cell_angle_alpha   60.00000000
_cell_angle_beta   60.00000000
_cell_angle_gamma   60.00000000
_symmetry_Int_Tables_number   1
_chemical_formula_structural   Mg3Pa
_chemical_formula_sum   'Mg3 Pa1'
_cell_volume   95.86707147
_cell_formula_units_Z   1
loop_
 _symmetry_equiv_pos_site_id
 _symmetry_equiv_pos_as_xyz
  1  'x, y, z'
loop_
 _atom_site_type_symbol
 _atom_site_label
 _atom_site_symmetry_multiplicity
 _atom_site_fract_x
 _atom_site_fract_y
 _atom_site_fract_z
 _atom_site_occupancy
  Mg  Mg0  1  0.75000000  0.75000000  0.75000000  1
  Mg  Mg1  1  0.00000000  0.00000000  0.00000000  1
  Mg  Mg2  1  0.25000000  0.25000000  0.25000000  1
  Pa  Pa0  1  0.50000000  0.50000000  0.50000000  1
loop_
_geom_bond_atom_site_label_1
_geom_bond_atom_site_label_2
_geom_bond_distance
_geom_bond_site_symmetry_2
Mg0 Mg1 3.145892 1_566
Mg0 Pa0 3.145892 1_555
Mg0 Mg1 3.145892 1_666
Mg0 Mg1 3.145892 1_656
Mg0 Mg1 3.145892 1_665
Mg0 Pa0 3.145892 1_565
Mg0 Pa0 3.145892 1_556
Mg0 Pa0 3.145892 1_655
Mg1 Mg2 3.145892 1_555
Mg1 Mg2 3.145892 1_545
Mg1 Mg2 3.145892 1_554
Mg1 Mg2 3.145892 1_455
Mg1 Pa0 3.632563 1_554
Mg1 Pa0 3.632563 1_455
Mg1 Pa0 3.632563 1_445
Mg1 Pa0 3.632563 1_544
Mg1 Pa0 3.632563 1_454
Mg1 Pa0 3.632563 1_545
Mg2 Pa0 3.145892 1_545
Mg2 Pa0 3.145892 1_455
Mg2 Pa0 3.145892 1_555
Mg2 Pa0 3.145892 1_554
