# generated using pymatgen
data_TaGaPt
_symmetry_space_group_name_H-M   'P 1'
_cell_length_a   4.34548937
_cell_length_b   4.34548937
_cell_length_c   4.34548937
_cell_angle_alpha   60.00000000
_cell_angle_beta   60.00000000
_cell_angle_gamma   60.00000000
_symmetry_Int_Tables_number   1
_chemical_formula_structural   TaGaPt
_chemical_formula_sum   'Ta1 Ga1 Pt1'
_cell_volume   58.02311994
_cell_formula_units_Z   1
loop_
 _symmetry_equiv_pos_site_id
 _symmetry_equiv_pos_as_xyz
  1  'x, y, z'
loop_
 _atom_site_type_symbol
 _atom_site_label
 _atom_site_symmetry_multiplicity
 _atom_site_fract_x
 _atom_site_fract_y
 _atom_site_fract_z
 _atom_site_occupancy
  Ta  Ta0  1  0.25000000  0.25000000  0.25000000  1
  Ga  Ga0  1  0.00000000  0.00000000  0.00000000  1
  Pt  Pt0  1  0.50000000  0.50000000  0.50000000  1
loop_
_geom_bond_atom_site_label_1
_geom_bond_atom_site_label_2
_geom_bond_distance
_geom_bond_site_symmetry_2
Ga0 Ta0 2.661058 1_455
Ga0 Ta0 2.661058 1_545
Ga0 Ta0 2.661058 1_555
Ga0 Ta0 2.661058 1_554
Ga0 Pt0 3.072725 1_544
Ga0 Pt0 3.072725 1_445
Ga0 Pt0 3.072725 1_454
Ga0 Pt0 3.072725 1_545
Ga0 Pt0 3.072725 1_455
Ga0 Pt0 3.072725 1_554
Pt0 Ta0 2.661058 1_556
Pt0 Ta0 2.661058 1_555
Pt0 Ta0 2.661058 1_655
Pt0 Ta0 2.661058 1_565
