# generated using pymatgen
data_Hg2H6CN3Cl5
_symmetry_space_group_name_H-M   'P 1'
_cell_length_a   8.07762432
_cell_length_b   8.07762432
_cell_length_c   18.54015100
_cell_angle_alpha   90.00000000
_cell_angle_beta   90.00000000
_cell_angle_gamma   150.74101402
_symmetry_Int_Tables_number   1
_chemical_formula_structural   Hg2H6CN3Cl5
_chemical_formula_sum   'Hg4 H12 C2 N6 Cl10'
_cell_volume   591.25457284
_cell_formula_units_Z   2
loop_
 _symmetry_equiv_pos_site_id
 _symmetry_equiv_pos_as_xyz
  1  'x, y, z'
loop_
 _atom_site_type_symbol
 _atom_site_label
 _atom_site_symmetry_multiplicity
 _atom_site_fract_x
 _atom_site_fract_y
 _atom_site_fract_z
 _atom_site_occupancy
  Hg  Hg0  1  0.98712000  0.71947100  0.96234000  1
  Hg  Hg1  1  0.01288000  0.28052900  0.46234000  1
  Hg  Hg2  1  0.71947100  0.98712000  0.03766000  1
  Hg  Hg3  1  0.28052900  0.01288000  0.53766000  1
  H  H0  1  0.42877800  0.41360100  0.18682100  1
  H  H1  1  0.57122200  0.58639900  0.68682100  1
  H  H2  1  0.41360100  0.42877800  0.81317900  1
  H  H3  1  0.58639900  0.57122200  0.31317900  1
  H  H4  1  0.66537500  0.19750900  0.20615600  1
  H  H5  1  0.33462500  0.80249100  0.70615600  1
  H  H6  1  0.19750900  0.66537500  0.79384400  1
  H  H7  1  0.80249100  0.33462500  0.29384400  1
  H  H8  1  0.36504500  0.16099800  0.15259000  1
  H  H9  1  0.63495500  0.83900200  0.65259000  1
  H  H10  1  0.16099800  0.36504500  0.84741000  1
  H  H11  1  0.83900200  0.63495500  0.34741000  1
  C  C0  1  0.61352000  0.38648000  0.25000000  1
  C  C1  1  0.38648000  0.61352000  0.75000000  1
  N  N0  1  0.69929400  0.30070600  0.25000000  1
  N  N1  1  0.30070600  0.69929400  0.75000000  1
  N  N2  1  0.44044200  0.29908000  0.19439800  1
  N  N3  1  0.55955800  0.70092000  0.69439800  1
  N  N4  1  0.29908000  0.44044200  0.80560200  1
  N  N5  1  0.70092000  0.55955800  0.30560200  1
  Cl  Cl0  1  0.35571200  0.35571200  0.00000000  1
  Cl  Cl1  1  0.64428800  0.64428800  0.50000000  1
  Cl  Cl2  1  0.08169800  0.68324600  0.07803700  1
  Cl  Cl3  1  0.91830200  0.31675400  0.57803700  1
  Cl  Cl4  1  0.68324600  0.08169800  0.92196300  1
  Cl  Cl5  1  0.31675400  0.91830200  0.42196300  1
  Cl  Cl6  1  0.94533800  0.72187300  0.83650400  1
  Cl  Cl7  1  0.05466200  0.27812700  0.33650400  1
  Cl  Cl8  1  0.72187300  0.94533800  0.16349600  1
  Cl  Cl9  1  0.27812700  0.05466200  0.66349600  1
loop_
_geom_bond_atom_site_label_1
_geom_bond_atom_site_label_2
_geom_bond_distance
_geom_bond_site_symmetry_2
H0 N2 1.018046 1_555
H1 N3 1.018046 1_555
H2 N4 1.018046 1_555
H3 N5 1.018046 1_555
H4 N0 1.015970 1_555
H5 N1 1.015970 1_555
H6 N1 1.015970 1_555
H7 N0 1.015970 1_555
H8 N2 1.015154 1_555
H9 N3 1.015154 1_555
H10 N4 1.015154 1_555
H11 N5 1.015154 1_555
C0 N5 1.339218 1_555
C0 N2 1.339218 1_555
C0 N0 1.340775 1_555
C1 N4 1.339218 1_555
C1 N3 1.339218 1_555
C1 N1 1.340775 1_555
Cl0 Hg2 2.997585 1_555
Cl0 Hg0 2.997585 1_554
Cl0 Hg0 3.010976 1_444
Cl0 Hg2 3.010976 1_445
Cl1 Hg1 2.997585 1_555
Cl1 Hg3 2.997585 1_555
Cl1 Hg3 3.010976 1_665
Cl1 Hg1 3.010976 1_665
Cl2 Hg0 2.379183 1_454
Cl3 Hg1 2.379183 1_655
Cl4 Hg2 2.379183 1_546
Cl5 Hg3 2.379183 1_565
Cl6 Hg0 2.359806 1_555
Cl7 Hg1 2.359806 1_555
Cl8 Hg2 2.359806 1_555
Cl9 Hg3 2.359806 1_555
