# generated using pymatgen
data_LiTl3
_symmetry_space_group_name_H-M   'P 1'
_cell_length_a   4.69762631
_cell_length_b   4.69762631
_cell_length_c   4.69828436
_cell_angle_alpha   90.00000000
_cell_angle_beta   90.00000000
_cell_angle_gamma   90.00000000
_symmetry_Int_Tables_number   1
_chemical_formula_structural   LiTl3
_chemical_formula_sum   'Li1 Tl3'
_cell_volume   103.68029664
_cell_formula_units_Z   1
loop_
 _symmetry_equiv_pos_site_id
 _symmetry_equiv_pos_as_xyz
  1  'x, y, z'
loop_
 _atom_site_type_symbol
 _atom_site_label
 _atom_site_symmetry_multiplicity
 _atom_site_fract_x
 _atom_site_fract_y
 _atom_site_fract_z
 _atom_site_occupancy
  Li  Li0  1  -0.00000000  -0.00000000  -0.00000000  1
  Tl  Tl0  1  0.50000100  -0.00000000  0.50000100  1
  Tl  Tl1  1  -0.00000000  0.50000100  0.50000100  1
  Tl  Tl2  1  0.50000100  0.50000100  0.00000000  1
loop_
_geom_bond_atom_site_label_1
_geom_bond_atom_site_label_2
_geom_bond_distance
_geom_bond_site_symmetry_2
Li0 Tl2 3.321717 1_445
Li0 Tl2 3.321723 1_545
Li0 Tl2 3.321723 1_455
Li0 Tl2 3.321730 1_555
Li0 Tl0 3.321949 1_454
Li0 Tl1 3.321949 1_544
Li0 Tl0 3.321956 1_554
Li0 Tl1 3.321956 1_554
Li0 Tl0 3.321956 1_455
Li0 Tl1 3.321956 1_545
Li0 Tl0 3.321963 1_555
Li0 Tl1 3.321963 1_555
Tl0 Tl1 3.321717 1_645
Tl0 Tl1 3.321723 1_545
Tl0 Tl1 3.321723 1_655
Tl0 Tl1 3.321730 1_555
Tl0 Tl2 3.321949 1_546
Tl0 Tl2 3.321956 1_556
Tl0 Tl2 3.321956 1_545
Tl0 Tl2 3.321963 1_555
Tl1 Tl2 3.321949 1_456
Tl1 Tl2 3.321956 1_556
Tl1 Tl2 3.321956 1_455
Tl1 Tl2 3.321963 1_555
