# generated using pymatgen
data_AlAs
_symmetry_space_group_name_H-M   'P 1'
_cell_length_a   5.44792800
_cell_length_b   5.44792800
_cell_length_c   10.69673000
_cell_angle_alpha   90.00000000
_cell_angle_beta   90.00000000
_cell_angle_gamma   90.00000000
_symmetry_Int_Tables_number   1
_chemical_formula_structural   AlAs
_chemical_formula_sum   'Al8 As8'
_cell_volume   317.47808524
_cell_formula_units_Z   8
loop_
 _symmetry_equiv_pos_site_id
 _symmetry_equiv_pos_as_xyz
  1  'x, y, z'
loop_
 _atom_site_type_symbol
 _atom_site_label
 _atom_site_symmetry_multiplicity
 _atom_site_fract_x
 _atom_site_fract_y
 _atom_site_fract_z
 _atom_site_occupancy
  Al  Al0_0  1  0.00000000  0.00000000  0.25000000  1
  Al  Al0_1  1  0.00000000  0.00000000  0.75000000  1
  Al  Al0_2  1  0.00000000  0.50000000  0.25000000  1
  Al  Al0_3  1  0.00000000  0.50000000  0.75000000  1
  Al  Al0_4  1  0.50000000  0.00000000  0.25000000  1
  Al  Al0_5  1  0.50000000  0.00000000  0.75000000  1
  Al  Al0_6  1  0.50000000  0.50000000  0.25000000  1
  Al  Al0_7  1  0.50000000  0.50000000  0.75000000  1
  As  As0_0  1  0.00000000  0.00000000  0.00000000  1
  As  As0_1  1  0.00000000  0.00000000  0.50000000  1
  As  As0_2  1  0.00000000  0.50000000  0.00000000  1
  As  As0_3  1  0.00000000  0.50000000  0.50000000  1
  As  As0_4  1  0.50000000  0.00000000  0.00000000  1
  As  As0_5  1  0.50000000  0.00000000  0.50000000  1
  As  As0_6  1  0.50000000  0.50000000  0.00000000  1
  As  As0_7  1  0.50000000  0.50000000  0.50000000  1
loop_
_geom_bond_atom_site_label_1
_geom_bond_atom_site_label_2
_geom_bond_distance
_geom_bond_site_symmetry_2
Al0_0 As0_1 2.674183 1_555
Al0_0 As0_0 2.674183 1_555
Al0_0 Al0_4 2.723964 1_455
Al0_0 Al0_4 2.723964 1_555
Al0_0 Al0_2 2.723964 1_555
Al0_0 Al0_2 2.723964 1_545
Al0_1 As0_1 2.674182 1_555
Al0_1 As0_0 2.674183 1_556
Al0_1 Al0_3 2.723964 1_555
Al0_1 Al0_5 2.723964 1_455
Al0_1 Al0_5 2.723964 1_555
Al0_1 Al0_3 2.723964 1_545
Al0_2 As0_2 2.674183 1_555
Al0_2 As0_3 2.674183 1_555
Al0_2 Al0_6 2.723964 1_455
Al0_2 Al0_6 2.723964 1_555
Al0_3 As0_3 2.674182 1_555
Al0_3 As0_2 2.674183 1_556
Al0_3 Al0_7 2.723964 1_555
Al0_3 Al0_7 2.723964 1_455
Al0_4 As0_4 2.674183 1_555
Al0_4 As0_5 2.674183 1_555
Al0_4 Al0_6 2.723964 1_545
Al0_4 Al0_6 2.723964 1_555
Al0_5 As0_5 2.674182 1_555
Al0_5 As0_4 2.674183 1_556
Al0_5 Al0_7 2.723964 1_555
Al0_5 Al0_7 2.723964 1_545
Al0_6 As0_7 2.674183 1_555
Al0_6 As0_6 2.674183 1_555
Al0_7 As0_7 2.674182 1_555
Al0_7 As0_6 2.674183 1_556
As0_0 As0_4 2.723964 1_555
As0_0 As0_2 2.723964 1_545
As0_0 As0_2 2.723964 1_555
As0_0 As0_4 2.723964 1_455
As0_1 As0_5 2.723964 1_455
As0_1 As0_5 2.723964 1_555
As0_1 As0_3 2.723964 1_555
As0_1 As0_3 2.723964 1_545
As0_2 As0_6 2.723964 1_555
As0_2 As0_6 2.723964 1_455
As0_3 As0_7 2.723964 1_555
As0_3 As0_7 2.723964 1_455
As0_4 As0_6 2.723964 1_555
As0_4 As0_6 2.723964 1_545
As0_5 As0_7 2.723964 1_545
As0_5 As0_7 2.723964 1_555
