# generated using pymatgen
data_KLu
_symmetry_space_group_name_H-M   'P 1'
_cell_length_a   7.18413576
_cell_length_b   7.18413576
_cell_length_c   14.20717600
_cell_angle_alpha   90.00000000
_cell_angle_beta   90.00000000
_cell_angle_gamma   119.99999776
_symmetry_Int_Tables_number   1
_chemical_formula_structural   KLu
_chemical_formula_sum   'K8 Lu8'
_cell_volume   635.02008693
_cell_formula_units_Z   8
loop_
 _symmetry_equiv_pos_site_id
 _symmetry_equiv_pos_as_xyz
  1  'x, y, z'
loop_
 _atom_site_type_symbol
 _atom_site_label
 _atom_site_symmetry_multiplicity
 _atom_site_fract_x
 _atom_site_fract_y
 _atom_site_fract_z
 _atom_site_occupancy
  K  K0_0  1  0.00000000  0.00000000  0.25000000  1
  K  K0_1  1  0.00000000  0.00000000  0.75000000  1
  K  K0_2  1  0.00000000  0.50000000  0.25000000  1
  K  K0_3  1  0.00000000  0.50000000  0.75000000  1
  K  K0_4  1  0.50000000  0.00000000  0.25000000  1
  K  K0_5  1  0.50000000  0.00000000  0.75000000  1
  K  K0_6  1  0.50000000  0.50000000  0.25000000  1
  K  K0_7  1  0.50000000  0.50000000  0.75000000  1
  Lu  Lu0_0  1  0.33333350  0.16666650  0.00000000  1
  Lu  Lu0_1  1  0.33333350  0.16666650  0.50000000  1
  Lu  Lu0_2  1  0.33333350  0.66666650  0.00000000  1
  Lu  Lu0_3  1  0.33333350  0.66666650  0.50000000  1
  Lu  Lu0_4  1  0.83333350  0.16666650  0.00000000  1
  Lu  Lu0_5  1  0.83333350  0.16666650  0.50000000  1
  Lu  Lu0_6  1  0.83333350  0.66666650  0.00000000  1
  Lu  Lu0_7  1  0.83333350  0.66666650  0.50000000  1
loop_
_geom_bond_atom_site_label_1
_geom_bond_atom_site_label_2
_geom_bond_distance
_geom_bond_site_symmetry_2
K0_0 K0_2 3.592068 1_555
K0_0 K0_2 3.592068 1_545
K0_0 K0_4 3.592068 1_455
K0_0 K0_4 3.592068 1_555
K0_0 K0_6 3.592068 1_445
K0_0 K0_6 3.592068 1_555
K0_0 Lu0_4 4.112933 1_455
K0_0 Lu0_5 4.112933 1_455
K0_0 Lu0_6 4.112934 1_445
K0_0 Lu0_7 4.112934 1_445
K0_0 Lu0_0 4.112934 1_555
K0_0 Lu0_1 4.112934 1_555
K0_1 K0_3 3.592068 1_555
K0_1 K0_5 3.592068 1_555
K0_1 K0_5 3.592068 1_455
K0_1 K0_3 3.592068 1_545
K0_1 K0_7 3.592068 1_445
K0_1 K0_7 3.592068 1_555
K0_1 Lu0_4 4.112933 1_456
K0_1 Lu0_5 4.112933 1_455
K0_1 Lu0_6 4.112934 1_446
K0_1 Lu0_7 4.112934 1_445
K0_1 Lu0_0 4.112934 1_556
K0_1 Lu0_1 4.112934 1_555
K0_2 K0_6 3.592068 1_455
K0_2 K0_6 3.592068 1_555
K0_2 K0_4 3.592068 1_565
K0_2 K0_4 3.592068 1_455
K0_2 Lu0_7 4.112933 1_455
K0_2 Lu0_6 4.112933 1_455
K0_2 Lu0_2 4.112934 1_555
K0_2 Lu0_3 4.112934 1_555
K0_2 Lu0_4 4.112934 1_455
K0_2 Lu0_5 4.112934 1_455
K0_3 K0_7 3.592068 1_455
K0_3 K0_7 3.592068 1_555
K0_3 K0_5 3.592068 1_565
K0_3 K0_5 3.592068 1_455
K0_3 Lu0_7 4.112933 1_455
K0_3 Lu0_6 4.112933 1_456
K0_3 Lu0_4 4.112934 1_456
K0_3 Lu0_3 4.112934 1_555
K0_3 Lu0_5 4.112934 1_455
K0_3 Lu0_2 4.112934 1_556
K0_4 K0_6 3.592068 1_555
K0_4 K0_6 3.592068 1_545
K0_4 Lu0_0 4.112933 1_555
K0_4 Lu0_1 4.112933 1_555
K0_4 Lu0_4 4.112934 1_555
K0_4 Lu0_5 4.112934 1_555
K0_4 Lu0_2 4.112934 1_545
K0_4 Lu0_3 4.112934 1_545
K0_5 K0_7 3.592068 1_555
K0_5 K0_7 3.592068 1_545
K0_5 Lu0_0 4.112933 1_556
K0_5 Lu0_1 4.112933 1_555
K0_5 Lu0_5 4.112934 1_555
K0_5 Lu0_2 4.112934 1_546
K0_5 Lu0_4 4.112934 1_556
K0_5 Lu0_3 4.112934 1_545
K0_6 Lu0_2 4.112933 1_555
K0_6 Lu0_3 4.112933 1_555
K0_6 Lu0_6 4.112934 1_555
K0_6 Lu0_7 4.112934 1_555
K0_6 Lu0_0 4.112934 1_555
K0_6 Lu0_1 4.112934 1_555
K0_7 Lu0_3 4.112933 1_555
K0_7 Lu0_2 4.112933 1_556
K0_7 Lu0_6 4.112934 1_556
K0_7 Lu0_0 4.112934 1_556
K0_7 Lu0_7 4.112934 1_555
K0_7 Lu0_1 4.112934 1_555
Lu0_0 Lu0_4 3.592068 1_455
Lu0_0 Lu0_2 3.592068 1_555
Lu0_0 Lu0_4 3.592068 1_555
Lu0_0 Lu0_2 3.592068 1_545
Lu0_0 Lu0_6 3.592068 1_555
Lu0_0 Lu0_6 3.592068 1_445
Lu0_1 Lu0_5 3.592068 1_455
Lu0_1 Lu0_3 3.592068 1_555
Lu0_1 Lu0_3 3.592068 1_545
Lu0_1 Lu0_5 3.592068 1_555
Lu0_1 Lu0_7 3.592068 1_445
Lu0_1 Lu0_7 3.592068 1_555
Lu0_2 Lu0_6 3.592068 1_555
Lu0_2 Lu0_6 3.592068 1_455
Lu0_2 Lu0_4 3.592068 1_565
Lu0_2 Lu0_4 3.592068 1_455
Lu0_3 Lu0_7 3.592068 1_555
Lu0_3 Lu0_7 3.592068 1_455
Lu0_3 Lu0_5 3.592068 1_565
Lu0_3 Lu0_5 3.592068 1_455
Lu0_4 Lu0_6 3.592068 1_555
Lu0_4 Lu0_6 3.592068 1_545
Lu0_5 Lu0_7 3.592068 1_555
Lu0_5 Lu0_7 3.592068 1_545
