# generated using pymatgen
data_RbCaBr3
_symmetry_space_group_name_H-M   'P 1'
_cell_length_a   4.37789821
_cell_length_b   9.69260383
_cell_length_c   16.09469918
_cell_angle_alpha   90.00000000
_cell_angle_beta   90.00000000
_cell_angle_gamma   90.00000000
_symmetry_Int_Tables_number   1
_chemical_formula_structural   RbCaBr3
_chemical_formula_sum   'Rb4 Ca4 Br12'
_cell_volume   682.95011969
_cell_formula_units_Z   4
loop_
 _symmetry_equiv_pos_site_id
 _symmetry_equiv_pos_as_xyz
  1  'x, y, z'
loop_
 _atom_site_type_symbol
 _atom_site_label
 _atom_site_symmetry_multiplicity
 _atom_site_fract_x
 _atom_site_fract_y
 _atom_site_fract_z
 _atom_site_occupancy
  Rb  Rb0  1  0.25000000  0.57053115  0.67816266  1
  Rb  Rb1  1  0.75000000  0.42946885  0.32183734  1
  Rb  Rb2  1  0.25000000  0.07053115  0.82183734  1
  Rb  Rb3  1  0.75000000  0.92946885  0.17816266  1
  Ca  Ca0  1  0.75000000  0.66963683  0.94454094  1
  Ca  Ca1  1  0.25000000  0.33036317  0.05545906  1
  Ca  Ca2  1  0.75000000  0.16963683  0.55545906  1
  Ca  Ca3  1  0.25000000  0.83036317  0.44454094  1
  Br  Br0  1  0.25000000  0.83479482  0.00963616  1
  Br  Br1  1  0.75000000  0.16520518  0.99036384  1
  Br  Br2  1  0.25000000  0.33479482  0.49036384  1
  Br  Br3  1  0.75000000  0.66520518  0.50963616  1
  Br  Br4  1  0.75000000  0.51936821  0.10299737  1
  Br  Br5  1  0.25000000  0.48063179  0.89700263  1
  Br  Br6  1  0.75000000  0.01936821  0.39700263  1
  Br  Br7  1  0.25000000  0.98063179  0.60299737  1
  Br  Br8  1  0.75000000  0.79246392  0.78637274  1
  Br  Br9  1  0.25000000  0.20753608  0.21362726  1
  Br  Br10  1  0.75000000  0.29246392  0.71362726  1
  Br  Br11  1  0.25000000  0.70753608  0.28637274  1
loop_
_geom_bond_atom_site_label_1
_geom_bond_atom_site_label_2
_geom_bond_distance
_geom_bond_site_symmetry_2
Br0 Ca0 2.907188 1_554
Br0 Ca0 2.907188 1_454
Br0 Rb3 3.604245 1_555
Br0 Rb3 3.604245 1_455
Br0 Rb2 3.789019 1_564
Br1 Ca1 2.907188 1_556
Br1 Ca1 2.907188 1_656
Br1 Rb2 3.604245 1_655
Br1 Rb2 3.604245 1_555
Br1 Rb3 3.789019 1_546
Br2 Ca2 2.907188 1_455
Br2 Ca2 2.907188 1_555
Br2 Rb1 3.604245 1_555
Br2 Rb1 3.604245 1_455
Br2 Rb0 3.789019 1_555
Br3 Ca3 2.907188 1_555
Br3 Ca3 2.907188 1_655
Br3 Rb0 3.604245 1_655
Br3 Rb0 3.604245 1_555
Br3 Rb1 3.789019 1_555
Br4 Ca0 2.936912 1_554
Br4 Ca1 2.955155 1_655
Br4 Ca1 2.955155 1_555
Br4 Rb1 3.628347 1_555
Br5 Ca1 2.936912 1_556
Br5 Ca0 2.955155 1_455
Br5 Ca0 2.955155 1_555
Br5 Rb0 3.628347 1_555
Br6 Ca2 2.936912 1_555
Br6 Ca3 2.955155 1_545
Br6 Ca3 2.955155 1_645
Br6 Rb3 3.628347 1_545
Br7 Ca3 2.936912 1_555
Br7 Ca2 2.955155 1_465
Br7 Ca2 2.955155 1_565
Br7 Rb2 3.628347 1_565
Br8 Ca0 2.810295 1_555
Br8 Rb2 3.518719 1_565
Br8 Rb2 3.518719 1_665
Br8 Rb0 3.528733 1_655
Br8 Rb0 3.528733 1_555
Br9 Ca1 2.810295 1_555
Br9 Rb3 3.518719 1_545
Br9 Rb3 3.518719 1_445
Br9 Rb1 3.528733 1_455
Br9 Rb1 3.528733 1_555
Br10 Ca2 2.810295 1_555
Br10 Rb0 3.518719 1_555
Br10 Rb0 3.518719 1_655
Br10 Rb2 3.528733 1_655
Br10 Rb2 3.528733 1_555
Br11 Ca3 2.810295 1_555
Br11 Rb1 3.518719 1_555
Br11 Rb1 3.518719 1_455
Br11 Rb3 3.528733 1_555
Br11 Rb3 3.528733 1_455
