# generated using pymatgen
data_Sr3Bi
_symmetry_space_group_name_H-M   'P 1'
_cell_length_a   7.78594684
_cell_length_b   7.78594684
_cell_length_c   6.29638100
_cell_angle_alpha   90.00000000
_cell_angle_beta   90.00000000
_cell_angle_gamma   120.00000715
_symmetry_Int_Tables_number   1
_chemical_formula_structural   Sr3Bi
_chemical_formula_sum   'Sr6 Bi2'
_cell_volume   330.55556163
_cell_formula_units_Z   2
loop_
 _symmetry_equiv_pos_site_id
 _symmetry_equiv_pos_as_xyz
  1  'x, y, z'
loop_
 _atom_site_type_symbol
 _atom_site_label
 _atom_site_symmetry_multiplicity
 _atom_site_fract_x
 _atom_site_fract_y
 _atom_site_fract_z
 _atom_site_occupancy
  Sr  Sr0  1  0.17117100  0.34234100  0.25000000  1
  Sr  Sr1  1  0.65765900  0.82882900  0.25000000  1
  Sr  Sr2  1  0.17117100  0.82882900  0.25000000  1
  Sr  Sr3  1  0.82882900  0.65765900  0.75000000  1
  Sr  Sr4  1  0.34234100  0.17117100  0.75000000  1
  Sr  Sr5  1  0.82882900  0.17117100  0.75000000  1
  Bi  Bi0  1  0.33333300  0.66666700  0.75000000  1
  Bi  Bi1  1  0.66666700  0.33333300  0.25000000  1
loop_
_geom_bond_atom_site_label_1
_geom_bond_atom_site_label_2
_geom_bond_distance
_geom_bond_site_symmetry_2
Bi0 Sr2 3.833205 1_556
Bi0 Sr2 3.833205 1_555
Bi0 Sr0 3.833213 1_556
Bi0 Sr0 3.833213 1_555
Bi0 Sr1 3.833213 1_555
Bi0 Sr1 3.833213 1_556
Bi0 Sr5 3.893447 1_565
Bi0 Sr5 3.893447 1_455
Bi0 Sr4 3.893447 1_565
Bi0 Sr3 3.893447 1_455
Bi0 Sr3 3.893447 1_555
Bi0 Sr4 3.893447 1_555
Bi1 Sr5 3.833205 1_555
Bi1 Sr5 3.833205 1_554
Bi1 Sr3 3.833213 1_554
Bi1 Sr3 3.833213 1_555
Bi1 Sr4 3.833213 1_555
Bi1 Sr4 3.833213 1_554
Bi1 Sr2 3.893447 1_655
Bi1 Sr2 3.893447 1_545
Bi1 Sr0 3.893447 1_655
Bi1 Sr1 3.893447 1_545
Bi1 Sr1 3.893447 1_555
Bi1 Sr0 3.893447 1_555
