# generated using pymatgen
data_MgPd5
_symmetry_space_group_name_H-M   'P 1'
_cell_length_a   4.80605972
_cell_length_b   4.80606158
_cell_length_c   5.33117182
_cell_angle_alpha   116.83451637
_cell_angle_beta   63.16548383
_cell_angle_gamma   119.99748751
_symmetry_Int_Tables_number   1
_chemical_formula_structural   MgPd5
_chemical_formula_sum   'Mg1 Pd5'
_cell_volume   91.01136802
_cell_formula_units_Z   1
loop_
 _symmetry_equiv_pos_site_id
 _symmetry_equiv_pos_as_xyz
  1  'x, y, z'
loop_
 _atom_site_type_symbol
 _atom_site_label
 _atom_site_symmetry_multiplicity
 _atom_site_fract_x
 _atom_site_fract_y
 _atom_site_fract_z
 _atom_site_occupancy
  Mg  Mg0  1  0.83333057  0.49999757  0.50000000  1
  Pd  Pd0  1  0.33325221  0.66833445  0.00007167  1
  Pd  Pd1  1  0.00166645  0.99991721  0.99992833  1
  Pd  Pd2  1  0.50171800  0.83178923  0.49518787  1
  Pd  Pd3  1  0.16512423  0.16838500  0.50481013  1
  Pd  Pd4  1  0.66490655  0.33157355  0.00000000  1
loop_
_geom_bond_atom_site_label_1
_geom_bond_atom_site_label_2
_geom_bond_distance
_geom_bond_site_symmetry_2
Mg0 Pd2 2.774626 1_555
Mg0 Pd3 2.774628 1_655
Mg0 Pd3 2.774661 1_555
Mg0 Pd2 2.774668 1_545
Mg0 Pd2 2.775412 1_655
Mg0 Pd3 2.775416 1_665
Mg0 Pd0 2.783972 1_556
Mg0 Pd1 2.783977 1_644
Mg0 Pd1 2.784292 1_655
Mg0 Pd0 2.784296 1_655
Mg0 Pd4 2.785788 1_555
Mg0 Pd4 2.785789 1_556
Pd0 Pd1 2.760584 1_554
Pd0 Pd4 2.760684 1_565
Pd0 Pd3 2.766715 1_554
Pd0 Pd2 2.767903 1_555
Pd0 Pd4 2.781851 1_555
Pd0 Pd1 2.781951 1_654
Pd0 Pd1 2.781965 1_544
Pd0 Pd4 2.781966 1_455
Pd0 Pd3 2.794566 1_565
Pd0 Pd2 2.796959 1_554
Pd1 Pd4 2.760687 1_566
Pd1 Pd2 2.766707 1_456
Pd1 Pd3 2.767915 1_565
Pd1 Pd4 2.781855 1_466
Pd1 Pd4 2.781958 1_456
Pd1 Pd2 2.794573 1_555
Pd1 Pd3 2.796954 1_566
Pd2 Pd4 2.765877 1_555
Pd2 Pd3 2.774988 1_555
Pd2 Pd3 2.774995 1_665
Pd2 Pd3 2.775500 1_565
Pd2 Pd4 2.795203 1_566
Pd3 Pd4 2.765887 1_456
Pd3 Pd4 2.795193 1_555
