# generated using pymatgen
data_Zn3Ni
_symmetry_space_group_name_H-M   'P 1'
_cell_length_a   4.64227221
_cell_length_b   4.64227221
_cell_length_c   4.64227221
_cell_angle_alpha   134.19623403
_cell_angle_beta   134.19623403
_cell_angle_gamma   66.78166865
_symmetry_Int_Tables_number   1
_chemical_formula_structural   Zn3Ni
_chemical_formula_sum   'Zn3 Ni1'
_cell_volume   50.59975795
_cell_formula_units_Z   1
loop_
 _symmetry_equiv_pos_site_id
 _symmetry_equiv_pos_as_xyz
  1  'x, y, z'
loop_
 _atom_site_type_symbol
 _atom_site_label
 _atom_site_symmetry_multiplicity
 _atom_site_fract_x
 _atom_site_fract_y
 _atom_site_fract_z
 _atom_site_occupancy
  Zn  Zn0  1  0.75000000  0.25000000  0.50000000  1
  Zn  Zn1  1  0.25000000  0.75000000  0.50000000  1
  Zn  Zn2  1  0.50000000  0.50000000  0.00000000  1
  Ni  Ni0  1  0.00000000  0.00000000  0.00000000  1
loop_
_geom_bond_atom_site_label_1
_geom_bond_atom_site_label_2
_geom_bond_distance
_geom_bond_site_symmetry_2
Zn0 Zn1 2.554861 1_544
Zn0 Zn1 2.554861 1_555
Zn0 Zn1 2.554861 1_656
Zn0 Zn1 2.554861 1_645
Zn0 Zn2 2.649434 1_656
Zn0 Zn2 2.649434 1_555
Zn0 Zn2 2.649434 1_556
Zn0 Zn2 2.649434 1_545
Zn1 Zn2 2.649434 1_555
Zn1 Zn2 2.649434 1_455
Zn1 Zn2 2.649434 1_556
Zn1 Zn2 2.649434 1_566
Ni0 Zn2 2.554861 1_444
Ni0 Zn2 2.554861 1_455
Ni0 Zn2 2.554861 1_556
Ni0 Zn2 2.554861 1_545
Ni0 Zn0 2.649434 1_555
Ni0 Zn1 2.649434 1_444
Ni0 Zn1 2.649434 1_544
Ni0 Zn1 2.649434 1_555
Ni0 Zn1 2.649434 1_545
Ni0 Zn0 2.649434 1_455
Ni0 Zn0 2.649434 1_444
Ni0 Zn0 2.649434 1_454
