# generated using pymatgen
data_AlTlS2
_symmetry_space_group_name_H-M   'P 1'
_cell_length_a   7.29505613
_cell_length_b   7.29505613
_cell_length_c   15.26231157
_cell_angle_alpha   83.12363145
_cell_angle_beta   83.12363145
_cell_angle_gamma   89.95337545
_symmetry_Int_Tables_number   1
_chemical_formula_structural   AlTlS2
_chemical_formula_sum   'Al8 Tl8 S16'
_cell_volume   800.50900030
_cell_formula_units_Z   8
loop_
 _symmetry_equiv_pos_site_id
 _symmetry_equiv_pos_as_xyz
  1  'x, y, z'
loop_
 _atom_site_type_symbol
 _atom_site_label
 _atom_site_symmetry_multiplicity
 _atom_site_fract_x
 _atom_site_fract_y
 _atom_site_fract_z
 _atom_site_occupancy
  Al  Al0  1  0.41831438  0.29214982  0.33720656  1
  Al  Al1  1  0.70785018  0.58168562  0.16279344  1
  Al  Al2  1  0.58168562  0.70785018  0.66279344  1
  Al  Al3  1  0.29214982  0.41831438  0.83720656  1
  Al  Al4  1  0.70782095  0.08803922  0.16397913  1
  Al  Al5  1  0.91196078  0.29217905  0.33602087  1
  Al  Al6  1  0.29217905  0.91196078  0.83602087  1
  Al  Al7  1  0.08803922  0.70782095  0.66397913  1
  Tl  Tl0  1  0.65248352  0.78158705  0.38590682  1
  Tl  Tl1  1  0.21841295  0.34751648  0.11409318  1
  Tl  Tl2  1  0.34751648  0.21841295  0.61409318  1
  Tl  Tl3  1  0.78158705  0.65248352  0.88590682  1
  Tl  Tl4  1  0.22733788  0.85039862  0.11144130  1
  Tl  Tl5  1  0.14960138  0.77266212  0.38855870  1
  Tl  Tl6  1  0.77266212  0.14960138  0.88855870  1
  Tl  Tl7  1  0.85039862  0.22733788  0.61144130  1
  S  S0  1  0.43425528  0.06054854  0.25119827  1
  S  S1  1  0.93945146  0.56574472  0.24880173  1
  S  S2  1  0.56574472  0.93945146  0.74880173  1
  S  S3  1  0.06054854  0.43425528  0.75119827  1
  S  S4  1  0.43437148  0.56562852  0.25000000  1
  S  S5  1  0.56562852  0.43437148  0.75000000  1
  S  S6  1  0.93958208  0.06041792  0.25000000  1
  S  S7  1  0.06041792  0.93958208  0.75000000  1
  S  S8  1  0.72657664  0.85727376  0.07722492  1
  S  S9  1  0.14272624  0.27342336  0.42277508  1
  S  S10  1  0.27342336  0.14272624  0.92277508  1
  S  S11  1  0.85727376  0.72657664  0.57722492  1
  S  S12  1  0.64360815  0.26991346  0.42681759  1
  S  S13  1  0.73008654  0.35639185  0.07318241  1
  S  S14  1  0.35639185  0.73008654  0.57318241  1
  S  S15  1  0.26991346  0.64360815  0.92681759  1
loop_
_geom_bond_atom_site_label_1
_geom_bond_atom_site_label_2
_geom_bond_distance
_geom_bond_site_symmetry_2
Al0 S12 2.254489 1_555
Al0 S0 2.255089 1_555
Al0 S4 2.256683 1_555
Al0 S9 2.257229 1_555
Al1 S13 2.254489 1_555
Al1 S1 2.255089 1_555
Al1 S4 2.256683 1_555
Al1 S8 2.257229 1_555
Al2 S14 2.254489 1_555
Al2 S2 2.255089 1_555
Al2 S5 2.256683 1_555
Al2 S11 2.257229 1_555
Al3 S15 2.254489 1_555
Al3 S3 2.255089 1_555
Al3 S5 2.256683 1_555
Al3 S10 2.257229 1_555
Al4 S13 2.253028 1_555
Al4 S6 2.256184 1_555
Al4 S0 2.257331 1_555
Al4 S8 2.257402 1_545
Al5 S12 2.253028 1_555
Al5 S6 2.256184 1_555
Al5 S1 2.257331 1_555
Al5 S9 2.257402 1_655
Al6 S15 2.253028 1_555
Al6 S7 2.256184 1_555
Al6 S2 2.257331 1_555
Al6 S10 2.257402 1_565
Al7 S14 2.253028 1_555
Al7 S7 2.256184 1_555
Al7 S3 2.257331 1_555
Al7 S11 2.257402 1_455
