# generated using pymatgen
data_H9C8NO2
_symmetry_space_group_name_H-M   'P 1'
_cell_length_a   9.85962100
_cell_length_b   7.12492500
_cell_length_c   13.03458586
_cell_angle_alpha   63.59662076
_cell_angle_beta   90.00000000
_cell_angle_gamma   90.00000000
_symmetry_Int_Tables_number   1
_chemical_formula_structural   H9C8NO2
_chemical_formula_sum   'H36 C32 N4 O8'
_cell_volume   820.15004989
_cell_formula_units_Z   4
loop_
 _symmetry_equiv_pos_site_id
 _symmetry_equiv_pos_as_xyz
  1  'x, y, z'
loop_
 _atom_site_type_symbol
 _atom_site_label
 _atom_site_symmetry_multiplicity
 _atom_site_fract_x
 _atom_site_fract_y
 _atom_site_fract_z
 _atom_site_occupancy
  H  H0  1  0.41992300  0.37869300  0.99672700  1
  H  H1  1  0.91992300  0.62130700  0.50327300  1
  H  H2  1  0.58007700  0.62130700  0.00327300  1
  H  H3  1  0.08007700  0.37869300  0.49672700  1
  H  H4  1  0.26911800  0.24841300  0.16450600  1
  H  H5  1  0.76911800  0.75158700  0.33549400  1
  H  H6  1  0.73088200  0.75158700  0.83549400  1
  H  H7  1  0.23088200  0.24841300  0.66450600  1
  H  H8  1  0.10688100  0.78600400  0.06937000  1
  H  H9  1  0.60688100  0.21399600  0.43063000  1
  H  H10  1  0.89311900  0.21399600  0.93063000  1
  H  H11  1  0.39311900  0.78600400  0.56937000  1
  H  H12  1  0.26199200  0.91132900  0.90340000  1
  H  H13  1  0.76199200  0.08867100  0.59660000  1
  H  H14  1  0.73800800  0.08867100  0.09660000  1
  H  H15  1  0.23800800  0.91132900  0.40340000  1
  H  H16  1  0.05188400  0.80400500  0.24139500  1
  H  H17  1  0.55188400  0.19599500  0.25860500  1
  H  H18  1  0.94811600  0.19599500  0.75860500  1
  H  H19  1  0.44811600  0.80400500  0.74139500  1
  H  H20  1  0.44548700  0.11053000  0.80794100  1
  H  H21  1  0.94548700  0.88947000  0.69205900  1
  H  H22  1  0.55451300  0.88947000  0.19205900  1
  H  H23  1  0.05451300  0.11053000  0.30794100  1
  H  H24  1  0.57028200  0.56532500  0.60715600  1
  H  H25  1  0.07028200  0.43467500  0.89284400  1
  H  H26  1  0.42971800  0.43467500  0.39284400  1
  H  H27  1  0.92971800  0.56532500  0.10715600  1
  H  H28  1  0.57559100  0.28521700  0.66253600  1
  H  H29  1  0.07559100  0.71478300  0.83746400  1
  H  H30  1  0.42440900  0.71478300  0.33746400  1
  H  H31  1  0.92440900  0.28521700  0.16253600  1
  H  H32  1  0.69671400  0.42100000  0.70602600  1
  H  H33  1  0.19671400  0.57900000  0.79397400  1
  H  H34  1  0.30328600  0.57900000  0.29397400  1
  H  H35  1  0.80328600  0.42100000  0.20602600  1
  C  C0  1  0.35131700  0.15537100  0.93719300  1
  C  C1  1  0.85131700  0.84462900  0.56280700  1
  C  C2  1  0.64868300  0.84462900  0.06280700  1
  C  C3  1  0.14868300  0.15537100  0.43719300  1
  C  C4  1  0.35192200  0.24928300  0.01173000  1
  C  C5  1  0.85192200  0.75071700  0.48827000  1
  C  C6  1  0.64807800  0.75071700  0.98827000  1
  C  C7  1  0.14807800  0.24928300  0.51173000  1
  C  C8  1  0.26545800  0.17638900  0.10620900  1
  C  C9  1  0.76545800  0.82361100  0.39379100  1
  C  C10  1  0.73454200  0.82361100  0.89379100  1
  C  C11  1  0.23454200  0.17638900  0.60620900  1
  C  C12  1  0.17627200  0.00960200  0.12813400  1
  C  C13  1  0.67627200  0.99039800  0.37186600  1
  C  C14  1  0.82372800  0.99039800  0.87186600  1
  C  C15  1  0.32372800  0.00960200  0.62813400  1
  C  C16  1  0.17621500  0.91487100  0.05408800  1
  C  C17  1  0.67621500  0.08512900  0.44591200  1
  C  C18  1  0.82378500  0.08512900  0.94591200  1
  C  C19  1  0.32378500  0.91487100  0.55408800  1
  C  C20  1  0.26308000  0.98669000  0.96019100  1
  C  C21  1  0.76308000  0.01331000  0.53980900  1
  C  C22  1  0.73692000  0.01331000  0.03980900  1
  C  C23  1  0.23692000  0.98669000  0.46019100  1
  C  C24  1  0.50134200  0.40265500  0.78114900  1
  C  C25  1  0.00134200  0.59734500  0.71885100  1
  C  C26  1  0.49865800  0.59734500  0.21885100  1
  C  C27  1  0.99865800  0.40265500  0.28114900  1
  C  C28  1  0.58967300  0.41705600  0.68334100  1
  C  C29  1  0.08967300  0.58294400  0.81665900  1
  C  C30  1  0.41032700  0.58294400  0.31665900  1
  C  C31  1  0.91032700  0.41705600  0.18334100  1
  N  N0  1  0.43780000  0.21660200  0.84097100  1
  N  N1  1  0.93780000  0.78339800  0.65902900  1
  N  N2  1  0.56220000  0.78339800  0.15902900  1
  N  N3  1  0.06220000  0.21660200  0.34097100  1
  O  O0  1  0.09166700  0.94604800  0.22085400  1
  O  O1  1  0.59166700  0.05395200  0.27914600  1
  O  O2  1  0.90833300  0.05395200  0.77914600  1
  O  O3  1  0.40833300  0.94604800  0.72085400  1
  O  O4  1  0.49026300  0.55361900  0.80559700  1
  O  O5  1  0.99026300  0.44638100  0.69440300  1
  O  O6  1  0.50973700  0.44638100  0.19440300  1
  O  O7  1  0.00973700  0.55361900  0.30559700  1
loop_
_geom_bond_atom_site_label_1
_geom_bond_atom_site_label_2
_geom_bond_distance
_geom_bond_site_symmetry_2
H16 O0 1.004384 1_555
H16 O7 1.651612 1_555
H17 O1 1.004384 1_555
H17 O6 1.651612 1_555
H18 O2 1.004384 1_555
H18 O5 1.651612 1_555
H19 O3 1.004384 1_555
H19 O4 1.651612 1_555
H20 N0 1.025500 1_555
H21 N1 1.025500 1_555
H22 N2 1.025500 1_555
H23 N3 1.025500 1_555
C0 C4 1.403513 1_556
C0 C20 1.403827 1_545
C0 N0 1.415563 1_555
C1 C5 1.403513 1_555
C1 C21 1.403827 1_565
C1 N1 1.415563 1_555
C2 C6 1.403513 1_554
C2 C22 1.403827 1_565
C2 N2 1.415563 1_555
C3 C7 1.403513 1_555
C3 N3 1.415563 1_555
C4 H0 1.085151 1_554
C4 C8 1.394360 1_555
C5 H1 1.085151 1_555
C5 C9 1.394360 1_555
C6 H2 1.085151 1_556
C7 H3 1.085151 1_555
C8 H4 1.090349 1_555
C9 H5 1.090349 1_555
C10 H6 1.090349 1_555
C10 C6 1.394360 1_555
C10 C14 1.401797 1_555
C11 H7 1.090349 1_555
C11 C7 1.394360 1_555
C11 C15 1.401797 1_555
C12 O0 1.369234 1_545
C12 C8 1.401797 1_555
C13 O1 1.369234 1_565
C13 C9 1.401797 1_555
C14 O2 1.369234 1_565
C15 O3 1.369234 1_545
C16 H8 1.089664 1_555
C16 C20 1.391514 1_554
C17 H9 1.089664 1_555
C17 C21 1.391514 1_555
C18 H10 1.089664 1_555
C18 C22 1.391514 1_556
C19 H11 1.089664 1_555
C19 C23 1.391514 1_555
C20 H12 1.090819 1_555
C21 H13 1.090819 1_555
C22 H14 1.090819 1_555
C23 H15 1.090819 1_555
C23 C3 1.403827 1_565
C24 O4 1.255093 1_555
C24 N0 1.355900 1_555
C24 C28 1.509307 1_555
C25 O5 1.255093 1_455
C25 N1 1.355900 1_455
C25 C29 1.509307 1_555
C26 O6 1.255093 1_555
C26 N2 1.355900 1_555
C26 C30 1.509307 1_555
C27 O7 1.255093 1_655
C27 N3 1.355900 1_655
C27 C31 1.509307 1_555
C28 H28 1.096239 1_555
C28 H24 1.098031 1_555
C28 H32 1.099748 1_555
C29 H29 1.096239 1_555
C29 H25 1.098031 1_555
C29 H33 1.099748 1_555
C30 H30 1.096239 1_555
C30 H26 1.098031 1_555
C30 H34 1.099748 1_555
C31 H31 1.096239 1_555
C31 H27 1.098031 1_555
C31 H35 1.099748 1_555
