# generated using pymatgen
data_RbBaSiHO4
_symmetry_space_group_name_H-M   'P 1'
_cell_length_a   8.24781700
_cell_length_b   5.98007200
_cell_length_c   6.05275692
_cell_angle_alpha   61.90531626
_cell_angle_beta   90.00000000
_cell_angle_gamma   90.00000000
_symmetry_Int_Tables_number   1
_chemical_formula_structural   RbBaSiHO4
_chemical_formula_sum   'Rb2 Ba2 Si2 H2 O8'
_cell_volume   263.36085632
_cell_formula_units_Z   2
loop_
 _symmetry_equiv_pos_site_id
 _symmetry_equiv_pos_as_xyz
  1  'x, y, z'
loop_
 _atom_site_type_symbol
 _atom_site_label
 _atom_site_symmetry_multiplicity
 _atom_site_fract_x
 _atom_site_fract_y
 _atom_site_fract_z
 _atom_site_occupancy
  Rb  Rb0  1  0.23059500  0.36479500  0.29003200  1
  Rb  Rb1  1  0.73059500  0.63520500  0.70996800  1
  Ba  Ba0  1  0.48226000  0.01573000  0.99035100  1
  Ba  Ba1  1  0.98226000  0.98427000  0.00964900  1
  Si  Si0  1  0.24564600  0.69460300  0.62037800  1
  Si  Si1  1  0.74564600  0.30539700  0.37962200  1
  H  H0  1  0.01161500  0.51442800  0.54086700  1
  H  H1  1  0.51161500  0.48557200  0.45913300  1
  O  O0  1  0.23842500  0.84249800  0.78869600  1
  O  O1  1  0.73842500  0.15750200  0.21130400  1
  O  O2  1  0.23815100  0.88514800  0.31734200  1
  O  O3  1  0.73815100  0.11485200  0.68265800  1
  O  O4  1  0.39789400  0.49324300  0.69205600  1
  O  O5  1  0.89789400  0.50675700  0.30794400  1
  O  O6  1  0.07241600  0.50779600  0.68951300  1
  O  O7  1  0.57241600  0.49220400  0.31048700  1
loop_
_geom_bond_atom_site_label_1
_geom_bond_atom_site_label_2
_geom_bond_distance
_geom_bond_site_symmetry_2
Ba0 O4 2.653732 1_555
Ba0 O2 2.669265 1_546
Ba0 O3 2.689700 1_555
Ba0 O0 2.792567 1_545
Ba0 O1 2.835347 1_556
Ba0 O7 2.897471 1_546
Ba1 O5 2.653732 1_555
Ba1 O3 2.669265 1_564
Ba1 O2 2.689700 1_655
Ba1 O1 2.792567 1_565
Ba1 O0 2.835347 1_654
Ba1 O6 2.897471 1_664
H0 O6 1.014364 1_555
H0 Rb1 2.763645 1_455
H0 Rb0 2.765383 1_555
H1 O7 1.014364 1_555
H1 Rb0 2.763645 1_555
H1 Rb1 2.765383 1_555
O0 Si0 1.634727 1_555
O0 Rb0 3.034520 1_556
O0 Rb0 3.160786 1_565
O1 Si1 1.634727 1_555
O1 Rb1 3.034520 1_554
O1 Rb1 3.160786 1_545
O2 Si0 1.642562 1_555
O2 Rb0 2.794981 1_565
O2 Rb0 3.193533 1_555
O3 Si1 1.642562 1_555
O3 Rb1 2.794981 1_545
O3 Rb1 3.193533 1_555
O4 Si0 1.650142 1_555
O4 Rb1 2.889463 1_555
O5 Si1 1.650142 1_555
O5 Rb0 2.889463 1_655
O6 Si0 1.739010 1_555
O6 Rb1 2.938199 1_455
O7 Si1 1.739010 1_555
O7 Rb0 2.938199 1_555
