# generated using pymatgen
data_RbAc3
_symmetry_space_group_name_H-M   'P 1'
_cell_length_a   8.39693523
_cell_length_b   8.39693523
_cell_length_c   6.58399100
_cell_angle_alpha   90.00000000
_cell_angle_beta   90.00000000
_cell_angle_gamma   119.99999393
_symmetry_Int_Tables_number   1
_chemical_formula_structural   RbAc3
_chemical_formula_sum   'Rb2 Ac6'
_cell_volume   402.03280615
_cell_formula_units_Z   2
loop_
 _symmetry_equiv_pos_site_id
 _symmetry_equiv_pos_as_xyz
  1  'x, y, z'
loop_
 _atom_site_type_symbol
 _atom_site_label
 _atom_site_symmetry_multiplicity
 _atom_site_fract_x
 _atom_site_fract_y
 _atom_site_fract_z
 _atom_site_occupancy
  Rb  Rb0  1  0.33333300  0.66666700  0.75000000  1
  Rb  Rb1  1  0.66666700  0.33333300  0.25000000  1
  Ac  Ac0  1  0.15929900  0.31859900  0.25000000  1
  Ac  Ac1  1  0.68140100  0.84070100  0.25000000  1
  Ac  Ac2  1  0.15929900  0.84070100  0.25000000  1
  Ac  Ac3  1  0.84070100  0.68140100  0.75000000  1
  Ac  Ac4  1  0.31859900  0.15929900  0.75000000  1
  Ac  Ac5  1  0.84070100  0.15929900  0.75000000  1
loop_
_geom_bond_atom_site_label_1
_geom_bond_atom_site_label_2
_geom_bond_distance
_geom_bond_site_symmetry_2
Ac0 Ac2 4.012879 1_545
Ac0 Ac1 4.012879 1_445
Ac0 Ac5 4.025536 1_455
Ac0 Ac5 4.025536 1_454
Ac0 Ac4 4.025545 1_555
Ac0 Ac4 4.025545 1_554
Ac0 Rb0 4.152576 1_554
Ac0 Rb0 4.152576 1_555
Ac0 Rb1 4.199826 1_455
Ac0 Rb1 4.199843 1_555
Ac0 Ac2 4.384057 1_555
Ac0 Ac1 4.384057 1_555
Ac1 Ac2 4.012879 1_655
Ac1 Ac5 4.025536 1_565
Ac1 Ac5 4.025536 1_564
Ac1 Ac3 4.025545 1_555
Ac1 Ac3 4.025545 1_554
Ac1 Rb0 4.152576 1_555
Ac1 Rb0 4.152576 1_554
Ac1 Rb1 4.199826 1_565
Ac1 Rb1 4.199843 1_555
Ac1 Ac2 4.384057 1_555
Ac2 Ac3 4.025536 1_454
Ac2 Ac3 4.025536 1_455
Ac2 Ac4 4.025536 1_565
Ac2 Ac4 4.025536 1_564
Ac2 Rb0 4.152576 1_554
Ac2 Rb0 4.152576 1_555
Ac2 Rb1 4.199835 1_455
Ac2 Rb1 4.199835 1_565
Ac3 Ac5 4.012879 1_565
Ac3 Ac4 4.012879 1_665
Ac3 Rb1 4.152576 1_555
Ac3 Rb1 4.152576 1_556
Ac3 Rb0 4.199826 1_655
Ac3 Rb0 4.199843 1_555
Ac3 Ac5 4.384057 1_555
Ac3 Ac4 4.384057 1_555
Ac4 Ac5 4.012879 1_455
Ac4 Rb1 4.152576 1_555
Ac4 Rb1 4.152576 1_556
Ac4 Rb0 4.199826 1_545
Ac4 Rb0 4.199843 1_555
Ac4 Ac5 4.384057 1_555
Ac5 Rb1 4.152576 1_555
Ac5 Rb1 4.152576 1_556
Ac5 Rb0 4.199835 1_545
Ac5 Rb0 4.199835 1_655
