# generated using pymatgen
data_HoIr2
_symmetry_space_group_name_H-M   'P 1'
_cell_length_a   5.31821055
_cell_length_b   5.31821057
_cell_length_c   5.31821326
_cell_angle_alpha   59.99999608
_cell_angle_beta   59.99999591
_cell_angle_gamma   60.00000110
_symmetry_Int_Tables_number   1
_chemical_formula_structural   HoIr2
_chemical_formula_sum   'Ho2 Ir4'
_cell_volume   106.36084609
_cell_formula_units_Z   2
loop_
 _symmetry_equiv_pos_site_id
 _symmetry_equiv_pos_as_xyz
  1  'x, y, z'
loop_
 _atom_site_type_symbol
 _atom_site_label
 _atom_site_symmetry_multiplicity
 _atom_site_fract_x
 _atom_site_fract_y
 _atom_site_fract_z
 _atom_site_occupancy
  Ho  Ho0  1  0.87500000  0.87500000  0.87500000  1
  Ho  Ho1  1  0.12500000  0.12500000  0.12500000  1
  Ir  Ir0  1  0.50000000  0.50000000  0.50000000  1
  Ir  Ir1  1  0.50000000  0.50000000  -0.00000000  1
  Ir  Ir2  1  -0.00000000  0.50000000  0.50000000  1
  Ir  Ir3  1  0.50000000  0.00000000  0.50000000  1
loop_
_geom_bond_atom_site_label_1
_geom_bond_atom_site_label_2
_geom_bond_distance
_geom_bond_site_symmetry_2
Ho0 Ir1 3.118077 1_556
Ho0 Ir3 3.118077 1_665
Ho0 Ir2 3.118077 1_665
Ho0 Ir1 3.118078 1_656
Ho0 Ir1 3.118078 1_566
Ho0 Ir0 3.118078 1_655
Ho0 Ir0 3.118078 1_565
Ho0 Ir0 3.118078 1_556
Ho0 Ir3 3.118078 1_565
Ho0 Ir2 3.118078 1_655
Ho0 Ir3 3.118079 1_566
Ho0 Ir2 3.118079 1_656
Ho0 Ho1 3.256726 1_566
Ho0 Ho1 3.256726 1_656
Ho0 Ho1 3.256726 1_666
Ho0 Ho1 3.256727 1_665
Ho1 Ir1 3.118077 1_555
Ho1 Ir3 3.118077 1_455
Ho1 Ir2 3.118077 1_545
Ho1 Ir1 3.118078 1_455
Ho1 Ir1 3.118078 1_545
Ho1 Ir0 3.118078 1_455
Ho1 Ir0 3.118078 1_545
Ho1 Ir0 3.118078 1_554
Ho1 Ir3 3.118078 1_555
Ho1 Ir2 3.118078 1_555
Ho1 Ir3 3.118079 1_554
Ho1 Ir2 3.118079 1_554
Ir0 Ir2 2.659105 1_555
Ir0 Ir2 2.659105 1_655
Ir0 Ir3 2.659105 1_565
Ir0 Ir3 2.659105 1_555
Ir0 Ir1 2.659107 1_555
Ir0 Ir1 2.659107 1_556
Ir1 Ir2 2.659106 1_654
Ir1 Ir2 2.659106 1_555
Ir1 Ir3 2.659106 1_555
Ir1 Ir3 2.659106 1_564
Ir2 Ir3 2.659105 1_555
Ir2 Ir3 2.659105 1_465
