# generated using pymatgen
data_VRu3
_symmetry_space_group_name_H-M   'P 1'
_cell_length_a   5.42226997
_cell_length_b   5.42279812
_cell_length_c   4.24366354
_cell_angle_alpha   90.00000000
_cell_angle_beta   90.00000000
_cell_angle_gamma   120.02760503
_symmetry_Int_Tables_number   1
_chemical_formula_structural   VRu3
_chemical_formula_sum   'V2 Ru6'
_cell_volume   108.03271120
_cell_formula_units_Z   2
loop_
 _symmetry_equiv_pos_site_id
 _symmetry_equiv_pos_as_xyz
  1  'x, y, z'
loop_
 _atom_site_type_symbol
 _atom_site_label
 _atom_site_symmetry_multiplicity
 _atom_site_fract_x
 _atom_site_fract_y
 _atom_site_fract_z
 _atom_site_occupancy
  V  V0  1  0.33297149  0.66689618  0.75000100  1
  V  V1  1  0.66697792  0.33320519  0.25000100  1
  Ru  Ru0  1  0.16949047  0.33836716  0.25000100  1
  Ru  Ru1  1  0.66166003  0.83058758  0.25000100  1
  Ru  Ru2  1  0.16935841  0.83074580  0.25000100  1
  Ru  Ru3  1  0.83052077  0.66159655  0.75000100  1
  Ru  Ru4  1  0.33836115  0.16938985  0.75000100  1
  Ru  Ru5  1  0.83066475  0.16921268  0.75000100  1
loop_
_geom_bond_atom_site_label_1
_geom_bond_atom_site_label_2
_geom_bond_distance
_geom_bond_site_symmetry_2
Ru0 V0 2.623224 1_555
Ru0 V0 2.623224 1_554
Ru0 Ru4 2.649531 1_555
Ru0 Ru4 2.649531 1_554
Ru0 Ru5 2.651840 1_455
Ru0 Ru5 2.651840 1_454
Ru0 Ru1 2.667830 1_555
Ru0 Ru2 2.670428 1_555
Ru0 V1 2.710859 1_455
Ru0 V1 2.711627 1_555
Ru0 Ru2 2.752370 1_545
Ru0 Ru1 2.752441 1_445
Ru1 V0 2.623574 1_555
Ru1 V0 2.623574 1_554
Ru1 Ru3 2.649542 1_555
Ru1 Ru3 2.649542 1_554
Ru1 Ru5 2.651369 1_565
Ru1 Ru5 2.651369 1_564
Ru1 Ru2 2.669822 1_555
Ru1 V1 2.711279 1_565
Ru1 V1 2.711749 1_555
Ru1 Ru2 2.752448 1_655
Ru2 V0 2.620611 1_555
Ru2 V0 2.620611 1_554
Ru2 Ru4 2.651422 1_565
Ru2 Ru4 2.651422 1_564
Ru2 Ru3 2.651874 1_455
Ru2 Ru3 2.651874 1_454
Ru2 V1 2.710015 1_455
Ru2 V1 2.710447 1_565
Ru3 V1 2.622842 1_555
Ru3 V1 2.622842 1_556
Ru3 Ru4 2.667766 1_555
Ru3 Ru5 2.670489 1_555
Ru3 V0 2.710156 1_655
Ru3 V0 2.712342 1_555
Ru3 Ru5 2.752309 1_565
Ru3 Ru4 2.752505 1_665
Ru4 V1 2.623375 1_555
Ru4 V1 2.623375 1_556
Ru4 Ru5 2.669884 1_555
Ru4 V0 2.710416 1_545
Ru4 V0 2.712619 1_555
Ru4 Ru5 2.752386 1_455
Ru5 V1 2.621208 1_555
Ru5 V1 2.621208 1_556
Ru5 V0 2.710194 1_655
Ru5 V0 2.710252 1_545
