# generated using pymatgen
data_Sm(BOs)2
_symmetry_space_group_name_H-M   'P 1'
_cell_length_a   5.60796337
_cell_length_b   5.60796337
_cell_length_c   5.97502239
_cell_angle_alpha   109.21697377
_cell_angle_beta   109.21697377
_cell_angle_gamma   107.37472638
_symmetry_Int_Tables_number   1
_chemical_formula_structural   Sm(BOs)2
_chemical_formula_sum   'Sm2 B4 Os4'
_cell_volume   149.08359024
_cell_formula_units_Z   2
loop_
 _symmetry_equiv_pos_site_id
 _symmetry_equiv_pos_as_xyz
  1  'x, y, z'
loop_
 _atom_site_type_symbol
 _atom_site_label
 _atom_site_symmetry_multiplicity
 _atom_site_fract_x
 _atom_site_fract_y
 _atom_site_fract_z
 _atom_site_occupancy
  Sm  Sm0  1  0.00000000  0.00000000  0.00000000  1
  Sm  Sm1  1  0.25000100  0.75000100  0.50000100  1
  B  B0  1  0.68728139  0.31271761  0.00000000  1
  B  B1  1  0.31271761  0.68728139  0.00000000  1
  B  B2  1  0.93727978  0.06272222  0.50000100  1
  B  B3  1  0.56272222  0.43727978  0.50000100  1
  Os  Os0  1  0.61235633  0.11235633  0.22471367  1
  Os  Os1  1  0.63764136  0.63764136  0.27528573  1
  Os  Os2  1  0.36235764  0.36235764  0.72471427  1
  Os  Os3  1  0.88764467  0.38764467  0.77528633  1
loop_
_geom_bond_atom_site_label_1
_geom_bond_atom_site_label_2
_geom_bond_distance
_geom_bond_site_symmetry_2
B0 Os0 2.079513 1_555
B0 Os3 2.079524 1_554
B0 Os1 2.175919 1_555
B0 Os2 2.175919 1_554
B0 Sm0 2.826274 1_655
B0 Sm1 3.040802 1_544
B0 Sm1 3.040817 1_655
B1 Os3 2.079502 1_454
B1 Os0 2.079513 1_565
B1 Os1 2.175919 1_555
B1 Os2 2.175919 1_554
B1 Sm0 2.826274 1_565
B1 Sm1 3.040809 1_554
B1 Sm1 3.040810 1_555
B2 Os2 2.079520 1_655
B2 Os1 2.079536 1_545
B2 Os3 2.175896 1_555
B2 Os0 2.175902 1_555
B2 Sm1 2.826302 1_645
B2 Sm0 3.040812 1_656
B2 Sm0 3.040817 1_655
B3 Os1 2.079514 1_555
B3 Os2 2.079520 1_555
B3 Os3 2.175896 1_555
B3 Os0 2.175902 1_555
B3 Sm1 2.826302 1_555
B3 Sm0 3.040809 1_666
B3 Sm0 3.040820 1_555
Os0 Sm0 3.017970 1_555
Os0 Sm0 3.017974 1_655
Os1 Sm1 3.017967 1_555
Os1 Sm1 3.017982 1_655
Os2 Sm1 3.017971 1_555
Os2 Sm1 3.017971 1_545
Os3 Sm0 3.017966 1_666
Os3 Sm0 3.017977 1_656
