# generated using pymatgen
data_BaNaSb
_symmetry_space_group_name_H-M   'P 1'
_cell_length_a   5.34043669
_cell_length_b   5.34043669
_cell_length_c   5.34043669
_cell_angle_alpha   60.00000000
_cell_angle_beta   60.00000000
_cell_angle_gamma   60.00000000
_symmetry_Int_Tables_number   1
_chemical_formula_structural   BaNaSb
_chemical_formula_sum   'Ba1 Na1 Sb1'
_cell_volume   107.69990388
_cell_formula_units_Z   1
loop_
 _symmetry_equiv_pos_site_id
 _symmetry_equiv_pos_as_xyz
  1  'x, y, z'
loop_
 _atom_site_type_symbol
 _atom_site_label
 _atom_site_symmetry_multiplicity
 _atom_site_fract_x
 _atom_site_fract_y
 _atom_site_fract_z
 _atom_site_occupancy
  Ba  Ba0  1  0.50000000  0.50000000  0.50000000  1
  Na  Na0  1  0.75000000  0.75000000  0.75000000  1
  Sb  Sb0  1  0.00000000  0.00000000  0.00000000  1
loop_
_geom_bond_atom_site_label_1
_geom_bond_atom_site_label_2
_geom_bond_distance
_geom_bond_site_symmetry_2
Ba0 Na0 3.270336 1_455
Ba0 Na0 3.270336 1_554
Ba0 Na0 3.270336 1_545
Ba0 Na0 3.270336 1_555
Ba0 Sb0 3.776259 1_556
Ba0 Sb0 3.776259 1_565
Ba0 Sb0 3.776259 1_566
Ba0 Sb0 3.776259 1_655
Ba0 Sb0 3.776259 1_656
Ba0 Sb0 3.776259 1_665
Na0 Sb0 3.270336 1_566
Na0 Sb0 3.270336 1_666
Na0 Sb0 3.270336 1_656
Na0 Sb0 3.270336 1_665
