# generated using pymatgen
data_CsNaF3
_symmetry_space_group_name_H-M   'P 1'
_cell_length_a   4.15844500
_cell_length_b   7.00255400
_cell_length_c   13.57325100
_cell_angle_alpha   90.00000000
_cell_angle_beta   90.00000000
_cell_angle_gamma   90.00000000
_symmetry_Int_Tables_number   1
_chemical_formula_structural   CsNaF3
_chemical_formula_sum   'Cs4 Na4 F12'
_cell_volume   395.24948128
_cell_formula_units_Z   4
loop_
 _symmetry_equiv_pos_site_id
 _symmetry_equiv_pos_as_xyz
  1  'x, y, z'
loop_
 _atom_site_type_symbol
 _atom_site_label
 _atom_site_symmetry_multiplicity
 _atom_site_fract_x
 _atom_site_fract_y
 _atom_site_fract_z
 _atom_site_occupancy
  Cs  Cs0  1  0.75000000  0.10574100  0.67060600  1
  Cs  Cs1  1  0.25000000  0.89425900  0.32939400  1
  Cs  Cs2  1  0.75000000  0.60574100  0.82939400  1
  Cs  Cs3  1  0.25000000  0.39425900  0.17060600  1
  Na  Na0  1  0.25000000  0.13457300  0.92608600  1
  Na  Na1  1  0.75000000  0.86542700  0.07391400  1
  Na  Na2  1  0.25000000  0.63457300  0.57391400  1
  Na  Na3  1  0.75000000  0.36542700  0.42608600  1
  F  F0  1  0.75000000  0.26513900  0.98882400  1
  F  F1  1  0.25000000  0.73486100  0.01117600  1
  F  F2  1  0.75000000  0.76513900  0.51117600  1
  F  F3  1  0.25000000  0.23486100  0.48882400  1
  F  F4  1  0.25000000  0.99872800  0.08824000  1
  F  F5  1  0.75000000  0.00127200  0.91176000  1
  F  F6  1  0.25000000  0.49872800  0.41176000  1
  F  F7  1  0.75000000  0.50127200  0.58824000  1
  F  F8  1  0.25000000  0.31379800  0.78990800  1
  F  F9  1  0.75000000  0.68620200  0.21009200  1
  F  F10  1  0.25000000  0.81379800  0.71009200  1
  F  F11  1  0.75000000  0.18620200  0.28990800  1
loop_
_geom_bond_atom_site_label_1
_geom_bond_atom_site_label_2
_geom_bond_distance
_geom_bond_site_symmetry_2
Cs0 F10 2.964754 1_545
Cs0 F10 2.964754 1_645
Cs0 F7 2.986847 1_555
Cs0 F8 3.011311 1_555
Cs0 F8 3.011311 1_655
Cs0 F2 3.220473 1_545
Cs0 F3 3.350913 1_555
Cs0 F3 3.350913 1_655
Cs0 F5 3.353996 1_555
Cs1 F11 2.964754 1_465
Cs1 F11 2.964754 1_565
Cs1 F6 2.986847 1_555
Cs1 F9 3.011311 1_455
Cs1 F9 3.011311 1_555
Cs1 F3 3.220473 1_565
Cs1 F2 3.350913 1_555
Cs1 F2 3.350913 1_455
Cs1 F4 3.353996 1_555
Cs2 F8 2.964754 1_655
Cs2 F8 2.964754 1_555
Cs2 F5 2.986847 1_565
Cs2 F10 3.011311 1_555
Cs2 F10 3.011311 1_655
Cs2 F0 3.220473 1_555
Cs2 F1 3.350913 1_556
Cs2 F1 3.350913 1_656
Cs2 F7 3.353996 1_555
Cs3 F9 2.964754 1_555
Cs3 F9 2.964754 1_455
Cs3 F4 2.986847 1_545
Cs3 F11 3.011311 1_555
Cs3 F11 3.011311 1_455
Cs3 F1 3.220473 1_555
Cs3 F0 3.350913 1_454
Cs3 F0 3.350913 1_554
Cs3 F6 3.353996 1_555
F0 Na0 2.425748 1_655
F0 Na0 2.425748 1_555
F1 Na1 2.425748 1_555
F1 Na1 2.425748 1_455
F2 Na2 2.425748 1_655
F2 Na2 2.425748 1_555
F3 Na3 2.425748 1_455
F3 Na3 2.425748 1_555
F4 Na1 2.287422 1_555
F4 Na1 2.287422 1_455
F4 Na0 2.397730 1_564
F5 Na0 2.287422 1_655
F5 Na0 2.287422 1_555
F5 Na1 2.397730 1_546
F6 Na3 2.287422 1_555
F6 Na3 2.287422 1_455
F6 Na2 2.397730 1_555
F7 Na2 2.287422 1_555
F7 Na2 2.287422 1_655
F7 Na3 2.397730 1_555
F8 Na0 2.234191 1_555
F9 Na1 2.234191 1_555
F10 Na2 2.234191 1_555
F11 Na3 2.234191 1_555
