# generated using pymatgen
data_Rb2CoP4(HO2)8
_symmetry_space_group_name_H-M   'P 1'
_cell_length_a   7.28493826
_cell_length_b   8.44879881
_cell_length_c   11.98490067
_cell_angle_alpha   83.47629635
_cell_angle_beta   82.64741813
_cell_angle_gamma   84.74863111
_symmetry_Int_Tables_number   1
_chemical_formula_structural   Rb2CoP4(HO2)8
_chemical_formula_sum   'Rb4 Co2 P8 H16 O32'
_cell_volume   724.63395900
_cell_formula_units_Z   2
loop_
 _symmetry_equiv_pos_site_id
 _symmetry_equiv_pos_as_xyz
  1  'x, y, z'
loop_
 _atom_site_type_symbol
 _atom_site_label
 _atom_site_symmetry_multiplicity
 _atom_site_fract_x
 _atom_site_fract_y
 _atom_site_fract_z
 _atom_site_occupancy
  Rb  Rb0  1  0.71275869  0.10356664  0.69168512  1
  Rb  Rb1  1  0.71281337  0.60353454  0.19170616  1
  Rb  Rb2  1  0.28724135  0.89643687  0.30831368  1
  Rb  Rb3  1  0.28718636  0.39646492  0.80829419  1
  Co  Co0  1  0.50000100  0.99999962  0.99999934  1
  Co  Co1  1  0.50000171  0.49999944  0.49999920  1
  P  P0  1  0.26236652  0.93936168  0.79411571  1
  P  P1  1  0.26230808  0.43933691  0.29413005  1
  P  P2  1  0.73763329  0.06063843  0.20588392  1
  P  P3  1  0.73769121  0.56066360  0.70586996  1
  P  P4  1  0.20263703  0.23538006  0.50544140  1
  P  P5  1  0.20261721  0.73538352  0.00539384  1
  P  P6  1  0.79736400  0.76462017  0.49455915  1
  P  P7  1  0.79738274  0.26461671  0.99460605  1
  H  H0  1  0.02735629  0.09564553  0.85790882  1
  H  H1  1  0.02726723  0.59568740  0.35792949  1
  H  H2  1  0.97264406  0.90435530  0.14209117  1
  H  H3  1  0.97273260  0.40431239  0.64207188  1
  H  H4  1  0.69625035  0.27144220  0.38473862  1
  H  H5  1  0.69631537  0.77152339  0.88471032  1
  H  H6  1  0.30375230  0.72855589  0.61526158  1
  H  H7  1  0.30368567  0.22847616  0.11528925  1
  H  H8  1  0.26597192  0.99022005  0.58218224  1
  H  H9  1  0.26590218  0.49022366  0.08218984  1
  H  H10  1  0.73402969  0.00977983  0.41781771  1
  H  H11  1  0.73409556  0.50977615  0.91781079  1
  H  H12  1  0.83127073  0.34100244  0.45953309  1
  H  H13  1  0.83127394  0.84107523  0.95955601  1
  H  H14  1  0.16873208  0.65899513  0.54046733  1
  H  H15  1  0.16872799  0.15892338  0.04044376  1
  O  O0  1  0.71900226  0.36548660  0.42097582  1
  O  O1  1  0.71897026  0.86551801  0.92102654  1
  O  O2  1  0.28100110  0.63451120  0.57902410  1
  O  O3  1  0.28103156  0.13448065  0.07897356  1
  O  O4  1  0.06705569  0.03142636  0.78939884  1
  O  O5  1  0.06700401  0.53140317  0.28943498  1
  O  O6  1  0.93294428  0.96857476  0.21060104  1
  O  O7  1  0.93299505  0.46859723  0.71056611  1
  O  O8  1  0.33615496  0.89443906  0.67834051  1
  O  O9  1  0.33601597  0.39436304  0.17836435  1
  O  O10  1  0.66384418  0.10555991  0.32165930  1
  O  O11  1  0.66398233  0.60563686  0.82163566  1
  O  O12  1  0.38359531  0.03376408  0.84909433  1
  O  O13  1  0.38358341  0.53381593  0.34903657  1
  O  O14  1  0.61640648  0.96623523  0.15090454  1
  O  O15  1  0.61641698  0.46618426  0.65096293  1
  O  O16  1  0.23052842  0.27317070  0.36969453  1
  O  O17  1  0.23052135  0.77318363  0.86963780  1
  O  O18  1  0.76947147  0.72682986  0.63030580  1
  O  O19  1  0.76947720  0.22681630  0.13036183  1
  O  O20  1  0.01003119  0.30438486  0.54568749  1
  O  O21  1  0.01002504  0.80440347  0.04562709  1
  O  O22  1  0.98996952  0.69561449  0.45431352  1
  O  O23  1  0.98997491  0.19559733  0.95437322  1
  O  O24  1  0.21243271  0.05037892  0.51230093  1
  O  O25  1  0.21242695  0.55036170  0.01226946  1
  O  O26  1  0.78757060  0.94962106  0.48769813  1
  O  O27  1  0.78757167  0.44963828  0.98773027  1
  O  O28  1  0.35775199  0.29335544  0.55694271  1
  O  O29  1  0.35772527  0.79337539  0.05689000  1
  O  O30  1  0.64224973  0.70664534  0.44305767  1
  O  O31  1  0.64227664  0.20662465  0.94310871  1
loop_
_geom_bond_atom_site_label_1
_geom_bond_atom_site_label_2
_geom_bond_distance
_geom_bond_site_symmetry_2
Co0 O1 2.063381 1_555
Co0 O3 2.063387 1_566
Co0 O12 2.074246 1_565
Co0 O14 2.074247 1_556
Co0 O29 2.113430 1_556
Co0 O31 2.113435 1_565
Co1 O0 2.063929 1_555
Co1 O2 2.063932 1_555
Co1 O13 2.074920 1_555
Co1 O15 2.074921 1_555
Co1 O28 2.113575 1_555
Co1 O30 2.113578 1_555
H0 O4 1.031473 1_555
H0 O23 1.490995 1_455
H1 O5 1.031682 1_555
H1 O22 1.490056 1_455
H2 O6 1.031474 1_555
H2 O21 1.490992 1_655
H3 O7 1.031683 1_555
H3 O20 1.490062 1_655
H4 O0 0.984053 1_555
H5 O1 0.984000 1_555
H6 O2 0.984055 1_555
H7 O3 0.984001 1_555
H8 O24 1.030774 1_565
H8 O8 1.451745 1_555
H9 O25 1.030883 1_555
H9 O9 1.451985 1_555
H10 O26 1.030770 1_545
H10 O10 1.451750 1_555
H11 O27 1.030876 1_555
H11 O11 1.451990 1_555
H12 O0 0.984523 1_555
H13 O1 0.984535 1_555
H14 O2 0.984523 1_555
H15 O3 0.984536 1_555
O0 Rb1 3.218176 1_555
O1 Rb0 3.218865 1_565
O2 Rb3 3.218171 1_555
O3 Rb2 3.218830 1_545
O4 P0 1.562265 1_545
O4 Rb0 2.954344 1_455
O5 P1 1.562202 1_555
O5 Rb1 2.953724 1_455
O6 P2 1.562262 1_565
O6 Rb2 2.954336 1_655
O7 P3 1.562202 1_555
O7 Rb3 2.953725 1_655
O8 P0 1.499909 1_555
O8 Rb0 3.426116 1_565
O9 P1 1.499820 1_555
O9 Rb1 3.427534 1_555
O10 P2 1.499909 1_555
O10 Rb2 3.426090 1_545
O11 P3 1.499820 1_555
O11 Rb3 3.427527 1_555
O12 P0 1.499184 1_545
O12 Rb0 2.916350 1_555
O12 Rb3 3.078358 1_555
O13 P1 1.499334 1_555
O13 Rb1 2.916084 1_555
O13 Rb2 3.077567 1_555
O14 P2 1.499183 1_565
O14 Rb2 2.916352 1_555
O14 Rb1 3.078356 1_555
O15 P3 1.499334 1_555
O15 Rb3 2.916094 1_555
O15 Rb0 3.077539 1_555
O16 P1 1.600514 1_555
O16 P4 1.612236 1_555
O16 Rb2 3.325143 1_545
O17 P0 1.600443 1_555
O17 P5 1.612352 1_556
O17 Rb3 3.324876 1_555
O18 P3 1.600514 1_555
O18 P6 1.612234 1_555
O18 Rb0 3.325161 1_565
O19 P2 1.600440 1_555
O19 P7 1.612349 1_554
O19 Rb1 3.324874 1_555
O20 P4 1.510708 1_555
O20 Rb0 3.107794 1_455
O21 P5 1.510629 1_555
O21 Rb1 3.108131 1_455
O22 P6 1.510707 1_555
O22 Rb2 3.107820 1_655
O23 P7 1.510626 1_555
O23 Rb3 3.108123 1_655
O24 P4 1.551394 1_555
O24 Rb2 2.866579 1_545
O25 P5 1.551553 1_555
O25 Rb3 2.866235 1_554
O26 P6 1.551391 1_555
O26 Rb0 2.866593 1_565
O27 P7 1.551551 1_555
O27 Rb1 2.866238 1_556
O28 P4 1.498784 1_555
O28 Rb3 3.196222 1_555
O28 Rb0 3.404245 1_555
O29 P5 1.498770 1_555
O29 Rb2 3.196889 1_555
O29 Rb1 3.405317 1_555
O30 P6 1.498779 1_555
O30 Rb1 3.196226 1_555
O30 Rb2 3.404272 1_555
O31 P7 1.498766 1_555
O31 Rb0 3.196877 1_555
O31 Rb3 3.405317 1_555
