# generated using pymatgen
data_CaReN3
_symmetry_space_group_name_H-M   'P 1'
_cell_length_a   7.34344026
_cell_length_b   7.34344026
_cell_length_c   6.21403025
_cell_angle_alpha   75.07436504
_cell_angle_beta   75.07436504
_cell_angle_gamma   83.70051548
_symmetry_Int_Tables_number   1
_chemical_formula_structural   CaReN3
_chemical_formula_sum   'Ca4 Re4 N12'
_cell_volume   312.53017025
_cell_formula_units_Z   4
loop_
 _symmetry_equiv_pos_site_id
 _symmetry_equiv_pos_as_xyz
  1  'x, y, z'
loop_
 _atom_site_type_symbol
 _atom_site_label
 _atom_site_symmetry_multiplicity
 _atom_site_fract_x
 _atom_site_fract_y
 _atom_site_fract_z
 _atom_site_occupancy
  Ca  Ca0  1  0.91335173  0.08664827  0.75000000  1
  Ca  Ca1  1  0.30096835  0.69903165  0.75000000  1
  Ca  Ca2  1  0.08664827  0.91335173  0.25000000  1
  Ca  Ca3  1  0.69903165  0.30096835  0.25000000  1
  Re  Re0  1  0.62057999  0.79864632  0.26542673  1
  Re  Re1  1  0.20135368  0.37942001  0.23457327  1
  Re  Re2  1  0.37942001  0.20135368  0.73457327  1
  Re  Re3  1  0.79864632  0.62057999  0.76542673  1
  N  N0  1  0.35576536  0.34675369  0.95410781  1
  N  N1  1  0.01030951  0.22731338  0.33945631  1
  N  N2  1  0.77268662  0.98969049  0.16054369  1
  N  N3  1  0.22731338  0.01030951  0.83945631  1
  N  N4  1  0.64423464  0.65324631  0.04589219  1
  N  N5  1  0.88474604  0.38794916  0.83498645  1
  N  N6  1  0.11525396  0.61205084  0.16501355  1
  N  N7  1  0.98969049  0.77268662  0.66054369  1
  N  N8  1  0.38794916  0.88474604  0.33498645  1
  N  N9  1  0.65324631  0.64423464  0.54589219  1
  N  N10  1  0.61205084  0.11525396  0.66501355  1
  N  N11  1  0.34675369  0.35576536  0.45410781  1
loop_
_geom_bond_atom_site_label_1
_geom_bond_atom_site_label_2
_geom_bond_distance
_geom_bond_site_symmetry_2
Ca0 N10 2.379356 1_555
Ca0 N5 2.379356 1_555
Ca0 N2 2.439356 1_546
Ca0 N1 2.439356 1_655
Ca0 N3 2.480909 1_655
Ca0 N7 2.480909 1_545
Ca1 N3 2.460696 1_565
Ca1 N7 2.460696 1_455
Ca1 N8 2.539590 1_555
Ca1 N6 2.539590 1_556
Ca1 N0 2.609039 1_555
Ca1 N9 2.609039 1_555
Ca2 N6 2.379356 1_555
Ca2 N8 2.379356 1_555
Ca2 N3 2.439356 1_564
Ca2 N7 2.439356 1_455
Ca2 N1 2.480909 1_565
Ca2 N2 2.480909 1_455
Ca3 N1 2.460696 1_655
Ca3 N2 2.460696 1_545
Ca3 N5 2.539590 1_554
Ca3 N10 2.539590 1_555
Ca3 N4 2.609039 1_555
Ca3 N11 2.609039 1_555
N0 Re1 1.875738 1_556
N0 Re2 1.902322 1_555
N1 Re1 1.771578 1_555
N2 Re0 1.771578 1_555
N3 Re2 1.771578 1_555
N4 Re3 1.875738 1_554
N4 Re0 1.902322 1_555
N5 Re3 1.740201 1_555
N6 Re1 1.740201 1_555
N7 Re3 1.771578 1_555
N8 Re0 1.740201 1_555
N9 Re0 1.875738 1_555
N9 Re3 1.902322 1_555
N10 Re2 1.740201 1_555
N11 Re2 1.875738 1_555
N11 Re1 1.902322 1_555
