# generated using pymatgen
data_Rb3Pr
_symmetry_space_group_name_H-M   'P 1'
_cell_length_a   7.29804060
_cell_length_b   7.29804060
_cell_length_c   7.29804060
_cell_angle_alpha   60.00000000
_cell_angle_beta   60.00000000
_cell_angle_gamma   60.00000000
_symmetry_Int_Tables_number   1
_chemical_formula_structural   Rb3Pr
_chemical_formula_sum   'Rb3 Pr1'
_cell_volume   274.85511783
_cell_formula_units_Z   1
loop_
 _symmetry_equiv_pos_site_id
 _symmetry_equiv_pos_as_xyz
  1  'x, y, z'
loop_
 _atom_site_type_symbol
 _atom_site_label
 _atom_site_symmetry_multiplicity
 _atom_site_fract_x
 _atom_site_fract_y
 _atom_site_fract_z
 _atom_site_occupancy
  Rb  Rb0  1  0.25000000  0.25000000  0.25000000  1
  Rb  Rb1  1  0.75000000  0.75000000  0.75000000  1
  Rb  Rb2  1  0.50000000  0.50000000  0.50000000  1
  Pr  Pr0  1  0.00000000  0.00000000  0.00000000  1
loop_
_geom_bond_atom_site_label_1
_geom_bond_atom_site_label_2
_geom_bond_distance
_geom_bond_site_symmetry_2
Rb0 Rb2 4.469119 1_545
Rb0 Rb2 4.469119 1_555
Rb0 Rb2 4.469119 1_455
Rb0 Rb2 4.469119 1_554
Rb1 Rb2 4.469119 1_555
Rb1 Rb2 4.469119 1_565
Rb1 Rb2 4.469119 1_655
Rb1 Rb2 4.469119 1_556
Pr0 Rb0 4.469119 1_554
Pr0 Rb0 4.469119 1_455
Pr0 Rb0 4.469119 1_555
Pr0 Rb0 4.469119 1_545
Pr0 Rb1 4.469119 1_445
Pr0 Rb1 4.469119 1_444
Pr0 Rb1 4.469119 1_454
Pr0 Rb1 4.469119 1_544
