# generated using pymatgen
data_Tm2Mg2O5
_symmetry_space_group_name_H-M   'P 1'
_cell_length_a   3.84265400
_cell_length_b   3.84265400
_cell_length_c   7.14087100
_cell_angle_alpha   90.00000000
_cell_angle_beta   90.00000000
_cell_angle_gamma   90.00000000
_symmetry_Int_Tables_number   1
_chemical_formula_structural   Tm2Mg2O5
_chemical_formula_sum   'Tm2 Mg2 O5'
_cell_volume   105.44202809
_cell_formula_units_Z   1
loop_
 _symmetry_equiv_pos_site_id
 _symmetry_equiv_pos_as_xyz
  1  'x, y, z'
loop_
 _atom_site_type_symbol
 _atom_site_label
 _atom_site_symmetry_multiplicity
 _atom_site_fract_x
 _atom_site_fract_y
 _atom_site_fract_z
 _atom_site_occupancy
  Tm  Tm0  1  0.00000000  0.00000000  0.00000000  1
  Tm  Tm1  1  0.00000000  0.00000000  0.50000000  1
  Mg  Mg0  1  0.50000000  0.50000000  0.23606200  1
  Mg  Mg1  1  0.50000000  0.50000000  0.76393800  1
  O  O0  1  0.50000000  0.00000000  0.19657900  1
  O  O1  1  0.50000000  0.00000000  0.80342100  1
  O  O2  1  0.00000000  0.50000000  0.19657900  1
  O  O3  1  0.00000000  0.50000000  0.80342100  1
  O  O4  1  0.50000000  0.50000000  0.50000000  1
loop_
_geom_bond_atom_site_label_1
_geom_bond_atom_site_label_2
_geom_bond_distance
_geom_bond_site_symmetry_2
Mg0 O4 1.884747 1_555
Mg0 O2 1.941904 1_655
Mg0 O2 1.941904 1_555
Mg0 O0 1.941904 1_555
Mg0 O0 1.941904 1_565
Mg1 O4 1.884747 1_555
Mg1 O3 1.941904 1_555
Mg1 O1 1.941904 1_565
Mg1 O1 1.941904 1_555
Mg1 O3 1.941904 1_655
O0 Tm0 2.379495 1_555
O0 Tm0 2.379495 1_655
O0 Tm1 2.895867 1_655
O0 Tm1 2.895867 1_555
O1 Tm0 2.379495 1_556
O1 Tm0 2.379495 1_656
O1 Tm1 2.895867 1_655
O1 Tm1 2.895867 1_555
O2 Tm0 2.379495 1_555
O2 Tm0 2.379495 1_565
O2 Tm1 2.895867 1_565
O2 Tm1 2.895867 1_555
O3 Tm0 2.379495 1_556
O3 Tm0 2.379495 1_566
O3 Tm1 2.895867 1_565
O3 Tm1 2.895867 1_555
O4 Tm1 2.717167 1_565
O4 Tm1 2.717167 1_655
O4 Tm1 2.717167 1_665
O4 Tm1 2.717167 1_555
