# generated using pymatgen
data_CoAuO2
_symmetry_space_group_name_H-M   'P 1'
_cell_length_a   2.88461362
_cell_length_b   2.88461362
_cell_length_c   12.17253255
_cell_angle_alpha   90.00000000
_cell_angle_beta   90.00000000
_cell_angle_gamma   120.00000276
_symmetry_Int_Tables_number   1
_chemical_formula_structural   CoAuO2
_chemical_formula_sum   'Co2 Au2 O4'
_cell_volume   87.71762487
_cell_formula_units_Z   2
loop_
 _symmetry_equiv_pos_site_id
 _symmetry_equiv_pos_as_xyz
  1  'x, y, z'
loop_
 _atom_site_type_symbol
 _atom_site_label
 _atom_site_symmetry_multiplicity
 _atom_site_fract_x
 _atom_site_fract_y
 _atom_site_fract_z
 _atom_site_occupancy
  Co  Co0  1  -0.00000000  0.00000000  0.99995250  1
  Co  Co1  1  -0.00000000  0.00000000  0.50004731  1
  Au  Au0  1  0.33333300  0.66666700  0.24999851  1
  Au  Au1  1  0.66666700  0.33333300  0.75000150  1
  O  O0  1  0.66666700  0.33333300  0.57813056  1
  O  O1  1  0.66666700  0.33333300  0.92186270  1
  O  O2  1  0.33333300  0.66666700  0.42195087  1
  O  O3  1  0.33333300  0.66666700  0.07805604  1
loop_
_geom_bond_atom_site_label_1
_geom_bond_atom_site_label_2
_geom_bond_distance
_geom_bond_site_symmetry_2
Co0 O1 1.917604 1_455
Co0 O1 1.917606 1_555
Co0 O1 1.917606 1_445
Co0 O3 1.917687 1_546
Co0 O3 1.917689 1_446
Co0 O3 1.917689 1_556
Co1 O0 1.917565 1_455
Co1 O0 1.917567 1_555
Co1 O0 1.917567 1_445
Co1 O2 1.917644 1_545
Co1 O2 1.917646 1_555
Co1 O2 1.917646 1_445
Au0 O3 2.092975 1_555
Au0 O2 2.093096 1_555
Au1 O1 2.091986 1_555
Au1 O0 2.092105 1_555
