# generated using pymatgen
data_Na3Mn2SbO6
_symmetry_space_group_name_H-M   'P 1'
_cell_length_a   5.55753018
_cell_length_b   5.78683475
_cell_length_c   5.55759750
_cell_angle_alpha   80.62129224
_cell_angle_beta   119.86228591
_cell_angle_gamma   80.62160279
_symmetry_Int_Tables_number   1
_chemical_formula_structural   Na3Mn2SbO6
_chemical_formula_sum   'Na3 Mn2 Sb1 O6'
_cell_volume   146.57642016
_cell_formula_units_Z   1
loop_
 _symmetry_equiv_pos_site_id
 _symmetry_equiv_pos_as_xyz
  1  'x, y, z'
loop_
 _atom_site_type_symbol
 _atom_site_label
 _atom_site_symmetry_multiplicity
 _atom_site_fract_x
 _atom_site_fract_y
 _atom_site_fract_z
 _atom_site_occupancy
  Na  Na0  1  0.50000900  0.50000000  0.50000000  1
  Na  Na1  1  0.82864600  0.50000400  0.17135200  1
  Na  Na2  1  0.17135600  0.49999800  0.82865100  1
  Mn  Mn0  1  0.33375000  0.99997900  0.66624000  1
  Mn  Mn1  1  0.66623800  0.00001400  0.33377800  1
  Sb  Sb0  1  0.00000600  0.00000600  0.00000500  1
  O  O0  1  0.23578600  0.20552700  0.23576500  1
  O  O1  1  0.76422700  0.79447100  0.76420200  1
  O  O2  1  0.37541200  0.79079500  0.06919200  1
  O  O3  1  0.06916000  0.79078600  0.37539000  1
  O  O4  1  0.93080600  0.20921200  0.62458600  1
  O  O5  1  0.62460300  0.20920800  0.93083800  1
loop_
_geom_bond_atom_site_label_1
_geom_bond_atom_site_label_2
_geom_bond_distance
_geom_bond_site_symmetry_2
Na0 O4 2.387366 1_555
Na0 O2 2.387430 1_555
Na0 O3 2.387532 1_555
Na0 O5 2.387551 1_555
Na0 O1 2.588409 1_555
Na0 O0 2.588502 1_555
Na1 O3 2.397824 1_655
Na1 O5 2.397907 1_554
Na1 O0 2.426882 1_655
Na1 O1 2.426894 1_554
Na1 O2 2.526212 1_555
Na1 O4 2.526234 1_555
Na2 O4 2.397978 1_455
Na2 O2 2.398000 1_556
Na2 O0 2.426731 1_556
Na2 O1 2.426738 1_455
Na2 O5 2.526208 1_555
Na2 O3 2.526264 1_555
Mn0 O1 2.235819 1_555
Mn0 O0 2.235901 1_565
Mn0 O2 2.245627 1_556
Mn0 O4 2.245693 1_465
Mn0 O3 2.256431 1_555
Mn0 O5 2.256611 1_565
Mn1 O1 2.235595 1_545
Mn1 O0 2.235602 1_555
Mn1 O5 2.245662 1_554
Mn1 O3 2.245690 1_645
Mn1 O4 2.256294 1_555
Mn1 O2 2.256470 1_545
O0 Sb0 2.038214 1_555
O1 Sb0 2.038376 1_666
O2 Sb0 2.047571 1_565
O3 Sb0 2.047589 1_565
O4 Sb0 2.047607 1_656
O5 Sb0 2.047583 1_656
