# generated using pymatgen
data_NdBe13
_symmetry_space_group_name_H-M   'P 1'
_cell_length_a   7.29626832
_cell_length_b   7.29626832
_cell_length_c   7.29619310
_cell_angle_alpha   60.00034101
_cell_angle_beta   60.00034101
_cell_angle_gamma   60.00067291
_symmetry_Int_Tables_number   1
_chemical_formula_structural   NdBe13
_chemical_formula_sum   'Nd2 Be26'
_cell_volume   274.65490678
_cell_formula_units_Z   2
loop_
 _symmetry_equiv_pos_site_id
 _symmetry_equiv_pos_as_xyz
  1  'x, y, z'
loop_
 _atom_site_type_symbol
 _atom_site_label
 _atom_site_symmetry_multiplicity
 _atom_site_fract_x
 _atom_site_fract_y
 _atom_site_fract_z
 _atom_site_occupancy
  Nd  Nd0  1  0.25000000  0.25000000  0.24999900  1
  Nd  Nd1  1  0.74999900  0.74999900  0.75000000  1
  Be  Be0  1  0.28851137  0.06265709  0.93734124  1
  Be  Be1  1  0.06265809  0.28851037  0.71149130  1
  Be  Be2  1  0.71148963  0.93734191  0.06265976  1
  Be  Be3  1  0.93734291  0.71148863  0.28850970  1
  Be  Be4  1  0.93734405  0.28850915  0.06265903  1
  Be  Be5  1  0.06265187  0.93734813  0.28851163  1
  Be  Be6  1  0.28850915  0.93734305  0.71148876  1
  Be  Be7  1  0.28850811  0.71149189  0.06266538  1
  Be  Be8  1  0.71149185  0.06265795  0.28851024  1
  Be  Be9  1  0.93734713  0.06265287  0.71148937  1
  Be  Be10  1  0.06265795  0.71149185  0.93733997  1
  Be  Be11  1  0.71149089  0.28850911  0.93733562  1
  Be  Be12  1  0.43734191  0.21148963  0.56265976  1
  Be  Be13  1  0.21148863  0.43734291  0.78850970  1
  Be  Be14  1  0.56265709  0.78851137  0.43734124  1
  Be  Be15  1  0.78851037  0.56265809  0.21149130  1
  Be  Be16  1  0.21149185  0.56265795  0.43733997  1
  Be  Be17  1  0.56265287  0.43734713  0.21148937  1
  Be  Be18  1  0.56265795  0.21149185  0.78851124  1
  Be  Be19  1  0.78850911  0.21149089  0.43733562  1
  Be  Be20  1  0.43734405  0.78850915  0.21148776  1
  Be  Be21  1  0.43734813  0.56265187  0.78851163  1
  Be  Be22  1  0.78850915  0.43734305  0.56265903  1
  Be  Be23  1  0.21149189  0.78850811  0.56266538  1
  Be  Be24  1  0.00000000  -0.00000000  -0.00000000  1
  Be  Be25  1  0.50000000  0.50000000  0.50000000  1
loop_
_geom_bond_atom_site_label_1
_geom_bond_atom_site_label_2
_geom_bond_distance
_geom_bond_site_symmetry_2
Be0 Be24 2.154122 1_556
Be0 Be6 2.249034 1_545
Be0 Be7 2.249038 1_546
Be0 Be5 2.249064 1_546
Be0 Be4 2.249071 1_456
Be0 Be12 2.252513 1_555
Be0 Be13 2.252561 1_555
Be0 Be20 2.276011 1_546
Be0 Be18 2.276023 1_555
Be0 Be1 2.330446 1_555
Be0 Nd0 3.040461 1_556
Be0 Nd1 3.040502 1_545
Be1 Be24 2.154116 1_556
Be1 Be4 2.249029 1_456
Be1 Be11 2.249047 1_455
Be1 Be9 2.249062 1_455
Be1 Be6 2.249069 1_545
Be1 Be13 2.252513 1_555
Be1 Be12 2.252550 1_555
Be1 Be22 2.276022 1_455
Be1 Be16 2.276025 1_555
Be1 Nd0 3.040480 1_555
Be1 Nd1 3.040503 1_455
Be2 Be24 2.154116 1_665
Be2 Be8 2.249031 1_565
Be2 Be9 2.249062 1_564
Be2 Be20 2.276010 1_555
Be2 Be3 2.330446 1_555
Be2 Nd1 3.040482 1_554
Be2 Nd0 3.040506 1_565
Be3 Be7 2.249038 1_655
Be3 Be5 2.249064 1_655
Be3 Be8 2.249078 1_565
Be3 Nd1 3.040464 1_555
Be3 Nd0 3.040505 1_655
Be4 Be5 2.249022 1_645
Be4 Be8 2.330447 1_555
Be4 Nd0 3.040452 1_655
Be4 Nd1 3.040510 1_554
Be5 Be8 2.249019 1_465
Be5 Be7 2.330442 1_555
Be5 Nd0 3.040464 1_565
Be5 Nd1 3.040473 1_455
Be6 Be9 2.249027 1_465
Be6 Be7 2.249087 1_556
Be6 Nd0 3.040470 1_565
Be6 Nd1 3.040501 1_555
Be7 Nd1 3.040503 1_554
Be7 Nd0 3.040511 1_555
Be8 Nd1 3.040468 1_545
Be8 Nd0 3.040517 1_555
Be9 Nd0 3.040476 1_655
Be9 Nd1 3.040485 1_545
Be10 Be24 2.154114 1_566
Be10 Be9 2.249022 1_465
Be10 Be3 2.249036 1_456
Be10 Be2 2.249072 1_456
Be10 Be7 2.249081 1_556
Be10 Be23 2.252468 1_555
Be10 Be21 2.252592 1_555
Be10 Be13 2.276015 1_555
Be10 Be15 2.276025 1_456
Be10 Be6 2.330442 1_555
Be10 Nd1 3.040480 1_455
Be10 Nd0 3.040511 1_556
Be11 Be24 2.154141 1_656
Be11 Be2 2.249047 1_546
Be11 Be8 2.249078 1_556
Be11 Be4 2.249091 1_556
Be11 Be18 2.252467 1_555
Be11 Be22 2.252479 1_555
Be11 Be21 2.275967 1_555
Be11 Be17 2.276061 1_556
Be11 Be9 2.330442 1_555
Be11 Nd1 3.040496 1_555
Be11 Nd0 3.040504 1_556
Be12 Be25 2.154116 1_555
Be12 Be18 2.249038 1_555
Be12 Be19 2.249047 1_555
Be12 Be17 2.249062 1_555
Be12 Be16 2.249072 1_555
Be12 Be6 2.276015 1_545
Be12 Be8 2.276025 1_555
Be12 Be13 2.330446 1_555
Be12 Nd0 3.040480 1_555
Be12 Nd1 3.040508 1_545
Be13 Be25 2.154122 1_555
Be13 Be16 2.249036 1_555
Be13 Be23 2.249038 1_555
Be13 Be21 2.249064 1_555
Be13 Be18 2.249079 1_555
Be13 Be4 2.276007 1_456
Be13 Nd0 3.040461 1_556
Be13 Nd1 3.040507 1_455
Be14 Be25 2.154122 1_555
Be14 Be20 2.249035 1_555
Be14 Be23 2.249038 1_555
Be14 Be21 2.249064 1_555
Be14 Be22 2.249075 1_555
Be14 Be2 2.252513 1_555
Be14 Be3 2.252561 1_555
Be14 Be6 2.276012 1_555
Be14 Be8 2.276022 1_565
Be14 Be15 2.330446 1_555
Be14 Nd1 3.040459 1_555
Be14 Nd0 3.040505 1_565
Be15 Be25 2.154116 1_555
Be15 Be22 2.249028 1_555
Be15 Be19 2.249047 1_555
Be15 Be17 2.249062 1_555
Be15 Be20 2.249065 1_555
Be15 Be3 2.252513 1_555
Be15 Be2 2.252550 1_555
Be15 Be4 2.276021 1_555
Be15 Nd1 3.040477 1_554
Be15 Nd0 3.040506 1_655
Be16 Be25 2.154114 1_555
Be16 Be17 2.249022 1_555
Be16 Be23 2.249081 1_555
Be16 Be7 2.252468 1_555
Be16 Be5 2.252592 1_555
Be16 Be3 2.276015 1_455
Be16 Be20 2.330447 1_555
Be16 Nd0 3.040475 1_555
Be16 Nd1 3.040516 1_455
Be17 Be25 2.154094 1_555
Be17 Be20 2.249025 1_555
Be17 Be8 2.252587 1_555
Be17 Be4 2.252598 1_555
Be17 Be7 2.275980 1_555
Be17 Be19 2.330442 1_555
Be17 Nd1 3.040467 1_554
Be17 Nd0 3.040476 1_555
Be18 Be25 2.154118 1_555
Be18 Be21 2.249016 1_555
Be18 Be19 2.249084 1_555
Be18 Be9 2.252586 1_555
Be18 Be2 2.276020 1_546
Be18 Be22 2.330442 1_555
Be18 Nd0 3.040458 1_556
Be18 Nd1 3.040525 1_545
Be19 Be25 2.154141 1_555
Be19 Be22 2.249084 1_555
Be19 Be8 2.252473 1_555
Be19 Be4 2.252479 1_555
Be19 Be5 2.275967 1_645
Be19 Be9 2.276061 1_555
Be19 Nd0 3.040504 1_655
Be19 Nd1 3.040513 1_545
Be20 Be25 2.154122 1_555
Be20 Be23 2.249094 1_555
Be20 Be7 2.252473 1_555
Be20 Be5 2.252603 1_555
Be20 Nd1 3.040458 1_554
Be20 Nd0 3.040508 1_565
Be21 Be25 2.154100 1_555
Be21 Be22 2.249024 1_555
Be21 Be6 2.252598 1_555
Be21 Be7 2.276068 1_556
Be21 Be23 2.330442 1_555
Be21 Nd1 3.040455 1_555
Be21 Nd0 3.040464 1_556
Be22 Be25 2.154119 1_555
Be22 Be9 2.252592 1_555
Be22 Be3 2.276012 1_555
Be22 Nd1 3.040454 1_555
Be22 Nd0 3.040512 1_655
Be23 Be25 2.154136 1_555
Be23 Be6 2.252473 1_555
Be23 Be9 2.275980 1_465
Be23 Be5 2.276068 1_555
Be23 Nd0 3.040511 1_565
Be23 Nd1 3.040520 1_455
Be24 Be9 2.154094 1_454
Be24 Be5 2.154100 1_545
Be24 Be8 2.154114 1_455
Be24 Be6 2.154119 1_544
Be24 Be3 2.154122 1_445
Be24 Be4 2.154122 1_455
Be24 Be7 2.154136 1_545
