# generated using pymatgen
data_MgMnPt2
_symmetry_space_group_name_H-M   'P 1'
_cell_length_a   4.41338101
_cell_length_b   4.41399088
_cell_length_c   4.41208042
_cell_angle_alpha   60.00123909
_cell_angle_beta   60.01004319
_cell_angle_gamma   59.97264367
_symmetry_Int_Tables_number   1
_chemical_formula_structural   MgMnPt2
_chemical_formula_sum   'Mg1 Mn1 Pt2'
_cell_volume   60.76848527
_cell_formula_units_Z   1
loop_
 _symmetry_equiv_pos_site_id
 _symmetry_equiv_pos_as_xyz
  1  'x, y, z'
loop_
 _atom_site_type_symbol
 _atom_site_label
 _atom_site_symmetry_multiplicity
 _atom_site_fract_x
 _atom_site_fract_y
 _atom_site_fract_z
 _atom_site_occupancy
  Mg  Mg0  1  0.25082076  0.24970409  0.24984210  1
  Mn  Mn0  1  0.74970827  0.75007859  0.75004797  1
  Pt  Pt0  1  -0.00025507  1.00010784  1.00004729  1
  Pt  Pt1  1  0.49972604  0.50010847  0.50006163  1
loop_
_geom_bond_atom_site_label_1
_geom_bond_atom_site_label_2
_geom_bond_distance
_geom_bond_site_symmetry_2
Mg0 Pt0 2.698395 1_644
Mg0 Pt1 2.700907 1_555
Mg0 Pt1 2.700953 1_545
Mg0 Pt1 2.701463 1_554
Mg0 Pt0 2.702997 1_545
Mg0 Pt0 2.703859 1_554
Mg0 Pt0 2.704286 1_544
Mg0 Pt1 2.706215 1_455
Mn0 Pt0 2.702139 1_555
Mn0 Pt0 2.702256 1_654
Mn0 Pt0 2.702299 1_645
Mn0 Pt1 2.702302 1_556
Mn0 Pt1 2.702335 1_655
Mn0 Pt1 2.702380 1_555
Mn0 Pt1 2.702512 1_565
Mn0 Pt0 2.702836 1_655
