# generated using pymatgen
data_LiCu3
_symmetry_space_group_name_H-M   'P 1'
_cell_length_a   4.03655712
_cell_length_b   4.03655712
_cell_length_c   4.03655712
_cell_angle_alpha   60.00000000
_cell_angle_beta   60.00000000
_cell_angle_gamma   60.00000000
_symmetry_Int_Tables_number   1
_chemical_formula_structural   LiCu3
_chemical_formula_sum   'Li1 Cu3'
_cell_volume   46.50699816
_cell_formula_units_Z   1
loop_
 _symmetry_equiv_pos_site_id
 _symmetry_equiv_pos_as_xyz
  1  'x, y, z'
loop_
 _atom_site_type_symbol
 _atom_site_label
 _atom_site_symmetry_multiplicity
 _atom_site_fract_x
 _atom_site_fract_y
 _atom_site_fract_z
 _atom_site_occupancy
  Li  Li0  1  0.74999900  0.74999900  0.74999900  1
  Cu  Cu0  1  0.00000000  -0.00000000  0.00000000  1
  Cu  Cu1  1  0.50000000  0.50000000  0.50000000  1
  Cu  Cu2  1  0.25000100  0.25000100  0.25000100  1
loop_
_geom_bond_atom_site_label_1
_geom_bond_atom_site_label_2
_geom_bond_distance
_geom_bond_site_symmetry_2
Cu0 Li0 2.471873 1_544
Cu0 Li0 2.471873 1_445
Cu0 Li0 2.471873 1_454
Cu0 Cu2 2.471873 1_554
Cu0 Cu2 2.471873 1_455
Cu0 Cu2 2.471873 1_545
Cu0 Cu2 2.471886 1_555
Cu0 Li0 2.471886 1_444
Cu1 Li0 2.471866 1_555
Cu1 Cu2 2.471866 1_555
Cu1 Cu2 2.471880 1_655
Cu1 Cu2 2.471880 1_565
Cu1 Li0 2.471880 1_554
Cu1 Li0 2.471880 1_545
Cu1 Li0 2.471880 1_455
Cu1 Cu2 2.471880 1_556
Cu2 Li0 2.854265 1_554
Cu2 Li0 2.854265 1_545
Cu2 Li0 2.854265 1_455
Cu2 Li0 2.854288 1_454
Cu2 Li0 2.854288 1_544
Cu2 Li0 2.854288 1_445
