# generated using pymatgen
data_LiLa3
_symmetry_space_group_name_H-M   'P 1'
_cell_length_a   5.11606900
_cell_length_b   5.11606900
_cell_length_c   5.11606900
_cell_angle_alpha   90.00000000
_cell_angle_beta   90.00000000
_cell_angle_gamma   90.00000000
_symmetry_Int_Tables_number   1
_chemical_formula_structural   LiLa3
_chemical_formula_sum   'Li1 La3'
_cell_volume   133.90881887
_cell_formula_units_Z   1
loop_
 _symmetry_equiv_pos_site_id
 _symmetry_equiv_pos_as_xyz
  1  'x, y, z'
loop_
 _atom_site_type_symbol
 _atom_site_label
 _atom_site_symmetry_multiplicity
 _atom_site_fract_x
 _atom_site_fract_y
 _atom_site_fract_z
 _atom_site_occupancy
  Li  Li0  1  0.50000000  0.50000000  0.50000000  1
  La  La0  1  0.50000000  0.00000000  0.00000000  1
  La  La1  1  0.00000000  0.50000000  0.00000000  1
  La  La2  1  0.00000000  0.00000000  0.50000000  1
loop_
_geom_bond_atom_site_label_1
_geom_bond_atom_site_label_2
_geom_bond_distance
_geom_bond_site_symmetry_2
La0 La1 3.617607 1_645
La0 La1 3.617607 1_545
La0 Li0 3.617607 1_555
La0 La2 3.617607 1_554
La0 Li0 3.617607 1_554
La0 La2 3.617607 1_555
La0 Li0 3.617607 1_545
La0 La2 3.617607 1_655
La0 Li0 3.617607 1_544
La0 La1 3.617607 1_655
La0 La2 3.617607 1_654
La0 La1 3.617607 1_555
La1 Li0 3.617607 1_555
La1 La2 3.617607 1_554
La1 Li0 3.617607 1_554
La1 La2 3.617607 1_565
La1 La2 3.617607 1_555
La1 Li0 3.617607 1_455
La1 La2 3.617607 1_564
La1 Li0 3.617607 1_454
La2 Li0 3.617607 1_555
La2 Li0 3.617607 1_445
La2 Li0 3.617607 1_545
La2 Li0 3.617607 1_455
