# generated using pymatgen
data_MgB7
_symmetry_space_group_name_H-M   'P 1'
_cell_length_a   5.95848611
_cell_length_b   7.24717799
_cell_length_c   7.24717799
_cell_angle_alpha   92.13192896
_cell_angle_beta   114.27796929
_cell_angle_gamma   114.27796929
_symmetry_Int_Tables_number   1
_chemical_formula_structural   MgB7
_chemical_formula_sum   'Mg4 B28'
_cell_volume   251.90496068
_cell_formula_units_Z   4
loop_
 _symmetry_equiv_pos_site_id
 _symmetry_equiv_pos_as_xyz
  1  'x, y, z'
loop_
 _atom_site_type_symbol
 _atom_site_label
 _atom_site_symmetry_multiplicity
 _atom_site_fract_x
 _atom_site_fract_y
 _atom_site_fract_z
 _atom_site_occupancy
  Mg  Mg0  1  0.00000000  0.00000000  0.00000000  1
  Mg  Mg1  1  0.50000000  0.00000000  0.00000000  1
  Mg  Mg2  1  0.13388910  0.38518331  0.38518331  1
  Mg  Mg3  1  0.86611090  0.61481669  0.61481669  1
  B  B0  1  0.88446994  0.24332942  0.02557463  1
  B  B1  1  0.20844597  0.37729617  0.03335994  1
  B  B2  1  0.70217544  0.37731135  0.03331166  1
  B  B3  1  0.67614625  0.75865390  0.09365967  1
  B  B4  1  0.52440745  0.35818880  0.19066626  1
  B  B5  1  0.50750015  0.59948494  0.22695406  1
  B  B6  1  0.81884196  0.59946866  0.22689580  1
  B  B7  1  0.32385375  0.90634033  0.24134610  1
  B  B8  1  0.88446994  0.02557463  0.24332942  1
  B  B9  1  0.52440745  0.19066626  0.35818880  1
  B  B10  1  0.20844597  0.03335994  0.37729617  1
  B  B11  1  0.70217544  0.03331166  0.37731135  1
  B  B12  1  0.18115804  0.77310420  0.40053134  1
  B  B13  1  0.49249985  0.77304594  0.40051506  1
  B  B14  1  0.50750015  0.22695406  0.59948494  1
  B  B15  1  0.81884196  0.22689580  0.59946866  1
  B  B16  1  0.29782456  0.96668834  0.62268865  1
  B  B17  1  0.79155403  0.96664006  0.62270383  1
  B  B18  1  0.47559255  0.80933374  0.64181120  1
  B  B19  1  0.11553006  0.97442537  0.75667058  1
  B  B20  1  0.67614625  0.09365967  0.75865390  1
  B  B21  1  0.18115804  0.40053134  0.77310420  1
  B  B22  1  0.49249985  0.40051506  0.77304594  1
  B  B23  1  0.47559255  0.64181120  0.80933374  1
  B  B24  1  0.32385375  0.24134610  0.90634033  1
  B  B25  1  0.29782456  0.62268865  0.96668834  1
  B  B26  1  0.79155403  0.62270383  0.96664006  1
  B  B27  1  0.11553006  0.75667058  0.97442537  1
loop_
_geom_bond_atom_site_label_1
_geom_bond_atom_site_label_2
_geom_bond_distance
_geom_bond_site_symmetry_2
B0 B1 1.742820 1_655
B0 B2 1.743310 1_555
B0 B20 1.794846 1_554
B0 Mg1 2.167168 1_555
B0 Mg0 2.167219 1_655
B0 Mg2 2.327408 1_655
B1 B5 1.775690 1_555
B1 B25 1.782275 1_554
B1 B24 1.816915 1_554
B1 B4 1.823294 1_555
B1 B21 1.845589 1_554
B1 Mg0 2.447207 1_555
B1 Mg2 2.764638 1_555
B2 B6 1.775733 1_555
B2 B26 1.782275 1_554
B2 B24 1.816428 1_554
B2 B4 1.823727 1_555
B2 B22 1.845375 1_554
B2 Mg1 2.447363 1_555
B2 Mg2 2.756346 1_655
B3 B6 1.789006 1_555
B3 B5 1.789280 1_555
B3 B8 1.794846 1_565
B3 Mg0 2.373519 1_665
B3 Mg1 2.373539 1_565
B4 B9 1.748592 1_555
B4 B6 1.807977 1_555
B4 B5 1.808247 1_555
B5 B6 1.855348 1_555
B5 Mg3 2.705876 1_555
B5 Mg2 2.841019 1_555
B6 Mg3 2.700949 1_555
B6 Mg2 2.830287 1_655
B7 B9 1.845037 1_565
B7 Mg0 2.373519 1_565
B7 Mg1 2.373539 1_565
B8 Mg1 2.167168 1_555
B8 Mg0 2.167219 1_655
B8 Mg2 2.327408 1_655
B10 B8 1.742820 1_455
B10 B14 1.775690 1_555
B10 B16 1.782275 1_545
B10 B7 1.816915 1_545
B10 B9 1.823294 1_555
B10 B12 1.845589 1_545
B10 Mg0 2.447207 1_555
B10 Mg2 2.764638 1_555
B11 B8 1.743310 1_555
B11 B15 1.775733 1_555
B11 B17 1.782275 1_545
B11 B7 1.816428 1_545
B11 B9 1.823727 1_555
B11 B13 1.845375 1_545
B11 Mg1 2.447363 1_555
B11 Mg2 2.756346 1_655
B12 B16 1.775733 1_555
B12 B7 1.789006 1_555
B12 B6 1.800526 1_455
B12 B18 1.807977 1_555
B12 B13 1.855348 1_555
B12 Mg2 2.700949 1_555
B12 Mg3 2.830287 1_455
B13 B17 1.775690 1_555
B13 B7 1.789280 1_555
B13 B5 1.799843 1_555
B13 B18 1.808247 1_555
B13 Mg2 2.705876 1_555
B13 Mg3 2.841019 1_555
B14 B20 1.789280 1_555
B14 B22 1.799843 1_555
B14 B9 1.808247 1_555
B14 B16 1.845375 1_545
B14 B15 1.855348 1_555
B14 Mg3 2.705876 1_555
B14 Mg2 2.841019 1_555
B15 B20 1.789006 1_555
B15 B21 1.800526 1_655
B15 B9 1.807977 1_555
B15 B17 1.845589 1_545
B15 Mg3 2.700949 1_555
B15 Mg2 2.830287 1_655
B16 B19 1.743310 1_555
B16 B20 1.816428 1_565
B16 B18 1.823727 1_555
B16 Mg1 2.447363 1_566
B16 Mg3 2.756346 1_455
B17 B19 1.742820 1_655
B17 B20 1.816915 1_565
B17 B18 1.823294 1_555
B17 Mg0 2.447207 1_666
B17 Mg3 2.764638 1_555
B18 B23 1.748592 1_555
B18 B20 1.845037 1_565
B19 B24 1.794846 1_565
B19 Mg1 2.167168 1_566
B19 Mg0 2.167219 1_566
B19 Mg3 2.327408 1_455
B20 Mg0 2.373519 1_656
B20 Mg1 2.373539 1_556
B21 B25 1.775733 1_555
B21 B24 1.789006 1_555
B21 B23 1.807977 1_555
B21 B22 1.855348 1_555
B21 Mg2 2.700949 1_555
B21 Mg3 2.830287 1_455
B22 B26 1.775690 1_555
B22 B24 1.789280 1_555
B22 B23 1.808247 1_555
B22 Mg2 2.705876 1_555
B22 Mg3 2.841019 1_555
B23 B26 1.823294 1_555
B23 B25 1.823727 1_555
B23 B3 1.845037 1_556
B24 B4 1.845037 1_556
B24 Mg0 2.373519 1_556
B24 Mg1 2.373539 1_556
B25 B27 1.743310 1_555
B25 B3 1.816428 1_556
B25 B5 1.845375 1_556
B25 Mg1 2.447363 1_566
B25 Mg3 2.756346 1_455
B26 B27 1.742820 1_655
B26 B3 1.816915 1_556
B26 B6 1.845589 1_556
B26 Mg0 2.447207 1_666
B26 Mg3 2.764638 1_555
B27 B7 1.794846 1_556
B27 Mg1 2.167168 1_566
B27 Mg0 2.167219 1_566
B27 Mg3 2.327408 1_455
