# generated using pymatgen
data_BaSm2PtO5
_symmetry_space_group_name_H-M   'P 1'
_cell_length_a   6.74426400
_cell_length_b   6.74426400
_cell_length_c   5.97855100
_cell_angle_alpha   90.00000000
_cell_angle_beta   90.00000000
_cell_angle_gamma   90.00000000
_symmetry_Int_Tables_number   1
_chemical_formula_structural   BaSm2PtO5
_chemical_formula_sum   'Ba2 Sm4 Pt2 O10'
_cell_volume   271.93497157
_cell_formula_units_Z   2
loop_
 _symmetry_equiv_pos_site_id
 _symmetry_equiv_pos_as_xyz
  1  'x, y, z'
loop_
 _atom_site_type_symbol
 _atom_site_label
 _atom_site_symmetry_multiplicity
 _atom_site_fract_x
 _atom_site_fract_y
 _atom_site_fract_z
 _atom_site_occupancy
  Ba  Ba0  1  0.00000000  0.00000000  0.00000000  1
  Ba  Ba1  1  0.50000000  0.50000000  0.00000000  1
  Sm  Sm0  1  0.82552800  0.67447200  0.50000000  1
  Sm  Sm1  1  0.67447200  0.17447200  0.50000000  1
  Sm  Sm2  1  0.32552800  0.82552800  0.50000000  1
  Sm  Sm3  1  0.17447200  0.32552800  0.50000000  1
  Pt  Pt0  1  0.50000000  0.00000000  0.00000000  1
  Pt  Pt1  1  0.00000000  0.50000000  0.00000000  1
  O  O0  1  0.50000000  0.50000000  0.50000000  1
  O  O1  1  0.00000000  0.00000000  0.50000000  1
  O  O2  1  0.13919300  0.63919300  0.25724400  1
  O  O3  1  0.86080700  0.36080700  0.25724400  1
  O  O4  1  0.36080700  0.13919300  0.25724400  1
  O  O5  1  0.63919300  0.86080700  0.25724400  1
  O  O6  1  0.13919300  0.63919300  0.74275600  1
  O  O7  1  0.63919300  0.86080700  0.74275600  1
  O  O8  1  0.86080700  0.36080700  0.74275600  1
  O  O9  1  0.36080700  0.13919300  0.74275600  1
loop_
_geom_bond_atom_site_label_1
_geom_bond_atom_site_label_2
_geom_bond_distance
_geom_bond_site_symmetry_2
Ba0 O1 2.989275 1_555
Ba0 O1 2.989275 1_554
Ba0 O2 3.027848 1_545
Ba0 O4 3.027848 1_555
Ba0 O9 3.027848 1_554
Ba0 O6 3.027848 1_544
Ba0 O5 3.027848 1_445
Ba0 O3 3.027848 1_455
Ba0 O8 3.027848 1_454
Ba0 O7 3.027848 1_444
Ba1 O0 2.989275 1_554
Ba1 O0 2.989275 1_555
Ba1 O5 3.027848 1_555
Ba1 O3 3.027848 1_555
Ba1 O8 3.027848 1_554
Ba1 O7 3.027848 1_554
Ba1 O6 3.027848 1_554
Ba1 O4 3.027848 1_555
Ba1 O9 3.027848 1_554
Ba1 O2 3.027848 1_555
O0 Sm0 2.490898 1_555
O0 Sm2 2.490898 1_555
O0 Sm3 2.490898 1_555
O0 Sm1 2.490898 1_555
O1 Sm3 2.490898 1_555
O1 Sm1 2.490898 1_455
O1 Sm2 2.490898 1_545
O1 Sm0 2.490898 1_445
O2 Pt1 2.031698 1_555
O2 Sm2 2.294539 1_555
O2 Sm0 2.576442 1_455
O2 Sm3 2.576442 1_555
O3 Pt1 2.031698 1_655
O3 Sm1 2.294539 1_555
O3 Sm3 2.576442 1_655
O3 Sm0 2.576442 1_555
O4 Pt0 2.031698 1_555
O4 Sm3 2.294539 1_555
O4 Sm2 2.576442 1_545
O4 Sm1 2.576442 1_555
O5 Pt0 2.031698 1_565
O5 Sm0 2.294539 1_555
O5 Sm1 2.576442 1_565
O5 Sm2 2.576442 1_555
O6 Pt1 2.031698 1_556
O6 Sm2 2.294539 1_555
O6 Sm0 2.576442 1_455
O6 Sm3 2.576442 1_555
O7 Pt0 2.031698 1_566
O7 Sm0 2.294539 1_555
O7 Sm1 2.576442 1_565
O7 Sm2 2.576442 1_555
O8 Pt1 2.031698 1_656
O8 Sm1 2.294539 1_555
O8 Sm3 2.576442 1_655
O8 Sm0 2.576442 1_555
O9 Pt0 2.031698 1_556
O9 Sm3 2.294539 1_555
O9 Sm2 2.576442 1_545
O9 Sm1 2.576442 1_555
