# generated using pymatgen
data_LaWN3
_symmetry_space_group_name_H-M   'P 1'
_cell_length_a   3.92323858
_cell_length_b   3.92323858
_cell_length_c   4.35371765
_cell_angle_alpha   90.00000000
_cell_angle_beta   90.00000000
_cell_angle_gamma   90.00000000
_symmetry_Int_Tables_number   1
_chemical_formula_structural   LaWN3
_chemical_formula_sum   'La1 W1 N3'
_cell_volume   67.01155549
_cell_formula_units_Z   1
loop_
 _symmetry_equiv_pos_site_id
 _symmetry_equiv_pos_as_xyz
  1  'x, y, z'
loop_
 _atom_site_type_symbol
 _atom_site_label
 _atom_site_symmetry_multiplicity
 _atom_site_fract_x
 _atom_site_fract_y
 _atom_site_fract_z
 _atom_site_occupancy
  La  La0  1  0.50000000  0.50000000  0.32787960  1
  W  W0  1  0.00000000  0.00000000  0.79486505  1
  N  N0  1  0.00000000  0.50000000  0.70218332  1
  N  N1  1  0.50000000  -0.00000000  0.70218332  1
  N  N2  1  -0.00000000  -0.00000000  0.20915870  1
loop_
_geom_bond_atom_site_label_1
_geom_bond_atom_site_label_2
_geom_bond_distance
_geom_bond_site_symmetry_2
La0 N0 2.550213 1_555
La0 N0 2.550213 1_655
La0 N1 2.550213 1_565
La0 N1 2.550213 1_555
La0 N2 2.821890 1_655
La0 N2 2.821890 1_565
La0 N2 2.821890 1_665
La0 N2 2.821890 1_555
N0 W0 2.002691 1_555
N0 W0 2.002691 1_565
N1 W0 2.002691 1_555
N1 W0 2.002691 1_655
N2 W0 1.803718 1_554
