# generated using pymatgen
data_Ca7(H6Cl)2
_symmetry_space_group_name_H-M   'P 1'
_cell_length_a   9.31517061
_cell_length_b   9.31517815
_cell_length_c   3.67189698
_cell_angle_alpha   89.99995766
_cell_angle_beta   90.00004759
_cell_angle_gamma   119.99978887
_symmetry_Int_Tables_number   1
_chemical_formula_structural   Ca7(H6Cl)2
_chemical_formula_sum   'Ca7 H12 Cl2'
_cell_volume   275.93324132
_cell_formula_units_Z   1
loop_
 _symmetry_equiv_pos_site_id
 _symmetry_equiv_pos_as_xyz
  1  'x, y, z'
loop_
 _atom_site_type_symbol
 _atom_site_label
 _atom_site_symmetry_multiplicity
 _atom_site_fract_x
 _atom_site_fract_y
 _atom_site_fract_z
 _atom_site_occupancy
  Ca  Ca0  1  0.66666580  0.33333327  -0.00000056  1
  Ca  Ca1  1  0.07770297  0.43856918  0.00000022  1
  Ca  Ca2  1  0.56143126  0.63913391  0.00000141  1
  Ca  Ca3  1  0.36086796  0.92229716  -0.00000018  1
  Ca  Ca4  1  0.78139443  0.05134968  0.49999936  1
  Ca  Ca5  1  0.26995582  0.21860737  0.50000042  1
  Ca  Ca6  1  0.94864888  0.73004407  0.50000028  1
  H  H0  1  0.39132736  0.17587873  0.99999939  1
  H  H1  1  0.82412140  0.21544879  0.00000041  1
  H  H2  1  0.30208323  0.39210633  0.99999979  1
  H  H3  1  0.78455140  0.60867267  0.00000004  1
  H  H4  1  0.09002280  0.69791627  -0.00000008  1
  H  H5  1  0.60789340  0.90997684  0.00000038  1
  H  H6  1  0.56493785  0.11815515  0.49999995  1
  H  H7  1  0.05750440  0.28540432  0.49999998  1
  H  H8  1  0.55321804  0.43506207  0.49999981  1
  H  H9  1  0.88184570  0.44678240  0.50000007  1
  H  H10  1  0.71459587  0.77209964  0.49999996  1
  H  H11  1  0.22790064  0.94249611  0.50000004  1
  Cl  Cl0  1  -0.00000116  0.99999821  0.99999990  1
  Cl  Cl1  1  0.33333394  0.66666683  0.50000041  1
loop_
_geom_bond_atom_site_label_1
_geom_bond_atom_site_label_2
_geom_bond_distance
_geom_bond_site_symmetry_2
Ca0 H0 2.228842 1_554
Ca0 H1 2.228848 1_555
Ca0 H3 2.228849 1_555
Ca0 H8 2.527233 1_554
Ca0 H8 2.527237 1_555
Ca0 H6 2.527247 1_554
Ca0 H6 2.527249 1_555
Ca0 H9 2.527256 1_554
Ca0 H9 2.527258 1_555
Ca1 H1 2.233845 1_455
Ca1 H7 2.274487 1_555
Ca1 H7 2.274490 1_554
Ca1 H2 2.336801 1_554
Ca1 H4 2.360577 1_555
Ca1 H9 2.616244 1_454
Ca1 H9 2.616246 1_455
Ca1 Cl1 2.914810 1_554
Ca1 Cl1 2.914811 1_555
Ca2 H3 2.233835 1_555
Ca2 H10 2.274484 1_555
Ca2 H10 2.274493 1_554
Ca2 H5 2.336806 1_555
Ca2 H2 2.360589 1_554
Ca2 H8 2.616250 1_555
Ca2 H8 2.616261 1_554
Ca2 Cl1 2.914799 1_555
Ca2 Cl1 2.914801 1_554
Ca3 H0 2.233847 1_564
Ca3 H11 2.274493 1_554
Ca3 H11 2.274496 1_555
Ca3 H4 2.336824 1_555
Ca3 H5 2.360560 1_555
Ca3 H6 2.616250 1_564
Ca3 H6 2.616250 1_565
Ca3 Cl1 2.914799 1_554
Ca3 Cl1 2.914800 1_555
Ca4 H1 2.292893 1_555
Ca4 H1 2.292901 1_556
Ca4 H10 2.352691 1_545
Ca4 H5 2.364034 1_545
Ca4 H5 2.364040 1_546
Ca4 H6 2.389061 1_555
Ca4 H7 2.400242 1_655
Ca4 Cl0 2.953010 1_645
Ca4 Cl0 2.953010 1_644
Ca5 H0 2.292894 1_555
Ca5 H0 2.292902 1_554
Ca5 H7 2.352675 1_555
Ca5 H2 2.364024 1_555
Ca5 H2 2.364026 1_554
Ca5 H8 2.389066 1_555
Ca5 H11 2.400249 1_545
Ca5 Cl0 2.953032 1_545
Ca5 Cl0 2.953034 1_544
Ca6 H3 2.292890 1_556
Ca6 H3 2.292891 1_555
Ca6 H11 2.352707 1_655
Ca6 H4 2.364036 1_656
Ca6 H4 2.364041 1_655
Ca6 H9 2.389070 1_555
Ca6 H10 2.400219 1_555
Ca6 Cl0 2.953004 1_654
Ca6 Cl0 2.953005 1_655
