# generated using pymatgen
data_ZrCuSiAs
_symmetry_space_group_name_H-M   'P 1'
_cell_length_a   3.67959000
_cell_length_b   3.67959000
_cell_length_c   9.67023200
_cell_angle_alpha   90.00000000
_cell_angle_beta   90.00000000
_cell_angle_gamma   90.00000000
_symmetry_Int_Tables_number   1
_chemical_formula_structural   ZrCuSiAs
_chemical_formula_sum   'Zr2 Cu2 Si2 As2'
_cell_volume   130.92897057
_cell_formula_units_Z   2
loop_
 _symmetry_equiv_pos_site_id
 _symmetry_equiv_pos_as_xyz
  1  'x, y, z'
loop_
 _atom_site_type_symbol
 _atom_site_label
 _atom_site_symmetry_multiplicity
 _atom_site_fract_x
 _atom_site_fract_y
 _atom_site_fract_z
 _atom_site_occupancy
  Zr  Zr0  1  0.00000000  0.50000000  0.77786900  1
  Zr  Zr1  1  0.50000000  0.00000000  0.22213100  1
  Cu  Cu0  1  0.00000000  0.00000000  0.50000000  1
  Cu  Cu1  1  0.50000000  0.50000000  0.50000000  1
  Si  Si0  1  0.50000000  0.50000000  0.00000000  1
  Si  Si1  1  0.00000000  0.00000000  0.00000000  1
  As  As0  1  0.00000000  0.50000000  0.32131900  1
  As  As1  1  0.50000000  0.00000000  0.67868100  1
loop_
_geom_bond_atom_site_label_1
_geom_bond_atom_site_label_2
_geom_bond_distance
_geom_bond_site_symmetry_2
Si0 Si1 2.601863 1_555
Si0 Si1 2.601863 1_665
Si0 Si1 2.601863 1_655
Si0 Si1 2.601863 1_565
Si0 Zr1 2.828250 1_565
Si0 Zr1 2.828250 1_555
Si0 Zr0 2.828250 1_554
Si0 Zr0 2.828250 1_654
Si1 Zr1 2.828250 1_555
Si1 Zr1 2.828250 1_455
Si1 Zr0 2.828250 1_554
Si1 Zr0 2.828250 1_544
As0 Cu1 2.523973 1_555
As0 Cu1 2.523973 1_455
As0 Cu0 2.523973 1_565
As0 Cu0 2.523973 1_555
As0 Zr1 2.773031 1_565
As0 Zr1 2.773031 1_465
As0 Zr1 2.773031 1_555
As0 Zr1 2.773031 1_455
As1 Cu0 2.523973 1_655
As1 Cu0 2.523973 1_555
As1 Cu1 2.523973 1_555
As1 Cu1 2.523973 1_545
As1 Zr0 2.773031 1_645
As1 Zr0 2.773031 1_555
As1 Zr0 2.773031 1_655
As1 Zr0 2.773031 1_545
