# generated using pymatgen
data_TmZr
_symmetry_space_group_name_H-M   'P 1'
_cell_length_a   6.78285944
_cell_length_b   6.78286120
_cell_length_c   10.56755794
_cell_angle_alpha   90.00098191
_cell_angle_beta   89.99910191
_cell_angle_gamma   119.99899777
_symmetry_Int_Tables_number   1
_chemical_formula_structural   TmZr
_chemical_formula_sum   'Tm8 Zr8'
_cell_volume   421.05167795
_cell_formula_units_Z   8
loop_
 _symmetry_equiv_pos_site_id
 _symmetry_equiv_pos_as_xyz
  1  'x, y, z'
loop_
 _atom_site_type_symbol
 _atom_site_label
 _atom_site_symmetry_multiplicity
 _atom_site_fract_x
 _atom_site_fract_y
 _atom_site_fract_z
 _atom_site_occupancy
  Tm  Tm0_0  1  0.33333464  0.16666486  0.37499880  1
  Tm  Tm0_1  1  0.33333464  0.16666486  0.87499880  1
  Tm  Tm0_2  1  0.33333464  0.66666486  0.37499880  1
  Tm  Tm0_3  1  0.33333464  0.66666486  0.87499881  1
  Tm  Tm0_4  1  0.83333464  0.16666486  0.37499880  1
  Tm  Tm0_5  1  0.83333464  0.16666486  0.87499881  1
  Tm  Tm0_6  1  0.83333464  0.66666486  0.37499880  1
  Tm  Tm0_7  1  0.83333464  0.66666486  0.87499880  1
  Zr  Zr0_0  1  0.16666486  0.33333364  0.12500120  1
  Zr  Zr0_1  1  0.16666486  0.33333364  0.62500119  1
  Zr  Zr0_2  1  0.16666486  0.83333364  0.12500120  1
  Zr  Zr0_3  1  0.16666486  0.83333364  0.62500119  1
  Zr  Zr0_4  1  0.66666486  0.33333364  0.12500120  1
  Zr  Zr0_5  1  0.66666486  0.33333364  0.62500119  1
  Zr  Zr0_6  1  0.66666486  0.83333364  0.12500120  1
  Zr  Zr0_7  1  0.66666486  0.83333364  0.62500120  1
loop_
_geom_bond_atom_site_label_1
_geom_bond_atom_site_label_2
_geom_bond_distance
_geom_bond_site_symmetry_2
Tm0_0 Zr0_2 3.288358 1_545
Tm0_0 Zr0_4 3.288358 1_555
Tm0_0 Zr0_1 3.288394 1_555
Tm0_0 Zr0_0 3.288413 1_555
Tm0_0 Zr0_5 3.288425 1_555
Tm0_0 Zr0_3 3.288432 1_545
Tm0_0 Tm0_4 3.391430 1_555
Tm0_0 Tm0_4 3.391430 1_455
Tm0_0 Tm0_2 3.391431 1_545
Tm0_0 Tm0_2 3.391431 1_555
Tm0_0 Tm0_6 3.391482 1_445
Tm0_0 Tm0_6 3.391482 1_555
Tm0_1 Zr0_3 3.288358 1_545
Tm0_1 Zr0_5 3.288358 1_555
Tm0_1 Zr0_0 3.288394 1_556
Tm0_1 Zr0_1 3.288413 1_555
Tm0_1 Zr0_4 3.288425 1_556
Tm0_1 Zr0_2 3.288432 1_546
Tm0_1 Tm0_5 3.391430 1_455
Tm0_1 Tm0_5 3.391430 1_555
Tm0_1 Tm0_3 3.391431 1_545
Tm0_1 Tm0_3 3.391431 1_555
Tm0_1 Tm0_7 3.391482 1_445
Tm0_1 Tm0_7 3.391482 1_555
Tm0_2 Zr0_0 3.288358 1_555
Tm0_2 Zr0_6 3.288358 1_555
Tm0_2 Zr0_3 3.288394 1_555
Tm0_2 Zr0_2 3.288413 1_555
Tm0_2 Zr0_7 3.288425 1_555
Tm0_2 Zr0_1 3.288432 1_555
Tm0_2 Tm0_6 3.391430 1_455
Tm0_2 Tm0_6 3.391430 1_555
Tm0_2 Tm0_4 3.391482 1_565
Tm0_2 Tm0_4 3.391482 1_455
Tm0_3 Zr0_1 3.288358 1_555
Tm0_3 Zr0_7 3.288358 1_555
Tm0_3 Zr0_2 3.288394 1_556
Tm0_3 Zr0_3 3.288413 1_555
Tm0_3 Zr0_6 3.288425 1_556
Tm0_3 Zr0_0 3.288432 1_556
Tm0_3 Tm0_7 3.391430 1_555
Tm0_3 Tm0_7 3.391430 1_455
Tm0_3 Tm0_5 3.391482 1_565
Tm0_3 Tm0_5 3.391482 1_455
Tm0_4 Zr0_6 3.288358 1_545
Tm0_4 Zr0_0 3.288358 1_655
Tm0_4 Zr0_5 3.288394 1_555
Tm0_4 Zr0_4 3.288413 1_555
Tm0_4 Zr0_1 3.288425 1_655
Tm0_4 Zr0_7 3.288432 1_545
Tm0_4 Tm0_6 3.391431 1_555
Tm0_4 Tm0_6 3.391431 1_545
Tm0_5 Zr0_7 3.288358 1_545
Tm0_5 Zr0_1 3.288358 1_655
Tm0_5 Zr0_4 3.288394 1_556
Tm0_5 Zr0_5 3.288413 1_555
Tm0_5 Zr0_0 3.288425 1_656
Tm0_5 Zr0_6 3.288432 1_546
Tm0_5 Tm0_7 3.391431 1_545
Tm0_5 Tm0_7 3.391431 1_555
Tm0_6 Zr0_4 3.288358 1_555
Tm0_6 Zr0_2 3.288358 1_655
Tm0_6 Zr0_7 3.288394 1_555
Tm0_6 Zr0_6 3.288413 1_555
Tm0_6 Zr0_3 3.288425 1_655
Tm0_6 Zr0_5 3.288432 1_555
Tm0_7 Zr0_5 3.288358 1_555
Tm0_7 Zr0_3 3.288358 1_655
Tm0_7 Zr0_6 3.288394 1_556
Tm0_7 Zr0_7 3.288413 1_555
Tm0_7 Zr0_2 3.288425 1_656
Tm0_7 Zr0_4 3.288432 1_556
Zr0_0 Zr0_4 3.391430 1_555
Zr0_0 Zr0_4 3.391430 1_455
Zr0_0 Zr0_2 3.391431 1_545
Zr0_0 Zr0_2 3.391431 1_555
Zr0_0 Zr0_6 3.391482 1_445
Zr0_0 Zr0_6 3.391482 1_555
Zr0_1 Zr0_5 3.391430 1_455
Zr0_1 Zr0_5 3.391430 1_555
Zr0_1 Zr0_3 3.391431 1_545
Zr0_1 Zr0_3 3.391431 1_555
Zr0_1 Zr0_7 3.391482 1_555
Zr0_1 Zr0_7 3.391482 1_445
Zr0_2 Zr0_6 3.391430 1_455
Zr0_2 Zr0_6 3.391430 1_555
Zr0_2 Zr0_4 3.391482 1_565
Zr0_2 Zr0_4 3.391482 1_455
Zr0_3 Zr0_7 3.391430 1_455
Zr0_3 Zr0_7 3.391430 1_555
Zr0_3 Zr0_5 3.391482 1_565
Zr0_3 Zr0_5 3.391482 1_455
Zr0_4 Zr0_6 3.391431 1_555
Zr0_4 Zr0_6 3.391431 1_545
Zr0_5 Zr0_7 3.391431 1_545
Zr0_5 Zr0_7 3.391431 1_555
