# generated using pymatgen
data_Nd11In9Ni4
_symmetry_space_group_name_H-M   'P 1'
_cell_length_a   13.33909113
_cell_length_b   13.33909113
_cell_length_c   3.76421497
_cell_angle_alpha   90.00000000
_cell_angle_beta   90.00000000
_cell_angle_gamma   112.59460651
_symmetry_Int_Tables_number   1
_chemical_formula_structural   Nd11In9Ni4
_chemical_formula_sum   'Nd11 In9 Ni4'
_cell_volume   618.36445030
_cell_formula_units_Z   1
loop_
 _symmetry_equiv_pos_site_id
 _symmetry_equiv_pos_as_xyz
  1  'x, y, z'
loop_
 _atom_site_type_symbol
 _atom_site_label
 _atom_site_symmetry_multiplicity
 _atom_site_fract_x
 _atom_site_fract_y
 _atom_site_fract_z
 _atom_site_occupancy
  Nd  Nd0  1  0.07883666  0.41648730  0.00000000  1
  Nd  Nd1  1  0.92116334  0.58351270  0.00000000  1
  Nd  Nd2  1  0.41648730  0.07883666  0.00000000  1
  Nd  Nd3  1  0.58351270  0.92116334  0.00000000  1
  Nd  Nd4  1  0.62496819  0.37503181  0.00000000  1
  Nd  Nd5  1  0.37503181  0.62496819  0.00000000  1
  Nd  Nd6  1  0.83796786  0.16203214  0.00000000  1
  Nd  Nd7  1  0.16203214  0.83796786  0.00000000  1
  Nd  Nd8  1  -0.00000000  -0.00000000  0.00000000  1
  Nd  Nd9  1  0.31323363  0.31323363  0.00000000  1
  Nd  Nd10  1  0.68676637  0.68676637  0.00000000  1
  In  In0  1  0.83688246  0.36747892  0.50000000  1
  In  In1  1  0.16311754  0.63252108  0.50000000  1
  In  In2  1  0.36747892  0.83688246  0.50000000  1
  In  In3  1  0.63252108  0.16311754  0.50000000  1
  In  In4  1  0.08117970  0.22024531  0.50000000  1
  In  In5  1  0.91882030  0.77975469  0.50000000  1
  In  In6  1  0.22024531  0.08117970  0.50000000  1
  In  In7  1  0.77975469  0.91882030  0.50000000  1
  In  In8  1  0.50000000  0.50000000  0.50000000  1
  Ni  Ni0  1  0.24513108  0.44853109  0.50000000  1
  Ni  Ni1  1  0.75486892  0.55146891  0.50000000  1
  Ni  Ni2  1  0.44853109  0.24513108  0.50000000  1
  Ni  Ni3  1  0.55146891  0.75486892  0.50000000  1
loop_
_geom_bond_atom_site_label_1
_geom_bond_atom_site_label_2
_geom_bond_distance
_geom_bond_site_symmetry_2
Nd0 Ni0 2.813706 1_554
Nd0 Ni0 2.813706 1_555
Nd1 Ni1 2.813706 1_555
Nd1 Ni1 2.813706 1_554
Nd2 Ni2 2.813706 1_555
Nd2 Ni2 2.813706 1_554
Nd3 Ni3 2.813706 1_554
Nd3 Ni3 2.813706 1_555
Nd4 Ni1 2.991678 1_555
Nd4 Ni1 2.991678 1_554
Nd4 Ni2 2.991678 1_554
Nd4 Ni2 2.991678 1_555
Nd5 Ni3 2.991678 1_555
Nd5 Ni0 2.991678 1_555
Nd5 Ni3 2.991678 1_554
Nd5 Ni0 2.991678 1_554
Nd9 Ni0 2.980683 1_555
Nd9 Ni2 2.980683 1_554
Nd9 Ni2 2.980683 1_555
Nd9 Ni0 2.980683 1_554
Nd10 Ni3 2.980683 1_554
Nd10 Ni1 2.980683 1_554
Nd10 Ni3 2.980683 1_555
Nd10 Ni1 2.980683 1_555
In0 In3 3.025220 1_555
In0 Ni1 3.046857 1_555
In0 Nd1 3.258980 1_556
In0 Nd1 3.258980 1_555
In0 Nd6 3.329147 1_555
In0 Nd6 3.329147 1_556
In0 Nd4 3.429548 1_555
In0 Nd4 3.429548 1_556
In0 Nd0 3.572794 1_655
In0 Nd0 3.572794 1_656
In1 In2 3.025220 1_555
In1 Ni0 3.046857 1_555
In1 Nd0 3.258980 1_556
In1 Nd0 3.258980 1_555
In1 Nd7 3.329147 1_556
In1 Nd7 3.329147 1_555
In1 Nd5 3.429548 1_555
In1 Nd5 3.429548 1_556
In1 Nd1 3.572794 1_455
In1 Nd1 3.572794 1_456
In2 Ni3 3.046857 1_555
In2 Nd3 3.258980 1_556
In2 Nd3 3.258980 1_555
In2 Nd7 3.329147 1_556
In2 Nd7 3.329147 1_555
In2 Nd5 3.429548 1_555
In2 Nd5 3.429548 1_556
In2 Nd2 3.572794 1_565
In2 Nd2 3.572794 1_566
In3 Ni2 3.046857 1_555
In3 Nd2 3.258980 1_555
In3 Nd2 3.258980 1_556
In3 Nd6 3.329147 1_555
In3 Nd6 3.329147 1_556
In3 Nd4 3.429548 1_556
In3 Nd4 3.429548 1_555
In3 Nd3 3.572794 1_545
In3 Nd3 3.572794 1_546
In4 Ni0 2.989693 1_555
In4 In6 3.086468 1_555
In4 Nd0 3.233956 1_556
In4 Nd0 3.233956 1_555
In4 Nd8 3.301733 1_555
In4 Nd8 3.301733 1_556
In4 Nd9 3.422280 1_555
In4 Nd9 3.422280 1_556
In4 Nd6 3.568545 1_456
In4 Nd6 3.568545 1_455
In5 Ni1 2.989693 1_555
In5 In7 3.086468 1_555
In5 Nd1 3.233956 1_555
In5 Nd1 3.233956 1_556
In5 Nd8 3.301733 1_665
In5 Nd8 3.301733 1_666
In5 Nd10 3.422280 1_555
In5 Nd10 3.422280 1_556
In5 Nd7 3.568545 1_655
In5 Nd7 3.568545 1_656
In6 Ni2 2.989693 1_555
In6 Nd2 3.233956 1_555
In6 Nd2 3.233956 1_556
In6 Nd8 3.301733 1_555
In6 Nd8 3.301733 1_556
In6 Nd9 3.422280 1_555
In6 Nd9 3.422280 1_556
In6 Nd7 3.568545 1_545
In6 Nd7 3.568545 1_546
In7 Ni3 2.989693 1_555
In7 Nd3 3.233956 1_556
In7 Nd3 3.233956 1_555
In7 Nd8 3.301733 1_665
In7 Nd8 3.301733 1_666
In7 Nd10 3.422280 1_555
In7 Nd10 3.422280 1_556
In7 Nd6 3.568545 1_565
In7 Nd6 3.568545 1_566
In8 Ni2 3.199360 1_555
In8 Ni0 3.199360 1_555
In8 Ni1 3.199360 1_555
In8 Ni3 3.199360 1_555
In8 Nd10 3.344578 1_555
In8 Nd10 3.344578 1_556
In8 Nd9 3.344578 1_556
In8 Nd9 3.344578 1_555
In8 Nd5 3.351880 1_555
In8 Nd5 3.351880 1_556
In8 Nd4 3.351880 1_556
In8 Nd4 3.351880 1_555
