# generated using pymatgen
data_Zr2ZnAg2F14
_symmetry_space_group_name_H-M   'P 1'
_cell_length_a   5.61036316
_cell_length_b   5.61036316
_cell_length_c   9.43057275
_cell_angle_alpha   89.24576961
_cell_angle_beta   89.24576961
_cell_angle_gamma   73.56189772
_symmetry_Int_Tables_number   1
_chemical_formula_structural   Zr2ZnAg2F14
_chemical_formula_sum   'Zr2 Zn1 Ag2 F14'
_cell_volume   284.66693204
_cell_formula_units_Z   1
loop_
 _symmetry_equiv_pos_site_id
 _symmetry_equiv_pos_as_xyz
  1  'x, y, z'
loop_
 _atom_site_type_symbol
 _atom_site_label
 _atom_site_symmetry_multiplicity
 _atom_site_fract_x
 _atom_site_fract_y
 _atom_site_fract_z
 _atom_site_occupancy
  Zr  Zr0  1  0.88431900  0.88431900  0.19814700  1
  Zr  Zr1  1  0.11568100  0.11568100  0.80185300  1
  Zn  Zn0  1  0.50000000  0.50000000  0.00000000  1
  Ag  Ag0  1  0.30747500  0.30747500  0.38444100  1
  Ag  Ag1  1  0.69252500  0.69252500  0.61555900  1
  F  F0  1  0.00000000  0.00000000  0.00000000  1
  F  F1  1  0.59211000  0.17976300  0.12400600  1
  F  F2  1  0.17976300  0.59211000  0.12400600  1
  F  F3  1  0.66500500  0.66500500  0.14460600  1
  F  F4  1  0.09484900  0.09484900  0.27661500  1
  F  F5  1  0.63976400  0.00382800  0.37455700  1
  F  F6  1  0.00382800  0.63976400  0.37455700  1
  F  F7  1  0.50000000  0.50000000  0.50000000  1
  F  F8  1  0.99617200  0.36023600  0.62544300  1
  F  F9  1  0.36023600  0.99617200  0.62544300  1
  F  F10  1  0.90515100  0.90515100  0.72338500  1
  F  F11  1  0.33499500  0.33499500  0.85539400  1
  F  F12  1  0.82023700  0.40789000  0.87599400  1
  F  F13  1  0.40789000  0.82023700  0.87599400  1
loop_
_geom_bond_atom_site_label_1
_geom_bond_atom_site_label_2
_geom_bond_distance
_geom_bond_site_symmetry_2
Ag0 F7 2.059927 1_555
Ag0 F6 2.142076 1_555
Ag0 F5 2.142076 1_555
Ag0 F4 2.179293 1_555
Ag1 F7 2.059927 1_555
Ag1 F9 2.142076 1_555
Ag1 F8 2.142076 1_555
Ag1 F10 2.179293 1_555
F0 Zr1 2.123390 1_554
F0 Zr0 2.123390 1_445
F1 Zn0 2.073095 1_555
F1 Zr0 2.094207 1_545
F2 Zn0 2.073095 1_555
F2 Zr0 2.094207 1_455
F3 Zn0 2.031059 1_555
F3 Zr0 2.042650 1_555
F4 Zr0 2.042896 1_445
F5 Zr0 2.132699 1_545
F6 Zr0 2.132699 1_455
F8 Zr1 2.132699 1_655
F9 Zr1 2.132699 1_565
F10 Zr1 2.042896 1_665
F11 Zn0 2.031059 1_556
F11 Zr1 2.042650 1_555
F12 Zn0 2.073095 1_556
F12 Zr1 2.094207 1_655
F13 Zn0 2.073095 1_556
F13 Zr1 2.094207 1_565
