# generated using pymatgen
data_NbFeSb
_symmetry_space_group_name_H-M   'P 1'
_cell_length_a   4.20116390
_cell_length_b   4.20116377
_cell_length_c   4.20116406
_cell_angle_alpha   59.99999773
_cell_angle_beta   59.99999876
_cell_angle_gamma   60.00000742
_symmetry_Int_Tables_number   1
_chemical_formula_structural   NbFeSb
_chemical_formula_sum   'Nb1 Fe1 Sb1'
_cell_volume   52.43169451
_cell_formula_units_Z   1
loop_
 _symmetry_equiv_pos_site_id
 _symmetry_equiv_pos_as_xyz
  1  'x, y, z'
loop_
 _atom_site_type_symbol
 _atom_site_label
 _atom_site_symmetry_multiplicity
 _atom_site_fract_x
 _atom_site_fract_y
 _atom_site_fract_z
 _atom_site_occupancy
  Nb  Nb0  1  0.00000000  -0.00000000  0.00000000  1
  Fe  Fe0  1  0.25000000  0.25000000  0.25000000  1
  Sb  Sb0  1  0.50000000  0.50000000  0.50000000  1
loop_
_geom_bond_atom_site_label_1
_geom_bond_atom_site_label_2
_geom_bond_distance
_geom_bond_site_symmetry_2
Nb0 Sb0 2.970671 1_445
Nb0 Sb0 2.970671 1_554
Nb0 Sb0 2.970672 1_544
Nb0 Sb0 2.970672 1_454
Nb0 Sb0 2.970672 1_455
Nb0 Sb0 2.970672 1_545
Fe0 Sb0 2.572677 1_554
Fe0 Sb0 2.572677 1_555
Fe0 Nb0 2.572677 1_556
Fe0 Nb0 2.572677 1_555
Fe0 Nb0 2.572677 1_565
Fe0 Sb0 2.572677 1_545
Fe0 Sb0 2.572677 1_455
Fe0 Nb0 2.572677 1_655
