# generated using pymatgen
data_Tm2ZnHg
_symmetry_space_group_name_H-M   'P 1'
_cell_length_a   5.04958278
_cell_length_b   5.04958278
_cell_length_c   5.04958278
_cell_angle_alpha   60.05253748
_cell_angle_beta   60.05253748
_cell_angle_gamma   60.05253748
_symmetry_Int_Tables_number   1
_chemical_formula_structural   Tm2ZnHg
_chemical_formula_sum   'Tm2 Zn1 Hg1'
_cell_volume   91.15244511
_cell_formula_units_Z   1
loop_
 _symmetry_equiv_pos_site_id
 _symmetry_equiv_pos_as_xyz
  1  'x, y, z'
loop_
 _atom_site_type_symbol
 _atom_site_label
 _atom_site_symmetry_multiplicity
 _atom_site_fract_x
 _atom_site_fract_y
 _atom_site_fract_z
 _atom_site_occupancy
  Tm  Tm0  1  0.99967802  0.99967802  0.99967802  1
  Tm  Tm1  1  0.50032098  0.50032098  0.50032098  1
  Zn  Zn0  1  0.75000000  0.75000000  0.75000000  1
  Hg  Hg0  1  0.25000300  0.25000300  0.25000300  1
loop_
_geom_bond_atom_site_label_1
_geom_bond_atom_site_label_2
_geom_bond_distance
_geom_bond_site_symmetry_2
Tm0 Zn0 3.087016 1_555
Tm0 Zn0 3.095599 1_655
Tm0 Zn0 3.095599 1_565
Tm0 Zn0 3.095599 1_556
Tm1 Zn0 3.087028 1_555
Tm1 Zn0 3.095595 1_545
Tm1 Zn0 3.095595 1_455
Tm1 Zn0 3.095595 1_554
Hg0 Tm0 3.092936 1_544
Hg0 Tm0 3.092936 1_454
Hg0 Tm0 3.092936 1_445
Hg0 Tm1 3.092965 1_554
Hg0 Tm1 3.092965 1_455
Hg0 Tm1 3.092965 1_545
Hg0 Tm1 3.094928 1_555
Hg0 Tm0 3.095015 1_444
