# generated using pymatgen
data_PrNd3
_symmetry_space_group_name_H-M   'P 1'
_cell_length_a   6.39236968
_cell_length_b   6.39236968
_cell_length_c   6.39236968
_cell_angle_alpha   131.60640054
_cell_angle_beta   131.60640054
_cell_angle_gamma   70.85138935
_symmetry_Int_Tables_number   1
_chemical_formula_structural   PrNd3
_chemical_formula_sum   'Pr1 Nd3'
_cell_volume   143.03079504
_cell_formula_units_Z   1
loop_
 _symmetry_equiv_pos_site_id
 _symmetry_equiv_pos_as_xyz
  1  'x, y, z'
loop_
 _atom_site_type_symbol
 _atom_site_label
 _atom_site_symmetry_multiplicity
 _atom_site_fract_x
 _atom_site_fract_y
 _atom_site_fract_z
 _atom_site_occupancy
  Pr  Pr0  1  0.00000000  -0.00000000  0.00000000  1
  Nd  Nd0  1  0.75000000  0.25000000  0.50000000  1
  Nd  Nd1  1  0.25000000  0.75000000  0.50000000  1
  Nd  Nd2  1  0.50000000  0.50000000  0.00000000  1
loop_
_geom_bond_atom_site_label_1
_geom_bond_atom_site_label_2
_geom_bond_distance
_geom_bond_site_symmetry_2
Nd0 Pr0 3.694312 1_555
Nd0 Nd2 3.694312 1_656
Nd0 Nd2 3.694312 1_545
Nd0 Nd2 3.694312 1_556
Nd0 Nd2 3.694312 1_555
Nd0 Pr0 3.694312 1_656
Nd0 Pr0 3.694312 1_655
Nd0 Pr0 3.694312 1_666
Nd0 Nd1 3.705316 1_656
Nd0 Nd1 3.705316 1_555
Nd0 Nd1 3.705316 1_645
Nd0 Nd1 3.705316 1_544
Nd1 Nd2 3.694312 1_455
Nd1 Pr0 3.694312 1_666
Nd1 Nd2 3.694312 1_556
Nd1 Nd2 3.694312 1_555
Nd1 Pr0 3.694312 1_555
Nd1 Pr0 3.694312 1_565
Nd1 Pr0 3.694312 1_566
Nd1 Nd2 3.694312 1_566
Nd2 Pr0 3.705316 1_565
Nd2 Pr0 3.705316 1_655
Nd2 Pr0 3.705316 1_666
Nd2 Pr0 3.705316 1_554
