# generated using pymatgen
data_HoMnB4
_symmetry_space_group_name_H-M   'P 1'
_cell_length_a   3.37442362
_cell_length_b   5.92472058
_cell_length_c   11.46886427
_cell_angle_alpha   90.00000000
_cell_angle_beta   90.00000000
_cell_angle_gamma   90.00000000
_symmetry_Int_Tables_number   1
_chemical_formula_structural   HoMnB4
_chemical_formula_sum   'Ho4 Mn4 B16'
_cell_volume   229.29146466
_cell_formula_units_Z   4
loop_
 _symmetry_equiv_pos_site_id
 _symmetry_equiv_pos_as_xyz
  1  'x, y, z'
loop_
 _atom_site_type_symbol
 _atom_site_label
 _atom_site_symmetry_multiplicity
 _atom_site_fract_x
 _atom_site_fract_y
 _atom_site_fract_z
 _atom_site_occupancy
  Ho  Ho0  1  0.50000000  0.62721516  0.15021139  1
  Ho  Ho1  1  0.50000000  0.37278484  0.84978861  1
  Ho  Ho2  1  0.50000000  0.12721516  0.34978861  1
  Ho  Ho3  1  0.50000000  0.87278484  0.65021139  1
  Mn  Mn0  1  0.50000000  0.63191240  0.41356947  1
  Mn  Mn1  1  0.50000000  0.36808760  0.58643053  1
  Mn  Mn2  1  0.50000000  0.13191240  0.08643053  1
  Mn  Mn3  1  0.50000000  0.86808760  0.91356947  1
  B  B0  1  0.00000000  0.97641080  0.19114157  1
  B  B1  1  0.00000000  0.02358920  0.80885843  1
  B  B2  1  0.00000000  0.47641080  0.30885843  1
  B  B3  1  0.00000000  0.52358920  0.69114157  1
  B  B4  1  0.00000000  0.78377621  0.31495737  1
  B  B5  1  0.00000000  0.21622379  0.68504263  1
  B  B6  1  0.00000000  0.28377621  0.18504263  1
  B  B7  1  0.00000000  0.71622379  0.81495737  1
  B  B8  1  0.00000000  0.86231524  0.46783491  1
  B  B9  1  0.00000000  0.13768476  0.53216509  1
  B  B10  1  0.00000000  0.36231524  0.03216509  1
  B  B11  1  0.00000000  0.63768476  0.96783491  1
  B  B12  1  0.00000000  0.88719522  0.04664771  1
  B  B13  1  0.00000000  0.11280478  0.95335229  1
  B  B14  1  0.00000000  0.38719522  0.45335229  1
  B  B15  1  0.00000000  0.61280478  0.54664771  1
loop_
_geom_bond_atom_site_label_1
_geom_bond_atom_site_label_2
_geom_bond_distance
_geom_bond_site_symmetry_2
B0 B12 1.739437 1_555
B0 B4 1.821827 1_555
B0 B6 1.822397 1_565
B0 Mn2 2.266646 1_565
B0 Mn2 2.266646 1_465
B0 Ho2 2.637340 1_565
B0 Ho2 2.637340 1_465
B0 Ho0 2.710596 1_455
B0 Ho0 2.710596 1_555
B1 B13 1.739437 1_555
B1 B5 1.821827 1_555
B1 B7 1.822397 1_545
B1 Mn3 2.266646 1_545
B1 Mn3 2.266646 1_445
B1 Ho3 2.637340 1_445
B1 Ho3 2.637340 1_545
B1 Ho1 2.710596 1_555
B1 Ho1 2.710596 1_455
B2 B6 1.821827 1_555
B2 B4 1.822397 1_555
B2 Mn0 2.266646 1_455
B2 Mn0 2.266646 1_555
B2 Ho0 2.637340 1_555
B2 Ho0 2.637340 1_455
B2 Ho2 2.710596 1_555
B2 Ho2 2.710596 1_455
B3 B7 1.821827 1_555
B3 B5 1.822397 1_555
B3 Mn1 2.266646 1_455
B3 Mn1 2.266646 1_555
B3 Ho1 2.637340 1_555
B3 Ho1 2.637340 1_455
B3 Ho3 2.710596 1_555
B3 Ho3 2.710596 1_455
B4 B8 1.814028 1_555
B4 Mn0 2.221559 1_555
B4 Mn0 2.221559 1_455
B4 Ho2 2.673311 1_465
B4 Ho2 2.673311 1_565
B4 Ho0 2.697612 1_455
B4 Ho0 2.697612 1_555
B5 B9 1.814028 1_555
B5 Mn1 2.221559 1_455
B5 Mn1 2.221559 1_555
B5 Ho3 2.673311 1_445
B5 Ho3 2.673311 1_545
B5 Ho1 2.697612 1_555
B5 Ho1 2.697612 1_455
B6 Mn2 2.221559 1_455
B6 Mn2 2.221559 1_555
B6 Ho0 2.673311 1_555
B6 Ho0 2.673311 1_455
B6 Ho2 2.697612 1_455
B6 Ho2 2.697612 1_555
B7 Mn3 2.221559 1_555
B7 Mn3 2.221559 1_455
B7 Ho1 2.673311 1_555
B7 Ho1 2.673311 1_455
B7 Ho3 2.697612 1_555
B7 Ho3 2.697612 1_455
B8 B9 1.790556 1_565
B8 Mn0 2.257752 1_455
B8 Mn0 2.257752 1_555
B8 Ho2 2.672604 1_565
B8 Ho2 2.672604 1_465
B8 Ho3 2.688036 1_455
B8 Ho3 2.688036 1_555
B9 Mn1 2.257752 1_555
B9 Mn1 2.257752 1_455
B9 Ho3 2.672604 1_445
B9 Ho3 2.672604 1_545
B9 Ho2 2.688036 1_455
B9 Ho2 2.688036 1_555
B10 B13 1.732724 1_554
B10 B11 1.790556 1_554
B10 B6 1.814028 1_555
B10 Mn2 2.257752 1_455
B10 Mn2 2.257752 1_555
B10 Ho0 2.672604 1_555
B10 Ho0 2.672604 1_455
B10 Ho1 2.688036 1_454
B10 Ho1 2.688036 1_554
B11 B12 1.732724 1_556
B11 B7 1.814028 1_555
B11 Mn3 2.257752 1_455
B11 Mn3 2.257752 1_555
B11 Ho1 2.672604 1_555
B11 Ho1 2.672604 1_455
B11 Ho0 2.688036 1_456
B11 Ho0 2.688036 1_556
B12 B13 1.712186 1_564
B12 Mn2 2.270906 1_565
B12 Mn2 2.270906 1_465
B12 Mn3 2.277928 1_554
B12 Mn3 2.277928 1_454
B12 Ho0 2.574880 1_555
B12 Ho0 2.574880 1_455
B13 Mn3 2.270906 1_545
B13 Mn3 2.270906 1_445
B13 Mn2 2.277928 1_456
B13 Mn2 2.277928 1_556
B13 Ho1 2.574880 1_455
B13 Ho1 2.574880 1_555
B14 B15 1.712186 1_555
B14 B9 1.732724 1_555
B14 B2 1.739437 1_555
B14 Mn0 2.270906 1_455
B14 Mn0 2.270906 1_555
B14 Mn1 2.277928 1_455
B14 Mn1 2.277928 1_555
B14 Ho2 2.574880 1_455
B14 Ho2 2.574880 1_555
B15 B8 1.732724 1_555
B15 B3 1.739437 1_555
B15 Mn1 2.270906 1_555
B15 Mn1 2.270906 1_455
B15 Mn0 2.277928 1_555
B15 Mn0 2.277928 1_455
B15 Ho3 2.574880 1_455
B15 Ho3 2.574880 1_555
