# generated using pymatgen
data_Ho3Hg
_symmetry_space_group_name_H-M   'P 1'
_cell_length_a   4.78694800
_cell_length_b   4.78694800
_cell_length_c   4.78694800
_cell_angle_alpha   90.00000000
_cell_angle_beta   90.00000000
_cell_angle_gamma   90.00000000
_symmetry_Int_Tables_number   1
_chemical_formula_structural   Ho3Hg
_chemical_formula_sum   'Ho3 Hg1'
_cell_volume   109.69229664
_cell_formula_units_Z   1
loop_
 _symmetry_equiv_pos_site_id
 _symmetry_equiv_pos_as_xyz
  1  'x, y, z'
loop_
 _atom_site_type_symbol
 _atom_site_label
 _atom_site_symmetry_multiplicity
 _atom_site_fract_x
 _atom_site_fract_y
 _atom_site_fract_z
 _atom_site_occupancy
  Ho  Ho0  1  0.50000000  0.00000000  0.00000000  1
  Ho  Ho1  1  0.00000000  0.50000000  0.00000000  1
  Ho  Ho2  1  0.00000000  0.00000000  0.50000000  1
  Hg  Hg0  1  0.50000000  0.50000000  0.50000000  1
loop_
_geom_bond_atom_site_label_1
_geom_bond_atom_site_label_2
_geom_bond_distance
_geom_bond_site_symmetry_2
Ho0 Ho1 3.384883 1_645
Ho0 Ho2 3.384883 1_555
Ho0 Ho1 3.384883 1_655
Ho0 Ho1 3.384883 1_545
Ho0 Ho1 3.384883 1_555
Ho0 Ho2 3.384883 1_655
Ho0 Ho2 3.384883 1_654
Ho0 Ho2 3.384883 1_554
Ho1 Ho2 3.384883 1_555
Ho1 Ho2 3.384883 1_565
Ho1 Ho2 3.384883 1_564
Ho1 Ho2 3.384883 1_554
Hg0 Ho0 3.384883 1_555
Hg0 Ho0 3.384883 1_566
Hg0 Ho2 3.384883 1_555
Hg0 Ho1 3.384883 1_655
Hg0 Ho1 3.384883 1_656
Hg0 Ho1 3.384883 1_555
Hg0 Ho2 3.384883 1_565
Hg0 Ho1 3.384883 1_556
Hg0 Ho2 3.384883 1_665
Hg0 Ho0 3.384883 1_556
Hg0 Ho0 3.384883 1_565
Hg0 Ho2 3.384883 1_655
