# generated using pymatgen
data_K3Y
_symmetry_space_group_name_H-M   'P 1'
_cell_length_a   7.69575295
_cell_length_b   7.69575295
_cell_length_c   7.69575295
_cell_angle_alpha   134.83018915
_cell_angle_beta   134.83018915
_cell_angle_gamma   65.79416199
_symmetry_Int_Tables_number   1
_chemical_formula_structural   K3Y
_chemical_formula_sum   'K3 Y1'
_cell_volume   225.78268111
_cell_formula_units_Z   1
loop_
 _symmetry_equiv_pos_site_id
 _symmetry_equiv_pos_as_xyz
  1  'x, y, z'
loop_
 _atom_site_type_symbol
 _atom_site_label
 _atom_site_symmetry_multiplicity
 _atom_site_fract_x
 _atom_site_fract_y
 _atom_site_fract_z
 _atom_site_occupancy
  K  K0  1  0.75000000  0.25000000  0.50000000  1
  K  K1  1  0.25000000  0.75000000  0.50000000  1
  K  K2  1  0.50000000  0.50000000  0.00000000  1
  Y  Y0  1  0.00000000  0.00000000  0.00000000  1
loop_
_geom_bond_atom_site_label_1
_geom_bond_atom_site_label_2
_geom_bond_distance
_geom_bond_site_symmetry_2
K0 K1 4.179807 1_645
K0 K1 4.179807 1_555
K0 K1 4.179807 1_544
K0 K1 4.179807 1_656
K0 K2 4.378796 1_556
K0 K2 4.378796 1_555
K0 Y0 4.378796 1_656
K0 K2 4.378796 1_545
K0 Y0 4.378796 1_555
K0 Y0 4.378796 1_655
K0 K2 4.378796 1_656
K0 Y0 4.378796 1_666
K1 K2 4.378796 1_556
K1 K2 4.378796 1_555
K1 K2 4.378796 1_566
K1 Y0 4.378796 1_555
K1 Y0 4.378796 1_566
K1 Y0 4.378796 1_666
K1 Y0 4.378796 1_565
K1 K2 4.378796 1_455
K2 Y0 4.179807 1_565
K2 Y0 4.179807 1_655
K2 Y0 4.179807 1_666
K2 Y0 4.179807 1_554
