# generated using pymatgen
data_TbU3
_symmetry_space_group_name_H-M   'P 1'
_cell_length_a   5.67461564
_cell_length_b   5.67461564
_cell_length_c   5.67461564
_cell_angle_alpha   134.22452577
_cell_angle_beta   134.22452577
_cell_angle_gamma   66.73752890
_symmetry_Int_Tables_number   1
_chemical_formula_structural   TbU3
_chemical_formula_sum   'Tb1 U3'
_cell_volume   92.33543651
_cell_formula_units_Z   1
loop_
 _symmetry_equiv_pos_site_id
 _symmetry_equiv_pos_as_xyz
  1  'x, y, z'
loop_
 _atom_site_type_symbol
 _atom_site_label
 _atom_site_symmetry_multiplicity
 _atom_site_fract_x
 _atom_site_fract_y
 _atom_site_fract_z
 _atom_site_occupancy
  Tb  Tb0  1  0.00000000  0.00000000  0.00000000  1
  U  U0  1  0.75000000  0.25000000  0.50000000  1
  U  U1  1  0.25000000  0.75000000  0.50000000  1
  U  U2  1  0.50000000  0.50000000  0.00000000  1
loop_
_geom_bond_atom_site_label_1
_geom_bond_atom_site_label_2
_geom_bond_distance
_geom_bond_site_symmetry_2
Tb0 U2 3.121183 1_444
Tb0 U2 3.121183 1_455
Tb0 U2 3.121183 1_556
Tb0 U2 3.121183 1_545
Tb0 U1 3.238173 1_444
Tb0 U0 3.238173 1_454
Tb0 U1 3.238173 1_544
Tb0 U0 3.238173 1_555
Tb0 U1 3.238173 1_545
Tb0 U0 3.238173 1_455
Tb0 U0 3.238173 1_444
Tb0 U1 3.238173 1_555
U0 U1 3.121183 1_555
U0 U1 3.121183 1_656
U0 U1 3.121183 1_544
U0 U1 3.121183 1_645
U0 U2 3.238173 1_555
U0 U2 3.238173 1_556
U0 U2 3.238173 1_656
U0 U2 3.238173 1_545
U1 U2 3.238173 1_555
U1 U2 3.238173 1_556
U1 U2 3.238173 1_566
U1 U2 3.238173 1_455
