# generated using pymatgen
data_VSnPd
_symmetry_space_group_name_H-M   'P 1'
_cell_length_a   4.35399728
_cell_length_b   4.35399728
_cell_length_c   4.35399728
_cell_angle_alpha   60.00000000
_cell_angle_beta   60.00000000
_cell_angle_gamma   60.00000000
_symmetry_Int_Tables_number   1
_chemical_formula_structural   VSnPd
_chemical_formula_sum   'V1 Sn1 Pd1'
_cell_volume   58.36459302
_cell_formula_units_Z   1
loop_
 _symmetry_equiv_pos_site_id
 _symmetry_equiv_pos_as_xyz
  1  'x, y, z'
loop_
 _atom_site_type_symbol
 _atom_site_label
 _atom_site_symmetry_multiplicity
 _atom_site_fract_x
 _atom_site_fract_y
 _atom_site_fract_z
 _atom_site_occupancy
  V  V0  1  0.50000000  0.50000000  0.50000000  1
  Sn  Sn0  1  0.00000000  0.00000000  0.00000000  1
  Pd  Pd0  1  0.75000000  0.75000000  0.75000000  1
loop_
_geom_bond_atom_site_label_1
_geom_bond_atom_site_label_2
_geom_bond_distance
_geom_bond_site_symmetry_2
Sn0 V0 3.078741 1_554
Sn0 V0 3.078741 1_454
Sn0 V0 3.078741 1_445
Sn0 V0 3.078741 1_544
Sn0 V0 3.078741 1_455
Sn0 V0 3.078741 1_545
Pd0 V0 2.666268 1_556
Pd0 Sn0 2.666268 1_666
Pd0 V0 2.666268 1_565
Pd0 Sn0 2.666268 1_656
Pd0 V0 2.666268 1_655
Pd0 Sn0 2.666268 1_665
Pd0 Sn0 2.666268 1_566
Pd0 V0 2.666268 1_555
