# generated using pymatgen
data_YbSi2Ni
_symmetry_space_group_name_H-M   'P 1'
_cell_length_a   3.84254500
_cell_length_b   4.07495200
_cell_length_c   8.68459855
_cell_angle_alpha   76.43148516
_cell_angle_beta   90.00000000
_cell_angle_gamma   90.00000000
_symmetry_Int_Tables_number   1
_chemical_formula_structural   YbSi2Ni
_chemical_formula_sum   'Yb2 Si4 Ni2'
_cell_volume   132.18972940
_cell_formula_units_Z   2
loop_
 _symmetry_equiv_pos_site_id
 _symmetry_equiv_pos_as_xyz
  1  'x, y, z'
loop_
 _atom_site_type_symbol
 _atom_site_label
 _atom_site_symmetry_multiplicity
 _atom_site_fract_x
 _atom_site_fract_y
 _atom_site_fract_z
 _atom_site_occupancy
  Yb  Yb0  1  0.25000000  0.89005300  0.21989400  1
  Yb  Yb1  1  0.75000000  0.10994700  0.78010600  1
  Si  Si0  1  0.25000000  0.54040100  0.91919800  1
  Si  Si1  1  0.75000000  0.45959900  0.08080200  1
  Si  Si2  1  0.25000000  0.24835300  0.50329400  1
  Si  Si3  1  0.75000000  0.75164700  0.49670600  1
  Ni  Ni0  1  0.25000000  0.67557000  0.64886000  1
  Ni  Ni1  1  0.75000000  0.32443000  0.35114000  1
loop_
_geom_bond_atom_site_label_1
_geom_bond_atom_site_label_2
_geom_bond_distance
_geom_bond_site_symmetry_2
Si0 Si1 2.356393 1_456
Si0 Si1 2.356393 1_556
Si0 Yb1 3.036683 1_455
Si0 Yb1 3.036683 1_465
Si0 Yb1 3.036683 1_565
Si0 Yb1 3.036683 1_555
Si0 Yb0 3.255072 1_556
Si0 Yb0 3.255072 1_546
Si1 Yb0 3.036683 1_545
Si1 Yb0 3.036683 1_555
Si1 Yb0 3.036683 1_655
Si1 Yb0 3.036683 1_645
Si1 Yb1 3.255072 1_554
Si1 Yb1 3.255072 1_564
Si2 Si3 2.801016 1_455
Si2 Si3 2.801016 1_555
Si2 Si3 2.801016 1_445
Si2 Si3 2.801016 1_545
Si2 Yb1 3.025296 1_455
Si2 Yb1 3.025296 1_555
Si2 Yb0 3.142527 1_555
Si2 Yb0 3.142527 1_545
Si3 Yb0 3.025296 1_655
Si3 Yb0 3.025296 1_555
Si3 Yb1 3.142527 1_555
Si3 Yb1 3.142527 1_565
Ni0 Si0 2.282251 1_555
Ni0 Si3 2.311119 1_555
Ni0 Si3 2.311119 1_455
Ni0 Si2 2.379391 1_555
Ni0 Si2 2.379391 1_565
Ni0 Yb1 3.011690 1_465
Ni0 Yb1 3.011690 1_565
Ni0 Yb1 3.011690 1_555
Ni0 Yb1 3.011690 1_455
Ni1 Si1 2.282251 1_555
Ni1 Si2 2.311119 1_555
Ni1 Si2 2.311119 1_655
Ni1 Si3 2.379391 1_555
Ni1 Si3 2.379391 1_545
Ni1 Yb0 3.011690 1_655
Ni1 Yb0 3.011690 1_645
Ni1 Yb0 3.011690 1_545
Ni1 Yb0 3.011690 1_555
