# generated using pymatgen
data_Cr3Se
_symmetry_space_group_name_H-M   'P 1'
_cell_length_a   4.79721553
_cell_length_b   4.79721553
_cell_length_c   4.79721553
_cell_angle_alpha   137.55641551
_cell_angle_beta   137.55641551
_cell_angle_gamma   61.58305245
_symmetry_Int_Tables_number   1
_chemical_formula_structural   Cr3Se
_chemical_formula_sum   'Cr3 Se1'
_cell_volume   49.70567392
_cell_formula_units_Z   1
loop_
 _symmetry_equiv_pos_site_id
 _symmetry_equiv_pos_as_xyz
  1  'x, y, z'
loop_
 _atom_site_type_symbol
 _atom_site_label
 _atom_site_symmetry_multiplicity
 _atom_site_fract_x
 _atom_site_fract_y
 _atom_site_fract_z
 _atom_site_occupancy
  Cr  Cr0  1  0.75000000  0.25000000  0.50000000  1
  Cr  Cr1  1  0.25000000  0.75000000  0.50000000  1
  Cr  Cr2  1  0.50000000  0.50000000  0.00000000  1
  Se  Se0  1  0.00000000  0.00000000  0.00000000  1
loop_
_geom_bond_atom_site_label_1
_geom_bond_atom_site_label_2
_geom_bond_distance
_geom_bond_site_symmetry_2
Cr0 Cr1 2.455771 1_656
Cr0 Cr1 2.455771 1_544
Cr0 Cr1 2.455771 1_555
Cr0 Cr1 2.455771 1_645
Cr0 Cr2 2.694628 1_556
Cr0 Se0 2.694628 1_656
Cr0 Cr2 2.694628 1_545
Cr0 Se0 2.694628 1_555
Cr0 Se0 2.694628 1_655
Cr0 Cr2 2.694628 1_656
Cr0 Se0 2.694628 1_666
Cr0 Cr2 2.694628 1_555
Cr1 Cr2 2.694628 1_556
Cr1 Se0 2.694628 1_565
Cr1 Cr2 2.694628 1_566
Cr1 Se0 2.694628 1_555
Cr1 Se0 2.694628 1_566
Cr1 Cr2 2.694628 1_455
Cr1 Se0 2.694628 1_666
Cr1 Cr2 2.694628 1_555
Cr2 Se0 2.455771 1_666
Cr2 Se0 2.455771 1_554
Cr2 Se0 2.455771 1_565
Cr2 Se0 2.455771 1_655
