# generated using pymatgen
data_MoS2
_symmetry_space_group_name_H-M   'P 1'
_cell_length_a   3.16298100
_cell_length_b   13.02096500
_cell_length_c   43.47651700
_cell_angle_alpha   90.00000000
_cell_angle_beta   90.00000000
_cell_angle_gamma   90.00000000
_symmetry_Int_Tables_number   1
_chemical_formula_structural   MoS2
_chemical_formula_sum   'Mo18 S36'
_cell_volume   1790.58317413
_cell_formula_units_Z   18
loop_
 _symmetry_equiv_pos_site_id
 _symmetry_equiv_pos_as_xyz
  1  'x, y, z'
loop_
 _atom_site_type_symbol
 _atom_site_label
 _atom_site_symmetry_multiplicity
 _atom_site_fract_x
 _atom_site_fract_y
 _atom_site_fract_z
 _atom_site_occupancy
  Mo  Mo0  1  0.00000000  0.00000000  0.05303300  1
  Mo  Mo1  1  0.00000000  0.50000000  0.88318100  1
  Mo  Mo2  1  0.50000000  0.50000000  0.94696700  1
  Mo  Mo3  1  0.00000000  0.00000000  0.92532600  1
  Mo  Mo4  1  0.00000000  0.50000000  0.01078300  1
  Mo  Mo5  1  0.50000000  0.50000000  0.81955900  1
  Mo  Mo6  1  0.00000000  0.50000000  0.13864500  1
  Mo  Mo7  1  0.00000000  0.00000000  0.79693100  1
  Mo  Mo8  1  0.00000000  0.00000000  0.18044100  1
  Mo  Mo9  1  0.50000000  0.00000000  0.11681900  1
  Mo  Mo10  1  0.50000000  0.50000000  0.20306900  1
  Mo  Mo11  1  0.50000000  0.00000000  0.98921700  1
  Mo  Mo12  1  0.00000000  0.50000000  0.26278900  1
  Mo  Mo13  1  0.50000000  0.00000000  0.86135500  1
  Mo  Mo14  1  0.50000000  0.50000000  0.07467400  1
  Mo  Mo15  1  0.00000000  0.50000000  0.75572000  1
  Mo  Mo16  1  0.50000000  0.00000000  0.73721100  1
  Mo  Mo17  1  0.50000000  0.00000000  0.24428000  1
  S  S0  1  0.50000000  0.38424300  0.73317000  1
  S  S1  1  0.50000000  0.12045900  0.07441100  1
  S  S2  1  0.00000000  0.61996800  0.18124100  1
  S  S3  1  0.00000000  0.12025500  0.88276900  1
  S  S4  1  0.50000000  0.11996800  0.81875900  1
  S  S5  1  0.50000000  0.37943500  0.86181400  1
  S  S6  1  0.50000000  0.87954100  0.07441100  1
  S  S7  1  0.00000000  0.11575700  0.26683000  1
  S  S8  1  0.00000000  0.87974500  0.88276900  1
  S  S9  1  0.00000000  0.62045900  0.92558900  1
  S  S10  1  0.50000000  0.12022700  0.20195000  1
  S  S11  1  0.50000000  0.62056500  0.86181400  1
  S  S12  1  0.50000000  0.61575700  0.73317000  1
  S  S13  1  0.50000000  0.37974500  0.11723100  1
  S  S14  1  0.00000000  0.38003200  0.18124100  1
  S  S15  1  0.50000000  0.62046600  0.98940800  1
  S  S16  1  0.00000000  0.88424300  0.26683000  1
  S  S17  1  0.50000000  0.37456600  0.24579600  1
  S  S18  1  0.00000000  0.12046600  0.01059200  1
  S  S19  1  0.50000000  0.12043800  0.94673800  1
  S  S20  1  0.00000000  0.12056500  0.13818600  1
  S  S21  1  0.00000000  0.87456600  0.75420400  1
  S  S22  1  0.50000000  0.62543400  0.24579600  1
  S  S23  1  0.50000000  0.37953400  0.98940800  1
  S  S24  1  0.50000000  0.62025500  0.11723100  1
  S  S25  1  0.00000000  0.37977300  0.79805000  1
  S  S26  1  0.00000000  0.37954100  0.92558900  1
  S  S27  1  0.00000000  0.87953400  0.01059200  1
  S  S28  1  0.50000000  0.88003200  0.81875900  1
  S  S29  1  0.00000000  0.62043800  0.05326200  1
  S  S30  1  0.50000000  0.87956200  0.94673800  1
  S  S31  1  0.00000000  0.37956200  0.05326200  1
  S  S32  1  0.00000000  0.87943500  0.13818600  1
  S  S33  1  0.50000000  0.87977300  0.20195000  1
  S  S34  1  0.00000000  0.12543400  0.75420400  1
  S  S35  1  0.00000000  0.62022700  0.79805000  1
loop_
_geom_bond_atom_site_label_1
_geom_bond_atom_site_label_2
_geom_bond_distance
_geom_bond_site_symmetry_2
Mo0 S1 2.413533 1_455
Mo0 S1 2.413533 1_555
Mo0 S6 2.413533 1_545
Mo0 S6 2.413533 1_445
Mo0 S18 2.421811 1_555
Mo0 S27 2.421811 1_545
Mo1 S11 2.414246 1_455
Mo1 S11 2.414246 1_555
Mo1 S5 2.414246 1_455
Mo1 S5 2.414246 1_555
Mo1 S9 2.420659 1_555
Mo1 S26 2.420659 1_555
Mo2 S9 2.413533 1_655
Mo2 S9 2.413533 1_555
Mo2 S26 2.413533 1_655
Mo2 S26 2.413533 1_555
Mo2 S15 2.421811 1_555
Mo2 S23 2.421811 1_555
Mo3 S19 2.413925 1_555
Mo3 S19 2.413925 1_455
Mo3 S30 2.413925 1_445
Mo3 S30 2.413925 1_545
Mo3 S8 2.423880 1_545
Mo3 S3 2.423880 1_555
Mo4 S15 2.413542 1_554
Mo4 S15 2.413542 1_454
Mo4 S23 2.413542 1_454
Mo4 S23 2.413542 1_554
Mo4 S29 2.422834 1_555
Mo4 S31 2.422834 1_555
Mo5 S35 2.413772 1_555
Mo5 S35 2.413772 1_655
Mo5 S25 2.413772 1_555
Mo5 S25 2.413772 1_655
Mo5 S11 2.416493 1_555
Mo5 S5 2.416493 1_555
Mo6 S24 2.412411 1_455
Mo6 S13 2.412411 1_455
Mo6 S13 2.412411 1_555
Mo6 S24 2.412411 1_555
Mo6 S2 2.422763 1_555
Mo6 S14 2.422763 1_555
Mo7 S4 2.416998 1_455
Mo7 S4 2.416998 1_555
Mo7 S28 2.416998 1_545
Mo7 S28 2.416998 1_445
Mo7 S34 2.473526 1_555
Mo7 S21 2.473526 1_545
Mo8 S10 2.413772 1_455
Mo8 S10 2.413772 1_555
Mo8 S33 2.413772 1_545
Mo8 S33 2.413772 1_445
Mo8 S20 2.416493 1_555
Mo8 S32 2.416493 1_545
Mo9 S20 2.414246 1_655
Mo9 S20 2.414246 1_555
Mo9 S32 2.414246 1_545
Mo9 S32 2.414246 1_645
Mo9 S1 2.420659 1_555
Mo9 S6 2.420659 1_545
Mo10 S2 2.416998 1_555
Mo10 S2 2.416998 1_655
Mo10 S14 2.416998 1_555
Mo10 S14 2.416998 1_655
Mo10 S22 2.473526 1_555
Mo10 S17 2.473526 1_555
Mo11 S18 2.413542 1_556
Mo11 S18 2.413542 1_656
Mo11 S27 2.413542 1_546
Mo11 S27 2.413542 1_646
Mo11 S19 2.422834 1_555
Mo11 S30 2.422834 1_545
Mo12 S22 2.390504 1_455
Mo12 S22 2.390504 1_555
Mo12 S17 2.390504 1_555
Mo12 S17 2.390504 1_455
Mo13 S3 2.412411 1_555
Mo13 S8 2.412411 1_645
Mo13 S8 2.412411 1_545
Mo13 S3 2.412411 1_655
Mo13 S4 2.422763 1_555
Mo13 S28 2.422763 1_545
Mo14 S29 2.413925 1_555
Mo14 S29 2.413925 1_655
Mo14 S31 2.413925 1_555
Mo14 S31 2.413925 1_655
Mo14 S13 2.423880 1_555
Mo14 S24 2.423880 1_555
Mo15 S12 2.394607 1_555
Mo15 S0 2.394607 1_555
Mo15 S12 2.394607 1_455
Mo15 S0 2.394607 1_455
Mo15 S35 2.416119 1_555
Mo15 S25 2.416119 1_555
Mo16 S34 2.390504 1_655
Mo16 S34 2.390504 1_555
Mo16 S21 2.390504 1_545
Mo16 S21 2.390504 1_645
Mo17 S16 2.394607 1_545
Mo17 S7 2.394607 1_555
Mo17 S7 2.394607 1_655
Mo17 S16 2.394607 1_645
Mo17 S10 2.416119 1_555
Mo17 S33 2.416119 1_545
