# generated using pymatgen
data_Ho3Tm
_symmetry_space_group_name_H-M   'P 1'
_cell_length_a   7.19903045
_cell_length_b   7.19903013
_cell_length_c   5.53560358
_cell_angle_alpha   90.00000000
_cell_angle_beta   90.00000000
_cell_angle_gamma   120.00002933
_symmetry_Int_Tables_number   1
_chemical_formula_structural   Ho3Tm
_chemical_formula_sum   'Ho6 Tm2'
_cell_volume   248.45256597
_cell_formula_units_Z   2
loop_
 _symmetry_equiv_pos_site_id
 _symmetry_equiv_pos_as_xyz
  1  'x, y, z'
loop_
 _atom_site_type_symbol
 _atom_site_label
 _atom_site_symmetry_multiplicity
 _atom_site_fract_x
 _atom_site_fract_y
 _atom_site_fract_z
 _atom_site_occupancy
  Ho  Ho0  1  0.16687119  0.33374238  0.25000100  1
  Ho  Ho1  1  0.66625862  0.83312881  0.25000100  1
  Ho  Ho2  1  0.16687019  0.83312881  0.25000100  1
  Ho  Ho3  1  0.83312881  0.66625762  0.75000100  1
  Ho  Ho4  1  0.33374138  0.16687119  0.75000100  1
  Ho  Ho5  1  0.83312881  0.16687119  0.75000100  1
  Tm  Tm0  1  0.33333400  0.66666700  0.75000100  1
  Tm  Tm1  1  0.66666700  0.33333300  0.25000100  1
loop_
_geom_bond_atom_site_label_1
_geom_bond_atom_site_label_2
_geom_bond_distance
_geom_bond_site_symmetry_2
Ho0 Tm0 3.459621 1_555
Ho0 Tm0 3.459621 1_554
Ho0 Ho4 3.462679 1_555
Ho0 Ho4 3.462679 1_554
Ho0 Ho5 3.462682 1_455
Ho0 Ho5 3.462682 1_454
Ho0 Ho1 3.595100 1_555
Ho0 Ho2 3.595102 1_555
Ho0 Tm1 3.599513 1_455
Ho0 Tm1 3.599520 1_555
Ho0 Ho1 3.603927 1_445
Ho0 Ho2 3.603929 1_545
Ho1 Tm0 3.459621 1_555
Ho1 Tm0 3.459621 1_554
Ho1 Ho3 3.462679 1_555
Ho1 Ho3 3.462679 1_554
Ho1 Ho5 3.462682 1_565
Ho1 Ho5 3.462682 1_564
Ho1 Ho2 3.595113 1_555
Ho1 Tm1 3.599516 1_565
Ho1 Tm1 3.599516 1_555
Ho1 Ho2 3.603918 1_655
Ho2 Tm0 3.459625 1_555
Ho2 Tm0 3.459625 1_554
Ho2 Ho3 3.462678 1_455
Ho2 Ho3 3.462678 1_454
Ho2 Ho4 3.462682 1_565
Ho2 Ho4 3.462682 1_564
Ho2 Tm1 3.599511 1_455
Ho2 Tm1 3.599518 1_565
Ho3 Tm1 3.459621 1_555
Ho3 Tm1 3.459621 1_556
Ho3 Ho5 3.595098 1_555
Ho3 Ho4 3.595100 1_555
Ho3 Tm0 3.599513 1_555
Ho3 Tm0 3.599520 1_655
Ho3 Ho4 3.603927 1_665
Ho3 Ho5 3.603932 1_565
Ho4 Tm1 3.459625 1_555
Ho4 Tm1 3.459625 1_556
Ho4 Ho5 3.595105 1_555
Ho4 Tm0 3.599512 1_555
Ho4 Tm0 3.599520 1_545
Ho4 Ho5 3.603925 1_455
Ho5 Tm1 3.459618 1_555
Ho5 Tm1 3.459618 1_556
Ho5 Tm0 3.599511 1_545
Ho5 Tm0 3.599518 1_655
