# generated using pymatgen
data_Zn3B
_symmetry_space_group_name_H-M   'P 1'
_cell_length_a   3.70024600
_cell_length_b   3.70024600
_cell_length_c   3.70024600
_cell_angle_alpha   90.00000000
_cell_angle_beta   90.00000000
_cell_angle_gamma   90.00000000
_symmetry_Int_Tables_number   1
_chemical_formula_structural   Zn3B
_chemical_formula_sum   'Zn3 B1'
_cell_volume   50.66310389
_cell_formula_units_Z   1
loop_
 _symmetry_equiv_pos_site_id
 _symmetry_equiv_pos_as_xyz
  1  'x, y, z'
loop_
 _atom_site_type_symbol
 _atom_site_label
 _atom_site_symmetry_multiplicity
 _atom_site_fract_x
 _atom_site_fract_y
 _atom_site_fract_z
 _atom_site_occupancy
  Zn  Zn0  1  0.00000000  0.50000000  0.50000000  1
  Zn  Zn1  1  0.50000000  0.00000000  0.50000000  1
  Zn  Zn2  1  0.50000000  0.50000000  0.00000000  1
  B  B0  1  0.00000000  0.00000000  0.00000000  1
loop_
_geom_bond_atom_site_label_1
_geom_bond_atom_site_label_2
_geom_bond_distance
_geom_bond_site_symmetry_2
Zn0 Zn2 2.616469 1_456
Zn0 Zn1 2.616469 1_565
Zn0 Zn1 2.616469 1_455
Zn0 Zn2 2.616469 1_555
Zn0 Zn1 2.616469 1_465
Zn0 Zn1 2.616469 1_555
Zn0 Zn2 2.616469 1_455
Zn0 Zn2 2.616469 1_556
Zn1 Zn2 2.616469 1_546
Zn1 Zn2 2.616469 1_556
Zn1 Zn2 2.616469 1_545
Zn1 Zn2 2.616469 1_555
B0 Zn0 2.616469 1_544
B0 Zn0 2.616469 1_555
B0 Zn1 2.616469 1_554
B0 Zn0 2.616469 1_545
B0 Zn1 2.616469 1_455
B0 Zn1 2.616469 1_454
B0 Zn1 2.616469 1_555
B0 Zn2 2.616469 1_445
B0 Zn2 2.616469 1_455
B0 Zn0 2.616469 1_554
B0 Zn2 2.616469 1_545
B0 Zn2 2.616469 1_555
