# generated using pymatgen
data_Na3Tl
_symmetry_space_group_name_H-M   'P 1'
_cell_length_a   6.00423343
_cell_length_b   6.00423343
_cell_length_c   6.00423343
_cell_angle_alpha   131.94647535
_cell_angle_beta   131.94647535
_cell_angle_gamma   70.31357639
_symmetry_Int_Tables_number   1
_chemical_formula_structural   Na3Tl
_chemical_formula_sum   'Na3 Tl1'
_cell_volume   117.35454253
_cell_formula_units_Z   1
loop_
 _symmetry_equiv_pos_site_id
 _symmetry_equiv_pos_as_xyz
  1  'x, y, z'
loop_
 _atom_site_type_symbol
 _atom_site_label
 _atom_site_symmetry_multiplicity
 _atom_site_fract_x
 _atom_site_fract_y
 _atom_site_fract_z
 _atom_site_occupancy
  Na  Na0  1  0.75000000  0.25000000  0.50000000  1
  Na  Na1  1  0.25000000  0.75000000  0.50000000  1
  Na  Na2  1  0.50000000  0.50000000  0.00000000  1
  Tl  Tl0  1  0.00000000  0.00000000  0.00000000  1
loop_
_geom_bond_atom_site_label_1
_geom_bond_atom_site_label_2
_geom_bond_distance
_geom_bond_site_symmetry_2
Na0 Na1 3.457333 1_656
Na0 Na1 3.457333 1_544
Na0 Na1 3.457333 1_645
Na0 Na1 3.457333 1_555
Na0 Na2 3.464245 1_556
Na0 Na2 3.464245 1_555
Na0 Tl0 3.464245 1_666
Na0 Na2 3.464245 1_656
Na0 Na2 3.464245 1_545
Na0 Tl0 3.464245 1_555
Na0 Tl0 3.464245 1_656
Na0 Tl0 3.464245 1_655
Na1 Na2 3.464245 1_556
Na1 Na2 3.464245 1_555
Na1 Tl0 3.464245 1_666
Na1 Na2 3.464245 1_566
Na1 Tl0 3.464245 1_566
Na1 Tl0 3.464245 1_555
Na1 Tl0 3.464245 1_565
Na1 Na2 3.464245 1_455
Na2 Tl0 3.457333 1_666
Na2 Tl0 3.457333 1_554
Na2 Tl0 3.457333 1_565
Na2 Tl0 3.457333 1_655
