# generated using pymatgen
data_ZnBiO3
_symmetry_space_group_name_H-M   'P 1'
_cell_length_a   3.91141600
_cell_length_b   3.91141600
_cell_length_c   3.91141600
_cell_angle_alpha   90.00000000
_cell_angle_beta   90.00000000
_cell_angle_gamma   90.00000000
_symmetry_Int_Tables_number   1
_chemical_formula_structural   ZnBiO3
_chemical_formula_sum   'Zn1 Bi1 O3'
_cell_volume   59.84143837
_cell_formula_units_Z   1
loop_
 _symmetry_equiv_pos_site_id
 _symmetry_equiv_pos_as_xyz
  1  'x, y, z'
loop_
 _atom_site_type_symbol
 _atom_site_label
 _atom_site_symmetry_multiplicity
 _atom_site_fract_x
 _atom_site_fract_y
 _atom_site_fract_z
 _atom_site_occupancy
  Zn  Zn0  1  0.50000000  0.50000000  0.50000000  1
  Bi  Bi0  1  0.00000000  0.00000000  0.00000000  1
  O  O0  1  0.50000000  0.50000000  0.00000000  1
  O  O1  1  0.50000000  0.00000000  0.50000000  1
  O  O2  1  0.00000000  0.50000000  0.50000000  1
loop_
_geom_bond_atom_site_label_1
_geom_bond_atom_site_label_2
_geom_bond_distance
_geom_bond_site_symmetry_2
Bi0 O1 2.765789 1_554
Bi0 O0 2.765789 1_545
Bi0 O2 2.765789 1_554
Bi0 O0 2.765789 1_555
Bi0 O0 2.765789 1_445
Bi0 O2 2.765789 1_555
Bi0 O0 2.765789 1_455
Bi0 O2 2.765789 1_544
Bi0 O1 2.765789 1_555
Bi0 O2 2.765789 1_545
Bi0 O1 2.765789 1_455
Bi0 O1 2.765789 1_454
O0 Zn0 1.955708 1_555
O0 Zn0 1.955708 1_554
O1 Zn0 1.955708 1_545
O1 Zn0 1.955708 1_555
O2 Zn0 1.955708 1_555
O2 Zn0 1.955708 1_455
