# generated using pymatgen
data_Li5Mg
_symmetry_space_group_name_H-M   'P 1'
_cell_length_a   5.28420511
_cell_length_b   5.28297961
_cell_length_c   5.85511998
_cell_angle_alpha   117.07601277
_cell_angle_beta   63.17632132
_cell_angle_gamma   120.00766184
_symmetry_Int_Tables_number   1
_chemical_formula_structural   Li5Mg
_chemical_formula_sum   'Li5 Mg1'
_cell_volume   120.61517003
_cell_formula_units_Z   1
loop_
 _symmetry_equiv_pos_site_id
 _symmetry_equiv_pos_as_xyz
  1  'x, y, z'
loop_
 _atom_site_type_symbol
 _atom_site_label
 _atom_site_symmetry_multiplicity
 _atom_site_fract_x
 _atom_site_fract_y
 _atom_site_fract_z
 _atom_site_occupancy
  Li  Li0  1  -0.00317221  0.00000000  -0.00000000  1
  Li  Li1  1  0.66990228  0.33651168  0.99974458  1
  Li  Li2  1  0.33313518  0.66348932  0.00025542  1
  Li  Li3  1  0.49961172  0.83358807  0.50118090  1
  Li  Li4  1  0.16720456  0.16641293  0.49882010  1
  Mg  Mg0  1  0.83331447  0.50000000  0.50000000  1
loop_
_geom_bond_atom_site_label_1
_geom_bond_atom_site_label_2
_geom_bond_distance
_geom_bond_site_symmetry_2
Li0 Li1 3.035059 1_444
Li0 Li2 3.035063 1_555
Li0 Li1 3.036705 1_454
Li0 Li2 3.036706 1_445
Li0 Mg0 3.042176 1_455
Li0 Mg0 3.042176 1_444
Li0 Li3 3.059010 1_544
Li0 Li4 3.059014 1_555
Li0 Li4 3.060576 1_554
Li0 Li3 3.060578 1_445
Li0 Li2 3.079532 1_545
Li0 Li1 3.079537 1_554
Li1 Li2 3.035780 1_656
Li1 Li2 3.035784 1_556
Li1 Li3 3.047340 1_556
Li1 Mg0 3.050346 1_556
Li1 Li3 3.051085 1_545
Li1 Li4 3.053231 1_655
Li1 Mg0 3.054156 1_555
Li1 Li4 3.065972 1_556
Li1 Li2 3.079764 1_546
Li2 Li4 3.047336 1_554
Li2 Mg0 3.050348 1_554
Li2 Li4 3.051087 1_565
Li2 Li3 3.053236 1_555
Li2 Mg0 3.054158 1_455
Li2 Li3 3.065966 1_554
Li3 Li4 3.048580 1_555
Li3 Mg0 3.049845 1_555
Li3 Mg0 3.050567 1_565
Li3 Mg0 3.050703 1_455
Li3 Li4 3.051293 1_565
Li3 Li4 3.051293 1_665
Li4 Mg0 3.049844 1_555
Li4 Mg0 3.050570 1_445
Li4 Mg0 3.050701 1_455
