# generated using pymatgen
data_LaAuO2
_symmetry_space_group_name_H-M   'P 1'
_cell_length_a   3.87548553
_cell_length_b   3.87548440
_cell_length_c   11.89625834
_cell_angle_alpha   90.00003953
_cell_angle_beta   89.99999144
_cell_angle_gamma   120.00000567
_symmetry_Int_Tables_number   1
_chemical_formula_structural   LaAuO2
_chemical_formula_sum   'La2 Au2 O4'
_cell_volume   154.73661989
_cell_formula_units_Z   2
loop_
 _symmetry_equiv_pos_site_id
 _symmetry_equiv_pos_as_xyz
  1  'x, y, z'
loop_
 _atom_site_type_symbol
 _atom_site_label
 _atom_site_symmetry_multiplicity
 _atom_site_fract_x
 _atom_site_fract_y
 _atom_site_fract_z
 _atom_site_occupancy
  La  La0  1  -0.00000007  -0.00000062  0.00000005  1
  La  La1  1  0.00000011  0.00000010  0.49999998  1
  Au  Au0  1  0.66666690  0.33333311  0.75000051  1
  Au  Au1  1  0.33333307  0.66666698  0.24999944  1
  O  O0  1  0.66666664  0.33333272  0.58147349  1
  O  O1  1  0.33333322  0.66666692  0.08147371  1
  O  O2  1  0.33333342  0.66666746  0.41852650  1
  O  O3  1  0.66666672  0.33333332  0.91852632  1
loop_
_geom_bond_atom_site_label_1
_geom_bond_atom_site_label_2
_geom_bond_distance
_geom_bond_site_symmetry_2
La0 O3 2.438413 1_444
La0 O1 2.438413 1_545
La0 O1 2.438416 1_445
La0 O3 2.438417 1_554
La0 O1 2.438417 1_555
La0 O3 2.438418 1_454
La1 O2 2.438412 1_545
La1 O0 2.438413 1_455
La1 O0 2.438415 1_555
La1 O2 2.438415 1_445
La1 O2 2.438417 1_555
La1 O0 2.438417 1_445
Au0 O3 2.004827 1_555
Au0 O0 2.004841 1_555
Au1 O1 2.004826 1_555
Au1 O2 2.004841 1_555
