# generated using pymatgen
data_Th(Mg4Al3)4
_symmetry_space_group_name_H-M   'P 1'
_cell_length_a   9.26526587
_cell_length_b   9.26526587
_cell_length_c   9.26526537
_cell_angle_alpha   110.12704647
_cell_angle_beta   110.12704647
_cell_angle_gamma   110.12705155
_symmetry_Int_Tables_number   1
_chemical_formula_structural   Th(Mg4Al3)4
_chemical_formula_sum   'Th1 Mg16 Al12'
_cell_volume   596.95291859
_cell_formula_units_Z   1
loop_
 _symmetry_equiv_pos_site_id
 _symmetry_equiv_pos_as_xyz
  1  'x, y, z'
loop_
 _atom_site_type_symbol
 _atom_site_label
 _atom_site_symmetry_multiplicity
 _atom_site_fract_x
 _atom_site_fract_y
 _atom_site_fract_z
 _atom_site_occupancy
  Th  Th0  1  0.37264200  0.37264200  0.37264200  1
  Mg  Mg0  1  0.65332600  0.99591900  0.99591900  1
  Mg  Mg1  1  0.71847200  0.31634400  0.31634400  1
  Mg  Mg2  1  0.27861900  0.61402600  0.61402600  1
  Mg  Mg3  1  0.99458200  0.99458200  0.99458200  1
  Mg  Mg4  1  0.00162100  0.68910900  0.39311300  1
  Mg  Mg5  1  0.39311300  0.00162100  0.68910900  1
  Mg  Mg6  1  0.61402600  0.61402600  0.27861900  1
  Mg  Mg7  1  0.99591900  0.99591900  0.65332600  1
  Mg  Mg8  1  0.68910900  0.39311300  0.00162100  1
  Mg  Mg9  1  0.31634400  0.71847200  0.31634400  1
  Mg  Mg10  1  0.31634400  0.31634400  0.71847200  1
  Mg  Mg11  1  0.68910900  0.00162100  0.39311300  1
  Mg  Mg12  1  0.99591900  0.65332600  0.99591900  1
  Mg  Mg13  1  0.61402600  0.27861900  0.61402600  1
  Mg  Mg14  1  0.39311300  0.68910900  0.00162100  1
  Mg  Mg15  1  0.00162100  0.39311300  0.68910900  1
  Al  Al0  1  0.17228400  0.81069600  0.81069600  1
  Al  Al1  1  0.81128500  0.62822500  0.62822500  1
  Al  Al2  1  0.99983900  0.36477600  0.18571500  1
  Al  Al3  1  0.62822500  0.81128500  0.62822500  1
  Al  Al4  1  0.36477600  0.18571500  0.99983900  1
  Al  Al5  1  0.81069600  0.17228400  0.81069600  1
  Al  Al6  1  0.18571500  0.36477600  0.99983900  1
  Al  Al7  1  0.18571500  0.99983900  0.36477600  1
  Al  Al8  1  0.81069600  0.81069600  0.17228400  1
  Al  Al9  1  0.36477600  0.99983900  0.18571500  1
  Al  Al10  1  0.62822500  0.62822500  0.81128500  1
  Al  Al11  1  0.99983900  0.18571500  0.36477600  1
loop_
_geom_bond_atom_site_label_1
_geom_bond_atom_site_label_2
_geom_bond_distance
_geom_bond_site_symmetry_2
Mg0 Mg14 3.061146 1_556
Mg0 Mg5 3.061146 1_565
Mg0 Mg1 3.075691 1_566
Mg0 Mg3 3.170373 1_555
Mg0 Mg2 3.401231 1_555
Mg1 Mg8 3.177668 1_555
Mg1 Mg11 3.177668 1_555
Mg1 Mg4 3.179052 1_655
Mg1 Mg15 3.179052 1_655
Mg1 Mg13 3.306559 1_555
Mg1 Mg6 3.306559 1_555
Mg1 Th0 3.595045 1_555
Mg2 Mg5 3.107544 1_565
Mg2 Mg4 3.139042 1_555
Mg2 Th0 3.162595 1_555
Mg2 Mg9 3.306559 1_555
Mg3 Mg7 3.170373 1_555
Mg3 Th0 3.387764 1_666
Mg4 Mg7 3.061146 1_455
Mg4 Mg8 3.085962 1_455
Mg4 Mg5 3.085962 1_565
Mg4 Mg6 3.107544 1_455
Mg4 Mg9 3.177668 1_555
Mg5 Mg8 3.085962 1_556
Mg5 Mg9 3.179052 1_545
Mg6 Mg8 3.139042 1_555
Mg6 Th0 3.162595 1_555
Mg6 Mg9 3.306559 1_555
Mg6 Mg7 3.401231 1_555
Mg9 Th0 3.595045 1_555
Mg10 Mg7 3.075691 1_445
Mg10 Mg15 3.177668 1_555
Mg10 Mg5 3.177668 1_555
Mg10 Mg8 3.179053 1_556
Mg10 Mg14 3.179053 1_556
Mg10 Mg2 3.306559 1_555
Mg10 Mg13 3.306559 1_555
Mg10 Th0 3.595044 1_555
Mg11 Mg7 3.061146 1_545
Mg11 Mg14 3.085962 1_545
Mg11 Mg15 3.085962 1_655
Mg11 Mg6 3.107544 1_545
Mg11 Mg13 3.139042 1_555
Mg11 Mg9 3.179052 1_545
Mg12 Mg8 3.061146 1_556
Mg12 Mg15 3.061146 1_655
Mg12 Mg9 3.075691 1_656
Mg12 Mg3 3.170373 1_555
Mg12 Mg13 3.401231 1_555
Mg13 Mg8 3.107544 1_556
Mg13 Mg15 3.107544 1_655
Mg13 Mg5 3.139042 1_555
Mg13 Th0 3.162595 1_555
Mg14 Mg15 3.085962 1_554
Mg14 Mg2 3.107544 1_554
Mg14 Mg6 3.139042 1_555
Mg14 Mg9 3.177668 1_555
Mg15 Mg2 3.139042 1_555
Al0 Al1 2.674607 1_455
Al0 Al9 2.778261 1_556
Al0 Al4 2.778261 1_565
Al0 Mg2 2.792381 1_555
Al0 Mg5 3.008566 1_565
Al0 Mg14 3.008566 1_556
Al0 Mg12 3.123073 1_455
Al0 Mg7 3.123073 1_455
Al0 Mg4 3.209804 1_555
Al0 Mg15 3.209804 1_555
Al0 Mg3 3.221755 1_455
Al1 Al10 2.780882 1_555
Al1 Al3 2.780882 1_555
Al1 Mg1 2.876260 1_555
Al1 Mg13 3.052374 1_555
Al1 Mg6 3.052374 1_555
Al1 Mg12 3.123589 1_555
Al1 Mg7 3.123589 1_555
Al1 Mg3 3.172382 1_555
Al1 Th0 3.259852 1_555
Al1 Mg4 3.313364 1_655
Al1 Mg15 3.313364 1_655
Al2 Al5 2.778261 1_554
Al2 Al6 2.823660 1_654
Al2 Mg4 2.948394 1_655
Al2 Mg8 2.952246 1_555
Al2 Mg9 3.002962 1_655
Al2 Mg0 3.083348 1_544
Al2 Mg1 3.194132 1_555
Al2 Mg2 3.207283 1_655
Al2 Mg3 3.247834 1_544
Al2 Th0 3.249410 1_655
Al3 Al5 2.674607 1_565
Al3 Mg9 2.876260 1_555
Al3 Mg2 3.052374 1_555
Al3 Mg6 3.052374 1_555
Al3 Mg0 3.123589 1_555
Al3 Mg7 3.123589 1_555
Al3 Mg3 3.172382 1_555
Al3 Th0 3.259852 1_555
Al3 Mg11 3.313364 1_565
Al3 Mg5 3.313364 1_565
Al4 Al6 2.720133 1_555
Al4 Al9 2.823660 1_546
Al4 Mg8 2.948394 1_556
Al4 Mg5 2.952246 1_555
Al4 Mg1 3.002962 1_556
Al4 Mg7 3.083348 1_445
Al4 Mg10 3.194132 1_555
Al4 Mg6 3.207283 1_556
Al4 Mg3 3.247834 1_445
Al4 Th0 3.249410 1_556
Al5 Al6 2.778261 1_655
Al5 Mg13 2.792381 1_555
Al5 Mg15 3.008566 1_655
Al5 Mg8 3.008566 1_556
Al5 Mg0 3.123073 1_545
Al5 Mg7 3.123073 1_545
Al5 Mg11 3.209804 1_555
Al5 Mg5 3.209804 1_555
Al5 Mg3 3.221755 1_545
Al6 Mg14 2.948394 1_556
Al6 Mg15 2.952246 1_555
Al6 Mg9 3.002962 1_556
Al6 Mg7 3.083348 1_445
Al6 Mg10 3.194132 1_555
Al6 Mg6 3.207283 1_556
Al6 Mg3 3.247834 1_445
Al6 Th0 3.249410 1_556
Al7 Al9 2.720133 1_555
Al7 Al8 2.778261 1_455
Al7 Mg5 2.948394 1_565
Al7 Mg4 2.952246 1_555
Al7 Mg10 3.002962 1_565
Al7 Mg12 3.083348 1_454
Al7 Mg9 3.194132 1_555
Al7 Mg13 3.207283 1_565
Al7 Mg3 3.247834 1_454
Al7 Th0 3.249410 1_565
Al8 Mg6 2.792381 1_555
Al8 Mg11 3.008566 1_565
Al8 Mg4 3.008566 1_655
Al8 Mg12 3.123073 1_554
Al8 Mg0 3.123073 1_554
Al8 Mg14 3.209804 1_555
Al8 Mg8 3.209804 1_555
Al8 Mg3 3.221755 1_554
Al9 Mg11 2.948394 1_565
Al9 Mg14 2.952246 1_555
Al9 Mg1 3.002962 1_565
Al9 Mg12 3.083348 1_454
Al9 Mg9 3.194132 1_555
Al9 Mg13 3.207283 1_565
Al9 Mg3 3.247834 1_454
Al9 Th0 3.249410 1_565
Al10 Al8 2.674607 1_556
Al10 Al3 2.780882 1_555
Al10 Mg10 2.876260 1_555
Al10 Mg2 3.052374 1_555
Al10 Mg13 3.052374 1_555
Al10 Mg12 3.123589 1_555
Al10 Mg0 3.123589 1_555
Al10 Mg3 3.172382 1_555
Al10 Th0 3.259852 1_555
Al10 Mg14 3.313364 1_556
Al10 Mg8 3.313364 1_556
Al11 Al2 2.720133 1_555
Al11 Al8 2.778261 1_545
Al11 Al7 2.823661 1_645
Al11 Mg15 2.948394 1_655
Al11 Mg11 2.952246 1_555
Al11 Mg10 3.002962 1_655
Al11 Mg0 3.083348 1_544
Al11 Mg1 3.194132 1_555
Al11 Mg2 3.207283 1_655
Al11 Mg3 3.247834 1_544
Al11 Th0 3.249410 1_655
