# generated using pymatgen
data_CsDyS2
_symmetry_space_group_name_H-M   'P 1'
_cell_length_a   8.41312041
_cell_length_b   8.41312052
_cell_length_c   8.41312109
_cell_angle_alpha   28.02911609
_cell_angle_beta   28.02911494
_cell_angle_gamma   28.02911550
_symmetry_Int_Tables_number   1
_chemical_formula_structural   CsDyS2
_chemical_formula_sum   'Cs1 Dy1 S2'
_cell_volume   116.14934106
_cell_formula_units_Z   1
loop_
 _symmetry_equiv_pos_site_id
 _symmetry_equiv_pos_as_xyz
  1  'x, y, z'
loop_
 _atom_site_type_symbol
 _atom_site_label
 _atom_site_symmetry_multiplicity
 _atom_site_fract_x
 _atom_site_fract_y
 _atom_site_fract_z
 _atom_site_occupancy
  Cs  Cs0  1  0.00000000  -0.00000000  -0.00000000  1
  Dy  Dy0  1  0.50000000  0.50000000  0.50000000  1
  S  S0  1  0.77287987  0.77287987  0.77287987  1
  S  S1  1  0.22712013  0.22712013  0.22712013  1
loop_
_geom_bond_atom_site_label_1
_geom_bond_atom_site_label_2
_geom_bond_distance
_geom_bond_site_symmetry_2
Cs0 S1 3.486993 1_455
Cs0 S0 3.486993 1_544
Cs0 S1 3.486994 1_545
Cs0 S0 3.486994 1_454
Cs0 S1 3.486994 1_554
Cs0 S0 3.486994 1_445
Dy0 S0 2.771401 1_455
Dy0 S1 2.771401 1_655
Dy0 S0 2.771401 1_545
Dy0 S1 2.771401 1_565
Dy0 S0 2.771402 1_554
Dy0 S1 2.771402 1_556
