# generated using pymatgen
data_YHoRu2
_symmetry_space_group_name_H-M   'P 1'
_cell_length_a   4.77745082
_cell_length_b   4.77745082
_cell_length_c   4.77745082
_cell_angle_alpha   60.02914721
_cell_angle_beta   60.02914721
_cell_angle_gamma   60.02914721
_symmetry_Int_Tables_number   1
_chemical_formula_structural   YHoRu2
_chemical_formula_sum   'Y1 Ho1 Ru2'
_cell_volume   77.15437007
_cell_formula_units_Z   1
loop_
 _symmetry_equiv_pos_site_id
 _symmetry_equiv_pos_as_xyz
  1  'x, y, z'
loop_
 _atom_site_type_symbol
 _atom_site_label
 _atom_site_symmetry_multiplicity
 _atom_site_fract_x
 _atom_site_fract_y
 _atom_site_fract_z
 _atom_site_occupancy
  Y  Y0  1  0.75000198  0.75000198  0.75000198  1
  Ho  Ho0  1  0.24999678  0.24999678  0.24999678  1
  Ru  Ru0  1  0.99999395  0.99999395  0.99999395  1
  Ru  Ru1  1  0.50000929  0.50000929  0.50000929  1
loop_
_geom_bond_atom_site_label_1
_geom_bond_atom_site_label_2
_geom_bond_distance
_geom_bond_site_symmetry_2
Ho0 Ru0 2.924968 1_444
Ho0 Ru1 2.925081 1_555
Ho0 Ru1 2.926604 1_545
Ho0 Ru1 2.926604 1_554
Ho0 Ru1 2.926604 1_455
Ho0 Ru0 2.926642 1_445
Ho0 Ru0 2.926642 1_454
Ho0 Ru0 2.926642 1_544
Ru0 Y0 2.924841 1_555
Ru0 Y0 2.926685 1_655
Ru0 Y0 2.926685 1_556
Ru0 Y0 2.926685 1_565
Ru1 Y0 2.924849 1_555
Ru1 Y0 2.926682 1_554
Ru1 Y0 2.926682 1_455
Ru1 Y0 2.926682 1_545
