# generated using pymatgen
data_Tm3Lu
_symmetry_space_group_name_H-M   'P 1'
_cell_length_a   7.10535752
_cell_length_b   7.10535733
_cell_length_c   5.47662513
_cell_angle_alpha   90.00000000
_cell_angle_beta   90.00000000
_cell_angle_gamma   120.00001071
_symmetry_Int_Tables_number   1
_chemical_formula_structural   Tm3Lu
_chemical_formula_sum   'Tm6 Lu2'
_cell_volume   239.45034037
_cell_formula_units_Z   2
loop_
 _symmetry_equiv_pos_site_id
 _symmetry_equiv_pos_as_xyz
  1  'x, y, z'
loop_
 _atom_site_type_symbol
 _atom_site_label
 _atom_site_symmetry_multiplicity
 _atom_site_fract_x
 _atom_site_fract_y
 _atom_site_fract_z
 _atom_site_occupancy
  Tm  Tm0  1  0.83272218  0.16727782  0.74999800  1
  Tm  Tm1  1  0.33455564  0.16727782  0.74999800  1
  Tm  Tm2  1  0.83272218  0.66544336  0.74999800  1
  Tm  Tm3  1  0.16727782  0.83272218  0.24999900  1
  Tm  Tm4  1  0.16727782  0.33455664  0.24999900  1
  Tm  Tm5  1  0.66544336  0.83272218  0.24999900  1
  Lu  Lu0  1  0.66666600  0.33333100  0.24999900  1
  Lu  Lu1  1  0.33333400  0.66666700  0.74999800  1
loop_
_geom_bond_atom_site_label_1
_geom_bond_atom_site_label_2
_geom_bond_distance
_geom_bond_site_symmetry_2
Tm0 Tm5 3.425845 1_545
Tm0 Tm4 3.425845 1_655
Tm0 Tm5 3.425853 1_546
Tm0 Tm4 3.425853 1_656
Tm0 Tm2 3.539644 1_555
Tm0 Tm1 3.539651 1_555
Tm0 Tm1 3.565706 1_655
Tm0 Tm2 3.565713 1_545
Tm1 Tm3 3.425845 1_545
Tm1 Tm4 3.425849 1_555
Tm1 Tm3 3.425853 1_546
Tm1 Tm4 3.425857 1_556
Tm1 Tm2 3.539647 1_555
Tm1 Tm2 3.565709 1_445
Tm2 Tm3 3.425845 1_655
Tm2 Tm5 3.425852 1_555
Tm2 Tm3 3.425853 1_656
Tm2 Tm5 3.425861 1_556
Tm3 Tm4 3.539644 1_555
Tm3 Tm5 3.539644 1_555
Tm3 Tm4 3.565713 1_565
Tm3 Tm5 3.565713 1_455
Tm4 Tm5 3.539644 1_555
Tm4 Tm5 3.565713 1_445
Lu0 Tm0 3.416820 1_555
Lu0 Tm1 3.416824 1_555
Lu0 Tm0 3.416829 1_554
Lu0 Tm2 3.416831 1_555
Lu0 Tm1 3.416833 1_554
Lu0 Tm2 3.416840 1_554
Lu0 Tm5 3.552669 1_545
Lu0 Tm3 3.552675 1_545
Lu0 Tm4 3.552680 1_655
Lu0 Tm4 3.552694 1_555
Lu0 Tm3 3.552697 1_655
Lu0 Tm5 3.552704 1_555
Lu1 Tm5 3.416820 1_555
Lu1 Tm4 3.416824 1_555
Lu1 Tm3 3.416828 1_555
Lu1 Tm5 3.416829 1_556
Lu1 Tm4 3.416833 1_556
Lu1 Tm3 3.416837 1_556
Lu1 Tm0 3.552683 1_565
Lu1 Tm1 3.552687 1_565
Lu1 Tm1 3.552687 1_555
Lu1 Tm2 3.552687 1_455
Lu1 Tm2 3.552687 1_555
Lu1 Tm0 3.552690 1_455
