# generated using pymatgen
data_Pm2InAg
_symmetry_space_group_name_H-M   'P 1'
_cell_length_a   5.36686982
_cell_length_b   5.36686023
_cell_length_c   5.36685948
_cell_angle_alpha   59.99994992
_cell_angle_beta   60.00006368
_cell_angle_gamma   60.00007723
_symmetry_Int_Tables_number   1
_chemical_formula_structural   Pm2InAg
_chemical_formula_sum   'Pm2 In1 Ag1'
_cell_volume   109.30672199
_cell_formula_units_Z   1
loop_
 _symmetry_equiv_pos_site_id
 _symmetry_equiv_pos_as_xyz
  1  'x, y, z'
loop_
 _atom_site_type_symbol
 _atom_site_label
 _atom_site_symmetry_multiplicity
 _atom_site_fract_x
 _atom_site_fract_y
 _atom_site_fract_z
 _atom_site_occupancy
  Pm  Pm0  1  0.50000000  0.50000000  0.50000000  1
  Pm  Pm1  1  0.00000000  0.00000000  0.00000000  1
  In  In0  1  0.74999900  0.74999900  0.74999900  1
  Ag  Ag0  1  0.25000000  0.25000000  0.25000000  1
loop_
_geom_bond_atom_site_label_1
_geom_bond_atom_site_label_2
_geom_bond_distance
_geom_bond_site_symmetry_2
In0 Pm0 3.286505 1_555
In0 Pm1 3.286512 1_665
In0 Pm1 3.286513 1_656
In0 Pm0 3.286521 1_556
In0 Pm0 3.286522 1_565
In0 Pm1 3.286523 1_566
In0 Pm0 3.286531 1_655
In0 Pm1 3.286531 1_666
Ag0 Pm1 3.286517 1_556
Ag0 Pm0 3.286517 1_554
Ag0 Pm0 3.286517 1_545
Ag0 Pm1 3.286517 1_565
Ag0 Pm1 3.286518 1_555
Ag0 Pm0 3.286518 1_555
Ag0 Pm0 3.286527 1_455
Ag0 Pm1 3.286527 1_655
