# generated using pymatgen
data_RbGaH2
_symmetry_space_group_name_H-M   'P 1'
_cell_length_a   7.41206702
_cell_length_b   4.48399241
_cell_length_c   9.44913496
_cell_angle_alpha   90.00000000
_cell_angle_beta   90.00000000
_cell_angle_gamma   90.00000000
_symmetry_Int_Tables_number   1
_chemical_formula_structural   RbGaH2
_chemical_formula_sum   'Rb4 Ga4 H8'
_cell_volume   314.04816369
_cell_formula_units_Z   4
loop_
 _symmetry_equiv_pos_site_id
 _symmetry_equiv_pos_as_xyz
  1  'x, y, z'
loop_
 _atom_site_type_symbol
 _atom_site_label
 _atom_site_symmetry_multiplicity
 _atom_site_fract_x
 _atom_site_fract_y
 _atom_site_fract_z
 _atom_site_occupancy
  Rb  Rb0  1  0.38026538  0.24999900  0.17373440  1
  Rb  Rb1  1  0.88026538  0.24999900  0.32626460  1
  Rb  Rb2  1  0.11973462  0.74999900  0.67373540  1
  Rb  Rb3  1  0.61973462  0.74999900  0.82626460  1
  Ga  Ga0  1  0.06371579  0.74999900  0.03413796  1
  Ga  Ga1  1  0.56371579  0.74999900  0.46586104  1
  Ga  Ga2  1  0.43628421  0.24999900  0.53413896  1
  Ga  Ga3  1  0.93628421  0.24999900  0.96586104  1
  H  H0  1  0.72199817  0.24999900  0.01831457  1
  H  H1  1  0.10331245  0.74999900  0.20584957  1
  H  H2  1  0.60331245  0.74999900  0.29415043  1
  H  H3  1  0.22199817  0.24999900  0.48168543  1
  H  H4  1  0.77800283  0.74999900  0.51831457  1
  H  H5  1  0.39668755  0.24999900  0.70584957  1
  H  H6  1  0.89668855  0.24999900  0.79415043  1
  H  H7  1  0.27800283  0.74999900  0.98168643  1
loop_
_geom_bond_atom_site_label_1
_geom_bond_atom_site_label_2
_geom_bond_distance
_geom_bond_site_symmetry_2
Ga0 H1 1.648857 1_555
Ga0 H7 1.663842 1_554
Ga1 H2 1.648848 1_555
Ga1 H4 1.663847 1_555
Ga2 H5 1.648848 1_555
Ga2 H3 1.663840 1_555
Ga3 H6 1.648846 1_555
Ga3 H0 1.663840 1_556
H0 Rb0 2.927892 1_555
H0 Rb3 2.982322 1_554
H0 Rb3 2.982322 1_544
H0 Rb1 3.137424 1_555
H1 Rb1 3.009049 1_455
H1 Rb1 3.009049 1_465
H1 Rb0 3.054930 1_555
H1 Rb0 3.054930 1_565
H2 Rb0 3.009053 1_555
H2 Rb0 3.009053 1_565
H2 Rb1 3.054929 1_555
H2 Rb1 3.054929 1_565
H3 Rb1 2.927897 1_455
H3 Rb2 2.982322 1_555
H3 Rb2 2.982322 1_545
H3 Rb0 3.137432 1_555
H4 Rb2 2.927891 1_655
H4 Rb1 2.982320 1_565
H4 Rb1 2.982320 1_555
H4 Rb3 3.137426 1_555
H5 Rb3 3.009049 1_545
H5 Rb3 3.009049 1_555
H5 Rb2 3.054929 1_545
H5 Rb2 3.054929 1_555
H6 Rb2 3.009045 1_655
H6 Rb2 3.009045 1_645
H6 Rb3 3.054934 1_545
H6 Rb3 3.054934 1_555
H7 Rb3 2.927895 1_555
H7 Rb0 2.982309 1_556
H7 Rb0 2.982309 1_566
H7 Rb2 3.137435 1_555
