# generated using pymatgen
data_Sm3Al
_symmetry_space_group_name_H-M   'P 1'
_cell_length_a   7.01880550
_cell_length_b   7.01879263
_cell_length_c   5.29859763
_cell_angle_alpha   90.00000000
_cell_angle_beta   90.00000000
_cell_angle_gamma   119.99994478
_symmetry_Int_Tables_number   1
_chemical_formula_structural   Sm3Al
_chemical_formula_sum   'Sm6 Al2'
_cell_volume   226.05672603
_cell_formula_units_Z   2
loop_
 _symmetry_equiv_pos_site_id
 _symmetry_equiv_pos_as_xyz
  1  'x, y, z'
loop_
 _atom_site_type_symbol
 _atom_site_label
 _atom_site_symmetry_multiplicity
 _atom_site_fract_x
 _atom_site_fract_y
 _atom_site_fract_z
 _atom_site_occupancy
  Sm  Sm0  1  0.82186286  0.17813814  0.75000000  1
  Sm  Sm1  1  0.35627528  0.17813814  0.75000000  1
  Sm  Sm2  1  0.82186286  0.64372472  0.75000000  1
  Sm  Sm3  1  0.17813714  0.82186186  0.24999800  1
  Sm  Sm4  1  0.64372372  0.82186186  0.24999800  1
  Sm  Sm5  1  0.17813614  0.35627328  0.24999800  1
  Al  Al0  1  0.66666700  0.33333400  0.24999800  1
  Al  Al1  1  0.33333400  0.66666800  0.75000000  1
loop_
_geom_bond_atom_site_label_1
_geom_bond_atom_site_label_2
_geom_bond_distance
_geom_bond_site_symmetry_2
Sm0 Sm2 3.267856 1_555
Sm0 Sm1 3.267869 1_555
Sm0 Sm5 3.421773 1_656
Sm0 Sm4 3.421782 1_546
Sm0 Sm5 3.421790 1_655
Sm0 Sm4 3.421799 1_545
Sm0 Sm1 3.750937 1_655
Sm0 Sm2 3.750937 1_545
Sm1 Sm2 3.267865 1_555
Sm1 Sm5 3.421775 1_556
Sm1 Sm3 3.421782 1_546
Sm1 Sm5 3.421791 1_555
Sm1 Sm3 3.421799 1_545
Sm1 Sm2 3.750940 1_445
Sm2 Sm3 3.421777 1_656
Sm2 Sm4 3.421782 1_556
Sm2 Sm3 3.421793 1_655
Sm2 Sm4 3.421799 1_555
Sm3 Sm4 3.267862 1_555
Sm3 Sm5 3.267866 1_555
Sm3 Sm5 3.750926 1_565
Sm3 Sm4 3.750944 1_455
Sm4 Sm5 3.267872 1_555
Sm4 Sm5 3.750933 1_665
Al0 Sm2 3.252438 1_554
Al0 Sm0 3.252441 1_554
Al0 Sm1 3.252443 1_554
Al0 Sm2 3.252455 1_555
Al0 Sm0 3.252459 1_555
Al0 Sm1 3.252461 1_555
Al0 Sm4 3.512163 1_555
Al0 Sm3 3.512165 1_655
Al0 Sm5 3.512168 1_655
Al0 Sm4 3.512170 1_545
Al0 Sm5 3.512175 1_555
Al0 Sm3 3.512179 1_545
Al1 Sm4 3.252436 1_556
Al1 Sm3 3.252438 1_556
Al1 Sm5 3.252452 1_556
Al1 Sm4 3.252453 1_555
Al1 Sm3 3.252455 1_555
Al1 Sm5 3.252469 1_555
Al1 Sm1 3.512162 1_565
Al1 Sm0 3.512168 1_565
Al1 Sm1 3.512169 1_555
Al1 Sm2 3.512169 1_455
Al1 Sm0 3.512176 1_455
Al1 Sm2 3.512176 1_555
