# generated using pymatgen
data_LiAuO2
_symmetry_space_group_name_H-M   'P 1'
_cell_length_a   5.85106860
_cell_length_b   5.85106860
_cell_length_c   5.40146728
_cell_angle_alpha   67.22272019
_cell_angle_beta   67.22272019
_cell_angle_gamma   40.80624853
_symmetry_Int_Tables_number   1
_chemical_formula_structural   LiAuO2
_chemical_formula_sum   'Li2 Au2 O4'
_cell_volume   110.05404677
_cell_formula_units_Z   2
loop_
 _symmetry_equiv_pos_site_id
 _symmetry_equiv_pos_as_xyz
  1  'x, y, z'
loop_
 _atom_site_type_symbol
 _atom_site_label
 _atom_site_symmetry_multiplicity
 _atom_site_fract_x
 _atom_site_fract_y
 _atom_site_fract_z
 _atom_site_occupancy
  Li  Li0  1  0.37228800  0.62771200  0.25000000  1
  Li  Li1  1  0.62771200  0.37228800  0.75000000  1
  Au  Au0  1  0.00000000  0.50000000  0.00000000  1
  Au  Au1  1  0.50000000  0.00000000  0.50000000  1
  O  O0  1  0.31459500  0.40580900  0.63232800  1
  O  O1  1  0.40580900  0.31459500  0.13232800  1
  O  O2  1  0.59419100  0.68540500  0.86767200  1
  O  O3  1  0.68540500  0.59419100  0.36767200  1
loop_
_geom_bond_atom_site_label_1
_geom_bond_atom_site_label_2
_geom_bond_distance
_geom_bond_site_symmetry_2
Li0 O1 2.014965 1_555
Li0 O3 2.014965 1_555
Li0 O0 2.027824 1_555
Li0 O2 2.027824 1_554
Li1 O0 2.014965 1_555
Li1 O2 2.014965 1_555
Li1 O1 2.027824 1_556
Li1 O3 2.027824 1_555
Au0 O0 2.029101 1_554
Au0 O3 2.029101 1_455
Au0 O1 2.034677 1_555
Au0 O2 2.034677 1_454
Au1 O1 2.029101 1_555
Au1 O2 2.029101 1_545
Au1 O0 2.034677 1_555
Au1 O3 2.034677 1_545
