# generated using pymatgen
data_BaTl3
_symmetry_space_group_name_H-M   'P 1'
_cell_length_a   7.82221198
_cell_length_b   7.82219482
_cell_length_c   5.08393808
_cell_angle_alpha   90.00000000
_cell_angle_beta   90.00000000
_cell_angle_gamma   120.00012338
_symmetry_Int_Tables_number   1
_chemical_formula_structural   BaTl3
_chemical_formula_sum   'Ba2 Tl6'
_cell_volume   269.39439371
_cell_formula_units_Z   2
loop_
 _symmetry_equiv_pos_site_id
 _symmetry_equiv_pos_as_xyz
  1  'x, y, z'
loop_
 _atom_site_type_symbol
 _atom_site_label
 _atom_site_symmetry_multiplicity
 _atom_site_fract_x
 _atom_site_fract_y
 _atom_site_fract_z
 _atom_site_occupancy
  Ba  Ba0  1  0.33333500  0.66666800  0.75000000  1
  Ba  Ba1  1  0.66666700  0.33333200  0.25000000  1
  Tl  Tl0  1  0.14688014  0.29375928  0.25000100  1
  Tl  Tl1  1  0.70624072  0.85311986  0.25000100  1
  Tl  Tl2  1  0.14687914  0.85312086  0.25000100  1
  Tl  Tl3  1  0.85312086  0.70624072  0.74999900  1
  Tl  Tl4  1  0.29375928  0.14687914  0.74999900  1
  Tl  Tl5  1  0.85311986  0.14687914  0.74999900  1
loop_
_geom_bond_atom_site_label_1
_geom_bond_atom_site_label_2
_geom_bond_distance
_geom_bond_site_symmetry_2
Ba0 Tl1 3.583713 1_555
Ba0 Tl1 3.583721 1_556
Ba0 Tl0 3.583724 1_555
Ba0 Tl2 3.583729 1_555
Ba0 Tl0 3.583731 1_556
Ba0 Tl2 3.583736 1_556
Ba0 Tl5 3.920256 1_565
Ba0 Tl4 3.920268 1_565
Ba0 Tl3 3.920278 1_555
Ba0 Tl4 3.920282 1_555
Ba0 Tl5 3.920286 1_455
Ba0 Tl3 3.920286 1_455
Ba1 Tl5 3.583715 1_555
Ba1 Tl5 3.583722 1_554
Ba1 Tl4 3.583723 1_555
Ba1 Tl3 3.583724 1_555
Ba1 Tl4 3.583730 1_554
Ba1 Tl3 3.583731 1_554
Ba1 Tl1 3.920267 1_545
Ba1 Tl2 3.920269 1_545
Ba1 Tl2 3.920276 1_655
Ba1 Tl0 3.920279 1_655
Ba1 Tl1 3.920281 1_555
Ba1 Tl0 3.920286 1_555
Tl0 Tl4 3.228255 1_555
Tl0 Tl5 3.228258 1_455
Tl0 Tl4 3.228271 1_554
Tl0 Tl5 3.228274 1_454
Tl0 Tl2 3.446756 1_545
Tl0 Tl1 3.446765 1_445
Tl1 Tl5 3.228251 1_565
Tl1 Tl3 3.228255 1_555
Tl1 Tl5 3.228267 1_564
Tl1 Tl3 3.228271 1_554
Tl1 Tl2 3.446763 1_655
Tl2 Tl4 3.228247 1_565
Tl2 Tl3 3.228250 1_455
Tl2 Tl4 3.228263 1_564
Tl2 Tl3 3.228266 1_454
Tl3 Tl4 3.446757 1_665
Tl3 Tl5 3.446763 1_565
Tl4 Tl5 3.446775 1_455
