# generated using pymatgen
data_Ac3Pr
_symmetry_space_group_name_H-M   'P 1'
_cell_length_a   8.01020440
_cell_length_b   8.01020100
_cell_length_c   6.35880548
_cell_angle_alpha   89.99994697
_cell_angle_beta   90.00003840
_cell_angle_gamma   119.99995463
_symmetry_Int_Tables_number   1
_chemical_formula_structural   Ac3Pr
_chemical_formula_sum   'Ac6 Pr2'
_cell_volume   353.34046989
_cell_formula_units_Z   2
loop_
 _symmetry_equiv_pos_site_id
 _symmetry_equiv_pos_as_xyz
  1  'x, y, z'
loop_
 _atom_site_type_symbol
 _atom_site_label
 _atom_site_symmetry_multiplicity
 _atom_site_fract_x
 _atom_site_fract_y
 _atom_site_fract_z
 _atom_site_occupancy
  Ac  Ac0  1  0.16825452  0.33650924  0.25005015  1
  Ac  Ac1  1  0.66349051  0.83174441  0.25005016  1
  Ac  Ac2  1  0.16825424  0.83174494  0.25005020  1
  Ac  Ac3  1  0.83175184  0.66350130  0.74995099  1
  Ac  Ac4  1  0.33649792  0.16824752  0.74995105  1
  Ac  Ac5  1  0.83175096  0.16824736  0.74995101  1
  Pr  Pr0  1  0.33333337  0.66666581  0.74995097  1
  Pr  Pr1  1  0.66666663  0.33333242  0.25004948  1
loop_
_geom_bond_atom_site_label_1
_geom_bond_atom_site_label_2
_geom_bond_distance
_geom_bond_site_symmetry_2
Ac0 Pr0 3.917923 1_555
Ac0 Pr0 3.918944 1_554
Ac0 Ac5 3.943823 1_455
Ac0 Ac4 3.943826 1_555
Ac0 Ac5 3.944838 1_454
Ac0 Ac4 3.944846 1_554
Ac0 Ac2 3.966939 1_555
Ac0 Ac1 3.966940 1_555
Ac0 Pr1 4.005159 1_455
Ac0 Pr1 4.005167 1_555
Ac0 Ac2 4.043262 1_545
Ac0 Ac1 4.043268 1_445
Ac1 Pr0 3.917925 1_555
Ac1 Pr0 3.918948 1_554
Ac1 Ac5 3.943821 1_565
Ac1 Ac3 3.943823 1_555
Ac1 Ac5 3.944835 1_564
Ac1 Ac3 3.944843 1_554
Ac1 Ac2 3.966946 1_555
Ac1 Pr1 4.005161 1_565
Ac1 Pr1 4.005161 1_555
Ac1 Ac2 4.043259 1_655
Ac2 Pr0 3.917926 1_555
Ac2 Pr0 3.918953 1_554
Ac2 Ac3 3.943818 1_455
Ac2 Ac4 3.943819 1_565
Ac2 Ac4 3.944833 1_564
Ac2 Ac3 3.944834 1_454
Ac2 Pr1 4.005164 1_565
Ac2 Pr1 4.005165 1_455
Ac3 Pr1 3.917976 1_555
Ac3 Pr1 3.918990 1_556
Ac3 Ac5 3.967080 1_555
Ac3 Ac4 3.967086 1_555
Ac3 Pr0 4.005157 1_655
Ac3 Pr0 4.005168 1_555
Ac3 Ac5 4.043121 1_565
Ac3 Ac4 4.043122 1_665
Ac4 Pr1 3.917976 1_555
Ac4 Pr1 3.918991 1_556
Ac4 Ac5 3.967079 1_555
Ac4 Pr0 4.005156 1_545
Ac4 Pr0 4.005165 1_555
Ac4 Ac5 4.043126 1_455
Ac5 Pr1 3.917975 1_555
Ac5 Pr1 3.918994 1_556
Ac5 Pr0 4.005161 1_545
Ac5 Pr0 4.005168 1_655
