# generated using pymatgen
data_Y(BIr)4
_symmetry_space_group_name_H-M   'P 1'
_cell_length_a   7.61496370
_cell_length_b   7.61496370
_cell_length_c   3.97282909
_cell_angle_alpha   90.00000000
_cell_angle_beta   90.00000000
_cell_angle_gamma   90.00000000
_symmetry_Int_Tables_number   1
_chemical_formula_structural   Y(BIr)4
_chemical_formula_sum   'Y2 B8 Ir8'
_cell_volume   230.37511080
_cell_formula_units_Z   2
loop_
 _symmetry_equiv_pos_site_id
 _symmetry_equiv_pos_as_xyz
  1  'x, y, z'
loop_
 _atom_site_type_symbol
 _atom_site_label
 _atom_site_symmetry_multiplicity
 _atom_site_fract_x
 _atom_site_fract_y
 _atom_site_fract_z
 _atom_site_occupancy
  Y  Y0  1  0.25000000  0.25000000  0.24999900  1
  Y  Y1  1  0.75000000  0.75000000  0.75000100  1
  B  B0  1  0.02773133  0.59262697  0.13947452  1
  B  B1  1  0.47226867  0.90737303  0.13947452  1
  B  B2  1  0.90737303  0.02773133  0.36052648  1
  B  B3  1  0.59262697  0.47226867  0.36052648  1
  B  B4  1  0.40737203  0.52773133  0.63947352  1
  B  B5  1  0.09262797  0.97226967  0.63947352  1
  B  B6  1  0.52773133  0.09262797  0.86052548  1
  B  B7  1  0.97226967  0.40737203  0.86052548  1
  Ir  Ir0  1  0.41038155  0.64075623  0.13805523  1
  Ir  Ir1  1  0.08961845  0.85924477  0.13805523  1
  Ir  Ir2  1  0.64075623  0.08961845  0.36194377  1
  Ir  Ir3  1  0.85924477  0.41038155  0.36194377  1
  Ir  Ir4  1  0.14075623  0.58961745  0.63805423  1
  Ir  Ir5  1  0.35924377  0.91038155  0.63805423  1
  Ir  Ir6  1  0.91038155  0.14075623  0.86194477  1
  Ir  Ir7  1  0.58961745  0.35924377  0.86194477  1
loop_
_geom_bond_atom_site_label_1
_geom_bond_atom_site_label_2
_geom_bond_distance
_geom_bond_site_symmetry_2
B0 B7 1.842991 1_454
B0 Ir1 2.084270 1_555
B0 Ir3 2.086448 1_455
B0 Ir4 2.159804 1_555
B0 Ir4 2.170158 1_554
B0 Y1 2.881523 1_454
B1 B6 1.842993 1_564
B1 Ir0 2.084263 1_555
B1 Ir2 2.086453 1_565
B1 Ir5 2.159804 1_555
B1 Ir5 2.170158 1_554
B1 Y1 2.881523 1_554
B2 B5 1.842986 1_645
B2 Ir2 2.084263 1_555
B2 Ir1 2.086451 1_645
B2 Ir6 2.159811 1_554
B2 Ir6 2.170151 1_555
B2 Y1 2.881525 1_545
B3 B4 1.842988 1_555
B3 Ir3 2.084270 1_555
B3 Ir0 2.086456 1_555
B3 Ir7 2.159811 1_554
B3 Ir7 2.170151 1_555
B3 Y1 2.881525 1_555
B4 Ir4 2.084254 1_555
B4 Ir7 2.086456 1_555
B4 Ir0 2.159811 1_556
B4 Ir0 2.170151 1_555
B4 Y0 2.881522 1_555
B5 Ir5 2.084257 1_555
B5 Ir6 2.086456 1_465
B5 Ir1 2.159811 1_556
B5 Ir1 2.170151 1_555
B5 Y0 2.881516 1_565
B6 Ir7 2.084254 1_555
B6 Ir5 2.086461 1_545
B6 Ir2 2.159811 1_555
B6 Ir2 2.170151 1_556
B6 Y0 2.881520 1_556
B7 Ir6 2.084257 1_555
B7 Ir4 2.086451 1_655
B7 Ir3 2.159811 1_555
B7 Ir3 2.170151 1_556
B7 Y0 2.881514 1_656
