# generated using pymatgen
data_YErRh2
_symmetry_space_group_name_H-M   'P 1'
_cell_length_a   4.80019822
_cell_length_b   4.80019822
_cell_length_c   4.80019822
_cell_angle_alpha   60.00000000
_cell_angle_beta   60.00000000
_cell_angle_gamma   60.00000000
_symmetry_Int_Tables_number   1
_chemical_formula_structural   YErRh2
_chemical_formula_sum   'Y1 Er1 Rh2'
_cell_volume   78.21004143
_cell_formula_units_Z   1
loop_
 _symmetry_equiv_pos_site_id
 _symmetry_equiv_pos_as_xyz
  1  'x, y, z'
loop_
 _atom_site_type_symbol
 _atom_site_label
 _atom_site_symmetry_multiplicity
 _atom_site_fract_x
 _atom_site_fract_y
 _atom_site_fract_z
 _atom_site_occupancy
  Y  Y0  1  0.75000100  0.75000100  0.75000100  1
  Er  Er0  1  0.25000100  0.25000100  0.25000100  1
  Rh  Rh0  1  -0.00000000  -0.00000000  -0.00000000  1
  Rh  Rh1  1  0.50000000  0.50000000  0.50000000  1
loop_
_geom_bond_atom_site_label_1
_geom_bond_atom_site_label_2
_geom_bond_distance
_geom_bond_site_symmetry_2
Er0 Rh1 2.939497 1_555
Er0 Rh0 2.939505 1_556
Er0 Rh0 2.939505 1_565
Er0 Rh0 2.939505 1_655
Er0 Rh1 2.939513 1_554
Er0 Rh1 2.939513 1_545
Er0 Rh1 2.939513 1_455
Er0 Rh0 2.939521 1_555
Rh0 Y0 2.939497 1_444
Rh0 Y0 2.939513 1_544
Rh0 Y0 2.939513 1_454
Rh0 Y0 2.939513 1_445
Rh1 Y0 2.939505 1_545
Rh1 Y0 2.939505 1_554
Rh1 Y0 2.939505 1_455
Rh1 Y0 2.939521 1_555
