# generated using pymatgen
data_ScSn3
_symmetry_space_group_name_H-M   'P 1'
_cell_length_a   6.35622944
_cell_length_b   6.35622944
_cell_length_c   5.74645900
_cell_angle_alpha   90.00000000
_cell_angle_beta   90.00000000
_cell_angle_gamma   119.99999412
_symmetry_Int_Tables_number   1
_chemical_formula_structural   ScSn3
_chemical_formula_sum   'Sc2 Sn6'
_cell_volume   201.06204719
_cell_formula_units_Z   2
loop_
 _symmetry_equiv_pos_site_id
 _symmetry_equiv_pos_as_xyz
  1  'x, y, z'
loop_
 _atom_site_type_symbol
 _atom_site_label
 _atom_site_symmetry_multiplicity
 _atom_site_fract_x
 _atom_site_fract_y
 _atom_site_fract_z
 _atom_site_occupancy
  Sc  Sc0  1  0.33333300  0.66666700  0.75000000  1
  Sc  Sc1  1  0.66666700  0.33333300  0.25000000  1
  Sn  Sn0  1  0.16791100  0.33582100  0.25000000  1
  Sn  Sn1  1  0.66417900  0.83208900  0.25000000  1
  Sn  Sn2  1  0.16791100  0.83208900  0.25000000  1
  Sn  Sn3  1  0.83208900  0.66417900  0.75000000  1
  Sn  Sn4  1  0.33582100  0.16791100  0.75000000  1
  Sn  Sn5  1  0.83208900  0.16791100  0.75000000  1
loop_
_geom_bond_atom_site_label_1
_geom_bond_atom_site_label_2
_geom_bond_distance
_geom_bond_site_symmetry_2
Sc0 Sn4 3.178144 1_555
Sc0 Sn3 3.178144 1_555
Sc0 Sn4 3.178144 1_565
Sc0 Sn3 3.178144 1_455
Sc0 Sn5 3.178145 1_565
Sc0 Sn5 3.178145 1_455
Sc0 Sn2 3.401787 1_555
Sc0 Sn2 3.401787 1_556
Sc0 Sn1 3.401793 1_555
Sc0 Sn1 3.401793 1_556
Sc0 Sn0 3.401793 1_556
Sc0 Sn0 3.401793 1_555
Sc1 Sn0 3.178144 1_555
Sc1 Sn1 3.178144 1_555
Sc1 Sn0 3.178144 1_655
Sc1 Sn1 3.178144 1_545
Sc1 Sn2 3.178145 1_655
Sc1 Sn2 3.178145 1_545
Sc1 Sn5 3.401787 1_554
Sc1 Sn5 3.401787 1_555
Sc1 Sn4 3.401793 1_555
Sc1 Sn3 3.401793 1_554
Sc1 Sn4 3.401793 1_554
Sc1 Sn3 3.401793 1_555
Sn0 Sn2 3.154393 1_555
Sn0 Sn1 3.154394 1_555
Sn0 Sn2 3.201836 1_545
Sn0 Sn1 3.201836 1_445
Sn0 Sn4 3.416529 1_555
Sn0 Sn4 3.416529 1_554
Sn0 Sn5 3.416535 1_455
Sn0 Sn5 3.416535 1_454
Sn1 Sn2 3.154393 1_555
Sn1 Sn2 3.201836 1_655
Sn1 Sn3 3.416529 1_555
Sn1 Sn3 3.416529 1_554
Sn1 Sn5 3.416535 1_565
Sn1 Sn5 3.416535 1_564
Sn2 Sn4 3.416535 1_564
Sn2 Sn4 3.416535 1_565
Sn2 Sn3 3.416535 1_455
Sn2 Sn3 3.416535 1_454
Sn3 Sn5 3.154393 1_555
Sn3 Sn4 3.154394 1_555
Sn3 Sn5 3.201836 1_565
Sn3 Sn4 3.201836 1_665
Sn4 Sn5 3.154393 1_555
Sn4 Sn5 3.201836 1_455
