# generated using pymatgen
data_TlNiF3
_symmetry_space_group_name_H-M   'P 1'
_cell_length_a   4.08734836
_cell_length_b   4.08734836
_cell_length_c   4.08737585
_cell_angle_alpha   90.00000000
_cell_angle_beta   90.00000000
_cell_angle_gamma   90.00000000
_symmetry_Int_Tables_number   1
_chemical_formula_structural   TlNiF3
_chemical_formula_sum   'Tl1 Ni1 F3'
_cell_volume   68.28540382
_cell_formula_units_Z   1
loop_
 _symmetry_equiv_pos_site_id
 _symmetry_equiv_pos_as_xyz
  1  'x, y, z'
loop_
 _atom_site_type_symbol
 _atom_site_label
 _atom_site_symmetry_multiplicity
 _atom_site_fract_x
 _atom_site_fract_y
 _atom_site_fract_z
 _atom_site_occupancy
  Tl  Tl0  1  0.50000000  0.50000000  0.50000000  1
  Ni  Ni0  1  0.00000000  0.00000000  0.00000000  1
  F  F0  1  0.50000000  -0.00000000  0.00000000  1
  F  F1  1  -0.00000000  0.50000000  0.00000000  1
  F  F2  1  0.00000000  -0.00000000  0.50000000  1
loop_
_geom_bond_atom_site_label_1
_geom_bond_atom_site_label_2
_geom_bond_distance
_geom_bond_site_symmetry_2
F0 Ni0 2.043674 1_655
F0 Ni0 2.043674 1_555
F1 Ni0 2.043674 1_565
F1 Ni0 2.043674 1_555
F2 Ni0 2.043688 1_556
F2 Ni0 2.043688 1_555
