# generated using pymatgen
data_HoReB4
_symmetry_space_group_name_H-M   'P 1'
_cell_length_a   3.60338044
_cell_length_b   5.95028903
_cell_length_c   11.50269971
_cell_angle_alpha   89.99991009
_cell_angle_beta   89.99999336
_cell_angle_gamma   90.00000492
_symmetry_Int_Tables_number   1
_chemical_formula_structural   HoReB4
_chemical_formula_sum   'Ho4 Re4 B16'
_cell_volume   246.63116859
_cell_formula_units_Z   4
loop_
 _symmetry_equiv_pos_site_id
 _symmetry_equiv_pos_as_xyz
  1  'x, y, z'
loop_
 _atom_site_type_symbol
 _atom_site_label
 _atom_site_symmetry_multiplicity
 _atom_site_fract_x
 _atom_site_fract_y
 _atom_site_fract_z
 _atom_site_occupancy
  Ho  Ho0  1  -0.00000010  0.62661927  0.15005395  1
  Ho  Ho1  1  -0.00000059  0.37337951  0.84994898  1
  Ho  Ho2  1  0.00000020  0.12661695  0.34992713  1
  Ho  Ho3  1  0.00000076  0.87338338  0.65007040  1
  Re  Re0  1  -0.00000032  0.63331496  0.41254373  1
  Re  Re1  1  0.00000049  0.36669018  0.58746148  1
  Re  Re2  1  -0.00000036  0.13327268  0.08739153  1
  Re  Re3  1  0.00000002  0.86672957  0.91260184  1
  B  B0  1  0.50000008  0.97743850  0.19229850  1
  B  B1  1  0.49999987  0.02255884  0.80769513  1
  B  B2  1  0.50000076  0.47741530  0.30768391  1
  B  B3  1  0.49999987  0.52258400  0.69232233  1
  B  B4  1  0.49999965  0.78785970  0.31522223  1
  B  B5  1  0.50000060  0.21213990  0.68478376  1
  B  B6  1  0.50000013  0.28783806  0.18476044  1
  B  B7  1  0.50000003  0.71216172  0.81523376  1
  B  B8  1  0.49999969  0.86352615  0.46874985  1
  B  B9  1  0.50000092  0.13647443  0.53126055  1
  B  B10  1  0.49999938  0.36350235  0.03125680  1
  B  B11  1  0.49999954  0.63649799  0.96873258  1
  B  B12  1  0.49999947  0.88589713  0.04751215  1
  B  B13  1  0.50000010  0.11410053  0.95247861  1
  B  B14  1  0.50000018  0.38588181  0.45248115  1
  B  B15  1  0.49999963  0.61411709  0.54752723  1
loop_
_geom_bond_atom_site_label_1
_geom_bond_atom_site_label_2
_geom_bond_distance
_geom_bond_site_symmetry_2
Ho0 Re0 3.019604 1_555
Ho0 Re2 3.022751 1_555
Ho0 Re3 3.082445 1_554
Ho0 Re2 3.099702 1_565
Ho1 Re1 3.019577 1_555
Ho1 Re3 3.022745 1_555
Ho1 Re2 3.082338 1_556
Ho1 Re3 3.099656 1_545
Ho2 Re2 3.020128 1_555
Ho2 Re0 3.022365 1_545
Ho2 Re1 3.083185 1_555
Ho2 Re0 3.099839 1_555
Ho3 Re3 3.020080 1_555
Ho3 Re1 3.022372 1_565
Ho3 Re0 3.083093 1_555
Ho3 Re1 3.099791 1_555
Re0 Re1 2.562266 1_555
Re2 Re3 2.560812 1_544
B0 B12 1.752247 1_555
B0 B4 1.808800 1_555
B0 B6 1.849001 1_565
B0 Re2 2.358398 1_665
B0 Re2 2.358401 1_565
B0 Ho2 2.705837 1_565
B0 Ho2 2.705837 1_665
B0 Ho0 2.799959 1_655
B0 Ho0 2.799959 1_555
B1 B13 1.752216 1_555
B1 B5 1.808697 1_555
B1 B7 1.848987 1_545
B1 Re3 2.358386 1_545
B1 Re3 2.358387 1_645
B1 Ho3 2.705799 1_545
B1 Ho3 2.705803 1_645
B1 Ho1 2.799983 1_655
B1 Ho1 2.799985 1_555
B2 B6 1.808794 1_555
B2 B4 1.849268 1_555
B2 Re0 2.358274 1_655
B2 Re0 2.358280 1_555
B2 Ho0 2.705893 1_655
B2 Ho0 2.705898 1_555
B2 Ho2 2.799861 1_655
B2 Ho2 2.799864 1_555
B3 B7 1.808688 1_555
B3 B5 1.849266 1_555
B3 Re1 2.358268 1_555
B3 Re1 2.358271 1_655
B3 Ho1 2.705870 1_655
B3 Ho1 2.705872 1_555
B3 Ho3 2.799883 1_555
B3 Ho3 2.799886 1_655
B4 B8 1.822473 1_555
B4 Re0 2.311907 1_555
B4 Re0 2.311907 1_655
B4 Ho2 2.732857 1_565
B4 Ho2 2.732859 1_665
B4 Ho0 2.788573 1_555
B4 Ho0 2.788574 1_655
B5 B9 1.822423 1_555
B5 Re1 2.311924 1_655
B5 Re1 2.311925 1_555
B5 Ho3 2.732868 1_545
B5 Ho3 2.732869 1_645
B5 Ho1 2.788545 1_655
B5 Ho1 2.788551 1_555
B6 Re2 2.312220 1_655
B6 Re2 2.312223 1_555
B6 Ho0 2.732964 1_655
B6 Ho0 2.732965 1_555
B6 Ho2 2.788519 1_555
B6 Ho2 2.788520 1_655
B7 Re3 2.312222 1_555
B7 Re3 2.312222 1_655
B7 Ho1 2.732982 1_655
B7 Ho1 2.732985 1_555
B7 Ho3 2.788493 1_555
B7 Ho3 2.788496 1_655
B8 B9 1.776174 1_565
B8 Re0 2.353826 1_555
B8 Re0 2.353826 1_655
B8 Ho2 2.750428 1_565
B8 Ho2 2.750430 1_665
B8 Ho3 2.756729 1_555
B8 Ho3 2.756735 1_655
B9 Re1 2.353824 1_655
B9 Re1 2.353827 1_555
B9 Ho3 2.750356 1_645
B9 Ho3 2.750356 1_545
B9 Ho2 2.756842 1_655
B9 Ho2 2.756846 1_555
B10 B13 1.738801 1_554
B10 B11 1.776493 1_554
B10 B6 1.822201 1_555
B10 Re2 2.353662 1_555
B10 Re2 2.353664 1_655
B10 Ho0 2.750372 1_555
B10 Ho0 2.750375 1_655
B10 Ho1 2.756624 1_654
B10 Ho1 2.756624 1_554
B11 B12 1.738795 1_556
B11 B7 1.822147 1_555
B11 Re3 2.353656 1_555
B11 Re3 2.353659 1_655
B11 Ho1 2.750301 1_655
B11 Ho1 2.750302 1_555
B11 Ho0 2.756741 1_556
B11 Ho0 2.756743 1_656
B12 B13 1.743211 1_564
B12 Re2 2.371322 1_565
B12 Re2 2.371323 1_665
B12 Re3 2.380604 1_554
B12 Re3 2.380607 1_654
B12 Ho0 2.649052 1_555
B12 Ho0 2.649055 1_655
B13 Re3 2.371299 1_645
B13 Re3 2.371300 1_545
B13 Re2 2.380625 1_656
B13 Re2 2.380627 1_556
B13 Ho1 2.648993 1_655
B13 Ho1 2.648997 1_555
B14 B9 1.738834 1_555
B14 B15 1.743451 1_555
B14 B2 1.752350 1_555
B14 Re0 2.371662 1_655
B14 Re0 2.371665 1_555
B14 Re1 2.381136 1_555
B14 Re1 2.381138 1_655
B14 Ho2 2.649073 1_555
B14 Ho2 2.649073 1_655
B15 B8 1.738830 1_555
B15 B3 1.752325 1_555
B15 Re1 2.371631 1_555
B15 Re1 2.371636 1_655
B15 Re0 2.381162 1_655
B15 Re0 2.381163 1_555
B15 Ho3 2.649020 1_555
B15 Ho3 2.649025 1_655
