# generated using pymatgen
data_RuRh3
_symmetry_space_group_name_H-M   'P 1'
_cell_length_a   5.41840643
_cell_length_b   5.41849383
_cell_length_c   4.32412280
_cell_angle_alpha   90.00000000
_cell_angle_beta   90.00000000
_cell_angle_gamma   120.00052529
_symmetry_Int_Tables_number   1
_chemical_formula_structural   RuRh3
_chemical_formula_sum   'Ru2 Rh6'
_cell_volume   109.94526049
_cell_formula_units_Z   2
loop_
 _symmetry_equiv_pos_site_id
 _symmetry_equiv_pos_as_xyz
  1  'x, y, z'
loop_
 _atom_site_type_symbol
 _atom_site_label
 _atom_site_symmetry_multiplicity
 _atom_site_fract_x
 _atom_site_fract_y
 _atom_site_fract_z
 _atom_site_occupancy
  Ru  Ru0  1  0.33334880  0.66666444  0.74999900  1
  Ru  Ru1  1  0.66665083  0.33330872  0.24999900  1
  Rh  Rh0  1  0.16759404  0.33516000  0.24999900  1
  Rh  Rh1  1  0.66487387  0.83245204  0.24999900  1
  Rh  Rh2  1  0.16761705  0.83244291  0.24999900  1
  Rh  Rh3  1  0.83235789  0.66477356  0.74999900  1
  Rh  Rh4  1  0.33518442  0.16760108  0.74999900  1
  Rh  Rh5  1  0.83237011  0.16759325  0.74999900  1
loop_
_geom_bond_atom_site_label_1
_geom_bond_atom_site_label_2
_geom_bond_distance
_geom_bond_site_symmetry_2
Rh0 Ru0 2.663528 1_555
Rh0 Ru0 2.663528 1_554
Rh0 Rh4 2.673553 1_554
Rh0 Rh4 2.673553 1_555
Rh0 Rh5 2.673744 1_454
Rh0 Rh5 2.673744 1_455
Rh0 Rh2 2.694462 1_555
Rh0 Rh1 2.694498 1_555
Rh0 Ru1 2.709122 1_555
Rh0 Ru1 2.709312 1_455
Rh0 Rh1 2.723909 1_445
Rh0 Rh2 2.724032 1_545
Rh1 Ru0 2.663570 1_554
Rh1 Ru0 2.663570 1_555
Rh1 Rh5 2.673531 1_565
Rh1 Rh5 2.673531 1_564
Rh1 Rh3 2.673590 1_555
Rh1 Rh3 2.673590 1_554
Rh1 Rh2 2.694315 1_555
Rh1 Ru1 2.709087 1_565
Rh1 Ru1 2.709432 1_555
Rh1 Rh2 2.724092 1_655
Rh2 Ru0 2.663544 1_555
Rh2 Ru0 2.663544 1_554
Rh2 Rh4 2.673578 1_565
Rh2 Rh4 2.673578 1_564
Rh2 Rh3 2.673842 1_455
Rh2 Rh3 2.673842 1_454
Rh2 Ru1 2.708945 1_565
Rh2 Ru1 2.709489 1_455
Rh3 Ru1 2.663420 1_555
Rh3 Ru1 2.663420 1_556
Rh3 Rh4 2.693886 1_555
Rh3 Rh5 2.694002 1_555
Rh3 Ru0 2.708972 1_555
Rh3 Ru0 2.709464 1_655
Rh3 Rh5 2.724492 1_565
Rh3 Rh4 2.724522 1_665
Rh4 Ru1 2.663409 1_555
Rh4 Ru1 2.663409 1_556
Rh4 Rh5 2.693975 1_555
Rh4 Ru0 2.709159 1_555
Rh4 Ru0 2.709363 1_545
Rh4 Rh5 2.724431 1_455
Rh5 Ru1 2.663337 1_555
Rh5 Ru1 2.663337 1_556
Rh5 Ru0 2.709083 1_545
Rh5 Ru0 2.709353 1_655
