# generated using pymatgen
data_Sr(AsO3)2
_symmetry_space_group_name_H-M   'P 1'
_cell_length_a   4.87429897
_cell_length_b   4.87429854
_cell_length_c   10.90272324
_cell_angle_alpha   90.00000000
_cell_angle_beta   90.00000000
_cell_angle_gamma   120.00001140
_symmetry_Int_Tables_number   1
_chemical_formula_structural   Sr(AsO3)2
_chemical_formula_sum   'Sr2 As4 O12'
_cell_volume   224.33129265
_cell_formula_units_Z   2
loop_
 _symmetry_equiv_pos_site_id
 _symmetry_equiv_pos_as_xyz
  1  'x, y, z'
loop_
 _atom_site_type_symbol
 _atom_site_label
 _atom_site_symmetry_multiplicity
 _atom_site_fract_x
 _atom_site_fract_y
 _atom_site_fract_z
 _atom_site_occupancy
  Sr  Sr0  1  0.00000007  0.00000007  0.24999984  1
  Sr  Sr1  1  -0.00000007  -0.00000007  0.74999984  1
  As  As0  1  0.66667751  0.33334510  -0.00000025  1
  As  As1  1  0.33334710  0.66667951  -0.00000025  1
  As  As2  1  0.66665490  0.33332249  0.49999975  1
  As  As3  1  0.33332049  0.66665490  0.49999975  1
  O  O0  1  0.61672955  0.61672955  0.09529436  1
  O  O1  1  0.38328461  0.00000728  0.09529470  1
  O  O2  1  0.00000728  0.38328661  0.09529470  1
  O  O3  1  0.61671438  0.61671338  0.40470475  1
  O  O4  1  0.38326925  0.99998993  0.40470507  1
  O  O5  1  0.99999293  0.38327225  0.40470507  1
  O  O6  1  0.61671339  0.99999072  0.59529470  1
  O  O7  1  0.38327045  0.38327045  0.59529536  1
  O  O8  1  0.99999272  0.61671539  0.59529470  1
  O  O9  1  0.38328562  0.38328662  0.90470475  1
  O  O10  1  0.61672975  0.00000707  0.90470407  1
  O  O11  1  0.00000707  0.61672975  0.90470407  1
loop_
_geom_bond_atom_site_label_1
_geom_bond_atom_site_label_2
_geom_bond_distance
_geom_bond_site_symmetry_2
As0 O11 1.839298 1_654
As0 O0 1.839298 1_555
As0 O2 1.839300 1_655
As0 O9 1.839314 1_554
As0 O1 1.839326 1_555
As0 O10 1.839327 1_554
As1 O10 1.839290 1_564
As1 O0 1.839295 1_555
As1 O1 1.839297 1_565
As1 O9 1.839311 1_554
As1 O2 1.839331 1_555
As1 O11 1.839332 1_554
As2 O4 1.839301 1_545
As2 O7 1.839304 1_555
As2 O6 1.839307 1_545
As2 O3 1.839308 1_555
As2 O5 1.839318 1_555
As2 O8 1.839326 1_555
As3 O5 1.839284 1_455
As3 O8 1.839295 1_455
As3 O4 1.839308 1_555
As3 O7 1.839309 1_555
As3 O6 1.839321 1_555
As3 O3 1.839322 1_555
O0 Sr0 2.516957 1_665
O1 Sr0 2.516992 1_555
O2 Sr0 2.516999 1_555
O3 Sr0 2.517009 1_665
O4 Sr0 2.516969 1_565
O5 Sr0 2.516974 1_655
O6 Sr1 2.516996 1_665
O7 Sr1 2.516949 1_555
O8 Sr1 2.516992 1_665
O9 Sr1 2.517009 1_555
O10 Sr1 2.516960 1_655
O11 Sr1 2.516959 1_565
