# generated using pymatgen
data_IrRu
_symmetry_space_group_name_H-M   'P 1'
_cell_length_a   5.44982336
_cell_length_b   5.44982098
_cell_length_c   8.66139529
_cell_angle_alpha   89.97215012
_cell_angle_beta   90.02784866
_cell_angle_gamma   120.00235785
_symmetry_Int_Tables_number   1
_chemical_formula_structural   IrRu
_chemical_formula_sum   'Ir8 Ru8'
_cell_volume   222.77823864
_cell_formula_units_Z   8
loop_
 _symmetry_equiv_pos_site_id
 _symmetry_equiv_pos_as_xyz
  1  'x, y, z'
loop_
 _atom_site_type_symbol
 _atom_site_label
 _atom_site_symmetry_multiplicity
 _atom_site_fract_x
 _atom_site_fract_y
 _atom_site_fract_z
 _atom_site_occupancy
  Ir  Ir0_0  1  0.33332931  0.16666969  0.37500404  1
  Ir  Ir0_1  1  0.33332931  0.16666969  0.87500404  1
  Ir  Ir0_2  1  0.33332931  0.66666969  0.37500405  1
  Ir  Ir0_3  1  0.33332931  0.66666969  0.87500404  1
  Ir  Ir0_4  1  0.83332931  0.16666969  0.37500404  1
  Ir  Ir0_5  1  0.83332931  0.16666969  0.87500404  1
  Ir  Ir0_6  1  0.83332931  0.66666969  0.37500404  1
  Ir  Ir0_7  1  0.83332931  0.66666969  0.87500404  1
  Ru  Ru0_0  1  0.16666969  0.33332931  0.12499496  1
  Ru  Ru0_1  1  0.16666969  0.33332931  0.62499495  1
  Ru  Ru0_2  1  0.16666969  0.83332931  0.12499495  1
  Ru  Ru0_3  1  0.16666969  0.83332931  0.62499495  1
  Ru  Ru0_4  1  0.66666969  0.33332931  0.12499496  1
  Ru  Ru0_5  1  0.66666969  0.33332931  0.62499495  1
  Ru  Ru0_6  1  0.66666969  0.83332931  0.12499496  1
  Ru  Ru0_7  1  0.66666969  0.83332931  0.62499495  1
loop_
_geom_bond_atom_site_label_1
_geom_bond_atom_site_label_2
_geom_bond_distance
_geom_bond_site_symmetry_2
Ir0_0 Ru0_0 2.675845 1_555
Ir0_0 Ru0_3 2.676101 1_545
Ir0_0 Ru0_5 2.676101 1_555
Ir0_0 Ru0_2 2.676943 1_545
Ir0_0 Ru0_4 2.676943 1_555
Ir0_0 Ru0_1 2.677147 1_555
Ir0_0 Ir0_6 2.724814 1_555
Ir0_0 Ir0_6 2.724814 1_445
Ir0_0 Ir0_2 2.724910 1_555
Ir0_0 Ir0_2 2.724910 1_545
Ir0_0 Ir0_4 2.724912 1_455
Ir0_0 Ir0_4 2.724912 1_555
Ir0_1 Ru0_1 2.675845 1_555
Ir0_1 Ru0_2 2.676101 1_546
Ir0_1 Ru0_4 2.676101 1_556
Ir0_1 Ru0_3 2.676943 1_545
Ir0_1 Ru0_5 2.676943 1_555
Ir0_1 Ru0_0 2.677147 1_556
Ir0_1 Ir0_7 2.724814 1_555
Ir0_1 Ir0_7 2.724814 1_445
Ir0_1 Ir0_3 2.724910 1_555
Ir0_1 Ir0_3 2.724910 1_545
Ir0_1 Ir0_5 2.724912 1_455
Ir0_1 Ir0_5 2.724912 1_555
Ir0_2 Ru0_2 2.675845 1_555
Ir0_2 Ru0_1 2.676101 1_555
Ir0_2 Ru0_7 2.676101 1_555
Ir0_2 Ru0_0 2.676943 1_555
Ir0_2 Ru0_6 2.676943 1_555
Ir0_2 Ru0_3 2.677147 1_555
Ir0_2 Ir0_4 2.724814 1_565
Ir0_2 Ir0_4 2.724814 1_455
Ir0_2 Ir0_6 2.724912 1_455
Ir0_2 Ir0_6 2.724912 1_555
Ir0_3 Ru0_3 2.675845 1_555
Ir0_3 Ru0_0 2.676101 1_556
Ir0_3 Ru0_6 2.676101 1_556
Ir0_3 Ru0_1 2.676943 1_555
Ir0_3 Ru0_7 2.676943 1_555
Ir0_3 Ru0_2 2.677147 1_556
Ir0_3 Ir0_5 2.724814 1_455
Ir0_3 Ir0_5 2.724814 1_565
Ir0_3 Ir0_7 2.724912 1_455
Ir0_3 Ir0_7 2.724912 1_555
Ir0_4 Ru0_4 2.675845 1_555
Ir0_4 Ru0_7 2.676101 1_545
Ir0_4 Ru0_1 2.676101 1_655
Ir0_4 Ru0_6 2.676943 1_545
Ir0_4 Ru0_0 2.676943 1_655
Ir0_4 Ru0_5 2.677147 1_555
Ir0_4 Ir0_6 2.724910 1_555
Ir0_4 Ir0_6 2.724910 1_545
Ir0_5 Ru0_5 2.675845 1_555
Ir0_5 Ru0_6 2.676101 1_546
Ir0_5 Ru0_0 2.676101 1_656
Ir0_5 Ru0_7 2.676943 1_545
Ir0_5 Ru0_1 2.676943 1_655
Ir0_5 Ru0_4 2.677147 1_556
Ir0_5 Ir0_7 2.724910 1_555
Ir0_5 Ir0_7 2.724910 1_545
Ir0_6 Ru0_6 2.675845 1_555
Ir0_6 Ru0_5 2.676101 1_555
Ir0_6 Ru0_3 2.676101 1_655
Ir0_6 Ru0_4 2.676943 1_555
Ir0_6 Ru0_2 2.676943 1_655
Ir0_6 Ru0_7 2.677147 1_555
Ir0_7 Ru0_7 2.675845 1_555
Ir0_7 Ru0_4 2.676101 1_556
Ir0_7 Ru0_2 2.676101 1_656
Ir0_7 Ru0_5 2.676943 1_555
Ir0_7 Ru0_3 2.676943 1_655
Ir0_7 Ru0_6 2.677147 1_556
Ru0_0 Ru0_6 2.724814 1_555
Ru0_0 Ru0_6 2.724814 1_445
Ru0_0 Ru0_2 2.724910 1_555
Ru0_0 Ru0_2 2.724910 1_545
Ru0_0 Ru0_4 2.724912 1_455
Ru0_0 Ru0_4 2.724912 1_555
Ru0_1 Ru0_7 2.724814 1_445
Ru0_1 Ru0_7 2.724814 1_555
Ru0_1 Ru0_3 2.724910 1_555
Ru0_1 Ru0_3 2.724910 1_545
Ru0_1 Ru0_5 2.724912 1_455
Ru0_1 Ru0_5 2.724912 1_555
Ru0_2 Ru0_4 2.724814 1_455
Ru0_2 Ru0_4 2.724814 1_565
Ru0_2 Ru0_6 2.724912 1_455
Ru0_2 Ru0_6 2.724912 1_555
Ru0_3 Ru0_5 2.724814 1_455
Ru0_3 Ru0_5 2.724814 1_565
Ru0_3 Ru0_7 2.724912 1_555
Ru0_3 Ru0_7 2.724912 1_455
Ru0_4 Ru0_6 2.724910 1_555
Ru0_4 Ru0_6 2.724910 1_545
Ru0_5 Ru0_7 2.724910 1_555
Ru0_5 Ru0_7 2.724910 1_545
