# generated using pymatgen
data_TlCdSe2
_symmetry_space_group_name_H-M   'P 1'
_cell_length_a   4.11517964
_cell_length_b   4.11517964
_cell_length_c   7.17806000
_cell_angle_alpha   90.00000000
_cell_angle_beta   90.00000000
_cell_angle_gamma   119.99999414
_symmetry_Int_Tables_number   1
_chemical_formula_structural   TlCdSe2
_chemical_formula_sum   'Tl1 Cd1 Se2'
_cell_volume   105.27259705
_cell_formula_units_Z   1
loop_
 _symmetry_equiv_pos_site_id
 _symmetry_equiv_pos_as_xyz
  1  'x, y, z'
loop_
 _atom_site_type_symbol
 _atom_site_label
 _atom_site_symmetry_multiplicity
 _atom_site_fract_x
 _atom_site_fract_y
 _atom_site_fract_z
 _atom_site_occupancy
  Tl  Tl0  1  0.00000000  0.00000000  0.50000000  1
  Cd  Cd0  1  0.00000000  0.00000000  0.00000000  1
  Se  Se0  1  0.66666700  0.33333300  0.22399100  1
  Se  Se1  1  0.33333300  0.66666700  0.77600900  1
loop_
_geom_bond_atom_site_label_1
_geom_bond_atom_site_label_2
_geom_bond_distance
_geom_bond_site_symmetry_2
Cd0 Se0 2.868794 1_455
Cd0 Se1 2.868794 1_544
Cd0 Se0 2.868797 1_445
Cd0 Se0 2.868797 1_555
Cd0 Se1 2.868797 1_444
Cd0 Se1 2.868797 1_554
Se0 Tl0 3.093554 1_655
Se0 Tl0 3.093557 1_555
Se0 Tl0 3.093557 1_665
Se1 Tl0 3.093554 1_565
Se1 Tl0 3.093557 1_665
Se1 Tl0 3.093557 1_555
