# generated using pymatgen
data_DyYCd2
_symmetry_space_group_name_H-M   'P 1'
_cell_length_a   5.27200781
_cell_length_b   5.27200781
_cell_length_c   5.27200781
_cell_angle_alpha   60.00000000
_cell_angle_beta   60.00000000
_cell_angle_gamma   60.00000000
_symmetry_Int_Tables_number   1
_chemical_formula_structural   DyYCd2
_chemical_formula_sum   'Dy1 Y1 Cd2'
_cell_volume   103.61273461
_cell_formula_units_Z   1
loop_
 _symmetry_equiv_pos_site_id
 _symmetry_equiv_pos_as_xyz
  1  'x, y, z'
loop_
 _atom_site_type_symbol
 _atom_site_label
 _atom_site_symmetry_multiplicity
 _atom_site_fract_x
 _atom_site_fract_y
 _atom_site_fract_z
 _atom_site_occupancy
  Dy  Dy0  1  0.25000000  0.25000000  0.25000000  1
  Y  Y0  1  0.75000000  0.75000000  0.75000000  1
  Cd  Cd0  1  0.50000100  0.50000100  0.50000100  1
  Cd  Cd1  1  0.00000000  0.00000000  0.00000000  1
loop_
_geom_bond_atom_site_label_1
_geom_bond_atom_site_label_2
_geom_bond_distance
_geom_bond_site_symmetry_2
Cd0 Y0 3.228419 1_555
Cd0 Dy0 3.228428 1_556
Cd0 Dy0 3.228428 1_655
Cd0 Dy0 3.228428 1_565
Cd0 Y0 3.228437 1_455
Cd0 Y0 3.228437 1_554
Cd0 Y0 3.228437 1_545
Cd0 Dy0 3.228445 1_555
Cd1 Dy0 3.228432 1_554
Cd1 Y0 3.228432 1_444
Cd1 Y0 3.228432 1_445
Cd1 Dy0 3.228432 1_555
Cd1 Dy0 3.228432 1_545
Cd1 Dy0 3.228432 1_455
Cd1 Y0 3.228432 1_454
Cd1 Y0 3.228432 1_544
