# generated using pymatgen
data_Ca(CdP)2
_symmetry_space_group_name_H-M   'P 1'
_cell_length_a   4.29230708
_cell_length_b   4.29230662
_cell_length_c   7.05544856
_cell_angle_alpha   90.00000000
_cell_angle_beta   90.00000000
_cell_angle_gamma   119.99999565
_symmetry_Int_Tables_number   1
_chemical_formula_structural   Ca(CdP)2
_chemical_formula_sum   'Ca1 Cd2 P2'
_cell_volume   112.57366458
_cell_formula_units_Z   1
loop_
 _symmetry_equiv_pos_site_id
 _symmetry_equiv_pos_as_xyz
  1  'x, y, z'
loop_
 _atom_site_type_symbol
 _atom_site_label
 _atom_site_symmetry_multiplicity
 _atom_site_fract_x
 _atom_site_fract_y
 _atom_site_fract_z
 _atom_site_occupancy
  Ca  Ca0  1  -0.00000000  0.00000000  0.00000000  1
  Cd  Cd0  1  0.33333300  0.66666700  0.63810599  1
  Cd  Cd1  1  0.66666700  0.33333300  0.36189401  1
  P  P0  1  0.66666700  0.33333300  0.75947215  1
  P  P1  1  0.33333300  0.66666700  0.24052785  1
loop_
_geom_bond_atom_site_label_1
_geom_bond_atom_site_label_2
_geom_bond_distance
_geom_bond_site_symmetry_2
Ca0 P0 3.003532 1_454
Ca0 P1 3.003532 1_545
Ca0 P1 3.003535 1_555
Ca0 P0 3.003535 1_444
Ca0 P1 3.003535 1_445
Ca0 P0 3.003535 1_554
Cd0 P0 2.621931 1_565
Cd0 P0 2.621932 1_455
Cd0 P0 2.621938 1_555
Cd0 P1 2.805092 1_555
Cd1 P1 2.621931 1_545
Cd1 P1 2.621932 1_655
Cd1 P1 2.621938 1_555
Cd1 P0 2.805092 1_555
