# generated using pymatgen
data_NaHoSe2
_symmetry_space_group_name_H-M   'P 1'
_cell_length_a   4.09875932
_cell_length_b   4.09876034
_cell_length_c   7.31914715
_cell_angle_alpha   73.73964896
_cell_angle_beta   73.73964279
_cell_angle_gamma   60.00000837
_symmetry_Int_Tables_number   1
_chemical_formula_structural   NaHoSe2
_chemical_formula_sum   'Na1 Ho1 Se2'
_cell_volume   100.76746799
_cell_formula_units_Z   1
loop_
 _symmetry_equiv_pos_site_id
 _symmetry_equiv_pos_as_xyz
  1  'x, y, z'
loop_
 _atom_site_type_symbol
 _atom_site_label
 _atom_site_symmetry_multiplicity
 _atom_site_fract_x
 _atom_site_fract_y
 _atom_site_fract_z
 _atom_site_occupancy
  Na  Na0  1  0.50000000  0.50000000  0.50000000  1
  Ho  Ho0  1  0.00000000  -0.00000000  0.00000000  1
  Se  Se0  1  0.74337713  0.74337713  0.76986861  1
  Se  Se1  1  0.25662287  0.25662287  0.23013139  1
loop_
_geom_bond_atom_site_label_1
_geom_bond_atom_site_label_2
_geom_bond_distance
_geom_bond_site_symmetry_2
Na0 Se0 3.015552 1_455
Na0 Se1 3.015552 1_655
Na0 Se0 3.015552 1_555
Na0 Se1 3.015552 1_555
Na0 Se0 3.015552 1_545
Na0 Se1 3.015552 1_565
Ho0 Se0 2.853148 1_544
Ho0 Se1 2.853148 1_455
Ho0 Se0 2.853148 1_444
Ho0 Se1 2.853148 1_555
Ho0 Se1 2.853149 1_545
Ho0 Se0 2.853149 1_454
