# generated using pymatgen
data_Sm3Cd
_symmetry_space_group_name_H-M   'P 1'
_cell_length_a   7.09224582
_cell_length_b   7.09224582
_cell_length_c   5.55596400
_cell_angle_alpha   90.00000000
_cell_angle_beta   90.00000000
_cell_angle_gamma   119.99999834
_symmetry_Int_Tables_number   1
_chemical_formula_structural   Sm3Cd
_chemical_formula_sum   'Sm6 Cd2'
_cell_volume   242.02354742
_cell_formula_units_Z   2
loop_
 _symmetry_equiv_pos_site_id
 _symmetry_equiv_pos_as_xyz
  1  'x, y, z'
loop_
 _atom_site_type_symbol
 _atom_site_label
 _atom_site_symmetry_multiplicity
 _atom_site_fract_x
 _atom_site_fract_y
 _atom_site_fract_z
 _atom_site_occupancy
  Sm  Sm0  1  0.17331700  0.34663400  0.25000000  1
  Sm  Sm1  1  0.65336600  0.82668300  0.25000000  1
  Sm  Sm2  1  0.17331700  0.82668300  0.25000000  1
  Sm  Sm3  1  0.82668300  0.65336600  0.75000000  1
  Sm  Sm4  1  0.34663400  0.17331700  0.75000000  1
  Sm  Sm5  1  0.82668300  0.17331700  0.75000000  1
  Cd  Cd0  1  0.33333300  0.66666700  0.75000000  1
  Cd  Cd1  1  0.66666700  0.33333300  0.25000000  1
loop_
_geom_bond_atom_site_label_1
_geom_bond_atom_site_label_2
_geom_bond_distance
_geom_bond_site_symmetry_2
Sm0 Sm2 3.404626 1_555
Sm0 Sm1 3.404626 1_555
Sm0 Sm4 3.500005 1_555
Sm0 Sm4 3.500005 1_554
Sm0 Sm5 3.500005 1_454
Sm0 Sm5 3.500005 1_455
Sm0 Sm2 3.687620 1_545
Sm0 Sm1 3.687620 1_445
Sm1 Sm2 3.404626 1_555
Sm1 Sm3 3.500005 1_554
Sm1 Sm3 3.500005 1_555
Sm1 Sm5 3.500005 1_565
Sm1 Sm5 3.500005 1_564
Sm1 Sm2 3.687620 1_655
Sm2 Sm4 3.500005 1_565
Sm2 Sm4 3.500005 1_564
Sm2 Sm3 3.500005 1_455
Sm2 Sm3 3.500005 1_454
Sm3 Sm5 3.404626 1_555
Sm3 Sm4 3.404626 1_555
Sm3 Sm5 3.687620 1_565
Sm3 Sm4 3.687620 1_665
Sm4 Sm5 3.404626 1_555
Sm4 Sm5 3.687620 1_455
Cd0 Sm2 3.403086 1_555
Cd0 Sm2 3.403086 1_556
Cd0 Sm1 3.403089 1_556
Cd0 Sm1 3.403089 1_555
Cd0 Sm0 3.403089 1_555
Cd0 Sm0 3.403089 1_556
Cd0 Sm4 3.547060 1_565
Cd0 Sm3 3.547060 1_455
Cd0 Sm5 3.547064 1_565
Cd0 Sm5 3.547064 1_455
Cd0 Sm3 3.547067 1_555
Cd0 Sm4 3.547067 1_555
Cd1 Sm5 3.403086 1_555
Cd1 Sm5 3.403086 1_554
Cd1 Sm4 3.403089 1_555
Cd1 Sm4 3.403089 1_554
Cd1 Sm3 3.403089 1_554
Cd1 Sm3 3.403089 1_555
Cd1 Sm0 3.547060 1_655
Cd1 Sm1 3.547060 1_545
Cd1 Sm2 3.547064 1_655
Cd1 Sm2 3.547064 1_545
Cd1 Sm1 3.547067 1_555
Cd1 Sm0 3.547067 1_555
