# generated using pymatgen
data_SmTlAu2
_symmetry_space_group_name_H-M   'P 1'
_cell_length_a   5.03994206
_cell_length_b   5.03994426
_cell_length_c   5.03993395
_cell_angle_alpha   59.99991312
_cell_angle_beta   59.99997587
_cell_angle_gamma   60.00001448
_symmetry_Int_Tables_number   1
_chemical_formula_structural   SmTlAu2
_chemical_formula_sum   'Sm1 Tl1 Au2'
_cell_volume   90.52338960
_cell_formula_units_Z   1
loop_
 _symmetry_equiv_pos_site_id
 _symmetry_equiv_pos_as_xyz
  1  'x, y, z'
loop_
 _atom_site_type_symbol
 _atom_site_label
 _atom_site_symmetry_multiplicity
 _atom_site_fract_x
 _atom_site_fract_y
 _atom_site_fract_z
 _atom_site_occupancy
  Sm  Sm0  1  0.25000000  0.25000000  0.25000000  1
  Tl  Tl0  1  0.75000000  0.75000000  0.75000000  1
  Au  Au0  1  0.50000000  0.50000000  0.50000000  1
  Au  Au1  1  0.00000000  -0.00000000  0.00000000  1
loop_
_geom_bond_atom_site_label_1
_geom_bond_atom_site_label_2
_geom_bond_distance
_geom_bond_site_symmetry_2
Au0 Sm0 3.086314 1_556
Au0 Tl0 3.086314 1_554
Au0 Tl0 3.086321 1_555
Au0 Sm0 3.086321 1_555
Au0 Sm0 3.086321 1_565
Au0 Tl0 3.086321 1_545
Au0 Sm0 3.086322 1_655
Au0 Tl0 3.086322 1_455
Au1 Sm0 3.086314 1_554
Au1 Tl0 3.086314 1_445
Au1 Tl0 3.086321 1_444
Au1 Sm0 3.086321 1_555
Au1 Sm0 3.086321 1_545
Au1 Tl0 3.086321 1_454
Au1 Tl0 3.086322 1_544
Au1 Sm0 3.086322 1_455
