# generated using pymatgen
data_Pr2Co12P7
_symmetry_space_group_name_H-M   'P 1'
_cell_length_a   8.99784497
_cell_length_b   8.99806193
_cell_length_c   3.69831053
_cell_angle_alpha   90.00000478
_cell_angle_beta   89.99999812
_cell_angle_gamma   120.00053500
_symmetry_Int_Tables_number   1
_chemical_formula_structural   Pr2Co12P7
_chemical_formula_sum   'Pr2 Co12 P7'
_cell_volume   259.30993040
_cell_formula_units_Z   1
loop_
 _symmetry_equiv_pos_site_id
 _symmetry_equiv_pos_as_xyz
  1  'x, y, z'
loop_
 _atom_site_type_symbol
 _atom_site_label
 _atom_site_symmetry_multiplicity
 _atom_site_fract_x
 _atom_site_fract_y
 _atom_site_fract_z
 _atom_site_occupancy
  Pr  Pr0  1  0.33332538  0.66667405  -0.00000004  1
  Pr  Pr1  1  0.66667622  0.33333630  0.49999997  1
  Co  Co0  1  0.42445378  0.05826832  -0.00000001  1
  Co  Co1  1  0.94168646  0.36615585  -0.00000022  1
  Co  Co2  1  0.63390966  0.57559322  0.00000002  1
  Co  Co3  1  0.38128672  0.42810811  0.50000011  1
  Co  Co4  1  0.57190365  0.95313888  0.50000004  1
  Co  Co5  1  0.04683174  0.61877364  0.49999971  1
  Co  Co6  1  0.15103547  0.27085710  0.00000012  1
  Co  Co7  1  0.72910703  0.88014893  0.00000022  1
  Co  Co8  1  0.11983473  0.84895858  -0.00000012  1
  Co  Co9  1  0.20694740  0.09199143  0.49999987  1
  Co  Co10  1  0.90793054  0.11491102  0.50000021  1
  Co  Co11  1  0.88506597  0.79308448  0.50000000  1
  P  P0  1  0.10529029  0.39686603  0.49999998  1
  P  P1  1  0.60313367  0.70842577  0.50000008  1
  P  P2  1  0.29156200  0.89469628  0.49999996  1
  P  P3  1  0.00000244  0.00000359  0.00000010  1
  P  P4  1  0.40663302  0.30372860  -0.00000001  1
  P  P5  1  0.69628931  0.10290096  0.00000003  1
  P  P6  1  0.89709353  0.59337886  -0.00000003  1
loop_
_geom_bond_atom_site_label_1
_geom_bond_atom_site_label_2
_geom_bond_distance
_geom_bond_site_symmetry_2
Co0 P5 2.271907 1_555
Co0 P2 2.292488 1_545
Co0 P2 2.292488 1_544
Co0 P4 2.293051 1_555
Co0 Pr1 2.983463 1_555
Co0 Pr1 2.983463 1_554
Co0 Pr0 3.193551 1_545
Co1 P6 2.271920 1_555
Co1 P0 2.292590 1_654
Co1 P0 2.292591 1_655
Co1 P5 2.292626 1_555
Co1 Pr1 2.983114 1_554
Co1 Pr1 2.983115 1_555
Co1 Pr0 3.193883 1_655
Co2 P4 2.272337 1_555
Co2 P6 2.292262 1_555
Co2 P1 2.292517 1_554
Co2 P1 2.292517 1_555
Co2 Pr1 2.983405 1_554
Co2 Pr1 2.983405 1_555
Co2 Pr0 3.194243 1_555
Co3 P4 2.231408 1_556
Co3 P4 2.231409 1_555
Co3 P1 2.304708 1_555
Co3 P0 2.355427 1_555
Co3 Pr0 3.023247 1_556
Co3 Pr0 3.023248 1_555
Co3 Pr1 3.084007 1_555
Co4 P5 2.231525 1_566
Co4 P5 2.231525 1_565
Co4 P2 2.304970 1_555
Co4 P1 2.355054 1_555
Co4 Pr0 3.022972 1_556
Co4 Pr0 3.022973 1_555
Co4 Pr1 3.084373 1_565
Co5 P6 2.231364 1_455
Co5 P6 2.231366 1_456
Co5 P0 2.305199 1_555
Co5 P2 2.354971 1_555
Co5 Pr0 3.023117 1_555
Co5 Pr0 3.023118 1_556
Co5 Pr1 3.084065 1_455
Co6 P3 2.115291 1_555
Co6 P4 2.167126 1_555
Co6 P0 2.311078 1_555
Co6 P0 2.311079 1_554
Co6 Pr0 3.087610 1_555
Co7 P3 2.115561 1_665
Co7 P5 2.167124 1_565
Co7 P1 2.310903 1_555
Co7 P1 2.310903 1_554
Co7 Pr0 3.087244 1_555
Co8 P3 2.115475 1_565
Co8 P6 2.167105 1_455
Co8 P2 2.310928 1_554
Co8 P2 2.310928 1_555
Co8 Pr0 3.087259 1_555
Co9 P2 2.254523 1_545
Co9 P3 2.455701 1_555
Co9 P3 2.455702 1_556
Co9 P4 2.618068 1_555
Co9 P4 2.618069 1_556
Co10 P0 2.254935 1_655
Co10 P3 2.455876 1_656
Co10 P3 2.455876 1_655
Co10 P5 2.617569 1_556
Co10 P5 2.617570 1_555
Co11 P1 2.254571 1_555
Co11 P3 2.455591 1_665
Co11 P3 2.455591 1_666
Co11 P6 2.618137 1_555
Co11 P6 2.618137 1_556
P0 Pr0 2.922658 1_556
P0 Pr0 2.922658 1_555
P1 Pr0 2.922695 1_556
P1 Pr0 2.922695 1_555
P2 Pr0 2.922554 1_555
P2 Pr0 2.922554 1_556
P4 Pr1 2.888214 1_555
P4 Pr1 2.888214 1_554
P5 Pr1 2.888278 1_555
P5 Pr1 2.888278 1_554
P6 Pr1 2.888176 1_554
P6 Pr1 2.888176 1_555
