# generated using pymatgen
data_Li3Ca
_symmetry_space_group_name_H-M   'P 1'
_cell_length_a   5.89894324
_cell_length_b   5.89894324
_cell_length_c   5.89894324
_cell_angle_alpha   133.41812654
_cell_angle_beta   133.41812654
_cell_angle_gamma   67.99826420
_symmetry_Int_Tables_number   1
_chemical_formula_structural   Li3Ca
_chemical_formula_sum   'Li3 Ca1'
_cell_volume   106.42290128
_cell_formula_units_Z   1
loop_
 _symmetry_equiv_pos_site_id
 _symmetry_equiv_pos_as_xyz
  1  'x, y, z'
loop_
 _atom_site_type_symbol
 _atom_site_label
 _atom_site_symmetry_multiplicity
 _atom_site_fract_x
 _atom_site_fract_y
 _atom_site_fract_z
 _atom_site_occupancy
  Li  Li0  1  0.75000200  0.25000000  0.50000100  1
  Li  Li1  1  0.25000000  0.75000200  0.50000100  1
  Li  Li2  1  0.49999900  0.49999900  0.00000000  1
  Ca  Ca0  1  0.00000000  0.00000000  0.00000000  1
loop_
_geom_bond_atom_site_label_1
_geom_bond_atom_site_label_2
_geom_bond_distance
_geom_bond_site_symmetry_2
Li0 Li1 3.298560 1_645
Li0 Li1 3.298573 1_544
Li0 Li1 3.298573 1_656
Li0 Li1 3.298586 1_555
Ca0 Li2 3.298573 1_455
Ca0 Li2 3.298573 1_444
Ca0 Li2 3.298573 1_556
Ca0 Li2 3.298573 1_545
Ca0 Li1 3.379274 1_545
Ca0 Li0 3.379274 1_455
Ca0 Li1 3.379277 1_444
Ca0 Li0 3.379277 1_444
Ca0 Li1 3.379278 1_544
Ca0 Li0 3.379278 1_454
Ca0 Li0 3.379288 1_555
Ca0 Li1 3.379288 1_555
