# generated using pymatgen
data_Mg5Sc
_symmetry_space_group_name_H-M   'P 1'
_cell_length_a   12.30286294
_cell_length_b   12.30286294
_cell_length_c   15.21941953
_cell_angle_alpha   75.43523378
_cell_angle_beta   75.43523378
_cell_angle_gamma   29.72815506
_symmetry_Int_Tables_number   1
_chemical_formula_structural   Mg5Sc
_chemical_formula_sum   'Mg40 Sc8'
_cell_volume   1102.98873994
_cell_formula_units_Z   8
loop_
 _symmetry_equiv_pos_site_id
 _symmetry_equiv_pos_as_xyz
  1  'x, y, z'
loop_
 _atom_site_type_symbol
 _atom_site_label
 _atom_site_symmetry_multiplicity
 _atom_site_fract_x
 _atom_site_fract_y
 _atom_site_fract_z
 _atom_site_occupancy
  Mg  Mg0_0  1  0.49951911  0.49951911  0.00005346  1
  Mg  Mg0_1  1  0.49951911  0.49951911  0.50005345  1
  Mg  Mg0_2  1  0.49951911  0.99951911  0.00005346  1
  Mg  Mg0_3  1  0.49951911  0.99951910  0.50005345  1
  Mg  Mg0_4  1  0.99951911  0.49951911  0.00005346  1
  Mg  Mg0_5  1  0.99951910  0.49951911  0.50005345  1
  Mg  Mg0_6  1  0.99951911  0.99951911  0.00005345  1
  Mg  Mg0_7  1  0.99951911  0.99951911  0.50005345  1
  Mg  Mg1_0  1  0.13868820  0.13868820  0.47266580  1
  Mg  Mg1_1  1  0.13868819  0.13868820  0.97266580  1
  Mg  Mg1_2  1  0.13868820  0.63868820  0.47266580  1
  Mg  Mg1_3  1  0.13868820  0.63868820  0.97266580  1
  Mg  Mg1_4  1  0.63868819  0.13868820  0.47266580  1
  Mg  Mg1_5  1  0.63868819  0.13868820  0.97266580  1
  Mg  Mg1_6  1  0.63868820  0.63868820  0.47266580  1
  Mg  Mg1_7  1  0.63868820  0.63868820  0.97266580  1
  Mg  Mg2_0  1  0.33312480  0.33312480  0.33146067  1
  Mg  Mg2_1  1  0.33312480  0.33312480  0.83146067  1
  Mg  Mg2_2  1  0.33312480  0.83312480  0.33146067  1
  Mg  Mg2_3  1  0.33312480  0.83312480  0.83146067  1
  Mg  Mg2_4  1  0.83312480  0.33312480  0.33146067  1
  Mg  Mg2_5  1  0.83312480  0.33312480  0.83146067  1
  Mg  Mg2_6  1  0.83312480  0.83312480  0.33146067  1
  Mg  Mg2_7  1  0.83312479  0.83312479  0.83146067  1
  Mg  Mg3_0  1  0.47117351  0.47117350  0.30783014  1
  Mg  Mg3_1  1  0.47117351  0.47117350  0.80783013  1
  Mg  Mg3_2  1  0.47117351  0.97117351  0.30783014  1
  Mg  Mg3_3  1  0.47117351  0.97117351  0.80783013  1
  Mg  Mg3_4  1  0.97117351  0.47117351  0.30783014  1
  Mg  Mg3_5  1  0.97117350  0.47117351  0.80783013  1
  Mg  Mg3_6  1  0.97117351  0.97117350  0.30783014  1
  Mg  Mg3_7  1  0.97117350  0.97117350  0.80783013  1
  Mg  Mg4_0  1  0.16806419  0.16806419  0.16704824  1
  Mg  Mg4_1  1  0.16806419  0.16806419  0.66704824  1
  Mg  Mg4_2  1  0.16806419  0.66806419  0.16704824  1
  Mg  Mg4_3  1  0.16806419  0.66806418  0.66704824  1
  Mg  Mg4_4  1  0.66806418  0.16806419  0.16704824  1
  Mg  Mg4_5  1  0.66806418  0.16806419  0.66704824  1
  Mg  Mg4_6  1  0.66806418  0.66806418  0.16704824  1
  Mg  Mg4_7  1  0.66806419  0.66806419  0.66704824  1
  Sc  Sc0_0  1  0.30609672  0.30609672  0.13760768  1
  Sc  Sc0_1  1  0.30609672  0.30609672  0.63760768  1
  Sc  Sc0_2  1  0.30609672  0.80609672  0.13760768  1
  Sc  Sc0_3  1  0.30609672  0.80609672  0.63760768  1
  Sc  Sc0_4  1  0.80609672  0.30609672  0.13760768  1
  Sc  Sc0_5  1  0.80609671  0.30609671  0.63760768  1
  Sc  Sc0_6  1  0.80609672  0.80609672  0.13760769  1
  Sc  Sc0_7  1  0.80609672  0.80609672  0.63760768  1
loop_
_geom_bond_atom_site_label_1
_geom_bond_atom_site_label_2
_geom_bond_distance
_geom_bond_site_symmetry_2
Mg0_0 Mg0_6 3.156015 1_545
Mg0_0 Mg0_6 3.156015 1_455
Mg0_0 Mg3_1 3.168501 1_554
Mg0_0 Mg4_2 3.184394 1_555
Mg0_0 Mg4_4 3.184394 1_555
Mg0_0 Sc0_4 3.185771 1_555
Mg0_0 Sc0_2 3.185771 1_555
Mg0_0 Mg1_3 3.191097 1_554
Mg0_0 Mg1_5 3.191097 1_554
Mg0_0 Mg2_5 3.220646 1_554
Mg0_0 Mg2_3 3.220646 1_554
Mg0_0 Mg1_7 3.226518 1_554
Mg0_1 Mg0_7 3.156015 1_455
Mg0_1 Mg0_7 3.156015 1_545
Mg0_1 Mg3_0 3.168501 1_555
Mg0_1 Mg4_5 3.184394 1_555
Mg0_1 Mg4_3 3.184394 1_555
Mg0_1 Sc0_5 3.185771 1_555
Mg0_1 Sc0_3 3.185771 1_555
Mg0_1 Mg1_2 3.191097 1_555
Mg0_1 Mg1_4 3.191097 1_555
Mg0_1 Mg2_4 3.220646 1_555
Mg0_1 Mg2_2 3.220646 1_555
Mg0_1 Mg1_6 3.226518 1_555
Mg0_2 Mg0_4 3.156015 1_555
Mg0_2 Mg0_4 3.156015 1_465
Mg0_2 Mg3_3 3.168501 1_554
Mg0_2 Mg4_0 3.184394 1_565
Mg0_2 Mg4_6 3.184394 1_555
Mg0_2 Sc0_0 3.185771 1_565
Mg0_2 Sc0_6 3.185771 1_555
Mg0_2 Mg1_7 3.191097 1_554
Mg0_2 Mg1_1 3.191097 1_564
Mg0_2 Mg2_7 3.220646 1_554
Mg0_2 Mg2_1 3.220646 1_564
Mg0_2 Mg1_5 3.226518 1_564
Mg0_3 Mg0_5 3.156015 1_555
Mg0_3 Mg0_5 3.156015 1_465
Mg0_3 Mg3_2 3.168501 1_555
Mg0_3 Mg4_7 3.184394 1_555
Mg0_3 Mg4_1 3.184394 1_565
Mg0_3 Sc0_7 3.185771 1_555
Mg0_3 Sc0_1 3.185771 1_565
Mg0_3 Mg1_6 3.191097 1_555
Mg0_3 Mg1_0 3.191097 1_565
Mg0_3 Mg2_0 3.220646 1_565
Mg0_3 Mg2_6 3.220646 1_555
Mg0_3 Mg1_4 3.226518 1_565
Mg0_4 Mg3_5 3.168501 1_554
Mg0_4 Mg4_0 3.184394 1_655
Mg0_4 Mg4_6 3.184394 1_555
Mg0_4 Sc0_0 3.185771 1_655
Mg0_4 Sc0_6 3.185771 1_555
Mg0_4 Mg1_7 3.191097 1_554
Mg0_4 Mg1_1 3.191097 1_654
Mg0_4 Mg2_7 3.220646 1_554
Mg0_4 Mg2_1 3.220646 1_654
Mg0_4 Mg1_3 3.226518 1_654
Mg0_5 Mg3_4 3.168501 1_555
Mg0_5 Mg4_7 3.184394 1_555
Mg0_5 Mg4_1 3.184394 1_655
Mg0_5 Sc0_7 3.185771 1_555
Mg0_5 Sc0_1 3.185771 1_655
Mg0_5 Mg1_6 3.191097 1_555
Mg0_5 Mg1_0 3.191097 1_655
Mg0_5 Mg2_6 3.220646 1_555
Mg0_5 Mg2_0 3.220646 1_655
Mg0_5 Mg1_2 3.226518 1_655
Mg0_6 Mg3_7 3.168501 1_554
Mg0_6 Mg4_2 3.184394 1_655
Mg0_6 Mg4_4 3.184394 1_565
Mg0_6 Sc0_4 3.185771 1_565
Mg0_6 Sc0_2 3.185771 1_655
Mg0_6 Mg1_3 3.191097 1_654
Mg0_6 Mg1_5 3.191097 1_564
Mg0_6 Mg2_5 3.220646 1_564
Mg0_6 Mg2_3 3.220646 1_654
Mg0_6 Mg1_1 3.226518 1_664
Mg0_7 Mg3_6 3.168501 1_555
Mg0_7 Mg4_3 3.184394 1_655
Mg0_7 Mg4_5 3.184394 1_565
Mg0_7 Sc0_5 3.185771 1_565
Mg0_7 Sc0_3 3.185771 1_655
Mg0_7 Mg1_2 3.191097 1_655
Mg0_7 Mg1_4 3.191097 1_565
Mg0_7 Mg2_4 3.220646 1_565
Mg0_7 Mg2_2 3.220646 1_655
Mg0_7 Mg1_0 3.226518 1_665
Mg1_0 Mg1_6 3.156015 1_455
Mg1_0 Mg1_6 3.156015 1_545
Mg1_0 Mg3_4 3.173497 1_455
Mg1_0 Mg3_2 3.173497 1_545
Mg1_0 Sc0_3 3.175557 1_545
Mg1_0 Sc0_5 3.175557 1_455
Mg1_0 Mg4_1 3.211796 1_555
Mg1_0 Mg2_2 3.214417 1_545
Mg1_0 Mg2_4 3.214417 1_455
Mg1_1 Mg1_7 3.156015 1_455
Mg1_1 Mg1_7 3.156015 1_545
Mg1_1 Mg3_5 3.173497 1_455
Mg1_1 Mg3_3 3.173497 1_545
Mg1_1 Sc0_2 3.175557 1_546
Mg1_1 Sc0_4 3.175557 1_456
Mg1_1 Mg4_0 3.211796 1_556
Mg1_1 Mg2_3 3.214417 1_545
Mg1_1 Mg2_5 3.214417 1_455
Mg1_2 Mg1_4 3.156015 1_555
Mg1_2 Mg1_4 3.156015 1_465
Mg1_2 Mg3_6 3.173497 1_455
Mg1_2 Mg3_0 3.173497 1_555
Mg1_2 Sc0_7 3.175557 1_455
Mg1_2 Sc0_1 3.175557 1_555
Mg1_2 Mg4_3 3.211796 1_555
Mg1_2 Mg2_0 3.214417 1_555
Mg1_2 Mg2_6 3.214417 1_455
Mg1_3 Mg1_5 3.156015 1_555
Mg1_3 Mg1_5 3.156015 1_465
Mg1_3 Mg3_7 3.173497 1_455
Mg1_3 Mg3_1 3.173497 1_555
Mg1_3 Sc0_0 3.175557 1_556
Mg1_3 Sc0_6 3.175557 1_456
Mg1_3 Mg4_2 3.211796 1_556
Mg1_3 Mg2_1 3.214417 1_555
Mg1_3 Mg2_7 3.214417 1_455
Mg1_4 Mg3_0 3.173497 1_555
Mg1_4 Mg3_6 3.173497 1_545
Mg1_4 Sc0_1 3.175557 1_555
Mg1_4 Sc0_7 3.175557 1_545
Mg1_4 Mg4_5 3.211796 1_555
Mg1_4 Mg2_0 3.214417 1_555
Mg1_4 Mg2_6 3.214417 1_545
Mg1_5 Mg3_1 3.173497 1_555
Mg1_5 Mg3_7 3.173497 1_545
Mg1_5 Sc0_0 3.175557 1_556
Mg1_5 Sc0_6 3.175557 1_546
Mg1_5 Mg4_4 3.211796 1_556
Mg1_5 Mg2_1 3.214417 1_555
Mg1_5 Mg2_7 3.214417 1_545
Mg1_6 Mg3_4 3.173497 1_555
Mg1_6 Mg3_2 3.173497 1_555
Mg1_6 Sc0_3 3.175557 1_555
Mg1_6 Sc0_5 3.175557 1_555
Mg1_6 Mg4_7 3.211796 1_555
Mg1_6 Mg2_2 3.214417 1_555
Mg1_6 Mg2_4 3.214417 1_555
Mg1_7 Mg3_5 3.173497 1_555
Mg1_7 Mg3_3 3.173497 1_555
Mg1_7 Sc0_2 3.175557 1_556
Mg1_7 Sc0_4 3.175557 1_556
Mg1_7 Mg4_6 3.211796 1_556
Mg1_7 Mg2_3 3.214417 1_555
Mg1_7 Mg2_5 3.214417 1_555
Mg2_0 Mg2_6 3.156015 1_545
Mg2_0 Mg2_6 3.156015 1_455
Mg2_0 Sc0_0 3.178752 1_555
Mg2_0 Mg4_4 3.194022 1_555
Mg2_0 Mg4_2 3.194022 1_555
Mg2_0 Mg3_2 3.194751 1_545
Mg2_0 Mg3_4 3.194751 1_455
Mg2_0 Mg3_0 3.208398 1_555
Mg2_1 Mg2_7 3.156015 1_455
Mg2_1 Mg2_7 3.156015 1_545
Mg2_1 Sc0_1 3.178752 1_555
Mg2_1 Mg4_3 3.194022 1_555
Mg2_1 Mg4_5 3.194022 1_555
Mg2_1 Mg3_3 3.194751 1_545
Mg2_1 Mg3_5 3.194751 1_455
Mg2_1 Mg3_1 3.208398 1_555
Mg2_2 Mg2_4 3.156015 1_555
Mg2_2 Mg2_4 3.156015 1_465
Mg2_2 Sc0_2 3.178752 1_555
Mg2_2 Mg4_6 3.194022 1_555
Mg2_2 Mg4_0 3.194022 1_565
Mg2_2 Mg3_0 3.194751 1_555
Mg2_2 Mg3_6 3.194751 1_455
Mg2_2 Mg3_2 3.208398 1_555
Mg2_3 Mg2_5 3.156015 1_555
Mg2_3 Mg2_5 3.156015 1_465
Mg2_3 Sc0_3 3.178752 1_555
Mg2_3 Mg4_1 3.194022 1_565
Mg2_3 Mg4_7 3.194022 1_555
Mg2_3 Mg3_1 3.194751 1_555
Mg2_3 Mg3_7 3.194751 1_455
Mg2_3 Mg3_3 3.208398 1_555
Mg2_4 Sc0_4 3.178752 1_555
Mg2_4 Mg4_6 3.194022 1_555
Mg2_4 Mg4_0 3.194022 1_655
Mg2_4 Mg3_0 3.194751 1_555
Mg2_4 Mg3_6 3.194751 1_545
Mg2_4 Mg3_4 3.208398 1_555
Mg2_5 Sc0_5 3.178752 1_555
Mg2_5 Mg4_1 3.194022 1_655
Mg2_5 Mg4_7 3.194022 1_555
Mg2_5 Mg3_1 3.194751 1_555
Mg2_5 Mg3_7 3.194751 1_545
Mg2_5 Mg3_5 3.208398 1_555
Mg2_6 Sc0_6 3.178752 1_555
Mg2_6 Mg4_4 3.194022 1_565
Mg2_6 Mg4_2 3.194022 1_655
Mg2_6 Mg3_2 3.194751 1_555
Mg2_6 Mg3_4 3.194751 1_555
Mg2_6 Mg3_6 3.208398 1_555
Mg2_7 Sc0_7 3.178752 1_555
Mg2_7 Mg4_3 3.194022 1_655
Mg2_7 Mg4_5 3.194022 1_565
Mg2_7 Mg3_3 3.194751 1_555
Mg2_7 Mg3_5 3.194751 1_555
Mg2_7 Mg3_7 3.208398 1_555
Mg3_0 Mg3_6 3.156015 1_455
Mg3_0 Mg3_6 3.156015 1_545
Mg3_0 Mg4_2 3.175608 1_555
Mg3_0 Mg4_4 3.175608 1_555
Mg3_0 Sc0_4 3.249329 1_555
Mg3_0 Sc0_2 3.249329 1_555
Mg3_1 Mg3_7 3.156015 1_545
Mg3_1 Mg3_7 3.156015 1_455
Mg3_1 Mg4_3 3.175608 1_555
Mg3_1 Mg4_5 3.175608 1_555
Mg3_1 Sc0_5 3.249329 1_555
Mg3_1 Sc0_3 3.249329 1_555
Mg3_2 Mg3_4 3.156015 1_555
Mg3_2 Mg3_4 3.156015 1_465
Mg3_2 Mg4_0 3.175608 1_565
Mg3_2 Mg4_6 3.175608 1_555
Mg3_2 Sc0_0 3.249329 1_565
Mg3_2 Sc0_6 3.249329 1_555
Mg3_3 Mg3_5 3.156015 1_555
Mg3_3 Mg3_5 3.156015 1_465
Mg3_3 Mg4_7 3.175608 1_555
Mg3_3 Mg4_1 3.175608 1_565
Mg3_3 Sc0_1 3.249329 1_565
Mg3_3 Sc0_7 3.249329 1_555
Mg3_4 Mg4_0 3.175608 1_655
Mg3_4 Mg4_6 3.175608 1_555
Mg3_4 Sc0_0 3.249329 1_655
Mg3_4 Sc0_6 3.249329 1_555
Mg3_5 Mg4_7 3.175608 1_555
Mg3_5 Mg4_1 3.175608 1_655
Mg3_5 Sc0_1 3.249329 1_655
Mg3_5 Sc0_7 3.249329 1_555
Mg3_6 Mg4_2 3.175608 1_655
Mg3_6 Mg4_4 3.175608 1_565
Mg3_6 Sc0_2 3.249329 1_655
Mg3_6 Sc0_4 3.249329 1_565
Mg3_7 Mg4_3 3.175608 1_655
Mg3_7 Mg4_5 3.175608 1_565
Mg3_7 Sc0_5 3.249329 1_565
Mg3_7 Sc0_3 3.249329 1_655
Mg4_0 Mg4_6 3.156015 1_455
Mg4_0 Mg4_6 3.156015 1_545
Mg4_0 Sc0_0 3.195581 1_555
Mg4_0 Sc0_2 3.225291 1_545
Mg4_0 Sc0_4 3.225291 1_455
Mg4_1 Mg4_7 3.156015 1_455
Mg4_1 Mg4_7 3.156015 1_545
Mg4_1 Sc0_1 3.195581 1_555
Mg4_1 Sc0_3 3.225291 1_545
Mg4_1 Sc0_5 3.225291 1_455
Mg4_2 Mg4_4 3.156015 1_555
Mg4_2 Mg4_4 3.156015 1_465
Mg4_2 Sc0_2 3.195581 1_555
Mg4_2 Sc0_6 3.225291 1_455
Mg4_2 Sc0_0 3.225291 1_555
Mg4_3 Mg4_5 3.156015 1_555
Mg4_3 Mg4_5 3.156015 1_465
Mg4_3 Sc0_3 3.195581 1_555
Mg4_3 Sc0_1 3.225291 1_555
Mg4_3 Sc0_7 3.225291 1_455
Mg4_4 Sc0_4 3.195581 1_555
Mg4_4 Sc0_6 3.225291 1_545
Mg4_4 Sc0_0 3.225291 1_555
Mg4_5 Sc0_5 3.195581 1_555
Mg4_5 Sc0_1 3.225291 1_555
Mg4_5 Sc0_7 3.225291 1_545
Mg4_6 Sc0_6 3.195581 1_555
Mg4_6 Sc0_2 3.225291 1_555
Mg4_6 Sc0_4 3.225291 1_555
Mg4_7 Sc0_7 3.195581 1_555
Mg4_7 Sc0_3 3.225291 1_555
Mg4_7 Sc0_5 3.225291 1_555
Sc0_0 Sc0_6 3.156015 1_545
Sc0_0 Sc0_6 3.156015 1_455
Sc0_1 Sc0_7 3.156015 1_455
Sc0_1 Sc0_7 3.156015 1_545
Sc0_2 Sc0_4 3.156015 1_555
Sc0_2 Sc0_4 3.156015 1_465
Sc0_3 Sc0_5 3.156015 1_555
Sc0_3 Sc0_5 3.156015 1_465
