# generated using pymatgen
data_CaTcN3
_symmetry_space_group_name_H-M   'P 1'
_cell_length_a   7.39894041
_cell_length_b   7.39894041
_cell_length_c   6.23939658
_cell_angle_alpha   74.76614251
_cell_angle_beta   74.76614251
_cell_angle_gamma   84.13079003
_symmetry_Int_Tables_number   1
_chemical_formula_structural   CaTcN3
_chemical_formula_sum   'Ca4 Tc4 N12'
_cell_volume   317.78610761
_cell_formula_units_Z   4
loop_
 _symmetry_equiv_pos_site_id
 _symmetry_equiv_pos_as_xyz
  1  'x, y, z'
loop_
 _atom_site_type_symbol
 _atom_site_label
 _atom_site_symmetry_multiplicity
 _atom_site_fract_x
 _atom_site_fract_y
 _atom_site_fract_z
 _atom_site_occupancy
  Ca  Ca0  1  0.30422000  0.69578000  0.25000000  1
  Ca  Ca1  1  0.08616000  0.91384000  0.75000000  1
  Ca  Ca2  1  0.91384000  0.08616000  0.25000000  1
  Ca  Ca3  1  0.69578000  0.30422000  0.75000000  1
  Tc  Tc0  1  0.79987000  0.62189000  0.26961000  1
  Tc  Tc1  1  0.62189000  0.79987000  0.76961000  1
  Tc  Tc2  1  0.37811000  0.20013000  0.23039000  1
  Tc  Tc3  1  0.20013000  0.37811000  0.73039000  1
  N  N0  1  0.65358000  0.64828000  0.55533000  1
  N  N1  1  0.22772000  0.00754000  0.33799000  1
  N  N2  1  0.64828000  0.65358000  0.05533000  1
  N  N3  1  0.35172000  0.34642000  0.94467000  1
  N  N4  1  0.61068000  0.12156000  0.17025000  1
  N  N5  1  0.00754000  0.22772000  0.83799000  1
  N  N6  1  0.34642000  0.35172000  0.44467000  1
  N  N7  1  0.99246000  0.77228000  0.16201000  1
  N  N8  1  0.77228000  0.99246000  0.66201000  1
  N  N9  1  0.12156000  0.61068000  0.67025000  1
  N  N10  1  0.38932000  0.87844000  0.82975000  1
  N  N11  1  0.87844000  0.38932000  0.32975000  1
loop_
_geom_bond_atom_site_label_1
_geom_bond_atom_site_label_2
_geom_bond_distance
_geom_bond_site_symmetry_2
Ca0 N7 2.485519 1_455
Ca0 N1 2.485519 1_565
Ca0 N2 2.542656 1_555
Ca0 N6 2.542656 1_555
Ca0 N9 2.557835 1_555
Ca0 N10 2.557835 1_554
Ca1 N9 2.396963 1_555
Ca1 N10 2.396963 1_555
Ca1 N1 2.446035 1_565
Ca1 N7 2.446035 1_456
Ca1 N5 2.501829 1_565
Ca1 N8 2.501829 1_455
Ca2 N11 2.396963 1_555
Ca2 N4 2.396963 1_555
Ca2 N8 2.446035 1_545
Ca2 N5 2.446035 1_654
Ca2 N1 2.501829 1_655
Ca2 N7 2.501829 1_545
Ca3 N8 2.485519 1_545
Ca3 N5 2.485519 1_655
Ca3 N3 2.542656 1_555
Ca3 N0 2.542656 1_555
Ca3 N4 2.557835 1_556
Ca3 N11 2.557835 1_555
N0 Tc0 1.874420 1_555
N0 Tc1 1.915726 1_555
N1 Tc2 1.774360 1_555
N2 Tc1 1.874420 1_554
N2 Tc0 1.915726 1_555
N3 Tc2 1.874420 1_556
N3 Tc3 1.915726 1_555
N4 Tc2 1.735088 1_555
N5 Tc3 1.774360 1_555
N6 Tc3 1.874420 1_555
N6 Tc2 1.915726 1_555
N7 Tc0 1.774360 1_555
N8 Tc1 1.774360 1_555
N9 Tc3 1.735088 1_555
N10 Tc1 1.735088 1_555
N11 Tc0 1.735088 1_555
