# generated using pymatgen
data_NdY3
_symmetry_space_group_name_H-M   'P 1'
_cell_length_a   5.13171666
_cell_length_b   5.13171014
_cell_length_c   5.13172534
_cell_angle_alpha   90.00000000
_cell_angle_beta   90.00000000
_cell_angle_gamma   90.00000000
_symmetry_Int_Tables_number   1
_chemical_formula_structural   NdY3
_chemical_formula_sum   'Nd1 Y3'
_cell_volume   135.14133075
_cell_formula_units_Z   1
loop_
 _symmetry_equiv_pos_site_id
 _symmetry_equiv_pos_as_xyz
  1  'x, y, z'
loop_
 _atom_site_type_symbol
 _atom_site_label
 _atom_site_symmetry_multiplicity
 _atom_site_fract_x
 _atom_site_fract_y
 _atom_site_fract_z
 _atom_site_occupancy
  Nd  Nd0  1  -0.00000000  0.00000000  -0.00000000  1
  Y  Y0  1  0.00000000  0.49999900  0.49999900  1
  Y  Y1  1  0.49999900  0.00000000  0.49999900  1
  Y  Y2  1  0.49999900  0.49999900  -0.00000000  1
loop_
_geom_bond_atom_site_label_1
_geom_bond_atom_site_label_2
_geom_bond_distance
_geom_bond_site_symmetry_2
Nd0 Y2 3.628662 1_555
Nd0 Y0 3.628665 1_555
Nd0 Y1 3.628667 1_555
Nd0 Y2 3.628669 1_545
Nd0 Y2 3.628669 1_455
Nd0 Y0 3.628672 1_545
Nd0 Y0 3.628672 1_554
Nd0 Y1 3.628675 1_455
Nd0 Y1 3.628675 1_554
Nd0 Y2 3.628677 1_445
Nd0 Y0 3.628680 1_544
Nd0 Y1 3.628682 1_454
Y0 Y1 3.628662 1_555
Y0 Y2 3.628667 1_555
Y0 Y1 3.628669 1_565
Y0 Y1 3.628669 1_455
Y0 Y2 3.628675 1_455
Y0 Y2 3.628675 1_556
Y0 Y1 3.628677 1_465
Y0 Y2 3.628682 1_456
Y1 Y2 3.628665 1_555
Y1 Y2 3.628672 1_545
Y1 Y2 3.628672 1_556
Y1 Y2 3.628680 1_546
