# generated using pymatgen
data_MnAgO2
_symmetry_space_group_name_H-M   'P 1'
_cell_length_a   3.12223665
_cell_length_b   3.12224427
_cell_length_c   12.60082141
_cell_angle_alpha   82.88358194
_cell_angle_beta   89.99982183
_cell_angle_gamma   119.99974362
_symmetry_Int_Tables_number   1
_chemical_formula_structural   MnAgO2
_chemical_formula_sum   'Mn2 Ag2 O4'
_cell_volume   105.28669786
_cell_formula_units_Z   2
loop_
 _symmetry_equiv_pos_site_id
 _symmetry_equiv_pos_as_xyz
  1  'x, y, z'
loop_
 _atom_site_type_symbol
 _atom_site_label
 _atom_site_symmetry_multiplicity
 _atom_site_fract_x
 _atom_site_fract_y
 _atom_site_fract_z
 _atom_site_occupancy
  Mn  Mn0  1  0.74999900  0.50000000  0.75000000  1
  Mn  Mn1  1  0.25000300  0.50000000  0.25000100  1
  Ag  Ag0  1  0.00000900  0.00001900  0.99997200  1
  Ag  Ag1  1  0.49999000  0.99998100  0.50002800  1
  O  O0  1  0.94350600  0.88702400  0.16945900  1
  O  O1  1  0.44349400  0.88697300  0.66953900  1
  O  O2  1  0.55649300  0.11297600  0.33054100  1
  O  O3  1  0.05650600  0.11302700  0.83046000  1
loop_
_geom_bond_atom_site_label_1
_geom_bond_atom_site_label_2
_geom_bond_distance
_geom_bond_site_symmetry_2
Mn0 O3 2.063077 1_655
Mn0 O1 2.063077 1_555
Mn0 O3 2.063094 1_665
Mn0 O1 2.063101 1_545
Mn0 O3 2.063108 1_555
Mn0 O1 2.063118 1_655
Mn1 O0 2.063564 1_555
Mn1 O2 2.063570 1_455
Mn1 O2 2.063580 1_555
Mn1 O2 2.063584 1_565
Mn1 O0 2.063600 1_445
Mn1 O0 2.063607 1_455
Ag0 O0 2.113710 1_446
Ag0 O3 2.114022 1_555
Ag1 O2 2.113710 1_565
Ag1 O1 2.114010 1_555
