# generated using pymatgen
data_Na3Al
_symmetry_space_group_name_H-M   'P 1'
_cell_length_a   5.42068624
_cell_length_b   5.42068624
_cell_length_c   5.42068624
_cell_angle_alpha   60.00000000
_cell_angle_beta   60.00000000
_cell_angle_gamma   60.00000000
_symmetry_Int_Tables_number   1
_chemical_formula_structural   Na3Al
_chemical_formula_sum   'Na3 Al1'
_cell_volume   112.62837368
_cell_formula_units_Z   1
loop_
 _symmetry_equiv_pos_site_id
 _symmetry_equiv_pos_as_xyz
  1  'x, y, z'
loop_
 _atom_site_type_symbol
 _atom_site_label
 _atom_site_symmetry_multiplicity
 _atom_site_fract_x
 _atom_site_fract_y
 _atom_site_fract_z
 _atom_site_occupancy
  Na  Na0  1  0.25000000  0.25000000  0.25000000  1
  Na  Na1  1  0.75000000  0.75000000  0.75000000  1
  Na  Na2  1  0.50000000  0.50000000  0.50000000  1
  Al  Al0  1  0.00000000  0.00000000  0.00000000  1
loop_
_geom_bond_atom_site_label_1
_geom_bond_atom_site_label_2
_geom_bond_distance
_geom_bond_site_symmetry_2
Na0 Na2 3.319479 1_455
Na0 Na2 3.319479 1_555
Na0 Na2 3.319479 1_554
Na0 Na2 3.319479 1_545
Na1 Na2 3.319479 1_565
Na1 Na2 3.319479 1_556
Na1 Na2 3.319479 1_655
Na1 Na2 3.319479 1_555
Al0 Na0 3.319479 1_545
Al0 Na0 3.319479 1_455
Al0 Na1 3.319479 1_445
Al0 Na1 3.319479 1_544
Al0 Na1 3.319479 1_444
Al0 Na0 3.319479 1_555
Al0 Na1 3.319479 1_454
Al0 Na0 3.319479 1_554
