# generated using pymatgen
data_Ba2MgSi2O7
_symmetry_space_group_name_H-M   'P 1'
_cell_length_a   5.42935621
_cell_length_b   8.21514987
_cell_length_c   8.21514987
_cell_angle_alpha   90.00000000
_cell_angle_beta   90.00000000
_cell_angle_gamma   90.00000000
_symmetry_Int_Tables_number   1
_chemical_formula_structural   Ba2MgSi2O7
_chemical_formula_sum   'Ba4 Mg2 Si4 O14'
_cell_volume   366.42012397
_cell_formula_units_Z   2
loop_
 _symmetry_equiv_pos_site_id
 _symmetry_equiv_pos_as_xyz
  1  'x, y, z'
loop_
 _atom_site_type_symbol
 _atom_site_label
 _atom_site_symmetry_multiplicity
 _atom_site_fract_x
 _atom_site_fract_y
 _atom_site_fract_z
 _atom_site_occupancy
  Ba  Ba0  1  0.51012364  0.66478254  0.83521746  1
  Ba  Ba1  1  0.48987636  0.83521746  0.33521746  1
  Ba  Ba2  1  0.48987636  0.16478254  0.66478254  1
  Ba  Ba3  1  0.51012364  0.33521746  0.16478254  1
  Mg  Mg0  1  0.00000000  -0.00000000  0.00000000  1
  Mg  Mg1  1  0.00000000  0.50000000  0.50000000  1
  Si  Si0  1  0.95592143  0.86312505  0.63687495  1
  Si  Si1  1  0.95592143  0.13687495  0.36312505  1
  Si  Si2  1  0.04407857  0.63687495  0.13687495  1
  Si  Si3  1  0.04407857  0.36312505  0.86312505  1
  O  O0  1  0.82422406  0.69471129  0.57750186  1
  O  O1  1  0.82422406  0.30528871  0.42249814  1
  O  O2  1  0.17577594  0.42249814  0.69471129  1
  O  O3  1  0.17577594  0.57750186  0.30528871  1
  O  O4  1  0.82422406  0.92249814  0.80528871  1
  O  O5  1  0.17577594  0.80528871  0.07750186  1
  O  O6  1  0.17577594  0.19471129  0.92249814  1
  O  O7  1  0.82422406  0.07750186  0.19471129  1
  O  O8  1  0.25157437  0.85962825  0.64037175  1
  O  O9  1  0.74842563  0.64037175  0.14037175  1
  O  O10  1  0.13709460  0.50000000  0.00000000  1
  O  O11  1  0.86290540  -0.00000000  0.50000000  1
  O  O12  1  0.25157437  0.14037175  0.35962825  1
  O  O13  1  0.74842563  0.35962825  0.85962825  1
loop_
_geom_bond_atom_site_label_1
_geom_bond_atom_site_label_2
_geom_bond_distance
_geom_bond_site_symmetry_2
Ba0 O8 2.663630 1_555
Ba0 O0 2.729676 1_555
Ba0 O4 2.729676 1_555
Ba0 O10 2.786925 1_556
Ba0 O9 2.828196 1_556
Ba0 O13 2.828196 1_555
Ba0 O5 2.930759 1_556
Ba0 O2 2.930759 1_555
Ba1 O9 2.663630 1_555
Ba1 O3 2.729676 1_555
Ba1 O5 2.729676 1_555
Ba1 O11 2.786925 1_565
Ba1 O12 2.828196 1_565
Ba1 O8 2.828196 1_555
Ba1 O7 2.930759 1_565
Ba1 O0 2.930759 1_555
Ba2 O13 2.663630 1_555
Ba2 O6 2.729676 1_555
Ba2 O2 2.729676 1_555
Ba2 O11 2.786925 1_555
Ba2 O8 2.828196 1_545
Ba2 O12 2.828196 1_555
Ba2 O1 2.930759 1_555
Ba2 O4 2.930759 1_545
Ba3 O12 2.663630 1_555
Ba3 O1 2.729676 1_555
Ba3 O7 2.729676 1_555
Ba3 O10 2.786925 1_555
Ba3 O9 2.828196 1_555
Ba3 O13 2.828196 1_554
Ba3 O6 2.930759 1_554
Ba3 O3 2.930759 1_555
Mg0 O4 1.968457 1_444
Mg0 O7 1.968457 1_455
Mg0 O5 1.968457 1_545
Mg0 O6 1.968457 1_554
Mg1 O1 1.968457 1_455
Mg1 O2 1.968457 1_555
Mg1 O3 1.968457 1_555
Mg1 O0 1.968457 1_455
O0 Si0 1.631985 1_555
O1 Si1 1.631985 1_555
O2 Si3 1.631985 1_555
O3 Si2 1.631985 1_555
O4 Si0 1.631985 1_555
O5 Si2 1.631985 1_555
O6 Si3 1.631985 1_555
O7 Si1 1.631985 1_555
O8 Si0 1.605719 1_455
O9 Si2 1.605719 1_655
O10 Si3 1.668475 1_554
O10 Si2 1.668475 1_555
O11 Si1 1.668475 1_555
O11 Si0 1.668475 1_545
O12 Si1 1.605719 1_455
O13 Si3 1.605719 1_655
