# generated using pymatgen
data_PrSm3
_symmetry_space_group_name_H-M   'P 1'
_cell_length_a   6.30672148
_cell_length_b   6.30672148
_cell_length_c   6.30672148
_cell_angle_alpha   131.43819623
_cell_angle_beta   131.43819623
_cell_angle_gamma   71.11779538
_symmetry_Int_Tables_number   1
_chemical_formula_structural   PrSm3
_chemical_formula_sum   'Pr1 Sm3'
_cell_volume   138.02783443
_cell_formula_units_Z   1
loop_
 _symmetry_equiv_pos_site_id
 _symmetry_equiv_pos_as_xyz
  1  'x, y, z'
loop_
 _atom_site_type_symbol
 _atom_site_label
 _atom_site_symmetry_multiplicity
 _atom_site_fract_x
 _atom_site_fract_y
 _atom_site_fract_z
 _atom_site_occupancy
  Pr  Pr0  1  -0.00000000  0.00000000  -0.00000000  1
  Sm  Sm0  1  0.75000200  0.25000100  0.50000100  1
  Sm  Sm1  1  0.25000100  0.75000200  0.50000100  1
  Sm  Sm2  1  0.50000000  0.50000000  -0.00000000  1
loop_
_geom_bond_atom_site_label_1
_geom_bond_atom_site_label_2
_geom_bond_distance
_geom_bond_site_symmetry_2
Pr0 Sm0 3.647803 1_444
Pr0 Sm1 3.647803 1_545
Pr0 Sm1 3.647803 1_444
Pr0 Sm0 3.647803 1_455
Pr0 Sm0 3.647814 1_454
Pr0 Sm1 3.647814 1_544
Pr0 Sm1 3.647821 1_555
Pr0 Sm0 3.647821 1_555
Pr0 Sm2 3.667608 1_455
Pr0 Sm2 3.667608 1_545
Pr0 Sm2 3.667608 1_556
Pr0 Sm2 3.667608 1_444
Sm0 Sm2 3.647799 1_656
Sm0 Sm2 3.647807 1_555
Sm0 Sm2 3.647818 1_556
Sm0 Sm2 3.647818 1_545
Sm0 Sm1 3.667600 1_645
Sm0 Sm1 3.667608 1_656
Sm0 Sm1 3.667608 1_544
Sm0 Sm1 3.667615 1_555
Sm1 Sm2 3.647799 1_566
Sm1 Sm2 3.647807 1_555
Sm1 Sm2 3.647818 1_556
Sm1 Sm2 3.647818 1_455
