# generated using pymatgen
data_Rb3NbO8
_symmetry_space_group_name_H-M   'P 1'
_cell_length_a   6.41841142
_cell_length_b   6.41841146
_cell_length_c   6.41841174
_cell_angle_alpha   103.28584322
_cell_angle_beta   112.64965496
_cell_angle_gamma   112.64966071
_symmetry_Int_Tables_number   1
_chemical_formula_structural   Rb3NbO8
_chemical_formula_sum   'Rb3 Nb1 O8'
_cell_volume   201.79231382
_cell_formula_units_Z   1
loop_
 _symmetry_equiv_pos_site_id
 _symmetry_equiv_pos_as_xyz
  1  'x, y, z'
loop_
 _atom_site_type_symbol
 _atom_site_label
 _atom_site_symmetry_multiplicity
 _atom_site_fract_x
 _atom_site_fract_y
 _atom_site_fract_z
 _atom_site_occupancy
  Rb  Rb0  1  -0.00000000  0.50000000  0.50000000  1
  Rb  Rb1  1  0.50000000  0.75000000  0.25000000  1
  Rb  Rb2  1  0.50000000  0.25000000  0.75000000  1
  Nb  Nb0  1  -0.00000000  0.00000000  -0.00000000  1
  O  O0  1  0.27441447  0.95066653  0.95066653  1
  O  O1  1  0.00000000  0.04933347  0.32374694  1
  O  O2  1  0.00000000  0.32374694  0.04933347  1
  O  O3  1  0.72558553  0.67625306  0.67625306  1
  O  O4  1  0.58728599  0.77340081  0.77340081  1
  O  O5  1  -0.00000000  0.22659919  0.81388618  1
  O  O6  1  -0.00000000  0.81388618  0.22659919  1
  O  O7  1  0.41271401  0.18611382  0.18611382  1
loop_
_geom_bond_atom_site_label_1
_geom_bond_atom_site_label_2
_geom_bond_distance
_geom_bond_site_symmetry_2
Nb0 O2 2.028716 1_555
Nb0 O1 2.028716 1_555
Nb0 O3 2.028717 1_444
Nb0 O0 2.028722 1_544
Nb0 O5 2.083456 1_554
Nb0 O6 2.083456 1_545
Nb0 O4 2.083461 1_444
Nb0 O7 2.083461 1_555
O0 O7 1.496470 1_566
O0 Rb2 2.806697 1_565
O0 Rb1 2.806697 1_556
O0 Rb0 2.853540 1_555
O1 O6 1.496470 1_545
O1 Rb1 2.806700 1_445
O1 Rb2 2.806700 1_555
O1 Rb0 2.853540 1_555
O2 O5 1.496470 1_554
O2 Rb1 2.806700 1_555
O2 Rb2 2.806700 1_454
O2 Rb0 2.853541 1_555
O3 O4 1.496470 1_555
O3 Rb2 2.806699 1_555
O3 Rb1 2.806699 1_555
O3 Rb0 2.853546 1_655
O4 Rb0 2.960236 1_555
O4 Rb2 3.142569 1_555
O4 Rb1 3.142569 1_555
O4 Rb2 3.340698 1_565
O4 Rb1 3.340698 1_556
O5 Rb0 2.960241 1_555
O5 Rb2 3.142568 1_455
O5 Rb1 3.142568 1_556
O5 Rb2 3.340701 1_555
O5 Rb1 3.340701 1_445
O6 Rb0 2.960241 1_555
O6 Rb1 3.142567 1_455
O6 Rb2 3.142568 1_565
O6 Rb1 3.340701 1_555
O6 Rb2 3.340701 1_454
O7 Rb0 2.960237 1_655
O7 Rb1 3.142564 1_545
O7 Rb2 3.142565 1_554
O7 Rb1 3.340703 1_555
O7 Rb2 3.340703 1_555
