# generated using pymatgen
data_Re3Ru
_symmetry_space_group_name_H-M   'P 1'
_cell_length_a   10.40375876
_cell_length_b   10.40375876
_cell_length_c   10.40375876
_cell_angle_alpha   64.11137092
_cell_angle_beta   149.43873218
_cell_angle_gamma   125.13726897
_symmetry_Int_Tables_number   1
_chemical_formula_structural   Re3Ru
_chemical_formula_sum   'Re24 Ru8'
_cell_volume   463.50040771
_cell_formula_units_Z   8
loop_
 _symmetry_equiv_pos_site_id
 _symmetry_equiv_pos_as_xyz
  1  'x, y, z'
loop_
 _atom_site_type_symbol
 _atom_site_label
 _atom_site_symmetry_multiplicity
 _atom_site_fract_x
 _atom_site_fract_y
 _atom_site_fract_z
 _atom_site_occupancy
  Re  Re0_0  1  0.33591535  0.08591635  0.24999950  1
  Re  Re0_1  1  0.33591535  0.08591635  0.74999950  1
  Re  Re0_2  1  0.33591535  0.58591635  0.24999950  1
  Re  Re0_3  1  0.33591535  0.58591635  0.74999950  1
  Re  Re0_4  1  0.83591535  0.08591635  0.24999950  1
  Re  Re0_5  1  0.83591535  0.08591635  0.74999950  1
  Re  Re0_6  1  0.83591535  0.58591635  0.24999950  1
  Re  Re0_7  1  0.83591535  0.58591635  0.74999950  1
  Re  Re1_0  1  0.49913651  0.12497587  0.12583836  1
  Re  Re1_1  1  0.49913651  0.12497587  0.62583836  1
  Re  Re1_2  1  0.49913651  0.62497587  0.12583836  1
  Re  Re1_3  1  0.49913651  0.62497587  0.62583836  1
  Re  Re1_4  1  0.99913651  0.12497587  0.12583836  1
  Re  Re1_5  1  0.99913651  0.12497587  0.62583836  1
  Re  Re1_6  1  0.99913651  0.62497587  0.12583836  1
  Re  Re1_7  1  0.99913651  0.62497587  0.62583836  1
  Re  Re2_0  1  0.49913651  0.37329716  0.37416064  1
  Re  Re2_1  1  0.49913651  0.37329716  0.87416064  1
  Re  Re2_2  1  0.49913651  0.87329716  0.37416064  1
  Re  Re2_3  1  0.49913651  0.87329716  0.87416064  1
  Re  Re2_4  1  0.99913651  0.37329716  0.37416064  1
  Re  Re2_5  1  0.99913651  0.37329716  0.87416064  1
  Re  Re2_6  1  0.99913651  0.87329716  0.37416064  1
  Re  Re2_7  1  0.99913651  0.87329716  0.87416064  1
  Ru  Ru0_0  1  0.33251113  0.33251113  0.00000000  1
  Ru  Ru0_1  1  0.33251113  0.33251113  0.50000000  1
  Ru  Ru0_2  1  0.33251113  0.83251113  0.00000000  1
  Ru  Ru0_3  1  0.33251113  0.83251113  0.50000000  1
  Ru  Ru0_4  1  0.83251113  0.33251113  0.00000000  1
  Ru  Ru0_5  1  0.83251113  0.33251113  0.50000000  1
  Ru  Ru0_6  1  0.83251113  0.83251113  0.00000000  1
  Ru  Ru0_7  1  0.83251113  0.83251113  0.50000000  1
loop_
_geom_bond_atom_site_label_1
_geom_bond_atom_site_label_2
_geom_bond_distance
_geom_bond_site_symmetry_2
Re0_0 Re2_0 2.691128 1_555
Re0_0 Re1_0 2.691145 1_555
Re0_0 Ru0_0 2.732577 1_555
Re0_0 Ru0_5 2.732582 1_555
Re0_0 Re1_4 2.737909 1_455
Re0_0 Re1_1 2.737911 1_555
Re0_0 Re2_7 2.737924 1_444
Re0_0 Re2_2 2.737928 1_545
Re0_0 Re0_5 2.741880 1_555
Re0_0 Re0_5 2.741880 1_454
Re0_0 Ru0_6 2.789238 1_445
Re0_0 Ru0_3 2.789242 1_545
Re0_1 Re2_1 2.691128 1_555
Re0_1 Re1_1 2.691145 1_555
Re0_1 Ru0_1 2.732577 1_555
Re0_1 Ru0_4 2.732582 1_556
Re0_1 Re1_5 2.737909 1_455
Re0_1 Re1_0 2.737911 1_556
Re0_1 Re2_6 2.737924 1_445
Re0_1 Re2_3 2.737928 1_545
Re0_1 Re0_4 2.741880 1_455
Re0_1 Re0_4 2.741880 1_556
Re0_1 Ru0_7 2.789238 1_445
Re0_1 Ru0_2 2.789242 1_546
Re0_2 Re2_2 2.691128 1_555
Re0_2 Re1_2 2.691145 1_555
Re0_2 Ru0_2 2.732577 1_555
Re0_2 Ru0_7 2.732582 1_555
Re0_2 Re1_6 2.737909 1_455
Re0_2 Re1_3 2.737911 1_555
Re0_2 Re2_5 2.737924 1_454
Re0_2 Re2_0 2.737928 1_555
Re0_2 Re0_7 2.741880 1_454
Re0_2 Re0_7 2.741880 1_555
Re0_2 Ru0_4 2.789238 1_455
Re0_2 Ru0_1 2.789242 1_555
Re0_3 Re2_3 2.691128 1_555
Re0_3 Re1_3 2.691145 1_555
Re0_3 Ru0_3 2.732577 1_555
Re0_3 Ru0_6 2.732582 1_556
Re0_3 Re1_7 2.737909 1_455
Re0_3 Re1_2 2.737911 1_556
Re0_3 Re2_4 2.737924 1_455
Re0_3 Re2_1 2.737928 1_555
Re0_3 Re0_6 2.741880 1_455
Re0_3 Re0_6 2.741880 1_556
Re0_3 Ru0_5 2.789238 1_455
Re0_3 Ru0_0 2.789242 1_556
Re0_4 Re2_4 2.691128 1_555
Re0_4 Re1_4 2.691145 1_555
Re0_4 Ru0_4 2.732577 1_555
Re0_4 Ru0_1 2.732582 1_655
Re0_4 Re1_0 2.737909 1_555
Re0_4 Re1_5 2.737911 1_555
Re0_4 Re2_3 2.737924 1_544
Re0_4 Re2_6 2.737928 1_545
Re0_4 Ru0_2 2.789238 1_545
Re0_4 Ru0_7 2.789242 1_545
Re0_5 Re2_5 2.691128 1_555
Re0_5 Re1_5 2.691145 1_555
Re0_5 Ru0_5 2.732577 1_555
Re0_5 Ru0_0 2.732582 1_656
Re0_5 Re1_1 2.737909 1_555
Re0_5 Re1_4 2.737911 1_556
Re0_5 Re2_2 2.737924 1_545
Re0_5 Re2_7 2.737928 1_545
Re0_5 Ru0_3 2.789238 1_545
Re0_5 Ru0_6 2.789242 1_546
Re0_6 Re2_6 2.691128 1_555
Re0_6 Re1_6 2.691145 1_555
Re0_6 Ru0_6 2.732577 1_555
Re0_6 Ru0_3 2.732582 1_655
Re0_6 Re1_2 2.737909 1_555
Re0_6 Re1_7 2.737911 1_555
Re0_6 Re2_1 2.737924 1_554
Re0_6 Re2_4 2.737928 1_555
Re0_6 Ru0_0 2.789238 1_555
Re0_6 Ru0_5 2.789242 1_555
Re0_7 Re2_7 2.691128 1_555
Re0_7 Re1_7 2.691145 1_555
Re0_7 Ru0_7 2.732577 1_555
Re0_7 Ru0_2 2.732582 1_656
Re0_7 Re1_3 2.737909 1_555
Re0_7 Re1_6 2.737911 1_556
Re0_7 Re2_0 2.737924 1_555
Re0_7 Re2_5 2.737928 1_555
Re0_7 Ru0_1 2.789238 1_555
Re0_7 Ru0_4 2.789242 1_556
Re1_0 Ru0_0 2.704161 1_555
Re1_0 Ru0_5 2.704164 1_555
Re1_0 Ru0_2 2.734206 1_545
Re1_0 Re1_5 2.741880 1_555
Re1_0 Re1_5 2.741880 1_454
Re1_0 Re2_1 2.761015 1_554
Re1_0 Re2_4 2.761018 1_555
Re1_0 Re2_7 2.761024 1_444
Re1_0 Re2_2 2.761026 1_545
Re1_1 Ru0_1 2.704161 1_555
Re1_1 Ru0_4 2.704164 1_556
Re1_1 Ru0_3 2.734206 1_545
Re1_1 Re1_4 2.741880 1_556
Re1_1 Re1_4 2.741880 1_455
Re1_1 Re2_0 2.761015 1_555
Re1_1 Re2_5 2.761018 1_555
Re1_1 Re2_6 2.761024 1_445
Re1_1 Re2_3 2.761026 1_545
Re1_2 Ru0_2 2.704161 1_555
Re1_2 Ru0_7 2.704164 1_555
Re1_2 Ru0_0 2.734206 1_555
Re1_2 Re1_7 2.741880 1_555
Re1_2 Re1_7 2.741880 1_454
Re1_2 Re2_3 2.761015 1_554
Re1_2 Re2_6 2.761018 1_555
Re1_2 Re2_5 2.761024 1_454
Re1_2 Re2_0 2.761026 1_555
Re1_3 Ru0_3 2.704161 1_555
Re1_3 Ru0_6 2.704164 1_556
Re1_3 Ru0_1 2.734206 1_555
Re1_3 Re1_6 2.741880 1_455
Re1_3 Re1_6 2.741880 1_556
Re1_3 Re2_2 2.761015 1_555
Re1_3 Re2_7 2.761018 1_555
Re1_3 Re2_4 2.761024 1_455
Re1_3 Re2_1 2.761026 1_555
Re1_4 Ru0_4 2.704161 1_555
Re1_4 Ru0_1 2.704164 1_655
Re1_4 Ru0_6 2.734206 1_545
Re1_4 Re2_5 2.761015 1_554
Re1_4 Re2_0 2.761018 1_655
Re1_4 Re2_3 2.761024 1_544
Re1_4 Re2_6 2.761026 1_545
Re1_5 Ru0_5 2.704161 1_555
Re1_5 Ru0_0 2.704164 1_656
Re1_5 Ru0_7 2.734206 1_545
Re1_5 Re2_4 2.761015 1_555
Re1_5 Re2_1 2.761018 1_655
Re1_5 Re2_2 2.761024 1_545
Re1_5 Re2_7 2.761026 1_545
Re1_6 Ru0_6 2.704161 1_555
Re1_6 Ru0_3 2.704164 1_655
Re1_6 Ru0_4 2.734206 1_555
Re1_6 Re2_7 2.761015 1_554
Re1_6 Re2_2 2.761018 1_655
Re1_6 Re2_1 2.761024 1_554
Re1_6 Re2_4 2.761026 1_555
Re1_7 Ru0_7 2.704161 1_555
Re1_7 Ru0_2 2.704164 1_656
Re1_7 Ru0_5 2.734206 1_555
Re1_7 Re2_6 2.761015 1_555
Re1_7 Re2_3 2.761018 1_655
Re1_7 Re2_0 2.761024 1_555
Re1_7 Re2_5 2.761026 1_555
Re2_0 Ru0_0 2.704157 1_555
Re2_0 Ru0_5 2.704157 1_555
Re2_0 Ru0_1 2.734210 1_555
Re2_0 Re2_5 2.741880 1_454
Re2_0 Re2_5 2.741880 1_555
Re2_1 Ru0_1 2.704157 1_555
Re2_1 Ru0_4 2.704157 1_556
Re2_1 Ru0_0 2.734210 1_556
Re2_1 Re2_4 2.741880 1_455
Re2_1 Re2_4 2.741880 1_556
Re2_2 Ru0_2 2.704157 1_555
Re2_2 Ru0_7 2.704157 1_555
Re2_2 Ru0_3 2.734210 1_555
Re2_2 Re2_7 2.741880 1_555
Re2_2 Re2_7 2.741880 1_454
Re2_3 Ru0_3 2.704157 1_555
Re2_3 Ru0_6 2.704157 1_556
Re2_3 Ru0_2 2.734210 1_556
Re2_3 Re2_6 2.741880 1_556
Re2_3 Re2_6 2.741880 1_455
Re2_4 Ru0_4 2.704157 1_555
Re2_4 Ru0_1 2.704157 1_655
Re2_4 Ru0_5 2.734210 1_555
Re2_5 Ru0_5 2.704157 1_555
Re2_5 Ru0_0 2.704157 1_656
Re2_5 Ru0_4 2.734210 1_556
Re2_6 Ru0_6 2.704157 1_555
Re2_6 Ru0_3 2.704157 1_655
Re2_6 Ru0_7 2.734210 1_555
Re2_7 Ru0_7 2.704157 1_555
Re2_7 Ru0_2 2.704157 1_656
Re2_7 Ru0_6 2.734210 1_556
Ru0_0 Ru0_5 2.741880 1_454
Ru0_0 Ru0_5 2.741880 1_555
Ru0_1 Ru0_4 2.741880 1_455
Ru0_1 Ru0_4 2.741880 1_556
Ru0_2 Ru0_7 2.741880 1_555
Ru0_2 Ru0_7 2.741880 1_454
Ru0_3 Ru0_6 2.741880 1_556
Ru0_3 Ru0_6 2.741880 1_455
