# generated using pymatgen
data_Pr6IrCl11
_symmetry_space_group_name_H-M   'P 1'
_cell_length_a   7.40094734
_cell_length_b   8.27413390
_cell_length_c   8.27413390
_cell_angle_alpha   101.58612400
_cell_angle_beta   92.88254411
_cell_angle_gamma   92.88254411
_symmetry_Int_Tables_number   1
_chemical_formula_structural   Pr6IrCl11
_chemical_formula_sum   'Pr6 Ir1 Cl11'
_cell_volume   494.78108139
_cell_formula_units_Z   1
loop_
 _symmetry_equiv_pos_site_id
 _symmetry_equiv_pos_as_xyz
  1  'x, y, z'
loop_
 _atom_site_type_symbol
 _atom_site_label
 _atom_site_symmetry_multiplicity
 _atom_site_fract_x
 _atom_site_fract_y
 _atom_site_fract_z
 _atom_site_occupancy
  Pr  Pr0  1  0.22859354  0.70739343  0.01787190  1
  Pr  Pr1  1  0.23899166  0.19424838  0.19424838  1
  Pr  Pr2  1  0.77140646  0.98212810  0.29260557  1
  Pr  Pr3  1  0.22859354  0.01787190  0.70739343  1
  Pr  Pr4  1  0.76100834  0.80575162  0.80575162  1
  Pr  Pr5  1  0.77140646  0.29260557  0.98212810  1
  Ir  Ir0  1  0.00000000  0.00000000  -0.00000000  1
  Cl  Cl0  1  0.50000000  0.00000000  -0.00000000  1
  Cl  Cl1  1  0.63564173  0.65938099  0.09420048  1
  Cl  Cl2  1  0.05570283  0.49120960  0.20344808  1
  Cl  Cl3  1  0.63452023  0.30602229  0.30602229  1
  Cl  Cl4  1  0.36435827  0.90579952  0.34062001  1
  Cl  Cl5  1  0.05570283  0.20344808  0.49120960  1
  Cl  Cl6  1  0.94429817  0.79655192  0.50879040  1
  Cl  Cl7  1  0.63564173  0.09420048  0.65938099  1
  Cl  Cl8  1  0.36548077  0.69397771  0.69397771  1
  Cl  Cl9  1  0.94429817  0.50879040  0.79655192  1
  Cl  Cl10  1  0.36435827  0.34062001  0.90579952  1
loop_
_geom_bond_atom_site_label_1
_geom_bond_atom_site_label_2
_geom_bond_distance
_geom_bond_site_symmetry_2
Ir0 Pr4 2.585629 1_444
Ir0 Pr1 2.585629 1_555
Ir0 Pr5 3.045687 1_454
Ir0 Pr2 3.045687 1_445
Ir0 Pr0 3.045694 1_545
Ir0 Pr3 3.045694 1_554
Cl0 Pr1 2.912872 1_555
Cl0 Pr4 2.912872 1_544
Cl0 Pr2 3.098820 1_545
Cl0 Pr5 3.098820 1_554
Cl0 Pr0 3.098826 1_545
Cl0 Pr3 3.098826 1_554
Cl1 Pr2 2.939245 1_555
Cl1 Pr4 3.048693 1_554
Cl1 Pr0 3.108356 1_555
Cl1 Pr5 3.217018 1_554
Cl2 Pr1 2.855474 1_555
Cl2 Pr0 2.874924 1_555
Cl2 Pr5 2.921783 1_454
Cl3 Pr5 2.895798 1_554
Cl3 Pr2 2.895798 1_545
Cl3 Pr1 3.064554 1_555
Cl4 Pr0 2.939255 1_555
Cl4 Pr1 3.048697 1_565
Cl4 Pr2 3.108359 1_555
Cl4 Pr3 3.217003 1_565
Cl5 Pr1 2.855474 1_555
Cl5 Pr3 2.874924 1_555
Cl5 Pr2 2.921783 1_445
Cl6 Pr4 2.855478 1_555
Cl6 Pr2 2.874933 1_555
Cl6 Pr3 2.921775 1_665
Cl7 Pr5 2.939245 1_555
Cl7 Pr4 3.048693 1_545
Cl7 Pr3 3.108356 1_555
Cl7 Pr2 3.217018 1_545
Cl8 Pr3 2.895802 1_565
Cl8 Pr0 2.895802 1_556
Cl8 Pr4 3.064548 1_555
Cl9 Pr4 2.855478 1_555
Cl9 Pr5 2.874933 1_555
Cl9 Pr0 2.921775 1_656
Cl10 Pr3 2.939255 1_555
Cl10 Pr1 3.048697 1_556
Cl10 Pr5 3.108359 1_555
Cl10 Pr0 3.217003 1_556
