# generated using pymatgen
data_K3IO5
_symmetry_space_group_name_H-M   'P 1'
_cell_length_a   6.22815654
_cell_length_b   6.22815654
_cell_length_c   16.26097603
_cell_angle_alpha   90.00000000
_cell_angle_beta   90.00000000
_cell_angle_gamma   90.00000000
_symmetry_Int_Tables_number   1
_chemical_formula_structural   K3IO5
_chemical_formula_sum   'K12 I4 O20'
_cell_volume   630.76218514
_cell_formula_units_Z   4
loop_
 _symmetry_equiv_pos_site_id
 _symmetry_equiv_pos_as_xyz
  1  'x, y, z'
loop_
 _atom_site_type_symbol
 _atom_site_label
 _atom_site_symmetry_multiplicity
 _atom_site_fract_x
 _atom_site_fract_y
 _atom_site_fract_z
 _atom_site_occupancy
  K  K0  1  0.50000000  -0.00000000  0.39403952  1
  K  K1  1  0.00000000  0.50000000  0.10596048  1
  K  K2  1  0.00000000  0.50000000  0.60596048  1
  K  K3  1  0.50000000  -0.00000000  0.89403952  1
  K  K4  1  0.50000000  0.50000000  0.00000000  1
  K  K5  1  0.00000000  -0.00000000  0.00000000  1
  K  K6  1  0.00000000  -0.00000000  0.50000000  1
  K  K7  1  0.50000000  0.50000000  0.50000000  1
  K  K8  1  0.50000000  0.50000000  0.25000000  1
  K  K9  1  0.00000000  -0.00000000  0.25000000  1
  K  K10  1  0.00000000  -0.00000000  0.75000000  1
  K  K11  1  0.50000000  0.50000000  0.75000000  1
  I  I0  1  0.50000000  -0.00000000  0.12894435  1
  I  I1  1  0.00000000  0.50000000  0.37105565  1
  I  I2  1  0.00000000  0.50000000  0.87105565  1
  I  I3  1  0.50000000  -0.00000000  0.62894435  1
  O  O0  1  0.50000000  -0.00000000  0.23961209  1
  O  O1  1  0.00000000  0.50000000  0.26038791  1
  O  O2  1  0.00000000  0.50000000  0.76038791  1
  O  O3  1  0.50000000  -0.00000000  0.73961209  1
  O  O4  1  0.70423589  0.20675749  0.10603323  1
  O  O5  1  0.29324251  0.20423589  0.10603323  1
  O  O6  1  0.70675749  0.79576411  0.10603323  1
  O  O7  1  0.20423589  0.29324251  0.39396677  1
  O  O8  1  0.79576411  0.70675749  0.39396677  1
  O  O9  1  0.29576411  0.79324251  0.10603323  1
  O  O10  1  0.20675749  0.70423589  0.39396677  1
  O  O11  1  0.79324251  0.29576411  0.39396677  1
  O  O12  1  0.79576411  0.29324251  0.89396677  1
  O  O13  1  0.20675749  0.29576411  0.89396677  1
  O  O14  1  0.79324251  0.70423589  0.89396677  1
  O  O15  1  0.29576411  0.20675749  0.60603323  1
  O  O16  1  0.70423589  0.79324251  0.60603323  1
  O  O17  1  0.20423589  0.70675749  0.89396677  1
  O  O18  1  0.29324251  0.79576411  0.60603323  1
  O  O19  1  0.70675749  0.20423589  0.60603323  1
loop_
_geom_bond_atom_site_label_1
_geom_bond_atom_site_label_2
_geom_bond_distance
_geom_bond_site_symmetry_2
K0 O0 2.511141 1_555
K0 O8 2.593993 1_545
K0 O11 2.593993 1_555
K0 O7 2.593993 1_555
K0 O10 2.593993 1_545
K1 O1 2.511141 1_555
K1 O6 2.593993 1_455
K1 O5 2.593993 1_555
K1 O4 2.593993 1_455
K1 O9 2.593993 1_555
K2 O2 2.511141 1_555
K2 O19 2.593993 1_455
K2 O18 2.593993 1_555
K2 O16 2.593993 1_455
K2 O15 2.593993 1_555
K3 O3 2.511141 1_555
K3 O17 2.593993 1_545
K3 O14 2.593993 1_545
K3 O12 2.593993 1_555
K3 O13 2.593993 1_555
K4 O13 2.815402 1_554
K4 O14 2.815402 1_554
K4 O4 2.815402 1_555
K4 O9 2.815402 1_555
K4 O17 2.832720 1_554
K4 O12 2.832720 1_554
K4 O5 2.832720 1_555
K4 O6 2.832720 1_555
K5 O17 2.815402 1_544
K5 O12 2.815402 1_454
K5 O6 2.815402 1_445
K5 O5 2.815402 1_555
K5 O14 2.832720 1_444
K5 O13 2.832720 1_554
K5 O4 2.832720 1_455
K5 O9 2.832720 1_545
K6 O7 2.815402 1_555
K6 O8 2.815402 1_445
K6 O18 2.815402 1_545
K6 O19 2.815402 1_455
K6 O11 2.832720 1_455
K6 O16 2.832720 1_445
K6 O15 2.832720 1_555
K6 O10 2.832720 1_545
K7 O10 2.815402 1_555
K7 O16 2.815402 1_555
K7 O11 2.815402 1_555
K7 O15 2.815402 1_555
K7 O18 2.832720 1_555
K7 O8 2.832720 1_555
K7 O7 2.832720 1_555
K7 O19 2.832720 1_555
K8 O1 3.118656 1_655
K8 O0 3.118656 1_555
K8 O0 3.118656 1_565
K8 O1 3.118656 1_555
K8 O9 3.230182 1_555
K8 O4 3.230182 1_555
K8 O11 3.230182 1_555
K8 O10 3.230182 1_555
K8 O5 3.245288 1_555
K8 O6 3.245288 1_555
K8 O8 3.245288 1_555
K8 O7 3.245288 1_555
K9 O0 3.118656 1_455
K9 O1 3.118656 1_545
K9 O0 3.118656 1_555
K9 O1 3.118656 1_555
K9 O6 3.230182 1_445
K9 O5 3.230182 1_555
K9 O7 3.230182 1_555
K9 O8 3.230182 1_445
K9 O4 3.245288 1_455
K9 O9 3.245288 1_545
K9 O10 3.245288 1_545
K9 O11 3.245288 1_455
K10 O3 3.118656 1_455
K10 O3 3.118656 1_555
K10 O2 3.118656 1_545
K10 O2 3.118656 1_555
K10 O12 3.230182 1_455
K10 O19 3.230182 1_455
K10 O17 3.230182 1_545
K10 O18 3.230182 1_545
K10 O14 3.245288 1_445
K10 O15 3.245288 1_555
K10 O16 3.245288 1_445
K10 O13 3.245288 1_555
K11 O2 3.118656 1_655
K11 O3 3.118656 1_555
K11 O3 3.118656 1_565
K11 O2 3.118656 1_555
K11 O14 3.230182 1_555
K11 O15 3.230182 1_555
K11 O13 3.230182 1_555
K11 O16 3.230182 1_555
K11 O18 3.245288 1_555
K11 O12 3.245288 1_555
K11 O19 3.245288 1_555
K11 O17 3.245288 1_555
I0 O0 1.799565 1_555
I0 O9 1.847981 1_545
I0 O4 1.847981 1_555
I0 O6 1.847981 1_545
I0 O5 1.847981 1_555
I1 O1 1.799565 1_555
I1 O11 1.847981 1_455
I1 O8 1.847981 1_455
I1 O10 1.847981 1_555
I1 O7 1.847981 1_555
I2 O2 1.799565 1_555
I2 O13 1.847981 1_555
I2 O14 1.847981 1_455
I2 O12 1.847981 1_455
I2 O17 1.847981 1_555
I3 O3 1.799565 1_555
I3 O18 1.847981 1_545
I3 O16 1.847981 1_545
I3 O15 1.847981 1_555
I3 O19 1.847981 1_555
