# generated using pymatgen
data_K2PAuS4
_symmetry_space_group_name_H-M   'P 1'
_cell_length_a   6.88299800
_cell_length_b   6.74274700
_cell_length_c   9.58434287
_cell_angle_alpha   86.81689895
_cell_angle_beta   90.00000000
_cell_angle_gamma   90.00000000
_symmetry_Int_Tables_number   1
_chemical_formula_structural   K2PAuS4
_chemical_formula_sum   'K4 P2 Au2 S8'
_cell_volume   444.12609991
_cell_formula_units_Z   2
loop_
 _symmetry_equiv_pos_site_id
 _symmetry_equiv_pos_as_xyz
  1  'x, y, z'
loop_
 _atom_site_type_symbol
 _atom_site_label
 _atom_site_symmetry_multiplicity
 _atom_site_fract_x
 _atom_site_fract_y
 _atom_site_fract_z
 _atom_site_occupancy
  K  K0  1  0.25000000  0.48048900  0.16295400  1
  K  K1  1  0.75000000  0.51951100  0.83704600  1
  K  K2  1  0.25000000  0.79658900  0.53932800  1
  K  K3  1  0.75000000  0.20341100  0.46067200  1
  P  P0  1  0.75000000  0.73248100  0.27990800  1
  P  P1  1  0.25000000  0.26751900  0.72009200  1
  Au  Au0  1  0.00000000  0.00000000  0.00000000  1
  Au  Au1  1  0.50000000  0.00000000  0.00000000  1
  S  S0  1  0.25000000  0.30421800  0.50894800  1
  S  S1  1  0.75000000  0.69578200  0.49105200  1
  S  S2  1  0.25000000  0.52122800  0.82360900  1
  S  S3  1  0.75000000  0.47877200  0.17639100  1
  S  S4  1  0.50091800  0.09835100  0.76361600  1
  S  S5  1  0.00091800  0.90164900  0.23638400  1
  S  S6  1  0.99908200  0.09835100  0.76361600  1
  S  S7  1  0.49908200  0.90164900  0.23638400  1
loop_
_geom_bond_atom_site_label_1
_geom_bond_atom_site_label_2
_geom_bond_distance
_geom_bond_site_symmetry_2
K0 S2 3.248744 1_554
K0 S7 3.423573 1_555
K0 S5 3.423573 1_555
K0 S3 3.443903 1_555
K0 S3 3.443903 1_455
K0 S0 3.460005 1_555
K1 S3 3.248744 1_556
K1 S6 3.423573 1_555
K1 S4 3.423573 1_555
K1 S2 3.443903 1_555
K1 S2 3.443903 1_655
K1 S1 3.460005 1_555
K2 S2 3.210793 1_555
K2 S0 3.348745 1_555
K2 S5 3.412198 1_555
K2 S7 3.412198 1_555
K2 S0 3.419029 1_565
K2 S4 3.497075 1_565
K2 S6 3.497075 1_465
K2 S1 3.543295 1_455
K2 S1 3.543295 1_555
K3 S3 3.210793 1_555
K3 S1 3.348745 1_555
K3 S4 3.412198 1_555
K3 S6 3.412198 1_555
K3 S1 3.419029 1_545
K3 S5 3.497075 1_645
K3 S7 3.497075 1_545
K3 S0 3.543295 1_655
K3 S0 3.543295 1_555
P0 S3 2.024676 1_555
P0 S1 2.025065 1_555
P0 S7 2.098817 1_555
P0 S5 2.098817 1_655
P1 S2 2.024676 1_555
P1 S0 2.025065 1_555
P1 S4 2.098817 1_555
P1 S6 2.098817 1_455
Au0 S5 2.325046 1_545
Au0 S6 2.325046 1_454
Au1 S7 2.325046 1_545
Au1 S4 2.325046 1_554
