# generated using pymatgen
data_NaAuO2
_symmetry_space_group_name_H-M   'P 1'
_cell_length_a   3.02201508
_cell_length_b   3.59551401
_cell_length_c   5.60065984
_cell_angle_alpha   79.87179864
_cell_angle_beta   74.34816915
_cell_angle_gamma   65.14977274
_symmetry_Int_Tables_number   1
_chemical_formula_structural   NaAuO2
_chemical_formula_sum   'Na1 Au1 O2'
_cell_volume   53.03675091
_cell_formula_units_Z   1
loop_
 _symmetry_equiv_pos_site_id
 _symmetry_equiv_pos_as_xyz
  1  'x, y, z'
loop_
 _atom_site_type_symbol
 _atom_site_label
 _atom_site_symmetry_multiplicity
 _atom_site_fract_x
 _atom_site_fract_y
 _atom_site_fract_z
 _atom_site_occupancy
  Na  Na0  1  0.50000000  0.50000000  0.50000000  1
  Au  Au0  1  0.50000000  0.00000000  0.00000000  1
  O  O0  1  0.08956104  0.06908482  0.75179409  1
  O  O1  1  0.91043896  0.93091518  0.24820591  1
loop_
_geom_bond_atom_site_label_1
_geom_bond_atom_site_label_2
_geom_bond_distance
_geom_bond_site_symmetry_2
Na0 O1 2.377353 1_545
Na0 O0 2.377353 1_565
Na0 O1 2.414676 1_555
Na0 O0 2.414676 1_555
Na0 O1 2.414679 1_455
Na0 O0 2.414679 1_655
Au0 O1 2.020537 1_545
Au0 O0 2.020537 1_554
Au0 O0 2.020539 1_654
Au0 O1 2.020539 1_445
