# generated using pymatgen
data_Al3Fe
_symmetry_space_group_name_H-M   'P 1'
_cell_length_a   5.37497534
_cell_length_b   5.37497534
_cell_length_c   4.37384900
_cell_angle_alpha   90.00000000
_cell_angle_beta   90.00000000
_cell_angle_gamma   119.99999189
_symmetry_Int_Tables_number   1
_chemical_formula_structural   Al3Fe
_chemical_formula_sum   'Al6 Fe2'
_cell_volume   109.43277323
_cell_formula_units_Z   2
loop_
 _symmetry_equiv_pos_site_id
 _symmetry_equiv_pos_as_xyz
  1  'x, y, z'
loop_
 _atom_site_type_symbol
 _atom_site_label
 _atom_site_symmetry_multiplicity
 _atom_site_fract_x
 _atom_site_fract_y
 _atom_site_fract_z
 _atom_site_occupancy
  Al  Al0  1  0.17130300  0.34260700  0.25000000  1
  Al  Al1  1  0.65739300  0.82869700  0.25000000  1
  Al  Al2  1  0.17130300  0.82869700  0.25000000  1
  Al  Al3  1  0.82869700  0.65739300  0.75000000  1
  Al  Al4  1  0.34260700  0.17130300  0.75000000  1
  Al  Al5  1  0.82869700  0.17130300  0.75000000  1
  Fe  Fe0  1  0.33333300  0.66666700  0.75000000  1
  Fe  Fe1  1  0.66666700  0.33333300  0.25000000  1
loop_
_geom_bond_atom_site_label_1
_geom_bond_atom_site_label_2
_geom_bond_distance
_geom_bond_site_symmetry_2
Al0 Al2 2.612722 1_555
Al0 Al1 2.612722 1_555
Al0 Fe0 2.656704 1_554
Al0 Fe0 2.656704 1_555
Al0 Fe1 2.687829 1_455
Al0 Fe1 2.687840 1_555
Al0 Al5 2.706654 1_455
Al0 Al5 2.706654 1_454
Al0 Al4 2.706660 1_555
Al0 Al4 2.706660 1_554
Al0 Al2 2.762254 1_545
Al0 Al1 2.762254 1_445
Al1 Al2 2.612722 1_555
Al1 Fe0 2.656704 1_554
Al1 Fe0 2.656704 1_555
Al1 Fe1 2.687829 1_565
Al1 Fe1 2.687840 1_555
Al1 Al5 2.706654 1_565
Al1 Al5 2.706654 1_564
Al1 Al3 2.706660 1_554
Al1 Al3 2.706660 1_555
Al1 Al2 2.762254 1_655
Al2 Fe0 2.656704 1_555
Al2 Fe0 2.656704 1_554
Al2 Fe1 2.687835 1_455
Al2 Fe1 2.687835 1_565
Al2 Al3 2.706654 1_454
Al2 Al3 2.706654 1_455
Al2 Al4 2.706654 1_564
Al2 Al4 2.706654 1_565
Al3 Al5 2.612722 1_555
Al3 Al4 2.612722 1_555
Al3 Fe1 2.656704 1_556
Al3 Fe1 2.656704 1_555
Al3 Fe0 2.687829 1_655
Al3 Fe0 2.687840 1_555
Al3 Al5 2.762254 1_565
Al3 Al4 2.762254 1_665
Al4 Al5 2.612722 1_555
Al4 Fe1 2.656704 1_556
Al4 Fe1 2.656704 1_555
Al4 Fe0 2.687829 1_545
Al4 Fe0 2.687840 1_555
Al4 Al5 2.762254 1_455
Al5 Fe1 2.656704 1_555
Al5 Fe1 2.656704 1_556
Al5 Fe0 2.687835 1_545
Al5 Fe0 2.687835 1_655
