# generated using pymatgen
data_SiAu3
_symmetry_space_group_name_H-M   'P 1'
_cell_length_a   5.83626856
_cell_length_b   5.83626856
_cell_length_c   4.73934600
_cell_angle_alpha   90.00000000
_cell_angle_beta   90.00000000
_cell_angle_gamma   120.00000637
_symmetry_Int_Tables_number   1
_chemical_formula_structural   SiAu3
_chemical_formula_sum   'Si2 Au6'
_cell_volume   139.80398670
_cell_formula_units_Z   2
loop_
 _symmetry_equiv_pos_site_id
 _symmetry_equiv_pos_as_xyz
  1  'x, y, z'
loop_
 _atom_site_type_symbol
 _atom_site_label
 _atom_site_symmetry_multiplicity
 _atom_site_fract_x
 _atom_site_fract_y
 _atom_site_fract_z
 _atom_site_occupancy
  Si  Si0  1  0.33333300  0.66666700  0.75000000  1
  Si  Si1  1  0.66666700  0.33333300  0.25000000  1
  Au  Au0  1  0.16918300  0.33836700  0.25000000  1
  Au  Au1  1  0.66163300  0.83081700  0.25000000  1
  Au  Au2  1  0.16918300  0.83081700  0.25000000  1
  Au  Au3  1  0.83081700  0.66163300  0.75000000  1
  Au  Au4  1  0.33836700  0.16918300  0.75000000  1
  Au  Au5  1  0.83081700  0.16918300  0.75000000  1
loop_
_geom_bond_atom_site_label_1
_geom_bond_atom_site_label_2
_geom_bond_distance
_geom_bond_site_symmetry_2
Au0 Au1 2.874070 1_555
Au0 Au2 2.874070 1_555
Au0 Si0 2.892884 1_555
Au0 Si0 2.892884 1_554
Au0 Si1 2.918239 1_455
Au0 Si1 2.918251 1_555
Au0 Au5 2.922364 1_455
Au0 Au5 2.922364 1_454
Au0 Au4 2.922370 1_554
Au0 Au4 2.922370 1_555
Au0 Au1 2.962198 1_445
Au0 Au2 2.962198 1_545
Au1 Au2 2.874070 1_555
Au1 Si0 2.892884 1_555
Au1 Si0 2.892884 1_554
Au1 Si1 2.918239 1_565
Au1 Si1 2.918251 1_555
Au1 Au5 2.922364 1_565
Au1 Au5 2.922364 1_564
Au1 Au3 2.922370 1_555
Au1 Au3 2.922370 1_554
Au1 Au2 2.962198 1_655
Au2 Si0 2.892884 1_554
Au2 Si0 2.892884 1_555
Au2 Si1 2.918245 1_455
Au2 Si1 2.918245 1_565
Au2 Au3 2.922364 1_455
Au2 Au3 2.922364 1_454
Au2 Au4 2.922364 1_564
Au2 Au4 2.922364 1_565
Au3 Au4 2.874070 1_555
Au3 Au5 2.874070 1_555
Au3 Si1 2.892884 1_556
Au3 Si1 2.892884 1_555
Au3 Si0 2.918239 1_655
Au3 Si0 2.918251 1_555
Au3 Au4 2.962198 1_665
Au3 Au5 2.962198 1_565
Au4 Au5 2.874070 1_555
Au4 Si1 2.892884 1_556
Au4 Si1 2.892884 1_555
Au4 Si0 2.918239 1_545
Au4 Si0 2.918251 1_555
Au4 Au5 2.962198 1_455
Au5 Si1 2.892884 1_556
Au5 Si1 2.892884 1_555
Au5 Si0 2.918245 1_545
Au5 Si0 2.918245 1_655
