# generated using pymatgen
data_RbSnBr3
_symmetry_space_group_name_H-M   'P 1'
_cell_length_a   4.51432928
_cell_length_b   9.33432247
_cell_length_c   16.63637103
_cell_angle_alpha   90.00000000
_cell_angle_beta   90.00000000
_cell_angle_gamma   90.00000000
_symmetry_Int_Tables_number   1
_chemical_formula_structural   RbSnBr3
_chemical_formula_sum   'Rb4 Sn4 Br12'
_cell_volume   701.02681683
_cell_formula_units_Z   4
loop_
 _symmetry_equiv_pos_site_id
 _symmetry_equiv_pos_as_xyz
  1  'x, y, z'
loop_
 _atom_site_type_symbol
 _atom_site_label
 _atom_site_symmetry_multiplicity
 _atom_site_fract_x
 _atom_site_fract_y
 _atom_site_fract_z
 _atom_site_occupancy
  Rb  Rb0  1  0.75000000  0.59591691  0.16451284  1
  Rb  Rb1  1  0.25000000  0.40408309  0.83548716  1
  Rb  Rb2  1  0.75000000  0.09591691  0.33548716  1
  Rb  Rb3  1  0.25000000  0.90408309  0.66451284  1
  Sn  Sn0  1  0.25000000  0.64710100  0.43395628  1
  Sn  Sn1  1  0.75000000  0.35289900  0.56604372  1
  Sn  Sn2  1  0.25000000  0.14710100  0.06604372  1
  Sn  Sn3  1  0.75000000  0.85289900  0.93395628  1
  Br  Br0  1  0.75000000  0.82812810  0.49967648  1
  Br  Br1  1  0.25000000  0.17187190  0.50032352  1
  Br  Br2  1  0.75000000  0.32812810  0.00032352  1
  Br  Br3  1  0.25000000  0.67187190  -0.00032352  1
  Br  Br4  1  0.25000000  0.52605169  0.63561681  1
  Br  Br5  1  0.75000000  0.47394831  0.36438319  1
  Br  Br6  1  0.25000000  0.02605169  0.86438319  1
  Br  Br7  1  0.75000000  0.97394831  0.13561681  1
  Br  Br8  1  0.25000000  0.80353796  0.29769210  1
  Br  Br9  1  0.75000000  0.19646204  0.70230790  1
  Br  Br10  1  0.25000000  0.30353796  0.20230790  1
  Br  Br11  1  0.75000000  0.69646204  0.79769210  1
loop_
_geom_bond_atom_site_label_1
_geom_bond_atom_site_label_2
_geom_bond_distance
_geom_bond_site_symmetry_2
Br0 Sn0 3.024153 1_555
Br0 Sn0 3.024153 1_655
Br0 Rb3 3.621816 1_555
Br0 Rb3 3.621816 1_655
Br0 Rb2 3.702608 1_565
Br1 Sn1 3.024153 1_455
Br1 Sn1 3.024153 1_555
Br1 Rb2 3.621816 1_455
Br1 Rb2 3.621816 1_555
Br1 Rb3 3.702608 1_545
Br2 Sn2 3.024153 1_555
Br2 Sn2 3.024153 1_655
Br2 Rb1 3.621816 1_654
Br2 Rb1 3.621816 1_554
Br2 Rb0 3.702608 1_555
Br3 Sn3 3.024153 1_454
Br3 Sn3 3.024153 1_554
Br3 Rb0 3.621816 1_455
Br3 Rb0 3.621816 1_555
Br3 Rb1 3.702608 1_554
Br4 Sn1 3.007786 1_455
Br4 Sn1 3.007786 1_555
Br4 Rb1 3.514623 1_555
Br4 Rb3 3.561262 1_555
Br5 Sn0 3.007786 1_555
Br5 Sn0 3.007786 1_655
Br5 Rb0 3.514623 1_555
Br5 Rb2 3.561262 1_555
Br6 Sn3 3.007786 1_445
Br6 Sn3 3.007786 1_545
Br6 Rb3 3.514623 1_545
Br6 Rb1 3.561262 1_555
Br7 Sn2 3.007786 1_565
Br7 Sn2 3.007786 1_665
Br7 Rb2 3.514623 1_565
Br7 Rb0 3.561262 1_555
Br8 Sn0 2.696536 1_555
Br8 Rb2 3.597007 1_565
Br8 Rb2 3.597007 1_465
Br8 Rb0 3.709395 1_455
Br8 Rb0 3.709395 1_555
Br9 Sn1 2.696536 1_555
Br9 Rb3 3.597007 1_645
Br9 Rb3 3.597007 1_545
Br9 Rb1 3.709395 1_555
Br9 Rb1 3.709395 1_655
Br10 Sn2 2.696536 1_555
Br10 Rb0 3.597007 1_455
Br10 Rb0 3.597007 1_555
Br10 Rb2 3.709395 1_455
Br10 Rb2 3.709395 1_555
Br11 Sn3 2.696536 1_555
Br11 Rb1 3.597007 1_655
Br11 Rb1 3.597007 1_555
Br11 Rb3 3.709395 1_655
Br11 Rb3 3.709395 1_555
