# generated using pymatgen
data_Ba(NiP)2
_symmetry_space_group_name_H-M   'P 1'
_cell_length_a   3.90949386
_cell_length_b   3.90949391
_cell_length_c   6.64359329
_cell_angle_alpha   107.11140146
_cell_angle_beta   107.11140248
_cell_angle_gamma   89.99999452
_symmetry_Int_Tables_number   1
_chemical_formula_structural   Ba(NiP)2
_chemical_formula_sum   'Ba1 Ni2 P2'
_cell_volume   92.33349375
_cell_formula_units_Z   1
loop_
 _symmetry_equiv_pos_site_id
 _symmetry_equiv_pos_as_xyz
  1  'x, y, z'
loop_
 _atom_site_type_symbol
 _atom_site_label
 _atom_site_symmetry_multiplicity
 _atom_site_fract_x
 _atom_site_fract_y
 _atom_site_fract_z
 _atom_site_occupancy
  Ba  Ba0  1  -0.00000000  -0.00000000  0.00000000  1
  Ni  Ni0  1  0.25000000  0.75000000  0.50000000  1
  Ni  Ni1  1  0.75000000  0.25000000  0.50000000  1
  P  P0  1  0.66076963  0.66076963  0.32154026  1
  P  P1  1  0.33923037  0.33923037  0.67845974  1
loop_
_geom_bond_atom_site_label_1
_geom_bond_atom_site_label_2
_geom_bond_distance
_geom_bond_site_symmetry_2
Ba0 P0 3.378643 1_555
Ba0 P1 3.378643 1_444
Ba0 P0 3.378646 1_545
Ba0 P1 3.378646 1_454
Ba0 P1 3.378646 1_544
Ba0 P0 3.378646 1_455
Ba0 P0 3.378648 1_445
Ba0 P1 3.378648 1_554
Ni0 P0 2.232336 1_555
Ni0 P1 2.232336 1_555
Ni0 P0 2.232339 1_455
Ni0 P1 2.232339 1_565
Ni1 P1 2.232336 1_555
Ni1 P0 2.232336 1_555
Ni1 P1 2.232339 1_655
Ni1 P0 2.232339 1_545
