# generated using pymatgen
data_LiAg(CO2)2
_symmetry_space_group_name_H-M   'P 1'
_cell_length_a   4.89795200
_cell_length_b   3.96091700
_cell_length_c   10.36079206
_cell_angle_alpha   87.52051045
_cell_angle_beta   90.00000000
_cell_angle_gamma   90.00000000
_symmetry_Int_Tables_number   1
_chemical_formula_structural   LiAg(CO2)2
_chemical_formula_sum   'Li2 Ag2 C4 O8'
_cell_volume   200.81513211
_cell_formula_units_Z   2
loop_
 _symmetry_equiv_pos_site_id
 _symmetry_equiv_pos_as_xyz
  1  'x, y, z'
loop_
 _atom_site_type_symbol
 _atom_site_label
 _atom_site_symmetry_multiplicity
 _atom_site_fract_x
 _atom_site_fract_y
 _atom_site_fract_z
 _atom_site_occupancy
  Li  Li0  1  0.44277700  0.10773800  0.89792400  1
  Li  Li1  1  0.94277700  0.89226200  0.10207600  1
  Ag  Ag0  1  0.54554600  0.61013800  0.58583700  1
  Ag  Ag1  1  0.04554600  0.38986200  0.41416300  1
  C  C0  1  0.44163000  0.10764200  0.17516700  1
  C  C1  1  0.94163000  0.89235800  0.82483300  1
  C  C2  1  0.56371500  0.90134600  0.29476300  1
  C  C3  1  0.06371500  0.09865400  0.70523700  1
  O  O0  1  0.70679800  0.76287700  0.81357100  1
  O  O1  1  0.20679800  0.23712300  0.18642900  1
  O  O2  1  0.93479400  0.08664300  0.59957500  1
  O  O3  1  0.43479400  0.91335700  0.40042500  1
  O  O4  1  0.08665500  0.88649600  0.92583100  1
  O  O5  1  0.58665500  0.11350400  0.07416900  1
  O  O6  1  0.27805500  0.26817700  0.72689000  1
  O  O7  1  0.77805500  0.73182300  0.27311000  1
loop_
_geom_bond_atom_site_label_1
_geom_bond_atom_site_label_2
_geom_bond_distance
_geom_bond_site_symmetry_2
Li0 O5 1.958356 1_556
Li0 O4 1.967763 1_545
Li0 O6 2.024225 1_555
Li0 O0 2.098865 1_545
Li1 O4 1.958356 1_654
Li1 O5 1.967763 1_565
Li1 O7 2.024225 1_555
Li1 O1 2.098865 1_665
Ag0 O3 2.286350 1_555
Ag0 O6 2.348533 1_555
Ag0 O0 2.584680 1_555
Ag0 O2 2.690833 1_565
Ag0 O2 2.815852 1_555
Ag1 O2 2.286350 1_455
Ag1 O7 2.348533 1_455
Ag1 O1 2.584680 1_555
Ag1 O3 2.690833 1_545
Ag1 O3 2.815852 1_555
C0 O5 1.264117 1_555
C0 O1 1.266796 1_555
C1 O4 1.264117 1_655
C1 O0 1.266796 1_555
C2 O3 1.266474 1_555
C2 O7 1.271364 1_555
C3 O2 1.266474 1_455
C3 O6 1.271364 1_555
