# generated using pymatgen
data_Ca3Tl2O6
_symmetry_space_group_name_H-M   'P 1'
_cell_length_a   3.34417582
_cell_length_b   11.28909034
_cell_length_c   16.54895805
_cell_angle_alpha   90.00000000
_cell_angle_beta   90.00000000
_cell_angle_gamma   90.00000000
_symmetry_Int_Tables_number   1
_chemical_formula_structural   Ca3Tl2O6
_chemical_formula_sum   'Ca12 Tl8 O24'
_cell_volume   624.76789731
_cell_formula_units_Z   4
loop_
 _symmetry_equiv_pos_site_id
 _symmetry_equiv_pos_as_xyz
  1  'x, y, z'
loop_
 _atom_site_type_symbol
 _atom_site_label
 _atom_site_symmetry_multiplicity
 _atom_site_fract_x
 _atom_site_fract_y
 _atom_site_fract_z
 _atom_site_occupancy
  Ca  Ca0  1  0.50000000  0.10381344  0.85423128  1
  Ca  Ca1  1  0.50000000  0.89618656  0.14576872  1
  Ca  Ca2  1  0.50000000  0.60381344  0.64576872  1
  Ca  Ca3  1  0.50000000  0.39618656  0.35423128  1
  Ca  Ca4  1  0.50000000  0.36605893  0.95981271  1
  Ca  Ca5  1  0.50000000  0.63394107  0.04018729  1
  Ca  Ca6  1  0.50000000  0.86605893  0.54018729  1
  Ca  Ca7  1  0.50000000  0.13394107  0.45981271  1
  Ca  Ca8  1  0.50000000  0.32839695  0.72547994  1
  Ca  Ca9  1  0.50000000  0.67160305  0.27452006  1
  Ca  Ca10  1  0.50000000  0.82839695  0.77452006  1
  Ca  Ca11  1  0.50000000  0.17160305  0.22547994  1
  Tl  Tl0  1  0.00000000  0.41483069  0.14819456  1
  Tl  Tl1  1  0.00000000  0.58516931  0.85180544  1
  Tl  Tl2  1  0.00000000  0.91483069  0.35180544  1
  Tl  Tl3  1  0.00000000  0.08516931  0.64819456  1
  Tl  Tl4  1  -0.00000000  0.36538151  0.54560023  1
  Tl  Tl5  1  0.00000000  0.63461849  0.45439977  1
  Tl  Tl6  1  -0.00000000  0.86538151  0.95439977  1
  Tl  Tl7  1  0.00000000  0.13461849  0.04560023  1
  O  O0  1  -0.00000000  0.19104464  0.76143283  1
  O  O1  1  -0.00000000  0.80895536  0.23856717  1
  O  O2  1  0.00000000  0.69104464  0.73856717  1
  O  O3  1  -0.00000000  0.30895536  0.26143283  1
  O  O4  1  0.50000000  0.45796167  0.83337204  1
  O  O5  1  0.50000000  0.54203833  0.16662796  1
  O  O6  1  0.50000000  0.95796167  0.66662796  1
  O  O7  1  0.50000000  0.04203833  0.33337204  1
  O  O8  1  0.50000000  0.21579731  0.59577827  1
  O  O9  1  0.50000000  0.78420269  0.40422173  1
  O  O10  1  0.50000000  0.71579731  0.90422173  1
  O  O11  1  0.50000000  0.28420269  0.09577827  1
  O  O12  1  0.50000000  0.50000000  0.50000000  1
  O  O13  1  0.50000000  -0.00000000  0.00000000  1
  O  O14  1  -0.00000000  0.21880569  0.93240340  1
  O  O15  1  0.00000000  0.78119431  0.06759660  1
  O  O16  1  0.00000000  0.71880569  0.56759660  1
  O  O17  1  0.00000000  0.28119431  0.43240340  1
  O  O18  1  0.00000000  -0.00000000  0.50000000  1
  O  O19  1  0.00000000  0.50000000  0.00000000  1
  O  O20  1  -0.00000000  0.05320367  0.15993627  1
  O  O21  1  -0.00000000  0.94679633  0.84006373  1
  O  O22  1  0.00000000  0.55320367  0.34006373  1
  O  O23  1  0.00000000  0.44679633  0.65993627  1
loop_
_geom_bond_atom_site_label_1
_geom_bond_atom_site_label_2
_geom_bond_distance
_geom_bond_site_symmetry_2
Ca0 O21 2.448038 1_545
Ca0 O21 2.448038 1_645
Ca0 O0 2.474684 1_555
Ca0 O0 2.474684 1_655
Ca0 O14 2.480860 1_555
Ca0 O14 2.480860 1_655
Ca0 O13 2.681936 1_556
Ca1 O20 2.448038 1_565
Ca1 O20 2.448038 1_665
Ca1 O1 2.474684 1_555
Ca1 O1 2.474684 1_655
Ca1 O15 2.480860 1_555
Ca1 O15 2.480860 1_655
Ca1 O13 2.681936 1_565
Ca2 O23 2.448038 1_655
Ca2 O23 2.448038 1_555
Ca2 O2 2.474684 1_555
Ca2 O2 2.474684 1_655
Ca2 O16 2.480860 1_655
Ca2 O16 2.480860 1_555
Ca2 O12 2.681936 1_555
Ca3 O22 2.448038 1_555
Ca3 O22 2.448038 1_655
Ca3 O3 2.474684 1_655
Ca3 O3 2.474684 1_555
Ca3 O17 2.480860 1_555
Ca3 O17 2.480860 1_655
Ca3 O12 2.681936 1_555
Ca4 O4 2.335551 1_555
Ca4 O19 2.350435 1_556
Ca4 O19 2.350435 1_656
Ca4 O14 2.401052 1_655
Ca4 O14 2.401052 1_555
Ca4 O11 2.432453 1_556
Ca5 O5 2.335551 1_555
Ca5 O19 2.350435 1_555
Ca5 O19 2.350435 1_655
Ca5 O15 2.401052 1_555
Ca5 O15 2.401052 1_655
Ca5 O10 2.432453 1_554
Ca6 O6 2.335551 1_555
Ca6 O18 2.350435 1_665
Ca6 O18 2.350435 1_565
Ca6 O16 2.401052 1_655
Ca6 O16 2.401052 1_555
Ca6 O9 2.432453 1_555
Ca7 O7 2.335551 1_555
Ca7 O18 2.350435 1_655
Ca7 O18 2.350435 1_555
Ca7 O17 2.401052 1_555
Ca7 O17 2.401052 1_655
Ca7 O8 2.432453 1_555
Ca8 O4 2.308119 1_555
Ca8 O0 2.356733 1_655
Ca8 O0 2.356733 1_555
Ca8 O23 2.399784 1_655
Ca8 O23 2.399784 1_555
Ca8 O8 2.494588 1_555
Ca9 O5 2.308119 1_555
Ca9 O1 2.356733 1_555
Ca9 O1 2.356733 1_655
Ca9 O22 2.399784 1_555
Ca9 O22 2.399784 1_655
Ca9 O9 2.494588 1_555
Ca10 O6 2.308119 1_555
Ca10 O2 2.356733 1_555
Ca10 O2 2.356733 1_655
Ca10 O21 2.399784 1_555
Ca10 O21 2.399784 1_655
Ca10 O10 2.494588 1_555
Ca11 O7 2.308119 1_555
Ca11 O3 2.356733 1_655
Ca11 O3 2.356733 1_555
Ca11 O20 2.399784 1_555
Ca11 O20 2.399784 1_655
Ca11 O11 2.494588 1_555
O0 Tl3 2.222695 1_555
O1 Tl2 2.222695 1_555
O2 Tl1 2.222695 1_555
O3 Tl0 2.222695 1_555
O4 Tl1 2.225129 1_555
O4 Tl1 2.225129 1_655
O5 Tl0 2.225129 1_555
O5 Tl0 2.225129 1_655
O6 Tl3 2.225129 1_665
O6 Tl3 2.225129 1_565
O7 Tl2 2.225129 1_545
O7 Tl2 2.225129 1_645
O8 Tl3 2.392274 1_655
O8 Tl3 2.392274 1_555
O8 Tl4 2.517347 1_655
O8 Tl4 2.517347 1_555
O9 Tl2 2.392274 1_555
O9 Tl2 2.392274 1_655
O9 Tl5 2.517347 1_555
O9 Tl5 2.517347 1_655
O10 Tl1 2.392274 1_555
O10 Tl1 2.392274 1_655
O10 Tl6 2.517347 1_655
O10 Tl6 2.517347 1_555
O11 Tl0 2.392274 1_655
O11 Tl0 2.392274 1_555
O11 Tl7 2.517347 1_555
O11 Tl7 2.517347 1_655
O12 Tl4 2.382206 1_655
O12 Tl4 2.382206 1_555
O12 Tl5 2.382206 1_555
O12 Tl5 2.382206 1_655
O13 Tl7 2.382206 1_555
O13 Tl7 2.382206 1_655
O13 Tl6 2.382206 1_644
O13 Tl6 2.382206 1_544
O14 Tl7 2.100588 1_556
O15 Tl6 2.100588 1_554
O16 Tl5 2.100588 1_555
O17 Tl4 2.100588 1_555
O18 Tl3 2.634206 1_555
O18 Tl2 2.634206 1_545
O19 Tl0 2.634206 1_555
O19 Tl1 2.634206 1_554
O20 Tl7 2.103556 1_555
O21 Tl6 2.103556 1_555
O22 Tl5 2.103556 1_555
O23 Tl4 2.103556 1_555
