# generated using pymatgen
data_AuBrO2
_symmetry_space_group_name_H-M   'P 1'
_cell_length_a   6.77080907
_cell_length_b   6.77080907
_cell_length_c   4.20030100
_cell_angle_alpha   90.00000000
_cell_angle_beta   90.00000000
_cell_angle_gamma   112.63668814
_symmetry_Int_Tables_number   1
_chemical_formula_structural   AuBrO2
_chemical_formula_sum   'Au2 Br2 O4'
_cell_volume   177.72408511
_cell_formula_units_Z   2
loop_
 _symmetry_equiv_pos_site_id
 _symmetry_equiv_pos_as_xyz
  1  'x, y, z'
loop_
 _atom_site_type_symbol
 _atom_site_label
 _atom_site_symmetry_multiplicity
 _atom_site_fract_x
 _atom_site_fract_y
 _atom_site_fract_z
 _atom_site_occupancy
  Au  Au0  1  0.26288800  0.26288800  0.50000000  1
  Au  Au1  1  0.73711200  0.73711200  0.00000000  1
  Br  Br0  1  0.36533400  0.63466600  0.25000000  1
  Br  Br1  1  0.63466600  0.36533400  0.75000000  1
  O  O0  1  0.01338800  0.81487300  0.71539100  1
  O  O1  1  0.18512700  0.98661200  0.78460900  1
  O  O2  1  0.81487300  0.01338800  0.28460900  1
  O  O3  1  0.98661200  0.18512700  0.21539100  1
loop_
_geom_bond_atom_site_label_1
_geom_bond_atom_site_label_2
_geom_bond_distance
_geom_bond_site_symmetry_2
Au0 O3 2.108872 1_455
Au0 O1 2.108872 1_545
Au0 Br0 2.564413 1_555
Au0 Br1 2.564413 1_555
Au1 O2 2.108872 1_565
Au1 O0 2.108872 1_654
Au1 Br0 2.564413 1_555
Au1 Br1 2.564413 1_554
O0 O1 1.322103 1_555
O2 O3 1.322103 1_555
