# generated using pymatgen
data_Nd(NiSb)2
_symmetry_space_group_name_H-M   'P 1'
_cell_length_a   4.45931772
_cell_length_b   4.45980633
_cell_length_c   9.92667805
_cell_angle_alpha   89.99973970
_cell_angle_beta   89.99910921
_cell_angle_gamma   90.00443893
_symmetry_Int_Tables_number   1
_chemical_formula_structural   Nd(NiSb)2
_chemical_formula_sum   'Nd2 Ni4 Sb4'
_cell_volume   197.41872918
_cell_formula_units_Z   2
loop_
 _symmetry_equiv_pos_site_id
 _symmetry_equiv_pos_as_xyz
  1  'x, y, z'
loop_
 _atom_site_type_symbol
 _atom_site_label
 _atom_site_symmetry_multiplicity
 _atom_site_fract_x
 _atom_site_fract_y
 _atom_site_fract_z
 _atom_site_occupancy
  Nd  Nd0  1  0.24999297  0.25000483  0.76176408  1
  Nd  Nd1  1  0.75000368  0.74999368  0.23822799  1
  Ni  Ni0  1  0.24999056  0.24999635  0.37752137  1
  Ni  Ni1  1  0.75000262  0.74999962  0.62250099  1
  Ni  Ni2  1  0.74999625  0.24999944  0.99996072  1
  Ni  Ni3  1  0.24999153  0.74999533  0.00002132  1
  Sb  Sb0  1  0.25000272  0.24999157  0.12579032  1
  Sb  Sb1  1  0.74999012  0.75000386  0.87420511  1
  Sb  Sb2  1  0.74992899  0.25004581  0.49999779  1
  Sb  Sb3  1  0.25009056  0.74995951  0.50001131  1
loop_
_geom_bond_atom_site_label_1
_geom_bond_atom_site_label_2
_geom_bond_distance
_geom_bond_site_symmetry_2
Nd0 Ni2 3.249926 1_455
Nd0 Ni2 3.249996 1_555
Nd0 Ni3 3.250544 1_556
Nd0 Ni3 3.250588 1_546
Nd0 Sb1 3.344978 1_445
Nd0 Sb1 3.344985 1_555
Nd0 Sb1 3.345209 1_455
Nd0 Sb1 3.345215 1_545
Nd0 Sb2 3.423736 1_555
Nd0 Sb3 3.423866 1_555
Nd0 Sb3 3.424145 1_545
Nd0 Sb2 3.424161 1_455
Nd0 Ni1 3.442982 1_555
Nd0 Ni1 3.442992 1_445
Nd0 Ni1 3.443178 1_455
Nd0 Ni1 3.443244 1_545
Nd1 Ni3 3.249971 1_655
Nd1 Ni3 3.250096 1_555
Nd1 Ni2 3.250628 1_554
Nd1 Ni2 3.250649 1_564
Nd1 Sb0 3.344947 1_665
Nd1 Sb0 3.344995 1_555
Nd1 Sb0 3.345196 1_655
Nd1 Sb0 3.345206 1_565
Nd1 Sb3 3.423798 1_555
Nd1 Sb2 3.423975 1_555
Nd1 Sb2 3.424293 1_565
Nd1 Sb3 3.424355 1_655
Nd1 Ni0 3.443096 1_665
Nd1 Ni0 3.443120 1_555
Nd1 Ni0 3.443296 1_655
Nd1 Ni0 3.443367 1_565
Ni0 Sb0 2.498853 1_555
Ni0 Sb2 2.539364 1_555
Ni0 Sb3 2.539728 1_555
Ni0 Sb2 2.539813 1_455
Ni0 Sb3 2.540007 1_545
Ni1 Sb1 2.498586 1_555
Ni1 Sb3 2.539324 1_555
Ni1 Sb2 2.539754 1_555
Ni1 Sb3 2.539979 1_655
Ni1 Sb2 2.540106 1_565
Ni2 Sb1 2.555533 1_545
Ni2 Sb1 2.555557 1_555
Ni2 Sb0 2.555648 1_556
Ni2 Sb0 2.555733 1_656
Ni3 Sb0 2.555600 1_565
Ni3 Sb1 2.555603 1_554
Ni3 Sb0 2.555619 1_555
Ni3 Sb1 2.555648 1_454
