# generated using pymatgen
data_Ba3Tb
_symmetry_space_group_name_H-M   'P 1'
_cell_length_a   8.41148415
_cell_length_b   8.41148415
_cell_length_c   6.76860400
_cell_angle_alpha   90.00000000
_cell_angle_beta   90.00000000
_cell_angle_gamma   120.00000117
_symmetry_Int_Tables_number   1
_chemical_formula_structural   Ba3Tb
_chemical_formula_sum   'Ba6 Tb2'
_cell_volume   414.73911305
_cell_formula_units_Z   2
loop_
 _symmetry_equiv_pos_site_id
 _symmetry_equiv_pos_as_xyz
  1  'x, y, z'
loop_
 _atom_site_type_symbol
 _atom_site_label
 _atom_site_symmetry_multiplicity
 _atom_site_fract_x
 _atom_site_fract_y
 _atom_site_fract_z
 _atom_site_occupancy
  Ba  Ba0  1  0.17188600  0.34377100  0.25000000  1
  Ba  Ba1  1  0.65622900  0.82811400  0.25000000  1
  Ba  Ba2  1  0.17188600  0.82811400  0.25000000  1
  Ba  Ba3  1  0.82811400  0.65622900  0.75000000  1
  Ba  Ba4  1  0.34377100  0.17188600  0.75000000  1
  Ba  Ba5  1  0.82811400  0.17188600  0.75000000  1
  Tb  Tb0  1  0.33333300  0.66666700  0.75000000  1
  Tb  Tb1  1  0.66666700  0.33333300  0.25000000  1
loop_
_geom_bond_atom_site_label_1
_geom_bond_atom_site_label_2
_geom_bond_distance
_geom_bond_site_symmetry_2
Ba0 Ba1 4.074043 1_555
Ba0 Ba2 4.074043 1_555
Ba0 Tb0 4.121424 1_554
Ba0 Tb0 4.121424 1_555
Ba0 Tb1 4.206429 1_455
Ba0 Tb1 4.206429 1_555
Ba0 Ba4 4.210057 1_554
Ba0 Ba4 4.210057 1_555
Ba0 Ba5 4.210066 1_454
Ba0 Ba5 4.210066 1_455
Ba0 Ba1 4.337441 1_445
Ba0 Ba2 4.337441 1_545
Ba1 Ba2 4.074043 1_555
Ba1 Tb0 4.121424 1_554
Ba1 Tb0 4.121424 1_555
Ba1 Tb1 4.206429 1_565
Ba1 Tb1 4.206429 1_555
Ba1 Ba3 4.210057 1_555
Ba1 Ba3 4.210057 1_554
Ba1 Ba5 4.210066 1_564
Ba1 Ba5 4.210066 1_565
Ba1 Ba2 4.337441 1_655
Ba2 Tb0 4.121415 1_554
Ba2 Tb0 4.121415 1_555
Ba2 Tb1 4.206429 1_455
Ba2 Tb1 4.206429 1_565
Ba2 Ba3 4.210066 1_455
Ba2 Ba3 4.210066 1_454
Ba2 Ba4 4.210066 1_565
Ba2 Ba4 4.210066 1_564
Ba3 Ba4 4.074043 1_555
Ba3 Ba5 4.074043 1_555
Ba3 Tb1 4.121424 1_555
Ba3 Tb1 4.121424 1_556
Ba3 Tb0 4.206429 1_655
Ba3 Tb0 4.206429 1_555
Ba3 Ba4 4.337441 1_665
Ba3 Ba5 4.337441 1_565
Ba4 Ba5 4.074043 1_555
Ba4 Tb1 4.121424 1_556
Ba4 Tb1 4.121424 1_555
Ba4 Tb0 4.206429 1_545
Ba4 Tb0 4.206429 1_555
Ba4 Ba5 4.337441 1_455
Ba5 Tb1 4.121415 1_556
Ba5 Tb1 4.121415 1_555
Ba5 Tb0 4.206429 1_545
Ba5 Tb0 4.206429 1_655
