# generated using pymatgen
data_SrCaIn2
_symmetry_space_group_name_H-M   'P 1'
_cell_length_a   5.59113734
_cell_length_b   5.59113002
_cell_length_c   5.59113881
_cell_angle_alpha   59.99993938
_cell_angle_beta   59.99991332
_cell_angle_gamma   59.99990466
_symmetry_Int_Tables_number   1
_chemical_formula_structural   SrCaIn2
_chemical_formula_sum   'Sr1 Ca1 In2'
_cell_volume   123.59025596
_cell_formula_units_Z   1
loop_
 _symmetry_equiv_pos_site_id
 _symmetry_equiv_pos_as_xyz
  1  'x, y, z'
loop_
 _atom_site_type_symbol
 _atom_site_label
 _atom_site_symmetry_multiplicity
 _atom_site_fract_x
 _atom_site_fract_y
 _atom_site_fract_z
 _atom_site_occupancy
  Sr  Sr0  1  0.75000000  0.75000000  0.74999900  1
  Ca  Ca0  1  0.25000000  0.25000000  0.25000000  1
  In  In0  1  0.00000000  -0.00000000  -0.00000000  1
  In  In1  1  0.50000000  0.50000000  0.50000000  1
loop_
_geom_bond_atom_site_label_1
_geom_bond_atom_site_label_2
_geom_bond_distance
_geom_bond_site_symmetry_2
Ca0 In0 3.423851 1_565
Ca0 In1 3.423851 1_545
Ca0 In1 3.423854 1_455
Ca0 In0 3.423854 1_655
Ca0 In1 3.423856 1_554
Ca0 In0 3.423856 1_556
Ca0 In1 3.423859 1_555
Ca0 In0 3.423859 1_555
In0 Sr0 3.423851 1_454
In0 Sr0 3.423852 1_445
In0 Sr0 3.423854 1_544
In0 Sr0 3.423864 1_444
In1 Sr0 3.423851 1_545
In1 Sr0 3.423854 1_455
In1 Sr0 3.423855 1_555
In1 Sr0 3.423861 1_554
