# generated using pymatgen
data_Na
_symmetry_space_group_name_H-M   'P 1'
_cell_length_a   7.56161900
_cell_length_b   7.56161900
_cell_length_c   7.56161900
_cell_angle_alpha   121.89777489
_cell_angle_beta   121.89777489
_cell_angle_gamma   86.74323159
_symmetry_Int_Tables_number   1
_chemical_formula_structural   Na
_chemical_formula_sum   Na8
_cell_volume   296.43319497
_cell_formula_units_Z   8
loop_
 _symmetry_equiv_pos_site_id
 _symmetry_equiv_pos_as_xyz
  1  'x, y, z'
loop_
 _atom_site_type_symbol
 _atom_site_label
 _atom_site_symmetry_multiplicity
 _atom_site_fract_x
 _atom_site_fract_y
 _atom_site_fract_z
 _atom_site_occupancy
  Na  Na0_0  1  0.00000000  0.00000000  0.00000000  1
  Na  Na0_1  1  0.00000000  0.00000000  0.50000000  1
  Na  Na0_2  1  0.00000000  0.50000000  0.00000000  1
  Na  Na0_3  1  0.00000000  0.50000000  0.50000000  1
  Na  Na0_4  1  0.50000000  0.00000000  0.00000000  1
  Na  Na0_5  1  0.50000000  0.00000000  0.50000000  1
  Na  Na0_6  1  0.50000000  0.50000000  0.00000000  1
  Na  Na0_7  1  0.50000000  0.50000000  0.50000000  1
loop_
_geom_bond_atom_site_label_1
_geom_bond_atom_site_label_2
_geom_bond_distance
_geom_bond_site_symmetry_2
Na0_0 Na0_5 3.671844 1_555
Na0_0 Na0_3 3.671844 1_544
Na0_0 Na0_3 3.671844 1_555
Na0_0 Na0_5 3.671844 1_454
Na0_0 Na0_2 3.780810 1_555
Na0_0 Na0_7 3.780810 1_555
Na0_0 Na0_2 3.780810 1_545
Na0_0 Na0_4 3.780810 1_455
Na0_0 Na0_1 3.780810 1_554
Na0_0 Na0_4 3.780810 1_555
Na0_0 Na0_7 3.780810 1_444
Na0_0 Na0_1 3.780810 1_555
Na0_1 Na0_2 3.671844 1_556
Na0_1 Na0_2 3.671844 1_545
Na0_1 Na0_4 3.671844 1_455
Na0_1 Na0_4 3.671844 1_556
Na0_1 Na0_6 3.780810 1_556
Na0_1 Na0_3 3.780810 1_555
Na0_1 Na0_5 3.780810 1_455
Na0_1 Na0_3 3.780810 1_545
Na0_1 Na0_6 3.780810 1_445
Na0_1 Na0_5 3.780810 1_555
Na0_2 Na0_7 3.671844 1_454
Na0_2 Na0_7 3.671844 1_555
Na0_2 Na0_6 3.780810 1_555
Na0_2 Na0_5 3.780810 1_565
Na0_2 Na0_3 3.780810 1_555
Na0_2 Na0_3 3.780810 1_554
Na0_2 Na0_5 3.780810 1_454
Na0_2 Na0_6 3.780810 1_455
Na0_3 Na0_6 3.671844 1_556
Na0_3 Na0_6 3.671844 1_455
Na0_3 Na0_7 3.780810 1_455
Na0_3 Na0_4 3.780810 1_455
Na0_3 Na0_7 3.780810 1_555
Na0_3 Na0_4 3.780810 1_566
Na0_4 Na0_7 3.671844 1_544
Na0_4 Na0_7 3.671844 1_555
Na0_4 Na0_6 3.780810 1_555
Na0_4 Na0_5 3.780810 1_554
Na0_4 Na0_6 3.780810 1_545
Na0_4 Na0_5 3.780810 1_555
Na0_5 Na0_6 3.671844 1_556
Na0_5 Na0_6 3.671844 1_545
Na0_5 Na0_7 3.780810 1_545
Na0_5 Na0_7 3.780810 1_555
Na0_6 Na0_7 3.780810 1_555
Na0_6 Na0_7 3.780810 1_554
