# generated using pymatgen
data_Ho3(In2Co)2
_symmetry_space_group_name_H-M   'P 1'
_cell_length_a   8.11668353
_cell_length_b   8.11668353
_cell_length_c   3.53360800
_cell_angle_alpha   90.00000000
_cell_angle_beta   90.00000000
_cell_angle_gamma   119.99999620
_symmetry_Int_Tables_number   1
_chemical_formula_structural   Ho3(In2Co)2
_chemical_formula_sum   'Ho3 In4 Co2'
_cell_volume   201.60729584
_cell_formula_units_Z   1
loop_
 _symmetry_equiv_pos_site_id
 _symmetry_equiv_pos_as_xyz
  1  'x, y, z'
loop_
 _atom_site_type_symbol
 _atom_site_label
 _atom_site_symmetry_multiplicity
 _atom_site_fract_x
 _atom_site_fract_y
 _atom_site_fract_z
 _atom_site_occupancy
  Ho  Ho0  1  0.25859600  0.00364000  0.50000000  1
  Ho  Ho1  1  0.99636000  0.25495600  0.50000000  1
  Ho  Ho2  1  0.74504400  0.74140400  0.50000000  1
  In  In0  1  0.66666700  0.33333300  0.50000000  1
  In  In1  1  0.04387300  0.62883700  0.00000000  1
  In  In2  1  0.37116300  0.41503600  0.00000000  1
  In  In3  1  0.58496400  0.95612700  0.00000000  1
  Co  Co0  1  0.00000000  0.00000000  0.00000000  1
  Co  Co1  1  0.33333300  0.66666700  0.50000000  1
loop_
_geom_bond_atom_site_label_1
_geom_bond_atom_site_label_2
_geom_bond_distance
_geom_bond_site_symmetry_2
Ho0 In0 3.044365 1_555
Ho0 In1 3.179908 1_546
Ho0 In1 3.179908 1_545
Ho0 In3 3.362923 1_545
Ho0 In3 3.362923 1_546
Ho0 In2 3.472111 1_556
Ho0 In2 3.472111 1_555
Ho1 In0 3.044360 1_555
Ho1 In2 3.179908 1_655
Ho1 In2 3.179908 1_656
Ho1 In1 3.362923 1_656
Ho1 In1 3.362923 1_655
Ho1 In3 3.472111 1_545
Ho1 In3 3.472111 1_546
Ho2 In0 3.044368 1_555
Ho2 In3 3.179908 1_556
Ho2 In3 3.179908 1_555
Ho2 In2 3.362923 1_555
Ho2 In2 3.362923 1_556
Ho2 In1 3.472110 1_655
Ho2 In1 3.472110 1_656
In0 In3 3.302239 1_545
In0 In3 3.302239 1_546
In0 In1 3.302241 1_655
In0 In1 3.302241 1_656
In0 In2 3.302246 1_556
In0 In2 3.302246 1_555
Co0 Ho1 2.732401 1_455
Co0 Ho1 2.732401 1_454
Co0 Ho0 2.732401 1_555
Co0 Ho0 2.732401 1_554
Co0 Ho2 2.732401 1_444
Co0 Ho2 2.732401 1_445
Co0 In1 3.205534 1_545
Co0 In3 3.205534 1_445
Co0 In2 3.205534 1_555
Co1 In1 2.830973 1_555
Co1 In1 2.830973 1_556
Co1 In3 2.830976 1_555
Co1 In3 2.830976 1_556
Co1 In2 2.830979 1_556
Co1 In2 2.830979 1_555
Co1 Ho0 3.083493 1_565
Co1 Ho1 3.083499 1_455
Co1 Ho2 3.083502 1_555
