# generated using pymatgen
data_CaSn4(PO4)6
_symmetry_space_group_name_H-M   'P 1'
_cell_length_a   9.14606012
_cell_length_b   9.14606012
_cell_length_c   9.14605984
_cell_angle_alpha   54.81709321
_cell_angle_beta   54.81709321
_cell_angle_gamma   54.81709200
_symmetry_Int_Tables_number   1
_chemical_formula_structural   CaSn4(PO4)6
_chemical_formula_sum   'Ca1 Sn4 P6 O24'
_cell_volume   475.70097143
_cell_formula_units_Z   1
loop_
 _symmetry_equiv_pos_site_id
 _symmetry_equiv_pos_as_xyz
  1  'x, y, z'
loop_
 _atom_site_type_symbol
 _atom_site_label
 _atom_site_symmetry_multiplicity
 _atom_site_fract_x
 _atom_site_fract_y
 _atom_site_fract_z
 _atom_site_occupancy
  Ca  Ca0  1  0.00000000  0.00000000  0.00000000  1
  Sn  Sn0  1  0.65082400  0.65082400  0.65082400  1
  Sn  Sn1  1  0.34917600  0.34917600  0.34917600  1
  Sn  Sn2  1  0.85216600  0.85216600  0.85216600  1
  Sn  Sn3  1  0.14783400  0.14783400  0.14783400  1
  P  P0  1  0.96200200  0.24927100  0.54312000  1
  P  P1  1  0.54312000  0.96200200  0.24927100  1
  P  P2  1  0.24927100  0.54312000  0.96200200  1
  P  P3  1  0.03799800  0.75072900  0.45688000  1
  P  P4  1  0.45688000  0.03799800  0.75072900  1
  P  P5  1  0.75072900  0.45688000  0.03799800  1
  O  O0  1  0.98403200  0.19955600  0.39561700  1
  O  O1  1  0.39561700  0.98403200  0.19955600  1
  O  O2  1  0.19955600  0.39561700  0.98403200  1
  O  O3  1  0.01596800  0.80044400  0.60438300  1
  O  O4  1  0.60438300  0.01596800  0.80044400  1
  O  O5  1  0.80044400  0.60438300  0.01596800  1
  O  O6  1  0.15812400  0.20617600  0.53290500  1
  O  O7  1  0.53290500  0.15812400  0.20617600  1
  O  O8  1  0.20617600  0.53290500  0.15812400  1
  O  O9  1  0.84187600  0.79382400  0.46709500  1
  O  O10  1  0.46709500  0.84187600  0.79382400  1
  O  O11  1  0.79382400  0.46709500  0.84187600  1
  O  O12  1  0.82709200  0.45984600  0.51356500  1
  O  O13  1  0.51356500  0.82709200  0.45984600  1
  O  O14  1  0.45984600  0.51356500  0.82709200  1
  O  O15  1  0.17290800  0.54015400  0.48643500  1
  O  O16  1  0.48643500  0.17290800  0.54015400  1
  O  O17  1  0.54015400  0.48643500  0.17290800  1
  O  O18  1  0.87681900  0.11291000  0.75120900  1
  O  O19  1  0.75120900  0.87681900  0.11291000  1
  O  O20  1  0.11291000  0.75120900  0.87681900  1
  O  O21  1  0.12318100  0.88709000  0.24879100  1
  O  O22  1  0.24879100  0.12318100  0.88709000  1
  O  O23  1  0.88709000  0.24879100  0.12318100  1
loop_
_geom_bond_atom_site_label_1
_geom_bond_atom_site_label_2
_geom_bond_distance
_geom_bond_site_symmetry_2
Ca0 O21 2.533578 1_545
Ca0 O18 2.533578 1_454
Ca0 O23 2.533578 1_455
Ca0 O20 2.533578 1_544
Ca0 O22 2.533578 1_554
Ca0 O19 2.533578 1_445
O0 P0 1.534735 1_555
O0 Sn3 2.027380 1_655
O1 P1 1.534735 1_555
O1 Sn3 2.027380 1_565
O2 P2 1.534735 1_555
O2 Sn3 2.027380 1_556
O3 P3 1.534735 1_555
O3 Sn2 2.027380 1_455
O4 P4 1.534735 1_555
O4 Sn2 2.027380 1_545
O5 P5 1.534735 1_555
O5 Sn2 2.027380 1_554
O6 P0 1.554407 1_455
O6 Sn1 2.074815 1_555
O7 P1 1.554407 1_545
O7 Sn1 2.074815 1_555
O8 P2 1.554407 1_554
O8 Sn1 2.074815 1_555
O9 P3 1.554407 1_655
O9 Sn0 2.074815 1_555
O10 P4 1.554407 1_565
O10 Sn0 2.074815 1_555
O11 P5 1.554407 1_556
O11 Sn0 2.074815 1_555
O12 P0 1.533200 1_555
O12 Sn0 2.043422 1_555
O13 P1 1.533200 1_555
O13 Sn0 2.043422 1_555
O14 P2 1.533200 1_555
O14 Sn0 2.043422 1_555
O15 P3 1.533200 1_555
O15 Sn1 2.043422 1_555
O16 P4 1.533200 1_555
O16 Sn1 2.043422 1_555
O17 P5 1.533200 1_555
O17 Sn1 2.043422 1_555
O18 P0 1.568530 1_555
O18 Sn2 2.105420 1_545
O19 P1 1.568530 1_555
O19 Sn2 2.105420 1_554
O20 P2 1.568530 1_555
O20 Sn2 2.105420 1_455
O21 P3 1.568530 1_555
O21 Sn3 2.105420 1_565
O22 P4 1.568530 1_555
O22 Sn3 2.105420 1_556
O23 P5 1.568530 1_555
O23 Sn3 2.105420 1_655
