# generated using pymatgen
data_PrIr2
_symmetry_space_group_name_H-M   'P 1'
_cell_length_a   5.43482948
_cell_length_b   5.43482877
_cell_length_c   5.43482787
_cell_angle_alpha   59.99999296
_cell_angle_beta   59.99999732
_cell_angle_gamma   60.00000112
_symmetry_Int_Tables_number   1
_chemical_formula_structural   PrIr2
_chemical_formula_sum   'Pr2 Ir4'
_cell_volume   113.51220378
_cell_formula_units_Z   2
loop_
 _symmetry_equiv_pos_site_id
 _symmetry_equiv_pos_as_xyz
  1  'x, y, z'
loop_
 _atom_site_type_symbol
 _atom_site_label
 _atom_site_symmetry_multiplicity
 _atom_site_fract_x
 _atom_site_fract_y
 _atom_site_fract_z
 _atom_site_occupancy
  Pr  Pr0  1  0.12500000  0.12500000  0.12500000  1
  Pr  Pr1  1  0.87500000  0.87500000  0.87500000  1
  Ir  Ir0  1  -0.00000000  0.50000000  0.50000000  1
  Ir  Ir1  1  0.50000000  0.00000000  0.50000000  1
  Ir  Ir2  1  0.50000000  0.50000000  0.00000000  1
  Ir  Ir3  1  0.50000000  0.50000000  0.50000000  1
loop_
_geom_bond_atom_site_label_1
_geom_bond_atom_site_label_2
_geom_bond_distance
_geom_bond_site_symmetry_2
Ir0 Ir2 2.717414 1_555
Ir0 Ir2 2.717414 1_456
Ir0 Ir1 2.717415 1_555
Ir0 Ir1 2.717415 1_465
Ir0 Ir3 2.717415 1_555
Ir0 Ir3 2.717415 1_455
Ir0 Pr0 3.186450 1_556
Ir0 Pr1 3.186450 1_454
Ir0 Pr0 3.186451 1_565
Ir0 Pr1 3.186451 1_445
Ir0 Pr1 3.186451 1_455
Ir0 Pr0 3.186451 1_555
Ir1 Ir2 2.717414 1_555
Ir1 Ir2 2.717414 1_546
Ir1 Ir3 2.717414 1_555
Ir1 Ir3 2.717414 1_545
Ir1 Pr0 3.186450 1_556
Ir1 Pr1 3.186450 1_544
Ir1 Pr0 3.186451 1_555
Ir1 Pr1 3.186451 1_545
Ir1 Pr0 3.186451 1_655
Ir1 Pr1 3.186451 1_445
Ir2 Ir3 2.717414 1_555
Ir2 Ir3 2.717414 1_554
Ir2 Pr0 3.186451 1_565
Ir2 Pr1 3.186451 1_544
Ir2 Pr1 3.186451 1_554
Ir2 Pr0 3.186451 1_555
Ir2 Pr0 3.186451 1_655
Ir2 Pr1 3.186451 1_454
Ir3 Pr1 3.186450 1_554
Ir3 Pr0 3.186450 1_556
Ir3 Pr0 3.186451 1_565
Ir3 Pr1 3.186451 1_545
Ir3 Pr1 3.186451 1_455
Ir3 Pr0 3.186451 1_655
