# generated using pymatgen
data_RbAgBr3
_symmetry_space_group_name_H-M   'P 1'
_cell_length_a   5.44682444
_cell_length_b   5.44682444
_cell_length_c   5.44716975
_cell_angle_alpha   89.87304177
_cell_angle_beta   89.87304177
_cell_angle_gamma   90.00257360
_symmetry_Int_Tables_number   1
_chemical_formula_structural   RbAgBr3
_chemical_formula_sum   'Rb1 Ag1 Br3'
_cell_volume   161.60527477
_cell_formula_units_Z   1
loop_
 _symmetry_equiv_pos_site_id
 _symmetry_equiv_pos_as_xyz
  1  'x, y, z'
loop_
 _atom_site_type_symbol
 _atom_site_label
 _atom_site_symmetry_multiplicity
 _atom_site_fract_x
 _atom_site_fract_y
 _atom_site_fract_z
 _atom_site_occupancy
  Rb  Rb0  1  0.99989100  0.99989100  0.00292900  1
  Ag  Ag0  1  0.49599100  0.49599100  0.51612900  1
  Br  Br0  1  0.99898100  0.49237600  0.51423700  1
  Br  Br1  1  0.50453400  0.50453400  0.01577900  1
  Br  Br2  1  0.49237600  0.99898100  0.51423700  1
loop_
_geom_bond_atom_site_label_1
_geom_bond_atom_site_label_2
_geom_bond_distance
_geom_bond_site_symmetry_2
Ag0 Br0 2.707240 1_455
Ag0 Br2 2.707240 1_545
Ag0 Br1 2.722680 1_556
Ag0 Br1 2.726080 1_555
Ag0 Br0 2.739767 1_555
Ag0 Br2 2.739767 1_555
Br0 Rb0 3.774959 1_546
Br0 Rb0 3.841937 1_556
Br0 Rb0 3.871176 1_545
Br0 Rb0 3.919781 1_555
Br1 Rb0 3.816059 1_555
Br1 Rb0 3.852377 1_545
Br1 Rb0 3.852377 1_455
Br1 Rb0 3.888014 1_445
Br2 Rb0 3.774959 1_456
Br2 Rb0 3.841937 1_556
Br2 Rb0 3.871176 1_455
Br2 Rb0 3.919781 1_555
