# generated using pymatgen
data_NaBH4
_symmetry_space_group_name_H-M   'P 1'
_cell_length_a   4.26969287
_cell_length_b   4.26969287
_cell_length_c   4.26969287
_cell_angle_alpha   60.00000000
_cell_angle_beta   60.00000000
_cell_angle_gamma   60.00000000
_symmetry_Int_Tables_number   1
_chemical_formula_structural   NaBH4
_chemical_formula_sum   'Na1 B1 H4'
_cell_volume   55.03955450
_cell_formula_units_Z   1
loop_
 _symmetry_equiv_pos_site_id
 _symmetry_equiv_pos_as_xyz
  1  'x, y, z'
loop_
 _atom_site_type_symbol
 _atom_site_label
 _atom_site_symmetry_multiplicity
 _atom_site_fract_x
 _atom_site_fract_y
 _atom_site_fract_z
 _atom_site_occupancy
  Na  Na0  1  -0.00000000  -0.00000000  -0.00000000  1
  B  B0  1  0.50000100  0.50000100  0.50000100  1
  H  H0  1  0.38367029  0.38367029  0.38367029  1
  H  H1  1  0.38367029  0.38367029  0.84899113  1
  H  H2  1  0.84899113  0.38367029  0.38367029  1
  H  H3  1  0.38367029  0.84899113  0.38367029  1
loop_
_geom_bond_atom_site_label_1
_geom_bond_atom_site_label_2
_geom_bond_distance
_geom_bond_site_symmetry_2
B0 H1 1.216646 1_555
B0 H3 1.216646 1_555
B0 H2 1.216646 1_555
B0 H0 1.216653 1_555
H0 Na0 2.520697 1_556
H0 Na0 2.520697 1_565
H0 Na0 2.520697 1_655
H1 Na0 2.520693 1_566
H1 Na0 2.520693 1_656
H1 Na0 2.520700 1_556
H2 Na0 2.520693 1_665
H2 Na0 2.520693 1_656
H2 Na0 2.520700 1_655
H3 Na0 2.520693 1_665
H3 Na0 2.520693 1_566
H3 Na0 2.520700 1_565
