# generated using pymatgen
data_Mg(CrSe2)2
_symmetry_space_group_name_H-M   'P 1'
_cell_length_a   7.57844578
_cell_length_b   7.57844578
_cell_length_c   7.57844578
_cell_angle_alpha   60.00000000
_cell_angle_beta   60.00000000
_cell_angle_gamma   60.00000000
_symmetry_Int_Tables_number   1
_chemical_formula_structural   Mg(CrSe2)2
_chemical_formula_sum   'Mg2 Cr4 Se8'
_cell_volume   307.76940512
_cell_formula_units_Z   2
loop_
 _symmetry_equiv_pos_site_id
 _symmetry_equiv_pos_as_xyz
  1  'x, y, z'
loop_
 _atom_site_type_symbol
 _atom_site_label
 _atom_site_symmetry_multiplicity
 _atom_site_fract_x
 _atom_site_fract_y
 _atom_site_fract_z
 _atom_site_occupancy
  Mg  Mg0  1  0.25000000  0.25000000  0.25000000  1
  Mg  Mg1  1  -0.00000000  -0.00000000  -0.00000000  1
  Cr  Cr0  1  0.62500000  0.12500000  0.62500000  1
  Cr  Cr1  1  0.62500000  0.62500000  0.12500000  1
  Cr  Cr2  1  0.12500000  0.62500000  0.62500000  1
  Cr  Cr3  1  0.62500000  0.62500000  0.62500000  1
  Se  Se0  1  0.38730120  0.83809640  0.38730120  1
  Se  Se1  1  0.86269880  0.86269880  0.41190360  1
  Se  Se2  1  0.86269880  0.86269880  0.86269880  1
  Se  Se3  1  0.41190360  0.86269880  0.86269880  1
  Se  Se4  1  0.38730120  0.38730120  0.38730120  1
  Se  Se5  1  0.83809640  0.38730120  0.38730120  1
  Se  Se6  1  0.86269880  0.41190360  0.86269880  1
  Se  Se7  1  0.38730120  0.38730120  0.83809640  1
loop_
_geom_bond_atom_site_label_1
_geom_bond_atom_site_label_2
_geom_bond_distance
_geom_bond_site_symmetry_2
Mg0 Se5 2.548767 1_455
Mg0 Se4 2.548767 1_555
Mg0 Se0 2.548767 1_545
Mg0 Se7 2.548767 1_554
Mg1 Se1 2.548767 1_445
Mg1 Se6 2.548767 1_454
Mg1 Se2 2.548767 1_444
Mg1 Se3 2.548767 1_544
Cr0 Se5 2.554360 1_555
Cr0 Se3 2.554360 1_545
Cr0 Se4 2.554360 1_555
Cr0 Se2 2.554360 1_545
Cr0 Se7 2.554360 1_555
Cr0 Se1 2.554360 1_545
Cr1 Se5 2.554360 1_555
Cr1 Se2 2.554360 1_554
Cr1 Se0 2.554360 1_555
Cr1 Se3 2.554360 1_554
Cr1 Se4 2.554360 1_555
Cr1 Se6 2.554360 1_554
Cr2 Se0 2.554360 1_555
Cr2 Se4 2.554360 1_555
Cr2 Se7 2.554360 1_555
Cr2 Se2 2.554360 1_455
Cr2 Se6 2.554360 1_455
Cr2 Se1 2.554360 1_455
Cr3 Se3 2.554360 1_555
Cr3 Se5 2.554360 1_555
Cr3 Se6 2.554360 1_555
Cr3 Se0 2.554360 1_555
Cr3 Se1 2.554360 1_555
Cr3 Se7 2.554360 1_555
