# generated using pymatgen
data_RbS
_symmetry_space_group_name_H-M   'P 1'
_cell_length_a   8.91022901
_cell_length_b   8.91022915
_cell_length_c   6.09029722
_cell_angle_alpha   90.00000000
_cell_angle_beta   90.00000000
_cell_angle_gamma   120.00000337
_symmetry_Int_Tables_number   1
_chemical_formula_structural   RbS
_chemical_formula_sum   'Rb6 S6'
_cell_volume   418.74230970
_cell_formula_units_Z   6
loop_
 _symmetry_equiv_pos_site_id
 _symmetry_equiv_pos_as_xyz
  1  'x, y, z'
loop_
 _atom_site_type_symbol
 _atom_site_label
 _atom_site_symmetry_multiplicity
 _atom_site_fract_x
 _atom_site_fract_y
 _atom_site_fract_z
 _atom_site_occupancy
  Rb  Rb0  1  -0.00000000  0.30401650  0.50000000  1
  Rb  Rb1  1  0.69598350  0.69598350  0.50000000  1
  Rb  Rb2  1  0.30401650  -0.00000000  0.50000000  1
  Rb  Rb3  1  -0.00000000  0.63998306  -0.00000000  1
  Rb  Rb4  1  0.36001694  0.36001694  -0.00000000  1
  Rb  Rb5  1  0.63998306  -0.00000000  -0.00000000  1
  S  S0  1  0.66666700  0.33333300  0.32512246  1
  S  S1  1  0.66666700  0.33333300  0.67487754  1
  S  S2  1  0.33333300  0.66666700  0.67487754  1
  S  S3  1  0.33333300  0.66666700  0.32512246  1
  S  S4  1  0.00000000  0.00000000  0.82644764  1
  S  S5  1  0.00000000  0.00000000  0.17355236  1
loop_
_geom_bond_atom_site_label_1
_geom_bond_atom_site_label_2
_geom_bond_distance
_geom_bond_site_symmetry_2
Rb0 S1 3.286297 1_455
Rb0 S0 3.286297 1_455
Rb0 S2 3.286302 1_555
Rb0 S3 3.286302 1_555
Rb0 S5 3.360163 1_555
Rb0 S4 3.360163 1_555
Rb1 S2 3.286305 1_555
Rb1 S3 3.286305 1_555
Rb1 S0 3.286305 1_555
Rb1 S1 3.286305 1_555
Rb1 S5 3.360163 1_665
Rb1 S4 3.360163 1_665
Rb2 S2 3.286297 1_545
Rb2 S3 3.286297 1_545
Rb2 S0 3.286302 1_555
Rb2 S1 3.286302 1_555
Rb2 S5 3.360163 1_555
Rb2 S4 3.360163 1_555
Rb3 S4 3.377486 1_564
Rb3 S5 3.377486 1_565
Rb3 S3 3.477422 1_555
Rb3 S2 3.477422 1_554
Rb3 S0 3.477426 1_455
Rb3 S1 3.477426 1_454
Rb4 S5 3.377486 1_555
Rb4 S4 3.377486 1_554
Rb4 S0 3.477430 1_555
Rb4 S1 3.477430 1_554
Rb4 S3 3.477430 1_555
Rb4 S2 3.477430 1_554
Rb5 S4 3.377486 1_654
Rb5 S5 3.377486 1_655
Rb5 S0 3.477422 1_555
Rb5 S1 3.477422 1_554
Rb5 S3 3.477426 1_545
Rb5 S2 3.477426 1_544
S0 S1 2.130112 1_555
S2 S3 2.130112 1_555
S4 S5 2.113971 1_556
