# generated using pymatgen
data_Sm2C(NO)2
_symmetry_space_group_name_H-M   'P 1'
_cell_length_a   3.85577156
_cell_length_b   3.85577156
_cell_length_c   8.30820200
_cell_angle_alpha   90.00000000
_cell_angle_beta   90.00000000
_cell_angle_gamma   119.99999252
_symmetry_Int_Tables_number   1
_chemical_formula_structural   Sm2C(NO)2
_chemical_formula_sum   'Sm2 C1 N2 O2'
_cell_volume   106.96958326
_cell_formula_units_Z   1
loop_
 _symmetry_equiv_pos_site_id
 _symmetry_equiv_pos_as_xyz
  1  'x, y, z'
loop_
 _atom_site_type_symbol
 _atom_site_label
 _atom_site_symmetry_multiplicity
 _atom_site_fract_x
 _atom_site_fract_y
 _atom_site_fract_z
 _atom_site_occupancy
  Sm  Sm0  1  0.66666700  0.33333300  0.82088000  1
  Sm  Sm1  1  0.33333300  0.66666700  0.17912000  1
  C  C0  1  0.00000000  0.00000000  0.50000000  1
  N  N0  1  0.00000000  0.00000000  0.35110700  1
  N  N1  1  0.00000000  0.00000000  0.64889300  1
  O  O0  1  0.66666700  0.33333300  0.10323500  1
  O  O1  1  0.33333300  0.66666700  0.89676500  1
loop_
_geom_bond_atom_site_label_1
_geom_bond_atom_site_label_2
_geom_bond_distance
_geom_bond_site_symmetry_2
C0 N1 1.237033 1_555
C0 N0 1.237033 1_555
N0 Sm1 2.645262 1_545
N0 Sm1 2.645265 1_555
N0 Sm1 2.645265 1_445
N1 Sm0 2.645262 1_455
N1 Sm0 2.645265 1_555
N1 Sm0 2.645265 1_445
O0 Sm1 2.313685 1_545
O0 Sm1 2.313685 1_655
O0 Sm1 2.313691 1_555
O0 Sm0 2.345862 1_554
O1 Sm0 2.313685 1_455
O1 Sm0 2.313685 1_565
O1 Sm0 2.313691 1_555
O1 Sm1 2.345862 1_556
