# generated using pymatgen
data_Lu2GaAg
_symmetry_space_group_name_H-M   'P 1'
_cell_length_a   4.95805774
_cell_length_b   4.95805774
_cell_length_c   4.95805774
_cell_angle_alpha   60.00000000
_cell_angle_beta   60.00000000
_cell_angle_gamma   60.00000000
_symmetry_Int_Tables_number   1
_chemical_formula_structural   Lu2GaAg
_chemical_formula_sum   'Lu2 Ga1 Ag1'
_cell_volume   86.18262992
_cell_formula_units_Z   1
loop_
 _symmetry_equiv_pos_site_id
 _symmetry_equiv_pos_as_xyz
  1  'x, y, z'
loop_
 _atom_site_type_symbol
 _atom_site_label
 _atom_site_symmetry_multiplicity
 _atom_site_fract_x
 _atom_site_fract_y
 _atom_site_fract_z
 _atom_site_occupancy
  Lu  Lu0  1  -0.00000000  -0.00000000  -0.00000000  1
  Lu  Lu1  1  0.49999900  0.49999900  0.49999900  1
  Ga  Ga0  1  0.75000000  0.75000000  0.75000000  1
  Ag  Ag0  1  0.25000100  0.25000100  0.25000100  1
loop_
_geom_bond_atom_site_label_1
_geom_bond_atom_site_label_2
_geom_bond_distance
_geom_bond_site_symmetry_2
Ga0 Lu1 3.036174 1_655
Ga0 Lu1 3.036174 1_556
Ga0 Lu1 3.036174 1_565
Ga0 Lu0 3.036178 1_566
Ga0 Lu0 3.036178 1_665
Ga0 Lu0 3.036178 1_666
Ga0 Lu0 3.036178 1_656
Ga0 Lu1 3.036190 1_555
Ag0 Lu1 3.036154 1_555
Ag0 Lu0 3.036174 1_556
Ag0 Lu0 3.036174 1_565
Ag0 Lu0 3.036174 1_655
Ag0 Lu1 3.036186 1_554
Ag0 Lu1 3.036186 1_455
Ag0 Lu1 3.036186 1_545
Ag0 Lu0 3.036190 1_555
