# generated using pymatgen
data_H6PbCI3N
_symmetry_space_group_name_H-M   'P 1'
_cell_length_a   8.55672600
_cell_length_b   9.25046000
_cell_length_c   12.96365000
_cell_angle_alpha   90.00000000
_cell_angle_beta   90.00000000
_cell_angle_gamma   90.00000000
_symmetry_Int_Tables_number   1
_chemical_formula_structural   H6PbCI3N
_chemical_formula_sum   'H24 Pb4 C4 I12 N4'
_cell_volume   1026.12023549
_cell_formula_units_Z   4
loop_
 _symmetry_equiv_pos_site_id
 _symmetry_equiv_pos_as_xyz
  1  'x, y, z'
loop_
 _atom_site_type_symbol
 _atom_site_label
 _atom_site_symmetry_multiplicity
 _atom_site_fract_x
 _atom_site_fract_y
 _atom_site_fract_z
 _atom_site_occupancy
  H  H0  1  0.49426400  0.14297400  0.31462400  1
  H  H1  1  0.50573600  0.85702600  0.68537600  1
  H  H2  1  0.00573600  0.64297400  0.68537600  1
  H  H3  1  0.99426400  0.35702600  0.31462400  1
  H  H4  1  0.50573600  0.85702600  0.81462400  1
  H  H5  1  0.49426400  0.14297400  0.18537600  1
  H  H6  1  0.99426400  0.35702600  0.18537600  1
  H  H7  1  0.00573600  0.64297400  0.81462400  1
  H  H8  1  0.33805900  0.07863200  0.25000000  1
  H  H9  1  0.66194100  0.92136800  0.75000000  1
  H  H10  1  0.16194100  0.57863200  0.75000000  1
  H  H11  1  0.83805900  0.42136800  0.25000000  1
  H  H12  1  0.49477500  0.87988900  0.31923900  1
  H  H13  1  0.50522500  0.12011100  0.68076100  1
  H  H14  1  0.00522500  0.37988900  0.68076100  1
  H  H15  1  0.99477500  0.62011100  0.31923900  1
  H  H16  1  0.50522500  0.12011100  0.81923900  1
  H  H17  1  0.49477500  0.87988900  0.18076100  1
  H  H18  1  0.99477500  0.62011100  0.18076100  1
  H  H19  1  0.00522500  0.37988900  0.81923900  1
  H  H20  1  0.65984800  0.94966300  0.25000000  1
  H  H21  1  0.34015200  0.05033700  0.75000000  1
  H  H22  1  0.84015200  0.44966300  0.75000000  1
  H  H23  1  0.15984800  0.55033700  0.25000000  1
  Pb  Pb0  1  0.50000000  0.50000000  0.00000000  1
  Pb  Pb1  1  0.00000000  0.00000000  0.00000000  1
  Pb  Pb2  1  0.50000000  0.50000000  0.50000000  1
  Pb  Pb3  1  0.00000000  0.00000000  0.50000000  1
  C  C0  1  0.53235500  0.93783800  0.25000000  1
  C  C1  1  0.46764500  0.06216200  0.75000000  1
  C  C2  1  0.96764500  0.43783800  0.75000000  1
  C  C3  1  0.03235500  0.56216200  0.25000000  1
  I  I0  1  0.53773300  0.51259600  0.25000000  1
  I  I1  1  0.46226700  0.48740400  0.75000000  1
  I  I2  1  0.96226700  0.01259600  0.75000000  1
  I  I3  1  0.03773300  0.98740400  0.25000000  1
  I  I4  1  0.81606600  0.69283900  0.97785300  1
  I  I5  1  0.18393400  0.30716100  0.02214700  1
  I  I6  1  0.68393400  0.19283900  0.02214700  1
  I  I7  1  0.31606600  0.80716100  0.97785300  1
  I  I8  1  0.18393400  0.30716100  0.47785300  1
  I  I9  1  0.81606600  0.69283900  0.52214700  1
  I  I10  1  0.31606600  0.80716100  0.52214700  1
  I  I11  1  0.68393400  0.19283900  0.47785300  1
  N  N0  1  0.45960900  0.08486300  0.25000000  1
  N  N1  1  0.54039100  0.91513700  0.75000000  1
  N  N2  1  0.04039100  0.58486300  0.75000000  1
  N  N3  1  0.95960900  0.41513700  0.25000000  1
loop_
_geom_bond_atom_site_label_1
_geom_bond_atom_site_label_2
_geom_bond_distance
_geom_bond_site_symmetry_2
H0 N0 1.038625 1_555
H1 N1 1.038625 1_555
H2 N2 1.038625 1_555
H3 N3 1.038625 1_555
H4 N1 1.038625 1_555
H5 N0 1.038625 1_555
H6 N3 1.038625 1_555
H7 N2 1.038625 1_555
H8 N0 1.041666 1_555
H9 N1 1.041666 1_555
H10 N2 1.041666 1_555
H11 N3 1.041666 1_555
C0 H17 1.093812 1_555
C0 H12 1.093812 1_555
C0 H20 1.096393 1_555
C0 N0 1.495727 1_565
C1 H13 1.093812 1_555
C1 H16 1.093812 1_555
C1 H21 1.096393 1_555
C1 N1 1.495727 1_545
C2 H14 1.093812 1_655
C2 H19 1.093812 1_655
C2 H22 1.096393 1_555
C2 N2 1.495727 1_655
C3 H18 1.093812 1_455
C3 H15 1.093812 1_455
C3 H23 1.096393 1_555
C3 N3 1.495727 1_455
I0 Pb2 3.259039 1_555
I0 Pb0 3.259039 1_555
I1 Pb0 3.259039 1_556
I1 Pb2 3.259039 1_555
I2 Pb1 3.259039 1_656
I2 Pb3 3.259039 1_655
I3 Pb3 3.259039 1_565
I3 Pb1 3.259039 1_565
I4 Pb0 3.252509 1_556
I4 Pb1 3.260820 1_666
I5 Pb0 3.252509 1_555
I5 Pb1 3.260820 1_555
I6 Pb1 3.252509 1_655
I6 Pb0 3.260820 1_555
I7 Pb1 3.252509 1_566
I7 Pb0 3.260820 1_556
I8 Pb2 3.252509 1_555
I8 Pb3 3.260820 1_555
I9 Pb2 3.252509 1_555
I9 Pb3 3.260820 1_665
I10 Pb3 3.252509 1_565
I10 Pb2 3.260820 1_555
I11 Pb3 3.252509 1_655
I11 Pb2 3.260820 1_555
