# generated using pymatgen
data_Nb3CrSe6
_symmetry_space_group_name_H-M   'P 1'
_cell_length_a   6.05742458
_cell_length_b   6.05741750
_cell_length_c   12.88579506
_cell_angle_alpha   90.00071568
_cell_angle_beta   89.99949670
_cell_angle_gamma   120.00009885
_symmetry_Int_Tables_number   1
_chemical_formula_structural   Nb3CrSe6
_chemical_formula_sum   'Nb6 Cr2 Se12'
_cell_volume   409.46514816
_cell_formula_units_Z   2
loop_
 _symmetry_equiv_pos_site_id
 _symmetry_equiv_pos_as_xyz
  1  'x, y, z'
loop_
 _atom_site_type_symbol
 _atom_site_label
 _atom_site_symmetry_multiplicity
 _atom_site_fract_x
 _atom_site_fract_y
 _atom_site_fract_z
 _atom_site_occupancy
  Nb  Nb0  1  0.33333332  0.66666884  -0.00106774  1
  Nb  Nb1  1  -0.00000050  -0.00000022  0.99994897  1
  Nb  Nb2  1  0.00000138  0.00000015  0.50004671  1
  Nb  Nb3  1  0.33333503  0.66666638  0.50106447  1
  Nb  Nb4  1  0.66666072  0.33333426  0.00095797  1
  Nb  Nb5  1  0.66666849  0.33333269  0.49904517  1
  Cr  Cr0  1  0.33333166  0.66666563  0.24998644  1
  Cr  Cr1  1  0.66666684  0.33333377  0.75001289  1
  Se  Se0  1  0.33285722  0.00234891  0.12976983  1
  Se  Se1  1  0.66708730  0.99762203  0.62983338  1
  Se  Se2  1  0.99765314  0.33051089  0.12976839  1
  Se  Se3  1  0.66945867  0.00234107  0.37022746  1
  Se  Se4  1  0.33288739  0.33053834  0.37022791  1
  Se  Se5  1  0.99765491  0.66711118  0.37022832  1
  Se  Se6  1  0.66949140  0.66714595  0.12977023  1
  Se  Se7  1  0.33053766  0.33291821  0.62983342  1
  Se  Se8  1  0.00238374  0.66946864  0.62983327  1
  Se  Se9  1  0.33051970  0.99763014  0.87016869  1
  Se  Se10  1  0.66710878  0.66947318  0.87017124  1
  Se  Se11  1  0.00236314  0.33288895  0.87017097  1
loop_
_geom_bond_atom_site_label_1
_geom_bond_atom_site_label_2
_geom_bond_distance
_geom_bond_site_symmetry_2
Nb0 Se10 2.608936 1_554
Nb0 Se11 2.608949 1_554
Nb0 Se9 2.608958 1_554
Nb0 Se0 2.642486 1_565
Nb0 Se2 2.642498 1_455
Nb0 Se6 2.642525 1_555
Nb1 Se10 2.614183 1_445
Nb1 Se9 2.614183 1_545
Nb1 Se11 2.614201 1_555
Nb1 Se2 2.614403 1_456
Nb1 Se6 2.614422 1_446
Nb1 Se0 2.614438 1_556
Nb2 Se1 2.614330 1_445
Nb2 Se7 2.614343 1_555
Nb2 Se8 2.614343 1_545
Nb2 Se5 2.614540 1_445
Nb2 Se4 2.614546 1_555
Nb2 Se3 2.614565 1_455
Nb3 Se8 2.608902 1_555
Nb3 Se1 2.608913 1_555
Nb3 Se7 2.608914 1_555
Nb3 Se3 2.642412 1_565
Nb3 Se4 2.642412 1_555
Nb3 Se5 2.642431 1_455
Nb4 Se6 2.609458 1_555
Nb4 Se0 2.609464 1_555
Nb4 Se2 2.609508 1_555
Nb4 Se10 2.642085 1_554
Nb4 Se11 2.642109 1_654
Nb4 Se9 2.642119 1_544
Nb5 Se5 2.609449 1_555
Nb5 Se3 2.609456 1_555
Nb5 Se4 2.609468 1_555
Nb5 Se7 2.642112 1_555
Nb5 Se1 2.642121 1_545
Nb5 Se8 2.642124 1_655
Cr0 Se6 2.557351 1_555
Cr0 Se2 2.557354 1_455
Cr0 Se0 2.557383 1_565
Cr0 Se5 2.557455 1_455
Cr0 Se3 2.557459 1_565
Cr0 Se4 2.557503 1_555
Cr1 Se10 2.556888 1_555
Cr1 Se11 2.556915 1_655
Cr1 Se9 2.556920 1_545
Cr1 Se1 2.557070 1_545
Cr1 Se7 2.557095 1_555
Cr1 Se8 2.557108 1_655
