# generated using pymatgen
data_LiMg2Pd
_symmetry_space_group_name_H-M   'P 1'
_cell_length_a   4.54918495
_cell_length_b   4.54918495
_cell_length_c   4.54918495
_cell_angle_alpha   60.00000000
_cell_angle_beta   60.00000000
_cell_angle_gamma   60.00000000
_symmetry_Int_Tables_number   1
_chemical_formula_structural   LiMg2Pd
_chemical_formula_sum   'Li1 Mg2 Pd1'
_cell_volume   66.57110787
_cell_formula_units_Z   1
loop_
 _symmetry_equiv_pos_site_id
 _symmetry_equiv_pos_as_xyz
  1  'x, y, z'
loop_
 _atom_site_type_symbol
 _atom_site_label
 _atom_site_symmetry_multiplicity
 _atom_site_fract_x
 _atom_site_fract_y
 _atom_site_fract_z
 _atom_site_occupancy
  Li  Li0  1  0.24999900  0.24999900  0.24999900  1
  Mg  Mg0  1  0.00000000  -0.00000000  -0.00000000  1
  Mg  Mg1  1  0.49999900  0.49999900  0.49999900  1
  Pd  Pd0  1  0.75000000  0.75000000  0.75000000  1
loop_
_geom_bond_atom_site_label_1
_geom_bond_atom_site_label_2
_geom_bond_distance
_geom_bond_site_symmetry_2
Li0 Mg0 2.785784 1_555
Li0 Mg1 2.785795 1_555
Li0 Mg1 2.785795 1_545
Li0 Mg1 2.785795 1_554
Li0 Mg1 2.785795 1_455
Li0 Mg0 2.785799 1_556
Li0 Mg0 2.785799 1_655
Li0 Mg0 2.785799 1_565
Mg0 Pd0 2.785795 1_544
Mg0 Pd0 2.785795 1_454
Mg0 Pd0 2.785795 1_444
Mg0 Pd0 2.785795 1_445
Mg1 Pd0 2.785792 1_545
Mg1 Pd0 2.785792 1_554
Mg1 Pd0 2.785792 1_455
Mg1 Pd0 2.785807 1_555
