# generated using pymatgen
data_NaZrCuS3
_symmetry_space_group_name_H-M   'P 1'
_cell_length_a   6.81193218
_cell_length_b   6.81193218
_cell_length_c   9.80788000
_cell_angle_alpha   90.00000000
_cell_angle_beta   90.00000000
_cell_angle_gamma   148.38130313
_symmetry_Int_Tables_number   1
_chemical_formula_structural   NaZrCuS3
_chemical_formula_sum   'Na2 Zr2 Cu2 S6'
_cell_volume   238.59737300
_cell_formula_units_Z   2
loop_
 _symmetry_equiv_pos_site_id
 _symmetry_equiv_pos_as_xyz
  1  'x, y, z'
loop_
 _atom_site_type_symbol
 _atom_site_label
 _atom_site_symmetry_multiplicity
 _atom_site_fract_x
 _atom_site_fract_y
 _atom_site_fract_z
 _atom_site_occupancy
  Na  Na0  1  0.24915600  0.75084400  0.75000000  1
  Na  Na1  1  0.75084400  0.24915600  0.25000000  1
  Zr  Zr0  1  0.00000000  0.00000000  0.50000000  1
  Zr  Zr1  1  0.00000000  0.00000000  0.00000000  1
  Cu  Cu0  1  0.52966300  0.47033700  0.75000000  1
  Cu  Cu1  1  0.47033700  0.52966300  0.25000000  1
  S  S0  1  0.07802600  0.92197400  0.25000000  1
  S  S1  1  0.63059300  0.36940700  0.93991000  1
  S  S2  1  0.92197400  0.07802600  0.75000000  1
  S  S3  1  0.63059300  0.36940700  0.56009000  1
  S  S4  1  0.36940700  0.63059300  0.06009000  1
  S  S5  1  0.36940700  0.63059300  0.43991000  1
loop_
_geom_bond_atom_site_label_1
_geom_bond_atom_site_label_2
_geom_bond_distance
_geom_bond_site_symmetry_2
Na0 S2 2.928492 1_455
Na0 S2 2.928492 1_565
Na0 S3 3.054326 1_455
Na0 S3 3.054326 1_565
Na0 S1 3.054326 1_455
Na0 S1 3.054326 1_565
Na1 S0 2.928492 1_545
Na1 S0 2.928492 1_655
Na1 S5 3.054326 1_545
Na1 S4 3.054326 1_545
Na1 S5 3.054326 1_655
Na1 S4 3.054326 1_655
Cu0 S3 2.284683 1_555
Cu0 S1 2.284683 1_555
Cu0 S2 2.331699 1_565
Cu0 S2 2.331699 1_455
Cu1 S5 2.284683 1_555
Cu1 S4 2.284683 1_555
Cu1 S0 2.331699 1_655
Cu1 S0 2.331699 1_545
S0 Zr0 2.656744 1_565
S0 Zr1 2.656744 1_565
S1 Zr1 2.592674 1_666
S1 Zr1 2.592674 1_556
S2 Zr0 2.656744 1_655
S2 Zr1 2.656744 1_656
S3 Zr0 2.592674 1_665
S3 Zr0 2.592674 1_555
S4 Zr1 2.592674 1_555
S4 Zr1 2.592674 1_665
S5 Zr0 2.592674 1_555
S5 Zr0 2.592674 1_665
