# generated using pymatgen
data_TmBiPd2
_symmetry_space_group_name_H-M   'P 1'
_cell_length_a   4.88133347
_cell_length_b   4.88133347
_cell_length_c   4.88133347
_cell_angle_alpha   60.00000000
_cell_angle_beta   60.00000000
_cell_angle_gamma   60.00000000
_symmetry_Int_Tables_number   1
_chemical_formula_structural   TmBiPd2
_chemical_formula_sum   'Tm1 Bi1 Pd2'
_cell_volume   82.24328256
_cell_formula_units_Z   1
loop_
 _symmetry_equiv_pos_site_id
 _symmetry_equiv_pos_as_xyz
  1  'x, y, z'
loop_
 _atom_site_type_symbol
 _atom_site_label
 _atom_site_symmetry_multiplicity
 _atom_site_fract_x
 _atom_site_fract_y
 _atom_site_fract_z
 _atom_site_occupancy
  Tm  Tm0  1  0.00000000  0.00000000  0.00000000  1
  Bi  Bi0  1  0.50000000  0.50000000  0.50000000  1
  Pd  Pd0  1  0.25000000  0.25000000  0.25000000  1
  Pd  Pd1  1  0.75000000  0.75000000  0.75000000  1
loop_
_geom_bond_atom_site_label_1
_geom_bond_atom_site_label_2
_geom_bond_distance
_geom_bond_site_symmetry_2
Bi0 Pd0 2.989194 1_555
Bi0 Pd0 2.989194 1_565
Bi0 Pd1 2.989194 1_555
Bi0 Pd1 2.989194 1_545
Bi0 Pd0 2.989194 1_556
Bi0 Pd1 2.989194 1_554
Bi0 Pd0 2.989194 1_655
Bi0 Pd1 2.989194 1_455
Bi0 Tm0 3.451624 1_566
Bi0 Tm0 3.451624 1_656
Bi0 Tm0 3.451624 1_665
Bi0 Tm0 3.451624 1_655
Bi0 Tm0 3.451624 1_556
Bi0 Tm0 3.451624 1_565
Pd0 Tm0 2.989194 1_555
Pd0 Tm0 2.989194 1_556
Pd0 Tm0 2.989194 1_565
Pd0 Tm0 2.989194 1_655
Pd1 Tm0 2.989194 1_666
Pd1 Tm0 2.989194 1_665
Pd1 Tm0 2.989194 1_656
Pd1 Tm0 2.989194 1_566
