# generated using pymatgen
data_NaNiO2
_symmetry_space_group_name_H-M   'P 1'
_cell_length_a   2.99877806
_cell_length_b   2.99877806
_cell_length_c   10.67902100
_cell_angle_alpha   90.00000000
_cell_angle_beta   90.00000000
_cell_angle_gamma   120.00000137
_symmetry_Int_Tables_number   1
_chemical_formula_structural   NaNiO2
_chemical_formula_sum   'Na2 Ni2 O4'
_cell_volume   83.16693881
_cell_formula_units_Z   2
loop_
 _symmetry_equiv_pos_site_id
 _symmetry_equiv_pos_as_xyz
  1  'x, y, z'
loop_
 _atom_site_type_symbol
 _atom_site_label
 _atom_site_symmetry_multiplicity
 _atom_site_fract_x
 _atom_site_fract_y
 _atom_site_fract_z
 _atom_site_occupancy
  Na  Na0  1  0.66666700  0.33333300  0.25000000  1
  Na  Na1  1  0.33333300  0.66666700  0.75000000  1
  Ni  Ni0  1  0.00000000  0.00000000  0.50000000  1
  Ni  Ni1  1  0.00000000  0.00000000  0.00000000  1
  O  O0  1  0.33333300  0.66666700  0.40289600  1
  O  O1  1  0.66666700  0.33333300  0.59710400  1
  O  O2  1  0.66666700  0.33333300  0.90289600  1
  O  O3  1  0.33333300  0.66666700  0.09710400  1
loop_
_geom_bond_atom_site_label_1
_geom_bond_atom_site_label_2
_geom_bond_distance
_geom_bond_site_symmetry_2
Na0 O0 2.379815 1_545
Na0 O0 2.379815 1_655
Na0 O3 2.379815 1_545
Na0 O3 2.379815 1_655
Na0 O3 2.379819 1_555
Na0 O0 2.379819 1_555
Na1 O2 2.379815 1_455
Na1 O2 2.379815 1_565
Na1 O1 2.379815 1_455
Na1 O1 2.379815 1_565
Na1 O2 2.379819 1_555
Na1 O1 2.379819 1_555
Ni0 O1 2.018135 1_455
Ni0 O0 2.018135 1_545
Ni0 O1 2.018137 1_555
Ni0 O1 2.018137 1_445
Ni0 O0 2.018137 1_555
Ni0 O0 2.018137 1_445
Ni1 O3 2.018135 1_545
Ni1 O2 2.018135 1_454
Ni1 O3 2.018137 1_445
Ni1 O3 2.018137 1_555
Ni1 O2 2.018137 1_554
Ni1 O2 2.018137 1_444
