# generated using pymatgen
data_PrTlTe2
_symmetry_space_group_name_H-M   'P 1'
_cell_length_a   4.60999140
_cell_length_b   4.60999100
_cell_length_c   8.54537811
_cell_angle_alpha   74.35144269
_cell_angle_beta   74.35143915
_cell_angle_gamma   59.99999529
_symmetry_Int_Tables_number   1
_chemical_formula_structural   PrTlTe2
_chemical_formula_sum   'Pr1 Tl1 Te2'
_cell_volume   149.45262691
_cell_formula_units_Z   1
loop_
 _symmetry_equiv_pos_site_id
 _symmetry_equiv_pos_as_xyz
  1  'x, y, z'
loop_
 _atom_site_type_symbol
 _atom_site_label
 _atom_site_symmetry_multiplicity
 _atom_site_fract_x
 _atom_site_fract_y
 _atom_site_fract_z
 _atom_site_occupancy
  Pr  Pr0  1  -0.00000000  0.00000000  0.00000000  1
  Tl  Tl0  1  0.50000000  0.50000000  0.50000000  1
  Te  Te0  1  0.74092738  0.74092738  0.77721786  1
  Te  Te1  1  0.25907262  0.25907262  0.22278214  1
loop_
_geom_bond_atom_site_label_1
_geom_bond_atom_site_label_2
_geom_bond_distance
_geom_bond_site_symmetry_2
Pr0 Te1 3.218184 1_545
Pr0 Te0 3.218184 1_454
Pr0 Te1 3.218184 1_455
Pr0 Te0 3.218184 1_544
Pr0 Te1 3.218184 1_555
Pr0 Te0 3.218184 1_444
Te0 Tl0 3.485891 1_565
Te0 Tl0 3.485891 1_655
Te0 Tl0 3.485891 1_555
Te1 Tl0 3.485891 1_545
Te1 Tl0 3.485891 1_455
Te1 Tl0 3.485891 1_555
