# generated using pymatgen
data_NdZn2Cd
_symmetry_space_group_name_H-M   'P 1'
_cell_length_a   4.87522966
_cell_length_b   4.87522966
_cell_length_c   4.87522966
_cell_angle_alpha   60.00000000
_cell_angle_beta   60.00000000
_cell_angle_gamma   60.00000000
_symmetry_Int_Tables_number   1
_chemical_formula_structural   NdZn2Cd
_chemical_formula_sum   'Nd1 Zn2 Cd1'
_cell_volume   81.93514723
_cell_formula_units_Z   1
loop_
 _symmetry_equiv_pos_site_id
 _symmetry_equiv_pos_as_xyz
  1  'x, y, z'
loop_
 _atom_site_type_symbol
 _atom_site_label
 _atom_site_symmetry_multiplicity
 _atom_site_fract_x
 _atom_site_fract_y
 _atom_site_fract_z
 _atom_site_occupancy
  Nd  Nd0  1  0.75000000  0.75000000  0.75000000  1
  Zn  Zn0  1  0.00000000  0.00000000  -0.00000000  1
  Zn  Zn1  1  0.50000000  0.50000000  0.50000000  1
  Cd  Cd0  1  0.25000000  0.25000000  0.25000000  1
loop_
_geom_bond_atom_site_label_1
_geom_bond_atom_site_label_2
_geom_bond_distance
_geom_bond_site_symmetry_2
Nd0 Zn0 2.985456 1_665
Nd0 Zn1 2.985456 1_555
Nd0 Zn1 2.985456 1_556
Nd0 Zn0 2.985456 1_666
Nd0 Zn1 2.985456 1_565
Nd0 Zn1 2.985456 1_655
Nd0 Zn0 2.985456 1_656
Nd0 Zn0 2.985456 1_566
Cd0 Zn0 2.985456 1_555
Cd0 Zn0 2.985456 1_556
Cd0 Zn1 2.985456 1_555
Cd0 Zn1 2.985456 1_554
Cd0 Zn1 2.985456 1_545
Cd0 Zn0 2.985456 1_565
Cd0 Zn0 2.985456 1_655
Cd0 Zn1 2.985456 1_455
