# generated using pymatgen
data_RbNa3
_symmetry_space_group_name_H-M   'P 1'
_cell_length_a   8.63217047
_cell_length_b   8.63216910
_cell_length_c   6.36998176
_cell_angle_alpha   90.00000000
_cell_angle_beta   90.00000000
_cell_angle_gamma   119.99999719
_symmetry_Int_Tables_number   1
_chemical_formula_structural   RbNa3
_chemical_formula_sum   'Rb2 Na6'
_cell_volume   411.06337184
_cell_formula_units_Z   2
loop_
 _symmetry_equiv_pos_site_id
 _symmetry_equiv_pos_as_xyz
  1  'x, y, z'
loop_
 _atom_site_type_symbol
 _atom_site_label
 _atom_site_symmetry_multiplicity
 _atom_site_fract_x
 _atom_site_fract_y
 _atom_site_fract_z
 _atom_site_occupancy
  Rb  Rb0  1  0.33333300  0.66666700  0.75000000  1
  Rb  Rb1  1  0.66666600  0.33333300  0.25000100  1
  Na  Na0  1  0.14303089  0.28606177  0.25000100  1
  Na  Na1  1  0.71393823  0.85696811  0.25000100  1
  Na  Na2  1  0.14302989  0.85696811  0.25000100  1
  Na  Na3  1  0.85696911  0.71393723  0.75000000  1
  Na  Na4  1  0.28606177  0.14303089  0.75000000  1
  Na  Na5  1  0.85696811  0.14303089  0.75000000  1
loop_
_geom_bond_atom_site_label_1
_geom_bond_atom_site_label_2
_geom_bond_distance
_geom_bond_site_symmetry_2
Na0 Na2 3.704005 1_545
Na0 Na1 3.704005 1_445
Na0 Na4 3.836318 1_555
Na0 Na5 3.836322 1_455
Na0 Na4 3.836328 1_554
Na0 Na5 3.836333 1_454
Na0 Rb0 4.270803 1_555
Na0 Rb0 4.270812 1_554
Na0 Rb1 4.330524 1_555
Na0 Rb1 4.330532 1_455
Na1 Na2 3.703992 1_655
Na1 Na3 3.836318 1_555
Na1 Na5 3.836322 1_565
Na1 Na3 3.836328 1_554
Na1 Na5 3.836332 1_564
Na1 Rb0 4.270803 1_555
Na1 Rb0 4.270813 1_554
Na1 Rb1 4.330519 1_555
Na1 Rb1 4.330537 1_565
Na2 Na3 3.836314 1_455
Na2 Na4 3.836322 1_565
Na2 Na3 3.836324 1_454
Na2 Na4 3.836332 1_564
Na2 Rb0 4.270798 1_555
Na2 Rb0 4.270807 1_554
Na2 Rb1 4.330523 1_455
Na2 Rb1 4.330532 1_565
Na3 Na4 3.704005 1_665
Na3 Na5 3.704013 1_565
Na3 Rb1 4.270798 1_555
Na3 Rb1 4.270807 1_556
Na3 Rb0 4.330519 1_655
Na3 Rb0 4.330536 1_555
Na4 Na5 3.704010 1_455
Na4 Rb1 4.270798 1_555
Na4 Rb1 4.270808 1_556
Na4 Rb0 4.330523 1_545
Na4 Rb0 4.330532 1_555
Na5 Rb1 4.270798 1_555
Na5 Rb1 4.270807 1_556
Na5 Rb0 4.330524 1_545
Na5 Rb0 4.330532 1_655
