# generated using pymatgen
data_SmDy3
_symmetry_space_group_name_H-M   'P 1'
_cell_length_a   7.33387550
_cell_length_b   7.33387475
_cell_length_c   5.61659500
_cell_angle_alpha   89.99999967
_cell_angle_beta   89.99999984
_cell_angle_gamma   120.00001920
_symmetry_Int_Tables_number   1
_chemical_formula_structural   SmDy3
_chemical_formula_sum   'Sm2 Dy6'
_cell_volume   261.61984174
_cell_formula_units_Z   2
loop_
 _symmetry_equiv_pos_site_id
 _symmetry_equiv_pos_as_xyz
  1  'x, y, z'
loop_
 _atom_site_type_symbol
 _atom_site_label
 _atom_site_symmetry_multiplicity
 _atom_site_fract_x
 _atom_site_fract_y
 _atom_site_fract_z
 _atom_site_occupancy
  Sm  Sm0  1  0.66666630  0.33333302  0.25000086  1
  Sm  Sm1  1  0.33333321  0.66666596  0.75000028  1
  Dy  Dy0  1  0.83443672  0.16556263  0.75000012  1
  Dy  Dy1  1  0.33112423  0.16556281  0.75000013  1
  Dy  Dy2  1  0.83443700  0.66887529  0.75000015  1
  Dy  Dy3  1  0.16557310  0.83442690  0.25000084  1
  Dy  Dy4  1  0.66885361  0.83442720  0.25000082  1
  Dy  Dy5  1  0.16557183  0.33114518  0.25000080  1
loop_
_geom_bond_atom_site_label_1
_geom_bond_atom_site_label_2
_geom_bond_distance
_geom_bond_site_symmetry_2
Dy0 Dy5 3.508523 1_655
Dy0 Dy4 3.508524 1_545
Dy0 Dy5 3.508529 1_656
Dy0 Dy4 3.508530 1_546
Dy0 Sm0 3.525368 1_555
Dy0 Sm0 3.525374 1_556
Dy0 Dy1 3.642644 1_655
Dy0 Dy2 3.642644 1_545
Dy0 Sm1 3.666963 1_655
Dy0 Sm1 3.666964 1_545
Dy0 Dy2 3.691231 1_555
Dy0 Dy1 3.691232 1_555
Dy1 Dy5 3.508522 1_555
Dy1 Dy3 3.508526 1_545
Dy1 Dy5 3.508528 1_556
Dy1 Dy3 3.508532 1_546
Dy1 Sm0 3.525372 1_555
Dy1 Sm0 3.525379 1_556
Dy1 Dy2 3.642642 1_445
Dy1 Sm1 3.666954 1_555
Dy1 Sm1 3.666974 1_545
Dy1 Dy2 3.691231 1_555
Dy2 Dy4 3.508524 1_555
Dy2 Dy3 3.508527 1_655
Dy2 Dy4 3.508530 1_556
Dy2 Dy3 3.508533 1_656
Dy2 Sm0 3.525373 1_555
Dy2 Sm0 3.525379 1_556
Dy2 Sm1 3.666958 1_555
Dy2 Sm1 3.666971 1_655
Dy3 Sm1 3.525293 1_555
Dy3 Sm1 3.525298 1_554
Dy3 Dy5 3.642874 1_565
Dy3 Dy4 3.642880 1_455
Dy3 Sm0 3.666960 1_565
Dy3 Sm0 3.666965 1_455
Dy3 Dy4 3.690996 1_555
Dy3 Dy5 3.691000 1_555
Dy4 Sm1 3.525290 1_555
Dy4 Sm1 3.525295 1_554
Dy4 Dy5 3.642867 1_665
Dy4 Sm0 3.666960 1_565
Dy4 Sm0 3.666968 1_555
Dy4 Dy5 3.691006 1_555
Dy5 Sm1 3.525291 1_555
Dy5 Sm1 3.525296 1_554
Dy5 Sm0 3.666960 1_455
Dy5 Sm0 3.666968 1_555
