# generated using pymatgen
data_BaY2PdO5
_symmetry_space_group_name_H-M   'P 1'
_cell_length_a   6.59917300
_cell_length_b   6.59917300
_cell_length_c   5.93197400
_cell_angle_alpha   90.00000000
_cell_angle_beta   90.00000000
_cell_angle_gamma   90.00000000
_symmetry_Int_Tables_number   1
_chemical_formula_structural   BaY2PdO5
_chemical_formula_sum   'Ba2 Y4 Pd2 O10'
_cell_volume   258.33203570
_cell_formula_units_Z   2
loop_
 _symmetry_equiv_pos_site_id
 _symmetry_equiv_pos_as_xyz
  1  'x, y, z'
loop_
 _atom_site_type_symbol
 _atom_site_label
 _atom_site_symmetry_multiplicity
 _atom_site_fract_x
 _atom_site_fract_y
 _atom_site_fract_z
 _atom_site_occupancy
  Ba  Ba0  1  0.50000000  0.50000000  0.00000000  1
  Ba  Ba1  1  0.00000000  0.00000000  0.00000000  1
  Y  Y0  1  0.67391700  0.82608300  0.50000000  1
  Y  Y1  1  0.82608300  0.32608300  0.50000000  1
  Y  Y2  1  0.17391700  0.67391700  0.50000000  1
  Y  Y3  1  0.32608300  0.17391700  0.50000000  1
  Pd  Pd0  1  0.50000000  0.00000000  0.00000000  1
  Pd  Pd1  1  0.00000000  0.50000000  0.00000000  1
  O  O0  1  0.50000000  0.50000000  0.50000000  1
  O  O1  1  0.00000000  0.00000000  0.50000000  1
  O  O2  1  0.14020500  0.35979500  0.74014300  1
  O  O3  1  0.85979500  0.64020500  0.74014300  1
  O  O4  1  0.64020500  0.14020500  0.74014300  1
  O  O5  1  0.35979500  0.85979500  0.74014300  1
  O  O6  1  0.85979500  0.64020500  0.25985700  1
  O  O7  1  0.64020500  0.14020500  0.25985700  1
  O  O8  1  0.14020500  0.35979500  0.25985700  1
  O  O9  1  0.35979500  0.85979500  0.25985700  1
loop_
_geom_bond_atom_site_label_1
_geom_bond_atom_site_label_2
_geom_bond_distance
_geom_bond_site_symmetry_2
Ba0 O0 2.965987 1_554
Ba0 O0 2.965987 1_555
Ba0 O7 2.978206 1_555
Ba0 O4 2.978206 1_554
Ba0 O2 2.978206 1_554
Ba0 O5 2.978206 1_554
Ba0 O8 2.978206 1_555
Ba0 O9 2.978206 1_555
Ba0 O6 2.978206 1_555
Ba0 O3 2.978206 1_554
Ba1 O1 2.965987 1_555
Ba1 O1 2.965987 1_554
Ba1 O7 2.978206 1_455
Ba1 O5 2.978206 1_544
Ba1 O9 2.978206 1_545
Ba1 O2 2.978206 1_554
Ba1 O8 2.978206 1_555
Ba1 O4 2.978206 1_454
Ba1 O3 2.978206 1_444
Ba1 O6 2.978206 1_445
O0 Y2 2.438814 1_555
O0 Y0 2.438814 1_555
O0 Y1 2.438814 1_555
O0 Y3 2.438814 1_555
O1 Y1 2.438814 1_455
O1 Y2 2.438814 1_545
O1 Y0 2.438814 1_445
O1 Y3 2.438814 1_555
O2 Pd1 2.021940 1_556
O2 Y3 2.244674 1_555
O2 Y1 2.525046 1_455
O2 Y2 2.525046 1_555
O3 Pd1 2.021940 1_656
O3 Y0 2.244674 1_555
O3 Y2 2.525046 1_655
O3 Y1 2.525046 1_555
O4 Pd0 2.021940 1_556
O4 Y1 2.244674 1_555
O4 Y0 2.525046 1_545
O4 Y3 2.525046 1_555
O5 Pd0 2.021940 1_566
O5 Y2 2.244674 1_555
O5 Y3 2.525046 1_565
O5 Y0 2.525046 1_555
O6 Pd1 2.021940 1_655
O6 Y0 2.244674 1_555
O6 Y2 2.525046 1_655
O6 Y1 2.525046 1_555
O7 Pd0 2.021940 1_555
O7 Y1 2.244674 1_555
O7 Y0 2.525046 1_545
O7 Y3 2.525046 1_555
O8 Pd1 2.021940 1_555
O8 Y3 2.244674 1_555
O8 Y1 2.525046 1_455
O8 Y2 2.525046 1_555
O9 Pd0 2.021940 1_565
O9 Y2 2.244674 1_555
O9 Y3 2.525046 1_565
O9 Y0 2.525046 1_555
