# generated using pymatgen
data_SmErTl2
_symmetry_space_group_name_H-M   'P 1'
_cell_length_a   5.36179317
_cell_length_b   5.36179317
_cell_length_c   5.36179317
_cell_angle_alpha   60.00000000
_cell_angle_beta   60.00000000
_cell_angle_gamma   60.00000000
_symmetry_Int_Tables_number   1
_chemical_formula_structural   SmErTl2
_chemical_formula_sum   'Sm1 Er1 Tl2'
_cell_volume   108.99715786
_cell_formula_units_Z   1
loop_
 _symmetry_equiv_pos_site_id
 _symmetry_equiv_pos_as_xyz
  1  'x, y, z'
loop_
 _atom_site_type_symbol
 _atom_site_label
 _atom_site_symmetry_multiplicity
 _atom_site_fract_x
 _atom_site_fract_y
 _atom_site_fract_z
 _atom_site_occupancy
  Sm  Sm0  1  0.74999900  0.74999900  0.74999900  1
  Er  Er0  1  0.25000000  0.25000000  0.25000000  1
  Tl  Tl0  1  -0.00000000  -0.00000000  -0.00000000  1
  Tl  Tl1  1  0.50000000  0.50000000  0.50000000  1
loop_
_geom_bond_atom_site_label_1
_geom_bond_atom_site_label_2
_geom_bond_distance
_geom_bond_site_symmetry_2
Sm0 Tl1 3.283401 1_555
Sm0 Tl0 3.283410 1_665
Sm0 Tl0 3.283410 1_656
Sm0 Tl0 3.283410 1_566
Sm0 Tl1 3.283419 1_655
Sm0 Tl1 3.283419 1_556
Sm0 Tl1 3.283419 1_565
Sm0 Tl0 3.283427 1_666
Er0 Tl0 3.283414 1_556
Er0 Tl0 3.283414 1_555
Er0 Tl0 3.283414 1_565
Er0 Tl1 3.283414 1_455
Er0 Tl1 3.283414 1_555
Er0 Tl1 3.283414 1_545
Er0 Tl1 3.283414 1_554
Er0 Tl0 3.283414 1_655
