# generated using pymatgen
data_LiLa3
_symmetry_space_group_name_H-M   'P 1'
_cell_length_a   7.37529043
_cell_length_b   7.37529043
_cell_length_c   5.45343300
_cell_angle_alpha   90.00000000
_cell_angle_beta   90.00000000
_cell_angle_gamma   120.00000388
_symmetry_Int_Tables_number   1
_chemical_formula_structural   LiLa3
_chemical_formula_sum   'Li2 La6'
_cell_volume   256.89689243
_cell_formula_units_Z   2
loop_
 _symmetry_equiv_pos_site_id
 _symmetry_equiv_pos_as_xyz
  1  'x, y, z'
loop_
 _atom_site_type_symbol
 _atom_site_label
 _atom_site_symmetry_multiplicity
 _atom_site_fract_x
 _atom_site_fract_y
 _atom_site_fract_z
 _atom_site_occupancy
  Li  Li0  1  0.66666700  0.33333300  0.25000000  1
  Li  Li1  1  0.33333300  0.66666700  0.75000000  1
  La  La0  1  0.82495200  0.17504800  0.75000000  1
  La  La1  1  0.35009500  0.17504800  0.75000000  1
  La  La2  1  0.82495200  0.64990500  0.75000000  1
  La  La3  1  0.17504800  0.35009500  0.25000000  1
  La  La4  1  0.64990500  0.82495200  0.25000000  1
  La  La5  1  0.17504800  0.82495200  0.25000000  1
loop_
_geom_bond_atom_site_label_1
_geom_bond_atom_site_label_2
_geom_bond_distance
_geom_bond_site_symmetry_2
La0 Li0 3.394619 1_556
La0 Li0 3.394619 1_555
La0 La1 3.502208 1_555
La0 La2 3.502208 1_555
La0 La3 3.526366 1_656
La0 La4 3.526366 1_545
La0 La3 3.526366 1_655
La0 La4 3.526366 1_546
La0 Li1 3.689199 1_545
La0 Li1 3.689199 1_655
La0 La2 3.873082 1_545
La0 La1 3.873082 1_655
La1 Li0 3.394626 1_556
La1 Li0 3.394626 1_555
La1 La2 3.502208 1_555
La1 La3 3.526358 1_556
La1 La3 3.526358 1_555
La1 La5 3.526366 1_546
La1 La5 3.526366 1_545
La1 Li1 3.689199 1_545
La1 Li1 3.689199 1_555
La1 La2 3.873082 1_445
La2 Li0 3.394626 1_556
La2 Li0 3.394626 1_555
La2 La4 3.526358 1_556
La2 La4 3.526358 1_555
La2 La5 3.526366 1_656
La2 La5 3.526366 1_655
La2 Li1 3.689199 1_655
La2 Li1 3.689199 1_555
La3 Li1 3.394626 1_555
La3 Li1 3.394626 1_554
La3 La4 3.502208 1_555
La3 La5 3.502208 1_555
La3 Li0 3.689199 1_455
La3 Li0 3.689199 1_555
La3 La4 3.873082 1_445
La3 La5 3.873082 1_545
La4 Li1 3.394626 1_554
La4 Li1 3.394626 1_555
La4 La5 3.502208 1_555
La4 Li0 3.689199 1_565
La4 Li0 3.689199 1_555
La4 La5 3.873082 1_655
La5 Li1 3.394619 1_555
La5 Li1 3.394619 1_554
La5 Li0 3.689199 1_455
La5 Li0 3.689199 1_565
