# generated using pymatgen
data_AlCr2C
_symmetry_space_group_name_H-M   'P 1'
_cell_length_a   5.65020266
_cell_length_b   5.65020160
_cell_length_c   25.20274736
_cell_angle_alpha   90.00000000
_cell_angle_beta   90.00000000
_cell_angle_gamma   120.00000610
_symmetry_Int_Tables_number   1
_chemical_formula_structural   AlCr2C
_chemical_formula_sum   'Al16 Cr32 C16'
_cell_volume   696.79730114
_cell_formula_units_Z   16
loop_
 _symmetry_equiv_pos_site_id
 _symmetry_equiv_pos_as_xyz
  1  'x, y, z'
loop_
 _atom_site_type_symbol
 _atom_site_label
 _atom_site_symmetry_multiplicity
 _atom_site_fract_x
 _atom_site_fract_y
 _atom_site_fract_z
 _atom_site_occupancy
  Al  Al0_0  1  0.33333350  0.16666650  0.12498884  1
  Al  Al0_1  1  0.33333350  0.16666650  0.62498884  1
  Al  Al0_2  1  0.33333350  0.66666650  0.12498884  1
  Al  Al0_3  1  0.33333350  0.66666650  0.62498884  1
  Al  Al0_4  1  0.83333350  0.16666650  0.12498884  1
  Al  Al0_5  1  0.83333350  0.16666650  0.62498884  1
  Al  Al0_6  1  0.83333350  0.66666650  0.12498884  1
  Al  Al0_7  1  0.83333350  0.66666650  0.62498884  1
  Al  Al1_0  1  0.16666650  0.33333350  0.37501544  1
  Al  Al1_1  1  0.16666650  0.33333350  0.87501544  1
  Al  Al1_2  1  0.16666650  0.83333350  0.37501544  1
  Al  Al1_3  1  0.16666650  0.83333350  0.87501544  1
  Al  Al1_4  1  0.66666650  0.33333350  0.37501544  1
  Al  Al1_5  1  0.66666650  0.33333350  0.87501544  1
  Al  Al1_6  1  0.66666650  0.83333350  0.37501544  1
  Al  Al1_7  1  0.66666650  0.83333350  0.87501544  1
  Cr  Cr0_0  1  0.16666650  0.33333350  0.20747058  1
  Cr  Cr0_1  1  0.16666650  0.33333350  0.70747058  1
  Cr  Cr0_2  1  0.16666650  0.83333350  0.20747058  1
  Cr  Cr0_3  1  0.16666650  0.83333350  0.70747058  1
  Cr  Cr0_4  1  0.66666650  0.33333350  0.20747058  1
  Cr  Cr0_5  1  0.66666650  0.33333350  0.70747058  1
  Cr  Cr0_6  1  0.66666650  0.83333350  0.20747058  1
  Cr  Cr0_7  1  0.66666650  0.83333350  0.70747058  1
  Cr  Cr1_0  1  0.33333350  0.16666650  0.45753377  1
  Cr  Cr1_1  1  0.33333350  0.16666650  0.95753377  1
  Cr  Cr1_2  1  0.33333350  0.66666650  0.45753377  1
  Cr  Cr1_3  1  0.33333350  0.66666650  0.95753377  1
  Cr  Cr1_4  1  0.83333350  0.16666650  0.45753377  1
  Cr  Cr1_5  1  0.83333350  0.16666650  0.95753377  1
  Cr  Cr1_6  1  0.83333350  0.66666650  0.45753377  1
  Cr  Cr1_7  1  0.83333350  0.66666650  0.95753377  1
  Cr  Cr2_0  1  0.33333350  0.16666650  0.29250369  1
  Cr  Cr2_1  1  0.33333350  0.16666650  0.79250369  1
  Cr  Cr2_2  1  0.33333350  0.66666650  0.29250369  1
  Cr  Cr2_3  1  0.33333350  0.66666650  0.79250369  1
  Cr  Cr2_4  1  0.83333350  0.16666650  0.29250369  1
  Cr  Cr2_5  1  0.83333350  0.16666650  0.79250369  1
  Cr  Cr2_6  1  0.83333350  0.66666650  0.29250369  1
  Cr  Cr2_7  1  0.83333350  0.66666650  0.79250369  1
  Cr  Cr3_0  1  0.16666650  0.33333350  0.04249287  1
  Cr  Cr3_1  1  0.16666650  0.33333350  0.54249287  1
  Cr  Cr3_2  1  0.16666650  0.83333350  0.04249287  1
  Cr  Cr3_3  1  0.16666650  0.83333350  0.54249287  1
  Cr  Cr3_4  1  0.66666650  0.33333350  0.04249287  1
  Cr  Cr3_5  1  0.66666650  0.33333350  0.54249287  1
  Cr  Cr3_6  1  0.66666650  0.83333350  0.04249287  1
  Cr  Cr3_7  1  0.66666650  0.83333350  0.54249287  1
  C  C0_0  1  0.00000000  0.00000000  0.24999124  1
  C  C0_1  1  0.00000000  0.00000000  0.74999124  1
  C  C0_2  1  0.00000000  0.50000000  0.24999124  1
  C  C0_3  1  0.00000000  0.50000000  0.74999124  1
  C  C0_4  1  0.50000000  0.00000000  0.24999124  1
  C  C0_5  1  0.50000000  0.00000000  0.74999124  1
  C  C0_6  1  0.50000000  0.50000000  0.24999124  1
  C  C0_7  1  0.50000000  0.50000000  0.74999124  1
  C  C1_0  1  0.00000000  0.00000000  0.00000407  1
  C  C1_1  1  0.00000000  0.00000000  0.50000407  1
  C  C1_2  1  0.00000000  0.50000000  0.00000407  1
  C  C1_3  1  0.00000000  0.50000000  0.50000407  1
  C  C1_4  1  0.50000000  0.00000000  0.00000407  1
  C  C1_5  1  0.50000000  0.00000000  0.50000407  1
  C  C1_6  1  0.50000000  0.50000000  0.00000407  1
  C  C1_7  1  0.50000000  0.50000000  0.50000407  1
loop_
_geom_bond_atom_site_label_1
_geom_bond_atom_site_label_2
_geom_bond_distance
_geom_bond_site_symmetry_2
Al0_0 Cr0_2 2.642284 1_545
Al0_0 Cr0_4 2.642284 1_555
Al0_0 Cr0_0 2.642287 1_555
Al0_0 Cr3_2 2.642566 1_545
Al0_0 Cr3_4 2.642566 1_555
Al0_0 Cr3_0 2.642569 1_555
Al0_0 Al0_2 2.825101 1_545
Al0_0 Al0_2 2.825101 1_555
Al0_0 Al0_6 2.825101 1_445
Al0_0 Al0_6 2.825101 1_555
Al0_0 Al0_4 2.825101 1_455
Al0_0 Al0_4 2.825101 1_555
Al0_1 Cr0_3 2.642284 1_545
Al0_1 Cr0_5 2.642284 1_555
Al0_1 Cr0_1 2.642287 1_555
Al0_1 Cr3_3 2.642566 1_545
Al0_1 Cr3_5 2.642566 1_555
Al0_1 Cr3_1 2.642569 1_555
Al0_1 Al0_3 2.825101 1_545
Al0_1 Al0_3 2.825101 1_555
Al0_1 Al0_7 2.825101 1_555
Al0_1 Al0_7 2.825101 1_445
Al0_1 Al0_5 2.825101 1_455
Al0_1 Al0_5 2.825101 1_555
Al0_2 Cr0_0 2.642284 1_555
Al0_2 Cr0_6 2.642284 1_555
Al0_2 Cr0_2 2.642287 1_555
Al0_2 Cr3_0 2.642566 1_555
Al0_2 Cr3_6 2.642566 1_555
Al0_2 Cr3_2 2.642569 1_555
Al0_2 Al0_4 2.825101 1_455
Al0_2 Al0_4 2.825101 1_565
Al0_2 Al0_6 2.825101 1_555
Al0_2 Al0_6 2.825101 1_455
Al0_3 Cr0_1 2.642284 1_555
Al0_3 Cr0_7 2.642284 1_555
Al0_3 Cr0_3 2.642287 1_555
Al0_3 Cr3_1 2.642566 1_555
Al0_3 Cr3_7 2.642566 1_555
Al0_3 Cr3_3 2.642569 1_555
Al0_3 Al0_5 2.825101 1_455
Al0_3 Al0_5 2.825101 1_565
Al0_3 Al0_7 2.825101 1_455
Al0_3 Al0_7 2.825101 1_555
Al0_4 Cr0_6 2.642284 1_545
Al0_4 Cr0_0 2.642284 1_655
Al0_4 Cr0_4 2.642287 1_555
Al0_4 Cr3_6 2.642566 1_545
Al0_4 Cr3_0 2.642566 1_655
Al0_4 Cr3_4 2.642569 1_555
Al0_4 Al0_6 2.825101 1_545
Al0_4 Al0_6 2.825101 1_555
Al0_5 Cr0_7 2.642284 1_545
Al0_5 Cr0_1 2.642284 1_655
Al0_5 Cr0_5 2.642287 1_555
Al0_5 Cr3_7 2.642566 1_545
Al0_5 Cr3_1 2.642566 1_655
Al0_5 Cr3_5 2.642569 1_555
Al0_5 Al0_7 2.825101 1_545
Al0_5 Al0_7 2.825101 1_555
Al0_6 Cr0_4 2.642284 1_555
Al0_6 Cr0_2 2.642284 1_655
Al0_6 Cr0_6 2.642287 1_555
Al0_6 Cr3_4 2.642566 1_555
Al0_6 Cr3_2 2.642566 1_655
Al0_6 Cr3_6 2.642569 1_555
Al0_7 Cr0_5 2.642284 1_555
Al0_7 Cr0_3 2.642284 1_655
Al0_7 Cr0_7 2.642287 1_555
Al0_7 Cr3_5 2.642566 1_555
Al0_7 Cr3_3 2.642566 1_655
Al0_7 Cr3_7 2.642569 1_555
Al1_0 Cr2_2 2.642879 1_555
Al1_0 Cr2_4 2.642879 1_455
Al1_0 Cr2_0 2.642882 1_555
Al1_0 Cr1_2 2.643009 1_555
Al1_0 Cr1_4 2.643009 1_455
Al1_0 Cr1_0 2.643012 1_555
Al1_0 Al1_2 2.825101 1_545
Al1_0 Al1_2 2.825101 1_555
Al1_0 Al1_6 2.825101 1_445
Al1_0 Al1_6 2.825101 1_555
Al1_0 Al1_4 2.825101 1_455
Al1_0 Al1_4 2.825101 1_555
Al1_1 Cr2_3 2.642879 1_555
Al1_1 Cr2_5 2.642879 1_455
Al1_1 Cr2_1 2.642882 1_555
Al1_1 Cr1_3 2.643009 1_555
Al1_1 Cr1_5 2.643009 1_455
Al1_1 Cr1_1 2.643012 1_555
Al1_1 Al1_3 2.825101 1_545
Al1_1 Al1_3 2.825101 1_555
Al1_1 Al1_7 2.825101 1_445
Al1_1 Al1_7 2.825101 1_555
Al1_1 Al1_5 2.825101 1_455
Al1_1 Al1_5 2.825101 1_555
Al1_2 Cr2_0 2.642879 1_565
Al1_2 Cr2_6 2.642879 1_455
Al1_2 Cr2_2 2.642882 1_555
Al1_2 Cr1_0 2.643009 1_565
Al1_2 Cr1_6 2.643009 1_455
Al1_2 Cr1_2 2.643012 1_555
Al1_2 Al1_4 2.825101 1_455
Al1_2 Al1_4 2.825101 1_565
Al1_2 Al1_6 2.825101 1_455
Al1_2 Al1_6 2.825101 1_555
Al1_3 Cr2_1 2.642879 1_565
Al1_3 Cr2_7 2.642879 1_455
Al1_3 Cr2_3 2.642882 1_555
Al1_3 Cr1_1 2.643009 1_565
Al1_3 Cr1_7 2.643009 1_455
Al1_3 Cr1_3 2.643012 1_555
Al1_3 Al1_5 2.825101 1_565
Al1_3 Al1_5 2.825101 1_455
Al1_3 Al1_7 2.825101 1_455
Al1_3 Al1_7 2.825101 1_555
Al1_4 Cr2_6 2.642879 1_555
Al1_4 Cr2_0 2.642879 1_555
Al1_4 Cr2_4 2.642882 1_555
Al1_4 Cr1_6 2.643009 1_555
Al1_4 Cr1_0 2.643009 1_555
Al1_4 Cr1_4 2.643012 1_555
Al1_4 Al1_6 2.825101 1_545
Al1_4 Al1_6 2.825101 1_555
Al1_5 Cr2_7 2.642879 1_555
Al1_5 Cr2_1 2.642879 1_555
Al1_5 Cr2_5 2.642882 1_555
Al1_5 Cr1_7 2.643009 1_555
Al1_5 Cr1_1 2.643009 1_555
Al1_5 Cr1_5 2.643012 1_555
Al1_5 Al1_7 2.825101 1_545
Al1_5 Al1_7 2.825101 1_555
Al1_6 Cr2_4 2.642879 1_565
Al1_6 Cr2_2 2.642879 1_555
Al1_6 Cr2_6 2.642882 1_555
Al1_6 Cr1_4 2.643009 1_565
Al1_6 Cr1_2 2.643009 1_555
Al1_6 Cr1_6 2.643012 1_555
Al1_7 Cr2_5 2.642879 1_565
Al1_7 Cr2_3 2.642879 1_555
Al1_7 Cr2_7 2.642882 1_555
Al1_7 Cr1_5 2.643009 1_565
Al1_7 Cr1_3 2.643009 1_555
Al1_7 Cr1_7 2.643012 1_555
C0_0 Cr2_4 1.951501 1_455
C0_0 Cr2_6 1.951503 1_445
C0_0 Cr2_0 1.951503 1_555
C0_0 Cr0_2 1.951615 1_545
C0_0 Cr0_0 1.951617 1_555
C0_0 Cr0_6 1.951617 1_445
C0_1 Cr2_5 1.951501 1_455
C0_1 Cr2_7 1.951503 1_445
C0_1 Cr2_1 1.951503 1_555
C0_1 Cr0_3 1.951615 1_545
C0_1 Cr0_1 1.951617 1_555
C0_1 Cr0_7 1.951617 1_445
C0_2 Cr2_6 1.951501 1_455
C0_2 Cr2_4 1.951503 1_455
C0_2 Cr2_2 1.951503 1_555
C0_2 Cr0_0 1.951615 1_555
C0_2 Cr0_2 1.951617 1_555
C0_2 Cr0_4 1.951617 1_455
C0_3 Cr2_7 1.951501 1_455
C0_3 Cr2_5 1.951503 1_455
C0_3 Cr2_3 1.951503 1_555
C0_3 Cr0_1 1.951615 1_555
C0_3 Cr0_3 1.951617 1_555
C0_3 Cr0_5 1.951617 1_455
C0_4 Cr2_0 1.951501 1_555
C0_4 Cr2_2 1.951503 1_545
C0_4 Cr2_4 1.951503 1_555
C0_4 Cr0_6 1.951615 1_545
C0_4 Cr0_4 1.951617 1_555
C0_4 Cr0_2 1.951617 1_545
C0_5 Cr2_1 1.951501 1_555
C0_5 Cr2_3 1.951503 1_545
C0_5 Cr2_5 1.951503 1_555
C0_5 Cr0_7 1.951615 1_545
C0_5 Cr0_5 1.951617 1_555
C0_5 Cr0_3 1.951617 1_545
C0_6 Cr2_2 1.951501 1_555
C0_6 Cr2_0 1.951503 1_555
C0_6 Cr2_6 1.951503 1_555
C0_6 Cr0_4 1.951615 1_555
C0_6 Cr0_6 1.951617 1_555
C0_6 Cr0_0 1.951617 1_555
C0_7 Cr2_3 1.951501 1_555
C0_7 Cr2_1 1.951503 1_555
C0_7 Cr2_7 1.951503 1_555
C0_7 Cr0_5 1.951615 1_555
C0_7 Cr0_7 1.951617 1_555
C0_7 Cr0_1 1.951617 1_555
C1_0 Cr1_5 1.950918 1_454
C1_0 Cr1_7 1.950920 1_444
C1_0 Cr1_1 1.950920 1_554
C1_0 Cr3_2 1.951174 1_545
C1_0 Cr3_0 1.951176 1_555
C1_0 Cr3_6 1.951176 1_445
C1_1 Cr1_4 1.950918 1_455
C1_1 Cr1_6 1.950920 1_445
C1_1 Cr1_0 1.950920 1_555
C1_1 Cr3_3 1.951174 1_545
C1_1 Cr3_1 1.951176 1_555
C1_1 Cr3_7 1.951176 1_445
C1_2 Cr1_7 1.950918 1_454
C1_2 Cr1_5 1.950920 1_454
C1_2 Cr1_3 1.950920 1_554
C1_2 Cr3_0 1.951174 1_555
C1_2 Cr3_2 1.951176 1_555
C1_2 Cr3_4 1.951176 1_455
C1_3 Cr1_6 1.950918 1_455
C1_3 Cr1_4 1.950920 1_455
C1_3 Cr1_2 1.950920 1_555
C1_3 Cr3_1 1.951174 1_555
C1_3 Cr3_3 1.951176 1_555
C1_3 Cr3_5 1.951176 1_455
C1_4 Cr1_1 1.950918 1_554
C1_4 Cr1_3 1.950920 1_544
C1_4 Cr1_5 1.950920 1_554
C1_4 Cr3_6 1.951174 1_545
C1_4 Cr3_4 1.951176 1_555
C1_4 Cr3_2 1.951176 1_545
C1_5 Cr1_0 1.950918 1_555
C1_5 Cr1_2 1.950920 1_545
C1_5 Cr1_4 1.950920 1_555
C1_5 Cr3_7 1.951174 1_545
C1_5 Cr3_5 1.951176 1_555
C1_5 Cr3_3 1.951176 1_545
C1_6 Cr1_3 1.950918 1_554
C1_6 Cr1_1 1.950920 1_554
C1_6 Cr1_7 1.950920 1_554
C1_6 Cr3_4 1.951174 1_555
C1_6 Cr3_6 1.951176 1_555
C1_6 Cr3_0 1.951176 1_555
C1_7 Cr1_2 1.950918 1_555
C1_7 Cr1_0 1.950920 1_555
C1_7 Cr1_6 1.950920 1_555
C1_7 Cr3_5 1.951174 1_555
C1_7 Cr3_7 1.951176 1_555
C1_7 Cr3_1 1.951176 1_555
