# generated using pymatgen
data_Nd(Mg4Al3)4
_symmetry_space_group_name_H-M   'P 1'
_cell_length_a   12.39687280
_cell_length_b   12.39687280
_cell_length_c   8.76591300
_cell_angle_alpha   90.00000000
_cell_angle_beta   90.00000000
_cell_angle_gamma   120.00000425
_symmetry_Int_Tables_number   1
_chemical_formula_structural   Nd(Mg4Al3)4
_chemical_formula_sum   'Nd1 Mg16 Al12'
_cell_volume   1166.68082238
_cell_formula_units_Z   1
loop_
 _symmetry_equiv_pos_site_id
 _symmetry_equiv_pos_as_xyz
  1  'x, y, z'
loop_
 _atom_site_type_symbol
 _atom_site_label
 _atom_site_symmetry_multiplicity
 _atom_site_fract_x
 _atom_site_fract_y
 _atom_site_fract_z
 _atom_site_occupancy
  Nd  Nd0  1  0.62864700  0.62864700  0.37135300  1
  Mg  Mg0  1  0.00408300  0.00408300  0.65341900  1
  Mg  Mg1  1  0.38722200  0.38722200  0.28083000  1
  Mg  Mg2  1  0.00381300  0.00381300  0.99618700  1
  Mg  Mg3  1  0.68479000  0.68479000  0.71705000  1
  Mg  Mg4  1  0.31165600  0.60558700  0.00140100  1
  Mg  Mg5  1  0.99859900  0.31165600  0.39441300  1
  Mg  Mg6  1  0.38722200  0.71917000  0.61277800  1
  Mg  Mg7  1  0.00408300  0.34658100  0.99591700  1
  Mg  Mg8  1  0.60558700  0.99859900  0.68834400  1
  Mg  Mg9  1  0.28295000  0.68479000  0.31521000  1
  Mg  Mg10  1  0.68479000  0.28295000  0.31521000  1
  Mg  Mg11  1  0.99859900  0.60558700  0.68834400  1
  Mg  Mg12  1  0.34658100  0.00408300  0.99591700  1
  Mg  Mg13  1  0.71917000  0.38722200  0.61277800  1
  Mg  Mg14  1  0.31165600  0.99859900  0.39441300  1
  Mg  Mg15  1  0.60558700  0.31165600  0.00140100  1
  Al  Al0  1  0.37007300  0.37007300  0.81347600  1
  Al  Al1  1  0.18921900  0.18921900  0.17473100  1
  Al  Al2  1  0.63557600  0.81512000  0.99840400  1
  Al  Al3  1  0.18652400  0.37007300  0.62992700  1
  Al  Al4  1  0.81512000  0.00159600  0.36442400  1
  Al  Al5  1  0.82526900  0.18921900  0.81078100  1
  Al  Al6  1  0.63557600  0.00159600  0.18488000  1
  Al  Al7  1  0.00159600  0.63557600  0.18488000  1
  Al  Al8  1  0.18921900  0.82526900  0.81078100  1
  Al  Al9  1  0.00159600  0.81512000  0.36442400  1
  Al  Al10  1  0.37007300  0.18652400  0.62992700  1
  Al  Al11  1  0.81512000  0.63557600  0.99840400  1
loop_
_geom_bond_atom_site_label_1
_geom_bond_atom_site_label_2
_geom_bond_distance
_geom_bond_site_symmetry_2
Mg0 Mg2 3.004676 1_555
Mg1 Nd0 3.096322 1_555
Mg3 Nd0 3.109250 1_555
Mg4 Mg9 3.001190 1_555
Mg6 Mg9 2.847050 1_555
Mg6 Mg8 3.223221 1_555
Mg10 Mg13 2.847050 1_555
Mg10 Mg15 3.001190 1_555
Mg11 Mg13 3.223221 1_555
Al0 Al10 2.786826 1_555
Al0 Al3 2.786826 1_555
Al1 Mg1 2.624910 1_555
Al1 Mg2 2.780726 1_554
Al2 Al6 2.831266 1_566
Al2 Mg3 3.170354 1_555
Al3 Mg5 2.920082 1_455
Al4 Al6 2.726018 1_555
Al4 Mg5 3.357743 1_555
Al5 Mg7 2.651203 1_655
Al5 Mg8 2.778000 1_545
Al6 Mg10 3.422715 1_555
Al7 Al9 2.726018 1_555
Al7 Mg9 3.422715 1_555
Al8 Mg12 2.651203 1_565
Al8 Mg11 2.778000 1_455
Al9 Mg14 3.357743 1_555
Al10 Mg14 2.920082 1_545
Al11 Al7 2.831266 1_656
Al11 Mg3 3.170354 1_555
