# generated using pymatgen
data_LaEr3
_symmetry_space_group_name_H-M   'P 1'
_cell_length_a   6.11429003
_cell_length_b   6.11429003
_cell_length_c   6.11429003
_cell_angle_alpha   130.36652580
_cell_angle_beta   130.36652580
_cell_angle_gamma   72.82148913
_symmetry_Int_Tables_number   1
_chemical_formula_structural   LaEr3
_chemical_formula_sum   'La1 Er3'
_cell_volume   129.62544007
_cell_formula_units_Z   1
loop_
 _symmetry_equiv_pos_site_id
 _symmetry_equiv_pos_as_xyz
  1  'x, y, z'
loop_
 _atom_site_type_symbol
 _atom_site_label
 _atom_site_symmetry_multiplicity
 _atom_site_fract_x
 _atom_site_fract_y
 _atom_site_fract_z
 _atom_site_occupancy
  La  La0  1  -0.00000000  0.00000000  -0.00000000  1
  Er  Er0  1  0.74999900  0.25000000  0.49999900  1
  Er  Er1  1  0.25000000  0.74999900  0.49999900  1
  Er  Er2  1  0.50000000  0.50000000  -0.00000000  1
loop_
_geom_bond_atom_site_label_1
_geom_bond_atom_site_label_2
_geom_bond_distance
_geom_bond_site_symmetry_2
Er0 Er2 3.555135 1_555
Er0 La0 3.555135 1_555
Er0 La0 3.555139 1_655
Er0 La0 3.555139 1_666
Er0 Er2 3.555139 1_545
Er0 Er2 3.555139 1_556
Er0 Er2 3.555143 1_656
Er0 La0 3.555143 1_656
Er0 Er1 3.629251 1_555
Er0 Er1 3.629258 1_656
Er0 Er1 3.629258 1_544
Er0 Er1 3.629265 1_645
Er1 Er2 3.555135 1_555
Er1 La0 3.555135 1_555
Er1 La0 3.555139 1_565
Er1 La0 3.555139 1_666
Er1 Er2 3.555139 1_455
Er1 Er2 3.555139 1_556
Er1 Er2 3.555143 1_566
Er1 La0 3.555143 1_566
Er2 La0 3.629258 1_554
Er2 La0 3.629258 1_565
Er2 La0 3.629258 1_655
Er2 La0 3.629258 1_666
