# generated using pymatgen
data_SmBi3
_symmetry_space_group_name_H-M   'P 1'
_cell_length_a   6.88565201
_cell_length_b   6.88565201
_cell_length_c   5.98409160
_cell_angle_alpha   90.00000000
_cell_angle_beta   90.00000000
_cell_angle_gamma   120.00000199
_symmetry_Int_Tables_number   1
_chemical_formula_structural   SmBi3
_chemical_formula_sum   'Sm2 Bi6'
_cell_volume   245.70782985
_cell_formula_units_Z   2
loop_
 _symmetry_equiv_pos_site_id
 _symmetry_equiv_pos_as_xyz
  1  'x, y, z'
loop_
 _atom_site_type_symbol
 _atom_site_label
 _atom_site_symmetry_multiplicity
 _atom_site_fract_x
 _atom_site_fract_y
 _atom_site_fract_z
 _atom_site_occupancy
  Sm  Sm0  1  0.66666700  0.33333300  0.25000000  1
  Sm  Sm1  1  0.33333300  0.66666700  0.75000000  1
  Bi  Bi0  1  0.82499783  0.17500217  0.75000000  1
  Bi  Bi1  1  0.35000434  0.17500217  0.75000000  1
  Bi  Bi2  1  0.82499783  0.64999566  0.75000000  1
  Bi  Bi3  1  0.17500217  0.82499783  0.25000000  1
  Bi  Bi4  1  0.64999566  0.82499783  0.25000000  1
  Bi  Bi5  1  0.17500217  0.35000434  0.25000000  1
loop_
_geom_bond_atom_site_label_1
_geom_bond_atom_site_label_2
_geom_bond_distance
_geom_bond_site_symmetry_2
Bi0 Bi1 3.270640 1_555
Bi0 Bi2 3.270640 1_555
Bi0 Sm1 3.444261 1_655
Bi0 Sm1 3.444261 1_545
Bi0 Sm0 3.538081 1_556
Bi0 Sm0 3.538081 1_555
Bi0 Bi1 3.615012 1_655
Bi0 Bi2 3.615012 1_545
Bi0 Bi5 3.648074 1_656
Bi0 Bi5 3.648074 1_655
Bi0 Bi4 3.648074 1_545
Bi0 Bi4 3.648074 1_546
Bi1 Bi2 3.270640 1_555
Bi1 Sm1 3.444258 1_545
Bi1 Sm1 3.444264 1_555
Bi1 Sm0 3.538084 1_556
Bi1 Sm0 3.538084 1_555
Bi1 Bi2 3.615012 1_445
Bi1 Bi3 3.648074 1_545
Bi1 Bi3 3.648074 1_546
Bi1 Bi5 3.648074 1_556
Bi1 Bi5 3.648074 1_555
Bi2 Sm1 3.444258 1_655
Bi2 Sm1 3.444264 1_555
Bi2 Sm0 3.538084 1_556
Bi2 Sm0 3.538084 1_555
Bi2 Bi3 3.648074 1_655
Bi2 Bi3 3.648074 1_656
Bi2 Bi4 3.648074 1_556
Bi2 Bi4 3.648074 1_555
Bi3 Bi5 3.270640 1_555
Bi3 Bi4 3.270640 1_555
Bi3 Sm0 3.444261 1_455
Bi3 Sm0 3.444261 1_565
Bi3 Sm1 3.538081 1_555
Bi3 Sm1 3.538081 1_554
Bi3 Bi5 3.615012 1_565
Bi3 Bi4 3.615012 1_455
Bi4 Bi5 3.270640 1_555
Bi4 Sm0 3.444258 1_565
Bi4 Sm0 3.444264 1_555
Bi4 Sm1 3.538084 1_555
Bi4 Sm1 3.538084 1_554
Bi4 Bi5 3.615012 1_665
Bi5 Sm0 3.444258 1_455
Bi5 Sm0 3.444264 1_555
Bi5 Sm1 3.538084 1_555
Bi5 Sm1 3.538084 1_554
