# generated using pymatgen
data_TiNiSn
_symmetry_space_group_name_H-M   'P 1'
_cell_length_a   4.17680137
_cell_length_b   4.17681176
_cell_length_c   4.17680319
_cell_angle_alpha   59.99953845
_cell_angle_beta   59.99978578
_cell_angle_gamma   59.99981162
_symmetry_Int_Tables_number   1
_chemical_formula_structural   TiNiSn
_chemical_formula_sum   'Ti1 Ni1 Sn1'
_cell_volume   51.52463256
_cell_formula_units_Z   1
loop_
 _symmetry_equiv_pos_site_id
 _symmetry_equiv_pos_as_xyz
  1  'x, y, z'
loop_
 _atom_site_type_symbol
 _atom_site_label
 _atom_site_symmetry_multiplicity
 _atom_site_fract_x
 _atom_site_fract_y
 _atom_site_fract_z
 _atom_site_occupancy
  Ti  Ti0  1  0.99999742  -0.00000158  0.00000131  1
  Ni  Ni0  1  0.25000479  0.25000279  0.25000325  1
  Sn  Sn0  1  0.49999779  0.49999879  0.49999643  1
loop_
_geom_bond_atom_site_label_1
_geom_bond_atom_site_label_2
_geom_bond_distance
_geom_bond_site_symmetry_2
Ni0 Sn0 2.557705 1_555
Ni0 Ti0 2.557728 1_555
Ni0 Ti0 2.557738 1_465
Ni0 Ti0 2.557741 1_456
Ni0 Sn0 2.557767 1_545
Ni0 Sn0 2.557771 1_554
Ni0 Sn0 2.557777 1_455
Ni0 Ti0 2.557813 1_455
Sn0 Ti0 2.953422 1_465
Sn0 Ti0 2.953435 1_565
Sn0 Ti0 2.953437 1_555
Sn0 Ti0 2.953440 1_456
Sn0 Ti0 2.953449 1_556
Sn0 Ti0 2.953464 1_466
