# generated using pymatgen
data_PbBrCl
_symmetry_space_group_name_H-M   'P 1'
_cell_length_a   4.70305500
_cell_length_b   4.70305500
_cell_length_c   7.90240700
_cell_angle_alpha   90.00000000
_cell_angle_beta   90.00000000
_cell_angle_gamma   90.00000000
_symmetry_Int_Tables_number   1
_chemical_formula_structural   PbBrCl
_chemical_formula_sum   'Pb2 Br2 Cl2'
_cell_volume   174.79117781
_cell_formula_units_Z   2
loop_
 _symmetry_equiv_pos_site_id
 _symmetry_equiv_pos_as_xyz
  1  'x, y, z'
loop_
 _atom_site_type_symbol
 _atom_site_label
 _atom_site_symmetry_multiplicity
 _atom_site_fract_x
 _atom_site_fract_y
 _atom_site_fract_z
 _atom_site_occupancy
  Pb  Pb0  1  0.50000000  0.00000000  0.76693800  1
  Pb  Pb1  1  0.00000000  0.50000000  0.23306200  1
  Br  Br0  1  0.00000000  0.50000000  0.63517400  1
  Br  Br1  1  0.50000000  0.00000000  0.36482600  1
  Cl  Cl0  1  0.00000000  0.00000000  0.00000000  1
  Cl  Cl1  1  0.50000000  0.50000000  0.00000000  1
loop_
_geom_bond_atom_site_label_1
_geom_bond_atom_site_label_2
_geom_bond_distance
_geom_bond_site_symmetry_2
Br0 Pb1 3.177653 1_555
Br1 Pb0 3.177653 1_555
Cl0 Pb1 2.986926 1_555
Cl0 Pb0 2.986926 1_554
Cl0 Pb0 2.986926 1_454
Cl0 Pb1 2.986926 1_545
Cl1 Pb1 2.986926 1_555
Cl1 Pb0 2.986926 1_554
Cl1 Pb1 2.986926 1_655
Cl1 Pb0 2.986926 1_564
