# generated using pymatgen
data_Sm2Mg
_symmetry_space_group_name_H-M   'P 1'
_cell_length_a   7.55618889
_cell_length_b   7.55618889
_cell_length_c   13.91896398
_cell_angle_alpha   105.73813663
_cell_angle_beta   105.73813663
_cell_angle_gamma   90.04085463
_symmetry_Int_Tables_number   1
_chemical_formula_structural   Sm2Mg
_chemical_formula_sum   'Sm16 Mg8'
_cell_volume   733.87762993
_cell_formula_units_Z   8
loop_
 _symmetry_equiv_pos_site_id
 _symmetry_equiv_pos_as_xyz
  1  'x, y, z'
loop_
 _atom_site_type_symbol
 _atom_site_label
 _atom_site_symmetry_multiplicity
 _atom_site_fract_x
 _atom_site_fract_y
 _atom_site_fract_z
 _atom_site_occupancy
  Sm  Sm0_0  1  0.04639088  0.04639088  0.00944877  1
  Sm  Sm0_1  1  0.04639089  0.04639089  0.50944877  1
  Sm  Sm0_2  1  0.04639088  0.54639088  0.00944877  1
  Sm  Sm0_3  1  0.04639088  0.54639088  0.50944877  1
  Sm  Sm0_4  1  0.54639088  0.04639088  0.00944877  1
  Sm  Sm0_5  1  0.54639088  0.04639088  0.50944877  1
  Sm  Sm0_6  1  0.54639088  0.54639088  0.00944877  1
  Sm  Sm0_7  1  0.54639088  0.54639088  0.50944877  1
  Sm  Sm1_0  1  0.20360861  0.20360861  0.32388423  1
  Sm  Sm1_1  1  0.20360861  0.20360861  0.82388423  1
  Sm  Sm1_2  1  0.20360861  0.70360861  0.32388423  1
  Sm  Sm1_3  1  0.20360861  0.70360861  0.82388423  1
  Sm  Sm1_4  1  0.70360861  0.20360861  0.32388423  1
  Sm  Sm1_5  1  0.70360861  0.20360861  0.82388423  1
  Sm  Sm1_6  1  0.70360861  0.70360861  0.32388423  1
  Sm  Sm1_7  1  0.70360862  0.70360862  0.82388423  1
  Mg  Mg0_0  1  0.37500000  0.37500000  0.16666650  1
  Mg  Mg0_1  1  0.37500000  0.37500000  0.66666650  1
  Mg  Mg0_2  1  0.37500000  0.87500000  0.16666650  1
  Mg  Mg0_3  1  0.37500000  0.87500000  0.66666650  1
  Mg  Mg0_4  1  0.87500000  0.37500000  0.16666650  1
  Mg  Mg0_5  1  0.87500000  0.37500000  0.66666650  1
  Mg  Mg0_6  1  0.87500000  0.87500000  0.16666650  1
  Mg  Mg0_7  1  0.87500000  0.87500000  0.66666650  1
loop_
_geom_bond_atom_site_label_1
_geom_bond_atom_site_label_2
_geom_bond_distance
_geom_bond_site_symmetry_2
Sm0_0 Sm1_1 3.580611 1_554
Sm0_0 Sm1_7 3.580613 1_444
Sm0_0 Sm1_5 3.582033 1_454
Sm0_0 Sm1_3 3.582033 1_544
Sm0_0 Sm0_4 3.778094 1_455
Sm0_0 Sm0_2 3.778094 1_545
Sm0_0 Sm0_4 3.778094 1_555
Sm0_0 Sm0_2 3.778094 1_555
Sm0_1 Sm1_0 3.580611 1_555
Sm0_1 Sm1_6 3.580613 1_445
Sm0_1 Sm1_4 3.582033 1_455
Sm0_1 Sm1_2 3.582033 1_545
Sm0_1 Sm0_3 3.778094 1_555
Sm0_1 Sm0_5 3.778094 1_455
Sm0_1 Sm0_5 3.778094 1_555
Sm0_1 Sm0_3 3.778094 1_545
Sm0_2 Sm1_3 3.580611 1_554
Sm0_2 Sm1_5 3.580613 1_454
Sm0_2 Sm1_7 3.582033 1_454
Sm0_2 Sm1_1 3.582033 1_554
Sm0_2 Sm0_6 3.778094 1_455
Sm0_2 Sm0_6 3.778094 1_555
Sm0_3 Sm1_2 3.580611 1_555
Sm0_3 Sm1_4 3.580613 1_455
Sm0_3 Sm1_6 3.582033 1_455
Sm0_3 Sm1_0 3.582033 1_555
Sm0_3 Sm0_7 3.778094 1_455
Sm0_3 Sm0_7 3.778094 1_555
Sm0_4 Sm1_5 3.580611 1_554
Sm0_4 Sm1_3 3.580613 1_544
Sm0_4 Sm1_7 3.582033 1_544
Sm0_4 Sm1_1 3.582033 1_554
Sm0_4 Sm0_6 3.778094 1_545
Sm0_4 Sm0_6 3.778094 1_555
Sm0_5 Sm1_4 3.580611 1_555
Sm0_5 Sm1_2 3.580613 1_545
Sm0_5 Sm1_6 3.582033 1_545
Sm0_5 Sm1_0 3.582033 1_555
Sm0_5 Sm0_7 3.778094 1_545
Sm0_5 Sm0_7 3.778094 1_555
Sm0_6 Sm1_7 3.580611 1_554
Sm0_6 Sm1_1 3.580613 1_554
Sm0_6 Sm1_5 3.582033 1_554
Sm0_6 Sm1_3 3.582033 1_554
Sm0_7 Sm1_6 3.580611 1_555
Sm0_7 Sm1_0 3.580613 1_555
Sm0_7 Sm1_2 3.582033 1_555
Sm0_7 Sm1_4 3.582033 1_555
Sm1_0 Sm1_4 3.778094 1_555
Sm1_0 Sm1_2 3.778094 1_555
Sm1_0 Sm1_2 3.778094 1_545
Sm1_0 Sm1_4 3.778094 1_455
Sm1_1 Sm1_5 3.778094 1_455
Sm1_1 Sm1_3 3.778094 1_545
Sm1_1 Sm1_5 3.778094 1_555
Sm1_1 Sm1_3 3.778094 1_555
Sm1_2 Sm1_6 3.778094 1_455
Sm1_2 Sm1_6 3.778094 1_555
Sm1_3 Sm1_7 3.778094 1_455
Sm1_3 Sm1_7 3.778094 1_555
Sm1_4 Sm1_6 3.778094 1_545
Sm1_4 Sm1_6 3.778094 1_555
Sm1_5 Sm1_7 3.778094 1_545
Sm1_5 Sm1_7 3.778094 1_555
Mg0_0 Sm0_6 3.348948 1_555
Mg0_0 Sm1_6 3.348950 1_555
Mg0_0 Sm1_0 3.348952 1_555
Mg0_0 Sm0_0 3.348954 1_555
Mg0_0 Sm1_4 3.350470 1_555
Mg0_0 Sm1_2 3.350470 1_555
Mg0_0 Sm0_2 3.350470 1_555
Mg0_0 Sm0_4 3.350470 1_555
Mg0_1 Sm0_7 3.348948 1_555
Mg0_1 Sm1_7 3.348950 1_555
Mg0_1 Sm1_1 3.348952 1_555
Mg0_1 Sm0_1 3.348954 1_555
Mg0_1 Sm1_5 3.350470 1_555
Mg0_1 Sm1_3 3.350470 1_555
Mg0_1 Sm0_5 3.350470 1_555
Mg0_1 Sm0_3 3.350470 1_555
Mg0_2 Sm0_4 3.348948 1_565
Mg0_2 Sm1_4 3.348950 1_565
Mg0_2 Sm1_2 3.348952 1_555
Mg0_2 Sm0_2 3.348954 1_555
Mg0_2 Sm1_6 3.350470 1_555
Mg0_2 Sm1_0 3.350470 1_565
Mg0_2 Sm0_6 3.350470 1_555
Mg0_2 Sm0_0 3.350470 1_565
Mg0_3 Sm0_5 3.348948 1_565
Mg0_3 Sm1_5 3.348950 1_565
Mg0_3 Sm1_3 3.348952 1_555
Mg0_3 Sm0_3 3.348954 1_555
Mg0_3 Sm1_1 3.350470 1_565
Mg0_3 Sm1_7 3.350470 1_555
Mg0_3 Sm0_7 3.350470 1_555
Mg0_3 Sm0_1 3.350470 1_565
Mg0_4 Sm0_2 3.348948 1_655
Mg0_4 Sm1_2 3.348950 1_655
Mg0_4 Sm1_4 3.348952 1_555
Mg0_4 Sm0_4 3.348954 1_555
Mg0_4 Sm1_6 3.350470 1_555
Mg0_4 Sm1_0 3.350470 1_655
Mg0_4 Sm0_0 3.350470 1_655
Mg0_4 Sm0_6 3.350470 1_555
Mg0_5 Sm0_3 3.348948 1_655
Mg0_5 Sm1_3 3.348950 1_655
Mg0_5 Sm1_5 3.348952 1_555
Mg0_5 Sm0_5 3.348954 1_555
Mg0_5 Sm1_1 3.350470 1_655
Mg0_5 Sm1_7 3.350470 1_555
Mg0_5 Sm0_7 3.350470 1_555
Mg0_5 Sm0_1 3.350470 1_655
Mg0_6 Sm0_0 3.348948 1_665
Mg0_6 Sm1_0 3.348950 1_665
Mg0_6 Sm1_6 3.348952 1_555
Mg0_6 Sm0_6 3.348954 1_555
Mg0_6 Sm1_2 3.350470 1_655
Mg0_6 Sm1_4 3.350470 1_565
Mg0_6 Sm0_2 3.350470 1_655
Mg0_6 Sm0_4 3.350470 1_565
Mg0_7 Sm0_1 3.348948 1_665
Mg0_7 Sm1_1 3.348950 1_665
Mg0_7 Sm1_7 3.348952 1_555
Mg0_7 Sm0_7 3.348954 1_555
Mg0_7 Sm1_3 3.350470 1_655
Mg0_7 Sm1_5 3.350470 1_565
Mg0_7 Sm0_5 3.350470 1_565
Mg0_7 Sm0_3 3.350470 1_655
