# generated using pymatgen
data_Tl3Ge
_symmetry_space_group_name_H-M   'P 1'
_cell_length_a   7.04753942
_cell_length_b   7.04753942
_cell_length_c   5.34999100
_cell_angle_alpha   90.00000000
_cell_angle_beta   90.00000000
_cell_angle_gamma   119.99999452
_symmetry_Int_Tables_number   1
_chemical_formula_structural   Tl3Ge
_chemical_formula_sum   'Tl6 Ge2'
_cell_volume   230.12231490
_cell_formula_units_Z   2
loop_
 _symmetry_equiv_pos_site_id
 _symmetry_equiv_pos_as_xyz
  1  'x, y, z'
loop_
 _atom_site_type_symbol
 _atom_site_label
 _atom_site_symmetry_multiplicity
 _atom_site_fract_x
 _atom_site_fract_y
 _atom_site_fract_z
 _atom_site_occupancy
  Tl  Tl0  1  0.17290000  0.34579900  0.25000000  1
  Tl  Tl1  1  0.65420100  0.82710000  0.25000000  1
  Tl  Tl2  1  0.17290000  0.82710000  0.25000000  1
  Tl  Tl3  1  0.82710000  0.65420100  0.75000000  1
  Tl  Tl4  1  0.34579900  0.17290000  0.75000000  1
  Tl  Tl5  1  0.82710000  0.17290000  0.75000000  1
  Ge  Ge0  1  0.33333300  0.66666700  0.75000000  1
  Ge  Ge1  1  0.66666700  0.33333300  0.25000000  1
loop_
_geom_bond_atom_site_label_1
_geom_bond_atom_site_label_2
_geom_bond_distance
_geom_bond_site_symmetry_2
Tl0 Tl2 3.391988 1_555
Tl0 Tl1 3.391988 1_555
Tl0 Tl4 3.407333 1_554
Tl0 Tl4 3.407333 1_555
Tl0 Tl5 3.407341 1_454
Tl0 Tl5 3.407341 1_455
Tl1 Tl2 3.391988 1_555
Tl1 Tl3 3.407333 1_555
Tl1 Tl3 3.407333 1_554
Tl1 Tl5 3.407341 1_565
Tl1 Tl5 3.407341 1_564
Tl2 Tl4 3.407341 1_565
Tl2 Tl4 3.407341 1_564
Tl2 Tl3 3.407341 1_454
Tl2 Tl3 3.407341 1_455
Tl3 Tl5 3.391988 1_555
Tl3 Tl4 3.391988 1_555
Tl4 Tl5 3.391988 1_555
Ge0 Tl2 3.315232 1_556
Ge0 Tl2 3.315232 1_555
Ge0 Tl1 3.315239 1_555
Ge0 Tl1 3.315239 1_556
Ge0 Tl0 3.315239 1_555
Ge0 Tl0 3.315239 1_556
Ge1 Tl5 3.315232 1_555
Ge1 Tl5 3.315232 1_554
Ge1 Tl4 3.315239 1_554
Ge1 Tl4 3.315239 1_555
Ge1 Tl3 3.315239 1_555
Ge1 Tl3 3.315239 1_554
