# generated using pymatgen
data_Tc7B3
_symmetry_space_group_name_H-M   'P 1'
_cell_length_a   7.46654839
_cell_length_b   7.46654638
_cell_length_c   4.82992795
_cell_angle_alpha   90.00000000
_cell_angle_beta   90.00000000
_cell_angle_gamma   119.99981629
_symmetry_Int_Tables_number   1
_chemical_formula_structural   Tc7B3
_chemical_formula_sum   'Tc14 B6'
_cell_volume   233.19097532
_cell_formula_units_Z   2
loop_
 _symmetry_equiv_pos_site_id
 _symmetry_equiv_pos_as_xyz
  1  'x, y, z'
loop_
 _atom_site_type_symbol
 _atom_site_label
 _atom_site_symmetry_multiplicity
 _atom_site_fract_x
 _atom_site_fract_y
 _atom_site_fract_z
 _atom_site_occupancy
  Tc  Tc0  1  0.54562703  0.45437297  0.04837779  1
  Tc  Tc1  1  0.45437297  0.54562703  0.54837779  1
  Tc  Tc2  1  0.54562703  0.09125506  0.04837579  1
  Tc  Tc3  1  0.90874494  0.45437297  0.04837579  1
  Tc  Tc4  1  0.09125506  0.54562703  0.54837579  1
  Tc  Tc5  1  0.45437297  0.90874494  0.54837579  1
  Tc  Tc6  1  0.12368069  0.87632031  0.25487013  1
  Tc  Tc7  1  0.87632031  0.12367969  0.75487113  1
  Tc  Tc8  1  0.12368069  0.24736037  0.25486913  1
  Tc  Tc9  1  0.75263963  0.87631931  0.25486913  1
  Tc  Tc10  1  0.24736137  0.12368069  0.75486913  1
  Tc  Tc11  1  0.87631931  0.75263963  0.75486913  1
  Tc  Tc12  1  0.33333300  0.66666700  0.08192285  1
  Tc  Tc13  1  0.66666700  0.33333300  0.58192285  1
  B  B0  1  0.81072859  0.62145917  0.34011280  1
  B  B1  1  0.18927041  0.81072959  0.84011380  1
  B  B2  1  0.81073059  0.18926941  0.34011480  1
  B  B3  1  0.37854183  0.18927241  0.34011280  1
  B  B4  1  0.62145917  0.81072859  0.84011280  1
  B  B5  1  0.18927141  0.37854083  0.84011280  1
loop_
_geom_bond_atom_site_label_1
_geom_bond_atom_site_label_2
_geom_bond_distance
_geom_bond_site_symmetry_2
B0 Tc11 2.175431 1_555
B0 Tc9 2.191824 1_555
B0 Tc6 2.191847 1_655
B0 Tc13 2.198899 1_555
B0 Tc0 2.233932 1_555
B0 Tc3 2.233938 1_555
B1 Tc6 2.175430 1_556
B1 Tc10 2.191837 1_565
B1 Tc11 2.191840 1_455
B1 Tc12 2.198886 1_556
B1 Tc4 2.233945 1_555
B1 Tc5 2.233945 1_555
B2 Tc7 2.175427 1_555
B2 Tc9 2.191831 1_545
B2 Tc8 2.191831 1_655
B2 Tc13 2.198895 1_555
B2 Tc3 2.233954 1_555
B2 Tc2 2.233955 1_555
B3 Tc10 2.175431 1_555
B3 Tc8 2.191827 1_555
B3 Tc6 2.191847 1_545
B3 Tc13 2.198893 1_555
B3 Tc0 2.233926 1_555
B3 Tc2 2.233937 1_555
B4 Tc9 2.175431 1_556
B4 Tc11 2.191825 1_555
B4 Tc7 2.191841 1_565
B4 Tc12 2.198899 1_556
B4 Tc1 2.233932 1_555
B4 Tc5 2.233938 1_555
B5 Tc8 2.175431 1_556
B5 Tc10 2.191829 1_555
B5 Tc7 2.191841 1_455
B5 Tc12 2.198899 1_556
B5 Tc1 2.233932 1_555
B5 Tc4 2.233938 1_555
