# generated using pymatgen
data_Zr5Al3C
_symmetry_space_group_name_H-M   'P 1'
_cell_length_a   8.33852433
_cell_length_b   8.33852433
_cell_length_c   5.62451100
_cell_angle_alpha   90.00000000
_cell_angle_beta   90.00000000
_cell_angle_gamma   120.00000265
_symmetry_Int_Tables_number   1
_chemical_formula_structural   Zr5Al3C
_chemical_formula_sum   'Zr10 Al6 C2'
_cell_volume   338.68330689
_cell_formula_units_Z   2
loop_
 _symmetry_equiv_pos_site_id
 _symmetry_equiv_pos_as_xyz
  1  'x, y, z'
loop_
 _atom_site_type_symbol
 _atom_site_label
 _atom_site_symmetry_multiplicity
 _atom_site_fract_x
 _atom_site_fract_y
 _atom_site_fract_z
 _atom_site_occupancy
  Zr  Zr0  1  0.66666700  0.33333300  0.00000000  1
  Zr  Zr1  1  0.33333300  0.66666700  0.00000000  1
  Zr  Zr2  1  0.22386000  0.00000000  0.25000000  1
  Zr  Zr3  1  0.00000000  0.22386000  0.25000000  1
  Zr  Zr4  1  0.77614000  0.77614000  0.25000000  1
  Zr  Zr5  1  0.66666700  0.33333300  0.50000000  1
  Zr  Zr6  1  0.33333300  0.66666700  0.50000000  1
  Zr  Zr7  1  0.77614000  0.00000000  0.75000000  1
  Zr  Zr8  1  0.00000000  0.77614000  0.75000000  1
  Zr  Zr9  1  0.22386000  0.22386000  0.75000000  1
  Al  Al0  1  0.59983800  0.00000000  0.25000000  1
  Al  Al1  1  0.00000000  0.59983800  0.25000000  1
  Al  Al2  1  0.40016200  0.40016200  0.25000000  1
  Al  Al3  1  0.40016200  0.00000000  0.75000000  1
  Al  Al4  1  0.00000000  0.40016200  0.75000000  1
  Al  Al5  1  0.59983800  0.59983800  0.75000000  1
  C  C0  1  0.00000000  0.00000000  0.00000000  1
  C  C1  1  0.00000000  0.00000000  0.50000000  1
loop_
_geom_bond_atom_site_label_1
_geom_bond_atom_site_label_2
_geom_bond_distance
_geom_bond_site_symmetry_2
Zr0 Zr5 2.812256 1_554
Zr0 Zr5 2.812256 1_555
Zr1 Zr6 2.812256 1_554
Zr1 Zr6 2.812256 1_555
Al0 Zr3 2.896514 1_655
Al0 Zr4 2.896514 1_545
Al0 Zr5 2.909379 1_555
Al0 Zr0 2.909379 1_555
Al0 Zr1 2.909381 1_545
Al0 Zr6 2.909381 1_545
Al0 Zr2 3.135102 1_555
Al0 Zr7 3.173322 1_555
Al0 Zr7 3.173322 1_554
Al1 Zr2 2.896514 1_565
Al1 Zr4 2.896514 1_455
Al1 Zr1 2.909379 1_555
Al1 Zr6 2.909379 1_555
Al1 Zr5 2.909381 1_455
Al1 Zr0 2.909381 1_455
Al1 Zr3 3.135102 1_555
Al1 Zr8 3.173322 1_554
Al1 Zr8 3.173322 1_555
Al2 Zr3 2.896514 1_555
Al2 Zr2 2.896514 1_555
Al2 Zr5 2.909386 1_555
Al2 Zr0 2.909386 1_555
Al2 Zr1 2.909386 1_555
Al2 Zr6 2.909386 1_555
Al2 Zr4 3.135102 1_555
Al2 Zr9 3.173322 1_555
Al2 Zr9 3.173322 1_554
Al3 Zr8 2.896514 1_545
Al3 Zr9 2.896514 1_555
Al3 Zr6 2.909379 1_545
Al3 Zr1 2.909379 1_546
Al3 Zr5 2.909381 1_555
Al3 Zr0 2.909381 1_556
Al3 Zr7 3.135102 1_555
Al3 Zr2 3.173322 1_555
Al3 Zr2 3.173322 1_556
Al4 Zr7 2.896514 1_455
Al4 Zr9 2.896514 1_555
Al4 Zr0 2.909379 1_456
Al4 Zr5 2.909379 1_455
Al4 Zr6 2.909381 1_555
Al4 Zr1 2.909381 1_556
Al4 Zr8 3.135102 1_555
Al4 Zr3 3.173322 1_555
Al4 Zr3 3.173322 1_556
Al5 Zr7 2.896514 1_565
Al5 Zr8 2.896514 1_655
Al5 Zr5 2.909386 1_555
Al5 Zr0 2.909386 1_556
Al5 Zr6 2.909386 1_555
Al5 Zr1 2.909386 1_556
Al5 Zr9 3.135102 1_555
Al5 Zr4 3.173322 1_555
Al5 Zr4 3.173322 1_556
C0 Zr4 2.337011 1_445
C0 Zr9 2.337011 1_554
C0 Zr8 2.337011 1_544
C0 Zr7 2.337011 1_454
C0 Zr3 2.337011 1_555
C0 Zr2 2.337011 1_555
C1 Zr4 2.337011 1_445
C1 Zr9 2.337011 1_555
C1 Zr7 2.337011 1_455
C1 Zr8 2.337011 1_545
C1 Zr3 2.337011 1_555
C1 Zr2 2.337011 1_555
