# generated using pymatgen
data_TmMg3
_symmetry_space_group_name_H-M   'P 1'
_cell_length_a   6.60612093
_cell_length_b   6.60612604
_cell_length_c   5.14033421
_cell_angle_alpha   90.00000000
_cell_angle_beta   90.00000000
_cell_angle_gamma   120.00001286
_symmetry_Int_Tables_number   1
_chemical_formula_structural   TmMg3
_chemical_formula_sum   'Tm2 Mg6'
_cell_volume   194.27427947
_cell_formula_units_Z   2
loop_
 _symmetry_equiv_pos_site_id
 _symmetry_equiv_pos_as_xyz
  1  'x, y, z'
loop_
 _atom_site_type_symbol
 _atom_site_label
 _atom_site_symmetry_multiplicity
 _atom_site_fract_x
 _atom_site_fract_y
 _atom_site_fract_z
 _atom_site_occupancy
  Tm  Tm0  1  0.66666700  0.33333200  0.25000000  1
  Tm  Tm1  1  0.33333300  0.66666700  0.75000100  1
  Mg  Mg0  1  0.16348518  0.32696835  0.25000000  1
  Mg  Mg1  1  0.16348518  0.83651582  0.25000000  1
  Mg  Mg2  1  0.67303165  0.83651582  0.25000000  1
  Mg  Mg3  1  0.32696935  0.16348518  0.75000100  1
  Mg  Mg4  1  0.83651382  0.16348518  0.75000100  1
  Mg  Mg5  1  0.83651582  0.67303265  0.75000100  1
loop_
_geom_bond_atom_site_label_1
_geom_bond_atom_site_label_2
_geom_bond_distance
_geom_bond_site_symmetry_2
Mg0 Mg3 3.178819 1_554
Mg0 Mg3 3.178827 1_555
Mg0 Mg4 3.178832 1_454
Mg0 Mg4 3.178840 1_455
Mg0 Tm1 3.222219 1_554
Mg0 Tm1 3.222227 1_555
Mg0 Mg1 3.239991 1_545
Mg0 Mg2 3.239993 1_445
Mg0 Tm0 3.303261 1_555
Mg0 Tm0 3.303261 1_455
Mg0 Mg2 3.366130 1_555
Mg0 Mg1 3.366135 1_555
Mg1 Mg5 3.178825 1_454
Mg1 Mg3 3.178826 1_564
Mg1 Mg5 3.178833 1_455
Mg1 Mg3 3.178834 1_565
Mg1 Tm1 3.222212 1_554
Mg1 Tm1 3.222220 1_555
Mg1 Mg2 3.239995 1_455
Mg1 Tm0 3.303255 1_565
Mg1 Tm0 3.303268 1_455
Mg1 Mg2 3.366126 1_555
Mg2 Mg5 3.178819 1_554
Mg2 Mg4 3.178826 1_564
Mg2 Mg5 3.178827 1_555
Mg2 Mg4 3.178834 1_565
Mg2 Tm1 3.222218 1_554
Mg2 Tm1 3.222226 1_555
Mg2 Tm0 3.303254 1_565
Mg2 Tm0 3.303274 1_555
Mg3 Tm0 3.222214 1_556
Mg3 Tm0 3.222223 1_555
Mg3 Mg5 3.239993 1_445
Mg3 Mg4 3.240009 1_455
Mg3 Tm1 3.303264 1_555
Mg3 Tm1 3.303264 1_545
Mg3 Mg4 3.366112 1_555
Mg3 Mg5 3.366130 1_555
Mg4 Tm0 3.222201 1_556
Mg4 Tm0 3.222209 1_555
Mg4 Mg5 3.239998 1_545
Mg4 Tm1 3.303258 1_545
Mg4 Tm1 3.303265 1_655
Mg4 Mg5 3.366128 1_555
Mg5 Tm0 3.222226 1_556
Mg5 Tm0 3.222234 1_555
Mg5 Tm1 3.303261 1_555
Mg5 Tm1 3.303261 1_655
