# generated using pymatgen
data_Eu(GaSb)2
_symmetry_space_group_name_H-M   'P 1'
_cell_length_a   4.34833245
_cell_length_b   6.71559364
_cell_length_c   18.25863421
_cell_angle_alpha   90.00000000
_cell_angle_beta   90.00000000
_cell_angle_gamma   90.00000000
_symmetry_Int_Tables_number   1
_chemical_formula_structural   Eu(GaSb)2
_chemical_formula_sum   'Eu4 Ga8 Sb8'
_cell_volume   533.18194890
_cell_formula_units_Z   4
loop_
 _symmetry_equiv_pos_site_id
 _symmetry_equiv_pos_as_xyz
  1  'x, y, z'
loop_
 _atom_site_type_symbol
 _atom_site_label
 _atom_site_symmetry_multiplicity
 _atom_site_fract_x
 _atom_site_fract_y
 _atom_site_fract_z
 _atom_site_occupancy
  Eu  Eu0  1  0.75000000  0.73182108  0.38421300  1
  Eu  Eu1  1  0.75000000  0.76817892  0.88421300  1
  Eu  Eu2  1  0.25000000  0.26817892  0.61578700  1
  Eu  Eu3  1  0.25000000  0.23182108  0.11578700  1
  Ga  Ga0  1  0.75000000  0.54840402  0.20796110  1
  Ga  Ga1  1  0.75000000  0.95159598  0.70796110  1
  Ga  Ga2  1  0.25000000  0.45159598  0.79203890  1
  Ga  Ga3  1  0.25000000  0.04840402  0.29203890  1
  Ga  Ga4  1  0.75000000  0.93905650  0.57072780  1
  Ga  Ga5  1  0.75000000  0.56094350  0.07072780  1
  Ga  Ga6  1  0.25000000  0.06094350  0.42927220  1
  Ga  Ga7  1  0.25000000  0.43905650  0.92927220  1
  Sb  Sb0  1  0.75000000  0.94813033  0.21277926  1
  Sb  Sb1  1  0.75000000  0.55186967  0.71277926  1
  Sb  Sb2  1  0.25000000  0.05186967  0.78722074  1
  Sb  Sb3  1  0.25000000  0.44813033  0.28722074  1
  Sb  Sb4  1  0.75000000  0.26854314  0.46985110  1
  Sb  Sb5  1  0.75000000  0.23145686  0.96985110  1
  Sb  Sb6  1  0.25000000  0.73145686  0.53014890  1
  Sb  Sb7  1  0.25000000  0.76854314  0.03014890  1
loop_
_geom_bond_atom_site_label_1
_geom_bond_atom_site_label_2
_geom_bond_distance
_geom_bond_site_symmetry_2
Eu0 Ga6 3.207660 1_565
Eu0 Ga6 3.207660 1_665
Eu0 Sb3 3.390111 1_655
Eu0 Sb3 3.390111 1_555
Eu0 Sb6 3.439047 1_655
Eu0 Sb6 3.439047 1_555
Eu0 Ga0 3.445796 1_555
Eu0 Sb0 3.450796 1_555
Eu0 Ga3 3.475551 1_565
Eu0 Ga3 3.475551 1_665
Eu0 Sb4 3.482016 1_555
Eu0 Ga4 3.678902 1_555
Eu1 Ga7 3.207660 1_655
Eu1 Ga7 3.207660 1_555
Eu1 Sb2 3.390111 1_565
Eu1 Sb2 3.390111 1_665
Eu1 Sb7 3.439047 1_556
Eu1 Sb7 3.439047 1_656
Eu1 Ga1 3.445796 1_555
Eu1 Sb1 3.450796 1_555
Eu1 Ga2 3.475551 1_655
Eu1 Ga2 3.475551 1_555
Eu1 Sb5 3.482016 1_565
Eu1 Ga5 3.678902 1_556
Eu2 Ga4 3.207660 1_545
Eu2 Ga4 3.207660 1_445
Eu2 Sb1 3.390111 1_455
Eu2 Sb1 3.390111 1_555
Eu2 Sb4 3.439047 1_555
Eu2 Sb4 3.439047 1_455
Eu2 Ga2 3.445796 1_555
Eu2 Sb2 3.450796 1_555
Eu2 Ga1 3.475551 1_445
Eu2 Ga1 3.475551 1_545
Eu2 Sb6 3.482016 1_555
Eu2 Ga6 3.678902 1_555
Eu3 Ga5 3.207660 1_555
Eu3 Ga5 3.207660 1_455
Eu3 Sb0 3.390111 1_545
Eu3 Sb0 3.390111 1_445
Eu3 Sb5 3.439047 1_454
Eu3 Sb5 3.439047 1_554
Eu3 Ga3 3.445796 1_555
Eu3 Sb3 3.450796 1_555
Eu3 Ga0 3.475551 1_455
Eu3 Ga0 3.475551 1_555
Eu3 Sb7 3.482016 1_545
Eu3 Ga7 3.678902 1_554
Ga0 Ga5 2.507107 1_555
Ga0 Sb0 2.685841 1_555
Ga0 Sb3 2.697178 1_555
Ga0 Sb3 2.697178 1_655
Ga1 Ga4 2.507107 1_555
Ga1 Sb1 2.685841 1_555
Ga1 Sb2 2.697178 1_665
Ga1 Sb2 2.697178 1_565
Ga2 Ga7 2.507107 1_555
Ga2 Sb2 2.685841 1_555
Ga2 Sb1 2.697178 1_455
Ga2 Sb1 2.697178 1_555
Ga3 Ga6 2.507107 1_555
Ga3 Sb3 2.685841 1_555
Ga3 Sb0 2.697178 1_545
Ga3 Sb0 2.697178 1_445
Ga4 Sb6 2.686935 1_555
Ga4 Sb6 2.686935 1_655
Ga4 Sb4 2.878979 1_565
Ga5 Sb7 2.686935 1_555
Ga5 Sb7 2.686935 1_655
Ga5 Sb5 2.878979 1_554
Ga6 Sb4 2.686935 1_455
Ga6 Sb4 2.686935 1_555
Ga6 Sb6 2.878979 1_545
Ga7 Sb5 2.686935 1_455
Ga7 Sb5 2.686935 1_555
Ga7 Sb7 2.878979 1_556
