# generated using pymatgen
data_TbPd
_symmetry_space_group_name_H-M   'P 1'
_cell_length_a   3.70567459
_cell_length_b   4.57436458
_cell_length_c   5.57732986
_cell_angle_alpha   90.00000000
_cell_angle_beta   70.59712403
_cell_angle_gamma   90.00000000
_symmetry_Int_Tables_number   1
_chemical_formula_structural   TbPd
_chemical_formula_sum   'Tb2 Pd2'
_cell_volume   89.17249796
_cell_formula_units_Z   2
loop_
 _symmetry_equiv_pos_site_id
 _symmetry_equiv_pos_as_xyz
  1  'x, y, z'
loop_
 _atom_site_type_symbol
 _atom_site_label
 _atom_site_symmetry_multiplicity
 _atom_site_fract_x
 _atom_site_fract_y
 _atom_site_fract_z
 _atom_site_occupancy
  Tb  Tb0  1  0.13683371  0.75000000  0.72633358  1
  Tb  Tb1  1  0.86316629  0.25000000  0.27366642  1
  Pd  Pd0  1  0.41384740  0.75000000  0.17230420  1
  Pd  Pd1  1  0.58615260  0.25000000  0.82769580  1
loop_
_geom_bond_atom_site_label_1
_geom_bond_atom_site_label_2
_geom_bond_distance
_geom_bond_site_symmetry_2
Pd0 Tb0 2.914511 1_555
Pd0 Pd1 2.918489 1_564
Pd0 Pd1 2.918489 1_554
Pd0 Tb0 2.989480 1_554
Pd0 Tb0 2.989485 1_654
Pd0 Tb1 2.991410 1_555
Pd0 Tb1 2.991410 1_565
Pd0 Tb1 2.991410 1_455
Pd0 Tb1 2.991410 1_465
Pd1 Tb1 2.914511 1_555
Pd1 Tb1 2.989480 1_556
Pd1 Tb1 2.989485 1_456
Pd1 Tb0 2.991410 1_545
Pd1 Tb0 2.991410 1_555
Pd1 Tb0 2.991410 1_645
Pd1 Tb0 2.991410 1_655
