# generated using pymatgen
data_Sr3N2
_symmetry_space_group_name_H-M   'P 1'
_cell_length_a   10.69757360
_cell_length_b   10.69757360
_cell_length_c   10.69757360
_cell_angle_alpha   109.47122063
_cell_angle_beta   109.47122063
_cell_angle_gamma   109.47122063
_symmetry_Int_Tables_number   1
_chemical_formula_structural   Sr3N2
_chemical_formula_sum   'Sr24 N16'
_cell_volume   942.39713941
_cell_formula_units_Z   8
loop_
 _symmetry_equiv_pos_site_id
 _symmetry_equiv_pos_as_xyz
  1  'x, y, z'
loop_
 _atom_site_type_symbol
 _atom_site_label
 _atom_site_symmetry_multiplicity
 _atom_site_fract_x
 _atom_site_fract_y
 _atom_site_fract_z
 _atom_site_occupancy
  Sr  Sr0  1  0.53991100  0.26694200  0.99491200  1
  Sr  Sr1  1  0.45500100  0.49491200  0.22797000  1
  Sr  Sr2  1  0.76694200  0.22703100  0.27203000  1
  Sr  Sr3  1  0.22703100  0.27203000  0.76694200  1
  Sr  Sr4  1  0.54499900  0.50508800  0.77203000  1
  Sr  Sr5  1  0.73305800  0.00508800  0.46008900  1
  Sr  Sr6  1  0.03991100  0.04499900  0.27296900  1
  Sr  Sr7  1  0.04499900  0.27296900  0.03991100  1
  Sr  Sr8  1  0.99491200  0.53991100  0.26694200  1
  Sr  Sr9  1  0.95500100  0.72703100  0.96008900  1
  Sr  Sr10  1  0.49491200  0.22797000  0.45500100  1
  Sr  Sr11  1  0.50508800  0.77203000  0.54499900  1
  Sr  Sr12  1  0.77203000  0.54499900  0.50508800  1
  Sr  Sr13  1  0.77296900  0.72797000  0.23305800  1
  Sr  Sr14  1  0.23305800  0.77296900  0.72797000  1
  Sr  Sr15  1  0.46008900  0.73305800  0.00508800  1
  Sr  Sr16  1  0.22797000  0.45500100  0.49491200  1
  Sr  Sr17  1  0.27203000  0.76694200  0.22703100  1
  Sr  Sr18  1  0.72703100  0.96008900  0.95500100  1
  Sr  Sr19  1  0.96008900  0.95500100  0.72703100  1
  Sr  Sr20  1  0.26694200  0.99491200  0.53991100  1
  Sr  Sr21  1  0.27296900  0.03991100  0.04499900  1
  Sr  Sr22  1  0.72797000  0.23305800  0.77296900  1
  Sr  Sr23  1  0.00508800  0.46008900  0.73305800  1
  N  N0  1  0.75000000  0.95556500  0.20556500  1
  N  N1  1  0.45556500  0.70556500  0.75000000  1
  N  N2  1  0.79443500  0.25000000  0.04443500  1
  N  N3  1  0.20556500  0.75000000  0.95556500  1
  N  N4  1  0.25000000  0.54443500  0.29443500  1
  N  N5  1  0.25000000  0.04443500  0.79443500  1
  N  N6  1  0.75000000  0.45556500  0.70556500  1
  N  N7  1  0.29443500  0.25000000  0.54443500  1
  N  N8  1  0.95556500  0.20556500  0.75000000  1
  N  N9  1  0.70556500  0.75000000  0.45556500  1
  N  N10  1  0.50000000  0.50000000  0.00000000  1
  N  N11  1  0.50000000  0.00000000  0.50000000  1
  N  N12  1  0.54443500  0.29443500  0.25000000  1
  N  N13  1  0.04443500  0.79443500  0.25000000  1
  N  N14  1  0.00000000  0.00000000  0.00000000  1
  N  N15  1  0.00000000  0.50000000  0.50000000  1
loop_
_geom_bond_atom_site_label_1
_geom_bond_atom_site_label_2
_geom_bond_distance
_geom_bond_site_symmetry_2
N0 Sr13 2.627306 1_555
N0 Sr18 2.627306 1_554
N0 Sr6 2.669224 1_665
N0 Sr15 2.669224 1_555
N0 Sr5 2.675526 1_565
N0 Sr2 2.675526 1_565
N1 Sr15 2.627306 1_556
N1 Sr16 2.627306 1_555
N1 Sr4 2.669224 1_555
N1 Sr14 2.669224 1_555
N1 Sr18 2.675526 1_555
N1 Sr11 2.675526 1_555
N2 Sr7 2.627306 1_655
N2 Sr2 2.627306 1_555
N2 Sr8 2.669224 1_555
N2 Sr18 2.669224 1_544
N2 Sr22 2.675526 1_554
N2 Sr0 2.675526 1_554
N3 Sr9 2.627306 1_455
N3 Sr14 2.627306 1_555
N3 Sr21 2.669224 1_566
N3 Sr23 2.669224 1_555
N3 Sr15 2.675526 1_556
N3 Sr17 2.675526 1_556
N4 Sr11 2.627306 1_555
N4 Sr8 2.627306 1_455
N4 Sr16 2.669224 1_555
N4 Sr17 2.669224 1_555
N4 Sr1 2.675526 1_555
N4 Sr7 2.675526 1_555
N5 Sr21 2.627306 1_556
N5 Sr3 2.627306 1_555
N5 Sr19 2.669224 1_445
N5 Sr0 2.669224 1_555
N5 Sr14 2.675526 1_545
N5 Sr20 2.675526 1_545
N6 Sr23 2.627306 1_655
N6 Sr10 2.627306 1_555
N6 Sr22 2.669224 1_555
N6 Sr12 2.669224 1_555
N6 Sr9 2.675526 1_555
N6 Sr4 2.675526 1_555
N7 Sr4 2.627306 1_555
N7 Sr20 2.627306 1_545
N7 Sr10 2.669224 1_555
N7 Sr3 2.669224 1_555
N7 Sr16 2.675526 1_555
N7 Sr6 2.675526 1_555
N8 Sr22 2.627306 1_555
N8 Sr19 2.627306 1_545
N8 Sr7 2.669224 1_656
N8 Sr5 2.669224 1_555
N8 Sr23 2.675526 1_655
N8 Sr3 2.675526 1_655
N9 Sr5 2.627306 1_565
N9 Sr1 2.627306 1_555
N9 Sr13 2.669224 1_555
N9 Sr11 2.669224 1_555
N9 Sr19 2.675526 1_555
N9 Sr12 2.675526 1_555
N10 Sr0 2.652496 1_554
N10 Sr4 2.652496 1_554
N10 Sr13 2.652496 1_555
N10 Sr1 2.652496 1_555
N10 Sr15 2.652496 1_555
N10 Sr3 2.652496 1_554
N11 Sr20 2.652496 1_545
N11 Sr11 2.652496 1_545
N11 Sr22 2.652496 1_555
N11 Sr10 2.652496 1_555
N11 Sr17 2.652496 1_545
N11 Sr5 2.652496 1_555
N12 Sr12 2.627306 1_555
N12 Sr0 2.627306 1_554
N12 Sr1 2.669224 1_555
N12 Sr2 2.669224 1_555
N12 Sr10 2.675526 1_555
N12 Sr21 2.675526 1_555
N13 Sr6 2.627306 1_565
N13 Sr17 2.627306 1_555
N13 Sr9 2.669224 1_454
N13 Sr20 2.669224 1_555
N13 Sr13 2.675526 1_455
N13 Sr8 2.675526 1_455
N14 Sr21 2.652496 1_555
N14 Sr6 2.652496 1_555
N14 Sr7 2.652496 1_555
N14 Sr19 2.652496 1_444
N14 Sr9 2.652496 1_444
N14 Sr18 2.652496 1_444
N15 Sr8 2.652496 1_455
N15 Sr12 2.652496 1_455
N15 Sr14 2.652496 1_555
N15 Sr16 2.652496 1_555
N15 Sr23 2.652496 1_555
N15 Sr2 2.652496 1_455
