# generated using pymatgen
data_PrAl4Co
_symmetry_space_group_name_H-M   'P 1'
_cell_length_a   7.64692601
_cell_length_b   4.01724513
_cell_length_c   6.90651286
_cell_angle_alpha   90.00000000
_cell_angle_beta   90.00000000
_cell_angle_gamma   90.00000000
_symmetry_Int_Tables_number   1
_chemical_formula_structural   PrAl4Co
_chemical_formula_sum   'Pr2 Al8 Co2'
_cell_volume   212.16514858
_cell_formula_units_Z   2
loop_
 _symmetry_equiv_pos_site_id
 _symmetry_equiv_pos_as_xyz
  1  'x, y, z'
loop_
 _atom_site_type_symbol
 _atom_site_label
 _atom_site_symmetry_multiplicity
 _atom_site_fract_x
 _atom_site_fract_y
 _atom_site_fract_z
 _atom_site_occupancy
  Pr  Pr0  1  0.25000000  -0.00000000  0.38538609  1
  Pr  Pr1  1  0.75000000  0.00000000  0.61461191  1
  Al  Al0  1  -0.00000000  -0.00000000  0.00000000  1
  Al  Al1  1  0.50000000  -0.00000000  0.00000000  1
  Al  Al2  1  0.25000000  0.50000100  0.04092197  1
  Al  Al3  1  0.57128308  0.50000100  0.29480380  1
  Al  Al4  1  0.92871692  0.50000100  0.29480380  1
  Al  Al5  1  0.07128208  0.50000100  0.70519620  1
  Al  Al6  1  0.42871692  0.50000100  0.70519620  1
  Al  Al7  1  0.75000000  0.50000100  0.95907703  1
  Co  Co0  1  0.75000000  0.00000000  0.18249113  1
  Co  Co1  1  0.25000000  0.00000000  0.81750887  1
loop_
_geom_bond_atom_site_label_1
_geom_bond_atom_site_label_2
_geom_bond_distance
_geom_bond_site_symmetry_2
Al0 Co0 2.289818 1_455
Al0 Co1 2.289818 1_554
Al0 Al2 2.787319 1_545
Al0 Al7 2.787319 1_444
Al0 Al2 2.787324 1_555
Al0 Al7 2.787325 1_454
Al0 Al5 2.911569 1_544
Al0 Al4 2.911571 1_445
Al0 Al5 2.911575 1_554
Al0 Al4 2.911576 1_455
Al0 Pr0 3.277076 1_555
Al0 Pr1 3.277087 1_454
Al1 Co0 2.289818 1_555
Al1 Co1 2.289818 1_554
Al1 Al2 2.787319 1_545
Al1 Al7 2.787319 1_544
Al1 Al2 2.787324 1_555
Al1 Al7 2.787325 1_554
Al1 Al3 2.911571 1_545
Al1 Al6 2.911571 1_544
Al1 Al3 2.911576 1_555
Al1 Al6 2.911576 1_554
Al1 Pr0 3.277076 1_555
Al1 Pr1 3.277087 1_554
Al2 Co1 2.532867 1_564
Al2 Co1 2.532873 1_554
Al2 Al6 2.691474 1_554
Al2 Al5 2.691478 1_554
Al2 Al4 3.018369 1_455
Al2 Al3 3.018369 1_555
Al2 Pr0 3.113584 1_565
Al2 Pr0 3.113590 1_555
Al3 Co0 2.550281 1_565
Al3 Co0 2.550287 1_555
Al3 Al7 2.691480 1_554
Al3 Al4 2.733270 1_555
Al3 Al6 3.036813 1_555
Al3 Pr0 3.234492 1_565
Al3 Pr0 3.234497 1_555
Al3 Pr1 3.283421 1_565
Al3 Pr1 3.283426 1_555
Al4 Co0 2.550281 1_565
Al4 Co0 2.550287 1_555
Al4 Al7 2.691480 1_554
Al4 Al5 3.036810 1_655
Al4 Pr0 3.234492 1_665
Al4 Pr0 3.234497 1_655
Al4 Pr1 3.283421 1_565
Al4 Pr1 3.283426 1_555
Al5 Co1 2.550285 1_565
Al5 Co1 2.550291 1_555
Al5 Al6 2.733278 1_555
Al5 Al7 3.018358 1_455
Al5 Pr1 3.234489 1_465
Al5 Pr1 3.234494 1_455
Al5 Pr0 3.283434 1_565
Al5 Pr0 3.283439 1_555
Al6 Co1 2.550281 1_565
Al6 Co1 2.550287 1_555
Al6 Al7 3.018365 1_555
Al6 Pr1 3.234494 1_565
Al6 Pr1 3.234499 1_555
Al6 Pr0 3.283431 1_565
Al6 Pr0 3.283436 1_555
Al7 Co0 2.532871 1_566
Al7 Co0 2.532877 1_556
Al7 Pr1 3.113590 1_565
Al7 Pr1 3.113595 1_555
Co0 Pr1 2.984448 1_555
Co1 Pr0 2.984462 1_555
