# generated using pymatgen
data_NdHo3
_symmetry_space_group_name_H-M   'P 1'
_cell_length_a   7.25701563
_cell_length_b   7.25701609
_cell_length_c   5.79867286
_cell_angle_alpha   89.99999973
_cell_angle_beta   89.99999947
_cell_angle_gamma   119.99996118
_symmetry_Int_Tables_number   1
_chemical_formula_structural   NdHo3
_chemical_formula_sum   'Nd2 Ho6'
_cell_volume   264.46947572
_cell_formula_units_Z   2
loop_
 _symmetry_equiv_pos_site_id
 _symmetry_equiv_pos_as_xyz
  1  'x, y, z'
loop_
 _atom_site_type_symbol
 _atom_site_label
 _atom_site_symmetry_multiplicity
 _atom_site_fract_x
 _atom_site_fract_y
 _atom_site_fract_z
 _atom_site_occupancy
  Nd  Nd0  1  0.33333331  0.66666716  0.74999908  1
  Nd  Nd1  1  0.66666554  0.33333242  0.25000091  1
  Ho  Ho0  1  0.16478844  0.32957722  0.25000037  1
  Ho  Ho1  1  0.83521924  0.67043890  0.74999964  1
  Ho  Ho2  1  0.32956041  0.16477991  0.74999963  1
  Ho  Ho3  1  0.83521983  0.16478020  0.74999964  1
  Ho  Ho4  1  0.67042322  0.83521156  0.25000037  1
  Ho  Ho5  1  0.16478801  0.83521164  0.25000035  1
loop_
_geom_bond_atom_site_label_1
_geom_bond_atom_site_label_2
_geom_bond_distance
_geom_bond_site_symmetry_2
Ho0 Ho3 3.563179 1_455
Ho0 Ho2 3.563181 1_555
Ho0 Ho3 3.563186 1_454
Ho0 Ho2 3.563188 1_554
Ho0 Ho5 3.587617 1_545
Ho0 Ho4 3.587620 1_445
Ho0 Nd0 3.590860 1_555
Ho0 Nd0 3.590873 1_554
Ho0 Nd1 3.628581 1_555
Ho0 Nd1 3.628588 1_455
Ho0 Ho5 3.669399 1_555
Ho0 Ho4 3.669400 1_555
Ho1 Ho4 3.563179 1_555
Ho1 Ho5 3.563180 1_655
Ho1 Ho4 3.563186 1_556
Ho1 Ho5 3.563187 1_656
Ho1 Ho3 3.587441 1_565
Ho1 Ho2 3.587443 1_665
Ho1 Nd1 3.590922 1_555
Ho1 Nd1 3.590934 1_556
Ho1 Nd0 3.628585 1_655
Ho1 Nd0 3.628586 1_555
Ho1 Ho3 3.669575 1_555
Ho1 Ho2 3.669577 1_555
Ho2 Ho5 3.563178 1_545
Ho2 Ho5 3.563185 1_546
Ho2 Ho3 3.587438 1_455
Ho2 Nd1 3.590917 1_555
Ho2 Nd1 3.590929 1_556
Ho2 Nd0 3.628580 1_545
Ho2 Nd0 3.628591 1_555
Ho2 Ho3 3.669577 1_555
Ho3 Ho4 3.563180 1_545
Ho3 Ho4 3.563186 1_546
Ho3 Nd1 3.590921 1_555
Ho3 Nd1 3.590933 1_556
Ho3 Nd0 3.628586 1_545
Ho3 Nd0 3.628589 1_655
Ho4 Ho5 3.587613 1_655
Ho4 Nd0 3.590860 1_555
Ho4 Nd0 3.590872 1_554
Ho4 Nd1 3.628583 1_565
Ho4 Nd1 3.628587 1_555
Ho4 Ho5 3.669403 1_555
Ho5 Nd0 3.590859 1_555
Ho5 Nd0 3.590871 1_554
Ho5 Nd1 3.628581 1_565
Ho5 Nd1 3.628593 1_455
