# generated using pymatgen
data_Nd(Al2Cu)4
_symmetry_space_group_name_H-M   'P 1'
_cell_length_a   5.12437374
_cell_length_b   6.72151886
_cell_length_c   6.72151361
_cell_angle_alpha   98.49869498
_cell_angle_beta   67.46059130
_cell_angle_gamma   112.53938134
_symmetry_Int_Tables_number   1
_chemical_formula_structural   Nd(Al2Cu)4
_chemical_formula_sum   'Nd1 Al8 Cu4'
_cell_volume   197.49593407
_cell_formula_units_Z   1
loop_
 _symmetry_equiv_pos_site_id
 _symmetry_equiv_pos_as_xyz
  1  'x, y, z'
loop_
 _atom_site_type_symbol
 _atom_site_label
 _atom_site_symmetry_multiplicity
 _atom_site_fract_x
 _atom_site_fract_y
 _atom_site_fract_z
 _atom_site_occupancy
  Nd  Nd0  1  0.00000008  -0.00000009  -0.00000006  1
  Al  Al0  1  0.50000048  0.22117198  0.22117215  1
  Al  Al1  1  0.27898504  0.77866449  0.22133526  1
  Al  Al2  1  0.00000062  0.34933231  0.34933105  1
  Al  Al3  1  0.65024476  0.65068291  0.34931613  1
  Al  Al4  1  0.34975567  0.34931737  0.65068423  1
  Al  Al5  1  0.99999987  0.65066833  0.65066959  1
  Al  Al6  1  0.50000041  0.77882803  0.77882801  1
  Al  Al7  1  0.72101460  0.22133511  0.77866438  1
  Cu  Cu0  1  0.00000003  0.50000014  0.00000001  1
  Cu  Cu1  1  0.49999983  0.49999940  0.00000037  1
  Cu  Cu2  1  0.00000004  0.00000015  0.49999960  1
  Cu  Cu3  1  0.49999957  -0.00000013  0.49999928  1
loop_
_geom_bond_atom_site_label_1
_geom_bond_atom_site_label_2
_geom_bond_distance
_geom_bond_site_symmetry_2
Al0 Cu2 2.551336 1_555
Al0 Cu0 2.551337 1_655
Al0 Cu3 2.558498 1_555
Al0 Cu1 2.558502 1_555
Al0 Al7 2.747144 1_554
Al0 Al1 2.747145 1_545
Al0 Al3 2.781836 1_555
Al0 Al4 2.781844 1_555
Al0 Al2 2.798136 1_655
Al0 Al2 2.798142 1_555
Al0 Nd0 3.214280 1_655
Al0 Nd0 3.214284 1_555
Al1 Cu3 2.552491 1_565
Al1 Cu1 2.552497 1_555
Al1 Cu0 2.553320 1_555
Al1 Cu2 2.553321 1_565
Al1 Al6 2.747141 1_554
Al1 Al2 2.782035 1_555
Al1 Al5 2.782046 1_455
Al1 Al3 2.797751 1_555
Al1 Al3 2.798173 1_455
Al1 Nd0 3.209977 1_665
Al1 Nd0 3.222675 1_565
Al2 Al5 2.644291 1_455
Al2 Cu1 2.684225 1_555
Al2 Cu3 2.684239 1_455
Al2 Cu0 2.691042 1_555
Al2 Cu2 2.691050 1_555
Al2 Al7 2.782042 1_455
Al2 Nd0 3.065451 1_555
Al3 Al4 2.647231 1_555
Al3 Cu0 2.685791 1_655
Al3 Cu2 2.685800 1_665
Al3 Cu1 2.686355 1_555
Al3 Cu3 2.686364 1_565
Al3 Al6 2.781842 1_555
Al3 Nd0 3.068397 1_665
Al4 Cu0 2.685791 1_556
Al4 Cu2 2.685804 1_555
Al4 Cu1 2.686354 1_556
Al4 Cu3 2.686366 1_555
Al4 Al6 2.781834 1_555
Al4 Al7 2.797747 1_555
Al4 Al7 2.798177 1_455
Al4 Nd0 3.068397 1_556
Al5 Cu1 2.684229 1_556
Al5 Cu3 2.684234 1_665
Al5 Cu0 2.691038 1_656
Al5 Cu2 2.691053 1_665
Al5 Al7 2.782039 1_555
Al5 Al6 2.798137 1_655
Al5 Al6 2.798137 1_555
Al5 Nd0 3.065444 1_666
Al6 Cu2 2.551337 1_665
Al6 Cu0 2.551338 1_556
Al6 Cu1 2.558508 1_556
Al6 Cu3 2.558510 1_565
Al6 Al7 2.747143 1_565
Al6 Nd0 3.214280 1_666
Al6 Nd0 3.214282 1_566
Al7 Cu1 2.552495 1_556
Al7 Cu3 2.552498 1_555
Al7 Cu2 2.553321 1_655
Al7 Cu0 2.553325 1_656
Al7 Nd0 3.209975 1_556
Al7 Nd0 3.222677 1_656
Cu0 Cu1 2.562185 1_455
Cu0 Cu1 2.562189 1_555
Cu0 Nd0 3.360758 1_565
Cu0 Nd0 3.360761 1_555
Cu1 Nd0 3.355303 1_555
Cu1 Nd0 3.355308 1_665
Cu2 Cu3 2.562184 1_555
Cu2 Cu3 2.562189 1_455
Cu2 Nd0 3.360754 1_555
Cu2 Nd0 3.360759 1_556
Cu3 Nd0 3.355301 1_655
Cu3 Nd0 3.355305 1_556
