# generated using pymatgen
data_LaWN3
_symmetry_space_group_name_H-M   'P 1'
_cell_length_a   7.43398581
_cell_length_b   7.43384676
_cell_length_c   6.34875792
_cell_angle_alpha   76.73959110
_cell_angle_beta   76.73688854
_cell_angle_gamma   85.96467674
_symmetry_Int_Tables_number   1
_chemical_formula_structural   LaWN3
_chemical_formula_sum   'La4 W4 N12'
_cell_volume   332.33039368
_cell_formula_units_Z   4
loop_
 _symmetry_equiv_pos_site_id
 _symmetry_equiv_pos_as_xyz
  1  'x, y, z'
loop_
 _atom_site_type_symbol
 _atom_site_label
 _atom_site_symmetry_multiplicity
 _atom_site_fract_x
 _atom_site_fract_y
 _atom_site_fract_z
 _atom_site_occupancy
  La  La0  1  0.09390467  0.90609676  0.24999965  1
  La  La1  1  0.30934251  0.69065581  0.74999360  1
  La  La2  1  0.69065782  0.30934131  0.25001401  1
  La  La3  1  0.90608557  0.09389199  0.74999751  1
  W  W0  1  0.62032000  0.79763269  0.24928157  1
  W  W1  1  0.20232804  0.37974161  0.25071326  1
  W  W2  1  0.37966622  0.20237774  0.75069905  1
  W  W3  1  0.79767651  0.62024653  0.74928301  1
  N  N0  1  0.32845644  0.36800135  0.49172693  1
  N  N1  1  0.39015358  0.87458920  0.35485710  1
  N  N2  1  0.00326885  0.22552045  0.34515688  1
  N  N3  1  0.87464297  0.39010299  0.85487939  1
  N  N4  1  0.60981911  0.12546163  0.64513927  1
  N  N5  1  0.77449362  0.99671964  0.15483171  1
  N  N6  1  0.22546327  0.00329532  0.84516972  1
  N  N7  1  0.63207777  0.67146691  0.00829850  1
  N  N8  1  0.36795466  0.32852117  0.99171368  1
  N  N9  1  0.67152738  0.63203559  0.50827321  1
  N  N10  1  0.12541733  0.60986308  0.14512768  1
  N  N11  1  0.99674570  0.77443723  0.65484228  1
loop_
_geom_bond_atom_site_label_1
_geom_bond_atom_site_label_2
_geom_bond_distance
_geom_bond_site_symmetry_2
La0 N10 2.424072 1_555
La0 N1 2.424210 1_555
La0 N6 2.485655 1_564
La0 N11 2.485844 1_455
La0 N5 2.589123 1_455
La0 N2 2.589127 1_565
La1 N10 2.524655 1_556
La1 N1 2.524722 1_555
La1 N11 2.533949 1_455
La1 N6 2.534333 1_565
La1 N8 2.835234 1_555
La1 N9 2.835513 1_555
La1 N0 3.179806 1_555
La1 N7 3.180522 1_556
La2 N4 2.524542 1_555
La2 N3 2.524794 1_554
La2 N2 2.534066 1_655
La2 N5 2.534181 1_545
La2 N7 2.835118 1_555
La2 N0 2.835659 1_555
La2 N9 3.180016 1_555
La2 N8 3.180304 1_554
La3 N3 2.423954 1_555
La3 N4 2.424324 1_555
La3 N5 2.485706 1_546
La3 N2 2.485807 1_655
La3 N6 2.588869 1_655
La3 N11 2.589367 1_545
N0 W2 1.912232 1_555
N0 W1 1.952852 1_555
N1 W0 1.793364 1_555
N2 W1 1.838475 1_555
N3 W3 1.793291 1_555
N4 W2 1.793155 1_555
N5 W0 1.838417 1_555
N6 W2 1.838523 1_555
N7 W3 1.912333 1_554
N7 W0 1.952793 1_555
N8 W1 1.912346 1_556
N8 W2 1.952918 1_555
N9 W0 1.912235 1_555
N9 W3 1.952871 1_555
N10 W1 1.792997 1_555
N11 W3 1.838395 1_555
