# generated using pymatgen
data_Yb2ZnPb
_symmetry_space_group_name_H-M   'P 1'
_cell_length_a   5.33299015
_cell_length_b   5.33299015
_cell_length_c   5.33299015
_cell_angle_alpha   60.00000000
_cell_angle_beta   60.00000877
_cell_angle_gamma   59.99999123
_symmetry_Int_Tables_number   1
_chemical_formula_structural   Yb2ZnPb
_chemical_formula_sum   'Yb2 Zn1 Pb1'
_cell_volume   107.25001143
_cell_formula_units_Z   1
loop_
 _symmetry_equiv_pos_site_id
 _symmetry_equiv_pos_as_xyz
  1  'x, y, z'
loop_
 _atom_site_type_symbol
 _atom_site_label
 _atom_site_symmetry_multiplicity
 _atom_site_fract_x
 _atom_site_fract_y
 _atom_site_fract_z
 _atom_site_occupancy
  Yb  Yb0  1  0.25000000  0.25000000  0.25000000  1
  Yb  Yb1  1  0.75000000  0.75000000  0.75000000  1
  Zn  Zn0  1  0.00000000  0.00000000  0.00000000  1
  Pb  Pb0  1  0.50000000  0.50000000  0.50000000  1
loop_
_geom_bond_atom_site_label_1
_geom_bond_atom_site_label_2
_geom_bond_distance
_geom_bond_site_symmetry_2
Yb0 Zn0 3.265776 1_565
Yb0 Zn0 3.265776 1_655
Yb0 Zn0 3.265776 1_555
Yb0 Zn0 3.265776 1_556
Yb1 Zn0 3.265776 1_656
Yb1 Zn0 3.265776 1_666
Yb1 Zn0 3.265776 1_566
Yb1 Zn0 3.265776 1_665
Pb0 Yb1 3.265776 1_545
Pb0 Yb0 3.265776 1_565
Pb0 Yb1 3.265776 1_455
Pb0 Yb0 3.265776 1_555
Pb0 Yb0 3.265776 1_655
Pb0 Yb1 3.265776 1_555
Pb0 Yb0 3.265776 1_556
Pb0 Yb1 3.265776 1_554
