# generated using pymatgen
data_LiEr2Ga
_symmetry_space_group_name_H-M   'P 1'
_cell_length_a   5.05008592
_cell_length_b   5.05008592
_cell_length_c   5.05008592
_cell_angle_alpha   60.00000000
_cell_angle_beta   60.00000000
_cell_angle_gamma   60.00000000
_symmetry_Int_Tables_number   1
_chemical_formula_structural   LiEr2Ga
_chemical_formula_sum   'Li1 Er2 Ga1'
_cell_volume   91.07125126
_cell_formula_units_Z   1
loop_
 _symmetry_equiv_pos_site_id
 _symmetry_equiv_pos_as_xyz
  1  'x, y, z'
loop_
 _atom_site_type_symbol
 _atom_site_label
 _atom_site_symmetry_multiplicity
 _atom_site_fract_x
 _atom_site_fract_y
 _atom_site_fract_z
 _atom_site_occupancy
  Li  Li0  1  0.50000000  0.50000000  0.50000000  1
  Er  Er0  1  0.75000000  0.75000000  0.75000000  1
  Er  Er1  1  0.25000000  0.25000000  0.25000000  1
  Ga  Ga0  1  0.00000000  0.00000000  0.00000000  1
loop_
_geom_bond_atom_site_label_1
_geom_bond_atom_site_label_2
_geom_bond_distance
_geom_bond_site_symmetry_2
Er0 Ga0 3.092533 1_566
Er0 Li0 3.092533 1_555
Er0 Li0 3.092533 1_655
Er0 Li0 3.092533 1_565
Er0 Ga0 3.092533 1_656
Er0 Ga0 3.092533 1_665
Er0 Li0 3.092533 1_556
Er0 Ga0 3.092533 1_666
Er1 Ga0 3.092533 1_556
Er1 Li0 3.092533 1_555
Er1 Ga0 3.092533 1_565
Er1 Li0 3.092533 1_554
Er1 Li0 3.092533 1_545
Er1 Li0 3.092533 1_455
Er1 Ga0 3.092533 1_555
Er1 Ga0 3.092533 1_655
