# generated using pymatgen
data_LaOsN3
_symmetry_space_group_name_H-M   'P 1'
_cell_length_a   5.57403800
_cell_length_b   5.57876600
_cell_length_c   7.92000500
_cell_angle_alpha   90.00000000
_cell_angle_beta   90.00000000
_cell_angle_gamma   90.00000000
_symmetry_Int_Tables_number   1
_chemical_formula_structural   LaOsN3
_chemical_formula_sum   'La4 Os4 N12'
_cell_volume   246.28248460
_cell_formula_units_Z   4
loop_
 _symmetry_equiv_pos_site_id
 _symmetry_equiv_pos_as_xyz
  1  'x, y, z'
loop_
 _atom_site_type_symbol
 _atom_site_label
 _atom_site_symmetry_multiplicity
 _atom_site_fract_x
 _atom_site_fract_y
 _atom_site_fract_z
 _atom_site_occupancy
  La  La0  1  0.51676300  0.49954500  0.75000000  1
  La  La1  1  0.01676300  0.00045500  0.75000000  1
  La  La2  1  0.98323700  0.99954500  0.25000000  1
  La  La3  1  0.48323700  0.50045500  0.25000000  1
  Os  Os0  1  0.00000000  0.50000000  0.50000000  1
  Os  Os1  1  0.50000000  0.00000000  0.00000000  1
  Os  Os2  1  0.50000000  0.00000000  0.50000000  1
  Os  Os3  1  0.00000000  0.50000000  0.00000000  1
  N  N0  1  0.22250900  0.77777300  0.02198800  1
  N  N1  1  0.77749100  0.22222700  0.52198800  1
  N  N2  1  0.77749100  0.22222700  0.97801200  1
  N  N3  1  0.49644000  0.95632200  0.75000000  1
  N  N4  1  0.99644000  0.54367800  0.75000000  1
  N  N5  1  0.50356000  0.04367800  0.25000000  1
  N  N6  1  0.22250900  0.77777300  0.47801200  1
  N  N7  1  0.72250900  0.72222700  0.47801200  1
  N  N8  1  0.72250900  0.72222700  0.02198800  1
  N  N9  1  0.27749100  0.27777300  0.52198800  1
  N  N10  1  0.00356000  0.45632200  0.25000000  1
  N  N11  1  0.27749100  0.27777300  0.97801200  1
loop_
_geom_bond_atom_site_label_1
_geom_bond_atom_site_label_2
_geom_bond_distance
_geom_bond_site_symmetry_2
La0 N3 2.550769 1_555
La0 N11 2.563318 1_555
La0 N9 2.563318 1_555
La0 N4 2.685050 1_555
La0 N8 2.738406 1_556
La0 N7 2.738406 1_555
La0 N1 2.786883 1_555
La0 N2 2.786883 1_555
La0 N4 2.910732 1_455
La0 N3 3.032630 1_545
La0 N0 3.120861 1_556
La0 N6 3.120861 1_555
La1 N4 2.550769 1_445
La1 N2 2.563318 1_455
La1 N1 2.563318 1_455
La1 N3 2.685050 1_545
La1 N0 2.738406 1_546
La1 N6 2.738406 1_545
La1 N11 2.786883 1_555
La1 N9 2.786883 1_555
La1 N3 2.910732 1_445
La1 N4 3.032630 1_455
La1 N8 3.120861 1_446
La1 N7 3.120861 1_445
La2 N10 2.550769 1_665
La2 N0 2.563318 1_655
La2 N6 2.563318 1_655
La2 N5 2.685050 1_565
La2 N2 2.738406 1_564
La2 N1 2.738406 1_565
La2 N8 2.786883 1_555
La2 N7 2.786883 1_555
La2 N5 2.910732 1_665
La2 N10 3.032630 1_655
La2 N9 3.120861 1_665
La2 N11 3.120861 1_664
La3 N5 2.550769 1_555
La3 N8 2.563318 1_555
La3 N7 2.563318 1_555
La3 N10 2.685050 1_555
La3 N11 2.738406 1_554
La3 N9 2.738406 1_555
La3 N0 2.786883 1_555
La3 N6 2.786883 1_555
La3 N10 2.910732 1_655
La3 N5 3.032630 1_565
La3 N2 3.120861 1_554
La3 N1 3.120861 1_555
N0 Os1 1.989908 1_565
N0 Os3 1.992476 1_555
N1 Os2 1.989908 1_555
N1 Os0 1.992476 1_655
N2 Os1 1.989908 1_556
N2 Os3 1.992476 1_656
N3 Os2 1.995037 1_565
N3 Os1 1.995037 1_566
N4 Os0 1.995037 1_655
N4 Os3 1.995037 1_656
N5 Os1 1.995037 1_555
N5 Os2 1.995037 1_555
N6 Os2 1.989908 1_565
N6 Os0 1.992476 1_555
N7 Os0 1.989908 1_655
N7 Os2 1.992476 1_565
N8 Os3 1.989908 1_655
N8 Os1 1.992476 1_565
N9 Os0 1.989908 1_555
N9 Os2 1.992476 1_555
N10 Os3 1.995037 1_555
N10 Os0 1.995037 1_555
N11 Os3 1.989908 1_556
N11 Os1 1.992476 1_556
