# generated using pymatgen
data_CoHg3
_symmetry_space_group_name_H-M   'P 1'
_cell_length_a   4.28846800
_cell_length_b   4.28846800
_cell_length_c   4.28846800
_cell_angle_alpha   90.00000000
_cell_angle_beta   90.00000000
_cell_angle_gamma   90.00000000
_symmetry_Int_Tables_number   1
_chemical_formula_structural   CoHg3
_chemical_formula_sum   'Co1 Hg3'
_cell_volume   78.86903396
_cell_formula_units_Z   1
loop_
 _symmetry_equiv_pos_site_id
 _symmetry_equiv_pos_as_xyz
  1  'x, y, z'
loop_
 _atom_site_type_symbol
 _atom_site_label
 _atom_site_symmetry_multiplicity
 _atom_site_fract_x
 _atom_site_fract_y
 _atom_site_fract_z
 _atom_site_occupancy
  Co  Co0  1  0.00000000  0.00000000  0.00000000  1
  Hg  Hg0  1  0.00000000  0.50000000  0.50000000  1
  Hg  Hg1  1  0.50000000  0.00000000  0.50000000  1
  Hg  Hg2  1  0.50000000  0.50000000  0.00000000  1
loop_
_geom_bond_atom_site_label_1
_geom_bond_atom_site_label_2
_geom_bond_distance
_geom_bond_site_symmetry_2
Co0 Hg0 3.032405 1_544
Co0 Hg1 3.032405 1_555
Co0 Hg1 3.032405 1_554
Co0 Hg2 3.032405 1_545
Co0 Hg2 3.032405 1_455
Co0 Hg0 3.032405 1_545
Co0 Hg1 3.032405 1_455
Co0 Hg1 3.032405 1_454
Co0 Hg2 3.032405 1_555
Co0 Hg0 3.032405 1_554
Co0 Hg0 3.032405 1_555
Co0 Hg2 3.032405 1_445
Hg0 Hg2 3.032405 1_456
Hg0 Hg1 3.032405 1_555
Hg0 Hg2 3.032405 1_455
Hg0 Hg1 3.032405 1_565
Hg0 Hg1 3.032405 1_455
Hg0 Hg2 3.032405 1_556
Hg0 Hg2 3.032405 1_555
Hg0 Hg1 3.032405 1_465
Hg1 Hg2 3.032405 1_545
Hg1 Hg2 3.032405 1_556
Hg1 Hg2 3.032405 1_555
Hg1 Hg2 3.032405 1_546
