# generated using pymatgen
data_Ta2FeMo
_symmetry_space_group_name_H-M   'P 1'
_cell_length_a   4.42331705
_cell_length_b   4.42463287
_cell_length_c   4.42462978
_cell_angle_alpha   60.11743680
_cell_angle_beta   60.11478228
_cell_angle_gamma   60.11437822
_symmetry_Int_Tables_number   1
_chemical_formula_structural   Ta2FeMo
_chemical_formula_sum   'Ta2 Fe1 Mo1'
_cell_volume   61.39351903
_cell_formula_units_Z   1
loop_
 _symmetry_equiv_pos_site_id
 _symmetry_equiv_pos_as_xyz
  1  'x, y, z'
loop_
 _atom_site_type_symbol
 _atom_site_label
 _atom_site_symmetry_multiplicity
 _atom_site_fract_x
 _atom_site_fract_y
 _atom_site_fract_z
 _atom_site_occupancy
  Ta  Ta0  1  0.00009909  0.00009242  0.00009170  1
  Ta  Ta1  1  0.49991018  0.49990343  0.49990860  1
  Fe  Fe0  1  0.24999904  0.24999821  0.24999472  1
  Mo  Mo0  1  0.74999569  0.75000794  0.75000598  1
loop_
_geom_bond_atom_site_label_1
_geom_bond_atom_site_label_2
_geom_bond_distance
_geom_bond_site_symmetry_2
Fe0 Ta0 2.705835 1_555
Fe0 Ta1 2.705912 1_555
Fe0 Ta1 2.712928 1_455
Fe0 Ta0 2.712968 1_655
Fe0 Ta1 2.713805 1_554
Fe0 Ta0 2.713825 1_565
Fe0 Ta1 2.713827 1_545
Fe0 Ta0 2.713844 1_556
Mo0 Ta0 2.707873 1_666
Mo0 Ta1 2.707923 1_555
Mo0 Ta0 2.712236 1_566
Mo0 Ta1 2.712300 1_655
Mo0 Ta1 2.713109 1_565
Mo0 Ta1 2.713144 1_556
Mo0 Ta0 2.713182 1_656
Mo0 Ta0 2.713186 1_665
