# generated using pymatgen
data_Al3Cu
_symmetry_space_group_name_H-M   'P 1'
_cell_length_a   5.55681086
_cell_length_b   5.55681086
_cell_length_c   15.02680682
_cell_angle_alpha   90.00000000
_cell_angle_beta   90.00000000
_cell_angle_gamma   90.00000000
_symmetry_Int_Tables_number   1
_chemical_formula_structural   Al3Cu
_chemical_formula_sum   'Al24 Cu8'
_cell_volume   463.99994873
_cell_formula_units_Z   8
loop_
 _symmetry_equiv_pos_site_id
 _symmetry_equiv_pos_as_xyz
  1  'x, y, z'
loop_
 _atom_site_type_symbol
 _atom_site_label
 _atom_site_symmetry_multiplicity
 _atom_site_fract_x
 _atom_site_fract_y
 _atom_site_fract_z
 _atom_site_occupancy
  Al  Al0_0  1  0.00000000  0.00000000  0.25000000  1
  Al  Al0_1  1  0.00000000  0.00000000  0.75000000  1
  Al  Al0_2  1  0.00000000  0.50000000  0.25000000  1
  Al  Al0_3  1  0.00000000  0.50000000  0.75000000  1
  Al  Al0_4  1  0.50000000  0.00000000  0.25000000  1
  Al  Al0_5  1  0.50000000  0.00000000  0.75000000  1
  Al  Al0_6  1  0.50000000  0.50000000  0.25000000  1
  Al  Al0_7  1  0.50000000  0.50000000  0.75000000  1
  Al  Al1_0  1  0.25000000  0.25000000  0.38694225  1
  Al  Al1_1  1  0.25000000  0.25000000  0.88694224  1
  Al  Al1_2  1  0.25000000  0.75000000  0.38694225  1
  Al  Al1_3  1  0.25000000  0.75000000  0.88694224  1
  Al  Al1_4  1  0.75000000  0.25000000  0.38694225  1
  Al  Al1_5  1  0.75000000  0.25000000  0.88694224  1
  Al  Al1_6  1  0.75000000  0.75000000  0.38694225  1
  Al  Al1_7  1  0.75000000  0.75000000  0.88694224  1
  Al  Al2_0  1  0.25000000  0.25000000  0.11305775  1
  Al  Al2_1  1  0.25000000  0.25000000  0.61305776  1
  Al  Al2_2  1  0.25000000  0.75000000  0.11305775  1
  Al  Al2_3  1  0.25000000  0.75000000  0.61305776  1
  Al  Al2_4  1  0.75000000  0.25000000  0.11305775  1
  Al  Al2_5  1  0.75000000  0.25000000  0.61305776  1
  Al  Al2_6  1  0.75000000  0.75000000  0.11305775  1
  Al  Al2_7  1  0.75000000  0.75000000  0.61305776  1
  Cu  Cu0_0  1  0.00000000  0.00000000  0.00000000  1
  Cu  Cu0_1  1  0.00000000  0.00000000  0.50000000  1
  Cu  Cu0_2  1  0.00000000  0.50000000  0.00000000  1
  Cu  Cu0_3  1  0.00000000  0.50000000  0.50000000  1
  Cu  Cu0_4  1  0.50000000  0.00000000  0.00000000  1
  Cu  Cu0_5  1  0.50000000  0.00000000  0.50000000  1
  Cu  Cu0_6  1  0.50000000  0.50000000  0.00000000  1
  Cu  Cu0_7  1  0.50000000  0.50000000  0.50000000  1
loop_
_geom_bond_atom_site_label_1
_geom_bond_atom_site_label_2
_geom_bond_distance
_geom_bond_site_symmetry_2
Al0_0 Al0_4 2.778405 1_455
Al0_0 Al0_4 2.778405 1_555
Al0_0 Al0_2 2.778405 1_545
Al0_0 Al0_2 2.778405 1_555
Al0_0 Al2_2 2.845053 1_545
Al0_0 Al2_0 2.845053 1_555
Al0_0 Al1_2 2.845053 1_545
Al0_0 Al1_0 2.845053 1_555
Al0_0 Al2_4 2.845053 1_455
Al0_0 Al1_6 2.845053 1_445
Al0_0 Al2_6 2.845053 1_445
Al0_0 Al1_4 2.845053 1_455
Al0_1 Al0_5 2.778405 1_455
Al0_1 Al0_5 2.778405 1_555
Al0_1 Al0_3 2.778405 1_545
Al0_1 Al0_3 2.778405 1_555
Al0_1 Al2_5 2.845053 1_455
Al0_1 Al2_1 2.845053 1_555
Al0_1 Al2_3 2.845053 1_545
Al0_1 Al2_7 2.845053 1_445
Al0_1 Al1_3 2.845053 1_545
Al0_1 Al1_1 2.845053 1_555
Al0_1 Al1_5 2.845053 1_455
Al0_1 Al1_7 2.845053 1_445
Al0_2 Al0_6 2.778405 1_555
Al0_2 Al0_6 2.778405 1_455
Al0_2 Al2_2 2.845053 1_555
Al0_2 Al1_2 2.845053 1_555
Al0_2 Al2_0 2.845053 1_555
Al0_2 Al1_0 2.845053 1_555
Al0_2 Al2_4 2.845053 1_455
Al0_2 Al1_6 2.845053 1_455
Al0_2 Al1_4 2.845053 1_455
Al0_2 Al2_6 2.845053 1_455
Al0_3 Al0_7 2.778405 1_555
Al0_3 Al0_7 2.778405 1_455
Al0_3 Al2_5 2.845053 1_455
Al0_3 Al2_3 2.845053 1_555
Al0_3 Al2_1 2.845053 1_555
Al0_3 Al2_7 2.845053 1_455
Al0_3 Al1_1 2.845053 1_555
Al0_3 Al1_3 2.845053 1_555
Al0_3 Al1_5 2.845053 1_455
Al0_3 Al1_7 2.845053 1_455
Al0_4 Al0_6 2.778405 1_545
Al0_4 Al0_6 2.778405 1_555
Al0_4 Al2_6 2.845053 1_545
Al0_4 Al1_6 2.845053 1_545
Al0_4 Al1_0 2.845053 1_555
Al0_4 Al2_4 2.845053 1_555
Al0_4 Al1_4 2.845053 1_555
Al0_4 Al2_2 2.845053 1_545
Al0_4 Al2_0 2.845053 1_555
Al0_4 Al1_2 2.845053 1_545
Al0_5 Al0_7 2.778405 1_555
Al0_5 Al0_7 2.778405 1_545
Al0_5 Al2_1 2.845053 1_555
Al0_5 Al2_7 2.845053 1_545
Al0_5 Al2_5 2.845053 1_555
Al0_5 Al2_3 2.845053 1_545
Al0_5 Al1_7 2.845053 1_545
Al0_5 Al1_1 2.845053 1_555
Al0_5 Al1_5 2.845053 1_555
Al0_5 Al1_3 2.845053 1_545
Al0_6 Al2_0 2.845053 1_555
Al0_6 Al1_6 2.845053 1_555
Al0_6 Al1_0 2.845053 1_555
Al0_6 Al2_6 2.845053 1_555
Al0_6 Al2_4 2.845053 1_555
Al0_6 Al2_2 2.845053 1_555
Al0_6 Al1_4 2.845053 1_555
Al0_6 Al1_2 2.845053 1_555
Al0_7 Al2_3 2.845053 1_555
Al0_7 Al2_7 2.845053 1_555
Al0_7 Al2_1 2.845053 1_555
Al0_7 Al2_5 2.845053 1_555
Al0_7 Al1_1 2.845053 1_555
Al0_7 Al1_7 2.845053 1_555
Al0_7 Al1_3 2.845053 1_555
Al0_7 Al1_5 2.845053 1_555
Al1_0 Cu0_5 2.597310 1_555
Al1_0 Cu0_3 2.597310 1_555
Al1_0 Cu0_7 2.597310 1_555
Al1_0 Cu0_1 2.597310 1_555
Al1_0 Al1_2 2.778405 1_545
Al1_0 Al1_4 2.778405 1_455
Al1_0 Al1_2 2.778405 1_555
Al1_0 Al1_4 2.778405 1_555
Al1_1 Cu0_2 2.597310 1_556
Al1_1 Cu0_6 2.597310 1_556
Al1_1 Cu0_0 2.597310 1_556
Al1_1 Cu0_4 2.597310 1_556
Al1_1 Al1_5 2.778405 1_455
Al1_1 Al1_3 2.778405 1_555
Al1_1 Al1_3 2.778405 1_545
Al1_1 Al1_5 2.778405 1_555
Al1_2 Cu0_1 2.597310 1_565
Al1_2 Cu0_3 2.597310 1_555
Al1_2 Cu0_7 2.597310 1_555
Al1_2 Cu0_5 2.597310 1_565
Al1_2 Al1_6 2.778405 1_555
Al1_2 Al1_6 2.778405 1_455
Al1_3 Cu0_2 2.597310 1_556
Al1_3 Cu0_0 2.597310 1_566
Al1_3 Cu0_6 2.597310 1_556
Al1_3 Cu0_4 2.597310 1_566
Al1_3 Al1_7 2.778405 1_455
Al1_3 Al1_7 2.778405 1_555
Al1_4 Cu0_5 2.597310 1_555
Al1_4 Cu0_1 2.597310 1_655
Al1_4 Cu0_3 2.597310 1_655
Al1_4 Cu0_7 2.597310 1_555
Al1_4 Al1_6 2.778405 1_545
Al1_4 Al1_6 2.778405 1_555
Al1_5 Cu0_0 2.597310 1_656
Al1_5 Cu0_2 2.597310 1_656
Al1_5 Cu0_4 2.597310 1_556
Al1_5 Cu0_6 2.597310 1_556
Al1_5 Al1_7 2.778405 1_555
Al1_5 Al1_7 2.778405 1_545
Al1_6 Cu0_5 2.597310 1_565
Al1_6 Cu0_7 2.597310 1_555
Al1_6 Cu0_3 2.597310 1_655
Al1_6 Cu0_1 2.597310 1_665
Al1_7 Cu0_4 2.597310 1_566
Al1_7 Cu0_6 2.597310 1_556
Al1_7 Cu0_2 2.597310 1_656
Al1_7 Cu0_0 2.597310 1_666
Al2_0 Cu0_2 2.597310 1_555
Al2_0 Cu0_4 2.597310 1_555
Al2_0 Cu0_6 2.597310 1_555
Al2_0 Cu0_0 2.597310 1_555
Al2_0 Al2_4 2.778405 1_555
Al2_0 Al2_4 2.778405 1_455
Al2_0 Al2_2 2.778405 1_545
Al2_0 Al2_2 2.778405 1_555
Al2_1 Cu0_7 2.597310 1_555
Al2_1 Cu0_1 2.597310 1_555
Al2_1 Cu0_5 2.597310 1_555
Al2_1 Cu0_3 2.597310 1_555
Al2_1 Al2_3 2.778405 1_555
Al2_1 Al2_3 2.778405 1_545
Al2_1 Al2_5 2.778405 1_555
Al2_1 Al2_5 2.778405 1_455
Al2_2 Cu0_2 2.597310 1_555
Al2_2 Cu0_6 2.597310 1_555
Al2_2 Cu0_0 2.597310 1_565
Al2_2 Cu0_4 2.597310 1_565
Al2_2 Al2_6 2.778405 1_455
Al2_2 Al2_6 2.778405 1_555
Al2_3 Cu0_7 2.597310 1_555
Al2_3 Cu0_1 2.597310 1_565
Al2_3 Cu0_3 2.597310 1_555
Al2_3 Cu0_5 2.597310 1_565
Al2_3 Al2_7 2.778405 1_555
Al2_3 Al2_7 2.778405 1_455
Al2_4 Cu0_2 2.597310 1_655
Al2_4 Cu0_4 2.597310 1_555
Al2_4 Cu0_0 2.597310 1_655
Al2_4 Cu0_6 2.597310 1_555
Al2_4 Al2_6 2.778405 1_545
Al2_4 Al2_6 2.778405 1_555
Al2_5 Cu0_3 2.597310 1_655
Al2_5 Cu0_5 2.597310 1_555
Al2_5 Cu0_1 2.597310 1_655
Al2_5 Cu0_7 2.597310 1_555
Al2_5 Al2_7 2.778405 1_555
Al2_5 Al2_7 2.778405 1_545
Al2_6 Cu0_6 2.597310 1_555
Al2_6 Cu0_4 2.597310 1_565
Al2_6 Cu0_2 2.597310 1_655
Al2_6 Cu0_0 2.597310 1_665
Al2_7 Cu0_5 2.597310 1_565
Al2_7 Cu0_7 2.597310 1_555
Al2_7 Cu0_3 2.597310 1_655
Al2_7 Cu0_1 2.597310 1_665
Cu0_0 Cu0_2 2.778405 1_545
Cu0_0 Cu0_2 2.778405 1_555
Cu0_0 Cu0_4 2.778405 1_455
Cu0_0 Cu0_4 2.778405 1_555
Cu0_1 Cu0_5 2.778405 1_555
Cu0_1 Cu0_3 2.778405 1_545
Cu0_1 Cu0_5 2.778405 1_455
Cu0_1 Cu0_3 2.778405 1_555
Cu0_2 Cu0_6 2.778405 1_555
Cu0_2 Cu0_6 2.778405 1_455
Cu0_3 Cu0_7 2.778405 1_555
Cu0_3 Cu0_7 2.778405 1_455
Cu0_4 Cu0_6 2.778405 1_545
Cu0_4 Cu0_6 2.778405 1_555
Cu0_5 Cu0_7 2.778405 1_555
Cu0_5 Cu0_7 2.778405 1_545
