# generated using pymatgen
data_Sm(MnAl2)4
_symmetry_space_group_name_H-M   'P 1'
_cell_length_a   6.71874099
_cell_length_b   6.71874099
_cell_length_c   6.71874099
_cell_angle_alpha   97.80565839
_cell_angle_beta   97.80565839
_cell_angle_gamma   136.75018388
_symmetry_Int_Tables_number   1
_chemical_formula_structural   Sm(MnAl2)4
_chemical_formula_sum   'Sm1 Mn4 Al8'
_cell_volume   193.18462050
_cell_formula_units_Z   1
loop_
 _symmetry_equiv_pos_site_id
 _symmetry_equiv_pos_as_xyz
  1  'x, y, z'
loop_
 _atom_site_type_symbol
 _atom_site_label
 _atom_site_symmetry_multiplicity
 _atom_site_fract_x
 _atom_site_fract_y
 _atom_site_fract_z
 _atom_site_occupancy
  Sm  Sm0  1  0.00000000  0.00000000  0.00000000  1
  Mn  Mn0  1  0.50000000  0.50000000  0.50000000  1
  Mn  Mn1  1  0.00000000  0.00000000  0.50000000  1
  Mn  Mn2  1  0.00000000  0.50000000  0.00000000  1
  Mn  Mn3  1  0.50000000  0.00000000  0.00000000  1
  Al  Al0  1  0.27982500  0.50000000  0.77982500  1
  Al  Al1  1  0.72017500  0.50000000  0.22017500  1
  Al  Al2  1  0.50000000  0.72017500  0.22017500  1
  Al  Al3  1  0.50000000  0.27982500  0.77982500  1
  Al  Al4  1  0.65723100  0.00000000  0.65723100  1
  Al  Al5  1  0.34276900  0.00000000  0.34276900  1
  Al  Al6  1  0.00000000  0.34276900  0.34276900  1
  Al  Al7  1  0.00000000  0.65723100  0.65723100  1
loop_
_geom_bond_atom_site_label_1
_geom_bond_atom_site_label_2
_geom_bond_distance
_geom_bond_site_symmetry_2
Mn0 Mn1 2.476049 1_665
Mn0 Mn1 2.476049 1_555
Mn0 Sm0 3.359370 1_666
Mn0 Sm0 3.359370 1_555
Mn1 Sm0 3.359370 1_556
Mn1 Sm0 3.359370 1_555
Mn2 Mn3 2.476049 1_565
Mn2 Mn3 2.476049 1_455
Mn2 Sm0 3.359370 1_565
Mn2 Sm0 3.359370 1_555
Mn3 Sm0 3.359370 1_655
Mn3 Sm0 3.359370 1_555
Al0 Mn2 2.545278 1_556
Al0 Mn0 2.545278 1_555
Al0 Mn3 2.545278 1_566
Al0 Mn1 2.545278 1_555
Al0 Al4 2.702485 1_565
Al0 Al4 2.702485 1_455
Al0 Al2 2.750361 1_556
Al0 Al3 2.750361 1_555
Al0 Al6 2.835144 1_555
Al0 Al7 2.835144 1_555
Al0 Sm0 3.148501 1_666
Al0 Sm0 3.148501 1_556
Al1 Mn2 2.545278 1_655
Al1 Mn3 2.545278 1_555
Al1 Mn1 2.545278 1_665
Al1 Mn0 2.545278 1_555
Al1 Al5 2.702485 1_665
Al1 Al5 2.702485 1_555
Al1 Al3 2.750361 1_554
Al1 Al2 2.750361 1_555
Al1 Al6 2.835144 1_655
Al1 Al7 2.835144 1_655
Al1 Sm0 3.148501 1_665
Al1 Sm0 3.148501 1_555
Al2 Mn3 2.545278 1_565
Al2 Mn2 2.545278 1_555
Al2 Mn1 2.545278 1_665
Al2 Mn0 2.545278 1_555
Al2 Al6 2.702485 1_665
Al2 Al6 2.702485 1_555
Al2 Al5 2.835144 1_565
Al2 Al4 2.835144 1_565
Al2 Sm0 3.148501 1_665
Al2 Sm0 3.148501 1_555
Al3 Mn3 2.545278 1_556
Al3 Mn0 2.545278 1_555
Al3 Mn1 2.545278 1_555
Al3 Mn2 2.545278 1_656
Al3 Al7 2.702485 1_655
Al3 Al7 2.702485 1_545
Al3 Al5 2.835144 1_555
Al3 Al4 2.835144 1_555
Al3 Sm0 3.148501 1_666
Al3 Sm0 3.148501 1_556
Al4 Mn0 2.660920 1_545
Al4 Mn2 2.660920 1_656
Al4 Mn1 2.660920 1_655
Al4 Mn3 2.660920 1_556
Al4 Al5 2.777633 1_555
Al4 Sm0 3.027668 1_656
Al5 Mn1 2.660920 1_555
Al5 Mn0 2.660920 1_555
Al5 Mn3 2.660920 1_555
Al5 Mn2 2.660920 1_545
Al5 Sm0 3.027668 1_555
Al6 Mn1 2.660920 1_555
Al6 Mn0 2.660920 1_555
Al6 Mn2 2.660920 1_555
Al6 Mn3 2.660920 1_455
Al6 Al7 2.777633 1_555
Al6 Sm0 3.027668 1_555
Al7 Mn3 2.660920 1_566
Al7 Mn2 2.660920 1_556
Al7 Mn0 2.660920 1_455
Al7 Mn1 2.660920 1_565
Al7 Sm0 3.027668 1_566
