# generated using pymatgen
data_LiPr2Os
_symmetry_space_group_name_H-M   'P 1'
_cell_length_a   5.07890379
_cell_length_b   5.07890379
_cell_length_c   5.07890379
_cell_angle_alpha   60.00000000
_cell_angle_beta   60.00000000
_cell_angle_gamma   60.00000000
_symmetry_Int_Tables_number   1
_chemical_formula_structural   LiPr2Os
_chemical_formula_sum   'Li1 Pr2 Os1'
_cell_volume   92.63923498
_cell_formula_units_Z   1
loop_
 _symmetry_equiv_pos_site_id
 _symmetry_equiv_pos_as_xyz
  1  'x, y, z'
loop_
 _atom_site_type_symbol
 _atom_site_label
 _atom_site_symmetry_multiplicity
 _atom_site_fract_x
 _atom_site_fract_y
 _atom_site_fract_z
 _atom_site_occupancy
  Li  Li0  1  0.25000000  0.25000000  0.25000000  1
  Pr  Pr0  1  -0.00000000  -0.00000000  -0.00000000  1
  Pr  Pr1  1  0.50000100  0.50000100  0.50000100  1
  Os  Os0  1  0.75000100  0.75000100  0.75000100  1
loop_
_geom_bond_atom_site_label_1
_geom_bond_atom_site_label_2
_geom_bond_distance
_geom_bond_site_symmetry_2
Li0 Pr1 3.110177 1_455
Li0 Pr1 3.110177 1_545
Li0 Pr1 3.110177 1_554
Li0 Pr0 3.110181 1_655
Li0 Pr0 3.110181 1_565
Li0 Pr0 3.110181 1_556
Li0 Pr0 3.110181 1_555
Li0 Pr1 3.110193 1_555
Os0 Pr0 3.110168 1_666
Os0 Pr1 3.110181 1_555
Os0 Pr1 3.110181 1_565
Os0 Pr1 3.110181 1_655
Os0 Pr1 3.110181 1_556
Os0 Pr0 3.110185 1_566
Os0 Pr0 3.110185 1_656
Os0 Pr0 3.110185 1_665
