# generated using pymatgen
data_Tm2Co3Si5
_symmetry_space_group_name_H-M   'P 1'
_cell_length_a   7.78556909
_cell_length_b   7.78548347
_cell_length_c   7.79148117
_cell_angle_alpha   138.97821541
_cell_angle_beta   105.92595853
_cell_angle_gamma   88.30244860
_symmetry_Int_Tables_number   1
_chemical_formula_structural   Tm2Co3Si5
_chemical_formula_sum   'Tm4 Co6 Si10'
_cell_volume   286.06258716
_cell_formula_units_Z   2
loop_
 _symmetry_equiv_pos_site_id
 _symmetry_equiv_pos_as_xyz
  1  'x, y, z'
loop_
 _atom_site_type_symbol
 _atom_site_label
 _atom_site_symmetry_multiplicity
 _atom_site_fract_x
 _atom_site_fract_y
 _atom_site_fract_z
 _atom_site_occupancy
  Tm  Tm0  1  0.36784404  0.63537117  0.73280222  1
  Tm  Tm1  1  0.90251866  0.13503939  0.76721028  1
  Tm  Tm2  1  0.09747062  0.86496257  0.23277690  1
  Tm  Tm3  1  0.63217083  0.36463108  0.26721050  1
  Co  Co0  1  0.03117713  0.63829982  0.39170604  1
  Co  Co1  1  0.96878116  0.36168481  0.60826532  1
  Co  Co2  1  0.49992297  0.74988516  0.25005169  1
  Co  Co3  1  0.50009435  0.25013310  0.74995157  1
  Co  Co4  1  0.24658410  0.13949103  0.10827776  1
  Co  Co5  1  0.75342854  0.86049525  0.89174809  1
  Si  Si0  1  0.27526024  0.52529068  0.24991707  1
  Si  Si1  1  0.72498849  0.97514089  0.25004198  1
  Si  Si2  1  0.00036366  0.75019671  0.74992122  1
  Si  Si3  1  0.24125330  0.40080564  0.84054564  1
  Si  Si4  1  0.75874716  0.59919290  0.15945626  1
  Si  Si5  1  0.43971113  0.09925705  0.34052673  1
  Si  Si6  1  0.99964987  0.24981653  0.25007844  1
  Si  Si7  1  0.56028820  0.90074245  0.65947262  1
  Si  Si8  1  0.72473749  0.47470630  0.75008262  1
  Si  Si9  1  0.27500807  0.02485546  0.74995705  1
loop_
_geom_bond_atom_site_label_1
_geom_bond_atom_site_label_2
_geom_bond_distance
_geom_bond_site_symmetry_2
Co0 Si4 2.228579 1_455
Co0 Si0 2.278642 1_555
Co0 Si9 2.281932 1_565
Co0 Si6 2.298910 1_455
Co0 Si2 2.300545 1_555
Co0 Tm2 2.935275 1_555
Co0 Tm1 2.970078 1_454
Co0 Tm1 2.970743 1_465
Co1 Si3 2.228878 1_655
Co1 Si8 2.278441 1_555
Co1 Si1 2.281734 1_545
Co1 Si2 2.299009 1_655
Co1 Si6 2.300638 1_555
Co1 Tm1 2.935190 1_555
Co1 Tm2 2.970141 1_656
Co1 Tm2 2.970794 1_645
Co2 Si4 2.307861 1_555
Co2 Si5 2.308200 1_565
Co2 Si7 2.309319 1_555
Co2 Si3 2.309915 1_554
Co2 Si0 2.508864 1_555
Co2 Si1 2.515614 1_555
Co2 Co3 2.728908 1_565
Co2 Co3 2.729040 1_554
Co2 Tm3 3.228141 1_555
Co2 Tm2 3.228422 1_555
Co2 Tm1 3.232104 1_565
Co2 Tm0 3.233059 1_554
Co3 Si3 2.307944 1_555
Co3 Si7 2.308287 1_545
Co3 Si5 2.309249 1_555
Co3 Si4 2.309818 1_556
Co3 Si8 2.508656 1_555
Co3 Si9 2.515829 1_555
Co3 Tm0 3.227980 1_555
Co3 Tm1 3.228251 1_555
Co3 Tm2 3.232285 1_545
Co3 Tm3 3.233211 1_556
Co4 Si5 2.228828 1_555
Co4 Si0 2.278681 1_555
Co4 Si9 2.281996 1_554
Co4 Si6 2.300093 1_455
Co4 Si2 2.300953 1_544
Co4 Tm3 2.935024 1_555
Co4 Tm0 2.970214 1_555
Co4 Tm0 2.970639 1_544
Co5 Si7 2.229102 1_555
Co5 Si8 2.278492 1_555
Co5 Si1 2.281808 1_556
Co5 Si2 2.300190 1_655
Co5 Si6 2.301049 1_566
Co5 Tm0 2.934938 1_555
Co5 Tm3 2.970265 1_555
Co5 Tm3 2.970693 1_566
Si0 Si3 2.463788 1_554
Si0 Si7 2.464761 1_555
Si0 Si9 2.728587 1_565
Si0 Si9 2.729364 1_554
Si0 Tm1 3.014660 1_454
Si0 Tm0 3.015371 1_555
Si0 Tm2 3.023547 1_555
Si0 Tm3 3.024411 1_555
Si1 Si5 2.463340 1_565
Si1 Si4 2.464397 1_555
Si1 Si8 2.728587 1_565
Si1 Si8 2.729364 1_554
Si1 Tm3 3.007743 1_565
Si1 Tm2 3.009386 1_655
Si1 Tm0 3.028292 1_554
Si1 Tm1 3.028758 1_565
Si2 Tm0 2.980019 1_555
Si2 Tm1 2.981218 1_465
Si2 Tm2 2.988415 1_556
Si2 Tm3 2.988500 1_455
Si3 Si9 2.464396 1_555
Si3 Tm0 2.808041 1_555
Si3 Tm2 2.936860 1_556
Si3 Tm2 2.939344 1_545
Si3 Tm1 3.045514 1_455
Si4 Si8 2.463793 1_554
Si4 Tm3 2.808039 1_555
Si4 Tm1 2.936819 1_554
Si4 Tm1 2.939302 1_565
Si4 Tm2 3.045520 1_655
Si5 Si8 2.464750 1_555
Si5 Tm2 2.807401 1_545
Si5 Tm0 2.937142 1_555
Si5 Tm0 2.939230 1_544
Si5 Tm3 3.045355 1_555
Si6 Tm3 2.979997 1_555
Si6 Tm2 2.981195 1_645
Si6 Tm1 2.988436 1_554
Si6 Tm0 2.988524 1_655
Si7 Si9 2.463357 1_565
Si7 Tm1 2.807383 1_565
Si7 Tm3 2.937179 1_555
Si7 Tm3 2.939271 1_566
Si7 Tm0 3.045356 1_555
Si8 Tm2 3.014599 1_656
Si8 Tm3 3.015312 1_555
Si8 Tm1 3.023429 1_555
Si8 Tm0 3.024298 1_555
Si9 Tm0 3.007799 1_545
Si9 Tm1 3.009442 1_455
Si9 Tm3 3.028415 1_556
Si9 Tm2 3.028872 1_545
