# generated using pymatgen
data_SmLuRu2
_symmetry_space_group_name_H-M   'P 1'
_cell_length_a   4.79740838
_cell_length_b   4.79740838
_cell_length_c   4.79740838
_cell_angle_alpha   60.00000000
_cell_angle_beta   60.00000000
_cell_angle_gamma   60.00000000
_symmetry_Int_Tables_number   1
_chemical_formula_structural   SmLuRu2
_chemical_formula_sum   'Sm1 Lu1 Ru2'
_cell_volume   78.07375569
_cell_formula_units_Z   1
loop_
 _symmetry_equiv_pos_site_id
 _symmetry_equiv_pos_as_xyz
  1  'x, y, z'
loop_
 _atom_site_type_symbol
 _atom_site_label
 _atom_site_symmetry_multiplicity
 _atom_site_fract_x
 _atom_site_fract_y
 _atom_site_fract_z
 _atom_site_occupancy
  Sm  Sm0  1  0.00000000  0.00000000  0.00000000  1
  Lu  Lu0  1  0.50000000  0.50000000  0.50000000  1
  Ru  Ru0  1  0.25000000  0.25000000  0.25000000  1
  Ru  Ru1  1  0.75000000  0.75000000  0.75000000  1
loop_
_geom_bond_atom_site_label_1
_geom_bond_atom_site_label_2
_geom_bond_distance
_geom_bond_site_symmetry_2
Lu0 Ru0 2.937801 1_556
Lu0 Ru1 2.937801 1_555
Lu0 Ru1 2.937801 1_545
Lu0 Ru1 2.937801 1_554
Lu0 Ru0 2.937801 1_565
Lu0 Ru0 2.937801 1_555
Lu0 Ru1 2.937801 1_455
Lu0 Ru0 2.937801 1_655
Ru0 Sm0 2.937801 1_565
Ru0 Sm0 2.937801 1_556
Ru0 Sm0 2.937801 1_555
Ru0 Sm0 2.937801 1_655
Ru1 Sm0 2.937801 1_665
Ru1 Sm0 2.937801 1_666
Ru1 Sm0 2.937801 1_656
Ru1 Sm0 2.937801 1_566
