# generated using pymatgen
data_RbYb3
_symmetry_space_group_name_H-M   'P 1'
_cell_length_a   7.13032827
_cell_length_b   7.13032827
_cell_length_c   7.13032827
_cell_angle_alpha   131.77600638
_cell_angle_beta   131.77600638
_cell_angle_gamma   70.58303134
_symmetry_Int_Tables_number   1
_chemical_formula_structural   RbYb3
_chemical_formula_sum   'Rb1 Yb3'
_cell_volume   197.52746393
_cell_formula_units_Z   1
loop_
 _symmetry_equiv_pos_site_id
 _symmetry_equiv_pos_as_xyz
  1  'x, y, z'
loop_
 _atom_site_type_symbol
 _atom_site_label
 _atom_site_symmetry_multiplicity
 _atom_site_fract_x
 _atom_site_fract_y
 _atom_site_fract_z
 _atom_site_occupancy
  Rb  Rb0  1  0.00000000  0.00000000  0.00000000  1
  Yb  Yb0  1  0.75000000  0.25000000  0.50000000  1
  Yb  Yb1  1  0.25000000  0.75000000  0.50000000  1
  Yb  Yb2  1  0.50000000  0.50000000  0.00000000  1
loop_
_geom_bond_atom_site_label_1
_geom_bond_atom_site_label_2
_geom_bond_distance
_geom_bond_site_symmetry_2
Rb0 Yb0 4.117386 1_555
Rb0 Yb1 4.117386 1_444
Rb0 Yb0 4.117386 1_444
Rb0 Yb1 4.117386 1_544
Rb0 Yb1 4.117386 1_545
Rb0 Yb0 4.117386 1_455
Rb0 Yb0 4.117386 1_454
Rb0 Yb1 4.117386 1_555
Rb0 Yb2 4.119453 1_556
Rb0 Yb2 4.119453 1_545
Rb0 Yb2 4.119453 1_444
Rb0 Yb2 4.119453 1_455
Yb0 Yb2 4.117386 1_656
Yb0 Yb2 4.117386 1_555
Yb0 Yb2 4.117386 1_545
Yb0 Yb2 4.117386 1_556
Yb0 Yb1 4.119453 1_544
Yb0 Yb1 4.119453 1_656
Yb0 Yb1 4.119453 1_645
Yb0 Yb1 4.119453 1_555
Yb1 Yb2 4.117386 1_455
Yb1 Yb2 4.117386 1_555
Yb1 Yb2 4.117386 1_556
Yb1 Yb2 4.117386 1_566
