# generated using pymatgen
data_Re3Pb3O10
_symmetry_space_group_name_H-M   'P 1'
_cell_length_a   16.77127424
_cell_length_b   16.77127424
_cell_length_c   16.77127424
_cell_angle_alpha   154.28488456
_cell_angle_beta   154.28488456
_cell_angle_gamma   36.68566229
_symmetry_Int_Tables_number   1
_chemical_formula_structural   Re3Pb3O10
_chemical_formula_sum   'Re12 Pb12 O40'
_cell_volume   886.91265869
_cell_formula_units_Z   4
loop_
 _symmetry_equiv_pos_site_id
 _symmetry_equiv_pos_as_xyz
  1  'x, y, z'
loop_
 _atom_site_type_symbol
 _atom_site_label
 _atom_site_symmetry_multiplicity
 _atom_site_fract_x
 _atom_site_fract_y
 _atom_site_fract_z
 _atom_site_occupancy
  Re  Re0  1  0.45672500  0.20668100  0.74995600  1
  Re  Re1  1  0.45668100  0.20672500  0.24995600  1
  Re  Re2  1  0.79327500  0.04323100  0.24995600  1
  Re  Re3  1  0.79327500  0.54331900  0.75004400  1
  Re  Re4  1  0.95676900  0.20672500  0.75004400  1
  Re  Re5  1  0.12500000  0.37500000  0.25000000  1
  Re  Re6  1  0.12500000  0.87500000  0.75000000  1
  Re  Re7  1  0.29323100  0.54327500  0.74995600  1
  Re  Re8  1  0.45672500  0.70676900  0.25004400  1
  Re  Re9  1  0.79331900  0.54327500  0.25004400  1
  Re  Re10  1  0.62500000  0.87500000  0.75000000  1
  Re  Re11  1  0.12500000  0.87500000  0.25000000  1
  Pb  Pb0  1  0.78910100  0.03818200  0.75091900  1
  Pb  Pb1  1  0.28726300  0.03818200  0.24908100  1
  Pb  Pb2  1  0.12500000  0.37500000  0.75000000  1
  Pb  Pb3  1  0.62500000  0.37500000  0.25000000  1
  Pb  Pb4  1  0.46089900  0.71181800  0.74908100  1
  Pb  Pb5  1  0.96181800  0.21089900  0.24908100  1
  Pb  Pb6  1  0.62500000  0.87500000  0.25000000  1
  Pb  Pb7  1  0.62500000  0.37500000  0.75000000  1
  Pb  Pb8  1  0.96273700  0.71181800  0.25091900  1
  Pb  Pb9  1  0.28818200  0.53910100  0.25091900  1
  Pb  Pb10  1  0.96181800  0.71273700  0.75091900  1
  Pb  Pb11  1  0.28818200  0.03726300  0.74908100  1
  O  O0  1  0.22322000  0.10617700  0.49778700  1
  O  O1  1  0.32427800  0.32427800  0.00000000  1
  O  O2  1  0.60839000  0.10617700  0.88295700  1
  O  O3  1  0.55653200  0.05653200  0.11306400  1
  O  O4  1  0.55653200  0.44346800  0.50000000  1
  O  O5  1  0.81284500  0.31284500  0.50000000  1
  O  O6  1  0.67572200  0.67572200  0.00000000  1
  O  O7  1  0.68715500  0.18715500  0.50000000  1
  O  O8  1  0.94346800  0.05653200  0.50000000  1
  O  O9  1  0.94346800  0.44346800  0.88693600  1
  O  O10  1  0.89382300  0.39161000  0.11704300  1
  O  O11  1  0.97543300  0.35839000  0.00221300  1
  O  O12  1  0.89382300  0.77678000  0.50221300  1
  O  O13  1  0.14342100  0.64342100  0.50000000  1
  O  O14  1  0.23009000  0.23009000  0.00000000  1
  O  O15  1  0.10657900  0.10657900  0.00000000  1
  O  O16  1  0.01991000  0.51991000  0.50000000  1
  O  O17  1  0.27456700  0.39161000  0.49778700  1
  O  O18  1  0.35617700  0.35839000  0.38295700  1
  O  O19  1  0.27456700  0.77678000  0.88295700  1
  O  O20  1  0.22322000  0.72543300  0.11704300  1
  O  O21  1  0.30653200  0.30653200  0.61306400  1
  O  O22  1  0.30653200  0.69346800  0.00000000  1
  O  O23  1  0.48009000  0.98009000  0.50000000  1
  O  O24  1  0.57427800  0.07427800  0.50000000  1
  O  O25  1  0.56284500  0.56284500  0.00000000  1
  O  O26  1  0.43715500  0.43715500  0.00000000  1
  O  O27  1  0.35338500  0.85338500  0.50000000  1
  O  O28  1  0.60839000  0.72543300  0.50221300  1
  O  O29  1  0.69346800  0.30653200  0.00000000  1
  O  O30  1  0.69346800  0.69346800  0.38693600  1
  O  O31  1  0.64161000  0.64382300  0.61704300  1
  O  O32  1  0.64161000  0.02456700  0.99778700  1
  O  O33  1  0.89342100  0.89342100  0.00000000  1
  O  O34  1  0.92572200  0.42572200  0.50000000  1
  O  O35  1  0.76991000  0.76991000  0.00000000  1
  O  O36  1  0.02678000  0.64382300  0.00221300  1
  O  O37  1  0.02678000  0.02456700  0.38295700  1
  O  O38  1  0.97543300  0.97322000  0.61704300  1
  O  O39  1  0.35617700  0.97322000  0.99778700  1
loop_
_geom_bond_atom_site_label_1
_geom_bond_atom_site_label_2
_geom_bond_distance
_geom_bond_site_symmetry_2
O0 Re11 1.972466 1_545
O0 Re0 1.990353 1_555
O0 Pb2 2.685650 1_555
O1 Pb11 2.197382 1_554
O1 Pb9 2.197382 1_555
O1 Pb3 2.467794 1_555
O1 Pb2 2.467794 1_554
O2 Re10 1.972466 1_545
O2 Re0 1.990353 1_555
O2 Pb3 2.685650 1_556
O3 Re2 2.040103 1_555
O3 Re1 2.040103 1_555
O3 Pb11 2.626147 1_554
O3 Pb4 2.626147 1_544
O4 Re3 2.040103 1_555
O4 Re1 2.040103 1_555
O4 Pb4 2.626147 1_555
O4 Pb9 2.626147 1_555
O5 Re2 1.967625 1_555
O5 Re3 1.967625 1_555
O5 Pb2 2.719959 1_655
O5 Pb3 2.719959 1_555
O6 Pb4 2.197382 1_554
O6 Pb8 2.197382 1_555
O6 Pb7 2.467794 1_554
O6 Pb6 2.467794 1_555
O7 Re1 1.967625 1_555
O7 Re4 1.967625 1_555
O7 Pb6 2.719959 1_545
O7 Pb7 2.719959 1_555
O8 Re2 2.040103 1_555
O8 Re4 2.040103 1_555
O8 Pb11 2.626147 1_655
O8 Pb8 2.626147 1_545
O9 Re3 2.040103 1_555
O9 Re4 2.040103 1_555
O9 Pb9 2.626147 1_656
O9 Pb8 2.626147 1_556
O10 Re5 1.972466 1_655
O10 Re9 1.990353 1_555
O10 Pb7 2.685650 1_554
O11 Re5 1.972466 1_655
O11 Re4 1.990353 1_554
O11 Pb7 2.685650 1_554
O12 Re6 1.972466 1_655
O12 Re9 1.990353 1_555
O12 Pb6 2.685650 1_555
O13 Re6 1.956036 1_555
O13 Re5 1.956036 1_555
O14 Re1 2.008548 1_555
O14 Re4 2.008548 1_454
O14 Pb11 2.632219 1_554
O14 Pb9 2.632219 1_555
O15 Re6 1.956036 1_544
O15 Re5 1.956036 1_555
O16 Re9 2.008548 1_455
O16 Re7 2.008548 1_555
O16 Pb5 2.632219 1_455
O16 Pb10 2.632219 1_455
O17 Re5 1.972466 1_555
O17 Re7 1.990353 1_555
O17 Pb7 2.685650 1_555
O18 Re5 1.972466 1_555
O18 Re1 1.990353 1_555
O18 Pb7 2.685650 1_555
O19 Re6 1.972466 1_555
O19 Re7 1.990353 1_555
O19 Pb6 2.685650 1_556
O20 Re11 1.972466 1_555
O20 Re8 1.990353 1_555
O20 Pb2 2.685650 1_554
O21 Re0 2.040103 1_555
O21 Re7 2.040103 1_555
O21 Pb1 2.626147 1_555
O21 Pb5 2.626147 1_455
O22 Re8 2.040103 1_555
O22 Re7 2.040103 1_554
O22 Pb1 2.626147 1_565
O22 Pb10 2.626147 1_454
O23 Re0 2.008548 1_565
O23 Re8 2.008548 1_555
O23 Pb1 2.632219 1_565
O23 Pb0 2.632219 1_565
O24 Pb1 2.197382 1_555
O24 Pb0 2.197382 1_555
O24 Pb7 2.467794 1_555
O24 Pb6 2.467794 1_545
O25 Re7 1.967625 1_554
O25 Re9 1.967625 1_555
O25 Pb7 2.719959 1_554
O25 Pb6 2.719959 1_555
O26 Re8 1.967625 1_555
O26 Re0 1.967625 1_554
O26 Pb3 2.719959 1_555
O26 Pb2 2.719959 1_554
O27 Re10 1.988894 1_555
O27 Re11 1.988894 1_555
O27 Pb9 2.786776 1_555
O27 Pb11 2.786776 1_565
O28 Re10 1.972466 1_555
O28 Re8 1.990353 1_555
O28 Pb3 2.685650 1_555
O29 Re9 2.040103 1_555
O29 Re0 2.040103 1_554
O29 Pb5 2.626147 1_555
O29 Pb0 2.626147 1_554
O30 Re8 2.040103 1_555
O30 Re9 2.040103 1_555
O30 Pb0 2.626147 1_565
O30 Pb10 2.626147 1_555
O31 Re10 1.972466 1_555
O31 Re3 1.990353 1_555
O31 Pb3 2.685650 1_555
O31 Pb9 2.757415 1_555
O32 Re10 1.972466 1_545
O32 Re2 1.990353 1_556
O32 Pb3 2.685650 1_556
O32 Pb11 2.757415 1_555
O33 Re11 1.956036 1_655
O33 Re10 1.956036 1_554
O34 Pb10 2.197382 1_555
O34 Pb5 2.197382 1_555
O34 Pb3 2.467794 1_555
O34 Pb2 2.467794 1_655
O35 Re3 2.008548 1_554
O35 Re2 2.008548 1_565
O35 Pb4 2.632219 1_554
O35 Pb8 2.632219 1_555
O36 Re11 1.972466 1_555
O36 Re3 1.990353 1_454
O36 Pb2 2.685650 1_554
O36 Pb9 2.757415 1_555
O37 Re11 1.972466 1_545
O37 Re2 1.990353 1_455
O37 Pb2 2.685650 1_555
O37 Pb11 2.757415 1_555
O38 Re6 1.972466 1_655
O38 Re4 1.990353 1_565
O38 Pb6 2.685650 1_555
O39 Re6 1.972466 1_555
O39 Re1 1.990353 1_566
O39 Pb6 2.685650 1_556
