# generated using pymatgen
data_AcLa3
_symmetry_space_group_name_H-M   'P 1'
_cell_length_a   6.57927284
_cell_length_b   6.57927284
_cell_length_c   6.57927284
_cell_angle_alpha   131.29754605
_cell_angle_beta   131.29754605
_cell_angle_gamma   71.34076517
_symmetry_Int_Tables_number   1
_chemical_formula_structural   AcLa3
_chemical_formula_sum   'Ac1 La3'
_cell_volume   157.34157769
_cell_formula_units_Z   1
loop_
 _symmetry_equiv_pos_site_id
 _symmetry_equiv_pos_as_xyz
  1  'x, y, z'
loop_
 _atom_site_type_symbol
 _atom_site_label
 _atom_site_symmetry_multiplicity
 _atom_site_fract_x
 _atom_site_fract_y
 _atom_site_fract_z
 _atom_site_occupancy
  Ac  Ac0  1  0.00000000  0.00000000  0.00000000  1
  La  La0  1  0.74999900  0.25000000  0.49999900  1
  La  La1  1  0.25000000  0.74999900  0.49999900  1
  La  La2  1  0.50000000  0.50000000  0.00000000  1
loop_
_geom_bond_atom_site_label_1
_geom_bond_atom_site_label_2
_geom_bond_distance
_geom_bond_site_symmetry_2
Ac0 La1 3.808069 1_555
Ac0 La0 3.808069 1_555
Ac0 La0 3.808073 1_455
Ac0 La1 3.808073 1_545
Ac0 La0 3.808073 1_444
Ac0 La1 3.808073 1_444
Ac0 La1 3.808077 1_544
Ac0 La0 3.808077 1_454
Ac0 La2 3.836514 1_556
Ac0 La2 3.836514 1_455
Ac0 La2 3.836514 1_444
Ac0 La2 3.836514 1_545
La0 La2 3.808069 1_555
La0 La2 3.808073 1_545
La0 La2 3.808073 1_556
La0 La2 3.808077 1_656
La0 La1 3.836507 1_555
La0 La1 3.836514 1_544
La0 La1 3.836514 1_656
La0 La1 3.836522 1_645
La1 La2 3.808069 1_555
La1 La2 3.808073 1_455
La1 La2 3.808073 1_556
La1 La2 3.808077 1_566
