# generated using pymatgen
data_TbFeC2
_symmetry_space_group_name_H-M   'P 1'
_cell_length_a   3.64420826
_cell_length_b   3.75053561
_cell_length_c   3.75053475
_cell_angle_alpha   105.54524005
_cell_angle_beta   90.00000000
_cell_angle_gamma   90.00000000
_symmetry_Int_Tables_number   1
_chemical_formula_structural   TbFeC2
_chemical_formula_sum   'Tb1 Fe1 C2'
_cell_volume   49.38612462
_cell_formula_units_Z   1
loop_
 _symmetry_equiv_pos_site_id
 _symmetry_equiv_pos_as_xyz
  1  'x, y, z'
loop_
 _atom_site_type_symbol
 _atom_site_label
 _atom_site_symmetry_multiplicity
 _atom_site_fract_x
 _atom_site_fract_y
 _atom_site_fract_z
 _atom_site_occupancy
  Tb  Tb0  1  -0.00000000  0.99161469  0.00838575  1
  Fe  Fe0  1  0.50000000  0.39157181  0.60842868  1
  C  C0  1  0.50000000  0.85593272  0.45411972  1
  C  C1  1  0.50000000  0.54588078  0.14406784  1
loop_
_geom_bond_atom_site_label_1
_geom_bond_atom_site_label_2
_geom_bond_distance
_geom_bond_site_symmetry_2
C0 C1 1.407014 1_555
C0 Fe0 1.935866 1_565
C0 Fe0 1.976960 1_555
C0 Tb0 2.613374 1_555
C0 Tb0 2.613374 1_655
C0 Tb0 2.708025 1_556
C0 Tb0 2.708025 1_656
C1 Fe0 1.935865 1_554
C1 Fe0 1.976960 1_555
C1 Tb0 2.613374 1_555
C1 Tb0 2.613374 1_655
C1 Tb0 2.708025 1_645
C1 Tb0 2.708025 1_545
