# generated using pymatgen
data_La3HfSb5
_symmetry_space_group_name_H-M   'P 1'
_cell_length_a   9.67066566
_cell_length_b   9.67066601
_cell_length_c   6.39509041
_cell_angle_alpha   90.00000000
_cell_angle_beta   90.00000000
_cell_angle_gamma   119.99999879
_symmetry_Int_Tables_number   1
_chemical_formula_structural   La3HfSb5
_chemical_formula_sum   'La6 Hf2 Sb10'
_cell_volume   517.95267360
_cell_formula_units_Z   2
loop_
 _symmetry_equiv_pos_site_id
 _symmetry_equiv_pos_as_xyz
  1  'x, y, z'
loop_
 _atom_site_type_symbol
 _atom_site_label
 _atom_site_symmetry_multiplicity
 _atom_site_fract_x
 _atom_site_fract_y
 _atom_site_fract_z
 _atom_site_occupancy
  La  La0  1  0.61761427  0.00000000  0.25000000  1
  La  La1  1  0.61761427  0.61761427  0.75000000  1
  La  La2  1  0.38238573  0.00000000  0.75000000  1
  La  La3  1  0.38238573  0.38238573  0.25000000  1
  La  La4  1  0.00000000  0.61761427  0.25000000  1
  La  La5  1  -0.00000000  0.38238573  0.75000000  1
  Hf  Hf0  1  0.00000000  0.00000000  -0.00000000  1
  Hf  Hf1  1  0.00000000  0.00000000  0.50000000  1
  Sb  Sb0  1  0.33333300  0.66666700  0.50000000  1
  Sb  Sb1  1  0.66666700  0.33333300  -0.00000000  1
  Sb  Sb2  1  0.66666700  0.33333300  0.50000000  1
  Sb  Sb3  1  0.33333300  0.66666700  -0.00000000  1
  Sb  Sb4  1  0.74521110  0.00000000  0.75000000  1
  Sb  Sb5  1  0.74521110  0.74521110  0.25000000  1
  Sb  Sb6  1  -0.00000000  0.25478890  0.25000000  1
  Sb  Sb7  1  0.00000000  0.74521110  0.75000000  1
  Sb  Sb8  1  0.25478890  0.00000000  0.25000000  1
  Sb  Sb9  1  0.25478890  0.25478890  0.75000000  1
loop_
_geom_bond_atom_site_label_1
_geom_bond_atom_site_label_2
_geom_bond_distance
_geom_bond_site_symmetry_2
La0 Sb6 3.261017 1_655
La0 Sb5 3.261017 1_545
La0 Sb1 3.412217 1_555
La0 Sb2 3.412217 1_555
La0 Sb3 3.412221 1_545
La0 Sb0 3.412221 1_545
La0 Sb4 3.427378 1_554
La0 Sb4 3.427378 1_555
La0 Sb8 3.508763 1_555
La1 Sb7 3.261017 1_655
La1 Sb4 3.261017 1_565
La1 Sb3 3.412226 1_556
La1 Sb0 3.412226 1_555
La1 Sb1 3.412226 1_556
La1 Sb2 3.412226 1_555
La1 Sb5 3.427378 1_555
La1 Sb5 3.427378 1_556
La1 Sb9 3.508763 1_555
La2 Sb7 3.261017 1_545
La2 Sb9 3.261017 1_555
La2 Sb0 3.412217 1_545
La2 Sb3 3.412217 1_546
La2 Sb1 3.412221 1_556
La2 Sb2 3.412221 1_555
La2 Sb8 3.427378 1_556
La2 Sb8 3.427378 1_555
La2 Sb4 3.508763 1_555
La3 Sb6 3.261017 1_555
La3 Sb8 3.261017 1_555
La3 Sb1 3.412226 1_555
La3 Sb2 3.412226 1_555
La3 Sb0 3.412226 1_555
La3 Sb3 3.412226 1_555
La3 Sb9 3.427378 1_555
La3 Sb9 3.427378 1_554
La3 Sb5 3.508763 1_555
La4 Sb5 3.261017 1_455
La4 Sb8 3.261017 1_565
La4 Sb3 3.412217 1_555
La4 Sb0 3.412217 1_555
La4 Sb2 3.412220 1_455
La4 Sb1 3.412220 1_455
La4 Sb7 3.427378 1_554
La4 Sb7 3.427378 1_555
La4 Sb6 3.508763 1_555
La5 Sb9 3.261017 1_555
La5 Sb4 3.261017 1_455
La5 Sb1 3.412217 1_456
La5 Sb2 3.412217 1_455
La5 Sb3 3.412220 1_556
La5 Sb0 3.412220 1_555
La5 Sb6 3.427378 1_555
La5 Sb6 3.427378 1_556
La5 Sb7 3.508763 1_555
Hf0 Sb8 2.937220 1_555
Hf0 Sb4 2.937220 1_454
Hf0 Sb5 2.937220 1_445
Hf0 Sb9 2.937220 1_554
Hf0 Sb6 2.937220 1_555
Hf0 Sb7 2.937220 1_544
Hf1 Sb8 2.937220 1_555
Hf1 Sb4 2.937220 1_455
Hf1 Sb7 2.937220 1_545
Hf1 Sb5 2.937220 1_445
Hf1 Sb9 2.937220 1_555
Hf1 Sb6 2.937220 1_555
Sb0 Sb3 3.197545 1_555
Sb0 Sb3 3.197545 1_556
Sb1 Sb2 3.197545 1_554
Sb1 Sb2 3.197545 1_555
