# generated using pymatgen
data_PdAuO2
_symmetry_space_group_name_H-M   'P 1'
_cell_length_a   3.22420622
_cell_length_b   3.22420691
_cell_length_c   6.30661699
_cell_angle_alpha   75.18961964
_cell_angle_beta   75.18961531
_cell_angle_gamma   59.99999606
_symmetry_Int_Tables_number   1
_chemical_formula_structural   PdAuO2
_chemical_formula_sum   'Pd1 Au1 O2'
_cell_volume   54.24740618
_cell_formula_units_Z   1
loop_
 _symmetry_equiv_pos_site_id
 _symmetry_equiv_pos_as_xyz
  1  'x, y, z'
loop_
 _atom_site_type_symbol
 _atom_site_label
 _atom_site_symmetry_multiplicity
 _atom_site_fract_x
 _atom_site_fract_y
 _atom_site_fract_z
 _atom_site_occupancy
  Pd  Pd0  1  0.50000000  0.50000000  0.50000000  1
  Au  Au0  1  0.00000000  -0.00000000  0.00000000  1
  O  O0  1  0.11216559  0.11216559  0.66350024  1
  O  O1  1  0.88783441  0.88783441  0.33649976  1
loop_
_geom_bond_atom_site_label_1
_geom_bond_atom_site_label_2
_geom_bond_distance
_geom_bond_site_symmetry_2
Au0 O1 2.027624 1_445
Au0 O0 2.027624 1_554
O0 Pd0 2.106125 1_455
O0 Pd0 2.106125 1_545
O0 Pd0 2.106133 1_555
O1 Pd0 2.106125 1_655
O1 Pd0 2.106125 1_565
O1 Pd0 2.106133 1_555
