# generated using pymatgen
data_Ba(CuAs)2
_symmetry_space_group_name_H-M   'P 1'
_cell_length_a   4.23318505
_cell_length_b   4.23318592
_cell_length_c   6.55657359
_cell_angle_alpha   108.83355760
_cell_angle_beta   108.83356756
_cell_angle_gamma   89.99999250
_symmetry_Int_Tables_number   1
_chemical_formula_structural   Ba(CuAs)2
_chemical_formula_sum   'Ba1 Cu2 As2'
_cell_volume   104.53395501
_cell_formula_units_Z   1
loop_
 _symmetry_equiv_pos_site_id
 _symmetry_equiv_pos_as_xyz
  1  'x, y, z'
loop_
 _atom_site_type_symbol
 _atom_site_label
 _atom_site_symmetry_multiplicity
 _atom_site_fract_x
 _atom_site_fract_y
 _atom_site_fract_z
 _atom_site_occupancy
  Ba  Ba0  1  0.00000000  0.00000000  -0.00000000  1
  Cu  Cu0  1  0.75000000  0.25000000  0.50000000  1
  Cu  Cu1  1  0.25000000  0.75000000  0.50000000  1
  As  As0  1  0.64314031  0.64314031  0.28627961  1
  As  As1  1  0.35685969  0.35685969  0.71372039  1
loop_
_geom_bond_atom_site_label_1
_geom_bond_atom_site_label_2
_geom_bond_distance
_geom_bond_site_symmetry_2
Ba0 Cu1 3.603767 1_444
Ba0 Cu0 3.603767 1_555
Ba0 Cu1 3.603768 1_555
Ba0 Cu0 3.603768 1_444
Ba0 Cu1 3.603768 1_545
Ba0 Cu0 3.603768 1_454
Ba0 Cu1 3.603768 1_544
Ba0 Cu0 3.603768 1_455
As0 Cu1 2.456474 1_655
As0 Cu0 2.456474 1_565
As0 Cu1 2.456478 1_555
As0 Cu0 2.456478 1_555
As0 Ba0 3.427648 1_665
As0 Ba0 3.427650 1_565
As0 Ba0 3.427651 1_655
As0 Ba0 3.427653 1_555
As1 Cu0 2.456474 1_455
As1 Cu1 2.456474 1_545
As1 Cu0 2.456478 1_555
As1 Cu1 2.456478 1_555
As1 Ba0 3.427648 1_556
As1 Ba0 3.427650 1_656
As1 Ba0 3.427651 1_566
As1 Ba0 3.427653 1_666
