# generated using pymatgen
data_RbAgO2
_symmetry_space_group_name_H-M   'P 1'
_cell_length_a   4.55758913
_cell_length_b   5.94417075
_cell_length_c   6.62997192
_cell_angle_alpha   90.00000000
_cell_angle_beta   69.89686896
_cell_angle_gamma   90.00000000
_symmetry_Int_Tables_number   1
_chemical_formula_structural   RbAgO2
_chemical_formula_sum   'Rb2 Ag2 O4'
_cell_volume   168.67030610
_cell_formula_units_Z   2
loop_
 _symmetry_equiv_pos_site_id
 _symmetry_equiv_pos_as_xyz
  1  'x, y, z'
loop_
 _atom_site_type_symbol
 _atom_site_label
 _atom_site_symmetry_multiplicity
 _atom_site_fract_x
 _atom_site_fract_y
 _atom_site_fract_z
 _atom_site_occupancy
  Rb  Rb0  1  0.29779232  0.25000000  0.40441636  1
  Rb  Rb1  1  0.70220768  0.75000000  0.59558364  1
  Ag  Ag0  1  0.00264719  0.25000000  0.99470461  1
  Ag  Ag1  1  0.99735281  0.75000000  0.00529539  1
  O  O0  1  0.10772716  0.99481886  0.78454669  1
  O  O1  1  0.89227284  0.00518114  0.21545331  1
  O  O2  1  0.89227284  0.49481886  0.21545331  1
  O  O3  1  0.10772716  0.50518114  0.78454669  1
loop_
_geom_bond_atom_site_label_1
_geom_bond_atom_site_label_2
_geom_bond_distance
_geom_bond_site_symmetry_2
Ag0 O1 2.001672 1_456
Ag0 O2 2.001672 1_456
Ag0 O3 2.003210 1_555
Ag0 O0 2.003210 1_545
Ag1 O0 2.001672 1_654
Ag1 O3 2.001672 1_654
Ag1 O1 2.003210 1_565
Ag1 O2 2.003210 1_555
O0 Rb0 2.811070 1_565
O0 Rb1 2.948687 1_555
O0 Rb1 2.948694 1_455
O1 Rb1 2.811070 1_545
O1 Rb0 2.948687 1_555
O1 Rb0 2.948694 1_655
O2 Rb1 2.811070 1_555
O2 Rb0 2.948687 1_555
O2 Rb0 2.948694 1_655
O3 Rb0 2.811070 1_555
O3 Rb1 2.948687 1_555
O3 Rb1 2.948694 1_455
