# generated using pymatgen
data_KCoH3(CO2)3
_symmetry_space_group_name_H-M   'P 1'
_cell_length_a   7.05963982
_cell_length_b   7.05963982
_cell_length_c   6.83792585
_cell_angle_alpha   87.04168954
_cell_angle_beta   87.04168954
_cell_angle_gamma   80.24465873
_symmetry_Int_Tables_number   1
_chemical_formula_structural   KCoH3(CO2)3
_chemical_formula_sum   'K2 Co2 H6 C6 O12'
_cell_volume   335.09846535
_cell_formula_units_Z   2
loop_
 _symmetry_equiv_pos_site_id
 _symmetry_equiv_pos_as_xyz
  1  'x, y, z'
loop_
 _atom_site_type_symbol
 _atom_site_label
 _atom_site_symmetry_multiplicity
 _atom_site_fract_x
 _atom_site_fract_y
 _atom_site_fract_z
 _atom_site_occupancy
  K  K0  1  0.90023800  0.09976200  0.75000000  1
  K  K1  1  0.09976200  0.90023800  0.25000000  1
  Co  Co0  1  0.00000000  0.50000000  0.00000000  1
  Co  Co1  1  0.50000000  0.00000000  0.50000000  1
  H  H0  1  0.67782100  0.56594600  0.50747300  1
  H  H1  1  0.62340400  0.37659600  0.25000000  1
  H  H2  1  0.56594600  0.67782100  0.00747300  1
  H  H3  1  0.43405400  0.32217900  0.99252700  1
  H  H4  1  0.37659600  0.62340400  0.75000000  1
  H  H5  1  0.32217900  0.43405400  0.49252700  1
  C  C0  1  0.74526300  0.25473700  0.25000000  1
  C  C1  1  0.73747100  0.62048800  0.63660900  1
  C  C2  1  0.62048800  0.73747100  0.13660900  1
  C  C3  1  0.37951200  0.26252900  0.86339100  1
  C  C4  1  0.26252900  0.37951200  0.36339100  1
  C  C5  1  0.25473700  0.74526300  0.75000000  1
  O  O0  1  0.88151100  0.25966000  0.12212000  1
  O  O1  1  0.83341300  0.49550200  0.74835700  1
  O  O2  1  0.80112600  0.70199500  0.15886200  1
  O  O3  1  0.74034000  0.11848900  0.37788000  1
  O  O4  1  0.70199500  0.80112600  0.65886200  1
  O  O5  1  0.50449800  0.16658700  0.75164300  1
  O  O6  1  0.49550200  0.83341300  0.24835700  1
  O  O7  1  0.29800500  0.19887400  0.34113800  1
  O  O8  1  0.25966000  0.88151100  0.62212000  1
  O  O9  1  0.19887400  0.29800500  0.84113800  1
  O  O10  1  0.16658700  0.50449800  0.25164300  1
  O  O11  1  0.11848900  0.74034000  0.87788000  1
loop_
_geom_bond_atom_site_label_1
_geom_bond_atom_site_label_2
_geom_bond_distance
_geom_bond_site_symmetry_2
K0 O5 2.752919 1_555
K0 O1 2.752919 1_555
K0 O3 2.824451 1_555
K0 O0 2.824451 1_556
K0 O9 2.831492 1_655
K0 O4 2.831492 1_545
K0 O11 2.856945 1_645
K0 O8 2.856945 1_645
K1 O10 2.752919 1_555
K1 O6 2.752919 1_555
K1 O11 2.824451 1_554
K1 O8 2.824451 1_555
K1 O2 2.831492 1_455
K1 O7 2.831492 1_565
K1 O3 2.856945 1_465
K1 O0 2.856945 1_465
Co0 O9 2.123366 1_554
Co0 O2 2.123366 1_455
Co0 O0 2.130372 1_455
Co0 O11 2.130372 1_554
Co0 O1 2.138253 1_454
Co0 O10 2.138253 1_555
Co1 O4 2.123366 1_545
Co1 O7 2.123366 1_555
Co1 O8 2.130372 1_545
Co1 O3 2.130372 1_555
Co1 O5 2.138253 1_555
Co1 O6 2.138253 1_545
C0 H1 1.108767 1_555
C0 O3 1.269802 1_555
C0 O0 1.269802 1_555
C1 H0 1.110741 1_555
C1 O1 1.265897 1_555
C1 O4 1.272783 1_555
C2 H2 1.110741 1_555
C2 O6 1.265897 1_555
C2 O2 1.272783 1_555
C3 H3 1.110741 1_555
C3 O5 1.265897 1_555
C3 O9 1.272783 1_555
C4 H5 1.110741 1_555
C4 O10 1.265897 1_555
C4 O7 1.272783 1_555
C5 H4 1.108767 1_555
C5 O11 1.269802 1_555
C5 O8 1.269802 1_555
