# generated using pymatgen
data_Yb4As2O
_symmetry_space_group_name_H-M   'P 1'
_cell_length_a   4.51551000
_cell_length_b   4.51551000
_cell_length_c   8.29402667
_cell_angle_alpha   105.79608997
_cell_angle_beta   105.79608997
_cell_angle_gamma   90.00000000
_symmetry_Int_Tables_number   1
_chemical_formula_structural   Yb4As2O
_chemical_formula_sum   'Yb4 As2 O1'
_cell_volume   156.08007497
_cell_formula_units_Z   1
loop_
 _symmetry_equiv_pos_site_id
 _symmetry_equiv_pos_as_xyz
  1  'x, y, z'
loop_
 _atom_site_type_symbol
 _atom_site_label
 _atom_site_symmetry_multiplicity
 _atom_site_fract_x
 _atom_site_fract_y
 _atom_site_fract_z
 _atom_site_occupancy
  Yb  Yb0  1  0.83101700  0.83101700  0.66203400  1
  Yb  Yb1  1  0.16898300  0.16898300  0.33796600  1
  Yb  Yb2  1  0.00000000  0.50000000  0.00000000  1
  Yb  Yb3  1  0.50000000  0.00000000  0.00000000  1
  As  As0  1  0.63692500  0.63692500  0.27385000  1
  As  As1  1  0.36307500  0.36307500  0.72615000  1
  O  O0  1  0.00000000  0.00000000  0.00000000  1
loop_
_geom_bond_atom_site_label_1
_geom_bond_atom_site_label_2
_geom_bond_distance
_geom_bond_site_symmetry_2
As0 Yb0 2.971471 1_555
As0 Yb2 3.080875 1_555
As0 Yb3 3.080875 1_555
As0 Yb2 3.080875 1_655
As0 Yb3 3.080875 1_565
As0 Yb1 3.230448 1_655
As0 Yb1 3.230448 1_665
As0 Yb1 3.230448 1_555
As0 Yb1 3.230448 1_565
As1 Yb1 2.971471 1_555
As1 Yb3 3.080875 1_566
As1 Yb2 3.080875 1_656
As1 Yb3 3.080875 1_556
As1 Yb2 3.080875 1_556
As1 Yb0 3.230448 1_445
As1 Yb0 3.230448 1_455
As1 Yb0 3.230448 1_545
As1 Yb0 3.230448 1_555
O0 Yb3 2.257755 1_455
O0 Yb2 2.257755 1_555
O0 Yb2 2.257755 1_545
O0 Yb3 2.257755 1_555
O0 Yb1 2.587062 1_555
O0 Yb0 2.587062 1_444
