# generated using pymatgen
data_Nd2C(NO)2
_symmetry_space_group_name_H-M   'P 1'
_cell_length_a   3.92294969
_cell_length_b   3.92294969
_cell_length_c   8.36958600
_cell_angle_alpha   90.00000000
_cell_angle_beta   90.00000000
_cell_angle_gamma   119.99999477
_symmetry_Int_Tables_number   1
_chemical_formula_structural   Nd2C(NO)2
_chemical_formula_sum   'Nd2 C1 N2 O2'
_cell_volume   111.54756847
_cell_formula_units_Z   1
loop_
 _symmetry_equiv_pos_site_id
 _symmetry_equiv_pos_as_xyz
  1  'x, y, z'
loop_
 _atom_site_type_symbol
 _atom_site_label
 _atom_site_symmetry_multiplicity
 _atom_site_fract_x
 _atom_site_fract_y
 _atom_site_fract_z
 _atom_site_occupancy
  Nd  Nd0  1  0.66666700  0.33333300  0.81958600  1
  Nd  Nd1  1  0.33333300  0.66666700  0.18041400  1
  C  C0  1  0.00000000  0.00000000  0.50000000  1
  N  N0  1  0.00000000  0.00000000  0.35213600  1
  N  N1  1  0.00000000  0.00000000  0.64786400  1
  O  O0  1  0.66666700  0.33333300  0.10351300  1
  O  O1  1  0.33333300  0.66666700  0.89648700  1
loop_
_geom_bond_atom_site_label_1
_geom_bond_atom_site_label_2
_geom_bond_distance
_geom_bond_site_symmetry_2
Nd0 O1 2.354590 1_545
Nd0 O1 2.354590 1_655
Nd0 O1 2.354596 1_555
Nd0 O0 2.376351 1_556
Nd1 O0 2.354590 1_455
Nd1 O0 2.354590 1_565
Nd1 O0 2.354596 1_555
Nd1 O1 2.376351 1_554
C0 N0 1.237560 1_555
C0 N1 1.237560 1_555
N0 Nd1 2.682443 1_545
N0 Nd1 2.682446 1_555
N0 Nd1 2.682446 1_445
N1 Nd0 2.682443 1_455
N1 Nd0 2.682446 1_445
N1 Nd0 2.682446 1_555
