# generated using pymatgen
data_LiSnCl3
_symmetry_space_group_name_H-M   'P 1'
_cell_length_a   6.97080816
_cell_length_b   6.97080798
_cell_length_c   7.23770093
_cell_angle_alpha   61.21250814
_cell_angle_beta   61.21250785
_cell_angle_gamma   60.00000394
_symmetry_Int_Tables_number   1
_chemical_formula_structural   LiSnCl3
_chemical_formula_sum   'Li2 Sn2 Cl6'
_cell_volume   253.14696633
_cell_formula_units_Z   2
loop_
 _symmetry_equiv_pos_site_id
 _symmetry_equiv_pos_as_xyz
  1  'x, y, z'
loop_
 _atom_site_type_symbol
 _atom_site_label
 _atom_site_symmetry_multiplicity
 _atom_site_fract_x
 _atom_site_fract_y
 _atom_site_fract_z
 _atom_site_occupancy
  Li  Li0  1  0.30641921  0.30641921  0.08074437  1
  Li  Li1  1  0.80641921  0.80641921  0.58074437  1
  Sn  Sn0  1  0.00094288  0.00094288  0.99716936  1
  Sn  Sn1  1  0.50094288  0.50094288  0.49716936  1
  Cl  Cl0  1  0.58687235  0.99655084  0.27886209  1
  Cl  Cl1  1  0.13771372  0.58687235  0.27886209  1
  Cl  Cl2  1  0.99655084  0.13771372  0.27886209  1
  Cl  Cl3  1  0.63771372  0.49655084  0.77886209  1
  Cl  Cl4  1  0.49655084  0.08687235  0.77886209  1
  Cl  Cl5  1  0.08687235  0.63771372  0.77886209  1
loop_
_geom_bond_atom_site_label_1
_geom_bond_atom_site_label_2
_geom_bond_distance
_geom_bond_site_symmetry_2
Cl0 Li0 2.457197 1_565
Cl0 Sn0 2.617144 1_664
Cl0 Li1 2.697378 1_555
Cl1 Li0 2.457192 1_555
Cl1 Sn0 2.617146 1_564
Cl1 Li1 2.697374 1_455
Cl2 Li0 2.457210 1_655
Cl2 Sn0 2.617150 1_654
Cl2 Li1 2.697363 1_545
Cl3 Li1 2.457210 1_555
Cl3 Sn1 2.617150 1_555
Cl3 Li0 2.697363 1_556
Cl4 Li1 2.457197 1_545
Cl4 Sn1 2.617144 1_555
Cl4 Li0 2.697378 1_556
Cl5 Li1 2.457192 1_455
Cl5 Sn1 2.617146 1_555
Cl5 Li0 2.697374 1_556
