# generated using pymatgen
data_RbSe
_symmetry_space_group_name_H-M   'P 1'
_cell_length_a   9.35622876
_cell_length_b   9.35622915
_cell_length_c   6.24245248
_cell_angle_alpha   90.00000000
_cell_angle_beta   90.00000000
_cell_angle_gamma   119.99999862
_symmetry_Int_Tables_number   1
_chemical_formula_structural   RbSe
_chemical_formula_sum   'Rb6 Se6'
_cell_volume   473.24666745
_cell_formula_units_Z   6
loop_
 _symmetry_equiv_pos_site_id
 _symmetry_equiv_pos_as_xyz
  1  'x, y, z'
loop_
 _atom_site_type_symbol
 _atom_site_label
 _atom_site_symmetry_multiplicity
 _atom_site_fract_x
 _atom_site_fract_y
 _atom_site_fract_z
 _atom_site_occupancy
  Rb  Rb0  1  0.00000000  0.31390539  0.50000000  1
  Rb  Rb1  1  0.68609461  0.68609461  0.50000000  1
  Rb  Rb2  1  0.31390539  0.00000000  0.50000000  1
  Rb  Rb3  1  0.00000000  0.64854206  -0.00000000  1
  Rb  Rb4  1  0.35145794  0.35145794  -0.00000000  1
  Rb  Rb5  1  0.64854206  0.00000000  -0.00000000  1
  Se  Se0  1  0.66666700  0.33333300  0.30598002  1
  Se  Se1  1  0.66666700  0.33333300  0.69401898  1
  Se  Se2  1  0.33333300  0.66666700  0.69401898  1
  Se  Se3  1  0.33333300  0.66666700  0.30598002  1
  Se  Se4  1  0.00000000  0.00000000  0.80729296  1
  Se  Se5  1  0.00000000  0.00000000  0.19270804  1
loop_
_geom_bond_atom_site_label_1
_geom_bond_atom_site_label_2
_geom_bond_distance
_geom_bond_site_symmetry_2
Rb0 Se1 3.434147 1_455
Rb0 Se0 3.434149 1_455
Rb0 Se2 3.434152 1_555
Rb0 Se3 3.434154 1_555
Rb0 Se5 3.507920 1_555
Rb0 Se4 3.507923 1_555
Rb1 Se2 3.434155 1_555
Rb1 Se1 3.434156 1_555
Rb1 Se3 3.434158 1_555
Rb1 Se0 3.434158 1_555
Rb1 Se5 3.507920 1_665
Rb1 Se4 3.507923 1_665
Rb2 Se2 3.434147 1_545
Rb2 Se3 3.434149 1_545
Rb2 Se1 3.434152 1_555
Rb2 Se0 3.434154 1_555
Rb2 Se5 3.507920 1_555
Rb2 Se4 3.507923 1_555
Rb3 Se4 3.501454 1_564
Rb3 Se5 3.501456 1_565
Rb3 Se3 3.588143 1_555
Rb3 Se2 3.588146 1_554
Rb3 Se0 3.588146 1_455
Rb3 Se1 3.588150 1_454
Rb4 Se4 3.501454 1_554
Rb4 Se5 3.501456 1_555
Rb4 Se0 3.588151 1_555
Rb4 Se3 3.588151 1_555
Rb4 Se1 3.588154 1_554
Rb4 Se2 3.588154 1_554
Rb5 Se4 3.501454 1_654
Rb5 Se5 3.501456 1_655
Rb5 Se0 3.588143 1_555
Rb5 Se1 3.588146 1_554
Rb5 Se3 3.588146 1_545
Rb5 Se2 3.588150 1_544
Se0 Se1 2.422315 1_555
Se2 Se3 2.422315 1_555
Se4 Se5 2.405935 1_556
