# generated using pymatgen
data_TiPHO5
_symmetry_space_group_name_H-M   'P 1'
_cell_length_a   7.07350400
_cell_length_b   7.45231200
_cell_length_c   7.51752792
_cell_angle_alpha   62.82469750
_cell_angle_beta   90.00000000
_cell_angle_gamma   90.00000000
_symmetry_Int_Tables_number   1
_chemical_formula_structural   TiPHO5
_chemical_formula_sum   'Ti4 P4 H4 O20'
_cell_volume   352.53477288
_cell_formula_units_Z   4
loop_
 _symmetry_equiv_pos_site_id
 _symmetry_equiv_pos_as_xyz
  1  'x, y, z'
loop_
 _atom_site_type_symbol
 _atom_site_label
 _atom_site_symmetry_multiplicity
 _atom_site_fract_x
 _atom_site_fract_y
 _atom_site_fract_z
 _atom_site_occupancy
  Ti  Ti0  1  0.72323200  0.71863100  0.52949000  1
  Ti  Ti1  1  0.22323200  0.28136900  0.47051000  1
  Ti  Ti2  1  0.22685600  0.71917400  0.02549800  1
  Ti  Ti3  1  0.72685600  0.28082600  0.97450200  1
  P  P0  1  0.35699600  0.99992200  0.24932900  1
  P  P1  1  0.85699600  0.00007800  0.75067100  1
  P  P2  1  0.61661800  0.49871300  0.25136500  1
  P  P3  1  0.11661800  0.50128700  0.74863500  1
  H  H0  1  0.46159900  0.94739100  0.69220800  1
  H  H1  1  0.96159900  0.05260900  0.30779200  1
  H  H2  1  0.44357200  0.06793100  0.81094600  1
  H  H3  1  0.94357200  0.93206900  0.18905400  1
  O  O0  1  0.36384900  0.00262500  0.74861000  1
  O  O1  1  0.86384900  0.99737500  0.25139000  1
  O  O2  1  0.64763700  0.49938400  0.75261300  1
  O  O3  1  0.14763700  0.50061600  0.24738700  1
  O  O4  1  0.48912500  0.33136600  0.40628300  1
  O  O5  1  0.98912500  0.66863400  0.59371700  1
  O  O6  1  0.48410800  0.16427900  0.09062500  1
  O  O7  1  0.98410800  0.83572100  0.90937500  1
  O  O8  1  0.22368600  0.09008800  0.35149900  1
  O  O9  1  0.72368600  0.90991200  0.64850100  1
  O  O10  1  0.74565700  0.40575700  0.14940600  1
  O  O11  1  0.24565700  0.59424300  0.85059400  1
  O  O12  1  0.48236900  0.83661400  0.41059600  1
  O  O13  1  0.98236900  0.16338600  0.58940400  1
  O  O14  1  0.49185100  0.66644900  0.09221300  1
  O  O15  1  0.99185100  0.33355100  0.90778700  1
  O  O16  1  0.24188500  0.40884600  0.64398800  1
  O  O17  1  0.74188500  0.59115400  0.35601200  1
  O  O18  1  0.72865400  0.09051200  0.85598500  1
  O  O19  1  0.22865400  0.90948800  0.14401500  1
loop_
_geom_bond_atom_site_label_1
_geom_bond_atom_site_label_2
_geom_bond_distance
_geom_bond_site_symmetry_2
H0 O0 0.993334 1_565
H1 O1 0.993334 1_545
H2 O0 0.991354 1_555
H3 O1 0.991354 1_555
O0 Ti1 2.389206 1_555
O0 Ti2 2.391132 1_546
O1 Ti0 2.389206 1_555
O1 Ti3 2.391132 1_564
O2 Ti0 1.807114 1_555
O2 Ti3 1.807654 1_555
O3 Ti1 1.807114 1_555
O3 Ti2 1.807654 1_555
O4 P2 1.548621 1_555
O4 Ti1 1.935204 1_555
O5 P3 1.548621 1_655
O5 Ti0 1.935204 1_555
O6 P0 1.548307 1_545
O6 Ti3 1.942221 1_554
O7 P1 1.548307 1_565
O7 Ti2 1.942221 1_656
O8 P0 1.549853 1_545
O8 Ti1 1.999345 1_555
O9 P1 1.549853 1_565
O9 Ti0 1.999345 1_555
O10 P2 1.544508 1_555
O10 Ti3 1.931707 1_554
O11 P3 1.544508 1_555
O11 Ti2 1.931707 1_556
O12 P0 1.545847 1_555
O12 Ti0 1.938260 1_555
O13 P1 1.545847 1_555
O13 Ti1 1.938260 1_655
O14 P2 1.551381 1_555
O14 Ti2 1.933767 1_555
O15 P3 1.551381 1_655
O15 Ti3 1.933767 1_555
O16 P3 1.540656 1_555
O16 Ti1 1.937089 1_555
O17 P2 1.540656 1_555
O17 Ti0 1.937089 1_555
O18 P1 1.546774 1_555
O18 Ti3 1.989902 1_555
O19 P0 1.546774 1_555
O19 Ti2 1.989902 1_555
