# generated using pymatgen
data_LaOsN3
_symmetry_space_group_name_H-M   'P 1'
_cell_length_a   3.67946810
_cell_length_b   5.67016090
_cell_length_c   6.71104745
_cell_angle_alpha   90.00002693
_cell_angle_beta   90.00001056
_cell_angle_gamma   89.99999994
_symmetry_Int_Tables_number   1
_chemical_formula_structural   LaOsN3
_chemical_formula_sum   'La2 Os2 N6'
_cell_volume   140.01376512
_cell_formula_units_Z   2
loop_
 _symmetry_equiv_pos_site_id
 _symmetry_equiv_pos_as_xyz
  1  'x, y, z'
loop_
 _atom_site_type_symbol
 _atom_site_label
 _atom_site_symmetry_multiplicity
 _atom_site_fract_x
 _atom_site_fract_y
 _atom_site_fract_z
 _atom_site_occupancy
  La  La0  1  -0.00000009  0.75000082  0.78824795  1
  La  La1  1  -0.00000010  0.24999716  0.21176001  1
  Os  Os0  1  0.50000034  0.74999857  0.19317965  1
  Os  Os1  1  0.49999954  0.24999592  0.80681453  1
  N  N0  1  0.49999958  0.49295855  0.59481095  1
  N  N1  1  0.50000004  -0.00000952  0.00000428  1
  N  N2  1  0.49999986  0.00704831  0.59480620  1
  N  N3  1  0.49999993  0.50705183  0.40518806  1
  N  N4  1  0.49999992  0.50000276  0.00000490  1
  N  N5  1  0.49999997  0.99295461  0.40518448  1
loop_
_geom_bond_atom_site_label_1
_geom_bond_atom_site_label_2
_geom_bond_distance
_geom_bond_site_symmetry_2
La0 N0 2.682176 1_555
La0 N0 2.682178 1_455
La0 N2 2.682209 1_465
La0 N2 2.682209 1_565
La0 N1 2.722759 1_466
La0 N1 2.722759 1_566
La0 N4 2.722787 1_556
La0 N4 2.722787 1_456
La1 N5 2.682138 1_445
La1 N5 2.682138 1_545
La1 N3 2.682186 1_555
La1 N3 2.682186 1_455
La1 N4 2.722803 1_455
La1 N4 2.722803 1_555
La1 N1 2.722807 1_455
La1 N1 2.722808 1_555
N0 N3 1.275075 1_555
N0 Os1 1.980442 1_555
N1 Os0 1.920929 1_545
N1 Os1 1.921051 1_554
N2 N5 1.275067 1_545
N2 Os1 1.980404 1_555
N3 Os0 1.980402 1_555
N4 Os0 1.920942 1_555
N4 Os1 1.921059 1_554
N5 Os0 1.980421 1_555
