# generated using pymatgen
data_La3Dy
_symmetry_space_group_name_H-M   'P 1'
_cell_length_a   6.41229735
_cell_length_b   6.41229735
_cell_length_c   6.41229735
_cell_angle_alpha   131.83091434
_cell_angle_beta   131.83091434
_cell_angle_gamma   70.49621075
_symmetry_Int_Tables_number   1
_chemical_formula_structural   La3Dy
_chemical_formula_sum   'La3 Dy1'
_cell_volume   143.43069329
_cell_formula_units_Z   1
loop_
 _symmetry_equiv_pos_site_id
 _symmetry_equiv_pos_as_xyz
  1  'x, y, z'
loop_
 _atom_site_type_symbol
 _atom_site_label
 _atom_site_symmetry_multiplicity
 _atom_site_fract_x
 _atom_site_fract_y
 _atom_site_fract_z
 _atom_site_occupancy
  La  La0  1  0.75000100  0.25000000  0.50000100  1
  La  La1  1  0.25000000  0.75000100  0.50000100  1
  La  La2  1  0.50000000  0.50000000  -0.00000000  1
  Dy  Dy0  1  0.00000000  0.00000000  -0.00000000  1
loop_
_geom_bond_atom_site_label_1
_geom_bond_atom_site_label_2
_geom_bond_distance
_geom_bond_site_symmetry_2
La0 La1 3.700646 1_645
La0 La1 3.700653 1_544
La0 La1 3.700653 1_656
La0 La1 3.700661 1_555
La0 La2 3.701766 1_656
La0 La2 3.701770 1_556
La0 La2 3.701770 1_545
La0 La2 3.701773 1_555
La1 La2 3.701766 1_566
La1 La2 3.701770 1_556
La1 La2 3.701770 1_455
La1 La2 3.701773 1_555
Dy0 La2 3.700653 1_455
Dy0 La2 3.700653 1_444
Dy0 La2 3.700653 1_545
Dy0 La2 3.700653 1_556
Dy0 La0 3.701766 1_454
Dy0 La1 3.701766 1_544
Dy0 La0 3.701770 1_455
Dy0 La1 3.701770 1_545
Dy0 La0 3.701770 1_444
Dy0 La1 3.701770 1_444
Dy0 La1 3.701773 1_555
Dy0 La0 3.701773 1_555
