# generated using pymatgen
data_Ba6Ni25S27
_symmetry_space_group_name_H-M   'P 1'
_cell_length_a   10.06171400
_cell_length_b   10.06171400
_cell_length_c   10.06171400
_cell_angle_alpha   90.00000000
_cell_angle_beta   90.00000000
_cell_angle_gamma   90.00000000
_symmetry_Int_Tables_number   1
_chemical_formula_structural   Ba6Ni25S27
_chemical_formula_sum   'Ba6 Ni25 S27'
_cell_volume   1018.62869358
_cell_formula_units_Z   1
loop_
 _symmetry_equiv_pos_site_id
 _symmetry_equiv_pos_as_xyz
  1  'x, y, z'
loop_
 _atom_site_type_symbol
 _atom_site_label
 _atom_site_symmetry_multiplicity
 _atom_site_fract_x
 _atom_site_fract_y
 _atom_site_fract_z
 _atom_site_occupancy
  Ba  Ba0  1  0.50000000  0.50000000  0.80487300  1
  Ba  Ba1  1  0.80487300  0.50000000  0.50000000  1
  Ba  Ba2  1  0.19512700  0.50000000  0.50000000  1
  Ba  Ba3  1  0.50000000  0.19512700  0.50000000  1
  Ba  Ba4  1  0.50000000  0.80487300  0.50000000  1
  Ba  Ba5  1  0.50000000  0.50000000  0.19512700  1
  Ni  Ni0  1  0.13301000  0.64065500  0.13301000  1
  Ni  Ni1  1  0.86699000  0.64065500  0.86699000  1
  Ni  Ni2  1  0.86699000  0.13301000  0.35934500  1
  Ni  Ni3  1  0.86699000  0.86699000  0.64065500  1
  Ni  Ni4  1  0.86699000  0.64065500  0.13301000  1
  Ni  Ni5  1  0.86699000  0.35934500  0.86699000  1
  Ni  Ni6  1  0.13301000  0.64065500  0.86699000  1
  Ni  Ni7  1  0.35934500  0.86699000  0.86699000  1
  Ni  Ni8  1  0.86699000  0.13301000  0.64065500  1
  Ni  Ni9  1  0.86699000  0.86699000  0.35934500  1
  Ni  Ni10  1  0.64065500  0.13301000  0.86699000  1
  Ni  Ni11  1  0.13301000  0.86699000  0.64065500  1
  Ni  Ni12  1  0.64065500  0.86699000  0.13301000  1
  Ni  Ni13  1  0.35934500  0.13301000  0.13301000  1
  Ni  Ni14  1  0.13301000  0.13301000  0.35934500  1
  Ni  Ni15  1  0.35934500  0.86699000  0.13301000  1
  Ni  Ni16  1  0.64065500  0.13301000  0.13301000  1
  Ni  Ni17  1  0.86699000  0.35934500  0.13301000  1
  Ni  Ni18  1  0.13301000  0.35934500  0.86699000  1
  Ni  Ni19  1  0.13301000  0.13301000  0.64065500  1
  Ni  Ni20  1  0.13301000  0.86699000  0.35934500  1
  Ni  Ni21  1  0.13301000  0.35934500  0.13301000  1
  Ni  Ni22  1  0.00000000  0.00000000  0.00000000  1
  Ni  Ni23  1  0.35934500  0.13301000  0.86699000  1
  Ni  Ni24  1  0.64065500  0.86699000  0.86699000  1
  S  S0  1  0.50000000  0.00000000  0.76247100  1
  S  S1  1  0.00000000  0.50000000  0.76247100  1
  S  S2  1  0.76247100  0.00000000  0.50000000  1
  S  S3  1  0.50000000  0.76247100  0.00000000  1
  S  S4  1  0.50000000  0.23752900  0.00000000  1
  S  S5  1  0.23752900  0.00000000  0.50000000  1
  S  S6  1  0.23752900  0.50000000  0.00000000  1
  S  S7  1  0.00000000  0.23752900  0.50000000  1
  S  S8  1  0.00000000  0.76247100  0.50000000  1
  S  S9  1  0.00000000  0.50000000  0.23752900  1
  S  S10  1  0.72348300  0.72348300  0.72348300  1
  S  S11  1  0.72348300  0.27651700  0.72348300  1
  S  S12  1  0.27651700  0.72348300  0.72348300  1
  S  S13  1  0.72348300  0.72348300  0.27651700  1
  S  S14  1  0.72348300  0.27651700  0.27651700  1
  S  S15  1  0.27651700  0.27651700  0.72348300  1
  S  S16  1  0.27651700  0.72348300  0.27651700  1
  S  S17  1  0.27651700  0.27651700  0.27651700  1
  S  S18  1  0.00000000  0.76148200  0.00000000  1
  S  S19  1  0.23851800  0.00000000  0.00000000  1
  S  S20  1  0.76148200  0.00000000  0.00000000  1
  S  S21  1  0.00000000  0.00000000  0.76148200  1
  S  S22  1  0.00000000  0.00000000  0.23851800  1
  S  S23  1  0.00000000  0.23851800  0.00000000  1
  S  S24  1  0.50000000  0.50000000  0.50000000  1
  S  S25  1  0.76247100  0.50000000  0.00000000  1
  S  S26  1  0.50000000  0.00000000  0.23752900  1
loop_
_geom_bond_atom_site_label_1
_geom_bond_atom_site_label_2
_geom_bond_distance
_geom_bond_site_symmetry_2
Ba0 S24 3.067545 1_555
Ba0 S10 3.283784 1_555
Ba0 S11 3.283784 1_555
Ba0 S12 3.283784 1_555
Ba0 S15 3.283784 1_555
Ba0 S4 3.290743 1_556
Ba0 S25 3.290743 1_556
Ba0 S3 3.290743 1_556
Ba0 S6 3.290743 1_556
Ba1 S24 3.067545 1_555
Ba1 S10 3.283784 1_555
Ba1 S13 3.283784 1_555
Ba1 S11 3.283784 1_555
Ba1 S14 3.283784 1_555
Ba1 S7 3.290743 1_655
Ba1 S1 3.290743 1_655
Ba1 S8 3.290743 1_655
Ba1 S9 3.290743 1_655
Ba2 S24 3.067545 1_555
Ba2 S16 3.283784 1_555
Ba2 S17 3.283784 1_555
Ba2 S12 3.283784 1_555
Ba2 S15 3.283784 1_555
Ba2 S9 3.290743 1_555
Ba2 S7 3.290743 1_555
Ba2 S1 3.290743 1_555
Ba2 S8 3.290743 1_555
Ba3 S24 3.067545 1_555
Ba3 S11 3.283784 1_555
Ba3 S17 3.283784 1_555
Ba3 S14 3.283784 1_555
Ba3 S15 3.283784 1_555
Ba3 S2 3.290743 1_555
Ba3 S0 3.290743 1_555
Ba3 S5 3.290743 1_555
Ba3 S26 3.290743 1_555
Ba4 S24 3.067545 1_555
Ba4 S16 3.283784 1_555
Ba4 S10 3.283784 1_555
Ba4 S13 3.283784 1_555
Ba4 S12 3.283784 1_555
Ba4 S26 3.290743 1_565
Ba4 S2 3.290743 1_565
Ba4 S5 3.290743 1_565
Ba4 S0 3.290743 1_565
Ba5 S24 3.067545 1_555
Ba5 S17 3.283784 1_555
Ba5 S14 3.283784 1_555
Ba5 S13 3.283784 1_555
Ba5 S16 3.283784 1_555
Ba5 S3 3.290743 1_555
Ba5 S6 3.290743 1_555
Ba5 S25 3.290743 1_555
Ba5 S4 3.290743 1_555
Ni0 S16 2.205536 1_555
Ni0 S6 2.213570 1_555
Ni0 S9 2.213570 1_555
Ni0 S18 2.249474 1_555
Ni1 S10 2.205536 1_555
Ni1 S25 2.213570 1_556
Ni1 S1 2.213570 1_655
Ni1 S18 2.249474 1_656
Ni2 S14 2.205536 1_555
Ni2 S7 2.213570 1_655
Ni2 S2 2.213570 1_555
Ni2 S22 2.249474 1_655
Ni3 S10 2.205536 1_555
Ni3 S8 2.213570 1_655
Ni3 S2 2.213570 1_565
Ni3 S21 2.249474 1_665
Ni4 S13 2.205536 1_555
Ni4 S9 2.213570 1_655
Ni4 S25 2.213570 1_555
Ni4 S18 2.249474 1_655
Ni5 S11 2.205536 1_555
Ni5 S1 2.213570 1_655
Ni5 S25 2.213570 1_556
Ni5 S23 2.249474 1_656
Ni6 S12 2.205536 1_555
Ni6 S6 2.213570 1_556
Ni6 S1 2.213570 1_555
Ni6 S18 2.249474 1_556
Ni7 S12 2.205536 1_555
Ni7 S3 2.213570 1_556
Ni7 S0 2.213570 1_565
Ni7 S19 2.249474 1_566
Ni8 S11 2.205536 1_555
Ni8 S7 2.213570 1_655
Ni8 S2 2.213570 1_555
Ni8 S21 2.249474 1_655
Ni9 S13 2.205536 1_555
Ni9 S2 2.213570 1_565
Ni9 S8 2.213570 1_655
Ni9 S22 2.249474 1_665
Ni10 S11 2.205536 1_555
Ni10 S4 2.213570 1_556
Ni10 S0 2.213570 1_555
Ni10 S20 2.249474 1_556
Ni11 S12 2.205536 1_555
Ni11 S5 2.213570 1_565
Ni11 S8 2.213570 1_555
Ni11 S21 2.249474 1_565
Ni12 S13 2.205536 1_555
Ni12 S26 2.213570 1_565
Ni12 S3 2.213570 1_555
Ni12 S20 2.249474 1_565
Ni13 S17 2.205536 1_555
Ni13 S4 2.213570 1_555
Ni13 S26 2.213570 1_555
Ni13 S19 2.249474 1_555
Ni14 S17 2.205536 1_555
Ni14 S7 2.213570 1_555
Ni14 S5 2.213570 1_555
Ni14 S22 2.249474 1_555
Ni15 S16 2.205536 1_555
Ni15 S26 2.213570 1_565
Ni15 S3 2.213570 1_555
Ni15 S19 2.249474 1_565
Ni16 S14 2.205536 1_555
Ni16 S26 2.213570 1_555
Ni16 S4 2.213570 1_555
Ni16 S20 2.249474 1_555
Ni17 S14 2.205536 1_555
Ni17 S9 2.213570 1_655
Ni17 S25 2.213570 1_555
Ni17 S23 2.249474 1_655
Ni18 S15 2.205536 1_555
Ni18 S6 2.213570 1_556
Ni18 S1 2.213570 1_555
Ni18 S23 2.249474 1_556
Ni19 S15 2.205536 1_555
Ni19 S7 2.213570 1_555
Ni19 S5 2.213570 1_555
Ni19 S21 2.249474 1_555
Ni20 S16 2.205536 1_555
Ni20 S5 2.213570 1_565
Ni20 S8 2.213570 1_555
Ni20 S22 2.249474 1_565
Ni21 S17 2.205536 1_555
Ni21 S9 2.213570 1_555
Ni21 S6 2.213570 1_555
Ni21 S23 2.249474 1_555
Ni22 S22 2.399900 1_555
Ni22 S19 2.399900 1_555
Ni22 S23 2.399900 1_555
Ni22 S21 2.399900 1_554
Ni22 S18 2.399900 1_545
Ni22 S20 2.399900 1_455
Ni23 S15 2.205536 1_555
Ni23 S4 2.213570 1_556
Ni23 S0 2.213570 1_555
Ni23 S19 2.249474 1_556
Ni24 S10 2.205536 1_555
Ni24 S3 2.213570 1_556
Ni24 S0 2.213570 1_565
Ni24 S20 2.249474 1_566
