# generated using pymatgen
data_NaCa9Mg(PO4)7
_symmetry_space_group_name_H-M   'P 1'
_cell_length_a   13.85165445
_cell_length_b   13.85165445
_cell_length_c   13.85165464
_cell_angle_alpha   44.28118597
_cell_angle_beta   44.28118597
_cell_angle_gamma   44.28118779
_symmetry_Int_Tables_number   1
_chemical_formula_structural   NaCa9Mg(PO4)7
_chemical_formula_sum   'Na2 Ca18 Mg2 P14 O56'
_cell_volume   1177.36298459
_cell_formula_units_Z   2
loop_
 _symmetry_equiv_pos_site_id
 _symmetry_equiv_pos_as_xyz
  1  'x, y, z'
loop_
 _atom_site_type_symbol
 _atom_site_label
 _atom_site_symmetry_multiplicity
 _atom_site_fract_x
 _atom_site_fract_y
 _atom_site_fract_z
 _atom_site_occupancy
  Na  Na0  1  0.18625300  0.18625300  0.18625300  1
  Na  Na1  1  0.68625300  0.68625300  0.68625300  1
  Ca  Ca0  1  0.94669200  0.55694800  0.97020500  1
  Ca  Ca1  1  0.55694800  0.97020500  0.94669200  1
  Ca  Ca2  1  0.97020500  0.94669200  0.55694800  1
  Ca  Ca3  1  0.47020500  0.05694800  0.44669200  1
  Ca  Ca4  1  0.05694800  0.44669200  0.47020500  1
  Ca  Ca5  1  0.44669200  0.47020500  0.05694800  1
  Ca  Ca6  1  0.34700100  0.90615200  0.93828900  1
  Ca  Ca7  1  0.90615200  0.93828900  0.34700100  1
  Ca  Ca8  1  0.93828900  0.34700100  0.90615200  1
  Ca  Ca9  1  0.43828900  0.40615200  0.84700100  1
  Ca  Ca10  1  0.40615200  0.84700100  0.43828900  1
  Ca  Ca11  1  0.84700100  0.43828900  0.40615200  1
  Ca  Ca12  1  0.65954100  0.07462700  0.06217900  1
  Ca  Ca13  1  0.07462700  0.06217900  0.65954100  1
  Ca  Ca14  1  0.06217900  0.65954100  0.07462700  1
  Ca  Ca15  1  0.56217900  0.57462700  0.15954100  1
  Ca  Ca16  1  0.57462700  0.15954100  0.56217900  1
  Ca  Ca17  1  0.15954100  0.56217900  0.57462700  1
  Mg  Mg0  1  0.00009500  0.00009500  0.00009500  1
  Mg  Mg1  1  0.50009500  0.50009500  0.50009500  1
  P  P0  1  0.18137900  0.68619700  0.22394700  1
  P  P1  1  0.68619700  0.22394700  0.18137900  1
  P  P2  1  0.32238400  0.77152800  0.80902200  1
  P  P3  1  0.77152800  0.80902200  0.32238400  1
  P  P4  1  0.80902200  0.32238400  0.77152800  1
  P  P5  1  0.30902200  0.27152800  0.82238400  1
  P  P6  1  0.27152800  0.82238400  0.30902200  1
  P  P7  1  0.82238400  0.30902200  0.27152800  1
  P  P8  1  0.76516500  0.76516500  0.76516500  1
  P  P9  1  0.26516500  0.26516500  0.26516500  1
  P  P10  1  0.22394700  0.18137900  0.68619700  1
  P  P11  1  0.72394700  0.18619700  0.68137900  1
  P  P12  1  0.68137900  0.72394700  0.18619700  1
  P  P13  1  0.18619700  0.68137900  0.72394700  1
  O  O0  1  0.11051900  0.67134100  0.68871000  1
  O  O1  1  0.67134100  0.68871000  0.11051900  1
  O  O2  1  0.68871000  0.11051900  0.67134100  1
  O  O3  1  0.18871000  0.17134100  0.61051900  1
  O  O4  1  0.17134100  0.61051900  0.18871000  1
  O  O5  1  0.61051900  0.18871000  0.17134100  1
  O  O6  1  0.36298600  0.61378000  0.63517200  1
  O  O7  1  0.61378000  0.63517200  0.36298600  1
  O  O8  1  0.63517200  0.36298600  0.61378000  1
  O  O9  1  0.13517200  0.11378000  0.86298600  1
  O  O10  1  0.11378000  0.86298600  0.13517200  1
  O  O11  1  0.86298600  0.13517200  0.11378000  1
  O  O12  1  0.12875100  0.85130400  0.67070700  1
  O  O13  1  0.85130400  0.67070700  0.12875100  1
  O  O14  1  0.67070700  0.12875100  0.85130400  1
  O  O15  1  0.17070700  0.35130400  0.62875100  1
  O  O16  1  0.35130400  0.62875100  0.17070700  1
  O  O17  1  0.62875100  0.17070700  0.35130400  1
  O  O18  1  0.14549800  0.58591100  0.89714000  1
  O  O19  1  0.58591100  0.89714000  0.14549800  1
  O  O20  1  0.89714000  0.14549800  0.58591100  1
  O  O21  1  0.39714000  0.08591100  0.64549800  1
  O  O22  1  0.37734400  0.84734000  0.63488500  1
  O  O23  1  0.08591100  0.64549800  0.39714000  1
  O  O24  1  0.14681700  0.87092100  0.87851400  1
  O  O25  1  0.87092100  0.87851400  0.14681700  1
  O  O26  1  0.87851400  0.14681700  0.87092100  1
  O  O27  1  0.37851400  0.37092100  0.64681700  1
  O  O28  1  0.37092100  0.64681700  0.37851400  1
  O  O29  1  0.64681700  0.37851400  0.37092100  1
  O  O30  1  0.33486600  0.60936500  0.89016800  1
  O  O31  1  0.60936500  0.89016800  0.33486600  1
  O  O32  1  0.89016800  0.33486600  0.60936500  1
  O  O33  1  0.39016800  0.10936500  0.83486600  1
  O  O34  1  0.10936500  0.83486600  0.39016800  1
  O  O35  1  0.83486600  0.39016800  0.10936500  1
  O  O36  1  0.30650400  0.30650400  0.30650400  1
  O  O37  1  0.80650400  0.80650400  0.80650400  1
  O  O38  1  0.25344100  0.10946100  0.39095200  1
  O  O39  1  0.39095200  0.25344100  0.10946100  1
  O  O40  1  0.10946100  0.39095200  0.25344100  1
  O  O41  1  0.60946100  0.75344100  0.89095200  1
  O  O42  1  0.89095200  0.60946100  0.75344100  1
  O  O43  1  0.75344100  0.89095200  0.60946100  1
  O  O44  1  0.91604600  0.34953000  0.25272500  1
  O  O45  1  0.25272500  0.91604600  0.34953000  1
  O  O46  1  0.34953000  0.25272500  0.91604600  1
  O  O47  1  0.84953000  0.41604600  0.75272500  1
  O  O48  1  0.75272500  0.84953000  0.41604600  1
  O  O49  1  0.41604600  0.75272500  0.84953000  1
  O  O50  1  0.87734400  0.13488500  0.34734000  1
  O  O51  1  0.34734000  0.87734400  0.13488500  1
  O  O52  1  0.13488500  0.34734000  0.87734400  1
  O  O53  1  0.63488500  0.37734400  0.84734000  1
  O  O54  1  0.84734000  0.63488500  0.37734400  1
  O  O55  1  0.64549800  0.39714000  0.08591100  1
loop_
_geom_bond_atom_site_label_1
_geom_bond_atom_site_label_2
_geom_bond_distance
_geom_bond_site_symmetry_2
Na0 O46 2.428644 1_554
Na0 O45 2.428644 1_545
Na0 O44 2.428644 1_455
Na0 O39 2.842473 1_555
Na0 O40 2.842473 1_555
Na0 O38 2.842473 1_555
Na1 O48 2.428644 1_555
Na1 O49 2.428644 1_555
Na1 O47 2.428644 1_555
Na1 O43 2.842473 1_555
Na1 O42 2.842473 1_555
Na1 O41 2.842473 1_555
Ca0 O18 2.403854 1_655
Ca0 O35 2.433982 1_556
Ca0 O1 2.480600 1_556
Ca0 O37 2.516314 1_555
Ca0 O0 2.548843 1_655
Ca0 O52 2.566898 1_655
Ca0 O13 2.621222 1_556
Ca0 O44 2.649173 1_556
Ca1 O19 2.403855 1_556
Ca1 O33 2.433983 1_565
Ca1 O2 2.480600 1_565
Ca1 O37 2.516314 1_555
Ca1 O1 2.548843 1_556
Ca1 O51 2.566898 1_556
Ca1 O14 2.621221 1_565
Ca1 O46 2.649173 1_565
Ca2 O20 2.403855 1_565
Ca2 O34 2.433983 1_655
Ca2 O0 2.480600 1_655
Ca2 O37 2.516314 1_555
Ca2 O2 2.548843 1_565
Ca2 O50 2.566898 1_565
Ca2 O12 2.621222 1_655
Ca2 O45 2.649173 1_655
Ca3 O21 2.403855 1_555
Ca3 O31 2.433983 1_545
Ca3 O5 2.480600 1_555
Ca3 O36 2.516314 1_555
Ca3 O3 2.548843 1_555
Ca3 O22 2.566898 1_545
Ca3 O17 2.621221 1_555
Ca3 O48 2.649173 1_545
Ca4 O23 2.403854 1_555
Ca4 O32 2.433982 1_455
Ca4 O3 2.480600 1_555
Ca4 O36 2.516314 1_555
Ca4 O4 2.548843 1_555
Ca4 O54 2.566898 1_455
Ca4 O15 2.621222 1_555
Ca4 O47 2.649173 1_455
Ca5 O55 2.403855 1_555
Ca5 O30 2.433983 1_554
Ca5 O4 2.480600 1_555
Ca5 O36 2.516314 1_555
Ca5 O5 2.548843 1_555
Ca5 O53 2.566898 1_554
Ca5 O16 2.621222 1_555
Ca5 O49 2.649173 1_554
Ca6 O41 2.383891 1_555
Ca6 O33 2.396383 1_565
Ca6 O9 2.443927 1_565
Ca6 O51 2.456557 1_556
Ca6 O10 2.459121 1_556
Ca6 O49 2.467819 1_555
Ca6 O21 2.667245 1_565
Ca6 O16 2.714201 1_556
Ca7 O43 2.383890 1_555
Ca7 O34 2.396383 1_655
Ca7 O10 2.443927 1_655
Ca7 O50 2.456557 1_565
Ca7 O11 2.459121 1_565
Ca7 O48 2.467819 1_555
Ca7 O23 2.667245 1_655
Ca7 O17 2.714201 1_565
Ca8 O42 2.383890 1_555
Ca8 O35 2.396383 1_556
Ca8 O11 2.443927 1_556
Ca8 O52 2.456557 1_655
Ca8 O9 2.459121 1_655
Ca8 O47 2.467819 1_555
Ca8 O55 2.667245 1_556
Ca8 O15 2.714201 1_655
Ca9 O39 2.383890 1_556
Ca9 O30 2.396383 1_555
Ca9 O6 2.443927 1_555
Ca9 O53 2.456557 1_555
Ca9 O8 2.459121 1_555
Ca9 O46 2.467819 1_555
Ca9 O18 2.667245 1_555
Ca9 O14 2.714201 1_555
Ca10 O38 2.383891 1_565
Ca10 O31 2.396383 1_555
Ca10 O7 2.443927 1_555
Ca10 O22 2.456557 1_555
Ca10 O6 2.459121 1_555
Ca10 O45 2.467819 1_555
Ca10 O19 2.667245 1_555
Ca10 O12 2.714201 1_555
Ca11 O40 2.383890 1_655
Ca11 O32 2.396383 1_555
Ca11 O8 2.443927 1_555
Ca11 O54 2.456557 1_555
Ca11 O7 2.459121 1_555
Ca11 O44 2.467819 1_555
Ca11 O20 2.667245 1_555
Ca11 O13 2.714201 1_555
Ca12 O14 2.345557 1_554
Ca12 O5 2.378937 1_555
Ca12 O39 2.458598 1_555
Ca12 O31 2.498723 1_545
Ca12 O19 2.501699 1_545
Ca12 O26 2.502471 1_554
Ca12 O25 2.508618 1_545
Ca12 O53 2.844764 1_554
Ca13 O12 2.345557 1_545
Ca13 O3 2.378937 1_555
Ca13 O38 2.458597 1_555
Ca13 O32 2.498723 1_455
Ca13 O20 2.501699 1_455
Ca13 O24 2.502471 1_545
Ca13 O26 2.508618 1_455
Ca13 O22 2.844764 1_545
Ca14 O13 2.345557 1_455
Ca14 O4 2.378937 1_555
Ca14 O40 2.458597 1_555
Ca14 O30 2.498723 1_554
Ca14 O18 2.501699 1_554
Ca14 O25 2.502471 1_455
Ca14 O24 2.508618 1_554
Ca14 O54 2.844764 1_455
Ca15 O16 2.345557 1_555
Ca15 O1 2.378937 1_555
Ca15 O41 2.458597 1_554
Ca15 O35 2.498723 1_555
Ca15 O55 2.501699 1_555
Ca15 O28 2.502471 1_555
Ca15 O29 2.508618 1_555
Ca15 O51 2.844764 1_555
Ca16 O17 2.345557 1_555
Ca16 O2 2.378937 1_555
Ca16 O43 2.458598 1_545
Ca16 O33 2.498723 1_555
Ca16 O21 2.501699 1_555
Ca16 O29 2.502471 1_555
Ca16 O27 2.508618 1_555
Ca16 O50 2.844764 1_555
Ca17 O15 2.345557 1_555
Ca17 O0 2.378937 1_555
Ca17 O42 2.458597 1_455
Ca17 O34 2.498723 1_555
Ca17 O23 2.501699 1_555
Ca17 O27 2.502471 1_555
Ca17 O28 2.508618 1_555
Ca17 O52 2.844764 1_555
Mg0 O25 2.091696 1_445
Mg0 O26 2.091696 1_454
Mg0 O24 2.091696 1_544
Mg0 O9 2.106182 1_554
Mg0 O10 2.106182 1_545
Mg0 O11 2.106182 1_455
Mg1 O27 2.091696 1_555
Mg1 O29 2.091696 1_555
Mg1 O28 2.091696 1_555
Mg1 O7 2.106182 1_555
Mg1 O6 2.106182 1_555
Mg1 O8 2.106182 1_555
O0 P13 1.547545 1_555
O1 P12 1.547545 1_555
O2 P11 1.547545 1_555
O3 P10 1.547545 1_555
O4 P0 1.547545 1_555
O5 P1 1.547545 1_555
O6 P13 1.561862 1_555
O7 P12 1.561862 1_555
O8 P11 1.561862 1_555
O9 P10 1.561862 1_555
O10 P0 1.561862 1_555
O11 P1 1.561862 1_555
O12 P13 1.546037 1_555
O13 P12 1.546037 1_555
O14 P11 1.546037 1_555
O15 P10 1.546037 1_555
O16 P0 1.546037 1_555
O17 P1 1.546037 1_555
O18 P13 1.552517 1_555
O19 P12 1.552517 1_555
O20 P11 1.552517 1_555
O21 P10 1.552517 1_555
O22 P2 1.545649 1_555
O23 P0 1.552517 1_555
O24 P2 1.577300 1_555
O25 P3 1.577300 1_555
O26 P4 1.577300 1_555
O27 P5 1.577300 1_555
O28 P6 1.577300 1_555
O29 P7 1.577300 1_555
O30 P2 1.563943 1_555
O31 P3 1.563943 1_555
O32 P4 1.563943 1_555
O33 P5 1.563943 1_555
O34 P6 1.563943 1_555
O35 P7 1.563943 1_555
O36 P9 1.546643 1_555
O37 P8 1.546643 1_555
O38 P9 1.558686 1_555
O39 P9 1.558686 1_555
O40 P9 1.558686 1_555
O41 P8 1.558686 1_555
O42 P8 1.558686 1_555
O43 P8 1.558686 1_555
O44 P7 1.554059 1_555
O45 P6 1.554059 1_555
O46 P5 1.554059 1_555
O47 P4 1.554059 1_555
O48 P3 1.554059 1_555
O49 P2 1.554059 1_555
O50 P7 1.545649 1_555
O51 P6 1.545649 1_555
O52 P5 1.545649 1_555
O53 P4 1.545649 1_555
O54 P3 1.545649 1_555
O55 P1 1.552517 1_555
