# generated using pymatgen
data_TiReN3
_symmetry_space_group_name_H-M   'P 1'
_cell_length_a   5.57519311
_cell_length_b   5.57519311
_cell_length_c   5.57519244
_cell_angle_alpha   54.48762034
_cell_angle_beta   54.48762034
_cell_angle_gamma   54.48761985
_symmetry_Int_Tables_number   1
_chemical_formula_structural   TiReN3
_chemical_formula_sum   'Ti2 Re2 N6'
_cell_volume   106.78808008
_cell_formula_units_Z   2
loop_
 _symmetry_equiv_pos_site_id
 _symmetry_equiv_pos_as_xyz
  1  'x, y, z'
loop_
 _atom_site_type_symbol
 _atom_site_label
 _atom_site_symmetry_multiplicity
 _atom_site_fract_x
 _atom_site_fract_y
 _atom_site_fract_z
 _atom_site_occupancy
  Ti  Ti0  1  0.00618900  0.00618900  0.00618900  1
  Ti  Ti1  1  0.50618900  0.50618900  0.50618900  1
  Re  Re0  1  0.70162900  0.70162900  0.70162900  1
  Re  Re1  1  0.20162900  0.20162900  0.20162900  1
  N  N0  1  0.92875000  0.58793600  0.29378600  1
  N  N1  1  0.58793600  0.29378600  0.92875000  1
  N  N2  1  0.79378600  0.08793600  0.42875000  1
  N  N3  1  0.08793600  0.42875000  0.79378600  1
  N  N4  1  0.29378600  0.92875000  0.58793600  1
  N  N5  1  0.42875000  0.79378600  0.08793600  1
loop_
_geom_bond_atom_site_label_1
_geom_bond_atom_site_label_2
_geom_bond_distance
_geom_bond_site_symmetry_2
N0 Re1 1.946264 1_655
N0 Ti0 2.053405 1_665
N0 Ti1 2.130589 1_555
N0 Re0 2.138311 1_555
N1 Re1 1.946264 1_556
N1 Ti0 2.053405 1_656
N1 Ti1 2.130589 1_555
N1 Re0 2.138311 1_555
N2 Re0 1.946264 1_545
N2 Ti1 2.053405 1_555
N2 Ti0 2.130589 1_655
N2 Re1 2.138311 1_655
N3 Re0 1.946264 1_455
N3 Ti1 2.053405 1_555
N3 Ti0 2.130589 1_556
N3 Re1 2.138311 1_556
N4 Re1 1.946263 1_565
N4 Ti0 2.053405 1_566
N4 Ti1 2.130589 1_555
N4 Re0 2.138311 1_555
N5 Re0 1.946263 1_554
N5 Ti1 2.053405 1_555
N5 Ti0 2.130589 1_565
N5 Re1 2.138311 1_565
