# generated using pymatgen
data_Rb4NO
_symmetry_space_group_name_H-M   'P 1'
_cell_length_a   4.97146600
_cell_length_b   4.97146600
_cell_length_c   7.00969200
_cell_angle_alpha   90.00000000
_cell_angle_beta   90.00000000
_cell_angle_gamma   90.00000000
_symmetry_Int_Tables_number   1
_chemical_formula_structural   Rb4NO
_chemical_formula_sum   'Rb4 N1 O1'
_cell_volume   173.24786170
_cell_formula_units_Z   1
loop_
 _symmetry_equiv_pos_site_id
 _symmetry_equiv_pos_as_xyz
  1  'x, y, z'
loop_
 _atom_site_type_symbol
 _atom_site_label
 _atom_site_symmetry_multiplicity
 _atom_site_fract_x
 _atom_site_fract_y
 _atom_site_fract_z
 _atom_site_occupancy
  Rb  Rb0  1  0.00000000  0.50000000  0.25509200  1
  Rb  Rb1  1  0.50000000  0.00000000  0.74490800  1
  Rb  Rb2  1  0.00000000  0.50000000  0.74490800  1
  Rb  Rb3  1  0.50000000  0.00000000  0.25509200  1
  N  N0  1  0.50000000  0.50000000  0.00000000  1
  O  O0  1  0.00000000  0.00000000  0.50000000  1
loop_
_geom_bond_atom_site_label_1
_geom_bond_atom_site_label_2
_geom_bond_distance
_geom_bond_site_symmetry_2
N0 Rb3 3.062063 1_555
N0 Rb0 3.062063 1_655
N0 Rb2 3.062063 1_554
N0 Rb0 3.062063 1_555
N0 Rb3 3.062063 1_565
N0 Rb2 3.062063 1_654
N0 Rb1 3.062063 1_564
N0 Rb1 3.062063 1_554
O0 Rb3 3.020932 1_455
O0 Rb0 3.020932 1_555
O0 Rb1 3.020932 1_455
O0 Rb1 3.020932 1_555
O0 Rb2 3.020932 1_545
O0 Rb2 3.020932 1_555
O0 Rb0 3.020932 1_545
O0 Rb3 3.020932 1_555
