# generated using pymatgen
data_Pm2Mg
_symmetry_space_group_name_H-M   'P 1'
_cell_length_a   7.66284033
_cell_length_b   7.66284033
_cell_length_c   13.80981499
_cell_angle_alpha   106.09550321
_cell_angle_beta   106.09548445
_cell_angle_gamma   90.04186615
_symmetry_Int_Tables_number   1
_chemical_formula_structural   Pm2Mg
_chemical_formula_sum   'Pm16 Mg8'
_cell_volume   745.92422915
_cell_formula_units_Z   8
loop_
 _symmetry_equiv_pos_site_id
 _symmetry_equiv_pos_as_xyz
  1  'x, y, z'
loop_
 _atom_site_type_symbol
 _atom_site_label
 _atom_site_symmetry_multiplicity
 _atom_site_fract_x
 _atom_site_fract_y
 _atom_site_fract_z
 _atom_site_occupancy
  Pm  Pm0_0  1  0.04739619  0.46406269  0.01145987  1
  Pm  Pm0_1  1  0.04739619  0.46406269  0.51145988  1
  Pm  Pm0_2  1  0.04739619  0.96406269  0.01145987  1
  Pm  Pm0_3  1  0.04739619  0.96406269  0.51145988  1
  Pm  Pm0_4  1  0.54739619  0.46406269  0.01145988  1
  Pm  Pm0_5  1  0.54739619  0.46406269  0.51145988  1
  Pm  Pm0_6  1  0.54739619  0.96406269  0.01145987  1
  Pm  Pm0_7  1  0.54739619  0.96406269  0.51145988  1
  Pm  Pm1_0  1  0.20260381  0.11927081  0.32187362  1
  Pm  Pm1_1  1  0.20260381  0.11927081  0.82187362  1
  Pm  Pm1_2  1  0.20260381  0.61927081  0.32187362  1
  Pm  Pm1_3  1  0.20260381  0.61927081  0.82187363  1
  Pm  Pm1_4  1  0.70260381  0.11927081  0.32187363  1
  Pm  Pm1_5  1  0.70260381  0.11927081  0.82187363  1
  Pm  Pm1_6  1  0.70260381  0.61927081  0.32187362  1
  Pm  Pm1_7  1  0.70260381  0.61927081  0.82187362  1
  Mg  Mg0_0  1  0.37500000  0.29166700  0.16666700  1
  Mg  Mg0_1  1  0.37500000  0.29166700  0.66666700  1
  Mg  Mg0_2  1  0.37500000  0.79166700  0.16666700  1
  Mg  Mg0_3  1  0.37500000  0.79166700  0.66666700  1
  Mg  Mg0_4  1  0.87500000  0.29166700  0.16666700  1
  Mg  Mg0_5  1  0.87500000  0.29166700  0.66666700  1
  Mg  Mg0_6  1  0.87500000  0.79166700  0.16666700  1
  Mg  Mg0_7  1  0.87500000  0.79166700  0.66666700  1
loop_
_geom_bond_atom_site_label_1
_geom_bond_atom_site_label_2
_geom_bond_distance
_geom_bond_site_symmetry_2
Pm0_0 Pm1_5 3.624181 1_454
Pm0_0 Pm1_3 3.624197 1_554
Pm0_0 Pm1_1 3.625666 1_554
Pm0_0 Pm1_7 3.625671 1_454
Pm0_0 Pm0_2 3.831420 1_545
Pm0_0 Pm0_2 3.831420 1_555
Pm0_0 Pm0_4 3.831420 1_555
Pm0_0 Pm0_4 3.831420 1_455
Pm0_0 Pm1_2 3.943267 1_555
Pm0_1 Pm1_4 3.624181 1_455
Pm0_1 Pm1_2 3.624197 1_555
Pm0_1 Pm1_0 3.625666 1_555
Pm0_1 Pm1_6 3.625671 1_455
Pm0_1 Pm0_3 3.831420 1_555
Pm0_1 Pm0_5 3.831420 1_455
Pm0_1 Pm0_3 3.831420 1_545
Pm0_1 Pm0_5 3.831420 1_555
Pm0_1 Pm1_3 3.943267 1_555
Pm0_2 Pm1_7 3.624181 1_454
Pm0_2 Pm1_1 3.624197 1_564
Pm0_2 Pm1_3 3.625666 1_554
Pm0_2 Pm1_5 3.625671 1_464
Pm0_2 Pm0_6 3.831420 1_455
Pm0_2 Pm0_6 3.831420 1_555
Pm0_2 Pm1_0 3.943267 1_565
Pm0_3 Pm1_6 3.624181 1_455
Pm0_3 Pm1_0 3.624197 1_565
Pm0_3 Pm1_2 3.625666 1_555
Pm0_3 Pm1_4 3.625671 1_465
Pm0_3 Pm0_7 3.831420 1_455
Pm0_3 Pm0_7 3.831420 1_555
Pm0_3 Pm1_1 3.943267 1_565
Pm0_4 Pm1_1 3.624181 1_554
Pm0_4 Pm1_7 3.624197 1_554
Pm0_4 Pm1_5 3.625666 1_554
Pm0_4 Pm1_3 3.625671 1_554
Pm0_4 Pm0_6 3.831420 1_545
Pm0_4 Pm0_6 3.831420 1_555
Pm0_4 Pm1_6 3.943267 1_555
Pm0_5 Pm1_0 3.624181 1_555
Pm0_5 Pm1_6 3.624197 1_555
Pm0_5 Pm1_4 3.625666 1_555
Pm0_5 Pm1_2 3.625671 1_555
Pm0_5 Pm0_7 3.831420 1_545
Pm0_5 Pm0_7 3.831420 1_555
Pm0_5 Pm1_7 3.943267 1_555
Pm0_6 Pm1_3 3.624181 1_554
Pm0_6 Pm1_5 3.624197 1_564
Pm0_6 Pm1_7 3.625666 1_554
Pm0_6 Pm1_1 3.625671 1_564
Pm0_6 Pm1_4 3.943267 1_565
Pm0_7 Pm1_2 3.624181 1_555
Pm0_7 Pm1_4 3.624197 1_565
Pm0_7 Pm1_6 3.625666 1_555
Pm0_7 Pm1_0 3.625671 1_565
Pm0_7 Pm1_5 3.943267 1_565
Pm1_0 Pm1_4 3.831420 1_555
Pm1_0 Pm1_2 3.831420 1_545
Pm1_0 Pm1_4 3.831420 1_455
Pm1_0 Pm1_2 3.831420 1_555
Pm1_1 Pm1_5 3.831420 1_555
Pm1_1 Pm1_3 3.831420 1_555
Pm1_1 Pm1_3 3.831420 1_545
Pm1_1 Pm1_5 3.831420 1_455
Pm1_2 Pm1_6 3.831420 1_455
Pm1_2 Pm1_6 3.831420 1_555
Pm1_3 Pm1_7 3.831420 1_455
Pm1_3 Pm1_7 3.831420 1_555
Pm1_4 Pm1_6 3.831420 1_545
Pm1_4 Pm1_6 3.831420 1_555
Pm1_5 Pm1_7 3.831420 1_545
Pm1_5 Pm1_7 3.831420 1_555
Mg0_0 Pm1_0 3.349899 1_555
Mg0_0 Pm0_4 3.349903 1_555
Mg0_0 Pm1_6 3.349908 1_555
Mg0_0 Pm0_2 3.349912 1_545
Mg0_0 Pm1_2 3.351504 1_555
Mg0_0 Pm1_4 3.351505 1_555
Mg0_0 Pm0_0 3.351506 1_555
Mg0_0 Pm0_6 3.351510 1_545
Mg0_1 Pm1_1 3.349899 1_555
Mg0_1 Pm0_5 3.349903 1_555
Mg0_1 Pm1_7 3.349908 1_555
Mg0_1 Pm0_3 3.349912 1_545
Mg0_1 Pm1_3 3.351504 1_555
Mg0_1 Pm1_5 3.351505 1_555
Mg0_1 Pm0_1 3.351506 1_555
Mg0_1 Pm0_7 3.351510 1_545
Mg0_2 Pm1_2 3.349899 1_555
Mg0_2 Pm0_6 3.349903 1_555
Mg0_2 Pm1_4 3.349908 1_565
Mg0_2 Pm0_0 3.349912 1_555
Mg0_2 Pm1_0 3.351504 1_565
Mg0_2 Pm1_6 3.351505 1_555
Mg0_2 Pm0_2 3.351506 1_555
Mg0_2 Pm0_4 3.351510 1_555
Mg0_3 Pm1_3 3.349899 1_555
Mg0_3 Pm0_7 3.349903 1_555
Mg0_3 Pm1_5 3.349908 1_565
Mg0_3 Pm0_1 3.349912 1_555
Mg0_3 Pm1_1 3.351504 1_565
Mg0_3 Pm1_7 3.351505 1_555
Mg0_3 Pm0_3 3.351506 1_555
Mg0_3 Pm0_5 3.351510 1_555
Mg0_4 Pm1_4 3.349899 1_555
Mg0_4 Pm0_0 3.349903 1_655
Mg0_4 Pm1_2 3.349908 1_655
Mg0_4 Pm0_6 3.349912 1_545
Mg0_4 Pm1_6 3.351504 1_555
Mg0_4 Pm1_0 3.351505 1_655
Mg0_4 Pm0_4 3.351506 1_555
Mg0_4 Pm0_2 3.351510 1_645
Mg0_5 Pm1_5 3.349899 1_555
Mg0_5 Pm0_1 3.349903 1_655
Mg0_5 Pm1_3 3.349908 1_655
Mg0_5 Pm0_7 3.349912 1_545
Mg0_5 Pm1_7 3.351504 1_555
Mg0_5 Pm1_1 3.351505 1_655
Mg0_5 Pm0_5 3.351506 1_555
Mg0_5 Pm0_3 3.351510 1_645
Mg0_6 Pm1_6 3.349899 1_555
Mg0_6 Pm0_2 3.349903 1_655
Mg0_6 Pm1_0 3.349908 1_665
Mg0_6 Pm0_4 3.349912 1_555
Mg0_6 Pm1_4 3.351504 1_565
Mg0_6 Pm1_2 3.351505 1_655
Mg0_6 Pm0_6 3.351506 1_555
Mg0_6 Pm0_0 3.351510 1_655
Mg0_7 Pm1_7 3.349899 1_555
Mg0_7 Pm0_3 3.349903 1_655
Mg0_7 Pm1_1 3.349908 1_665
Mg0_7 Pm0_5 3.349912 1_555
Mg0_7 Pm1_5 3.351504 1_565
Mg0_7 Pm1_3 3.351505 1_655
Mg0_7 Pm0_7 3.351506 1_555
Mg0_7 Pm0_1 3.351510 1_655
