# generated using pymatgen
data_Ti3O2
_symmetry_space_group_name_H-M   'P 1'
_cell_length_a   5.10178254
_cell_length_b   5.10248261
_cell_length_c   5.76347029
_cell_angle_alpha   116.26941069
_cell_angle_beta   63.72712982
_cell_angle_gamma   119.99390627
_symmetry_Int_Tables_number   1
_chemical_formula_structural   Ti3O2
_chemical_formula_sum   'Ti6 O4'
_cell_volume   111.68602130
_cell_formula_units_Z   2
loop_
 _symmetry_equiv_pos_site_id
 _symmetry_equiv_pos_as_xyz
  1  'x, y, z'
loop_
 _atom_site_type_symbol
 _atom_site_label
 _atom_site_symmetry_multiplicity
 _atom_site_fract_x
 _atom_site_fract_y
 _atom_site_fract_z
 _atom_site_occupancy
  Ti  Ti0  1  0.58087511  0.74997892  0.25002431  1
  Ti  Ti1  1  0.91901853  0.41914387  0.25014049  1
  Ti  Ti2  1  0.25000724  0.08080928  0.24984099  1
  Ti  Ti3  1  0.75001055  0.91920456  0.75015532  1
  Ti  Ti4  1  0.08097491  0.58084181  0.74986673  1
  Ti  Ti5  1  0.41911193  0.25002522  0.74997664  1
  O  O0  1  0.66273454  0.33752432  0.01225073  1
  O  O1  1  0.83747546  0.16247687  0.48774217  1
  O  O2  1  0.16252622  0.83750937  0.51224763  1
  O  O3  1  0.33726152  0.66248777  0.98776299  1
loop_
_geom_bond_atom_site_label_1
_geom_bond_atom_site_label_2
_geom_bond_distance
_geom_bond_site_symmetry_2
O0 Ti1 2.073651 1_555
O0 Ti0 2.073804 1_555
O0 Ti2 2.074157 1_555
O0 Ti3 2.129965 1_544
O0 Ti4 2.130228 1_654
O0 Ti5 2.130774 1_554
O1 Ti2 2.073537 1_655
O1 Ti0 2.073962 1_545
O1 Ti1 2.074114 1_555
O1 Ti3 2.130222 1_545
O1 Ti4 2.130243 1_655
O1 Ti5 2.130559 1_555
O2 Ti3 2.073533 1_455
O2 Ti5 2.074000 1_565
O2 Ti4 2.074185 1_555
O2 Ti1 2.130208 1_455
O2 Ti2 2.130268 1_565
O2 Ti0 2.130452 1_555
O3 Ti4 2.073639 1_555
O3 Ti5 2.073828 1_555
O3 Ti3 2.074255 1_555
O3 Ti2 2.129911 1_566
O3 Ti1 2.130267 1_456
O3 Ti0 2.130689 1_556
