# generated using pymatgen
data_KTi5Se8
_symmetry_space_group_name_H-M   'P 1'
_cell_length_a   3.65912711
_cell_length_b   9.12881157
_cell_length_c   9.67739706
_cell_angle_alpha   104.02906137
_cell_angle_beta   100.89765326
_cell_angle_gamma   90.00000004
_symmetry_Int_Tables_number   1
_chemical_formula_structural   KTi5Se8
_chemical_formula_sum   'K1 Ti5 Se8'
_cell_volume   307.60471230
_cell_formula_units_Z   1
loop_
 _symmetry_equiv_pos_site_id
 _symmetry_equiv_pos_as_xyz
  1  'x, y, z'
loop_
 _atom_site_type_symbol
 _atom_site_label
 _atom_site_symmetry_multiplicity
 _atom_site_fract_x
 _atom_site_fract_y
 _atom_site_fract_z
 _atom_site_occupancy
  K  K0  1  0.49999491  0.49998485  -0.00000817  1
  Ti  Ti0  1  -0.00002634  0.00000689  -0.00005168  1
  Ti  Ti1  1  0.65250309  0.99041085  0.30500918  1
  Ti  Ti2  1  0.70928177  0.35091464  0.41856654  1
  Ti  Ti3  1  0.29073917  0.64914950  0.58147834  1
  Ti  Ti4  1  0.34750245  0.00955983  0.69500591  1
  Se  Se0  1  0.57361577  0.17178530  0.14723554  1
  Se  Se1  1  0.08598160  0.81649628  0.17196119  1
  Se  Se2  1  0.16178605  0.49700787  0.32357210  1
  Se  Se3  1  0.23941421  0.15810654  0.47882742  1
  Se  Se4  1  0.76060447  0.84190822  0.52121194  1
  Se  Se5  1  0.83821419  0.50298667  0.67642939  1
  Se  Se6  1  0.91399790  0.18350064  0.82799879  1
  Se  Se7  1  0.42638276  0.82818393  0.85276351  1
loop_
_geom_bond_atom_site_label_1
_geom_bond_atom_site_label_2
_geom_bond_distance
_geom_bond_site_symmetry_2
K0 Se6 3.469043 1_554
K0 Se6 3.469045 1_454
K0 Se1 3.469158 1_555
K0 Se1 3.469166 1_655
K0 Se5 3.583837 1_454
K0 Se5 3.583839 1_554
K0 Se2 3.583932 1_555
K0 Se2 3.583936 1_655
K0 Se7 3.606036 1_554
K0 Se0 3.606127 1_555
Se0 Ti1 2.492996 1_545
Se0 Ti0 2.584896 1_555
Se0 Ti0 2.584904 1_655
Se0 Ti2 2.690825 1_555
Se1 Ti1 2.544667 1_555
Se1 Ti1 2.544680 1_455
Se1 Ti0 2.613504 1_565
Se2 Ti3 2.501003 1_555
Se2 Ti2 2.556412 1_555
Se2 Ti2 2.556420 1_455
Se3 Ti1 2.677817 1_545
Se3 Ti1 2.677827 1_445
Se3 Ti2 2.696449 1_555
Se3 Ti2 2.696459 1_455
Se3 Ti4 2.726633 1_555
Se4 Ti4 2.677541 1_565
Se4 Ti4 2.677546 1_665
Se4 Ti3 2.696152 1_555
Se4 Ti3 2.696159 1_655
Se4 Ti1 2.726561 1_555
Se5 Ti2 2.500457 1_555
Se5 Ti3 2.556603 1_555
Se5 Ti3 2.556606 1_655
Se6 Ti4 2.544612 1_555
Se6 Ti4 2.544617 1_655
Se6 Ti0 2.612910 1_656
Se7 Ti4 2.492890 1_565
Se7 Ti0 2.584708 1_666
Se7 Ti0 2.584715 1_566
Se7 Ti3 2.690152 1_555
