# generated using pymatgen
data_Ti3Si
_symmetry_space_group_name_H-M   'P 1'
_cell_length_a   4.44679090
_cell_length_b   4.44679090
_cell_length_c   4.44679090
_cell_angle_alpha   60.00000000
_cell_angle_beta   60.00000000
_cell_angle_gamma   60.00000000
_symmetry_Int_Tables_number   1
_chemical_formula_structural   Ti3Si
_chemical_formula_sum   'Ti3 Si1'
_cell_volume   62.17633615
_cell_formula_units_Z   1
loop_
 _symmetry_equiv_pos_site_id
 _symmetry_equiv_pos_as_xyz
  1  'x, y, z'
loop_
 _atom_site_type_symbol
 _atom_site_label
 _atom_site_symmetry_multiplicity
 _atom_site_fract_x
 _atom_site_fract_y
 _atom_site_fract_z
 _atom_site_occupancy
  Ti  Ti0  1  0.75000000  0.75000000  0.75000000  1
  Ti  Ti1  1  0.25000000  0.25000000  0.25000000  1
  Ti  Ti2  1  0.00000000  0.00000000  0.00000000  1
  Si  Si0  1  0.50000000  0.50000000  0.50000000  1
loop_
_geom_bond_atom_site_label_1
_geom_bond_atom_site_label_2
_geom_bond_distance
_geom_bond_site_symmetry_2
Ti0 Ti2 2.723092 1_566
Ti0 Ti2 2.723092 1_665
Ti0 Ti2 2.723092 1_666
Ti0 Ti2 2.723092 1_656
Ti1 Ti2 2.723092 1_565
Ti1 Ti2 2.723092 1_655
Ti1 Ti2 2.723092 1_555
Ti1 Ti2 2.723092 1_556
Si0 Ti0 2.723092 1_455
Si0 Ti1 2.723092 1_565
Si0 Ti0 2.723092 1_555
Si0 Ti0 2.723092 1_545
Si0 Ti0 2.723092 1_554
Si0 Ti1 2.723092 1_555
Si0 Ti1 2.723092 1_556
Si0 Ti1 2.723092 1_655
Si0 Ti2 3.144356 1_565
Si0 Ti2 3.144356 1_665
Si0 Ti2 3.144356 1_656
Si0 Ti2 3.144356 1_566
Si0 Ti2 3.144356 1_556
Si0 Ti2 3.144356 1_655
