# generated using pymatgen
data_SmLuHg2
_symmetry_space_group_name_H-M   'P 1'
_cell_length_a   5.22962721
_cell_length_b   5.23045803
_cell_length_c   5.23170142
_cell_angle_alpha   60.03317766
_cell_angle_beta   59.98267159
_cell_angle_gamma   60.00107735
_symmetry_Int_Tables_number   1
_chemical_formula_structural   SmLuHg2
_chemical_formula_sum   'Sm1 Lu1 Hg2'
_cell_volume   101.20309231
_cell_formula_units_Z   1
loop_
 _symmetry_equiv_pos_site_id
 _symmetry_equiv_pos_as_xyz
  1  'x, y, z'
loop_
 _atom_site_type_symbol
 _atom_site_label
 _atom_site_symmetry_multiplicity
 _atom_site_fract_x
 _atom_site_fract_y
 _atom_site_fract_z
 _atom_site_occupancy
  Sm  Sm0  1  0.75000441  0.75000070  0.74999257  1
  Lu  Lu0  1  0.24999953  0.24999564  0.25000812  1
  Hg  Hg0  1  0.99986938  0.00012672  0.00002828  1
  Hg  Hg1  1  0.50012668  0.49987594  0.49997003  1
loop_
_geom_bond_atom_site_label_1
_geom_bond_atom_site_label_2
_geom_bond_distance
_geom_bond_site_symmetry_2
Hg0 Lu0 3.201263 1_555
Hg0 Sm0 3.202395 1_644
Hg0 Lu0 3.202846 1_655
Hg0 Sm0 3.203050 1_544
Hg0 Sm0 3.203419 1_554
Hg0 Sm0 3.203973 1_545
Hg0 Lu0 3.204211 1_654
Hg0 Lu0 3.204517 1_645
Hg1 Lu0 3.201275 1_655
Hg1 Sm0 3.202340 1_455
Hg1 Lu0 3.202805 1_555
Hg1 Sm0 3.203043 1_555
Hg1 Sm0 3.203425 1_545
Hg1 Sm0 3.204029 1_554
Hg1 Lu0 3.204287 1_556
Hg1 Lu0 3.204469 1_565
