# generated using pymatgen
data_Zn3Co
_symmetry_space_group_name_H-M   'P 1'
_cell_length_a   3.68585535
_cell_length_b   3.68585535
_cell_length_c   3.68584621
_cell_angle_alpha   90.00000000
_cell_angle_beta   90.00000000
_cell_angle_gamma   90.00000000
_symmetry_Int_Tables_number   1
_chemical_formula_structural   Zn3Co
_chemical_formula_sum   'Zn3 Co1'
_cell_volume   50.07417301
_cell_formula_units_Z   1
loop_
 _symmetry_equiv_pos_site_id
 _symmetry_equiv_pos_as_xyz
  1  'x, y, z'
loop_
 _atom_site_type_symbol
 _atom_site_label
 _atom_site_symmetry_multiplicity
 _atom_site_fract_x
 _atom_site_fract_y
 _atom_site_fract_z
 _atom_site_occupancy
  Zn  Zn0  1  -0.00000000  0.50000000  0.50000000  1
  Zn  Zn1  1  0.50000000  -0.00000000  0.50000000  1
  Zn  Zn2  1  0.50000000  0.50000000  0.00000000  1
  Co  Co0  1  0.00000000  0.00000000  0.00000000  1
loop_
_geom_bond_atom_site_label_1
_geom_bond_atom_site_label_2
_geom_bond_distance
_geom_bond_site_symmetry_2
Zn0 Zn2 2.606290 1_455
Zn0 Zn2 2.606290 1_555
Zn0 Zn2 2.606290 1_556
Zn0 Zn2 2.606290 1_456
Zn0 Zn1 2.606293 1_455
Zn0 Zn1 2.606293 1_555
Zn0 Zn1 2.606293 1_465
Zn0 Zn1 2.606293 1_565
Zn1 Zn2 2.606290 1_546
Zn1 Zn2 2.606290 1_555
Zn1 Zn2 2.606290 1_545
Zn1 Zn2 2.606290 1_556
Co0 Zn0 2.606290 1_555
Co0 Zn1 2.606290 1_555
Co0 Zn1 2.606290 1_454
Co0 Zn1 2.606290 1_455
Co0 Zn0 2.606290 1_554
Co0 Zn1 2.606290 1_554
Co0 Zn0 2.606290 1_544
Co0 Zn0 2.606290 1_545
Co0 Zn2 2.606293 1_445
Co0 Zn2 2.606293 1_455
Co0 Zn2 2.606293 1_555
Co0 Zn2 2.606293 1_545
