# generated using pymatgen
data_SmHoRh2
_symmetry_space_group_name_H-M   'P 1'
_cell_length_a   4.85890569
_cell_length_b   4.85890599
_cell_length_c   4.85890649
_cell_angle_alpha   59.99997882
_cell_angle_beta   59.99999003
_cell_angle_gamma   59.99998474
_symmetry_Int_Tables_number   1
_chemical_formula_structural   SmHoRh2
_chemical_formula_sum   'Sm1 Ho1 Rh2'
_cell_volume   81.11484755
_cell_formula_units_Z   1
loop_
 _symmetry_equiv_pos_site_id
 _symmetry_equiv_pos_as_xyz
  1  'x, y, z'
loop_
 _atom_site_type_symbol
 _atom_site_label
 _atom_site_symmetry_multiplicity
 _atom_site_fract_x
 _atom_site_fract_y
 _atom_site_fract_z
 _atom_site_occupancy
  Sm  Sm0  1  0.75000080  0.75000083  0.75000085  1
  Ho  Ho0  1  0.25000010  0.25000002  0.24999995  1
  Rh  Rh0  1  0.00000004  0.00000003  0.00000004  1
  Rh  Rh1  1  0.49999906  0.49999912  0.49999916  1
loop_
_geom_bond_atom_site_label_1
_geom_bond_atom_site_label_2
_geom_bond_distance
_geom_bond_site_symmetry_2
Ho0 Rh1 2.975450 1_555
Ho0 Rh0 2.975459 1_655
Ho0 Rh0 2.975459 1_565
Ho0 Rh0 2.975460 1_556
Ho0 Rh0 2.975460 1_555
Ho0 Rh1 2.975463 1_545
Ho0 Rh1 2.975463 1_554
Ho0 Rh1 2.975464 1_455
Rh0 Sm0 2.975451 1_444
Rh0 Sm0 2.975463 1_544
Rh0 Sm0 2.975463 1_454
Rh0 Sm0 2.975463 1_445
Rh1 Sm0 2.975453 1_545
Rh1 Sm0 2.975453 1_455
Rh1 Sm0 2.975453 1_554
Rh1 Sm0 2.975481 1_555
