# generated using pymatgen
data_TiBiRh
_symmetry_space_group_name_H-M   'P 1'
_cell_length_a   4.48950722
_cell_length_b   4.48950722
_cell_length_c   4.48950722
_cell_angle_alpha   60.00000000
_cell_angle_beta   60.00000000
_cell_angle_gamma   60.00000000
_symmetry_Int_Tables_number   1
_chemical_formula_structural   TiBiRh
_chemical_formula_sum   'Ti1 Bi1 Rh1'
_cell_volume   63.98542005
_cell_formula_units_Z   1
loop_
 _symmetry_equiv_pos_site_id
 _symmetry_equiv_pos_as_xyz
  1  'x, y, z'
loop_
 _atom_site_type_symbol
 _atom_site_label
 _atom_site_symmetry_multiplicity
 _atom_site_fract_x
 _atom_site_fract_y
 _atom_site_fract_z
 _atom_site_occupancy
  Ti  Ti0  1  0.25000000  0.25000000  0.25000000  1
  Bi  Bi0  1  0.00000000  0.00000000  0.00000000  1
  Rh  Rh0  1  0.50000000  0.50000000  0.50000000  1
loop_
_geom_bond_atom_site_label_1
_geom_bond_atom_site_label_2
_geom_bond_distance
_geom_bond_site_symmetry_2
Bi0 Ti0 2.749250 1_455
Bi0 Ti0 2.749250 1_545
Bi0 Ti0 2.749250 1_554
Bi0 Ti0 2.749250 1_555
Bi0 Rh0 3.174561 1_545
Bi0 Rh0 3.174561 1_455
Bi0 Rh0 3.174561 1_554
Bi0 Rh0 3.174561 1_544
Bi0 Rh0 3.174561 1_445
Bi0 Rh0 3.174561 1_454
Rh0 Ti0 2.749250 1_655
Rh0 Ti0 2.749250 1_565
Rh0 Ti0 2.749250 1_556
Rh0 Ti0 2.749250 1_555
