# generated using pymatgen
data_Si3As
_symmetry_space_group_name_H-M   'P 1'
_cell_length_a   5.44529852
_cell_length_b   5.44529852
_cell_length_c   5.03438900
_cell_angle_alpha   90.00000000
_cell_angle_beta   90.00000000
_cell_angle_gamma   120.00000632
_symmetry_Int_Tables_number   1
_chemical_formula_structural   Si3As
_chemical_formula_sum   'Si6 As2'
_cell_volume   129.27684983
_cell_formula_units_Z   2
loop_
 _symmetry_equiv_pos_site_id
 _symmetry_equiv_pos_as_xyz
  1  'x, y, z'
loop_
 _atom_site_type_symbol
 _atom_site_label
 _atom_site_symmetry_multiplicity
 _atom_site_fract_x
 _atom_site_fract_y
 _atom_site_fract_z
 _atom_site_occupancy
  Si  Si0  1  0.16170000  0.32340100  0.25000000  1
  Si  Si1  1  0.67659900  0.83830000  0.25000000  1
  Si  Si2  1  0.16170000  0.83830000  0.25000000  1
  Si  Si3  1  0.83830000  0.67659900  0.75000000  1
  Si  Si4  1  0.32340100  0.16170000  0.75000000  1
  Si  Si5  1  0.83830000  0.16170000  0.75000000  1
  As  As0  1  0.33333300  0.66666700  0.75000000  1
  As  As1  1  0.66666700  0.33333300  0.25000000  1
loop_
_geom_bond_atom_site_label_1
_geom_bond_atom_site_label_2
_geom_bond_distance
_geom_bond_site_symmetry_2
As0 Si4 2.723047 1_565
As0 Si3 2.723047 1_455
As0 Si5 2.723052 1_455
As0 Si5 2.723052 1_565
As0 Si4 2.723058 1_555
As0 Si3 2.723058 1_555
As0 Si1 2.992768 1_556
As0 Si1 2.992768 1_555
As0 Si0 2.992768 1_556
As0 Si0 2.992768 1_555
As0 Si2 2.992768 1_555
As0 Si2 2.992768 1_556
As1 Si1 2.723047 1_545
As1 Si0 2.723047 1_655
As1 Si2 2.723052 1_545
As1 Si2 2.723052 1_655
As1 Si0 2.723058 1_555
As1 Si1 2.723058 1_555
As1 Si3 2.992768 1_555
As1 Si3 2.992768 1_554
As1 Si4 2.992768 1_555
As1 Si4 2.992768 1_554
As1 Si5 2.992768 1_555
As1 Si5 2.992768 1_554
