# generated using pymatgen
data_Sm5Mg
_symmetry_space_group_name_H-M   'P 1'
_cell_length_a   18.66389671
_cell_length_b   18.66389671
_cell_length_c   11.51346600
_cell_angle_alpha   90.00000000
_cell_angle_beta   90.00000000
_cell_angle_gamma   157.47039944
_symmetry_Int_Tables_number   1
_chemical_formula_structural   Sm5Mg
_chemical_formula_sum   'Sm40 Mg8'
_cell_volume   1536.70910959
_cell_formula_units_Z   8
loop_
 _symmetry_equiv_pos_site_id
 _symmetry_equiv_pos_as_xyz
  1  'x, y, z'
loop_
 _atom_site_type_symbol
 _atom_site_label
 _atom_site_symmetry_multiplicity
 _atom_site_fract_x
 _atom_site_fract_y
 _atom_site_fract_z
 _atom_site_occupancy
  Sm  Sm0_0  1  0.49828200  0.00171800  0.00000000  1
  Sm  Sm0_1  1  0.49828200  0.00171800  0.50000000  1
  Sm  Sm0_2  1  0.49828200  0.50171800  0.00000000  1
  Sm  Sm0_3  1  0.49828200  0.50171800  0.50000000  1
  Sm  Sm0_4  1  0.99828200  0.00171800  0.00000000  1
  Sm  Sm0_5  1  0.99828200  0.00171800  0.50000000  1
  Sm  Sm0_6  1  0.99828200  0.50171800  0.00000000  1
  Sm  Sm0_7  1  0.99828200  0.50171800  0.50000000  1
  Sm  Sm1_0  1  0.16365300  0.33634700  0.00000000  1
  Sm  Sm1_1  1  0.16365300  0.33634700  0.50000000  1
  Sm  Sm1_2  1  0.16365300  0.83634700  0.00000000  1
  Sm  Sm1_3  1  0.16365300  0.83634700  0.50000000  1
  Sm  Sm1_4  1  0.66365300  0.33634700  0.00000000  1
  Sm  Sm1_5  1  0.66365300  0.33634700  0.50000000  1
  Sm  Sm1_6  1  0.66365300  0.83634700  0.00000000  1
  Sm  Sm1_7  1  0.66365300  0.83634700  0.50000000  1
  Sm  Sm2_0  1  0.33364950  0.16635050  0.00000000  1
  Sm  Sm2_1  1  0.33364950  0.16635050  0.50000000  1
  Sm  Sm2_2  1  0.33364950  0.66635050  0.00000000  1
  Sm  Sm2_3  1  0.33364950  0.66635050  0.50000000  1
  Sm  Sm2_4  1  0.83364950  0.16635050  0.00000000  1
  Sm  Sm2_5  1  0.83364950  0.16635050  0.50000000  1
  Sm  Sm2_6  1  0.83364950  0.66635050  0.00000000  1
  Sm  Sm2_7  1  0.83364950  0.66635050  0.50000000  1
  Sm  Sm3_0  1  0.22250700  0.27749300  0.25000000  1
  Sm  Sm3_1  1  0.22250700  0.27749300  0.75000000  1
  Sm  Sm3_2  1  0.22250700  0.77749300  0.25000000  1
  Sm  Sm3_3  1  0.22250700  0.77749300  0.75000000  1
  Sm  Sm3_4  1  0.72250700  0.27749300  0.25000000  1
  Sm  Sm3_5  1  0.72250700  0.27749300  0.75000000  1
  Sm  Sm3_6  1  0.72250700  0.77749300  0.25000000  1
  Sm  Sm3_7  1  0.72250700  0.77749300  0.75000000  1
  Sm  Sm4_0  1  0.05900550  0.44099450  0.25000000  1
  Sm  Sm4_1  1  0.05900550  0.44099450  0.75000000  1
  Sm  Sm4_2  1  0.05900550  0.94099450  0.25000000  1
  Sm  Sm4_3  1  0.05900550  0.94099450  0.75000000  1
  Sm  Sm4_4  1  0.55900550  0.44099450  0.25000000  1
  Sm  Sm4_5  1  0.55900550  0.44099450  0.75000000  1
  Sm  Sm4_6  1  0.55900550  0.94099450  0.25000000  1
  Sm  Sm4_7  1  0.55900550  0.94099450  0.75000000  1
  Mg  Mg0_0  1  0.38956750  0.11043250  0.25000000  1
  Mg  Mg0_1  1  0.38956750  0.11043250  0.75000000  1
  Mg  Mg0_2  1  0.38956750  0.61043250  0.25000000  1
  Mg  Mg0_3  1  0.38956750  0.61043250  0.75000000  1
  Mg  Mg0_4  1  0.88956750  0.11043250  0.25000000  1
  Mg  Mg0_5  1  0.88956750  0.11043250  0.75000000  1
  Mg  Mg0_6  1  0.88956750  0.61043250  0.25000000  1
  Mg  Mg0_7  1  0.88956750  0.61043250  0.75000000  1
loop_
_geom_bond_atom_site_label_1
_geom_bond_atom_site_label_2
_geom_bond_distance
_geom_bond_site_symmetry_2
Sm0_0 Sm3_4 3.535315 1_555
Sm0_0 Sm3_5 3.535315 1_554
Sm0_0 Sm3_2 3.535315 1_545
Sm0_0 Sm3_3 3.535315 1_544
Sm0_0 Sm1_2 3.594672 1_545
Sm0_0 Sm1_4 3.594672 1_555
Sm0_0 Sm2_4 3.617999 1_555
Sm0_0 Sm2_2 3.617999 1_545
Sm0_0 Sm4_6 3.636860 1_545
Sm0_0 Sm4_7 3.636860 1_544
Sm0_0 Sm0_6 3.645874 1_445
Sm0_0 Sm0_6 3.645874 1_555
Sm0_1 Sm3_4 3.535315 1_555
Sm0_1 Sm3_5 3.535315 1_555
Sm0_1 Sm3_2 3.535315 1_545
Sm0_1 Sm3_3 3.535315 1_545
Sm0_1 Sm1_3 3.594672 1_545
Sm0_1 Sm1_5 3.594672 1_555
Sm0_1 Sm2_5 3.617999 1_555
Sm0_1 Sm2_3 3.617999 1_545
Sm0_1 Sm4_7 3.636860 1_545
Sm0_1 Sm4_6 3.636860 1_545
Sm0_1 Sm0_7 3.645874 1_445
Sm0_1 Sm0_7 3.645874 1_555
Sm0_2 Sm3_6 3.535315 1_555
Sm0_2 Sm3_7 3.535315 1_554
Sm0_2 Sm3_0 3.535315 1_555
Sm0_2 Sm3_1 3.535315 1_554
Sm0_2 Sm1_0 3.594672 1_555
Sm0_2 Sm1_6 3.594672 1_555
Sm0_2 Sm2_6 3.617999 1_555
Sm0_2 Sm2_0 3.617999 1_555
Sm0_2 Sm4_5 3.636860 1_554
Sm0_2 Sm4_4 3.636860 1_555
Sm0_2 Sm0_4 3.645874 1_455
Sm0_2 Sm0_4 3.645874 1_565
Sm0_3 Sm3_6 3.535315 1_555
Sm0_3 Sm3_7 3.535315 1_555
Sm0_3 Sm3_0 3.535315 1_555
Sm0_3 Sm3_1 3.535315 1_555
Sm0_3 Sm1_1 3.594672 1_555
Sm0_3 Sm1_7 3.594672 1_555
Sm0_3 Sm2_7 3.617999 1_555
Sm0_3 Sm2_1 3.617999 1_555
Sm0_3 Sm4_4 3.636860 1_555
Sm0_3 Sm4_5 3.636860 1_555
Sm0_3 Sm0_5 3.645874 1_455
Sm0_3 Sm0_5 3.645874 1_565
Sm0_4 Sm3_0 3.535315 1_655
Sm0_4 Sm3_1 3.535315 1_654
Sm0_4 Sm3_6 3.535315 1_545
Sm0_4 Sm3_7 3.535315 1_544
Sm0_4 Sm1_0 3.594672 1_655
Sm0_4 Sm1_6 3.594672 1_545
Sm0_4 Sm2_0 3.617999 1_655
Sm0_4 Sm2_6 3.617999 1_545
Sm0_4 Sm4_2 3.636860 1_645
Sm0_4 Sm4_3 3.636860 1_644
Sm0_5 Sm3_1 3.535315 1_655
Sm0_5 Sm3_0 3.535315 1_655
Sm0_5 Sm3_6 3.535315 1_545
Sm0_5 Sm3_7 3.535315 1_545
Sm0_5 Sm1_1 3.594672 1_655
Sm0_5 Sm1_7 3.594672 1_545
Sm0_5 Sm2_1 3.617999 1_655
Sm0_5 Sm2_7 3.617999 1_545
Sm0_5 Sm4_2 3.636860 1_645
Sm0_5 Sm4_3 3.636860 1_645
Sm0_6 Sm3_3 3.535315 1_654
Sm0_6 Sm3_2 3.535315 1_655
Sm0_6 Sm3_4 3.535315 1_555
Sm0_6 Sm3_5 3.535315 1_554
Sm0_6 Sm1_2 3.594672 1_655
Sm0_6 Sm1_4 3.594672 1_555
Sm0_6 Sm2_2 3.617999 1_655
Sm0_6 Sm2_4 3.617999 1_555
Sm0_6 Sm4_0 3.636860 1_655
Sm0_6 Sm4_1 3.636860 1_654
Sm0_7 Sm3_3 3.535315 1_655
Sm0_7 Sm3_2 3.535315 1_655
Sm0_7 Sm3_5 3.535315 1_555
Sm0_7 Sm3_4 3.535315 1_555
Sm0_7 Sm1_3 3.594672 1_655
Sm0_7 Sm1_5 3.594672 1_555
Sm0_7 Sm2_3 3.617999 1_655
Sm0_7 Sm2_5 3.617999 1_555
Sm0_7 Sm4_0 3.636860 1_655
Sm0_7 Sm4_1 3.636860 1_655
Sm1_0 Sm2_2 3.449796 1_555
Sm1_0 Sm2_4 3.449796 1_455
Sm1_0 Sm3_1 3.595435 1_554
Sm1_0 Sm3_0 3.595435 1_555
Sm1_0 Sm1_6 3.645874 1_445
Sm1_0 Sm1_6 3.645874 1_555
Sm1_1 Sm2_3 3.449796 1_555
Sm1_1 Sm2_5 3.449796 1_455
Sm1_1 Sm3_0 3.595435 1_555
Sm1_1 Sm3_1 3.595435 1_555
Sm1_1 Sm1_7 3.645874 1_445
Sm1_1 Sm1_7 3.645874 1_555
Sm1_2 Sm2_0 3.449796 1_565
Sm1_2 Sm2_6 3.449796 1_455
Sm1_2 Sm3_2 3.595435 1_555
Sm1_2 Sm3_3 3.595435 1_554
Sm1_2 Sm1_4 3.645874 1_565
Sm1_2 Sm1_4 3.645874 1_455
Sm1_3 Sm2_1 3.449796 1_565
Sm1_3 Sm2_7 3.449796 1_455
Sm1_3 Sm3_2 3.595435 1_555
Sm1_3 Sm3_3 3.595435 1_555
Sm1_3 Sm1_5 3.645874 1_455
Sm1_3 Sm1_5 3.645874 1_565
Sm1_4 Sm2_6 3.449796 1_555
Sm1_4 Sm2_0 3.449796 1_555
Sm1_4 Sm3_5 3.595435 1_554
Sm1_4 Sm3_4 3.595435 1_555
Sm1_5 Sm2_7 3.449796 1_555
Sm1_5 Sm2_1 3.449796 1_555
Sm1_5 Sm3_5 3.595435 1_555
Sm1_5 Sm3_4 3.595435 1_555
Sm1_6 Sm2_4 3.449796 1_565
Sm1_6 Sm2_2 3.449796 1_555
Sm1_6 Sm3_7 3.595435 1_554
Sm1_6 Sm3_6 3.595435 1_555
Sm1_7 Sm2_5 3.449796 1_565
Sm1_7 Sm2_3 3.449796 1_555
Sm1_7 Sm3_6 3.595435 1_555
Sm1_7 Sm3_7 3.595435 1_555
Sm2_0 Sm4_4 3.524490 1_555
Sm2_0 Sm4_5 3.524490 1_554
Sm2_0 Sm4_3 3.524490 1_544
Sm2_0 Sm4_2 3.524490 1_545
Sm2_0 Sm2_6 3.645874 1_445
Sm2_0 Sm2_6 3.645874 1_555
Sm2_1 Sm4_4 3.524490 1_555
Sm2_1 Sm4_5 3.524490 1_555
Sm2_1 Sm4_3 3.524490 1_545
Sm2_1 Sm4_2 3.524490 1_545
Sm2_1 Sm2_7 3.645874 1_445
Sm2_1 Sm2_7 3.645874 1_555
Sm2_2 Sm4_6 3.524490 1_555
Sm2_2 Sm4_7 3.524490 1_554
Sm2_2 Sm4_0 3.524490 1_555
Sm2_2 Sm4_1 3.524490 1_554
Sm2_2 Sm2_4 3.645874 1_455
Sm2_2 Sm2_4 3.645874 1_565
Sm2_3 Sm4_6 3.524490 1_555
Sm2_3 Sm4_7 3.524490 1_555
Sm2_3 Sm4_1 3.524490 1_555
Sm2_3 Sm4_0 3.524490 1_555
Sm2_3 Sm2_5 3.645874 1_455
Sm2_3 Sm2_5 3.645874 1_565
Sm2_4 Sm4_1 3.524490 1_654
Sm2_4 Sm4_0 3.524490 1_655
Sm2_4 Sm4_6 3.524490 1_545
Sm2_4 Sm4_7 3.524490 1_544
Sm2_5 Sm4_0 3.524490 1_655
Sm2_5 Sm4_1 3.524490 1_655
Sm2_5 Sm4_6 3.524490 1_545
Sm2_5 Sm4_7 3.524490 1_545
Sm2_6 Sm4_3 3.524490 1_654
Sm2_6 Sm4_2 3.524490 1_655
Sm2_6 Sm4_4 3.524490 1_555
Sm2_6 Sm4_5 3.524490 1_554
Sm2_7 Sm4_3 3.524490 1_655
Sm2_7 Sm4_2 3.524490 1_655
Sm2_7 Sm4_4 3.524490 1_555
Sm2_7 Sm4_5 3.524490 1_555
Sm3_0 Sm3_6 3.645874 1_445
Sm3_0 Sm3_6 3.645874 1_555
Sm3_0 Sm4_4 3.653823 1_555
Sm3_0 Sm4_2 3.653823 1_545
Sm3_1 Sm3_7 3.645874 1_445
Sm3_1 Sm3_7 3.645874 1_555
Sm3_1 Sm4_5 3.653823 1_555
Sm3_1 Sm4_3 3.653823 1_545
Sm3_2 Sm3_4 3.645874 1_565
Sm3_2 Sm3_4 3.645874 1_455
Sm3_2 Sm4_6 3.653823 1_555
Sm3_2 Sm4_0 3.653823 1_555
Sm3_3 Sm3_5 3.645874 1_565
Sm3_3 Sm3_5 3.645874 1_455
Sm3_3 Sm4_7 3.653823 1_555
Sm3_3 Sm4_1 3.653823 1_555
Sm3_4 Sm4_0 3.653823 1_655
Sm3_4 Sm4_6 3.653823 1_545
Sm3_5 Sm4_1 3.653823 1_655
Sm3_5 Sm4_7 3.653823 1_545
Sm3_6 Sm4_2 3.653823 1_655
Sm3_6 Sm4_4 3.653823 1_555
Sm3_7 Sm4_3 3.653823 1_655
Sm3_7 Sm4_5 3.653823 1_555
Sm4_0 Sm4_6 3.645874 1_445
Sm4_0 Sm4_6 3.645874 1_555
Sm4_1 Sm4_7 3.645874 1_445
Sm4_1 Sm4_7 3.645874 1_555
Sm4_2 Sm4_4 3.645874 1_455
Sm4_2 Sm4_4 3.645874 1_565
Sm4_3 Sm4_5 3.645874 1_455
Sm4_3 Sm4_5 3.645874 1_565
Mg0_0 Sm4_4 3.467171 1_555
Mg0_0 Sm4_2 3.467171 1_545
Mg0_0 Sm1_3 3.519312 1_545
Mg0_0 Sm1_2 3.519312 1_545
Mg0_0 Sm1_4 3.519312 1_555
Mg0_0 Sm1_5 3.519312 1_555
Mg0_0 Sm2_0 3.532074 1_555
Mg0_0 Sm2_1 3.532074 1_555
Mg0_0 Sm3_2 3.541503 1_545
Mg0_0 Sm3_4 3.541503 1_555
Mg0_1 Sm4_5 3.467171 1_555
Mg0_1 Sm4_3 3.467171 1_545
Mg0_1 Sm1_3 3.519312 1_545
Mg0_1 Sm1_2 3.519312 1_546
Mg0_1 Sm1_4 3.519312 1_556
Mg0_1 Sm1_5 3.519312 1_555
Mg0_1 Sm2_0 3.532074 1_556
Mg0_1 Sm2_1 3.532074 1_555
Mg0_1 Sm3_3 3.541503 1_545
Mg0_1 Sm3_5 3.541503 1_555
Mg0_2 Sm4_6 3.467171 1_555
Mg0_2 Sm4_0 3.467171 1_555
Mg0_2 Sm1_0 3.519312 1_555
Mg0_2 Sm1_1 3.519312 1_555
Mg0_2 Sm1_6 3.519312 1_555
Mg0_2 Sm1_7 3.519312 1_555
Mg0_2 Sm2_3 3.532074 1_555
Mg0_2 Sm2_2 3.532074 1_555
Mg0_2 Sm3_0 3.541503 1_555
Mg0_2 Sm3_6 3.541503 1_555
Mg0_3 Sm4_7 3.467171 1_555
Mg0_3 Sm4_1 3.467171 1_555
Mg0_3 Sm1_0 3.519312 1_556
Mg0_3 Sm1_1 3.519312 1_555
Mg0_3 Sm1_6 3.519312 1_556
Mg0_3 Sm1_7 3.519312 1_555
Mg0_3 Sm2_3 3.532074 1_555
Mg0_3 Sm2_2 3.532074 1_556
Mg0_3 Sm3_1 3.541503 1_555
Mg0_3 Sm3_7 3.541503 1_555
Mg0_4 Sm4_6 3.467171 1_545
Mg0_4 Sm4_0 3.467171 1_655
Mg0_4 Sm1_6 3.519312 1_545
Mg0_4 Sm1_7 3.519312 1_545
Mg0_4 Sm1_0 3.519312 1_655
Mg0_4 Sm1_1 3.519312 1_655
Mg0_4 Sm2_4 3.532074 1_555
Mg0_4 Sm2_5 3.532074 1_555
Mg0_4 Sm3_6 3.541503 1_545
Mg0_4 Sm3_0 3.541503 1_655
Mg0_5 Sm4_7 3.467171 1_545
Mg0_5 Sm4_1 3.467171 1_655
Mg0_5 Sm1_6 3.519312 1_546
Mg0_5 Sm1_7 3.519312 1_545
Mg0_5 Sm1_0 3.519312 1_656
Mg0_5 Sm1_1 3.519312 1_655
Mg0_5 Sm2_4 3.532074 1_556
Mg0_5 Sm2_5 3.532074 1_555
Mg0_5 Sm3_7 3.541503 1_545
Mg0_5 Sm3_1 3.541503 1_655
Mg0_6 Sm4_4 3.467171 1_555
Mg0_6 Sm4_2 3.467171 1_655
Mg0_6 Sm1_5 3.519312 1_555
Mg0_6 Sm1_4 3.519312 1_555
Mg0_6 Sm1_3 3.519312 1_655
Mg0_6 Sm1_2 3.519312 1_655
Mg0_6 Sm2_6 3.532074 1_555
Mg0_6 Sm2_7 3.532074 1_555
Mg0_6 Sm3_4 3.541503 1_555
Mg0_6 Sm3_2 3.541503 1_655
Mg0_7 Sm4_5 3.467171 1_555
Mg0_7 Sm4_3 3.467171 1_655
Mg0_7 Sm1_5 3.519312 1_555
Mg0_7 Sm1_4 3.519312 1_556
Mg0_7 Sm1_3 3.519312 1_655
Mg0_7 Sm1_2 3.519312 1_656
Mg0_7 Sm2_6 3.532074 1_556
Mg0_7 Sm2_7 3.532074 1_555
Mg0_7 Sm3_5 3.541503 1_555
Mg0_7 Sm3_3 3.541503 1_655
