# generated using pymatgen
data_NaGeAu
_symmetry_space_group_name_H-M   'P 1'
_cell_length_a   4.41501127
_cell_length_b   5.67374684
_cell_length_c   5.67374699
_cell_angle_alpha   79.01679995
_cell_angle_beta   67.10313577
_cell_angle_gamma   67.10312057
_symmetry_Int_Tables_number   1
_chemical_formula_structural   NaGeAu
_chemical_formula_sum   'Na2 Ge2 Au2'
_cell_volume   120.48233717
_cell_formula_units_Z   2
loop_
 _symmetry_equiv_pos_site_id
 _symmetry_equiv_pos_as_xyz
  1  'x, y, z'
loop_
 _atom_site_type_symbol
 _atom_site_label
 _atom_site_symmetry_multiplicity
 _atom_site_fract_x
 _atom_site_fract_y
 _atom_site_fract_z
 _atom_site_occupancy
  Na  Na0  1  0.28369016  0.21630984  0.21630984  1
  Na  Na1  1  0.40603195  0.59396805  0.59396805  1
  Ge  Ge0  1  0.67700157  0.99939951  0.64659635  1
  Ge  Ge1  1  0.67700157  0.64659635  0.99939951  1
  Au  Au0  1  0.99920688  0.20645171  0.79513353  1
  Au  Au1  1  0.99920688  0.79513353  0.20645171  1
loop_
_geom_bond_atom_site_label_1
_geom_bond_atom_site_label_2
_geom_bond_distance
_geom_bond_site_symmetry_2
Ge0 Ge1 2.546949 1_555
Ge0 Na1 3.081063 1_555
Ge0 Na1 3.081066 1_655
Ge0 Na1 3.107113 1_565
Ge0 Na0 3.234743 1_566
Ge0 Na0 3.313771 1_565
Ge0 Na0 3.313775 1_665
Ge1 Na1 3.081063 1_555
Ge1 Na1 3.081066 1_655
Ge1 Na1 3.107114 1_556
Ge1 Na0 3.234743 1_566
Ge1 Na0 3.313771 1_556
Ge1 Na0 3.313774 1_656
Au0 Ge1 2.580451 1_555
Au0 Ge0 2.593159 1_545
Au0 Ge0 2.593159 1_645
Au0 Au1 2.969379 1_546
Au0 Na0 3.023396 1_655
Au0 Na0 3.119643 1_556
Au0 Na0 3.119646 1_656
Au0 Na1 3.143960 1_555
Au0 Na1 3.143963 1_655
Au0 Na1 3.415275 1_645
Au1 Ge0 2.580451 1_555
Au1 Ge1 2.593159 1_554
Au1 Ge1 2.593159 1_654
Au1 Na0 3.023395 1_655
Au1 Na0 3.119643 1_565
Au1 Na0 3.119646 1_665
Au1 Na1 3.143960 1_555
Au1 Na1 3.143963 1_655
Au1 Na1 3.415275 1_654
