# generated using pymatgen
data_Li
_symmetry_space_group_name_H-M   'P 1'
_cell_length_a   6.06877106
_cell_length_b   6.06877164
_cell_length_c   20.43241534
_cell_angle_alpha   90.00000000
_cell_angle_beta   90.00000000
_cell_angle_gamma   120.00000782
_symmetry_Int_Tables_number   1
_chemical_formula_structural   Li
_chemical_formula_sum   Li32
_cell_volume   651.70620524
_cell_formula_units_Z   32
loop_
 _symmetry_equiv_pos_site_id
 _symmetry_equiv_pos_as_xyz
  1  'x, y, z'
loop_
 _atom_site_type_symbol
 _atom_site_label
 _atom_site_symmetry_multiplicity
 _atom_site_fract_x
 _atom_site_fract_y
 _atom_site_fract_z
 _atom_site_occupancy
  Li  Li0_0  1  0.00000000  0.00000000  0.00000050  1
  Li  Li0_1  1  0.00000000  0.00000000  0.50000050  1
  Li  Li0_2  1  0.00000000  0.50000000  0.00000050  1
  Li  Li0_3  1  0.00000000  0.50000000  0.50000050  1
  Li  Li0_4  1  0.50000000  0.00000000  0.00000050  1
  Li  Li0_5  1  0.50000000  0.00000000  0.50000050  1
  Li  Li0_6  1  0.50000000  0.50000000  0.00000050  1
  Li  Li0_7  1  0.50000000  0.50000000  0.50000050  1
  Li  Li1_0  1  0.16666650  0.33333250  0.12500000  1
  Li  Li1_1  1  0.16666650  0.33333250  0.62500000  1
  Li  Li1_2  1  0.16666650  0.83333250  0.12500000  1
  Li  Li1_3  1  0.16666650  0.83333250  0.62500000  1
  Li  Li1_4  1  0.66666650  0.33333250  0.12500000  1
  Li  Li1_5  1  0.66666650  0.33333250  0.62500000  1
  Li  Li1_6  1  0.66666650  0.83333250  0.12500000  1
  Li  Li1_7  1  0.66666650  0.83333250  0.62500000  1
  Li  Li2_0  1  0.00000000  0.00000000  0.24999950  1
  Li  Li2_1  1  0.00000000  0.00000000  0.74999950  1
  Li  Li2_2  1  0.00000000  0.50000000  0.24999950  1
  Li  Li2_3  1  0.00000000  0.50000000  0.74999950  1
  Li  Li2_4  1  0.50000000  0.00000000  0.24999950  1
  Li  Li2_5  1  0.50000000  0.00000000  0.74999950  1
  Li  Li2_6  1  0.50000000  0.50000000  0.24999950  1
  Li  Li2_7  1  0.50000000  0.50000000  0.74999950  1
  Li  Li3_0  1  0.33333400  0.16666650  0.37500000  1
  Li  Li3_1  1  0.33333400  0.16666650  0.87500000  1
  Li  Li3_2  1  0.33333400  0.66666650  0.37500000  1
  Li  Li3_3  1  0.33333400  0.66666650  0.87500000  1
  Li  Li3_4  1  0.83333400  0.16666650  0.37500000  1
  Li  Li3_5  1  0.83333400  0.16666650  0.87500000  1
  Li  Li3_6  1  0.83333400  0.66666650  0.37500000  1
  Li  Li3_7  1  0.83333400  0.66666650  0.87500000  1
loop_
_geom_bond_atom_site_label_1
_geom_bond_atom_site_label_2
_geom_bond_distance
_geom_bond_site_symmetry_2
Li0_0 Li0_6 3.034385 1_555
Li0_0 Li0_6 3.034385 1_445
Li0_0 Li0_4 3.034386 1_455
Li0_0 Li0_4 3.034386 1_555
Li0_0 Li0_2 3.034386 1_555
Li0_0 Li0_2 3.034386 1_545
Li0_0 Li1_0 3.097140 1_555
Li0_0 Li1_6 3.097143 1_445
Li0_0 Li1_2 3.097145 1_545
Li0_0 Li3_5 3.097157 1_454
Li0_0 Li3_7 3.097160 1_444
Li0_0 Li3_1 3.097162 1_554
Li0_1 Li0_7 3.034385 1_555
Li0_1 Li0_7 3.034385 1_445
Li0_1 Li0_5 3.034386 1_455
Li0_1 Li0_5 3.034386 1_555
Li0_1 Li0_3 3.034386 1_545
Li0_1 Li0_3 3.034386 1_555
Li0_1 Li1_1 3.097140 1_555
Li0_1 Li1_7 3.097143 1_445
Li0_1 Li1_3 3.097145 1_545
Li0_1 Li3_4 3.097157 1_455
Li0_1 Li3_6 3.097160 1_445
Li0_1 Li3_0 3.097162 1_555
Li0_2 Li0_4 3.034385 1_455
Li0_2 Li0_4 3.034385 1_565
Li0_2 Li0_6 3.034386 1_555
Li0_2 Li0_6 3.034386 1_455
Li0_2 Li1_2 3.097140 1_555
Li0_2 Li1_4 3.097143 1_455
Li0_2 Li1_0 3.097145 1_555
Li0_2 Li3_7 3.097157 1_454
Li0_2 Li3_5 3.097160 1_454
Li0_2 Li3_3 3.097162 1_554
Li0_3 Li0_5 3.034385 1_455
Li0_3 Li0_5 3.034385 1_565
Li0_3 Li0_7 3.034386 1_455
Li0_3 Li0_7 3.034386 1_555
Li0_3 Li1_3 3.097140 1_555
Li0_3 Li1_5 3.097143 1_455
Li0_3 Li1_1 3.097145 1_555
Li0_3 Li3_6 3.097157 1_455
Li0_3 Li3_4 3.097160 1_455
Li0_3 Li3_2 3.097162 1_555
Li0_4 Li0_6 3.034386 1_545
Li0_4 Li0_6 3.034386 1_555
Li0_4 Li1_4 3.097140 1_555
Li0_4 Li1_2 3.097143 1_545
Li0_4 Li1_6 3.097145 1_545
Li0_4 Li3_1 3.097157 1_554
Li0_4 Li3_3 3.097160 1_544
Li0_4 Li3_5 3.097162 1_554
Li0_5 Li0_7 3.034386 1_555
Li0_5 Li0_7 3.034386 1_545
Li0_5 Li1_5 3.097140 1_555
Li0_5 Li1_3 3.097143 1_545
Li0_5 Li1_7 3.097145 1_545
Li0_5 Li3_0 3.097157 1_555
Li0_5 Li3_2 3.097160 1_545
Li0_5 Li3_4 3.097162 1_555
Li0_6 Li1_6 3.097140 1_555
Li0_6 Li1_0 3.097143 1_555
Li0_6 Li1_4 3.097145 1_555
Li0_6 Li3_3 3.097157 1_554
Li0_6 Li3_1 3.097160 1_554
Li0_6 Li3_7 3.097162 1_554
Li0_7 Li1_7 3.097140 1_555
Li0_7 Li1_1 3.097143 1_555
Li0_7 Li1_5 3.097145 1_555
Li0_7 Li3_2 3.097157 1_555
Li0_7 Li3_0 3.097160 1_555
Li0_7 Li3_6 3.097162 1_555
Li1_0 Li1_6 3.034385 1_555
Li1_0 Li1_6 3.034385 1_445
Li1_0 Li1_4 3.034386 1_455
Li1_0 Li1_4 3.034386 1_555
Li1_0 Li1_2 3.034386 1_555
Li1_0 Li1_2 3.034386 1_545
Li1_0 Li2_0 3.097140 1_555
Li1_0 Li2_6 3.097143 1_555
Li1_0 Li2_2 3.097145 1_555
Li1_1 Li1_7 3.034385 1_555
Li1_1 Li1_7 3.034385 1_445
Li1_1 Li1_5 3.034386 1_455
Li1_1 Li1_5 3.034386 1_555
Li1_1 Li1_3 3.034386 1_555
Li1_1 Li1_3 3.034386 1_545
Li1_1 Li2_1 3.097140 1_555
Li1_1 Li2_7 3.097143 1_555
Li1_1 Li2_3 3.097145 1_555
Li1_2 Li1_4 3.034385 1_455
Li1_2 Li1_4 3.034385 1_565
Li1_2 Li1_6 3.034386 1_455
Li1_2 Li1_6 3.034386 1_555
Li1_2 Li2_2 3.097140 1_555
Li1_2 Li2_4 3.097143 1_565
Li1_2 Li2_0 3.097145 1_565
Li1_3 Li1_5 3.034385 1_455
Li1_3 Li1_5 3.034385 1_565
Li1_3 Li1_7 3.034386 1_455
Li1_3 Li1_7 3.034386 1_555
Li1_3 Li2_3 3.097140 1_555
Li1_3 Li2_5 3.097143 1_565
Li1_3 Li2_1 3.097145 1_565
Li1_4 Li1_6 3.034386 1_545
Li1_4 Li1_6 3.034386 1_555
Li1_4 Li2_4 3.097140 1_555
Li1_4 Li2_2 3.097143 1_655
Li1_4 Li2_6 3.097145 1_555
Li1_5 Li1_7 3.034386 1_545
Li1_5 Li1_7 3.034386 1_555
Li1_5 Li2_5 3.097140 1_555
Li1_5 Li2_3 3.097143 1_655
Li1_5 Li2_7 3.097145 1_555
Li1_6 Li2_6 3.097140 1_555
Li1_6 Li2_0 3.097143 1_665
Li1_6 Li2_4 3.097145 1_565
Li1_7 Li2_7 3.097140 1_555
Li1_7 Li2_1 3.097143 1_665
Li1_7 Li2_5 3.097145 1_565
Li2_0 Li2_6 3.034385 1_555
Li2_0 Li2_6 3.034385 1_445
Li2_0 Li2_4 3.034386 1_555
Li2_0 Li2_4 3.034386 1_455
Li2_0 Li2_2 3.034386 1_545
Li2_0 Li2_2 3.034386 1_555
Li2_0 Li3_4 3.097157 1_455
Li2_0 Li3_6 3.097160 1_445
Li2_0 Li3_0 3.097162 1_555
Li2_1 Li2_7 3.034385 1_555
Li2_1 Li2_7 3.034385 1_445
Li2_1 Li2_5 3.034386 1_455
Li2_1 Li2_5 3.034386 1_555
Li2_1 Li2_3 3.034386 1_545
Li2_1 Li2_3 3.034386 1_555
Li2_1 Li3_5 3.097157 1_455
Li2_1 Li3_7 3.097160 1_445
Li2_1 Li3_1 3.097162 1_555
Li2_2 Li2_4 3.034385 1_455
Li2_2 Li2_4 3.034385 1_565
Li2_2 Li2_6 3.034386 1_555
Li2_2 Li2_6 3.034386 1_455
Li2_2 Li3_6 3.097157 1_455
Li2_2 Li3_4 3.097160 1_455
Li2_2 Li3_2 3.097162 1_555
Li2_3 Li2_5 3.034385 1_455
Li2_3 Li2_5 3.034385 1_565
Li2_3 Li2_7 3.034386 1_455
Li2_3 Li2_7 3.034386 1_555
Li2_3 Li3_7 3.097157 1_455
Li2_3 Li3_5 3.097160 1_455
Li2_3 Li3_3 3.097162 1_555
Li2_4 Li2_6 3.034386 1_545
Li2_4 Li2_6 3.034386 1_555
Li2_4 Li3_0 3.097157 1_555
Li2_4 Li3_2 3.097160 1_545
Li2_4 Li3_4 3.097162 1_555
Li2_5 Li2_7 3.034386 1_555
Li2_5 Li2_7 3.034386 1_545
Li2_5 Li3_1 3.097157 1_555
Li2_5 Li3_3 3.097160 1_545
Li2_5 Li3_5 3.097162 1_555
Li2_6 Li3_2 3.097157 1_555
Li2_6 Li3_0 3.097160 1_555
Li2_6 Li3_6 3.097162 1_555
Li2_7 Li3_3 3.097157 1_555
Li2_7 Li3_1 3.097160 1_555
Li2_7 Li3_7 3.097162 1_555
Li3_0 Li3_6 3.034385 1_555
Li3_0 Li3_6 3.034385 1_445
Li3_0 Li3_4 3.034386 1_455
Li3_0 Li3_4 3.034386 1_555
Li3_0 Li3_2 3.034386 1_545
Li3_0 Li3_2 3.034386 1_555
Li3_1 Li3_7 3.034385 1_555
Li3_1 Li3_7 3.034385 1_445
Li3_1 Li3_5 3.034386 1_455
Li3_1 Li3_5 3.034386 1_555
Li3_1 Li3_3 3.034386 1_545
Li3_1 Li3_3 3.034386 1_555
Li3_2 Li3_4 3.034385 1_455
Li3_2 Li3_4 3.034385 1_565
Li3_2 Li3_6 3.034386 1_555
Li3_2 Li3_6 3.034386 1_455
Li3_3 Li3_5 3.034385 1_455
Li3_3 Li3_5 3.034385 1_565
Li3_3 Li3_7 3.034386 1_555
Li3_3 Li3_7 3.034386 1_455
Li3_4 Li3_6 3.034386 1_545
Li3_4 Li3_6 3.034386 1_555
Li3_5 Li3_7 3.034386 1_545
Li3_5 Li3_7 3.034386 1_555
