# generated using pymatgen
data_PtRh3
_symmetry_space_group_name_H-M   'P 1'
_cell_length_a   3.84090440
_cell_length_b   3.84060784
_cell_length_c   3.83993189
_cell_angle_alpha   90.00068615
_cell_angle_beta   89.99164361
_cell_angle_gamma   90.00783472
_symmetry_Int_Tables_number   1
_chemical_formula_structural   PtRh3
_chemical_formula_sum   'Pt1 Rh3'
_cell_volume   56.64439912
_cell_formula_units_Z   1
loop_
 _symmetry_equiv_pos_site_id
 _symmetry_equiv_pos_as_xyz
  1  'x, y, z'
loop_
 _atom_site_type_symbol
 _atom_site_label
 _atom_site_symmetry_multiplicity
 _atom_site_fract_x
 _atom_site_fract_y
 _atom_site_fract_z
 _atom_site_occupancy
  Pt  Pt0  1  0.00000100  -0.00000000  0.99999900  1
  Rh  Rh0  1  0.00000100  0.50000100  0.50000000  1
  Rh  Rh1  1  0.50000000  0.00000100  0.50000000  1
  Rh  Rh2  1  0.49999900  0.49999900  0.00000100  1
loop_
_geom_bond_atom_site_label_1
_geom_bond_atom_site_label_2
_geom_bond_distance
_geom_bond_site_symmetry_2
Pt0 Rh1 2.715382 1_555
Pt0 Rh1 2.715393 1_456
Pt0 Rh0 2.715459 1_545
Pt0 Rh0 2.715470 1_556
Pt0 Rh0 2.715497 1_546
Pt0 Rh0 2.715497 1_555
Pt0 Rh2 2.715631 1_556
Pt0 Rh2 2.715647 1_446
Pt0 Rh1 2.715784 1_556
Pt0 Rh1 2.715784 1_455
Pt0 Rh2 2.716008 1_546
Pt0 Rh2 2.716013 1_456
Rh0 Rh2 2.715380 1_555
Rh0 Rh2 2.715396 1_456
Rh0 Rh1 2.715636 1_565
Rh0 Rh1 2.715642 1_455
Rh0 Rh2 2.715781 1_556
Rh0 Rh2 2.715786 1_455
Rh0 Rh1 2.716008 1_555
Rh0 Rh1 2.716013 1_465
Rh1 Rh2 2.715462 1_556
Rh1 Rh2 2.715467 1_545
Rh1 Rh2 2.715489 1_555
Rh1 Rh2 2.715505 1_546
