# generated using pymatgen
data_TmB4Ru
_symmetry_space_group_name_H-M   'P 1'
_cell_length_a   3.52098473
_cell_length_b   5.90901615
_cell_length_c   11.42359992
_cell_angle_alpha   90.00000000
_cell_angle_beta   90.00000000
_cell_angle_gamma   90.00000000
_symmetry_Int_Tables_number   1
_chemical_formula_structural   TmB4Ru
_chemical_formula_sum   'Tm4 B16 Ru4'
_cell_volume   237.67434367
_cell_formula_units_Z   4
loop_
 _symmetry_equiv_pos_site_id
 _symmetry_equiv_pos_as_xyz
  1  'x, y, z'
loop_
 _atom_site_type_symbol
 _atom_site_label
 _atom_site_symmetry_multiplicity
 _atom_site_fract_x
 _atom_site_fract_y
 _atom_site_fract_z
 _atom_site_occupancy
  Tm  Tm0  1  0.50000000  0.12913625  0.14989434  1
  Tm  Tm1  1  0.50000000  0.87086375  0.85010566  1
  Tm  Tm2  1  0.50000000  0.62913625  0.35010566  1
  Tm  Tm3  1  0.50000000  0.37086375  0.64989434  1
  B  B0  1  -0.00000000  0.47643206  0.19227714  1
  B  B1  1  -0.00000000  0.52356794  0.80772286  1
  B  B2  1  -0.00000000  0.97643206  0.30772286  1
  B  B3  1  0.00000000  0.02356794  0.69227714  1
  B  B4  1  -0.00000000  0.29044998  0.31428322  1
  B  B5  1  0.00000000  0.70955002  0.68571678  1
  B  B6  1  -0.00000000  0.79044998  0.18571678  1
  B  B7  1  0.00000000  0.20955002  0.81428322  1
  B  B8  1  -0.00000000  0.36443753  0.47004382  1
  B  B9  1  0.00000000  0.63556247  0.52995618  1
  B  B10  1  -0.00000000  0.86443753  0.02995618  1
  B  B11  1  0.00000000  0.13556247  0.97004382  1
  B  B12  1  0.00000000  0.38739271  0.04717187  1
  B  B13  1  -0.00000000  0.61260729  0.95282813  1
  B  B14  1  0.00000000  0.88739271  0.45282813  1
  B  B15  1  -0.00000000  0.11260729  0.54717187  1
  Ru  Ru0  1  0.50000000  0.14092959  0.40703034  1
  Ru  Ru1  1  0.50000000  0.85907041  0.59296966  1
  Ru  Ru2  1  0.50000000  0.64092959  0.09296966  1
  Ru  Ru3  1  0.50000000  0.35907041  0.90703034  1
loop_
_geom_bond_atom_site_label_1
_geom_bond_atom_site_label_2
_geom_bond_distance
_geom_bond_site_symmetry_2
B0 B12 1.739120 1_555
B0 B4 1.774901 1_555
B0 B6 1.857050 1_555
B0 Ru2 2.308924 1_555
B0 Ru2 2.308924 1_455
B0 Tm2 2.676609 1_455
B0 Tm2 2.676609 1_555
B0 Tm0 2.746849 1_455
B0 Tm0 2.746849 1_555
B1 B13 1.739120 1_555
B1 B5 1.774901 1_555
B1 B7 1.857050 1_555
B1 Ru3 2.308924 1_455
B1 Ru3 2.308924 1_555
B1 Tm3 2.676609 1_455
B1 Tm3 2.676609 1_555
B1 Tm1 2.746849 1_455
B1 Tm1 2.746849 1_555
B2 B6 1.774901 1_555
B2 B4 1.857050 1_565
B2 Ru0 2.308924 1_565
B2 Ru0 2.308924 1_465
B2 Tm0 2.676609 1_465
B2 Tm0 2.676609 1_565
B2 Tm2 2.746849 1_455
B2 Tm2 2.746849 1_555
B3 B7 1.774901 1_555
B3 B5 1.857050 1_545
B3 Ru1 2.308924 1_445
B3 Ru1 2.308924 1_545
B3 Tm1 2.676609 1_445
B3 Tm1 2.676609 1_545
B3 Tm3 2.746849 1_555
B3 Tm3 2.746849 1_455
B4 B8 1.832270 1_555
B4 Ru0 2.236625 1_555
B4 Ru0 2.236625 1_455
B4 Tm2 2.696666 1_555
B4 Tm2 2.696666 1_455
B4 Tm0 2.744903 1_455
B4 Tm0 2.744903 1_555
B5 B9 1.832270 1_555
B5 Ru1 2.236625 1_455
B5 Ru1 2.236625 1_555
B5 Tm3 2.696666 1_455
B5 Tm3 2.696666 1_555
B5 Tm1 2.744903 1_555
B5 Tm1 2.744903 1_455
B6 Ru2 2.236625 1_555
B6 Ru2 2.236625 1_455
B6 Tm0 2.696666 1_565
B6 Tm0 2.696666 1_465
B6 Tm2 2.744903 1_455
B6 Tm2 2.744903 1_555
B7 Ru3 2.236625 1_455
B7 Ru3 2.236625 1_555
B7 Tm1 2.696666 1_445
B7 Tm1 2.696666 1_545
B7 Tm3 2.744903 1_455
B7 Tm3 2.744903 1_555
B8 B9 1.742151 1_555
B8 Ru0 2.315553 1_555
B8 Ru0 2.315553 1_455
B8 Tm3 2.705903 1_555
B8 Tm3 2.705903 1_455
B8 Tm2 2.724521 1_455
B8 Tm2 2.724521 1_555
B9 Ru1 2.315553 1_455
B9 Ru1 2.315553 1_555
B9 Tm2 2.705903 1_555
B9 Tm2 2.705903 1_455
B9 Tm3 2.724521 1_455
B9 Tm3 2.724521 1_555
B10 B13 1.729350 1_554
B10 B11 1.742151 1_564
B10 B6 1.832270 1_555
B10 Ru2 2.315553 1_555
B10 Ru2 2.315553 1_455
B10 Tm1 2.705903 1_554
B10 Tm1 2.705903 1_454
B10 Tm0 2.724521 1_465
B10 Tm0 2.724521 1_565
B11 B12 1.729350 1_556
B11 B7 1.832270 1_555
B11 Ru3 2.315553 1_455
B11 Ru3 2.315553 1_555
B11 Tm0 2.705903 1_556
B11 Tm0 2.705903 1_456
B11 Tm1 2.724521 1_445
B11 Tm1 2.724521 1_545
B12 B13 1.712470 1_554
B12 Ru2 2.370129 1_455
B12 Ru2 2.370129 1_555
B12 Ru3 2.385433 1_554
B12 Ru3 2.385433 1_454
B12 Tm0 2.608667 1_555
B12 Tm0 2.608667 1_455
B13 Ru3 2.370129 1_455
B13 Ru3 2.370129 1_555
B13 Ru2 2.385433 1_456
B13 Ru2 2.385433 1_556
B13 Tm1 2.608667 1_555
B13 Tm1 2.608667 1_455
B14 B15 1.712470 1_565
B14 B9 1.729350 1_555
B14 B2 1.739120 1_555
B14 Ru0 2.370129 1_465
B14 Ru0 2.370129 1_565
B14 Ru1 2.385433 1_555
B14 Ru1 2.385433 1_455
B14 Tm2 2.608667 1_455
B14 Tm2 2.608667 1_555
B15 B8 1.729350 1_555
B15 B3 1.739120 1_555
B15 Ru1 2.370129 1_445
B15 Ru1 2.370129 1_545
B15 Ru0 2.385433 1_555
B15 Ru0 2.385433 1_455
B15 Tm3 2.608667 1_455
B15 Tm3 2.608667 1_555
Ru0 Ru1 2.699206 1_545
Ru0 Tm0 2.938245 1_555
Ru0 Tm2 2.957205 1_555
Ru0 Tm3 3.089209 1_555
Ru0 Tm2 3.093320 1_545
Ru1 Tm1 2.938245 1_555
Ru1 Tm3 2.957205 1_555
Ru1 Tm2 3.089209 1_555
Ru1 Tm3 3.093320 1_565
Ru2 Ru3 2.699206 1_554
Ru2 Tm2 2.938245 1_555
Ru2 Tm0 2.957205 1_565
Ru2 Tm1 3.089209 1_554
Ru2 Tm0 3.093320 1_555
Ru3 Tm3 2.938245 1_555
Ru3 Tm1 2.957205 1_545
Ru3 Tm0 3.089209 1_556
Ru3 Tm1 3.093320 1_555
