# generated using pymatgen
data_Dy2ZnIr
_symmetry_space_group_name_H-M   'P 1'
_cell_length_a   4.92888216
_cell_length_b   4.92888216
_cell_length_c   4.92888216
_cell_angle_alpha   60.00000000
_cell_angle_beta   60.00000000
_cell_angle_gamma   60.00000000
_symmetry_Int_Tables_number   1
_chemical_formula_structural   Dy2ZnIr
_chemical_formula_sum   'Dy2 Zn1 Ir1'
_cell_volume   84.67014587
_cell_formula_units_Z   1
loop_
 _symmetry_equiv_pos_site_id
 _symmetry_equiv_pos_as_xyz
  1  'x, y, z'
loop_
 _atom_site_type_symbol
 _atom_site_label
 _atom_site_symmetry_multiplicity
 _atom_site_fract_x
 _atom_site_fract_y
 _atom_site_fract_z
 _atom_site_occupancy
  Dy  Dy0  1  0.75000000  0.75000000  0.75000000  1
  Dy  Dy1  1  0.25000000  0.25000000  0.25000000  1
  Zn  Zn0  1  0.00000000  0.00000000  0.00000000  1
  Ir  Ir0  1  0.50000000  0.50000000  0.50000000  1
loop_
_geom_bond_atom_site_label_1
_geom_bond_atom_site_label_2
_geom_bond_distance
_geom_bond_site_symmetry_2
Dy0 Ir0 3.018312 1_655
Dy0 Zn0 3.018312 1_665
Dy0 Zn0 3.018312 1_666
Dy0 Ir0 3.018312 1_555
Dy0 Ir0 3.018312 1_556
Dy0 Ir0 3.018312 1_565
Dy0 Zn0 3.018312 1_656
Dy0 Zn0 3.018312 1_566
Dy1 Ir0 3.018312 1_545
Dy1 Ir0 3.018312 1_555
Dy1 Zn0 3.018312 1_565
Dy1 Ir0 3.018312 1_554
Dy1 Zn0 3.018312 1_655
Dy1 Ir0 3.018312 1_455
Dy1 Zn0 3.018312 1_555
Dy1 Zn0 3.018312 1_556
