# generated using pymatgen
data_TmP5
_symmetry_space_group_name_H-M   'P 1'
_cell_length_a   4.92408805
_cell_length_b   5.31021113
_cell_length_c   9.32144808
_cell_angle_alpha   90.00000000
_cell_angle_beta   90.00000000
_cell_angle_gamma   102.40854846
_symmetry_Int_Tables_number   1
_chemical_formula_structural   TmP5
_chemical_formula_sum   'Tm2 P10'
_cell_volume   238.04309809
_cell_formula_units_Z   2
loop_
 _symmetry_equiv_pos_site_id
 _symmetry_equiv_pos_as_xyz
  1  'x, y, z'
loop_
 _atom_site_type_symbol
 _atom_site_label
 _atom_site_symmetry_multiplicity
 _atom_site_fract_x
 _atom_site_fract_y
 _atom_site_fract_z
 _atom_site_occupancy
  Tm  Tm0  1  0.00079846  0.34730864  0.25000000  1
  Tm  Tm1  1  0.99920154  0.65269136  0.75000000  1
  P  P0  1  0.27583644  0.89138020  0.25000000  1
  P  P1  1  0.72416356  0.10861980  0.75000000  1
  P  P2  1  0.61523602  0.95568357  0.40714736  1
  P  P3  1  0.38476398  0.04431643  0.90714736  1
  P  P4  1  0.38476398  0.04431643  0.59285264  1
  P  P5  1  0.61523602  0.95568357  0.09285264  1
  P  P6  1  0.71425681  0.59633241  0.47155029  1
  P  P7  1  0.28574319  0.40366759  0.97155029  1
  P  P8  1  0.28574319  0.40366759  0.52844971  1
  P  P9  1  0.71425681  0.59633241  0.02844971  1
loop_
_geom_bond_atom_site_label_1
_geom_bond_atom_site_label_2
_geom_bond_distance
_geom_bond_site_symmetry_2
P0 P5 2.193200 1_555
P0 P2 2.193200 1_555
P0 Tm0 2.915423 1_555
P0 Tm0 3.017435 1_565
P1 P3 2.193200 1_555
P1 P4 2.193200 1_555
P1 Tm1 2.915423 1_555
P1 Tm1 3.017435 1_545
P2 P6 2.153913 1_555
P2 P4 2.176119 1_565
P2 Tm0 2.894514 1_665
P3 P7 2.153913 1_555
P3 P5 2.176119 1_546
P3 Tm1 2.894514 1_445
P4 P8 2.153913 1_555
P4 Tm1 2.894514 1_445
P5 P9 2.153913 1_555
P5 Tm0 2.894514 1_665
P6 P8 2.202847 1_555
P6 Tm1 2.935077 1_555
P6 Tm0 2.967530 1_655
P7 P9 2.202847 1_556
P7 Tm0 2.935077 1_556
P7 Tm1 2.967530 1_455
P8 Tm0 2.935077 1_555
P8 Tm1 2.967530 1_455
P9 Tm1 2.935077 1_554
P9 Tm0 2.967530 1_655
