# generated using pymatgen
data_CuO2F
_symmetry_space_group_name_H-M   'P 1'
_cell_length_a   5.21529811
_cell_length_b   5.21529811
_cell_length_c   3.95810300
_cell_angle_alpha   90.00000000
_cell_angle_beta   90.00000000
_cell_angle_gamma   103.56085520
_symmetry_Int_Tables_number   1
_chemical_formula_structural   CuO2F
_chemical_formula_sum   'Cu2 O4 F2'
_cell_volume   104.65642184
_cell_formula_units_Z   2
loop_
 _symmetry_equiv_pos_site_id
 _symmetry_equiv_pos_as_xyz
  1  'x, y, z'
loop_
 _atom_site_type_symbol
 _atom_site_label
 _atom_site_symmetry_multiplicity
 _atom_site_fract_x
 _atom_site_fract_y
 _atom_site_fract_z
 _atom_site_occupancy
  Cu  Cu0  1  0.71615900  0.71615900  0.00000000  1
  Cu  Cu1  1  0.28384100  0.28384100  0.50000000  1
  O  O0  1  0.01390600  0.78669200  0.71942600  1
  O  O1  1  0.21330800  0.98609400  0.78057400  1
  O  O2  1  0.98609400  0.21330800  0.21942600  1
  O  O3  1  0.78669200  0.01390600  0.28057400  1
  F  F0  1  0.39152200  0.60847800  0.25000000  1
  F  F1  1  0.60847800  0.39152200  0.75000000  1
loop_
_geom_bond_atom_site_label_1
_geom_bond_atom_site_label_2
_geom_bond_distance
_geom_bond_site_symmetry_2
Cu0 O0 1.874047 1_654
Cu0 O3 1.874047 1_565
Cu0 F0 1.927477 1_555
Cu0 F1 1.927477 1_554
Cu1 O1 1.874047 1_545
Cu1 O2 1.874047 1_455
Cu1 F0 1.927477 1_555
Cu1 F1 1.927477 1_555
O0 O1 1.309339 1_555
O2 O3 1.309339 1_555
