# generated using pymatgen
data_Tb3Si
_symmetry_space_group_name_H-M   'P 1'
_cell_length_a   6.72346569
_cell_length_b   6.72346569
_cell_length_c   5.10108000
_cell_angle_alpha   90.00000000
_cell_angle_beta   90.00000000
_cell_angle_gamma   119.99999695
_symmetry_Int_Tables_number   1
_chemical_formula_structural   Tb3Si
_chemical_formula_sum   'Tb6 Si2'
_cell_volume   199.70050619
_cell_formula_units_Z   2
loop_
 _symmetry_equiv_pos_site_id
 _symmetry_equiv_pos_as_xyz
  1  'x, y, z'
loop_
 _atom_site_type_symbol
 _atom_site_label
 _atom_site_symmetry_multiplicity
 _atom_site_fract_x
 _atom_site_fract_y
 _atom_site_fract_z
 _atom_site_occupancy
  Tb  Tb0  1  0.17755500  0.35511000  0.25000000  1
  Tb  Tb1  1  0.64489000  0.82244500  0.25000000  1
  Tb  Tb2  1  0.17755500  0.82244500  0.25000000  1
  Tb  Tb3  1  0.82244500  0.64489000  0.75000000  1
  Tb  Tb4  1  0.35511000  0.17755500  0.75000000  1
  Tb  Tb5  1  0.82244500  0.17755500  0.75000000  1
  Si  Si0  1  0.33333300  0.66666700  0.75000000  1
  Si  Si1  1  0.66666700  0.33333300  0.25000000  1
loop_
_geom_bond_atom_site_label_1
_geom_bond_atom_site_label_2
_geom_bond_distance
_geom_bond_site_symmetry_2
Si0 Tb2 3.129887 1_555
Si0 Tb2 3.129887 1_556
Si0 Tb0 3.129891 1_555
Si0 Tb0 3.129891 1_556
Si0 Tb1 3.129891 1_555
Si0 Tb1 3.129891 1_556
Si0 Tb4 3.364120 1_565
Si0 Tb3 3.364120 1_455
Si0 Tb5 3.364123 1_565
Si0 Tb5 3.364123 1_455
Si0 Tb3 3.364127 1_555
Si0 Tb4 3.364127 1_555
Si1 Tb5 3.129887 1_554
Si1 Tb5 3.129887 1_555
Si1 Tb3 3.129891 1_555
Si1 Tb4 3.129891 1_555
Si1 Tb3 3.129891 1_554
Si1 Tb4 3.129891 1_554
Si1 Tb0 3.364120 1_655
Si1 Tb1 3.364120 1_545
Si1 Tb2 3.364123 1_655
Si1 Tb2 3.364123 1_545
Si1 Tb0 3.364127 1_555
Si1 Tb1 3.364127 1_555
