# generated using pymatgen
data_Ba2UCuO6
_symmetry_space_group_name_H-M   'P 1'
_cell_length_a   5.80770200
_cell_length_b   6.14121622
_cell_length_c   5.80770200
_cell_angle_alpha   61.78078867
_cell_angle_beta   90.00000000
_cell_angle_gamma   118.21921133
_symmetry_Int_Tables_number   1
_chemical_formula_structural   Ba2UCuO6
_chemical_formula_sum   'Ba2 U1 Cu1 O6'
_cell_volume   154.01391607
_cell_formula_units_Z   1
loop_
 _symmetry_equiv_pos_site_id
 _symmetry_equiv_pos_as_xyz
  1  'x, y, z'
loop_
 _atom_site_type_symbol
 _atom_site_label
 _atom_site_symmetry_multiplicity
 _atom_site_fract_x
 _atom_site_fract_y
 _atom_site_fract_z
 _atom_site_occupancy
  Ba  Ba0  1  0.25000000  0.50000000  0.25000000  1
  Ba  Ba1  1  0.75000000  0.50000000  0.75000000  1
  U  U0  1  0.00000000  0.00000000  0.00000000  1
  Cu  Cu0  1  0.50000000  0.00000000  0.50000000  1
  O  O0  1  0.25702000  0.00000100  0.25701900  1
  O  O1  1  0.74298000  0.00000000  0.25702000  1
  O  O2  1  0.25702000  0.00000000  0.74298000  1
  O  O3  1  0.74298000  0.99999900  0.74298100  1
  O  O4  1  0.77620400  0.55240800  0.22379600  1
  O  O5  1  0.22379600  0.44759200  0.77620400  1
loop_
_geom_bond_atom_site_label_1
_geom_bond_atom_site_label_2
_geom_bond_distance
_geom_bond_site_symmetry_2
Ba0 O4 2.913695 1_455
Ba0 O4 2.913695 1_555
Ba0 O5 2.913695 1_555
Ba0 O5 2.913695 1_554
Ba0 O0 3.071146 1_555
Ba0 O3 3.071146 1_554
Ba0 O1 3.071149 1_455
Ba0 O2 3.071149 1_564
Ba0 O1 3.071149 1_565
Ba0 O2 3.071149 1_555
Ba0 O0 3.071153 1_565
Ba0 O3 3.071153 1_445
Ba1 O4 2.913695 1_555
Ba1 O5 2.913695 1_555
Ba1 O4 2.913695 1_556
Ba1 O5 2.913695 1_655
Ba1 O3 3.071146 1_555
Ba1 O0 3.071146 1_556
Ba1 O1 3.071149 1_565
Ba1 O2 3.071149 1_555
Ba1 O2 3.071149 1_665
Ba1 O1 3.071149 1_556
Ba1 O0 3.071153 1_665
Ba1 O3 3.071153 1_545
Cu0 O2 1.995675 1_555
Cu0 O1 1.995675 1_555
Cu0 O0 1.995679 1_555
Cu0 O3 1.995679 1_545
Cu0 O5 2.522384 1_545
Cu0 O4 2.522384 1_555
O0 U0 2.110986 1_555
O1 U0 2.110990 1_655
O2 U0 2.110990 1_556
O3 U0 2.110986 1_666
O4 U0 2.043778 1_665
O5 U0 2.043778 1_556
