# generated using pymatgen
data_LiNiPO4F
_symmetry_space_group_name_H-M   'P 1'
_cell_length_a   5.20331300
_cell_length_b   5.32098821
_cell_length_c   7.24921998
_cell_angle_alpha   109.02582573
_cell_angle_beta   105.94468990
_cell_angle_gamma   98.64739986
_symmetry_Int_Tables_number   1
_chemical_formula_structural   LiNiPO4F
_chemical_formula_sum   'Li2 Ni2 P2 O8 F2'
_cell_volume   175.97444586
_cell_formula_units_Z   2
loop_
 _symmetry_equiv_pos_site_id
 _symmetry_equiv_pos_as_xyz
  1  'x, y, z'
loop_
 _atom_site_type_symbol
 _atom_site_label
 _atom_site_symmetry_multiplicity
 _atom_site_fract_x
 _atom_site_fract_y
 _atom_site_fract_z
 _atom_site_occupancy
  Li  Li0  1  0.53095300  0.16956100  0.19828000  1
  Li  Li1  1  0.46904700  0.83043900  0.80172000  1
  Ni  Ni0  1  0.00000000  0.00000000  0.00000000  1
  Ni  Ni1  1  0.50000000  0.50000000  0.50000000  1
  P  P0  1  0.92521900  0.59289200  0.76158600  1
  P  P1  1  0.07478100  0.40710800  0.23841400  1
  O  O0  1  0.54879500  0.68020000  0.07579800  1
  O  O1  1  0.96017800  0.99612000  0.34455100  1
  O  O2  1  0.03982200  0.00388000  0.65544900  1
  O  O3  1  0.86348900  0.39729400  0.39359300  1
  O  O4  1  0.45120500  0.31980000  0.92420200  1
  O  O5  1  0.13651100  0.60270600  0.60640700  1
  O  O6  1  0.98814500  0.53752100  0.12236400  1
  O  O7  1  0.01185400  0.46247900  0.87763600  1
  F  F0  1  0.59996700  0.79842700  0.26615800  1
  F  F1  1  0.40003300  0.20157300  0.73384200  1
loop_
_geom_bond_atom_site_label_1
_geom_bond_atom_site_label_2
_geom_bond_distance
_geom_bond_site_symmetry_2
Li0 O3 1.836259 1_555
Li0 Ni1 2.381753 1_555
Li0 Ni0 2.595345 1_555
Li1 O5 1.836259 1_555
Li1 Ni1 2.381753 1_555
Li1 Ni0 2.595345 1_666
Ni0 P0 2.183356 1_444
Ni0 P1 2.183356 1_555
Ni0 O1 2.568789 1_445
Ni0 O2 2.568789 1_554
Ni1 O3 2.303994 1_555
Ni1 O5 2.303994 1_555
Ni1 P1 2.343178 1_555
Ni1 P0 2.343178 1_555
O3 P1 1.782539 1_655
O5 P0 1.782539 1_455
O6 P1 1.287948 1_655
O7 P0 1.287947 1_455
F0 O0 1.246071 1_555
F0 O1 1.837014 1_555
F0 Li0 2.240677 1_565
F1 O4 1.246071 1_555
F1 O2 1.837014 1_555
F1 Li1 2.240677 1_545
