# generated using pymatgen
data_YbAu3
_symmetry_space_group_name_H-M   'P 1'
_cell_length_a   6.04515148
_cell_length_b   6.04515148
_cell_length_c   4.84496106
_cell_angle_alpha   90.00000000
_cell_angle_beta   90.00000000
_cell_angle_gamma   120.00000785
_symmetry_Int_Tables_number   1
_chemical_formula_structural   YbAu3
_chemical_formula_sum   'Yb2 Au6'
_cell_volume   153.33286992
_cell_formula_units_Z   2
loop_
 _symmetry_equiv_pos_site_id
 _symmetry_equiv_pos_as_xyz
  1  'x, y, z'
loop_
 _atom_site_type_symbol
 _atom_site_label
 _atom_site_symmetry_multiplicity
 _atom_site_fract_x
 _atom_site_fract_y
 _atom_site_fract_z
 _atom_site_occupancy
  Yb  Yb0  1  0.33333300  0.66666700  0.75000000  1
  Yb  Yb1  1  0.66666700  0.33333300  0.25000000  1
  Au  Au0  1  0.16421449  0.32842898  0.25000000  1
  Au  Au1  1  0.67157102  0.83578551  0.25000000  1
  Au  Au2  1  0.16421449  0.83578551  0.25000000  1
  Au  Au3  1  0.83578551  0.67157102  0.75000000  1
  Au  Au4  1  0.32842898  0.16421449  0.75000000  1
  Au  Au5  1  0.83578551  0.16421449  0.75000000  1
loop_
_geom_bond_atom_site_label_1
_geom_bond_atom_site_label_2
_geom_bond_distance
_geom_bond_site_symmetry_2
Au0 Au5 2.970653 1_455
Au0 Au5 2.970653 1_454
Au0 Au4 2.970653 1_555
Au0 Au4 2.970653 1_554
Au0 Au1 2.978104 1_445
Au0 Au2 2.978104 1_545
Au0 Yb0 3.000668 1_554
Au0 Yb0 3.000668 1_555
Au0 Yb1 3.022682 1_455
Au0 Yb1 3.022688 1_555
Au0 Au1 3.067047 1_555
Au0 Au2 3.067047 1_555
Au1 Au5 2.970653 1_565
Au1 Au5 2.970653 1_564
Au1 Au3 2.970653 1_555
Au1 Au3 2.970653 1_554
Au1 Au2 2.978104 1_655
Au1 Yb0 3.000668 1_554
Au1 Yb0 3.000668 1_555
Au1 Yb1 3.022682 1_565
Au1 Yb1 3.022688 1_555
Au1 Au2 3.067047 1_555
Au2 Au4 2.970653 1_564
Au2 Au3 2.970653 1_455
Au2 Au4 2.970653 1_565
Au2 Au3 2.970653 1_454
Au2 Yb0 3.000665 1_555
Au2 Yb0 3.000665 1_554
Au2 Yb1 3.022684 1_565
Au2 Yb1 3.022684 1_455
Au3 Au4 2.978104 1_665
Au3 Au5 2.978104 1_565
Au3 Yb1 3.000668 1_556
Au3 Yb1 3.000668 1_555
Au3 Yb0 3.022682 1_655
Au3 Yb0 3.022688 1_555
Au3 Au4 3.067047 1_555
Au3 Au5 3.067047 1_555
Au4 Au5 2.978104 1_455
Au4 Yb1 3.000668 1_555
Au4 Yb1 3.000668 1_556
Au4 Yb0 3.022682 1_545
Au4 Yb0 3.022688 1_555
Au4 Au5 3.067047 1_555
Au5 Yb1 3.000665 1_555
Au5 Yb1 3.000665 1_556
Au5 Yb0 3.022684 1_655
Au5 Yb0 3.022684 1_545
