# generated using pymatgen
data_Sm2Mo2O7
_symmetry_space_group_name_H-M   'P 1'
_cell_length_a   7.23776400
_cell_length_b   7.61149600
_cell_length_c   10.43576800
_cell_angle_alpha   90.00000000
_cell_angle_beta   90.00000000
_cell_angle_gamma   90.00000000
_symmetry_Int_Tables_number   1
_chemical_formula_structural   Sm2Mo2O7
_chemical_formula_sum   'Sm8 Mo8 O28'
_cell_volume   574.90866874
_cell_formula_units_Z   4
loop_
 _symmetry_equiv_pos_site_id
 _symmetry_equiv_pos_as_xyz
  1  'x, y, z'
loop_
 _atom_site_type_symbol
 _atom_site_label
 _atom_site_symmetry_multiplicity
 _atom_site_fract_x
 _atom_site_fract_y
 _atom_site_fract_z
 _atom_site_occupancy
  Sm  Sm0  1  0.50000000  0.49254700  0.49565100  1
  Sm  Sm1  1  0.00000000  0.50745300  0.99565100  1
  Sm  Sm2  1  0.25057800  0.24838700  0.24961600  1
  Sm  Sm3  1  0.00000000  0.00571800  0.00270700  1
  Sm  Sm4  1  0.50000000  0.99428200  0.50270700  1
  Sm  Sm5  1  0.24942200  0.75161300  0.74961600  1
  Sm  Sm6  1  0.75057800  0.75161300  0.74961600  1
  Sm  Sm7  1  0.74942200  0.24838700  0.24961600  1
  Mo  Mo0  1  0.50000000  0.51387700  0.01830300  1
  Mo  Mo1  1  0.25015300  0.25189900  0.75027800  1
  Mo  Mo2  1  0.00000000  0.98616900  0.48241500  1
  Mo  Mo3  1  0.50000000  0.01383100  0.98241500  1
  Mo  Mo4  1  0.24984700  0.74810100  0.25027800  1
  Mo  Mo5  1  0.75015300  0.74810100  0.25027800  1
  Mo  Mo6  1  0.00000000  0.48612300  0.51830300  1
  Mo  Mo7  1  0.74984700  0.25189900  0.75027800  1
  O  O0  1  0.50000000  0.21161700  0.86158800  1
  O  O1  1  0.20264200  0.01497400  0.61915000  1
  O  O2  1  0.50000000  0.77385900  0.90173000  1
  O  O3  1  0.50000000  0.70490000  0.14249500  1
  O  O4  1  0.20403900  0.51329100  0.37822000  1
  O  O5  1  0.24886100  0.50753800  0.12919300  1
  O  O6  1  0.75113900  0.50753800  0.12919300  1
  O  O7  1  0.25113900  0.49246200  0.62919300  1
  O  O8  1  0.50000000  0.23760000  0.63096900  1
  O  O9  1  0.00000000  0.22614100  0.40173000  1
  O  O10  1  0.00000000  0.26215500  0.87142600  1
  O  O11  1  0.25100000  0.01153600  0.86800800  1
  O  O12  1  0.74900000  0.01153600  0.86800800  1
  O  O13  1  0.79735800  0.01497400  0.61915000  1
  O  O14  1  0.24900000  0.98846400  0.36800800  1
  O  O15  1  0.70264200  0.98502600  0.11915000  1
  O  O16  1  0.29735800  0.98502600  0.11915000  1
  O  O17  1  0.00000000  0.78838300  0.36158800  1
  O  O18  1  0.00000000  0.76240000  0.13096900  1
  O  O19  1  0.00000000  0.72633200  0.60320500  1
  O  O20  1  0.50000000  0.73784500  0.37142600  1
  O  O21  1  0.79596100  0.51329100  0.37822000  1
  O  O22  1  0.29596100  0.48670900  0.87822000  1
  O  O23  1  0.70403900  0.48670900  0.87822000  1
  O  O24  1  0.74886100  0.49246200  0.62919300  1
  O  O25  1  0.00000000  0.29510000  0.64249500  1
  O  O26  1  0.50000000  0.27366800  0.10320500  1
  O  O27  1  0.75100000  0.98846400  0.36800800  1
loop_
_geom_bond_atom_site_label_1
_geom_bond_atom_site_label_2
_geom_bond_distance
_geom_bond_site_symmetry_2
Mo0 O3 1.947755 1_555
Mo0 O26 2.031721 1_555
Mo0 O22 2.088237 1_554
Mo0 O23 2.088237 1_554
Mo0 O5 2.155335 1_555
Mo0 O6 2.155335 1_555
Mo0 O2 2.322886 1_554
Mo1 O25 2.156706 1_555
Mo1 O0 2.171038 1_555
Mo1 O8 2.198214 1_555
Mo1 O11 2.203782 1_555
Mo1 O10 2.209652 1_555
Mo1 O7 2.224747 1_555
Mo1 O22 2.255414 1_555
Mo1 O1 2.289740 1_555
Mo2 O17 1.963746 1_555
Mo2 O9 2.011281 1_565
Mo2 O1 2.057996 1_565
Mo2 O13 2.057996 1_465
Mo2 O27 2.161874 1_455
Mo2 O14 2.161874 1_555
Mo2 O19 2.345302 1_555
Mo3 O0 1.963746 1_555
Mo3 O2 2.011281 1_545
Mo3 O15 2.057996 1_546
Mo3 O16 2.057996 1_546
Mo3 O12 2.161874 1_555
Mo3 O11 2.161874 1_555
Mo3 O26 2.345302 1_556
Mo4 O3 2.156706 1_555
Mo4 O17 2.171038 1_555
Mo4 O18 2.198214 1_555
Mo4 O14 2.203782 1_555
Mo4 O20 2.209652 1_555
Mo4 O5 2.224747 1_555
Mo4 O4 2.255414 1_555
Mo4 O16 2.289740 1_555
Mo5 O3 2.156706 1_555
Mo5 O17 2.171038 1_655
Mo5 O18 2.198214 1_655
Mo5 O27 2.203782 1_555
Mo5 O20 2.209652 1_555
Mo5 O6 2.224747 1_555
Mo5 O21 2.255414 1_555
Mo5 O15 2.289740 1_555
Mo6 O25 1.947755 1_555
Mo6 O19 2.031721 1_555
Mo6 O4 2.088237 1_555
Mo6 O21 2.088237 1_455
Mo6 O24 2.155335 1_455
Mo6 O7 2.155335 1_555
Mo6 O9 2.322886 1_555
Mo7 O25 2.156706 1_655
Mo7 O0 2.171038 1_555
Mo7 O8 2.198214 1_555
Mo7 O12 2.203782 1_555
Mo7 O10 2.209652 1_655
Mo7 O24 2.224747 1_555
Mo7 O23 2.255414 1_555
Mo7 O13 2.289740 1_555
O1 Sm5 2.446765 1_545
O1 Sm4 2.476579 1_545
O2 Sm6 2.416160 1_555
O2 Sm5 2.416160 1_555
O4 Sm2 2.445439 1_555
O4 Sm0 2.472916 1_555
O5 Sm1 2.277382 1_554
O5 Sm2 2.338873 1_555
O6 Sm1 2.277382 1_654
O6 Sm7 2.338873 1_555
O7 Sm0 2.277382 1_555
O7 Sm5 2.338873 1_555
O8 Sm4 2.285076 1_545
O8 Sm0 2.399960 1_555
O9 Sm2 2.416160 1_555
O9 Sm7 2.416160 1_455
O10 Sm1 2.273019 1_555
O10 Sm3 2.384689 1_556
O11 Sm3 2.297442 1_556
O11 Sm5 2.332530 1_545
O12 Sm3 2.297442 1_656
O12 Sm6 2.332530 1_545
O13 Sm6 2.446765 1_545
O13 Sm4 2.476579 1_545
O14 Sm4 2.297442 1_555
O14 Sm2 2.332530 1_565
O15 Sm7 2.446765 1_565
O15 Sm3 2.476579 1_665
O16 Sm2 2.446765 1_565
O16 Sm3 2.476579 1_565
O18 Sm3 2.285076 1_565
O18 Sm1 2.399960 1_554
O19 Sm5 2.372867 1_555
O19 Sm6 2.372867 1_455
O20 Sm0 2.273019 1_555
O20 Sm4 2.384689 1_555
O21 Sm7 2.445439 1_555
O21 Sm0 2.472916 1_555
O22 Sm5 2.445439 1_555
O22 Sm1 2.472916 1_555
O23 Sm6 2.445439 1_555
O23 Sm1 2.472916 1_655
O24 Sm0 2.277382 1_555
O24 Sm6 2.338873 1_555
O26 Sm7 2.372867 1_555
O26 Sm2 2.372867 1_555
O27 Sm4 2.297442 1_555
O27 Sm7 2.332530 1_565
