# generated using pymatgen
data_Sc2CoSi2
_symmetry_space_group_name_H-M   'P 1'
_cell_length_a   3.94241568
_cell_length_b   5.30572877
_cell_length_c   8.49194846
_cell_angle_alpha   82.70268610
_cell_angle_beta   76.57769719
_cell_angle_gamma   68.19033654
_symmetry_Int_Tables_number   1
_chemical_formula_structural   Sc2CoSi2
_chemical_formula_sum   'Sc4 Co2 Si4'
_cell_volume   160.24705890
_cell_formula_units_Z   2
loop_
 _symmetry_equiv_pos_site_id
 _symmetry_equiv_pos_as_xyz
  1  'x, y, z'
loop_
 _atom_site_type_symbol
 _atom_site_label
 _atom_site_symmetry_multiplicity
 _atom_site_fract_x
 _atom_site_fract_y
 _atom_site_fract_z
 _atom_site_occupancy
  Sc  Sc0  1  0.68402196  0.73778569  0.89416939  1
  Sc  Sc1  1  0.49886827  0.67311787  0.32914459  1
  Sc  Sc2  1  0.31597804  0.26221431  0.10583061  1
  Sc  Sc3  1  0.50113173  0.32688213  0.67085541  1
  Co  Co0  1  0.22599830  0.92434991  0.62365449  1
  Co  Co1  1  0.77400170  0.07565009  0.37634551  1
  Si  Si0  1  0.01128832  0.85188798  0.12553637  1
  Si  Si1  1  0.85431155  0.72221217  0.56916472  1
  Si  Si2  1  0.98871168  0.14811202  0.87446363  1
  Si  Si3  1  0.14568845  0.27778783  0.43083528  1
loop_
_geom_bond_atom_site_label_1
_geom_bond_atom_site_label_2
_geom_bond_distance
_geom_bond_site_symmetry_2
Sc0 Si1 2.689094 1_555
Sc0 Si0 2.819722 1_556
Sc0 Si0 2.819727 1_656
Sc0 Si2 2.822747 1_465
Sc0 Si2 2.822747 1_565
Sc0 Si2 2.916596 1_555
Sc1 Si0 2.712165 1_555
Sc1 Si0 2.712171 1_655
Sc1 Si1 2.813895 1_455
Sc1 Si1 2.813897 1_555
Sc1 Si3 2.869802 1_555
Sc1 Si3 2.869805 1_655
Sc1 Si3 3.131043 1_565
Sc2 Si3 2.689094 1_555
Sc2 Si2 2.819722 1_554
Sc2 Si2 2.819727 1_454
Sc2 Si0 2.822747 1_645
Sc2 Si0 2.822747 1_545
Sc2 Si0 2.916596 1_555
Sc3 Si2 2.712165 1_555
Sc3 Si2 2.712171 1_455
Sc3 Si3 2.813895 1_655
Sc3 Si3 2.813897 1_555
Sc3 Si1 2.869802 1_555
Sc3 Si1 2.869805 1_455
Sc3 Si1 3.131043 1_545
Co0 Si1 2.262778 1_555
Co0 Si1 2.262782 1_455
Co0 Si3 2.305946 1_565
Co0 Si2 2.390195 1_465
Co0 Sc1 2.778709 1_555
Co0 Sc3 2.835350 1_565
Co0 Sc3 2.835350 1_465
Co0 Sc3 2.951311 1_555
Co0 Sc0 3.088292 1_555
Co0 Sc0 3.088297 1_455
Co1 Si3 2.262778 1_555
Co1 Si3 2.262782 1_655
Co1 Si1 2.305946 1_545
Co1 Si0 2.390195 1_645
Co1 Sc3 2.778709 1_555
Co1 Sc1 2.835350 1_545
Co1 Sc1 2.835350 1_645
Co1 Sc1 2.951311 1_555
Co1 Sc2 3.088292 1_555
Co1 Sc2 3.088297 1_655
Si0 Si2 2.481297 1_464
Si1 Si3 2.514778 1_655
