# generated using pymatgen
data_TiS3
_symmetry_space_group_name_H-M   'P 1'
_cell_length_a   3.41651673
_cell_length_b   5.03315591
_cell_length_c   8.97319508
_cell_angle_alpha   83.16889570
_cell_angle_beta   90.00000000
_cell_angle_gamma   90.00000000
_symmetry_Int_Tables_number   1
_chemical_formula_structural   TiS3
_chemical_formula_sum   'Ti2 S6'
_cell_volume   153.20644285
_cell_formula_units_Z   2
loop_
 _symmetry_equiv_pos_site_id
 _symmetry_equiv_pos_as_xyz
  1  'x, y, z'
loop_
 _atom_site_type_symbol
 _atom_site_label
 _atom_site_symmetry_multiplicity
 _atom_site_fract_x
 _atom_site_fract_y
 _atom_site_fract_z
 _atom_site_occupancy
  Ti  Ti0  1  0.25000000  0.71869031  0.64942458  1
  Ti  Ti1  1  0.75000000  0.28130969  0.35057542  1
  S  S0  1  0.25000000  0.11700772  0.18099896  1
  S  S1  1  0.75000000  0.88299228  0.81900104  1
  S  S2  1  0.75000000  0.76053359  0.45121338  1
  S  S3  1  0.25000000  0.23946641  0.54878662  1
  S  S4  1  0.75000000  0.48080154  0.81751569  1
  S  S5  1  0.25000000  0.51919846  0.18248431  1
loop_
_geom_bond_atom_site_label_1
_geom_bond_atom_site_label_2
_geom_bond_distance
_geom_bond_site_symmetry_2
S0 S5 2.025917 1_555
S0 Ti1 2.493339 1_455
S0 Ti1 2.493339 1_555
S1 S4 2.025917 1_555
S1 Ti0 2.493339 1_555
S1 Ti0 2.493339 1_655
S2 Ti0 2.456984 1_555
S2 Ti0 2.456984 1_655
S2 Ti1 2.668862 1_565
S2 Ti1 2.674215 1_555
S3 Ti1 2.456984 1_455
S3 Ti1 2.456984 1_555
S3 Ti0 2.668862 1_545
S3 Ti0 2.674215 1_555
S4 Ti0 2.489408 1_555
S4 Ti0 2.489408 1_655
S5 Ti1 2.489408 1_555
S5 Ti1 2.489408 1_455
