# generated using pymatgen
data_Tl3Pb
_symmetry_space_group_name_H-M   'P 1'
_cell_length_a   7.08143795
_cell_length_b   7.08143747
_cell_length_c   5.59028282
_cell_angle_alpha   90.00000000
_cell_angle_beta   90.00000000
_cell_angle_gamma   119.99999212
_symmetry_Int_Tables_number   1
_chemical_formula_structural   Tl3Pb
_chemical_formula_sum   'Tl6 Pb2'
_cell_volume   242.77687959
_cell_formula_units_Z   2
loop_
 _symmetry_equiv_pos_site_id
 _symmetry_equiv_pos_as_xyz
  1  'x, y, z'
loop_
 _atom_site_type_symbol
 _atom_site_label
 _atom_site_symmetry_multiplicity
 _atom_site_fract_x
 _atom_site_fract_y
 _atom_site_fract_z
 _atom_site_occupancy
  Tl  Tl0  1  0.83247601  0.16752299  0.75000000  1
  Tl  Tl1  1  0.33504798  0.16752299  0.75000000  1
  Tl  Tl2  1  0.83247701  0.66495102  0.75000000  1
  Tl  Tl3  1  0.16752499  0.83247701  0.25000100  1
  Tl  Tl4  1  0.66495202  0.83247701  0.25000100  1
  Tl  Tl5  1  0.16752299  0.33504698  0.25000100  1
  Pb  Pb0  1  0.66666600  0.33333300  0.25000100  1
  Pb  Pb1  1  0.33333300  0.66666700  0.75000000  1
loop_
_geom_bond_atom_site_label_1
_geom_bond_atom_site_label_2
_geom_bond_distance
_geom_bond_site_symmetry_2
Tl0 Tl4 3.469111 1_545
Tl0 Tl5 3.469115 1_655
Tl0 Tl4 3.469120 1_546
Tl0 Tl5 3.469124 1_656
Tl0 Tl2 3.522502 1_555
Tl0 Tl1 3.522506 1_555
Tl0 Tl1 3.558932 1_655
Tl0 Tl2 3.558936 1_545
Tl1 Tl3 3.469111 1_545
Tl1 Tl3 3.469120 1_546
Tl1 Tl5 3.469122 1_555
Tl1 Tl5 3.469131 1_556
Tl1 Tl2 3.522510 1_555
Tl1 Tl2 3.558929 1_445
Tl2 Tl3 3.469119 1_655
Tl2 Tl3 3.469128 1_656
Tl2 Tl4 3.469129 1_555
Tl2 Tl4 3.469138 1_556
Tl3 Tl4 3.522499 1_555
Tl3 Tl5 3.522513 1_555
Tl3 Tl5 3.558925 1_565
Tl3 Tl4 3.558939 1_455
Tl4 Tl5 3.522517 1_555
Tl4 Tl5 3.558922 1_665
Pb0 Tl2 3.456701 1_555
Pb0 Tl1 3.456701 1_555
Pb0 Tl0 3.456708 1_555
Pb0 Tl2 3.456710 1_554
Pb0 Tl1 3.456710 1_554
Pb0 Tl0 3.456717 1_554
Pb0 Tl3 3.540724 1_545
Pb0 Tl4 3.540727 1_545
Pb0 Tl5 3.540735 1_555
Pb0 Tl5 3.540735 1_655
Pb0 Tl4 3.540741 1_555
Pb0 Tl3 3.540746 1_655
Pb1 Tl3 3.456701 1_555
Pb1 Tl4 3.456705 1_555
Pb1 Tl5 3.456708 1_555
Pb1 Tl3 3.456710 1_556
Pb1 Tl4 3.456714 1_556
Pb1 Tl5 3.456717 1_556
Pb1 Tl2 3.540720 1_455
Pb1 Tl1 3.540724 1_565
Pb1 Tl0 3.540731 1_565
Pb1 Tl0 3.540738 1_455
Pb1 Tl1 3.540745 1_555
Pb1 Tl2 3.540749 1_555
