# generated using pymatgen
data_SmLu3
_symmetry_space_group_name_H-M   'P 1'
_cell_length_a   7.14299832
_cell_length_b   7.14299534
_cell_length_c   5.52925533
_cell_angle_alpha   90.00000099
_cell_angle_beta   89.99999547
_cell_angle_gamma   119.99999474
_symmetry_Int_Tables_number   1
_chemical_formula_structural   SmLu3
_chemical_formula_sum   'Sm2 Lu6'
_cell_volume   244.31954710
_cell_formula_units_Z   2
loop_
 _symmetry_equiv_pos_site_id
 _symmetry_equiv_pos_as_xyz
  1  'x, y, z'
loop_
 _atom_site_type_symbol
 _atom_site_label
 _atom_site_symmetry_multiplicity
 _atom_site_fract_x
 _atom_site_fract_y
 _atom_site_fract_z
 _atom_site_occupancy
  Sm  Sm0  1  0.33333365  0.66666691  0.75000097  1
  Sm  Sm1  1  0.66666756  0.33333384  0.25000098  1
  Lu  Lu0  1  0.16506761  0.33013737  0.25000099  1
  Lu  Lu1  1  0.66986343  0.83493166  0.25000100  1
  Lu  Lu2  1  0.16506846  0.83492935  0.25000104  1
  Lu  Lu3  1  0.83493111  0.66986345  0.75000100  1
  Lu  Lu4  1  0.33013815  0.16506987  0.75000102  1
  Lu  Lu5  1  0.83493103  0.16506855  0.75000100  1
loop_
_geom_bond_atom_site_label_1
_geom_bond_atom_site_label_2
_geom_bond_distance
_geom_bond_site_symmetry_2
Lu0 Lu5 3.437131 1_455
Lu0 Lu5 3.437132 1_454
Lu0 Lu4 3.437136 1_554
Lu0 Lu4 3.437137 1_555
Lu0 Sm0 3.460775 1_555
Lu0 Sm0 3.460775 1_554
Lu0 Lu1 3.537248 1_445
Lu0 Lu2 3.537272 1_545
Lu0 Sm1 3.571542 1_455
Lu0 Sm1 3.571566 1_555
Lu0 Lu2 3.605724 1_555
Lu0 Lu1 3.605750 1_555
Lu1 Lu3 3.437129 1_554
Lu1 Lu3 3.437129 1_555
Lu1 Lu5 3.437132 1_564
Lu1 Lu5 3.437132 1_565
Lu1 Sm0 3.460776 1_555
Lu1 Sm0 3.460776 1_554
Lu1 Lu2 3.537257 1_655
Lu1 Sm1 3.571552 1_555
Lu1 Sm1 3.571553 1_565
Lu1 Lu2 3.605741 1_555
Lu2 Lu3 3.437134 1_455
Lu2 Lu3 3.437135 1_454
Lu2 Lu4 3.437145 1_565
Lu2 Lu4 3.437146 1_564
Lu2 Sm0 3.460768 1_555
Lu2 Sm0 3.460768 1_554
Lu2 Sm1 3.571541 1_455
Lu2 Sm1 3.571566 1_565
Lu3 Sm1 3.460775 1_556
Lu3 Sm1 3.460775 1_555
Lu3 Lu5 3.537248 1_565
Lu3 Lu4 3.537260 1_665
Lu3 Sm0 3.571548 1_555
Lu3 Sm0 3.571560 1_655
Lu3 Lu4 3.605737 1_555
Lu3 Lu5 3.605747 1_555
Lu4 Sm1 3.460775 1_556
Lu4 Sm1 3.460775 1_555
Lu4 Lu5 3.537259 1_455
Lu4 Sm0 3.571547 1_555
Lu4 Sm0 3.571557 1_545
Lu4 Lu5 3.605739 1_555
Lu5 Sm1 3.460772 1_556
Lu5 Sm1 3.460772 1_555
Lu5 Sm0 3.571550 1_545
Lu5 Sm0 3.571557 1_655
