# generated using pymatgen
data_NbAlPt
_symmetry_space_group_name_H-M   'P 1'
_cell_length_a   4.34542997
_cell_length_b   4.34542997
_cell_length_c   4.34542997
_cell_angle_alpha   60.00000000
_cell_angle_beta   60.00000000
_cell_angle_gamma   60.00000000
_symmetry_Int_Tables_number   1
_chemical_formula_structural   NbAlPt
_chemical_formula_sum   'Nb1 Al1 Pt1'
_cell_volume   58.02074067
_cell_formula_units_Z   1
loop_
 _symmetry_equiv_pos_site_id
 _symmetry_equiv_pos_as_xyz
  1  'x, y, z'
loop_
 _atom_site_type_symbol
 _atom_site_label
 _atom_site_symmetry_multiplicity
 _atom_site_fract_x
 _atom_site_fract_y
 _atom_site_fract_z
 _atom_site_occupancy
  Nb  Nb0  1  0.50000000  0.50000000  0.50000000  1
  Al  Al0  1  0.75000000  0.75000000  0.75000000  1
  Pt  Pt0  1  0.25000000  0.25000000  0.25000000  1
loop_
_geom_bond_atom_site_label_1
_geom_bond_atom_site_label_2
_geom_bond_distance
_geom_bond_site_symmetry_2
Nb0 Pt0 2.661022 1_555
Nb0 Pt0 2.661022 1_556
Nb0 Pt0 2.661022 1_655
Nb0 Pt0 2.661022 1_565
Al0 Nb0 2.661022 1_555
Al0 Nb0 2.661022 1_556
Al0 Nb0 2.661022 1_565
Al0 Nb0 2.661022 1_655
Al0 Pt0 3.072683 1_656
Al0 Pt0 3.072683 1_655
Al0 Pt0 3.072683 1_565
Al0 Pt0 3.072683 1_566
Al0 Pt0 3.072683 1_665
Al0 Pt0 3.072683 1_556
