# generated using pymatgen
data_NiAgF3
_symmetry_space_group_name_H-M   'P 1'
_cell_length_a   5.67314249
_cell_length_b   5.67314249
_cell_length_c   7.63391100
_cell_angle_alpha   90.00000000
_cell_angle_beta   90.00000000
_cell_angle_gamma   148.82498593
_symmetry_Int_Tables_number   1
_chemical_formula_structural   NiAgF3
_chemical_formula_sum   'Ni2 Ag2 F6'
_cell_volume   127.18444673
_cell_formula_units_Z   2
loop_
 _symmetry_equiv_pos_site_id
 _symmetry_equiv_pos_as_xyz
  1  'x, y, z'
loop_
 _atom_site_type_symbol
 _atom_site_label
 _atom_site_symmetry_multiplicity
 _atom_site_fract_x
 _atom_site_fract_y
 _atom_site_fract_z
 _atom_site_occupancy
  Ni  Ni0  1  0.00000000  0.00000000  0.50000000  1
  Ni  Ni1  1  0.00000000  0.00000000  0.00000000  1
  Ag  Ag0  1  0.74549900  0.25450100  0.75000000  1
  Ag  Ag1  1  0.25450100  0.74549900  0.25000000  1
  F  F0  1  0.62028500  0.37971500  0.45201800  1
  F  F1  1  0.37971500  0.62028500  0.95201800  1
  F  F2  1  0.62028500  0.37971500  0.04798200  1
  F  F3  1  0.37971500  0.62028500  0.54798200  1
  F  F4  1  0.06070800  0.93929200  0.75000000  1
  F  F5  1  0.93929200  0.06070800  0.25000000  1
loop_
_geom_bond_atom_site_label_1
_geom_bond_atom_site_label_2
_geom_bond_distance
_geom_bond_site_symmetry_2
Ag0 F4 2.530331 1_545
Ag0 F4 2.530331 1_655
Ag0 F1 2.617987 1_545
Ag0 F1 2.617987 1_655
Ag0 F3 2.617987 1_545
Ag0 F3 2.617987 1_655
Ag0 F2 2.654667 1_556
Ag0 F0 2.654667 1_555
Ag1 F5 2.530331 1_455
Ag1 F5 2.530331 1_565
Ag1 F0 2.617987 1_455
Ag1 F0 2.617987 1_565
Ag1 F2 2.617987 1_455
Ag1 F2 2.617987 1_565
Ag1 F3 2.654667 1_555
Ag1 F1 2.654667 1_554
F0 Ni0 2.046022 1_555
F0 Ni0 2.046022 1_665
F1 Ni1 2.046022 1_556
F1 Ni1 2.046022 1_666
F2 Ni1 2.046022 1_555
F2 Ni1 2.046022 1_665
F3 Ni0 2.046022 1_555
F3 Ni0 2.046022 1_665
F4 Ni0 2.020517 1_565
F4 Ni1 2.020517 1_566
F5 Ni1 2.020517 1_655
F5 Ni0 2.020517 1_655
