# generated using pymatgen
data_NpPa3
_symmetry_space_group_name_H-M   'P 1'
_cell_length_a   6.18621085
_cell_length_b   6.18621085
_cell_length_c   5.60274900
_cell_angle_alpha   90.00000000
_cell_angle_beta   90.00000000
_cell_angle_gamma   120.00000914
_symmetry_Int_Tables_number   1
_chemical_formula_structural   NpPa3
_chemical_formula_sum   'Np2 Pa6'
_cell_volume   185.68687006
_cell_formula_units_Z   2
loop_
 _symmetry_equiv_pos_site_id
 _symmetry_equiv_pos_as_xyz
  1  'x, y, z'
loop_
 _atom_site_type_symbol
 _atom_site_label
 _atom_site_symmetry_multiplicity
 _atom_site_fract_x
 _atom_site_fract_y
 _atom_site_fract_z
 _atom_site_occupancy
  Np  Np0  1  0.33333300  0.66666700  0.75000000  1
  Np  Np1  1  0.66666700  0.33333300  0.25000000  1
  Pa  Pa0  1  0.83225900  0.16774100  0.75000000  1
  Pa  Pa1  1  0.33548300  0.16774100  0.75000000  1
  Pa  Pa2  1  0.83225900  0.66451700  0.75000000  1
  Pa  Pa3  1  0.16774100  0.83225900  0.25000000  1
  Pa  Pa4  1  0.16774100  0.33548300  0.25000000  1
  Pa  Pa5  1  0.66451700  0.83225900  0.25000000  1
loop_
_geom_bond_atom_site_label_1
_geom_bond_atom_site_label_2
_geom_bond_distance
_geom_bond_site_symmetry_2
Np0 Pa1 3.093121 1_565
Np0 Pa2 3.093121 1_455
Np0 Pa0 3.093126 1_565
Np0 Pa0 3.093126 1_455
Np0 Pa1 3.093133 1_555
Np0 Pa2 3.093133 1_555
Np0 Pa4 3.315992 1_555
Np0 Pa5 3.315992 1_556
Np0 Pa5 3.315992 1_555
Np0 Pa4 3.315992 1_556
Np0 Pa3 3.315992 1_555
Np0 Pa3 3.315992 1_556
Np1 Pa4 3.093121 1_655
Np1 Pa5 3.093121 1_545
Np1 Pa3 3.093126 1_655
Np1 Pa3 3.093126 1_545
Np1 Pa5 3.093133 1_555
Np1 Pa4 3.093133 1_555
Np1 Pa2 3.315992 1_554
Np1 Pa2 3.315992 1_555
Np1 Pa1 3.315992 1_555
Np1 Pa1 3.315992 1_554
Np1 Pa0 3.315992 1_554
Np1 Pa0 3.315992 1_555
Pa0 Pa2 3.073161 1_555
Pa0 Pa1 3.073161 1_555
Pa0 Pa1 3.113050 1_655
Pa0 Pa2 3.113050 1_545
Pa0 Pa4 3.328370 1_656
Pa0 Pa4 3.328370 1_655
Pa0 Pa5 3.328370 1_546
Pa0 Pa5 3.328370 1_545
Pa1 Pa2 3.073161 1_555
Pa1 Pa2 3.113049 1_445
Pa1 Pa3 3.328370 1_546
Pa1 Pa3 3.328370 1_545
Pa1 Pa4 3.328376 1_556
Pa1 Pa4 3.328376 1_555
Pa2 Pa3 3.328370 1_656
Pa2 Pa3 3.328370 1_655
Pa2 Pa5 3.328376 1_556
Pa2 Pa5 3.328376 1_555
Pa3 Pa5 3.073161 1_555
Pa3 Pa4 3.073161 1_555
Pa3 Pa4 3.113050 1_565
Pa3 Pa5 3.113050 1_455
Pa4 Pa5 3.073161 1_555
Pa4 Pa5 3.113049 1_445
