# generated using pymatgen
data_H4CN2O
_symmetry_space_group_name_H-M   'P 1'
_cell_length_a   6.20575900
_cell_length_b   6.20575900
_cell_length_c   4.59601900
_cell_angle_alpha   90.00000000
_cell_angle_beta   90.00000000
_cell_angle_gamma   90.00000000
_symmetry_Int_Tables_number   1
_chemical_formula_structural   H4CN2O
_chemical_formula_sum   'H8 C2 N4 O2'
_cell_volume   176.99933186
_cell_formula_units_Z   2
loop_
 _symmetry_equiv_pos_site_id
 _symmetry_equiv_pos_as_xyz
  1  'x, y, z'
loop_
 _atom_site_type_symbol
 _atom_site_label
 _atom_site_symmetry_multiplicity
 _atom_site_fract_x
 _atom_site_fract_y
 _atom_site_fract_z
 _atom_site_occupancy
  H  H0  1  0.26940700  0.76940700  0.53168300  1
  H  H1  1  0.73059300  0.23059300  0.53168300  1
  H  H2  1  0.36885300  0.86885300  0.19607000  1
  H  H3  1  0.63114700  0.13114700  0.19607000  1
  H  H4  1  0.23059300  0.26940700  0.46831700  1
  H  H5  1  0.76940700  0.73059300  0.46831700  1
  H  H6  1  0.13114700  0.36885300  0.80393000  1
  H  H7  1  0.86885300  0.63114700  0.80393000  1
  C  C0  1  0.00000000  0.50000000  0.42571400  1
  C  C1  1  0.50000000  0.00000000  0.57428600  1
  N  N0  1  0.36804700  0.86804700  0.41813700  1
  N  N1  1  0.63195300  0.13195300  0.41813700  1
  N  N2  1  0.13195300  0.36804700  0.58186300  1
  N  N3  1  0.86804700  0.63195300  0.58186300  1
  O  O0  1  0.00000000  0.50000000  0.15128000  1
  O  O1  1  0.50000000  0.00000000  0.84872000  1
loop_
_geom_bond_atom_site_label_1
_geom_bond_atom_site_label_2
_geom_bond_distance
_geom_bond_site_symmetry_2
H0 N0 1.010821 1_555
H1 N1 1.010821 1_555
H2 N0 1.020649 1_555
H3 N1 1.020649 1_555
H4 N2 1.010821 1_555
H5 N3 1.010821 1_555
H6 N2 1.020649 1_555
H7 N3 1.020649 1_555
C0 O0 1.261304 1_555
C0 N2 1.362400 1_555
C0 N3 1.362400 1_455
C1 O1 1.261304 1_555
C1 N0 1.362400 1_545
C1 N1 1.362400 1_555
