# generated using pymatgen
data_Mg2Bi
_symmetry_space_group_name_H-M   'P 1'
_cell_length_a   12.57569480
_cell_length_b   12.57569480
_cell_length_c   15.99221635
_cell_angle_alpha   68.86549753
_cell_angle_beta   68.86549753
_cell_angle_gamma   32.42371351
_symmetry_Int_Tables_number   1
_chemical_formula_structural   Mg2Bi
_chemical_formula_sum   'Mg32 Bi16'
_cell_volume   1256.83616644
_cell_formula_units_Z   16
loop_
 _symmetry_equiv_pos_site_id
 _symmetry_equiv_pos_as_xyz
  1  'x, y, z'
loop_
 _atom_site_type_symbol
 _atom_site_label
 _atom_site_symmetry_multiplicity
 _atom_site_fract_x
 _atom_site_fract_y
 _atom_site_fract_z
 _atom_site_occupancy
  Mg  Mg0_0  1  0.06510700  0.06510700  0.48613200  1
  Mg  Mg0_1  1  0.06510700  0.06510700  0.98613200  1
  Mg  Mg0_2  1  0.06510700  0.56510700  0.48613200  1
  Mg  Mg0_3  1  0.06510700  0.56510700  0.98613200  1
  Mg  Mg0_4  1  0.56510700  0.06510700  0.48613200  1
  Mg  Mg0_5  1  0.56510700  0.06510700  0.98613200  1
  Mg  Mg0_6  1  0.56510700  0.56510700  0.48613200  1
  Mg  Mg0_7  1  0.56510700  0.56510700  0.98613200  1
  Mg  Mg1_0  1  0.43489300  0.43489300  0.01386800  1
  Mg  Mg1_1  1  0.43489300  0.43489300  0.51386800  1
  Mg  Mg1_2  1  0.43489300  0.93489300  0.01386800  1
  Mg  Mg1_3  1  0.43489300  0.93489300  0.51386800  1
  Mg  Mg1_4  1  0.93489300  0.43489300  0.01386800  1
  Mg  Mg1_5  1  0.93489300  0.43489300  0.51386800  1
  Mg  Mg1_6  1  0.93489300  0.93489300  0.01386800  1
  Mg  Mg1_7  1  0.93489300  0.93489300  0.51386800  1
  Mg  Mg2_0  1  0.22454950  0.22454950  0.15263350  1
  Mg  Mg2_1  1  0.22454950  0.22454950  0.65263350  1
  Mg  Mg2_2  1  0.22454950  0.72454950  0.15263350  1
  Mg  Mg2_3  1  0.22454950  0.72454950  0.65263350  1
  Mg  Mg2_4  1  0.72454950  0.22454950  0.15263350  1
  Mg  Mg2_5  1  0.72454950  0.22454950  0.65263350  1
  Mg  Mg2_6  1  0.72454950  0.72454950  0.15263350  1
  Mg  Mg2_7  1  0.72454950  0.72454950  0.65263350  1
  Mg  Mg3_0  1  0.27545050  0.27545050  0.34736650  1
  Mg  Mg3_1  1  0.27545050  0.27545050  0.84736650  1
  Mg  Mg3_2  1  0.27545050  0.77545050  0.34736650  1
  Mg  Mg3_3  1  0.27545050  0.77545050  0.84736650  1
  Mg  Mg3_4  1  0.77545050  0.27545050  0.34736650  1
  Mg  Mg3_5  1  0.77545050  0.27545050  0.84736650  1
  Mg  Mg3_6  1  0.77545050  0.77545050  0.34736650  1
  Mg  Mg3_7  1  0.77545050  0.77545050  0.84736650  1
  Bi  Bi0_0  1  0.08849750  0.08849750  0.16133100  1
  Bi  Bi0_1  1  0.08849750  0.08849750  0.66133100  1
  Bi  Bi0_2  1  0.08849750  0.58849750  0.16133100  1
  Bi  Bi0_3  1  0.08849750  0.58849750  0.66133100  1
  Bi  Bi0_4  1  0.58849750  0.08849750  0.16133100  1
  Bi  Bi0_5  1  0.58849750  0.08849750  0.66133100  1
  Bi  Bi0_6  1  0.58849750  0.58849750  0.16133100  1
  Bi  Bi0_7  1  0.58849750  0.58849750  0.66133100  1
  Bi  Bi1_0  1  0.41150250  0.41150250  0.33866900  1
  Bi  Bi1_1  1  0.41150250  0.41150250  0.83866900  1
  Bi  Bi1_2  1  0.41150250  0.91150250  0.33866900  1
  Bi  Bi1_3  1  0.41150250  0.91150250  0.83866900  1
  Bi  Bi1_4  1  0.91150250  0.41150250  0.33866900  1
  Bi  Bi1_5  1  0.91150250  0.41150250  0.83866900  1
  Bi  Bi1_6  1  0.91150250  0.91150250  0.33866900  1
  Bi  Bi1_7  1  0.91150250  0.91150250  0.83866900  1
loop_
_geom_bond_atom_site_label_1
_geom_bond_atom_site_label_2
_geom_bond_distance
_geom_bond_site_symmetry_2
Mg0_0 Mg1_7 3.006520 1_445
Mg0_0 Mg3_2 3.243445 1_545
Mg0_0 Mg3_4 3.243445 1_455
Mg0_0 Mg2_5 3.252972 1_455
Mg0_0 Mg2_3 3.252972 1_545
Mg0_1 Mg1_6 3.006520 1_446
Mg0_1 Mg3_5 3.243445 1_455
Mg0_1 Mg3_3 3.243445 1_545
Mg0_1 Mg2_2 3.252972 1_546
Mg0_1 Mg2_4 3.252972 1_456
Mg0_2 Mg1_5 3.006520 1_455
Mg0_2 Mg3_6 3.243445 1_455
Mg0_2 Mg3_0 3.243445 1_555
Mg0_2 Mg2_1 3.252972 1_555
Mg0_2 Mg2_7 3.252972 1_455
Mg0_3 Mg1_4 3.006520 1_456
Mg0_3 Mg3_1 3.243445 1_555
Mg0_3 Mg3_7 3.243445 1_455
Mg0_3 Mg2_6 3.252972 1_456
Mg0_3 Mg2_0 3.252972 1_556
Mg0_4 Mg1_3 3.006520 1_545
Mg0_4 Mg3_6 3.243445 1_545
Mg0_4 Mg3_0 3.243445 1_555
Mg0_4 Mg2_1 3.252972 1_555
Mg0_4 Mg2_7 3.252972 1_545
Mg0_5 Mg1_2 3.006520 1_546
Mg0_5 Mg3_1 3.243445 1_555
Mg0_5 Mg3_7 3.243445 1_545
Mg0_5 Mg2_6 3.252972 1_546
Mg0_5 Mg2_0 3.252972 1_556
Mg0_6 Mg1_1 3.006520 1_555
Mg0_6 Mg3_4 3.243445 1_555
Mg0_6 Mg3_2 3.243445 1_555
Mg0_6 Mg2_5 3.252972 1_555
Mg0_6 Mg2_3 3.252972 1_555
Mg0_7 Mg1_0 3.006520 1_556
Mg0_7 Mg3_5 3.243445 1_555
Mg0_7 Mg3_3 3.243445 1_555
Mg0_7 Mg2_4 3.252972 1_556
Mg0_7 Mg2_2 3.252972 1_556
Mg1_0 Mg2_2 3.243445 1_555
Mg1_0 Mg2_4 3.243445 1_555
Mg1_0 Mg3_5 3.252972 1_554
Mg1_0 Mg3_3 3.252972 1_554
Mg1_1 Mg2_5 3.243445 1_555
Mg1_1 Mg2_3 3.243445 1_555
Mg1_1 Mg3_4 3.252972 1_555
Mg1_1 Mg3_2 3.252972 1_555
Mg1_2 Mg2_0 3.243445 1_565
Mg1_2 Mg2_6 3.243445 1_555
Mg1_2 Mg3_7 3.252972 1_554
Mg1_2 Mg3_1 3.252972 1_564
Mg1_3 Mg2_7 3.243445 1_555
Mg1_3 Mg2_1 3.243445 1_565
Mg1_3 Mg3_0 3.252972 1_565
Mg1_3 Mg3_6 3.252972 1_555
Mg1_4 Mg2_6 3.243445 1_555
Mg1_4 Mg2_0 3.243445 1_655
Mg1_4 Mg3_7 3.252972 1_554
Mg1_4 Mg3_1 3.252972 1_654
Mg1_5 Mg2_7 3.243445 1_555
Mg1_5 Mg2_1 3.243445 1_655
Mg1_5 Mg3_0 3.252972 1_655
Mg1_5 Mg3_6 3.252972 1_555
Mg1_6 Mg2_4 3.243445 1_565
Mg1_6 Mg2_2 3.243445 1_655
Mg1_6 Mg3_5 3.252972 1_564
Mg1_6 Mg3_3 3.252972 1_654
Mg1_7 Mg2_5 3.243445 1_565
Mg1_7 Mg2_3 3.243445 1_655
Mg1_7 Mg3_4 3.252972 1_565
Mg1_7 Mg3_2 3.252972 1_655
Mg2_0 Mg2_6 3.511006 1_455
Mg2_0 Mg2_6 3.511006 1_545
Mg2_1 Mg2_7 3.511006 1_545
Mg2_1 Mg2_7 3.511006 1_455
Mg2_2 Mg2_4 3.511006 1_555
Mg2_2 Mg2_4 3.511006 1_465
Mg2_3 Mg2_5 3.511006 1_465
Mg2_3 Mg2_5 3.511006 1_555
Mg3_0 Mg3_6 3.511006 1_545
Mg3_0 Mg3_6 3.511006 1_455
Mg3_1 Mg3_7 3.511006 1_455
Mg3_1 Mg3_7 3.511006 1_545
Mg3_2 Mg3_4 3.511006 1_465
Mg3_2 Mg3_4 3.511006 1_555
Mg3_3 Mg3_5 3.511006 1_465
Mg3_3 Mg3_5 3.511006 1_555
Bi0_0 Mg0_1 3.059077 1_554
Bi0_0 Mg1_4 3.152789 1_455
Bi0_0 Mg1_2 3.152789 1_545
Bi0_0 Mg2_0 3.236169 1_555
Bi0_0 Mg3_4 3.293876 1_455
Bi0_0 Mg3_2 3.293876 1_545
Bi0_0 Mg2_2 3.310897 1_545
Bi0_0 Mg2_4 3.310897 1_455
Bi0_0 Bi0_6 3.511006 1_455
Bi0_0 Bi0_6 3.511006 1_545
Bi0_1 Mg0_0 3.059077 1_555
Bi0_1 Mg1_3 3.152789 1_545
Bi0_1 Mg1_5 3.152789 1_455
Bi0_1 Mg2_1 3.236169 1_555
Bi0_1 Mg3_5 3.293876 1_455
Bi0_1 Mg3_3 3.293876 1_545
Bi0_1 Mg2_5 3.310897 1_455
Bi0_1 Mg2_3 3.310897 1_545
Bi0_1 Bi0_7 3.511006 1_545
Bi0_1 Bi0_7 3.511006 1_455
Bi0_2 Mg0_3 3.059077 1_554
Bi0_2 Mg1_6 3.152789 1_455
Bi0_2 Mg1_0 3.152789 1_555
Bi0_2 Mg2_2 3.236169 1_555
Bi0_2 Mg3_6 3.293876 1_455
Bi0_2 Mg3_0 3.293876 1_555
Bi0_2 Mg2_6 3.310897 1_455
Bi0_2 Mg2_0 3.310897 1_555
Bi0_2 Bi0_4 3.511006 1_555
Bi0_2 Bi0_4 3.511006 1_465
Bi0_3 Mg0_2 3.059077 1_555
Bi0_3 Mg1_1 3.152789 1_555
Bi0_3 Mg1_7 3.152789 1_455
Bi0_3 Mg2_3 3.236169 1_555
Bi0_3 Mg3_1 3.293876 1_555
Bi0_3 Mg3_7 3.293876 1_455
Bi0_3 Mg2_1 3.310897 1_555
Bi0_3 Mg2_7 3.310897 1_455
Bi0_3 Bi0_5 3.511006 1_555
Bi0_3 Bi0_5 3.511006 1_465
Bi0_4 Mg0_5 3.059077 1_554
Bi0_4 Mg1_6 3.152789 1_545
Bi0_4 Mg1_0 3.152789 1_555
Bi0_4 Mg2_4 3.236169 1_555
Bi0_4 Mg3_0 3.293876 1_555
Bi0_4 Mg3_6 3.293876 1_545
Bi0_4 Mg2_6 3.310897 1_545
Bi0_4 Mg2_0 3.310897 1_555
Bi0_5 Mg0_4 3.059077 1_555
Bi0_5 Mg1_1 3.152789 1_555
Bi0_5 Mg1_7 3.152789 1_545
Bi0_5 Mg2_5 3.236169 1_555
Bi0_5 Mg3_1 3.293876 1_555
Bi0_5 Mg3_7 3.293876 1_545
Bi0_5 Mg2_1 3.310897 1_555
Bi0_5 Mg2_7 3.310897 1_545
Bi0_6 Mg0_7 3.059077 1_554
Bi0_6 Mg1_4 3.152789 1_555
Bi0_6 Mg1_2 3.152789 1_555
Bi0_6 Mg2_6 3.236169 1_555
Bi0_6 Mg3_2 3.293876 1_555
Bi0_6 Mg3_4 3.293876 1_555
Bi0_6 Mg2_4 3.310897 1_555
Bi0_6 Mg2_2 3.310897 1_555
Bi0_7 Mg0_6 3.059077 1_555
Bi0_7 Mg1_3 3.152789 1_555
Bi0_7 Mg1_5 3.152789 1_555
Bi0_7 Mg2_7 3.236169 1_555
Bi0_7 Mg3_3 3.293876 1_555
Bi0_7 Mg3_5 3.293876 1_555
Bi0_7 Mg2_3 3.310897 1_555
Bi0_7 Mg2_5 3.310897 1_555
Bi1_0 Mg1_1 3.059077 1_555
Bi1_0 Mg0_2 3.152789 1_555
Bi1_0 Mg0_4 3.152789 1_555
Bi1_0 Mg3_0 3.236169 1_555
Bi1_0 Mg2_2 3.293876 1_555
Bi1_0 Mg2_4 3.293876 1_555
Bi1_0 Mg3_4 3.310897 1_555
Bi1_0 Mg3_2 3.310897 1_555
Bi1_0 Bi1_6 3.511006 1_545
Bi1_0 Bi1_6 3.511006 1_455
Bi1_1 Mg1_0 3.059077 1_556
Bi1_1 Mg0_5 3.152789 1_555
Bi1_1 Mg0_3 3.152789 1_555
Bi1_1 Mg3_1 3.236169 1_555
Bi1_1 Mg2_3 3.293876 1_555
Bi1_1 Mg2_5 3.293876 1_555
Bi1_1 Mg3_5 3.310897 1_555
Bi1_1 Mg3_3 3.310897 1_555
Bi1_1 Bi1_7 3.511006 1_455
Bi1_1 Bi1_7 3.511006 1_545
Bi1_2 Mg1_3 3.059077 1_555
Bi1_2 Mg0_0 3.152789 1_565
Bi1_2 Mg0_6 3.152789 1_555
Bi1_2 Mg3_2 3.236169 1_555
Bi1_2 Mg2_0 3.293876 1_565
Bi1_2 Mg2_6 3.293876 1_555
Bi1_2 Mg3_0 3.310897 1_565
Bi1_2 Mg3_6 3.310897 1_555
Bi1_2 Bi1_4 3.511006 1_465
Bi1_2 Bi1_4 3.511006 1_555
Bi1_3 Mg1_2 3.059077 1_556
Bi1_3 Mg0_7 3.152789 1_555
Bi1_3 Mg0_1 3.152789 1_565
Bi1_3 Mg3_3 3.236169 1_555
Bi1_3 Mg2_7 3.293876 1_555
Bi1_3 Mg2_1 3.293876 1_565
Bi1_3 Mg3_7 3.310897 1_555
Bi1_3 Mg3_1 3.310897 1_565
Bi1_3 Bi1_5 3.511006 1_555
Bi1_3 Bi1_5 3.511006 1_465
Bi1_4 Mg1_5 3.059077 1_555
Bi1_4 Mg0_0 3.152789 1_655
Bi1_4 Mg0_6 3.152789 1_555
Bi1_4 Mg3_4 3.236169 1_555
Bi1_4 Mg2_6 3.293876 1_555
Bi1_4 Mg2_0 3.293876 1_655
Bi1_4 Mg3_0 3.310897 1_655
Bi1_4 Mg3_6 3.310897 1_555
Bi1_5 Mg1_4 3.059077 1_556
Bi1_5 Mg0_7 3.152789 1_555
Bi1_5 Mg0_1 3.152789 1_655
Bi1_5 Mg3_5 3.236169 1_555
Bi1_5 Mg2_7 3.293876 1_555
Bi1_5 Mg2_1 3.293876 1_655
Bi1_5 Mg3_7 3.310897 1_555
Bi1_5 Mg3_1 3.310897 1_655
Bi1_6 Mg1_7 3.059077 1_555
Bi1_6 Mg0_4 3.152789 1_565
Bi1_6 Mg0_2 3.152789 1_655
Bi1_6 Mg3_6 3.236169 1_555
Bi1_6 Mg2_4 3.293876 1_565
Bi1_6 Mg2_2 3.293876 1_655
Bi1_6 Mg3_2 3.310897 1_655
Bi1_6 Mg3_4 3.310897 1_565
Bi1_7 Mg1_6 3.059077 1_556
Bi1_7 Mg0_5 3.152789 1_565
Bi1_7 Mg0_3 3.152789 1_655
Bi1_7 Mg3_7 3.236169 1_555
Bi1_7 Mg2_3 3.293876 1_655
Bi1_7 Mg2_5 3.293876 1_565
Bi1_7 Mg3_3 3.310897 1_655
Bi1_7 Mg3_5 3.310897 1_565
