# generated using pymatgen
data_Fe6Ni9S20
_symmetry_space_group_name_H-M   'P 1'
_cell_length_a   6.57922500
_cell_length_b   6.67640025
_cell_length_c   27.23032047
_cell_angle_alpha   96.33467012
_cell_angle_beta   90.20745797
_cell_angle_gamma   119.36699707
_symmetry_Int_Tables_number   1
_chemical_formula_structural   Fe6Ni9S20
_chemical_formula_sum   'Fe12 Ni18 S40'
_cell_volume   1033.73439618
_cell_formula_units_Z   2
loop_
 _symmetry_equiv_pos_site_id
 _symmetry_equiv_pos_as_xyz
  1  'x, y, z'
loop_
 _atom_site_type_symbol
 _atom_site_label
 _atom_site_symmetry_multiplicity
 _atom_site_fract_x
 _atom_site_fract_y
 _atom_site_fract_z
 _atom_site_occupancy
  Fe  Fe0  1  0.12365900  0.19983600  0.22702500  1
  Fe  Fe1  1  0.49028800  0.19943900  0.10040500  1
  Fe  Fe2  1  0.01001200  0.19962800  0.10009500  1
  Fe  Fe3  1  0.49838100  0.59840000  0.30038200  1
  Fe  Fe4  1  0.48951600  0.28269300  0.40442100  1
  Fe  Fe5  1  0.49648000  0.00102600  0.49943800  1
  Fe  Fe6  1  0.00500800  0.00049500  0.49965500  1
  Fe  Fe7  1  0.50865700  0.71324200  0.59660500  1
  Fe  Fe8  1  0.50167400  0.40024500  0.69978600  1
  Fe  Fe9  1  0.48965300  0.08493000  0.80393700  1
  Fe  Fe10  1  0.48717000  0.80703900  0.89687100  1
  Fe  Fe11  1  0.02243300  0.80675200  0.89740300  1
  Ni  Ni0  1  0.12504400  0.80114500  0.02508800  1
  Ni  Ni1  1  0.49826700  0.89778500  0.20054900  1
  Ni  Ni2  1  0.12403200  0.59778100  0.42411200  1
  Ni  Ni3  1  0.50108500  0.70210400  0.10085600  1
  Ni  Ni4  1  0.87346100  0.59343600  0.17516400  1
  Ni  Ni5  1  0.99676700  0.59672400  0.30045400  1
  Ni  Ni6  1  0.12660200  0.00595300  0.62580300  1
  Ni  Ni7  1  0.49987900  0.10017100  0.30063500  1
  Ni  Ni8  1  0.87293900  0.99269700  0.37467100  1
  Ni  Ni9  1  0.12249800  0.39620000  0.82321200  1
  Ni  Ni10  1  0.50108000  0.50184800  0.50024500  1
  Ni  Ni11  1  0.87515300  0.39814700  0.57560600  1
  Ni  Ni12  1  0.99997800  0.40031300  0.69973700  1
  Ni  Ni13  1  0.49992700  0.89949200  0.69983700  1
  Ni  Ni14  1  0.87457600  0.79590600  0.77391100  1
  Ni  Ni15  1  0.50230600  0.50353500  0.99901000  1
  Ni  Ni16  1  0.50393900  0.31037100  0.89984300  1
  Ni  Ni17  1  0.87145900  0.19335800  0.97489500  1
  S  S0  1  0.25661200  0.58406900  0.05253600  1
  S  S1  1  0.25257700  0.30106200  0.14859900  1
  S  S2  1  0.72270200  0.58402400  0.05245300  1
  S  S3  1  0.25866900  0.11932100  0.05121600  1
  S  S4  1  0.74310900  0.27918600  0.14744100  1
  S  S5  1  0.25371900  0.99189600  0.25151800  1
  S  S6  1  0.27342700  0.81699700  0.14804500  1
  S  S7  1  0.74503900  0.10091900  0.05573800  1
  S  S8  1  0.26015000  0.70431100  0.34431700  1
  S  S9  1  0.73345000  0.98438700  0.25246600  1
  S  S10  1  0.74846400  0.81720300  0.14835100  1
  S  S11  1  0.25795700  0.50947400  0.25224600  1
  S  S12  1  0.72933900  0.66819700  0.35004700  1
  S  S13  1  0.25652300  0.38563800  0.45183400  1
  S  S14  1  0.27620300  0.21665300  0.34986700  1
  S  S15  1  0.73795900  0.49263300  0.25558800  1
  S  S16  1  0.72611600  0.38649500  0.45201900  1
  S  S17  1  0.25751100  0.10545300  0.54553900  1
  S  S18  1  0.73604100  0.20859800  0.35059800  1
  S  S19  1  0.24966000  0.90456600  0.45205800  1
  S  S20  1  0.74861400  0.09047300  0.54705900  1
  S  S21  1  0.26221900  0.78894100  0.65021500  1
  S  S22  1  0.27408600  0.61592500  0.54813800  1
  S  S23  1  0.74427800  0.89873100  0.45497400  1
  S  S24  1  0.26133800  0.50394800  0.74390200  1
  S  S25  1  0.72438100  0.78265900  0.65064700  1
  S  S26  1  0.74600900  0.61572700  0.54850300  1
  S  S27  1  0.26878000  0.32929500  0.65030400  1
  S  S28  1  0.26083100  0.19102900  0.85120600  1
  S  S29  1  0.73268100  0.47272900  0.74936200  1
  S  S30  1  0.27666900  0.01763500  0.74894400  1
  S  S31  1  0.26074800  0.91311300  0.94488300  1
  S  S32  1  0.73923500  0.29434400  0.65512400  1
  S  S33  1  0.72531100  0.19170600  0.85151000  1
  S  S34  1  0.25048000  0.70459600  0.84956900  1
  S  S35  1  0.73806200  0.01137300  0.74941700  1
  S  S36  1  0.74545100  0.88335200  0.94491800  1
  S  S37  1  0.27364900  0.42275600  0.94732200  1
  S  S38  1  0.74771000  0.70750500  0.85454600  1
  S  S39  1  0.75231600  0.42239400  0.94732700  1
loop_
_geom_bond_atom_site_label_1
_geom_bond_atom_site_label_2
_geom_bond_distance
_geom_bond_site_symmetry_2
Fe0 S11 1.848444 1_555
Fe0 S5 2.114173 1_545
Fe0 S1 2.346524 1_555
Fe0 S9 2.398065 1_445
Fe1 S3 1.852034 1_555
Fe1 S4 1.912119 1_555
Fe1 S1 2.342569 1_555
Fe1 S7 2.375020 1_555
Fe1 S6 2.722005 1_545
Fe1 S2 2.745798 1_555
Fe2 S1 1.864748 1_555
Fe2 S7 1.901222 1_455
Fe2 S3 2.335381 1_555
Fe2 S4 2.409975 1_455
Fe2 S0 2.749852 1_555
Fe2 S10 2.766628 1_445
Fe3 S11 1.861407 1_555
Fe3 S12 1.872599 1_555
Fe3 S8 2.302580 1_555
Fe3 S15 2.320884 1_555
Fe3 S14 2.750707 1_555
Fe3 S9 2.753695 1_555
Fe4 S16 1.820004 1_555
Fe4 S14 1.898490 1_555
Fe4 S13 2.311047 1_555
Fe4 S18 2.380678 1_555
Fe4 S19 2.715926 1_545
Fe4 S12 2.860238 1_555
Fe5 S19 1.868703 1_545
Fe5 S20 1.905738 1_555
Fe5 S17 2.330269 1_555
Fe5 S23 2.348240 1_545
Fe5 S16 2.739874 1_555
Fe5 S22 2.754391 1_545
Fe6 S17 1.860631 1_555
Fe6 S23 1.882521 1_445
Fe6 S19 2.350305 1_545
Fe6 S20 2.389813 1_455
Fe6 S13 2.761709 1_555
Fe6 S26 2.783722 1_445
Fe7 S22 1.832555 1_555
Fe7 S25 1.893136 1_555
Fe7 S26 2.324196 1_555
Fe7 S21 2.381885 1_555
Fe7 S20 2.742470 1_565
Fe7 S27 2.841792 1_555
Fe8 S29 1.867121 1_555
Fe8 S27 1.876178 1_555
Fe8 S24 2.307970 1_555
Fe8 S32 2.308613 1_555
Fe8 S25 2.748608 1_555
Fe8 S30 2.751094 1_555
Fe9 S33 1.813235 1_555
Fe9 S30 1.904390 1_555
Fe9 S28 2.298640 1_555
Fe9 S35 2.400033 1_555
Fe9 S34 2.694325 1_545
Fe9 S29 2.876535 1_555
Fe10 S34 1.816119 1_555
Fe10 S36 1.961263 1_555
Fe10 S31 2.296618 1_555
Fe10 S38 2.381335 1_555
Fe10 S33 2.709907 1_565
Fe10 S37 2.774885 1_555
Fe11 S31 1.823438 1_555
Fe11 S38 1.925441 1_455
Fe11 S34 2.287938 1_555
Fe11 S36 2.457965 1_455
Fe11 S28 2.721118 1_565
Fe11 S39 2.811732 1_455
Ni0 S3 1.903123 1_565
Ni0 S0 2.207521 1_555
Ni0 S31 2.417775 1_554
Ni0 S2 2.480484 1_455
Ni1 S6 1.885515 1_555
Ni1 S9 1.911391 1_555
Ni1 S5 2.392697 1_555
Ni1 S10 2.395032 1_555
Ni1 S4 2.824297 1_565
Ni1 S11 2.829103 1_555
Ni2 S19 1.857019 1_555
Ni2 S13 2.185823 1_555
Ni2 S8 2.399899 1_555
Ni2 S16 2.459678 1_455
Ni3 S10 1.857650 1_555
Ni3 S0 1.857961 1_555
Ni3 S2 2.323076 1_555
Ni3 S6 2.325145 1_555
Ni3 S7 2.778450 1_565
Ni3 S1 2.832365 1_555
Ni4 S4 1.894269 1_555
Ni4 S10 2.209680 1_555
Ni4 S15 2.407195 1_555
Ni4 S6 2.470375 1_655
Ni5 S15 1.874002 1_555
Ni5 S8 1.876225 1_655
Ni5 S11 2.417631 1_655
Ni5 S12 2.417763 1_555
Ni5 S18 2.821301 1_555
Ni5 S5 2.830532 1_655
Ni6 S27 1.917667 1_555
Ni6 S21 2.193940 1_545
Ni6 S17 2.394341 1_555
Ni6 S25 2.459515 1_445
Ni7 S18 1.858326 1_555
Ni7 S5 1.886001 1_545
Ni7 S14 2.339734 1_555
Ni7 S9 2.373913 1_545
Ni7 S8 2.739775 1_545
Ni7 S15 2.742536 1_555
Ni8 S12 1.924364 1_555
Ni8 S18 2.190040 1_565
Ni8 S23 2.384731 1_555
Ni8 S14 2.464971 1_665
Ni9 S34 1.852726 1_555
Ni9 S28 2.175758 1_555
Ni9 S24 2.393438 1_555
Ni9 S33 2.456416 1_455
Ni10 S13 1.860954 1_555
Ni10 S26 1.861221 1_555
Ni10 S16 2.327866 1_555
Ni10 S22 2.328467 1_555
Ni10 S17 2.769141 1_555
Ni10 S23 2.770875 1_555
Ni11 S20 1.866160 1_555
Ni11 S26 2.195319 1_555
Ni11 S32 2.388683 1_555
Ni11 S22 2.464475 1_655
Ni12 S24 1.875196 1_655
Ni12 S32 1.877257 1_555
Ni12 S29 2.420628 1_555
Ni12 S27 2.421402 1_655
Ni12 S21 2.815252 1_655
Ni12 S35 2.818820 1_555
Ni13 S21 1.857128 1_555
Ni13 S35 1.857327 1_565
Ni13 S30 2.342147 1_565
Ni13 S25 2.344540 1_555
Ni13 S24 2.743137 1_555
Ni13 S32 2.749931 1_565
Ni14 S29 1.917146 1_555
Ni14 S35 2.189882 1_565
Ni14 S38 2.383751 1_555
Ni14 S30 2.458900 1_665
Ni15 S37 1.885852 1_555
Ni15 S2 1.886021 1_556
Ni15 S39 2.387926 1_555
Ni15 S0 2.392294 1_556
Ni15 S3 2.821122 1_556
Ni15 S36 2.832237 1_555
Ni16 S28 1.857153 1_555
Ni16 S39 1.863916 1_555
Ni16 S33 2.323065 1_555
Ni16 S37 2.333507 1_555
Ni16 S31 2.769210 1_545
Ni16 S38 2.772893 1_555
Ni17 S36 1.891222 1_545
Ni17 S39 2.222817 1_555
Ni17 S7 2.393400 1_556
Ni17 S37 2.490888 1_655
