# generated using pymatgen
data_Tm3Ga
_symmetry_space_group_name_H-M   'P 1'
_cell_length_a   6.67620960
_cell_length_b   6.67620960
_cell_length_c   5.22380600
_cell_angle_alpha   90.00000000
_cell_angle_beta   90.00000000
_cell_angle_gamma   119.99999604
_symmetry_Int_Tables_number   1
_chemical_formula_structural   Tm3Ga
_chemical_formula_sum   'Tm6 Ga2'
_cell_volume   201.64042997
_cell_formula_units_Z   2
loop_
 _symmetry_equiv_pos_site_id
 _symmetry_equiv_pos_as_xyz
  1  'x, y, z'
loop_
 _atom_site_type_symbol
 _atom_site_label
 _atom_site_symmetry_multiplicity
 _atom_site_fract_x
 _atom_site_fract_y
 _atom_site_fract_z
 _atom_site_occupancy
  Tm  Tm0  1  0.17352200  0.34704400  0.25000000  1
  Tm  Tm1  1  0.65295600  0.82647800  0.25000000  1
  Tm  Tm2  1  0.17352200  0.82647800  0.25000000  1
  Tm  Tm3  1  0.82647800  0.65295600  0.75000000  1
  Tm  Tm4  1  0.34704400  0.17352200  0.75000000  1
  Tm  Tm5  1  0.82647800  0.17352200  0.75000000  1
  Ga  Ga0  1  0.33333300  0.66666700  0.75000000  1
  Ga  Ga1  1  0.66666700  0.33333300  0.25000000  1
loop_
_geom_bond_atom_site_label_1
_geom_bond_atom_site_label_2
_geom_bond_distance
_geom_bond_site_symmetry_2
Tm0 Tm2 3.200802 1_555
Tm0 Tm1 3.200802 1_555
Tm0 Tm4 3.293659 1_554
Tm0 Tm4 3.293659 1_555
Tm0 Tm5 3.293659 1_454
Tm0 Tm5 3.293659 1_455
Tm0 Tm2 3.475408 1_545
Tm0 Tm1 3.475408 1_445
Tm1 Tm2 3.200802 1_555
Tm1 Tm3 3.293659 1_555
Tm1 Tm3 3.293659 1_554
Tm1 Tm5 3.293659 1_565
Tm1 Tm5 3.293659 1_564
Tm1 Tm2 3.475408 1_655
Tm2 Tm4 3.293659 1_564
Tm2 Tm4 3.293659 1_565
Tm2 Tm3 3.293659 1_455
Tm2 Tm3 3.293659 1_454
Tm3 Tm5 3.200802 1_555
Tm3 Tm4 3.200802 1_555
Tm3 Tm5 3.475408 1_565
Tm3 Tm4 3.475408 1_665
Tm4 Tm5 3.200802 1_555
Tm4 Tm5 3.475408 1_455
Ga0 Tm2 3.199542 1_555
Ga0 Tm2 3.199542 1_556
Ga0 Tm0 3.199545 1_555
Ga0 Tm0 3.199545 1_556
Ga0 Tm1 3.199545 1_556
Ga0 Tm1 3.199545 1_555
Ga0 Tm4 3.339043 1_565
Ga0 Tm3 3.339043 1_455
Ga0 Tm5 3.339046 1_455
Ga0 Tm5 3.339046 1_565
Ga0 Tm4 3.339049 1_555
Ga0 Tm3 3.339049 1_555
Ga1 Tm5 3.199542 1_554
Ga1 Tm5 3.199542 1_555
Ga1 Tm3 3.199545 1_554
Ga1 Tm4 3.199545 1_554
Ga1 Tm3 3.199545 1_555
Ga1 Tm4 3.199545 1_555
Ga1 Tm1 3.339043 1_545
Ga1 Tm0 3.339043 1_655
Ga1 Tm2 3.339046 1_655
Ga1 Tm2 3.339046 1_545
Ga1 Tm0 3.339049 1_555
Ga1 Tm1 3.339049 1_555
