# generated using pymatgen
data_YbAgSb
_symmetry_space_group_name_H-M   'P 1'
_cell_length_a   4.63275700
_cell_length_b   7.70196800
_cell_length_c   8.40349100
_cell_angle_alpha   90.00000000
_cell_angle_beta   90.00000000
_cell_angle_gamma   90.00000000
_symmetry_Int_Tables_number   1
_chemical_formula_structural   YbAgSb
_chemical_formula_sum   'Yb4 Ag4 Sb4'
_cell_volume   299.84787137
_cell_formula_units_Z   4
loop_
 _symmetry_equiv_pos_site_id
 _symmetry_equiv_pos_as_xyz
  1  'x, y, z'
loop_
 _atom_site_type_symbol
 _atom_site_label
 _atom_site_symmetry_multiplicity
 _atom_site_fract_x
 _atom_site_fract_y
 _atom_site_fract_z
 _atom_site_occupancy
  Yb  Yb0  1  0.25000000  0.51729800  0.19914300  1
  Yb  Yb1  1  0.75000000  0.48270200  0.80085700  1
  Yb  Yb2  1  0.25000000  0.01729800  0.30085700  1
  Yb  Yb3  1  0.75000000  0.98270200  0.69914300  1
  Ag  Ag0  1  0.25000000  0.64490300  0.56618100  1
  Ag  Ag1  1  0.75000000  0.35509700  0.43381900  1
  Ag  Ag2  1  0.25000000  0.14490300  0.93381900  1
  Ag  Ag3  1  0.75000000  0.85509700  0.06618100  1
  Sb  Sb0  1  0.75000000  0.74287700  0.38962200  1
  Sb  Sb1  1  0.25000000  0.25712300  0.61037800  1
  Sb  Sb2  1  0.75000000  0.24287700  0.11037800  1
  Sb  Sb3  1  0.25000000  0.75712300  0.88962200  1
loop_
_geom_bond_atom_site_label_1
_geom_bond_atom_site_label_2
_geom_bond_distance
_geom_bond_site_symmetry_2
Ag0 Sb3 2.852148 1_555
Ag0 Sb0 2.852441 1_455
Ag0 Sb0 2.852441 1_555
Ag0 Sb1 3.009674 1_555
Ag0 Yb0 3.237197 1_555
Ag0 Yb1 3.288685 1_455
Ag0 Yb1 3.288685 1_555
Ag0 Yb2 3.632871 1_565
Ag0 Yb3 3.658278 1_455
Ag0 Yb3 3.658278 1_555
Ag1 Sb2 2.852148 1_555
Ag1 Sb1 2.852441 1_555
Ag1 Sb1 2.852441 1_655
Ag1 Sb0 3.009674 1_555
Ag1 Yb1 3.237197 1_555
Ag1 Yb0 3.288685 1_655
Ag1 Yb0 3.288685 1_555
Ag1 Yb3 3.632871 1_545
Ag1 Yb2 3.658278 1_555
Ag1 Yb2 3.658278 1_655
Ag2 Sb1 2.852148 1_555
Ag2 Sb2 2.852441 1_456
Ag2 Sb2 2.852441 1_556
Ag2 Sb3 3.009674 1_545
Ag2 Yb2 3.237197 1_556
Ag2 Yb3 3.288685 1_445
Ag2 Yb3 3.288685 1_545
Ag2 Yb0 3.632871 1_556
Ag2 Yb1 3.658278 1_455
Ag2 Yb1 3.658278 1_555
Ag3 Sb0 2.852148 1_555
Ag3 Sb3 2.852441 1_554
Ag3 Sb3 2.852441 1_654
Ag3 Sb2 3.009674 1_565
Ag3 Yb3 3.237197 1_554
Ag3 Yb2 3.288685 1_665
Ag3 Yb2 3.288685 1_565
Ag3 Yb1 3.632871 1_554
Ag3 Yb0 3.658278 1_555
Ag3 Yb0 3.658278 1_655
Sb0 Yb3 3.190198 1_555
Sb0 Yb2 3.223237 1_565
Sb0 Yb2 3.223237 1_665
Sb0 Yb0 3.308531 1_555
Sb0 Yb0 3.308531 1_655
Sb1 Yb2 3.190198 1_555
Sb1 Yb3 3.223237 1_545
Sb1 Yb3 3.223237 1_445
Sb1 Yb1 3.308531 1_455
Sb1 Yb1 3.308531 1_555
Sb2 Yb1 3.190198 1_554
Sb2 Yb0 3.223237 1_555
Sb2 Yb0 3.223237 1_655
Sb2 Yb2 3.308531 1_555
Sb2 Yb2 3.308531 1_655
Sb3 Yb0 3.190198 1_556
Sb3 Yb1 3.223237 1_555
Sb3 Yb1 3.223237 1_455
Sb3 Yb3 3.308531 1_455
Sb3 Yb3 3.308531 1_555
