# generated using pymatgen
data_Y(Re2Si)2
_symmetry_space_group_name_H-M   'P 1'
_cell_length_a   4.13320327
_cell_length_b   7.36529143
_cell_length_c   7.36529143
_cell_angle_alpha   90.00000000
_cell_angle_beta   90.00000000
_cell_angle_gamma   90.00000000
_symmetry_Int_Tables_number   1
_chemical_formula_structural   Y(Re2Si)2
_chemical_formula_sum   'Y2 Re8 Si4'
_cell_volume   224.21601816
_cell_formula_units_Z   2
loop_
 _symmetry_equiv_pos_site_id
 _symmetry_equiv_pos_as_xyz
  1  'x, y, z'
loop_
 _atom_site_type_symbol
 _atom_site_label
 _atom_site_symmetry_multiplicity
 _atom_site_fract_x
 _atom_site_fract_y
 _atom_site_fract_z
 _atom_site_occupancy
  Y  Y0  1  -0.00000000  0.50000000  0.50000000  1
  Y  Y1  1  0.50000000  0.00000000  -0.00000000  1
  Re  Re0  1  -0.00000000  0.90621886  0.65753479  1
  Re  Re1  1  0.50000000  0.59378114  0.15753479  1
  Re  Re2  1  -0.00000000  0.34246521  0.09378114  1
  Re  Re3  1  0.00000000  0.65753479  0.90621886  1
  Re  Re4  1  0.50000000  0.84246521  0.40621886  1
  Re  Re5  1  0.50000000  0.15753479  0.59378114  1
  Re  Re6  1  0.00000000  0.09378114  0.34246521  1
  Re  Re7  1  0.50000000  0.40621886  0.84246521  1
  Si  Si0  1  0.00000000  0.79038004  0.20961996  1
  Si  Si1  1  -0.00000000  0.20961996  0.79038004  1
  Si  Si2  1  0.50000000  0.70961996  0.70961996  1
  Si  Si3  1  0.50000000  0.29038004  0.29038004  1
loop_
_geom_bond_atom_site_label_1
_geom_bond_atom_site_label_2
_geom_bond_distance
_geom_bond_site_symmetry_2
Re0 Si1 2.439458 1_565
Re0 Si2 2.552398 1_555
Re0 Si2 2.552398 1_455
Re0 Re3 2.590317 1_555
Re0 Re6 2.700647 1_565
Re0 Re5 2.813821 1_565
Re0 Re5 2.813821 1_465
Re0 Re4 2.813821 1_555
Re0 Re4 2.813821 1_455
Re0 Y0 3.209028 1_555
Re0 Y1 3.333200 1_466
Re0 Y1 3.333200 1_566
Re1 Si3 2.439458 1_555
Re1 Si0 2.552398 1_555
Re1 Si0 2.552398 1_655
Re1 Re4 2.590317 1_555
Re1 Re7 2.700647 1_554
Re1 Re3 2.813821 1_654
Re1 Re3 2.813821 1_554
Re1 Re2 2.813821 1_555
Re1 Re2 2.813821 1_655
Re1 Y1 3.209028 1_565
Re1 Y0 3.333200 1_655
Re1 Y0 3.333200 1_555
Re2 Si1 2.439458 1_554
Re2 Si3 2.552398 1_555
Re2 Si3 2.552398 1_455
Re2 Re6 2.590317 1_555
Re2 Re3 2.700647 1_554
Re2 Re7 2.813821 1_554
Re2 Re7 2.813821 1_454
Re2 Y0 3.209028 1_555
Re2 Y1 3.333200 1_455
Re2 Y1 3.333200 1_555
Re3 Si0 2.439458 1_556
Re3 Si2 2.552398 1_555
Re3 Si2 2.552398 1_455
Re3 Re7 2.813821 1_455
Re3 Re7 2.813821 1_555
Re3 Y0 3.209028 1_555
Re3 Y1 3.333200 1_466
Re3 Y1 3.333200 1_566
Re4 Si2 2.439458 1_555
Re4 Si0 2.552398 1_555
Re4 Si0 2.552398 1_655
Re4 Re5 2.700647 1_565
Re4 Re6 2.813821 1_565
Re4 Re6 2.813821 1_665
Re4 Y1 3.209028 1_565
Re4 Y0 3.333200 1_655
Re4 Y0 3.333200 1_555
Re5 Si3 2.439458 1_555
Re5 Si1 2.552398 1_555
Re5 Si1 2.552398 1_655
Re5 Re7 2.590317 1_555
Re5 Re6 2.813821 1_555
Re5 Re6 2.813821 1_655
Re5 Y1 3.209028 1_556
Re5 Y0 3.333200 1_655
Re5 Y0 3.333200 1_555
Re6 Si0 2.439458 1_545
Re6 Si3 2.552398 1_555
Re6 Si3 2.552398 1_455
Re6 Y0 3.209028 1_555
Re6 Y1 3.333200 1_455
Re6 Y1 3.333200 1_555
Re7 Si2 2.439458 1_555
Re7 Si1 2.552398 1_555
Re7 Si1 2.552398 1_655
Re7 Y1 3.209028 1_556
Re7 Y0 3.333200 1_655
Re7 Y0 3.333200 1_555
Si0 Y1 3.006355 1_565
Si0 Y1 3.006355 1_465
Si0 Y0 3.024626 1_555
Si1 Y1 3.006355 1_456
Si1 Y1 3.006355 1_556
Si1 Y0 3.024626 1_555
Si2 Y0 3.006355 1_555
Si2 Y0 3.006355 1_655
Si2 Y1 3.024626 1_566
Si3 Y0 3.006355 1_655
Si3 Y0 3.006355 1_555
Si3 Y1 3.024626 1_555
