# generated using pymatgen
data_Na8TiAs4
_symmetry_space_group_name_H-M   'P 1'
_cell_length_a   9.70077513
_cell_length_b   9.70078007
_cell_length_c   9.70079033
_cell_angle_alpha   59.99410347
_cell_angle_beta   59.99416037
_cell_angle_gamma   59.99415067
_symmetry_Int_Tables_number   1
_chemical_formula_structural   Na8TiAs4
_chemical_formula_sum   'Na16 Ti2 As8'
_cell_volume   645.42753882
_cell_formula_units_Z   2
loop_
 _symmetry_equiv_pos_site_id
 _symmetry_equiv_pos_as_xyz
  1  'x, y, z'
loop_
 _atom_site_type_symbol
 _atom_site_label
 _atom_site_symmetry_multiplicity
 _atom_site_fract_x
 _atom_site_fract_y
 _atom_site_fract_z
 _atom_site_occupancy
  Na  Na0  1  0.62500007  0.62500018  0.12500003  1
  Na  Na1  1  0.62499994  0.12500023  0.62500014  1
  Na  Na2  1  0.12500025  0.62499988  0.62500001  1
  Na  Na3  1  0.62499966  0.62500005  0.62500000  1
  Na  Na4  1  0.02922268  0.47077922  0.47077955  1
  Na  Na5  1  0.77922186  0.22077685  0.22077666  1
  Na  Na6  1  0.47077937  0.02922389  0.47077851  1
  Na  Na7  1  0.47077926  0.47077921  0.02922284  1
  Na  Na8  1  0.02922315  0.02922329  0.47077801  1
  Na  Na9  1  0.02922355  0.47077816  0.02922336  1
  Na  Na10  1  0.47077741  0.02922405  0.02922368  1
  Na  Na11  1  0.77922113  0.22077639  0.77922114  1
  Na  Na12  1  0.22077660  0.77922254  0.22077633  1
  Na  Na13  1  0.22077663  0.22077702  0.77922230  1
  Na  Na14  1  0.77922078  0.77922045  0.22077682  1
  Na  Na15  1  0.22077695  0.77922087  0.77922070  1
  Ti  Ti0  1  0.75000361  0.74999960  0.74999907  1
  Ti  Ti1  1  0.49999703  0.49999798  0.50000080  1
  As  As0  1  0.85514508  0.85514555  0.43456669  1
  As  As1  1  0.85514556  0.43456666  0.85514511  1
  As  As2  1  0.39485477  0.39485453  0.81543322  1
  As  As3  1  0.39485444  0.81543324  0.39485512  1
  As  As4  1  0.81543318  0.39485526  0.39485427  1
  As  As5  1  0.85514384  0.85514409  0.85514380  1
  As  As6  1  0.43456718  0.85514502  0.85514522  1
  As  As7  1  0.39485600  0.39485579  0.39485663  1
loop_
_geom_bond_atom_site_label_1
_geom_bond_atom_site_label_2
_geom_bond_distance
_geom_bond_site_symmetry_2
Na0 Ti1 2.970035 1_555
Na0 Ti0 2.970036 1_554
Na1 Ti1 2.970007 1_555
Na1 Ti0 2.970030 1_545
Na2 Ti0 2.969999 1_455
Na2 Ti1 2.970000 1_555
Na3 Ti0 2.970398 1_555
Na3 Ti1 2.970408 1_555
As0 Ti0 2.498249 1_555
As0 Na5 2.996963 1_565
As0 Na12 2.996967 1_655
As0 Na14 2.997377 1_555
As0 Na6 3.140621 1_565
As0 Na4 3.140626 1_655
As0 Na8 3.140947 1_665
As0 Na2 3.180613 1_655
As0 Na1 3.180614 1_565
As0 Na3 3.180682 1_555
As1 Ti0 2.498250 1_555
As1 Na13 2.996962 1_655
As1 Na5 2.996967 1_556
As1 Na11 2.997372 1_555
As1 Na4 3.140624 1_655
As1 Na7 3.140625 1_556
As1 Na9 3.140952 1_656
As1 Na2 3.180608 1_655
As1 Na0 3.180617 1_556
As1 Na3 3.180685 1_555
As2 Ti1 2.498249 1_555
As2 Na10 2.996959 1_556
As2 Na9 2.996964 1_556
As2 Na7 2.997373 1_556
As2 Na11 3.140626 1_555
As2 Na15 3.140626 1_555
As2 Na13 3.140943 1_555
As2 Na2 3.180608 1_555
As2 Na1 3.180609 1_555
As2 Na3 3.180679 1_555
As3 Ti1 2.498268 1_555
As3 Na8 2.996964 1_565
As3 Na10 2.996969 1_565
As3 Na6 2.997375 1_565
As3 Na15 3.140624 1_555
As3 Na14 3.140625 1_555
As3 Na12 3.140951 1_555
As3 Na2 3.180606 1_555
As3 Na0 3.180616 1_555
As3 Na3 3.180678 1_555
As4 Ti1 2.498276 1_555
As4 Na9 2.996965 1_655
As4 Na8 2.996968 1_655
As4 Na4 2.997370 1_655
As4 Na14 3.140616 1_555
As4 Na11 3.140634 1_555
As4 Na5 3.140951 1_555
As4 Na0 3.180606 1_555
As4 Na1 3.180611 1_555
As4 Na3 3.180684 1_555
As5 Ti0 2.498519 1_555
As5 Na11 2.997075 1_565
As5 Na15 2.997080 1_655
As5 Na14 2.997083 1_556
As5 Na9 3.140557 1_656
As5 Na8 3.140557 1_665
As5 Na10 3.140563 1_566
As5 Na1 3.180565 1_565
As5 Na0 3.180565 1_556
As5 Na2 3.180572 1_655
As6 Ti0 2.498278 1_555
As6 Na12 2.996967 1_556
As6 Na13 2.996970 1_565
As6 Na15 2.997373 1_555
As6 Na7 3.140622 1_556
As6 Na6 3.140633 1_565
As6 Na10 3.140956 1_566
As6 Na0 3.180609 1_556
As6 Na1 3.180609 1_565
As6 Na3 3.180683 1_555
As7 Ti1 2.498502 1_555
As7 Na6 2.997072 1_555
As7 Na4 2.997081 1_555
As7 Na7 2.997090 1_555
As7 Na13 3.140556 1_555
As7 Na5 3.140558 1_555
As7 Na12 3.140563 1_555
As7 Na1 3.180564 1_555
As7 Na2 3.180568 1_555
As7 Na0 3.180571 1_555
