# generated using pymatgen
data_Re3W
_symmetry_space_group_name_H-M   'P 1'
_cell_length_a   5.59216393
_cell_length_b   5.59216393
_cell_length_c   4.55190200
_cell_angle_alpha   90.00000000
_cell_angle_beta   90.00000000
_cell_angle_gamma   119.99999912
_symmetry_Int_Tables_number   1
_chemical_formula_structural   Re3W
_chemical_formula_sum   'Re6 W2'
_cell_volume   123.27736021
_cell_formula_units_Z   2
loop_
 _symmetry_equiv_pos_site_id
 _symmetry_equiv_pos_as_xyz
  1  'x, y, z'
loop_
 _atom_site_type_symbol
 _atom_site_label
 _atom_site_symmetry_multiplicity
 _atom_site_fract_x
 _atom_site_fract_y
 _atom_site_fract_z
 _atom_site_occupancy
  Re  Re0  1  0.16629100  0.33258300  0.25000000  1
  Re  Re1  1  0.66741700  0.83370900  0.25000000  1
  Re  Re2  1  0.16629100  0.83370900  0.25000000  1
  Re  Re3  1  0.83370900  0.66741700  0.75000000  1
  Re  Re4  1  0.33258300  0.16629100  0.75000000  1
  Re  Re5  1  0.83370900  0.16629100  0.75000000  1
  W  W0  1  0.33333300  0.66666700  0.75000000  1
  W  W1  1  0.66666700  0.33333300  0.25000000  1
loop_
_geom_bond_atom_site_label_1
_geom_bond_atom_site_label_2
_geom_bond_distance
_geom_bond_site_symmetry_2
Re0 Re5 2.788233 1_455
Re0 Re5 2.788233 1_454
Re0 Re4 2.788239 1_555
Re0 Re4 2.788239 1_554
Re0 Re2 2.789785 1_545
Re0 Re1 2.789785 1_445
Re0 W0 2.792441 1_555
Re0 W0 2.792441 1_554
Re0 W1 2.796079 1_455
Re0 W1 2.796090 1_555
Re0 Re2 2.802379 1_555
Re0 Re1 2.802379 1_555
Re1 Re5 2.788233 1_564
Re1 Re5 2.788233 1_565
Re1 Re3 2.788239 1_554
Re1 Re3 2.788239 1_555
Re1 Re2 2.789785 1_655
Re1 W0 2.792441 1_554
Re1 W0 2.792441 1_555
Re1 W1 2.796079 1_565
Re1 W1 2.796090 1_555
Re1 Re2 2.802379 1_555
Re2 Re4 2.788233 1_565
Re2 Re3 2.788233 1_455
Re2 Re3 2.788233 1_454
Re2 Re4 2.788233 1_564
Re2 W0 2.792441 1_555
Re2 W0 2.792441 1_554
Re2 W1 2.796084 1_455
Re2 W1 2.796084 1_565
Re3 Re5 2.789785 1_565
Re3 Re4 2.789785 1_665
Re3 W1 2.792441 1_556
Re3 W1 2.792441 1_555
Re3 W0 2.796079 1_655
Re3 W0 2.796090 1_555
Re3 Re5 2.802379 1_555
Re3 Re4 2.802379 1_555
Re4 Re5 2.789785 1_455
Re4 W1 2.792441 1_556
Re4 W1 2.792441 1_555
Re4 W0 2.796079 1_545
Re4 W0 2.796090 1_555
Re4 Re5 2.802379 1_555
Re5 W1 2.792441 1_555
Re5 W1 2.792441 1_556
Re5 W0 2.796084 1_545
Re5 W0 2.796084 1_655
