# generated using pymatgen
data_ErZnRh2
_symmetry_space_group_name_H-M   'P 1'
_cell_length_a   4.49737052
_cell_length_b   4.49787106
_cell_length_c   4.49907861
_cell_angle_alpha   59.98733336
_cell_angle_beta   59.98827464
_cell_angle_gamma   60.00534827
_symmetry_Int_Tables_number   1
_chemical_formula_structural   ErZnRh2
_chemical_formula_sum   'Er1 Zn1 Rh2'
_cell_volume   64.34454210
_cell_formula_units_Z   1
loop_
 _symmetry_equiv_pos_site_id
 _symmetry_equiv_pos_as_xyz
  1  'x, y, z'
loop_
 _atom_site_type_symbol
 _atom_site_label
 _atom_site_symmetry_multiplicity
 _atom_site_fract_x
 _atom_site_fract_y
 _atom_site_fract_z
 _atom_site_occupancy
  Er  Er0  1  0.24999900  0.25000025  0.24999955  1
  Zn  Zn0  1  0.74999878  0.74999914  0.74999931  1
  Rh  Rh0  1  0.00005312  -0.00000199  0.99996090  1
  Rh  Rh1  1  0.49994710  0.50000060  0.50003824  1
loop_
_geom_bond_atom_site_label_1
_geom_bond_atom_site_label_2
_geom_bond_distance
_geom_bond_site_symmetry_2
Er0 Rh1 2.754211 1_455
Er0 Rh0 2.754220 1_654
Er0 Rh0 2.754293 1_564
Er0 Rh1 2.754300 1_545
Er0 Rh1 2.754425 1_554
Er0 Rh0 2.754425 1_555
Er0 Rh0 2.754600 1_554
Er0 Rh1 2.754602 1_555
Rh0 Zn0 2.753821 1_545
Rh0 Zn0 2.754305 1_455
Rh0 Zn0 2.754703 1_445
Rh0 Zn0 2.754708 1_446
Rh1 Zn0 2.753831 1_455
Rh1 Zn0 2.754307 1_545
Rh1 Zn0 2.754690 1_555
Rh1 Zn0 2.754710 1_554
