# generated using pymatgen
data_Tm2CuPd
_symmetry_space_group_name_H-M   'P 1'
_cell_length_a   4.82762328
_cell_length_b   4.82762328
_cell_length_c   4.82762328
_cell_angle_alpha   60.00000000
_cell_angle_beta   60.00000000
_cell_angle_gamma   60.00000000
_symmetry_Int_Tables_number   1
_chemical_formula_structural   Tm2CuPd
_chemical_formula_sum   'Tm2 Cu1 Pd1'
_cell_volume   79.55823166
_cell_formula_units_Z   1
loop_
 _symmetry_equiv_pos_site_id
 _symmetry_equiv_pos_as_xyz
  1  'x, y, z'
loop_
 _atom_site_type_symbol
 _atom_site_label
 _atom_site_symmetry_multiplicity
 _atom_site_fract_x
 _atom_site_fract_y
 _atom_site_fract_z
 _atom_site_occupancy
  Tm  Tm0  1  0.50000000  0.50000000  0.50000000  1
  Tm  Tm1  1  -0.00000000  -0.00000000  -0.00000000  1
  Cu  Cu0  1  0.25000100  0.25000100  0.25000100  1
  Pd  Pd0  1  0.75000100  0.75000100  0.75000100  1
loop_
_geom_bond_atom_site_label_1
_geom_bond_atom_site_label_2
_geom_bond_distance
_geom_bond_site_symmetry_2
Cu0 Tm0 2.956292 1_555
Cu0 Tm1 2.956299 1_565
Cu0 Tm1 2.956299 1_655
Cu0 Tm1 2.956299 1_556
Cu0 Tm0 2.956307 1_554
Cu0 Tm0 2.956307 1_545
Cu0 Tm0 2.956307 1_455
Cu0 Tm1 2.956315 1_555
Pd0 Tm1 2.956292 1_666
Pd0 Tm0 2.956299 1_556
Pd0 Tm0 2.956299 1_565
Pd0 Tm0 2.956299 1_655
Pd0 Tm1 2.956307 1_656
Pd0 Tm1 2.956307 1_665
Pd0 Tm1 2.956307 1_566
Pd0 Tm0 2.956315 1_555
