# generated using pymatgen
data_Pr3Hf
_symmetry_space_group_name_H-M   'P 1'
_cell_length_a   5.02951600
_cell_length_b   5.02951600
_cell_length_c   5.02951600
_cell_angle_alpha   90.00000000
_cell_angle_beta   90.00000000
_cell_angle_gamma   90.00000000
_symmetry_Int_Tables_number   1
_chemical_formula_structural   Pr3Hf
_chemical_formula_sum   'Pr3 Hf1'
_cell_volume   127.22679363
_cell_formula_units_Z   1
loop_
 _symmetry_equiv_pos_site_id
 _symmetry_equiv_pos_as_xyz
  1  'x, y, z'
loop_
 _atom_site_type_symbol
 _atom_site_label
 _atom_site_symmetry_multiplicity
 _atom_site_fract_x
 _atom_site_fract_y
 _atom_site_fract_z
 _atom_site_occupancy
  Pr  Pr0  1  0.50000000  0.00000000  0.50000000  1
  Pr  Pr1  1  0.00000000  0.50000000  0.50000000  1
  Pr  Pr2  1  0.50000000  0.50000000  0.00000000  1
  Hf  Hf0  1  0.00000000  0.00000000  0.00000000  1
loop_
_geom_bond_atom_site_label_1
_geom_bond_atom_site_label_2
_geom_bond_distance
_geom_bond_site_symmetry_2
Pr0 Pr1 3.556405 1_545
Pr0 Pr1 3.556405 1_555
Pr0 Pr2 3.556405 1_556
Pr0 Pr1 3.556405 1_645
Pr0 Pr2 3.556405 1_545
Pr0 Pr2 3.556405 1_555
Pr0 Pr2 3.556405 1_546
Pr0 Pr1 3.556405 1_655
Pr1 Pr2 3.556405 1_556
Pr1 Pr2 3.556405 1_555
Pr1 Pr2 3.556405 1_455
Pr1 Pr2 3.556405 1_456
Hf0 Pr1 3.556405 1_545
Hf0 Pr1 3.556405 1_544
Hf0 Pr1 3.556405 1_555
Hf0 Pr2 3.556405 1_445
Hf0 Pr0 3.556405 1_554
Hf0 Pr1 3.556405 1_554
Hf0 Pr0 3.556405 1_454
Hf0 Pr2 3.556405 1_545
Hf0 Pr0 3.556405 1_555
Hf0 Pr2 3.556405 1_555
Hf0 Pr2 3.556405 1_455
Hf0 Pr0 3.556405 1_455
