# generated using pymatgen
data_Hf6Al16Rh7
_symmetry_space_group_name_H-M   'P 1'
_cell_length_a   8.63003689
_cell_length_b   8.63002717
_cell_length_c   8.63005350
_cell_angle_alpha   60.00003613
_cell_angle_beta   60.00002515
_cell_angle_gamma   59.99996387
_symmetry_Int_Tables_number   1
_chemical_formula_structural   Hf6Al16Rh7
_chemical_formula_sum   'Hf6 Al16 Rh7'
_cell_volume   454.48901219
_cell_formula_units_Z   1
loop_
 _symmetry_equiv_pos_site_id
 _symmetry_equiv_pos_as_xyz
  1  'x, y, z'
loop_
 _atom_site_type_symbol
 _atom_site_label
 _atom_site_symmetry_multiplicity
 _atom_site_fract_x
 _atom_site_fract_y
 _atom_site_fract_z
 _atom_site_occupancy
  Hf  Hf0  1  0.68610400  0.31390609  0.31388891  1
  Hf  Hf1  1  0.31389490  0.68609588  0.68610911  1
  Hf  Hf2  1  0.31390549  0.68610560  0.31388719  1
  Hf  Hf3  1  0.31389741  0.31389654  0.68611222  1
  Hf  Hf4  1  0.68609625  0.31389321  0.68611042  1
  Hf  Hf5  1  0.68610189  0.68610323  0.31388601  1
  Al  Al0  1  0.33680247  0.33680000  0.33680224  1
  Al  Al1  1  0.33679980  0.33679961  0.98960015  1
  Al  Al2  1  0.98959542  0.33679970  0.33680277  1
  Al  Al3  1  0.33680079  0.98959513  0.33680332  1
  Al  Al4  1  0.66319853  0.66319954  0.66319615  1
  Al  Al5  1  0.66319935  0.66319950  0.01040121  1
  Al  Al6  1  0.66320023  0.01040440  0.66319663  1
  Al  Al7  1  0.01040412  0.66320024  0.66319684  1
  Al  Al8  1  0.11942536  0.11942609  0.11941258  1
  Al  Al9  1  0.11941980  0.11942000  0.64173659  1
  Al  Al10  1  0.64173605  0.11942494  0.11941129  1
  Al  Al11  1  0.11942481  0.64173600  0.11941138  1
  Al  Al12  1  0.88057385  0.88057347  0.88058756  1
  Al  Al13  1  0.88057963  0.88057944  0.35826279  1
  Al  Al14  1  0.88057457  0.35826350  0.88058881  1
  Al  Al15  1  0.35826419  0.88057450  0.88058832  1
  Rh  Rh0  1  -0.00000092  0.00000005  0.00000073  1
  Rh  Rh1  1  0.50000034  -0.00000164  0.00000094  1
  Rh  Rh2  1  0.00000015  0.49999956  0.49999981  1
  Rh  Rh3  1  -0.00000179  0.50000040  0.00000079  1
  Rh  Rh4  1  -0.00000040  0.00000003  0.50000002  1
  Rh  Rh5  1  0.49999923  0.00000074  0.49999852  1
  Rh  Rh6  1  0.49999946  0.49999926  0.00000170  1
loop_
_geom_bond_atom_site_label_1
_geom_bond_atom_site_label_2
_geom_bond_distance
_geom_bond_site_symmetry_2
Hf0 Rh3 3.149196 1_655
Hf0 Rh6 3.149218 1_555
Hf0 Rh4 3.149303 1_655
Hf0 Rh5 3.149323 1_555
Hf0 Hf5 3.212050 1_555
Hf0 Hf2 3.212088 1_555
Hf0 Hf4 3.212203 1_555
Hf0 Hf3 3.212233 1_555
Hf1 Rh3 3.149221 1_556
Hf1 Rh6 3.149253 1_556
Hf1 Rh4 3.149289 1_565
Hf1 Rh5 3.149315 1_565
Hf1 Hf3 3.212066 1_555
Hf1 Hf4 3.212114 1_555
Hf1 Hf2 3.212207 1_555
Hf1 Hf5 3.212234 1_555
Hf2 Rh1 3.149186 1_565
Hf2 Rh6 3.149212 1_555
Hf2 Rh4 3.149301 1_565
Hf2 Rh2 3.149327 1_555
Hf2 Hf5 3.212053 1_555
Hf2 Hf3 3.212250 1_555
Hf3 Rh1 3.149217 1_556
Hf3 Rh3 3.149221 1_556
Hf3 Rh5 3.149316 1_555
Hf3 Rh2 3.149321 1_555
Hf3 Hf4 3.212068 1_555
Hf4 Rh1 3.149209 1_556
Hf4 Rh6 3.149249 1_556
Hf4 Rh4 3.149279 1_655
Hf4 Rh2 3.149321 1_655
Hf4 Hf5 3.212251 1_555
Hf5 Rh1 3.149185 1_565
Hf5 Rh3 3.149192 1_655
Hf5 Rh5 3.149321 1_565
Hf5 Rh2 3.149336 1_655
Al0 Rh5 2.492333 1_555
Al0 Rh6 2.492354 1_555
Al0 Rh2 2.492360 1_555
Al0 Hf0 2.830662 1_555
Al0 Hf2 2.830676 1_555
Al0 Hf3 2.830736 1_555
Al1 Rh6 2.492357 1_556
Al1 Rh1 2.492358 1_556
Al1 Rh3 2.492364 1_556
Al1 Hf3 2.830603 1_555
Al1 Hf4 2.830623 1_555
Al1 Hf1 2.830626 1_555
Al2 Rh4 2.492341 1_655
Al2 Rh2 2.492357 1_655
Al2 Rh3 2.492369 1_655
Al2 Hf0 2.830639 1_555
Al2 Hf5 2.830666 1_555
Al2 Hf4 2.830714 1_555
Al3 Rh5 2.492338 1_565
Al3 Rh4 2.492353 1_565
Al3 Rh1 2.492371 1_565
Al3 Hf2 2.830639 1_555
Al3 Hf5 2.830648 1_555
Al3 Hf1 2.830705 1_555
Al4 Rh5 2.492352 1_565
Al4 Rh2 2.492354 1_655
Al4 Rh6 2.492387 1_556
Al4 Hf1 2.830672 1_555
Al4 Hf4 2.830682 1_555
Al4 Hf5 2.830743 1_555
Al5 Rh1 2.492342 1_565
Al5 Rh3 2.492344 1_655
Al5 Rh6 2.492352 1_555
Al5 Hf5 2.830580 1_555
Al5 Hf2 2.830597 1_555
Al5 Hf0 2.830599 1_555
Al6 Rh4 2.492341 1_655
Al6 Rh5 2.492369 1_555
Al6 Rh1 2.492379 1_556
Al6 Hf4 2.830625 1_555
Al6 Hf3 2.830658 1_555
Al6 Hf0 2.830723 1_555
Al7 Rh4 2.492341 1_565
Al7 Rh2 2.492359 1_555
Al7 Rh3 2.492376 1_556
Al7 Hf1 2.830635 1_555
Al7 Hf3 2.830665 1_555
Al7 Hf2 2.830732 1_555
Al8 Rh0 2.524472 1_555
Al8 Rh3 2.683978 1_555
Al8 Rh1 2.683986 1_555
Al8 Rh4 2.684079 1_555
Al8 Hf3 3.143491 1_554
Al8 Hf2 3.143617 1_545
Al8 Hf0 3.143627 1_455
Al9 Rh0 2.524477 1_556
Al9 Rh4 2.683999 1_555
Al9 Rh2 2.684015 1_555
Al9 Rh5 2.684017 1_555
Al9 Hf4 3.143627 1_455
Al9 Hf1 3.143630 1_545
Al9 Hf3 3.143670 1_555
Al10 Rh0 2.524463 1_655
Al10 Rh1 2.683970 1_555
Al10 Rh6 2.683978 1_555
Al10 Rh5 2.684078 1_555
Al10 Hf4 3.143491 1_554
Al10 Hf5 3.143626 1_545
Al10 Hf0 3.143663 1_555
Al11 Rh0 2.524467 1_565
Al11 Rh3 2.683971 1_555
Al11 Rh6 2.683983 1_555
Al11 Rh2 2.684086 1_555
Al11 Hf1 3.143502 1_554
Al11 Hf5 3.143636 1_455
Al11 Hf2 3.143657 1_555
Al12 Rh0 2.524477 1_666
Al12 Rh3 2.683969 1_656
Al12 Rh1 2.683975 1_566
Al12 Rh4 2.684080 1_665
Al12 Hf5 3.143479 1_556
Al12 Hf4 3.143613 1_565
Al12 Hf1 3.143625 1_655
Al13 Rh0 2.524462 1_665
Al13 Rh4 2.684007 1_665
Al13 Rh2 2.684018 1_655
Al13 Rh5 2.684023 1_565
Al13 Hf2 3.143641 1_655
Al13 Hf0 3.143646 1_565
Al13 Hf5 3.143675 1_555
Al14 Rh0 2.524463 1_656
Al14 Rh3 2.683970 1_656
Al14 Rh6 2.683986 1_556
Al14 Rh2 2.684090 1_655
Al14 Hf0 3.143490 1_556
Al14 Hf3 3.143635 1_655
Al14 Hf4 3.143662 1_555
Al15 Rh0 2.524477 1_566
Al15 Rh1 2.683970 1_566
Al15 Rh6 2.683984 1_556
Al15 Rh5 2.684095 1_565
Al15 Hf2 3.143479 1_556
Al15 Hf3 3.143627 1_565
Al15 Hf1 3.143663 1_555
