# generated using pymatgen
data_Cs6GaSb3
_symmetry_space_group_name_H-M   'P 1'
_cell_length_a   6.53404245
_cell_length_b   11.01419747
_cell_length_c   12.87400000
_cell_angle_alpha   78.86564506
_cell_angle_beta   90.00000000
_cell_angle_gamma   90.00000000
_symmetry_Int_Tables_number   1
_chemical_formula_structural   Cs6GaSb3
_chemical_formula_sum   'Cs12 Ga2 Sb6'
_cell_volume   909.06658866
_cell_formula_units_Z   2
loop_
 _symmetry_equiv_pos_site_id
 _symmetry_equiv_pos_as_xyz
  1  'x, y, z'
loop_
 _atom_site_type_symbol
 _atom_site_label
 _atom_site_symmetry_multiplicity
 _atom_site_fract_x
 _atom_site_fract_y
 _atom_site_fract_z
 _atom_site_occupancy
  Cs  Cs0  1  0.75000000  0.45588237  0.07834752  1
  Cs  Cs1  1  0.25000000  0.54411763  0.92165248  1
  Cs  Cs2  1  0.75000000  0.74911407  0.22169841  1
  Cs  Cs3  1  0.25000000  0.25088593  0.77830159  1
  Cs  Cs4  1  0.25000000  0.55540353  0.55032715  1
  Cs  Cs5  1  0.75000000  0.44459647  0.44967285  1
  Cs  Cs6  1  0.25000000  0.86507451  0.02198086  1
  Cs  Cs7  1  0.75000000  0.13492549  0.97801914  1
  Cs  Cs8  1  0.25000000  0.87625924  0.67546315  1
  Cs  Cs9  1  0.75000000  0.12374076  0.32453685  1
  Cs  Cs10  1  0.25000000  0.90663466  0.36762992  1
  Cs  Cs11  1  0.75000000  0.09336534  0.63237008  1
  Ga  Ga0  1  0.75000000  0.67722218  0.72044105  1
  Ga  Ga1  1  0.25000000  0.32277782  0.27955895  1
  Sb  Sb0  1  0.25000000  0.21449019  0.48109785  1
  Sb  Sb1  1  0.75000000  0.78550981  0.51890215  1
  Sb  Sb2  1  0.25000000  0.56525616  0.23222201  1
  Sb  Sb3  1  0.75000000  0.43474384  0.76777799  1
  Sb  Sb4  1  0.75000000  0.81089286  0.87452406  1
  Sb  Sb5  1  0.25000000  0.18910714  0.12547594  1
loop_
_geom_bond_atom_site_label_1
_geom_bond_atom_site_label_2
_geom_bond_distance
_geom_bond_site_symmetry_2
Cs0 Sb3 4.049681 1_554
Cs0 Sb2 4.119540 1_555
Cs0 Sb2 4.119540 1_655
Cs0 Sb4 4.267559 1_554
Cs0 Sb5 4.357374 1_555
Cs0 Sb5 4.357374 1_655
Cs1 Sb2 4.049681 1_556
Cs1 Sb3 4.119540 1_455
Cs1 Sb3 4.119540 1_555
Cs1 Sb5 4.267559 1_556
Cs1 Sb4 4.357374 1_455
Cs1 Sb4 4.357374 1_555
Cs2 Sb2 3.832315 1_555
Cs2 Sb2 3.832315 1_655
Cs2 Sb1 3.923379 1_555
Cs2 Sb4 4.389196 1_554
Cs3 Sb3 3.832315 1_555
Cs3 Sb3 3.832315 1_455
Cs3 Sb0 3.923379 1_555
Cs3 Sb5 4.389196 1_556
Cs4 Sb0 4.023187 1_555
Cs4 Sb2 4.075721 1_555
Cs4 Sb1 4.106636 1_455
Cs4 Sb1 4.106636 1_555
Cs4 Sb3 4.340470 1_555
Cs4 Sb3 4.340470 1_455
Cs5 Sb1 4.023187 1_555
Cs5 Sb3 4.075721 1_555
Cs5 Sb0 4.106636 1_555
Cs5 Sb0 4.106636 1_655
Cs5 Sb2 4.340470 1_555
Cs5 Sb2 4.340470 1_655
Cs6 Sb2 3.844318 1_555
Cs6 Sb4 3.882121 1_454
Cs6 Sb4 3.882121 1_554
Cs6 Sb5 4.043431 1_565
Cs7 Sb3 3.844318 1_555
Cs7 Sb5 3.882121 1_556
Cs7 Sb5 3.882121 1_656
Cs7 Sb4 4.043431 1_545
Cs8 Ga0 3.914631 1_555
Cs8 Ga0 3.914631 1_455
Cs8 Sb1 4.063630 1_455
Cs8 Sb1 4.063630 1_555
Cs8 Sb0 4.066843 1_565
Cs8 Sb4 4.128760 1_455
Cs8 Sb4 4.128760 1_555
Cs9 Ga1 3.914631 1_555
Cs9 Ga1 3.914631 1_655
Cs9 Sb0 4.063630 1_555
Cs9 Sb0 4.063630 1_655
Cs9 Sb1 4.066843 1_545
Cs9 Sb5 4.128760 1_555
Cs9 Sb5 4.128760 1_655
Cs10 Sb1 3.904159 1_455
Cs10 Sb1 3.904159 1_555
Cs10 Sb0 3.942629 1_565
Cs10 Sb5 3.956304 1_565
Cs10 Sb2 4.439380 1_555
Cs11 Sb0 3.904159 1_655
Cs11 Sb0 3.904159 1_555
Cs11 Sb1 3.942629 1_545
Cs11 Sb4 3.956304 1_545
Cs11 Sb3 4.439380 1_555
Ga0 Sb3 2.622108 1_555
Ga0 Sb1 2.638058 1_555
Ga0 Sb4 2.688955 1_555
Ga1 Sb2 2.622108 1_555
Ga1 Sb0 2.638058 1_555
Ga1 Sb5 2.688955 1_555
