# generated using pymatgen
data_NaMoO3
_symmetry_space_group_name_H-M   'P 1'
_cell_length_a   5.54082895
_cell_length_b   5.54082895
_cell_length_c   5.54082899
_cell_angle_alpha   59.82848922
_cell_angle_beta   59.82848922
_cell_angle_gamma   59.82847977
_symmetry_Int_Tables_number   1
_chemical_formula_structural   NaMoO3
_chemical_formula_sum   'Na2 Mo2 O6'
_cell_volume   119.81613446
_cell_formula_units_Z   2
loop_
 _symmetry_equiv_pos_site_id
 _symmetry_equiv_pos_as_xyz
  1  'x, y, z'
loop_
 _atom_site_type_symbol
 _atom_site_label
 _atom_site_symmetry_multiplicity
 _atom_site_fract_x
 _atom_site_fract_y
 _atom_site_fract_z
 _atom_site_occupancy
  Na  Na0  1  0.25868000  0.25868000  0.25868000  1
  Na  Na1  1  0.75868000  0.75868000  0.75868000  1
  Mo  Mo0  1  0.00519000  0.00519000  0.00519000  1
  Mo  Mo1  1  0.50519000  0.50519000  0.50519000  1
  O  O0  1  0.79904000  0.25460800  0.71098100  1
  O  O1  1  0.71098100  0.79904000  0.25460800  1
  O  O2  1  0.25460800  0.71098100  0.79904000  1
  O  O3  1  0.29904000  0.21098100  0.75460800  1
  O  O4  1  0.21098100  0.75460800  0.29904000  1
  O  O5  1  0.75460800  0.29904000  0.21098100  1
loop_
_geom_bond_atom_site_label_1
_geom_bond_atom_site_label_2
_geom_bond_distance
_geom_bond_site_symmetry_2
Na0 O1 2.520432 1_545
Na0 O2 2.520433 1_554
Na0 O0 2.520433 1_455
Na0 O4 2.738398 1_555
Na0 O3 2.738398 1_555
Na0 O5 2.738398 1_555
Na0 O5 2.824063 1_455
Na0 O3 2.824063 1_554
Na0 O4 2.824063 1_545
Na1 O3 2.520432 1_565
Na1 O4 2.520433 1_655
Na1 O5 2.520433 1_556
Na1 O2 2.738398 1_655
Na1 O1 2.738398 1_556
Na1 O0 2.738398 1_565
Na1 O0 2.824063 1_555
Na1 O1 2.824063 1_555
Na1 O2 2.824063 1_555
Mo0 O5 1.970109 1_455
Mo0 O4 1.970109 1_545
Mo0 O3 1.970109 1_554
Mo0 O2 1.972927 1_544
Mo0 O0 1.972927 1_454
Mo0 O1 1.972928 1_445
Mo1 O0 1.970109 1_555
Mo1 O2 1.970109 1_555
Mo1 O1 1.970109 1_555
Mo1 O4 1.972927 1_555
Mo1 O5 1.972927 1_555
Mo1 O3 1.972928 1_555
