# generated using pymatgen
data_Ta2NbRh
_symmetry_space_group_name_H-M   'P 1'
_cell_length_a   4.55926509
_cell_length_b   4.55911226
_cell_length_c   4.55936400
_cell_angle_alpha   59.99890933
_cell_angle_beta   60.00049102
_cell_angle_gamma   59.99936396
_symmetry_Int_Tables_number   1
_chemical_formula_structural   Ta2NbRh
_chemical_formula_sum   'Ta2 Nb1 Rh1'
_cell_volume   67.01319778
_cell_formula_units_Z   1
loop_
 _symmetry_equiv_pos_site_id
 _symmetry_equiv_pos_as_xyz
  1  'x, y, z'
loop_
 _atom_site_type_symbol
 _atom_site_label
 _atom_site_symmetry_multiplicity
 _atom_site_fract_x
 _atom_site_fract_y
 _atom_site_fract_z
 _atom_site_occupancy
  Ta  Ta0  1  0.00000255  0.99999393  0.00000110  1
  Ta  Ta1  1  0.50000073  0.50000538  0.49999738  1
  Nb  Nb0  1  0.24999810  0.25000135  0.25000138  1
  Rh  Rh0  1  0.75000062  0.74999935  0.75000014  1
loop_
_geom_bond_atom_site_label_1
_geom_bond_atom_site_label_2
_geom_bond_distance
_geom_bond_site_symmetry_2
Nb0 Ta0 2.791807 1_555
Nb0 Ta1 2.791820 1_545
Nb0 Ta1 2.791963 1_455
Nb0 Ta1 2.791976 1_555
Nb0 Ta0 2.791978 1_545
Nb0 Ta0 2.791989 1_645
Nb0 Ta0 2.792020 1_546
Nb0 Ta1 2.792036 1_554
Rh0 Ta0 2.791855 1_646
Rh0 Ta1 2.791857 1_565
Rh0 Ta1 2.791953 1_555
Rh0 Ta0 2.791957 1_656
Rh0 Ta0 2.791966 1_556
Rh0 Ta1 2.791973 1_655
Rh0 Ta1 2.792010 1_556
Rh0 Ta0 2.792017 1_655
