# generated using pymatgen
data_K3NpO2F5
_symmetry_space_group_name_H-M   'P 1'
_cell_length_a   11.29458938
_cell_length_b   11.29458938
_cell_length_c   11.29458938
_cell_angle_alpha   131.46932820
_cell_angle_beta   131.46932820
_cell_angle_gamma   71.06846777
_symmetry_Int_Tables_number   1
_chemical_formula_structural   K3NpO2F5
_chemical_formula_sum   'K12 Np4 O8 F20'
_cell_volume   792.09514628
_cell_formula_units_Z   4
loop_
 _symmetry_equiv_pos_site_id
 _symmetry_equiv_pos_as_xyz
  1  'x, y, z'
loop_
 _atom_site_type_symbol
 _atom_site_label
 _atom_site_symmetry_multiplicity
 _atom_site_fract_x
 _atom_site_fract_y
 _atom_site_fract_z
 _atom_site_occupancy
  K  K0  1  0.67634800  0.15189400  0.05479200  1
  K  K1  1  0.37155600  0.92634800  0.02445300  1
  K  K2  1  0.90189400  0.34710300  0.97554700  1
  K  K3  1  0.09710300  0.62155600  0.94520800  1
  K  K4  1  0.07365200  0.09810600  0.44520800  1
  K  K5  1  0.37844400  0.32365200  0.47554700  1
  K  K6  1  0.84810600  0.90289700  0.52445300  1
  K  K7  1  0.65289700  0.62844400  0.55479200  1
  K  K8  1  0.50000000  0.50000000  0.00000000  1
  K  K9  1  0.25000000  0.75000000  0.50000000  1
  K  K10  1  0.00000000  0.00000000  0.00000000  1
  K  K11  1  0.75000000  0.25000000  0.50000000  1
  Np  Np0  1  0.02125500  0.52125500  0.50000000  1
  Np  Np1  1  0.27125500  0.27125500  0.00000000  1
  Np  Np2  1  0.72874500  0.72874500  0.00000000  1
  Np  Np3  1  0.47874500  0.97874500  0.50000000  1
  O  O0  1  0.23081900  0.46453600  0.15197600  1
  O  O1  1  0.82884300  0.48081900  0.26628300  1
  O  O2  1  0.21453600  0.56256000  0.73371700  1
  O  O3  1  0.31256000  0.07884300  0.84802400  1
  O  O4  1  0.51918100  0.78546400  0.34802400  1
  O  O5  1  0.92115700  0.76918100  0.23371700  1
  O  O6  1  0.53546400  0.68744000  0.76628300  1
  O  O7  1  0.43744000  0.17115700  0.65197600  1
  F  F0  1  0.74864900  0.06749300  0.77581900  1
  F  F1  1  0.72283000  0.99864900  0.18115500  1
  F  F2  1  0.81749300  0.54167500  0.81884500  1
  F  F3  1  0.29167500  0.97283000  0.22418100  1
  F  F4  1  0.00135100  0.18250700  0.72418100  1
  F  F5  1  0.02717000  0.25135100  0.31884500  1
  F  F6  1  0.93250700  0.70832500  0.68115500  1
  F  F7  1  0.45832500  0.27717000  0.27581900  1
  F  F8  1  0.60464200  0.10464200  0.50000000  1
  F  F9  1  0.85464200  0.85464200  0.00000000  1
  F  F10  1  0.14535800  0.14535800  0.00000000  1
  F  F11  1  0.89535800  0.39535800  0.50000000  1
  F  F12  1  0.51257900  0.38873900  0.16289500  1
  F  F13  1  0.09968300  0.76257900  0.62384000  1
  F  F14  1  0.13873900  0.47584400  0.37616000  1
  F  F15  1  0.22584400  0.34968300  0.83710500  1
  F  F16  1  0.23742100  0.86126100  0.33710500  1
  F  F17  1  0.65031700  0.48742100  0.87616000  1
  F  F18  1  0.61126100  0.77415600  0.12384000  1
  F  F19  1  0.52415600  0.90031700  0.66289500  1
loop_
_geom_bond_atom_site_label_1
_geom_bond_atom_site_label_2
_geom_bond_distance
_geom_bond_site_symmetry_2
K0 O1 3.069825 1_555
K0 O3 3.155340 1_554
K1 O3 3.069815 1_564
K1 O2 3.155342 1_554
K2 O0 3.069825 1_656
K2 O1 3.155333 1_556
K3 O2 3.069815 1_555
K3 O0 3.155342 1_556
K4 O5 3.069825 1_445
K4 O7 3.155340 1_555
K5 O7 3.069815 1_555
K5 O6 3.155342 1_555
K6 O4 3.069825 1_555
K6 O5 3.155333 1_555
K7 O6 3.069815 1_555
K7 O4 3.155342 1_555
K8 O7 2.904034 1_554
K8 O4 2.904034 1_555
K8 O1 2.904034 1_555
K8 O2 2.904034 1_554
K9 O3 2.904034 1_565
K9 O5 2.904034 1_455
K9 O6 2.904034 1_555
K9 O0 2.904034 1_555
Np0 O1 1.830036 1_455
Np0 O2 1.830036 1_555
Np1 O3 1.830036 1_554
Np1 O0 1.830036 1_555
Np2 O6 1.830036 1_554
Np2 O5 1.830036 1_555
Np3 O4 1.830036 1_555
Np3 O7 1.830036 1_565
F0 Np3 2.296051 1_545
F0 K10 2.585251 1_656
F0 K2 2.645410 1_555
F0 K6 2.942239 1_545
F0 K0 3.229276 1_556
F1 Np2 2.296050 1_555
F1 K11 2.585258 1_565
F1 K0 2.645395 1_565
F1 K4 2.942230 1_665
F1 K1 3.229276 1_555
F2 Np2 2.296042 1_556
F2 K11 2.585260 1_555
F2 K3 2.645417 1_655
F2 K7 2.942230 1_555
F2 K2 3.229276 1_555
F3 Np3 2.296050 1_555
F3 K10 2.585258 1_565
F3 K1 2.645406 1_555
F3 K5 2.942228 1_565
F3 K3 3.229276 1_554
F4 Np1 2.296051 1_556
F4 K11 2.585251 1_455
F4 K6 2.645410 1_445
F4 K2 2.942239 1_455
F4 K4 3.229276 1_555
F5 Np0 2.296050 1_555
F5 K10 2.585258 1_555
F5 K4 2.645395 1_555
F5 K0 2.942230 1_455
F5 K5 3.229276 1_555
F6 Np0 2.296042 1_655
F6 K10 2.585260 1_666
F6 K7 2.645417 1_555
F6 K3 2.942230 1_655
F6 K6 3.229276 1_555
F7 Np1 2.296050 1_555
F7 K11 2.585258 1_555
F7 K5 2.645406 1_555
F7 K1 2.942228 1_545
F7 K7 3.229276 1_555
F8 Np3 2.314284 1_545
F8 K11 2.672023 1_555
F8 K5 2.931180 1_555
F8 K6 2.931187 1_545
F8 K2 3.197148 1_555
F8 K1 3.197150 1_545
F9 Np2 2.314284 1_555
F9 K10 2.672023 1_665
F9 K7 2.931180 1_554
F9 K4 2.931181 1_665
F9 K0 3.197142 1_565
F9 K3 3.197150 1_654
F10 Np1 2.314284 1_555
F10 K10 2.672023 1_555
F10 K1 2.931180 1_545
F10 K2 2.931187 1_454
F10 K6 3.197148 1_444
F10 K5 3.197150 1_555
F11 Np0 2.314284 1_655
F11 K11 2.672023 1_555
F11 K3 2.931180 1_655
F11 K0 2.931181 1_555
F11 K4 3.197142 1_655
F11 K7 3.197150 1_555
F12 Np1 2.246474 1_555
F12 K7 2.656208 1_555
F12 K0 2.742769 1_555
F12 K8 2.753981 1_555
F13 Np0 2.246469 1_555
F13 K6 2.656194 1_455
F13 K1 2.742766 1_556
F13 K9 2.753991 1_555
F14 Np0 2.246474 1_555
F14 K5 2.656208 1_555
F14 K2 2.742764 1_454
F14 K9 2.753981 1_555
F15 Np1 2.246464 1_556
F15 K4 2.656204 1_555
F15 K3 2.742771 1_555
F15 K8 2.753987 1_556
F16 Np3 2.246474 1_555
F16 K3 2.656208 1_554
F16 K4 2.742769 1_565
F16 K9 2.753981 1_555
F17 Np2 2.246469 1_556
F17 K2 2.656194 1_555
F17 K5 2.742766 1_555
F17 K8 2.753991 1_556
F18 Np2 2.246474 1_555
F18 K1 2.656208 1_555
F18 K6 2.742764 1_555
F18 K8 2.753981 1_555
F19 Np3 2.246464 1_555
F19 K0 2.656204 1_566
F19 K7 2.742771 1_555
F19 K9 2.753987 1_555
