# generated using pymatgen
data_Yb3Y
_symmetry_space_group_name_H-M   'P 1'
_cell_length_a   7.15813922
_cell_length_b   7.15813922
_cell_length_c   5.51933739
_cell_angle_alpha   90.00000000
_cell_angle_beta   90.00000000
_cell_angle_gamma   119.99999511
_symmetry_Int_Tables_number   1
_chemical_formula_structural   Yb3Y
_chemical_formula_sum   'Yb6 Y2'
_cell_volume   244.91640588
_cell_formula_units_Z   2
loop_
 _symmetry_equiv_pos_site_id
 _symmetry_equiv_pos_as_xyz
  1  'x, y, z'
loop_
 _atom_site_type_symbol
 _atom_site_label
 _atom_site_symmetry_multiplicity
 _atom_site_fract_x
 _atom_site_fract_y
 _atom_site_fract_z
 _atom_site_occupancy
  Yb  Yb0  1  0.16537725  0.33075549  0.25000000  1
  Yb  Yb1  1  0.66924451  0.83462275  0.25000000  1
  Yb  Yb2  1  0.16537725  0.83462275  0.25000000  1
  Yb  Yb3  1  0.83462275  0.66924451  0.75000000  1
  Yb  Yb4  1  0.33075549  0.16537725  0.75000000  1
  Yb  Yb5  1  0.83462275  0.16537725  0.75000000  1
  Y  Y0  1  0.33333300  0.66666700  0.75000000  1
  Y  Y1  1  0.66666700  0.33333300  0.25000000  1
loop_
_geom_bond_atom_site_label_1
_geom_bond_atom_site_label_2
_geom_bond_distance
_geom_bond_site_symmetry_2
Yb0 Yb5 3.438004 1_454
Yb0 Yb5 3.438004 1_455
Yb0 Yb4 3.438011 1_555
Yb0 Yb4 3.438011 1_554
Yb0 Yb2 3.551387 1_545
Yb0 Yb1 3.551387 1_445
Yb0 Yb2 3.606752 1_555
Yb0 Yb1 3.606752 1_555
Yb1 Yb5 3.438004 1_565
Yb1 Yb5 3.438004 1_564
Yb1 Yb3 3.438011 1_555
Yb1 Yb3 3.438011 1_554
Yb1 Yb2 3.551387 1_655
Yb1 Yb2 3.606752 1_555
Yb2 Yb4 3.438004 1_564
Yb2 Yb4 3.438004 1_565
Yb2 Yb3 3.438004 1_455
Yb2 Yb3 3.438004 1_454
Yb3 Yb5 3.551387 1_565
Yb3 Yb4 3.551387 1_665
Yb3 Yb5 3.606752 1_555
Yb3 Yb4 3.606752 1_555
Yb4 Yb5 3.551387 1_455
Yb4 Yb5 3.606752 1_555
Y0 Yb2 3.457165 1_556
Y0 Yb2 3.457165 1_555
Y0 Yb0 3.457165 1_555
Y0 Yb0 3.457165 1_556
Y0 Yb1 3.457165 1_556
Y0 Yb1 3.457165 1_555
Y0 Yb4 3.579098 1_565
Y0 Yb3 3.579098 1_455
Y0 Yb5 3.579106 1_455
Y0 Yb5 3.579106 1_565
Y0 Yb4 3.579112 1_555
Y0 Yb3 3.579112 1_555
Y1 Yb5 3.457165 1_555
Y1 Yb5 3.457165 1_554
Y1 Yb3 3.457165 1_554
Y1 Yb3 3.457165 1_555
Y1 Yb4 3.457165 1_555
Y1 Yb4 3.457165 1_554
Y1 Yb0 3.579098 1_655
Y1 Yb1 3.579098 1_545
Y1 Yb2 3.579106 1_545
Y1 Yb2 3.579106 1_655
Y1 Yb0 3.579112 1_555
Y1 Yb1 3.579112 1_555
