# generated using pymatgen
data_SmGe3
_symmetry_space_group_name_H-M   'P 1'
_cell_length_a   6.12356848
_cell_length_b   6.12356848
_cell_length_c   5.21606400
_cell_angle_alpha   90.00000000
_cell_angle_beta   90.00000000
_cell_angle_gamma   120.00000515
_symmetry_Int_Tables_number   1
_chemical_formula_structural   SmGe3
_chemical_formula_sum   'Sm2 Ge6'
_cell_volume   169.38801472
_cell_formula_units_Z   2
loop_
 _symmetry_equiv_pos_site_id
 _symmetry_equiv_pos_as_xyz
  1  'x, y, z'
loop_
 _atom_site_type_symbol
 _atom_site_label
 _atom_site_symmetry_multiplicity
 _atom_site_fract_x
 _atom_site_fract_y
 _atom_site_fract_z
 _atom_site_occupancy
  Sm  Sm0  1  0.33333300  0.66666700  0.75000000  1
  Sm  Sm1  1  0.66666700  0.33333300  0.25000000  1
  Ge  Ge0  1  0.14828900  0.29657700  0.25000000  1
  Ge  Ge1  1  0.70342300  0.85171100  0.25000000  1
  Ge  Ge2  1  0.14828900  0.85171100  0.25000000  1
  Ge  Ge3  1  0.85171100  0.70342300  0.75000000  1
  Ge  Ge4  1  0.29657700  0.14828900  0.75000000  1
  Ge  Ge5  1  0.85171100  0.14828900  0.75000000  1
loop_
_geom_bond_atom_site_label_1
_geom_bond_atom_site_label_2
_geom_bond_distance
_geom_bond_site_symmetry_2
Ge0 Ge1 2.724167 1_445
Ge0 Ge2 2.724167 1_545
Ge0 Ge4 3.045571 1_555
Ge0 Ge4 3.045571 1_554
Ge0 Ge5 3.045577 1_455
Ge0 Ge5 3.045577 1_454
Ge0 Sm1 3.067983 1_555
Ge0 Sm1 3.067983 1_455
Ge0 Sm0 3.264019 1_555
Ge0 Sm0 3.264019 1_554
Ge1 Ge2 2.724167 1_655
Ge1 Ge3 3.045571 1_555
Ge1 Ge3 3.045571 1_554
Ge1 Ge5 3.045577 1_565
Ge1 Ge5 3.045577 1_564
Ge1 Sm1 3.067983 1_555
Ge1 Sm1 3.067983 1_565
Ge1 Sm0 3.264019 1_554
Ge1 Sm0 3.264019 1_555
Ge2 Ge3 3.045577 1_455
Ge2 Ge3 3.045577 1_454
Ge2 Ge4 3.045577 1_565
Ge2 Ge4 3.045577 1_564
Ge2 Sm1 3.067982 1_455
Ge2 Sm1 3.067982 1_565
Ge2 Sm0 3.264013 1_555
Ge2 Sm0 3.264013 1_554
Ge3 Ge4 2.724167 1_665
Ge3 Ge5 2.724167 1_565
Ge3 Sm0 3.067983 1_555
Ge3 Sm0 3.067983 1_655
Ge3 Sm1 3.264019 1_556
Ge3 Sm1 3.264019 1_555
Ge4 Ge5 2.724167 1_455
Ge4 Sm0 3.067983 1_555
Ge4 Sm0 3.067983 1_545
Ge4 Sm1 3.264019 1_555
Ge4 Sm1 3.264019 1_556
Ge5 Sm0 3.067982 1_545
Ge5 Sm0 3.067982 1_655
Ge5 Sm1 3.264013 1_556
Ge5 Sm1 3.264013 1_555
