# generated using pymatgen
data_YbAl3(BO3)4
_symmetry_space_group_name_H-M   'P 1'
_cell_length_a   7.62046228
_cell_length_b   7.62046228
_cell_length_c   5.38848100
_cell_angle_alpha   90.00000000
_cell_angle_beta   90.00000000
_cell_angle_gamma   120.00000240
_symmetry_Int_Tables_number   1
_chemical_formula_structural   YbAl3(BO3)4
_chemical_formula_sum   'Yb1 Al3 B4 O12'
_cell_volume   270.99396053
_cell_formula_units_Z   1
loop_
 _symmetry_equiv_pos_site_id
 _symmetry_equiv_pos_as_xyz
  1  'x, y, z'
loop_
 _atom_site_type_symbol
 _atom_site_label
 _atom_site_symmetry_multiplicity
 _atom_site_fract_x
 _atom_site_fract_y
 _atom_site_fract_z
 _atom_site_occupancy
  Yb  Yb0  1  0.00000000  0.00000000  0.00000000  1
  Al  Al0  1  0.00000000  0.55692500  0.44307500  1
  Al  Al1  1  0.55692500  0.44307500  0.00000000  1
  Al  Al2  1  0.44307500  0.00000000  0.55692500  1
  B  B0  1  0.50000000  0.94143200  0.05856800  1
  B  B1  1  0.94143200  0.05856800  0.50000000  1
  B  B2  1  0.05856800  0.50000000  0.94143200  1
  B  B3  1  0.50000000  0.50000000  0.50000000  1
  O  O0  1  0.64816400  0.50000000  0.35183600  1
  O  O1  1  0.09074100  0.90925900  0.50000000  1
  O  O2  1  0.50000000  0.09074100  0.90925900  1
  O  O3  1  0.90925900  0.50000000  0.09074100  1
  O  O4  1  0.22610600  0.37680700  0.97109500  1
  O  O5  1  0.97109500  0.22610600  0.37680700  1
  O  O6  1  0.37680700  0.97109500  0.22610600  1
  O  O7  1  0.02890500  0.62319300  0.77389400  1
  O  O8  1  0.77389400  0.02890500  0.62319300  1
  O  O9  1  0.62319300  0.77389400  0.02890500  1
  O  O10  1  0.35183600  0.64816400  0.50000000  1
  O  O11  1  0.50000000  0.35183600  0.64816400  1
loop_
_geom_bond_atom_site_label_1
_geom_bond_atom_site_label_2
_geom_bond_distance
_geom_bond_site_symmetry_2
Al0 O7 1.835758 1_555
Al0 O3 1.992698 1_455
Al0 O10 2.429388 1_555
Al0 O1 2.434046 1_555
Al0 O5 2.444614 1_455
Al0 O0 2.540748 1_455
Al1 O0 1.991049 1_555
Al1 O11 1.991049 1_554
Al1 O9 2.315513 1_555
Al1 O4 2.315513 1_554
Al1 O2 2.543911 1_554
Al1 O3 2.543911 1_555
Al2 O6 1.835758 1_545
Al2 O2 1.992698 1_555
Al2 O10 2.429388 1_545
Al2 O1 2.434046 1_545
Al2 O8 2.444614 1_555
Al2 O11 2.540748 1_555
B0 O2 1.393519 1_564
B0 O6 1.399868 1_555
B0 O9 1.932729 1_555
B1 O5 1.353945 1_555
B1 O8 1.353945 1_555
B1 O1 1.970734 1_645
B2 O3 1.393519 1_456
B2 O7 1.399868 1_555
B2 O4 1.932729 1_555
B3 O0 1.382833 1_555
B3 O11 1.382833 1_555
B3 O10 1.955621 1_555
O1 Yb0 2.948457 1_566
O1 Yb0 2.948457 1_565
O4 Yb0 2.508126 1_556
O9 Yb0 2.508126 1_665
