# generated using pymatgen
data_Nd11In9Ni4
_symmetry_space_group_name_H-M   'P 1'
_cell_length_a   26.67818226
_cell_length_b   26.67818226
_cell_length_c   7.52842994
_cell_angle_alpha   90.00000000
_cell_angle_beta   90.00000000
_cell_angle_gamma   112.59460651
_symmetry_Int_Tables_number   1
_chemical_formula_structural   Nd11In9Ni4
_chemical_formula_sum   'Nd88 In72 Ni32'
_cell_volume   4946.91560243
_cell_formula_units_Z   8
loop_
 _symmetry_equiv_pos_site_id
 _symmetry_equiv_pos_as_xyz
  1  'x, y, z'
loop_
 _atom_site_type_symbol
 _atom_site_label
 _atom_site_symmetry_multiplicity
 _atom_site_fract_x
 _atom_site_fract_y
 _atom_site_fract_z
 _atom_site_occupancy
  Nd  Nd0_0  1  0.03941833  0.20824365  0.00000000  1
  Nd  Nd0_1  1  0.03941833  0.20824365  0.50000000  1
  Nd  Nd0_2  1  0.03941833  0.70824365  0.00000000  1
  Nd  Nd0_3  1  0.03941833  0.70824365  0.50000000  1
  Nd  Nd0_4  1  0.53941833  0.20824365  0.00000000  1
  Nd  Nd0_5  1  0.53941833  0.20824365  0.50000000  1
  Nd  Nd0_6  1  0.53941833  0.70824365  0.00000000  1
  Nd  Nd0_7  1  0.53941833  0.70824365  0.50000000  1
  Nd  Nd1_0  1  0.46058167  0.29175635  0.00000000  1
  Nd  Nd1_1  1  0.46058167  0.29175635  0.50000000  1
  Nd  Nd1_2  1  0.46058167  0.79175635  0.00000000  1
  Nd  Nd1_3  1  0.46058167  0.79175635  0.50000000  1
  Nd  Nd1_4  1  0.96058167  0.29175635  0.00000000  1
  Nd  Nd1_5  1  0.96058167  0.29175635  0.50000000  1
  Nd  Nd1_6  1  0.96058167  0.79175635  0.00000000  1
  Nd  Nd1_7  1  0.96058167  0.79175635  0.50000000  1
  Nd  Nd2_0  1  0.20824365  0.03941833  0.00000000  1
  Nd  Nd2_1  1  0.20824365  0.03941833  0.50000000  1
  Nd  Nd2_2  1  0.20824365  0.53941833  0.00000000  1
  Nd  Nd2_3  1  0.20824365  0.53941833  0.50000000  1
  Nd  Nd2_4  1  0.70824365  0.03941833  0.00000000  1
  Nd  Nd2_5  1  0.70824365  0.03941833  0.50000000  1
  Nd  Nd2_6  1  0.70824365  0.53941833  0.00000000  1
  Nd  Nd2_7  1  0.70824365  0.53941833  0.50000000  1
  Nd  Nd3_0  1  0.29175635  0.46058167  0.00000000  1
  Nd  Nd3_1  1  0.29175635  0.46058167  0.50000000  1
  Nd  Nd3_2  1  0.29175635  0.96058167  0.00000000  1
  Nd  Nd3_3  1  0.29175635  0.96058167  0.50000000  1
  Nd  Nd3_4  1  0.79175635  0.46058167  0.00000000  1
  Nd  Nd3_5  1  0.79175635  0.46058167  0.50000000  1
  Nd  Nd3_6  1  0.79175635  0.96058167  0.00000000  1
  Nd  Nd3_7  1  0.79175635  0.96058167  0.50000000  1
  Nd  Nd4_0  1  0.31248410  0.18751591  0.00000000  1
  Nd  Nd4_1  1  0.31248410  0.18751591  0.50000000  1
  Nd  Nd4_2  1  0.31248410  0.68751590  0.00000000  1
  Nd  Nd4_3  1  0.31248410  0.68751590  0.50000000  1
  Nd  Nd4_4  1  0.81248410  0.18751590  0.00000000  1
  Nd  Nd4_5  1  0.81248410  0.18751590  0.50000000  1
  Nd  Nd4_6  1  0.81248410  0.68751591  0.00000000  1
  Nd  Nd4_7  1  0.81248410  0.68751591  0.50000000  1
  Nd  Nd5_0  1  0.18751591  0.31248410  0.00000000  1
  Nd  Nd5_1  1  0.18751591  0.31248410  0.50000000  1
  Nd  Nd5_2  1  0.18751591  0.81248409  0.00000000  1
  Nd  Nd5_3  1  0.18751591  0.81248409  0.50000000  1
  Nd  Nd5_4  1  0.68751591  0.31248409  0.00000000  1
  Nd  Nd5_5  1  0.68751591  0.31248409  0.50000000  1
  Nd  Nd5_6  1  0.68751591  0.81248409  0.00000000  1
  Nd  Nd5_7  1  0.68751591  0.81248409  0.50000000  1
  Nd  Nd6_0  1  0.41898393  0.08101607  0.00000000  1
  Nd  Nd6_1  1  0.41898393  0.08101607  0.50000000  1
  Nd  Nd6_2  1  0.41898393  0.58101607  0.00000000  1
  Nd  Nd6_3  1  0.41898393  0.58101607  0.50000000  1
  Nd  Nd6_4  1  0.91898393  0.08101607  0.00000000  1
  Nd  Nd6_5  1  0.91898393  0.08101607  0.50000000  1
  Nd  Nd6_6  1  0.91898393  0.58101607  0.00000000  1
  Nd  Nd6_7  1  0.91898393  0.58101607  0.50000000  1
  Nd  Nd7_0  1  0.08101607  0.41898393  0.00000000  1
  Nd  Nd7_1  1  0.08101607  0.41898393  0.50000000  1
  Nd  Nd7_2  1  0.08101607  0.91898393  0.00000000  1
  Nd  Nd7_3  1  0.08101607  0.91898393  0.50000000  1
  Nd  Nd7_4  1  0.58101607  0.41898393  0.00000000  1
  Nd  Nd7_5  1  0.58101607  0.41898393  0.50000000  1
  Nd  Nd7_6  1  0.58101607  0.91898393  0.00000000  1
  Nd  Nd7_7  1  0.58101607  0.91898393  0.50000000  1
  Nd  Nd8_0  1  0.00000000  0.00000000  0.00000000  1
  Nd  Nd8_1  1  0.00000000  0.00000000  0.50000000  1
  Nd  Nd8_2  1  0.00000000  0.50000000  0.00000000  1
  Nd  Nd8_3  1  0.00000000  0.50000000  0.50000000  1
  Nd  Nd8_4  1  0.50000000  0.00000000  0.00000000  1
  Nd  Nd8_5  1  0.50000000  0.00000000  0.50000000  1
  Nd  Nd8_6  1  0.50000000  0.50000000  0.00000000  1
  Nd  Nd8_7  1  0.50000000  0.50000000  0.50000000  1
  Nd  Nd9_0  1  0.15661682  0.15661681  0.00000000  1
  Nd  Nd9_1  1  0.15661682  0.15661681  0.50000000  1
  Nd  Nd9_2  1  0.15661682  0.65661682  0.00000000  1
  Nd  Nd9_3  1  0.15661682  0.65661682  0.50000000  1
  Nd  Nd9_4  1  0.65661682  0.15661681  0.00000000  1
  Nd  Nd9_5  1  0.65661682  0.15661681  0.50000000  1
  Nd  Nd9_6  1  0.65661682  0.65661681  0.00000000  1
  Nd  Nd9_7  1  0.65661682  0.65661681  0.50000000  1
  Nd  Nd10_0  1  0.34338318  0.34338318  0.00000000  1
  Nd  Nd10_1  1  0.34338318  0.34338318  0.50000000  1
  Nd  Nd10_2  1  0.34338319  0.84338318  0.00000000  1
  Nd  Nd10_3  1  0.34338319  0.84338318  0.50000000  1
  Nd  Nd10_4  1  0.84338318  0.34338318  0.00000000  1
  Nd  Nd10_5  1  0.84338318  0.34338318  0.50000000  1
  Nd  Nd10_6  1  0.84338319  0.84338318  0.00000000  1
  Nd  Nd10_7  1  0.84338319  0.84338318  0.50000000  1
  In  In0_0  1  0.41844123  0.18373946  0.25000000  1
  In  In0_1  1  0.41844123  0.18373946  0.75000000  1
  In  In0_2  1  0.41844123  0.68373946  0.25000000  1
  In  In0_3  1  0.41844123  0.68373946  0.75000000  1
  In  In0_4  1  0.91844123  0.18373946  0.25000000  1
  In  In0_5  1  0.91844123  0.18373946  0.75000000  1
  In  In0_6  1  0.91844123  0.68373946  0.25000000  1
  In  In0_7  1  0.91844123  0.68373946  0.75000000  1
  In  In1_0  1  0.08155877  0.31626054  0.25000000  1
  In  In1_1  1  0.08155877  0.31626054  0.75000000  1
  In  In1_2  1  0.08155877  0.81626054  0.25000000  1
  In  In1_3  1  0.08155877  0.81626054  0.75000000  1
  In  In1_4  1  0.58155877  0.31626054  0.25000000  1
  In  In1_5  1  0.58155877  0.31626054  0.75000000  1
  In  In1_6  1  0.58155877  0.81626054  0.25000000  1
  In  In1_7  1  0.58155877  0.81626054  0.75000000  1
  In  In2_0  1  0.18373946  0.41844123  0.25000000  1
  In  In2_1  1  0.18373946  0.41844123  0.75000000  1
  In  In2_2  1  0.18373946  0.91844123  0.25000000  1
  In  In2_3  1  0.18373946  0.91844123  0.75000000  1
  In  In2_4  1  0.68373946  0.41844123  0.25000000  1
  In  In2_5  1  0.68373946  0.41844123  0.75000000  1
  In  In2_6  1  0.68373946  0.91844123  0.25000000  1
  In  In2_7  1  0.68373946  0.91844123  0.75000000  1
  In  In3_0  1  0.31626054  0.08155877  0.25000000  1
  In  In3_1  1  0.31626054  0.08155877  0.75000000  1
  In  In3_2  1  0.31626054  0.58155877  0.25000000  1
  In  In3_3  1  0.31626054  0.58155877  0.75000000  1
  In  In3_4  1  0.81626054  0.08155877  0.25000000  1
  In  In3_5  1  0.81626054  0.08155877  0.75000000  1
  In  In3_6  1  0.81626054  0.58155877  0.25000000  1
  In  In3_7  1  0.81626054  0.58155877  0.75000000  1
  In  In4_0  1  0.04058985  0.11012265  0.25000000  1
  In  In4_1  1  0.04058985  0.11012265  0.75000000  1
  In  In4_2  1  0.04058985  0.61012265  0.25000000  1
  In  In4_3  1  0.04058985  0.61012265  0.75000000  1
  In  In4_4  1  0.54058985  0.11012265  0.25000000  1
  In  In4_5  1  0.54058985  0.11012265  0.75000000  1
  In  In4_6  1  0.54058985  0.61012265  0.25000000  1
  In  In4_7  1  0.54058985  0.61012265  0.75000000  1
  In  In5_0  1  0.45941015  0.38987734  0.25000000  1
  In  In5_1  1  0.45941015  0.38987734  0.75000000  1
  In  In5_2  1  0.45941015  0.88987734  0.25000000  1
  In  In5_3  1  0.45941015  0.88987734  0.75000000  1
  In  In5_4  1  0.95941015  0.38987734  0.25000000  1
  In  In5_5  1  0.95941015  0.38987734  0.75000000  1
  In  In5_6  1  0.95941015  0.88987735  0.25000000  1
  In  In5_7  1  0.95941015  0.88987735  0.75000000  1
  In  In6_0  1  0.11012265  0.04058985  0.25000000  1
  In  In6_1  1  0.11012265  0.04058985  0.75000000  1
  In  In6_2  1  0.11012266  0.54058985  0.25000000  1
  In  In6_3  1  0.11012266  0.54058985  0.75000000  1
  In  In6_4  1  0.61012266  0.04058985  0.25000000  1
  In  In6_5  1  0.61012266  0.04058985  0.75000000  1
  In  In6_6  1  0.61012265  0.54058985  0.25000000  1
  In  In6_7  1  0.61012265  0.54058985  0.75000000  1
  In  In7_0  1  0.38987735  0.45941015  0.25000000  1
  In  In7_1  1  0.38987735  0.45941015  0.75000000  1
  In  In7_2  1  0.38987735  0.95941015  0.25000000  1
  In  In7_3  1  0.38987735  0.95941015  0.75000000  1
  In  In7_4  1  0.88987735  0.45941015  0.25000000  1
  In  In7_5  1  0.88987735  0.45941015  0.75000000  1
  In  In7_6  1  0.88987735  0.95941015  0.25000000  1
  In  In7_7  1  0.88987735  0.95941015  0.75000000  1
  In  In8_0  1  0.25000000  0.25000000  0.25000000  1
  In  In8_1  1  0.25000000  0.25000000  0.75000000  1
  In  In8_2  1  0.25000000  0.75000000  0.25000000  1
  In  In8_3  1  0.25000000  0.75000000  0.75000000  1
  In  In8_4  1  0.75000000  0.25000000  0.25000000  1
  In  In8_5  1  0.75000000  0.25000000  0.75000000  1
  In  In8_6  1  0.75000000  0.75000000  0.25000000  1
  In  In8_7  1  0.75000000  0.75000000  0.75000000  1
  Ni  Ni0_0  1  0.12256554  0.22426555  0.25000000  1
  Ni  Ni0_1  1  0.12256554  0.22426555  0.75000000  1
  Ni  Ni0_2  1  0.12256554  0.72426555  0.25000000  1
  Ni  Ni0_3  1  0.12256554  0.72426555  0.75000000  1
  Ni  Ni0_4  1  0.62256554  0.22426555  0.25000000  1
  Ni  Ni0_5  1  0.62256554  0.22426555  0.75000000  1
  Ni  Ni0_6  1  0.62256554  0.72426555  0.25000000  1
  Ni  Ni0_7  1  0.62256554  0.72426555  0.75000000  1
  Ni  Ni1_0  1  0.37743446  0.27573445  0.25000000  1
  Ni  Ni1_1  1  0.37743446  0.27573445  0.75000000  1
  Ni  Ni1_2  1  0.37743446  0.77573445  0.25000000  1
  Ni  Ni1_3  1  0.37743446  0.77573445  0.75000000  1
  Ni  Ni1_4  1  0.87743446  0.27573445  0.25000000  1
  Ni  Ni1_5  1  0.87743446  0.27573445  0.75000000  1
  Ni  Ni1_6  1  0.87743446  0.77573445  0.25000000  1
  Ni  Ni1_7  1  0.87743446  0.77573445  0.75000000  1
  Ni  Ni2_0  1  0.22426555  0.12256554  0.25000000  1
  Ni  Ni2_1  1  0.22426555  0.12256554  0.75000000  1
  Ni  Ni2_2  1  0.22426555  0.62256554  0.25000000  1
  Ni  Ni2_3  1  0.22426555  0.62256554  0.75000000  1
  Ni  Ni2_4  1  0.72426555  0.12256554  0.25000000  1
  Ni  Ni2_5  1  0.72426555  0.12256554  0.75000000  1
  Ni  Ni2_6  1  0.72426555  0.62256554  0.25000000  1
  Ni  Ni2_7  1  0.72426555  0.62256554  0.75000000  1
  Ni  Ni3_0  1  0.27573446  0.37743446  0.25000000  1
  Ni  Ni3_1  1  0.27573446  0.37743446  0.75000000  1
  Ni  Ni3_2  1  0.27573445  0.87743446  0.25000000  1
  Ni  Ni3_3  1  0.27573445  0.87743446  0.75000000  1
  Ni  Ni3_4  1  0.77573445  0.37743446  0.25000000  1
  Ni  Ni3_5  1  0.77573445  0.37743446  0.75000000  1
  Ni  Ni3_6  1  0.77573446  0.87743446  0.25000000  1
  Ni  Ni3_7  1  0.77573446  0.87743446  0.75000000  1
loop_
_geom_bond_atom_site_label_1
_geom_bond_atom_site_label_2
_geom_bond_distance
_geom_bond_site_symmetry_2
Nd0_0 Ni0_0 2.813706 1_555
Nd0_0 Ni0_1 2.813706 1_554
Nd0_0 Nd6_4 3.669310 1_455
Nd0_1 Ni0_1 2.813706 1_555
Nd0_1 Ni0_0 2.813706 1_555
Nd0_1 Nd6_5 3.669310 1_455
Nd0_2 Ni0_2 2.813706 1_555
Nd0_2 Ni0_3 2.813706 1_554
Nd0_2 Nd6_6 3.669310 1_455
Nd0_3 Ni0_3 2.813706 1_555
Nd0_3 Ni0_2 2.813706 1_555
Nd0_3 Nd6_7 3.669310 1_455
Nd0_4 Ni0_4 2.813706 1_555
Nd0_4 Ni0_5 2.813706 1_554
Nd0_4 Nd6_0 3.669310 1_555
Nd0_5 Ni0_5 2.813706 1_555
Nd0_5 Ni0_4 2.813706 1_555
Nd0_5 Nd6_1 3.669310 1_555
Nd0_6 Ni0_6 2.813706 1_555
Nd0_6 Ni0_7 2.813706 1_554
Nd0_6 Nd6_2 3.669310 1_555
Nd0_7 Ni0_7 2.813706 1_555
Nd0_7 Ni0_6 2.813706 1_555
Nd0_7 Nd6_3 3.669310 1_555
Nd1_0 Ni1_0 2.813706 1_555
Nd1_0 Ni1_1 2.813706 1_554
Nd1_0 Nd7_4 3.669310 1_555
Nd1_1 Ni1_1 2.813706 1_555
Nd1_1 Ni1_0 2.813706 1_555
Nd1_1 Nd7_5 3.669310 1_555
Nd1_2 Ni1_2 2.813706 1_555
Nd1_2 Ni1_3 2.813706 1_554
Nd1_2 Nd7_6 3.669310 1_555
Nd1_3 Ni1_3 2.813706 1_555
Nd1_3 Ni1_2 2.813706 1_555
Nd1_3 Nd7_7 3.669310 1_555
Nd1_4 Ni1_4 2.813706 1_555
Nd1_4 Ni1_5 2.813706 1_554
Nd1_4 Nd7_0 3.669310 1_655
Nd1_5 Ni1_5 2.813706 1_555
Nd1_5 Ni1_4 2.813706 1_555
Nd1_5 Nd7_1 3.669310 1_655
Nd1_6 Ni1_6 2.813706 1_555
Nd1_6 Ni1_7 2.813706 1_554
Nd1_6 Nd7_2 3.669310 1_655
Nd1_7 Ni1_7 2.813706 1_555
Nd1_7 Ni1_6 2.813706 1_555
Nd1_7 Nd7_3 3.669310 1_655
Nd2_0 Ni2_0 2.813706 1_555
Nd2_0 Ni2_1 2.813706 1_554
Nd2_0 Nd7_2 3.669310 1_545
Nd2_1 Ni2_1 2.813706 1_555
Nd2_1 Ni2_0 2.813706 1_555
Nd2_1 Nd7_3 3.669310 1_545
Nd2_2 Ni2_2 2.813706 1_555
Nd2_2 Ni2_3 2.813706 1_554
Nd2_2 Nd7_0 3.669310 1_555
Nd2_3 Ni2_3 2.813706 1_555
Nd2_3 Ni2_2 2.813706 1_555
Nd2_3 Nd7_1 3.669310 1_555
Nd2_4 Ni2_4 2.813706 1_555
Nd2_4 Ni2_5 2.813706 1_554
Nd2_4 Nd7_6 3.669310 1_545
Nd2_5 Ni2_5 2.813706 1_555
Nd2_5 Ni2_4 2.813706 1_555
Nd2_5 Nd7_7 3.669310 1_545
Nd2_6 Ni2_6 2.813706 1_555
Nd2_6 Ni2_7 2.813706 1_554
Nd2_6 Nd7_4 3.669310 1_555
Nd2_7 Ni2_7 2.813706 1_555
Nd2_7 Ni2_6 2.813706 1_555
Nd2_7 Nd7_5 3.669310 1_555
Nd3_0 Ni3_0 2.813706 1_555
Nd3_0 Ni3_1 2.813706 1_554
Nd3_0 Nd6_2 3.669310 1_555
Nd3_1 Ni3_1 2.813706 1_555
Nd3_1 Ni3_0 2.813706 1_555
Nd3_1 Nd6_3 3.669310 1_555
Nd3_2 Ni3_2 2.813706 1_555
Nd3_2 Ni3_3 2.813706 1_554
Nd3_2 Nd6_0 3.669310 1_565
Nd3_3 Ni3_3 2.813706 1_555
Nd3_3 Ni3_2 2.813706 1_555
Nd3_3 Nd6_1 3.669310 1_565
Nd3_4 Ni3_4 2.813706 1_555
Nd3_4 Ni3_5 2.813706 1_554
Nd3_4 Nd6_6 3.669310 1_555
Nd3_5 Ni3_5 2.813706 1_555
Nd3_5 Ni3_4 2.813706 1_555
Nd3_5 Nd6_7 3.669310 1_555
Nd3_6 Ni3_6 2.813706 1_555
Nd3_6 Ni3_7 2.813706 1_554
Nd3_6 Nd6_4 3.669310 1_565
Nd3_7 Ni3_7 2.813706 1_555
Nd3_7 Ni3_6 2.813706 1_555
Nd3_7 Nd6_5 3.669310 1_565
Nd4_0 Ni1_0 2.991678 1_555
Nd4_0 Ni2_0 2.991678 1_555
Nd4_0 Ni1_1 2.991678 1_554
Nd4_0 Ni2_1 2.991678 1_554
Nd4_1 Ni1_1 2.991678 1_555
Nd4_1 Ni2_1 2.991678 1_555
Nd4_1 Ni1_0 2.991678 1_555
Nd4_1 Ni2_0 2.991678 1_555
Nd4_2 Ni1_2 2.991678 1_555
Nd4_2 Ni1_3 2.991678 1_554
Nd4_2 Ni2_2 2.991678 1_555
Nd4_2 Ni2_3 2.991678 1_554
Nd4_3 Ni1_3 2.991678 1_555
Nd4_3 Ni1_2 2.991678 1_555
Nd4_3 Ni2_3 2.991678 1_555
Nd4_3 Ni2_2 2.991678 1_555
Nd4_4 Ni1_4 2.991678 1_555
Nd4_4 Ni1_5 2.991678 1_554
Nd4_4 Ni2_4 2.991678 1_555
Nd4_4 Ni2_5 2.991678 1_554
Nd4_5 Ni1_5 2.991678 1_555
Nd4_5 Ni1_4 2.991678 1_555
Nd4_5 Ni2_5 2.991678 1_555
Nd4_5 Ni2_4 2.991678 1_555
Nd4_6 Ni2_6 2.991678 1_555
Nd4_6 Ni2_7 2.991678 1_554
Nd4_6 Ni1_6 2.991678 1_555
Nd4_6 Ni1_7 2.991678 1_554
Nd4_7 Ni2_7 2.991678 1_555
Nd4_7 Ni2_6 2.991678 1_555
Nd4_7 Ni1_7 2.991678 1_555
Nd4_7 Ni1_6 2.991678 1_555
Nd5_0 Ni0_0 2.991678 1_555
Nd5_0 Ni3_0 2.991678 1_555
Nd5_0 Ni3_1 2.991678 1_554
Nd5_0 Ni0_1 2.991678 1_554
Nd5_1 Ni3_1 2.991678 1_555
Nd5_1 Ni0_1 2.991678 1_555
Nd5_1 Ni0_0 2.991678 1_555
Nd5_1 Ni3_0 2.991678 1_555
Nd5_2 Ni3_2 2.991678 1_555
Nd5_2 Ni3_3 2.991678 1_554
Nd5_2 Ni0_2 2.991678 1_555
Nd5_2 Ni0_3 2.991678 1_554
Nd5_3 Ni3_3 2.991678 1_555
Nd5_3 Ni3_2 2.991678 1_555
Nd5_3 Ni0_3 2.991678 1_555
Nd5_3 Ni0_2 2.991678 1_555
Nd5_4 Ni3_4 2.991678 1_555
Nd5_4 Ni3_5 2.991678 1_554
Nd5_4 Ni0_4 2.991678 1_555
Nd5_4 Ni0_5 2.991678 1_554
Nd5_5 Ni3_5 2.991678 1_555
Nd5_5 Ni0_5 2.991678 1_555
Nd5_5 Ni3_4 2.991678 1_555
Nd5_5 Ni0_4 2.991678 1_555
Nd5_6 Ni0_6 2.991678 1_555
Nd5_6 Ni0_7 2.991678 1_554
Nd5_6 Ni3_6 2.991678 1_555
Nd5_6 Ni3_7 2.991678 1_554
Nd5_7 Ni0_7 2.991678 1_555
Nd5_7 Ni0_6 2.991678 1_555
Nd5_7 Ni3_7 2.991678 1_555
Nd5_7 Ni3_6 2.991678 1_555
Nd6_0 Nd8_4 3.596194 1_555
Nd6_0 Nd6_1 3.764215 1_555
Nd6_0 Nd6_1 3.764215 1_554
Nd6_1 Nd8_5 3.596194 1_555
Nd6_2 Nd8_6 3.596194 1_555
Nd6_2 Nd6_3 3.764215 1_555
Nd6_2 Nd6_3 3.764215 1_554
Nd6_3 Nd8_7 3.596194 1_555
Nd6_4 Nd8_0 3.596194 1_655
Nd6_4 Nd6_5 3.764215 1_554
Nd6_4 Nd6_5 3.764215 1_555
Nd6_5 Nd8_1 3.596194 1_655
Nd6_6 Nd8_2 3.596194 1_655
Nd6_6 Nd6_7 3.764215 1_555
Nd6_6 Nd6_7 3.764215 1_554
Nd6_7 Nd8_3 3.596194 1_655
Nd7_0 Nd8_2 3.596194 1_555
Nd7_0 Nd7_1 3.764215 1_554
Nd7_0 Nd7_1 3.764215 1_555
Nd7_1 Nd8_3 3.596194 1_555
Nd7_2 Nd8_0 3.596194 1_565
Nd7_2 Nd7_3 3.764215 1_554
Nd7_2 Nd7_3 3.764215 1_555
Nd7_3 Nd8_1 3.596194 1_565
Nd7_4 Nd8_6 3.596194 1_555
Nd7_4 Nd7_5 3.764215 1_555
Nd7_4 Nd7_5 3.764215 1_554
Nd7_5 Nd8_7 3.596194 1_555
Nd7_6 Nd8_4 3.596194 1_565
Nd7_6 Nd7_7 3.764215 1_555
Nd7_6 Nd7_7 3.764215 1_554
Nd7_7 Nd8_5 3.596194 1_565
Nd8_0 Nd8_1 3.764215 1_554
Nd8_0 Nd8_1 3.764215 1_555
Nd8_2 Nd8_3 3.764215 1_555
Nd8_2 Nd8_3 3.764215 1_554
Nd8_4 Nd8_5 3.764215 1_554
Nd8_4 Nd8_5 3.764215 1_555
Nd8_6 Nd8_7 3.764215 1_555
Nd8_6 Nd8_7 3.764215 1_554
Nd9_0 Ni0_0 2.980683 1_555
Nd9_0 Ni2_0 2.980683 1_555
Nd9_0 Ni0_1 2.980683 1_554
Nd9_0 Ni2_1 2.980683 1_554
Nd9_1 Ni0_1 2.980683 1_555
Nd9_1 Ni0_0 2.980683 1_555
Nd9_1 Ni2_1 2.980683 1_555
Nd9_1 Ni2_0 2.980683 1_555
Nd9_2 Ni0_2 2.980683 1_555
Nd9_2 Ni0_3 2.980683 1_554
Nd9_2 Ni2_2 2.980683 1_555
Nd9_2 Ni2_3 2.980683 1_554
Nd9_3 Ni0_3 2.980683 1_555
Nd9_3 Ni0_2 2.980683 1_555
Nd9_3 Ni2_3 2.980683 1_555
Nd9_3 Ni2_2 2.980683 1_555
Nd9_4 Ni2_4 2.980683 1_555
Nd9_4 Ni2_5 2.980683 1_554
Nd9_4 Ni0_4 2.980683 1_555
Nd9_4 Ni0_5 2.980683 1_554
Nd9_5 Ni2_5 2.980683 1_555
Nd9_5 Ni0_5 2.980683 1_555
Nd9_5 Ni2_4 2.980683 1_555
Nd9_5 Ni0_4 2.980683 1_555
Nd9_6 Ni2_6 2.980683 1_555
Nd9_6 Ni2_7 2.980683 1_554
Nd9_6 Ni0_6 2.980683 1_555
Nd9_6 Ni0_7 2.980683 1_554
Nd9_7 Ni2_7 2.980683 1_555
Nd9_7 Ni2_6 2.980683 1_555
Nd9_7 Ni0_7 2.980683 1_555
Nd9_7 Ni0_6 2.980683 1_555
Nd10_0 Ni1_0 2.980683 1_555
Nd10_0 Ni1_1 2.980683 1_554
Nd10_0 Ni3_0 2.980683 1_555
Nd10_0 Ni3_1 2.980683 1_554
Nd10_1 Ni1_1 2.980683 1_555
Nd10_1 Ni1_0 2.980683 1_555
Nd10_1 Ni3_1 2.980683 1_555
Nd10_1 Ni3_0 2.980683 1_555
Nd10_2 Ni1_2 2.980683 1_555
Nd10_2 Ni1_3 2.980683 1_554
Nd10_2 Ni3_2 2.980683 1_555
Nd10_2 Ni3_3 2.980683 1_554
Nd10_3 Ni1_3 2.980683 1_555
Nd10_3 Ni1_2 2.980683 1_555
Nd10_3 Ni3_3 2.980683 1_555
Nd10_3 Ni3_2 2.980683 1_555
Nd10_4 Ni1_4 2.980683 1_555
Nd10_4 Ni1_5 2.980683 1_554
Nd10_4 Ni3_4 2.980683 1_555
Nd10_4 Ni3_5 2.980683 1_554
Nd10_5 Ni1_5 2.980683 1_555
Nd10_5 Ni1_4 2.980683 1_555
Nd10_5 Ni3_5 2.980683 1_555
Nd10_5 Ni3_4 2.980683 1_555
Nd10_6 Ni3_6 2.980683 1_555
Nd10_6 Ni3_7 2.980683 1_554
Nd10_6 Ni1_6 2.980683 1_555
Nd10_6 Ni1_7 2.980683 1_554
Nd10_7 Ni3_7 2.980683 1_555
Nd10_7 Ni3_6 2.980683 1_555
Nd10_7 Ni1_7 2.980683 1_555
Nd10_7 Ni1_6 2.980683 1_555
In0_0 In3_0 3.025220 1_555
In0_0 Ni1_0 3.046857 1_555
In0_0 Nd1_0 3.258980 1_555
In0_0 Nd1_1 3.258980 1_555
In0_0 Nd6_0 3.329147 1_555
In0_0 Nd6_1 3.329147 1_555
In0_0 Nd4_1 3.429548 1_555
In0_0 Nd4_0 3.429548 1_555
In0_0 Nd0_4 3.572794 1_555
In0_0 Nd0_5 3.572794 1_555
In0_1 In3_1 3.025220 1_555
In0_1 Ni1_1 3.046857 1_555
In0_1 Nd1_1 3.258980 1_555
In0_1 Nd1_0 3.258980 1_556
In0_1 Nd6_1 3.329147 1_555
In0_1 Nd6_0 3.329147 1_556
In0_1 Nd4_1 3.429548 1_555
In0_1 Nd4_0 3.429548 1_556
In0_1 Nd0_5 3.572794 1_555
In0_1 Nd0_4 3.572794 1_556
In0_2 In3_2 3.025220 1_555
In0_2 Ni1_2 3.046857 1_555
In0_2 Nd1_3 3.258980 1_555
In0_2 Nd1_2 3.258980 1_555
In0_2 Nd6_2 3.329147 1_555
In0_2 Nd6_3 3.329147 1_555
In0_2 Nd4_2 3.429548 1_555
In0_2 Nd4_3 3.429548 1_555
In0_2 Nd0_7 3.572794 1_555
In0_2 Nd0_6 3.572794 1_555
In0_3 In3_3 3.025220 1_555
In0_3 Ni1_3 3.046857 1_555
In0_3 Nd1_3 3.258980 1_555
In0_3 Nd1_2 3.258980 1_556
In0_3 Nd6_3 3.329147 1_555
In0_3 Nd6_2 3.329147 1_556
In0_3 Nd4_3 3.429548 1_555
In0_3 Nd4_2 3.429548 1_556
In0_3 Nd0_7 3.572794 1_555
In0_3 Nd0_6 3.572794 1_556
In0_4 In3_4 3.025220 1_555
In0_4 Ni1_4 3.046857 1_555
In0_4 Nd1_4 3.258980 1_555
In0_4 Nd1_5 3.258980 1_555
In0_4 Nd6_5 3.329147 1_555
In0_4 Nd6_4 3.329147 1_555
In0_4 Nd4_4 3.429548 1_555
In0_4 Nd4_5 3.429548 1_555
In0_4 Nd0_0 3.572794 1_655
In0_4 Nd0_1 3.572794 1_655
In0_5 In3_5 3.025220 1_555
In0_5 Ni1_5 3.046857 1_555
In0_5 Nd1_5 3.258980 1_555
In0_5 Nd1_4 3.258980 1_556
In0_5 Nd6_5 3.329147 1_555
In0_5 Nd6_4 3.329147 1_556
In0_5 Nd4_5 3.429548 1_555
In0_5 Nd4_4 3.429548 1_556
In0_5 Nd0_1 3.572794 1_655
In0_5 Nd0_0 3.572794 1_656
In0_6 In3_6 3.025220 1_555
In0_6 Ni1_6 3.046857 1_555
In0_6 Nd1_6 3.258980 1_555
In0_6 Nd1_7 3.258980 1_555
In0_6 Nd6_6 3.329147 1_555
In0_6 Nd6_7 3.329147 1_555
In0_6 Nd4_7 3.429548 1_555
In0_6 Nd4_6 3.429548 1_555
In0_6 Nd0_3 3.572794 1_655
In0_6 Nd0_2 3.572794 1_655
In0_7 In3_7 3.025220 1_555
In0_7 Ni1_7 3.046857 1_555
In0_7 Nd1_7 3.258980 1_555
In0_7 Nd1_6 3.258980 1_556
In0_7 Nd6_7 3.329147 1_555
In0_7 Nd6_6 3.329147 1_556
In0_7 Nd4_7 3.429548 1_555
In0_7 Nd4_6 3.429548 1_556
In0_7 Nd0_3 3.572794 1_655
In0_7 Nd0_2 3.572794 1_656
In1_0 In2_0 3.025220 1_555
In1_0 Ni0_0 3.046857 1_555
In1_0 Nd0_1 3.258980 1_555
In1_0 Nd0_0 3.258980 1_555
In1_0 Nd7_1 3.329147 1_555
In1_0 Nd7_0 3.329147 1_555
In1_0 Nd5_0 3.429548 1_555
In1_0 Nd5_1 3.429548 1_555
In1_0 Nd1_5 3.572794 1_455
In1_0 Nd1_4 3.572794 1_455
In1_1 In2_1 3.025220 1_555
In1_1 Ni0_1 3.046857 1_555
In1_1 Nd0_1 3.258980 1_555
In1_1 Nd0_0 3.258980 1_556
In1_1 Nd7_1 3.329147 1_555
In1_1 Nd7_0 3.329147 1_556
In1_1 Nd5_1 3.429548 1_555
In1_1 Nd5_0 3.429548 1_556
In1_1 Nd1_5 3.572794 1_455
In1_1 Nd1_4 3.572794 1_456
In1_2 In2_2 3.025220 1_555
In1_2 Ni0_2 3.046857 1_555
In1_2 Nd0_3 3.258980 1_555
In1_2 Nd0_2 3.258980 1_555
In1_2 Nd7_2 3.329147 1_555
In1_2 Nd7_3 3.329147 1_555
In1_2 Nd5_2 3.429548 1_555
In1_2 Nd5_3 3.429548 1_555
In1_2 Nd1_6 3.572794 1_455
In1_2 Nd1_7 3.572794 1_455
In1_3 In2_3 3.025220 1_555
In1_3 Ni0_3 3.046857 1_555
In1_3 Nd0_3 3.258980 1_555
In1_3 Nd0_2 3.258980 1_556
In1_3 Nd7_3 3.329147 1_555
In1_3 Nd7_2 3.329147 1_556
In1_3 Nd5_3 3.429548 1_555
In1_3 Nd5_2 3.429548 1_556
In1_3 Nd1_7 3.572794 1_455
In1_3 Nd1_6 3.572794 1_456
In1_4 In2_4 3.025220 1_555
In1_4 Ni0_4 3.046857 1_555
In1_4 Nd0_4 3.258980 1_555
In1_4 Nd0_5 3.258980 1_555
In1_4 Nd7_4 3.329147 1_555
In1_4 Nd7_5 3.329147 1_555
In1_4 Nd5_5 3.429548 1_555
In1_4 Nd5_4 3.429548 1_555
In1_4 Nd1_0 3.572794 1_555
In1_4 Nd1_1 3.572794 1_555
In1_5 In2_5 3.025220 1_555
In1_5 Ni0_5 3.046857 1_555
In1_5 Nd0_5 3.258980 1_555
In1_5 Nd0_4 3.258980 1_556
In1_5 Nd7_5 3.329147 1_555
In1_5 Nd7_4 3.329147 1_556
In1_5 Nd5_5 3.429548 1_555
In1_5 Nd5_4 3.429548 1_556
In1_5 Nd1_1 3.572794 1_555
In1_5 Nd1_0 3.572794 1_556
In1_6 In2_6 3.025220 1_555
In1_6 Ni0_6 3.046857 1_555
In1_6 Nd0_7 3.258980 1_555
In1_6 Nd0_6 3.258980 1_555
In1_6 Nd7_7 3.329147 1_555
In1_6 Nd7_6 3.329147 1_555
In1_6 Nd5_6 3.429548 1_555
In1_6 Nd5_7 3.429548 1_555
In1_6 Nd1_3 3.572794 1_555
In1_6 Nd1_2 3.572794 1_555
In1_7 In2_7 3.025220 1_555
In1_7 Ni0_7 3.046857 1_555
In1_7 Nd0_7 3.258980 1_555
In1_7 Nd0_6 3.258980 1_556
In1_7 Nd7_7 3.329147 1_555
In1_7 Nd7_6 3.329147 1_556
In1_7 Nd5_7 3.429548 1_555
In1_7 Nd5_6 3.429548 1_556
In1_7 Nd1_3 3.572794 1_555
In1_7 Nd1_2 3.572794 1_556
In2_0 Ni3_0 3.046857 1_555
In2_0 Nd3_0 3.258980 1_555
In2_0 Nd3_1 3.258980 1_555
In2_0 Nd7_0 3.329147 1_555
In2_0 Nd7_1 3.329147 1_555
In2_0 Nd5_0 3.429548 1_555
In2_0 Nd5_1 3.429548 1_555
In2_0 Nd2_2 3.572794 1_555
In2_0 Nd2_3 3.572794 1_555
In2_1 Ni3_1 3.046857 1_555
In2_1 Nd3_1 3.258980 1_555
In2_1 Nd3_0 3.258980 1_556
In2_1 Nd7_1 3.329147 1_555
In2_1 Nd7_0 3.329147 1_556
In2_1 Nd5_1 3.429548 1_555
In2_1 Nd5_0 3.429548 1_556
In2_1 Nd2_3 3.572794 1_555
In2_1 Nd2_2 3.572794 1_556
In2_2 Ni3_2 3.046857 1_555
In2_2 Nd3_3 3.258980 1_555
In2_2 Nd3_2 3.258980 1_555
In2_2 Nd7_2 3.329147 1_555
In2_2 Nd7_3 3.329147 1_555
In2_2 Nd5_2 3.429548 1_555
In2_2 Nd5_3 3.429548 1_555
In2_2 Nd2_1 3.572794 1_565
In2_2 Nd2_0 3.572794 1_565
In2_3 Ni3_3 3.046857 1_555
In2_3 Nd3_3 3.258980 1_555
In2_3 Nd3_2 3.258980 1_556
In2_3 Nd7_3 3.329147 1_555
In2_3 Nd7_2 3.329147 1_556
In2_3 Nd5_3 3.429548 1_555
In2_3 Nd5_2 3.429548 1_556
In2_3 Nd2_1 3.572794 1_565
In2_3 Nd2_0 3.572794 1_566
In2_4 Ni3_4 3.046857 1_555
In2_4 Nd3_4 3.258980 1_555
In2_4 Nd3_5 3.258980 1_555
In2_4 Nd7_5 3.329147 1_555
In2_4 Nd7_4 3.329147 1_555
In2_4 Nd5_4 3.429548 1_555
In2_4 Nd5_5 3.429548 1_555
In2_4 Nd2_7 3.572794 1_555
In2_4 Nd2_6 3.572794 1_555
In2_5 Ni3_5 3.046857 1_555
In2_5 Nd3_5 3.258980 1_555
In2_5 Nd3_4 3.258980 1_556
In2_5 Nd7_5 3.329147 1_555
In2_5 Nd7_4 3.329147 1_556
In2_5 Nd5_5 3.429548 1_555
In2_5 Nd5_4 3.429548 1_556
In2_5 Nd2_7 3.572794 1_555
In2_5 Nd2_6 3.572794 1_556
In2_6 Ni3_6 3.046857 1_555
In2_6 Nd3_6 3.258980 1_555
In2_6 Nd3_7 3.258980 1_555
In2_6 Nd7_7 3.329147 1_555
In2_6 Nd7_6 3.329147 1_555
In2_6 Nd5_6 3.429548 1_555
In2_6 Nd5_7 3.429548 1_555
In2_6 Nd2_5 3.572794 1_565
In2_6 Nd2_4 3.572794 1_565
In2_7 Ni3_7 3.046857 1_555
In2_7 Nd3_7 3.258980 1_555
In2_7 Nd3_6 3.258980 1_556
In2_7 Nd7_7 3.329147 1_555
In2_7 Nd7_6 3.329147 1_556
In2_7 Nd5_7 3.429548 1_555
In2_7 Nd5_6 3.429548 1_556
In2_7 Nd2_5 3.572794 1_565
In2_7 Nd2_4 3.572794 1_566
In3_0 Ni2_0 3.046857 1_555
In3_0 Nd2_0 3.258980 1_555
In3_0 Nd2_1 3.258980 1_555
In3_0 Nd6_0 3.329147 1_555
In3_0 Nd6_1 3.329147 1_555
In3_0 Nd4_1 3.429548 1_555
In3_0 Nd4_0 3.429548 1_555
In3_0 Nd3_3 3.572794 1_545
In3_0 Nd3_2 3.572794 1_545
In3_1 Ni2_1 3.046857 1_555
In3_1 Nd2_1 3.258980 1_555
In3_1 Nd2_0 3.258980 1_556
In3_1 Nd6_1 3.329147 1_555
In3_1 Nd6_0 3.329147 1_556
In3_1 Nd4_1 3.429548 1_555
In3_1 Nd4_0 3.429548 1_556
In3_1 Nd3_3 3.572794 1_545
In3_1 Nd3_2 3.572794 1_546
In3_2 Ni2_2 3.046857 1_555
In3_2 Nd2_2 3.258980 1_555
In3_2 Nd2_3 3.258980 1_555
In3_2 Nd6_2 3.329147 1_555
In3_2 Nd6_3 3.329147 1_555
In3_2 Nd4_3 3.429548 1_555
In3_2 Nd4_2 3.429548 1_555
In3_2 Nd3_0 3.572794 1_555
In3_2 Nd3_1 3.572794 1_555
In3_3 Ni2_3 3.046857 1_555
In3_3 Nd2_3 3.258980 1_555
In3_3 Nd2_2 3.258980 1_556
In3_3 Nd6_3 3.329147 1_555
In3_3 Nd6_2 3.329147 1_556
In3_3 Nd4_3 3.429548 1_555
In3_3 Nd4_2 3.429548 1_556
In3_3 Nd3_1 3.572794 1_555
In3_3 Nd3_0 3.572794 1_556
In3_4 Ni2_4 3.046857 1_555
In3_4 Nd2_4 3.258980 1_555
In3_4 Nd2_5 3.258980 1_555
In3_4 Nd6_4 3.329147 1_555
In3_4 Nd6_5 3.329147 1_555
In3_4 Nd4_4 3.429548 1_555
In3_4 Nd4_5 3.429548 1_555
In3_4 Nd3_6 3.572794 1_545
In3_4 Nd3_7 3.572794 1_545
In3_5 Ni2_5 3.046857 1_555
In3_5 Nd2_5 3.258980 1_555
In3_5 Nd2_4 3.258980 1_556
In3_5 Nd6_5 3.329147 1_555
In3_5 Nd6_4 3.329147 1_556
In3_5 Nd4_5 3.429548 1_555
In3_5 Nd4_4 3.429548 1_556
In3_5 Nd3_7 3.572794 1_545
In3_5 Nd3_6 3.572794 1_546
In3_6 Ni2_6 3.046857 1_555
In3_6 Nd2_6 3.258980 1_555
In3_6 Nd2_7 3.258980 1_555
In3_6 Nd6_6 3.329147 1_555
In3_6 Nd6_7 3.329147 1_555
In3_6 Nd4_6 3.429548 1_555
In3_6 Nd4_7 3.429548 1_555
In3_6 Nd3_4 3.572794 1_555
In3_6 Nd3_5 3.572794 1_555
In3_7 Ni2_7 3.046857 1_555
In3_7 Nd2_7 3.258980 1_555
In3_7 Nd2_6 3.258980 1_556
In3_7 Nd6_7 3.329147 1_555
In3_7 Nd6_6 3.329147 1_556
In3_7 Nd4_7 3.429548 1_555
In3_7 Nd4_6 3.429548 1_556
In3_7 Nd3_5 3.572794 1_555
In3_7 Nd3_4 3.572794 1_556
In4_0 Ni0_0 2.989693 1_555
In4_0 In6_0 3.086468 1_555
In4_0 Nd0_1 3.233956 1_555
In4_0 Nd0_0 3.233956 1_555
In4_0 Nd8_0 3.301733 1_555
In4_0 Nd8_1 3.301733 1_555
In4_0 Nd9_1 3.422280 1_555
In4_0 Nd9_0 3.422280 1_555
In4_0 Nd6_5 3.568545 1_455
In4_0 Nd6_4 3.568545 1_455
In4_1 Ni0_1 2.989693 1_555
In4_1 In6_1 3.086468 1_555
In4_1 Nd0_1 3.233956 1_555
In4_1 Nd0_0 3.233956 1_556
In4_1 Nd8_1 3.301733 1_555
In4_1 Nd8_0 3.301733 1_556
In4_1 Nd9_1 3.422280 1_555
In4_1 Nd9_0 3.422280 1_556
In4_1 Nd6_5 3.568545 1_455
In4_1 Nd6_4 3.568545 1_456
In4_2 Ni0_2 2.989693 1_555
In4_2 In6_2 3.086468 1_555
In4_2 Nd0_2 3.233956 1_555
In4_2 Nd0_3 3.233956 1_555
In4_2 Nd8_3 3.301733 1_555
In4_2 Nd8_2 3.301733 1_555
In4_2 Nd9_2 3.422280 1_555
In4_2 Nd9_3 3.422280 1_555
In4_2 Nd6_6 3.568545 1_455
In4_2 Nd6_7 3.568545 1_455
In4_3 Ni0_3 2.989693 1_555
In4_3 In6_3 3.086468 1_555
In4_3 Nd0_3 3.233956 1_555
In4_3 Nd0_2 3.233956 1_556
In4_3 Nd8_3 3.301733 1_555
In4_3 Nd8_2 3.301733 1_556
In4_3 Nd9_3 3.422280 1_555
In4_3 Nd9_2 3.422280 1_556
In4_3 Nd6_7 3.568545 1_455
In4_3 Nd6_6 3.568545 1_456
In4_4 Ni0_4 2.989693 1_555
In4_4 In6_4 3.086468 1_555
In4_4 Nd0_4 3.233956 1_555
In4_4 Nd0_5 3.233956 1_555
In4_4 Nd8_5 3.301733 1_555
In4_4 Nd8_4 3.301733 1_555
In4_4 Nd9_5 3.422280 1_555
In4_4 Nd9_4 3.422280 1_555
In4_4 Nd6_0 3.568545 1_555
In4_4 Nd6_1 3.568545 1_555
In4_5 Ni0_5 2.989693 1_555
In4_5 In6_5 3.086468 1_555
In4_5 Nd0_5 3.233956 1_555
In4_5 Nd0_4 3.233956 1_556
In4_5 Nd8_5 3.301733 1_555
In4_5 Nd8_4 3.301733 1_556
In4_5 Nd9_5 3.422280 1_555
In4_5 Nd9_4 3.422280 1_556
In4_5 Nd6_1 3.568545 1_555
In4_5 Nd6_0 3.568545 1_556
In4_6 Ni0_6 2.989693 1_555
In4_6 In6_6 3.086468 1_555
In4_6 Nd0_6 3.233956 1_555
In4_6 Nd0_7 3.233956 1_555
In4_6 Nd8_7 3.301733 1_555
In4_6 Nd8_6 3.301733 1_555
In4_6 Nd9_7 3.422280 1_555
In4_6 Nd9_6 3.422280 1_555
In4_6 Nd6_3 3.568545 1_555
In4_6 Nd6_2 3.568545 1_555
In4_7 Ni0_7 2.989693 1_555
In4_7 In6_7 3.086468 1_555
In4_7 Nd0_7 3.233956 1_555
In4_7 Nd0_6 3.233956 1_556
In4_7 Nd8_7 3.301733 1_555
In4_7 Nd8_6 3.301733 1_556
In4_7 Nd9_7 3.422280 1_555
In4_7 Nd9_6 3.422280 1_556
In4_7 Nd6_3 3.568545 1_555
In4_7 Nd6_2 3.568545 1_556
In5_0 Ni1_0 2.989693 1_555
In5_0 In7_0 3.086468 1_555
In5_0 Nd1_1 3.233956 1_555
In5_0 Nd1_0 3.233956 1_555
In5_0 Nd8_6 3.301733 1_555
In5_0 Nd8_7 3.301733 1_555
In5_0 Nd10_0 3.422280 1_555
In5_0 Nd10_1 3.422280 1_555
In5_0 Nd7_4 3.568545 1_555
In5_0 Nd7_5 3.568545 1_555
In5_1 Ni1_1 2.989693 1_555
In5_1 In7_1 3.086468 1_555
In5_1 Nd1_1 3.233956 1_555
In5_1 Nd1_0 3.233956 1_556
In5_1 Nd8_7 3.301733 1_555
In5_1 Nd8_6 3.301733 1_556
In5_1 Nd10_1 3.422280 1_555
In5_1 Nd10_0 3.422280 1_556
In5_1 Nd7_5 3.568545 1_555
In5_1 Nd7_4 3.568545 1_556
In5_2 Ni1_2 2.989693 1_555
In5_2 In7_2 3.086468 1_555
In5_2 Nd1_2 3.233956 1_555
In5_2 Nd1_3 3.233956 1_555
In5_2 Nd8_5 3.301733 1_565
In5_2 Nd8_4 3.301733 1_565
In5_2 Nd10_2 3.422280 1_555
In5_2 Nd10_3 3.422280 1_555
In5_2 Nd7_7 3.568545 1_555
In5_2 Nd7_6 3.568545 1_555
In5_3 Ni1_3 2.989693 1_555
In5_3 In7_3 3.086468 1_555
In5_3 Nd1_3 3.233956 1_555
In5_3 Nd1_2 3.233956 1_556
In5_3 Nd8_5 3.301733 1_565
In5_3 Nd8_4 3.301733 1_566
In5_3 Nd10_3 3.422280 1_555
In5_3 Nd10_2 3.422280 1_556
In5_3 Nd7_7 3.568545 1_555
In5_3 Nd7_6 3.568545 1_556
In5_4 Ni1_4 2.989693 1_555
In5_4 In7_4 3.086468 1_555
In5_4 Nd1_5 3.233956 1_555
In5_4 Nd1_4 3.233956 1_555
In5_4 Nd8_2 3.301733 1_655
In5_4 Nd8_3 3.301733 1_655
In5_4 Nd10_4 3.422280 1_555
In5_4 Nd10_5 3.422280 1_555
In5_4 Nd7_0 3.568545 1_655
In5_4 Nd7_1 3.568545 1_655
In5_5 Ni1_5 2.989693 1_555
In5_5 In7_5 3.086468 1_555
In5_5 Nd1_5 3.233956 1_555
In5_5 Nd1_4 3.233956 1_556
In5_5 Nd8_3 3.301733 1_655
In5_5 Nd8_2 3.301733 1_656
In5_5 Nd10_5 3.422280 1_555
In5_5 Nd10_4 3.422280 1_556
In5_5 Nd7_1 3.568545 1_655
In5_5 Nd7_0 3.568545 1_656
In5_6 Ni1_6 2.989693 1_555
In5_6 In7_6 3.086468 1_555
In5_6 Nd1_6 3.233956 1_555
In5_6 Nd1_7 3.233956 1_555
In5_6 Nd8_1 3.301733 1_665
In5_6 Nd8_0 3.301733 1_665
In5_6 Nd10_7 3.422280 1_555
In5_6 Nd10_6 3.422280 1_555
In5_6 Nd7_2 3.568545 1_655
In5_6 Nd7_3 3.568545 1_655
In5_7 Ni1_7 2.989693 1_555
In5_7 In7_7 3.086468 1_555
In5_7 Nd1_7 3.233956 1_555
In5_7 Nd1_6 3.233956 1_556
In5_7 Nd8_1 3.301733 1_665
In5_7 Nd8_0 3.301733 1_666
In5_7 Nd10_7 3.422280 1_555
In5_7 Nd10_6 3.422280 1_556
In5_7 Nd7_3 3.568545 1_655
In5_7 Nd7_2 3.568545 1_656
In6_0 Ni2_0 2.989693 1_555
In6_0 Nd2_1 3.233956 1_555
In6_0 Nd2_0 3.233956 1_555
In6_0 Nd8_0 3.301733 1_555
In6_0 Nd8_1 3.301733 1_555
In6_0 Nd9_1 3.422280 1_555
In6_0 Nd9_0 3.422280 1_555
In6_0 Nd7_3 3.568545 1_545
In6_0 Nd7_2 3.568545 1_545
In6_1 Ni2_1 2.989693 1_555
In6_1 Nd2_1 3.233956 1_555
In6_1 Nd2_0 3.233956 1_556
In6_1 Nd8_1 3.301733 1_555
In6_1 Nd8_0 3.301733 1_556
In6_1 Nd9_1 3.422280 1_555
In6_1 Nd9_0 3.422280 1_556
In6_1 Nd7_3 3.568545 1_545
In6_1 Nd7_2 3.568545 1_546
In6_2 Ni2_2 2.989693 1_555
In6_2 Nd2_3 3.233956 1_555
In6_2 Nd2_2 3.233956 1_555
In6_2 Nd8_2 3.301733 1_555
In6_2 Nd8_3 3.301733 1_555
In6_2 Nd9_2 3.422280 1_555
In6_2 Nd9_3 3.422280 1_555
In6_2 Nd7_1 3.568545 1_555
In6_2 Nd7_0 3.568545 1_555
In6_3 Ni2_3 2.989693 1_555
In6_3 Nd2_3 3.233956 1_555
In6_3 Nd2_2 3.233956 1_556
In6_3 Nd8_3 3.301733 1_555
In6_3 Nd8_2 3.301733 1_556
In6_3 Nd9_3 3.422280 1_555
In6_3 Nd9_2 3.422280 1_556
In6_3 Nd7_1 3.568545 1_555
In6_3 Nd7_0 3.568545 1_556
In6_4 Ni2_4 2.989693 1_555
In6_4 Nd2_5 3.233956 1_555
In6_4 Nd2_4 3.233956 1_555
In6_4 Nd8_4 3.301733 1_555
In6_4 Nd8_5 3.301733 1_555
In6_4 Nd9_5 3.422280 1_555
In6_4 Nd9_4 3.422280 1_555
In6_4 Nd7_6 3.568545 1_545
In6_4 Nd7_7 3.568545 1_545
In6_5 Ni2_5 2.989693 1_555
In6_5 Nd2_5 3.233956 1_555
In6_5 Nd2_4 3.233956 1_556
In6_5 Nd8_5 3.301733 1_555
In6_5 Nd8_4 3.301733 1_556
In6_5 Nd9_5 3.422280 1_555
In6_5 Nd9_4 3.422280 1_556
In6_5 Nd7_7 3.568545 1_545
In6_5 Nd7_6 3.568545 1_546
In6_6 Ni2_6 2.989693 1_555
In6_6 Nd2_7 3.233956 1_555
In6_6 Nd2_6 3.233956 1_555
In6_6 Nd8_6 3.301733 1_555
In6_6 Nd8_7 3.301733 1_555
In6_6 Nd9_7 3.422280 1_555
In6_6 Nd9_6 3.422280 1_555
In6_6 Nd7_4 3.568545 1_555
In6_6 Nd7_5 3.568545 1_555
In6_7 Ni2_7 2.989693 1_555
In6_7 Nd2_7 3.233956 1_555
In6_7 Nd2_6 3.233956 1_556
In6_7 Nd8_7 3.301733 1_555
In6_7 Nd8_6 3.301733 1_556
In6_7 Nd9_7 3.422280 1_555
In6_7 Nd9_6 3.422280 1_556
In6_7 Nd7_5 3.568545 1_555
In6_7 Nd7_4 3.568545 1_556
In7_0 Ni3_0 2.989693 1_555
In7_0 Nd3_0 3.233956 1_555
In7_0 Nd3_1 3.233956 1_555
In7_0 Nd8_6 3.301733 1_555
In7_0 Nd8_7 3.301733 1_555
In7_0 Nd10_0 3.422280 1_555
In7_0 Nd10_1 3.422280 1_555
In7_0 Nd6_2 3.568545 1_555
In7_0 Nd6_3 3.568545 1_555
In7_1 Ni3_1 2.989693 1_555
In7_1 Nd3_1 3.233956 1_555
In7_1 Nd3_0 3.233956 1_556
In7_1 Nd8_7 3.301733 1_555
In7_1 Nd8_6 3.301733 1_556
In7_1 Nd10_1 3.422280 1_555
In7_1 Nd10_0 3.422280 1_556
In7_1 Nd6_3 3.568545 1_555
In7_1 Nd6_2 3.568545 1_556
In7_2 Ni3_2 2.989693 1_555
In7_2 Nd3_2 3.233956 1_555
In7_2 Nd3_3 3.233956 1_555
In7_2 Nd8_5 3.301733 1_565
In7_2 Nd8_4 3.301733 1_565
In7_2 Nd10_2 3.422280 1_555
In7_2 Nd10_3 3.422280 1_555
In7_2 Nd6_0 3.568545 1_565
In7_2 Nd6_1 3.568545 1_565
In7_3 Ni3_3 2.989693 1_555
In7_3 Nd3_3 3.233956 1_555
In7_3 Nd3_2 3.233956 1_556
In7_3 Nd8_5 3.301733 1_565
In7_3 Nd8_4 3.301733 1_566
In7_3 Nd10_3 3.422280 1_555
In7_3 Nd10_2 3.422280 1_556
In7_3 Nd6_1 3.568545 1_565
In7_3 Nd6_0 3.568545 1_566
In7_4 Ni3_4 2.989693 1_555
In7_4 Nd3_4 3.233956 1_555
In7_4 Nd3_5 3.233956 1_555
In7_4 Nd8_3 3.301733 1_655
In7_4 Nd8_2 3.301733 1_655
In7_4 Nd10_5 3.422280 1_555
In7_4 Nd10_4 3.422280 1_555
In7_4 Nd6_7 3.568545 1_555
In7_4 Nd6_6 3.568545 1_555
In7_5 Ni3_5 2.989693 1_555
In7_5 Nd3_5 3.233956 1_555
In7_5 Nd3_4 3.233956 1_556
In7_5 Nd8_3 3.301733 1_655
In7_5 Nd8_2 3.301733 1_656
In7_5 Nd10_5 3.422280 1_555
In7_5 Nd10_4 3.422280 1_556
In7_5 Nd6_7 3.568545 1_555
In7_5 Nd6_6 3.568545 1_556
In7_6 Ni3_6 2.989693 1_555
In7_6 Nd3_6 3.233956 1_555
In7_6 Nd3_7 3.233956 1_555
In7_6 Nd8_0 3.301733 1_665
In7_6 Nd8_1 3.301733 1_665
In7_6 Nd10_6 3.422280 1_555
In7_6 Nd10_7 3.422280 1_555
In7_6 Nd6_5 3.568545 1_565
In7_6 Nd6_4 3.568545 1_565
In7_7 Ni3_7 2.989693 1_555
In7_7 Nd3_7 3.233956 1_555
In7_7 Nd3_6 3.233956 1_556
In7_7 Nd8_1 3.301733 1_665
In7_7 Nd8_0 3.301733 1_666
In7_7 Nd10_7 3.422280 1_555
In7_7 Nd10_6 3.422280 1_556
In7_7 Nd6_5 3.568545 1_565
In7_7 Nd6_4 3.568545 1_566
In8_0 Ni2_0 3.199360 1_555
In8_0 Ni1_0 3.199360 1_555
In8_0 Ni0_0 3.199360 1_555
In8_0 Ni3_0 3.199360 1_555
In8_0 Nd10_1 3.344578 1_555
In8_0 Nd10_0 3.344578 1_555
In8_0 Nd9_0 3.344578 1_555
In8_0 Nd9_1 3.344578 1_555
In8_0 Nd4_0 3.351880 1_555
In8_0 Nd4_1 3.351880 1_555
In8_0 Nd5_0 3.351880 1_555
In8_0 Nd5_1 3.351880 1_555
In8_1 Ni2_1 3.199360 1_555
In8_1 Ni1_1 3.199360 1_555
In8_1 Ni0_1 3.199360 1_555
In8_1 Ni3_1 3.199360 1_555
In8_1 Nd10_1 3.344578 1_555
In8_1 Nd10_0 3.344578 1_556
In8_1 Nd9_1 3.344578 1_555
In8_1 Nd9_0 3.344578 1_556
In8_1 Nd4_1 3.351880 1_555
In8_1 Nd4_0 3.351880 1_556
In8_1 Nd5_1 3.351880 1_555
In8_1 Nd5_0 3.351880 1_556
In8_2 Ni1_2 3.199360 1_555
In8_2 Ni3_2 3.199360 1_555
In8_2 Ni0_2 3.199360 1_555
In8_2 Ni2_2 3.199360 1_555
In8_2 Nd10_2 3.344578 1_555
In8_2 Nd10_3 3.344578 1_555
In8_2 Nd9_2 3.344578 1_555
In8_2 Nd9_3 3.344578 1_555
In8_2 Nd5_2 3.351880 1_555
In8_2 Nd5_3 3.351880 1_555
In8_2 Nd4_2 3.351880 1_555
In8_2 Nd4_3 3.351880 1_555
In8_3 Ni1_3 3.199360 1_555
In8_3 Ni3_3 3.199360 1_555
In8_3 Ni2_3 3.199360 1_555
In8_3 Ni0_3 3.199360 1_555
In8_3 Nd10_3 3.344578 1_555
In8_3 Nd10_2 3.344578 1_556
In8_3 Nd9_3 3.344578 1_555
In8_3 Nd9_2 3.344578 1_556
In8_3 Nd5_3 3.351880 1_555
In8_3 Nd5_2 3.351880 1_556
In8_3 Nd4_3 3.351880 1_555
In8_3 Nd4_2 3.351880 1_556
In8_4 Ni1_4 3.199360 1_555
In8_4 Ni2_4 3.199360 1_555
In8_4 Ni3_4 3.199360 1_555
In8_4 Ni0_4 3.199360 1_555
In8_4 Nd10_4 3.344578 1_555
In8_4 Nd10_5 3.344578 1_555
In8_4 Nd9_4 3.344578 1_555
In8_4 Nd9_5 3.344578 1_555
In8_4 Nd4_4 3.351880 1_555
In8_4 Nd4_5 3.351880 1_555
In8_4 Nd5_4 3.351880 1_555
In8_4 Nd5_5 3.351880 1_555
In8_5 Ni1_5 3.199360 1_555
In8_5 Ni2_5 3.199360 1_555
In8_5 Ni3_5 3.199360 1_555
In8_5 Ni0_5 3.199360 1_555
In8_5 Nd10_5 3.344578 1_555
In8_5 Nd10_4 3.344578 1_556
In8_5 Nd9_5 3.344578 1_555
In8_5 Nd9_4 3.344578 1_556
In8_5 Nd4_5 3.351880 1_555
In8_5 Nd4_4 3.351880 1_556
In8_5 Nd5_5 3.351880 1_555
In8_5 Nd5_4 3.351880 1_556
In8_6 Ni3_6 3.199360 1_555
In8_6 Ni0_6 3.199360 1_555
In8_6 Ni2_6 3.199360 1_555
In8_6 Ni1_6 3.199360 1_555
In8_6 Nd10_7 3.344578 1_555
In8_6 Nd10_6 3.344578 1_555
In8_6 Nd9_7 3.344578 1_555
In8_6 Nd9_6 3.344578 1_555
In8_6 Nd4_6 3.351880 1_555
In8_6 Nd5_7 3.351880 1_555
In8_6 Nd4_7 3.351880 1_555
In8_6 Nd5_6 3.351880 1_555
In8_7 Ni3_7 3.199360 1_555
In8_7 Ni0_7 3.199360 1_555
In8_7 Ni2_7 3.199360 1_555
In8_7 Ni1_7 3.199360 1_555
In8_7 Nd10_7 3.344578 1_555
In8_7 Nd10_6 3.344578 1_556
In8_7 Nd9_7 3.344578 1_555
In8_7 Nd9_6 3.344578 1_556
In8_7 Nd5_7 3.351880 1_555
In8_7 Nd4_7 3.351880 1_555
In8_7 Nd4_6 3.351880 1_556
In8_7 Nd5_6 3.351880 1_556
