# generated using pymatgen
data_YSiAu
_symmetry_space_group_name_H-M   'P 1'
_cell_length_a   4.25304491
_cell_length_b   4.25304416
_cell_length_c   7.91329086
_cell_angle_alpha   90.00000000
_cell_angle_beta   90.00000000
_cell_angle_gamma   119.99999798
_symmetry_Int_Tables_number   1
_chemical_formula_structural   YSiAu
_chemical_formula_sum   'Y2 Si2 Au2'
_cell_volume   123.96173042
_cell_formula_units_Z   2
loop_
 _symmetry_equiv_pos_site_id
 _symmetry_equiv_pos_as_xyz
  1  'x, y, z'
loop_
 _atom_site_type_symbol
 _atom_site_label
 _atom_site_symmetry_multiplicity
 _atom_site_fract_x
 _atom_site_fract_y
 _atom_site_fract_z
 _atom_site_occupancy
  Y  Y0  1  0.00000000  -0.00000000  0.50219768  1
  Y  Y1  1  0.00000000  -0.00000000  0.00219768  1
  Si  Si0  1  0.66666700  0.33333300  0.26201799  1
  Si  Si1  1  0.33333300  0.66666700  0.76201799  1
  Au  Au0  1  0.33333300  0.66666700  0.24478433  1
  Au  Au1  1  0.66666700  0.33333300  0.74478433  1
loop_
_geom_bond_atom_site_label_1
_geom_bond_atom_site_label_2
_geom_bond_distance
_geom_bond_site_symmetry_2
Si0 Y0 3.105121 1_655
Si0 Y0 3.105124 1_665
Si0 Y0 3.105124 1_555
Si0 Y1 3.202612 1_655
Si0 Y1 3.202615 1_665
Si0 Y1 3.202615 1_555
Si1 Y1 3.105121 1_566
Si1 Y1 3.105124 1_556
Si1 Y1 3.105124 1_666
Si1 Y0 3.202612 1_565
Si1 Y0 3.202615 1_555
Si1 Y0 3.202615 1_665
Au0 Si0 2.459278 1_565
Au0 Si0 2.459278 1_455
Au0 Si0 2.459285 1_555
Au0 Y1 3.116816 1_565
Au0 Y1 3.116818 1_555
Au0 Y1 3.116819 1_665
Au0 Y0 3.190418 1_565
Au0 Y0 3.190420 1_555
Au0 Y0 3.190421 1_665
Au1 Si1 2.459278 1_545
Au1 Si1 2.459278 1_655
Au1 Si1 2.459285 1_555
Au1 Y0 3.116816 1_655
Au1 Y0 3.116818 1_665
Au1 Y0 3.116819 1_555
Au1 Y1 3.190418 1_656
Au1 Y1 3.190420 1_666
Au1 Y1 3.190421 1_556
