# generated using pymatgen
data_K2NbCuSe4
_symmetry_space_group_name_H-M   'P 1'
_cell_length_a   14.00269946
_cell_length_b   12.52731084
_cell_length_c   7.47172737
_cell_angle_alpha   84.88663112
_cell_angle_beta   63.00864721
_cell_angle_gamma   32.10472167
_symmetry_Int_Tables_number   1
_chemical_formula_structural   K2NbCuSe4
_chemical_formula_sum   'K4 Nb2 Cu2 Se8'
_cell_volume   485.22742179
_cell_formula_units_Z   2
loop_
 _symmetry_equiv_pos_site_id
 _symmetry_equiv_pos_as_xyz
  1  'x, y, z'
loop_
 _atom_site_type_symbol
 _atom_site_label
 _atom_site_symmetry_multiplicity
 _atom_site_fract_x
 _atom_site_fract_y
 _atom_site_fract_z
 _atom_site_occupancy
  K  K0  1  0.82038000  0.82038000  0.17962000  1
  K  K1  1  0.17962000  0.17962000  0.82038000  1
  K  K2  1  0.42962000  0.42962000  0.07038000  1
  K  K3  1  0.07038000  0.07038000  0.42962000  1
  Nb  Nb0  1  0.00000000  0.00000000  0.00000000  1
  Nb  Nb1  1  0.25000000  0.25000000  0.25000000  1
  Cu  Cu0  1  0.75000000  0.75000000  0.75000000  1
  Cu  Cu1  1  0.50000000  0.50000000  0.50000000  1
  Se  Se0  1  0.16398500  0.44987500  0.54080400  1
  Se  Se1  1  0.44987500  0.16398500  0.84533600  1
  Se  Se2  1  0.08601500  0.80012500  0.70919600  1
  Se  Se3  1  0.40466400  0.70919600  0.80012500  1
  Se  Se4  1  0.70919600  0.40466400  0.08601500  1
  Se  Se5  1  0.80012500  0.08601500  0.40466400  1
  Se  Se6  1  0.54080400  0.84533600  0.16398500  1
  Se  Se7  1  0.84533600  0.54080400  0.44987500  1
loop_
_geom_bond_atom_site_label_1
_geom_bond_atom_site_label_2
_geom_bond_distance
_geom_bond_site_symmetry_2
K0 Se1 3.526087 1_654
K0 Se0 3.526087 1_565
K0 Se1 3.569919 1_565
K0 Se0 3.569919 1_654
K0 Se5 3.598173 1_565
K0 Se2 3.598173 1_654
K0 Se7 3.711110 1_555
K0 Se6 3.711110 1_555
K1 Se7 3.526087 1_456
K1 Se6 3.526087 1_545
K1 Se7 3.569919 1_545
K1 Se6 3.569919 1_456
K1 Se3 3.598173 1_545
K1 Se4 3.598173 1_456
K1 Se1 3.711110 1_555
K1 Se0 3.711110 1_555
K2 Se2 3.526087 1_644
K2 Se5 3.526087 1_465
K2 Se2 3.569919 1_555
K2 Se5 3.569919 1_554
K2 Se0 3.598173 1_555
K2 Se1 3.598173 1_554
K2 Se4 3.711110 1_555
K2 Se3 3.711110 1_554
K3 Se4 3.526087 1_456
K3 Se3 3.526087 1_544
K3 Se4 3.569919 1_545
K3 Se3 3.569919 1_455
K3 Se6 3.598173 1_545
K3 Se7 3.598173 1_455
K3 Se2 3.711110 1_545
K3 Se5 3.711110 1_455
Nb0 Se3 2.434404 1_544
Nb0 Se4 2.434404 1_455
Nb0 Se5 2.434404 1_455
Nb0 Se2 2.434404 1_544
Nb1 Se0 2.434404 1_555
Nb1 Se1 2.434404 1_554
Nb1 Se6 2.434404 1_545
Nb1 Se7 2.434404 1_455
Cu0 Se0 2.466139 1_655
Cu0 Se1 2.466139 1_565
Cu0 Se6 2.466139 1_556
Cu0 Se7 2.466139 1_555
Cu1 Se3 2.466139 1_555
Cu1 Se4 2.466139 1_555
Cu1 Se5 2.466139 1_555
Cu1 Se2 2.466139 1_555
