# generated using pymatgen
data_LaNdZn2
_symmetry_space_group_name_H-M   'P 1'
_cell_length_a   5.24619121
_cell_length_b   5.24619121
_cell_length_c   5.24619121
_cell_angle_alpha   60.00000000
_cell_angle_beta   60.00000000
_cell_angle_gamma   60.00000000
_symmetry_Int_Tables_number   1
_chemical_formula_structural   LaNdZn2
_chemical_formula_sum   'La1 Nd1 Zn2'
_cell_volume   102.09802674
_cell_formula_units_Z   1
loop_
 _symmetry_equiv_pos_site_id
 _symmetry_equiv_pos_as_xyz
  1  'x, y, z'
loop_
 _atom_site_type_symbol
 _atom_site_label
 _atom_site_symmetry_multiplicity
 _atom_site_fract_x
 _atom_site_fract_y
 _atom_site_fract_z
 _atom_site_occupancy
  La  La0  1  0.25000000  0.25000000  0.25000000  1
  Nd  Nd0  1  0.75000100  0.75000100  0.75000100  1
  Zn  Zn0  1  0.50000000  0.50000000  0.50000000  1
  Zn  Zn1  1  -0.00000000  -0.00000000  -0.00000000  1
loop_
_geom_bond_atom_site_label_1
_geom_bond_atom_site_label_2
_geom_bond_distance
_geom_bond_site_symmetry_2
La0 Zn1 3.212623 1_655
La0 Zn0 3.212623 1_455
La0 Zn1 3.212623 1_565
La0 Zn0 3.212623 1_545
La0 Zn0 3.212623 1_555
La0 Zn0 3.212623 1_554
La0 Zn1 3.212623 1_555
La0 Zn1 3.212623 1_556
Nd0 Zn1 3.212610 1_666
Nd0 Zn0 3.212619 1_556
Nd0 Zn0 3.212619 1_565
Nd0 Zn0 3.212619 1_655
Nd0 Zn1 3.212627 1_665
Nd0 Zn1 3.212627 1_656
Nd0 Zn1 3.212627 1_566
Nd0 Zn0 3.212636 1_555
