# generated using pymatgen
data_ZnO
_symmetry_space_group_name_H-M   'P 1'
_cell_length_a   3.05547751
_cell_length_b   3.05547751
_cell_length_c   30.40991300
_cell_angle_alpha   90.00000000
_cell_angle_beta   90.00000000
_cell_angle_gamma   119.99998934
_symmetry_Int_Tables_number   1
_chemical_formula_structural   ZnO
_chemical_formula_sum   'Zn12 O12'
_cell_volume   245.86914906
_cell_formula_units_Z   12
loop_
 _symmetry_equiv_pos_site_id
 _symmetry_equiv_pos_as_xyz
  1  'x, y, z'
loop_
 _atom_site_type_symbol
 _atom_site_label
 _atom_site_symmetry_multiplicity
 _atom_site_fract_x
 _atom_site_fract_y
 _atom_site_fract_z
 _atom_site_occupancy
  Zn  Zn0  1  0.33333300  0.66666700  0.83493800  1
  Zn  Zn1  1  0.66666700  0.33333300  0.16506200  1
  Zn  Zn2  1  0.66666700  0.33333300  0.33493800  1
  Zn  Zn3  1  0.33333300  0.66666700  0.66506200  1
  Zn  Zn4  1  0.33333300  0.66666700  0.41747200  1
  Zn  Zn5  1  0.66666700  0.33333300  0.58252800  1
  Zn  Zn6  1  0.66666700  0.33333300  0.91747200  1
  Zn  Zn7  1  0.33333300  0.66666700  0.08252800  1
  Zn  Zn8  1  0.00000000  0.00000000  0.25000000  1
  Zn  Zn9  1  0.00000000  0.00000000  0.75000000  1
  Zn  Zn10  1  0.00000000  0.00000000  0.00000000  1
  Zn  Zn11  1  0.00000000  0.00000000  0.50000000  1
  O  O0  1  0.33333300  0.66666700  0.95873100  1
  O  O1  1  0.66666700  0.33333300  0.04126900  1
  O  O2  1  0.66666700  0.33333300  0.45873100  1
  O  O3  1  0.33333300  0.66666700  0.54126900  1
  O  O4  1  0.33333300  0.66666700  0.20615800  1
  O  O5  1  0.66666700  0.33333300  0.79384200  1
  O  O6  1  0.66666700  0.33333300  0.70615800  1
  O  O7  1  0.33333300  0.66666700  0.29384200  1
  O  O8  1  0.00000000  0.00000000  0.12375900  1
  O  O9  1  0.00000000  0.00000000  0.87624100  1
  O  O10  1  0.00000000  0.00000000  0.62375900  1
  O  O11  1  0.00000000  0.00000000  0.37624100  1
loop_
_geom_bond_atom_site_label_1
_geom_bond_atom_site_label_2
_geom_bond_distance
_geom_bond_site_symmetry_2
O0 Zn6 2.164764 1_565
O0 Zn6 2.164764 1_455
O0 Zn6 2.164768 1_555
O0 Zn10 2.164940 1_566
O0 Zn10 2.164943 1_556
O0 Zn10 2.164943 1_666
O1 Zn7 2.164764 1_545
O1 Zn7 2.164764 1_655
O1 Zn7 2.164768 1_555
O1 Zn10 2.164940 1_655
O1 Zn10 2.164943 1_555
O1 Zn10 2.164943 1_665
O2 Zn4 2.164764 1_545
O2 Zn4 2.164764 1_655
O2 Zn4 2.164768 1_555
O2 Zn11 2.164940 1_655
O2 Zn11 2.164943 1_555
O2 Zn11 2.164943 1_665
O3 Zn5 2.164764 1_455
O3 Zn5 2.164764 1_565
O3 Zn5 2.164768 1_555
O3 Zn11 2.164940 1_565
O3 Zn11 2.164943 1_555
O3 Zn11 2.164943 1_665
O4 Zn1 2.161895 1_455
O4 Zn1 2.161895 1_565
O4 Zn1 2.161899 1_555
O4 Zn8 2.211217 1_565
O4 Zn8 2.211219 1_665
O4 Zn8 2.211219 1_555
O5 Zn0 2.161895 1_655
O5 Zn0 2.161895 1_545
O5 Zn0 2.161899 1_555
O5 Zn9 2.211217 1_655
O5 Zn9 2.211219 1_665
O5 Zn9 2.211219 1_555
O6 Zn3 2.161895 1_655
O6 Zn3 2.161895 1_545
O6 Zn3 2.161899 1_555
O6 Zn9 2.211217 1_655
O6 Zn9 2.211219 1_555
O6 Zn9 2.211219 1_665
O7 Zn2 2.161895 1_455
O7 Zn2 2.161895 1_565
O7 Zn2 2.161899 1_555
O7 Zn8 2.211217 1_565
O7 Zn8 2.211219 1_665
O7 Zn8 2.211219 1_555
O8 Zn7 2.164271 1_545
O8 Zn7 2.164273 1_445
O8 Zn7 2.164273 1_555
O8 Zn1 2.165540 1_455
O8 Zn1 2.165542 1_445
O8 Zn1 2.165542 1_555
O9 Zn6 2.164271 1_455
O9 Zn6 2.164273 1_445
O9 Zn6 2.164273 1_555
O9 Zn0 2.165540 1_545
O9 Zn0 2.165542 1_445
O9 Zn0 2.165542 1_555
O10 Zn5 2.164271 1_455
O10 Zn5 2.164273 1_445
O10 Zn5 2.164273 1_555
O10 Zn3 2.165540 1_545
O10 Zn3 2.165542 1_445
O10 Zn3 2.165542 1_555
O11 Zn4 2.164271 1_545
O11 Zn4 2.164273 1_445
O11 Zn4 2.164273 1_555
O11 Zn2 2.165540 1_455
O11 Zn2 2.165542 1_445
O11 Zn2 2.165542 1_555
