# generated using pymatgen
data_Cr3CdTe4
_symmetry_space_group_name_H-M   'P 1'
_cell_length_a   6.35550200
_cell_length_b   6.35550200
_cell_length_c   6.35550200
_cell_angle_alpha   90.00000000
_cell_angle_beta   90.00000000
_cell_angle_gamma   90.00000000
_symmetry_Int_Tables_number   1
_chemical_formula_structural   Cr3CdTe4
_chemical_formula_sum   'Cr3 Cd1 Te4'
_cell_volume   256.71401503
_cell_formula_units_Z   1
loop_
 _symmetry_equiv_pos_site_id
 _symmetry_equiv_pos_as_xyz
  1  'x, y, z'
loop_
 _atom_site_type_symbol
 _atom_site_label
 _atom_site_symmetry_multiplicity
 _atom_site_fract_x
 _atom_site_fract_y
 _atom_site_fract_z
 _atom_site_occupancy
  Cr  Cr0  1  0.00000000  0.50000000  0.50000000  1
  Cr  Cr1  1  0.50000000  0.00000000  0.50000000  1
  Cr  Cr2  1  0.50000000  0.50000000  0.00000000  1
  Cd  Cd0  1  0.00000000  0.00000000  0.00000000  1
  Te  Te0  1  0.26205900  0.26205900  0.26205900  1
  Te  Te1  1  0.73794100  0.73794100  0.26205900  1
  Te  Te2  1  0.26205900  0.73794100  0.73794100  1
  Te  Te3  1  0.73794100  0.26205900  0.73794100  1
loop_
_geom_bond_atom_site_label_1
_geom_bond_atom_site_label_2
_geom_bond_distance
_geom_bond_site_symmetry_2
Cr0 Te1 2.710655 1_455
Cr0 Te2 2.710655 1_555
Cr0 Te0 2.710655 1_555
Cr0 Te3 2.710655 1_455
Cr1 Te3 2.710655 1_555
Cr1 Te1 2.710655 1_545
Cr1 Te0 2.710655 1_555
Cr1 Te2 2.710655 1_545
Cr2 Te1 2.710655 1_555
Cr2 Te0 2.710655 1_555
Cr2 Te3 2.710655 1_554
Cr2 Te2 2.710655 1_554
Cd0 Te0 2.884759 1_555
Cd0 Te1 2.884759 1_445
Cd0 Te3 2.884759 1_454
Cd0 Te2 2.884759 1_544
