# generated using pymatgen
data_TlCuO2
_symmetry_space_group_name_H-M   'P 1'
_cell_length_a   3.53702655
_cell_length_b   3.53702655
_cell_length_c   11.77167000
_cell_angle_alpha   90.00000000
_cell_angle_beta   90.00000000
_cell_angle_gamma   120.00001021
_symmetry_Int_Tables_number   1
_chemical_formula_structural   TlCuO2
_chemical_formula_sum   'Tl2 Cu2 O4'
_cell_volume   127.53967453
_cell_formula_units_Z   2
loop_
 _symmetry_equiv_pos_site_id
 _symmetry_equiv_pos_as_xyz
  1  'x, y, z'
loop_
 _atom_site_type_symbol
 _atom_site_label
 _atom_site_symmetry_multiplicity
 _atom_site_fract_x
 _atom_site_fract_y
 _atom_site_fract_z
 _atom_site_occupancy
  Tl  Tl0  1  0.00000000  0.00000000  0.00000000  1
  Tl  Tl1  1  0.00000000  0.00000000  0.50000000  1
  Cu  Cu0  1  0.66666700  0.33333300  0.75000000  1
  Cu  Cu1  1  0.33333300  0.66666700  0.25000000  1
  O  O0  1  0.66666700  0.33333300  0.90433200  1
  O  O1  1  0.33333300  0.66666700  0.40433200  1
  O  O2  1  0.66666700  0.33333300  0.59566800  1
  O  O3  1  0.33333300  0.66666700  0.09566800  1
loop_
_geom_bond_atom_site_label_1
_geom_bond_atom_site_label_2
_geom_bond_distance
_geom_bond_site_symmetry_2
Cu0 O0 1.816745 1_555
Cu0 O2 1.816745 1_555
Cu1 O1 1.816745 1_555
Cu1 O3 1.816745 1_555
O0 Tl0 2.332047 1_656
O0 Tl0 2.332049 1_556
O0 Tl0 2.332049 1_666
O1 Tl1 2.332047 1_565
O1 Tl1 2.332049 1_665
O1 Tl1 2.332049 1_555
O2 Tl1 2.332047 1_655
O2 Tl1 2.332049 1_555
O2 Tl1 2.332049 1_665
O3 Tl0 2.332047 1_565
O3 Tl0 2.332049 1_665
O3 Tl0 2.332049 1_555
