# generated using pymatgen
data_Ce2US5
_symmetry_space_group_name_H-M   'P 1'
_cell_length_a   7.54217583
_cell_length_b   8.20486523
_cell_length_c   11.90372393
_cell_angle_alpha   90.00000000
_cell_angle_beta   90.00000000
_cell_angle_gamma   90.00000000
_symmetry_Int_Tables_number   1
_chemical_formula_structural   Ce2US5
_chemical_formula_sum   'Ce8 U4 S20'
_cell_volume   736.63262732
_cell_formula_units_Z   4
loop_
 _symmetry_equiv_pos_site_id
 _symmetry_equiv_pos_as_xyz
  1  'x, y, z'
loop_
 _atom_site_type_symbol
 _atom_site_label
 _atom_site_symmetry_multiplicity
 _atom_site_fract_x
 _atom_site_fract_y
 _atom_site_fract_z
 _atom_site_occupancy
  Ce  Ce0  1  0.97083165  0.00049594  0.32433786  1
  Ce  Ce1  1  0.47083165  0.99950406  0.17566214  1
  Ce  Ce2  1  0.52916835  0.49950406  0.82433786  1
  Ce  Ce3  1  0.02916835  0.50049594  0.67566214  1
  Ce  Ce4  1  0.02916835  0.99950406  0.67566214  1
  Ce  Ce5  1  0.52916835  0.00049594  0.82433786  1
  Ce  Ce6  1  0.47083165  0.50049594  0.17566214  1
  Ce  Ce7  1  0.97083165  0.49950406  0.32433786  1
  U  U0  1  0.43011171  0.25000000  0.49110062  1
  U  U1  1  0.93011171  0.75000000  0.00889938  1
  U  U2  1  0.06988829  0.25000000  0.99110062  1
  U  U3  1  0.56988829  0.75000000  0.50889938  1
  S  S0  1  0.04488775  0.25000000  0.49939485  1
  S  S1  1  0.54488775  0.75000000  0.00060515  1
  S  S2  1  0.45511225  0.25000000  -0.00060515  1
  S  S3  1  0.95511225  0.75000000  0.50060515  1
  S  S4  1  0.66455791  0.25000000  0.31208472  1
  S  S5  1  0.16455791  0.75000000  0.18791528  1
  S  S6  1  0.83544209  0.25000000  0.81208472  1
  S  S7  1  0.33544209  0.75000000  0.68791528  1
  S  S8  1  0.66455409  0.46045049  0.59338520  1
  S  S9  1  0.16455409  0.53954951  0.90661480  1
  S  S10  1  0.83544591  0.03954951  0.09338520  1
  S  S11  1  0.33544591  0.96045049  0.40661480  1
  S  S12  1  0.33544591  0.53954951  0.40661480  1
  S  S13  1  0.83544591  0.46045049  0.09338520  1
  S  S14  1  0.16455409  0.96045049  0.90661480  1
  S  S15  1  0.66455409  0.03954951  0.59338520  1
  S  S16  1  0.30913460  0.25000000  0.71411571  1
  S  S17  1  0.80913460  0.75000000  0.78588429  1
  S  S18  1  0.19086540  0.25000000  0.21411571  1
  S  S19  1  0.69086540  0.75000000  0.28588429  1
loop_
_geom_bond_atom_site_label_1
_geom_bond_atom_site_label_2
_geom_bond_distance
_geom_bond_site_symmetry_2
Ce0 S11 2.937618 1_645
Ce0 S3 2.939533 1_545
Ce0 S18 2.943866 1_655
Ce0 S10 2.950154 1_555
Ce0 S0 2.974076 1_655
Ce0 S19 2.982011 1_545
Ce0 S5 2.999372 1_645
Ce0 S4 3.089992 1_555
Ce1 S10 2.937618 1_565
Ce1 S2 2.939533 1_565
Ce1 S19 2.943866 1_555
Ce1 S11 2.950154 1_555
Ce1 S1 2.974076 1_555
Ce1 S18 2.982011 1_565
Ce1 S4 2.999372 1_565
Ce1 S5 3.089992 1_555
Ce2 S9 2.937618 1_555
Ce2 S1 2.939533 1_556
Ce2 S16 2.943866 1_555
Ce2 S8 2.950154 1_555
Ce2 S2 2.974076 1_556
Ce2 S17 2.982011 1_555
Ce2 S7 2.999372 1_555
Ce2 S6 3.089992 1_555
Ce3 S8 2.937618 1_455
Ce3 S0 2.939533 1_555
Ce3 S17 2.943866 1_455
Ce3 S9 2.950154 1_555
Ce3 S3 2.974076 1_455
Ce3 S16 2.982011 1_555
Ce3 S6 2.999372 1_455
Ce3 S7 3.089992 1_555
Ce4 S15 2.937618 1_465
Ce4 S0 2.939533 1_565
Ce4 S17 2.943866 1_455
Ce4 S14 2.950154 1_555
Ce4 S3 2.974076 1_455
Ce4 S16 2.982011 1_565
Ce4 S6 2.999372 1_465
Ce4 S7 3.089992 1_555
Ce5 S14 2.937618 1_545
Ce5 S1 2.939533 1_546
Ce5 S16 2.943866 1_555
Ce5 S15 2.950154 1_555
Ce5 S2 2.974076 1_556
Ce5 S17 2.982011 1_545
Ce5 S7 2.999372 1_545
Ce5 S6 3.089992 1_555
Ce6 S13 2.937618 1_555
Ce6 S2 2.939533 1_555
Ce6 S19 2.943866 1_555
Ce6 S12 2.950154 1_555
Ce6 S1 2.974076 1_555
Ce6 S18 2.982011 1_555
Ce6 S4 2.999372 1_555
Ce6 S5 3.089992 1_555
Ce7 S12 2.937618 1_655
Ce7 S3 2.939533 1_555
Ce7 S18 2.943866 1_655
Ce7 S13 2.950154 1_555
Ce7 S0 2.974076 1_655
Ce7 S19 2.982011 1_555
Ce7 S5 2.999372 1_655
Ce7 S4 3.089992 1_555
S0 U0 2.907104 1_555
S1 U1 2.907104 1_555
S2 U2 2.907104 1_554
S3 U3 2.907104 1_555
S4 U0 2.769048 1_555
S5 U1 2.769048 1_455
S6 U2 2.769048 1_655
S7 U3 2.769048 1_555
S8 U3 2.676793 1_555
S8 U0 2.755100 1_555
S9 U2 2.676793 1_555
S9 U1 2.755100 1_456
S10 U1 2.676793 1_545
S10 U2 2.755100 1_654
S11 U0 2.676793 1_565
S11 U3 2.755100 1_555
S12 U0 2.676793 1_555
S12 U3 2.755100 1_555
S13 U1 2.676793 1_555
S13 U2 2.755100 1_654
S14 U2 2.676793 1_565
S14 U1 2.755100 1_456
S15 U3 2.676793 1_545
S15 U0 2.755100 1_555
S16 U0 2.807136 1_555
S17 U1 2.807136 1_556
S18 U2 2.807136 1_554
S19 U3 2.807136 1_555
