# generated using pymatgen
data_SrCu(SeO3)2
_symmetry_space_group_name_H-M   'P 1'
_cell_length_a   4.84677331
_cell_length_b   4.84677331
_cell_length_c   15.09780128
_cell_angle_alpha   89.15518552
_cell_angle_beta   89.15518552
_cell_angle_gamma   65.27073997
_symmetry_Int_Tables_number   1
_chemical_formula_structural   SrCu(SeO3)2
_chemical_formula_sum   'Sr2 Cu2 Se4 O12'
_cell_volume   322.09153060
_cell_formula_units_Z   2
loop_
 _symmetry_equiv_pos_site_id
 _symmetry_equiv_pos_as_xyz
  1  'x, y, z'
loop_
 _atom_site_type_symbol
 _atom_site_label
 _atom_site_symmetry_multiplicity
 _atom_site_fract_x
 _atom_site_fract_y
 _atom_site_fract_z
 _atom_site_occupancy
  Sr  Sr0  1  0.05966800  0.94033200  0.75000000  1
  Sr  Sr1  1  0.94033200  0.05966800  0.25000000  1
  Cu  Cu0  1  0.00000000  0.00000000  0.00000000  1
  Cu  Cu1  1  0.00000000  0.00000000  0.50000000  1
  Se  Se0  1  0.64273700  0.64318000  0.90637200  1
  Se  Se1  1  0.64318000  0.64273700  0.40637200  1
  Se  Se2  1  0.35682000  0.35726300  0.59362800  1
  Se  Se3  1  0.35726300  0.35682000  0.09362800  1
  O  O0  1  0.83955200  0.24905000  0.89425300  1
  O  O1  1  0.75095000  0.16044800  0.60574700  1
  O  O2  1  0.16044800  0.75095000  0.10574700  1
  O  O3  1  0.24905000  0.83955200  0.39425300  1
  O  O4  1  0.26537000  0.68164400  0.91821400  1
  O  O5  1  0.31835600  0.73463000  0.58178600  1
  O  O6  1  0.73463000  0.31835600  0.08178600  1
  O  O7  1  0.68164400  0.26537000  0.41821400  1
  O  O8  1  0.75818800  0.63580500  0.29948700  1
  O  O9  1  0.36419500  0.24181200  0.20051300  1
  O  O10  1  0.24181200  0.36419500  0.70051300  1
  O  O11  1  0.63580500  0.75818800  0.79948700  1
loop_
_geom_bond_atom_site_label_1
_geom_bond_atom_site_label_2
_geom_bond_distance
_geom_bond_site_symmetry_2
Cu0 O2 1.950688 1_545
Cu0 O0 1.950688 1_454
Cu0 O6 1.977057 1_455
Cu0 O4 1.977057 1_544
Cu1 O1 1.950688 1_455
Cu1 O3 1.950688 1_545
Cu1 O5 1.977057 1_545
Cu1 O7 1.977057 1_455
O0 Se0 1.753025 1_555
O0 Sr0 2.610040 1_645
O1 Se2 1.753025 1_555
O1 Sr0 2.610040 1_645
O2 Se3 1.753025 1_555
O2 Sr1 2.610040 1_465
O3 Se1 1.753025 1_555
O3 Sr1 2.610040 1_465
O4 Se0 1.765804 1_555
O4 Sr0 2.819717 1_555
O5 Se2 1.765804 1_555
O5 Sr0 2.819717 1_555
O6 Se3 1.765804 1_555
O6 Sr1 2.819717 1_555
O7 Se1 1.765804 1_555
O7 Sr1 2.819717 1_555
O8 Se1 1.695691 1_555
O8 Sr1 2.647769 1_565
O8 Sr1 2.667334 1_555
O9 Se3 1.695691 1_555
O9 Sr1 2.647769 1_455
O9 Sr1 2.667334 1_555
O10 Se2 1.695691 1_555
O10 Sr0 2.647769 1_545
O10 Sr0 2.667334 1_555
O11 Se0 1.695691 1_555
O11 Sr0 2.647769 1_655
O11 Sr0 2.667334 1_555
