# generated using pymatgen
data_SmTe3
_symmetry_space_group_name_H-M   'P 1'
_cell_length_a   4.36495199
_cell_length_b   4.36623132
_cell_length_c   13.49330837
_cell_angle_alpha   90.00000000
_cell_angle_beta   99.29294011
_cell_angle_gamma   90.00000000
_symmetry_Int_Tables_number   1
_chemical_formula_structural   SmTe3
_chemical_formula_sum   'Sm2 Te6'
_cell_volume   253.78565961
_cell_formula_units_Z   2
loop_
 _symmetry_equiv_pos_site_id
 _symmetry_equiv_pos_as_xyz
  1  'x, y, z'
loop_
 _atom_site_type_symbol
 _atom_site_label
 _atom_site_symmetry_multiplicity
 _atom_site_fract_x
 _atom_site_fract_y
 _atom_site_fract_z
 _atom_site_occupancy
  Sm  Sm0  1  0.82933040  0.25000000  0.65857968  1
  Sm  Sm1  1  0.17066960  0.75000000  0.34142032  1
  Te  Te0  1  0.70623025  0.25000000  0.41278672  1
  Te  Te1  1  0.29376975  0.75000000  0.58721328  1
  Te  Te2  1  0.07454235  0.25000000  0.14917255  1
  Te  Te3  1  0.92545765  0.75000000  0.85082745  1
  Te  Te4  1  0.57448813  0.75000000  0.14908248  1
  Te  Te5  1  0.42551187  0.25000000  0.85091752  1
loop_
_geom_bond_atom_site_label_1
_geom_bond_atom_site_label_2
_geom_bond_distance
_geom_bond_site_symmetry_2
Sm0 Te1 3.229720 1_545
Sm0 Te1 3.229720 1_555
Sm0 Te1 3.230101 1_655
Sm0 Te1 3.230101 1_645
Sm0 Te0 3.273033 1_555
Sm0 Te3 3.364470 1_545
Sm0 Te3 3.364470 1_555
Sm0 Te5 3.364490 1_555
Sm0 Te5 3.365446 1_655
Sm1 Te0 3.229720 1_565
Sm1 Te0 3.229720 1_555
Sm1 Te0 3.230101 1_455
Sm1 Te0 3.230101 1_465
Sm1 Te1 3.273033 1_555
Sm1 Te2 3.364470 1_565
Sm1 Te2 3.364470 1_555
Sm1 Te4 3.364490 1_555
Sm1 Te4 3.365446 1_455
Te2 Te4 3.086911 1_545
Te2 Te4 3.086911 1_555
Te2 Te4 3.086968 1_455
Te2 Te4 3.086968 1_445
Te3 Te5 3.086911 1_555
Te3 Te5 3.086911 1_565
Te3 Te5 3.086968 1_665
Te3 Te5 3.086968 1_655
