# generated using pymatgen
data_NaBeAs
_symmetry_space_group_name_H-M   'P 1'
_cell_length_a   3.81814943
_cell_length_b   3.81815042
_cell_length_c   8.84438782
_cell_angle_alpha   90.00000000
_cell_angle_beta   90.00000000
_cell_angle_gamma   120.00000020
_symmetry_Int_Tables_number   1
_chemical_formula_structural   NaBeAs
_chemical_formula_sum   'Na2 Be2 As2'
_cell_volume   111.66173290
_cell_formula_units_Z   2
loop_
 _symmetry_equiv_pos_site_id
 _symmetry_equiv_pos_as_xyz
  1  'x, y, z'
loop_
 _atom_site_type_symbol
 _atom_site_label
 _atom_site_symmetry_multiplicity
 _atom_site_fract_x
 _atom_site_fract_y
 _atom_site_fract_z
 _atom_site_occupancy
  Na  Na0  1  -0.00000000  0.00000000  -0.00000000  1
  Na  Na1  1  -0.00000000  0.00000000  0.50000000  1
  Be  Be0  1  0.66666700  0.33333300  0.25000000  1
  Be  Be1  1  0.33333300  0.66666700  0.75000000  1
  As  As0  1  0.33333300  0.66666700  0.25000000  1
  As  As1  1  0.66666700  0.33333300  0.75000000  1
loop_
_geom_bond_atom_site_label_1
_geom_bond_atom_site_label_2
_geom_bond_distance
_geom_bond_site_symmetry_2
Be0 Na0 3.122237 1_655
Be0 Na1 3.122237 1_655
Be0 Na0 3.122239 1_555
Be0 Na1 3.122239 1_555
Be0 Na1 3.122239 1_665
Be0 Na0 3.122239 1_665
Be1 Na0 3.122237 1_566
Be1 Na1 3.122237 1_565
Be1 Na0 3.122239 1_666
Be1 Na1 3.122239 1_665
Be1 Na0 3.122239 1_556
Be1 Na1 3.122239 1_555
As0 Be0 2.204407 1_455
As0 Be0 2.204408 1_565
As0 Be0 2.204414 1_555
As0 Na0 3.122237 1_565
As0 Na1 3.122237 1_565
As0 Na0 3.122239 1_665
As0 Na1 3.122239 1_665
As0 Na0 3.122239 1_555
As0 Na1 3.122239 1_555
As1 Be1 2.204407 1_655
As1 Be1 2.204408 1_545
As1 Be1 2.204414 1_555
As1 Na0 3.122237 1_656
As1 Na1 3.122237 1_655
As1 Na0 3.122239 1_556
As1 Na1 3.122239 1_555
As1 Na1 3.122239 1_665
As1 Na0 3.122239 1_666
