# generated using pymatgen
data_Ti2CdC
_symmetry_space_group_name_H-M   'P 1'
_cell_length_a   6.18074604
_cell_length_b   6.18074506
_cell_length_c   28.92668938
_cell_angle_alpha   90.00000000
_cell_angle_beta   90.00000000
_cell_angle_gamma   119.99999434
_symmetry_Int_Tables_number   1
_chemical_formula_structural   Ti2CdC
_chemical_formula_sum   'Ti32 Cd16 C16'
_cell_volume   956.99819383
_cell_formula_units_Z   16
loop_
 _symmetry_equiv_pos_site_id
 _symmetry_equiv_pos_as_xyz
  1  'x, y, z'
loop_
 _atom_site_type_symbol
 _atom_site_label
 _atom_site_symmetry_multiplicity
 _atom_site_fract_x
 _atom_site_fract_y
 _atom_site_fract_z
 _atom_site_occupancy
  Ti  Ti0_0  1  0.33333350  0.16666650  0.28910817  1
  Ti  Ti0_1  1  0.33333350  0.16666650  0.78910817  1
  Ti  Ti0_2  1  0.33333350  0.66666650  0.28910817  1
  Ti  Ti0_3  1  0.33333350  0.66666650  0.78910817  1
  Ti  Ti0_4  1  0.83333350  0.16666650  0.28910817  1
  Ti  Ti0_5  1  0.83333350  0.16666650  0.78910817  1
  Ti  Ti0_6  1  0.83333350  0.66666650  0.28910817  1
  Ti  Ti0_7  1  0.83333350  0.66666650  0.78910817  1
  Ti  Ti1_0  1  0.16666650  0.33333350  0.21089183  1
  Ti  Ti1_1  1  0.16666650  0.33333350  0.71089183  1
  Ti  Ti1_2  1  0.16666650  0.83333350  0.21089183  1
  Ti  Ti1_3  1  0.16666650  0.83333350  0.71089183  1
  Ti  Ti1_4  1  0.66666650  0.33333350  0.21089183  1
  Ti  Ti1_5  1  0.66666650  0.33333350  0.71089183  1
  Ti  Ti1_6  1  0.66666650  0.83333350  0.21089183  1
  Ti  Ti1_7  1  0.66666650  0.83333350  0.71089183  1
  Ti  Ti2_0  1  0.16666650  0.33333350  0.03910817  1
  Ti  Ti2_1  1  0.16666650  0.33333350  0.53910817  1
  Ti  Ti2_2  1  0.16666650  0.83333350  0.03910817  1
  Ti  Ti2_3  1  0.16666650  0.83333350  0.53910817  1
  Ti  Ti2_4  1  0.66666650  0.33333350  0.03910817  1
  Ti  Ti2_5  1  0.66666650  0.33333350  0.53910817  1
  Ti  Ti2_6  1  0.66666650  0.83333350  0.03910817  1
  Ti  Ti2_7  1  0.66666650  0.83333350  0.53910817  1
  Ti  Ti3_0  1  0.33333350  0.16666650  0.46089183  1
  Ti  Ti3_1  1  0.33333350  0.16666650  0.96089183  1
  Ti  Ti3_2  1  0.33333350  0.66666650  0.46089183  1
  Ti  Ti3_3  1  0.33333350  0.66666650  0.96089183  1
  Ti  Ti3_4  1  0.83333350  0.16666650  0.46089183  1
  Ti  Ti3_5  1  0.83333350  0.16666650  0.96089183  1
  Ti  Ti3_6  1  0.83333350  0.66666650  0.46089183  1
  Ti  Ti3_7  1  0.83333350  0.66666650  0.96089183  1
  Cd  Cd0_0  1  0.33333350  0.16666650  0.12500000  1
  Cd  Cd0_1  1  0.33333350  0.16666650  0.62500000  1
  Cd  Cd0_2  1  0.33333350  0.66666650  0.12500000  1
  Cd  Cd0_3  1  0.33333350  0.66666650  0.62500000  1
  Cd  Cd0_4  1  0.83333350  0.16666650  0.12500000  1
  Cd  Cd0_5  1  0.83333350  0.16666650  0.62500000  1
  Cd  Cd0_6  1  0.83333350  0.66666650  0.12500000  1
  Cd  Cd0_7  1  0.83333350  0.66666650  0.62500000  1
  Cd  Cd1_0  1  0.16666650  0.33333350  0.37500000  1
  Cd  Cd1_1  1  0.16666650  0.33333350  0.87500000  1
  Cd  Cd1_2  1  0.16666650  0.83333350  0.37500000  1
  Cd  Cd1_3  1  0.16666650  0.83333350  0.87500000  1
  Cd  Cd1_4  1  0.66666650  0.33333350  0.37500000  1
  Cd  Cd1_5  1  0.66666650  0.33333350  0.87500000  1
  Cd  Cd1_6  1  0.66666650  0.83333350  0.37500000  1
  Cd  Cd1_7  1  0.66666650  0.83333350  0.87500000  1
  C  C0_0  1  0.00000000  0.00000000  0.25000000  1
  C  C0_1  1  0.00000000  0.00000000  0.75000000  1
  C  C0_2  1  0.00000000  0.50000000  0.25000000  1
  C  C0_3  1  0.00000000  0.50000000  0.75000000  1
  C  C0_4  1  0.50000000  0.00000000  0.25000000  1
  C  C0_5  1  0.50000000  0.00000000  0.75000000  1
  C  C0_6  1  0.50000000  0.50000000  0.25000000  1
  C  C0_7  1  0.50000000  0.50000000  0.75000000  1
  C  C1_0  1  0.00000000  0.00000000  0.00000000  1
  C  C1_1  1  0.00000000  0.00000000  0.50000000  1
  C  C1_2  1  0.00000000  0.50000000  0.00000000  1
  C  C1_3  1  0.00000000  0.50000000  0.50000000  1
  C  C1_4  1  0.50000000  0.00000000  0.00000000  1
  C  C1_5  1  0.50000000  0.00000000  0.50000000  1
  C  C1_6  1  0.50000000  0.50000000  0.00000000  1
  C  C1_7  1  0.50000000  0.50000000  0.50000000  1
loop_
_geom_bond_atom_site_label_1
_geom_bond_atom_site_label_2
_geom_bond_distance
_geom_bond_site_symmetry_2
Cd0_0 Ti1_2 3.058845 1_545
Cd0_0 Ti2_2 3.058845 1_545
Cd0_0 Ti2_4 3.058845 1_555
Cd0_0 Ti1_4 3.058845 1_555
Cd0_0 Ti1_0 3.058848 1_555
Cd0_0 Ti2_0 3.058848 1_555
Cd0_0 Cd0_2 3.090373 1_545
Cd0_0 Cd0_2 3.090373 1_555
Cd0_0 Cd0_4 3.090373 1_555
Cd0_0 Cd0_4 3.090373 1_455
Cd0_0 Cd0_6 3.090373 1_555
Cd0_0 Cd0_6 3.090373 1_445
Cd0_1 Ti2_3 3.058845 1_545
Cd0_1 Ti1_3 3.058845 1_545
Cd0_1 Ti2_5 3.058845 1_555
Cd0_1 Ti1_5 3.058845 1_555
Cd0_1 Ti2_1 3.058848 1_555
Cd0_1 Ti1_1 3.058848 1_555
Cd0_1 Cd0_3 3.090373 1_545
Cd0_1 Cd0_3 3.090373 1_555
Cd0_1 Cd0_5 3.090373 1_555
Cd0_1 Cd0_5 3.090373 1_455
Cd0_1 Cd0_7 3.090373 1_445
Cd0_1 Cd0_7 3.090373 1_555
Cd0_2 Ti2_0 3.058845 1_555
Cd0_2 Ti1_0 3.058845 1_555
Cd0_2 Ti1_6 3.058845 1_555
Cd0_2 Ti2_6 3.058845 1_555
Cd0_2 Ti1_2 3.058848 1_555
Cd0_2 Ti2_2 3.058848 1_555
Cd0_2 Cd0_6 3.090373 1_555
Cd0_2 Cd0_6 3.090373 1_455
Cd0_2 Cd0_4 3.090373 1_565
Cd0_2 Cd0_4 3.090373 1_455
Cd0_3 Ti2_1 3.058845 1_555
Cd0_3 Ti1_1 3.058845 1_555
Cd0_3 Ti2_7 3.058845 1_555
Cd0_3 Ti1_7 3.058845 1_555
Cd0_3 Ti2_3 3.058848 1_555
Cd0_3 Ti1_3 3.058848 1_555
Cd0_3 Cd0_7 3.090373 1_555
Cd0_3 Cd0_7 3.090373 1_455
Cd0_3 Cd0_5 3.090373 1_565
Cd0_3 Cd0_5 3.090373 1_455
Cd0_4 Ti2_6 3.058845 1_545
Cd0_4 Ti1_6 3.058845 1_545
Cd0_4 Ti1_0 3.058845 1_655
Cd0_4 Ti2_0 3.058845 1_655
Cd0_4 Ti2_4 3.058848 1_555
Cd0_4 Ti1_4 3.058848 1_555
Cd0_4 Cd0_6 3.090373 1_545
Cd0_4 Cd0_6 3.090373 1_555
Cd0_5 Ti2_7 3.058845 1_545
Cd0_5 Ti1_7 3.058845 1_545
Cd0_5 Ti2_1 3.058845 1_655
Cd0_5 Ti1_1 3.058845 1_655
Cd0_5 Ti2_5 3.058848 1_555
Cd0_5 Ti1_5 3.058848 1_555
Cd0_5 Cd0_7 3.090373 1_545
Cd0_5 Cd0_7 3.090373 1_555
Cd0_6 Ti1_4 3.058845 1_555
Cd0_6 Ti2_4 3.058845 1_555
Cd0_6 Ti2_2 3.058845 1_655
Cd0_6 Ti1_2 3.058845 1_655
Cd0_6 Ti2_6 3.058848 1_555
Cd0_6 Ti1_6 3.058848 1_555
Cd0_7 Ti2_5 3.058845 1_555
Cd0_7 Ti1_5 3.058845 1_555
Cd0_7 Ti2_3 3.058845 1_655
Cd0_7 Ti1_3 3.058845 1_655
Cd0_7 Ti2_7 3.058848 1_555
Cd0_7 Ti1_7 3.058848 1_555
Cd1_0 Ti0_2 3.058845 1_555
Cd1_0 Ti3_2 3.058845 1_555
Cd1_0 Ti0_4 3.058845 1_455
Cd1_0 Ti3_4 3.058845 1_455
Cd1_0 Ti0_0 3.058848 1_555
Cd1_0 Ti3_0 3.058848 1_555
Cd1_0 Cd1_2 3.090373 1_555
Cd1_0 Cd1_2 3.090373 1_545
Cd1_0 Cd1_4 3.090373 1_555
Cd1_0 Cd1_4 3.090373 1_455
Cd1_0 Cd1_6 3.090373 1_555
Cd1_0 Cd1_6 3.090373 1_445
Cd1_1 Ti3_3 3.058845 1_555
Cd1_1 Ti0_3 3.058845 1_555
Cd1_1 Ti3_5 3.058845 1_455
Cd1_1 Ti0_5 3.058845 1_455
Cd1_1 Ti0_1 3.058848 1_555
Cd1_1 Ti3_1 3.058848 1_555
Cd1_1 Cd1_3 3.090373 1_555
Cd1_1 Cd1_3 3.090373 1_545
Cd1_1 Cd1_5 3.090373 1_555
Cd1_1 Cd1_5 3.090373 1_455
Cd1_1 Cd1_7 3.090373 1_555
Cd1_1 Cd1_7 3.090373 1_445
Cd1_2 Ti0_0 3.058845 1_565
Cd1_2 Ti3_0 3.058845 1_565
Cd1_2 Ti0_6 3.058845 1_455
Cd1_2 Ti3_6 3.058845 1_455
Cd1_2 Ti0_2 3.058848 1_555
Cd1_2 Ti3_2 3.058848 1_555
Cd1_2 Cd1_6 3.090373 1_455
Cd1_2 Cd1_6 3.090373 1_555
Cd1_2 Cd1_4 3.090373 1_455
Cd1_2 Cd1_4 3.090373 1_565
Cd1_3 Ti0_1 3.058845 1_565
Cd1_3 Ti3_1 3.058845 1_565
Cd1_3 Ti0_7 3.058845 1_455
Cd1_3 Ti3_7 3.058845 1_455
Cd1_3 Ti3_3 3.058848 1_555
Cd1_3 Ti0_3 3.058848 1_555
Cd1_3 Cd1_7 3.090373 1_455
Cd1_3 Cd1_7 3.090373 1_555
Cd1_3 Cd1_5 3.090373 1_455
Cd1_3 Cd1_5 3.090373 1_565
Cd1_4 Ti0_6 3.058845 1_555
Cd1_4 Ti3_6 3.058845 1_555
Cd1_4 Ti0_0 3.058845 1_555
Cd1_4 Ti3_0 3.058845 1_555
Cd1_4 Ti0_4 3.058848 1_555
Cd1_4 Ti3_4 3.058848 1_555
Cd1_4 Cd1_6 3.090373 1_555
Cd1_4 Cd1_6 3.090373 1_545
Cd1_5 Ti3_7 3.058845 1_555
Cd1_5 Ti0_7 3.058845 1_555
Cd1_5 Ti0_1 3.058845 1_555
Cd1_5 Ti3_1 3.058845 1_555
Cd1_5 Ti0_5 3.058848 1_555
Cd1_5 Ti3_5 3.058848 1_555
Cd1_5 Cd1_7 3.090373 1_555
Cd1_5 Cd1_7 3.090373 1_545
Cd1_6 Ti0_4 3.058845 1_565
Cd1_6 Ti3_4 3.058845 1_565
Cd1_6 Ti0_2 3.058845 1_555
Cd1_6 Ti3_2 3.058845 1_555
Cd1_6 Ti0_6 3.058848 1_555
Cd1_6 Ti3_6 3.058848 1_555
Cd1_7 Ti0_5 3.058845 1_565
Cd1_7 Ti3_5 3.058845 1_565
Cd1_7 Ti3_3 3.058845 1_555
Cd1_7 Ti0_3 3.058845 1_555
Cd1_7 Ti3_7 3.058848 1_555
Cd1_7 Ti0_7 3.058848 1_555
C0_0 Ti0_4 2.112636 1_455
C0_0 Ti1_2 2.112636 1_545
C0_0 Ti0_6 2.112639 1_445
C0_0 Ti1_0 2.112639 1_555
C0_0 Ti0_0 2.112639 1_555
C0_0 Ti1_6 2.112639 1_445
C0_1 Ti1_3 2.112636 1_545
C0_1 Ti0_5 2.112636 1_455
C0_1 Ti1_1 2.112639 1_555
C0_1 Ti0_7 2.112639 1_445
C0_1 Ti1_7 2.112639 1_445
C0_1 Ti0_1 2.112639 1_555
C0_2 Ti1_0 2.112636 1_555
C0_2 Ti0_6 2.112636 1_455
C0_2 Ti0_4 2.112639 1_455
C0_2 Ti1_2 2.112639 1_555
C0_2 Ti0_2 2.112639 1_555
C0_2 Ti1_4 2.112639 1_455
C0_3 Ti1_1 2.112636 1_555
C0_3 Ti0_7 2.112636 1_455
C0_3 Ti1_3 2.112639 1_555
C0_3 Ti0_5 2.112639 1_455
C0_3 Ti1_5 2.112639 1_455
C0_3 Ti0_3 2.112639 1_555
C0_4 Ti0_0 2.112636 1_555
C0_4 Ti1_6 2.112636 1_545
C0_4 Ti0_2 2.112639 1_545
C0_4 Ti1_4 2.112639 1_555
C0_4 Ti0_4 2.112639 1_555
C0_4 Ti1_2 2.112639 1_545
C0_5 Ti1_7 2.112636 1_545
C0_5 Ti0_1 2.112636 1_555
C0_5 Ti1_5 2.112639 1_555
C0_5 Ti0_3 2.112639 1_545
C0_5 Ti1_3 2.112639 1_545
C0_5 Ti0_5 2.112639 1_555
C0_6 Ti0_2 2.112636 1_555
C0_6 Ti1_4 2.112636 1_555
C0_6 Ti0_0 2.112639 1_555
C0_6 Ti1_6 2.112639 1_555
C0_6 Ti0_6 2.112639 1_555
C0_6 Ti1_0 2.112639 1_555
C0_7 Ti1_5 2.112636 1_555
C0_7 Ti0_3 2.112636 1_555
C0_7 Ti1_7 2.112639 1_555
C0_7 Ti0_1 2.112639 1_555
C0_7 Ti1_1 2.112639 1_555
C0_7 Ti0_7 2.112639 1_555
C1_0 Ti2_2 2.112636 1_545
C1_0 Ti3_5 2.112636 1_454
C1_0 Ti2_0 2.112639 1_555
C1_0 Ti3_7 2.112639 1_444
C1_0 Ti2_6 2.112639 1_445
C1_0 Ti3_1 2.112639 1_554
C1_1 Ti2_3 2.112636 1_545
C1_1 Ti3_4 2.112636 1_455
C1_1 Ti3_6 2.112639 1_445
C1_1 Ti2_1 2.112639 1_555
C1_1 Ti2_7 2.112639 1_445
C1_1 Ti3_0 2.112639 1_555
C1_2 Ti2_0 2.112636 1_555
C1_2 Ti3_7 2.112636 1_454
C1_2 Ti2_2 2.112639 1_555
C1_2 Ti3_5 2.112639 1_454
C1_2 Ti2_4 2.112639 1_455
C1_2 Ti3_3 2.112639 1_554
C1_3 Ti2_1 2.112636 1_555
C1_3 Ti3_6 2.112636 1_455
C1_3 Ti2_3 2.112639 1_555
C1_3 Ti3_4 2.112639 1_455
C1_3 Ti3_2 2.112639 1_555
C1_3 Ti2_5 2.112639 1_455
C1_4 Ti2_6 2.112636 1_545
C1_4 Ti3_1 2.112636 1_554
C1_4 Ti2_4 2.112639 1_555
C1_4 Ti3_3 2.112639 1_544
C1_4 Ti2_2 2.112639 1_545
C1_4 Ti3_5 2.112639 1_554
C1_5 Ti3_0 2.112636 1_555
C1_5 Ti2_7 2.112636 1_545
C1_5 Ti3_2 2.112639 1_545
C1_5 Ti2_5 2.112639 1_555
C1_5 Ti2_3 2.112639 1_545
C1_5 Ti3_4 2.112639 1_555
C1_6 Ti2_4 2.112636 1_555
C1_6 Ti3_3 2.112636 1_554
C1_6 Ti2_6 2.112639 1_555
C1_6 Ti3_1 2.112639 1_554
C1_6 Ti2_0 2.112639 1_555
C1_6 Ti3_7 2.112639 1_554
C1_7 Ti3_2 2.112636 1_555
C1_7 Ti2_5 2.112636 1_555
C1_7 Ti2_7 2.112639 1_555
C1_7 Ti3_0 2.112639 1_555
C1_7 Ti3_6 2.112639 1_555
C1_7 Ti2_1 2.112639 1_555
