# generated using pymatgen
data_Li4ZrF8
_symmetry_space_group_name_H-M   'P 1'
_cell_length_a   5.60911294
_cell_length_b   9.48693900
_cell_length_c   9.54025937
_cell_angle_alpha   90.00000000
_cell_angle_beta   90.00000000
_cell_angle_gamma   90.00000000
_symmetry_Int_Tables_number   1
_chemical_formula_structural   Li4ZrF8
_chemical_formula_sum   'Li16 Zr4 F32'
_cell_volume   507.66880134
_cell_formula_units_Z   4
loop_
 _symmetry_equiv_pos_site_id
 _symmetry_equiv_pos_as_xyz
  1  'x, y, z'
loop_
 _atom_site_type_symbol
 _atom_site_label
 _atom_site_symmetry_multiplicity
 _atom_site_fract_x
 _atom_site_fract_y
 _atom_site_fract_z
 _atom_site_occupancy
  Li  Li0  1  0.11791249  0.37010624  0.05857640  1
  Li  Li1  1  0.61791249  0.12989376  0.94142360  1
  Li  Li2  1  0.38208751  0.87010624  0.44142360  1
  Li  Li3  1  0.88208751  0.62989376  0.55857640  1
  Li  Li4  1  0.88208751  0.62989376  0.94142360  1
  Li  Li5  1  0.38208751  0.87010624  0.05857640  1
  Li  Li6  1  0.61791249  0.12989376  0.55857640  1
  Li  Li7  1  0.11791249  0.37010624  0.44142360  1
  Li  Li8  1  0.62984551  0.39816820  0.08173375  1
  Li  Li9  1  0.12984551  0.10183180  0.91826625  1
  Li  Li10  1  0.87015449  0.89816820  0.41826625  1
  Li  Li11  1  0.37015449  0.60183180  0.58173375  1
  Li  Li12  1  0.37015449  0.60183180  0.91826625  1
  Li  Li13  1  0.87015449  0.89816820  0.08173375  1
  Li  Li14  1  0.12984551  0.10183180  0.58173375  1
  Li  Li15  1  0.62984551  0.39816820  0.41826625  1
  Zr  Zr0  1  0.37008456  0.13507086  0.25000000  1
  Zr  Zr1  1  0.62991544  0.86492914  0.75000000  1
  Zr  Zr2  1  0.12991544  0.63507086  0.25000000  1
  Zr  Zr3  1  0.87008456  0.36492914  0.75000000  1
  F  F0  1  0.85586580  0.98097768  0.61574813  1
  F  F1  1  0.37803437  0.70958369  0.75000000  1
  F  F2  1  0.87803437  0.79041631  0.25000000  1
  F  F3  1  0.12196563  0.20958369  0.75000000  1
  F  F4  1  0.14413420  0.01902232  0.11574813  1
  F  F5  1  0.64413420  0.48097768  0.88425187  1
  F  F6  1  0.35586580  0.51902232  0.38425187  1
  F  F7  1  0.64413420  0.48097768  0.61574813  1
  F  F8  1  0.85586580  0.98097768  0.88425187  1
  F  F9  1  0.35586580  0.51902232  0.11574813  1
  F  F10  1  0.10504337  0.47780935  0.62005776  1
  F  F11  1  0.14413420  0.01902232  0.38425187  1
  F  F12  1  0.60504337  0.02219065  0.12005776  1
  F  F13  1  0.10504337  0.47780935  0.87994224  1
  F  F14  1  0.89495663  0.52219065  0.37994224  1
  F  F15  1  0.39495663  0.97780935  0.62005776  1
  F  F16  1  0.39495663  0.97780935  0.87994224  1
  F  F17  1  0.89495663  0.52219065  0.12005776  1
  F  F18  1  0.88235512  0.71055576  0.75000000  1
  F  F19  1  0.60504337  0.02219065  0.37994224  1
  F  F20  1  0.37168735  0.23537572  0.46449538  1
  F  F21  1  0.87168735  0.26462428  0.53550462  1
  F  F22  1  0.12831265  0.73537572  0.03550462  1
  F  F23  1  0.62831265  0.76462428  0.96449538  1
  F  F24  1  0.62831265  0.76462428  0.53550462  1
  F  F25  1  0.12831265  0.73537572  0.46449538  1
  F  F26  1  0.87168735  0.26462428  0.96449538  1
  F  F27  1  0.37168735  0.23537572  0.03550462  1
  F  F28  1  0.11764488  0.28944424  0.25000000  1
  F  F29  1  0.61764488  0.21055576  0.75000000  1
  F  F30  1  0.38235512  0.78944424  0.25000000  1
  F  F31  1  0.62196563  0.29041631  0.25000000  1
loop_
_geom_bond_atom_site_label_1
_geom_bond_atom_site_label_2
_geom_bond_distance
_geom_bond_site_symmetry_2
F0 Li14 1.944621 1_665
F0 Li6 2.018619 1_565
F0 Li10 2.042833 1_555
F0 Zr1 2.111582 1_555
F1 Li11 1.903659 1_555
F1 Li12 1.903659 1_555
F1 Zr1 2.041576 1_555
F2 Li10 1.903659 1_555
F2 Li13 1.903659 1_555
F2 Zr2 2.041576 1_655
F3 Li14 1.903659 1_555
F3 Li9 1.903659 1_555
F3 Zr3 2.041576 1_455
F4 Li13 1.944621 1_445
F4 Li5 2.018619 1_545
F4 Li9 2.042833 1_554
F4 Zr0 2.111582 1_555
F5 Li12 1.944621 1_555
F5 Li4 2.018619 1_555
F5 Li8 2.042833 1_556
F5 Zr3 2.111582 1_555
F6 Li15 1.944621 1_555
F6 Li7 2.018619 1_555
F6 Li11 2.042833 1_555
F6 Zr2 2.111582 1_555
F7 Li11 1.944621 1_555
F7 Li3 2.018619 1_555
F7 Li15 2.042833 1_555
F7 Zr3 2.111582 1_555
F8 Li9 1.944621 1_665
F8 Li1 2.018619 1_565
F8 Li13 2.042833 1_556
F8 Zr1 2.111582 1_555
F9 Li8 1.944621 1_555
F9 Li0 2.018619 1_555
F9 Li12 2.042833 1_554
F9 Zr2 2.111582 1_555
F10 Li11 1.931148 1_555
F10 Li7 1.988362 1_555
F10 Li3 1.997428 1_455
F10 Zr3 2.102499 1_455
F11 Li10 1.944621 1_445
F11 Li2 2.018619 1_545
F11 Li14 2.042833 1_555
F11 Zr0 2.111582 1_555
F12 Li13 1.931148 1_545
F12 Li1 1.988362 1_554
F12 Li5 1.997428 1_545
F12 Zr0 2.102499 1_555
F13 Li12 1.931148 1_555
F13 Li0 1.988362 1_556
F13 Li4 1.997428 1_455
F13 Zr3 2.102499 1_455
F14 Li15 1.931148 1_555
F14 Li3 1.988362 1_555
F14 Li7 1.997428 1_655
F14 Zr2 2.102499 1_655
F15 Li14 1.931148 1_565
F15 Li2 1.988362 1_555
F15 Li6 1.997428 1_565
F15 Zr1 2.102499 1_555
F16 Li9 1.931148 1_565
F16 Li5 1.988362 1_556
F16 Li1 1.997428 1_565
F16 Zr1 2.102499 1_555
F17 Li8 1.931148 1_555
F17 Li4 1.988362 1_554
F17 Li0 1.997428 1_655
F17 Zr2 2.102499 1_655
F18 Li4 1.980077 1_555
F18 Li3 1.980077 1_555
F18 Zr1 2.037106 1_555
F19 Li10 1.931148 1_545
F19 Li6 1.988362 1_555
F19 Li2 1.997428 1_545
F19 Zr0 2.102499 1_555
F20 Li7 1.925723 1_555
F20 Li6 1.927294 1_555
F20 Li15 2.162523 1_555
F20 Li14 2.167082 1_555
F20 Zr0 2.256792 1_555
F21 Li6 1.925723 1_555
F21 Li7 1.927294 1_655
F21 Li14 2.162523 1_655
F21 Li15 2.167082 1_555
F21 Zr3 2.256792 1_555
F22 Li5 1.925723 1_555
F22 Li4 1.927294 1_454
F22 Li13 2.162523 1_455
F22 Li12 2.167082 1_554
F22 Zr2 2.256792 1_555
F23 Li4 1.925723 1_555
F23 Li5 1.927294 1_556
F23 Li12 2.162523 1_555
F23 Li13 2.167082 1_556
F23 Zr1 2.256792 1_555
F24 Li3 1.925723 1_555
F24 Li2 1.927294 1_555
F24 Li11 2.162523 1_555
F24 Li10 2.167082 1_555
F24 Zr1 2.256792 1_555
F25 Li2 1.925723 1_555
F25 Li3 1.927294 1_455
F25 Li10 2.162523 1_455
F25 Li11 2.167082 1_555
F25 Zr2 2.256792 1_555
F26 Li1 1.925723 1_555
F26 Li0 1.927294 1_656
F26 Li9 2.162523 1_655
F26 Li8 2.167082 1_556
F26 Zr3 2.256792 1_555
F27 Li0 1.925723 1_555
F27 Li1 1.927294 1_554
F27 Li8 2.162523 1_555
F27 Li9 2.167082 1_554
F27 Zr0 2.256792 1_555
F28 Li7 1.980077 1_555
F28 Li0 1.980077 1_555
F28 Zr0 2.037106 1_555
F29 Li1 1.980077 1_555
F29 Li6 1.980077 1_555
F29 Zr3 2.037106 1_555
F30 Li2 1.980077 1_555
F30 Li5 1.980077 1_555
F30 Zr2 2.037106 1_555
F31 Li15 1.903659 1_555
F31 Li8 1.903659 1_555
F31 Zr0 2.041576 1_555
