# generated using pymatgen
data_B2(CN2)3
_symmetry_space_group_name_H-M   'P 1'
_cell_length_a   6.63826377
_cell_length_b   6.63826377
_cell_length_c   4.69396100
_cell_angle_alpha   90.00000000
_cell_angle_beta   90.00000000
_cell_angle_gamma   119.99999775
_symmetry_Int_Tables_number   1
_chemical_formula_structural   B2(CN2)3
_chemical_formula_sum   'B2 C3 N6'
_cell_volume   179.13445593
_cell_formula_units_Z   1
loop_
 _symmetry_equiv_pos_site_id
 _symmetry_equiv_pos_as_xyz
  1  'x, y, z'
loop_
 _atom_site_type_symbol
 _atom_site_label
 _atom_site_symmetry_multiplicity
 _atom_site_fract_x
 _atom_site_fract_y
 _atom_site_fract_z
 _atom_site_occupancy
  B  B0  1  0.68740100  0.68740100  0.68740100  1
  B  B1  1  0.31259900  0.31259900  0.31259900  1
  C  C0  1  0.00000000  0.40843000  0.59157000  1
  C  C1  1  0.59157000  0.00000000  0.40843000  1
  C  C2  1  0.40843000  0.59157000  0.00000000  1
  N  N0  1  0.85151800  0.50100300  0.70871700  1
  N  N1  1  0.50100300  0.70871700  0.85151800  1
  N  N2  1  0.14848200  0.29128300  0.49899700  1
  N  N3  1  0.49899700  0.14848200  0.29128300  1
  N  N4  1  0.29128300  0.49899700  0.14848200  1
  N  N5  1  0.70871700  0.85151800  0.50100300  1
loop_
_geom_bond_atom_site_label_1
_geom_bond_atom_site_label_2
_geom_bond_distance
_geom_bond_site_symmetry_2
B0 N5 1.348443 1_555
B0 N1 1.523030 1_555
B0 N0 2.018915 1_555
B1 N2 1.348443 1_555
B1 N4 1.523030 1_555
B1 N3 2.018915 1_555
C0 N0 1.502417 1_455
C0 N2 1.591100 1_555
C1 N3 1.502417 1_555
C1 N5 1.591100 1_545
C2 N1 0.995119 1_554
C2 N4 0.995119 1_555
