# generated using pymatgen
data_LuOs3
_symmetry_space_group_name_H-M   'P 1'
_cell_length_a   5.72632395
_cell_length_b   5.72632395
_cell_length_c   4.59479900
_cell_angle_alpha   90.00000000
_cell_angle_beta   90.00000000
_cell_angle_gamma   119.99999946
_symmetry_Int_Tables_number   1
_chemical_formula_structural   LuOs3
_chemical_formula_sum   'Lu2 Os6'
_cell_volume   130.48151153
_cell_formula_units_Z   2
loop_
 _symmetry_equiv_pos_site_id
 _symmetry_equiv_pos_as_xyz
  1  'x, y, z'
loop_
 _atom_site_type_symbol
 _atom_site_label
 _atom_site_symmetry_multiplicity
 _atom_site_fract_x
 _atom_site_fract_y
 _atom_site_fract_z
 _atom_site_occupancy
  Lu  Lu0  1  0.33333300  0.66666700  0.75000000  1
  Lu  Lu1  1  0.66666700  0.33333300  0.25000000  1
  Os  Os0  1  0.16271300  0.32542700  0.25000000  1
  Os  Os1  1  0.67457300  0.83728700  0.25000000  1
  Os  Os2  1  0.16271300  0.83728700  0.25000000  1
  Os  Os3  1  0.83728700  0.67457300  0.75000000  1
  Os  Os4  1  0.32542700  0.16271300  0.75000000  1
  Os  Os5  1  0.83728700  0.16271300  0.75000000  1
loop_
_geom_bond_atom_site_label_1
_geom_bond_atom_site_label_2
_geom_bond_distance
_geom_bond_site_symmetry_2
Lu0 Os2 2.853381 1_556
Lu0 Os2 2.853381 1_555
Lu0 Os1 2.853381 1_555
Lu0 Os1 2.853381 1_556
Lu0 Os0 2.853381 1_556
Lu0 Os0 2.853381 1_555
Lu0 Os3 2.863425 1_455
Lu0 Os4 2.863425 1_565
Lu0 Os5 2.863431 1_455
Lu0 Os5 2.863431 1_565
Lu0 Os4 2.863436 1_555
Lu0 Os3 2.863436 1_555
Lu1 Os5 2.853381 1_555
Lu1 Os5 2.853381 1_554
Lu1 Os3 2.853381 1_555
Lu1 Os3 2.853381 1_554
Lu1 Os4 2.853381 1_555
Lu1 Os4 2.853381 1_554
Lu1 Os1 2.863425 1_545
Lu1 Os0 2.863425 1_655
Lu1 Os2 2.863431 1_545
Lu1 Os2 2.863431 1_655
Lu1 Os0 2.863436 1_555
Lu1 Os1 2.863436 1_555
Os0 Os2 2.795248 1_545
Os0 Os1 2.795248 1_445
Os0 Os5 2.807580 1_455
Os0 Os5 2.807580 1_454
Os0 Os4 2.807585 1_555
Os0 Os4 2.807585 1_554
Os0 Os2 2.931076 1_555
Os0 Os1 2.931076 1_555
Os1 Os2 2.795248 1_655
Os1 Os5 2.807580 1_565
Os1 Os5 2.807580 1_564
Os1 Os3 2.807585 1_555
Os1 Os3 2.807585 1_554
Os1 Os2 2.931076 1_555
Os2 Os3 2.807580 1_454
Os2 Os3 2.807580 1_455
Os2 Os4 2.807580 1_565
Os2 Os4 2.807580 1_564
Os3 Os5 2.795248 1_565
Os3 Os4 2.795248 1_665
Os3 Os5 2.931076 1_555
Os3 Os4 2.931076 1_555
Os4 Os5 2.795248 1_455
Os4 Os5 2.931076 1_555
