# generated using pymatgen
data_MgU
_symmetry_space_group_name_H-M   'P 1'
_cell_length_a   5.60069600
_cell_length_b   9.59556000
_cell_length_c   12.39590200
_cell_angle_alpha   90.00000000
_cell_angle_beta   90.00000000
_cell_angle_gamma   90.00000000
_symmetry_Int_Tables_number   1
_chemical_formula_structural   MgU
_chemical_formula_sum   'Mg16 U16'
_cell_volume   666.17826597
_cell_formula_units_Z   16
loop_
 _symmetry_equiv_pos_site_id
 _symmetry_equiv_pos_as_xyz
  1  'x, y, z'
loop_
 _atom_site_type_symbol
 _atom_site_label
 _atom_site_symmetry_multiplicity
 _atom_site_fract_x
 _atom_site_fract_y
 _atom_site_fract_z
 _atom_site_occupancy
  Mg  Mg0_0  1  0.00000000  0.12500000  0.05916350  1
  Mg  Mg0_1  1  0.00000000  0.12500000  0.55916350  1
  Mg  Mg0_2  1  0.00000000  0.62500000  0.05916350  1
  Mg  Mg0_3  1  0.00000000  0.62500000  0.55916350  1
  Mg  Mg0_4  1  0.50000000  0.12500000  0.05916350  1
  Mg  Mg0_5  1  0.50000000  0.12500000  0.55916350  1
  Mg  Mg0_6  1  0.50000000  0.62500000  0.05916350  1
  Mg  Mg0_7  1  0.50000000  0.62500000  0.55916350  1
  Mg  Mg1_0  1  0.00000000  0.37500000  0.44083650  1
  Mg  Mg1_1  1  0.00000000  0.37500000  0.94083650  1
  Mg  Mg1_2  1  0.00000000  0.87500000  0.44083650  1
  Mg  Mg1_3  1  0.00000000  0.87500000  0.94083650  1
  Mg  Mg1_4  1  0.50000000  0.37500000  0.44083650  1
  Mg  Mg1_5  1  0.50000000  0.37500000  0.94083650  1
  Mg  Mg1_6  1  0.50000000  0.87500000  0.44083650  1
  Mg  Mg1_7  1  0.50000000  0.87500000  0.94083650  1
  U  U0_0  1  0.25000000  0.37500000  0.20472150  1
  U  U0_1  1  0.25000000  0.37500000  0.70472150  1
  U  U0_2  1  0.25000000  0.87500000  0.20472150  1
  U  U0_3  1  0.25000000  0.87500000  0.70472150  1
  U  U0_4  1  0.75000000  0.37500000  0.20472150  1
  U  U0_5  1  0.75000000  0.37500000  0.70472150  1
  U  U0_6  1  0.75000000  0.87500000  0.20472150  1
  U  U0_7  1  0.75000000  0.87500000  0.70472150  1
  U  U1_0  1  0.25000000  0.12500000  0.29527850  1
  U  U1_1  1  0.25000000  0.12500000  0.79527850  1
  U  U1_2  1  0.25000000  0.62500000  0.29527850  1
  U  U1_3  1  0.25000000  0.62500000  0.79527850  1
  U  U1_4  1  0.75000000  0.12500000  0.29527850  1
  U  U1_5  1  0.75000000  0.12500000  0.79527850  1
  U  U1_6  1  0.75000000  0.62500000  0.29527850  1
  U  U1_7  1  0.75000000  0.62500000  0.79527850  1
loop_
_geom_bond_atom_site_label_1
_geom_bond_atom_site_label_2
_geom_bond_distance
_geom_bond_site_symmetry_2
Mg0_0 Mg0_4 2.800348 1_455
Mg0_0 Mg0_4 2.800348 1_555
Mg0_0 Mg1_3 2.811777 1_544
Mg0_0 Mg1_1 2.811777 1_554
Mg0_0 U1_4 3.244532 1_455
Mg0_0 U1_0 3.244532 1_555
Mg0_0 U0_6 3.312211 1_445
Mg0_0 U0_2 3.312211 1_545
Mg0_0 U0_4 3.312211 1_455
Mg0_0 U0_0 3.312211 1_555
Mg0_0 U1_1 3.558164 1_554
Mg0_0 U1_5 3.558164 1_454
Mg0_1 Mg0_5 2.800348 1_555
Mg0_1 Mg0_5 2.800348 1_455
Mg0_1 Mg1_2 2.811777 1_545
Mg0_1 Mg1_0 2.811777 1_555
Mg0_1 U1_5 3.244532 1_455
Mg0_1 U1_1 3.244532 1_555
Mg0_1 U0_7 3.312211 1_445
Mg0_1 U0_3 3.312211 1_545
Mg0_1 U0_5 3.312211 1_455
Mg0_1 U0_1 3.312211 1_555
Mg0_1 U1_4 3.558164 1_455
Mg0_1 U1_0 3.558164 1_555
Mg0_2 Mg0_6 2.800348 1_555
Mg0_2 Mg0_6 2.800348 1_455
Mg0_2 Mg1_1 2.811777 1_554
Mg0_2 Mg1_3 2.811777 1_554
Mg0_2 U1_6 3.244532 1_455
Mg0_2 U1_2 3.244532 1_555
Mg0_2 U0_4 3.312211 1_455
Mg0_2 U0_0 3.312211 1_555
Mg0_2 U0_2 3.312211 1_555
Mg0_2 U0_6 3.312211 1_455
Mg0_2 U1_7 3.558164 1_454
Mg0_2 U1_3 3.558164 1_554
Mg0_3 Mg0_7 2.800348 1_455
Mg0_3 Mg0_7 2.800348 1_555
Mg0_3 Mg1_0 2.811777 1_555
Mg0_3 Mg1_2 2.811777 1_555
Mg0_3 U1_7 3.244532 1_455
Mg0_3 U1_3 3.244532 1_555
Mg0_3 U0_5 3.312211 1_455
Mg0_3 U0_1 3.312211 1_555
Mg0_3 U0_7 3.312211 1_455
Mg0_3 U0_3 3.312211 1_555
Mg0_3 U1_6 3.558164 1_455
Mg0_3 U1_2 3.558164 1_555
Mg0_4 Mg1_7 2.811777 1_544
Mg0_4 Mg1_5 2.811777 1_554
Mg0_4 U1_0 3.244532 1_555
Mg0_4 U1_4 3.244532 1_555
Mg0_4 U0_2 3.312211 1_545
Mg0_4 U0_6 3.312211 1_545
Mg0_4 U0_0 3.312211 1_555
Mg0_4 U0_4 3.312211 1_555
Mg0_4 U1_1 3.558164 1_554
Mg0_4 U1_5 3.558164 1_554
Mg0_5 Mg1_6 2.811777 1_545
Mg0_5 Mg1_4 2.811777 1_555
Mg0_5 U1_1 3.244532 1_555
Mg0_5 U1_5 3.244532 1_555
Mg0_5 U0_3 3.312211 1_545
Mg0_5 U0_7 3.312211 1_545
Mg0_5 U0_5 3.312211 1_555
Mg0_5 U0_1 3.312211 1_555
Mg0_5 U1_4 3.558164 1_555
Mg0_5 U1_0 3.558164 1_555
Mg0_6 Mg1_5 2.811777 1_554
Mg0_6 Mg1_7 2.811777 1_554
Mg0_6 U1_2 3.244532 1_555
Mg0_6 U1_6 3.244532 1_555
Mg0_6 U0_0 3.312211 1_555
Mg0_6 U0_4 3.312211 1_555
Mg0_6 U0_2 3.312211 1_555
Mg0_6 U0_6 3.312211 1_555
Mg0_6 U1_3 3.558164 1_554
Mg0_6 U1_7 3.558164 1_554
Mg0_7 Mg1_4 2.811777 1_555
Mg0_7 Mg1_6 2.811777 1_555
Mg0_7 U1_3 3.244532 1_555
Mg0_7 U1_7 3.244532 1_555
Mg0_7 U0_5 3.312211 1_555
Mg0_7 U0_1 3.312211 1_555
Mg0_7 U0_3 3.312211 1_555
Mg0_7 U0_7 3.312211 1_555
Mg0_7 U1_2 3.558164 1_555
Mg0_7 U1_6 3.558164 1_555
Mg1_0 Mg1_4 2.800348 1_455
Mg1_0 Mg1_4 2.800348 1_555
Mg1_0 U0_4 3.244532 1_455
Mg1_0 U0_0 3.244532 1_555
Mg1_0 U1_4 3.312211 1_455
Mg1_0 U1_6 3.312211 1_455
Mg1_0 U1_2 3.312211 1_555
Mg1_0 U1_0 3.312211 1_555
Mg1_0 U0_1 3.558164 1_555
Mg1_0 U0_5 3.558164 1_455
Mg1_1 Mg1_5 2.800348 1_555
Mg1_1 Mg1_5 2.800348 1_455
Mg1_1 U0_5 3.244532 1_455
Mg1_1 U0_1 3.244532 1_555
Mg1_1 U1_7 3.312211 1_455
Mg1_1 U1_5 3.312211 1_455
Mg1_1 U1_3 3.312211 1_555
Mg1_1 U1_1 3.312211 1_555
Mg1_1 U0_4 3.558164 1_456
Mg1_1 U0_0 3.558164 1_556
Mg1_2 Mg1_6 2.800348 1_455
Mg1_2 Mg1_6 2.800348 1_555
Mg1_2 U0_6 3.244532 1_455
Mg1_2 U0_2 3.244532 1_555
Mg1_2 U1_4 3.312211 1_465
Mg1_2 U1_0 3.312211 1_565
Mg1_2 U1_6 3.312211 1_455
Mg1_2 U1_2 3.312211 1_555
Mg1_2 U0_3 3.558164 1_555
Mg1_2 U0_7 3.558164 1_455
Mg1_3 Mg1_7 2.800348 1_555
Mg1_3 Mg1_7 2.800348 1_455
Mg1_3 U0_7 3.244532 1_455
Mg1_3 U0_3 3.244532 1_555
Mg1_3 U1_5 3.312211 1_465
Mg1_3 U1_1 3.312211 1_565
Mg1_3 U1_7 3.312211 1_455
Mg1_3 U1_3 3.312211 1_555
Mg1_3 U0_6 3.558164 1_456
Mg1_3 U0_2 3.558164 1_556
Mg1_4 U0_0 3.244532 1_555
Mg1_4 U0_4 3.244532 1_555
Mg1_4 U1_2 3.312211 1_555
Mg1_4 U1_6 3.312211 1_555
Mg1_4 U1_0 3.312211 1_555
Mg1_4 U1_4 3.312211 1_555
Mg1_4 U0_1 3.558164 1_555
Mg1_4 U0_5 3.558164 1_555
Mg1_5 U0_5 3.244532 1_555
Mg1_5 U0_1 3.244532 1_555
Mg1_5 U1_3 3.312211 1_555
Mg1_5 U1_1 3.312211 1_555
Mg1_5 U1_7 3.312211 1_555
Mg1_5 U1_5 3.312211 1_555
Mg1_5 U0_0 3.558164 1_556
Mg1_5 U0_4 3.558164 1_556
Mg1_6 U0_2 3.244532 1_555
Mg1_6 U0_6 3.244532 1_555
Mg1_6 U1_0 3.312211 1_565
Mg1_6 U1_4 3.312211 1_565
Mg1_6 U1_2 3.312211 1_555
Mg1_6 U1_6 3.312211 1_555
Mg1_6 U0_3 3.558164 1_555
Mg1_6 U0_7 3.558164 1_555
Mg1_7 U0_3 3.244532 1_555
Mg1_7 U0_7 3.244532 1_555
Mg1_7 U1_1 3.312211 1_565
Mg1_7 U1_5 3.312211 1_565
Mg1_7 U1_3 3.312211 1_555
Mg1_7 U1_7 3.312211 1_555
Mg1_7 U0_2 3.558164 1_556
Mg1_7 U0_6 3.558164 1_556
U0_0 U1_0 2.648539 1_555
U0_0 U1_2 2.648539 1_555
U0_0 U0_4 2.800348 1_455
U0_0 U0_4 2.800348 1_555
U0_1 U1_3 2.648539 1_555
U0_1 U1_1 2.648539 1_555
U0_1 U0_5 2.800348 1_455
U0_1 U0_5 2.800348 1_555
U0_2 U1_0 2.648539 1_565
U0_2 U1_2 2.648539 1_555
U0_2 U0_6 2.800348 1_455
U0_2 U0_6 2.800348 1_555
U0_3 U1_1 2.648539 1_565
U0_3 U1_3 2.648539 1_555
U0_3 U0_7 2.800348 1_455
U0_3 U0_7 2.800348 1_555
U0_4 U1_6 2.648539 1_555
U0_4 U1_4 2.648539 1_555
U0_5 U1_7 2.648539 1_555
U0_5 U1_5 2.648539 1_555
U0_6 U1_4 2.648539 1_565
U0_6 U1_6 2.648539 1_555
U0_7 U1_5 2.648539 1_565
U0_7 U1_7 2.648539 1_555
U1_0 U1_4 2.800348 1_455
U1_0 U1_4 2.800348 1_555
U1_1 U1_5 2.800348 1_455
U1_1 U1_5 2.800348 1_555
U1_2 U1_6 2.800348 1_455
U1_2 U1_6 2.800348 1_555
U1_3 U1_7 2.800348 1_455
U1_3 U1_7 2.800348 1_555
