# generated using pymatgen
data_Li(Mg4Al3)4
_symmetry_space_group_name_H-M   'P 1'
_cell_length_a   9.07814645
_cell_length_b   9.07814645
_cell_length_c   9.11609902
_cell_angle_alpha   70.56306874
_cell_angle_beta   70.56306874
_cell_angle_gamma   109.16833364
_symmetry_Int_Tables_number   1
_chemical_formula_structural   Li(Mg4Al3)4
_chemical_formula_sum   'Li1 Mg16 Al12'
_cell_volume   580.97071451
_cell_formula_units_Z   1
loop_
 _symmetry_equiv_pos_site_id
 _symmetry_equiv_pos_as_xyz
  1  'x, y, z'
loop_
 _atom_site_type_symbol
 _atom_site_label
 _atom_site_symmetry_multiplicity
 _atom_site_fract_x
 _atom_site_fract_y
 _atom_site_fract_z
 _atom_site_occupancy
  Li  Li0  1  0.68404000  0.68404000  0.70910300  1
  Mg  Mg0  1  0.39689800  0.39689800  0.28820700  1
  Mg  Mg1  1  0.99113800  0.99113800  0.65665900  1
  Mg  Mg2  1  0.00074000  0.00074000  0.99867200  1
  Mg  Mg3  1  0.65685000  0.65685000  0.34291900  1
  Mg  Mg4  1  0.60072900  0.32059900  0.99719300  1
  Mg  Mg5  1  0.71447200  0.40112400  0.60194300  1
  Mg  Mg6  1  0.31577200  0.00074600  0.39779100  1
  Mg  Mg7  1  0.34495500  0.00018400  0.00093200  1
  Mg  Mg8  1  0.99903800  0.60302300  0.68540300  1
  Mg  Mg9  1  0.68401400  0.28607000  0.31644500  1
  Mg  Mg10  1  0.28607000  0.68401400  0.31644500  1
  Mg  Mg11  1  0.60302300  0.99903800  0.68540300  1
  Mg  Mg12  1  0.00018400  0.34495500  0.00093200  1
  Mg  Mg13  1  0.00074600  0.31577200  0.39779100  1
  Mg  Mg14  1  0.40112400  0.71447200  0.60194300  1
  Mg  Mg15  1  0.32059900  0.60072900  0.99719300  1
  Al  Al0  1  0.18498300  0.18498300  0.18000300  1
  Al  Al1  1  0.36877400  0.36877400  0.81771600  1
  Al  Al2  1  0.81456000  0.63291200  0.00128000  1
  Al  Al3  1  0.99822400  0.81344100  0.36865600  1
  Al  Al4  1  0.36563900  0.18011200  0.63462200  1
  Al  Al5  1  0.18589500  0.81876500  0.81517400  1
  Al  Al6  1  0.00182700  0.63445800  0.18392200  1
  Al  Al7  1  0.63445800  0.00182700  0.18392200  1
  Al  Al8  1  0.81876500  0.18589500  0.81517400  1
  Al  Al9  1  0.18011200  0.36563900  0.63462200  1
  Al  Al10  1  0.81344100  0.99822400  0.36865600  1
  Al  Al11  1  0.63291200  0.81456000  0.00128000  1
loop_
_geom_bond_atom_site_label_1
_geom_bond_atom_site_label_2
_geom_bond_distance
_geom_bond_site_symmetry_2
Li0 Mg1 2.982454 1_555
Li0 Mg14 3.095677 1_555
Li0 Mg5 3.095677 1_555
Li0 Mg4 3.102836 1_555
Li0 Mg15 3.102836 1_555
Li0 Mg8 3.136978 1_555
Li0 Mg11 3.136978 1_555
Mg0 Mg3 3.049002 1_555
Mg0 Mg4 3.120777 1_554
Mg0 Mg15 3.120777 1_554
Mg0 Mg6 3.139093 1_555
Mg0 Mg13 3.139093 1_555
Mg0 Mg10 3.141427 1_555
Mg0 Mg9 3.141427 1_555
Mg1 Mg13 3.054082 1_665
Mg1 Mg6 3.054082 1_665
Mg1 Mg2 3.176915 1_665
Mg2 Mg7 3.133397 1_556
Mg2 Mg3 3.146381 1_446
Mg3 Mg5 3.034795 1_555
Mg4 Mg7 3.049530 1_556
Mg4 Mg5 3.139804 1_555
Mg4 Mg8 3.154188 1_555
Mg4 Mg9 3.186360 1_556
Mg4 Mg6 3.190963 1_556
Mg5 Mg8 3.120689 1_555
Mg5 Mg9 3.168523 1_555
Mg6 Mg9 3.133685 1_555
Mg6 Mg8 3.169070 1_445
Mg10 Mg7 3.044929 1_565
Mg10 Mg13 3.133685 1_555
Mg10 Mg8 3.147428 1_455
Mg10 Mg6 3.151700 1_565
Mg10 Mg14 3.168523 1_555
Mg10 Mg15 3.186360 1_554
Mg11 Mg7 3.051784 1_566
Mg11 Mg14 3.120689 1_555
Mg11 Mg9 3.147428 1_565
Mg11 Mg15 3.154188 1_555
Mg11 Mg13 3.169070 1_665
Mg11 Mg5 3.184429 1_565
Mg12 Mg9 3.044929 1_455
Mg12 Mg15 3.049530 1_554
Mg12 Mg8 3.051784 1_454
Mg12 Mg2 3.133397 1_554
Mg13 Mg5 3.143412 1_455
Mg13 Mg9 3.151700 1_455
Mg13 Mg15 3.190963 1_554
Mg14 Mg3 3.034795 1_555
Mg14 Mg15 3.139804 1_555
Mg14 Mg6 3.143412 1_565
Mg14 Mg8 3.184429 1_455
Al0 Al1 2.704116 1_554
Al0 Al10 2.766269 1_445
Al0 Al3 2.766269 1_445
Al0 Mg0 2.910403 1_555
Al0 Mg6 2.968461 1_555
Al0 Mg13 2.968461 1_555
Al0 Mg7 3.071333 1_555
Al0 Mg12 3.071333 1_555
Al0 Mg15 3.151929 1_554
Al0 Mg4 3.151929 1_554
Al0 Mg2 3.189151 1_554
Al1 Al9 2.760837 1_555
Al1 Al4 2.760837 1_555
Al1 Li0 2.865613 1_555
Al1 Mg5 2.950623 1_555
Al1 Mg14 2.950623 1_555
Al1 Mg7 3.098038 1_556
Al1 Mg12 3.098038 1_556
Al1 Mg4 3.118288 1_555
Al1 Mg15 3.118288 1_555
Al1 Mg2 3.221808 1_555
Al2 Al6 2.747035 1_655
Al2 Al5 2.764499 1_654
Al2 Mg4 2.883107 1_554
Al2 Mg8 2.962952 1_554
Al2 Mg9 2.972534 1_555
Al2 Mg1 3.072534 1_554
Al2 Mg3 3.079572 1_555
Al2 Mg0 3.184866 1_555
Al2 Mg2 3.197134 1_664
Al2 Li0 3.217523 1_554
Al3 Al6 2.701212 1_655
Al3 Mg8 2.887756 1_555
Al3 Li0 2.937527 1_555
Al3 Mg6 2.977124 1_665
Al3 Mg3 3.081040 1_555
Al3 Mg7 3.116115 1_665
Al3 Mg5 3.145352 1_555
Al3 Mg10 3.161655 1_655
Al3 Mg2 3.220859 1_664
Al4 Al5 2.690077 1_545
Al4 Al9 2.745204 1_555
Al4 Mg9 2.903441 1_555
Al4 Mg0 2.971005 1_555
Al4 Mg5 2.990748 1_555
Al4 Mg7 3.099266 1_556
Al4 Mg6 3.166007 1_555
Al4 Mg1 3.166681 1_445
Al4 Mg11 3.169268 1_545
Al4 Mg2 3.191122 1_555
Al5 Al6 2.752090 1_556
Al5 Mg14 2.899050 1_555
Al5 Mg8 2.967951 1_455
Al5 Mg15 2.986744 1_555
Al5 Mg7 3.096265 1_566
Al5 Mg1 3.110471 1_455
Al5 Mg11 3.174535 1_555
Al5 Mg2 3.184957 1_565
Al5 Mg6 3.185653 1_565
Al6 Mg13 2.895824 1_555
Al6 Mg9 2.988554 1_455
Al6 Mg15 3.002683 1_554
Al6 Mg3 3.089198 1_455
Al6 Mg7 3.094034 1_565
Al6 Mg10 3.161400 1_555
Al6 Mg5 3.193219 1_455
Al6 Mg2 3.194383 1_564
Al7 Al8 2.752090 1_554
Al7 Mg6 2.895824 1_555
Al7 Mg10 2.988554 1_545
Al7 Mg4 3.002683 1_554
Al7 Mg3 3.089198 1_545
Al7 Mg12 3.094034 1_655
Al7 Mg9 3.161400 1_555
Al7 Mg14 3.193219 1_545
Al7 Mg2 3.194383 1_654
Al8 Al9 2.690077 1_655
Al8 Mg5 2.899050 1_555
Al8 Mg11 2.967951 1_545
Al8 Mg4 2.986744 1_555
Al8 Mg12 3.096265 1_656
Al8 Mg1 3.110471 1_545
Al8 Mg8 3.174535 1_555
Al8 Mg2 3.184957 1_655
Al8 Mg13 3.185653 1_655
Al9 Mg10 2.903441 1_555
Al9 Mg0 2.971005 1_555
Al9 Mg14 2.990748 1_555
Al9 Mg12 3.099266 1_556
Al9 Mg13 3.166007 1_555
Al9 Mg1 3.166681 1_445
Al9 Mg8 3.169268 1_455
Al9 Mg2 3.191122 1_555
Al10 Al7 2.701212 1_565
Al10 Al3 2.734196 1_555
Al10 Mg11 2.887756 1_555
Al10 Li0 2.937527 1_555
Al10 Mg13 2.977124 1_665
Al10 Mg3 3.081040 1_555
Al10 Mg12 3.116115 1_665
Al10 Mg14 3.145352 1_555
Al10 Mg9 3.161655 1_565
Al10 Mg2 3.220859 1_664
Al11 Al2 2.687808 1_555
Al11 Al7 2.747035 1_565
Al11 Al8 2.764499 1_564
Al11 Mg15 2.883107 1_554
Al11 Mg11 2.962952 1_554
Al11 Mg10 2.972534 1_555
Al11 Mg1 3.072534 1_554
Al11 Mg3 3.079572 1_555
Al11 Mg0 3.184866 1_555
Al11 Mg2 3.197134 1_664
Al11 Li0 3.217523 1_554
