# generated using pymatgen
data_GeClF
_symmetry_space_group_name_H-M   'P 1'
_cell_length_a   3.76541700
_cell_length_b   3.76541700
_cell_length_c   7.28294400
_cell_angle_alpha   90.00000000
_cell_angle_beta   90.00000000
_cell_angle_gamma   90.00000000
_symmetry_Int_Tables_number   1
_chemical_formula_structural   GeClF
_chemical_formula_sum   'Ge2 Cl2 F2'
_cell_volume   103.26023965
_cell_formula_units_Z   2
loop_
 _symmetry_equiv_pos_site_id
 _symmetry_equiv_pos_as_xyz
  1  'x, y, z'
loop_
 _atom_site_type_symbol
 _atom_site_label
 _atom_site_symmetry_multiplicity
 _atom_site_fract_x
 _atom_site_fract_y
 _atom_site_fract_z
 _atom_site_occupancy
  Ge  Ge0  1  0.00000000  0.50000000  0.80311400  1
  Ge  Ge1  1  0.50000000  0.00000000  0.19688600  1
  Cl  Cl0  1  0.50000000  0.00000000  0.65235400  1
  Cl  Cl1  1  0.00000000  0.50000000  0.34764600  1
  F  F0  1  0.50000000  0.50000000  0.00000000  1
  F  F1  1  0.00000000  0.00000000  0.00000000  1
loop_
_geom_bond_atom_site_label_1
_geom_bond_atom_site_label_2
_geom_bond_distance
_geom_bond_site_symmetry_2
Cl0 Ge0 2.880058 1_645
Cl0 Ge0 2.880058 1_555
Cl0 Ge0 2.880058 1_545
Cl0 Ge0 2.880058 1_655
Cl1 Ge1 2.880058 1_565
Cl1 Ge1 2.880058 1_455
Cl1 Ge1 2.880058 1_465
Cl1 Ge1 2.880058 1_555
F0 Ge1 2.366577 1_555
F0 Ge1 2.366577 1_565
F0 Ge0 2.366577 1_554
F0 Ge0 2.366577 1_654
F1 Ge1 2.366577 1_555
F1 Ge1 2.366577 1_455
F1 Ge0 2.366577 1_544
F1 Ge0 2.366577 1_554
