# generated using pymatgen
data_NaAlO2
_symmetry_space_group_name_H-M   'P 1'
_cell_length_a   5.19841338
_cell_length_b   5.39025220
_cell_length_c   6.97460796
_cell_angle_alpha   90.00000000
_cell_angle_beta   90.00000000
_cell_angle_gamma   90.00000000
_symmetry_Int_Tables_number   1
_chemical_formula_structural   NaAlO2
_chemical_formula_sum   'Na4 Al4 O8'
_cell_volume   195.43380987
_cell_formula_units_Z   4
loop_
 _symmetry_equiv_pos_site_id
 _symmetry_equiv_pos_as_xyz
  1  'x, y, z'
loop_
 _atom_site_type_symbol
 _atom_site_label
 _atom_site_symmetry_multiplicity
 _atom_site_fract_x
 _atom_site_fract_y
 _atom_site_fract_z
 _atom_site_occupancy
  Na  Na0  1  0.48467026  0.43085055  0.12231364  1
  Na  Na1  1  0.98467026  0.06914945  0.62231364  1
  Na  Na2  1  0.98467026  0.56914945  0.87768636  1
  Na  Na3  1  0.48467026  0.93085055  0.37768636  1
  Al  Al0  1  0.00025742  0.56235797  0.37415838  1
  Al  Al1  1  0.50025742  0.43764203  0.62584162  1
  Al  Al2  1  0.50025742  0.93764203  0.87415838  1
  Al  Al3  1  0.00025742  0.06235797  0.12584162  1
  O  O0  1  0.92758536  0.87706042  0.32757401  1
  O  O1  1  0.42758536  0.12293958  0.67242599  1
  O  O2  1  0.42758536  0.62293958  0.82757401  1
  O  O3  1  0.92758536  0.37706042  0.17242599  1
  O  O4  1  0.33188696  0.53373569  0.42078616  1
  O  O5  1  0.33188696  0.03373569  0.07921384  1
  O  O6  1  0.83188696  0.96626431  0.92078616  1
  O  O7  1  0.83188696  0.46626431  0.57921384  1
loop_
_geom_bond_atom_site_label_1
_geom_bond_atom_site_label_2
_geom_bond_distance
_geom_bond_site_symmetry_2
Na0 O4 2.296073 1_555
Na0 O5 2.302850 1_555
Na0 O2 2.320777 1_554
Na0 O3 2.346813 1_555
Na1 O6 2.296073 1_545
Na1 O7 2.302850 1_555
Na1 O0 2.320777 1_545
Na1 O1 2.346813 1_655
Na2 O7 2.296073 1_555
Na2 O6 2.302850 1_555
Na2 O3 2.320777 1_556
Na2 O2 2.346813 1_655
Na3 O5 2.296073 1_565
Na3 O4 2.302850 1_555
Na3 O1 2.320777 1_565
Na3 O0 2.346813 1_555
Al0 O7 1.754933 1_455
Al0 O4 1.761124 1_555
Al0 O3 1.766347 1_455
Al0 O0 1.767994 1_455
Al1 O4 1.754933 1_555
Al1 O7 1.761124 1_555
Al1 O2 1.766347 1_555
Al1 O1 1.767994 1_555
Al2 O5 1.754933 1_566
Al2 O6 1.761124 1_555
Al2 O1 1.766347 1_565
Al2 O2 1.767994 1_555
Al3 O6 1.754933 1_444
Al3 O5 1.761124 1_555
Al3 O0 1.766347 1_445
Al3 O3 1.767994 1_455
