# generated using pymatgen
data_SrGe4O9
_symmetry_space_group_name_H-M   'P 1'
_cell_length_a   11.38136906
_cell_length_b   11.38137122
_cell_length_c   4.77696274
_cell_angle_alpha   89.99985452
_cell_angle_beta   89.99894693
_cell_angle_gamma   119.99953134
_symmetry_Int_Tables_number   1
_chemical_formula_structural   SrGe4O9
_chemical_formula_sum   'Sr3 Ge12 O27'
_cell_volume   535.88750533
_cell_formula_units_Z   3
loop_
 _symmetry_equiv_pos_site_id
 _symmetry_equiv_pos_as_xyz
  1  'x, y, z'
loop_
 _atom_site_type_symbol
 _atom_site_label
 _atom_site_symmetry_multiplicity
 _atom_site_fract_x
 _atom_site_fract_y
 _atom_site_fract_z
 _atom_site_occupancy
  Sr  Sr0  1  0.67268223  0.67268288  0.00000552  1
  Sr  Sr1  1  -0.00000082  0.32731651  0.00000494  1
  Sr  Sr2  1  0.32731930  0.00000187  0.00000420  1
  Ge  Ge0  1  0.34089401  0.49101114  0.60063519  1
  Ge  Ge1  1  0.50899040  0.84988207  0.60063320  1
  Ge  Ge2  1  0.15012121  0.65911667  0.60062016  1
  Ge  Ge3  1  0.84989924  0.50899768  0.39936603  1
  Ge  Ge4  1  0.65908871  0.15009527  0.39935478  1
  Ge  Ge5  1  0.49100699  0.34090941  0.39935818  1
  Ge  Ge6  1  0.17941248  0.17941981  0.50001486  1
  Ge  Ge7  1  0.00000808  0.82059011  0.50000835  1
  Ge  Ge8  1  0.82057987  -0.00001095  0.50000822  1
  Ge  Ge9  1  0.66666376  0.33333239  0.89288862  1
  Ge  Ge10  1  0.33333473  0.66667001  0.10710079  1
  Ge  Ge11  1  0.00000107  -0.00000033  0.00001596  1
  O  O0  1  0.24966124  0.51034726  0.32779430  1
  O  O1  1  0.48964705  0.73931283  0.32780080  1
  O  O2  1  0.26067772  0.75032620  0.32780892  1
  O  O3  1  0.73933218  0.48964672  0.67217534  1
  O  O4  1  0.75032602  0.26067182  0.67219954  1
  O  O5  1  0.51035285  0.24967988  0.67218899  1
  O  O6  1  0.21482619  0.32503301  0.70617890  1
  O  O7  1  0.67497247  0.88979793  0.70617171  1
  O  O8  1  0.11019917  0.78516453  0.70617172  1
  O  O9  1  0.88982447  0.67497205  0.29383198  1
  O  O10  1  0.78515473  0.11017772  0.29383552  1
  O  O11  1  0.32502105  0.21484969  0.29383843  1
  O  O12  1  0.06045187  0.15449608  0.23706175  1
  O  O13  1  0.84550737  0.90596324  0.23706618  1
  O  O14  1  0.09403954  0.93954657  0.23706391  1
  O  O15  1  0.51092597  -0.00000216  0.49999052  1
  O  O16  1  0.00000955  0.51092047  0.49998349  1
  O  O17  1  0.48906836  0.48908369  0.49998803  1
  O  O18  1  0.60307298  0.42295418  0.12224806  1
  O  O19  1  0.57704813  0.18011929  0.12225232  1
  O  O20  1  0.81988379  0.39692320  0.12224197  1
  O  O21  1  0.18011835  0.57704037  0.87774780  1
  O  O22  1  0.39692462  0.81987887  0.87773660  1
  O  O23  1  0.42295180  0.60307351  0.87774051  1
  O  O24  1  0.15449514  0.06046943  0.76295232  1
  O  O25  1  0.93953500  0.09403335  0.76295720  1
  O  O26  1  0.90597112  0.84550572  0.76295218  1
loop_
_geom_bond_atom_site_label_1
_geom_bond_atom_site_label_2
_geom_bond_distance
_geom_bond_site_symmetry_2
Ge0 O0 1.747538 1_555
Ge0 O23 1.749310 1_555
Ge0 O17 1.764267 1_555
Ge0 O6 1.780730 1_555
Ge1 O1 1.747485 1_555
Ge1 O22 1.749293 1_555
Ge1 O15 1.764379 1_565
Ge1 O7 1.780759 1_555
Ge2 O2 1.747284 1_555
Ge2 O21 1.749466 1_555
Ge2 O16 1.764456 1_555
Ge2 O8 1.780611 1_555
Ge3 O3 1.747343 1_555
Ge3 O20 1.749432 1_555
Ge3 O16 1.764364 1_655
Ge3 O9 1.780628 1_555
Ge4 O4 1.747610 1_555
Ge4 O19 1.749269 1_555
Ge4 O15 1.764176 1_555
Ge4 O10 1.780720 1_555
Ge5 O5 1.747513 1_555
Ge5 O18 1.749286 1_555
Ge5 O17 1.764316 1_555
Ge5 O11 1.780750 1_555
Ge6 O24 1.762652 1_555
Ge6 O12 1.762793 1_555
Ge6 O11 1.791844 1_555
Ge6 O6 1.791922 1_555
Ge7 O26 1.762685 1_455
Ge7 O14 1.762698 1_555
Ge7 O8 1.791922 1_555
Ge7 O9 1.791958 1_455
Ge8 O13 1.762666 1_545
Ge8 O25 1.762775 1_555
Ge8 O7 1.791841 1_545
Ge8 O10 1.791911 1_555
Ge9 O5 1.867946 1_555
Ge9 O3 1.867976 1_555
Ge9 O4 1.867978 1_555
Ge9 O18 1.871600 1_556
Ge9 O19 1.871613 1_556
Ge9 O20 1.871680 1_556
Ge10 O2 1.867952 1_555
Ge10 O1 1.867964 1_555
Ge10 O0 1.868000 1_555
Ge10 O22 1.871587 1_554
Ge10 O23 1.871602 1_554
Ge10 O21 1.871654 1_554
Ge11 O13 1.907247 1_445
Ge11 O14 1.907249 1_545
Ge11 O24 1.907272 1_554
Ge11 O12 1.907294 1_555
Ge11 O26 1.907316 1_444
Ge11 O25 1.907330 1_454
O0 Sr1 2.991062 1_555
O1 Sr0 2.991042 1_555
O2 Sr2 2.991152 1_565
O3 Sr0 2.991290 1_556
O4 Sr1 2.991161 1_656
O5 Sr2 2.991189 1_556
O6 Sr1 2.830605 1_556
O7 Sr0 2.830655 1_556
O8 Sr2 2.830782 1_566
O9 Sr0 2.830937 1_555
O10 Sr1 2.830855 1_655
O11 Sr2 2.830930 1_555
O12 Sr1 2.641570 1_555
O13 Sr0 2.641675 1_555
O14 Sr2 2.641618 1_565
O15 Sr2 3.173584 1_555
O15 Sr2 3.173625 1_556
O16 Sr1 3.173457 1_555
O16 Sr1 3.173604 1_556
O17 Sr0 3.173502 1_555
O17 Sr0 3.173694 1_556
O18 Sr0 2.606780 1_555
O19 Sr2 2.606808 1_555
O20 Sr1 2.606696 1_655
O21 Sr1 2.606761 1_556
O22 Sr2 2.606805 1_566
O23 Sr0 2.606838 1_556
O24 Sr2 2.641715 1_556
O25 Sr1 2.641633 1_656
O26 Sr0 2.641674 1_556
