# generated using pymatgen
data_NaLi2AsO4
_symmetry_space_group_name_H-M   'P 1'
_cell_length_a   5.15839600
_cell_length_b   5.34904600
_cell_length_c   7.02748300
_cell_angle_alpha   90.00000000
_cell_angle_beta   90.00000000
_cell_angle_gamma   90.00000000
_symmetry_Int_Tables_number   1
_chemical_formula_structural   NaLi2AsO4
_chemical_formula_sum   'Na2 Li4 As2 O8'
_cell_volume   193.90580704
_cell_formula_units_Z   2
loop_
 _symmetry_equiv_pos_site_id
 _symmetry_equiv_pos_as_xyz
  1  'x, y, z'
loop_
 _atom_site_type_symbol
 _atom_site_label
 _atom_site_symmetry_multiplicity
 _atom_site_fract_x
 _atom_site_fract_y
 _atom_site_fract_z
 _atom_site_occupancy
  Na  Na0  1  0.52047900  0.80089700  0.00000000  1
  Na  Na1  1  0.02047900  0.19910300  0.50000000  1
  Li  Li0  1  0.50734800  0.32312900  0.25058800  1
  Li  Li1  1  0.00734800  0.67687100  0.75058800  1
  Li  Li2  1  0.50734800  0.32312900  0.74941200  1
  Li  Li3  1  0.00734800  0.67687100  0.24941200  1
  As  As0  1  0.49912800  0.81051400  0.50000000  1
  As  As1  1  0.99912800  0.18948600  0.00000000  1
  O  O0  1  0.06526100  0.87178500  0.00000000  1
  O  O1  1  0.66608500  0.22740300  0.00000000  1
  O  O2  1  0.56526100  0.12821500  0.50000000  1
  O  O3  1  0.16608500  0.77259700  0.50000000  1
  O  O4  1  0.12722600  0.32896200  0.19981100  1
  O  O5  1  0.62722600  0.67103800  0.30018900  1
  O  O6  1  0.62722600  0.67103800  0.69981100  1
  O  O7  1  0.12722600  0.32896200  0.80018900  1
loop_
_geom_bond_atom_site_label_1
_geom_bond_atom_site_label_2
_geom_bond_distance
_geom_bond_site_symmetry_2
Na0 O5 2.288232 1_555
Na0 O6 2.288232 1_554
Na0 O0 2.378613 1_555
Na0 O1 2.401859 1_565
Na0 O0 2.835668 1_655
Na1 O7 2.288232 1_555
Na1 O4 2.288232 1_555
Na1 O2 2.378613 1_455
Na1 O3 2.401859 1_545
Na1 O2 2.835668 1_555
Li0 O5 1.991769 1_555
Li0 O4 1.993268 1_555
Li0 O1 2.008432 1_555
Li0 O2 2.061155 1_555
Li1 O7 1.991769 1_555
Li1 O6 1.993268 1_455
Li1 O3 2.008432 1_555
Li1 O0 2.061155 1_556
Li2 O6 1.991769 1_555
Li2 O7 1.993268 1_555
Li2 O1 2.008432 1_556
Li2 O2 2.061155 1_555
Li3 O4 1.991769 1_555
Li3 O5 1.993268 1_455
Li3 O3 2.008432 1_555
Li3 O0 2.061155 1_555
As0 O6 1.721897 1_555
As0 O5 1.721897 1_555
As0 O3 1.729898 1_555
As0 O2 1.733300 1_565
As1 O7 1.721897 1_654
As1 O4 1.721897 1_655
As1 O1 1.729898 1_555
As1 O0 1.733300 1_645
