# generated using pymatgen
data_TaTlPt
_symmetry_space_group_name_H-M   'P 1'
_cell_length_a   4.47297648
_cell_length_b   4.47297648
_cell_length_c   4.47297648
_cell_angle_alpha   60.00000000
_cell_angle_beta   60.00000000
_cell_angle_gamma   60.00000000
_symmetry_Int_Tables_number   1
_chemical_formula_structural   TaTlPt
_chemical_formula_sum   'Ta1 Tl1 Pt1'
_cell_volume   63.28122030
_cell_formula_units_Z   1
loop_
 _symmetry_equiv_pos_site_id
 _symmetry_equiv_pos_as_xyz
  1  'x, y, z'
loop_
 _atom_site_type_symbol
 _atom_site_label
 _atom_site_symmetry_multiplicity
 _atom_site_fract_x
 _atom_site_fract_y
 _atom_site_fract_z
 _atom_site_occupancy
  Ta  Ta0  1  0.00000000  0.00000000  0.00000000  1
  Tl  Tl0  1  0.50000000  0.50000000  0.50000000  1
  Pt  Pt0  1  0.25000000  0.25000000  0.25000000  1
loop_
_geom_bond_atom_site_label_1
_geom_bond_atom_site_label_2
_geom_bond_distance
_geom_bond_site_symmetry_2
Ta0 Tl0 3.162872 1_445
Ta0 Tl0 3.162872 1_544
Ta0 Tl0 3.162872 1_545
Ta0 Tl0 3.162872 1_554
Ta0 Tl0 3.162872 1_455
Ta0 Tl0 3.162872 1_454
Pt0 Ta0 2.739128 1_556
Pt0 Ta0 2.739128 1_555
Pt0 Tl0 2.739128 1_555
Pt0 Tl0 2.739128 1_455
Pt0 Ta0 2.739128 1_655
Pt0 Tl0 2.739128 1_545
Pt0 Tl0 2.739128 1_554
Pt0 Ta0 2.739128 1_565
