# generated using pymatgen
data_KCaCl3
_symmetry_space_group_name_H-M   'P 1'
_cell_length_a   7.23424146
_cell_length_b   7.23424189
_cell_length_c   8.02707338
_cell_angle_alpha   63.21683877
_cell_angle_beta   63.21683933
_cell_angle_gamma   60.00000336
_symmetry_Int_Tables_number   1
_chemical_formula_structural   KCaCl3
_chemical_formula_sum   'K2 Ca2 Cl6'
_cell_volume   310.68155861
_cell_formula_units_Z   2
loop_
 _symmetry_equiv_pos_site_id
 _symmetry_equiv_pos_as_xyz
  1  'x, y, z'
loop_
 _atom_site_type_symbol
 _atom_site_label
 _atom_site_symmetry_multiplicity
 _atom_site_fract_x
 _atom_site_fract_y
 _atom_site_fract_z
 _atom_site_occupancy
  K  K0  1  0.85765361  0.85765361  0.42704016  1
  K  K1  1  0.14234739  0.14234739  0.57295784  1
  Ca  Ca0  1  0.65895706  0.65895706  0.02312781  1
  Ca  Ca1  1  0.34104194  0.34104294  0.97687319  1
  Cl  Cl0  1  0.46425968  0.70363784  0.77155239  1
  Cl  Cl1  1  0.06054909  0.46425968  0.77155239  1
  Cl  Cl2  1  0.70363884  0.06055009  0.77155239  1
  Cl  Cl3  1  0.53574032  0.29636116  0.22844761  1
  Cl  Cl4  1  0.29636216  0.93944891  0.22844661  1
  Cl  Cl5  1  0.93944991  0.53574032  0.22844661  1
loop_
_geom_bond_atom_site_label_1
_geom_bond_atom_site_label_2
_geom_bond_distance
_geom_bond_site_symmetry_2
Ca0 Cl4 2.740343 1_555
Ca0 Cl5 2.740347 1_555
Ca0 Cl3 2.740353 1_555
Ca0 Cl0 2.772400 1_554
Ca0 Cl1 2.772400 1_654
Ca0 Cl2 2.772408 1_564
Ca1 Cl0 2.740351 1_555
Ca1 Cl1 2.740360 1_555
Ca1 Cl2 2.740360 1_555
Ca1 Cl5 2.772393 1_456
Ca1 Cl3 2.772395 1_556
Ca1 Cl4 2.772406 1_546
Cl0 K1 3.071194 1_565
Cl0 K0 3.207704 1_555
Cl1 K1 3.071191 1_555
Cl1 K0 3.207698 1_455
Cl2 K1 3.071187 1_655
Cl2 K0 3.207701 1_545
Cl3 K0 3.071185 1_545
Cl3 K1 3.207688 1_555
Cl4 K0 3.071181 1_455
Cl4 K1 3.207704 1_565
Cl5 K0 3.071197 1_555
Cl5 K1 3.207697 1_655
