# generated using pymatgen
data_Sm2Ag2O5
_symmetry_space_group_name_H-M   'P 1'
_cell_length_a   4.15250300
_cell_length_b   4.15250300
_cell_length_c   7.21138000
_cell_angle_alpha   90.00000000
_cell_angle_beta   90.00000000
_cell_angle_gamma   90.00000000
_symmetry_Int_Tables_number   1
_chemical_formula_structural   Sm2Ag2O5
_chemical_formula_sum   'Sm2 Ag2 O5'
_cell_volume   124.34785293
_cell_formula_units_Z   1
loop_
 _symmetry_equiv_pos_site_id
 _symmetry_equiv_pos_as_xyz
  1  'x, y, z'
loop_
 _atom_site_type_symbol
 _atom_site_label
 _atom_site_symmetry_multiplicity
 _atom_site_fract_x
 _atom_site_fract_y
 _atom_site_fract_z
 _atom_site_occupancy
  Sm  Sm0  1  0.00000000  0.00000000  0.00000000  1
  Sm  Sm1  1  0.00000000  0.00000000  0.50000000  1
  Ag  Ag0  1  0.50000000  0.50000000  0.19555700  1
  Ag  Ag1  1  0.50000000  0.50000000  0.80444300  1
  O  O0  1  0.50000000  0.00000000  0.21533300  1
  O  O1  1  0.50000000  0.00000000  0.78466700  1
  O  O2  1  0.50000000  0.50000000  0.50000000  1
  O  O3  1  0.00000000  0.50000000  0.21533300  1
  O  O4  1  0.00000000  0.50000000  0.78466700  1
loop_
_geom_bond_atom_site_label_1
_geom_bond_atom_site_label_2
_geom_bond_distance
_geom_bond_site_symmetry_2
Ag0 O3 2.081144 1_655
Ag0 O0 2.081144 1_565
Ag0 O3 2.081144 1_555
Ag0 O0 2.081144 1_555
Ag0 O2 2.195454 1_555
Ag1 O1 2.081144 1_555
Ag1 O4 2.081144 1_655
Ag1 O1 2.081144 1_565
Ag1 O4 2.081144 1_555
Ag1 O2 2.195454 1_555
O0 Sm0 2.592712 1_655
O0 Sm0 2.592712 1_555
O0 Sm1 2.919757 1_555
O0 Sm1 2.919757 1_655
O1 Sm0 2.592712 1_656
O1 Sm0 2.592712 1_556
O1 Sm1 2.919757 1_555
O1 Sm1 2.919757 1_655
O2 Sm1 2.936263 1_655
O2 Sm1 2.936263 1_565
O2 Sm1 2.936263 1_665
O2 Sm1 2.936263 1_555
O3 Sm0 2.592712 1_555
O3 Sm0 2.592712 1_565
O3 Sm1 2.919757 1_555
O3 Sm1 2.919757 1_565
O4 Sm0 2.592712 1_566
O4 Sm0 2.592712 1_556
O4 Sm1 2.919757 1_555
O4 Sm1 2.919757 1_565
