# generated using pymatgen
data_Al2O3
_symmetry_space_group_name_H-M   'P 1'
_cell_length_a   4.98827623
_cell_length_b   4.98827623
_cell_length_c   14.53365100
_cell_angle_alpha   90.00000000
_cell_angle_beta   90.00000000
_cell_angle_gamma   120.00000302
_symmetry_Int_Tables_number   1
_chemical_formula_structural   Al2O3
_chemical_formula_sum   'Al6 O9'
_cell_volume   313.18888095
_cell_formula_units_Z   3
loop_
 _symmetry_equiv_pos_site_id
 _symmetry_equiv_pos_as_xyz
  1  'x, y, z'
loop_
 _atom_site_type_symbol
 _atom_site_label
 _atom_site_symmetry_multiplicity
 _atom_site_fract_x
 _atom_site_fract_y
 _atom_site_fract_z
 _atom_site_occupancy
  Al  Al0  1  0.66666700  0.33333300  0.11934100  1
  Al  Al1  1  0.00000000  0.00000000  0.09263000  1
  Al  Al2  1  0.33333300  0.66666700  0.08224000  1
  Al  Al3  1  0.66666700  0.33333300  0.91776000  1
  Al  Al4  1  0.00000000  0.00000000  0.90737000  1
  Al  Al5  1  0.33333300  0.66666700  0.88065900  1
  O  O0  1  0.01328800  0.67490000  0.14395800  1
  O  O1  1  0.32510000  0.33838800  0.14395800  1
  O  O2  1  0.66161200  0.98671200  0.14395800  1
  O  O3  1  0.32492300  0.00000000  0.00000000  1
  O  O4  1  0.00000000  0.32492300  0.00000000  1
  O  O5  1  0.67507700  0.67507700  0.00000000  1
  O  O6  1  0.33838800  0.32510000  0.85604200  1
  O  O7  1  0.67490000  0.01328800  0.85604200  1
  O  O8  1  0.98671200  0.66161200  0.85604200  1
loop_
_geom_bond_atom_site_label_1
_geom_bond_atom_site_label_2
_geom_bond_distance
_geom_bond_site_symmetry_2
Al0 O2 1.753460 1_545
Al0 O0 1.753463 1_655
Al0 O1 1.753465 1_555
Al0 O4 2.417567 1_655
Al0 O3 2.417569 1_555
Al0 O5 2.417570 1_555
Al1 O1 1.816109 1_555
Al1 O2 1.816109 1_445
Al1 O0 1.816109 1_545
Al1 O5 2.106990 1_445
Al1 O3 2.106990 1_555
Al1 O4 2.106990 1_555
Al2 O0 1.849477 1_555
Al2 O2 1.849479 1_555
Al2 O1 1.849481 1_555
Al2 O3 2.065162 1_565
Al2 O4 2.065164 1_555
Al2 O5 2.065166 1_555
Al3 O7 1.849477 1_555
Al3 O8 1.849479 1_555
Al3 O6 1.849481 1_555
Al3 O4 2.065162 1_656
Al3 O3 2.065164 1_556
Al3 O5 2.065166 1_556
Al4 O6 1.816109 1_555
Al4 O8 1.816109 1_445
Al4 O7 1.816109 1_455
Al4 O5 2.106990 1_446
Al4 O3 2.106990 1_556
Al4 O4 2.106990 1_556
Al5 O8 1.753460 1_455
Al5 O7 1.753463 1_565
Al5 O6 1.753465 1_555
Al5 O3 2.417567 1_566
Al5 O4 2.417569 1_556
Al5 O5 2.417570 1_556
