# generated using pymatgen
data_PrBrO
_symmetry_space_group_name_H-M   'P 1'
_cell_length_a   4.09254153
_cell_length_b   4.09254153
_cell_length_c   7.64333531
_cell_angle_alpha   90.00000000
_cell_angle_beta   90.00000000
_cell_angle_gamma   90.00000000
_symmetry_Int_Tables_number   1
_chemical_formula_structural   PrBrO
_chemical_formula_sum   'Pr2 Br2 O2'
_cell_volume   128.01742954
_cell_formula_units_Z   2
loop_
 _symmetry_equiv_pos_site_id
 _symmetry_equiv_pos_as_xyz
  1  'x, y, z'
loop_
 _atom_site_type_symbol
 _atom_site_label
 _atom_site_symmetry_multiplicity
 _atom_site_fract_x
 _atom_site_fract_y
 _atom_site_fract_z
 _atom_site_occupancy
  Pr  Pr0  1  0.25000100  0.25000100  0.15595080  1
  Pr  Pr1  1  0.75000000  0.75000000  0.84404820  1
  Br  Br0  1  0.25000100  0.25000100  0.64308799  1
  Br  Br1  1  0.75000000  0.75000000  0.35691101  1
  O  O0  1  0.75000000  0.25000100  -0.00000000  1
  O  O1  1  0.25000100  0.75000000  -0.00000000  1
loop_
_geom_bond_atom_site_label_1
_geom_bond_atom_site_label_2
_geom_bond_distance
_geom_bond_site_symmetry_2
Br0 Pr1 3.276237 1_555
Br0 Pr1 3.276242 1_545
Br0 Pr1 3.276242 1_455
Br0 Pr1 3.276247 1_445
Br0 Pr0 3.723353 1_555
Br1 Pr0 3.276237 1_555
Br1 Pr0 3.276242 1_655
Br1 Pr0 3.276242 1_565
Br1 Pr0 3.276247 1_665
Br1 Pr1 3.723353 1_555
O0 Pr0 2.368129 1_555
O0 Pr1 2.368133 1_554
O0 Pr0 2.368136 1_655
O0 Pr1 2.368140 1_544
O1 Pr0 2.368129 1_555
O1 Pr1 2.368133 1_554
O1 Pr0 2.368136 1_565
O1 Pr1 2.368140 1_454
