# generated using pymatgen
data_SrCN2
_symmetry_space_group_name_H-M   'P 1'
_cell_length_a   3.97140415
_cell_length_b   5.41008995
_cell_length_c   12.46272977
_cell_angle_alpha   90.00000000
_cell_angle_beta   90.00000000
_cell_angle_gamma   90.00000000
_symmetry_Int_Tables_number   1
_chemical_formula_structural   SrCN2
_chemical_formula_sum   'Sr4 C4 N8'
_cell_volume   267.76989574
_cell_formula_units_Z   4
loop_
 _symmetry_equiv_pos_site_id
 _symmetry_equiv_pos_as_xyz
  1  'x, y, z'
loop_
 _atom_site_type_symbol
 _atom_site_label
 _atom_site_symmetry_multiplicity
 _atom_site_fract_x
 _atom_site_fract_y
 _atom_site_fract_z
 _atom_site_occupancy
  Sr  Sr0  1  0.25000000  0.38601893  0.63086194  1
  Sr  Sr1  1  0.75000000  0.61398107  0.36913806  1
  Sr  Sr2  1  0.75000000  0.88601893  0.86913806  1
  Sr  Sr3  1  0.25000000  0.11398107  0.13086194  1
  C  C0  1  0.75000000  0.88462772  0.62302144  1
  C  C1  1  0.25000000  0.38462772  0.87697856  1
  C  C2  1  0.75000000  0.61537228  0.12302144  1
  C  C3  1  0.25000000  0.11537228  0.37697856  1
  N  N0  1  0.25000000  0.31644821  0.42328153  1
  N  N1  1  0.25000000  0.18355179  0.92328153  1
  N  N2  1  0.75000000  0.68355179  0.57671847  1
  N  N3  1  0.75000000  0.81644821  0.07671847  1
  N  N4  1  0.25000000  0.91777623  0.32740468  1
  N  N5  1  0.75000000  0.08222377  0.67259532  1
  N  N6  1  0.75000000  0.41777623  0.17259532  1
  N  N7  1  0.25000000  0.58222377  0.82740468  1
loop_
_geom_bond_atom_site_label_1
_geom_bond_atom_site_label_2
_geom_bond_distance
_geom_bond_site_symmetry_2
C0 N2 1.231419 1_555
C0 N5 1.234705 1_565
C1 N1 1.231419 1_555
C1 N7 1.234705 1_555
C2 N3 1.231419 1_555
C2 N6 1.234705 1_555
C3 N0 1.231419 1_555
C3 N4 1.234705 1_545
N0 Sr0 2.614255 1_555
N0 Sr1 2.643748 1_455
N0 Sr1 2.643748 1_555
N1 Sr3 2.614255 1_556
N1 Sr2 2.643748 1_445
N1 Sr2 2.643748 1_545
N2 Sr1 2.614255 1_555
N2 Sr0 2.643748 1_655
N2 Sr0 2.643748 1_555
N3 Sr2 2.614255 1_554
N3 Sr3 2.643748 1_565
N3 Sr3 2.643748 1_665
N4 Sr1 2.629604 1_555
N4 Sr1 2.629604 1_455
N4 Sr3 2.669570 1_565
N5 Sr0 2.629604 1_655
N5 Sr0 2.629604 1_555
N5 Sr2 2.669570 1_545
N6 Sr3 2.629604 1_655
N6 Sr3 2.629604 1_555
N6 Sr1 2.669570 1_555
N7 Sr2 2.629604 1_555
N7 Sr2 2.629604 1_455
N7 Sr0 2.669570 1_555
