# generated using pymatgen
data_SmBS3
_symmetry_space_group_name_H-M   'P 1'
_cell_length_a   6.05639122
_cell_length_b   7.40821426
_cell_length_c   8.86847161
_cell_angle_alpha   90.00000000
_cell_angle_beta   90.00000000
_cell_angle_gamma   90.00000000
_symmetry_Int_Tables_number   1
_chemical_formula_structural   SmBS3
_chemical_formula_sum   'Sm4 B4 S12'
_cell_volume   397.90210417
_cell_formula_units_Z   4
loop_
 _symmetry_equiv_pos_site_id
 _symmetry_equiv_pos_as_xyz
  1  'x, y, z'
loop_
 _atom_site_type_symbol
 _atom_site_label
 _atom_site_symmetry_multiplicity
 _atom_site_fract_x
 _atom_site_fract_y
 _atom_site_fract_z
 _atom_site_occupancy
  Sm  Sm0  1  0.93684333  0.88246878  0.75821556  1
  Sm  Sm1  1  0.56315667  0.38246878  0.75821556  1
  Sm  Sm2  1  0.43684333  0.61753122  0.25821556  1
  Sm  Sm3  1  0.06315667  0.11753122  0.25821556  1
  B  B0  1  0.40083672  0.85603314  0.92813737  1
  B  B1  1  0.59916328  0.14396686  0.42813737  1
  B  B2  1  0.09916328  0.35603314  0.92813737  1
  B  B3  1  0.90083672  0.64396686  0.42813737  1
  S  S0  1  0.66776458  0.67352737  0.55550355  1
  S  S1  1  0.63492362  0.70526450  0.95702362  1
  S  S2  1  0.86507638  0.20526450  0.95702362  1
  S  S3  1  0.13492362  0.79473550  0.45702362  1
  S  S4  1  0.83223542  0.17352737  0.55550355  1
  S  S5  1  0.88822305  0.49628025  0.26721989  1
  S  S6  1  0.11177695  0.50371975  0.76721989  1
  S  S7  1  0.38822305  0.00371975  0.76721989  1
  S  S8  1  0.61177695  0.99628025  0.26721989  1
  S  S9  1  0.33223542  0.32647263  0.05550355  1
  S  S10  1  0.36507638  0.29473550  0.45702362  1
  S  S11  1  0.16776458  0.82647263  0.05550355  1
loop_
_geom_bond_atom_site_label_1
_geom_bond_atom_site_label_2
_geom_bond_distance
_geom_bond_site_symmetry_2
B0 S7 1.799853 1_565
B0 S11 1.821091 1_556
B0 S1 1.822933 1_555
B1 S8 1.799853 1_545
B1 S4 1.821091 1_555
B1 S10 1.822933 1_555
B2 S6 1.799853 1_555
B2 S9 1.821091 1_556
B2 S2 1.822933 1_455
B3 S5 1.799853 1_555
B3 S0 1.821091 1_555
B3 S3 1.822933 1_655
S0 Sm1 2.877946 1_555
S0 Sm0 2.878120 1_555
S0 Sm2 3.013155 1_555
S1 Sm0 2.859289 1_555
S1 Sm2 2.999406 1_556
S1 Sm1 3.002671 1_555
S2 Sm1 2.859289 1_555
S2 Sm3 2.999406 1_656
S2 Sm0 3.002671 1_545
S3 Sm2 2.859289 1_555
S3 Sm0 2.999406 1_455
S3 Sm3 3.002671 1_565
S4 Sm0 2.877946 1_545
S4 Sm1 2.878120 1_555
S4 Sm3 3.013155 1_655
S5 Sm2 2.878633 1_555
S5 Sm3 3.000277 1_655
S6 Sm1 2.878633 1_555
S6 Sm0 3.000277 1_455
S7 Sm0 2.878633 1_445
S7 Sm1 3.000277 1_555
S8 Sm3 2.878633 1_665
S8 Sm2 3.000277 1_555
S9 Sm2 2.877946 1_555
S9 Sm3 2.878120 1_555
S9 Sm1 3.013155 1_554
S10 Sm3 2.859289 1_555
S10 Sm1 2.999406 1_555
S10 Sm2 3.002671 1_555
S11 Sm3 2.877946 1_565
S11 Sm2 2.878120 1_555
S11 Sm0 3.013155 1_454
