# generated using pymatgen
data_Ba4Sm4Zn3PtO15
_symmetry_space_group_name_H-M   'P 1'
_cell_length_a   11.82070404
_cell_length_b   11.82070404
_cell_length_c   6.79950200
_cell_angle_alpha   90.00000000
_cell_angle_beta   90.00000000
_cell_angle_gamma   120.00000022
_symmetry_Int_Tables_number   1
_chemical_formula_structural   Ba4Sm4Zn3PtO15
_chemical_formula_sum   'Ba8 Sm8 Zn6 Pt2 O30'
_cell_volume   822.80026756
_cell_formula_units_Z   2
loop_
 _symmetry_equiv_pos_site_id
 _symmetry_equiv_pos_as_xyz
  1  'x, y, z'
loop_
 _atom_site_type_symbol
 _atom_site_label
 _atom_site_symmetry_multiplicity
 _atom_site_fract_x
 _atom_site_fract_y
 _atom_site_fract_z
 _atom_site_occupancy
  Ba  Ba0  1  0.34537700  0.17268900  0.15718700  1
  Ba  Ba1  1  0.17268900  0.34537700  0.65718700  1
  Ba  Ba2  1  0.17268900  0.82731100  0.65718700  1
  Ba  Ba3  1  0.82731100  0.17268900  0.15718700  1
  Ba  Ba4  1  0.65462300  0.82731100  0.65718700  1
  Ba  Ba5  1  0.82731100  0.65462300  0.15718700  1
  Ba  Ba6  1  0.33333300  0.66666700  0.33649400  1
  Ba  Ba7  1  0.66666700  0.33333300  0.83649400  1
  Sm  Sm0  1  0.00000000  0.00000000  0.34158300  1
  Sm  Sm1  1  0.52260300  0.47739700  0.49777000  1
  Sm  Sm2  1  0.47739700  0.95479400  0.99777000  1
  Sm  Sm3  1  0.52260300  0.04520600  0.49777000  1
  Sm  Sm4  1  0.95479400  0.47739700  0.49777000  1
  Sm  Sm5  1  0.00000000  0.00000000  0.84158300  1
  Sm  Sm6  1  0.04520600  0.52260300  0.99777000  1
  Sm  Sm7  1  0.47739700  0.52260300  0.99777000  1
  Zn  Zn0  1  0.65744200  0.82872100  0.17439800  1
  Zn  Zn1  1  0.82872100  0.65744200  0.67439800  1
  Zn  Zn2  1  0.82872100  0.17127900  0.67439800  1
  Zn  Zn3  1  0.17127900  0.82872100  0.17439800  1
  Zn  Zn4  1  0.17127900  0.34255800  0.17439800  1
  Zn  Zn5  1  0.34255800  0.17127900  0.67439800  1
  Pt  Pt0  1  0.33333300  0.66666700  0.81447300  1
  Pt  Pt1  1  0.66666700  0.33333300  0.31447300  1
  O  O0  1  0.83461700  0.91730900  0.07054300  1
  O  O1  1  0.91730900  0.83461700  0.57054300  1
  O  O2  1  0.91730900  0.08269100  0.57054300  1
  O  O3  1  0.08269100  0.91730900  0.07054300  1
  O  O4  1  0.08269100  0.16538300  0.07054300  1
  O  O5  1  0.16538300  0.08269100  0.57054300  1
  O  O6  1  0.60418300  0.66050900  0.29918100  1
  O  O7  1  0.33949100  0.94367400  0.29918100  1
  O  O8  1  0.05632600  0.39581700  0.29918100  1
  O  O9  1  0.94367400  0.60418300  0.79918100  1
  O  O10  1  0.39581700  0.33949100  0.79918100  1
  O  O11  1  0.66050900  0.05632600  0.79918100  1
  O  O12  1  0.60418300  0.94367400  0.29918100  1
  O  O13  1  0.66050900  0.60418300  0.79918100  1
  O  O14  1  0.94367400  0.33949100  0.79918100  1
  O  O15  1  0.05632600  0.66050900  0.29918100  1
  O  O16  1  0.33949100  0.39581700  0.29918100  1
  O  O17  1  0.39581700  0.05632600  0.79918100  1
  O  O18  1  0.49797100  0.74898500  0.98803000  1
  O  O19  1  0.74898500  0.49797100  0.48803000  1
  O  O20  1  0.74898500  0.25101500  0.48803000  1
  O  O21  1  0.25101500  0.74898500  0.98803000  1
  O  O22  1  0.25101500  0.50202900  0.98803000  1
  O  O23  1  0.50202900  0.25101500  0.48803000  1
  O  O24  1  0.83530500  0.41765300  0.15540500  1
  O  O25  1  0.41765300  0.83530500  0.65540500  1
  O  O26  1  0.41765300  0.58234700  0.65540500  1
  O  O27  1  0.58234700  0.41765300  0.15540500  1
  O  O28  1  0.58234700  0.16469500  0.15540500  1
  O  O29  1  0.16469500  0.58234700  0.65540500  1
loop_
_geom_bond_atom_site_label_1
_geom_bond_atom_site_label_2
_geom_bond_distance
_geom_bond_site_symmetry_2
Ba0 O23 2.762653 1_555
Ba0 O16 2.842021 1_555
Ba0 O7 2.842032 1_545
Ba0 O27 2.849601 1_555
Ba0 O28 2.849601 1_555
Ba0 O10 2.998865 1_554
Ba0 O17 2.998871 1_554
Ba0 O3 3.119011 1_545
Ba0 O4 3.119011 1_555
Ba0 O5 3.360766 1_555
Ba1 O22 2.762653 1_555
Ba1 O10 2.842021 1_555
Ba1 O14 2.842032 1_455
Ba1 O26 2.849601 1_555
Ba1 O29 2.849601 1_555
Ba1 O16 2.998865 1_555
Ba1 O8 2.998871 1_555
Ba1 O2 3.119011 1_455
Ba1 O5 3.119011 1_555
Ba1 O4 3.360766 1_556
Ba2 O21 2.762653 1_555
Ba2 O9 2.842027 1_455
Ba2 O17 2.842027 1_565
Ba2 O25 2.849601 1_555
Ba2 O29 2.849601 1_555
Ba2 O7 2.998866 1_555
Ba2 O15 2.998866 1_555
Ba2 O1 3.119011 1_455
Ba2 O5 3.119011 1_565
Ba2 O3 3.360777 1_556
Ba3 O20 2.762653 1_555
Ba3 O12 2.842027 1_545
Ba3 O8 2.842027 1_655
Ba3 O24 2.849601 1_555
Ba3 O28 2.849601 1_555
Ba3 O14 2.998866 1_554
Ba3 O11 2.998866 1_554
Ba3 O0 3.119011 1_545
Ba3 O4 3.119011 1_655
Ba3 O2 3.360777 1_555
Ba4 O18 2.762653 1_555
Ba4 O13 2.842021 1_555
Ba4 O11 2.842032 1_565
Ba4 O26 2.849601 1_555
Ba4 O25 2.849601 1_555
Ba4 O6 2.998865 1_555
Ba4 O12 2.998871 1_555
Ba4 O2 3.119011 1_565
Ba4 O1 3.119011 1_555
Ba4 O0 3.360766 1_556
Ba5 O19 2.762653 1_555
Ba5 O6 2.842021 1_555
Ba5 O15 2.842032 1_655
Ba5 O27 2.849601 1_555
Ba5 O24 2.849601 1_555
Ba5 O13 2.998865 1_554
Ba5 O9 2.998871 1_554
Ba5 O3 3.119011 1_655
Ba5 O0 3.119011 1_555
Ba5 O1 3.360766 1_555
Ba6 O25 2.771715 1_555
Ba6 O29 2.771715 1_555
Ba6 O26 2.771728 1_555
Ba6 O21 2.907660 1_554
Ba6 O18 2.907672 1_554
Ba6 O22 2.907672 1_554
Ba6 O7 3.248558 1_555
Ba6 O15 3.248558 1_555
Ba6 O8 3.248564 1_555
Ba6 O12 3.248564 1_555
Ba6 O16 3.248570 1_555
Ba6 O6 3.248570 1_555
Ba7 O24 2.771715 1_556
Ba7 O28 2.771715 1_556
Ba7 O27 2.771728 1_556
Ba7 O20 2.907660 1_555
Ba7 O23 2.907672 1_555
Ba7 O19 2.907672 1_555
Ba7 O14 3.248558 1_555
Ba7 O11 3.248558 1_555
Ba7 O17 3.248564 1_555
Ba7 O9 3.248564 1_555
Ba7 O13 3.248570 1_555
Ba7 O10 3.248570 1_555
O0 Zn0 1.946366 1_555
O0 Sm5 2.300005 1_664
O0 Sm0 2.502553 1_665
O1 Zn1 1.946366 1_555
O1 Sm0 2.300005 1_665
O1 Sm5 2.502553 1_665
O2 Zn2 1.946375 1_555
O2 Sm0 2.299997 1_655
O2 Sm5 2.502546 1_655
O3 Zn3 1.946375 1_555
O3 Sm5 2.299997 1_564
O3 Sm0 2.502546 1_565
O4 Zn4 1.946366 1_555
O4 Sm5 2.300005 1_554
O4 Sm0 2.502553 1_555
O5 Zn5 1.946366 1_555
O5 Sm0 2.300005 1_555
O5 Sm5 2.502553 1_555
O6 Zn0 1.953996 1_555
O6 Sm1 2.313238 1_555
O6 Sm7 2.580814 1_554
O7 Zn3 1.953996 1_555
O7 Sm3 2.313238 1_565
O7 Sm2 2.580814 1_554
O8 Zn4 1.953996 1_555
O8 Sm4 2.313238 1_455
O8 Sm6 2.580814 1_554
O9 Zn1 1.953996 1_555
O9 Sm6 2.313238 1_655
O9 Sm4 2.580814 1_555
O10 Zn5 1.953996 1_555
O10 Sm7 2.313238 1_555
O10 Sm1 2.580814 1_555
O11 Zn2 1.953996 1_555
O11 Sm2 2.313238 1_545
O11 Sm3 2.580814 1_555
O12 Zn0 1.953996 1_555
O12 Sm3 2.313238 1_565
O12 Sm2 2.580814 1_554
O13 Zn1 1.953996 1_555
O13 Sm7 2.313238 1_555
O13 Sm1 2.580814 1_555
O14 Zn2 1.953996 1_555
O14 Sm6 2.313238 1_655
O14 Sm4 2.580814 1_555
O15 Zn3 1.953996 1_555
O15 Sm4 2.313238 1_455
O15 Sm6 2.580814 1_554
O16 Zn4 1.953996 1_555
O16 Sm1 2.313238 1_555
O16 Sm7 2.580814 1_554
O17 Zn5 1.953996 1_555
O17 Sm2 2.313238 1_545
O17 Sm3 2.580814 1_555
O18 Pt0 2.057480 1_555
O18 Zn0 2.066617 1_556
O18 Sm7 2.563919 1_555
O18 Sm2 2.563931 1_555
O19 Pt1 2.057480 1_555
O19 Zn1 2.066617 1_555
O19 Sm1 2.563919 1_555
O19 Sm4 2.563931 1_555
O20 Pt1 2.057464 1_555
O20 Zn2 2.066625 1_555
O20 Sm3 2.563924 1_555
O20 Sm4 2.563924 1_555
O21 Pt0 2.057464 1_555
O21 Zn3 2.066625 1_556
O21 Sm6 2.563924 1_555
O21 Sm2 2.563924 1_555
O22 Pt0 2.057480 1_555
O22 Zn4 2.066617 1_556
O22 Sm7 2.563919 1_555
O22 Sm6 2.563931 1_555
O23 Pt1 2.057480 1_555
O23 Zn5 2.066617 1_555
O23 Sm1 2.563919 1_555
O23 Sm3 2.563931 1_555
O24 Pt1 2.037183 1_555
O24 Sm6 2.401254 1_654
O24 Sm4 2.629719 1_555
O25 Pt0 2.037183 1_555
O25 Sm3 2.401254 1_565
O25 Sm2 2.629719 1_555
O26 Pt0 2.037200 1_555
O26 Sm1 2.401245 1_555
O26 Sm7 2.629714 1_555
O27 Pt1 2.037200 1_555
O27 Sm7 2.401245 1_554
O27 Sm1 2.629714 1_555
O28 Pt1 2.037183 1_555
O28 Sm2 2.401254 1_544
O28 Sm3 2.629719 1_555
O29 Pt0 2.037183 1_555
O29 Sm4 2.401254 1_455
O29 Sm6 2.629719 1_555
