# generated using pymatgen
data_HCO
_symmetry_space_group_name_H-M   'P 1'
_cell_length_a   5.10491400
_cell_length_b   5.10918961
_cell_length_c   19.11063628
_cell_angle_alpha   84.40082624
_cell_angle_beta   84.52255721
_cell_angle_gamma   68.97821813
_symmetry_Int_Tables_number   1
_chemical_formula_structural   HCO
_chemical_formula_sum   'H14 C14 O14'
_cell_volume   462.06742228
_cell_formula_units_Z   14
loop_
 _symmetry_equiv_pos_site_id
 _symmetry_equiv_pos_as_xyz
  1  'x, y, z'
loop_
 _atom_site_type_symbol
 _atom_site_label
 _atom_site_symmetry_multiplicity
 _atom_site_fract_x
 _atom_site_fract_y
 _atom_site_fract_z
 _atom_site_occupancy
  H  H0  1  0.60366500  0.52731800  0.60097100  1
  H  H1  1  0.15193000  0.98621300  0.16904400  1
  H  H2  1  0.56635300  0.26305000  0.00432500  1
  H  H3  1  0.36815700  0.88933900  0.81802200  1
  H  H4  1  0.57557300  0.84339000  0.22386600  1
  H  H5  1  0.60653600  0.99585900  0.94585300  1
  H  H6  1  0.76859600  0.88912700  0.64559600  1
  H  H7  1  0.90753000  0.95403700  0.11187600  1
  H  H8  1  0.87091400  0.99322000  0.41527700  1
  H  H9  1  0.78424300  0.30121500  0.53288400  1
  H  H10  1  0.06147600  0.88010200  0.87033000  1
  H  H11  1  0.50284700  0.21356200  0.42463400  1
  H  H12  1  0.46116600  0.58982700  0.27626000  1
  H  H13  1  0.70770900  0.63477200  0.71034700  1
  C  C0  1  0.27502200  0.04564900  0.02568300  1
  C  C1  1  0.43496700  0.51444200  0.88525100  1
  C  C2  1  0.76762200  0.69490900  0.32245800  1
  C  C3  1  0.45403600  0.16747900  0.97466000  1
  C  C4  1  0.79295400  0.46538300  0.56459500  1
  C  C5  1  0.86773200  0.71870100  0.68500200  1
  C  C6  1  0.60932500  0.77726900  0.46811800  1
  C  C7  1  0.99161400  0.10081400  0.13179500  1
  C  C8  1  0.96800300  0.83865600  0.74277300  1
  C  C9  1  0.64588500  0.64724100  0.25775600  1
  C  C10  1  0.24879900  0.75505900  0.83909200  1
  C  C11  1  0.06850300  0.35495100  0.60155600  1
  C  C12  1  0.65315500  0.00198000  0.41458700  1
  C  C13  1  0.75830700  0.33839800  0.16662200  1
  O  O0  1  0.16673900  0.64274500  0.78096300  1
  O  O1  1  0.43752900  0.66478400  0.46490600  1
  O  O2  1  0.28383600  0.37830900  0.92558900  1
  O  O3  1  0.28699600  0.80225600  0.02698100  1
  O  O4  1  0.79976900  0.70576400  0.51797900  1
  O  O5  1  0.11767900  0.22878000  0.07364500  1
  O  O6  1  0.10209900  0.49644400  0.65447800  1
  O  O7  1  0.59669400  0.94652600  0.34581000  1
  O  O8  1  0.86526500  0.08582100  0.75500700  1
  O  O9  1  0.51771400  0.43886100  0.14905300  1
  O  O10  1  0.97451900  0.53549700  0.35048200  1
  O  O11  1  0.68693900  0.45814500  0.88843000  1
  O  O12  1  0.85344700  0.42343700  0.22131400  1
  O  O13  1  0.26486800  0.14470800  0.58451400  1
loop_
_geom_bond_atom_site_label_1
_geom_bond_atom_site_label_2
_geom_bond_distance
_geom_bond_site_symmetry_2
C0 O3 1.220853 1_545
C0 O5 1.359540 1_555
C1 O11 1.219445 1_555
C1 O2 1.356492 1_555
C2 O10 1.213019 1_555
C2 O7 1.358685 1_555
C3 H5 1.095726 1_545
C3 H2 1.097957 1_556
C3 O2 1.442777 1_555
C4 H9 1.097204 1_555
C4 H0 1.101110 1_555
C4 O4 1.454111 1_555
C5 H6 1.100033 1_555
C5 H13 1.105018 1_555
C5 O6 1.443082 1_655
C6 O1 1.217358 1_555
C6 O4 1.356730 1_555
C7 H1 1.097924 1_645
C7 H7 1.099709 1_545
C7 O5 1.449181 1_655
C8 O8 1.217974 1_565
C8 O0 1.354278 1_655
C9 H4 1.101035 1_555
C9 H12 1.102202 1_555
C9 O12 1.435444 1_555
C10 H3 1.096925 1_555
C10 H10 1.098233 1_555
C10 O0 1.457575 1_555
C11 O13 1.224003 1_555
C11 O6 1.356330 1_555
C12 H8 1.097684 1_545
C12 H11 1.100679 1_555
C12 O7 1.447240 1_545
C13 O9 1.215520 1_555
C13 O12 1.361625 1_555
