# generated using pymatgen
data_NaAg3
_symmetry_space_group_name_H-M   'P 1'
_cell_length_a   5.24064807
_cell_length_b   5.24064807
_cell_length_c   5.24064807
_cell_angle_alpha   132.25377043
_cell_angle_beta   132.25377043
_cell_angle_gamma   69.82851820
_symmetry_Int_Tables_number   1
_chemical_formula_structural   NaAg3
_chemical_formula_sum   'Na1 Ag3'
_cell_volume   77.32628908
_cell_formula_units_Z   1
loop_
 _symmetry_equiv_pos_site_id
 _symmetry_equiv_pos_as_xyz
  1  'x, y, z'
loop_
 _atom_site_type_symbol
 _atom_site_label
 _atom_site_symmetry_multiplicity
 _atom_site_fract_x
 _atom_site_fract_y
 _atom_site_fract_z
 _atom_site_occupancy
  Na  Na0  1  0.00000000  0.00000000  0.00000000  1
  Ag  Ag0  1  0.75000000  0.25000000  0.50000000  1
  Ag  Ag1  1  0.25000000  0.75000000  0.50000000  1
  Ag  Ag2  1  0.50000000  0.50000000  0.00000000  1
loop_
_geom_bond_atom_site_label_1
_geom_bond_atom_site_label_2
_geom_bond_distance
_geom_bond_site_symmetry_2
Ag0 Na0 3.019160 1_656
Ag0 Na0 3.019160 1_655
Ag0 Na0 3.019160 1_666
Ag0 Na0 3.019160 1_555
Ag1 Na0 3.019160 1_565
Ag1 Na0 3.019160 1_566
Ag1 Na0 3.019160 1_555
Ag1 Na0 3.019160 1_666
Ag2 Na0 2.999485 1_565
Ag2 Na0 2.999485 1_554
Ag2 Na0 2.999485 1_655
Ag2 Na0 2.999485 1_666
