# generated using pymatgen
data_SmYAg2
_symmetry_space_group_name_H-M   'P 1'
_cell_length_a   5.17456658
_cell_length_b   5.17456657
_cell_length_c   5.17456648
_cell_angle_alpha   59.99999837
_cell_angle_beta   59.99999882
_cell_angle_gamma   59.99999756
_symmetry_Int_Tables_number   1
_chemical_formula_structural   SmYAg2
_chemical_formula_sum   'Sm1 Y1 Ag2'
_cell_volume   97.97311443
_cell_formula_units_Z   1
loop_
 _symmetry_equiv_pos_site_id
 _symmetry_equiv_pos_as_xyz
  1  'x, y, z'
loop_
 _atom_site_type_symbol
 _atom_site_label
 _atom_site_symmetry_multiplicity
 _atom_site_fract_x
 _atom_site_fract_y
 _atom_site_fract_z
 _atom_site_occupancy
  Sm  Sm0  1  0.25000083  0.25000084  0.25000083  1
  Y  Y0  1  0.75000002  0.75000001  0.75000002  1
  Ag  Ag0  1  0.00000006  0.00000006  0.00000006  1
  Ag  Ag1  1  0.49999909  0.49999908  0.49999910  1
loop_
_geom_bond_atom_site_label_1
_geom_bond_atom_site_label_2
_geom_bond_distance
_geom_bond_site_symmetry_2
Ag0 Sm0 3.168759 1_545
Ag0 Sm0 3.168759 1_554
Ag0 Sm0 3.168759 1_455
Ag0 Y0 3.168762 1_454
Ag0 Y0 3.168762 1_445
Ag0 Y0 3.168762 1_544
Ag0 Y0 3.168763 1_444
Ag0 Sm0 3.168772 1_555
Ag1 Sm0 3.168740 1_555
Ag1 Y0 3.168758 1_545
Ag1 Y0 3.168758 1_455
Ag1 Y0 3.168758 1_554
Ag1 Sm0 3.168769 1_556
Ag1 Sm0 3.168769 1_655
Ag1 Sm0 3.168769 1_565
Ag1 Y0 3.168774 1_555
