# generated using pymatgen
data_Yb3Ta
_symmetry_space_group_name_H-M   'P 1'
_cell_length_a   5.95946004
_cell_length_b   5.95946004
_cell_length_c   5.95946004
_cell_angle_alpha   131.11004400
_cell_angle_beta   131.11004400
_cell_angle_gamma   71.63830046
_symmetry_Int_Tables_number   1
_chemical_formula_structural   Yb3Ta
_chemical_formula_sum   'Yb3 Ta1'
_cell_volume   117.55803214
_cell_formula_units_Z   1
loop_
 _symmetry_equiv_pos_site_id
 _symmetry_equiv_pos_as_xyz
  1  'x, y, z'
loop_
 _atom_site_type_symbol
 _atom_site_label
 _atom_site_symmetry_multiplicity
 _atom_site_fract_x
 _atom_site_fract_y
 _atom_site_fract_z
 _atom_site_occupancy
  Yb  Yb0  1  0.75000000  0.25000000  0.50000000  1
  Yb  Yb1  1  0.25000000  0.75000000  0.50000000  1
  Yb  Yb2  1  0.50000000  0.50000000  0.00000000  1
  Ta  Ta0  1  0.00000000  0.00000000  0.00000000  1
loop_
_geom_bond_atom_site_label_1
_geom_bond_atom_site_label_2
_geom_bond_distance
_geom_bond_site_symmetry_2
Yb0 Yb2 3.452494 1_556
Yb0 Yb2 3.452494 1_555
Yb0 Yb2 3.452494 1_656
Yb0 Yb2 3.452494 1_545
Yb0 Yb1 3.487647 1_656
Yb0 Yb1 3.487647 1_544
Yb0 Yb1 3.487647 1_645
Yb0 Yb1 3.487647 1_555
Yb1 Yb2 3.452494 1_556
Yb1 Yb2 3.452494 1_555
Yb1 Yb2 3.452494 1_566
Yb1 Yb2 3.452494 1_455
Ta0 Yb1 3.452494 1_544
Ta0 Yb0 3.452494 1_455
Ta0 Yb1 3.452494 1_444
Ta0 Yb0 3.452494 1_454
Ta0 Yb0 3.452494 1_555
Ta0 Yb0 3.452494 1_444
Ta0 Yb1 3.452494 1_545
Ta0 Yb1 3.452494 1_555
Ta0 Yb2 3.487647 1_455
Ta0 Yb2 3.487647 1_556
Ta0 Yb2 3.487647 1_545
Ta0 Yb2 3.487647 1_444
