# generated using pymatgen
data_ErAgGe
_symmetry_space_group_name_H-M   'P 1'
_cell_length_a   7.32729695
_cell_length_b   7.32729695
_cell_length_c   4.09651800
_cell_angle_alpha   90.00000000
_cell_angle_beta   90.00000000
_cell_angle_gamma   119.99999055
_symmetry_Int_Tables_number   1
_chemical_formula_structural   ErAgGe
_chemical_formula_sum   'Er3 Ag3 Ge3'
_cell_volume   190.47286996
_cell_formula_units_Z   3
loop_
 _symmetry_equiv_pos_site_id
 _symmetry_equiv_pos_as_xyz
  1  'x, y, z'
loop_
 _atom_site_type_symbol
 _atom_site_label
 _atom_site_symmetry_multiplicity
 _atom_site_fract_x
 _atom_site_fract_y
 _atom_site_fract_z
 _atom_site_occupancy
  Er  Er0  1  0.00000000  0.60356400  0.00000000  1
  Er  Er1  1  0.39643600  0.39643600  0.00000000  1
  Er  Er2  1  0.60356400  0.00000000  0.00000000  1
  Ag  Ag0  1  0.66666700  0.33333300  0.50000000  1
  Ag  Ag1  1  0.00000000  0.00000000  0.00000000  1
  Ag  Ag2  1  0.33333300  0.66666700  0.50000000  1
  Ge  Ge0  1  0.73181900  0.73181900  0.50000000  1
  Ge  Ge1  1  0.26818100  0.00000000  0.50000000  1
  Ge  Ge2  1  0.00000000  0.26818100  0.50000000  1
loop_
_geom_bond_atom_site_label_1
_geom_bond_atom_site_label_2
_geom_bond_distance
_geom_bond_site_symmetry_2
Er0 Ge2 3.199129 1_555
Er0 Ge2 3.199129 1_554
Er0 Ge0 3.284293 1_454
Er0 Ge0 3.284293 1_455
Er0 Ge1 3.284293 1_565
Er0 Ge1 3.284293 1_564
Er1 Ge0 3.199130 1_555
Er1 Ge0 3.199130 1_554
Er1 Ge2 3.284293 1_555
Er1 Ge1 3.284293 1_555
Er1 Ge1 3.284293 1_554
Er1 Ge2 3.284293 1_554
Er2 Ge1 3.199129 1_555
Er2 Ge1 3.199129 1_554
Er2 Ge0 3.284293 1_544
Er2 Ge0 3.284293 1_545
Er2 Ge2 3.284293 1_655
Er2 Ge2 3.284293 1_654
Ag0 Ge2 2.712812 1_655
Ag0 Ge1 2.712817 1_555
Ag0 Ge0 2.712819 1_555
Ag0 Er2 3.040609 1_556
Ag0 Er2 3.040609 1_555
Ag0 Er0 3.040611 1_655
Ag0 Er0 3.040611 1_656
Ag0 Er1 3.040614 1_556
Ag0 Er1 3.040614 1_555
Ag1 Ge2 2.838442 1_554
Ag1 Ge2 2.838442 1_555
Ag1 Ge1 2.838442 1_555
Ag1 Ge1 2.838442 1_554
Ag1 Ge0 2.838442 1_445
Ag1 Ge0 2.838442 1_444
Ag1 Er0 2.904804 1_545
Ag1 Er2 2.904804 1_455
Ag1 Er1 2.904805 1_555
Ag2 Ge1 2.712812 1_565
Ag2 Ge2 2.712817 1_555
Ag2 Ge0 2.712819 1_555
Ag2 Er0 3.040609 1_556
Ag2 Er0 3.040609 1_555
Ag2 Er2 3.040611 1_566
Ag2 Er2 3.040611 1_565
Ag2 Er1 3.040614 1_556
Ag2 Er1 3.040614 1_555
