# generated using pymatgen
data_Zn3CdS4
_symmetry_space_group_name_H-M   'P 1'
_cell_length_a   5.51101202
_cell_length_b   5.51101202
_cell_length_c   5.51101202
_cell_angle_alpha   90.00000000
_cell_angle_beta   90.00000000
_cell_angle_gamma   90.00000000
_symmetry_Int_Tables_number   1
_chemical_formula_structural   Zn3CdS4
_chemical_formula_sum   'Zn3 Cd1 S4'
_cell_volume   167.37634302
_cell_formula_units_Z   1
loop_
 _symmetry_equiv_pos_site_id
 _symmetry_equiv_pos_as_xyz
  1  'x, y, z'
loop_
 _atom_site_type_symbol
 _atom_site_label
 _atom_site_symmetry_multiplicity
 _atom_site_fract_x
 _atom_site_fract_y
 _atom_site_fract_z
 _atom_site_occupancy
  Zn  Zn0  1  0.00000000  0.50000000  0.50000000  1
  Zn  Zn1  1  0.50000000  -0.00000000  0.50000000  1
  Zn  Zn2  1  0.50000000  0.50000000  -0.00000000  1
  Cd  Cd0  1  0.00000000  -0.00000000  -0.00000000  1
  S  S0  1  0.26268019  0.26268019  0.26268019  1
  S  S1  1  0.73731981  0.73731981  0.26268019  1
  S  S2  1  0.26268019  0.73731981  0.73731981  1
  S  S3  1  0.73731981  0.26268019  0.73731981  1
loop_
_geom_bond_atom_site_label_1
_geom_bond_atom_site_label_2
_geom_bond_distance
_geom_bond_site_symmetry_2
Cd0 S3 2.507375 1_454
Cd0 S2 2.507375 1_544
Cd0 S1 2.507375 1_445
Cd0 S0 2.507375 1_555
S0 Zn1 2.348766 1_555
S0 Zn2 2.348766 1_555
S0 Zn0 2.348766 1_555
S1 Zn1 2.348766 1_565
S1 Zn2 2.348766 1_555
S1 Zn0 2.348766 1_655
S2 Zn1 2.348766 1_565
S2 Zn2 2.348766 1_556
S2 Zn0 2.348766 1_555
S3 Zn1 2.348766 1_555
S3 Zn2 2.348766 1_556
S3 Zn0 2.348766 1_655
