# generated using pymatgen
data_LaP3
_symmetry_space_group_name_H-M   'P 1'
_cell_length_a   5.84547761
_cell_length_b   5.84547761
_cell_length_c   5.39202800
_cell_angle_alpha   90.00000000
_cell_angle_beta   90.00000000
_cell_angle_gamma   119.99999564
_symmetry_Int_Tables_number   1
_chemical_formula_structural   LaP3
_chemical_formula_sum   'La2 P6'
_cell_volume   159.55954637
_cell_formula_units_Z   2
loop_
 _symmetry_equiv_pos_site_id
 _symmetry_equiv_pos_as_xyz
  1  'x, y, z'
loop_
 _atom_site_type_symbol
 _atom_site_label
 _atom_site_symmetry_multiplicity
 _atom_site_fract_x
 _atom_site_fract_y
 _atom_site_fract_z
 _atom_site_occupancy
  La  La0  1  0.66666700  0.33333300  0.25000000  1
  La  La1  1  0.33333300  0.66666700  0.75000000  1
  P  P0  1  0.86344100  0.13655900  0.75000000  1
  P  P1  1  0.27311900  0.13655900  0.75000000  1
  P  P2  1  0.86344100  0.72688100  0.75000000  1
  P  P3  1  0.13655900  0.86344100  0.25000000  1
  P  P4  1  0.72688100  0.86344100  0.25000000  1
  P  P5  1  0.13655900  0.27311900  0.25000000  1
loop_
_geom_bond_atom_site_label_1
_geom_bond_atom_site_label_2
_geom_bond_distance
_geom_bond_site_symmetry_2
La0 P5 2.938586 1_655
La0 P4 2.938586 1_545
La0 P3 2.938593 1_655
La0 P3 2.938593 1_545
La0 P4 2.938597 1_555
La0 P5 2.938597 1_555
La0 P0 3.352258 1_555
La0 P0 3.352258 1_554
La0 P2 3.352258 1_554
La0 P1 3.352258 1_555
La0 P2 3.352258 1_555
La0 P1 3.352258 1_554
La1 P1 2.938586 1_565
La1 P2 2.938586 1_455
La1 P0 2.938593 1_565
La1 P0 2.938593 1_455
La1 P2 2.938597 1_555
La1 P1 2.938597 1_555
La1 P3 3.352258 1_556
La1 P3 3.352258 1_555
La1 P5 3.352258 1_556
La1 P4 3.352258 1_556
La1 P4 3.352258 1_555
La1 P5 3.352258 1_555
P0 P2 2.394764 1_545
P0 P1 2.394764 1_655
P1 P2 2.394764 1_445
P3 P4 2.394764 1_455
P3 P5 2.394764 1_565
P4 P5 2.394764 1_665
