# generated using pymatgen
data_USbSe
_symmetry_space_group_name_H-M   'P 1'
_cell_length_a   4.21182274
_cell_length_b   4.21182274
_cell_length_c   8.89511311
_cell_angle_alpha   90.00000000
_cell_angle_beta   90.00000000
_cell_angle_gamma   90.00000000
_symmetry_Int_Tables_number   1
_chemical_formula_structural   USbSe
_chemical_formula_sum   'U2 Sb2 Se2'
_cell_volume   157.79442131
_cell_formula_units_Z   2
loop_
 _symmetry_equiv_pos_site_id
 _symmetry_equiv_pos_as_xyz
  1  'x, y, z'
loop_
 _atom_site_type_symbol
 _atom_site_label
 _atom_site_symmetry_multiplicity
 _atom_site_fract_x
 _atom_site_fract_y
 _atom_site_fract_z
 _atom_site_occupancy
  U  U0  1  0.75000000  0.75000000  0.71011527  1
  U  U1  1  0.25000000  0.25000000  0.28988473  1
  Sb  Sb0  1  0.75000000  0.25000000  0.00000000  1
  Sb  Sb1  1  0.25000000  0.75000000  0.00000000  1
  Se  Se0  1  0.75000000  0.75000000  0.37138870  1
  Se  Se1  1  0.25000000  0.25000000  0.62861130  1
loop_
_geom_bond_atom_site_label_1
_geom_bond_atom_site_label_2
_geom_bond_distance
_geom_bond_site_symmetry_2
Sb0 Sb1 2.978208 1_655
Sb0 Sb1 2.978208 1_545
Sb0 Sb1 2.978208 1_555
Sb0 Sb1 2.978208 1_645
Sb0 U1 3.329237 1_655
Sb0 U1 3.329237 1_555
Sb0 U0 3.329237 1_554
Sb0 U0 3.329237 1_544
Sb1 U1 3.329237 1_565
Sb1 U1 3.329237 1_555
Sb1 U0 3.329237 1_554
Sb1 U0 3.329237 1_454
Se0 U0 3.013011 1_555
Se0 U1 3.065181 1_555
Se0 U1 3.065181 1_565
Se0 U1 3.065181 1_655
Se0 U1 3.065181 1_665
Se1 U1 3.013011 1_555
Se1 U0 3.065181 1_545
Se1 U0 3.065181 1_555
Se1 U0 3.065181 1_445
Se1 U0 3.065181 1_455
