# generated using pymatgen
data_RbGdO3
_symmetry_space_group_name_H-M   'P 1'
_cell_length_a   4.47207100
_cell_length_b   4.47207100
_cell_length_c   4.47207100
_cell_angle_alpha   90.00000000
_cell_angle_beta   90.00000000
_cell_angle_gamma   90.00000000
_symmetry_Int_Tables_number   1
_chemical_formula_structural   RbGdO3
_chemical_formula_sum   'Rb1 Gd1 O3'
_cell_volume   89.43882186
_cell_formula_units_Z   1
loop_
 _symmetry_equiv_pos_site_id
 _symmetry_equiv_pos_as_xyz
  1  'x, y, z'
loop_
 _atom_site_type_symbol
 _atom_site_label
 _atom_site_symmetry_multiplicity
 _atom_site_fract_x
 _atom_site_fract_y
 _atom_site_fract_z
 _atom_site_occupancy
  Rb  Rb0  1  0.00000000  0.00000000  0.00000000  1
  Gd  Gd0  1  0.50000100  0.50000100  0.50000100  1
  O  O0  1  0.50000100  0.50000100  0.00000000  1
  O  O1  1  0.50000100  0.00000000  0.50000100  1
  O  O2  1  0.00000000  0.50000100  0.50000100  1
loop_
_geom_bond_atom_site_label_1
_geom_bond_atom_site_label_2
_geom_bond_distance
_geom_bond_site_symmetry_2
Gd0 O1 2.236031 1_565
Gd0 O2 2.236031 1_655
Gd0 O0 2.236031 1_556
Gd0 O2 2.236040 1_555
Gd0 O1 2.236040 1_555
Gd0 O0 2.236040 1_555
O0 Rb0 3.162225 1_665
O0 Rb0 3.162232 1_655
O0 Rb0 3.162232 1_565
O0 Rb0 3.162238 1_555
O1 Rb0 3.162225 1_656
O1 Rb0 3.162232 1_655
O1 Rb0 3.162232 1_556
O1 Rb0 3.162238 1_555
O2 Rb0 3.162225 1_566
O2 Rb0 3.162232 1_565
O2 Rb0 3.162232 1_556
O2 Rb0 3.162238 1_555
