# generated using pymatgen
data_MgNi
_symmetry_space_group_name_H-M   'P 1'
_cell_length_a   4.92572944
_cell_length_b   4.92573278
_cell_length_c   4.92563775
_cell_angle_alpha   60.48728872
_cell_angle_beta   60.48733488
_cell_angle_gamma   60.48589902
_symmetry_Int_Tables_number   1
_chemical_formula_structural   MgNi
_chemical_formula_sum   'Mg3 Ni3'
_cell_volume   85.43612260
_cell_formula_units_Z   3
loop_
 _symmetry_equiv_pos_site_id
 _symmetry_equiv_pos_as_xyz
  1  'x, y, z'
loop_
 _atom_site_type_symbol
 _atom_site_label
 _atom_site_symmetry_multiplicity
 _atom_site_fract_x
 _atom_site_fract_y
 _atom_site_fract_z
 _atom_site_occupancy
  Mg  Mg0  1  -0.00000001  -0.00000002  -0.00000001  1
  Mg  Mg1  1  0.38056646  0.38056662  0.38056148  1
  Mg  Mg2  1  0.61943356  0.61943337  0.61943846  1
  Ni  Ni0  1  -0.00000002  0.49999996  0.00000006  1
  Ni  Ni1  1  -0.00000003  0.00000002  0.50000006  1
  Ni  Ni2  1  0.50000003  0.00000005  -0.00000005  1
loop_
_geom_bond_atom_site_label_1
_geom_bond_atom_site_label_2
_geom_bond_distance
_geom_bond_site_symmetry_2
Mg0 Ni1 2.462818 1_554
Mg0 Ni1 2.462819 1_555
Mg0 Ni2 2.462864 1_455
Mg0 Ni2 2.462865 1_555
Mg0 Ni0 2.462866 1_545
Mg0 Ni0 2.462866 1_555
Mg0 Mg1 2.920447 1_545
Mg0 Mg2 2.920447 1_454
Mg0 Mg1 2.920450 1_455
Mg0 Mg2 2.920450 1_544
Mg0 Mg2 2.920530 1_445
Mg0 Mg1 2.920530 1_554
Mg1 Ni1 2.866407 1_655
Mg1 Ni2 2.866409 1_556
Mg1 Ni1 2.866409 1_565
Mg1 Ni0 2.866410 1_556
Mg1 Ni0 2.866457 1_655
Mg1 Ni2 2.866458 1_565
Mg1 Mg2 2.871428 1_555
Mg1 Ni0 2.943268 1_555
Mg1 Ni2 2.943271 1_555
Mg1 Ni1 2.943349 1_555
Mg1 Mg2 3.081558 1_554
Mg1 Mg2 3.081617 1_455
Mg1 Mg2 3.081619 1_545
Mg2 Ni1 2.866407 1_565
Mg2 Ni2 2.866409 1_565
Mg2 Ni1 2.866409 1_655
Mg2 Ni0 2.866410 1_655
Mg2 Ni2 2.866457 1_556
Mg2 Ni0 2.866457 1_556
Mg2 Ni0 2.943268 1_656
Mg2 Ni2 2.943271 1_566
Mg2 Ni1 2.943349 1_665
Ni0 Ni2 2.480931 1_555
Ni0 Ni2 2.480932 1_465
Ni0 Ni1 2.480960 1_555
Ni0 Ni1 2.480960 1_564
Ni1 Ni2 2.480961 1_456
Ni1 Ni2 2.480961 1_555
