# generated using pymatgen
data_Ti5Si3C
_symmetry_space_group_name_H-M   'P 1'
_cell_length_a   5.15627526
_cell_length_b   7.45373096
_cell_length_c   7.45373096
_cell_angle_alpha   120.00000466
_cell_angle_beta   90.00000000
_cell_angle_gamma   90.00000000
_symmetry_Int_Tables_number   1
_chemical_formula_structural   Ti5Si3C
_chemical_formula_sum   'Ti10 Si6 C2'
_cell_volume   248.09278325
_cell_formula_units_Z   2
loop_
 _symmetry_equiv_pos_site_id
 _symmetry_equiv_pos_as_xyz
  1  'x, y, z'
loop_
 _atom_site_type_symbol
 _atom_site_label
 _atom_site_symmetry_multiplicity
 _atom_site_fract_x
 _atom_site_fract_y
 _atom_site_fract_z
 _atom_site_occupancy
  Ti  Ti0  1  0.00000000  0.66666700  0.33333400  1
  Ti  Ti1  1  0.00000000  0.33333300  0.66666600  1
  Ti  Ti2  1  0.50000000  0.33333300  0.66666600  1
  Ti  Ti3  1  0.50000000  0.66666700  0.33333400  1
  Ti  Ti4  1  0.75000000  0.76768192  0.76768192  1
  Ti  Ti5  1  0.25000000  0.23231808  0.23231808  1
  Ti  Ti6  1  0.75000000  -0.00000000  0.23231808  1
  Ti  Ti7  1  0.25000000  0.00000000  0.76768192  1
  Ti  Ti8  1  0.75000000  0.23231808  -0.00000000  1
  Ti  Ti9  1  0.25000000  0.76768192  0.00000000  1
  Si  Si0  1  0.75000000  0.40648547  0.40648547  1
  Si  Si1  1  0.25000000  0.59351453  0.59351453  1
  Si  Si2  1  0.75000000  0.00000000  0.59351453  1
  Si  Si3  1  0.25000000  -0.00000000  0.40648547  1
  Si  Si4  1  0.75000000  0.59351453  0.00000000  1
  Si  Si5  1  0.25000000  0.40648547  -0.00000000  1
  C  C0  1  -0.00000000  -0.00000000  -0.00000000  1
  C  C1  1  0.50000000  -0.00000000  -0.00000000  1
loop_
_geom_bond_atom_site_label_1
_geom_bond_atom_site_label_2
_geom_bond_distance
_geom_bond_site_symmetry_2
Ti0 Ti3 2.578138 1_455
Ti0 Ti3 2.578138 1_555
Ti1 Ti2 2.578138 1_555
Ti1 Ti2 2.578138 1_455
Si0 Ti2 2.603340 1_555
Si0 Ti1 2.603340 1_655
Si0 Ti0 2.603342 1_655
Si0 Ti3 2.603342 1_555
Si0 Ti6 2.632847 1_555
Si0 Ti8 2.632847 1_555
Si0 Ti4 2.692261 1_555
Si0 Ti5 2.886539 1_555
Si0 Ti5 2.886539 1_655
Si1 Ti0 2.603340 1_555
Si1 Ti3 2.603340 1_555
Si1 Ti1 2.603342 1_555
Si1 Ti2 2.603342 1_555
Si1 Ti9 2.632847 1_556
Si1 Ti7 2.632847 1_565
Si1 Ti5 2.692261 1_555
Si1 Ti4 2.886539 1_455
Si1 Ti4 2.886539 1_555
Si2 Ti0 2.603340 1_645
Si2 Ti3 2.603340 1_545
Si2 Ti2 2.603342 1_555
Si2 Ti1 2.603342 1_655
Si2 Ti8 2.632847 1_556
Si2 Ti4 2.632847 1_545
Si2 Ti6 2.692261 1_555
Si2 Ti7 2.886539 1_655
Si2 Ti7 2.886539 1_555
Si3 Ti1 2.603340 1_555
Si3 Ti2 2.603340 1_555
Si3 Ti0 2.603342 1_545
Si3 Ti3 2.603342 1_545
Si3 Ti9 2.632847 1_545
Si3 Ti5 2.632847 1_555
Si3 Ti7 2.692261 1_555
Si3 Ti6 2.886539 1_555
Si3 Ti6 2.886539 1_455
Si4 Ti2 2.603346 1_554
Si4 Ti1 2.603346 1_654
Si4 Ti3 2.603346 1_555
Si4 Ti0 2.603346 1_655
Si4 Ti6 2.632847 1_565
Si4 Ti4 2.632847 1_554
Si4 Ti8 2.692261 1_555
Si4 Ti9 2.886539 1_555
Si4 Ti9 2.886539 1_655
Si5 Ti0 2.603346 1_555
Si5 Ti3 2.603346 1_555
Si5 Ti2 2.603346 1_554
Si5 Ti1 2.603346 1_554
Si5 Ti7 2.632847 1_554
Si5 Ti5 2.632847 1_555
Si5 Ti9 2.692261 1_555
Si5 Ti8 2.886539 1_455
Si5 Ti8 2.886539 1_555
C0 Ti4 2.158764 1_444
C0 Ti5 2.158764 1_555
C0 Ti6 2.158764 1_455
C0 Ti7 2.158764 1_554
C0 Ti9 2.158764 1_545
C0 Ti8 2.158764 1_455
C1 Ti4 2.158764 1_544
C1 Ti5 2.158764 1_555
C1 Ti7 2.158764 1_554
C1 Ti6 2.158764 1_555
C1 Ti9 2.158764 1_545
C1 Ti8 2.158764 1_555
