# generated using pymatgen
data_Tc3As
_symmetry_space_group_name_H-M   'P 1'
_cell_length_a   4.92175097
_cell_length_b   4.92175097
_cell_length_c   4.92175097
_cell_angle_alpha   135.12777877
_cell_angle_beta   135.12777877
_cell_angle_gamma   65.33172487
_symmetry_Int_Tables_number   1
_chemical_formula_structural   Tc3As
_chemical_formula_sum   'Tc3 As1'
_cell_volume   58.47657726
_cell_formula_units_Z   1
loop_
 _symmetry_equiv_pos_site_id
 _symmetry_equiv_pos_as_xyz
  1  'x, y, z'
loop_
 _atom_site_type_symbol
 _atom_site_label
 _atom_site_symmetry_multiplicity
 _atom_site_fract_x
 _atom_site_fract_y
 _atom_site_fract_z
 _atom_site_occupancy
  Tc  Tc0  1  0.75000000  0.25000000  0.50000000  1
  Tc  Tc1  1  0.25000000  0.75000000  0.50000000  1
  Tc  Tc2  1  0.50000000  0.50000000  0.00000000  1
  As  As0  1  0.00000000  0.00000000  0.00000000  1
loop_
_geom_bond_atom_site_label_1
_geom_bond_atom_site_label_2
_geom_bond_distance
_geom_bond_site_symmetry_2
Tc0 Tc1 2.656460 1_555
Tc0 Tc1 2.656460 1_645
Tc0 Tc1 2.656460 1_544
Tc0 Tc1 2.656460 1_656
Tc0 Tc2 2.796445 1_656
Tc0 Tc2 2.796445 1_556
Tc0 Tc2 2.796445 1_555
Tc0 Tc2 2.796445 1_545
Tc1 Tc2 2.796445 1_455
Tc1 Tc2 2.796445 1_556
Tc1 Tc2 2.796445 1_555
Tc1 Tc2 2.796445 1_566
As0 Tc2 2.656460 1_545
As0 Tc2 2.656460 1_455
As0 Tc2 2.656460 1_556
As0 Tc2 2.656460 1_444
As0 Tc1 2.796445 1_444
As0 Tc0 2.796445 1_555
As0 Tc0 2.796445 1_454
As0 Tc1 2.796445 1_545
As0 Tc0 2.796445 1_455
As0 Tc1 2.796445 1_555
As0 Tc0 2.796445 1_444
As0 Tc1 2.796445 1_544
