# generated using pymatgen
data_HgOs
_symmetry_space_group_name_H-M   'P 1'
_cell_length_a   5.78537549
_cell_length_b   5.78537549
_cell_length_c   9.55936600
_cell_angle_alpha   90.00000000
_cell_angle_beta   90.00000000
_cell_angle_gamma   119.99999419
_symmetry_Int_Tables_number   1
_chemical_formula_structural   HgOs
_chemical_formula_sum   'Hg8 Os8'
_cell_volume   277.09127430
_cell_formula_units_Z   8
loop_
 _symmetry_equiv_pos_site_id
 _symmetry_equiv_pos_as_xyz
  1  'x, y, z'
loop_
 _atom_site_type_symbol
 _atom_site_label
 _atom_site_symmetry_multiplicity
 _atom_site_fract_x
 _atom_site_fract_y
 _atom_site_fract_z
 _atom_site_occupancy
  Hg  Hg0_0  1  0.16666650  0.33333350  0.25000000  1
  Hg  Hg0_1  1  0.16666650  0.33333350  0.75000000  1
  Hg  Hg0_2  1  0.16666650  0.83333350  0.25000000  1
  Hg  Hg0_3  1  0.16666650  0.83333350  0.75000000  1
  Hg  Hg0_4  1  0.66666650  0.33333350  0.25000000  1
  Hg  Hg0_5  1  0.66666650  0.33333350  0.75000000  1
  Hg  Hg0_6  1  0.66666650  0.83333350  0.25000000  1
  Hg  Hg0_7  1  0.66666650  0.83333350  0.75000000  1
  Os  Os0_0  1  0.00000000  0.00000000  0.00000000  1
  Os  Os0_1  1  0.00000000  0.00000000  0.50000000  1
  Os  Os0_2  1  0.00000000  0.50000000  0.00000000  1
  Os  Os0_3  1  0.00000000  0.50000000  0.50000000  1
  Os  Os0_4  1  0.50000000  0.00000000  0.00000000  1
  Os  Os0_5  1  0.50000000  0.00000000  0.50000000  1
  Os  Os0_6  1  0.50000000  0.50000000  0.00000000  1
  Os  Os0_7  1  0.50000000  0.50000000  0.50000000  1
loop_
_geom_bond_atom_site_label_1
_geom_bond_atom_site_label_2
_geom_bond_distance
_geom_bond_site_symmetry_2
Hg0_0 Hg0_2 2.892688 1_545
Hg0_0 Hg0_4 2.892688 1_455
Hg0_0 Hg0_2 2.892688 1_555
Hg0_0 Hg0_4 2.892688 1_555
Hg0_0 Hg0_6 2.892688 1_555
Hg0_0 Hg0_6 2.892688 1_445
Hg0_0 Os0_2 2.915570 1_555
Hg0_0 Os0_3 2.915570 1_555
Hg0_0 Os0_1 2.915572 1_555
Hg0_0 Os0_0 2.915572 1_555
Hg0_0 Os0_6 2.915572 1_555
Hg0_0 Os0_7 2.915572 1_555
Hg0_1 Hg0_3 2.892688 1_545
Hg0_1 Hg0_5 2.892688 1_455
Hg0_1 Hg0_3 2.892688 1_555
Hg0_1 Hg0_5 2.892688 1_555
Hg0_1 Hg0_7 2.892688 1_445
Hg0_1 Hg0_7 2.892688 1_555
Hg0_1 Os0_2 2.915570 1_556
Hg0_1 Os0_3 2.915570 1_555
Hg0_1 Os0_1 2.915572 1_555
Hg0_1 Os0_0 2.915572 1_556
Hg0_1 Os0_6 2.915572 1_556
Hg0_1 Os0_7 2.915572 1_555
Hg0_2 Hg0_6 2.892688 1_455
Hg0_2 Hg0_6 2.892688 1_555
Hg0_2 Hg0_4 2.892688 1_455
Hg0_2 Hg0_4 2.892688 1_565
Hg0_2 Os0_0 2.915570 1_565
Hg0_2 Os0_1 2.915570 1_565
Hg0_2 Os0_2 2.915572 1_555
Hg0_2 Os0_4 2.915572 1_565
Hg0_2 Os0_5 2.915572 1_565
Hg0_2 Os0_3 2.915572 1_555
Hg0_3 Hg0_7 2.892688 1_555
Hg0_3 Hg0_7 2.892688 1_455
Hg0_3 Hg0_5 2.892688 1_455
Hg0_3 Hg0_5 2.892688 1_565
Hg0_3 Os0_0 2.915570 1_566
Hg0_3 Os0_1 2.915570 1_565
Hg0_3 Os0_4 2.915572 1_566
Hg0_3 Os0_5 2.915572 1_565
Hg0_3 Os0_2 2.915572 1_556
Hg0_3 Os0_3 2.915572 1_555
Hg0_4 Hg0_6 2.892688 1_545
Hg0_4 Hg0_6 2.892688 1_555
Hg0_4 Os0_7 2.915570 1_555
Hg0_4 Os0_6 2.915570 1_555
Hg0_4 Os0_3 2.915572 1_655
Hg0_4 Os0_2 2.915572 1_655
Hg0_4 Os0_5 2.915572 1_555
Hg0_4 Os0_4 2.915572 1_555
Hg0_5 Hg0_7 2.892688 1_545
Hg0_5 Hg0_7 2.892688 1_555
Hg0_5 Os0_7 2.915570 1_555
Hg0_5 Os0_6 2.915570 1_556
Hg0_5 Os0_3 2.915572 1_655
Hg0_5 Os0_2 2.915572 1_656
Hg0_5 Os0_5 2.915572 1_555
Hg0_5 Os0_4 2.915572 1_556
Hg0_6 Os0_4 2.915570 1_565
Hg0_6 Os0_5 2.915570 1_565
Hg0_6 Os0_0 2.915572 1_665
Hg0_6 Os0_1 2.915572 1_665
Hg0_6 Os0_6 2.915572 1_555
Hg0_6 Os0_7 2.915572 1_555
Hg0_7 Os0_4 2.915570 1_566
Hg0_7 Os0_5 2.915570 1_565
Hg0_7 Os0_1 2.915572 1_665
Hg0_7 Os0_6 2.915572 1_556
Hg0_7 Os0_7 2.915572 1_555
Hg0_7 Os0_0 2.915572 1_666
Os0_0 Os0_2 2.892688 1_545
Os0_0 Os0_2 2.892688 1_555
Os0_0 Os0_4 2.892688 1_455
Os0_0 Os0_4 2.892688 1_555
Os0_0 Os0_6 2.892688 1_445
Os0_0 Os0_6 2.892688 1_555
Os0_1 Os0_5 2.892688 1_555
Os0_1 Os0_3 2.892688 1_555
Os0_1 Os0_3 2.892688 1_545
Os0_1 Os0_5 2.892688 1_455
Os0_1 Os0_7 2.892688 1_555
Os0_1 Os0_7 2.892688 1_445
Os0_2 Os0_6 2.892688 1_555
Os0_2 Os0_6 2.892688 1_455
Os0_2 Os0_4 2.892688 1_455
Os0_2 Os0_4 2.892688 1_565
Os0_3 Os0_7 2.892688 1_455
Os0_3 Os0_7 2.892688 1_555
Os0_3 Os0_5 2.892688 1_565
Os0_3 Os0_5 2.892688 1_455
Os0_4 Os0_6 2.892688 1_555
Os0_4 Os0_6 2.892688 1_545
Os0_5 Os0_7 2.892688 1_545
Os0_5 Os0_7 2.892688 1_555
