# generated using pymatgen
data_GdEr3
_symmetry_space_group_name_H-M   'P 1'
_cell_length_a   7.14126751
_cell_length_b   7.14122856
_cell_length_c   5.72989439
_cell_angle_alpha   90.00000000
_cell_angle_beta   90.00000000
_cell_angle_gamma   119.99932989
_symmetry_Int_Tables_number   1
_chemical_formula_structural   GdEr3
_chemical_formula_sum   'Gd2 Er6'
_cell_volume   253.06286302
_cell_formula_units_Z   2
loop_
 _symmetry_equiv_pos_site_id
 _symmetry_equiv_pos_as_xyz
  1  'x, y, z'
loop_
 _atom_site_type_symbol
 _atom_site_label
 _atom_site_symmetry_multiplicity
 _atom_site_fract_x
 _atom_site_fract_y
 _atom_site_fract_z
 _atom_site_occupancy
  Gd  Gd0  1  0.33333740  0.66664454  0.75000000  1
  Gd  Gd1  1  0.66667432  0.33331359  0.25000000  1
  Er  Er0  1  0.16751855  0.33506587  0.25000000  1
  Er  Er1  1  0.66493286  0.83248707  0.25000000  1
  Er  Er2  1  0.16753448  0.83247251  0.25000000  1
  Er  Er3  1  0.83214686  0.66430827  0.75000000  1
  Er  Er4  1  0.33568731  0.16785787  0.75000000  1
  Er  Er5  1  0.83216723  0.16785029  0.75000000  1
loop_
_geom_bond_atom_site_label_1
_geom_bond_atom_site_label_2
_geom_bond_distance
_geom_bond_site_symmetry_2
Er0 Gd0 3.523225 1_554
Er0 Gd0 3.523225 1_555
Er0 Er5 3.536865 1_454
Er0 Er5 3.536865 1_455
Er0 Er4 3.536941 1_554
Er0 Er4 3.536941 1_555
Er0 Er2 3.552038 1_555
Er0 Er1 3.552220 1_555
Er0 Gd1 3.570422 1_455
Er0 Gd1 3.570878 1_555
Er0 Er1 3.589101 1_445
Er0 Er2 3.589191 1_545
Er1 Gd0 3.523292 1_554
Er1 Gd0 3.523292 1_555
Er1 Er5 3.536901 1_565
Er1 Er5 3.536901 1_564
Er1 Er3 3.537000 1_554
Er1 Er3 3.537000 1_555
Er1 Er2 3.552003 1_555
Er1 Gd1 3.570315 1_565
Er1 Gd1 3.570946 1_555
Er1 Er2 3.589265 1_655
Er2 Gd0 3.523405 1_554
Er2 Gd0 3.523405 1_555
Er2 Er4 3.536982 1_565
Er2 Er4 3.536982 1_564
Er2 Er3 3.536996 1_455
Er2 Er3 3.536996 1_454
Er2 Gd1 3.570607 1_565
Er2 Gd1 3.570744 1_455
Er3 Gd1 3.521125 1_555
Er3 Gd1 3.521125 1_556
Er3 Er4 3.545344 1_555
Er3 Er5 3.545393 1_555
Er3 Gd0 3.570503 1_555
Er3 Gd0 3.570823 1_655
Er3 Er5 3.595836 1_565
Er3 Er4 3.595976 1_665
Er4 Gd1 3.521103 1_556
Er4 Gd1 3.521103 1_555
Er4 Er5 3.545523 1_555
Er4 Gd0 3.570370 1_555
Er4 Gd0 3.570918 1_545
Er4 Er5 3.595745 1_455
Er5 Gd1 3.520977 1_556
Er5 Gd1 3.520977 1_555
Er5 Gd0 3.570563 1_655
Er5 Gd0 3.570817 1_545
