# generated using pymatgen
data_La8Al7BO24
_symmetry_space_group_name_H-M   'P 1'
_cell_length_a   7.57488600
_cell_length_b   7.57488600
_cell_length_c   7.57488600
_cell_angle_alpha   90.00000000
_cell_angle_beta   90.00000000
_cell_angle_gamma   90.00000000
_symmetry_Int_Tables_number   1
_chemical_formula_structural   La8Al7BO24
_chemical_formula_sum   'La8 Al7 B1 O24'
_cell_volume   434.63861050
_cell_formula_units_Z   1
loop_
 _symmetry_equiv_pos_site_id
 _symmetry_equiv_pos_as_xyz
  1  'x, y, z'
loop_
 _atom_site_type_symbol
 _atom_site_label
 _atom_site_symmetry_multiplicity
 _atom_site_fract_x
 _atom_site_fract_y
 _atom_site_fract_z
 _atom_site_occupancy
  La  La0  1  0.24735300  0.24735300  0.24735300  1
  La  La1  1  0.24735300  0.24735300  0.75264700  1
  La  La2  1  0.24735300  0.75264700  0.24735300  1
  La  La3  1  0.24735300  0.75264700  0.75264700  1
  La  La4  1  0.75264700  0.24735300  0.24735300  1
  La  La5  1  0.75264700  0.24735300  0.75264700  1
  La  La6  1  0.75264700  0.75264700  0.24735300  1
  La  La7  1  0.75264700  0.75264700  0.75264700  1
  Al  Al0  1  0.00000000  0.00000000  0.50000000  1
  Al  Al1  1  0.00000000  0.50000000  0.00000000  1
  Al  Al2  1  0.00000000  0.50000000  0.50000000  1
  Al  Al3  1  0.50000000  0.00000000  0.00000000  1
  Al  Al4  1  0.50000000  0.00000000  0.50000000  1
  Al  Al5  1  0.50000000  0.50000000  0.00000000  1
  Al  Al6  1  0.50000000  0.50000000  0.50000000  1
  B  B0  1  0.00000000  0.00000000  0.00000000  1
  O  O0  1  0.00000000  0.23652300  0.00000000  1
  O  O1  1  0.00000000  0.24805400  0.50000000  1
  O  O2  1  0.00000000  0.76347700  0.00000000  1
  O  O3  1  0.00000000  0.75194600  0.50000000  1
  O  O4  1  0.50000000  0.24805400  0.00000000  1
  O  O5  1  0.50000000  0.24890100  0.50000000  1
  O  O6  1  0.50000000  0.75194600  0.00000000  1
  O  O7  1  0.50000000  0.75109900  0.50000000  1
  O  O8  1  0.00000000  0.00000000  0.23652300  1
  O  O9  1  0.00000000  0.00000000  0.76347700  1
  O  O10  1  0.00000000  0.50000000  0.24805400  1
  O  O11  1  0.00000000  0.50000000  0.75194600  1
  O  O12  1  0.50000000  0.00000000  0.24805400  1
  O  O13  1  0.50000000  0.00000000  0.75194600  1
  O  O14  1  0.50000000  0.50000000  0.24890100  1
  O  O15  1  0.50000000  0.50000000  0.75109900  1
  O  O16  1  0.23652300  0.00000000  0.00000000  1
  O  O17  1  0.24805400  0.00000000  0.50000000  1
  O  O18  1  0.24805400  0.50000000  0.00000000  1
  O  O19  1  0.24890100  0.50000000  0.50000000  1
  O  O20  1  0.76347700  0.00000000  0.00000000  1
  O  O21  1  0.75194600  0.00000000  0.50000000  1
  O  O22  1  0.75194600  0.50000000  0.00000000  1
  O  O23  1  0.75109900  0.50000000  0.50000000  1
loop_
_geom_bond_atom_site_label_1
_geom_bond_atom_site_label_2
_geom_bond_distance
_geom_bond_site_symmetry_2
La0 O8 2.651040 1_555
La0 O16 2.651040 1_555
La0 O0 2.651040 1_555
La0 O18 2.678282 1_555
La0 O10 2.678282 1_555
La0 O12 2.678282 1_555
La0 O17 2.678282 1_555
La0 O4 2.678282 1_555
La0 O1 2.678282 1_555
La0 O19 2.706508 1_555
La0 O14 2.706508 1_555
La0 O5 2.706508 1_555
La1 O9 2.651040 1_555
La1 O0 2.651040 1_556
La1 O16 2.651040 1_556
La1 O13 2.678282 1_555
La1 O17 2.678282 1_555
La1 O11 2.678282 1_555
La1 O1 2.678282 1_555
La1 O4 2.678282 1_556
La1 O18 2.678282 1_556
La1 O5 2.706508 1_555
La1 O19 2.706508 1_555
La1 O15 2.706508 1_555
La2 O2 2.651040 1_555
La2 O16 2.651040 1_565
La2 O8 2.651040 1_565
La2 O18 2.678282 1_555
La2 O6 2.678282 1_555
La2 O10 2.678282 1_555
La2 O3 2.678282 1_555
La2 O12 2.678282 1_565
La2 O17 2.678282 1_565
La2 O14 2.706508 1_555
La2 O19 2.706508 1_555
La2 O7 2.706508 1_555
La3 O2 2.651040 1_556
La3 O9 2.651040 1_565
La3 O16 2.651040 1_566
La3 O18 2.678282 1_556
La3 O3 2.678282 1_555
La3 O17 2.678282 1_565
La3 O11 2.678282 1_555
La3 O13 2.678282 1_565
La3 O6 2.678282 1_556
La3 O19 2.706508 1_555
La3 O15 2.706508 1_555
La3 O7 2.706508 1_555
La4 O20 2.651040 1_555
La4 O0 2.651040 1_655
La4 O8 2.651040 1_655
La4 O21 2.678282 1_555
La4 O22 2.678282 1_555
La4 O12 2.678282 1_555
La4 O4 2.678282 1_555
La4 O10 2.678282 1_655
La4 O1 2.678282 1_655
La4 O5 2.706508 1_555
La4 O14 2.706508 1_555
La4 O23 2.706508 1_555
La5 O20 2.651040 1_556
La5 O9 2.651040 1_655
La5 O0 2.651040 1_656
La5 O21 2.678282 1_555
La5 O13 2.678282 1_555
La5 O4 2.678282 1_556
La5 O1 2.678282 1_655
La5 O22 2.678282 1_556
La5 O11 2.678282 1_655
La5 O5 2.706508 1_555
La5 O23 2.706508 1_555
La5 O15 2.706508 1_555
La6 O20 2.651040 1_565
La6 O2 2.651040 1_655
La6 O8 2.651040 1_665
La6 O6 2.678282 1_555
La6 O22 2.678282 1_555
La6 O12 2.678282 1_565
La6 O10 2.678282 1_655
La6 O21 2.678282 1_565
La6 O3 2.678282 1_655
La6 O14 2.706508 1_555
La6 O23 2.706508 1_555
La6 O7 2.706508 1_555
La7 O2 2.651040 1_656
La7 O9 2.651040 1_665
La7 O20 2.651040 1_566
La7 O6 2.678282 1_556
La7 O11 2.678282 1_655
La7 O22 2.678282 1_556
La7 O3 2.678282 1_655
La7 O21 2.678282 1_565
La7 O13 2.678282 1_565
La7 O7 2.706508 1_555
La7 O23 2.706508 1_555
La7 O15 2.706508 1_555
Al0 O17 1.878981 1_555
Al0 O21 1.878981 1_455
Al0 O1 1.878981 1_555
Al0 O3 1.878981 1_545
Al0 O9 1.995808 1_555
Al0 O8 1.995808 1_555
Al1 O11 1.878981 1_554
Al1 O18 1.878981 1_555
Al1 O22 1.878981 1_455
Al1 O10 1.878981 1_555
Al1 O2 1.995808 1_555
Al1 O0 1.995808 1_555
Al2 O19 1.885397 1_555
Al2 O23 1.885397 1_455
Al2 O1 1.908462 1_555
Al2 O11 1.908462 1_555
Al2 O10 1.908462 1_555
Al2 O3 1.908462 1_555
Al3 O4 1.878981 1_555
Al3 O6 1.878981 1_545
Al3 O12 1.878981 1_555
Al3 O13 1.878981 1_554
Al3 O20 1.995808 1_555
Al3 O16 1.995808 1_555
Al4 O5 1.885397 1_555
Al4 O7 1.885397 1_545
Al4 O17 1.908462 1_555
Al4 O21 1.908462 1_555
Al4 O13 1.908462 1_555
Al4 O12 1.908462 1_555
Al5 O14 1.885397 1_555
Al5 O15 1.885397 1_554
Al5 O4 1.908462 1_555
Al5 O18 1.908462 1_555
Al5 O6 1.908462 1_555
Al5 O22 1.908462 1_555
Al6 O7 1.902046 1_555
Al6 O23 1.902046 1_555
Al6 O15 1.902046 1_555
Al6 O5 1.902046 1_555
Al6 O14 1.902046 1_555
Al6 O19 1.902046 1_555
B0 O0 1.791635 1_555
B0 O8 1.791635 1_555
B0 O16 1.791635 1_555
B0 O2 1.791635 1_545
B0 O20 1.791635 1_455
B0 O9 1.791635 1_554
