# generated using pymatgen
data_K2Pd3S4
_symmetry_space_group_name_H-M   'P 1'
_cell_length_a   6.10849229
_cell_length_b   6.17696408
_cell_length_c   13.26812078
_cell_angle_alpha   83.46435532
_cell_angle_beta   76.69147723
_cell_angle_gamma   60.36601835
_symmetry_Int_Tables_number   1
_chemical_formula_structural   K2Pd3S4
_chemical_formula_sum   'K4 Pd6 S8'
_cell_volume   423.46404997
_cell_formula_units_Z   2
loop_
 _symmetry_equiv_pos_site_id
 _symmetry_equiv_pos_as_xyz
  1  'x, y, z'
loop_
 _atom_site_type_symbol
 _atom_site_label
 _atom_site_symmetry_multiplicity
 _atom_site_fract_x
 _atom_site_fract_y
 _atom_site_fract_z
 _atom_site_occupancy
  K  K0  1  0.54707191  0.75000000  0.90585617  1
  K  K1  1  0.29707191  0.25000000  0.40585617  1
  K  K2  1  0.45292809  0.25000000  0.09414383  1
  K  K3  1  0.70292809  0.75000000  0.59414383  1
  Pd  Pd0  1  0.37408468  0.75000000  0.25183064  1
  Pd  Pd1  1  0.12408468  0.25000000  0.75183064  1
  Pd  Pd2  1  0.62591532  0.25000000  0.74816936  1
  Pd  Pd3  1  0.12500000  0.75000000  0.75000000  1
  Pd  Pd4  1  0.87500000  0.25000000  0.25000000  1
  Pd  Pd5  1  0.87591532  0.75000000  0.24816936  1
  S  S0  1  0.89349480  0.08159500  0.86970860  1
  S  S1  1  0.76320241  0.58159500  0.13029140  1
  S  S2  1  0.97508880  0.91840500  0.36970860  1
  S  S3  1  0.65520260  0.58159500  0.36970860  1
  S  S4  1  0.34479740  0.41840500  0.63029140  1
  S  S5  1  0.02491120  0.08159500  0.63029140  1
  S  S6  1  0.23679759  0.41840500  0.86970860  1
  S  S7  1  0.10650520  0.91840500  0.13029140  1
loop_
_geom_bond_atom_site_label_1
_geom_bond_atom_site_label_2
_geom_bond_distance
_geom_bond_site_symmetry_2
K0 S1 3.382203 1_556
K0 S7 3.382205 1_556
K0 S6 3.535351 1_555
K0 S0 3.535356 1_565
K0 S0 3.596605 1_465
K0 S6 3.596610 1_655
K0 S0 3.619085 1_555
K0 S6 3.619085 1_565
K0 Pd3 3.657609 1_655
K0 Pd3 3.657610 1_555
K0 Pd1 3.673395 1_655
K0 Pd1 3.673396 1_565
K0 Pd2 3.699203 1_555
K0 Pd2 3.699203 1_565
K1 S5 3.382202 1_555
K1 S4 3.382203 1_555
K1 S2 3.535351 1_545
K1 S3 3.535351 1_455
K1 S3 3.596610 1_555
K1 S2 3.596610 1_445
K1 S3 3.619085 1_545
K1 S2 3.619085 1_455
K1 Pd4 3.657609 1_555
K1 Pd4 3.657610 1_455
K1 Pd0 3.673396 1_545
K1 Pd0 3.673396 1_555
K1 Pd5 3.699203 1_545
K1 Pd5 3.699203 1_455
K2 S6 3.382203 1_554
K2 S0 3.382205 1_554
K2 S1 3.535351 1_555
K2 S7 3.535356 1_545
K2 S7 3.596605 1_645
K2 S1 3.596610 1_455
K2 S7 3.619085 1_555
K2 S1 3.619085 1_545
K2 Pd4 3.657609 1_455
K2 Pd4 3.657610 1_555
K2 Pd5 3.673395 1_455
K2 Pd5 3.673396 1_545
K2 Pd0 3.699203 1_555
K2 Pd0 3.699203 1_545
K3 S2 3.382202 1_555
K3 S3 3.382203 1_555
K3 S5 3.535351 1_565
K3 S4 3.535351 1_655
K3 S4 3.596610 1_555
K3 S5 3.596610 1_665
K3 S4 3.619085 1_565
K3 S5 3.619085 1_655
K3 Pd3 3.657609 1_555
K3 Pd3 3.657610 1_655
K3 Pd2 3.673396 1_565
K3 Pd2 3.673396 1_555
K3 Pd1 3.699203 1_565
K3 Pd1 3.699203 1_655
Pd0 S1 2.346136 1_555
Pd0 S7 2.346141 1_555
Pd0 S2 2.361497 1_455
Pd0 S3 2.361497 1_555
Pd1 S4 2.346137 1_555
Pd1 S5 2.346137 1_555
Pd1 S0 2.361493 1_455
Pd1 S6 2.361497 1_555
Pd2 S6 2.346136 1_555
Pd2 S0 2.346141 1_555
Pd2 S5 2.361497 1_655
Pd2 S4 2.361497 1_555
Pd3 S0 2.357953 1_465
Pd3 S4 2.357953 1_555
Pd3 S5 2.357954 1_565
Pd3 S6 2.357954 1_555
Pd4 S7 2.357953 1_645
Pd4 S3 2.357953 1_555
Pd4 S2 2.357954 1_545
Pd4 S1 2.357954 1_555
Pd5 S3 2.346137 1_555
Pd5 S2 2.346137 1_555
Pd5 S7 2.361493 1_655
Pd5 S1 2.361497 1_555
