# generated using pymatgen
data_AgBiS2
_symmetry_space_group_name_H-M   'P 1'
_cell_length_a   4.03483000
_cell_length_b   4.03483000
_cell_length_c   5.55666100
_cell_angle_alpha   90.00000000
_cell_angle_beta   90.00000000
_cell_angle_gamma   90.00000000
_symmetry_Int_Tables_number   1
_chemical_formula_structural   AgBiS2
_chemical_formula_sum   'Ag1 Bi1 S2'
_cell_volume   90.46162497
_cell_formula_units_Z   1
loop_
 _symmetry_equiv_pos_site_id
 _symmetry_equiv_pos_as_xyz
  1  'x, y, z'
loop_
 _atom_site_type_symbol
 _atom_site_label
 _atom_site_symmetry_multiplicity
 _atom_site_fract_x
 _atom_site_fract_y
 _atom_site_fract_z
 _atom_site_occupancy
  Ag  Ag0  1  0.50000000  0.50000000  0.00000000  1
  Bi  Bi0  1  0.00000000  0.00000000  0.50000000  1
  S  S0  1  0.00000000  0.00000000  0.00000000  1
  S  S1  1  0.50000000  0.50000000  0.50000000  1
loop_
_geom_bond_atom_site_label_1
_geom_bond_atom_site_label_2
_geom_bond_distance
_geom_bond_site_symmetry_2
Ag0 S1 2.778331 1_555
Ag0 S1 2.778331 1_554
Ag0 S0 2.853056 1_555
Ag0 S0 2.853056 1_655
Ag0 S0 2.853056 1_565
Ag0 S0 2.853056 1_665
Bi0 S0 2.778331 1_556
Bi0 S0 2.778331 1_555
Bi0 S1 2.853056 1_555
Bi0 S1 2.853056 1_545
Bi0 S1 2.853056 1_445
Bi0 S1 2.853056 1_455
