# generated using pymatgen
data_Li6PS5I
_symmetry_space_group_name_H-M   'P 1'
_cell_length_a   7.29061802
_cell_length_b   7.29061802
_cell_length_c   12.39791184
_cell_angle_alpha   73.21110845
_cell_angle_beta   73.21110845
_cell_angle_gamma   60.01252315
_symmetry_Int_Tables_number   1
_chemical_formula_structural   Li6PS5I
_chemical_formula_sum   'Li12 P2 S10 I2'
_cell_volume   538.08487503
_cell_formula_units_Z   2
loop_
 _symmetry_equiv_pos_site_id
 _symmetry_equiv_pos_as_xyz
  1  'x, y, z'
loop_
 _atom_site_type_symbol
 _atom_site_label
 _atom_site_symmetry_multiplicity
 _atom_site_fract_x
 _atom_site_fract_y
 _atom_site_fract_z
 _atom_site_occupancy
  Li  Li0  1  0.05341400  0.97812900  0.63409300  1
  Li  Li1  1  0.97812900  0.05341400  0.13409300  1
  Li  Li2  1  0.58097500  0.44802100  0.15324800  1
  Li  Li3  1  0.44802100  0.58097500  0.65324800  1
  Li  Li4  1  0.66959800  0.71370100  0.88933700  1
  Li  Li5  1  0.71370100  0.66959800  0.38933700  1
  Li  Li6  1  0.54855000  0.02886300  0.55864800  1
  Li  Li7  1  0.02886300  0.54855000  0.05864800  1
  Li  Li8  1  0.72434400  0.29277100  0.88859500  1
  Li  Li9  1  0.29277100  0.72434400  0.38859500  1
  Li  Li10  1  0.22512800  0.21168100  0.38143900  1
  Li  Li11  1  0.21168100  0.22512800  0.88143900  1
  P  P0  1  0.50738700  0.99789200  0.12092100  1
  P  P1  1  0.99789200  0.50738700  0.62092100  1
  S  S0  1  0.82615400  0.79369800  0.68170300  1
  S  S1  1  0.79369800  0.82615400  0.18170300  1
  S  S2  1  0.32965600  0.29200000  0.17458000  1
  S  S3  1  0.29200000  0.32965600  0.67458000  1
  S  S4  1  0.56331400  0.05204000  0.94459500  1
  S  S5  1  0.05204000  0.56331400  0.44459500  1
  S  S6  1  0.87629700  0.37718900  0.99895600  1
  S  S7  1  0.37718900  0.87629700  0.49895600  1
  S  S8  1  0.82158400  0.33807300  0.67915800  1
  S  S9  1  0.33807300  0.82158400  0.17915800  1
  I  I0  1  0.26761600  0.74192400  0.86712900  1
  I  I1  1  0.74192400  0.26761600  0.36712900  1
loop_
_geom_bond_atom_site_label_1
_geom_bond_atom_site_label_2
_geom_bond_distance
_geom_bond_site_symmetry_2
Li0 S7 2.369031 1_555
Li0 S8 2.433747 1_465
Li0 S0 2.470857 1_455
Li1 S6 2.369031 1_554
Li1 S9 2.433747 1_645
Li1 S1 2.470857 1_545
Li2 S6 2.375191 1_554
Li2 S9 2.452001 1_555
Li2 S2 2.520062 1_555
Li3 S7 2.375191 1_555
Li3 S8 2.452001 1_555
Li3 S3 2.520062 1_555
Li4 S6 2.387096 1_555
Li4 S4 2.431726 1_565
Li4 S0 2.523948 1_555
Li5 S7 2.387096 1_555
Li5 S5 2.431726 1_655
Li5 S1 2.523948 1_555
Li6 S7 2.396763 1_545
Li6 S0 2.483395 1_545
Li6 S3 2.557546 1_555
Li7 S6 2.396763 1_454
Li7 S1 2.483395 1_455
Li7 S2 2.557546 1_555
Li8 S6 2.349867 1_555
Li8 S4 2.413610 1_555
Li8 S8 2.455427 1_555
Li9 S7 2.349867 1_555
Li9 S5 2.413610 1_555
Li9 S9 2.455427 1_555
Li10 S7 2.344338 1_545
Li10 S2 2.439341 1_555
Li10 S5 2.476416 1_555
Li11 S6 2.344338 1_455
Li11 S3 2.439341 1_555
Li11 S4 2.476416 1_555
P0 S9 2.057274 1_555
P0 S1 2.060048 1_555
P0 S4 2.061176 1_564
P0 S2 2.065916 1_565
P1 S8 2.057274 1_555
P1 S0 2.060048 1_555
P1 S5 2.061176 1_655
P1 S3 2.065916 1_655
I0 Li3 2.894506 1_555
I0 Li4 2.921943 1_555
I0 Li7 2.964289 1_556
I0 Li0 3.285661 1_555
I0 Li8 3.315172 1_555
I0 Li11 3.389908 1_565
I1 Li2 2.894506 1_555
I1 Li5 2.921943 1_555
I1 Li6 2.964289 1_555
I1 Li1 3.285661 1_555
I1 Li9 3.315172 1_555
I1 Li10 3.389908 1_655
