# generated using pymatgen
data_SnGe3
_symmetry_space_group_name_H-M   'P 1'
_cell_length_a   5.41495682
_cell_length_b   5.41495682
_cell_length_c   5.41495682
_cell_angle_alpha   132.47350158
_cell_angle_beta   132.47350158
_cell_angle_gamma   69.48220289
_symmetry_Int_Tables_number   1
_chemical_formula_structural   SnGe3
_chemical_formula_sum   'Sn1 Ge3'
_cell_volume   84.74172551
_cell_formula_units_Z   1
loop_
 _symmetry_equiv_pos_site_id
 _symmetry_equiv_pos_as_xyz
  1  'x, y, z'
loop_
 _atom_site_type_symbol
 _atom_site_label
 _atom_site_symmetry_multiplicity
 _atom_site_fract_x
 _atom_site_fract_y
 _atom_site_fract_z
 _atom_site_occupancy
  Sn  Sn0  1  0.00000000  0.00000000  0.00000000  1
  Ge  Ge0  1  0.75000000  0.25000000  0.50000000  1
  Ge  Ge1  1  0.25000000  0.75000000  0.50000000  1
  Ge  Ge2  1  0.50000000  0.50000000  0.00000000  1
loop_
_geom_bond_atom_site_label_1
_geom_bond_atom_site_label_2
_geom_bond_distance
_geom_bond_site_symmetry_2
Ge0 Ge1 3.085817 1_656
Ge0 Ge1 3.085817 1_555
Ge0 Ge1 3.085817 1_645
Ge0 Ge1 3.085817 1_544
Ge0 Sn0 3.116249 1_555
Ge0 Ge2 3.116249 1_656
Ge0 Sn0 3.116249 1_666
Ge0 Ge2 3.116249 1_555
Ge0 Ge2 3.116249 1_556
Ge0 Sn0 3.116249 1_655
Ge0 Sn0 3.116249 1_656
Ge0 Ge2 3.116249 1_545
Ge1 Ge2 3.116249 1_455
Ge1 Sn0 3.116249 1_666
Ge1 Sn0 3.116249 1_566
Ge1 Ge2 3.116249 1_555
Ge1 Sn0 3.116249 1_565
Ge1 Ge2 3.116249 1_556
Ge1 Ge2 3.116249 1_566
Ge1 Sn0 3.116249 1_555
Ge2 Sn0 3.085817 1_554
Ge2 Sn0 3.085817 1_655
Ge2 Sn0 3.085817 1_666
Ge2 Sn0 3.085817 1_565
