# generated using pymatgen
data_ZnCu2SiS4
_symmetry_space_group_name_H-M   'P 1'
_cell_length_a   7.28501161
_cell_length_b   6.39640144
_cell_length_c   6.10021271
_cell_angle_alpha   90.00001293
_cell_angle_beta   89.99996632
_cell_angle_gamma   89.99992001
_symmetry_Int_Tables_number   1
_chemical_formula_structural   ZnCu2SiS4
_chemical_formula_sum   'Zn2 Cu4 Si2 S8'
_cell_volume   284.25685022
_cell_formula_units_Z   2
loop_
 _symmetry_equiv_pos_site_id
 _symmetry_equiv_pos_as_xyz
  1  'x, y, z'
loop_
 _atom_site_type_symbol
 _atom_site_label
 _atom_site_symmetry_multiplicity
 _atom_site_fract_x
 _atom_site_fract_y
 _atom_site_fract_z
 _atom_site_occupancy
  Zn  Zn0  1  0.50000027  0.65029418  0.34366827  1
  Zn  Zn1  1  0.00000020  0.34970615  0.84366829  1
  Cu  Cu0  1  0.24724283  0.17202433  0.33370600  1
  Cu  Cu1  1  0.75275793  0.17202525  0.33370555  1
  Cu  Cu2  1  0.25275725  0.82797566  0.83370638  1
  Cu  Cu3  1  0.74724226  0.82797483  0.83370528  1
  Si  Si0  1  0.00000038  0.67047860  0.34514654  1
  Si  Si1  1  0.50000028  0.32952123  0.84514653  1
  S  S0  1  -0.00000002  0.35582282  0.46130232  1
  S  S1  1  0.23760212  0.83412433  0.46306874  1
  S  S2  1  0.76239846  0.83412440  0.46306889  1
  S  S3  1  0.50000000  0.31911129  0.49423371  1
  S  S4  1  0.49999972  0.64417712  0.96130233  1
  S  S5  1  0.26239830  0.16587566  0.96306893  1
  S  S6  1  0.73760209  0.16587531  0.96306849  1
  S  S7  1  -0.00000008  0.68088886  0.99423374  1
loop_
_geom_bond_atom_site_label_1
_geom_bond_atom_site_label_2
_geom_bond_distance
_geom_bond_site_symmetry_2
Cu0 S5 2.264001 1_554
Cu0 S0 2.287400 1_555
Cu0 S3 2.287931 1_555
Cu0 S1 2.301974 1_545
Cu1 S6 2.264001 1_554
Cu1 S0 2.287396 1_655
Cu1 S3 2.287931 1_555
Cu1 S2 2.301980 1_545
Cu2 S1 2.264004 1_555
Cu2 S4 2.287398 1_555
Cu2 S7 2.287930 1_555
Cu2 S5 2.301973 1_565
Cu3 S2 2.263997 1_555
Cu3 S4 2.287399 1_555
Cu3 S7 2.287931 1_655
Cu3 S6 2.301977 1_565
S0 Si0 2.133752 1_555
S0 Zn1 2.332842 1_555
S1 Si0 2.146920 1_555
S1 Zn0 2.359503 1_555
S2 Si0 2.146919 1_655
S2 Zn0 2.359507 1_555
S3 Si1 2.141678 1_555
S3 Zn0 2.308926 1_555
S4 Si1 2.133753 1_555
S4 Zn0 2.332842 1_556
S5 Si1 2.146921 1_555
S5 Zn1 2.359504 1_555
S6 Si1 2.146919 1_555
S6 Zn1 2.359507 1_655
S7 Si0 2.141678 1_556
S7 Zn1 2.308924 1_555
