# generated using pymatgen
data_Mg3(Mo3Se4)4
_symmetry_space_group_name_H-M   'P 1'
_cell_length_a   13.86824100
_cell_length_b   6.99164747
_cell_length_c   6.94977658
_cell_angle_alpha   93.11872634
_cell_angle_beta   95.24694666
_cell_angle_gamma   94.30119305
_symmetry_Int_Tables_number   1
_chemical_formula_structural   Mg3(Mo3Se4)4
_chemical_formula_sum   'Mg3 Mo12 Se16'
_cell_volume   667.87494420
_cell_formula_units_Z   1
loop_
 _symmetry_equiv_pos_site_id
 _symmetry_equiv_pos_as_xyz
  1  'x, y, z'
loop_
 _atom_site_type_symbol
 _atom_site_label
 _atom_site_symmetry_multiplicity
 _atom_site_fract_x
 _atom_site_fract_y
 _atom_site_fract_z
 _atom_site_occupancy
  Mg  Mg0  1  0.04768600  0.31989800  0.95636000  1
  Mg  Mg1  1  0.95143600  0.67854000  0.04459000  1
  Mg  Mg2  1  0.59417700  0.98954700  0.02631100  1
  Mo  Mo0  1  0.41663100  0.12053400  0.54299000  1
  Mo  Mo1  1  0.76221300  0.23098400  0.58002400  1
  Mo  Mo2  1  0.54827700  0.20835000  0.24306900  1
  Mo  Mo3  1  0.45239900  0.29415700  0.75500100  1
  Mo  Mo4  1  0.24313600  0.27129900  0.41215800  1
  Mo  Mo5  1  0.58785700  0.38214300  0.45421500  1
  Mo  Mo6  1  0.41213000  0.61800700  0.54589000  1
  Mo  Mo7  1  0.75391300  0.72732500  0.58506600  1
  Mo  Mo8  1  0.54511700  0.70614800  0.24184200  1
  Mo  Mo9  1  0.45245500  0.79206100  0.76045900  1
  Mo  Mo10  1  0.24180100  0.77062400  0.42300100  1
  Mo  Mo11  1  0.58289600  0.87934800  0.45638400  1
  Se  Se0  1  0.72572800  0.06413100  0.37828600  1
  Se  Se1  1  0.62963800  0.14900000  0.86949300  1
  Se  Se2  1  0.21871000  0.10381600  0.21929900  1
  Se  Se3  1  0.11979800  0.17994100  0.71113300  1
  Se  Se4  1  0.87874000  0.31742100  0.28209900  1
  Se  Se5  1  0.77688900  0.40216800  0.78295600  1
  Se  Se6  1  0.39079800  0.36254900  0.12673900  1
  Se  Se7  1  0.27487800  0.43301400  0.62461800  1
  Se  Se8  1  0.72149600  0.56648300  0.37064800  1
  Se  Se9  1  0.60768400  0.63704800  0.87382200  1
  Se  Se10  1  0.22361400  0.59753900  0.21724200  1
  Se  Se11  1  0.12197800  0.68273000  0.71914600  1
  Se  Se12  1  0.87967000  0.81922800  0.28758800  1
  Se  Se13  1  0.79271100  0.89709800  0.77504500  1
  Se  Se14  1  0.36223900  0.85221700  0.12731800  1
  Se  Se15  1  0.28530500  0.93565400  0.63220600  1
loop_
_geom_bond_atom_site_label_1
_geom_bond_atom_site_label_2
_geom_bond_distance
_geom_bond_site_symmetry_2
Mg0 Se3 2.266992 1_555
Mg0 Se11 3.253972 1_555
Mg0 Se4 3.403381 1_456
Mg1 Se12 2.254684 1_555
Mg1 Se4 3.239091 1_555
Mg1 Se11 3.418392 1_654
Mg2 Se1 1.679429 1_564
Mg2 Mo2 2.255097 1_565
Mg2 Mo8 2.634344 1_555
Mg2 Se9 2.655852 1_554
Mg2 Mo9 2.798976 1_554
Mo0 Mo3 1.863333 1_555
Mo0 Se15 2.304973 1_545
Mo0 Se14 3.351585 1_545
Mo1 Se0 1.785039 1_555
Mo1 Se5 1.786120 1_555
Mo1 Se4 2.804534 1_555
Mo2 Mo5 1.868073 1_555
Mo2 Se6 2.590498 1_555
Mo3 Se1 2.794494 1_555
Mo3 Se7 2.805495 1_555
Mo3 Se6 2.821958 1_556
Mo3 Se9 3.122806 1_555
Mo4 Se2 1.723109 1_555
Mo4 Se7 1.810294 1_555
Mo5 Se8 2.313716 1_555
Mo6 Mo9 1.888196 1_555
Mo6 Se7 2.343834 1_555
Mo7 Se13 1.745114 1_555
Mo7 Se8 1.818404 1_555
Mo8 Se8 2.791240 1_555
Mo8 Se9 2.803967 1_554
Mo8 Se14 2.866447 1_555
Mo8 Se6 3.114133 1_555
Mo9 Se9 2.561707 1_555
Mo9 Se15 2.691546 1_555
Mo9 Se14 2.964509 1_556
Mo10 Se10 1.809108 1_555
Mo10 Se15 1.833532 1_555
Mo10 Se14 2.819635 1_555
Mo10 Se11 2.825759 1_555
Mo11 Mo8 1.878707 1_555
Mo11 Se0 2.403425 1_565
Se0 Se4 2.812559 1_555
Se4 Se8 2.977400 1_555
Se10 Se14 2.661666 1_555
Se11 Se15 2.896274 1_555
Se11 Se7 2.943036 1_555
Se14 Se2 2.846171 1_565
