# generated using pymatgen
data_KBaSiHO4
_symmetry_space_group_name_H-M   'P 1'
_cell_length_a   8.13168100
_cell_length_b   5.88279700
_cell_length_c   6.04443954
_cell_angle_alpha   61.67597348
_cell_angle_beta   90.00000000
_cell_angle_gamma   90.00000000
_symmetry_Int_Tables_number   1
_chemical_formula_structural   KBaSiHO4
_chemical_formula_sum   'K2 Ba2 Si2 H2 O8'
_cell_volume   254.53078336
_cell_formula_units_Z   2
loop_
 _symmetry_equiv_pos_site_id
 _symmetry_equiv_pos_as_xyz
  1  'x, y, z'
loop_
 _atom_site_type_symbol
 _atom_site_label
 _atom_site_symmetry_multiplicity
 _atom_site_fract_x
 _atom_site_fract_y
 _atom_site_fract_z
 _atom_site_occupancy
  K  K0  1  0.23090600  0.36977200  0.29667400  1
  K  K1  1  0.73090600  0.63022800  0.70332600  1
  Ba  Ba0  1  0.48303600  0.01386900  0.99335300  1
  Ba  Ba1  1  0.98303600  0.98613100  0.00664700  1
  Si  Si0  1  0.24545100  0.70106800  0.62130100  1
  Si  Si1  1  0.74545100  0.29893200  0.37869900  1
  H  H0  1  0.00979200  0.51346000  0.53861800  1
  H  H1  1  0.50979200  0.48654000  0.46138200  1
  O  O0  1  0.23891500  0.83735700  0.80179000  1
  O  O1  1  0.73891500  0.16264300  0.19821000  1
  O  O2  1  0.23650700  0.90641300  0.31980200  1
  O  O3  1  0.73650700  0.09358700  0.68019800  1
  O  O4  1  0.40216600  0.50179500  0.68296500  1
  O  O5  1  0.90216600  0.49820500  0.31703500  1
  O  O6  1  0.07022500  0.51246200  0.68748400  1
  O  O7  1  0.57022500  0.48753800  0.31251600  1
loop_
_geom_bond_atom_site_label_1
_geom_bond_atom_site_label_2
_geom_bond_distance
_geom_bond_site_symmetry_2
K0 O2 2.662755 1_545
K0 O5 2.796476 1_455
K0 O7 2.857526 1_555
K0 O0 2.951380 1_554
K0 O4 3.116930 1_555
K0 O0 3.172019 1_545
K0 O2 3.225947 1_555
K1 O3 2.662755 1_565
K1 O4 2.796476 1_555
K1 O6 2.857526 1_655
K1 O1 2.951380 1_556
K1 O5 3.116930 1_555
K1 O1 3.172019 1_565
K1 O3 3.225947 1_555
Ba0 O4 2.661061 1_555
Ba0 O2 2.669889 1_546
Ba0 O3 2.684918 1_555
Ba0 O0 2.738712 1_545
Ba0 O1 2.767132 1_556
Ba0 O7 2.853644 1_546
Ba1 O5 2.661061 1_555
Ba1 O3 2.669889 1_564
Ba1 O2 2.684918 1_655
Ba1 O1 2.738712 1_565
Ba1 O0 2.767132 1_654
Ba1 O6 2.853644 1_664
H0 O6 1.022828 1_555
H0 O5 1.637649 1_455
H0 K1 2.693498 1_455
H0 K0 2.694270 1_555
H1 O7 1.022828 1_555
H1 O4 1.637649 1_555
H1 K0 2.693498 1_555
H1 K1 2.694270 1_555
O0 Si0 1.632736 1_555
O1 Si1 1.632736 1_555
O2 Si0 1.642158 1_555
O3 Si1 1.642158 1_555
O4 Si0 1.650011 1_555
O5 Si1 1.650011 1_555
O6 Si0 1.732108 1_555
O7 Si1 1.732108 1_555
