# generated using pymatgen
data_Ho3ReB7
_symmetry_space_group_name_H-M   'P 1'
_cell_length_a   8.04768507
_cell_length_b   8.04768419
_cell_length_c   9.31680349
_cell_angle_alpha   90.00000778
_cell_angle_beta   89.99998095
_cell_angle_gamma   154.77536577
_symmetry_Int_Tables_number   1
_chemical_formula_structural   Ho3ReB7
_chemical_formula_sum   'Ho6 Re2 B14'
_cell_volume   257.15202963
_cell_formula_units_Z   2
loop_
 _symmetry_equiv_pos_site_id
 _symmetry_equiv_pos_as_xyz
  1  'x, y, z'
loop_
 _atom_site_type_symbol
 _atom_site_label
 _atom_site_symmetry_multiplicity
 _atom_site_fract_x
 _atom_site_fract_y
 _atom_site_fract_z
 _atom_site_occupancy
  Ho  Ho0  1  0.89482202  0.10517894  0.05963026  1
  Ho  Ho1  1  0.10516483  0.89483572  0.55971289  1
  Ho  Ho2  1  0.10516458  0.89483552  0.94028721  1
  Ho  Ho3  1  0.89482241  0.10517929  0.44036978  1
  Ho  Ho4  1  0.24223233  0.75776825  0.24999985  1
  Ho  Ho5  1  0.75779541  0.24220367  0.74999998  1
  Re  Re0  1  0.05326675  0.94675303  0.24999915  1
  Re  Re1  1  0.94676935  0.05323014  0.75000256  1
  B  B0  1  0.45590640  0.54409054  0.24999999  1
  B  B1  1  0.54405466  0.45594509  0.74999987  1
  B  B2  1  0.72742386  0.27257642  0.03430463  1
  B  B3  1  0.27258330  0.72741548  0.53433537  1
  B  B4  1  0.27258320  0.72741554  0.96566457  1
  B  B5  1  0.72742377  0.27257644  0.46569523  1
  B  B6  1  0.63219372  0.36780280  0.34989253  1
  B  B7  1  0.36782046  0.63217859  0.84985847  1
  B  B8  1  0.36782008  0.63217905  0.65014124  1
  B  B9  1  0.63219342  0.36780285  0.15010757  1
  B  B10  1  0.52026229  0.47973377  0.40477290  1
  B  B11  1  0.47971673  0.52028323  0.90472564  1
  B  B12  1  0.47971704  0.52028297  0.59527349  1
  B  B13  1  0.52026237  0.47973364  0.09522784  1
loop_
_geom_bond_atom_site_label_1
_geom_bond_atom_site_label_2
_geom_bond_distance
_geom_bond_site_symmetry_2
B0 B13 1.761000 1_555
B0 B10 1.761005 1_555
B0 Re0 2.329325 1_545
B0 Re0 2.329386 1_655
B0 Ho3 2.674742 1_455
B0 Ho0 2.674744 1_455
B0 Ho0 2.674752 1_565
B0 Ho3 2.674754 1_565
B0 Ho4 3.356204 1_555
B1 B11 1.760480 1_555
B1 B12 1.760482 1_555
B1 Re1 2.328698 1_565
B1 Re1 2.328699 1_455
B1 Ho1 2.674368 1_545
B1 Ho1 2.674369 1_655
B1 Ho2 2.674370 1_545
B1 Ho2 2.674372 1_655
B1 Ho5 3.357228 1_555
B2 B9 1.844268 1_555
B2 B4 1.999996 1_654
B2 B4 2.000001 1_544
B2 Ho0 2.639881 1_555
B2 Ho4 2.679632 1_545
B2 Ho4 2.679634 1_655
B2 Ho5 2.691427 1_554
B2 Ho2 2.746414 1_654
B2 Ho2 2.746416 1_544
B3 B8 1.844389 1_555
B3 B5 1.999998 1_455
B3 B5 2.000002 1_565
B3 Ho1 2.640261 1_555
B3 Ho5 2.679390 1_455
B3 Ho5 2.679392 1_565
B3 Ho4 2.691654 1_555
B3 Ho3 2.746021 1_455
B3 Ho3 2.746028 1_565
B4 B7 1.844396 1_555
B4 Ho2 2.640260 1_555
B4 Ho5 2.679391 1_565
B4 Ho5 2.679391 1_455
B4 Ho4 2.691651 1_556
B4 Ho0 2.746022 1_456
B4 Ho0 2.746029 1_566
B5 B6 1.844265 1_555
B5 Ho3 2.639882 1_555
B5 Ho4 2.679634 1_655
B5 Ho4 2.679634 1_545
B5 Ho5 2.691428 1_555
B5 Ho1 2.746414 1_545
B5 Ho1 2.746415 1_655
B6 B9 1.861357 1_555
B6 Re0 2.343339 1_545
B6 Re0 2.343399 1_655
B6 Ho4 2.634614 1_545
B6 Ho4 2.634623 1_655
B6 Ho1 2.662625 1_545
B6 Ho1 2.662636 1_655
B7 B8 1.860726 1_555
B7 Re1 2.343314 1_455
B7 Re1 2.343315 1_565
B7 Ho5 2.634387 1_565
B7 Ho5 2.634388 1_455
B7 Ho0 2.662220 1_456
B7 Ho0 2.662225 1_566
B8 Re1 2.343337 1_455
B8 Re1 2.343339 1_565
B8 Ho5 2.634384 1_565
B8 Ho5 2.634384 1_455
B8 Ho3 2.662219 1_455
B8 Ho3 2.662224 1_565
B9 Re0 2.343330 1_545
B9 Re0 2.343392 1_655
B9 Ho4 2.634614 1_545
B9 Ho4 2.634625 1_655
B9 Ho2 2.662626 1_544
B9 Ho2 2.662634 1_654
B10 B6 1.830945 1_555
B10 B12 1.885663 1_555
B10 Re0 2.331445 1_545
B10 Re0 2.331507 1_655
B10 Ho1 2.636279 1_545
B10 Ho1 2.636291 1_655
B10 Ho3 2.660831 1_455
B10 Ho3 2.660844 1_565
B11 B7 1.830377 1_555
B11 B13 1.885679 1_556
B11 Re1 2.331024 1_565
B11 Re1 2.331027 1_455
B11 Ho0 2.636063 1_456
B11 Ho0 2.636065 1_566
B11 Ho2 2.660855 1_545
B11 Ho2 2.660857 1_655
B12 B8 1.830389 1_555
B12 Re1 2.331060 1_565
B12 Re1 2.331061 1_455
B12 Ho3 2.636061 1_455
B12 Ho3 2.636063 1_565
B12 Ho1 2.660851 1_545
B12 Ho1 2.660853 1_655
B13 B9 1.830939 1_555
B13 Re0 2.331429 1_545
B13 Re0 2.331494 1_655
B13 Ho2 2.636283 1_544
B13 Ho2 2.636292 1_654
B13 Ho0 2.660835 1_455
B13 Ho0 2.660845 1_565
