# generated using pymatgen
data_MgPa3
_symmetry_space_group_name_H-M   'P 1'
_cell_length_a   5.61502658
_cell_length_b   5.61502658
_cell_length_c   5.61502658
_cell_angle_alpha   131.81219280
_cell_angle_beta   131.81219280
_cell_angle_gamma   70.52581016
_symmetry_Int_Tables_number   1
_chemical_formula_structural   MgPa3
_chemical_formula_sum   'Mg1 Pa3'
_cell_volume   96.35953318
_cell_formula_units_Z   1
loop_
 _symmetry_equiv_pos_site_id
 _symmetry_equiv_pos_as_xyz
  1  'x, y, z'
loop_
 _atom_site_type_symbol
 _atom_site_label
 _atom_site_symmetry_multiplicity
 _atom_site_fract_x
 _atom_site_fract_y
 _atom_site_fract_z
 _atom_site_occupancy
  Mg  Mg0  1  0.00000000  0.00000000  0.00000000  1
  Pa  Pa0  1  0.50000000  0.50000000  0.00000000  1
  Pa  Pa1  1  0.75000000  0.25000000  0.50000000  1
  Pa  Pa2  1  0.25000000  0.75000000  0.50000000  1
loop_
_geom_bond_atom_site_label_1
_geom_bond_atom_site_label_2
_geom_bond_distance
_geom_bond_site_symmetry_2
Mg0 Pa0 3.241718 1_545
Mg0 Pa0 3.241718 1_556
Mg0 Pa0 3.241718 1_455
Mg0 Pa0 3.241718 1_444
Mg0 Pa2 3.241807 1_555
Mg0 Pa1 3.241807 1_455
Mg0 Pa2 3.241807 1_545
Mg0 Pa1 3.241807 1_444
Mg0 Pa1 3.241807 1_555
Mg0 Pa1 3.241807 1_454
Mg0 Pa2 3.241807 1_444
Mg0 Pa2 3.241807 1_544
Pa0 Pa2 3.241807 1_555
Pa0 Pa2 3.241807 1_554
Pa0 Pa1 3.241807 1_555
Pa0 Pa1 3.241807 1_565
Pa0 Pa1 3.241807 1_454
Pa0 Pa2 3.241807 1_655
Pa0 Pa2 3.241807 1_544
Pa0 Pa1 3.241807 1_554
Pa1 Pa2 3.241718 1_555
Pa1 Pa2 3.241718 1_656
Pa1 Pa2 3.241718 1_645
Pa1 Pa2 3.241718 1_544
