# generated using pymatgen
data_RbBS3
_symmetry_space_group_name_H-M   'P 1'
_cell_length_a   5.83285796
_cell_length_b   7.12564559
_cell_length_c   11.91701952
_cell_angle_alpha   90.00000000
_cell_angle_beta   90.00000000
_cell_angle_gamma   104.68403451
_symmetry_Int_Tables_number   1
_chemical_formula_structural   RbBS3
_chemical_formula_sum   'Rb4 B4 S12'
_cell_volume   479.12817399
_cell_formula_units_Z   4
loop_
 _symmetry_equiv_pos_site_id
 _symmetry_equiv_pos_as_xyz
  1  'x, y, z'
loop_
 _atom_site_type_symbol
 _atom_site_label
 _atom_site_symmetry_multiplicity
 _atom_site_fract_x
 _atom_site_fract_y
 _atom_site_fract_z
 _atom_site_occupancy
  Rb  Rb0  1  0.70236865  0.25926004  0.08048839  1
  Rb  Rb1  1  0.79763135  0.74073996  0.58048839  1
  Rb  Rb2  1  0.29763135  0.74073996  0.91951161  1
  Rb  Rb3  1  0.20236865  0.25926004  0.41951161  1
  B  B0  1  0.69052518  0.71078149  0.23181548  1
  B  B1  1  0.80947482  0.28921851  0.73181548  1
  B  B2  1  0.30947482  0.28921851  0.76818452  1
  B  B3  1  0.19052518  0.71078149  0.26818452  1
  S  S0  1  0.17285007  0.93531770  0.17708017  1
  S  S1  1  0.32714993  0.06468230  0.67708017  1
  S  S2  1  0.82714993  0.06468230  0.82291983  1
  S  S3  1  0.67285007  0.93531770  0.32291983  1
  S  S4  1  0.35414931  0.81236796  0.40257835  1
  S  S5  1  0.14585069  0.18763204  0.90257835  1
  S  S6  1  0.64585069  0.18763204  0.59742165  1
  S  S7  1  0.85414931  0.81236796  0.09742165  1
  S  S8  1  0.38116980  0.55859858  0.19614309  1
  S  S9  1  0.11883020  0.44140142  0.69614309  1
  S  S10  1  0.61883020  0.44140142  0.80385691  1
  S  S11  1  0.88116980  0.55859858  0.30385691  1
loop_
_geom_bond_atom_site_label_1
_geom_bond_atom_site_label_2
_geom_bond_distance
_geom_bond_site_symmetry_2
Rb0 S11 3.405165 1_555
Rb0 S8 3.461963 1_555
Rb0 S5 3.480846 1_654
Rb0 S2 3.519265 1_554
Rb0 S7 3.520531 1_545
Rb0 S0 3.546587 1_545
Rb0 S10 3.620808 1_554
Rb0 S3 3.674651 1_545
Rb0 S5 3.801673 1_554
Rb0 S7 3.819554 1_555
Rb1 S10 3.405165 1_555
Rb1 S9 3.461963 1_655
Rb1 S4 3.480846 1_555
Rb1 S3 3.519265 1_555
Rb1 S6 3.520531 1_565
Rb1 S1 3.546587 1_665
Rb1 S11 3.620808 1_555
Rb1 S2 3.674651 1_565
Rb1 S4 3.801673 1_655
Rb1 S6 3.819554 1_555
Rb2 S9 3.405165 1_555
Rb2 S10 3.461963 1_555
Rb2 S7 3.480846 1_456
Rb2 S0 3.519265 1_556
Rb2 S5 3.520531 1_565
Rb2 S2 3.546587 1_565
Rb2 S8 3.620808 1_556
Rb2 S1 3.674651 1_565
Rb2 S7 3.801673 1_556
Rb2 S5 3.819554 1_555
Rb3 S8 3.405165 1_555
Rb3 S11 3.461963 1_455
Rb3 S6 3.480846 1_555
Rb3 S1 3.519265 1_555
Rb3 S4 3.520531 1_545
Rb3 S3 3.546587 1_445
Rb3 S9 3.620808 1_555
Rb3 S0 3.674651 1_545
Rb3 S6 3.801673 1_455
Rb3 S4 3.819554 1_555
B0 S8 1.902783 1_555
B0 S7 1.910405 1_555
B0 S11 1.939297 1_555
B0 S3 1.957772 1_555
B1 S9 1.902783 1_655
B1 S6 1.910405 1_555
B1 S10 1.939297 1_555
B1 S2 1.957772 1_555
B2 S10 1.902783 1_555
B2 S5 1.910405 1_555
B2 S9 1.939297 1_555
B2 S1 1.957772 1_555
B3 S11 1.902783 1_455
B3 S4 1.910405 1_555
B3 S8 1.939297 1_555
B3 S0 1.957772 1_555
