# generated using pymatgen
data_Li4UC3O11
_symmetry_space_group_name_H-M   'P 1'
_cell_length_a   8.91790451
_cell_length_b   8.91790451
_cell_length_c   12.53410900
_cell_angle_alpha   90.00000000
_cell_angle_beta   90.00000000
_cell_angle_gamma   120.00000377
_symmetry_Int_Tables_number   1
_chemical_formula_structural   Li4UC3O11
_chemical_formula_sum   'Li16 U4 C12 O44'
_cell_volume   863.27610032
_cell_formula_units_Z   4
loop_
 _symmetry_equiv_pos_site_id
 _symmetry_equiv_pos_as_xyz
  1  'x, y, z'
loop_
 _atom_site_type_symbol
 _atom_site_label
 _atom_site_symmetry_multiplicity
 _atom_site_fract_x
 _atom_site_fract_y
 _atom_site_fract_z
 _atom_site_occupancy
  Li  Li0  1  0.68920500  0.12286100  0.87331800  1
  Li  Li1  1  0.87713900  0.56634400  0.87331800  1
  Li  Li2  1  0.43365600  0.31079500  0.87331800  1
  Li  Li3  1  0.56634400  0.87713900  0.62668200  1
  Li  Li4  1  0.31079500  0.43365600  0.62668200  1
  Li  Li5  1  0.12286100  0.68920500  0.62668200  1
  Li  Li6  1  0.31079500  0.87713900  0.12668200  1
  Li  Li7  1  0.12286100  0.43365600  0.12668200  1
  Li  Li8  1  0.56634400  0.68920500  0.12668200  1
  Li  Li9  1  0.43365600  0.12286100  0.37331800  1
  Li  Li10  1  0.68920500  0.56634400  0.37331800  1
  Li  Li11  1  0.87713900  0.31079500  0.37331800  1
  Li  Li12  1  0.00000000  0.00000000  0.50000000  1
  Li  Li13  1  0.00000000  0.00000000  0.00000000  1
  Li  Li14  1  0.00000000  0.00000000  0.75000000  1
  Li  Li15  1  0.00000000  0.00000000  0.25000000  1
  U  U0  1  0.66666700  0.33333300  0.62983900  1
  U  U1  1  0.33333300  0.66666700  0.87016100  1
  U  U2  1  0.33333300  0.66666700  0.37016100  1
  U  U3  1  0.66666700  0.33333300  0.12983900  1
  C  C0  1  0.25143300  0.93551900  0.87271100  1
  C  C1  1  0.06448100  0.31591400  0.87271100  1
  C  C2  1  0.68408600  0.74856700  0.87271100  1
  C  C3  1  0.31591400  0.06448100  0.62728900  1
  C  C4  1  0.74856700  0.68408600  0.62728900  1
  C  C5  1  0.93551900  0.25143300  0.62728900  1
  C  C6  1  0.74856700  0.06448100  0.12728900  1
  C  C7  1  0.93551900  0.68408600  0.12728900  1
  C  C8  1  0.31591400  0.25143300  0.12728900  1
  C  C9  1  0.68408600  0.93551900  0.37271100  1
  C  C10  1  0.25143300  0.31591400  0.37271100  1
  C  C11  1  0.06448100  0.74856700  0.37271100  1
  O  O0  1  0.63633000  0.86483400  0.85969400  1
  O  O1  1  0.13516600  0.77149600  0.85969400  1
  O  O2  1  0.22850400  0.36367000  0.85969400  1
  O  O3  1  0.77149600  0.13516600  0.64030600  1
  O  O4  1  0.36367000  0.22850400  0.64030600  1
  O  O5  1  0.86483400  0.63633000  0.64030600  1
  O  O6  1  0.36367000  0.13516600  0.14030600  1
  O  O7  1  0.86483400  0.22850400  0.14030600  1
  O  O8  1  0.77149600  0.63633000  0.14030600  1
  O  O9  1  0.22850400  0.86483400  0.35969400  1
  O  O10  1  0.63633000  0.77149600  0.35969400  1
  O  O11  1  0.13516600  0.36367000  0.35969400  1
  O  O12  1  0.41071400  0.96572400  0.88002600  1
  O  O13  1  0.03427600  0.44499000  0.88002600  1
  O  O14  1  0.55501000  0.58928600  0.88002600  1
  O  O15  1  0.44499000  0.03427600  0.61997400  1
  O  O16  1  0.58928600  0.55501000  0.61997400  1
  O  O17  1  0.96572400  0.41071400  0.61997400  1
  O  O18  1  0.58928600  0.03427600  0.11997400  1
  O  O19  1  0.96572400  0.55501000  0.11997400  1
  O  O20  1  0.44499000  0.41071400  0.11997400  1
  O  O21  1  0.55501000  0.96572400  0.38002600  1
  O  O22  1  0.41071400  0.44499000  0.38002600  1
  O  O23  1  0.03427600  0.58928600  0.38002600  1
  O  O24  1  0.21446000  0.05545500  0.87801600  1
  O  O25  1  0.94454500  0.15900500  0.87801600  1
  O  O26  1  0.84099500  0.78554000  0.87801600  1
  O  O27  1  0.15900500  0.94454500  0.62198400  1
  O  O28  1  0.78554000  0.84099500  0.62198400  1
  O  O29  1  0.05545500  0.21446000  0.62198400  1
  O  O30  1  0.78554000  0.94454500  0.12198400  1
  O  O31  1  0.05545500  0.84099500  0.12198400  1
  O  O32  1  0.15900500  0.21446000  0.12198400  1
  O  O33  1  0.84099500  0.05545500  0.37801600  1
  O  O34  1  0.21446000  0.15900500  0.37801600  1
  O  O35  1  0.94454500  0.78554000  0.37801600  1
  O  O36  1  0.66666700  0.33333300  0.48164800  1
  O  O37  1  0.33333300  0.66666700  0.01835200  1
  O  O38  1  0.33333300  0.66666700  0.51835200  1
  O  O39  1  0.66666700  0.33333300  0.98164800  1
  O  O40  1  0.66666700  0.33333300  0.77898900  1
  O  O41  1  0.33333300  0.66666700  0.72101100  1
  O  O42  1  0.33333300  0.66666700  0.22101100  1
  O  O43  1  0.66666700  0.33333300  0.27898900  1
loop_
_geom_bond_atom_site_label_1
_geom_bond_atom_site_label_2
_geom_bond_distance
_geom_bond_site_symmetry_2
Li0 O0 2.112192 1_545
Li0 O25 2.135079 1_555
Li0 O12 2.158371 1_545
Li0 O40 2.310535 1_555
Li0 O39 2.405066 1_555
Li1 O1 2.112192 1_655
Li1 O26 2.135079 1_555
Li1 O13 2.158371 1_655
Li1 O40 2.310539 1_555
Li1 O39 2.405070 1_555
Li2 O2 2.112192 1_555
Li2 O24 2.135079 1_555
Li2 O14 2.158371 1_555
Li2 O40 2.310542 1_555
Li2 O39 2.405073 1_555
Li3 O3 2.112192 1_565
Li3 O28 2.135079 1_555
Li3 O15 2.158371 1_565
Li3 O41 2.310539 1_555
Li3 O38 2.405070 1_555
Li4 O4 2.112192 1_555
Li4 O29 2.135079 1_555
Li4 O16 2.158371 1_555
Li4 O41 2.310542 1_555
Li4 O38 2.405073 1_555
Li5 O5 2.112192 1_455
Li5 O27 2.135079 1_555
Li5 O17 2.158371 1_455
Li5 O41 2.310535 1_555
Li5 O38 2.405066 1_555
Li6 O6 2.112192 1_565
Li6 O31 2.135079 1_555
Li6 O18 2.158371 1_565
Li6 O42 2.310535 1_555
Li6 O37 2.405066 1_555
Li7 O7 2.112192 1_455
Li7 O32 2.135079 1_555
Li7 O19 2.158371 1_455
Li7 O42 2.310539 1_555
Li7 O37 2.405070 1_555
Li8 O8 2.112192 1_555
Li8 O30 2.135079 1_555
Li8 O20 2.158371 1_555
Li8 O42 2.310542 1_555
Li8 O37 2.405073 1_555
Li9 O9 2.112192 1_545
Li9 O34 2.135079 1_555
Li9 O21 2.158371 1_545
Li9 O43 2.310539 1_555
Li9 O36 2.405070 1_555
Li10 O10 2.112192 1_555
Li10 O35 2.135079 1_555
Li10 O22 2.158371 1_555
Li10 O43 2.310542 1_555
Li10 O36 2.405073 1_555
Li11 O11 2.112192 1_655
Li11 O33 2.135079 1_555
Li11 O23 2.158371 1_655
Li11 O43 2.310535 1_555
Li11 O36 2.405066 1_555
Li12 O28 2.300924 1_445
Li12 O34 2.300924 1_555
Li12 O29 2.300924 1_555
Li12 O35 2.300924 1_445
Li12 O27 2.300924 1_545
Li12 O33 2.300924 1_455
Li13 O32 2.300924 1_555
Li13 O26 2.300924 1_444
Li13 O30 2.300924 1_445
Li13 O24 2.300924 1_554
Li13 O25 2.300924 1_454
Li13 O31 2.300924 1_545
Li14 O26 2.351842 1_445
Li14 O28 2.351842 1_445
Li14 O24 2.351842 1_555
Li14 O29 2.351842 1_555
Li14 O25 2.351842 1_455
Li14 O27 2.351842 1_545
Li15 O34 2.351842 1_555
Li15 O32 2.351842 1_555
Li15 O35 2.351842 1_445
Li15 O30 2.351842 1_445
Li15 O33 2.351842 1_455
Li15 O31 2.351842 1_545
C0 O24 1.268778 1_565
C0 O12 1.309973 1_555
C0 O1 1.313260 1_555
C1 O25 1.268778 1_455
C1 O13 1.309973 1_555
C1 O2 1.313260 1_555
C2 O26 1.268778 1_555
C2 O14 1.309973 1_555
C2 O0 1.313260 1_555
C3 O27 1.268778 1_545
C3 O15 1.309973 1_555
C3 O4 1.313260 1_555
C4 O28 1.268778 1_555
C4 O16 1.309973 1_555
C4 O5 1.313260 1_555
C5 O29 1.268778 1_655
C5 O17 1.309973 1_555
C5 O3 1.313260 1_555
C6 O30 1.268778 1_545
C6 O18 1.309973 1_555
C6 O7 1.313260 1_555
C7 O31 1.268778 1_655
C7 O19 1.309973 1_555
C7 O8 1.313260 1_555
C8 O32 1.268778 1_555
C8 O20 1.309973 1_555
C8 O6 1.313260 1_555
C9 O33 1.268778 1_565
C9 O21 1.309973 1_555
C9 O10 1.313260 1_555
C10 O34 1.268778 1_555
C10 O22 1.309973 1_555
C10 O11 1.313260 1_555
C11 O35 1.268778 1_455
C11 O23 1.309973 1_555
C11 O9 1.313260 1_555
O0 U1 2.380425 1_555
O1 U1 2.380418 1_555
O2 U1 2.380427 1_555
O3 U0 2.380418 1_555
O4 U0 2.380427 1_555
O5 U0 2.380425 1_555
O6 U3 2.380425 1_555
O7 U3 2.380418 1_555
O8 U3 2.380427 1_555
O9 U2 2.380418 1_555
O10 U2 2.380427 1_555
O11 U2 2.380425 1_555
O12 U1 2.400786 1_555
O13 U1 2.400788 1_555
O14 U1 2.400794 1_555
O15 U0 2.400788 1_555
O16 U0 2.400794 1_555
O17 U0 2.400786 1_555
O18 U3 2.400786 1_555
O19 U3 2.400788 1_555
O20 U3 2.400794 1_555
O21 U2 2.400788 1_555
O22 U2 2.400794 1_555
O23 U2 2.400786 1_555
O36 U0 1.857442 1_555
O37 U1 1.857442 1_554
O38 U2 1.857442 1_555
O39 U3 1.857442 1_556
O40 U0 1.869462 1_555
O41 U1 1.869462 1_555
O42 U2 1.869462 1_555
O43 U3 1.869462 1_555
