# generated using pymatgen
data_Nd(Mg4Al3)4
_symmetry_space_group_name_H-M   'P 1'
_cell_length_a   9.15003297
_cell_length_b   9.15003297
_cell_length_c   9.15003297
_cell_angle_alpha   109.47122063
_cell_angle_beta   109.47122063
_cell_angle_gamma   109.47122063
_symmetry_Int_Tables_number   1
_chemical_formula_structural   Nd(Mg4Al3)4
_chemical_formula_sum   'Nd1 Mg16 Al12'
_cell_volume   589.72031182
_cell_formula_units_Z   1
loop_
 _symmetry_equiv_pos_site_id
 _symmetry_equiv_pos_as_xyz
  1  'x, y, z'
loop_
 _atom_site_type_symbol
 _atom_site_label
 _atom_site_symmetry_multiplicity
 _atom_site_fract_x
 _atom_site_fract_y
 _atom_site_fract_z
 _atom_site_occupancy
  Nd  Nd0  1  0.00000000  0.00000000  0.00000000  1
  Mg  Mg0  1  0.00000000  0.36154300  0.00000000  1
  Mg  Mg1  1  0.31970500  0.60250800  0.00000000  1
  Mg  Mg2  1  0.36154300  0.00000000  0.00000000  1
  Mg  Mg3  1  0.60250800  0.31970500  0.00000000  1
  Mg  Mg4  1  0.39749200  0.39749200  0.71719700  1
  Mg  Mg5  1  0.68029500  0.28280300  0.68029500  1
  Mg  Mg6  1  0.28280300  0.68029500  0.68029500  1
  Mg  Mg7  1  0.63845700  0.63845700  0.63845700  1
  Mg  Mg8  1  0.00000000  0.31970500  0.60250800  1
  Mg  Mg9  1  0.31970500  0.00000000  0.60250800  1
  Mg  Mg10  1  0.71719700  0.39749200  0.39749200  1
  Mg  Mg11  1  0.39749200  0.71719700  0.39749200  1
  Mg  Mg12  1  0.00000000  0.00000000  0.36154300  1
  Mg  Mg13  1  0.00000000  0.60250800  0.31970500  1
  Mg  Mg14  1  0.60250800  0.00000000  0.31970500  1
  Mg  Mg15  1  0.68029500  0.68029500  0.28280300  1
  Al  Al0  1  0.81227400  0.62947100  0.00000000  1
  Al  Al1  1  0.62947100  0.81227400  0.00000000  1
  Al  Al2  1  0.18772600  0.18772600  0.81719700  1
  Al  Al3  1  0.00000000  0.62947100  0.81227400  1
  Al  Al4  1  0.62947100  0.00000000  0.81227400  1
  Al  Al5  1  0.00000000  0.81227400  0.62947100  1
  Al  Al6  1  0.81227400  0.00000000  0.62947100  1
  Al  Al7  1  0.37052900  0.18280300  0.37052900  1
  Al  Al8  1  0.18280300  0.37052900  0.37052900  1
  Al  Al9  1  0.81719700  0.18772600  0.18772600  1
  Al  Al10  1  0.18772600  0.81719700  0.18772600  1
  Al  Al11  1  0.37052900  0.37052900  0.18280300  1
loop_
_geom_bond_atom_site_label_1
_geom_bond_atom_site_label_2
_geom_bond_distance
_geom_bond_site_symmetry_2
Mg0 Mg5 3.019746 1_454
Mg0 Mg1 3.019746 1_555
Mg0 Mg13 3.019746 1_555
Mg0 Nd0 3.308130 1_555
Mg1 Mg15 3.098938 1_555
Mg1 Mg4 3.098938 1_554
Mg1 Mg6 3.172986 1_554
Mg1 Mg11 3.172986 1_555
Mg1 Mg8 3.172986 1_554
Mg1 Mg14 3.172986 1_565
Mg2 Mg3 3.019746 1_555
Mg2 Mg6 3.019746 1_544
Mg2 Nd0 3.308130 1_555
Mg3 Mg4 3.098938 1_554
Mg3 Mg9 3.172986 1_554
Mg3 Mg5 3.172986 1_554
Mg4 Mg7 3.019746 1_555
Mg4 Mg6 3.172986 1_555
Mg4 Mg5 3.172986 1_555
Mg4 Mg8 3.172986 1_555
Mg4 Mg9 3.172986 1_555
Mg5 Mg9 3.098938 1_555
Mg5 Mg8 3.172986 1_655
Mg6 Mg8 3.098938 1_555
Mg6 Mg9 3.172986 1_565
Mg7 Nd0 3.308130 1_666
Mg10 Mg7 3.019746 1_555
Mg10 Mg8 3.098938 1_655
Mg10 Mg13 3.098938 1_655
Mg10 Mg5 3.172986 1_555
Mg10 Mg15 3.172986 1_555
Mg10 Mg14 3.172986 1_555
Mg10 Mg3 3.172986 1_555
Mg11 Mg7 3.019746 1_555
Mg11 Mg14 3.098938 1_565
Mg11 Mg9 3.098938 1_565
Mg11 Mg15 3.172986 1_555
Mg11 Mg6 3.172986 1_555
Mg11 Mg13 3.172986 1_555
Mg12 Mg15 3.019746 1_445
Mg12 Mg9 3.019746 1_555
Mg12 Mg8 3.019746 1_555
Mg12 Nd0 3.308130 1_555
Mg13 Mg6 3.098938 1_555
Mg13 Mg9 3.172986 1_565
Mg13 Mg15 3.172986 1_455
Mg13 Mg3 3.172986 1_455
Mg14 Mg2 3.019746 1_555
Mg14 Mg5 3.098938 1_555
Mg14 Mg8 3.172986 1_655
Mg14 Mg15 3.172986 1_545
Mg15 Mg3 3.098938 1_555
Al0 Al1 2.731432 1_555
Al0 Al3 2.804991 1_654
Al0 Al10 2.804991 1_655
Al0 Mg3 2.844437 1_555
Al0 Mg5 2.997097 1_554
Al0 Mg13 2.997097 1_655
Al0 Mg4 3.166380 1_554
Al0 Mg15 3.166380 1_555
Al0 Mg12 3.200141 1_665
Al0 Mg7 3.200141 1_554
Al0 Nd0 3.250012 1_665
Al1 Al4 2.804991 1_564
Al1 Al9 2.804991 1_565
Al1 Mg1 2.844437 1_555
Al1 Mg14 2.997097 1_565
Al1 Mg6 2.997097 1_554
Al1 Mg4 3.166380 1_554
Al1 Mg15 3.166380 1_555
Al1 Mg12 3.200141 1_665
Al1 Mg7 3.200141 1_554
Al1 Nd0 3.250012 1_665
Al2 Al5 2.804991 1_545
Al2 Al6 2.804991 1_455
Al2 Mg4 2.844437 1_555
Al2 Mg8 2.997097 1_555
Al2 Mg9 2.997097 1_555
Al2 Mg3 3.166380 1_556
Al2 Mg1 3.166380 1_556
Al2 Mg2 3.200141 1_556
Al2 Mg0 3.200141 1_556
Al2 Nd0 3.250012 1_556
Al3 Al5 2.731432 1_555
Al3 Mg8 2.844437 1_555
Al3 Mg1 2.997097 1_556
Al3 Mg5 2.997097 1_455
Al3 Mg10 3.166380 1_455
Al3 Mg6 3.166380 1_555
Al3 Mg2 3.200141 1_566
Al3 Mg7 3.200141 1_455
Al3 Nd0 3.250012 1_566
Al4 Al6 2.731432 1_555
Al4 Al9 2.804991 1_556
Al4 Mg9 2.844437 1_555
Al4 Mg3 2.997097 1_556
Al4 Mg6 2.997097 1_545
Al4 Mg11 3.166380 1_545
Al4 Mg5 3.166380 1_555
Al4 Mg7 3.200141 1_545
Al4 Mg0 3.200141 1_656
Al4 Nd0 3.250012 1_656
Al5 Al6 2.804991 1_465
Al5 Mg13 2.844437 1_555
Al5 Mg15 2.997097 1_455
Al5 Mg9 2.997097 1_565
Al5 Mg10 3.166380 1_455
Al5 Mg6 3.166380 1_555
Al5 Mg7 3.200141 1_455
Al5 Mg2 3.200141 1_566
Al5 Nd0 3.250012 1_566
Al6 Mg14 2.844437 1_555
Al6 Mg15 2.997097 1_545
Al6 Mg8 2.997097 1_655
Al6 Mg11 3.166380 1_545
Al6 Mg5 3.166380 1_555
Al6 Mg7 3.200141 1_545
Al6 Mg0 3.200141 1_656
Al6 Nd0 3.250012 1_656
Al7 Al8 2.804991 1_555
Al7 Mg5 2.844437 1_555
Al7 Mg10 2.997097 1_555
Al7 Mg4 2.997097 1_555
Al7 Mg14 3.166380 1_555
Al7 Mg9 3.166380 1_555
Al7 Mg12 3.200141 1_555
Al7 Mg2 3.200141 1_555
Al7 Nd0 3.250012 1_555
Al8 Al9 2.731432 1_455
Al8 Mg6 2.844437 1_555
Al8 Mg11 2.997097 1_555
Al8 Mg4 2.997097 1_555
Al8 Mg13 3.166380 1_555
Al8 Mg8 3.166380 1_555
Al8 Mg0 3.200141 1_555
Al8 Mg12 3.200141 1_555
Al8 Nd0 3.250012 1_555
Al9 Mg10 2.844437 1_555
Al9 Mg14 2.997097 1_555
Al9 Mg3 2.997097 1_555
Al9 Mg8 3.166380 1_655
Al9 Mg13 3.166380 1_655
Al9 Mg0 3.200141 1_655
Al9 Mg12 3.200141 1_655
Al9 Nd0 3.250012 1_655
Al10 Al7 2.731432 1_565
Al10 Al3 2.804991 1_554
Al10 Mg11 2.844437 1_555
Al10 Mg13 2.997097 1_555
Al10 Mg1 2.997097 1_555
Al10 Mg9 3.166380 1_565
Al10 Mg14 3.166380 1_565
Al10 Mg2 3.200141 1_565
Al10 Mg12 3.200141 1_565
Al10 Nd0 3.250012 1_565
Al11 Al2 2.731432 1_554
Al11 Al8 2.804991 1_555
Al11 Al7 2.804991 1_555
Al11 Mg15 2.844437 1_555
Al11 Mg10 2.997097 1_555
Al11 Mg11 2.997097 1_555
Al11 Mg3 3.166380 1_555
Al11 Mg1 3.166380 1_555
Al11 Mg2 3.200141 1_555
Al11 Mg0 3.200141 1_555
Al11 Nd0 3.250012 1_555
