# generated using pymatgen
data_Cd
_symmetry_space_group_name_H-M   'P 1'
_cell_length_a   5.91694882
_cell_length_b   5.91695046
_cell_length_c   11.77185586
_cell_angle_alpha   90.00000000
_cell_angle_beta   90.00000000
_cell_angle_gamma   120.00001224
_symmetry_Int_Tables_number   1
_chemical_formula_structural   Cd
_chemical_formula_sum   Cd16
_cell_volume   356.92030863
_cell_formula_units_Z   16
loop_
 _symmetry_equiv_pos_site_id
 _symmetry_equiv_pos_as_xyz
  1  'x, y, z'
loop_
 _atom_site_type_symbol
 _atom_site_label
 _atom_site_symmetry_multiplicity
 _atom_site_fract_x
 _atom_site_fract_y
 _atom_site_fract_z
 _atom_site_occupancy
  Cd  Cd0_0  1  0.16666650  0.33333350  0.12500000  1
  Cd  Cd0_1  1  0.16666650  0.33333350  0.62500000  1
  Cd  Cd0_2  1  0.16666650  0.83333350  0.12500000  1
  Cd  Cd0_3  1  0.16666650  0.83333350  0.62500000  1
  Cd  Cd0_4  1  0.66666650  0.33333350  0.12500000  1
  Cd  Cd0_5  1  0.66666650  0.33333350  0.62500000  1
  Cd  Cd0_6  1  0.66666650  0.83333350  0.12500000  1
  Cd  Cd0_7  1  0.66666650  0.83333350  0.62500000  1
  Cd  Cd1_0  1  0.33333350  0.16666650  0.37500000  1
  Cd  Cd1_1  1  0.33333350  0.16666650  0.87500000  1
  Cd  Cd1_2  1  0.33333350  0.66666650  0.37500000  1
  Cd  Cd1_3  1  0.33333350  0.66666650  0.87500000  1
  Cd  Cd1_4  1  0.83333350  0.16666650  0.37500000  1
  Cd  Cd1_5  1  0.83333350  0.16666650  0.87500000  1
  Cd  Cd1_6  1  0.83333350  0.66666650  0.37500000  1
  Cd  Cd1_7  1  0.83333350  0.66666650  0.87500000  1
loop_
_geom_bond_atom_site_label_1
_geom_bond_atom_site_label_2
_geom_bond_distance
_geom_bond_site_symmetry_2
Cd0_0 Cd0_6 2.958474 1_555
Cd0_0 Cd0_6 2.958474 1_445
Cd0_0 Cd0_4 2.958474 1_455
Cd0_0 Cd0_4 2.958474 1_555
Cd0_0 Cd0_2 2.958475 1_545
Cd0_0 Cd0_2 2.958475 1_555
Cd0_0 Cd1_4 3.402727 1_455
Cd0_0 Cd1_5 3.402727 1_454
Cd0_0 Cd1_2 3.402728 1_555
Cd0_0 Cd1_3 3.402728 1_554
Cd0_0 Cd1_0 3.402730 1_555
Cd0_0 Cd1_1 3.402730 1_554
Cd0_1 Cd0_7 2.958474 1_445
Cd0_1 Cd0_7 2.958474 1_555
Cd0_1 Cd0_5 2.958474 1_455
Cd0_1 Cd0_5 2.958474 1_555
Cd0_1 Cd0_3 2.958475 1_545
Cd0_1 Cd0_3 2.958475 1_555
Cd0_1 Cd1_4 3.402727 1_455
Cd0_1 Cd1_5 3.402727 1_455
Cd0_1 Cd1_2 3.402728 1_555
Cd0_1 Cd1_3 3.402728 1_555
Cd0_1 Cd1_0 3.402730 1_555
Cd0_1 Cd1_1 3.402730 1_555
Cd0_2 Cd0_4 2.958474 1_565
Cd0_2 Cd0_4 2.958474 1_455
Cd0_2 Cd0_6 2.958474 1_455
Cd0_2 Cd0_6 2.958474 1_555
Cd0_2 Cd1_6 3.402727 1_455
Cd0_2 Cd1_7 3.402727 1_454
Cd0_2 Cd1_1 3.402728 1_564
Cd0_2 Cd1_0 3.402728 1_565
Cd0_2 Cd1_2 3.402730 1_555
Cd0_2 Cd1_3 3.402730 1_554
Cd0_3 Cd0_5 2.958474 1_565
Cd0_3 Cd0_5 2.958474 1_455
Cd0_3 Cd0_7 2.958474 1_455
Cd0_3 Cd0_7 2.958474 1_555
Cd0_3 Cd1_6 3.402727 1_455
Cd0_3 Cd1_7 3.402727 1_455
Cd0_3 Cd1_1 3.402728 1_565
Cd0_3 Cd1_0 3.402728 1_565
Cd0_3 Cd1_2 3.402730 1_555
Cd0_3 Cd1_3 3.402730 1_555
Cd0_4 Cd0_6 2.958475 1_555
Cd0_4 Cd0_6 2.958475 1_545
Cd0_4 Cd1_1 3.402727 1_554
Cd0_4 Cd1_0 3.402727 1_555
Cd0_4 Cd1_6 3.402728 1_555
Cd0_4 Cd1_7 3.402728 1_554
Cd0_4 Cd1_5 3.402730 1_554
Cd0_4 Cd1_4 3.402730 1_555
Cd0_5 Cd0_7 2.958475 1_555
Cd0_5 Cd0_7 2.958475 1_545
Cd0_5 Cd1_1 3.402727 1_555
Cd0_5 Cd1_0 3.402727 1_555
Cd0_5 Cd1_6 3.402728 1_555
Cd0_5 Cd1_7 3.402728 1_555
Cd0_5 Cd1_5 3.402730 1_555
Cd0_5 Cd1_4 3.402730 1_555
Cd0_6 Cd1_3 3.402727 1_554
Cd0_6 Cd1_2 3.402727 1_555
Cd0_6 Cd1_4 3.402728 1_565
Cd0_6 Cd1_5 3.402728 1_564
Cd0_6 Cd1_6 3.402730 1_555
Cd0_6 Cd1_7 3.402730 1_554
Cd0_7 Cd1_3 3.402727 1_555
Cd0_7 Cd1_2 3.402727 1_555
Cd0_7 Cd1_4 3.402728 1_565
Cd0_7 Cd1_5 3.402728 1_565
Cd0_7 Cd1_6 3.402730 1_555
Cd0_7 Cd1_7 3.402730 1_555
Cd1_0 Cd1_6 2.958474 1_555
Cd1_0 Cd1_6 2.958474 1_445
Cd1_0 Cd1_4 2.958474 1_555
Cd1_0 Cd1_4 2.958474 1_455
Cd1_0 Cd1_2 2.958475 1_555
Cd1_0 Cd1_2 2.958475 1_545
Cd1_1 Cd1_7 2.958474 1_555
Cd1_1 Cd1_7 2.958474 1_445
Cd1_1 Cd1_5 2.958474 1_555
Cd1_1 Cd1_5 2.958474 1_455
Cd1_1 Cd1_3 2.958475 1_555
Cd1_1 Cd1_3 2.958475 1_545
Cd1_2 Cd1_4 2.958474 1_455
Cd1_2 Cd1_4 2.958474 1_565
Cd1_2 Cd1_6 2.958474 1_555
Cd1_2 Cd1_6 2.958474 1_455
Cd1_3 Cd1_5 2.958474 1_455
Cd1_3 Cd1_5 2.958474 1_565
Cd1_3 Cd1_7 2.958474 1_555
Cd1_3 Cd1_7 2.958474 1_455
Cd1_4 Cd1_6 2.958475 1_545
Cd1_4 Cd1_6 2.958475 1_555
Cd1_5 Cd1_7 2.958475 1_545
Cd1_5 Cd1_7 2.958475 1_555
