# generated using pymatgen
data_LiTm3
_symmetry_space_group_name_H-M   'P 1'
_cell_length_a   6.90171876
_cell_length_b   6.90171876
_cell_length_c   5.45575600
_cell_angle_alpha   90.00000000
_cell_angle_beta   90.00000000
_cell_angle_gamma   120.00000732
_symmetry_Int_Tables_number   1
_chemical_formula_structural   LiTm3
_chemical_formula_sum   'Li2 Tm6'
_cell_volume   225.06090214
_cell_formula_units_Z   2
loop_
 _symmetry_equiv_pos_site_id
 _symmetry_equiv_pos_as_xyz
  1  'x, y, z'
loop_
 _atom_site_type_symbol
 _atom_site_label
 _atom_site_symmetry_multiplicity
 _atom_site_fract_x
 _atom_site_fract_y
 _atom_site_fract_z
 _atom_site_occupancy
  Li  Li0  1  0.66666700  0.33333300  0.25000000  1
  Li  Li1  1  0.33333300  0.66666700  0.75000000  1
  Tm  Tm0  1  0.83186200  0.16813800  0.75000000  1
  Tm  Tm1  1  0.33627600  0.16813800  0.75000000  1
  Tm  Tm2  1  0.83186200  0.66372400  0.75000000  1
  Tm  Tm3  1  0.16813800  0.83186200  0.25000000  1
  Tm  Tm4  1  0.66372400  0.83186200  0.25000000  1
  Tm  Tm5  1  0.16813800  0.33627600  0.25000000  1
loop_
_geom_bond_atom_site_label_1
_geom_bond_atom_site_label_2
_geom_bond_distance
_geom_bond_site_symmetry_2
Li0 Tm0 3.367641 1_554
Li0 Tm0 3.367641 1_555
Li0 Tm2 3.367644 1_554
Li0 Tm2 3.367644 1_555
Li0 Tm1 3.367644 1_555
Li0 Tm1 3.367644 1_554
Li0 Tm5 3.450901 1_655
Li0 Tm4 3.450901 1_545
Li0 Tm3 3.450904 1_655
Li0 Tm3 3.450904 1_545
Li0 Tm4 3.450908 1_555
Li0 Tm5 3.450908 1_555
Li1 Tm3 3.367641 1_555
Li1 Tm3 3.367641 1_556
Li1 Tm4 3.367644 1_556
Li1 Tm4 3.367644 1_555
Li1 Tm5 3.367644 1_555
Li1 Tm5 3.367644 1_556
Li1 Tm1 3.450901 1_565
Li1 Tm2 3.450901 1_455
Li1 Tm0 3.450904 1_565
Li1 Tm0 3.450904 1_455
Li1 Tm2 3.450908 1_555
Li1 Tm1 3.450908 1_555
Tm0 Tm4 3.388390 1_546
Tm0 Tm5 3.388390 1_655
Tm0 Tm5 3.388390 1_656
Tm0 Tm4 3.388390 1_545
Tm0 Tm1 3.420395 1_555
Tm0 Tm2 3.420395 1_555
Tm0 Tm1 3.481324 1_655
Tm0 Tm2 3.481324 1_545
Tm1 Tm3 3.388390 1_545
Tm1 Tm3 3.388390 1_546
Tm1 Tm5 3.388390 1_556
Tm1 Tm5 3.388390 1_555
Tm1 Tm2 3.420395 1_555
Tm1 Tm2 3.481323 1_445
Tm2 Tm3 3.388390 1_656
Tm2 Tm3 3.388390 1_655
Tm2 Tm4 3.388390 1_555
Tm2 Tm4 3.388390 1_556
Tm3 Tm4 3.420395 1_555
Tm3 Tm5 3.420395 1_555
Tm3 Tm5 3.481324 1_565
Tm3 Tm4 3.481324 1_455
Tm4 Tm5 3.420395 1_555
Tm4 Tm5 3.481323 1_665
