# generated using pymatgen
data_MgSn3
_symmetry_space_group_name_H-M   'P 1'
_cell_length_a   6.49590973
_cell_length_b   6.49591071
_cell_length_c   5.58490311
_cell_angle_alpha   90.00000000
_cell_angle_beta   90.00000000
_cell_angle_gamma   120.00000533
_symmetry_Int_Tables_number   1
_chemical_formula_structural   MgSn3
_chemical_formula_sum   'Mg2 Sn6'
_cell_volume   204.09213996
_cell_formula_units_Z   2
loop_
 _symmetry_equiv_pos_site_id
 _symmetry_equiv_pos_as_xyz
  1  'x, y, z'
loop_
 _atom_site_type_symbol
 _atom_site_label
 _atom_site_symmetry_multiplicity
 _atom_site_fract_x
 _atom_site_fract_y
 _atom_site_fract_z
 _atom_site_occupancy
  Mg  Mg0  1  0.66666800  0.33333300  0.25000000  1
  Mg  Mg1  1  0.33333300  0.66666700  0.74999900  1
  Sn  Sn0  1  0.16811843  0.33623685  0.25000000  1
  Sn  Sn1  1  0.66376315  0.83188057  0.25000000  1
  Sn  Sn2  1  0.16811743  0.83188057  0.25000000  1
  Sn  Sn3  1  0.83188057  0.16811843  0.74999900  1
  Sn  Sn4  1  0.33623685  0.16811843  0.74999900  1
  Sn  Sn5  1  0.83188157  0.66376215  0.74999900  1
loop_
_geom_bond_atom_site_label_1
_geom_bond_atom_site_label_2
_geom_bond_distance
_geom_bond_site_symmetry_2
Mg0 Sn2 3.247986 1_655
Mg0 Sn0 3.247986 1_655
Mg0 Sn1 3.247996 1_555
Mg0 Sn1 3.247996 1_545
Mg0 Sn2 3.248006 1_545
Mg0 Sn0 3.248006 1_555
Mg0 Sn3 3.354566 1_555
Mg0 Sn5 3.354572 1_555
Mg0 Sn3 3.354575 1_554
Mg0 Sn4 3.354578 1_555
Mg0 Sn5 3.354581 1_554
Mg0 Sn4 3.354587 1_554
Mg1 Sn5 3.247990 1_455
Mg1 Sn3 3.247993 1_565
Mg1 Sn4 3.247993 1_565
Mg1 Sn3 3.247999 1_455
Mg1 Sn4 3.248000 1_555
Mg1 Sn5 3.248002 1_555
Mg1 Sn2 3.354572 1_555
Mg1 Sn1 3.354575 1_555
Mg1 Sn0 3.354575 1_555
Mg1 Sn2 3.354581 1_556
Mg1 Sn1 3.354584 1_556
Mg1 Sn0 3.354584 1_556
Sn0 Sn1 3.219660 1_555
Sn0 Sn2 3.219661 1_555
Sn0 Sn1 3.276250 1_445
Sn0 Sn2 3.276250 1_545
Sn0 Sn4 3.372786 1_555
Sn0 Sn3 3.372789 1_455
Sn0 Sn4 3.372795 1_554
Sn0 Sn3 3.372798 1_454
Sn1 Sn2 3.219670 1_555
Sn1 Sn2 3.276240 1_655
Sn1 Sn5 3.372786 1_555
Sn1 Sn3 3.372789 1_565
Sn1 Sn5 3.372795 1_554
Sn1 Sn3 3.372798 1_564
Sn2 Sn5 3.372783 1_455
Sn2 Sn4 3.372789 1_565
Sn2 Sn5 3.372792 1_454
Sn2 Sn4 3.372798 1_564
Sn3 Sn5 3.219654 1_555
Sn3 Sn4 3.219657 1_555
Sn3 Sn4 3.276253 1_655
Sn3 Sn5 3.276257 1_545
Sn4 Sn5 3.219660 1_555
Sn4 Sn5 3.276250 1_445
