# generated using pymatgen
data_V2ReMo
_symmetry_space_group_name_H-M   'P 1'
_cell_length_a   4.30198870
_cell_length_b   4.30198870
_cell_length_c   4.30198870
_cell_angle_alpha   60.00000000
_cell_angle_beta   60.00000000
_cell_angle_gamma   60.00000000
_symmetry_Int_Tables_number   1
_chemical_formula_structural   V2ReMo
_chemical_formula_sum   'V2 Re1 Mo1'
_cell_volume   56.29797801
_cell_formula_units_Z   1
loop_
 _symmetry_equiv_pos_site_id
 _symmetry_equiv_pos_as_xyz
  1  'x, y, z'
loop_
 _atom_site_type_symbol
 _atom_site_label
 _atom_site_symmetry_multiplicity
 _atom_site_fract_x
 _atom_site_fract_y
 _atom_site_fract_z
 _atom_site_occupancy
  V  V0  1  0.25000000  0.25000000  0.25000000  1
  V  V1  1  0.75000000  0.75000000  0.75000000  1
  Re  Re0  1  -0.00000000  0.00000000  0.00000000  1
  Mo  Mo0  1  0.50000000  0.50000000  0.50000000  1
loop_
_geom_bond_atom_site_label_1
_geom_bond_atom_site_label_2
_geom_bond_distance
_geom_bond_site_symmetry_2
Re0 V0 2.634419 1_455
Re0 V1 2.634419 1_544
Re0 V1 2.634419 1_444
Re0 V0 2.634419 1_545
Re0 V0 2.634419 1_555
Re0 V1 2.634419 1_445
Re0 V0 2.634419 1_554
Re0 V1 2.634419 1_454
Mo0 V1 2.634419 1_455
Mo0 V0 2.634419 1_655
Mo0 V0 2.634419 1_565
Mo0 V1 2.634419 1_554
Mo0 V0 2.634419 1_555
Mo0 V1 2.634419 1_545
Mo0 V0 2.634419 1_556
Mo0 V1 2.634419 1_555
