# generated using pymatgen
data_Cs2Si(HO2)2
_symmetry_space_group_name_H-M   'P 1'
_cell_length_a   6.01750000
_cell_length_b   6.26392140
_cell_length_c   8.84639082
_cell_angle_alpha   103.46983500
_cell_angle_beta   108.86430229
_cell_angle_gamma   86.39316175
_symmetry_Int_Tables_number   1
_chemical_formula_structural   Cs2Si(HO2)2
_chemical_formula_sum   'Cs4 Si2 H4 O8'
_cell_volume   306.83032416
_cell_formula_units_Z   2
loop_
 _symmetry_equiv_pos_site_id
 _symmetry_equiv_pos_as_xyz
  1  'x, y, z'
loop_
 _atom_site_type_symbol
 _atom_site_label
 _atom_site_symmetry_multiplicity
 _atom_site_fract_x
 _atom_site_fract_y
 _atom_site_fract_z
 _atom_site_occupancy
  Cs  Cs0  1  0.41224800  0.84869300  0.29254100  1
  Cs  Cs1  1  0.58775200  0.15130700  0.70745900  1
  Cs  Cs2  1  0.23900600  0.26291900  0.02724800  1
  Cs  Cs3  1  0.76099400  0.73708100  0.97275200  1
  Si  Si0  1  0.87399300  0.34482600  0.28437700  1
  Si  Si1  1  0.12600700  0.65517400  0.71562300  1
  H  H0  1  0.70024100  0.49530800  0.46828500  1
  H  H1  1  0.29975900  0.50469200  0.53171500  1
  H  H2  1  0.05118200  0.30281800  0.58961600  1
  H  H3  1  0.94881800  0.69718200  0.41038400  1
  O  O0  1  0.64774600  0.37832100  0.36659900  1
  O  O1  1  0.35225400  0.62167900  0.63340100  1
  O  O2  1  0.94094400  0.61224500  0.29616700  1
  O  O3  1  0.05905600  0.38775500  0.70383300  1
  O  O4  1  0.09798600  0.23766300  0.40038800  1
  O  O5  1  0.90201400  0.76233700  0.59961200  1
  O  O6  1  0.76848800  0.22616300  0.09243600  1
  O  O7  1  0.23151200  0.77383700  0.90756400  1
loop_
_geom_bond_atom_site_label_1
_geom_bond_atom_site_label_2
_geom_bond_distance
_geom_bond_site_symmetry_2
Cs0 H0 3.114259 1_555
Cs0 O7 3.150595 1_554
Cs0 O4 3.150689 1_565
Cs0 H3 3.211140 1_555
Cs0 O2 3.293543 1_455
Cs0 O0 3.300317 1_555
Cs0 O5 3.415336 1_555
Cs0 O2 3.417518 1_555
Cs0 O0 3.524506 1_565
Cs1 H1 3.114259 1_555
Cs1 O6 3.150595 1_556
Cs1 O5 3.150689 1_545
Cs1 H2 3.211140 1_555
Cs1 O3 3.293543 1_655
Cs1 O1 3.300317 1_555
Cs1 O4 3.415336 1_555
Cs1 O3 3.417518 1_555
Cs1 O1 3.524506 1_545
Cs2 O3 2.983620 1_554
Cs2 O7 2.997317 1_544
Cs2 O6 3.052633 1_555
Cs2 O6 3.098674 1_455
Cs2 O0 3.165802 1_555
Cs3 O2 2.983620 1_556
Cs3 O6 2.997317 1_566
Cs3 O7 3.052633 1_555
Cs3 O7 3.098674 1_655
Cs3 O1 3.165802 1_555
H0 O0 0.992095 1_555
H1 O1 0.992095 1_555
H2 O3 1.013908 1_555
H3 O2 1.013908 1_555
O0 Si0 1.720446 1_555
O1 Si1 1.720446 1_555
O2 Si0 1.719147 1_555
O3 Si1 1.719147 1_555
O4 Si0 1.622712 1_455
O5 Si1 1.622712 1_655
O6 Si0 1.616481 1_555
O7 Si1 1.616481 1_555
