# generated using pymatgen
data_SiB4
_symmetry_space_group_name_H-M   'P 1'
_cell_length_a   5.49193809
_cell_length_b   5.49193809
_cell_length_c   5.49193746
_cell_angle_alpha   68.96942467
_cell_angle_beta   68.96942467
_cell_angle_gamma   68.96941866
_symmetry_Int_Tables_number   1
_chemical_formula_structural   SiB4
_chemical_formula_sum   'Si3 B12'
_cell_volume   139.18848468
_cell_formula_units_Z   3
loop_
 _symmetry_equiv_pos_site_id
 _symmetry_equiv_pos_as_xyz
  1  'x, y, z'
loop_
 _atom_site_type_symbol
 _atom_site_label
 _atom_site_symmetry_multiplicity
 _atom_site_fract_x
 _atom_site_fract_y
 _atom_site_fract_z
 _atom_site_occupancy
  Si  Si0  1  0.32567800  0.32567800  0.32567800  1
  Si  Si1  1  0.67432200  0.67432200  0.67432200  1
  Si  Si2  1  0.50000000  0.50000000  0.50000000  1
  B  B0  1  0.27474300  0.82271900  0.82271900  1
  B  B1  1  0.82271900  0.82271900  0.27474300  1
  B  B2  1  0.82271900  0.27474300  0.82271900  1
  B  B3  1  0.17728100  0.72525700  0.17728100  1
  B  B4  1  0.17728100  0.17728100  0.72525700  1
  B  B5  1  0.72525700  0.17728100  0.17728100  1
  B  B6  1  0.67700400  0.98584400  0.98584300  1
  B  B7  1  0.98584400  0.98584400  0.67700400  1
  B  B8  1  0.98584400  0.67700400  0.98584300  1
  B  B9  1  0.01415600  0.32299600  0.01415600  1
  B  B10  1  0.01415700  0.01415600  0.32299600  1
  B  B11  1  0.32299600  0.01415600  0.01415600  1
loop_
_geom_bond_atom_site_label_1
_geom_bond_atom_site_label_2
_geom_bond_distance
_geom_bond_site_symmetry_2
Si0 Si2 2.173282 1_555
Si1 Si2 2.173282 1_555
B0 B3 1.753341 1_556
B0 B4 1.753341 1_565
B0 B7 1.826719 1_455
B0 B8 1.826719 1_455
B0 B11 1.863929 1_566
B0 Si1 2.013337 1_555
B0 Si2 2.630605 1_555
B1 B3 1.753341 1_655
B1 B5 1.753341 1_565
B1 B6 1.826724 1_554
B1 B8 1.826724 1_554
B1 B10 1.863934 1_665
B1 Si1 2.013337 1_555
B1 Si2 2.630605 1_555
B2 B5 1.753341 1_556
B2 B4 1.753341 1_655
B2 B7 1.826719 1_545
B2 B6 1.826719 1_545
B2 B9 1.863929 1_656
B2 Si1 2.013337 1_555
B2 Si2 2.630605 1_555
B3 B8 1.863934 1_454
B3 Si0 2.013337 1_555
B3 Si2 2.630605 1_555
B4 B9 1.826719 1_556
B4 B7 1.863929 1_445
B4 Si0 2.013337 1_555
B4 Si2 2.630605 1_555
B5 B9 1.826719 1_655
B5 B6 1.863934 1_544
B5 Si0 2.013337 1_555
B5 Si2 2.630605 1_555
B6 B7 1.920648 1_555
B6 B8 1.920651 1_555
B7 B8 1.920648 1_555
B8 B9 1.847062 1_656
B10 B3 1.826719 1_545
B10 B5 1.826724 1_455
B10 B7 1.847061 1_445
B10 B11 1.920648 1_555
B10 B9 1.920651 1_555
B11 B4 1.826719 1_554
B11 B3 1.826719 1_545
B11 B6 1.847062 1_544
B11 B9 1.920651 1_555
