# generated using pymatgen
data_Ca3SnH2
_symmetry_space_group_name_H-M   'P 1'
_cell_length_a   5.23839630
_cell_length_b   7.22030012
_cell_length_c   7.22030012
_cell_angle_alpha   104.49953036
_cell_angle_beta   90.00000000
_cell_angle_gamma   90.00000000
_symmetry_Int_Tables_number   1
_chemical_formula_structural   Ca3SnH2
_chemical_formula_sum   'Ca6 Sn2 H4'
_cell_volume   264.39385860
_cell_formula_units_Z   2
loop_
 _symmetry_equiv_pos_site_id
 _symmetry_equiv_pos_as_xyz
  1  'x, y, z'
loop_
 _atom_site_type_symbol
 _atom_site_label
 _atom_site_symmetry_multiplicity
 _atom_site_fract_x
 _atom_site_fract_y
 _atom_site_fract_z
 _atom_site_occupancy
  Ca  Ca0  1  0.25000000  0.88959802  0.11040198  1
  Ca  Ca1  1  0.25000000  0.40768442  0.18645519  1
  Ca  Ca2  1  0.75000000  0.18645519  0.40768442  1
  Ca  Ca3  1  0.25000000  0.81354481  0.59231558  1
  Ca  Ca4  1  0.75000000  0.59231558  0.81354481  1
  Ca  Ca5  1  0.75000000  0.11040198  0.88959802  1
  Sn  Sn0  1  0.75000000  0.69330769  0.30669231  1
  Sn  Sn1  1  0.25000000  0.30669231  0.69330769  1
  H  H0  1  0.00000000  0.15099426  0.15099426  1
  H  H1  1  0.50000000  0.15099426  0.15099426  1
  H  H2  1  -0.00000000  0.84900574  0.84900574  1
  H  H3  1  0.50000000  0.84900574  0.84900574  1
loop_
_geom_bond_atom_site_label_1
_geom_bond_atom_site_label_2
_geom_bond_distance
_geom_bond_site_symmetry_2
Ca0 H3 2.255234 1_554
Ca0 H2 2.255234 1_554
Ca0 H0 2.255234 1_565
Ca0 H1 2.255234 1_565
Ca0 Sn0 3.447226 1_455
Ca0 Sn0 3.447226 1_555
Ca1 H0 2.231144 1_555
Ca1 H1 2.231144 1_555
Ca1 Sn0 3.312157 1_455
Ca1 Sn0 3.312157 1_555
Ca1 Sn1 3.451083 1_554
Ca2 H0 2.231144 1_655
Ca2 H1 2.231144 1_555
Ca2 Sn1 3.312157 1_655
Ca2 Sn1 3.312157 1_555
Ca2 Sn0 3.451083 1_545
Ca3 H3 2.231144 1_555
Ca3 H2 2.231144 1_555
Ca3 Sn0 3.312157 1_455
Ca3 Sn0 3.312157 1_555
Ca3 Sn1 3.451083 1_565
Ca4 H2 2.231144 1_655
Ca4 H3 2.231144 1_555
Ca4 Sn1 3.312157 1_655
Ca4 Sn1 3.312157 1_555
Ca4 Sn0 3.451083 1_556
Ca5 H0 2.255234 1_656
Ca5 H3 2.255234 1_545
Ca5 H1 2.255234 1_556
Ca5 H2 2.255234 1_645
Ca5 Sn1 3.447226 1_655
Ca5 Sn1 3.447226 1_555
