# generated using pymatgen
data_BaAs2Pt
_symmetry_space_group_name_H-M   'P 1'
_cell_length_a   4.63944883
_cell_length_b   4.73452173
_cell_length_c   8.93976655
_cell_angle_alpha   105.35515387
_cell_angle_beta   90.00000000
_cell_angle_gamma   90.00000000
_symmetry_Int_Tables_number   1
_chemical_formula_structural   BaAs2Pt
_chemical_formula_sum   'Ba2 As4 Pt2'
_cell_volume   189.35735678
_cell_formula_units_Z   2
loop_
 _symmetry_equiv_pos_site_id
 _symmetry_equiv_pos_as_xyz
  1  'x, y, z'
loop_
 _atom_site_type_symbol
 _atom_site_label
 _atom_site_symmetry_multiplicity
 _atom_site_fract_x
 _atom_site_fract_y
 _atom_site_fract_z
 _atom_site_occupancy
  Ba  Ba0  1  0.25000000  0.60487493  0.20974887  1
  Ba  Ba1  1  0.75000000  0.39512507  0.79025113  1
  As  As0  1  0.25000000  0.96007743  0.92015587  1
  As  As1  1  0.75000000  0.03992257  0.07984413  1
  As  As2  1  0.75000000  0.75040114  0.50080028  1
  As  As3  1  0.25000000  0.24959886  0.49919972  1
  Pt  Pt0  1  0.75000000  0.18929504  0.37858907  1
  Pt  Pt1  1  0.25000000  0.81070496  0.62141093  1
loop_
_geom_bond_atom_site_label_1
_geom_bond_atom_site_label_2
_geom_bond_distance
_geom_bond_site_symmetry_2
Ba0 Pt1 3.548792 1_555
Ba0 Pt0 3.619884 1_465
Ba0 Pt0 3.619884 1_565
Ba0 Pt0 3.619884 1_455
Ba0 Pt0 3.619884 1_555
Ba1 Pt0 3.548792 1_555
Ba1 Pt1 3.619884 1_545
Ba1 Pt1 3.619884 1_645
Ba1 Pt1 3.619884 1_655
Ba1 Pt1 3.619884 1_555
As0 Pt1 2.575374 1_555
As0 As1 2.697442 1_566
As0 As1 2.697442 1_466
As0 Ba0 3.440393 1_556
As0 Ba0 3.440399 1_566
As0 Ba1 3.498448 1_555
As0 Ba1 3.498448 1_455
As0 Ba1 3.498448 1_565
As0 Ba1 3.498448 1_465
As1 Pt0 2.575374 1_555
As1 Ba1 3.440393 1_554
As1 Ba1 3.440399 1_544
As1 Ba0 3.498448 1_655
As1 Ba0 3.498448 1_555
As1 Ba0 3.498448 1_645
As1 Ba0 3.498448 1_545
As2 Pt1 2.542083 1_655
As2 Pt1 2.542083 1_555
As2 Pt0 2.591112 1_565
As2 Pt0 2.591115 1_555
As2 Ba0 3.417083 1_655
As2 Ba0 3.417083 1_555
As2 Ba1 3.439502 1_565
As2 Ba1 3.439512 1_555
As3 Pt0 2.542083 1_555
As3 Pt0 2.542083 1_455
As3 Pt1 2.591112 1_545
As3 Pt1 2.591115 1_555
As3 Ba1 3.417083 1_555
As3 Ba1 3.417083 1_455
As3 Ba0 3.439502 1_545
As3 Ba0 3.439512 1_555
