# generated using pymatgen
data_Si3As
_symmetry_space_group_name_H-M   'P 1'
_cell_length_a   4.50955653
_cell_length_b   4.50955653
_cell_length_c   4.50955653
_cell_angle_alpha   60.00000000
_cell_angle_beta   60.00000000
_cell_angle_gamma   60.00000000
_symmetry_Int_Tables_number   1
_chemical_formula_structural   Si3As
_chemical_formula_sum   'Si3 As1'
_cell_volume   64.84649505
_cell_formula_units_Z   1
loop_
 _symmetry_equiv_pos_site_id
 _symmetry_equiv_pos_as_xyz
  1  'x, y, z'
loop_
 _atom_site_type_symbol
 _atom_site_label
 _atom_site_symmetry_multiplicity
 _atom_site_fract_x
 _atom_site_fract_y
 _atom_site_fract_z
 _atom_site_occupancy
  Si  Si0  1  0.25000000  0.25000000  0.25000000  1
  Si  Si1  1  0.75000000  0.75000000  0.75000000  1
  Si  Si2  1  0.50000000  0.50000000  0.50000000  1
  As  As0  1  0.00000000  0.00000000  0.00000000  1
loop_
_geom_bond_atom_site_label_1
_geom_bond_atom_site_label_2
_geom_bond_distance
_geom_bond_site_symmetry_2
Si0 Si2 2.761528 1_455
Si0 Si2 2.761528 1_555
Si0 Si2 2.761528 1_545
Si0 Si2 2.761528 1_554
Si1 Si2 2.761528 1_655
Si1 Si2 2.761528 1_565
Si1 Si2 2.761528 1_555
Si1 Si2 2.761528 1_556
As0 Si0 2.761528 1_455
As0 Si1 2.761528 1_544
As0 Si1 2.761528 1_454
As0 Si1 2.761528 1_444
As0 Si1 2.761528 1_445
As0 Si0 2.761528 1_554
As0 Si0 2.761528 1_555
As0 Si0 2.761528 1_545
