# generated using pymatgen
data_MnSn
_symmetry_space_group_name_H-M   'P 1'
_cell_length_a   4.06875000
_cell_length_b   4.06876224
_cell_length_c   5.55092500
_cell_angle_alpha   90.00000000
_cell_angle_beta   90.00000000
_cell_angle_gamma   119.99990045
_symmetry_Int_Tables_number   1
_chemical_formula_structural   MnSn
_chemical_formula_sum   'Mn2 Sn2'
_cell_volume   79.58289722
_cell_formula_units_Z   2
loop_
 _symmetry_equiv_pos_site_id
 _symmetry_equiv_pos_as_xyz
  1  'x, y, z'
loop_
 _atom_site_type_symbol
 _atom_site_label
 _atom_site_symmetry_multiplicity
 _atom_site_fract_x
 _atom_site_fract_y
 _atom_site_fract_z
 _atom_site_occupancy
  Mn  Mn0  1  0.00000000  0.00000000  0.50000000  1
  Mn  Mn1  1  0.00000000  0.00000000  0.00000000  1
  Sn  Sn0  1  0.33325400  0.66650900  0.25000000  1
  Sn  Sn1  1  0.66674600  0.33349100  0.75000000  1
loop_
_geom_bond_atom_site_label_1
_geom_bond_atom_site_label_2
_geom_bond_distance
_geom_bond_site_symmetry_2
Mn0 Sn1 2.727907 1_445
Mn0 Sn0 2.727907 1_555
Mn0 Sn1 2.728617 1_455
Mn0 Sn0 2.728617 1_545
Mn0 Sn1 2.728620 1_555
Mn0 Sn0 2.728620 1_445
Mn1 Sn0 2.727907 1_555
Mn1 Sn1 2.727907 1_444
Mn1 Sn1 2.728617 1_454
Mn1 Sn0 2.728617 1_545
Mn1 Sn1 2.728620 1_554
Mn1 Sn0 2.728620 1_445
