# generated using pymatgen
data_K2AlF5
_symmetry_space_group_name_H-M   'P 1'
_cell_length_a   3.68302049
_cell_length_b   5.89109005
_cell_length_c   5.89109005
_cell_angle_alpha   90.00000000
_cell_angle_beta   90.00000000
_cell_angle_gamma   90.00000000
_symmetry_Int_Tables_number   1
_chemical_formula_structural   K2AlF5
_chemical_formula_sum   'K2 Al1 F5'
_cell_volume   127.81901241
_cell_formula_units_Z   1
loop_
 _symmetry_equiv_pos_site_id
 _symmetry_equiv_pos_as_xyz
  1  'x, y, z'
loop_
 _atom_site_type_symbol
 _atom_site_label
 _atom_site_symmetry_multiplicity
 _atom_site_fract_x
 _atom_site_fract_y
 _atom_site_fract_z
 _atom_site_occupancy
  K  K0  1  0.50000000  0.50000000  -0.00000000  1
  K  K1  1  0.50000000  -0.00000000  0.50000000  1
  Al  Al0  1  0.00000000  -0.00000000  -0.00000000  1
  F  F0  1  0.00000000  0.78548275  0.78548275  1
  F  F1  1  -0.00000000  0.21451725  0.78548275  1
  F  F2  1  0.00000000  0.78548275  0.21451725  1
  F  F3  1  0.50000000  -0.00000000  -0.00000000  1
  F  F4  1  -0.00000000  0.21451725  0.21451725  1
loop_
_geom_bond_atom_site_label_1
_geom_bond_atom_site_label_2
_geom_bond_distance
_geom_bond_site_symmetry_2
Al0 F2 1.787199 1_545
Al0 F1 1.787199 1_554
Al0 F4 1.787199 1_555
Al0 F0 1.787199 1_544
Al0 F3 1.841510 1_455
Al0 F3 1.841510 1_555
F0 K0 2.795830 1_556
F0 K0 2.795830 1_456
F0 K1 2.795830 1_465
F0 K1 2.795830 1_565
F1 K1 2.795830 1_555
F1 K0 2.795830 1_556
F1 K0 2.795830 1_456
F1 K1 2.795830 1_455
F2 K0 2.795830 1_455
F2 K0 2.795830 1_555
F2 K1 2.795830 1_465
F2 K1 2.795830 1_565
F3 K0 2.945545 1_555
F3 K1 2.945545 1_555
F3 K1 2.945545 1_554
F3 K0 2.945545 1_545
F4 K0 2.795830 1_455
F4 K0 2.795830 1_555
F4 K1 2.795830 1_555
F4 K1 2.795830 1_455
