# generated using pymatgen
data_MgP
_symmetry_space_group_name_H-M   'P 1'
_cell_length_a   4.91035878
_cell_length_b   4.91035878
_cell_length_c   4.91035894
_cell_angle_alpha   86.33781751
_cell_angle_beta   86.33781751
_cell_angle_gamma   86.33781752
_symmetry_Int_Tables_number   1
_chemical_formula_structural   MgP
_chemical_formula_sum   'Mg3 P3'
_cell_volume   117.70097474
_cell_formula_units_Z   3
loop_
 _symmetry_equiv_pos_site_id
 _symmetry_equiv_pos_as_xyz
  1  'x, y, z'
loop_
 _atom_site_type_symbol
 _atom_site_label
 _atom_site_symmetry_multiplicity
 _atom_site_fract_x
 _atom_site_fract_y
 _atom_site_fract_z
 _atom_site_occupancy
  Mg  Mg0  1  0.37689300  0.62310700  0.00000000  1
  Mg  Mg1  1  0.62310700  0.00000000  0.37689300  1
  Mg  Mg2  1  0.00000000  0.37689300  0.62310700  1
  P  P0  1  0.12251500  0.12251500  0.12251500  1
  P  P1  1  0.50000000  0.50000000  0.50000000  1
  P  P2  1  0.87748500  0.87748500  0.87748500  1
loop_
_geom_bond_atom_site_label_1
_geom_bond_atom_site_label_2
_geom_bond_distance
_geom_bond_site_symmetry_2
Mg0 P1 2.590765 1_554
Mg0 P1 2.590765 1_555
Mg0 P0 2.763501 1_565
Mg0 P2 2.763501 1_454
Mg0 P2 2.841065 1_554
Mg0 P0 2.841065 1_555
Mg1 P1 2.590765 1_545
Mg1 P1 2.590765 1_555
Mg1 P0 2.763501 1_655
Mg1 P2 2.763501 1_544
Mg1 P0 2.841065 1_555
Mg1 P2 2.841065 1_545
Mg2 P1 2.590765 1_555
Mg2 P1 2.590765 1_455
Mg2 P2 2.763501 1_445
Mg2 P0 2.763501 1_556
Mg2 P2 2.841065 1_455
Mg2 P0 2.841065 1_555
P0 P2 2.213090 1_444
