# generated using pymatgen
data_CdHgO2
_symmetry_space_group_name_H-M   'P 1'
_cell_length_a   3.50434938
_cell_length_b   3.50434910
_cell_length_c   6.43114175
_cell_angle_alpha   102.06046874
_cell_angle_beta   102.06046667
_cell_angle_gamma   59.80581590
_symmetry_Int_Tables_number   1
_chemical_formula_structural   CdHgO2
_chemical_formula_sum   'Cd1 Hg1 O2'
_cell_volume   66.24964536
_cell_formula_units_Z   1
loop_
 _symmetry_equiv_pos_site_id
 _symmetry_equiv_pos_as_xyz
  1  'x, y, z'
loop_
 _atom_site_type_symbol
 _atom_site_label
 _atom_site_symmetry_multiplicity
 _atom_site_fract_x
 _atom_site_fract_y
 _atom_site_fract_z
 _atom_site_occupancy
  Cd  Cd0  1  -0.00000000  -0.00000000  0.00000000  1
  Hg  Hg0  1  0.50000000  0.50000000  0.50000000  1
  O  O0  1  0.62048893  0.62048893  0.81712707  1
  O  O1  1  0.37951107  0.37951107  0.18287293  1
loop_
_geom_bond_atom_site_label_1
_geom_bond_atom_site_label_2
_geom_bond_distance
_geom_bond_site_symmetry_2
Cd0 O1 2.320820 1_545
Cd0 O0 2.320820 1_454
Cd0 O0 2.320820 1_544
Cd0 O1 2.320820 1_455
Cd0 O0 2.322177 1_444
Cd0 O1 2.322177 1_555
Hg0 O1 1.993912 1_555
Hg0 O0 1.993912 1_555
