# generated using pymatgen
data_RbPrS2
_symmetry_space_group_name_H-M   'P 1'
_cell_length_a   8.06805522
_cell_length_b   8.06805522
_cell_length_c   8.06805458
_cell_angle_alpha   30.54151737
_cell_angle_beta   30.54151737
_cell_angle_gamma   30.54151608
_symmetry_Int_Tables_number   1
_chemical_formula_structural   RbPrS2
_chemical_formula_sum   'Rb1 Pr1 S2'
_cell_volume   120.22376104
_cell_formula_units_Z   1
loop_
 _symmetry_equiv_pos_site_id
 _symmetry_equiv_pos_as_xyz
  1  'x, y, z'
loop_
 _atom_site_type_symbol
 _atom_site_label
 _atom_site_symmetry_multiplicity
 _atom_site_fract_x
 _atom_site_fract_y
 _atom_site_fract_z
 _atom_site_occupancy
  Rb  Rb0  1  -0.00000000  -0.00000000  0.00000000  1
  Pr  Pr0  1  0.50000000  0.50000000  0.50000000  1
  S  S0  1  0.76683009  0.76683009  0.76683009  1
  S  S1  1  0.23316991  0.23316991  0.23316991  1
loop_
_geom_bond_atom_site_label_1
_geom_bond_atom_site_label_2
_geom_bond_distance
_geom_bond_site_symmetry_2
Rb0 S0 3.369660 1_445
Rb0 S1 3.369660 1_554
Rb0 S1 3.369661 1_545
Rb0 S1 3.369661 1_455
Rb0 S0 3.369661 1_454
Rb0 S0 3.369661 1_544
Pr0 S1 2.893442 1_556
Pr0 S0 2.893442 1_554
Pr0 S1 2.893442 1_655
Pr0 S0 2.893442 1_455
Pr0 S1 2.893442 1_565
Pr0 S0 2.893442 1_545
