# generated using pymatgen
data_Li3Co
_symmetry_space_group_name_H-M   'P 1'
_cell_length_a   4.72146569
_cell_length_b   4.72146569
_cell_length_c   4.72146569
_cell_angle_alpha   132.38610712
_cell_angle_beta   132.38610712
_cell_angle_gamma   69.61989203
_symmetry_Int_Tables_number   1
_chemical_formula_structural   Li3Co
_chemical_formula_sum   'Li3 Co1'
_cell_volume   56.32270167
_cell_formula_units_Z   1
loop_
 _symmetry_equiv_pos_site_id
 _symmetry_equiv_pos_as_xyz
  1  'x, y, z'
loop_
 _atom_site_type_symbol
 _atom_site_label
 _atom_site_symmetry_multiplicity
 _atom_site_fract_x
 _atom_site_fract_y
 _atom_site_fract_z
 _atom_site_occupancy
  Li  Li0  1  0.75000000  0.25000000  0.50000000  1
  Li  Li1  1  0.25000000  0.75000000  0.50000000  1
  Li  Li2  1  0.50000000  0.50000000  0.00000000  1
  Co  Co0  1  0.00000000  0.00000000  0.00000000  1
loop_
_geom_bond_atom_site_label_1
_geom_bond_atom_site_label_2
_geom_bond_distance
_geom_bond_site_symmetry_2
Co0 Li2 2.695278 1_455
Co0 Li2 2.695278 1_556
Co0 Li2 2.695278 1_444
Co0 Li2 2.695278 1_545
Co0 Li0 2.718306 1_455
Co0 Li0 2.718306 1_454
Co0 Li0 2.718306 1_555
Co0 Li1 2.718306 1_555
Co0 Li0 2.718306 1_444
Co0 Li1 2.718306 1_545
Co0 Li1 2.718306 1_444
Co0 Li1 2.718306 1_544
