# generated using pymatgen
data_C
_symmetry_space_group_name_H-M   'P 1'
_cell_length_a   2.45611356
_cell_length_b   2.45611356
_cell_length_c   7.17326776
_cell_angle_alpha   90.00000000
_cell_angle_beta   90.00000000
_cell_angle_gamma   120.00047453
_symmetry_Int_Tables_number   1
_chemical_formula_structural   C
_chemical_formula_sum   C4
_cell_volume   37.47507250
_cell_formula_units_Z   4
loop_
 _symmetry_equiv_pos_site_id
 _symmetry_equiv_pos_as_xyz
  1  'x, y, z'
loop_
 _atom_site_type_symbol
 _atom_site_label
 _atom_site_symmetry_multiplicity
 _atom_site_fract_x
 _atom_site_fract_y
 _atom_site_fract_z
 _atom_site_occupancy
  C  C0  1  0.58337946  0.41662054  0.75313760  1
  C  C1  1  0.08337946  0.91662054  0.24686240  1
  C  C2  1  0.41662054  0.58337946  0.24686240  1
  C  C3  1  0.91662054  0.08337946  0.75313760  1
loop_
_geom_bond_atom_site_label_1
_geom_bond_atom_site_label_2
_geom_bond_distance
_geom_bond_site_symmetry_2
C0 C3 1.417649 1_555
C0 C3 1.418227 1_565
C0 C3 1.418227 1_455
C1 C2 1.417649 1_555
C1 C2 1.418227 1_455
C1 C2 1.418227 1_565
