# generated using pymatgen
data_LiHf
_symmetry_space_group_name_H-M   'P 1'
_cell_length_a   5.91921030
_cell_length_b   5.91921030
_cell_length_c   10.92522600
_cell_angle_alpha   90.00000000
_cell_angle_beta   90.00000000
_cell_angle_gamma   119.99998100
_symmetry_Int_Tables_number   1
_chemical_formula_structural   LiHf
_chemical_formula_sum   'Li8 Hf8'
_cell_volume   331.50393243
_cell_formula_units_Z   8
loop_
 _symmetry_equiv_pos_site_id
 _symmetry_equiv_pos_as_xyz
  1  'x, y, z'
loop_
 _atom_site_type_symbol
 _atom_site_label
 _atom_site_symmetry_multiplicity
 _atom_site_fract_x
 _atom_site_fract_y
 _atom_site_fract_z
 _atom_site_occupancy
  Li  Li0_0  1  0.00000000  0.00000000  0.00000000  1
  Li  Li0_1  1  0.00000000  0.00000000  0.50000000  1
  Li  Li0_2  1  0.00000000  0.50000000  0.00000000  1
  Li  Li0_3  1  0.00000000  0.50000000  0.50000000  1
  Li  Li0_4  1  0.50000000  0.00000000  0.00000000  1
  Li  Li0_5  1  0.50000000  0.00000000  0.50000000  1
  Li  Li0_6  1  0.50000000  0.50000000  0.00000000  1
  Li  Li0_7  1  0.50000000  0.50000000  0.50000000  1
  Hf  Hf0_0  1  0.16666650  0.33333350  0.25000000  1
  Hf  Hf0_1  1  0.16666650  0.33333350  0.75000000  1
  Hf  Hf0_2  1  0.16666650  0.83333350  0.25000000  1
  Hf  Hf0_3  1  0.16666650  0.83333350  0.75000000  1
  Hf  Hf0_4  1  0.66666650  0.33333350  0.25000000  1
  Hf  Hf0_5  1  0.66666650  0.33333350  0.75000000  1
  Hf  Hf0_6  1  0.66666650  0.83333350  0.25000000  1
  Hf  Hf0_7  1  0.66666650  0.83333350  0.75000000  1
loop_
_geom_bond_atom_site_label_1
_geom_bond_atom_site_label_2
_geom_bond_distance
_geom_bond_site_symmetry_2
Li0_0 Li0_2 2.959605 1_555
Li0_0 Li0_2 2.959605 1_545
Li0_0 Li0_4 2.959605 1_555
Li0_0 Li0_4 2.959605 1_455
Li0_0 Li0_6 2.959606 1_555
Li0_0 Li0_6 2.959606 1_445
Li0_1 Li0_3 2.959605 1_545
Li0_1 Li0_3 2.959605 1_555
Li0_1 Li0_5 2.959605 1_455
Li0_1 Li0_5 2.959605 1_555
Li0_1 Li0_7 2.959606 1_445
Li0_1 Li0_7 2.959606 1_555
Li0_2 Li0_6 2.959605 1_555
Li0_2 Li0_6 2.959605 1_455
Li0_2 Li0_4 2.959606 1_455
Li0_2 Li0_4 2.959606 1_565
Li0_3 Li0_7 2.959605 1_455
Li0_3 Li0_7 2.959605 1_555
Li0_3 Li0_5 2.959606 1_565
Li0_3 Li0_5 2.959606 1_455
Li0_4 Li0_6 2.959605 1_555
Li0_4 Li0_6 2.959605 1_545
Li0_5 Li0_7 2.959605 1_555
Li0_5 Li0_7 2.959605 1_545
Hf0_0 Hf0_4 2.959605 1_555
Hf0_0 Hf0_2 2.959605 1_545
Hf0_0 Hf0_2 2.959605 1_555
Hf0_0 Hf0_4 2.959605 1_455
Hf0_0 Hf0_6 2.959606 1_555
Hf0_0 Hf0_6 2.959606 1_445
Hf0_0 Li0_2 3.221767 1_555
Hf0_0 Li0_3 3.221767 1_555
Hf0_0 Li0_6 3.221769 1_555
Hf0_0 Li0_0 3.221769 1_555
Hf0_0 Li0_7 3.221769 1_555
Hf0_0 Li0_1 3.221769 1_555
Hf0_1 Hf0_5 2.959605 1_555
Hf0_1 Hf0_3 2.959605 1_545
Hf0_1 Hf0_3 2.959605 1_555
Hf0_1 Hf0_5 2.959605 1_455
Hf0_1 Hf0_7 2.959606 1_555
Hf0_1 Hf0_7 2.959606 1_445
Hf0_1 Li0_2 3.221767 1_556
Hf0_1 Li0_3 3.221767 1_555
Hf0_1 Li0_0 3.221769 1_556
Hf0_1 Li0_6 3.221769 1_556
Hf0_1 Li0_1 3.221769 1_555
Hf0_1 Li0_7 3.221769 1_555
Hf0_2 Hf0_6 2.959605 1_555
Hf0_2 Hf0_6 2.959605 1_455
Hf0_2 Hf0_4 2.959606 1_565
Hf0_2 Hf0_4 2.959606 1_455
Hf0_2 Li0_0 3.221767 1_565
Hf0_2 Li0_1 3.221767 1_565
Hf0_2 Li0_2 3.221769 1_555
Hf0_2 Li0_5 3.221769 1_565
Hf0_2 Li0_3 3.221769 1_555
Hf0_2 Li0_4 3.221769 1_565
Hf0_3 Hf0_7 2.959605 1_555
Hf0_3 Hf0_7 2.959605 1_455
Hf0_3 Hf0_5 2.959606 1_565
Hf0_3 Hf0_5 2.959606 1_455
Hf0_3 Li0_0 3.221767 1_566
Hf0_3 Li0_1 3.221767 1_565
Hf0_3 Li0_4 3.221769 1_566
Hf0_3 Li0_2 3.221769 1_556
Hf0_3 Li0_5 3.221769 1_565
Hf0_3 Li0_3 3.221769 1_555
Hf0_4 Hf0_6 2.959605 1_545
Hf0_4 Hf0_6 2.959605 1_555
Hf0_4 Li0_6 3.221767 1_555
Hf0_4 Li0_7 3.221767 1_555
Hf0_4 Li0_2 3.221769 1_655
Hf0_4 Li0_4 3.221769 1_555
Hf0_4 Li0_3 3.221769 1_655
Hf0_4 Li0_5 3.221769 1_555
Hf0_5 Hf0_7 2.959605 1_545
Hf0_5 Hf0_7 2.959605 1_555
Hf0_5 Li0_6 3.221767 1_556
Hf0_5 Li0_7 3.221767 1_555
Hf0_5 Li0_4 3.221769 1_556
Hf0_5 Li0_2 3.221769 1_656
Hf0_5 Li0_3 3.221769 1_655
Hf0_5 Li0_5 3.221769 1_555
Hf0_6 Li0_4 3.221767 1_565
Hf0_6 Li0_5 3.221767 1_565
Hf0_6 Li0_6 3.221769 1_555
Hf0_6 Li0_7 3.221769 1_555
Hf0_6 Li0_0 3.221769 1_665
Hf0_6 Li0_1 3.221769 1_665
Hf0_7 Li0_4 3.221767 1_566
Hf0_7 Li0_5 3.221767 1_565
Hf0_7 Li0_7 3.221769 1_555
Hf0_7 Li0_6 3.221769 1_556
Hf0_7 Li0_0 3.221769 1_666
Hf0_7 Li0_1 3.221769 1_665
