# generated using pymatgen
data_Y5(In2Pd)2
_symmetry_space_group_name_H-M   'P 1'
_cell_length_a   3.64711218
_cell_length_b   8.07567589
_cell_length_c   18.24320832
_cell_angle_alpha   90.00000000
_cell_angle_beta   90.00000000
_cell_angle_gamma   90.00000000
_symmetry_Int_Tables_number   1
_chemical_formula_structural   Y5(In2Pd)2
_chemical_formula_sum   'Y10 In8 Pd4'
_cell_volume   537.31531553
_cell_formula_units_Z   2
loop_
 _symmetry_equiv_pos_site_id
 _symmetry_equiv_pos_as_xyz
  1  'x, y, z'
loop_
 _atom_site_type_symbol
 _atom_site_label
 _atom_site_symmetry_multiplicity
 _atom_site_fract_x
 _atom_site_fract_y
 _atom_site_fract_z
 _atom_site_occupancy
  Y  Y0  1  0.50000000  0.24099242  0.78132573  1
  Y  Y1  1  0.50000000  0.75900758  0.21867427  1
  Y  Y2  1  0.50000000  0.25900758  0.28132573  1
  Y  Y3  1  0.50000000  0.74099242  0.71867427  1
  Y  Y4  1  0.50000000  0.11759136  0.58285892  1
  Y  Y5  1  0.50000000  0.88240864  0.41714108  1
  Y  Y6  1  0.50000000  0.38240864  0.08285892  1
  Y  Y7  1  0.50000000  0.61759136  0.91714108  1
  Y  Y8  1  0.50000000  0.00000000  -0.00000000  1
  Y  Y9  1  0.50000000  0.50000000  0.50000000  1
  In  In0  1  0.00000000  0.07905996  0.15068899  1
  In  In1  1  -0.00000000  0.92094004  0.84931101  1
  In  In2  1  0.00000000  0.42094004  0.65068899  1
  In  In3  1  0.00000000  0.57905996  0.34931101  1
  In  In4  1  -0.00000000  0.20897927  0.43139079  1
  In  In5  1  0.00000000  0.79102073  0.56860921  1
  In  In6  1  -0.00000000  0.29102073  0.93139079  1
  In  In7  1  -0.00000000  0.70897927  0.06860921  1
  Pd  Pd0  1  0.00000000  0.02624262  0.69557693  1
  Pd  Pd1  1  0.00000000  0.97375738  0.30442307  1
  Pd  Pd2  1  0.00000000  0.47375738  0.19557693  1
  Pd  Pd3  1  0.00000000  0.52624262  0.80442307  1
loop_
_geom_bond_atom_site_label_1
_geom_bond_atom_site_label_2
_geom_bond_distance
_geom_bond_site_symmetry_2
In0 Pd1 2.930693 1_545
In0 Pd2 3.290961 1_555
In0 Y6 3.295127 1_455
In0 Y6 3.295127 1_555
In0 Y2 3.334208 1_455
In0 Y2 3.334208 1_555
In0 In7 3.342789 1_545
In0 Y8 3.360100 1_455
In0 Y8 3.360100 1_555
In0 Y1 3.397644 1_545
In0 Y1 3.397644 1_445
In1 Pd0 2.930693 1_565
In1 Pd3 3.290961 1_555
In1 Y7 3.295127 1_455
In1 Y7 3.295127 1_555
In1 Y3 3.334208 1_455
In1 Y3 3.334208 1_555
In1 In6 3.342789 1_565
In1 Y8 3.360100 1_466
In1 Y8 3.360100 1_566
In1 Y0 3.397644 1_565
In1 Y0 3.397644 1_465
In2 Pd3 2.930693 1_555
In2 Pd0 3.290961 1_555
In2 Y4 3.295127 1_455
In2 Y4 3.295127 1_555
In2 Y0 3.334208 1_455
In2 Y0 3.334208 1_555
In2 In5 3.342789 1_555
In2 Y9 3.360100 1_455
In2 Y9 3.360100 1_555
In2 Y3 3.397644 1_455
In2 Y3 3.397644 1_555
In3 Pd2 2.930693 1_555
In3 Pd1 3.290961 1_555
In3 Y5 3.295127 1_455
In3 Y5 3.295127 1_555
In3 Y1 3.334208 1_555
In3 Y1 3.334208 1_455
In3 In4 3.342789 1_555
In3 Y9 3.360100 1_455
In3 Y9 3.360100 1_555
In3 Y2 3.397644 1_455
In3 Y2 3.397644 1_555
In4 Pd1 2.995601 1_545
In4 Y5 3.216858 1_445
In4 Y5 3.216858 1_545
In4 Y9 3.227287 1_555
In4 Y9 3.227287 1_455
In4 Y2 3.314123 1_555
In4 Y2 3.314123 1_455
In4 Y4 3.391999 1_455
In4 Y4 3.391999 1_555
In5 Pd0 2.995601 1_565
In5 Y4 3.216858 1_565
In5 Y4 3.216858 1_465
In5 Y9 3.227287 1_455
In5 Y9 3.227287 1_555
In5 Y3 3.314123 1_555
In5 Y3 3.314123 1_455
In5 Y5 3.391999 1_555
In5 Y5 3.391999 1_455
In6 Pd3 2.995601 1_555
In6 Y7 3.216858 1_455
In6 Y7 3.216858 1_555
In6 Y8 3.227287 1_456
In6 Y8 3.227287 1_556
In6 Y0 3.314123 1_555
In6 Y0 3.314123 1_455
In6 Y6 3.391999 1_556
In6 Y6 3.391999 1_456
In7 Pd2 2.995601 1_555
In7 Y6 3.216858 1_455
In7 Y6 3.216858 1_555
In7 Y8 3.227287 1_565
In7 Y8 3.227287 1_465
In7 Y1 3.314123 1_455
In7 Y1 3.314123 1_555
In7 Y7 3.391999 1_554
In7 Y7 3.391999 1_454
Pd0 Y4 2.845714 1_455
Pd0 Y4 2.845714 1_555
Pd0 Y0 2.963126 1_555
Pd0 Y0 2.963126 1_455
Pd0 Y3 2.968068 1_545
Pd0 Y3 2.968068 1_445
Pd1 Y5 2.845714 1_455
Pd1 Y5 2.845714 1_555
Pd1 Y1 2.963126 1_455
Pd1 Y1 2.963126 1_555
Pd1 Y2 2.968068 1_465
Pd1 Y2 2.968068 1_565
Pd2 Y6 2.845714 1_455
Pd2 Y6 2.845714 1_555
Pd2 Y2 2.963126 1_555
Pd2 Y2 2.963126 1_455
Pd2 Y1 2.968068 1_455
Pd2 Y1 2.968068 1_555
Pd3 Y7 2.845714 1_455
Pd3 Y7 2.845714 1_555
Pd3 Y3 2.963126 1_455
Pd3 Y3 2.963126 1_555
Pd3 Y0 2.968068 1_455
Pd3 Y0 2.968068 1_555
