# generated using pymatgen
data_Y(Mg4Al3)4
_symmetry_space_group_name_H-M   'P 1'
_cell_length_a   9.23914175
_cell_length_b   9.23914175
_cell_length_c   9.23914188
_cell_angle_alpha   110.18700118
_cell_angle_beta   110.18700118
_cell_angle_gamma   110.18700656
_symmetry_Int_Tables_number   1
_chemical_formula_structural   Y(Mg4Al3)4
_chemical_formula_sum   'Y1 Mg16 Al12'
_cell_volume   590.48114555
_cell_formula_units_Z   1
loop_
 _symmetry_equiv_pos_site_id
 _symmetry_equiv_pos_as_xyz
  1  'x, y, z'
loop_
 _atom_site_type_symbol
 _atom_site_label
 _atom_site_symmetry_multiplicity
 _atom_site_fract_x
 _atom_site_fract_y
 _atom_site_fract_z
 _atom_site_occupancy
  Y  Y0  1  0.62925600  0.62925600  0.62925600  1
  Mg  Mg0  1  0.34577100  0.00433900  0.00433900  1
  Mg  Mg1  1  0.28234500  0.68456500  0.68456500  1
  Mg  Mg2  1  0.00188700  0.00188700  0.00188700  1
  Mg  Mg3  1  0.71990400  0.38953000  0.38953000  1
  Mg  Mg4  1  0.99868800  0.60574300  0.31124900  1
  Mg  Mg5  1  0.60574300  0.31124900  0.99868800  1
  Mg  Mg6  1  0.38953000  0.71990400  0.38953000  1
  Mg  Mg7  1  0.00433900  0.34577100  0.00433900  1
  Mg  Mg8  1  0.31124900  0.99868800  0.60574300  1
  Mg  Mg9  1  0.68456500  0.68456500  0.28234500  1
  Mg  Mg10  1  0.68456500  0.28234500  0.68456500  1
  Mg  Mg11  1  0.31124900  0.60574300  0.99868800  1
  Mg  Mg12  1  0.00433900  0.00433900  0.34577100  1
  Mg  Mg13  1  0.38953000  0.38953000  0.71990400  1
  Mg  Mg14  1  0.60574300  0.99868800  0.31124900  1
  Mg  Mg15  1  0.99868800  0.31124900  0.60574300  1
  Al  Al0  1  0.18912100  0.37217600  0.37217600  1
  Al  Al1  1  0.82594600  0.18962300  0.18962300  1
  Al  Al2  1  0.99849200  0.81369600  0.63479000  1
  Al  Al3  1  0.37217600  0.37217600  0.18912100  1
  Al  Al4  1  0.63479000  0.99849200  0.81369600  1
  Al  Al5  1  0.18962300  0.18962300  0.82594600  1
  Al  Al6  1  0.81369600  0.99849200  0.63479000  1
  Al  Al7  1  0.81369600  0.63479000  0.99849200  1
  Al  Al8  1  0.18962300  0.82594600  0.18962300  1
  Al  Al9  1  0.63479000  0.81369600  0.99849200  1
  Al  Al10  1  0.37217600  0.18912100  0.37217600  1
  Al  Al11  1  0.99849200  0.63479000  0.81369600  1
loop_
_geom_bond_atom_site_label_1
_geom_bond_atom_site_label_2
_geom_bond_distance
_geom_bond_site_symmetry_2
Mg0 Mg5 3.049682 1_554
Mg0 Mg14 3.049683 1_545
Mg0 Mg1 3.063774 1_544
Mg0 Mg2 3.161625 1_555
Mg0 Mg3 3.399615 1_555
Mg1 Mg15 3.163169 1_455
Mg1 Mg4 3.163169 1_455
Mg1 Mg8 3.175311 1_555
Mg1 Mg11 3.175311 1_555
Mg1 Mg6 3.282045 1_555
Mg1 Mg13 3.282045 1_555
Mg1 Y0 3.588299 1_555
Mg2 Mg7 3.161625 1_555
Mg2 Y0 3.319193 1_444
Mg3 Y0 3.112464 1_555
Mg3 Mg5 3.117297 1_554
Mg3 Mg4 3.143191 1_555
Mg3 Mg9 3.282045 1_555
Mg4 Mg7 3.049683 1_655
Mg4 Mg8 3.073535 1_655
Mg4 Mg5 3.073535 1_554
Mg4 Mg6 3.117297 1_655
Mg4 Mg9 3.175311 1_555
Mg5 Mg8 3.073535 1_545
Mg5 Mg9 3.163169 1_556
Mg6 Y0 3.112464 1_555
Mg6 Mg8 3.143191 1_555
Mg6 Mg9 3.282045 1_555
Mg6 Mg7 3.399615 1_555
Mg9 Y0 3.588299 1_555
Mg10 Mg7 3.063774 1_656
Mg10 Mg8 3.163169 1_545
Mg10 Mg14 3.163169 1_545
Mg10 Mg15 3.175311 1_555
Mg10 Mg5 3.175311 1_555
Mg10 Mg3 3.282045 1_555
Mg10 Mg13 3.282045 1_555
Mg10 Y0 3.588299 1_555
Mg11 Mg7 3.049682 1_556
Mg11 Mg14 3.073535 1_556
Mg11 Mg15 3.073535 1_455
Mg11 Mg6 3.117297 1_556
Mg11 Mg13 3.143191 1_555
Mg11 Mg9 3.163169 1_556
Mg12 Mg8 3.049683 1_545
Mg12 Mg15 3.049683 1_455
Mg12 Mg9 3.063774 1_445
Mg12 Mg2 3.161625 1_555
Mg12 Mg13 3.399615 1_555
Mg13 Y0 3.112464 1_555
Mg13 Mg8 3.117297 1_545
Mg13 Mg15 3.117297 1_455
Mg13 Mg5 3.143191 1_555
Mg14 Mg15 3.073535 1_565
Mg14 Mg3 3.117297 1_565
Mg14 Mg6 3.143191 1_555
Mg14 Mg9 3.175311 1_555
Mg15 Mg3 3.143191 1_555
Al0 Al1 2.678270 1_455
Al0 Al3 2.773979 1_555
Al0 Al10 2.773979 1_555
Al0 Mg1 2.867327 1_555
Al0 Mg6 3.018218 1_555
Al0 Mg13 3.018218 1_555
Al0 Mg12 3.108035 1_555
Al0 Mg7 3.108036 1_555
Al0 Mg2 3.186532 1_555
Al0 Y0 3.254751 1_555
Al0 Mg15 3.293105 1_455
Al0 Mg4 3.293105 1_455
Al1 Al9 2.771604 1_544
Al1 Al4 2.771604 1_544
Al1 Mg3 2.815295 1_555
Al1 Mg14 2.997138 1_545
Al1 Mg5 2.997138 1_554
Al1 Mg7 3.120745 1_655
Al1 Mg12 3.120745 1_655
Al1 Mg4 3.183785 1_555
Al1 Mg15 3.183785 1_555
Al1 Mg2 3.236513 1_655
Al2 Al5 2.771604 1_665
Al2 Al6 2.800362 1_555
Al2 Mg4 2.944368 1_555
Al2 Mg8 2.964162 1_655
Al2 Mg9 2.975117 1_555
Al2 Mg0 3.072932 1_666
Al2 Mg3 3.162550 1_555
Al2 Mg1 3.196628 1_655
Al2 Mg2 3.216582 1_666
Al2 Y0 3.217389 1_555
Al3 Al5 2.678270 1_554
Al3 Mg9 2.867327 1_555
Al3 Mg6 3.018218 1_555
Al3 Mg3 3.018218 1_555
Al3 Mg0 3.108036 1_555
Al3 Mg7 3.108036 1_555
Al3 Mg2 3.186532 1_555
Al3 Y0 3.254751 1_555
Al3 Mg5 3.293105 1_554
Al3 Mg11 3.293105 1_554
Al4 Al6 2.711106 1_555
Al4 Al9 2.800362 1_555
Al4 Mg8 2.944368 1_555
Al4 Mg5 2.964162 1_565
Al4 Mg1 2.975117 1_555
Al4 Mg7 3.072932 1_666
Al4 Mg6 3.162551 1_555
Al4 Mg10 3.196628 1_565
Al4 Mg2 3.216582 1_666
Al4 Y0 3.217389 1_555
Al5 Al6 2.771604 1_445
Al5 Mg13 2.815295 1_555
Al5 Mg15 2.997138 1_455
Al5 Mg8 2.997138 1_545
Al5 Mg0 3.120745 1_556
Al5 Mg7 3.120745 1_556
Al5 Mg11 3.183785 1_555
Al5 Mg5 3.183785 1_555
Al5 Mg2 3.236513 1_556
Al6 Mg14 2.944368 1_555
Al6 Mg15 2.964162 1_565
Al6 Mg9 2.975117 1_555
Al6 Mg7 3.072932 1_666
Al6 Mg6 3.162550 1_555
Al6 Mg10 3.196628 1_565
Al6 Mg2 3.216582 1_666
Al6 Y0 3.217389 1_555
Al7 Al9 2.711106 1_555
Al7 Al8 2.771604 1_656
Al7 Mg5 2.944368 1_555
Al7 Mg4 2.964162 1_556
Al7 Mg10 2.975117 1_555
Al7 Mg12 3.072932 1_666
Al7 Mg13 3.162551 1_555
Al7 Mg9 3.196628 1_556
Al7 Mg2 3.216581 1_666
Al7 Y0 3.217389 1_555
Al8 Mg6 2.815295 1_555
Al8 Mg4 2.997138 1_455
Al8 Mg11 2.997138 1_554
Al8 Mg0 3.120745 1_565
Al8 Mg12 3.120745 1_565
Al8 Mg14 3.183785 1_555
Al8 Mg8 3.183785 1_555
Al8 Mg2 3.236513 1_565
Al9 Mg11 2.944368 1_555
Al9 Mg14 2.964162 1_556
Al9 Mg1 2.975117 1_555
Al9 Mg12 3.072932 1_666
Al9 Mg13 3.162551 1_555
Al9 Mg9 3.196628 1_556
Al9 Mg2 3.216581 1_666
Al9 Y0 3.217389 1_555
Al10 Al8 2.678270 1_545
Al10 Al3 2.773979 1_555
Al10 Mg10 2.867327 1_555
Al10 Mg3 3.018218 1_555
Al10 Mg13 3.018218 1_555
Al10 Mg12 3.108035 1_555
Al10 Mg0 3.108036 1_555
Al10 Mg2 3.186532 1_555
Al10 Y0 3.254751 1_555
Al10 Mg8 3.293105 1_545
Al10 Mg14 3.293105 1_545
Al11 Al2 2.711106 1_555
Al11 Al8 2.771604 1_656
Al11 Al7 2.800362 1_555
Al11 Mg15 2.944368 1_555
Al11 Mg11 2.964162 1_655
Al11 Mg10 2.975117 1_555
Al11 Mg0 3.072932 1_666
Al11 Mg3 3.162551 1_555
Al11 Mg1 3.196628 1_655
Al11 Mg2 3.216582 1_666
Al11 Y0 3.217389 1_555
