# generated using pymatgen
data_RbOsO3
_symmetry_space_group_name_H-M   'P 1'
_cell_length_a   5.46965664
_cell_length_b   5.48328064
_cell_length_c   6.92761349
_cell_angle_alpha   66.78673358
_cell_angle_beta   66.84335152
_cell_angle_gamma   59.91492004
_symmetry_Int_Tables_number   1
_chemical_formula_structural   RbOsO3
_chemical_formula_sum   'Rb2 Os2 O6'
_cell_volume   160.14665193
_cell_formula_units_Z   2
loop_
 _symmetry_equiv_pos_site_id
 _symmetry_equiv_pos_as_xyz
  1  'x, y, z'
loop_
 _atom_site_type_symbol
 _atom_site_label
 _atom_site_symmetry_multiplicity
 _atom_site_fract_x
 _atom_site_fract_y
 _atom_site_fract_z
 _atom_site_occupancy
  Rb  Rb0  1  0.86370503  0.86203225  0.41192848  1
  Rb  Rb1  1  0.13629862  0.13796748  0.58806626  1
  Os  Os0  1  0.66525903  0.66609215  0.00247962  1
  Os  Os1  1  0.33473901  0.33390356  0.99752753  1
  O  O0  1  0.46719483  0.64918739  0.82716335  1
  O  O1  1  0.05497891  0.46615138  0.82789904  1
  O  O2  1  0.64927651  0.05524335  0.82717891  1
  O  O3  1  0.53278229  0.35079420  0.17283834  1
  O  O4  1  0.35070624  0.94479731  0.17282061  1
  O  O5  1  0.94506354  0.53382593  0.17209986  1
loop_
_geom_bond_atom_site_label_1
_geom_bond_atom_site_label_2
_geom_bond_distance
_geom_bond_site_symmetry_2
O0 Os1 1.970101 1_555
O0 Os0 1.970162 1_556
O0 Rb1 2.682793 1_565
O0 Rb0 3.053667 1_555
O1 Os1 1.969329 1_555
O1 Os0 1.970573 1_456
O1 Rb1 2.677656 1_555
O1 Rb0 3.045295 1_455
O2 Os1 1.968842 1_555
O2 Os0 1.972144 1_546
O2 Rb1 2.682232 1_655
O2 Rb0 3.045738 1_545
O3 Os1 1.969993 1_554
O3 Os0 1.970226 1_555
O3 Rb0 2.682789 1_545
O3 Rb1 3.053529 1_555
O4 Os0 1.968975 1_555
O4 Os1 1.971953 1_564
O4 Rb0 2.682226 1_455
O4 Rb1 3.045607 1_565
O5 Os0 1.969460 1_555
O5 Os1 1.970387 1_654
O5 Rb0 2.677647 1_555
O5 Rb1 3.045175 1_655
