# generated using pymatgen
data_ScZn2Au
_symmetry_space_group_name_H-M   'P 1'
_cell_length_a   4.55398122
_cell_length_b   4.55398122
_cell_length_c   4.55398122
_cell_angle_alpha   60.00000000
_cell_angle_beta   60.00000000
_cell_angle_gamma   60.00000000
_symmetry_Int_Tables_number   1
_chemical_formula_structural   ScZn2Au
_chemical_formula_sum   'Sc1 Zn2 Au1'
_cell_volume   66.78189021
_cell_formula_units_Z   1
loop_
 _symmetry_equiv_pos_site_id
 _symmetry_equiv_pos_as_xyz
  1  'x, y, z'
loop_
 _atom_site_type_symbol
 _atom_site_label
 _atom_site_symmetry_multiplicity
 _atom_site_fract_x
 _atom_site_fract_y
 _atom_site_fract_z
 _atom_site_occupancy
  Sc  Sc0  1  0.00000000  0.00000000  0.00000000  1
  Zn  Zn0  1  0.25000000  0.25000000  0.25000000  1
  Zn  Zn1  1  0.75000000  0.75000000  0.75000000  1
  Au  Au0  1  0.50000000  0.50000000  0.50000000  1
loop_
_geom_bond_atom_site_label_1
_geom_bond_atom_site_label_2
_geom_bond_distance
_geom_bond_site_symmetry_2
Sc0 Zn0 2.788733 1_554
Sc0 Zn1 2.788733 1_454
Sc0 Zn1 2.788733 1_445
Sc0 Zn0 2.788733 1_555
Sc0 Zn0 2.788733 1_545
Sc0 Zn1 2.788733 1_444
Sc0 Zn0 2.788733 1_455
Sc0 Zn1 2.788733 1_544
Au0 Zn1 2.788733 1_554
Au0 Zn0 2.788733 1_565
Au0 Zn0 2.788733 1_555
Au0 Zn0 2.788733 1_556
Au0 Zn1 2.788733 1_545
Au0 Zn1 2.788733 1_555
Au0 Zn0 2.788733 1_655
Au0 Zn1 2.788733 1_455
Au0 Sc0 3.220151 1_556
Au0 Sc0 3.220151 1_656
Au0 Sc0 3.220151 1_665
Au0 Sc0 3.220151 1_565
Au0 Sc0 3.220151 1_566
Au0 Sc0 3.220151 1_655
