# generated using pymatgen
data_SmCd3
_symmetry_space_group_name_H-M   'P 1'
_cell_length_a   6.69739413
_cell_length_b   6.69739463
_cell_length_c   4.95080160
_cell_angle_alpha   90.00000000
_cell_angle_beta   90.00000000
_cell_angle_gamma   120.00000273
_symmetry_Int_Tables_number   1
_chemical_formula_structural   SmCd3
_chemical_formula_sum   'Sm2 Cd6'
_cell_volume   192.31709437
_cell_formula_units_Z   2
loop_
 _symmetry_equiv_pos_site_id
 _symmetry_equiv_pos_as_xyz
  1  'x, y, z'
loop_
 _atom_site_type_symbol
 _atom_site_label
 _atom_site_symmetry_multiplicity
 _atom_site_fract_x
 _atom_site_fract_y
 _atom_site_fract_z
 _atom_site_occupancy
  Sm  Sm0  1  0.33333400  0.66666700  0.75000100  1
  Sm  Sm1  1  0.66666600  0.33333300  0.25000000  1
  Cd  Cd0  1  0.15890712  0.31781325  0.25000000  1
  Cd  Cd1  1  0.68218475  0.84109288  0.25000000  1
  Cd  Cd2  1  0.15890812  0.84109288  0.25000000  1
  Cd  Cd3  1  0.84109288  0.68218675  0.75000100  1
  Cd  Cd4  1  0.31781525  0.15890712  0.75000100  1
  Cd  Cd5  1  0.84109388  0.15890712  0.75000100  1
loop_
_geom_bond_atom_site_label_1
_geom_bond_atom_site_label_2
_geom_bond_distance
_geom_bond_site_symmetry_2
Cd0 Cd5 3.086346 1_454
Cd0 Cd4 3.086350 1_554
Cd0 Cd5 3.086354 1_455
Cd0 Cd4 3.086358 1_555
Cd0 Cd2 3.192788 1_545
Cd0 Cd1 3.192791 1_445
Cd0 Sm0 3.197139 1_554
Cd0 Sm0 3.197147 1_555
Cd0 Sm1 3.349900 1_555
Cd0 Sm1 3.349913 1_455
Cd0 Cd1 3.504603 1_555
Cd0 Cd2 3.504607 1_555
Cd1 Cd5 3.086350 1_564
Cd1 Cd3 3.086350 1_554
Cd1 Cd5 3.086358 1_565
Cd1 Cd3 3.086358 1_555
Cd1 Cd2 3.192804 1_655
Cd1 Sm0 3.197128 1_554
Cd1 Sm0 3.197136 1_555
Cd1 Sm1 3.349903 1_565
Cd1 Sm1 3.349910 1_555
Cd1 Cd2 3.504590 1_555
Cd2 Cd4 3.086350 1_564
Cd2 Cd3 3.086353 1_454
Cd2 Cd4 3.086358 1_565
Cd2 Cd3 3.086361 1_455
Cd2 Sm0 3.197132 1_554
Cd2 Sm0 3.197139 1_555
Cd2 Sm1 3.349900 1_565
Cd2 Sm1 3.349913 1_455
Cd3 Cd5 3.192781 1_565
Cd3 Cd4 3.192791 1_665
Cd3 Sm1 3.197139 1_556
Cd3 Sm1 3.197147 1_555
Cd3 Sm0 3.349900 1_555
Cd3 Sm0 3.349913 1_655
Cd3 Cd4 3.504603 1_555
Cd3 Cd5 3.504614 1_555
Cd4 Cd5 3.192791 1_455
Cd4 Sm1 3.197128 1_556
Cd4 Sm1 3.197136 1_555
Cd4 Sm0 3.349903 1_545
Cd4 Sm0 3.349910 1_555
Cd4 Cd5 3.504603 1_555
Cd5 Sm1 3.197139 1_556
Cd5 Sm1 3.197147 1_555
Cd5 Sm0 3.349907 1_545
Cd5 Sm0 3.349907 1_655
