# generated using pymatgen
data_NdErMg2
_symmetry_space_group_name_H-M   'P 1'
_cell_length_a   5.40844400
_cell_length_b   5.40844400
_cell_length_c   5.40844400
_cell_angle_alpha   60.00000000
_cell_angle_beta   60.00000000
_cell_angle_gamma   60.00000000
_symmetry_Int_Tables_number   1
_chemical_formula_structural   NdErMg2
_chemical_formula_sum   'Nd1 Er1 Mg2'
_cell_volume   111.86700598
_cell_formula_units_Z   1
loop_
 _symmetry_equiv_pos_site_id
 _symmetry_equiv_pos_as_xyz
  1  'x, y, z'
loop_
 _atom_site_type_symbol
 _atom_site_label
 _atom_site_symmetry_multiplicity
 _atom_site_fract_x
 _atom_site_fract_y
 _atom_site_fract_z
 _atom_site_occupancy
  Nd  Nd0  1  0.75000000  0.75000000  0.75000000  1
  Er  Er0  1  0.25000000  0.25000000  0.25000000  1
  Mg  Mg0  1  0.00000000  0.00000000  0.00000000  1
  Mg  Mg1  1  0.50000000  0.50000000  0.50000000  1
loop_
_geom_bond_atom_site_label_1
_geom_bond_atom_site_label_2
_geom_bond_distance
_geom_bond_site_symmetry_2
Er0 Mg1 3.311982 1_554
Er0 Mg0 3.311982 1_555
Er0 Mg0 3.311982 1_565
Er0 Mg1 3.311982 1_455
Er0 Mg0 3.311982 1_655
Er0 Mg1 3.311982 1_545
Er0 Mg0 3.311982 1_556
Er0 Mg1 3.311982 1_555
Mg0 Nd0 3.311982 1_445
Mg0 Nd0 3.311982 1_444
Mg0 Nd0 3.311982 1_454
Mg0 Nd0 3.311982 1_544
Mg1 Nd0 3.311982 1_555
Mg1 Nd0 3.311982 1_545
Mg1 Nd0 3.311982 1_554
Mg1 Nd0 3.311982 1_455
