# generated using pymatgen
data_Zn3Co
_symmetry_space_group_name_H-M   'P 1'
_cell_length_a   4.71084676
_cell_length_b   4.71084676
_cell_length_c   4.71084676
_cell_angle_alpha   135.24151524
_cell_angle_beta   135.24151524
_cell_angle_gamma   65.15517016
_symmetry_Int_Tables_number   1
_chemical_formula_structural   Zn3Co
_chemical_formula_sum   'Zn3 Co1'
_cell_volume   51.08076796
_cell_formula_units_Z   1
loop_
 _symmetry_equiv_pos_site_id
 _symmetry_equiv_pos_as_xyz
  1  'x, y, z'
loop_
 _atom_site_type_symbol
 _atom_site_label
 _atom_site_symmetry_multiplicity
 _atom_site_fract_x
 _atom_site_fract_y
 _atom_site_fract_z
 _atom_site_occupancy
  Zn  Zn0  1  0.74999800  0.25000000  0.49999800  1
  Zn  Zn1  1  0.25000000  0.74999800  0.49999800  1
  Zn  Zn2  1  0.49999900  0.49999900  0.00000000  1
  Co  Co0  1  0.00000000  0.00000000  0.00000000  1
loop_
_geom_bond_atom_site_label_1
_geom_bond_atom_site_label_2
_geom_bond_distance
_geom_bond_site_symmetry_2
Zn0 Zn1 2.536504 1_555
Zn0 Zn1 2.536514 1_544
Zn0 Zn1 2.536514 1_656
Zn0 Zn1 2.536524 1_645
Zn0 Zn2 2.675152 1_555
Zn0 Zn2 2.675162 1_656
Zn0 Zn2 2.675168 1_556
Zn0 Zn2 2.675168 1_545
Zn1 Zn2 2.675152 1_555
Zn1 Zn2 2.675162 1_566
Zn1 Zn2 2.675168 1_556
Zn1 Zn2 2.675168 1_455
Co0 Zn2 2.536514 1_545
Co0 Zn2 2.536514 1_556
Co0 Zn2 2.536514 1_455
Co0 Zn2 2.536514 1_444
Co0 Zn0 2.675158 1_555
Co0 Zn1 2.675158 1_555
Co0 Zn0 2.675163 1_444
Co0 Zn1 2.675163 1_444
Co0 Zn1 2.675163 1_545
Co0 Zn0 2.675163 1_455
Co0 Zn1 2.675167 1_544
Co0 Zn0 2.675167 1_454
