# generated using pymatgen
data_MgTa2O6
_symmetry_space_group_name_H-M   'P 1'
_cell_length_a   4.72661878
_cell_length_b   4.72661878
_cell_length_c   9.20750332
_cell_angle_alpha   90.00000000
_cell_angle_beta   90.00000000
_cell_angle_gamma   90.00000000
_symmetry_Int_Tables_number   1
_chemical_formula_structural   MgTa2O6
_chemical_formula_sum   'Mg2 Ta4 O12'
_cell_volume   205.70414195
_cell_formula_units_Z   2
loop_
 _symmetry_equiv_pos_site_id
 _symmetry_equiv_pos_as_xyz
  1  'x, y, z'
loop_
 _atom_site_type_symbol
 _atom_site_label
 _atom_site_symmetry_multiplicity
 _atom_site_fract_x
 _atom_site_fract_y
 _atom_site_fract_z
 _atom_site_occupancy
  Mg  Mg0  1  -0.00000000  -0.00000000  0.00000000  1
  Mg  Mg1  1  0.50000000  0.50000000  0.50000000  1
  Ta  Ta0  1  0.50000000  0.50000000  0.83219910  1
  Ta  Ta1  1  -0.00000000  -0.00000000  0.33219910  1
  Ta  Ta2  1  0.50000000  0.50000000  0.16780090  1
  Ta  Ta3  1  -0.00000000  -0.00000000  0.66780090  1
  O  O0  1  0.70222613  0.70222613  0.67553841  1
  O  O1  1  0.29777387  0.29777387  0.67553841  1
  O  O2  1  0.70222613  0.70222613  0.32446159  1
  O  O3  1  0.20222613  0.79777387  0.17553841  1
  O  O4  1  0.79777387  0.20222613  0.17553841  1
  O  O5  1  0.79777387  0.20222613  0.82446159  1
  O  O6  1  0.31028972  0.31028972  0.00000000  1
  O  O7  1  0.18971028  0.81028972  0.50000000  1
  O  O8  1  0.81028972  0.18971028  0.50000000  1
  O  O9  1  0.68971028  0.68971028  0.00000000  1
  O  O10  1  0.29777387  0.29777387  0.32446159  1
  O  O11  1  0.20222613  0.79777387  0.82446159  1
loop_
_geom_bond_atom_site_label_1
_geom_bond_atom_site_label_2
_geom_bond_distance
_geom_bond_site_symmetry_2
Mg0 O6 2.074116 1_555
Mg0 O9 2.074116 1_445
Mg0 O3 2.107039 1_545
Mg0 O5 2.107039 1_454
Mg0 O4 2.107039 1_455
Mg0 O11 2.107039 1_544
Mg1 O7 2.074116 1_555
Mg1 O8 2.074116 1_555
Mg1 O2 2.107039 1_555
Mg1 O10 2.107039 1_555
Mg1 O0 2.107039 1_555
Mg1 O1 2.107039 1_555
O0 Ta0 1.976855 1_555
O0 Ta3 1.991729 1_665
O1 Ta0 1.976855 1_555
O1 Ta3 1.991729 1_555
O2 Ta2 1.976855 1_555
O2 Ta1 1.991729 1_665
O3 Ta1 1.976855 1_565
O3 Ta2 1.991729 1_555
O4 Ta1 1.976855 1_655
O4 Ta2 1.991729 1_555
O5 Ta3 1.976855 1_655
O5 Ta0 1.991729 1_555
O6 Ta2 1.998802 1_555
O6 Ta0 1.998802 1_554
O7 Ta1 1.998802 1_565
O7 Ta3 1.998802 1_565
O8 Ta1 1.998802 1_655
O8 Ta3 1.998802 1_655
O9 Ta2 1.998802 1_555
O9 Ta0 1.998802 1_554
O10 Ta2 1.976855 1_555
O10 Ta1 1.991729 1_555
O11 Ta3 1.976855 1_565
O11 Ta0 1.991729 1_555
