# generated using pymatgen
data_La3Sn4
_symmetry_space_group_name_H-M   'P 1'
_cell_length_a   4.59055497
_cell_length_b   6.40656019
_cell_length_c   15.96230237
_cell_angle_alpha   90.00000000
_cell_angle_beta   90.00000000
_cell_angle_gamma   69.00601430
_symmetry_Int_Tables_number   1
_chemical_formula_structural   La3Sn4
_chemical_formula_sum   'La6 Sn8'
_cell_volume   438.28324712
_cell_formula_units_Z   2
loop_
 _symmetry_equiv_pos_site_id
 _symmetry_equiv_pos_as_xyz
  1  'x, y, z'
loop_
 _atom_site_type_symbol
 _atom_site_label
 _atom_site_symmetry_multiplicity
 _atom_site_fract_x
 _atom_site_fract_y
 _atom_site_fract_z
 _atom_site_occupancy
  La  La0  1  0.67221605  0.65556990  0.09745868  1
  La  La1  1  0.95587082  0.08826135  0.25000000  1
  La  La2  1  0.67221605  0.65556990  0.40254032  1
  La  La3  1  0.32778495  0.34443010  0.59745968  1
  La  La4  1  0.04413018  0.91173865  0.75000000  1
  La  La5  1  0.32778495  0.34443010  0.90254132  1
  Sn  Sn0  1  -0.00000000  0.00000000  -0.00000000  1
  Sn  Sn1  1  0.38381566  0.23237067  0.10770521  1
  Sn  Sn2  1  0.22719563  0.54560874  0.25000000  1
  Sn  Sn3  1  0.38381566  0.23237067  0.39229479  1
  Sn  Sn4  1  -0.00000000  0.00000000  0.50000000  1
  Sn  Sn5  1  0.61618434  0.76762933  0.60770521  1
  Sn  Sn6  1  0.77280537  0.45439126  0.75000000  1
  Sn  Sn7  1  0.61618434  0.76762933  0.89229479  1
loop_
_geom_bond_atom_site_label_1
_geom_bond_atom_site_label_2
_geom_bond_distance
_geom_bond_site_symmetry_2
La0 Sn7 3.342774 1_554
La0 Sn2 3.410227 1_655
La0 Sn2 3.410233 1_555
La0 Sn1 3.420876 1_655
La0 Sn1 3.420876 1_555
La0 Sn1 3.453882 1_565
La0 Sn0 3.454348 1_665
La0 Sn0 3.454354 1_565
La1 Sn2 3.245757 1_645
La1 Sn1 3.342200 1_655
La1 Sn3 3.342200 1_655
La1 Sn3 3.342203 1_555
La1 Sn1 3.342203 1_555
La1 Sn2 3.570904 1_655
La1 Sn2 3.570912 1_555
La2 Sn5 3.342790 1_555
La2 Sn2 3.410216 1_655
La2 Sn2 3.410222 1_555
La2 Sn3 3.420875 1_655
La2 Sn3 3.420876 1_555
La2 Sn3 3.453881 1_565
La2 Sn4 3.454355 1_665
La2 Sn4 3.454361 1_565
La3 Sn3 3.342790 1_555
La3 Sn6 3.410216 1_455
La3 Sn6 3.410222 1_555
La3 Sn5 3.420872 1_555
La3 Sn5 3.420878 1_455
La3 Sn5 3.453881 1_545
La3 Sn4 3.454358 1_655
La3 Sn4 3.454358 1_555
La4 Sn6 3.245757 1_465
La4 Sn7 3.342200 1_555
La4 Sn5 3.342200 1_555
La4 Sn7 3.342203 1_455
La4 Sn5 3.342203 1_455
La4 Sn6 3.570904 1_455
La4 Sn6 3.570912 1_555
La5 Sn1 3.342774 1_556
La5 Sn6 3.410227 1_455
La5 Sn6 3.410233 1_555
La5 Sn7 3.420873 1_555
La5 Sn7 3.420879 1_455
La5 Sn7 3.453882 1_545
La5 Sn0 3.454351 1_656
La5 Sn0 3.454351 1_556
Sn0 Sn7 3.186810 1_544
Sn0 Sn1 3.186810 1_455
Sn0 Sn7 3.186816 1_444
Sn0 Sn1 3.186816 1_555
Sn1 Sn2 2.944365 1_555
Sn2 Sn3 2.944365 1_555
Sn3 Sn4 3.186810 1_655
Sn3 Sn4 3.186816 1_555
Sn4 Sn5 3.186810 1_545
Sn4 Sn5 3.186816 1_445
Sn5 Sn6 2.944365 1_555
Sn6 Sn7 2.944365 1_555
