# generated using pymatgen
data_Zn3N
_symmetry_space_group_name_H-M   'P 1'
_cell_length_a   4.89179725
_cell_length_b   4.89179725
_cell_length_c   4.89179725
_cell_angle_alpha   139.61471038
_cell_angle_beta   139.61471038
_cell_angle_gamma   58.43877576
_symmetry_Int_Tables_number   1
_chemical_formula_structural   Zn3N
_chemical_formula_sum   'Zn3 N1'
_cell_volume   48.69049177
_cell_formula_units_Z   1
loop_
 _symmetry_equiv_pos_site_id
 _symmetry_equiv_pos_as_xyz
  1  'x, y, z'
loop_
 _atom_site_type_symbol
 _atom_site_label
 _atom_site_symmetry_multiplicity
 _atom_site_fract_x
 _atom_site_fract_y
 _atom_site_fract_z
 _atom_site_occupancy
  Zn  Zn0  1  0.74999900  0.25000000  0.49999900  1
  Zn  Zn1  1  0.25000000  0.74999900  0.49999900  1
  Zn  Zn2  1  0.50000100  0.50000100  0.00000000  1
  N  N0  1  0.00000000  -0.00000000  0.00000000  1
loop_
_geom_bond_atom_site_label_1
_geom_bond_atom_site_label_2
_geom_bond_distance
_geom_bond_site_symmetry_2
Zn0 Zn1 2.387951 1_555
Zn0 Zn1 2.387955 1_544
Zn0 Zn1 2.387955 1_656
Zn0 Zn1 2.387960 1_645
Zn0 Zn2 2.721758 1_545
Zn0 Zn2 2.721758 1_556
Zn0 Zn2 2.721769 1_555
Zn0 Zn2 2.721773 1_656
Zn1 Zn2 2.721758 1_455
Zn1 Zn2 2.721758 1_556
Zn1 Zn2 2.721769 1_555
Zn1 Zn2 2.721773 1_566
N0 Zn2 2.387955 1_444
N0 Zn2 2.387955 1_455
N0 Zn2 2.387955 1_556
N0 Zn2 2.387955 1_545
N0 Zn0 2.721763 1_555
N0 Zn1 2.721763 1_555
N0 Zn0 2.721765 1_444
N0 Zn0 2.721765 1_455
N0 Zn1 2.721765 1_444
N0 Zn1 2.721765 1_545
N0 Zn0 2.721767 1_454
N0 Zn1 2.721767 1_544
