# generated using pymatgen
data_NaCdO3
_symmetry_space_group_name_H-M   'P 1'
_cell_length_a   4.25663600
_cell_length_b   4.25663600
_cell_length_c   4.25663600
_cell_angle_alpha   90.00000000
_cell_angle_beta   90.00000000
_cell_angle_gamma   90.00000000
_symmetry_Int_Tables_number   1
_chemical_formula_structural   NaCdO3
_chemical_formula_sum   'Na1 Cd1 O3'
_cell_volume   77.12577501
_cell_formula_units_Z   1
loop_
 _symmetry_equiv_pos_site_id
 _symmetry_equiv_pos_as_xyz
  1  'x, y, z'
loop_
 _atom_site_type_symbol
 _atom_site_label
 _atom_site_symmetry_multiplicity
 _atom_site_fract_x
 _atom_site_fract_y
 _atom_site_fract_z
 _atom_site_occupancy
  Na  Na0  1  0.50000000  0.50000000  0.50000000  1
  Cd  Cd0  1  0.00000000  0.00000000  0.00000000  1
  O  O0  1  0.00000000  0.00000000  0.50000000  1
  O  O1  1  0.00000000  0.50000000  0.00000000  1
  O  O2  1  0.50000000  0.00000000  0.00000000  1
loop_
_geom_bond_atom_site_label_1
_geom_bond_atom_site_label_2
_geom_bond_distance
_geom_bond_site_symmetry_2
Na0 O2 3.009896 1_555
Na0 O2 3.009896 1_556
Na0 O0 3.009896 1_665
Na0 O1 3.009896 1_556
Na0 O1 3.009896 1_656
Na0 O1 3.009896 1_655
Na0 O2 3.009896 1_565
Na0 O2 3.009896 1_566
Na0 O0 3.009896 1_655
Na0 O1 3.009896 1_555
Na0 O0 3.009896 1_555
Na0 O0 3.009896 1_565
Cd0 O0 2.128318 1_554
Cd0 O1 2.128318 1_555
Cd0 O0 2.128318 1_555
Cd0 O2 2.128318 1_455
Cd0 O2 2.128318 1_555
Cd0 O1 2.128318 1_545
