# generated using pymatgen
data_YReN3
_symmetry_space_group_name_H-M   'P 1'
_cell_length_a   5.47111706
_cell_length_b   5.47111706
_cell_length_c   5.47111716
_cell_angle_alpha   60.99983681
_cell_angle_beta   60.99983681
_cell_angle_gamma   60.99983482
_symmetry_Int_Tables_number   1
_chemical_formula_structural   YReN3
_chemical_formula_sum   'Y2 Re2 N6'
_cell_volume   118.40917513
_cell_formula_units_Z   2
loop_
 _symmetry_equiv_pos_site_id
 _symmetry_equiv_pos_as_xyz
  1  'x, y, z'
loop_
 _atom_site_type_symbol
 _atom_site_label
 _atom_site_symmetry_multiplicity
 _atom_site_fract_x
 _atom_site_fract_y
 _atom_site_fract_z
 _atom_site_occupancy
  Y  Y0  1  0.25000000  0.25000000  0.25000000  1
  Y  Y1  1  0.75000000  0.75000000  0.75000000  1
  Re  Re0  1  0.00000000  0.00000000  0.00000000  1
  Re  Re1  1  0.50000000  0.50000000  0.50000000  1
  N  N0  1  0.25000000  0.67396600  0.82603400  1
  N  N1  1  0.67396600  0.82603400  0.25000000  1
  N  N2  1  0.17396600  0.75000000  0.32603400  1
  N  N3  1  0.32603400  0.17396600  0.75000000  1
  N  N4  1  0.75000000  0.32603400  0.17396600  1
  N  N5  1  0.82603400  0.25000000  0.67396600  1
loop_
_geom_bond_atom_site_label_1
_geom_bond_atom_site_label_2
_geom_bond_distance
_geom_bond_site_symmetry_2
N0 Re0 1.994185 1_566
N0 Re1 1.994185 1_555
N0 Y0 2.354533 1_556
N0 Y1 2.767957 1_455
N0 Y1 2.767957 1_555
N1 Re1 1.994185 1_555
N1 Re0 1.994185 1_665
N1 Y0 2.354533 1_565
N1 Y1 2.767957 1_555
N1 Y1 2.767957 1_554
N2 Re1 1.994185 1_555
N2 Re0 1.994185 1_565
N2 Y1 2.354533 1_455
N2 Y0 2.767957 1_555
N2 Y0 2.767957 1_565
N3 Re0 1.994185 1_556
N3 Re1 1.994185 1_555
N3 Y1 2.354533 1_545
N3 Y0 2.767957 1_556
N3 Y0 2.767957 1_555
N4 Re0 1.994185 1_655
N4 Re1 1.994185 1_555
N4 Y1 2.354533 1_554
N4 Y0 2.767957 1_655
N4 Y0 2.767957 1_555
N5 Re1 1.994185 1_555
N5 Re0 1.994185 1_656
N5 Y0 2.354533 1_655
N5 Y1 2.767957 1_555
N5 Y1 2.767957 1_545
