# generated using pymatgen
data_MgIn5
_symmetry_space_group_name_H-M   'P 1'
_cell_length_a   6.59787744
_cell_length_b   6.59787197
_cell_length_c   32.34928686
_cell_angle_alpha   90.00000000
_cell_angle_beta   90.00000000
_cell_angle_gamma   120.00000678
_symmetry_Int_Tables_number   1
_chemical_formula_structural   MgIn5
_chemical_formula_sum   'Mg8 In40'
_cell_volume   1219.56075719
_cell_formula_units_Z   8
loop_
 _symmetry_equiv_pos_site_id
 _symmetry_equiv_pos_as_xyz
  1  'x, y, z'
loop_
 _atom_site_type_symbol
 _atom_site_label
 _atom_site_symmetry_multiplicity
 _atom_site_fract_x
 _atom_site_fract_y
 _atom_site_fract_z
 _atom_site_occupancy
  Mg  Mg0_0  1  0.33333350  0.16666650  0.41666700  1
  Mg  Mg0_1  1  0.33333350  0.16666650  0.91666700  1
  Mg  Mg0_2  1  0.33333350  0.66666650  0.41666700  1
  Mg  Mg0_3  1  0.33333350  0.66666650  0.91666700  1
  Mg  Mg0_4  1  0.83333350  0.16666650  0.41666700  1
  Mg  Mg0_5  1  0.83333350  0.16666650  0.91666700  1
  Mg  Mg0_6  1  0.83333350  0.66666650  0.41666700  1
  Mg  Mg0_7  1  0.83333350  0.66666650  0.91666700  1
  In  In0_0  1  0.00000000  0.00000000  0.49435589  1
  In  In0_1  1  0.00000000  0.00000000  0.99435589  1
  In  In0_2  1  0.00000000  0.50000000  0.49435589  1
  In  In0_3  1  0.00000000  0.50000000  0.99435589  1
  In  In0_4  1  0.50000000  0.00000000  0.49435589  1
  In  In0_5  1  0.50000000  0.00000000  0.99435589  1
  In  In0_6  1  0.50000000  0.50000000  0.49435589  1
  In  In0_7  1  0.50000000  0.50000000  0.99435589  1
  In  In1_0  1  0.33333350  0.16666650  0.07807455  1
  In  In1_1  1  0.33333350  0.16666650  0.57807455  1
  In  In1_2  1  0.33333350  0.66666650  0.07807455  1
  In  In1_3  1  0.33333350  0.66666650  0.57807455  1
  In  In1_4  1  0.83333350  0.16666650  0.07807455  1
  In  In1_5  1  0.83333350  0.16666650  0.57807455  1
  In  In1_6  1  0.83333350  0.66666650  0.07807455  1
  In  In1_7  1  0.83333350  0.66666650  0.57807455  1
  In  In2_0  1  0.00000000  0.00000000  0.16666650  1
  In  In2_1  1  0.00000000  0.00000000  0.66666650  1
  In  In2_2  1  0.00000000  0.50000000  0.16666650  1
  In  In2_3  1  0.00000000  0.50000000  0.66666650  1
  In  In2_4  1  0.50000000  0.00000000  0.16666650  1
  In  In2_5  1  0.50000000  0.00000000  0.66666650  1
  In  In2_6  1  0.50000000  0.50000000  0.16666650  1
  In  In2_7  1  0.50000000  0.50000000  0.66666650  1
  In  In3_0  1  0.33333350  0.16666650  0.25525845  1
  In  In3_1  1  0.33333350  0.16666650  0.75525845  1
  In  In3_2  1  0.33333350  0.66666650  0.25525845  1
  In  In3_3  1  0.33333350  0.66666650  0.75525845  1
  In  In3_4  1  0.83333350  0.16666650  0.25525845  1
  In  In3_5  1  0.83333350  0.16666650  0.75525845  1
  In  In3_6  1  0.83333350  0.66666650  0.25525845  1
  In  In3_7  1  0.83333350  0.66666650  0.75525845  1
  In  In4_0  1  0.00000000  0.00000000  0.33897761  1
  In  In4_1  1  0.00000000  0.00000000  0.83897760  1
  In  In4_2  1  0.00000000  0.50000000  0.33897761  1
  In  In4_3  1  0.00000000  0.50000000  0.83897760  1
  In  In4_4  1  0.50000000  0.00000000  0.33897761  1
  In  In4_5  1  0.50000000  0.00000000  0.83897760  1
  In  In4_6  1  0.50000000  0.50000000  0.33897761  1
  In  In4_7  1  0.50000000  0.50000000  0.83897760  1
loop_
_geom_bond_atom_site_label_1
_geom_bond_atom_site_label_2
_geom_bond_distance
_geom_bond_site_symmetry_2
In0_0 Mg0_4 3.153368 1_455
In0_0 Mg0_6 3.153369 1_445
In0_0 Mg0_0 3.153370 1_555
In0_0 In1_5 3.310923 1_455
In0_0 In1_7 3.310924 1_445
In0_0 In1_1 3.310925 1_555
In0_1 Mg0_5 3.153368 1_455
In0_1 Mg0_7 3.153369 1_445
In0_1 Mg0_1 3.153370 1_555
In0_1 In1_4 3.310923 1_456
In0_1 In1_6 3.310924 1_446
In0_1 In1_0 3.310925 1_556
In0_2 Mg0_6 3.153368 1_455
In0_2 Mg0_4 3.153369 1_455
In0_2 Mg0_2 3.153370 1_555
In0_2 In1_7 3.310923 1_455
In0_2 In1_5 3.310924 1_455
In0_2 In1_3 3.310925 1_555
In0_3 Mg0_7 3.153368 1_455
In0_3 Mg0_5 3.153369 1_455
In0_3 Mg0_3 3.153370 1_555
In0_3 In1_6 3.310923 1_456
In0_3 In1_4 3.310924 1_456
In0_3 In1_2 3.310925 1_556
In0_4 Mg0_0 3.153368 1_555
In0_4 Mg0_2 3.153369 1_545
In0_4 Mg0_4 3.153370 1_555
In0_4 In1_1 3.310923 1_555
In0_4 In1_3 3.310924 1_545
In0_4 In1_5 3.310925 1_555
In0_5 Mg0_1 3.153368 1_555
In0_5 Mg0_3 3.153369 1_545
In0_5 Mg0_5 3.153370 1_555
In0_5 In1_0 3.310923 1_556
In0_5 In1_2 3.310924 1_546
In0_5 In1_4 3.310925 1_556
In0_6 Mg0_2 3.153368 1_555
In0_6 Mg0_0 3.153369 1_555
In0_6 Mg0_6 3.153370 1_555
In0_6 In1_3 3.310923 1_555
In0_6 In1_1 3.310924 1_555
In0_6 In1_7 3.310925 1_555
In0_7 Mg0_3 3.153368 1_555
In0_7 Mg0_1 3.153369 1_555
In0_7 Mg0_7 3.153370 1_555
In0_7 In1_2 3.310923 1_556
In0_7 In1_0 3.310924 1_556
In0_7 In1_6 3.310925 1_556
In1_0 In1_2 3.298936 1_545
In1_0 In1_2 3.298936 1_555
In1_0 In1_6 3.298937 1_445
In1_0 In1_6 3.298937 1_555
In1_0 In1_4 3.298939 1_555
In1_0 In1_4 3.298939 1_455
In1_0 In2_4 3.441070 1_555
In1_0 In2_6 3.441071 1_555
In1_0 In2_0 3.441072 1_555
In1_1 In1_3 3.298936 1_545
In1_1 In1_3 3.298936 1_555
In1_1 In1_7 3.298937 1_555
In1_1 In1_7 3.298937 1_445
In1_1 In1_5 3.298939 1_555
In1_1 In1_5 3.298939 1_455
In1_1 In2_5 3.441070 1_555
In1_1 In2_7 3.441071 1_555
In1_1 In2_1 3.441072 1_555
In1_2 In1_4 3.298937 1_455
In1_2 In1_4 3.298937 1_565
In1_2 In1_6 3.298939 1_555
In1_2 In1_6 3.298939 1_455
In1_2 In2_6 3.441070 1_555
In1_2 In2_4 3.441071 1_565
In1_2 In2_2 3.441072 1_555
In1_3 In1_5 3.298937 1_565
In1_3 In1_5 3.298937 1_455
In1_3 In1_7 3.298939 1_455
In1_3 In1_7 3.298939 1_555
In1_3 In2_7 3.441070 1_555
In1_3 In2_5 3.441071 1_565
In1_3 In2_3 3.441072 1_555
In1_4 In1_6 3.298936 1_545
In1_4 In1_6 3.298936 1_555
In1_4 In2_0 3.441070 1_655
In1_4 In2_2 3.441071 1_655
In1_4 In2_4 3.441072 1_555
In1_5 In1_7 3.298936 1_555
In1_5 In1_7 3.298936 1_545
In1_5 In2_1 3.441070 1_655
In1_5 In2_3 3.441071 1_655
In1_5 In2_5 3.441072 1_555
In1_6 In2_2 3.441070 1_655
In1_6 In2_0 3.441071 1_665
In1_6 In2_6 3.441072 1_555
In1_7 In2_3 3.441070 1_655
In1_7 In2_1 3.441071 1_665
In1_7 In2_7 3.441072 1_555
In2_0 In2_2 3.298936 1_555
In2_0 In2_2 3.298936 1_545
In2_0 In2_6 3.298937 1_445
In2_0 In2_6 3.298937 1_555
In2_0 In2_4 3.298939 1_555
In2_0 In2_4 3.298939 1_455
In2_0 In3_4 3.441070 1_455
In2_0 In3_6 3.441071 1_445
In2_0 In3_0 3.441072 1_555
In2_1 In2_3 3.298936 1_545
In2_1 In2_3 3.298936 1_555
In2_1 In2_7 3.298937 1_555
In2_1 In2_7 3.298937 1_445
In2_1 In2_5 3.298939 1_555
In2_1 In2_5 3.298939 1_455
In2_1 In3_5 3.441070 1_455
In2_1 In3_7 3.441071 1_445
In2_1 In3_1 3.441072 1_555
In2_2 In2_4 3.298937 1_455
In2_2 In2_4 3.298937 1_565
In2_2 In2_6 3.298939 1_455
In2_2 In2_6 3.298939 1_555
In2_2 In3_6 3.441070 1_455
In2_2 In3_4 3.441071 1_455
In2_2 In3_2 3.441072 1_555
In2_3 In2_5 3.298937 1_565
In2_3 In2_5 3.298937 1_455
In2_3 In2_7 3.298939 1_455
In2_3 In2_7 3.298939 1_555
In2_3 In3_7 3.441070 1_455
In2_3 In3_5 3.441071 1_455
In2_3 In3_3 3.441072 1_555
In2_4 In2_6 3.298936 1_555
In2_4 In2_6 3.298936 1_545
In2_4 In3_0 3.441070 1_555
In2_4 In3_2 3.441071 1_545
In2_4 In3_4 3.441072 1_555
In2_5 In2_7 3.298936 1_545
In2_5 In2_7 3.298936 1_555
In2_5 In3_1 3.441070 1_555
In2_5 In3_3 3.441071 1_545
In2_5 In3_5 3.441072 1_555
In2_6 In3_2 3.441070 1_555
In2_6 In3_0 3.441071 1_555
In2_6 In3_6 3.441072 1_555
In2_7 In3_3 3.441070 1_555
In2_7 In3_1 3.441071 1_555
In2_7 In3_7 3.441072 1_555
In3_0 In3_2 3.298936 1_545
In3_0 In3_2 3.298936 1_555
In3_0 In3_6 3.298937 1_555
In3_0 In3_6 3.298937 1_445
In3_0 In3_4 3.298939 1_555
In3_0 In3_4 3.298939 1_455
In3_0 In4_4 3.310936 1_555
In3_0 In4_6 3.310938 1_555
In3_0 In4_0 3.310938 1_555
In3_1 In3_3 3.298936 1_545
In3_1 In3_3 3.298936 1_555
In3_1 In3_7 3.298937 1_555
In3_1 In3_7 3.298937 1_445
In3_1 In3_5 3.298939 1_455
In3_1 In3_5 3.298939 1_555
In3_1 In4_5 3.310936 1_555
In3_1 In4_7 3.310938 1_555
In3_1 In4_1 3.310938 1_555
In3_2 In3_4 3.298937 1_565
In3_2 In3_4 3.298937 1_455
In3_2 In3_6 3.298939 1_455
In3_2 In3_6 3.298939 1_555
In3_2 In4_6 3.310936 1_555
In3_2 In4_4 3.310938 1_565
In3_2 In4_2 3.310938 1_555
In3_3 In3_5 3.298937 1_455
In3_3 In3_5 3.298937 1_565
In3_3 In3_7 3.298939 1_455
In3_3 In3_7 3.298939 1_555
In3_3 In4_7 3.310936 1_555
In3_3 In4_5 3.310938 1_565
In3_3 In4_3 3.310938 1_555
In3_4 In3_6 3.298936 1_555
In3_4 In3_6 3.298936 1_545
In3_4 In4_0 3.310936 1_655
In3_4 In4_2 3.310938 1_655
In3_4 In4_4 3.310938 1_555
In3_5 In3_7 3.298936 1_545
In3_5 In3_7 3.298936 1_555
In3_5 In4_1 3.310936 1_655
In3_5 In4_3 3.310938 1_655
In3_5 In4_5 3.310938 1_555
In3_6 In4_2 3.310936 1_655
In3_6 In4_0 3.310938 1_665
In3_6 In4_6 3.310938 1_555
In3_7 In4_3 3.310936 1_655
In3_7 In4_1 3.310938 1_665
In3_7 In4_7 3.310938 1_555
In4_0 Mg0_4 3.153381 1_455
In4_0 Mg0_6 3.153382 1_445
In4_0 Mg0_0 3.153383 1_555
In4_1 Mg0_5 3.153381 1_455
In4_1 Mg0_7 3.153382 1_445
In4_1 Mg0_1 3.153383 1_555
In4_2 Mg0_6 3.153381 1_455
In4_2 Mg0_4 3.153382 1_455
In4_2 Mg0_2 3.153383 1_555
In4_3 Mg0_7 3.153381 1_455
In4_3 Mg0_5 3.153382 1_455
In4_3 Mg0_3 3.153383 1_555
In4_4 Mg0_0 3.153381 1_555
In4_4 Mg0_2 3.153382 1_545
In4_4 Mg0_4 3.153383 1_555
In4_5 Mg0_1 3.153381 1_555
In4_5 Mg0_3 3.153382 1_545
In4_5 Mg0_5 3.153383 1_555
In4_6 Mg0_2 3.153381 1_555
In4_6 Mg0_0 3.153382 1_555
In4_6 Mg0_6 3.153383 1_555
In4_7 Mg0_3 3.153381 1_555
In4_7 Mg0_1 3.153382 1_555
In4_7 Mg0_7 3.153383 1_555
