# generated using pymatgen
data_Ac3Sm
_symmetry_space_group_name_H-M   'P 1'
_cell_length_a   7.96327208
_cell_length_b   7.96327342
_cell_length_c   6.27547978
_cell_angle_alpha   90.00000000
_cell_angle_beta   90.00000000
_cell_angle_gamma   119.99999442
_symmetry_Int_Tables_number   1
_chemical_formula_structural   Ac3Sm
_chemical_formula_sum   'Ac6 Sm2'
_cell_volume   344.63610465
_cell_formula_units_Z   2
loop_
 _symmetry_equiv_pos_site_id
 _symmetry_equiv_pos_as_xyz
  1  'x, y, z'
loop_
 _atom_site_type_symbol
 _atom_site_label
 _atom_site_symmetry_multiplicity
 _atom_site_fract_x
 _atom_site_fract_y
 _atom_site_fract_z
 _atom_site_occupancy
  Ac  Ac0  1  0.16975300  0.33950499  0.24999900  1
  Ac  Ac1  1  0.66049501  0.83024700  0.24999900  1
  Ac  Ac2  1  0.16975300  0.83024700  0.24999900  1
  Ac  Ac3  1  0.83024800  0.66049701  0.75000000  1
  Ac  Ac4  1  0.33950299  0.16975200  0.75000000  1
  Ac  Ac5  1  0.83024600  0.16975200  0.75000000  1
  Sm  Sm0  1  0.33333300  0.66666700  0.75000000  1
  Sm  Sm1  1  0.66666600  0.33333300  0.24999900  1
loop_
_geom_bond_atom_site_label_1
_geom_bond_atom_site_label_2
_geom_bond_distance
_geom_bond_site_symmetry_2
Ac0 Sm0 3.864711 1_554
Ac0 Sm0 3.864721 1_555
Ac0 Ac2 3.907913 1_555
Ac0 Ac1 3.907913 1_555
Ac0 Ac4 3.915007 1_554
Ac0 Ac4 3.915017 1_555
Ac0 Ac5 3.915023 1_454
Ac0 Ac5 3.915033 1_455
Ac0 Sm1 3.981856 1_555
Ac0 Sm1 3.981872 1_455
Ac0 Ac1 4.055361 1_445
Ac0 Ac2 4.055361 1_545
Ac1 Sm0 3.864710 1_554
Ac1 Sm0 3.864721 1_555
Ac1 Ac2 3.907912 1_555
Ac1 Ac3 3.915007 1_554
Ac1 Ac5 3.915015 1_564
Ac1 Ac3 3.915017 1_555
Ac1 Ac5 3.915025 1_565
Ac1 Sm1 3.981860 1_555
Ac1 Sm1 3.981868 1_565
Ac1 Ac2 4.055360 1_655
Ac2 Sm0 3.864702 1_554
Ac2 Sm0 3.864712 1_555
Ac2 Ac3 3.915015 1_454
Ac2 Ac4 3.915015 1_564
Ac2 Ac3 3.915025 1_455
Ac2 Ac4 3.915025 1_565
Ac2 Sm1 3.981860 1_565
Ac2 Sm1 3.981868 1_455
Ac3 Sm1 3.864719 1_556
Ac3 Sm1 3.864729 1_555
Ac3 Ac5 3.907929 1_555
Ac3 Ac4 3.907937 1_555
Ac3 Sm0 3.981863 1_555
Ac3 Sm0 3.981863 1_655
Ac3 Ac4 4.055337 1_665
Ac3 Ac5 4.055345 1_565
Ac4 Sm1 3.864714 1_556
Ac4 Sm1 3.864725 1_555
Ac4 Ac5 3.907920 1_555
Ac4 Sm0 3.981864 1_555
Ac4 Sm0 3.981864 1_545
Ac4 Ac5 4.055352 1_455
Ac5 Sm1 3.864706 1_556
Ac5 Sm1 3.864716 1_555
Ac5 Sm0 3.981856 1_545
Ac5 Sm0 3.981872 1_655
