# generated using pymatgen
data_NaTl2Sb
_symmetry_space_group_name_H-M   'P 1'
_cell_length_a   5.54113198
_cell_length_b   5.54113198
_cell_length_c   5.54113198
_cell_angle_alpha   60.00000000
_cell_angle_beta   60.00000000
_cell_angle_gamma   60.00000000
_symmetry_Int_Tables_number   1
_chemical_formula_structural   NaTl2Sb
_chemical_formula_sum   'Na1 Tl2 Sb1'
_cell_volume   120.30411591
_cell_formula_units_Z   1
loop_
 _symmetry_equiv_pos_site_id
 _symmetry_equiv_pos_as_xyz
  1  'x, y, z'
loop_
 _atom_site_type_symbol
 _atom_site_label
 _atom_site_symmetry_multiplicity
 _atom_site_fract_x
 _atom_site_fract_y
 _atom_site_fract_z
 _atom_site_occupancy
  Na  Na0  1  0.50000000  0.50000000  0.50000000  1
  Tl  Tl0  1  0.25000000  0.25000000  0.25000000  1
  Tl  Tl1  1  0.75000000  0.75000000  0.75000000  1
  Sb  Sb0  1  0.00000000  0.00000000  0.00000000  1
loop_
_geom_bond_atom_site_label_1
_geom_bond_atom_site_label_2
_geom_bond_distance
_geom_bond_site_symmetry_2
Na0 Tl0 3.393236 1_555
Na0 Tl0 3.393236 1_556
Na0 Tl0 3.393236 1_565
Na0 Tl1 3.393236 1_554
Na0 Tl0 3.393236 1_655
Na0 Tl1 3.393236 1_555
Na0 Tl1 3.393236 1_455
Na0 Tl1 3.393236 1_545
Sb0 Tl0 3.393236 1_555
Sb0 Tl1 3.393236 1_544
Sb0 Tl1 3.393236 1_454
Sb0 Tl0 3.393236 1_545
Sb0 Tl0 3.393236 1_554
Sb0 Tl1 3.393236 1_445
Sb0 Tl1 3.393236 1_444
Sb0 Tl0 3.393236 1_455
