# generated using pymatgen
data_NaAg(CO2)2
_symmetry_space_group_name_H-M   'P 1'
_cell_length_a   5.31612500
_cell_length_b   3.55551400
_cell_length_c   11.09566491
_cell_angle_alpha   83.83149481
_cell_angle_beta   90.00000000
_cell_angle_gamma   90.00000000
_symmetry_Int_Tables_number   1
_chemical_formula_structural   NaAg(CO2)2
_chemical_formula_sum   'Na2 Ag2 C4 O8'
_cell_volume   208.51106912
_cell_formula_units_Z   2
loop_
 _symmetry_equiv_pos_site_id
 _symmetry_equiv_pos_as_xyz
  1  'x, y, z'
loop_
 _atom_site_type_symbol
 _atom_site_label
 _atom_site_symmetry_multiplicity
 _atom_site_fract_x
 _atom_site_fract_y
 _atom_site_fract_z
 _atom_site_occupancy
  Na  Na0  1  0.81020300  0.68694000  0.85439500  1
  Na  Na1  1  0.18979700  0.68694000  0.35439500  1
  Ag  Ag0  1  0.67671400  0.29774400  0.15714200  1
  Ag  Ag1  1  0.32328600  0.29774400  0.65714200  1
  C  C0  1  0.71072500  0.11402200  0.43871700  1
  C  C1  1  0.28927500  0.11402200  0.93871700  1
  C  C2  1  0.81694400  0.89515700  0.55881300  1
  C  C3  1  0.18305600  0.89515700  0.05881300  1
  O  O0  1  0.97605300  0.72519200  0.04833700  1
  O  O1  1  0.02394700  0.72519200  0.54833700  1
  O  O2  1  0.51391600  0.23041400  0.93795600  1
  O  O3  1  0.48608400  0.23041400  0.43795600  1
  O  O4  1  0.31011500  0.89876700  0.15563900  1
  O  O5  1  0.68988500  0.89876700  0.65563900  1
  O  O6  1  0.13769400  0.15171400  0.84899100  1
  O  O7  1  0.86230600  0.15171400  0.34899100  1
loop_
_geom_bond_atom_site_label_1
_geom_bond_atom_site_label_2
_geom_bond_distance
_geom_bond_site_symmetry_2
Na0 O5 2.341558 1_555
Na0 O0 2.342967 1_556
Na0 O2 2.377367 1_555
Na0 O6 2.396688 1_665
Na0 O6 2.584678 1_655
Na0 O2 2.731207 1_565
Na1 O4 2.341558 1_555
Na1 O1 2.342967 1_555
Na1 O3 2.377367 1_555
Na1 O7 2.396688 1_465
Na1 O7 2.584678 1_455
Na1 O3 2.731207 1_565
Ag0 O7 2.353046 1_555
Ag0 O4 2.411608 1_545
Ag0 O0 2.430077 1_555
Ag0 O2 2.616512 1_554
Ag1 O6 2.353046 1_555
Ag1 O5 2.411608 1_545
Ag1 O1 2.430077 1_555
Ag1 O3 2.616512 1_555
C0 O3 1.263621 1_555
C0 O7 1.276635 1_555
C1 O2 1.263621 1_555
C1 O6 1.276635 1_555
C2 O1 1.266807 1_655
C2 O5 1.270276 1_555
C3 O0 1.266807 1_455
C3 O4 1.270276 1_555
