# generated using pymatgen
data_CdAuO2
_symmetry_space_group_name_H-M   'P 1'
_cell_length_a   6.70744543
_cell_length_b   6.70744543
_cell_length_c   3.21739900
_cell_angle_alpha   90.00000000
_cell_angle_beta   90.00000000
_cell_angle_gamma   123.77157668
_symmetry_Int_Tables_number   1
_chemical_formula_structural   CdAuO2
_chemical_formula_sum   'Cd2 Au2 O4'
_cell_volume   120.32511229
_cell_formula_units_Z   2
loop_
 _symmetry_equiv_pos_site_id
 _symmetry_equiv_pos_as_xyz
  1  'x, y, z'
loop_
 _atom_site_type_symbol
 _atom_site_label
 _atom_site_symmetry_multiplicity
 _atom_site_fract_x
 _atom_site_fract_y
 _atom_site_fract_z
 _atom_site_occupancy
  Cd  Cd0  1  0.00000000  0.50000000  0.50000000  1
  Cd  Cd1  1  0.50000000  0.00000000  0.50000000  1
  Au  Au0  1  0.00000000  0.00000000  0.00000000  1
  Au  Au1  1  0.50000000  0.50000000  0.00000000  1
  O  O0  1  0.82292500  0.17707500  0.00000000  1
  O  O1  1  0.17707500  0.82292500  0.00000000  1
  O  O2  1  0.60895900  0.39104100  0.50000000  1
  O  O3  1  0.39104100  0.60895900  0.50000000  1
loop_
_geom_bond_atom_site_label_1
_geom_bond_atom_site_label_2
_geom_bond_distance
_geom_bond_site_symmetry_2
Cd0 O3 2.298371 1_555
Cd0 O2 2.298371 1_455
Cd0 O1 2.414544 1_555
Cd0 O1 2.414544 1_556
Cd0 O0 2.414544 1_455
Cd0 O0 2.414544 1_456
Cd1 O2 2.298371 1_555
Cd1 O3 2.298371 1_545
Cd1 O0 2.414544 1_555
Cd1 O0 2.414544 1_556
Cd1 O1 2.414544 1_546
Cd1 O1 2.414544 1_545
Au0 O0 2.095163 1_455
Au0 O1 2.095163 1_545
Au1 O3 2.061547 1_555
Au1 O2 2.061547 1_555
Au1 O2 2.061547 1_554
Au1 O3 2.061547 1_554
