# generated using pymatgen
data_Zn3Sb
_symmetry_space_group_name_H-M   'P 1'
_cell_length_a   5.17962498
_cell_length_b   5.17962498
_cell_length_c   5.17962498
_cell_angle_alpha   132.82816460
_cell_angle_beta   132.82816460
_cell_angle_gamma   68.92413421
_symmetry_Int_Tables_number   1
_chemical_formula_structural   Zn3Sb
_chemical_formula_sum   'Zn3 Sb1'
_cell_volume   73.37276484
_cell_formula_units_Z   1
loop_
 _symmetry_equiv_pos_site_id
 _symmetry_equiv_pos_as_xyz
  1  'x, y, z'
loop_
 _atom_site_type_symbol
 _atom_site_label
 _atom_site_symmetry_multiplicity
 _atom_site_fract_x
 _atom_site_fract_y
 _atom_site_fract_z
 _atom_site_occupancy
  Zn  Zn0  1  0.74999900  0.25000000  0.49999900  1
  Zn  Zn1  1  0.25000000  0.74999900  0.49999900  1
  Zn  Zn2  1  0.49999900  0.49999900  0.00000000  1
  Sb  Sb0  1  0.00000000  -0.00000000  0.00000000  1
loop_
_geom_bond_atom_site_label_1
_geom_bond_atom_site_label_2
_geom_bond_distance
_geom_bond_site_symmetry_2
Zn0 Zn1 2.930939 1_555
Zn0 Zn1 2.930945 1_544
Zn0 Zn1 2.930945 1_656
Zn0 Zn1 2.930951 1_645
Zn0 Zn2 2.975682 1_555
Zn0 Zn2 2.975688 1_656
Zn0 Zn2 2.975697 1_545
Zn0 Zn2 2.975697 1_556
Zn1 Zn2 2.975682 1_555
Zn1 Zn2 2.975688 1_566
Zn1 Zn2 2.975697 1_455
Zn1 Zn2 2.975697 1_556
Sb0 Zn2 2.930945 1_556
Sb0 Zn2 2.930945 1_444
Sb0 Zn2 2.930945 1_455
Sb0 Zn2 2.930945 1_545
Sb0 Zn0 2.975688 1_555
Sb0 Zn1 2.975688 1_555
Sb0 Zn1 2.975691 1_444
Sb0 Zn1 2.975691 1_545
Sb0 Zn0 2.975691 1_455
Sb0 Zn0 2.975691 1_444
Sb0 Zn0 2.975694 1_454
Sb0 Zn1 2.975694 1_544
