# generated using pymatgen
data_H6PbCBr3N
_symmetry_space_group_name_H-M   'P 1'
_cell_length_a   8.58699900
_cell_length_b   8.59140362
_cell_length_c   12.20770988
_cell_angle_alpha   89.43088486
_cell_angle_beta   89.52247293
_cell_angle_gamma   89.92370701
_symmetry_Int_Tables_number   1
_chemical_formula_structural   H6PbCBr3N
_chemical_formula_sum   'H24 Pb4 C4 Br12 N4'
_cell_volume   900.53974935
_cell_formula_units_Z   4
loop_
 _symmetry_equiv_pos_site_id
 _symmetry_equiv_pos_as_xyz
  1  'x, y, z'
loop_
 _atom_site_type_symbol
 _atom_site_label
 _atom_site_symmetry_multiplicity
 _atom_site_fract_x
 _atom_site_fract_y
 _atom_site_fract_z
 _atom_site_occupancy
  H  H0  1  0.58414000  0.08188200  0.70377500  1
  H  H1  1  0.37935900  0.03614800  0.70729300  1
  H  H2  1  0.60561400  0.96701600  0.88663300  1
  H  H3  1  0.41938100  0.91754200  0.88726300  1
  H  H4  1  0.46414400  0.10445700  0.88881700  1
  H  H5  1  0.07994400  0.58533200  0.70225200  1
  H  H6  1  0.87750700  0.52983800  0.70670700  1
  H  H7  1  0.10947300  0.47822600  0.88398500  1
  H  H8  1  0.92452300  0.41641400  0.88978300  1
  H  H9  1  0.96493500  0.60602200  0.88584800  1
  H  H10  1  0.11716900  0.50968600  0.20277800  1
  H  H11  1  0.92964700  0.60407800  0.20635600  1
  H  H12  1  0.06904000  0.40949900  0.38648800  1
  H  H13  1  0.89049600  0.48978300  0.38849100  1
  H  H14  1  0.04627100  0.60191600  0.38545200  1
  H  H15  1  0.57902200  0.08538400  0.20296000  1
  H  H16  1  0.37826700  0.02473600  0.20691800  1
  H  H17  1  0.60905200  0.98170500  0.38589700  1
  H  H18  1  0.42532800  0.91619000  0.39099600  1
  H  H19  1  0.46227500  0.10652200  0.38561800  1
  H  H20  1  0.94072400  0.39592600  0.20514400  1
  H  H21  1  0.02507600  0.38261100  0.70475700  1
  H  H22  1  0.51908600  0.88180900  0.70526700  1
  H  H23  1  0.52971500  0.88122200  0.20698300  1
  Pb  Pb0  1  0.00169900  0.00032200  0.00691600  1
  Pb  Pb1  1  0.50198200  0.50053600  0.50700700  1
  Pb  Pb2  1  0.99702300  0.00085400  0.50703300  1
  Pb  Pb3  1  0.50055700  0.50120500  0.00697900  1
  C  C0  1  0.49619100  0.99756900  0.23387300  1
  C  C1  1  0.99517900  0.49917200  0.73295700  1
  C  C2  1  0.99711600  0.50216400  0.23310500  1
  C  C3  1  0.49553900  0.00012700  0.73380500  1
  Br  Br0  1  0.99929900  0.99986000  0.24978600  1
  Br  Br1  1  0.49900400  0.50056200  0.74974400  1
  Br  Br2  1  0.00028600  0.99991900  0.74975000  1
  Br  Br3  1  0.50055800  0.49963900  0.24974900  1
  Br  Br4  1  0.77465700  0.27291700  0.00373700  1
  Br  Br5  1  0.27122100  0.77167900  0.50244700  1
  Br  Br6  1  0.73123000  0.77699900  0.00264400  1
  Br  Br7  1  0.22637400  0.27233200  0.50187200  1
  Br  Br8  1  0.22957700  0.72814000  0.00193900  1
  Br  Br9  1  0.72631700  0.22684000  0.50396500  1
  Br  Br10  1  0.27770100  0.23065800  0.00295700  1
  Br  Br11  1  0.77303200  0.72585600  0.50365600  1
  N  N0  1  0.49911200  0.00081200  0.35598400  1
  N  N1  1  0.99908700  0.50045100  0.85500300  1
  N  N2  1  0.00047500  0.50054900  0.35508300  1
  N  N3  1  0.49726500  0.99811400  0.85570900  1
loop_
_geom_bond_atom_site_label_1
_geom_bond_atom_site_label_2
_geom_bond_distance
_geom_bond_site_symmetry_2
H2 N3 1.040537 1_555
H3 N3 1.032705 1_555
H4 N3 1.041010 1_545
H7 N1 1.031449 1_455
H8 N1 1.049819 1_555
H9 N1 1.026977 1_555
H12 N2 1.049819 1_555
H13 N2 1.029475 1_655
H14 N2 1.029703 1_555
H17 N0 1.027462 1_565
H18 N0 1.050339 1_565
H19 N0 1.029372 1_555
C0 H16 1.091577 1_565
C0 H23 1.092691 1_555
C0 H15 1.099463 1_565
C0 N0 1.491653 1_565
C1 H21 1.091769 1_655
C1 H6 1.093674 1_555
C1 H5 1.099833 1_655
C1 N1 1.490710 1_555
C2 H20 1.092796 1_555
C2 H10 1.094224 1_655
C2 H11 1.097750 1_555
C2 N2 1.489518 1_655
C3 H0 1.094644 1_555
C3 H1 1.094702 1_555
C3 H22 1.095845 1_545
C3 N3 1.488294 1_545
Br0 Pb0 2.964750 1_665
Br0 Pb2 3.140391 1_565
Br1 Pb1 2.963162 1_555
Br1 Pb3 3.140449 1_556
Br2 Pb2 2.963316 1_465
Br2 Pb0 3.139569 1_566
Br3 Pb3 2.963563 1_555
Br3 Pb1 3.140743 1_555
Br4 H8 2.247560 1_554
Br4 Pb0 3.045426 1_655
Br4 Pb3 3.062010 1_555
Br5 H18 2.254896 1_555
Br5 Pb1 3.056657 1_555
Br5 Pb2 3.067790 1_465
Br6 Pb0 3.015614 1_665
Br6 Pb3 3.090132 1_555
Br7 H12 2.278732 1_555
Br7 Pb2 3.054485 1_455
Br7 Pb1 3.076709 1_555
Br8 Pb3 3.034384 1_555
Br8 Pb0 3.047884 1_565
Br9 Pb2 3.026962 1_555
Br9 Pb1 3.038087 1_555
Br10 Pb3 3.013791 1_555
Br10 Pb0 3.089359 1_555
Br11 Pb1 3.029055 1_555
Br11 Pb2 3.049350 1_565
