# generated using pymatgen
data_Ni3H
_symmetry_space_group_name_H-M   'P 1'
_cell_length_a   3.77947867
_cell_length_b   3.77947867
_cell_length_c   3.77947867
_cell_angle_alpha   60.00000000
_cell_angle_beta   60.00000000
_cell_angle_gamma   60.00000000
_symmetry_Int_Tables_number   1
_chemical_formula_structural   Ni3H
_chemical_formula_sum   'Ni3 H1'
_cell_volume   38.17514539
_cell_formula_units_Z   1
loop_
 _symmetry_equiv_pos_site_id
 _symmetry_equiv_pos_as_xyz
  1  'x, y, z'
loop_
 _atom_site_type_symbol
 _atom_site_label
 _atom_site_symmetry_multiplicity
 _atom_site_fract_x
 _atom_site_fract_y
 _atom_site_fract_z
 _atom_site_occupancy
  Ni  Ni0  1  0.25000000  0.25000000  0.25000000  1
  Ni  Ni1  1  0.75000000  0.75000000  0.75000000  1
  Ni  Ni2  1  0.50000000  0.50000000  0.50000000  1
  H  H0  1  0.00000000  0.00000000  0.00000000  1
loop_
_geom_bond_atom_site_label_1
_geom_bond_atom_site_label_2
_geom_bond_distance
_geom_bond_site_symmetry_2
Ni0 Ni2 2.314449 1_554
Ni0 Ni2 2.314449 1_455
Ni0 Ni2 2.314449 1_555
Ni0 Ni2 2.314449 1_545
Ni1 Ni2 2.314449 1_655
Ni1 Ni2 2.314449 1_555
Ni1 Ni2 2.314449 1_565
Ni1 Ni2 2.314449 1_556
H0 Ni1 2.314449 1_454
H0 Ni1 2.314449 1_444
H0 Ni0 2.314449 1_545
H0 Ni0 2.314449 1_554
H0 Ni1 2.314449 1_544
H0 Ni0 2.314449 1_455
H0 Ni0 2.314449 1_555
H0 Ni1 2.314449 1_445
