# generated using pymatgen
data_AgAu3
_symmetry_space_group_name_H-M   'P 1'
_cell_length_a   5.77821787
_cell_length_b   5.77821787
_cell_length_c   4.86299870
_cell_angle_alpha   90.00000000
_cell_angle_beta   90.00000000
_cell_angle_gamma   120.00000627
_symmetry_Int_Tables_number   1
_chemical_formula_structural   AgAu3
_chemical_formula_sum   'Ag2 Au6'
_cell_volume   140.61206411
_cell_formula_units_Z   2
loop_
 _symmetry_equiv_pos_site_id
 _symmetry_equiv_pos_as_xyz
  1  'x, y, z'
loop_
 _atom_site_type_symbol
 _atom_site_label
 _atom_site_symmetry_multiplicity
 _atom_site_fract_x
 _atom_site_fract_y
 _atom_site_fract_z
 _atom_site_occupancy
  Ag  Ag0  1  0.33333300  0.66666700  0.75000000  1
  Ag  Ag1  1  0.66666700  0.33333300  0.25000000  1
  Au  Au0  1  0.16726675  0.33453249  0.25000000  1
  Au  Au1  1  0.66546751  0.83273325  0.25000000  1
  Au  Au2  1  0.16726675  0.83273325  0.25000000  1
  Au  Au3  1  0.83273325  0.66546751  0.75000000  1
  Au  Au4  1  0.33453249  0.16726675  0.75000000  1
  Au  Au5  1  0.83273325  0.16726675  0.75000000  1
loop_
_geom_bond_atom_site_label_1
_geom_bond_atom_site_label_2
_geom_bond_distance
_geom_bond_site_symmetry_2
Ag0 Au5 2.889115 1_565
Ag0 Au5 2.889115 1_455
Ag0 Au3 2.889115 1_555
Ag0 Au4 2.889115 1_555
Ag0 Au3 2.889115 1_455
Ag0 Au4 2.889115 1_565
Ag0 Au2 2.945250 1_555
Ag0 Au2 2.945250 1_556
Ag0 Au1 2.945255 1_556
Ag0 Au0 2.945255 1_555
Ag0 Au1 2.945255 1_555
Ag0 Au0 2.945255 1_556
Ag1 Au2 2.889115 1_545
Ag1 Au2 2.889115 1_655
Ag1 Au1 2.889115 1_555
Ag1 Au0 2.889115 1_555
Ag1 Au0 2.889115 1_655
Ag1 Au1 2.889115 1_545
Ag1 Au5 2.945250 1_555
Ag1 Au5 2.945250 1_554
Ag1 Au4 2.945255 1_555
Ag1 Au4 2.945255 1_554
Ag1 Au3 2.945255 1_554
Ag1 Au3 2.945255 1_555
Au0 Au1 2.878712 1_555
Au0 Au2 2.878713 1_555
Au0 Au1 2.899505 1_445
Au0 Au2 2.899505 1_545
Au0 Au4 2.952041 1_555
Au0 Au4 2.952041 1_554
Au0 Au5 2.952046 1_454
Au0 Au5 2.952046 1_455
Au1 Au2 2.878713 1_555
Au1 Au2 2.899505 1_655
Au1 Au3 2.952041 1_555
Au1 Au3 2.952041 1_554
Au1 Au5 2.952046 1_565
Au1 Au5 2.952046 1_564
Au2 Au4 2.952046 1_564
Au2 Au3 2.952046 1_455
Au2 Au4 2.952046 1_565
Au2 Au3 2.952046 1_454
Au3 Au4 2.878712 1_555
Au3 Au5 2.878713 1_555
Au3 Au4 2.899505 1_665
Au3 Au5 2.899505 1_565
Au4 Au5 2.878713 1_555
Au4 Au5 2.899505 1_455
