# generated using pymatgen
data_Dy3Y
_symmetry_space_group_name_H-M   'P 1'
_cell_length_a   5.04002720
_cell_length_b   5.04002505
_cell_length_c   5.04002398
_cell_angle_alpha   90.00000000
_cell_angle_beta   89.99997567
_cell_angle_gamma   89.99997567
_symmetry_Int_Tables_number   1
_chemical_formula_structural   Dy3Y
_chemical_formula_sum   'Dy3 Y1'
_cell_volume   128.02600037
_cell_formula_units_Z   1
loop_
 _symmetry_equiv_pos_site_id
 _symmetry_equiv_pos_as_xyz
  1  'x, y, z'
loop_
 _atom_site_type_symbol
 _atom_site_label
 _atom_site_symmetry_multiplicity
 _atom_site_fract_x
 _atom_site_fract_y
 _atom_site_fract_z
 _atom_site_occupancy
  Dy  Dy0  1  0.50000000  0.50000100  0.00000000  1
  Dy  Dy1  1  0.49999900  0.00000000  0.50000000  1
  Dy  Dy2  1  -0.00000000  0.50000000  0.49999900  1
  Y  Y0  1  0.00000100  0.99999900  0.00000100  1
loop_
_geom_bond_atom_site_label_1
_geom_bond_atom_site_label_2
_geom_bond_distance
_geom_bond_site_symmetry_2
Dy0 Y0 3.563825 1_555
Dy0 Dy1 3.563832 1_565
Dy0 Dy1 3.563832 1_564
Dy0 Dy2 3.563832 1_555
Dy0 Dy2 3.563833 1_655
Dy0 Y0 3.563834 1_655
Dy0 Dy1 3.563839 1_555
Dy0 Dy1 3.563839 1_554
Dy0 Dy2 3.563839 1_654
Dy0 Dy2 3.563841 1_554
Dy0 Y0 3.563841 1_545
Dy0 Y0 3.563847 1_645
Dy1 Y0 3.563826 1_545
Dy1 Y0 3.563832 1_546
Dy1 Dy2 3.563832 1_555
Dy1 Dy2 3.563834 1_545
Dy1 Y0 3.563839 1_645
Dy1 Dy2 3.563839 1_645
Dy1 Dy2 3.563841 1_655
Dy1 Y0 3.563848 1_646
Dy2 Y0 3.563825 1_555
Dy2 Y0 3.563832 1_545
Dy2 Y0 3.563839 1_556
Dy2 Y0 3.563846 1_546
