# generated using pymatgen
data_TaHgS2
_symmetry_space_group_name_H-M   'P 1'
_cell_length_a   19.78750268
_cell_length_b   19.78750268
_cell_length_c   19.78750285
_cell_angle_alpha   19.66702927
_cell_angle_beta   19.66702927
_cell_angle_gamma   19.66702948
_symmetry_Int_Tables_number   1
_chemical_formula_structural   TaHgS2
_chemical_formula_sum   'Ta8 Hg8 S16'
_cell_volume   767.45680651
_cell_formula_units_Z   8
loop_
 _symmetry_equiv_pos_site_id
 _symmetry_equiv_pos_as_xyz
  1  'x, y, z'
loop_
 _atom_site_type_symbol
 _atom_site_label
 _atom_site_symmetry_multiplicity
 _atom_site_fract_x
 _atom_site_fract_y
 _atom_site_fract_z
 _atom_site_occupancy
  Ta  Ta0_0  1  0.00000000  0.00000000  0.00000000  1
  Ta  Ta0_1  1  0.00000000  0.00000000  0.50000000  1
  Ta  Ta0_2  1  0.00000000  0.50000000  0.00000000  1
  Ta  Ta0_3  1  0.00000000  0.50000000  0.50000000  1
  Ta  Ta0_4  1  0.50000000  0.00000000  0.00000000  1
  Ta  Ta0_5  1  0.50000000  0.00000000  0.50000000  1
  Ta  Ta0_6  1  0.50000000  0.50000000  0.00000000  1
  Ta  Ta0_7  1  0.50000000  0.50000000  0.50000000  1
  Hg  Hg0_0  1  0.25000000  0.25000000  0.25000000  1
  Hg  Hg0_1  1  0.25000000  0.25000000  0.75000000  1
  Hg  Hg0_2  1  0.25000000  0.75000000  0.25000000  1
  Hg  Hg0_3  1  0.25000000  0.75000000  0.75000000  1
  Hg  Hg0_4  1  0.75000000  0.25000000  0.25000000  1
  Hg  Hg0_5  1  0.75000000  0.25000000  0.75000000  1
  Hg  Hg0_6  1  0.75000000  0.75000000  0.25000000  1
  Hg  Hg0_7  1  0.75000000  0.75000000  0.75000000  1
  S  S0_0  1  0.35970250  0.35970250  0.35970250  1
  S  S0_1  1  0.35970250  0.35970250  0.85970250  1
  S  S0_2  1  0.35970250  0.85970250  0.35970250  1
  S  S0_3  1  0.35970250  0.85970250  0.85970250  1
  S  S0_4  1  0.85970250  0.35970250  0.35970250  1
  S  S0_5  1  0.85970250  0.35970250  0.85970250  1
  S  S0_6  1  0.85970250  0.85970250  0.35970250  1
  S  S0_7  1  0.85970250  0.85970250  0.85970250  1
  S  S1_0  1  0.14029750  0.14029750  0.14029750  1
  S  S1_1  1  0.14029750  0.14029750  0.64029750  1
  S  S1_2  1  0.14029750  0.64029750  0.14029750  1
  S  S1_3  1  0.14029750  0.64029750  0.64029750  1
  S  S1_4  1  0.64029750  0.14029750  0.14029750  1
  S  S1_5  1  0.64029750  0.14029750  0.64029750  1
  S  S1_6  1  0.64029750  0.64029750  0.14029750  1
  S  S1_7  1  0.64029750  0.64029750  0.64029750  1
loop_
_geom_bond_atom_site_label_1
_geom_bond_atom_site_label_2
_geom_bond_distance
_geom_bond_site_symmetry_2
Hg0_0 Hg0_5 3.379426 1_455
Hg0_0 Hg0_3 3.379426 1_545
Hg0_0 Hg0_3 3.379426 1_554
Hg0_0 Hg0_5 3.379426 1_554
Hg0_0 Hg0_6 3.379426 1_545
Hg0_0 Hg0_6 3.379426 1_455
Hg0_1 Hg0_4 3.379426 1_456
Hg0_1 Hg0_2 3.379426 1_546
Hg0_1 Hg0_2 3.379426 1_555
Hg0_1 Hg0_4 3.379426 1_555
Hg0_1 Hg0_7 3.379426 1_455
Hg0_1 Hg0_7 3.379426 1_545
Hg0_2 Hg0_7 3.379426 1_554
Hg0_2 Hg0_7 3.379426 1_455
Hg0_2 Hg0_4 3.379426 1_465
Hg0_2 Hg0_4 3.379426 1_555
Hg0_3 Hg0_6 3.379426 1_456
Hg0_3 Hg0_6 3.379426 1_555
Hg0_3 Hg0_5 3.379426 1_465
Hg0_3 Hg0_5 3.379426 1_555
Hg0_4 Hg0_7 3.379426 1_554
Hg0_4 Hg0_7 3.379426 1_545
Hg0_5 Hg0_6 3.379426 1_546
Hg0_5 Hg0_6 3.379426 1_555
S0_0 Ta0_3 2.482305 1_555
S0_0 Ta0_5 2.482305 1_555
S0_0 Ta0_6 2.482305 1_555
S0_1 Ta0_4 2.482305 1_556
S0_1 Ta0_2 2.482305 1_556
S0_1 Ta0_7 2.482305 1_555
S0_2 Ta0_1 2.482305 1_565
S0_2 Ta0_7 2.482305 1_555
S0_2 Ta0_4 2.482305 1_565
S0_3 Ta0_6 2.482305 1_556
S0_3 Ta0_0 2.482305 1_566
S0_3 Ta0_5 2.482305 1_565
S0_4 Ta0_1 2.482305 1_655
S0_4 Ta0_7 2.482305 1_555
S0_4 Ta0_2 2.482305 1_655
S0_5 Ta0_6 2.482305 1_556
S0_5 Ta0_0 2.482305 1_656
S0_5 Ta0_3 2.482305 1_655
S0_6 Ta0_3 2.482305 1_655
S0_6 Ta0_5 2.482305 1_565
S0_6 Ta0_0 2.482305 1_665
S0_7 Ta0_4 2.482305 1_566
S0_7 Ta0_2 2.482305 1_656
S0_7 Ta0_1 2.482305 1_665
S1_0 Ta0_4 2.482305 1_555
S1_0 Ta0_2 2.482305 1_555
S1_0 Ta0_1 2.482305 1_555
S1_1 Ta0_5 2.482305 1_555
S1_1 Ta0_3 2.482305 1_555
S1_1 Ta0_0 2.482305 1_556
S1_2 Ta0_0 2.482305 1_565
S1_2 Ta0_6 2.482305 1_555
S1_2 Ta0_3 2.482305 1_555
S1_3 Ta0_1 2.482305 1_565
S1_3 Ta0_7 2.482305 1_555
S1_3 Ta0_2 2.482305 1_556
S1_4 Ta0_0 2.482305 1_655
S1_4 Ta0_6 2.482305 1_555
S1_4 Ta0_5 2.482305 1_555
S1_5 Ta0_7 2.482305 1_555
S1_5 Ta0_1 2.482305 1_655
S1_5 Ta0_4 2.482305 1_556
S1_6 Ta0_2 2.482305 1_655
S1_6 Ta0_4 2.482305 1_565
S1_6 Ta0_7 2.482305 1_555
S1_7 Ta0_5 2.482305 1_565
S1_7 Ta0_3 2.482305 1_655
S1_7 Ta0_6 2.482305 1_556
