# generated using pymatgen
data_V4SiSb2
_symmetry_space_group_name_H-M   'P 1'
_cell_length_a   7.36103562
_cell_length_b   7.36103562
_cell_length_c   7.36103562
_cell_angle_alpha   95.83168184
_cell_angle_beta   95.83168184
_cell_angle_gamma   142.82438791
_symmetry_Int_Tables_number   1
_chemical_formula_structural   V4SiSb2
_chemical_formula_sum   'V8 Si2 Sb4'
_cell_volume   228.44094104
_cell_formula_units_Z   2
loop_
 _symmetry_equiv_pos_site_id
 _symmetry_equiv_pos_as_xyz
  1  'x, y, z'
loop_
 _atom_site_type_symbol
 _atom_site_label
 _atom_site_symmetry_multiplicity
 _atom_site_fract_x
 _atom_site_fract_y
 _atom_site_fract_z
 _atom_site_occupancy
  V  V0  1  0.91522100  0.79453800  0.70975900  1
  V  V1  1  0.79453800  0.08477900  0.87931700  1
  V  V2  1  0.41522100  0.70546200  0.12068300  1
  V  V3  1  0.58477900  0.29453800  0.87931700  1
  V  V4  1  0.70546200  0.58477900  0.29024100  1
  V  V5  1  0.29453800  0.41522100  0.70975900  1
  V  V6  1  0.20546200  0.91522100  0.12068300  1
  V  V7  1  0.08477900  0.20546200  0.29024100  1
  Si  Si0  1  0.25000000  0.25000000  0.00000000  1
  Si  Si1  1  0.75000000  0.75000000  0.00000000  1
  Sb  Sb0  1  0.64107500  0.85892500  0.50000000  1
  Sb  Sb1  1  0.14107500  0.64107500  0.78214900  1
  Sb  Sb2  1  0.85892500  0.35892500  0.21785000  1
  Sb  Sb3  1  0.35892500  0.14107500  0.50000000  1
loop_
_geom_bond_atom_site_label_1
_geom_bond_atom_site_label_2
_geom_bond_distance
_geom_bond_site_symmetry_2
Si0 Si1 2.346386 1_445
Si0 Si1 2.346386 1_555
Si0 V0 2.487188 1_444
Si0 V5 2.487188 1_554
Si0 V2 2.487188 1_555
Si0 V7 2.487188 1_555
Si0 V6 2.487188 1_545
Si0 V1 2.487188 1_454
Si0 V4 2.487188 1_555
Si0 V3 2.487188 1_554
Si1 V0 2.487188 1_554
Si1 V1 2.487188 1_564
Si1 V6 2.487188 1_655
Si1 V5 2.487188 1_554
Si1 V7 2.487188 1_665
Si1 V4 2.487188 1_555
Si1 V3 2.487188 1_554
Si1 V2 2.487188 1_555
Sb0 V2 2.694281 1_555
Sb0 V1 2.694281 1_565
Sb0 V0 2.778616 1_555
Sb0 V4 2.778616 1_555
Sb0 V5 2.847273 1_665
Sb0 V7 2.847273 1_555
Sb0 V7 2.847273 1_665
Sb0 V5 2.847273 1_555
Sb1 V5 2.694280 1_555
Sb1 V0 2.694280 1_455
Sb1 V2 2.778622 1_556
Sb1 V6 2.778622 1_556
Sb1 V1 2.847273 1_565
Sb1 V3 2.847273 1_565
Sb1 V1 2.847276 1_455
Sb1 V3 2.847276 1_455
Sb2 V7 2.694281 1_655
Sb2 V4 2.694281 1_555
Sb2 V1 2.778616 1_554
Sb2 V3 2.778616 1_554
Sb2 V6 2.847273 1_655
Sb2 V2 2.847273 1_545
Sb2 V6 2.847273 1_545
Sb2 V2 2.847273 1_655
Sb3 V3 2.694281 1_555
Sb3 V6 2.694281 1_545
Sb3 V5 2.778616 1_555
Sb3 V7 2.778616 1_555
Sb3 V4 2.847273 1_445
Sb3 V4 2.847273 1_555
Sb3 V0 2.847273 1_445
Sb3 V0 2.847273 1_555
