# generated using pymatgen
data_RbCuBr3
_symmetry_space_group_name_H-M   'P 1'
_cell_length_a   5.14688603
_cell_length_b   5.15386230
_cell_length_c   5.13240238
_cell_angle_alpha   90.01348162
_cell_angle_beta   90.05831959
_cell_angle_gamma   90.02353057
_symmetry_Int_Tables_number   1
_chemical_formula_structural   RbCuBr3
_chemical_formula_sum   'Rb1 Cu1 Br3'
_cell_volume   136.14377432
_cell_formula_units_Z   1
loop_
 _symmetry_equiv_pos_site_id
 _symmetry_equiv_pos_as_xyz
  1  'x, y, z'
loop_
 _atom_site_type_symbol
 _atom_site_label
 _atom_site_symmetry_multiplicity
 _atom_site_fract_x
 _atom_site_fract_y
 _atom_site_fract_z
 _atom_site_occupancy
  Rb  Rb0  1  0.00566889  0.98976937  0.01454108  1
  Cu  Cu0  1  0.50512781  0.49035705  0.51438505  1
  Br  Br0  1  0.50627955  0.49054914  0.01353196  1
  Br  Br1  1  0.50644779  0.98992920  0.51344360  1
  Br  Br2  1  0.00647595  0.48939725  0.51409830  1
loop_
_geom_bond_atom_site_label_1
_geom_bond_atom_site_label_2
_geom_bond_distance
_geom_bond_site_symmetry_2
Br0 Cu0 2.561824 1_554
Br0 Cu0 2.570593 1_555
Br0 Rb0 3.636053 1_655
Br0 Rb0 3.642000 1_555
Br0 Rb0 3.643240 1_645
Br0 Rb0 3.646189 1_545
Br1 Cu0 2.574738 1_555
Br1 Cu0 2.579151 1_565
Br1 Rb0 3.629311 1_655
Br1 Rb0 3.631299 1_555
Br1 Rb0 3.633576 1_656
Br1 Rb0 3.642950 1_556
Br2 Cu0 2.566506 1_555
Br2 Cu0 2.580390 1_455
Br2 Rb0 3.633360 1_545
Br2 Rb0 3.636937 1_555
Br2 Rb0 3.637429 1_546
Br2 Rb0 3.639293 1_556
