# generated using pymatgen
data_BaReN3
_symmetry_space_group_name_H-M   'P 1'
_cell_length_a   7.98970704
_cell_length_b   7.98970704
_cell_length_c   6.14392328
_cell_angle_alpha   81.54328598
_cell_angle_beta   81.54328598
_cell_angle_gamma   91.19638265
_symmetry_Int_Tables_number   1
_chemical_formula_structural   BaReN3
_chemical_formula_sum   'Ba4 Re4 N12'
_cell_volume   383.35537609
_cell_formula_units_Z   4
loop_
 _symmetry_equiv_pos_site_id
 _symmetry_equiv_pos_as_xyz
  1  'x, y, z'
loop_
 _atom_site_type_symbol
 _atom_site_label
 _atom_site_symmetry_multiplicity
 _atom_site_fract_x
 _atom_site_fract_y
 _atom_site_fract_z
 _atom_site_occupancy
  Ba  Ba0  1  0.32851664  0.67148336  0.25000000  1
  Ba  Ba1  1  0.10009540  0.89990460  0.75000000  1
  Ba  Ba2  1  0.67148336  0.32851664  0.75000000  1
  Ba  Ba3  1  0.89990460  0.10009540  0.25000000  1
  Re  Re0  1  0.20419014  0.36961971  0.76012495  1
  Re  Re1  1  0.63038029  0.79580986  0.73987505  1
  Re  Re2  1  0.36961971  0.20419014  0.26012495  1
  Re  Re3  1  0.79580986  0.63038029  0.23987505  1
  N  N0  1  0.76517503  0.97958276  0.68177565  1
  N  N1  1  0.64234891  0.68042540  0.48634095  1
  N  N2  1  0.35765109  0.31957460  0.51365905  1
  N  N3  1  0.97958276  0.76517503  0.18177565  1
  N  N4  1  0.85367058  0.42345522  0.31680778  1
  N  N5  1  0.23482497  0.02041724  0.31822435  1
  N  N6  1  0.14632942  0.57654478  0.68319222  1
  N  N7  1  0.42345522  0.85367058  0.81680778  1
  N  N8  1  0.57654478  0.14632942  0.18319222  1
  N  N9  1  0.68042540  0.64234891  0.98634095  1
  N  N10  1  0.31957460  0.35765109  0.01365905  1
  N  N11  1  0.02041724  0.23482497  0.81822435  1
loop_
_geom_bond_atom_site_label_1
_geom_bond_atom_site_label_2
_geom_bond_distance
_geom_bond_site_symmetry_2
Ba0 N6 2.828147 1_555
Ba0 N7 2.828147 1_554
Ba0 N3 2.974373 1_455
Ba0 N5 2.974373 1_565
Ba0 N9 3.063046 1_554
Ba0 N2 3.063046 1_555
Ba0 N10 3.081347 1_555
Ba0 N1 3.081347 1_555
Ba1 N6 2.699412 1_555
Ba1 N7 2.699412 1_555
Ba1 N3 2.736552 1_456
Ba1 N5 2.736552 1_565
Ba1 N0 2.839726 1_455
Ba1 N11 2.839726 1_565
Ba2 N8 2.828147 1_556
Ba2 N4 2.828147 1_555
Ba2 N11 2.974373 1_655
Ba2 N0 2.974373 1_545
Ba2 N1 3.063046 1_555
Ba2 N10 3.063046 1_556
Ba2 N2 3.081347 1_555
Ba2 N9 3.081347 1_555
Ba3 N8 2.699412 1_555
Ba3 N4 2.699412 1_555
Ba3 N0 2.736552 1_545
Ba3 N11 2.736552 1_654
Ba3 N3 2.839726 1_545
Ba3 N5 2.839726 1_655
N0 Re1 1.763492 1_555
N1 Re3 1.899656 1_555
N1 Re1 1.915116 1_555
N2 Re0 1.899656 1_555
N2 Re2 1.915116 1_555
N3 Re3 1.763492 1_555
N4 Re3 1.742634 1_555
N5 Re2 1.763492 1_555
N6 Re0 1.742634 1_555
N7 Re1 1.742634 1_555
N8 Re2 1.742634 1_555
N9 Re1 1.899656 1_555
N9 Re3 1.915116 1_556
N10 Re2 1.899656 1_555
N10 Re0 1.915116 1_554
N11 Re0 1.763492 1_555
