# generated using pymatgen
data_LaTb3
_symmetry_space_group_name_H-M   'P 1'
_cell_length_a   7.37384291
_cell_length_b   7.37383625
_cell_length_c   5.89543062
_cell_angle_alpha   90.00000000
_cell_angle_beta   90.00000000
_cell_angle_gamma   120.00003959
_symmetry_Int_Tables_number   1
_chemical_formula_structural   LaTb3
_chemical_formula_sum   'La2 Tb6'
_cell_volume   277.60888470
_cell_formula_units_Z   2
loop_
 _symmetry_equiv_pos_site_id
 _symmetry_equiv_pos_as_xyz
  1  'x, y, z'
loop_
 _atom_site_type_symbol
 _atom_site_label
 _atom_site_symmetry_multiplicity
 _atom_site_fract_x
 _atom_site_fract_y
 _atom_site_fract_z
 _atom_site_occupancy
  La  La0  1  0.66666700  0.33333300  0.25000000  1
  La  La1  1  0.33333400  0.66666800  0.75000200  1
  Tb  Tb0  1  0.83768377  0.16231823  0.75000200  1
  Tb  Tb1  1  0.32463346  0.16231823  0.75000200  1
  Tb  Tb2  1  0.83768377  0.67536754  0.75000200  1
  Tb  Tb3  1  0.16231623  0.83768177  0.25000000  1
  Tb  Tb4  1  0.67536554  0.83768177  0.25000000  1
  Tb  Tb5  1  0.16231623  0.32463246  0.25000000  1
loop_
_geom_bond_atom_site_label_1
_geom_bond_atom_site_label_2
_geom_bond_distance
_geom_bond_site_symmetry_2
La0 Tb0 3.668739 1_554
La0 Tb1 3.668746 1_554
La0 Tb2 3.668749 1_554
La0 Tb0 3.668758 1_555
La0 Tb1 3.668765 1_555
La0 Tb2 3.668768 1_555
La0 Tb3 3.687329 1_655
La0 Tb4 3.687333 1_555
La0 Tb5 3.687336 1_655
La0 Tb4 3.687340 1_545
La0 Tb3 3.687344 1_545
La0 Tb5 3.687344 1_555
La1 Tb4 3.668739 1_556
La1 Tb3 3.668739 1_556
La1 Tb5 3.668753 1_556
La1 Tb4 3.668758 1_555
La1 Tb3 3.668758 1_555
La1 Tb5 3.668772 1_555
La1 Tb1 3.687333 1_555
La1 Tb0 3.687336 1_455
La1 Tb0 3.687336 1_565
La1 Tb2 3.687340 1_555
La1 Tb2 3.687340 1_455
La1 Tb1 3.687340 1_565
Tb0 Tb1 3.590691 1_655
Tb0 Tb2 3.590695 1_545
Tb0 Tb5 3.603695 1_656
Tb0 Tb4 3.603709 1_546
Tb0 Tb5 3.603715 1_655
Tb0 Tb4 3.603728 1_545
Tb0 Tb2 3.783142 1_555
Tb0 Tb1 3.783152 1_555
Tb1 Tb2 3.590690 1_445
Tb1 Tb5 3.603692 1_556
Tb1 Tb3 3.603709 1_546
Tb1 Tb5 3.603711 1_555
Tb1 Tb3 3.603728 1_545
Tb1 Tb2 3.783145 1_555
Tb2 Tb3 3.603695 1_656
Tb2 Tb4 3.603696 1_556
Tb2 Tb3 3.603715 1_655
Tb2 Tb4 3.603715 1_555
Tb3 Tb5 3.590695 1_565
Tb3 Tb4 3.590698 1_455
Tb3 Tb5 3.783142 1_555
Tb3 Tb4 3.783145 1_555
Tb4 Tb5 3.590694 1_665
Tb4 Tb5 3.783141 1_555
