# generated using pymatgen
data_RbPO3
_symmetry_space_group_name_H-M   'P 1'
_cell_length_a   4.51776972
_cell_length_b   6.09760948
_cell_length_c   12.75847234
_cell_angle_alpha   90.00000000
_cell_angle_beta   90.00000000
_cell_angle_gamma   90.00000000
_symmetry_Int_Tables_number   1
_chemical_formula_structural   RbPO3
_chemical_formula_sum   'Rb4 P4 O12'
_cell_volume   351.46523488
_cell_formula_units_Z   4
loop_
 _symmetry_equiv_pos_site_id
 _symmetry_equiv_pos_as_xyz
  1  'x, y, z'
loop_
 _atom_site_type_symbol
 _atom_site_label
 _atom_site_symmetry_multiplicity
 _atom_site_fract_x
 _atom_site_fract_y
 _atom_site_fract_z
 _atom_site_occupancy
  Rb  Rb0  1  0.22802394  0.75000000  0.59542130  1
  Rb  Rb1  1  0.72802394  0.75000000  0.90457870  1
  Rb  Rb2  1  0.77197606  0.25000000  0.40457870  1
  Rb  Rb3  1  0.27197606  0.25000000  0.09542130  1
  P  P0  1  0.67751862  0.25000000  0.67505626  1
  P  P1  1  0.17751862  0.25000000  0.82494374  1
  P  P2  1  0.32248138  0.75000000  0.32494374  1
  P  P3  1  0.82248138  0.75000000  0.17505626  1
  O  O0  1  0.33550812  0.25000000  0.71185881  1
  O  O1  1  0.83550812  0.25000000  0.78814119  1
  O  O2  1  0.66449188  0.75000000  0.28814119  1
  O  O3  1  0.16449188  0.75000000  0.21185881  1
  O  O4  1  0.26533528  0.53977571  0.37998234  1
  O  O5  1  0.76533528  0.96022429  0.12001766  1
  O  O6  1  0.73466472  0.03977571  0.62001766  1
  O  O7  1  0.23466472  0.46022429  0.87998234  1
  O  O8  1  0.76533528  0.53977571  0.12001766  1
  O  O9  1  0.26533528  0.96022429  0.37998234  1
  O  O10  1  0.23466472  0.03977571  0.87998234  1
  O  O11  1  0.73466472  0.46022429  0.62001766  1
loop_
_geom_bond_atom_site_label_1
_geom_bond_atom_site_label_2
_geom_bond_distance
_geom_bond_site_symmetry_2
O0 P1 1.609689 1_555
O0 P0 1.614894 1_555
O1 P0 1.609689 1_555
O1 P1 1.614894 1_655
O2 P3 1.609689 1_555
O2 P2 1.614894 1_555
O3 P2 1.609689 1_555
O3 P3 1.614894 1_455
O4 P2 1.484227 1_555
O4 Rb2 2.861551 1_455
O4 Rb2 2.908531 1_555
O4 Rb0 3.037563 1_555
O5 P3 1.484227 1_555
O5 Rb3 2.861551 1_565
O5 Rb3 2.908531 1_665
O5 Rb1 3.037563 1_554
O6 P0 1.484227 1_555
O6 Rb0 2.861551 1_645
O6 Rb0 2.908531 1_545
O6 Rb2 3.037563 1_555
O7 P1 1.484227 1_555
O7 Rb1 2.861551 1_555
O7 Rb1 2.908531 1_455
O7 Rb3 3.037563 1_556
O8 P3 1.484227 1_555
O8 Rb3 2.861551 1_555
O8 Rb3 2.908531 1_655
O8 Rb1 3.037563 1_554
O9 P2 1.484227 1_555
O9 Rb2 2.861551 1_465
O9 Rb2 2.908531 1_565
O9 Rb0 3.037563 1_555
O10 P1 1.484227 1_555
O10 Rb1 2.861551 1_545
O10 Rb1 2.908531 1_445
O10 Rb3 3.037563 1_556
O11 P0 1.484227 1_555
O11 Rb0 2.861551 1_655
O11 Rb0 2.908531 1_555
O11 Rb2 3.037563 1_555
