# generated using pymatgen
data_Ba6Tl2NCl
_symmetry_space_group_name_H-M   'P 1'
_cell_length_a   8.29325380
_cell_length_b   8.29325380
_cell_length_c   8.29325380
_cell_angle_alpha   60.00000000
_cell_angle_beta   60.00000000
_cell_angle_gamma   60.00000000
_symmetry_Int_Tables_number   1
_chemical_formula_structural   Ba6Tl2NCl
_chemical_formula_sum   'Ba6 Tl2 N1 Cl1'
_cell_volume   403.32939163
_cell_formula_units_Z   1
loop_
 _symmetry_equiv_pos_site_id
 _symmetry_equiv_pos_as_xyz
  1  'x, y, z'
loop_
 _atom_site_type_symbol
 _atom_site_label
 _atom_site_symmetry_multiplicity
 _atom_site_fract_x
 _atom_site_fract_y
 _atom_site_fract_z
 _atom_site_occupancy
  Ba  Ba0  1  0.26757000  0.73243000  0.73243000  1
  Ba  Ba1  1  0.26757000  0.73243000  0.26757000  1
  Ba  Ba2  1  0.73243000  0.26757000  0.73243000  1
  Ba  Ba3  1  0.73243000  0.73243000  0.26757000  1
  Ba  Ba4  1  0.26757000  0.26757000  0.73243000  1
  Ba  Ba5  1  0.73243000  0.26757000  0.26757000  1
  Tl  Tl0  1  0.25000000  0.25000000  0.25000000  1
  Tl  Tl1  1  0.75000000  0.75000000  0.75000000  1
  N  N0  1  0.50000000  0.50000000  0.50000000  1
  Cl  Cl0  1  0.00000000  0.00000000  0.00000000  1
loop_
_geom_bond_atom_site_label_1
_geom_bond_atom_site_label_2
_geom_bond_distance
_geom_bond_site_symmetry_2
Ba0 N0 2.726039 1_555
Ba0 Cl0 3.138177 1_566
Ba0 Tl1 4.151744 1_555
Ba0 Tl0 4.151744 1_565
Ba0 Tl0 4.151744 1_556
Ba0 Tl1 4.151744 1_455
Ba1 N0 2.726039 1_555
Ba1 Cl0 3.138177 1_565
Ba1 Tl0 4.151744 1_565
Ba1 Tl1 4.151744 1_455
Ba1 Tl1 4.151744 1_554
Ba1 Tl0 4.151744 1_555
Ba2 N0 2.726039 1_555
Ba2 Cl0 3.138177 1_656
Ba2 Tl1 4.151744 1_555
Ba2 Tl0 4.151744 1_655
Ba2 Tl0 4.151744 1_556
Ba2 Tl1 4.151744 1_545
Ba3 N0 2.726039 1_555
Ba3 Cl0 3.138177 1_665
Ba3 Tl1 4.151744 1_555
Ba3 Tl0 4.151744 1_655
Ba3 Tl0 4.151744 1_565
Ba3 Tl1 4.151744 1_554
Ba4 N0 2.726039 1_555
Ba4 Cl0 3.138177 1_556
Ba4 Tl0 4.151744 1_556
Ba4 Tl1 4.151744 1_455
Ba4 Tl1 4.151744 1_545
Ba4 Tl0 4.151744 1_555
Ba5 N0 2.726039 1_555
Ba5 Cl0 3.138177 1_655
Ba5 Tl0 4.151744 1_655
Ba5 Tl1 4.151744 1_545
Ba5 Tl1 4.151744 1_554
Ba5 Tl0 4.151744 1_555
