# generated using pymatgen
data_V2(PO4)3
_symmetry_space_group_name_H-M   'P 1'
_cell_length_a   8.44932500
_cell_length_b   8.45111221
_cell_length_c   8.73830160
_cell_angle_alpha   118.70049752
_cell_angle_beta   90.11644983
_cell_angle_gamma   119.94289110
_symmetry_Int_Tables_number   1
_chemical_formula_structural   V2(PO4)3
_chemical_formula_sum   'V4 P6 O24'
_cell_volume   449.63106534
_cell_formula_units_Z   2
loop_
 _symmetry_equiv_pos_site_id
 _symmetry_equiv_pos_as_xyz
  1  'x, y, z'
loop_
 _atom_site_type_symbol
 _atom_site_label
 _atom_site_symmetry_multiplicity
 _atom_site_fract_x
 _atom_site_fract_y
 _atom_site_fract_z
 _atom_site_occupancy
  V  V0  1  0.29602700  0.93866200  0.92136800  1
  V  V1  1  0.78680400  0.93085200  0.42704800  1
  V  V2  1  0.21319600  0.06914800  0.57295200  1
  V  V3  1  0.70397300  0.06133800  0.07863200  1
  P  P0  1  0.74122800  0.21218700  0.25351200  1
  P  P1  1  0.52730100  0.49714400  0.75242700  1
  P  P2  1  0.97182700  0.22324500  0.74886300  1
  P  P3  1  0.02817300  0.77675500  0.25113700  1
  P  P4  1  0.47269900  0.50285600  0.24757300  1
  P  P5  1  0.25877200  0.78781300  0.74648800  1
  O  O0  1  0.53842000  0.31509200  0.77039100  1
  O  O1  1  0.41019100  0.05842100  0.42565600  1
  O  O2  1  0.04801000  0.55560700  0.08071300  1
  O  O3  1  0.62353800  0.04783900  0.22880500  1
  O  O4  1  0.71962700  0.13824000  0.78170900  1
  O  O5  1  0.14448500  0.27732400  0.93322500  1
  O  O6  1  0.88274500  0.17787600  0.27682000  1
  O  O7  1  0.33601400  0.33416600  0.40944900  1
  O  O8  1  0.76552100  0.72387100  0.71755800  1
  O  O9  1  0.32208800  0.57488600  0.58247500  1
  O  O10  1  0.79801700  0.07528900  0.92225100  1
  O  O11  1  0.03148400  0.09265900  0.71037000  1
  O  O12  1  0.96851600  0.90734100  0.28963000  1
  O  O13  1  0.20198300  0.92471100  0.07774900  1
  O  O14  1  0.67791200  0.42511400  0.41752500  1
  O  O15  1  0.23447900  0.27612900  0.28244200  1
  O  O16  1  0.66398600  0.66583400  0.59055100  1
  O  O17  1  0.11725500  0.82212400  0.72318000  1
  O  O18  1  0.85551500  0.72267600  0.06677500  1
  O  O19  1  0.28037300  0.86176000  0.21829100  1
  O  O20  1  0.37646200  0.95216100  0.77119500  1
  O  O21  1  0.95199000  0.44439300  0.91928700  1
  O  O22  1  0.58980900  0.94157900  0.57434400  1
  O  O23  1  0.46158000  0.68490800  0.22960900  1
loop_
_geom_bond_atom_site_label_1
_geom_bond_atom_site_label_2
_geom_bond_distance
_geom_bond_site_symmetry_2
P0 V3 1.336367 1_555
P5 V0 1.336367 1_555
O0 P1 1.666366 1_555
O0 V2 2.383833 1_555
O1 O19 1.590078 1_545
O1 V2 2.117223 1_555
O2 O21 1.221524 1_454
O2 P3 1.838294 1_555
O3 P0 1.138820 1_555
O3 V3 1.505633 1_555
O4 P2 1.952337 1_555
O5 P2 1.884185 1_455
O6 P0 1.398989 1_555
O6 V3 1.765475 1_555
O8 P1 2.128098 1_555
O9 P5 2.016295 1_555
O10 V3 1.605699 1_556
O11 P2 1.335897 1_455
O11 O5 1.650886 1_555
O11 V2 1.980291 1_555
O12 P3 1.335897 1_655
O12 O18 1.650886 1_555
O12 V1 1.980291 1_555
O13 V0 1.605699 1_554
O14 P0 2.016295 1_555
O15 O7 1.123178 1_555
O15 P4 2.128098 1_555
O16 O8 1.123178 1_555
O17 P5 1.398989 1_555
O17 V0 1.765475 1_555
O18 P3 1.884185 1_655
O19 P3 1.952337 1_555
O20 P5 1.138820 1_555
O20 V0 1.505633 1_555
O21 P2 1.838294 1_555
O22 O4 1.590078 1_565
O22 V1 2.117223 1_555
O23 P4 1.666366 1_555
O23 V1 2.383833 1_555
