# generated using pymatgen
data_PbN
_symmetry_space_group_name_H-M   'P 1'
_cell_length_a   3.78575028
_cell_length_b   3.78575028
_cell_length_c   6.55898000
_cell_angle_alpha   90.00000000
_cell_angle_beta   90.00000000
_cell_angle_gamma   120.00000496
_symmetry_Int_Tables_number   1
_chemical_formula_structural   PbN
_chemical_formula_sum   'Pb2 N2'
_cell_volume   81.40870452
_cell_formula_units_Z   2
loop_
 _symmetry_equiv_pos_site_id
 _symmetry_equiv_pos_as_xyz
  1  'x, y, z'
loop_
 _atom_site_type_symbol
 _atom_site_label
 _atom_site_symmetry_multiplicity
 _atom_site_fract_x
 _atom_site_fract_y
 _atom_site_fract_z
 _atom_site_occupancy
  Pb  Pb0  1  0.66666700  0.33333300  0.87034100  1
  Pb  Pb1  1  0.33333300  0.66666700  0.37034100  1
  N  N0  1  0.66666700  0.33333300  0.50466000  1
  N  N1  1  0.33333300  0.66666700  0.00466000  1
loop_
_geom_bond_atom_site_label_1
_geom_bond_atom_site_label_2
_geom_bond_distance
_geom_bond_site_symmetry_2
N0 Pb1 2.356575 1_545
N0 Pb1 2.356575 1_655
N0 Pb1 2.356581 1_555
N0 Pb0 2.398494 1_555
N1 Pb0 2.356575 1_564
N1 Pb0 2.356575 1_454
N1 Pb0 2.356581 1_554
N1 Pb1 2.398494 1_555
