# generated using pymatgen
data_YbB4Ru
_symmetry_space_group_name_H-M   'P 1'
_cell_length_a   3.53222300
_cell_length_b   5.94774800
_cell_length_c   11.52003900
_cell_angle_alpha   90.00000000
_cell_angle_beta   90.00000000
_cell_angle_gamma   90.00000000
_symmetry_Int_Tables_number   1
_chemical_formula_structural   YbB4Ru
_chemical_formula_sum   'Yb4 B16 Ru4'
_cell_volume   242.02187605
_cell_formula_units_Z   4
loop_
 _symmetry_equiv_pos_site_id
 _symmetry_equiv_pos_as_xyz
  1  'x, y, z'
loop_
 _atom_site_type_symbol
 _atom_site_label
 _atom_site_symmetry_multiplicity
 _atom_site_fract_x
 _atom_site_fract_y
 _atom_site_fract_z
 _atom_site_occupancy
  Yb  Yb0  1  0.50000000  0.62987500  0.15048700  1
  Yb  Yb1  1  0.50000000  0.37012500  0.84951300  1
  Yb  Yb2  1  0.50000000  0.12987500  0.34951300  1
  Yb  Yb3  1  0.50000000  0.87012500  0.65048700  1
  B  B0  1  0.00000000  0.97645000  0.19220100  1
  B  B1  1  0.00000000  0.02355000  0.80779900  1
  B  B2  1  0.00000000  0.47645000  0.30779900  1
  B  B3  1  0.00000000  0.52355000  0.69220100  1
  B  B4  1  0.00000000  0.78697400  0.31499700  1
  B  B5  1  0.00000000  0.21302600  0.68500300  1
  B  B6  1  0.00000000  0.28697400  0.18500300  1
  B  B7  1  0.00000000  0.71302600  0.81499700  1
  B  B8  1  0.00000000  0.86483700  0.46886400  1
  B  B9  1  0.00000000  0.13516300  0.53113600  1
  B  B10  1  0.00000000  0.36483700  0.03113600  1
  B  B11  1  0.00000000  0.63516300  0.96886400  1
  B  B12  1  0.00000000  0.88732100  0.04726000  1
  B  B13  1  0.00000000  0.11267900  0.95274000  1
  B  B14  1  0.00000000  0.38732100  0.45274000  1
  B  B15  1  0.00000000  0.61267900  0.54726000  1
  Ru  Ru0  1  0.50000000  0.63548900  0.41249300  1
  Ru  Ru1  1  0.50000000  0.36451100  0.58750700  1
  Ru  Ru2  1  0.50000000  0.13548900  0.08750700  1
  Ru  Ru3  1  0.50000000  0.86451100  0.91249300  1
loop_
_geom_bond_atom_site_label_1
_geom_bond_atom_site_label_2
_geom_bond_distance
_geom_bond_site_symmetry_2
B0 B12 1.751859 1_555
B0 B4 1.808636 1_555
B0 B6 1.848779 1_565
B0 Ru2 2.338493 1_465
B0 Ru2 2.338493 1_565
B0 Yb2 2.689997 1_465
B0 Yb2 2.689997 1_565
B0 Yb0 2.756665 1_455
B0 Yb0 2.756665 1_555
B1 B13 1.751859 1_555
B1 B5 1.808636 1_555
B1 B7 1.848779 1_545
B1 Ru3 2.338493 1_445
B1 Ru3 2.338493 1_545
B1 Yb3 2.689997 1_545
B1 Yb3 2.689997 1_445
B1 Yb1 2.756665 1_455
B1 Yb1 2.756665 1_555
B2 B6 1.808636 1_555
B2 B4 1.848779 1_555
B2 Ru0 2.338493 1_555
B2 Ru0 2.338493 1_455
B2 Yb0 2.689997 1_555
B2 Yb0 2.689997 1_455
B2 Yb2 2.756665 1_555
B2 Yb2 2.756665 1_455
B3 B7 1.808636 1_555
B3 B5 1.848779 1_555
B3 Ru1 2.338493 1_555
B3 Ru1 2.338493 1_455
B3 Yb1 2.689997 1_455
B3 Yb1 2.689997 1_555
B3 Yb3 2.756665 1_555
B3 Yb3 2.756665 1_455
B4 B8 1.832053 1_555
B4 Ru0 2.278689 1_555
B4 Ru0 2.278689 1_455
B4 Yb2 2.727044 1_465
B4 Yb2 2.727044 1_565
B4 Yb0 2.753881 1_555
B4 Yb0 2.753881 1_455
B5 B9 1.832053 1_555
B5 Ru1 2.278689 1_455
B5 Ru1 2.278689 1_555
B5 Yb3 2.727044 1_445
B5 Yb3 2.727044 1_545
B5 Yb1 2.753881 1_455
B5 Yb1 2.753881 1_555
B6 Ru2 2.278689 1_555
B6 Ru2 2.278689 1_455
B6 Yb0 2.727044 1_455
B6 Yb0 2.727044 1_555
B6 Yb2 2.753881 1_455
B6 Yb2 2.753881 1_555
B7 Ru3 2.278689 1_555
B7 Ru3 2.278689 1_455
B7 Yb1 2.727044 1_455
B7 Yb1 2.727044 1_555
B7 Yb3 2.753881 1_555
B7 Yb3 2.753881 1_455
B8 B9 1.760610 1_565
B8 Ru0 2.324144 1_555
B8 Ru0 2.324144 1_455
B8 Yb2 2.737617 1_565
B8 Yb2 2.737617 1_465
B8 Yb3 2.738225 1_555
B8 Yb3 2.738225 1_455
B9 Ru1 2.324144 1_455
B9 Ru1 2.324144 1_555
B9 Yb3 2.737617 1_445
B9 Yb3 2.737617 1_545
B9 Yb2 2.738225 1_455
B9 Yb2 2.738225 1_555
B10 B13 1.750700 1_554
B10 B11 1.760610 1_554
B10 B6 1.832053 1_555
B10 Ru2 2.324144 1_555
B10 Ru2 2.324144 1_455
B10 Yb0 2.737617 1_555
B10 Yb0 2.737617 1_455
B10 Yb1 2.738225 1_454
B10 Yb1 2.738225 1_554
B11 B12 1.750700 1_556
B11 B7 1.832053 1_555
B11 Ru3 2.324144 1_455
B11 Ru3 2.324144 1_555
B11 Yb1 2.737617 1_455
B11 Yb1 2.737617 1_555
B11 Yb0 2.738225 1_556
B11 Yb0 2.738225 1_456
B12 B13 1.726918 1_564
B12 Ru2 2.347938 1_565
B12 Ru2 2.347938 1_465
B12 Ru3 2.355393 1_554
B12 Ru3 2.355393 1_454
B12 Yb0 2.622583 1_555
B12 Yb0 2.622583 1_455
B13 Ru3 2.347938 1_445
B13 Ru3 2.347938 1_545
B13 Ru2 2.355393 1_456
B13 Ru2 2.355393 1_556
B13 Yb1 2.622583 1_555
B13 Yb1 2.622583 1_455
B14 B15 1.726918 1_555
B14 B9 1.750700 1_555
B14 B2 1.751859 1_555
B14 Ru0 2.347938 1_555
B14 Ru0 2.347938 1_455
B14 Ru1 2.355393 1_555
B14 Ru1 2.355393 1_455
B14 Yb2 2.622583 1_455
B14 Yb2 2.622583 1_555
B15 B8 1.750700 1_555
B15 B3 1.751859 1_555
B15 Ru1 2.347938 1_555
B15 Ru1 2.347938 1_455
B15 Ru0 2.355393 1_455
B15 Ru0 2.355393 1_555
B15 Yb3 2.622583 1_555
B15 Yb3 2.622583 1_455
Ru0 Ru1 2.581190 1_555
Ru0 Yb0 3.018504 1_555
Ru0 Yb2 3.028670 1_565
Ru0 Yb3 3.076442 1_555
Ru0 Yb2 3.093548 1_555
Ru1 Yb1 3.018504 1_555
Ru1 Yb3 3.028670 1_545
Ru1 Yb2 3.076442 1_555
Ru1 Yb3 3.093548 1_555
Ru2 Ru3 2.581190 1_544
Ru2 Yb2 3.018504 1_555
Ru2 Yb0 3.028670 1_555
Ru2 Yb1 3.076442 1_554
Ru2 Yb0 3.093548 1_545
Ru3 Yb3 3.018504 1_555
Ru3 Yb1 3.028670 1_555
Ru3 Yb0 3.076442 1_556
Ru3 Yb1 3.093548 1_565
