# generated using pymatgen
data_Sc6Al16Ir7
_symmetry_space_group_name_H-M   'P 1'
_cell_length_a   8.70556539
_cell_length_b   8.70556970
_cell_length_c   8.70558499
_cell_angle_alpha   59.99994159
_cell_angle_beta   59.99991251
_cell_angle_gamma   59.99983938
_symmetry_Int_Tables_number   1
_chemical_formula_structural   Sc6Al16Ir7
_chemical_formula_sum   'Sc6 Al16 Ir7'
_cell_volume   466.52630327
_cell_formula_units_Z   1
loop_
 _symmetry_equiv_pos_site_id
 _symmetry_equiv_pos_as_xyz
  1  'x, y, z'
loop_
 _atom_site_type_symbol
 _atom_site_label
 _atom_site_symmetry_multiplicity
 _atom_site_fract_x
 _atom_site_fract_y
 _atom_site_fract_z
 _atom_site_occupancy
  Sc  Sc0  1  0.20774186  0.79226183  0.79225907  1
  Sc  Sc1  1  0.79225838  0.20774052  0.20774130  1
  Sc  Sc2  1  0.79226185  0.20773927  0.79225844  1
  Sc  Sc3  1  0.79225747  0.79226167  0.20773849  1
  Sc  Sc4  1  0.20774011  0.79225973  0.20773768  1
  Sc  Sc5  1  0.20773813  0.20773966  0.79226180  1
  Al  Al0  1  0.83312875  0.83313095  0.83312835  1
  Al  Al1  1  0.83312904  0.83313131  0.50060879  1
  Al  Al2  1  0.50061631  0.83312942  0.83312611  1
  Al  Al3  1  0.83313278  0.50059722  0.83313429  1
  Al  Al4  1  0.16687039  0.16687228  0.16687035  1
  Al  Al5  1  0.16686710  0.16686880  0.49939688  1
  Al  Al6  1  0.16687042  0.49938473  0.16687145  1
  Al  Al7  1  0.49940313  0.16686710  0.16686376  1
  Al  Al8  1  0.61996568  0.61996822  0.61996766  1
  Al  Al9  1  0.61996572  0.61996854  0.14009751  1
  Al  Al10  1  0.14009768  0.61996658  0.61996739  1
  Al  Al11  1  0.61996452  0.14010192  0.61996694  1
  Al  Al12  1  0.38003124  0.38003374  0.38003300  1
  Al  Al13  1  0.38003141  0.38003422  0.85990133  1
  Al  Al14  1  0.38003197  0.85990329  0.38003382  1
  Al  Al15  1  0.85989909  0.38003390  0.38003416  1
  Ir  Ir0  1  0.49999743  0.50000125  0.50000178  1
  Ir  Ir1  1  -0.00000352  0.49999649  0.50000426  1
  Ir  Ir2  1  0.50000451  0.00000267  -0.00000531  1
  Ir  Ir3  1  0.50000095  0.00000214  0.49999867  1
  Ir  Ir4  1  0.50000152  0.49999905  -0.00000257  1
  Ir  Ir5  1  -0.00000013  0.49999611  0.00000261  1
  Ir  Ir6  1  -0.00000378  0.00000539  0.50000199  1
loop_
_geom_bond_atom_site_label_1
_geom_bond_atom_site_label_2
_geom_bond_distance
_geom_bond_site_symmetry_2
Al0 Ir2 2.513046 1_566
Al0 Ir6 2.513073 1_665
Al0 Ir5 2.513119 1_656
Al0 Sc2 2.948641 1_565
Al0 Sc3 2.948650 1_556
Al0 Sc0 2.948675 1_655
Al1 Ir3 2.513066 1_565
Al1 Ir1 2.513104 1_655
Al1 Ir6 2.513112 1_665
Al1 Sc1 2.948632 1_565
Al1 Sc4 2.948652 1_655
Al1 Sc3 2.948660 1_555
Al2 Ir3 2.513082 1_565
Al2 Ir2 2.513093 1_566
Al2 Ir4 2.513099 1_556
Al2 Sc0 2.948656 1_555
Al2 Sc5 2.948667 1_565
Al2 Sc4 2.948674 1_556
Al3 Ir4 2.513061 1_556
Al3 Ir1 2.513064 1_655
Al3 Ir5 2.513098 1_656
Al3 Sc5 2.948573 1_655
Al3 Sc2 2.948580 1_555
Al3 Sc1 2.948588 1_556
Al4 Ir5 2.513046 1_555
Al4 Ir6 2.513097 1_555
Al4 Ir2 2.513114 1_555
Al4 Sc5 2.948654 1_554
Al4 Sc1 2.948663 1_455
Al4 Sc4 2.948676 1_545
Al5 Ir1 2.513057 1_555
Al5 Ir6 2.513068 1_555
Al5 Ir3 2.513088 1_555
Al5 Sc2 2.948590 1_455
Al5 Sc0 2.948603 1_545
Al5 Sc5 2.948618 1_555
Al6 Ir5 2.513076 1_555
Al6 Ir4 2.513101 1_555
Al6 Ir1 2.513113 1_555
Al6 Sc4 2.948668 1_555
Al6 Sc3 2.948676 1_455
Al6 Sc0 2.948683 1_554
Al7 Ir4 2.513069 1_555
Al7 Ir2 2.513082 1_555
Al7 Ir3 2.513094 1_555
Al7 Sc3 2.948564 1_545
Al7 Sc1 2.948578 1_555
Al7 Sc2 2.948584 1_554
Al8 Ir0 2.558205 1_555
Al8 Ir1 2.703173 1_655
Al8 Ir4 2.703175 1_556
Al8 Ir3 2.703198 1_565
Al8 Sc0 2.976947 1_555
Al8 Sc2 2.976983 1_555
Al8 Sc3 2.976989 1_555
Al9 Ir0 2.558227 1_555
Al9 Ir5 2.703196 1_655
Al9 Ir2 2.703200 1_565
Al9 Ir4 2.703204 1_555
Al9 Sc4 2.976959 1_555
Al9 Sc3 2.976969 1_555
Al9 Sc1 2.976974 1_555
Al10 Ir0 2.558186 1_555
Al10 Ir1 2.703209 1_555
Al10 Ir5 2.703213 1_556
Al10 Ir6 2.703232 1_565
Al10 Sc5 2.976972 1_555
Al10 Sc4 2.976997 1_555
Al10 Sc0 2.977005 1_555
Al11 Ir0 2.558185 1_555
Al11 Ir2 2.703161 1_556
Al11 Ir6 2.703179 1_655
Al11 Ir3 2.703189 1_555
Al11 Sc5 2.976969 1_555
Al11 Sc1 2.976971 1_555
Al11 Sc2 2.976977 1_555
Al12 Ir0 2.558214 1_555
Al12 Ir3 2.703181 1_555
Al12 Ir1 2.703202 1_555
Al12 Ir4 2.703216 1_555
Al12 Sc4 2.976965 1_555
Al12 Sc1 2.976967 1_555
Al12 Sc5 2.976990 1_555
Al13 Ir0 2.558193 1_555
Al13 Ir5 2.703179 1_556
Al13 Ir2 2.703179 1_556
Al13 Ir4 2.703184 1_556
Al13 Sc0 2.976973 1_555
Al13 Sc5 2.976982 1_555
Al13 Sc2 2.976991 1_555
Al14 Ir0 2.558204 1_555
Al14 Ir3 2.703196 1_565
Al14 Ir6 2.703209 1_565
Al14 Ir2 2.703241 1_565
Al14 Sc3 2.976958 1_555
Al14 Sc0 2.976964 1_555
Al14 Sc4 2.977009 1_555
Al15 Ir0 2.558200 1_555
Al15 Ir6 2.703159 1_655
Al15 Ir1 2.703177 1_655
Al15 Ir5 2.703188 1_655
Al15 Sc2 2.976963 1_555
Al15 Sc3 2.976977 1_555
Al15 Sc1 2.976979 1_555
Ir1 Sc2 3.121498 1_455
Ir1 Sc5 3.121538 1_555
Ir1 Sc3 3.121583 1_455
Ir1 Sc4 3.121593 1_555
Ir2 Sc2 3.121512 1_554
Ir2 Sc3 3.121519 1_545
Ir2 Sc5 3.121552 1_554
Ir2 Sc4 3.121594 1_545
Ir3 Sc1 3.121521 1_555
Ir3 Sc0 3.121544 1_545
Ir3 Sc3 3.121546 1_545
Ir3 Sc5 3.121556 1_555
Ir4 Sc0 3.121538 1_554
Ir4 Sc2 3.121538 1_554
Ir4 Sc1 3.121544 1_555
Ir4 Sc4 3.121551 1_555
Ir5 Sc1 3.121527 1_455
Ir5 Sc5 3.121529 1_554
Ir5 Sc3 3.121559 1_455
Ir5 Sc0 3.121597 1_554
Ir6 Sc2 3.121492 1_455
Ir6 Sc1 3.121546 1_455
Ir6 Sc0 3.121559 1_545
Ir6 Sc4 3.121610 1_545
