# generated using pymatgen
data_SrWN3
_symmetry_space_group_name_H-M   'P 1'
_cell_length_a   3.67423525
_cell_length_b   6.35445505
_cell_length_c   6.64841891
_cell_angle_alpha   110.03191247
_cell_angle_beta   96.44294237
_cell_angle_gamma   91.02012007
_symmetry_Int_Tables_number   1
_chemical_formula_structural   SrWN3
_chemical_formula_sum   'Sr2 W2 N6'
_cell_volume   144.65057299
_cell_formula_units_Z   2
loop_
 _symmetry_equiv_pos_site_id
 _symmetry_equiv_pos_as_xyz
  1  'x, y, z'
loop_
 _atom_site_type_symbol
 _atom_site_label
 _atom_site_symmetry_multiplicity
 _atom_site_fract_x
 _atom_site_fract_y
 _atom_site_fract_z
 _atom_site_occupancy
  Sr  Sr0  1  0.03249104  0.91778883  0.35986575  1
  Sr  Sr1  1  0.96815612  0.38698240  0.88977062  1
  W  W0  1  0.52152676  0.41757277  0.36584458  1
  W  W1  1  0.44426972  0.89504640  0.87177271  1
  N  N0  1  0.03738093  0.48738115  0.31318418  1
  N  N1  1  0.61515668  0.75716686  0.57266492  1
  N  N2  1  0.48361846  0.72023164  0.03360790  1
  N  N3  1  0.91864033  0.87287255  0.73657916  1
  N  N4  1  0.53658217  0.24706414  0.53078985  1
  N  N5  1  0.49057680  0.19301428  0.05622033  1
loop_
_geom_bond_atom_site_label_1
_geom_bond_atom_site_label_2
_geom_bond_distance
_geom_bond_site_symmetry_2
N0 W0 1.865057 1_555
N0 W0 2.034002 1_455
N0 Sr0 2.645445 1_555
N0 Sr1 2.645614 1_454
N1 N3 1.456274 1_555
N1 W1 2.054885 1_555
N1 W0 2.121399 1_555
N1 Sr0 2.610564 1_655
N1 Sr0 2.830887 1_555
N2 W1 1.789468 1_554
N2 Sr1 2.655023 1_454
N2 Sr0 2.722238 1_655
N2 Sr1 2.774395 1_554
N2 Sr0 2.836177 1_555
N3 W1 2.017813 1_655
N3 W1 2.034497 1_555
N3 Sr0 2.692550 1_655
N3 Sr1 3.066064 1_565
N4 W0 1.783851 1_555
N4 Sr1 2.578330 1_555
N4 Sr0 2.619257 1_545
N4 Sr0 2.821496 1_645
N4 Sr1 3.252637 1_455
N5 W1 1.862469 1_544
N5 W0 2.053266 1_555
N5 Sr1 2.640127 1_454
N5 Sr1 2.667617 1_554
