# generated using pymatgen
data_Si4MoPt3
_symmetry_space_group_name_H-M   'P 1'
_cell_length_a   3.49522379
_cell_length_b   5.53584079
_cell_length_c   24.47422252
_cell_angle_alpha   90.00000000
_cell_angle_beta   90.00000000
_cell_angle_gamma   90.00000000
_symmetry_Int_Tables_number   1
_chemical_formula_structural   Si4MoPt3
_chemical_formula_sum   'Si16 Mo4 Pt12'
_cell_volume   473.55179094
_cell_formula_units_Z   4
loop_
 _symmetry_equiv_pos_site_id
 _symmetry_equiv_pos_as_xyz
  1  'x, y, z'
loop_
 _atom_site_type_symbol
 _atom_site_label
 _atom_site_symmetry_multiplicity
 _atom_site_fract_x
 _atom_site_fract_y
 _atom_site_fract_z
 _atom_site_occupancy
  Si  Si0  1  0.25000000  0.17955353  0.51925171  1
  Si  Si1  1  0.75000000  0.32044647  0.01925171  1
  Si  Si2  1  0.25000000  0.67955353  0.98074829  1
  Si  Si3  1  0.75000000  0.82044647  0.48074829  1
  Si  Si4  1  0.75000000  0.31943029  0.64565895  1
  Si  Si5  1  0.25000000  0.18056971  0.14565895  1
  Si  Si6  1  0.75000000  0.81943029  0.85434105  1
  Si  Si7  1  0.25000000  0.68056971  0.35434105  1
  Si  Si8  1  0.25000000  0.65944500  0.60977707  1
  Si  Si9  1  0.75000000  0.84055500  0.10977707  1
  Si  Si10  1  0.25000000  0.15944500  0.89022293  1
  Si  Si11  1  0.75000000  0.34055500  0.39022293  1
  Si  Si12  1  0.75000000  0.83216584  0.72569800  1
  Si  Si13  1  0.25000000  0.66783416  0.22569800  1
  Si  Si14  1  0.75000000  0.33216584  0.77430200  1
  Si  Si15  1  0.25000000  0.16783416  0.27430200  1
  Mo  Mo0  1  0.25000000  0.50421138  0.71010061  1
  Mo  Mo1  1  0.75000000  0.99578862  0.21010061  1
  Mo  Mo2  1  0.25000000  0.00421138  0.78989939  1
  Mo  Mo3  1  0.75000000  0.49578862  0.28989939  1
  Pt  Pt0  1  0.75000000  0.00334742  0.57408199  1
  Pt  Pt1  1  0.25000000  0.49665258  0.07408199  1
  Pt  Pt2  1  0.75000000  0.50334742  0.92591801  1
  Pt  Pt3  1  0.25000000  0.99665258  0.42591801  1
  Pt  Pt4  1  0.25000000  0.00254391  0.66937803  1
  Pt  Pt5  1  0.75000000  0.49745609  0.16937803  1
  Pt  Pt6  1  0.25000000  0.50254391  0.83062197  1
  Pt  Pt7  1  0.75000000  0.99745609  0.33062197  1
  Pt  Pt8  1  0.75000000  0.50329424  0.54837811  1
  Pt  Pt9  1  0.25000000  0.99670576  0.04837811  1
  Pt  Pt10  1  0.75000000  0.00329424  0.95162189  1
  Pt  Pt11  1  0.25000000  0.49670576  0.45162189  1
loop_
_geom_bond_atom_site_label_1
_geom_bond_atom_site_label_2
_geom_bond_distance
_geom_bond_site_symmetry_2
Mo0 Si14 2.535777 1_555
Mo0 Si14 2.535777 1_455
Mo0 Si12 2.548710 1_555
Mo0 Si12 2.548710 1_455
Mo0 Si4 2.566699 1_455
Mo0 Si4 2.566699 1_555
Mo0 Si8 2.601380 1_555
Mo1 Si15 2.535777 1_565
Mo1 Si15 2.535777 1_665
Mo1 Si13 2.548710 1_555
Mo1 Si13 2.548710 1_655
Mo1 Si5 2.566699 1_565
Mo1 Si5 2.566699 1_665
Mo1 Si9 2.601380 1_555
Mo2 Si12 2.535777 1_445
Mo2 Si12 2.535777 1_545
Mo2 Si14 2.548710 1_555
Mo2 Si14 2.548710 1_455
Mo2 Si6 2.566699 1_445
Mo2 Si6 2.566699 1_545
Mo2 Si10 2.601380 1_555
Mo3 Si13 2.535777 1_555
Mo3 Si13 2.535777 1_655
Mo3 Si15 2.548710 1_655
Mo3 Si15 2.548710 1_555
Mo3 Si7 2.566699 1_555
Mo3 Si7 2.566699 1_655
Mo3 Si11 2.601380 1_555
Pt0 Si0 2.409651 1_555
Pt0 Si0 2.409651 1_655
Pt0 Si4 2.475988 1_555
Pt0 Si3 2.498613 1_545
Pt0 Si8 2.727958 1_645
Pt0 Si8 2.727958 1_545
Pt1 Si1 2.409651 1_555
Pt1 Si1 2.409651 1_455
Pt1 Si5 2.475988 1_555
Pt1 Si2 2.498613 1_554
Pt1 Si9 2.727958 1_555
Pt1 Si9 2.727958 1_455
Pt2 Si2 2.409651 1_555
Pt2 Si2 2.409651 1_655
Pt2 Si6 2.475988 1_555
Pt2 Si1 2.498613 1_556
Pt2 Si10 2.727958 1_655
Pt2 Si10 2.727958 1_555
Pt3 Si3 2.409651 1_455
Pt3 Si3 2.409651 1_555
Pt3 Si7 2.475988 1_555
Pt3 Si0 2.498613 1_565
Pt3 Si11 2.727958 1_565
Pt3 Si11 2.727958 1_465
Pt4 Si8 2.394841 1_545
Pt4 Si12 2.417374 1_545
Pt4 Si12 2.417374 1_445
Pt4 Si4 2.543318 1_455
Pt4 Si4 2.543318 1_555
Pt5 Si9 2.394841 1_555
Pt5 Si13 2.417374 1_555
Pt5 Si13 2.417374 1_655
Pt5 Si5 2.543318 1_655
Pt5 Si5 2.543318 1_555
Pt6 Si10 2.394841 1_555
Pt6 Si14 2.417374 1_455
Pt6 Si14 2.417374 1_555
Pt6 Si6 2.543318 1_555
Pt6 Si6 2.543318 1_455
Pt7 Si11 2.394841 1_565
Pt7 Si15 2.417374 1_565
Pt7 Si15 2.417374 1_665
Pt7 Si7 2.543318 1_555
Pt7 Si7 2.543318 1_655
Pt8 Si3 2.412912 1_555
Pt8 Si8 2.461597 1_555
Pt8 Si8 2.461597 1_655
Pt8 Si4 2.589316 1_555
Pt8 Si0 2.602728 1_555
Pt8 Si0 2.602728 1_655
Pt9 Si2 2.412912 1_554
Pt9 Si9 2.461597 1_555
Pt9 Si9 2.461597 1_455
Pt9 Si5 2.589316 1_565
Pt9 Si1 2.602728 1_565
Pt9 Si1 2.602728 1_465
Pt10 Si1 2.412912 1_556
Pt10 Si10 2.461597 1_555
Pt10 Si10 2.461597 1_655
Pt10 Si6 2.589316 1_545
Pt10 Si2 2.602728 1_645
Pt10 Si2 2.602728 1_545
Pt11 Si0 2.412912 1_555
Pt11 Si11 2.461597 1_555
Pt11 Si11 2.461597 1_455
Pt11 Si7 2.589316 1_555
Pt11 Si3 2.602728 1_555
Pt11 Si3 2.602728 1_455
