# generated using pymatgen
data_K4BeP2
_symmetry_space_group_name_H-M   'P 1'
_cell_length_a   8.98142148
_cell_length_b   8.98142203
_cell_length_c   8.98142280
_cell_angle_alpha   36.16612141
_cell_angle_beta   36.16611371
_cell_angle_gamma   36.16612345
_symmetry_Int_Tables_number   1
_chemical_formula_structural   K4BeP2
_chemical_formula_sum   'K4 Be1 P2'
_cell_volume   225.73558016
_cell_formula_units_Z   1
loop_
 _symmetry_equiv_pos_site_id
 _symmetry_equiv_pos_as_xyz
  1  'x, y, z'
loop_
 _atom_site_type_symbol
 _atom_site_label
 _atom_site_symmetry_multiplicity
 _atom_site_fract_x
 _atom_site_fract_y
 _atom_site_fract_z
 _atom_site_occupancy
  K  K0  1  0.62310468  0.62310468  0.62310468  1
  K  K1  1  0.37689532  0.37689532  0.37689532  1
  K  K2  1  0.79136389  0.79136389  0.79136389  1
  K  K3  1  0.20863611  0.20863611  0.20863611  1
  Be  Be0  1  -0.00000000  0.00000000  0.00000000  1
  P  P0  1  0.92103626  0.92103626  0.92103626  1
  P  P1  1  0.07896374  0.07896374  0.07896374  1
loop_
_geom_bond_atom_site_label_1
_geom_bond_atom_site_label_2
_geom_bond_distance
_geom_bond_site_symmetry_2
K0 P0 3.339965 1_455
K0 P0 3.339966 1_554
K0 P0 3.339966 1_545
K1 P1 3.339965 1_655
K1 P1 3.339966 1_556
K1 P1 3.339966 1_565
K2 P0 3.261800 1_555
K2 P1 3.418445 1_566
K2 P1 3.418446 1_665
K2 P1 3.418446 1_656
K3 P1 3.261800 1_555
K3 P0 3.418445 1_544
K3 P0 3.418446 1_445
K3 P0 3.418446 1_454
Be0 P0 1.986267 1_444
Be0 P1 1.986267 1_555
Be0 K1 3.400453 1_554
Be0 K0 3.400453 1_445
Be0 K1 3.400453 1_455
Be0 K0 3.400453 1_544
Be0 K1 3.400454 1_545
Be0 K0 3.400454 1_454
