# generated using pymatgen
data_BaSr3
_symmetry_space_group_name_H-M   'P 1'
_cell_length_a   8.76061460
_cell_length_b   8.76062043
_cell_length_c   7.11880596
_cell_angle_alpha   90.00000000
_cell_angle_beta   90.00000000
_cell_angle_gamma   120.00033530
_symmetry_Int_Tables_number   1
_chemical_formula_structural   BaSr3
_chemical_formula_sum   'Ba2 Sr6'
_cell_volume   473.15753345
_cell_formula_units_Z   2
loop_
 _symmetry_equiv_pos_site_id
 _symmetry_equiv_pos_as_xyz
  1  'x, y, z'
loop_
 _atom_site_type_symbol
 _atom_site_label
 _atom_site_symmetry_multiplicity
 _atom_site_fract_x
 _atom_site_fract_y
 _atom_site_fract_z
 _atom_site_occupancy
  Ba  Ba0  1  0.33333043  0.66666767  0.75000000  1
  Ba  Ba1  1  0.66667057  0.33333233  0.25000000  1
  Sr  Sr0  1  0.16503530  0.33006435  0.25000000  1
  Sr  Sr1  1  0.66993705  0.83496751  0.25000000  1
  Sr  Sr2  1  0.16503515  0.83496664  0.25000000  1
  Sr  Sr3  1  0.83496570  0.66993665  0.75000000  1
  Sr  Sr4  1  0.33006195  0.16503249  0.75000000  1
  Sr  Sr5  1  0.83496585  0.16503336  0.75000000  1
loop_
_geom_bond_atom_site_label_1
_geom_bond_atom_site_label_2
_geom_bond_distance
_geom_bond_site_symmetry_2
Ba0 Sr5 4.380352 1_455
Ba0 Sr5 4.380362 1_565
Ba0 Sr3 4.380371 1_455
Ba0 Sr4 4.380372 1_565
Ba0 Sr3 4.380384 1_555
Ba0 Sr4 4.380389 1_555
Ba0 Sr2 4.380733 1_556
Ba0 Sr2 4.380733 1_555
Ba0 Sr0 4.380766 1_556
Ba0 Sr0 4.380766 1_555
Ba0 Sr1 4.380780 1_555
Ba0 Sr1 4.380780 1_556
Ba1 Sr2 4.380352 1_655
Ba1 Sr2 4.380362 1_545
Ba1 Sr1 4.380363 1_545
Ba1 Sr0 4.380366 1_655
Ba1 Sr0 4.380389 1_555
Ba1 Sr1 4.380397 1_555
Ba1 Sr5 4.380733 1_554
Ba1 Sr5 4.380733 1_555
Ba1 Sr3 4.380770 1_555
Ba1 Sr3 4.380770 1_554
Ba1 Sr4 4.380788 1_554
Ba1 Sr4 4.380788 1_555
Sr0 Sr1 4.337338 1_445
Sr0 Sr2 4.337362 1_545
Sr0 Sr4 4.352013 1_554
Sr0 Sr4 4.352013 1_555
Sr0 Sr5 4.352053 1_455
Sr0 Sr5 4.352053 1_454
Sr0 Sr1 4.423235 1_555
Sr0 Sr2 4.423258 1_555
Sr1 Sr2 4.337367 1_655
Sr1 Sr3 4.352018 1_555
Sr1 Sr3 4.352018 1_554
Sr1 Sr5 4.352039 1_565
Sr1 Sr5 4.352039 1_564
Sr1 Sr2 4.423247 1_555
Sr2 Sr4 4.352039 1_565
Sr2 Sr4 4.352039 1_564
Sr2 Sr3 4.352053 1_455
Sr2 Sr3 4.352053 1_454
Sr3 Sr4 4.337325 1_665
Sr3 Sr5 4.337354 1_565
Sr3 Sr4 4.423248 1_555
Sr3 Sr5 4.423267 1_555
Sr4 Sr5 4.337350 1_455
Sr4 Sr5 4.423265 1_555
