# generated using pymatgen
data_Lu2GaCu
_symmetry_space_group_name_H-M   'P 1'
_cell_length_a   4.83729527
_cell_length_b   4.84600867
_cell_length_c   4.83674858
_cell_angle_alpha   59.94445813
_cell_angle_beta   60.12330986
_cell_angle_gamma   59.93316452
_symmetry_Int_Tables_number   1
_chemical_formula_structural   Lu2GaCu
_chemical_formula_sum   'Lu2 Ga1 Cu1'
_cell_volume   80.17248526
_cell_formula_units_Z   1
loop_
 _symmetry_equiv_pos_site_id
 _symmetry_equiv_pos_as_xyz
  1  'x, y, z'
loop_
 _atom_site_type_symbol
 _atom_site_label
 _atom_site_symmetry_multiplicity
 _atom_site_fract_x
 _atom_site_fract_y
 _atom_site_fract_z
 _atom_site_occupancy
  Lu  Lu0  1  0.00001500  0.99999623  0.00000708  1
  Lu  Lu1  1  0.49997814  0.50006289  0.49999599  1
  Ga  Ga0  1  0.74999885  0.75004045  0.74999390  1
  Cu  Cu0  1  0.25000901  0.24990043  0.25000203  1
loop_
_geom_bond_atom_site_label_1
_geom_bond_atom_site_label_2
_geom_bond_distance
_geom_bond_site_symmetry_2
Ga0 Lu1 2.963823 1_655
Ga0 Lu0 2.963828 1_656
Ga0 Lu0 2.963842 1_556
Ga0 Lu0 2.963856 1_655
Ga0 Lu1 2.963872 1_555
Ga0 Lu1 2.963917 1_556
Ga0 Lu1 2.963993 1_565
Ga0 Lu0 2.964080 1_646
Cu0 Lu1 2.963262 1_545
Cu0 Lu0 2.963464 1_545
Cu0 Lu0 2.963928 1_546
Cu0 Lu0 2.963929 1_645
Cu0 Lu1 2.963932 1_554
Cu0 Lu1 2.964027 1_455
Cu0 Lu0 2.964284 1_555
Cu0 Lu1 2.964385 1_555
