# generated using pymatgen
data_YbNd3
_symmetry_space_group_name_H-M   'P 1'
_cell_length_a   7.41356444
_cell_length_b   7.41356444
_cell_length_c   5.78816638
_cell_angle_alpha   90.00000000
_cell_angle_beta   90.00000000
_cell_angle_gamma   119.99999979
_symmetry_Int_Tables_number   1
_chemical_formula_structural   YbNd3
_chemical_formula_sum   'Yb2 Nd6'
_cell_volume   275.50264493
_cell_formula_units_Z   2
loop_
 _symmetry_equiv_pos_site_id
 _symmetry_equiv_pos_as_xyz
  1  'x, y, z'
loop_
 _atom_site_type_symbol
 _atom_site_label
 _atom_site_symmetry_multiplicity
 _atom_site_fract_x
 _atom_site_fract_y
 _atom_site_fract_z
 _atom_site_occupancy
  Yb  Yb0  1  0.33333300  0.66666700  0.75000000  1
  Yb  Yb1  1  0.66666700  0.33333300  0.25000000  1
  Nd  Nd0  1  0.16875631  0.33751261  0.25000000  1
  Nd  Nd1  1  0.66248739  0.83124369  0.25000000  1
  Nd  Nd2  1  0.16875631  0.83124369  0.25000000  1
  Nd  Nd3  1  0.83124369  0.66248739  0.75000000  1
  Nd  Nd4  1  0.33751261  0.16875631  0.75000000  1
  Nd  Nd5  1  0.83124369  0.16875631  0.75000000  1
loop_
_geom_bond_atom_site_label_1
_geom_bond_atom_site_label_2
_geom_bond_distance
_geom_bond_site_symmetry_2
Nd0 Yb0 3.583528 1_555
Nd0 Yb0 3.583528 1_554
Nd0 Nd4 3.615434 1_554
Nd0 Nd4 3.615434 1_555
Nd0 Nd5 3.615434 1_454
Nd0 Nd5 3.615434 1_455
Nd0 Nd2 3.660307 1_555
Nd0 Nd1 3.660307 1_555
Nd0 Yb1 3.706876 1_455
Nd0 Yb1 3.706883 1_555
Nd0 Nd2 3.753257 1_545
Nd0 Nd1 3.753257 1_445
Nd1 Yb0 3.583528 1_555
Nd1 Yb0 3.583528 1_554
Nd1 Nd3 3.615434 1_555
Nd1 Nd3 3.615434 1_554
Nd1 Nd5 3.615434 1_565
Nd1 Nd5 3.615434 1_564
Nd1 Nd2 3.660307 1_555
Nd1 Yb1 3.706876 1_565
Nd1 Yb1 3.706883 1_555
Nd1 Nd2 3.753257 1_655
Nd2 Yb0 3.583525 1_555
Nd2 Yb0 3.583525 1_554
Nd2 Nd4 3.615434 1_565
Nd2 Nd4 3.615434 1_564
Nd2 Nd3 3.615434 1_455
Nd2 Nd3 3.615434 1_454
Nd2 Yb1 3.706879 1_565
Nd2 Yb1 3.706879 1_455
Nd3 Yb1 3.583528 1_556
Nd3 Yb1 3.583528 1_555
Nd3 Nd5 3.660307 1_555
Nd3 Nd4 3.660307 1_555
Nd3 Yb0 3.706876 1_655
Nd3 Yb0 3.706883 1_555
Nd3 Nd5 3.753257 1_565
Nd3 Nd4 3.753257 1_665
Nd4 Yb1 3.583528 1_556
Nd4 Yb1 3.583528 1_555
Nd4 Nd5 3.660307 1_555
Nd4 Yb0 3.706876 1_545
Nd4 Yb0 3.706883 1_555
Nd4 Nd5 3.753257 1_455
Nd5 Yb1 3.583525 1_556
Nd5 Yb1 3.583525 1_555
Nd5 Yb0 3.706879 1_655
Nd5 Yb0 3.706879 1_545
