# generated using pymatgen
data_Yb2InSn
_symmetry_space_group_name_H-M   'P 1'
_cell_length_a   5.40565032
_cell_length_b   5.40565032
_cell_length_c   5.40565032
_cell_angle_alpha   60.00000000
_cell_angle_beta   60.00000000
_cell_angle_gamma   60.00000000
_symmetry_Int_Tables_number   1
_chemical_formula_structural   Yb2InSn
_chemical_formula_sum   'Yb2 In1 Sn1'
_cell_volume   111.69374402
_cell_formula_units_Z   1
loop_
 _symmetry_equiv_pos_site_id
 _symmetry_equiv_pos_as_xyz
  1  'x, y, z'
loop_
 _atom_site_type_symbol
 _atom_site_label
 _atom_site_symmetry_multiplicity
 _atom_site_fract_x
 _atom_site_fract_y
 _atom_site_fract_z
 _atom_site_occupancy
  Yb  Yb0  1  0.25000000  0.25000000  0.25000000  1
  Yb  Yb1  1  0.75000000  0.75000000  0.75000000  1
  In  In0  1  0.50000000  0.50000000  0.50000000  1
  Sn  Sn0  1  0.00000000  0.00000000  0.00000000  1
loop_
_geom_bond_atom_site_label_1
_geom_bond_atom_site_label_2
_geom_bond_distance
_geom_bond_site_symmetry_2
In0 Yb1 3.310271 1_455
In0 Yb0 3.310271 1_555
In0 Yb0 3.310271 1_556
In0 Yb1 3.310271 1_545
In0 Yb1 3.310271 1_555
In0 Yb1 3.310271 1_554
In0 Yb0 3.310271 1_655
In0 Yb0 3.310271 1_565
Sn0 Yb1 3.310271 1_544
Sn0 Yb0 3.310271 1_455
Sn0 Yb1 3.310271 1_445
Sn0 Yb1 3.310271 1_444
Sn0 Yb0 3.310271 1_545
Sn0 Yb0 3.310271 1_555
Sn0 Yb0 3.310271 1_554
Sn0 Yb1 3.310271 1_454
