# generated using pymatgen
data_Si2B2O5
_symmetry_space_group_name_H-M   'P 1'
_cell_length_a   3.38423832
_cell_length_b   3.38423832
_cell_length_c   6.79527903
_cell_angle_alpha   90.00000000
_cell_angle_beta   90.00000000
_cell_angle_gamma   90.00000000
_symmetry_Int_Tables_number   1
_chemical_formula_structural   Si2B2O5
_chemical_formula_sum   'Si2 B2 O5'
_cell_volume   77.82679965
_cell_formula_units_Z   1
loop_
 _symmetry_equiv_pos_site_id
 _symmetry_equiv_pos_as_xyz
  1  'x, y, z'
loop_
 _atom_site_type_symbol
 _atom_site_label
 _atom_site_symmetry_multiplicity
 _atom_site_fract_x
 _atom_site_fract_y
 _atom_site_fract_z
 _atom_site_occupancy
  Si  Si0  1  0.00000000  0.00000000  0.00000000  1
  Si  Si1  1  0.00000000  0.00000000  0.50000000  1
  B  B0  1  0.50000000  0.50000000  0.28812354  1
  B  B1  1  0.50000000  0.50000000  0.71187646  1
  O  O0  1  0.50000000  0.00000000  0.23321047  1
  O  O1  1  0.50000000  -0.00000000  0.76678953  1
  O  O2  1  0.50000000  0.50000000  0.50000000  1
  O  O3  1  0.00000000  0.50000000  0.23321047  1
  O  O4  1  -0.00000000  0.50000000  0.76678953  1
loop_
_geom_bond_atom_site_label_1
_geom_bond_atom_site_label_2
_geom_bond_distance
_geom_bond_site_symmetry_2
B0 O2 1.439760 1_555
B0 O3 1.732775 1_655
B0 O0 1.732775 1_565
B0 O3 1.732775 1_555
B0 O0 1.732775 1_555
B1 O2 1.439760 1_555
B1 O4 1.732775 1_555
B1 O1 1.732775 1_555
B1 O4 1.732775 1_655
B1 O1 1.732775 1_565
O0 Si0 2.318326 1_555
O0 Si0 2.318326 1_655
O0 Si1 2.479901 1_655
O0 Si1 2.479901 1_555
O1 Si0 2.318326 1_656
O1 Si0 2.318326 1_556
O1 Si1 2.479901 1_655
O1 Si1 2.479901 1_555
O2 Si1 2.393018 1_565
O2 Si1 2.393018 1_665
O2 Si1 2.393018 1_655
O2 Si1 2.393018 1_555
O3 Si0 2.318326 1_565
O3 Si0 2.318326 1_555
O3 Si1 2.479901 1_555
O3 Si1 2.479901 1_565
O4 Si0 2.318326 1_566
O4 Si0 2.318326 1_556
O4 Si1 2.479901 1_555
O4 Si1 2.479901 1_565
