# generated using pymatgen
data_Re3Ru
_symmetry_space_group_name_H-M   'P 1'
_cell_length_a   5.51816521
_cell_length_b   5.51817235
_cell_length_c   4.39656444
_cell_angle_alpha   89.99841634
_cell_angle_beta   90.00157444
_cell_angle_gamma   120.00826856
_symmetry_Int_Tables_number   1
_chemical_formula_structural   Re3Ru
_chemical_formula_sum   'Re6 Ru2'
_cell_volume   115.93053581
_cell_formula_units_Z   2
loop_
 _symmetry_equiv_pos_site_id
 _symmetry_equiv_pos_as_xyz
  1  'x, y, z'
loop_
 _atom_site_type_symbol
 _atom_site_label
 _atom_site_symmetry_multiplicity
 _atom_site_fract_x
 _atom_site_fract_y
 _atom_site_fract_z
 _atom_site_occupancy
  Re  Re0  1  0.16453815  0.32896735  0.25001205  1
  Re  Re1  1  0.67103317  0.83546485  0.25001202  1
  Re  Re2  1  0.16454122  0.83545837  0.24998028  1
  Re  Re3  1  0.83546407  0.67103719  0.74998601  1
  Re  Re4  1  0.32896318  0.16453454  0.74998621  1
  Re  Re5  1  0.83546162  0.16454123  0.75001798  1
  Ru  Ru0  1  0.33329561  0.66670524  0.75000142  1
  Ru  Ru1  1  0.66670499  0.33329623  0.24999703  1
loop_
_geom_bond_atom_site_label_1
_geom_bond_atom_site_label_2
_geom_bond_distance
_geom_bond_site_symmetry_2
Re0 Re4 2.702178 1_555
Re0 Re4 2.702444 1_554
Re0 Re5 2.702763 1_454
Re0 Re5 2.702845 1_455
Re0 Re1 2.722897 1_445
Re0 Re2 2.723276 1_545
Re0 Ru0 2.727076 1_555
Re0 Ru0 2.727109 1_554
Re0 Ru1 2.759150 1_455
Re0 Ru1 2.759170 1_555
Re0 Re1 2.794583 1_555
Re0 Re2 2.794896 1_555
Re1 Re3 2.702179 1_555
Re1 Re3 2.702447 1_554
Re1 Re5 2.702763 1_564
Re1 Re5 2.702847 1_565
Re1 Re2 2.723277 1_655
Re1 Ru0 2.727073 1_555
Re1 Ru0 2.727107 1_554
Re1 Ru1 2.759142 1_565
Re1 Ru1 2.759186 1_555
Re1 Re2 2.794888 1_555
Re2 Re4 2.702762 1_564
Re2 Re3 2.702765 1_454
Re2 Re4 2.702846 1_565
Re2 Re3 2.702846 1_455
Re2 Ru0 2.726526 1_554
Re2 Ru0 2.726593 1_555
Re2 Ru1 2.758813 1_455
Re2 Ru1 2.758821 1_565
Re3 Re4 2.722866 1_665
Re3 Re5 2.723247 1_565
Re3 Ru1 2.727083 1_555
Re3 Ru1 2.727119 1_556
Re3 Ru0 2.759150 1_655
Re3 Ru0 2.759171 1_555
Re3 Re4 2.794613 1_555
Re3 Re5 2.794925 1_555
Re4 Re5 2.723242 1_455
Re4 Ru1 2.727084 1_555
Re4 Ru1 2.727120 1_556
Re4 Ru0 2.759142 1_545
Re4 Ru0 2.759186 1_555
Re4 Re5 2.794924 1_555
Re5 Ru1 2.726538 1_556
Re5 Ru1 2.726604 1_555
Re5 Ru0 2.758812 1_655
Re5 Ru0 2.758823 1_545
