# generated using pymatgen
data_YbGe3
_symmetry_space_group_name_H-M   'P 1'
_cell_length_a   5.87089543
_cell_length_b   5.87089543
_cell_length_c   5.18704112
_cell_angle_alpha   90.00000000
_cell_angle_beta   90.00000000
_cell_angle_gamma   119.99999663
_symmetry_Int_Tables_number   1
_chemical_formula_structural   YbGe3
_chemical_formula_sum   'Yb2 Ge6'
_cell_volume   154.83139527
_cell_formula_units_Z   2
loop_
 _symmetry_equiv_pos_site_id
 _symmetry_equiv_pos_as_xyz
  1  'x, y, z'
loop_
 _atom_site_type_symbol
 _atom_site_label
 _atom_site_symmetry_multiplicity
 _atom_site_fract_x
 _atom_site_fract_y
 _atom_site_fract_z
 _atom_site_occupancy
  Yb  Yb0  1  0.33333300  0.66666700  0.75000000  1
  Yb  Yb1  1  0.66666700  0.33333300  0.25000000  1
  Ge  Ge0  1  0.15693396  0.31386792  0.25000000  1
  Ge  Ge1  1  0.68613208  0.84306604  0.25000000  1
  Ge  Ge2  1  0.15693396  0.84306604  0.25000000  1
  Ge  Ge3  1  0.84306604  0.68613208  0.75000000  1
  Ge  Ge4  1  0.31386792  0.15693396  0.75000000  1
  Ge  Ge5  1  0.84306604  0.15693396  0.75000000  1
loop_
_geom_bond_atom_site_label_1
_geom_bond_atom_site_label_2
_geom_bond_distance
_geom_bond_site_symmetry_2
Ge0 Yb1 2.937113 1_455
Ge0 Yb1 2.937118 1_555
Ge0 Yb0 3.153394 1_555
Ge0 Yb0 3.153394 1_554
Ge1 Yb1 2.937113 1_565
Ge1 Yb1 2.937118 1_555
Ge1 Yb0 3.153394 1_555
Ge1 Yb0 3.153394 1_554
Ge2 Yb1 2.937116 1_565
Ge2 Yb1 2.937116 1_455
Ge2 Yb0 3.153391 1_554
Ge2 Yb0 3.153391 1_555
Ge3 Yb0 2.937113 1_655
Ge3 Yb0 2.937118 1_555
Ge3 Yb1 3.153394 1_555
Ge3 Yb1 3.153394 1_556
Ge4 Yb0 2.937113 1_545
Ge4 Yb0 2.937118 1_555
Ge4 Yb1 3.153394 1_555
Ge4 Yb1 3.153394 1_556
Ge5 Yb0 2.937116 1_655
Ge5 Yb0 2.937116 1_545
Ge5 Yb1 3.153391 1_555
Ge5 Yb1 3.153391 1_556
