# generated using pymatgen
data_Nb3Ni
_symmetry_space_group_name_H-M   'P 1'
_cell_length_a   4.53310884
_cell_length_b   4.53310884
_cell_length_c   4.53310884
_cell_angle_alpha   60.00000000
_cell_angle_beta   60.00000000
_cell_angle_gamma   60.00000000
_symmetry_Int_Tables_number   1
_chemical_formula_structural   Nb3Ni
_chemical_formula_sum   'Nb3 Ni1'
_cell_volume   65.86784301
_cell_formula_units_Z   1
loop_
 _symmetry_equiv_pos_site_id
 _symmetry_equiv_pos_as_xyz
  1  'x, y, z'
loop_
 _atom_site_type_symbol
 _atom_site_label
 _atom_site_symmetry_multiplicity
 _atom_site_fract_x
 _atom_site_fract_y
 _atom_site_fract_z
 _atom_site_occupancy
  Nb  Nb0  1  0.50000000  0.50000000  0.50000000  1
  Nb  Nb1  1  0.75000000  0.75000000  0.75000000  1
  Nb  Nb2  1  0.25000000  0.25000000  0.25000000  1
  Ni  Ni0  1  0.00000000  0.00000000  0.00000000  1
loop_
_geom_bond_atom_site_label_1
_geom_bond_atom_site_label_2
_geom_bond_distance
_geom_bond_site_symmetry_2
Nb0 Nb1 2.775951 1_554
Nb0 Nb2 2.775951 1_555
Nb0 Nb2 2.775951 1_556
Nb0 Nb2 2.775951 1_655
Nb0 Nb1 2.775951 1_455
Nb0 Nb2 2.775951 1_565
Nb0 Nb1 2.775951 1_545
Nb0 Nb1 2.775951 1_555
Nb1 Ni0 2.775951 1_566
Nb1 Ni0 2.775951 1_665
Nb1 Ni0 2.775951 1_666
Nb1 Ni0 2.775951 1_656
Nb2 Ni0 2.775951 1_655
Nb2 Ni0 2.775951 1_556
Nb2 Ni0 2.775951 1_555
Nb2 Ni0 2.775951 1_565
