# generated using pymatgen
data_La(Al2Fe)4
_symmetry_space_group_name_H-M   'P 1'
_cell_length_a   5.00547449
_cell_length_b   6.75516580
_cell_length_c   6.75532246
_cell_angle_alpha   97.89808674
_cell_angle_beta   68.24675045
_cell_angle_gamma   111.75521159
_symmetry_Int_Tables_number   1
_chemical_formula_structural   La(Al2Fe)4
_chemical_formula_sum   'La1 Al8 Fe4'
_cell_volume   197.04032114
_cell_formula_units_Z   1
loop_
 _symmetry_equiv_pos_site_id
 _symmetry_equiv_pos_as_xyz
  1  'x, y, z'
loop_
 _atom_site_type_symbol
 _atom_site_label
 _atom_site_symmetry_multiplicity
 _atom_site_fract_x
 _atom_site_fract_y
 _atom_site_fract_z
 _atom_site_occupancy
  La  La0  1  0.00000000  0.00000000  -0.00000000  1
  Al  Al0  1  0.50001523  0.22872438  0.22873102  1
  Al  Al1  1  0.27119098  0.77119942  0.22878794  1
  Al  Al2  1  -0.00001176  0.34577209  0.34583392  1
  Al  Al3  1  0.65415148  0.65424412  0.34577986  1
  Al  Al4  1  0.00001176  0.65422791  0.65416608  1
  Al  Al5  1  0.34584952  0.34575588  0.65422014  1
  Al  Al6  1  0.49998477  0.77127562  0.77126898  1
  Al  Al7  1  0.72881002  0.22880058  0.77121106  1
  Fe  Fe0  1  0.00000000  0.50000000  -0.00000000  1
  Fe  Fe1  1  0.50000000  0.50000000  -0.00000000  1
  Fe  Fe2  1  0.00000000  0.00000000  0.50000000  1
  Fe  Fe3  1  0.50000000  0.00000000  0.50000000  1
loop_
_geom_bond_atom_site_label_1
_geom_bond_atom_site_label_2
_geom_bond_distance
_geom_bond_site_symmetry_2
Al0 Fe0 2.553651 1_655
Al0 Fe2 2.553706 1_555
Al0 Fe3 2.554069 1_555
Al0 Fe1 2.554202 1_555
Al0 Al2 2.709738 1_655
Al0 Al2 2.709766 1_555
Al0 Al5 2.768728 1_555
Al0 Al3 2.768855 1_555
Al0 Al1 2.870528 1_545
Al0 Al7 2.870602 1_554
Al0 La0 3.222118 1_655
Al0 La0 3.222206 1_555
Al1 Fe0 2.553628 1_555
Al1 Fe2 2.553776 1_565
Al1 Fe1 2.553777 1_555
Al1 Fe3 2.553848 1_565
Al1 Al3 2.709325 1_555
Al1 Al3 2.709531 1_455
Al1 Al4 2.768035 1_555
Al1 Al2 2.768369 1_555
Al1 Al6 2.870596 1_554
Al1 La0 3.222331 1_665
Al1 La0 3.222879 1_565
Al2 Fe3 2.684596 1_455
Al2 Fe2 2.684955 1_555
Al2 Fe1 2.685026 1_555
Al2 Fe0 2.685536 1_555
Al2 Al4 2.736301 1_555
Al2 Al7 2.768029 1_455
Al2 La0 3.068221 1_555
Al3 Fe3 2.684642 1_565
Al3 Fe2 2.684816 1_665
Al3 Fe1 2.684833 1_555
Al3 Fe0 2.685080 1_655
Al3 Al5 2.737076 1_555
Al3 Al6 2.768728 1_555
Al3 La0 3.068079 1_665
Al4 Fe3 2.684596 1_565
Al4 Fe2 2.684955 1_565
Al4 Fe1 2.685026 1_456
Al4 Fe0 2.685536 1_556
Al4 Al6 2.709738 1_555
Al4 Al6 2.709766 1_455
Al4 Al7 2.768368 1_455
Al4 La0 3.068221 1_566
Al5 Fe3 2.684640 1_555
Al5 Fe2 2.684818 1_555
Al5 Fe1 2.684831 1_556
Al5 Fe0 2.685082 1_556
Al5 Al7 2.709321 1_555
Al5 Al7 2.709532 1_455
Al5 Al6 2.768855 1_555
Al5 La0 3.068079 1_556
Al6 Fe0 2.553651 1_556
Al6 Fe2 2.553706 1_665
Al6 Fe3 2.554069 1_565
Al6 Fe1 2.554202 1_556
Al6 Al7 2.870528 1_565
Al6 La0 3.222118 1_566
Al6 La0 3.222206 1_666
Al7 Fe0 2.553630 1_656
Al7 Fe2 2.553770 1_655
Al7 Fe1 2.553782 1_556
Al7 Fe3 2.553845 1_555
Al7 La0 3.222336 1_556
Al7 La0 3.222880 1_656
Fe0 Fe1 2.502737 1_455
Fe0 Fe1 2.502737 1_555
Fe0 La0 3.377583 1_555
Fe0 La0 3.377583 1_565
Fe1 La0 3.377209 1_665
Fe1 La0 3.377209 1_555
Fe2 Fe3 2.502737 1_455
Fe2 Fe3 2.502737 1_555
Fe2 La0 3.377661 1_555
Fe2 La0 3.377661 1_556
Fe3 La0 3.377345 1_556
Fe3 La0 3.377345 1_655
