# generated using pymatgen
data_PrDyZn2
_symmetry_space_group_name_H-M   'P 1'
_cell_length_a   5.12448774
_cell_length_b   5.12448774
_cell_length_c   5.12448774
_cell_angle_alpha   60.00000000
_cell_angle_beta   60.00000000
_cell_angle_gamma   60.00000000
_symmetry_Int_Tables_number   1
_chemical_formula_structural   PrDyZn2
_chemical_formula_sum   'Pr1 Dy1 Zn2'
_cell_volume   95.15604371
_cell_formula_units_Z   1
loop_
 _symmetry_equiv_pos_site_id
 _symmetry_equiv_pos_as_xyz
  1  'x, y, z'
loop_
 _atom_site_type_symbol
 _atom_site_label
 _atom_site_symmetry_multiplicity
 _atom_site_fract_x
 _atom_site_fract_y
 _atom_site_fract_z
 _atom_site_occupancy
  Pr  Pr0  1  0.75000100  0.75000100  0.75000100  1
  Dy  Dy0  1  0.25000100  0.25000100  0.25000100  1
  Zn  Zn0  1  0.00000000  0.00000000  0.00000000  1
  Zn  Zn1  1  0.50000000  0.50000000  0.50000000  1
loop_
_geom_bond_atom_site_label_1
_geom_bond_atom_site_label_2
_geom_bond_distance
_geom_bond_site_symmetry_2
Pr0 Zn0 3.138082 1_666
Pr0 Zn1 3.138091 1_565
Pr0 Zn1 3.138091 1_556
Pr0 Zn1 3.138091 1_655
Pr0 Zn0 3.138099 1_566
Pr0 Zn0 3.138099 1_656
Pr0 Zn0 3.138099 1_665
Pr0 Zn1 3.138108 1_555
Dy0 Zn1 3.138082 1_555
Dy0 Zn0 3.138091 1_556
Dy0 Zn0 3.138091 1_565
Dy0 Zn0 3.138091 1_655
Dy0 Zn1 3.138099 1_554
Dy0 Zn1 3.138099 1_455
Dy0 Zn1 3.138099 1_545
Dy0 Zn0 3.138108 1_555
