# generated using pymatgen
data_MnFe3
_symmetry_space_group_name_H-M   'P 1'
_cell_length_a   5.73854785
_cell_length_b   2.83160308
_cell_length_c   2.83160308
_cell_angle_alpha   90.00000000
_cell_angle_beta   90.00000000
_cell_angle_gamma   90.00000000
_symmetry_Int_Tables_number   1
_chemical_formula_structural   MnFe3
_chemical_formula_sum   'Mn1 Fe3'
_cell_volume   46.01153895
_cell_formula_units_Z   1
loop_
 _symmetry_equiv_pos_site_id
 _symmetry_equiv_pos_as_xyz
  1  'x, y, z'
loop_
 _atom_site_type_symbol
 _atom_site_label
 _atom_site_symmetry_multiplicity
 _atom_site_fract_x
 _atom_site_fract_y
 _atom_site_fract_z
 _atom_site_occupancy
  Mn  Mn0  1  0.75000000  0.50000000  0.50000000  1
  Fe  Fe0  1  0.99742274  0.00000000  0.00000000  1
  Fe  Fe1  1  0.50257726  0.00000000  0.00000000  1
  Fe  Fe2  1  0.25000000  0.50000000  0.50000000  1
loop_
_geom_bond_atom_site_label_1
_geom_bond_atom_site_label_2
_geom_bond_distance
_geom_bond_site_symmetry_2
Fe0 Mn0 2.454578 1_544
Fe0 Mn0 2.454578 1_555
Fe0 Mn0 2.454578 1_554
Fe0 Mn0 2.454578 1_545
Fe0 Fe2 2.471806 1_654
Fe0 Fe2 2.471806 1_644
Fe0 Fe2 2.471806 1_655
Fe0 Fe2 2.471806 1_645
Fe1 Mn0 2.454578 1_544
Fe1 Mn0 2.454578 1_555
Fe1 Mn0 2.454578 1_554
Fe1 Mn0 2.454578 1_545
Fe1 Fe2 2.471806 1_554
Fe1 Fe2 2.471806 1_544
Fe1 Fe2 2.471806 1_555
Fe1 Fe2 2.471806 1_545
