# generated using pymatgen
data_Sc3Al
_symmetry_space_group_name_H-M   'P 1'
_cell_length_a   4.43330466
_cell_length_b   4.42781226
_cell_length_c   4.43484655
_cell_angle_alpha   90.00000000
_cell_angle_beta   90.00000000
_cell_angle_gamma   90.00000000
_symmetry_Int_Tables_number   1
_chemical_formula_structural   Sc3Al
_chemical_formula_sum   'Sc3 Al1'
_cell_volume   87.05533142
_cell_formula_units_Z   1
loop_
 _symmetry_equiv_pos_site_id
 _symmetry_equiv_pos_as_xyz
  1  'x, y, z'
loop_
 _atom_site_type_symbol
 _atom_site_label
 _atom_site_symmetry_multiplicity
 _atom_site_fract_x
 _atom_site_fract_y
 _atom_site_fract_z
 _atom_site_occupancy
  Sc  Sc0  1  0.49999800  -0.00000000  0.49999800  1
  Sc  Sc1  1  0.00000000  0.49999800  0.49999800  1
  Sc  Sc2  1  0.49999800  0.49999800  -0.00000000  1
  Al  Al0  1  0.00000000  -0.00000000  -0.00000000  1
loop_
_geom_bond_atom_site_label_1
_geom_bond_atom_site_label_2
_geom_bond_distance
_geom_bond_site_symmetry_2
Sc0 Sc1 3.132866 1_555
Sc0 Sc1 3.132879 1_545
Sc0 Sc1 3.132879 1_655
Sc0 Sc1 3.132891 1_645
Sc0 Sc2 3.133412 1_555
Sc0 Sc2 3.133424 1_545
Sc0 Sc2 3.133424 1_556
Sc0 Sc2 3.133437 1_546
Sc1 Sc2 3.135352 1_555
Sc1 Sc2 3.135365 1_455
Sc1 Sc2 3.135365 1_556
Sc1 Sc2 3.135378 1_456
Al0 Sc2 3.132866 1_555
Al0 Sc2 3.132879 1_545
Al0 Sc2 3.132879 1_455
Al0 Sc2 3.132891 1_445
Al0 Sc1 3.133412 1_555
Al0 Sc1 3.133424 1_545
Al0 Sc1 3.133424 1_554
Al0 Sc1 3.133437 1_544
Al0 Sc0 3.135352 1_555
Al0 Sc0 3.135365 1_455
Al0 Sc0 3.135365 1_554
Al0 Sc0 3.135378 1_454
