# generated using pymatgen
data_Yb2Nd2O5
_symmetry_space_group_name_H-M   'P 1'
_cell_length_a   4.32863800
_cell_length_b   4.32863800
_cell_length_c   8.58619800
_cell_angle_alpha   90.00000000
_cell_angle_beta   90.00000000
_cell_angle_gamma   90.00000000
_symmetry_Int_Tables_number   1
_chemical_formula_structural   Yb2Nd2O5
_chemical_formula_sum   'Yb2 Nd2 O5'
_cell_volume   160.88051009
_cell_formula_units_Z   1
loop_
 _symmetry_equiv_pos_site_id
 _symmetry_equiv_pos_as_xyz
  1  'x, y, z'
loop_
 _atom_site_type_symbol
 _atom_site_label
 _atom_site_symmetry_multiplicity
 _atom_site_fract_x
 _atom_site_fract_y
 _atom_site_fract_z
 _atom_site_occupancy
  Yb  Yb0  1  0.00000000  0.00000000  0.00000000  1
  Yb  Yb1  1  0.00000000  0.00000000  0.50000000  1
  Nd  Nd0  1  0.50000000  0.50000000  0.23312900  1
  Nd  Nd1  1  0.50000000  0.50000000  0.76687100  1
  O  O0  1  0.50000000  0.00000000  0.16331800  1
  O  O1  1  0.50000000  0.00000000  0.83668200  1
  O  O2  1  0.50000000  0.50000000  0.50000000  1
  O  O3  1  0.00000000  0.50000000  0.16331800  1
  O  O4  1  0.00000000  0.50000000  0.83668200  1
loop_
_geom_bond_atom_site_label_1
_geom_bond_atom_site_label_2
_geom_bond_distance
_geom_bond_site_symmetry_2
Nd0 O3 2.245789 1_655
Nd0 O0 2.245789 1_565
Nd0 O3 2.245789 1_555
Nd0 O0 2.245789 1_555
Nd0 O2 2.291407 1_555
Nd1 O4 2.245789 1_655
Nd1 O1 2.245789 1_565
Nd1 O4 2.245789 1_555
Nd1 O1 2.245789 1_555
Nd1 O2 2.291407 1_555
O0 Yb0 2.578889 1_555
O0 Yb0 2.578889 1_655
O1 Yb0 2.578889 1_656
O1 Yb0 2.578889 1_556
O2 Yb1 3.060809 1_565
O2 Yb1 3.060809 1_655
O2 Yb1 3.060809 1_555
O2 Yb1 3.060809 1_665
O3 Yb0 2.578889 1_565
O3 Yb0 2.578889 1_555
O4 Yb0 2.578889 1_566
O4 Yb0 2.578889 1_556
