# generated using pymatgen
data_LaRh3
_symmetry_space_group_name_H-M   'P 1'
_cell_length_a   5.32131260
_cell_length_b   5.32131260
_cell_length_c   17.71562647
_cell_angle_alpha   90.00000000
_cell_angle_beta   90.00000000
_cell_angle_gamma   119.99998626
_symmetry_Int_Tables_number   1
_chemical_formula_structural   LaRh3
_chemical_formula_sum   'La6 Rh18'
_cell_volume   434.43494357
_cell_formula_units_Z   6
loop_
 _symmetry_equiv_pos_site_id
 _symmetry_equiv_pos_as_xyz
  1  'x, y, z'
loop_
 _atom_site_type_symbol
 _atom_site_label
 _atom_site_symmetry_multiplicity
 _atom_site_fract_x
 _atom_site_fract_y
 _atom_site_fract_z
 _atom_site_occupancy
  La  La0  1  0.33333300  0.66666700  0.54282650  1
  La  La1  1  0.66666700  0.33333300  0.04282650  1
  La  La2  1  0.66666700  0.33333300  0.45717350  1
  La  La3  1  0.33333300  0.66666700  0.95717350  1
  La  La4  1  0.33333300  0.66666700  0.75000000  1
  La  La5  1  0.66666700  0.33333300  0.25000000  1
  Rh  Rh0  1  0.16656087  0.33312075  0.12853831  1
  Rh  Rh1  1  0.83343913  0.66687925  0.62853831  1
  Rh  Rh2  1  0.66687925  0.83343913  0.12853831  1
  Rh  Rh3  1  0.16656087  0.83343913  0.12853831  1
  Rh  Rh4  1  0.83343913  0.16656087  0.62853831  1
  Rh  Rh5  1  0.33312075  0.16656087  0.62853831  1
  Rh  Rh6  1  0.83343913  0.66687925  0.87146169  1
  Rh  Rh7  1  0.83343913  0.16656087  0.87146169  1
  Rh  Rh8  1  0.33312075  0.16656087  0.87146169  1
  Rh  Rh9  1  0.66687925  0.83343913  0.37146169  1
  Rh  Rh10  1  0.16656087  0.83343913  0.37146169  1
  Rh  Rh11  1  0.16656087  0.33312075  0.37146169  1
  Rh  Rh12  1  0.00000000  0.00000000  0.25000000  1
  Rh  Rh13  1  0.00000000  0.00000000  0.75000000  1
  Rh  Rh14  1  0.33333300  0.66666700  0.25000000  1
  Rh  Rh15  1  0.66666700  0.33333300  0.75000000  1
  Rh  Rh16  1  0.00000000  0.00000000  -0.00000000  1
  Rh  Rh17  1  0.00000000  0.00000000  0.50000000  1
loop_
_geom_bond_atom_site_label_1
_geom_bond_atom_site_label_2
_geom_bond_distance
_geom_bond_site_symmetry_2
La0 Rh1 3.063454 1_455
La0 Rh5 3.063454 1_565
La0 Rh1 3.063454 1_555
La0 Rh5 3.063454 1_555
La0 Rh4 3.063454 1_455
La0 Rh4 3.063454 1_565
La0 Rh17 3.164552 1_565
La0 Rh17 3.164558 1_555
La0 Rh17 3.164558 1_665
La0 Rh10 3.402790 1_555
La0 Rh9 3.402794 1_555
La0 Rh11 3.402794 1_555
La1 Rh2 3.063454 1_545
La1 Rh0 3.063454 1_655
La1 Rh2 3.063454 1_555
La1 Rh0 3.063454 1_555
La1 Rh3 3.063454 1_545
La1 Rh3 3.063454 1_655
La1 Rh16 3.164552 1_655
La1 Rh16 3.164558 1_555
La1 Rh16 3.164558 1_665
La1 Rh7 3.402790 1_554
La1 Rh6 3.402794 1_554
La1 Rh8 3.402794 1_554
La2 Rh9 3.063454 1_545
La2 Rh11 3.063454 1_655
La2 Rh9 3.063454 1_555
La2 Rh11 3.063454 1_555
La2 Rh10 3.063454 1_545
La2 Rh10 3.063454 1_655
La2 Rh17 3.164552 1_655
La2 Rh17 3.164558 1_555
La2 Rh17 3.164558 1_665
La2 Rh4 3.402790 1_555
La2 Rh5 3.402794 1_555
La2 Rh1 3.402794 1_555
La3 Rh6 3.063454 1_455
La3 Rh8 3.063454 1_565
La3 Rh6 3.063454 1_555
La3 Rh8 3.063454 1_555
La3 Rh7 3.063454 1_455
La3 Rh7 3.063454 1_565
La3 Rh16 3.164552 1_566
La3 Rh16 3.164558 1_666
La3 Rh16 3.164558 1_556
La3 Rh3 3.402790 1_556
La3 Rh0 3.402794 1_556
La3 Rh2 3.402794 1_556
La4 Rh13 3.072258 1_565
La4 Rh15 3.072259 1_455
La4 Rh15 3.072259 1_565
La4 Rh13 3.072263 1_555
La4 Rh13 3.072263 1_665
La4 Rh15 3.072267 1_555
La4 Rh1 3.421872 1_455
La4 Rh6 3.421872 1_455
La4 Rh8 3.421872 1_565
La4 Rh5 3.421872 1_565
La4 Rh1 3.421872 1_555
La4 Rh6 3.421872 1_555
La4 Rh5 3.421872 1_555
La4 Rh8 3.421872 1_555
La4 Rh7 3.421872 1_455
La4 Rh4 3.421872 1_455
La4 Rh7 3.421872 1_565
La4 Rh4 3.421872 1_565
La5 Rh12 3.072258 1_655
La5 Rh14 3.072259 1_545
La5 Rh14 3.072259 1_655
La5 Rh12 3.072263 1_665
La5 Rh12 3.072263 1_555
La5 Rh14 3.072267 1_555
La5 Rh2 3.421872 1_545
La5 Rh9 3.421872 1_545
La5 Rh0 3.421872 1_655
La5 Rh11 3.421872 1_655
La5 Rh2 3.421872 1_555
La5 Rh9 3.421872 1_555
La5 Rh11 3.421872 1_555
La5 Rh0 3.421872 1_555
La5 Rh3 3.421872 1_545
La5 Rh10 3.421872 1_545
La5 Rh3 3.421872 1_655
La5 Rh10 3.421872 1_655
Rh0 Rh12 2.643256 1_555
Rh0 Rh14 2.644395 1_555
Rh0 Rh3 2.658962 1_545
Rh0 Rh2 2.658963 1_445
Rh0 Rh3 2.662350 1_555
Rh0 Rh2 2.662351 1_555
Rh0 Rh16 2.746278 1_555
Rh1 Rh13 2.643256 1_665
Rh1 Rh15 2.644395 1_555
Rh1 Rh4 2.658962 1_565
Rh1 Rh5 2.658963 1_665
Rh1 Rh4 2.662350 1_555
Rh1 Rh5 2.662351 1_555
Rh1 Rh17 2.746278 1_665
Rh2 Rh3 2.658962 1_655
Rh2 Rh3 2.662350 1_555
Rh4 Rh5 2.658962 1_655
Rh4 Rh5 2.662350 1_555
Rh6 Rh7 2.658962 1_565
Rh6 Rh8 2.658963 1_665
Rh6 Rh7 2.662350 1_555
Rh6 Rh8 2.662351 1_555
Rh7 Rh8 2.658962 1_655
Rh7 Rh8 2.662350 1_555
Rh10 Rh12 2.643259 1_565
Rh10 Rh14 2.644390 1_555
Rh10 Rh11 2.658962 1_565
Rh10 Rh9 2.658962 1_455
Rh10 Rh11 2.662350 1_555
Rh10 Rh9 2.662350 1_555
Rh10 Rh17 2.746280 1_565
Rh11 Rh12 2.643256 1_555
Rh11 Rh14 2.644395 1_555
Rh11 Rh9 2.658963 1_445
Rh11 Rh9 2.662351 1_555
Rh11 Rh17 2.746278 1_555
Rh12 Rh2 2.643256 1_445
Rh12 Rh9 2.643256 1_445
Rh12 Rh3 2.643259 1_545
Rh13 Rh5 2.643256 1_555
Rh13 Rh8 2.643256 1_555
Rh13 Rh6 2.643256 1_445
Rh13 Rh7 2.643259 1_455
Rh13 Rh4 2.643259 1_455
Rh14 Rh3 2.644390 1_555
Rh14 Rh2 2.644395 1_555
Rh14 Rh9 2.644395 1_555
Rh15 Rh4 2.644390 1_555
Rh15 Rh7 2.644390 1_555
Rh15 Rh5 2.644395 1_555
Rh15 Rh8 2.644395 1_555
Rh15 Rh6 2.644395 1_555
Rh16 Rh2 2.746278 1_445
Rh16 Rh8 2.746278 1_554
Rh16 Rh6 2.746278 1_444
Rh16 Rh3 2.746280 1_545
Rh16 Rh7 2.746280 1_454
Rh17 Rh9 2.746278 1_445
Rh17 Rh5 2.746278 1_555
Rh17 Rh4 2.746280 1_455
