# generated using pymatgen
data_RbPdBr3
_symmetry_space_group_name_H-M   'P 1'
_cell_length_a   5.29620136
_cell_length_b   5.29223208
_cell_length_c   5.28907687
_cell_angle_alpha   90.04296173
_cell_angle_beta   89.97922295
_cell_angle_gamma   90.01098389
_symmetry_Int_Tables_number   1
_chemical_formula_structural   RbPdBr3
_chemical_formula_sum   'Rb1 Pd1 Br3'
_cell_volume   148.24603630
_cell_formula_units_Z   1
loop_
 _symmetry_equiv_pos_site_id
 _symmetry_equiv_pos_as_xyz
  1  'x, y, z'
loop_
 _atom_site_type_symbol
 _atom_site_label
 _atom_site_symmetry_multiplicity
 _atom_site_fract_x
 _atom_site_fract_y
 _atom_site_fract_z
 _atom_site_occupancy
  Rb  Rb0  1  0.00069800  0.00101700  0.99366700  1
  Pd  Pd0  1  0.49940100  0.49589100  0.48491900  1
  Br  Br0  1  0.99937400  0.49602400  0.48729900  1
  Br  Br1  1  0.50195900  0.50104600  0.98533100  1
  Br  Br2  1  0.49856800  0.99602000  0.48878100  1
loop_
_geom_bond_atom_site_label_1
_geom_bond_atom_site_label_2
_geom_bond_distance
_geom_bond_site_symmetry_2
Br0 Pd0 2.647992 1_555
Br0 Pd0 2.648269 1_655
Br0 Rb0 3.697181 1_654
Br0 Rb0 3.737585 1_664
Br0 Rb0 3.747831 1_655
Br0 Rb0 3.782149 1_665
Br1 Pd0 2.642550 1_556
Br1 Pd0 2.646877 1_555
Br1 Rb0 3.738636 1_665
Br1 Rb0 3.739617 1_655
Br1 Rb0 3.748324 1_555
Br1 Rb0 3.748780 1_565
Br2 Pd0 2.645530 1_565
Br2 Pd0 2.646867 1_555
Br2 Rb0 3.717018 1_564
Br2 Rb0 3.731703 1_664
Br2 Rb0 3.752235 1_565
Br2 Rb0 3.769478 1_665
