# generated using pymatgen
data_MgW3
_symmetry_space_group_name_H-M   'P 1'
_cell_length_a   5.78440863
_cell_length_b   5.78440863
_cell_length_c   4.68568600
_cell_angle_alpha   90.00000000
_cell_angle_beta   90.00000000
_cell_angle_gamma   120.00000719
_symmetry_Int_Tables_number   1
_chemical_formula_structural   MgW3
_chemical_formula_sum   'Mg2 W6'
_cell_volume   135.77559444
_cell_formula_units_Z   2
loop_
 _symmetry_equiv_pos_site_id
 _symmetry_equiv_pos_as_xyz
  1  'x, y, z'
loop_
 _atom_site_type_symbol
 _atom_site_label
 _atom_site_symmetry_multiplicity
 _atom_site_fract_x
 _atom_site_fract_y
 _atom_site_fract_z
 _atom_site_occupancy
  Mg  Mg0  1  0.66666700  0.33333300  0.25000000  1
  Mg  Mg1  1  0.33333300  0.66666700  0.75000000  1
  W  W0  1  0.15463000  0.30926000  0.25000000  1
  W  W1  1  0.15463000  0.84537000  0.25000000  1
  W  W2  1  0.69074000  0.84537000  0.25000000  1
  W  W3  1  0.30926000  0.15463000  0.75000000  1
  W  W4  1  0.84537000  0.15463000  0.75000000  1
  W  W5  1  0.84537000  0.69074000  0.75000000  1
loop_
_geom_bond_atom_site_label_1
_geom_bond_atom_site_label_2
_geom_bond_distance
_geom_bond_site_symmetry_2
Mg0 W2 2.894714 1_545
Mg0 W0 2.894714 1_655
Mg0 W1 2.894717 1_545
Mg0 W1 2.894717 1_655
Mg0 W0 2.894720 1_555
Mg0 W2 2.894720 1_555
Mg0 W4 2.948638 1_555
Mg0 W4 2.948638 1_554
Mg0 W3 2.948641 1_554
Mg0 W3 2.948641 1_555
Mg0 W5 2.948641 1_554
Mg0 W5 2.948641 1_555
Mg1 W3 2.894714 1_565
Mg1 W5 2.894714 1_455
Mg1 W4 2.894717 1_455
Mg1 W4 2.894717 1_565
Mg1 W3 2.894720 1_555
Mg1 W5 2.894720 1_555
Mg1 W1 2.948638 1_556
Mg1 W1 2.948638 1_555
Mg1 W0 2.948641 1_555
Mg1 W0 2.948641 1_556
Mg1 W2 2.948641 1_555
Mg1 W2 2.948641 1_556
W0 W2 2.683329 1_445
W0 W1 2.683329 1_545
W0 W4 2.808736 1_455
W0 W4 2.808736 1_454
W0 W3 2.808736 1_555
W0 W3 2.808736 1_554
W0 W2 3.101079 1_555
W0 W1 3.101079 1_555
W1 W2 2.683329 1_455
W1 W5 2.808736 1_454
W1 W3 2.808736 1_565
W1 W5 2.808736 1_455
W1 W3 2.808736 1_564
W1 W2 3.101079 1_555
W2 W4 2.808736 1_564
W2 W4 2.808736 1_565
W2 W5 2.808736 1_554
W2 W5 2.808736 1_555
W3 W5 2.683329 1_445
W3 W4 2.683329 1_455
W3 W5 3.101079 1_555
W3 W4 3.101079 1_555
W4 W5 2.683329 1_545
W4 W5 3.101079 1_555
