# generated using pymatgen
data_Ba3Ge4
_symmetry_space_group_name_H-M   'P 1'
_cell_length_a   8.55625962
_cell_length_b   8.55625949
_cell_length_c   12.21162931
_cell_angle_alpha   89.99999528
_cell_angle_beta   89.99999511
_cell_angle_gamma   92.19806315
_symmetry_Int_Tables_number   1
_chemical_formula_structural   Ba3Ge4
_chemical_formula_sum   'Ba12 Ge16'
_cell_volume   893.35042392
_cell_formula_units_Z   4
loop_
 _symmetry_equiv_pos_site_id
 _symmetry_equiv_pos_as_xyz
  1  'x, y, z'
loop_
 _atom_site_type_symbol
 _atom_site_label
 _atom_site_symmetry_multiplicity
 _atom_site_fract_x
 _atom_site_fract_y
 _atom_site_fract_z
 _atom_site_occupancy
  Ba  Ba0  1  0.00000000  0.50000000  0.74417110  1
  Ba  Ba1  1  0.50000000  -0.00000000  0.25582890  1
  Ba  Ba2  1  -0.00000000  0.50000000  0.25582890  1
  Ba  Ba3  1  0.50000000  0.00000000  0.74417110  1
  Ba  Ba4  1  0.50000000  0.50000000  0.32415772  1
  Ba  Ba5  1  0.50000000  0.50000000  0.67584228  1
  Ba  Ba6  1  0.00000000  0.00000000  0.16086357  1
  Ba  Ba7  1  -0.00000000  -0.00000000  0.83913643  1
  Ba  Ba8  1  0.33703470  0.33703570  -0.00000000  1
  Ba  Ba9  1  0.66296530  0.66296530  0.00000000  1
  Ba  Ba10  1  0.84134607  0.15865393  0.50000000  1
  Ba  Ba11  1  0.15865393  0.84134607  0.50000000  1
  Ge  Ge0  1  0.80262558  0.80262558  0.34981175  1
  Ge  Ge1  1  0.19737442  0.19737442  0.34981175  1
  Ge  Ge2  1  0.80262558  0.80262558  0.65018825  1
  Ge  Ge3  1  0.19737442  0.19737442  0.65018825  1
  Ge  Ge4  1  0.29326288  0.70673712  0.13769477  1
  Ge  Ge5  1  0.70673712  0.29326288  0.13769477  1
  Ge  Ge6  1  0.70673712  0.29326288  0.86230523  1
  Ge  Ge7  1  0.29326288  0.70673712  0.86230523  1
  Ge  Ge8  1  0.06439077  0.65877467  -0.00000000  1
  Ge  Ge9  1  0.93560923  0.34122533  0.00000000  1
  Ge  Ge10  1  0.65877467  0.06439077  -0.00000000  1
  Ge  Ge11  1  0.34122533  0.93560923  0.00000000  1
  Ge  Ge12  1  0.59192490  0.79833789  0.50000000  1
  Ge  Ge13  1  0.40807510  0.20166211  0.50000000  1
  Ge  Ge14  1  0.79833789  0.59192490  0.50000000  1
  Ge  Ge15  1  0.20166211  0.40807510  0.50000000  1
loop_
_geom_bond_atom_site_label_1
_geom_bond_atom_site_label_2
_geom_bond_distance
_geom_bond_site_symmetry_2
Ba0 Ge6 3.341541 1_455
Ba0 Ge7 3.341541 1_555
Ba0 Ge2 3.348031 1_455
Ba0 Ge3 3.348031 1_555
Ba0 Ge9 3.442618 1_456
Ba0 Ge8 3.442618 1_556
Ba0 Ge15 3.548336 1_555
Ba0 Ge14 3.548337 1_455
Ba1 Ge5 3.341541 1_555
Ba1 Ge4 3.341541 1_545
Ba1 Ge1 3.348031 1_555
Ba1 Ge0 3.348031 1_545
Ba1 Ge10 3.442618 1_555
Ba1 Ge11 3.442618 1_545
Ba1 Ge12 3.548336 1_545
Ba1 Ge13 3.548337 1_555
Ba2 Ge4 3.341541 1_555
Ba2 Ge5 3.341541 1_455
Ba2 Ge1 3.348031 1_555
Ba2 Ge0 3.348031 1_455
Ba2 Ge8 3.442618 1_555
Ba2 Ge9 3.442618 1_455
Ba2 Ge14 3.548336 1_455
Ba2 Ge15 3.548337 1_555
Ba3 Ge7 3.341541 1_545
Ba3 Ge6 3.341541 1_555
Ba3 Ge2 3.348031 1_545
Ba3 Ge3 3.348031 1_555
Ba3 Ge11 3.442618 1_546
Ba3 Ge10 3.442618 1_556
Ba3 Ge13 3.548336 1_555
Ba3 Ge12 3.548337 1_545
Ba4 Ge13 3.404653 1_555
Ba4 Ge15 3.404653 1_555
Ba4 Ge12 3.404654 1_555
Ba4 Ge14 3.404654 1_555
Ba4 Ge5 3.418013 1_555
Ba4 Ge4 3.418013 1_555
Ba4 Ge1 3.604613 1_555
Ba4 Ge0 3.604613 1_555
Ba5 Ge12 3.404653 1_555
Ba5 Ge14 3.404653 1_555
Ba5 Ge13 3.404654 1_555
Ba5 Ge15 3.404654 1_555
Ba5 Ge7 3.418013 1_555
Ba5 Ge6 3.418013 1_555
Ba5 Ge2 3.604613 1_555
Ba5 Ge3 3.604613 1_555
Ba6 Ge0 3.287729 1_445
Ba6 Ge1 3.287729 1_555
Ba6 Ge9 3.579100 1_455
Ba6 Ge11 3.579100 1_545
Ba6 Ge8 3.579100 1_545
Ba6 Ge10 3.579100 1_455
Ba6 Ge4 3.627055 1_545
Ba6 Ge5 3.627055 1_455
Ba7 Ge3 3.287729 1_555
Ba7 Ge2 3.287729 1_445
Ba7 Ge8 3.579100 1_546
Ba7 Ge10 3.579100 1_456
Ba7 Ge9 3.579100 1_456
Ba7 Ge11 3.579100 1_546
Ba7 Ge6 3.627055 1_455
Ba7 Ge7 3.627055 1_545
Ba8 Ge9 3.436262 1_455
Ba8 Ge11 3.436271 1_545
Ba8 Ge7 3.614517 1_554
Ba8 Ge4 3.614517 1_555
Ba8 Ge6 3.614526 1_554
Ba8 Ge5 3.614526 1_555
Ba8 Ge8 3.676002 1_555
Ba8 Ge10 3.676014 1_555
Ba9 Ge10 3.436263 1_565
Ba9 Ge8 3.436263 1_655
Ba9 Ge5 3.614524 1_555
Ba9 Ge4 3.614524 1_555
Ba9 Ge6 3.614525 1_554
Ba9 Ge7 3.614525 1_554
Ba9 Ge9 3.676008 1_555
Ba9 Ge11 3.676008 1_555
Ba10 Ge2 3.560312 1_545
Ba10 Ge1 3.560313 1_655
Ba10 Ge0 3.560313 1_545
Ba10 Ge3 3.560313 1_655
Ba10 Ge12 3.681626 1_545
Ba10 Ge15 3.681626 1_655
Ba10 Ge14 3.739417 1_555
Ba10 Ge13 3.739417 1_555
Ba11 Ge1 3.560312 1_565
Ba11 Ge2 3.560313 1_455
Ba11 Ge3 3.560313 1_565
Ba11 Ge0 3.560313 1_455
Ba11 Ge13 3.681626 1_565
Ba11 Ge14 3.681626 1_455
Ba11 Ge15 3.739417 1_555
Ba11 Ge12 3.739417 1_555
Ge0 Ge14 2.571013 1_555
Ge0 Ge12 2.571013 1_555
Ge1 Ge15 2.571014 1_555
Ge1 Ge13 2.571014 1_555
Ge4 Ge8 2.601736 1_555
Ge5 Ge9 2.601736 1_555
Ge6 Ge9 2.601736 1_556
Ge7 Ge8 2.601736 1_556
Ge8 Ge9 2.892539 1_455
Ge10 Ge6 2.601736 1_554
Ge10 Ge5 2.601736 1_555
Ge10 Ge11 2.892539 1_545
Ge11 Ge4 2.601736 1_555
Ge11 Ge7 2.601736 1_554
Ge12 Ge14 2.545123 1_555
Ge12 Ge2 2.571014 1_555
Ge13 Ge15 2.545123 1_555
Ge13 Ge3 2.571013 1_555
Ge14 Ge2 2.571014 1_555
Ge15 Ge3 2.571013 1_555
