# generated using pymatgen
data_Na3Nd
_symmetry_space_group_name_H-M   'P 1'
_cell_length_a   7.38393003
_cell_length_b   7.38393003
_cell_length_c   5.87530800
_cell_angle_alpha   90.00000000
_cell_angle_beta   90.00000000
_cell_angle_gamma   120.00000031
_symmetry_Int_Tables_number   1
_chemical_formula_structural   Na3Nd
_chemical_formula_sum   'Na6 Nd2'
_cell_volume   277.41913593
_cell_formula_units_Z   2
loop_
 _symmetry_equiv_pos_site_id
 _symmetry_equiv_pos_as_xyz
  1  'x, y, z'
loop_
 _atom_site_type_symbol
 _atom_site_label
 _atom_site_symmetry_multiplicity
 _atom_site_fract_x
 _atom_site_fract_y
 _atom_site_fract_z
 _atom_site_occupancy
  Na  Na0  1  0.83862600  0.16137400  0.75000000  1
  Na  Na1  1  0.32274800  0.16137400  0.75000000  1
  Na  Na2  1  0.16137400  0.32274800  0.25000000  1
  Na  Na3  1  0.83862600  0.67725200  0.75000000  1
  Na  Na4  1  0.16137400  0.83862600  0.25000000  1
  Na  Na5  1  0.67725200  0.83862600  0.25000000  1
  Nd  Nd0  1  0.33333300  0.66666700  0.75000000  1
  Nd  Nd1  1  0.66666700  0.33333300  0.25000000  1
loop_
_geom_bond_atom_site_label_1
_geom_bond_atom_site_label_2
_geom_bond_distance
_geom_bond_site_symmetry_2
Na0 Na3 3.574723 1_545
Na0 Na1 3.574723 1_655
Na0 Na2 3.590175 1_655
Na0 Na2 3.590175 1_656
Na0 Na5 3.590175 1_545
Na0 Na5 3.590175 1_546
Na0 Nd1 3.669670 1_556
Na0 Nd1 3.669670 1_555
Na0 Nd0 3.692586 1_545
Na0 Nd0 3.692586 1_655
Na0 Na3 3.809207 1_555
Na0 Na1 3.809207 1_555
Na1 Na3 3.574723 1_445
Na1 Na4 3.590175 1_546
Na1 Na4 3.590175 1_545
Na1 Na2 3.590175 1_556
Na1 Na2 3.590175 1_555
Na1 Nd1 3.669674 1_556
Na1 Nd1 3.669674 1_555
Na1 Nd0 3.692582 1_545
Na1 Nd0 3.692589 1_555
Na1 Na3 3.809207 1_555
Na2 Na5 3.574723 1_445
Na2 Na4 3.574723 1_545
Na2 Nd0 3.669674 1_555
Na2 Nd0 3.669674 1_554
Na2 Nd1 3.692582 1_455
Na2 Nd1 3.692589 1_555
Na2 Na5 3.809207 1_555
Na2 Na4 3.809207 1_555
Na3 Na4 3.590175 1_655
Na3 Na4 3.590175 1_656
Na3 Na5 3.590175 1_556
Na3 Na5 3.590175 1_555
Na3 Nd1 3.669674 1_556
Na3 Nd1 3.669674 1_555
Na3 Nd0 3.692582 1_655
Na3 Nd0 3.692589 1_555
Na4 Na5 3.574723 1_455
Na4 Nd0 3.669670 1_555
Na4 Nd0 3.669670 1_554
Na4 Nd1 3.692586 1_455
Na4 Nd1 3.692586 1_565
Na4 Na5 3.809207 1_555
Na5 Nd0 3.669674 1_554
Na5 Nd0 3.669674 1_555
Na5 Nd1 3.692582 1_565
Na5 Nd1 3.692589 1_555
