# generated using pymatgen
data_Rb2SBrCl6
_symmetry_space_group_name_H-M   'P 1'
_cell_length_a   7.54836065
_cell_length_b   7.54836065
_cell_length_c   7.54836065
_cell_angle_alpha   60.00000000
_cell_angle_beta   60.00000000
_cell_angle_gamma   60.00000000
_symmetry_Int_Tables_number   1
_chemical_formula_structural   Rb2SBrCl6
_chemical_formula_sum   'Rb2 S1 Br1 Cl6'
_cell_volume   304.11856142
_cell_formula_units_Z   1
loop_
 _symmetry_equiv_pos_site_id
 _symmetry_equiv_pos_as_xyz
  1  'x, y, z'
loop_
 _atom_site_type_symbol
 _atom_site_label
 _atom_site_symmetry_multiplicity
 _atom_site_fract_x
 _atom_site_fract_y
 _atom_site_fract_z
 _atom_site_occupancy
  Rb  Rb0  1  0.25000000  0.25000000  0.25000000  1
  Rb  Rb1  1  0.75000000  0.75000000  0.75000000  1
  S  S0  1  0.00000000  0.00000000  0.00000000  1
  Br  Br0  1  0.50000000  0.50000000  0.50000000  1
  Cl  Cl0  1  0.21893600  0.78106400  0.78106400  1
  Cl  Cl1  1  0.21893600  0.78106400  0.21893600  1
  Cl  Cl2  1  0.78106400  0.21893600  0.78106400  1
  Cl  Cl3  1  0.78106400  0.78106400  0.21893600  1
  Cl  Cl4  1  0.21893600  0.21893600  0.78106400  1
  Cl  Cl5  1  0.78106400  0.21893600  0.21893600  1
loop_
_geom_bond_atom_site_label_1
_geom_bond_atom_site_label_2
_geom_bond_distance
_geom_bond_site_symmetry_2
Br0 Cl4 3.000357 1_555
Br0 Cl5 3.000357 1_555
Br0 Cl2 3.000357 1_555
Br0 Cl0 3.000357 1_555
Br0 Cl3 3.000357 1_555
Br0 Cl1 3.000357 1_555
Cl0 S0 2.337140 1_566
Cl0 Rb1 3.788720 1_455
Cl0 Rb0 3.788720 1_556
Cl0 Rb1 3.788720 1_555
Cl0 Rb0 3.788720 1_565
Cl1 S0 2.337140 1_565
Cl1 Rb0 3.788720 1_555
Cl1 Rb1 3.788720 1_455
Cl1 Rb1 3.788720 1_554
Cl1 Rb0 3.788720 1_565
Cl2 S0 2.337140 1_656
Cl2 Rb0 3.788720 1_655
Cl2 Rb1 3.788720 1_545
Cl2 Rb0 3.788720 1_556
Cl2 Rb1 3.788720 1_555
Cl3 S0 2.337140 1_665
Cl3 Rb0 3.788720 1_655
Cl3 Rb1 3.788720 1_555
Cl3 Rb1 3.788720 1_554
Cl3 Rb0 3.788720 1_565
Cl4 S0 2.337140 1_556
Cl4 Rb1 3.788720 1_545
Cl4 Rb0 3.788720 1_555
Cl4 Rb1 3.788720 1_455
Cl4 Rb0 3.788720 1_556
Cl5 S0 2.337140 1_655
Cl5 Rb0 3.788720 1_655
Cl5 Rb1 3.788720 1_545
Cl5 Rb0 3.788720 1_555
Cl5 Rb1 3.788720 1_554
