# generated using pymatgen
data_Na2P3HO9
_symmetry_space_group_name_H-M   'P 1'
_cell_length_a   6.78857900
_cell_length_b   7.26910401
_cell_length_c   7.85666083
_cell_angle_alpha   92.31762359
_cell_angle_beta   102.52578194
_cell_angle_gamma   90.00331048
_symmetry_Int_Tables_number   1
_chemical_formula_structural   Na2P3HO9
_chemical_formula_sum   'Na4 P6 H2 O18'
_cell_volume   378.14879559
_cell_formula_units_Z   2
loop_
 _symmetry_equiv_pos_site_id
 _symmetry_equiv_pos_as_xyz
  1  'x, y, z'
loop_
 _atom_site_type_symbol
 _atom_site_label
 _atom_site_symmetry_multiplicity
 _atom_site_fract_x
 _atom_site_fract_y
 _atom_site_fract_z
 _atom_site_occupancy
  Na  Na0  1  0.58493100  0.64294100  0.84539300  1
  Na  Na1  1  0.41506900  0.35705900  0.15460700  1
  Na  Na2  1  0.08791000  0.65350100  0.85323400  1
  Na  Na3  1  0.91209000  0.34649900  0.14676600  1
  P  P0  1  0.09543600  0.16152700  0.77763100  1
  P  P1  1  0.90456400  0.83847300  0.22236900  1
  P  P2  1  0.53665700  0.16976900  0.77601400  1
  P  P3  1  0.46334300  0.83023100  0.22398600  1
  P  P4  1  0.76687300  0.36223000  0.55220900  1
  P  P5  1  0.23312700  0.63777000  0.44779100  1
  H  H0  1  0.79638600  0.97966700  0.82161600  1
  H  H1  1  0.20361400  0.02033300  0.17838400  1
  O  O0  1  0.12483600  0.31072300  0.91887200  1
  O  O1  1  0.87516400  0.68927700  0.08112800  1
  O  O2  1  0.58515800  0.31521400  0.91896800  1
  O  O3  1  0.41484200  0.68478600  0.08103200  1
  O  O4  1  0.63975800  0.98034900  0.82084800  1
  O  O5  1  0.36024200  0.01965100  0.17915200  1
  O  O6  1  0.00905200  0.97840300  0.81137900  1
  O  O7  1  0.99094800  0.02159700  0.18862100  1
  O  O8  1  0.30525900  0.11565800  0.71584900  1
  O  O9  1  0.69474100  0.88434200  0.28415100  1
  O  O10  1  0.96521700  0.23141900  0.59551700  1
  O  O11  1  0.03478300  0.76858100  0.40448300  1
  O  O12  1  0.58976500  0.22734300  0.59797800  1
  O  O13  1  0.41023500  0.77265700  0.40202200  1
  O  O14  1  0.79393100  0.52799400  0.67388600  1
  O  O15  1  0.20606900  0.47200600  0.32611400  1
  O  O16  1  0.28427900  0.62260800  0.64062700  1
  O  O17  1  0.71572100  0.37739200  0.35937300  1
loop_
_geom_bond_atom_site_label_1
_geom_bond_atom_site_label_2
_geom_bond_distance
_geom_bond_site_symmetry_2
Na0 O14 2.294606 1_555
Na0 O16 2.309150 1_555
Na0 O3 2.394773 1_556
Na0 O1 2.406717 1_556
Na0 O2 2.473945 1_555
Na0 O4 2.502101 1_555
Na1 O15 2.294606 1_555
Na1 O17 2.309150 1_555
Na1 O2 2.394773 1_554
Na1 O0 2.406717 1_554
Na1 O3 2.473945 1_555
Na1 O5 2.502101 1_555
Na2 O14 2.340235 1_455
Na2 O16 2.356528 1_555
Na2 O6 2.441140 1_555
Na2 O3 2.534697 1_556
Na2 O1 2.538375 1_456
Na2 O0 2.566168 1_555
Na3 O15 2.340235 1_655
Na3 O17 2.356528 1_555
Na3 O7 2.441140 1_555
Na3 O2 2.534697 1_554
Na3 O0 2.538375 1_654
Na3 O1 2.566168 1_555
H0 O4 1.062002 1_555
H0 O6 1.463260 1_655
H1 O5 1.062002 1_555
H1 O7 1.463260 1_455
O0 P0 1.501329 1_555
O1 P1 1.501329 1_555
O2 P2 1.493707 1_555
O3 P3 1.493707 1_555
O4 P2 1.562767 1_565
O5 P3 1.562767 1_545
O6 P0 1.510646 1_565
O7 P1 1.510646 1_545
O8 P2 1.583849 1_555
O8 P0 1.631738 1_555
O9 P3 1.583849 1_555
O9 P1 1.631738 1_555
O10 P0 1.611521 1_655
O10 P4 1.631112 1_555
O11 P1 1.611521 1_455
O11 P5 1.631112 1_555
O12 P2 1.589892 1_555
O12 P4 1.658965 1_555
O13 P3 1.589892 1_555
O13 P5 1.658965 1_555
O14 P4 1.493382 1_555
O15 P5 1.493382 1_555
O16 P5 1.487752 1_555
O17 P4 1.487752 1_555
