# generated using pymatgen
data_LiYb2InGe2
_symmetry_space_group_name_H-M   'P 1'
_cell_length_a   4.40166800
_cell_length_b   7.18733400
_cell_length_c   16.73207600
_cell_angle_alpha   90.00000000
_cell_angle_beta   90.00000000
_cell_angle_gamma   90.00000000
_symmetry_Int_Tables_number   1
_chemical_formula_structural   LiYb2InGe2
_chemical_formula_sum   'Li4 Yb8 In4 Ge8'
_cell_volume   529.34027443
_cell_formula_units_Z   4
loop_
 _symmetry_equiv_pos_site_id
 _symmetry_equiv_pos_as_xyz
  1  'x, y, z'
loop_
 _atom_site_type_symbol
 _atom_site_label
 _atom_site_symmetry_multiplicity
 _atom_site_fract_x
 _atom_site_fract_y
 _atom_site_fract_z
 _atom_site_occupancy
  Li  Li0  1  0.75000000  0.01095100  0.56758600  1
  Li  Li1  1  0.25000000  0.48904900  0.06758600  1
  Li  Li2  1  0.75000000  0.51095100  0.93241400  1
  Li  Li3  1  0.25000000  0.98904900  0.43241400  1
  Yb  Yb0  1  0.75000000  0.01282400  0.27865800  1
  Yb  Yb1  1  0.25000000  0.48717600  0.77865800  1
  Yb  Yb2  1  0.75000000  0.51282400  0.22134200  1
  Yb  Yb3  1  0.25000000  0.98717600  0.72134200  1
  Yb  Yb4  1  0.75000000  0.15905200  0.06207800  1
  Yb  Yb5  1  0.25000000  0.34094800  0.56207800  1
  Yb  Yb6  1  0.75000000  0.65905200  0.43792200  1
  Yb  Yb7  1  0.25000000  0.84094800  0.93792200  1
  In  In0  1  0.75000000  0.15652400  0.84761200  1
  In  In1  1  0.25000000  0.34347600  0.34761200  1
  In  In2  1  0.75000000  0.65652400  0.65238800  1
  In  In3  1  0.25000000  0.84347600  0.15238800  1
  Ge  Ge0  1  0.75000000  0.27089600  0.68509100  1
  Ge  Ge1  1  0.25000000  0.22910400  0.18509100  1
  Ge  Ge2  1  0.75000000  0.77089600  0.81490900  1
  Ge  Ge3  1  0.25000000  0.72910400  0.31490900  1
  Ge  Ge4  1  0.75000000  0.22870400  0.43853900  1
  Ge  Ge5  1  0.25000000  0.27129600  0.93853900  1
  Ge  Ge6  1  0.75000000  0.72870400  0.06146100  1
  Ge  Ge7  1  0.25000000  0.77129600  0.56146100  1
loop_
_geom_bond_atom_site_label_1
_geom_bond_atom_site_label_2
_geom_bond_distance
_geom_bond_site_symmetry_2
Li0 Yb3 3.389902 1_545
Li0 Yb3 3.389902 1_645
Li1 Yb2 3.389902 1_555
Li1 Yb2 3.389902 1_455
Li2 Yb1 3.389902 1_655
Li2 Yb1 3.389902 1_555
Li3 Yb0 3.389902 1_465
Li3 Yb0 3.389902 1_565
In0 Li2 2.915902 1_555
In0 Yb3 3.284646 1_545
In0 Yb3 3.284646 1_645
In0 Yb1 3.438397 1_555
In0 Yb1 3.438397 1_655
In0 Yb7 3.503073 1_645
In0 Yb7 3.503073 1_545
In0 Yb4 3.588507 1_556
In1 Li3 2.915902 1_545
In1 Yb2 3.284646 1_455
In1 Yb2 3.284646 1_555
In1 Yb0 3.438397 1_455
In1 Yb0 3.438397 1_555
In1 Yb6 3.503073 1_455
In1 Yb6 3.503073 1_555
In1 Yb5 3.588507 1_555
In2 Li0 2.915902 1_565
In2 Yb1 3.284646 1_555
In2 Yb1 3.284646 1_655
In2 Yb3 3.438397 1_555
In2 Yb3 3.438397 1_655
In2 Yb5 3.503073 1_555
In2 Yb5 3.503073 1_655
In2 Yb6 3.588507 1_555
In3 Li1 2.915902 1_555
In3 Yb0 3.284646 1_465
In3 Yb0 3.284646 1_565
In3 Yb2 3.438397 1_455
In3 Yb2 3.438397 1_555
In3 Yb4 3.503073 1_465
In3 Yb4 3.503073 1_565
In3 Yb7 3.588507 1_554
Ge0 Li0 2.712222 1_555
Ge0 In2 2.825135 1_555
Ge0 In0 2.840845 1_555
Ge0 Yb5 3.055097 1_555
Ge0 Yb5 3.055097 1_655
Ge0 Yb3 3.061025 1_645
Ge0 Yb3 3.061025 1_545
Ge0 Yb1 3.116260 1_555
Ge0 Yb1 3.116260 1_655
Ge1 Li1 2.712222 1_555
Ge1 In3 2.825135 1_545
Ge1 In1 2.840845 1_555
Ge1 Yb4 3.055097 1_455
Ge1 Yb4 3.055097 1_555
Ge1 Yb2 3.061025 1_455
Ge1 Yb2 3.061025 1_555
Ge1 Yb0 3.116260 1_455
Ge1 Yb0 3.116260 1_555
Ge2 Li2 2.712222 1_555
Ge2 In0 2.825135 1_565
Ge2 In2 2.840845 1_555
Ge2 Yb7 3.055097 1_555
Ge2 Yb7 3.055097 1_655
Ge2 Yb1 3.061025 1_555
Ge2 Yb1 3.061025 1_655
Ge2 Yb3 3.116260 1_655
Ge2 Yb3 3.116260 1_555
Ge3 Li3 2.712222 1_555
Ge3 In1 2.825135 1_555
Ge3 In3 2.840845 1_555
Ge3 Yb6 3.055097 1_555
Ge3 Yb6 3.055097 1_455
Ge3 Yb0 3.061025 1_465
Ge3 Yb0 3.061025 1_565
Ge3 Yb2 3.116260 1_455
Ge3 Yb2 3.116260 1_555
Ge4 Li0 2.666772 1_555
Ge4 Li3 2.796625 1_645
Ge4 Li3 2.796625 1_545
Ge4 In1 2.799784 1_555
Ge4 In1 2.799784 1_655
Ge4 Yb0 3.092547 1_555
Ge4 Yb6 3.093072 1_555
Ge4 Yb5 3.125259 1_555
Ge4 Yb5 3.125259 1_655
Ge5 Li1 2.666772 1_556
Ge5 Li2 2.796625 1_455
Ge5 Li2 2.796625 1_555
Ge5 In0 2.799784 1_455
Ge5 In0 2.799784 1_555
Ge5 Yb1 3.092547 1_555
Ge5 Yb7 3.093072 1_545
Ge5 Yb4 3.125259 1_556
Ge5 Yb4 3.125259 1_456
Ge6 Li2 2.666772 1_554
Ge6 Li1 2.796625 1_655
Ge6 Li1 2.796625 1_555
Ge6 In3 2.799784 1_555
Ge6 In3 2.799784 1_655
Ge6 Yb2 3.092547 1_555
Ge6 Yb4 3.093072 1_565
Ge6 Yb7 3.125259 1_554
Ge6 Yb7 3.125259 1_654
Ge7 Li3 2.666772 1_555
Ge7 Li0 2.796625 1_565
Ge7 Li0 2.796625 1_465
Ge7 In2 2.799784 1_455
Ge7 In2 2.799784 1_555
Ge7 Yb3 3.092547 1_555
Ge7 Yb5 3.093072 1_555
Ge7 Yb6 3.125259 1_555
Ge7 Yb6 3.125259 1_455
