# generated using pymatgen
data_TmB4Os
_symmetry_space_group_name_H-M   'P 1'
_cell_length_a   3.54018551
_cell_length_b   5.91874302
_cell_length_c   11.44697906
_cell_angle_alpha   90.00000000
_cell_angle_beta   90.00000000
_cell_angle_gamma   90.00000000
_symmetry_Int_Tables_number   1
_chemical_formula_structural   TmB4Os
_chemical_formula_sum   'Tm4 B16 Os4'
_cell_volume   239.85368366
_cell_formula_units_Z   4
loop_
 _symmetry_equiv_pos_site_id
 _symmetry_equiv_pos_as_xyz
  1  'x, y, z'
loop_
 _atom_site_type_symbol
 _atom_site_label
 _atom_site_symmetry_multiplicity
 _atom_site_fract_x
 _atom_site_fract_y
 _atom_site_fract_z
 _atom_site_occupancy
  Tm  Tm0  1  0.50000000  0.12876939  0.65004327  1
  Tm  Tm1  1  0.50000000  0.87123061  0.34995673  1
  Tm  Tm2  1  0.50000000  0.62876939  0.84995673  1
  Tm  Tm3  1  0.50000000  0.37123061  0.15004327  1
  B  B0  1  -0.00000000  0.47567871  0.69203125  1
  B  B1  1  0.00000000  0.52432129  0.30796875  1
  B  B2  1  0.00000000  0.97567871  0.80796875  1
  B  B3  1  0.00000000  0.02432129  0.19203125  1
  B  B4  1  0.00000000  0.29094983  0.81396520  1
  B  B5  1  0.00000000  0.70905017  0.18603480  1
  B  B6  1  -0.00000000  0.79094983  0.68603480  1
  B  B7  1  -0.00000000  0.20905017  0.31396520  1
  B  B8  1  0.00000000  0.36440751  0.97025303  1
  B  B9  1  -0.00000000  0.63559249  0.02974697  1
  B  B10  1  -0.00000000  0.86440751  0.52974697  1
  B  B11  1  -0.00000000  0.13559249  0.47025303  1
  B  B12  1  0.00000000  0.38692294  0.54727420  1
  B  B13  1  0.00000000  0.61307706  0.45272580  1
  B  B14  1  0.00000000  0.88692294  0.95272580  1
  B  B15  1  -0.00000000  0.11307706  0.04727420  1
  Os  Os0  1  0.50000000  0.14215575  0.90590656  1
  Os  Os1  1  0.50000000  0.85784425  0.09409344  1
  Os  Os2  1  0.50000000  0.64215575  0.59409344  1
  Os  Os3  1  0.50000000  0.35784425  0.40590656  1
loop_
_geom_bond_atom_site_label_1
_geom_bond_atom_site_label_2
_geom_bond_distance
_geom_bond_site_symmetry_2
B0 B12 1.738308 1_555
B0 B4 1.773029 1_555
B0 B6 1.867271 1_555
B0 Os2 2.315375 1_455
B0 Os2 2.315375 1_555
B0 Tm2 2.687431 1_555
B0 Tm2 2.687431 1_455
B0 Tm0 2.753206 1_455
B0 Tm0 2.753206 1_555
B1 B13 1.738308 1_555
B1 B5 1.773029 1_555
B1 B7 1.867271 1_555
B1 Os3 2.315375 1_455
B1 Os3 2.315375 1_555
B1 Tm3 2.687431 1_555
B1 Tm3 2.687431 1_455
B1 Tm1 2.753206 1_455
B1 Tm1 2.753206 1_555
B2 B6 1.773029 1_555
B2 B4 1.867271 1_565
B2 Os0 2.315375 1_565
B2 Os0 2.315375 1_465
B2 Tm0 2.687431 1_465
B2 Tm0 2.687431 1_565
B2 Tm2 2.753206 1_555
B2 Tm2 2.753206 1_455
B3 B7 1.773029 1_555
B3 B5 1.867271 1_545
B3 Os1 2.315375 1_445
B3 Os1 2.315375 1_545
B3 Tm1 2.687431 1_545
B3 Tm1 2.687431 1_445
B3 Tm3 2.753206 1_555
B3 Tm3 2.753206 1_455
B4 B8 1.841096 1_555
B4 Os0 2.239747 1_555
B4 Os0 2.239747 1_455
B4 Tm2 2.702006 1_455
B4 Tm2 2.702006 1_555
B4 Tm0 2.752374 1_455
B4 Tm0 2.752374 1_555
B5 B9 1.841096 1_555
B5 Os1 2.239747 1_555
B5 Os1 2.239747 1_455
B5 Tm3 2.702006 1_455
B5 Tm3 2.702006 1_555
B5 Tm1 2.752374 1_555
B5 Tm1 2.752374 1_455
B6 Os2 2.239747 1_555
B6 Os2 2.239747 1_455
B6 Tm0 2.702006 1_565
B6 Tm0 2.702006 1_465
B6 Tm2 2.752374 1_555
B6 Tm2 2.752374 1_455
B7 Os3 2.239747 1_455
B7 Os3 2.239747 1_555
B7 Tm1 2.702006 1_445
B7 Tm1 2.702006 1_545
B7 Tm3 2.752374 1_455
B7 Tm3 2.752374 1_555
B8 B9 1.743577 1_556
B8 Os0 2.325119 1_455
B8 Os0 2.325119 1_555
B8 Tm3 2.714857 1_556
B8 Tm3 2.714857 1_456
B8 Tm2 2.734537 1_555
B8 Tm2 2.734537 1_455
B9 Os1 2.325119 1_555
B9 Os1 2.325119 1_455
B9 Tm2 2.714857 1_554
B9 Tm2 2.714857 1_454
B9 Tm3 2.734537 1_455
B9 Tm3 2.734537 1_555
B10 B13 1.729208 1_555
B10 B11 1.743577 1_565
B10 B6 1.841096 1_555
B10 Os2 2.325119 1_555
B10 Os2 2.325119 1_455
B10 Tm1 2.714857 1_455
B10 Tm1 2.714857 1_555
B10 Tm0 2.734537 1_565
B10 Tm0 2.734537 1_465
B11 B12 1.729208 1_555
B11 B7 1.841096 1_555
B11 Os3 2.325119 1_455
B11 Os3 2.325119 1_555
B11 Tm0 2.714857 1_455
B11 Tm0 2.714857 1_555
B11 Tm1 2.734537 1_545
B11 Tm1 2.734537 1_445
B12 B13 1.721357 1_555
B12 Os2 2.388000 1_555
B12 Os2 2.388000 1_455
B12 Os3 2.404480 1_455
B12 Os3 2.404480 1_555
B12 Tm0 2.617585 1_555
B12 Tm0 2.617585 1_455
B13 Os3 2.388000 1_455
B13 Os3 2.388000 1_555
B13 Os2 2.404480 1_555
B13 Os2 2.404480 1_455
B13 Tm1 2.617585 1_555
B13 Tm1 2.617585 1_455
B14 B15 1.721357 1_566
B14 B9 1.729208 1_556
B14 B2 1.738308 1_555
B14 Os0 2.388000 1_565
B14 Os0 2.388000 1_465
B14 Os1 2.404480 1_456
B14 Os1 2.404480 1_556
B14 Tm2 2.617585 1_555
B14 Tm2 2.617585 1_455
B15 B8 1.729208 1_554
B15 B3 1.738308 1_555
B15 Os1 2.388000 1_445
B15 Os1 2.388000 1_545
B15 Os0 2.404480 1_554
B15 Os0 2.404480 1_454
B15 Tm3 2.617585 1_555
B15 Tm3 2.617585 1_455
Os0 Os1 2.733525 1_546
Os0 Tm0 2.929933 1_555
Os0 Tm2 2.950491 1_555
Os0 Tm2 3.105364 1_545
Os0 Tm3 3.106161 1_556
Os1 Tm1 2.929933 1_555
Os1 Tm3 2.950491 1_555
Os1 Tm3 3.105364 1_565
Os1 Tm2 3.106161 1_554
Os2 Os3 2.733525 1_555
Os2 Tm2 2.929933 1_555
Os2 Tm0 2.950491 1_565
Os2 Tm0 3.105364 1_555
Os2 Tm1 3.106161 1_555
Os3 Tm3 2.929933 1_555
Os3 Tm1 2.950491 1_545
Os3 Tm1 3.105364 1_555
Os3 Tm0 3.106161 1_555
