# generated using pymatgen
data_ZrSnPd
_symmetry_space_group_name_H-M   'P 1'
_cell_length_a   4.49914048
_cell_length_b   4.49914057
_cell_length_c   4.49914090
_cell_angle_alpha   59.99996274
_cell_angle_beta   59.99998938
_cell_angle_gamma   59.99999052
_symmetry_Int_Tables_number   1
_chemical_formula_structural   ZrSnPd
_chemical_formula_sum   'Zr1 Sn1 Pd1'
_cell_volume   64.39816969
_cell_formula_units_Z   1
loop_
 _symmetry_equiv_pos_site_id
 _symmetry_equiv_pos_as_xyz
  1  'x, y, z'
loop_
 _atom_site_type_symbol
 _atom_site_label
 _atom_site_symmetry_multiplicity
 _atom_site_fract_x
 _atom_site_fract_y
 _atom_site_fract_z
 _atom_site_occupancy
  Zr  Zr0  1  0.50000000  0.50000000  0.50000000  1
  Sn  Sn0  1  0.00000000  -0.00000000  0.00000000  1
  Pd  Pd0  1  0.25000000  0.25000000  0.25000000  1
loop_
_geom_bond_atom_site_label_1
_geom_bond_atom_site_label_2
_geom_bond_distance
_geom_bond_site_symmetry_2
Sn0 Zr0 3.181372 1_445
Sn0 Zr0 3.181372 1_554
Sn0 Zr0 3.181372 1_454
Sn0 Zr0 3.181372 1_545
Sn0 Zr0 3.181373 1_455
Sn0 Zr0 3.181373 1_544
Pd0 Zr0 2.755149 1_545
Pd0 Sn0 2.755149 1_565
Pd0 Zr0 2.755149 1_554
Pd0 Sn0 2.755149 1_556
Pd0 Zr0 2.755149 1_455
Pd0 Sn0 2.755149 1_655
Pd0 Zr0 2.755150 1_555
Pd0 Sn0 2.755150 1_555
