# generated using pymatgen
data_Nd(BIr)4
_symmetry_space_group_name_H-M   'P 1'
_cell_length_a   3.97359550
_cell_length_b   7.67781586
_cell_length_c   7.67781586
_cell_angle_alpha   90.00000000
_cell_angle_beta   90.00000000
_cell_angle_gamma   90.00000000
_symmetry_Int_Tables_number   1
_chemical_formula_structural   Nd(BIr)4
_chemical_formula_sum   'Nd2 B8 Ir8'
_cell_volume   234.23891071
_cell_formula_units_Z   2
loop_
 _symmetry_equiv_pos_site_id
 _symmetry_equiv_pos_as_xyz
  1  'x, y, z'
loop_
 _atom_site_type_symbol
 _atom_site_label
 _atom_site_symmetry_multiplicity
 _atom_site_fract_x
 _atom_site_fract_y
 _atom_site_fract_z
 _atom_site_occupancy
  Nd  Nd0  1  0.25000000  0.75000000  0.75000000  1
  Nd  Nd1  1  0.75000000  0.25000000  0.25000000  1
  B  B0  1  0.85750651  0.02904488  0.90801301  1
  B  B1  1  0.14249349  0.52904488  0.40801301  1
  B  B2  1  0.35750651  0.09198699  0.52904488  1
  B  B3  1  0.35750651  0.40801301  0.97095512  1
  B  B4  1  0.85750651  0.47095512  0.59198699  1
  B  B5  1  0.14249349  0.97095512  0.09198699  1
  B  B6  1  0.64249349  0.90801301  0.47095512  1
  B  B7  1  0.64249349  0.59198699  0.02904488  1
  Ir  Ir0  1  0.35827685  0.35924810  0.59053568  1
  Ir  Ir1  1  0.35827685  0.14075190  0.90946432  1
  Ir  Ir2  1  0.85827685  0.40946432  0.85924810  1
  Ir  Ir3  1  0.14172315  0.90946432  0.35924810  1
  Ir  Ir4  1  0.64172315  0.64075190  0.40946432  1
  Ir  Ir5  1  0.64172315  0.85924810  0.09053568  1
  Ir  Ir6  1  0.14172315  0.59053568  0.14075190  1
  Ir  Ir7  1  0.85827685  0.09053568  0.64075190  1
loop_
_geom_bond_atom_site_label_1
_geom_bond_atom_site_label_2
_geom_bond_distance
_geom_bond_site_symmetry_2
B0 B5 1.864540 1_646
B0 Ir5 2.097284 1_546
B0 Ir7 2.105595 1_555
B0 Ir1 2.161233 1_555
B0 Ir1 2.166853 1_655
B0 Nd0 2.914505 1_645
B1 B4 1.864540 1_455
B1 Ir0 2.097284 1_555
B1 Ir6 2.105595 1_555
B1 Ir4 2.161233 1_555
B1 Ir4 2.166853 1_455
B1 Nd1 2.914505 1_455
B2 B6 1.864540 1_545
B2 Ir3 2.097284 1_545
B2 Ir0 2.105595 1_555
B2 Ir7 2.161233 1_455
B2 Ir7 2.166853 1_555
B2 Nd1 2.914505 1_555
B3 B7 1.864540 1_556
B3 Ir6 2.097284 1_556
B3 Ir1 2.105595 1_555
B3 Ir2 2.161233 1_455
B3 Ir2 2.166853 1_555
B3 Nd1 2.914505 1_556
B4 Ir4 2.097284 1_555
B4 Ir2 2.105595 1_555
B4 Ir0 2.161233 1_555
B4 Ir0 2.166853 1_655
B4 Nd0 2.914505 1_655
B5 Ir1 2.097284 1_564
B5 Ir3 2.105595 1_555
B5 Ir5 2.161233 1_555
B5 Ir5 2.166853 1_455
B5 Nd1 2.914505 1_465
B6 Ir7 2.097284 1_565
B6 Ir4 2.105595 1_555
B6 Ir3 2.161233 1_655
B6 Ir3 2.166853 1_555
B6 Nd0 2.914505 1_555
B7 Ir2 2.097284 1_554
B7 Ir5 2.105595 1_555
B7 Ir6 2.161233 1_655
B7 Ir6 2.166853 1_555
B7 Nd0 2.914505 1_554
