# generated using pymatgen
data_CeGe5
_symmetry_space_group_name_H-M   'P 1'
_cell_length_a   6.15897993
_cell_length_b   6.15610610
_cell_length_c   6.15608984
_cell_angle_alpha   142.54043312
_cell_angle_beta   120.13007390
_cell_angle_gamma   72.72237464
_symmetry_Int_Tables_number   1
_chemical_formula_structural   CeGe5
_chemical_formula_sum   'Ce1 Ge5'
_cell_volume   120.47485402
_cell_formula_units_Z   1
loop_
 _symmetry_equiv_pos_site_id
 _symmetry_equiv_pos_as_xyz
  1  'x, y, z'
loop_
 _atom_site_type_symbol
 _atom_site_label
 _atom_site_symmetry_multiplicity
 _atom_site_fract_x
 _atom_site_fract_y
 _atom_site_fract_z
 _atom_site_occupancy
  Ce  Ce0  1  0.00000000  0.00000000  -0.00000000  1
  Ge  Ge0  1  0.12451738  0.32889291  0.79510950  1
  Ge  Ge1  1  0.53378183  0.32902181  0.20430967  1
  Ge  Ge2  1  0.46621717  0.67097819  0.79569133  1
  Ge  Ge3  1  0.87548262  0.67110809  0.20489050  1
  Ge  Ge4  1  0.50000000  0.99999900  0.49999900  1
loop_
_geom_bond_atom_site_label_1
_geom_bond_atom_site_label_2
_geom_bond_distance
_geom_bond_site_symmetry_2
Ce0 Ge4 3.072713 1_545
Ce0 Ge4 3.072713 1_444
Ce0 Ge2 3.171143 1_544
Ce0 Ge1 3.171151 1_455
Ce0 Ge0 3.172350 1_544
Ce0 Ge3 3.172356 1_455
Ce0 Ge0 3.172791 1_555
Ce0 Ge3 3.172795 1_444
Ce0 Ge2 3.178706 1_555
Ce0 Ge1 3.178709 1_444
Ce0 Ge3 3.496601 1_445
Ce0 Ge0 3.496607 1_554
Ce0 Ge1 3.500341 1_555
Ce0 Ge2 3.500350 1_444
Ge0 Ge1 2.514512 1_556
Ge0 Ge3 2.585049 1_456
Ge0 Ge3 2.586168 1_445
Ge0 Ge4 2.888761 1_545
Ge0 Ge4 2.895851 1_556
Ge1 Ge2 2.585374 1_544
Ge1 Ge2 2.586944 1_555
Ge1 Ge4 2.889207 1_544
Ge1 Ge4 2.889919 1_555
Ge2 Ge3 2.514509 1_556
Ge2 Ge4 2.889193 1_556
Ge2 Ge4 2.889921 1_545
Ge3 Ge4 2.888756 1_555
Ge3 Ge4 2.895859 1_544
