# generated using pymatgen
data_TlCdF3
_symmetry_space_group_name_H-M   'P 1'
_cell_length_a   6.16844095
_cell_length_b   8.73154020
_cell_length_c   12.59989595
_cell_angle_alpha   90.00000000
_cell_angle_beta   90.00000000
_cell_angle_gamma   90.00000000
_symmetry_Int_Tables_number   1
_chemical_formula_structural   TlCdF3
_chemical_formula_sum   'Tl8 Cd8 F24'
_cell_volume   678.63027146
_cell_formula_units_Z   8
loop_
 _symmetry_equiv_pos_site_id
 _symmetry_equiv_pos_as_xyz
  1  'x, y, z'
loop_
 _atom_site_type_symbol
 _atom_site_label
 _atom_site_symmetry_multiplicity
 _atom_site_fract_x
 _atom_site_fract_y
 _atom_site_fract_z
 _atom_site_occupancy
  Tl  Tl0  1  0.25385464  -0.00000000  0.87877079  1
  Tl  Tl1  1  0.75385464  -0.00000000  0.62122921  1
  Tl  Tl2  1  0.74614536  -0.00000000  0.12122921  1
  Tl  Tl3  1  0.24614536  -0.00000000  0.37877079  1
  Tl  Tl4  1  0.25255450  0.50000000  0.87187890  1
  Tl  Tl5  1  0.75255450  0.50000000  0.62812110  1
  Tl  Tl6  1  0.74744550  0.50000000  0.12812110  1
  Tl  Tl7  1  0.24744550  0.50000000  0.37187890  1
  Cd  Cd0  1  0.74755677  0.25026348  0.87502202  1
  Cd  Cd1  1  0.24755677  0.74973652  0.62497798  1
  Cd  Cd2  1  0.25244323  0.25026348  0.12497798  1
  Cd  Cd3  1  0.75244323  0.74973652  0.37502202  1
  Cd  Cd4  1  0.25244323  0.74973652  0.12497798  1
  Cd  Cd5  1  0.75244323  0.25026348  0.37502202  1
  Cd  Cd6  1  0.74755677  0.74973652  0.87502202  1
  Cd  Cd7  1  0.24755677  0.25026348  0.62497798  1
  F  F0  1  0.74267067  -0.00000000  0.84131938  1
  F  F1  1  0.24267067  -0.00000000  0.65868062  1
  F  F2  1  0.25732933  -0.00000000  0.15868062  1
  F  F3  1  0.75732933  -0.00000000  0.34131938  1
  F  F4  1  0.71804654  0.50000000  0.90839265  1
  F  F5  1  0.21804654  0.50000000  0.59160735  1
  F  F6  1  0.28195346  0.50000000  0.09160735  1
  F  F7  1  0.78195346  0.50000000  0.40839265  1
  F  F8  1  0.98307182  0.28894455  0.74453095  1
  F  F9  1  0.48307182  0.71105545  0.75546905  1
  F  F10  1  0.01692818  0.28894455  0.25546905  1
  F  F11  1  0.51692818  0.71105545  0.24453095  1
  F  F12  1  0.01692818  0.71105545  0.25546905  1
  F  F13  1  0.51692818  0.28894455  0.24453095  1
  F  F14  1  0.98307182  0.71105545  0.74453095  1
  F  F15  1  0.48307182  0.28894455  0.75546905  1
  F  F16  1  0.00000000  0.20301897  0.50000000  1
  F  F17  1  0.50000000  0.79698103  0.00000000  1
  F  F18  1  0.00000000  0.79698103  0.50000000  1
  F  F19  1  0.50000000  0.20301897  0.00000000  1
  F  F20  1  0.00000000  0.21809472  0.00000000  1
  F  F21  1  0.50000000  0.78190528  0.50000000  1
  F  F22  1  0.00000000  0.78190528  0.00000000  1
  F  F23  1  0.50000000  0.21809472  0.50000000  1
loop_
_geom_bond_atom_site_label_1
_geom_bond_atom_site_label_2
_geom_bond_distance
_geom_bond_site_symmetry_2
Cd0 F8 2.219886 1_555
Cd0 F0 2.226269 1_555
Cd0 F4 2.228200 1_555
Cd0 F19 2.231979 1_556
Cd0 F20 2.232357 1_656
Cd0 F15 2.246072 1_555
Cd1 F9 2.219886 1_555
Cd1 F1 2.226269 1_565
Cd1 F5 2.228200 1_555
Cd1 F18 2.231979 1_555
Cd1 F21 2.232357 1_555
Cd1 F14 2.246072 1_455
Cd2 F10 2.219886 1_555
Cd2 F2 2.226269 1_555
Cd2 F6 2.228200 1_555
Cd2 F19 2.231979 1_555
Cd2 F20 2.232357 1_555
Cd2 F13 2.246072 1_555
Cd3 F11 2.219886 1_555
Cd3 F3 2.226269 1_565
Cd3 F7 2.228200 1_555
Cd3 F18 2.231979 1_655
Cd3 F21 2.232357 1_555
Cd3 F12 2.246072 1_655
Cd4 F12 2.219886 1_555
Cd4 F2 2.226269 1_565
Cd4 F6 2.228200 1_555
Cd4 F17 2.231979 1_555
Cd4 F22 2.232357 1_555
Cd4 F11 2.246072 1_555
Cd5 F13 2.219886 1_555
Cd5 F3 2.226269 1_555
Cd5 F7 2.228200 1_555
Cd5 F16 2.231979 1_655
Cd5 F23 2.232357 1_555
Cd5 F10 2.246072 1_655
Cd6 F14 2.219886 1_555
Cd6 F0 2.226269 1_565
Cd6 F4 2.228200 1_555
Cd6 F17 2.231979 1_556
Cd6 F22 2.232357 1_656
Cd6 F9 2.246072 1_555
Cd7 F15 2.219886 1_555
Cd7 F1 2.226269 1_555
Cd7 F5 2.228200 1_555
Cd7 F16 2.231979 1_555
Cd7 F23 2.232357 1_555
Cd7 F8 2.246072 1_455
F4 Tl6 2.774488 1_556
F5 Tl7 2.774488 1_555
F6 Tl4 2.774488 1_554
F7 Tl5 2.774488 1_555
F8 Tl5 2.751238 1_555
F9 Tl4 2.751238 1_555
F10 Tl7 2.751238 1_555
F11 Tl6 2.751238 1_555
F12 Tl7 2.751238 1_555
F13 Tl6 2.751238 1_555
F14 Tl5 2.751238 1_555
F15 Tl4 2.751238 1_555
