# generated using pymatgen
data_Al6Cd4SO12
_symmetry_space_group_name_H-M   'P 1'
_cell_length_a   7.74743728
_cell_length_b   7.74743728
_cell_length_c   7.74743728
_cell_angle_alpha   109.47122063
_cell_angle_beta   109.47122063
_cell_angle_gamma   109.47122063
_symmetry_Int_Tables_number   1
_chemical_formula_structural   Al6Cd4SO12
_chemical_formula_sum   'Al6 Cd4 S1 O12'
_cell_volume   357.97468589
_cell_formula_units_Z   1
loop_
 _symmetry_equiv_pos_site_id
 _symmetry_equiv_pos_as_xyz
  1  'x, y, z'
loop_
 _atom_site_type_symbol
 _atom_site_label
 _atom_site_symmetry_multiplicity
 _atom_site_fract_x
 _atom_site_fract_y
 _atom_site_fract_z
 _atom_site_occupancy
  Al  Al0  1  0.25000000  0.50000000  0.75000000  1
  Al  Al1  1  0.75000000  0.50000000  0.25000000  1
  Al  Al2  1  0.25000000  0.75000000  0.50000000  1
  Al  Al3  1  0.75000000  0.25000000  0.50000000  1
  Al  Al4  1  0.50000000  0.25000000  0.75000000  1
  Al  Al5  1  0.50000000  0.75000000  0.25000000  1
  Cd  Cd0  1  0.00000000  0.33164700  0.00000000  1
  Cd  Cd1  1  0.33164700  0.00000000  0.00000000  1
  Cd  Cd2  1  0.66835300  0.66835300  0.66835300  1
  Cd  Cd3  1  0.00000000  0.00000000  0.33164700  1
  S  S0  1  0.00000000  0.00000000  0.00000000  1
  O  O0  1  0.00000000  0.55353500  0.27309700  1
  O  O1  1  0.44646500  0.44646500  0.71956200  1
  O  O2  1  0.00000000  0.27309700  0.55353500  1
  O  O3  1  0.27309700  0.00000000  0.55353500  1
  O  O4  1  0.72690300  0.28043800  0.72690300  1
  O  O5  1  0.28043800  0.72690300  0.72690300  1
  O  O6  1  0.72690300  0.72690300  0.28043800  1
  O  O7  1  0.55353500  0.27309700  0.00000000  1
  O  O8  1  0.27309700  0.55353500  0.00000000  1
  O  O9  1  0.44646500  0.71956200  0.44646500  1
  O  O10  1  0.55353500  0.00000000  0.27309700  1
  O  O11  1  0.71956200  0.44646500  0.44646500  1
loop_
_geom_bond_atom_site_label_1
_geom_bond_atom_site_label_2
_geom_bond_distance
_geom_bond_site_symmetry_2
Al0 O8 1.771830 1_556
Al0 O2 1.771830 1_555
Al0 O5 1.771830 1_555
Al0 O1 1.771830 1_555
Al1 O0 1.771830 1_655
Al1 O7 1.771830 1_555
Al1 O6 1.771830 1_555
Al1 O11 1.771830 1_555
Al2 O3 1.771830 1_565
Al2 O0 1.771830 1_555
Al2 O5 1.771830 1_555
Al2 O9 1.771830 1_555
Al3 O10 1.771830 1_555
Al3 O2 1.771830 1_655
Al3 O4 1.771830 1_555
Al3 O11 1.771830 1_555
Al4 O7 1.771830 1_556
Al4 O3 1.771830 1_555
Al4 O4 1.771830 1_555
Al4 O1 1.771830 1_555
Al5 O10 1.771830 1_565
Al5 O8 1.771830 1_555
Al5 O6 1.771830 1_555
Al5 O9 1.771830 1_555
Cd0 O4 2.237632 1_454
Cd0 O0 2.237632 1_555
Cd0 O8 2.237632 1_555
Cd0 S0 2.569414 1_555
Cd1 O5 2.237632 1_544
Cd1 O10 2.237632 1_555
Cd1 O7 2.237632 1_555
Cd1 S0 2.569414 1_555
Cd2 O9 2.237632 1_555
Cd2 O11 2.237632 1_555
Cd2 O1 2.237632 1_555
Cd2 S0 2.569414 1_666
Cd3 O6 2.237632 1_445
Cd3 O3 2.237632 1_555
Cd3 O2 2.237632 1_555
Cd3 S0 2.569414 1_555
