# generated using pymatgen
data_NbGaPt
_symmetry_space_group_name_H-M   'P 1'
_cell_length_a   4.35232568
_cell_length_b   4.35232568
_cell_length_c   4.35232568
_cell_angle_alpha   60.00000000
_cell_angle_beta   60.00000000
_cell_angle_gamma   60.00000000
_symmetry_Int_Tables_number   1
_chemical_formula_structural   NbGaPt
_chemical_formula_sum   'Nb1 Ga1 Pt1'
_cell_volume   58.29739627
_cell_formula_units_Z   1
loop_
 _symmetry_equiv_pos_site_id
 _symmetry_equiv_pos_as_xyz
  1  'x, y, z'
loop_
 _atom_site_type_symbol
 _atom_site_label
 _atom_site_symmetry_multiplicity
 _atom_site_fract_x
 _atom_site_fract_y
 _atom_site_fract_z
 _atom_site_occupancy
  Nb  Nb0  1  0.25000000  0.25000000  0.25000000  1
  Ga  Ga0  1  0.50000000  0.50000000  0.50000000  1
  Pt  Pt0  1  0.00000000  0.00000000  0.00000000  1
loop_
_geom_bond_atom_site_label_1
_geom_bond_atom_site_label_2
_geom_bond_distance
_geom_bond_site_symmetry_2
Nb0 Pt0 2.665244 1_565
Nb0 Pt0 2.665244 1_555
Nb0 Pt0 2.665244 1_556
Nb0 Pt0 2.665244 1_655
Ga0 Nb0 2.665244 1_655
Ga0 Nb0 2.665244 1_556
Ga0 Nb0 2.665244 1_565
Ga0 Nb0 2.665244 1_555
Ga0 Pt0 3.077559 1_566
Ga0 Pt0 3.077559 1_556
Ga0 Pt0 3.077559 1_656
Ga0 Pt0 3.077559 1_655
Ga0 Pt0 3.077559 1_565
Ga0 Pt0 3.077559 1_665
