# generated using pymatgen
data_SrAsPd
_symmetry_space_group_name_H-M   'P 1'
_cell_length_a   4.29379133
_cell_length_b   4.29378936
_cell_length_c   8.92636061
_cell_angle_alpha   90.00000000
_cell_angle_beta   90.00000000
_cell_angle_gamma   119.99999152
_symmetry_Int_Tables_number   1
_chemical_formula_structural   SrAsPd
_chemical_formula_sum   'Sr2 As2 Pd2'
_cell_volume   142.52359454
_cell_formula_units_Z   2
loop_
 _symmetry_equiv_pos_site_id
 _symmetry_equiv_pos_as_xyz
  1  'x, y, z'
loop_
 _atom_site_type_symbol
 _atom_site_label
 _atom_site_symmetry_multiplicity
 _atom_site_fract_x
 _atom_site_fract_y
 _atom_site_fract_z
 _atom_site_occupancy
  Sr  Sr0  1  0.00000000  0.00000000  0.50000000  1
  Sr  Sr1  1  0.00000000  0.00000000  -0.00000000  1
  As  As0  1  0.33333300  0.66666700  0.75000000  1
  As  As1  1  0.66666700  0.33333300  0.25000000  1
  Pd  Pd0  1  0.33333300  0.66666700  0.25000000  1
  Pd  Pd1  1  0.66666700  0.33333300  0.75000000  1
loop_
_geom_bond_atom_site_label_1
_geom_bond_atom_site_label_2
_geom_bond_distance
_geom_bond_site_symmetry_2
As0 Pd1 2.479018 1_565
As0 Pd1 2.479019 1_455
As0 Pd1 2.479026 1_555
As0 Sr0 3.335495 1_565
As0 Sr1 3.335495 1_566
As0 Sr0 3.335498 1_555
As0 Sr1 3.335498 1_556
As0 Sr0 3.335498 1_665
As0 Sr1 3.335498 1_666
As1 Pd0 2.479018 1_545
As1 Pd0 2.479019 1_655
As1 Pd0 2.479026 1_555
As1 Sr1 3.335495 1_655
As1 Sr0 3.335495 1_655
As1 Sr0 3.335498 1_665
As1 Sr1 3.335498 1_665
As1 Sr0 3.335498 1_555
As1 Sr1 3.335498 1_555
Pd0 Sr0 3.335495 1_565
Pd0 Sr1 3.335495 1_565
Pd0 Sr0 3.335498 1_555
Pd0 Sr1 3.335498 1_555
Pd0 Sr0 3.335498 1_665
Pd0 Sr1 3.335498 1_665
Pd1 Sr0 3.335495 1_655
Pd1 Sr1 3.335495 1_656
Pd1 Sr0 3.335498 1_665
Pd1 Sr1 3.335498 1_666
Pd1 Sr0 3.335498 1_555
Pd1 Sr1 3.335498 1_556
