# generated using pymatgen
data_SrGaSiH
_symmetry_space_group_name_H-M   'P 1'
_cell_length_a   4.20209387
_cell_length_b   4.20209387
_cell_length_c   4.94781900
_cell_angle_alpha   90.00000000
_cell_angle_beta   90.00000000
_cell_angle_gamma   119.99999791
_symmetry_Int_Tables_number   1
_chemical_formula_structural   SrGaSiH
_chemical_formula_sum   'Sr1 Ga1 Si1 H1'
_cell_volume   75.66167368
_cell_formula_units_Z   1
loop_
 _symmetry_equiv_pos_site_id
 _symmetry_equiv_pos_as_xyz
  1  'x, y, z'
loop_
 _atom_site_type_symbol
 _atom_site_label
 _atom_site_symmetry_multiplicity
 _atom_site_fract_x
 _atom_site_fract_y
 _atom_site_fract_z
 _atom_site_occupancy
  Sr  Sr0  1  0.66666700  0.33333300  0.99685800  1
  Ga  Ga0  1  0.33333300  0.66666700  0.54767600  1
  Si  Si0  1  0.00000000  0.00000000  0.44404200  1
  H  H0  1  0.33333300  0.66666700  0.90832400  1
loop_
_geom_bond_atom_site_label_1
_geom_bond_atom_site_label_2
_geom_bond_distance
_geom_bond_site_symmetry_2
Ga0 H0 1.784421 1_555
Ga0 Si0 2.479673 1_565
Ga0 Si0 2.479677 1_665
Ga0 Si0 2.479677 1_555
Si0 Sr0 3.283502 1_454
Si0 Sr0 3.283505 1_554
Si0 Sr0 3.283505 1_444
H0 Sr0 2.465307 1_455
H0 Sr0 2.465307 1_565
H0 Sr0 2.465315 1_555
