# generated using pymatgen
data_EuLu2O4
_symmetry_space_group_name_H-M   'P 1'
_cell_length_a   3.29729512
_cell_length_b   9.81507137
_cell_length_c   11.60943232
_cell_angle_alpha   90.00000000
_cell_angle_beta   90.00000000
_cell_angle_gamma   90.00000000
_symmetry_Int_Tables_number   1
_chemical_formula_structural   EuLu2O4
_chemical_formula_sum   'Eu4 Lu8 O16'
_cell_volume   375.71822833
_cell_formula_units_Z   4
loop_
 _symmetry_equiv_pos_site_id
 _symmetry_equiv_pos_as_xyz
  1  'x, y, z'
loop_
 _atom_site_type_symbol
 _atom_site_label
 _atom_site_symmetry_multiplicity
 _atom_site_fract_x
 _atom_site_fract_y
 _atom_site_fract_z
 _atom_site_occupancy
  Eu  Eu0  1  0.75000000  0.75268380  0.65124639  1
  Eu  Eu1  1  0.25000000  0.74731620  0.15124639  1
  Eu  Eu2  1  0.75000000  0.25268380  0.84875361  1
  Eu  Eu3  1  0.25000000  0.24731620  0.34875361  1
  Lu  Lu0  1  0.75000000  0.42146578  0.10906728  1
  Lu  Lu1  1  0.25000000  0.07853422  0.60906728  1
  Lu  Lu2  1  0.75000000  0.92146578  0.39093272  1
  Lu  Lu3  1  0.25000000  0.57853422  0.89093272  1
  Lu  Lu4  1  0.75000000  0.42550669  0.61201537  1
  Lu  Lu5  1  0.25000000  0.07449331  0.11201537  1
  Lu  Lu6  1  0.75000000  0.92550669  0.88798463  1
  Lu  Lu7  1  0.25000000  0.57449331  0.38798463  1
  O  O0  1  0.75000000  0.42309259  0.42352639  1
  O  O1  1  0.25000000  0.07690741  0.92352639  1
  O  O2  1  0.75000000  0.92309259  0.07647361  1
  O  O3  1  0.25000000  0.57690741  0.57647361  1
  O  O4  1  0.75000000  0.51772309  0.78326443  1
  O  O5  1  0.25000000  0.98227691  0.28326443  1
  O  O6  1  0.75000000  0.01772309  0.71673557  1
  O  O7  1  0.25000000  0.48227691  0.21673557  1
  O  O8  1  0.75000000  0.12400291  0.47915526  1
  O  O9  1  0.25000000  0.37599709  0.97915526  1
  O  O10  1  0.75000000  0.62400291  0.02084474  1
  O  O11  1  0.25000000  0.87599709  0.52084474  1
  O  O12  1  0.75000000  0.20991539  0.17108591  1
  O  O13  1  0.25000000  0.29008461  0.67108591  1
  O  O14  1  0.75000000  0.70991539  0.32891409  1
  O  O15  1  0.25000000  0.79008461  0.82891409  1
loop_
_geom_bond_atom_site_label_1
_geom_bond_atom_site_label_2
_geom_bond_distance
_geom_bond_site_symmetry_2
Eu0 O3 2.539311 1_655
Eu0 O3 2.539311 1_555
Eu0 O11 2.544562 1_655
Eu0 O11 2.544562 1_555
Eu0 O15 2.665933 1_655
Eu0 O15 2.665933 1_555
Eu0 O6 2.710207 1_565
Eu0 O4 2.769005 1_555
Eu1 O2 2.539311 1_455
Eu1 O2 2.539311 1_555
Eu1 O10 2.544562 1_555
Eu1 O10 2.544562 1_455
Eu1 O14 2.665933 1_455
Eu1 O14 2.665933 1_555
Eu1 O7 2.710207 1_555
Eu1 O5 2.769005 1_555
Eu2 O1 2.539311 1_655
Eu2 O1 2.539311 1_555
Eu2 O9 2.544562 1_555
Eu2 O9 2.544562 1_655
Eu2 O13 2.665933 1_655
Eu2 O13 2.665933 1_555
Eu2 O4 2.710207 1_555
Eu2 O6 2.769005 1_555
Eu3 O0 2.539311 1_455
Eu3 O0 2.539311 1_555
Eu3 O8 2.544562 1_455
Eu3 O8 2.544562 1_555
Eu3 O12 2.665933 1_455
Eu3 O12 2.665933 1_555
Eu3 O5 2.710207 1_545
Eu3 O7 2.769005 1_555
Lu0 O7 2.153301 1_555
Lu0 O7 2.153301 1_655
Lu0 O12 2.197673 1_555
Lu0 O10 2.236252 1_555
Lu0 O9 2.278571 1_654
Lu0 O9 2.278571 1_554
Lu1 O6 2.153301 1_455
Lu1 O6 2.153301 1_555
Lu1 O13 2.197673 1_555
Lu1 O11 2.236252 1_545
Lu1 O8 2.278571 1_455
Lu1 O8 2.278571 1_555
Lu2 O5 2.153301 1_555
Lu2 O5 2.153301 1_655
Lu2 O14 2.197673 1_555
Lu2 O8 2.236252 1_565
Lu2 O11 2.278571 1_655
Lu2 O11 2.278571 1_555
Lu3 O4 2.153301 1_455
Lu3 O4 2.153301 1_555
Lu3 O15 2.197673 1_555
Lu3 O9 2.236252 1_555
Lu3 O10 2.278571 1_456
Lu3 O10 2.278571 1_556
Lu4 O4 2.184441 1_555
Lu4 O0 2.188378 1_555
Lu4 O13 2.225992 1_655
Lu4 O13 2.225992 1_555
Lu4 O3 2.257546 1_655
Lu4 O3 2.257546 1_555
Lu5 O5 2.184441 1_545
Lu5 O1 2.188378 1_554
Lu5 O12 2.225992 1_555
Lu5 O12 2.225992 1_455
Lu5 O2 2.257546 1_545
Lu5 O2 2.257546 1_445
Lu6 O6 2.184441 1_565
Lu6 O2 2.188378 1_556
Lu6 O15 2.225992 1_555
Lu6 O15 2.225992 1_655
Lu6 O1 2.257546 1_665
Lu6 O1 2.257546 1_565
Lu7 O7 2.184441 1_555
Lu7 O3 2.188378 1_555
Lu7 O14 2.225992 1_555
Lu7 O14 2.225992 1_455
Lu7 O0 2.257546 1_555
Lu7 O0 2.257546 1_455
