# generated using pymatgen
data_LuB4Os
_symmetry_space_group_name_H-M   'P 1'
_cell_length_a   3.52823894
_cell_length_b   5.89759129
_cell_length_c   11.40378026
_cell_angle_alpha   90.00000000
_cell_angle_beta   90.00000000
_cell_angle_gamma   90.00000000
_symmetry_Int_Tables_number   1
_chemical_formula_structural   LuB4Os
_chemical_formula_sum   'Lu4 B16 Os4'
_cell_volume   237.29112822
_cell_formula_units_Z   4
loop_
 _symmetry_equiv_pos_site_id
 _symmetry_equiv_pos_as_xyz
  1  'x, y, z'
loop_
 _atom_site_type_symbol
 _atom_site_label
 _atom_site_symmetry_multiplicity
 _atom_site_fract_x
 _atom_site_fract_y
 _atom_site_fract_z
 _atom_site_occupancy
  Lu  Lu0  1  0.50000000  0.12904531  0.65005588  1
  Lu  Lu1  1  0.50000000  0.87095469  0.34994412  1
  Lu  Lu2  1  0.50000000  0.62904531  0.84994412  1
  Lu  Lu3  1  0.50000000  0.37095469  0.15005588  1
  B  B0  1  0.00000000  0.47622876  0.69253094  1
  B  B1  1  0.00000000  0.52377124  0.30746906  1
  B  B2  1  -0.00000000  0.97622876  0.80746906  1
  B  B3  1  -0.00000000  0.02377124  0.19253094  1
  B  B4  1  -0.00000000  0.29227741  0.81382378  1
  B  B5  1  -0.00000000  0.70772259  0.18617622  1
  B  B6  1  -0.00000000  0.79227741  0.68617622  1
  B  B7  1  0.00000000  0.20772259  0.31382378  1
  B  B8  1  -0.00000000  0.36501818  0.97050353  1
  B  B9  1  0.00000000  0.63498182  0.02949647  1
  B  B10  1  -0.00000000  0.86501818  0.52949647  1
  B  B11  1  0.00000000  0.13498182  0.47050353  1
  B  B12  1  0.00000000  0.38662507  0.54764201  1
  B  B13  1  -0.00000000  0.61337493  0.45235799  1
  B  B14  1  -0.00000000  0.88662507  0.95235799  1
  B  B15  1  -0.00000000  0.11337493  0.04764201  1
  Os  Os0  1  0.50000000  0.14281737  0.90568043  1
  Os  Os1  1  0.50000000  0.85718263  0.09431957  1
  Os  Os2  1  0.50000000  0.64281737  0.59431957  1
  Os  Os3  1  0.50000000  0.35718263  0.40568043  1
loop_
_geom_bond_atom_site_label_1
_geom_bond_atom_site_label_2
_geom_bond_distance
_geom_bond_site_symmetry_2
Lu0 Os0 2.916218 1_555
Lu0 Os2 2.937171 1_545
Lu0 Os3 3.094599 1_555
Lu0 Os2 3.095965 1_555
Lu1 Os1 2.916218 1_555
Lu1 Os3 2.937171 1_565
Lu1 Os2 3.094599 1_555
Lu1 Os3 3.095965 1_555
Lu2 Os2 2.916218 1_555
Lu2 Os0 2.937171 1_555
Lu2 Os1 3.094599 1_556
Lu2 Os0 3.095965 1_565
Lu3 Os3 2.916218 1_555
Lu3 Os1 2.937171 1_555
Lu3 Os0 3.094599 1_554
Lu3 Os1 3.095965 1_545
B0 B12 1.734730 1_555
B0 B4 1.757890 1_555
B0 B6 1.865334 1_555
B0 Os2 2.309053 1_455
B0 Os2 2.309053 1_555
B0 Lu2 2.673345 1_455
B0 Lu2 2.673345 1_555
B0 Lu0 2.745757 1_555
B0 Lu0 2.745757 1_455
B1 B13 1.734730 1_555
B1 B5 1.757890 1_555
B1 B7 1.865334 1_555
B1 Os3 2.309053 1_455
B1 Os3 2.309053 1_555
B1 Lu3 2.673345 1_555
B1 Lu3 2.673345 1_455
B1 Lu1 2.745757 1_455
B1 Lu1 2.745757 1_555
B2 B6 1.757890 1_555
B2 B4 1.865334 1_565
B2 Os0 2.309053 1_565
B2 Os0 2.309053 1_465
B2 Lu0 2.673345 1_565
B2 Lu0 2.673345 1_465
B2 Lu2 2.745757 1_555
B2 Lu2 2.745757 1_455
B3 B7 1.757890 1_555
B3 B5 1.865334 1_545
B3 Os1 2.309053 1_445
B3 Os1 2.309053 1_545
B3 Lu1 2.673345 1_445
B3 Lu1 2.673345 1_545
B3 Lu3 2.745757 1_455
B3 Lu3 2.745757 1_555
B4 B8 1.837521 1_555
B4 Os0 2.233016 1_455
B4 Os0 2.233016 1_555
B4 Lu2 2.688207 1_555
B4 Lu2 2.688207 1_455
B4 Lu0 2.743482 1_455
B4 Lu0 2.743482 1_555
B5 B9 1.837521 1_555
B5 Os1 2.233016 1_455
B5 Os1 2.233016 1_555
B5 Lu3 2.688207 1_555
B5 Lu3 2.688207 1_455
B5 Lu1 2.743482 1_455
B5 Lu1 2.743482 1_555
B6 Os2 2.233016 1_555
B6 Os2 2.233016 1_455
B6 Lu0 2.688207 1_465
B6 Lu0 2.688207 1_565
B6 Lu2 2.743482 1_555
B6 Lu2 2.743482 1_455
B7 Os3 2.233016 1_455
B7 Os3 2.233016 1_555
B7 Lu1 2.688207 1_545
B7 Lu1 2.688207 1_445
B7 Lu3 2.743482 1_455
B7 Lu3 2.743482 1_555
B8 B9 1.728432 1_556
B8 Os0 2.318589 1_455
B8 Os0 2.318589 1_555
B8 Lu3 2.702944 1_556
B8 Lu3 2.702944 1_456
B8 Lu2 2.725237 1_555
B8 Lu2 2.725237 1_455
B9 Os1 2.318589 1_455
B9 Os1 2.318589 1_555
B9 Lu2 2.702944 1_454
B9 Lu2 2.702944 1_554
B9 Lu3 2.725237 1_455
B9 Lu3 2.725237 1_555
B10 B13 1.725207 1_555
B10 B11 1.728432 1_565
B10 B6 1.837521 1_555
B10 Os2 2.318589 1_555
B10 Os2 2.318589 1_455
B10 Lu1 2.702944 1_555
B10 Lu1 2.702944 1_455
B10 Lu0 2.725237 1_465
B10 Lu0 2.725237 1_565
B11 B12 1.725207 1_555
B11 B7 1.837521 1_555
B11 Os3 2.318589 1_455
B11 Os3 2.318589 1_555
B11 Lu0 2.702944 1_555
B11 Lu0 2.702944 1_455
B11 Lu1 2.725237 1_445
B11 Lu1 2.725237 1_545
B12 B13 1.723081 1_555
B12 Os2 2.382925 1_455
B12 Os2 2.382925 1_555
B12 Os3 2.400646 1_455
B12 Os3 2.400646 1_555
B12 Lu0 2.604570 1_455
B12 Lu0 2.604570 1_555
B13 Os3 2.382925 1_455
B13 Os3 2.382925 1_555
B13 Os2 2.400646 1_455
B13 Os2 2.400646 1_555
B13 Lu1 2.604570 1_455
B13 Lu1 2.604570 1_555
B14 B15 1.723081 1_566
B14 B9 1.725207 1_556
B14 B2 1.734730 1_555
B14 Os0 2.382925 1_465
B14 Os0 2.382925 1_565
B14 Os1 2.400646 1_456
B14 Os1 2.400646 1_556
B14 Lu2 2.604570 1_555
B14 Lu2 2.604570 1_455
B15 B8 1.725207 1_554
B15 B3 1.734730 1_555
B15 Os1 2.382925 1_445
B15 Os1 2.382925 1_545
B15 Os0 2.400646 1_554
B15 Os0 2.400646 1_454
B15 Lu3 2.604570 1_555
B15 Lu3 2.604570 1_455
Os0 Os1 2.732287 1_546
Os2 Os3 2.732287 1_555
