# generated using pymatgen
data_CaCr2O4
_symmetry_space_group_name_H-M   'P 1'
_cell_length_a   7.64651300
_cell_length_b   9.13892900
_cell_length_c   10.68729300
_cell_angle_alpha   90.00000000
_cell_angle_beta   90.00000000
_cell_angle_gamma   90.00000000
_symmetry_Int_Tables_number   1
_chemical_formula_structural   CaCr2O4
_chemical_formula_sum   'Ca8 Cr16 O32'
_cell_volume   746.83807453
_cell_formula_units_Z   8
loop_
 _symmetry_equiv_pos_site_id
 _symmetry_equiv_pos_as_xyz
  1  'x, y, z'
loop_
 _atom_site_type_symbol
 _atom_site_label
 _atom_site_symmetry_multiplicity
 _atom_site_fract_x
 _atom_site_fract_y
 _atom_site_fract_z
 _atom_site_occupancy
  Ca  Ca0  1  0.50171400  0.08140800  0.88936000  1
  Ca  Ca1  1  0.46693700  0.61221500  0.68225400  1
  Ca  Ca2  1  0.96693700  0.11221500  0.81774600  1
  Ca  Ca3  1  0.00171400  0.58140800  0.61064000  1
  Ca  Ca4  1  0.53306300  0.11221500  0.31774600  1
  Ca  Ca5  1  0.49828600  0.58140800  0.11064000  1
  Ca  Ca6  1  0.99828600  0.08140800  0.38936000  1
  Ca  Ca7  1  0.03306300  0.61221500  0.18225400  1
  Cr  Cr0  1  0.75008900  0.77182500  0.88034500  1
  Cr  Cr1  1  0.75185500  0.43264000  0.83277700  1
  Cr  Cr2  1  0.66637600  0.89989200  0.62273400  1
  Cr  Cr3  1  0.24814500  0.93264000  0.16722300  1
  Cr  Cr4  1  0.25008900  0.27182500  0.61965500  1
  Cr  Cr5  1  0.83362400  0.89989200  0.12273400  1
  Cr  Cr6  1  0.74991100  0.77182500  0.38034500  1
  Cr  Cr7  1  0.33362400  0.39989200  0.37726600  1
  Cr  Cr8  1  0.31980200  0.74014700  0.41483300  1
  Cr  Cr9  1  0.81980200  0.24014700  0.08516700  1
  Cr  Cr10  1  0.68019800  0.24014700  0.58516700  1
  Cr  Cr11  1  0.74814500  0.43264000  0.33277700  1
  Cr  Cr12  1  0.25185500  0.93264000  0.66722300  1
  Cr  Cr13  1  0.16637600  0.39989200  0.87726600  1
  Cr  Cr14  1  0.24991100  0.27182500  0.11965500  1
  Cr  Cr15  1  0.18019800  0.74014700  0.91483300  1
  O  O0  1  0.34796800  0.91877800  0.32767100  1
  O  O1  1  0.68439200  0.28452900  0.94280300  1
  O  O2  1  0.94931800  0.72336700  0.98838900  1
  O  O3  1  0.20962600  0.58778000  0.79151500  1
  O  O4  1  0.24731300  0.46392300  0.03944900  1
  O  O5  1  0.97803200  0.36614100  0.75593300  1
  O  O6  1  0.74731300  0.96392300  0.46055100  1
  O  O7  1  0.81560800  0.28452900  0.44280300  1
  O  O8  1  0.79037400  0.08778000  0.20848500  1
  O  O9  1  0.18439200  0.78452900  0.55719700  1
  O  O10  1  0.55068200  0.72336700  0.48838900  1
  O  O11  1  0.15203200  0.91877800  0.82767100  1
  O  O12  1  0.47803200  0.86614100  0.74406700  1
  O  O13  1  0.25268700  0.46392300  0.53944900  1
  O  O14  1  0.11501800  0.09423900  0.60112000  1
  O  O15  1  0.70407200  0.74331500  0.20505800  1
  O  O16  1  0.05068200  0.22336700  0.01161100  1
  O  O17  1  0.70962600  0.08778000  0.70848500  1
  O  O18  1  0.31560800  0.78452900  0.05719700  1
  O  O19  1  0.29037400  0.58778000  0.29151500  1
  O  O20  1  0.20407200  0.24331500  0.29494200  1
  O  O21  1  0.75268700  0.96392300  0.96055100  1
  O  O22  1  0.52196800  0.36614100  0.25593300  1
  O  O23  1  0.88498200  0.59423900  0.39888000  1
  O  O24  1  0.79592800  0.74331500  0.70505800  1
  O  O25  1  0.29592800  0.24331500  0.79494200  1
  O  O26  1  0.44931800  0.22336700  0.51161100  1
  O  O27  1  0.38498200  0.09423900  0.10112000  1
  O  O28  1  0.84796800  0.41877800  0.17232900  1
  O  O29  1  0.02196800  0.86614100  0.24406700  1
  O  O30  1  0.61501800  0.59423900  0.89888000  1
  O  O31  1  0.65203200  0.41877800  0.67232900  1
loop_
_geom_bond_atom_site_label_1
_geom_bond_atom_site_label_2
_geom_bond_distance
_geom_bond_site_symmetry_2
Ca0 O21 2.326909 1_545
Ca0 O25 2.384042 1_555
Ca0 O1 2.392341 1_555
Ca0 O27 2.435627 1_556
Ca0 O17 2.503517 1_555
Ca0 O12 2.512818 1_545
Ca1 O31 2.267059 1_555
Ca1 O3 2.298822 1_555
Ca1 O10 2.394716 1_555
Ca1 O12 2.414300 1_555
Ca1 O30 2.582440 1_555
Ca1 O13 2.617221 1_555
Ca1 O24 2.797014 1_555
Ca1 O9 2.988957 1_555
Ca2 O11 2.267059 1_645
Ca2 O17 2.298822 1_555
Ca2 O16 2.394716 1_656
Ca2 O5 2.414300 1_555
Ca2 O14 2.582440 1_655
Ca2 O21 2.617221 1_545
Ca2 O25 2.797014 1_655
Ca2 O1 2.988957 1_555
Ca3 O13 2.326909 1_555
Ca3 O24 2.384042 1_455
Ca3 O9 2.392341 1_555
Ca3 O23 2.435627 1_455
Ca3 O3 2.503517 1_555
Ca3 O5 2.512818 1_455
Ca4 O0 2.267059 1_545
Ca4 O8 2.298822 1_555
Ca4 O26 2.394716 1_555
Ca4 O22 2.414300 1_555
Ca4 O27 2.582440 1_555
Ca4 O6 2.617221 1_545
Ca4 O20 2.797014 1_555
Ca4 O7 2.988957 1_555
Ca5 O4 2.326909 1_555
Ca5 O15 2.384042 1_555
Ca5 O18 2.392341 1_555
Ca5 O30 2.435627 1_554
Ca5 O19 2.503517 1_555
Ca5 O22 2.512818 1_555
Ca6 O6 2.326909 1_545
Ca6 O20 2.384042 1_655
Ca6 O7 2.392341 1_555
Ca6 O14 2.435627 1_655
Ca6 O8 2.503517 1_555
Ca6 O29 2.512818 1_645
Ca7 O28 2.267059 1_455
Ca7 O19 2.298822 1_555
Ca7 O2 2.394716 1_454
Ca7 O29 2.414300 1_555
Ca7 O23 2.582440 1_455
Ca7 O4 2.617221 1_555
Ca7 O15 2.797014 1_455
Ca7 O18 2.988957 1_555
Cr0 O24 1.923580 1_555
Cr0 O30 1.933886 1_555
Cr0 O21 1.953762 1_555
Cr0 O2 1.962197 1_555
Cr0 O12 2.681748 1_555
Cr1 O1 1.865736 1_555
Cr1 O31 1.881238 1_555
Cr1 O30 1.942923 1_555
Cr1 O5 2.008692 1_555
Cr2 O6 1.931261 1_555
Cr2 O24 1.950134 1_555
Cr2 O12 1.962328 1_555
Cr2 O17 1.974249 1_565
Cr2 O10 2.333809 1_555
Cr3 O18 1.865736 1_555
Cr3 O0 1.881238 1_555
Cr3 O27 1.942923 1_565
Cr3 O29 2.008692 1_555
Cr4 O25 1.923580 1_555
Cr4 O14 1.933886 1_555
Cr4 O13 1.953762 1_555
Cr4 O26 1.962197 1_555
Cr4 O5 2.681748 1_455
Cr5 O21 1.931261 1_554
Cr5 O15 1.950134 1_555
Cr5 O29 1.962328 1_655
Cr5 O8 1.974249 1_565
Cr5 O2 2.333809 1_554
Cr6 O15 1.923580 1_555
Cr6 O23 1.933886 1_555
Cr6 O6 1.953762 1_555
Cr6 O10 1.962197 1_555
Cr6 O29 2.681748 1_655
Cr7 O13 1.931261 1_555
Cr7 O20 1.950134 1_555
Cr7 O22 1.962328 1_555
Cr7 O19 1.974249 1_555
Cr7 O26 2.333809 1_555
Cr8 O9 1.884547 1_555
Cr8 O0 1.891869 1_555
Cr8 O19 1.930431 1_555
Cr8 O10 1.938614 1_555
Cr9 O1 1.884547 1_554
Cr9 O28 1.891869 1_555
Cr9 O8 1.930431 1_555
Cr9 O16 1.938614 1_655
Cr10 O7 1.884547 1_555
Cr10 O31 1.891869 1_555
Cr10 O17 1.930431 1_555
Cr10 O26 1.938614 1_555
Cr11 O7 1.865736 1_555
Cr11 O28 1.881238 1_555
Cr11 O23 1.942923 1_555
Cr11 O22 2.008692 1_555
Cr12 O9 1.865736 1_555
Cr12 O11 1.881238 1_555
Cr12 O14 1.942923 1_565
Cr12 O12 2.008692 1_555
Cr13 O4 1.931261 1_556
Cr13 O25 1.950134 1_555
Cr13 O5 1.962328 1_455
Cr13 O3 1.974249 1_555
Cr13 O16 2.333809 1_556
Cr14 O20 1.923580 1_555
Cr14 O27 1.933886 1_555
Cr14 O4 1.953762 1_555
Cr14 O16 1.962197 1_555
Cr14 O22 2.681748 1_555
Cr15 O18 1.884547 1_556
Cr15 O11 1.891869 1_555
Cr15 O3 1.930431 1_555
Cr15 O2 1.938614 1_455
