# generated using pymatgen
data_HoTh3
_symmetry_space_group_name_H-M   'P 1'
_cell_length_a   5.04380910
_cell_length_b   5.04380910
_cell_length_c   5.04383435
_cell_angle_alpha   90.00000000
_cell_angle_beta   90.00000000
_cell_angle_gamma   90.00000000
_symmetry_Int_Tables_number   1
_chemical_formula_structural   HoTh3
_chemical_formula_sum   'Ho1 Th3'
_cell_volume   128.31519750
_cell_formula_units_Z   1
loop_
 _symmetry_equiv_pos_site_id
 _symmetry_equiv_pos_as_xyz
  1  'x, y, z'
loop_
 _atom_site_type_symbol
 _atom_site_label
 _atom_site_symmetry_multiplicity
 _atom_site_fract_x
 _atom_site_fract_y
 _atom_site_fract_z
 _atom_site_occupancy
  Ho  Ho0  1  -0.00000000  0.00000000  0.00000000  1
  Th  Th0  1  0.50000000  0.00000000  0.50000000  1
  Th  Th1  1  -0.00000000  0.50000000  0.50000000  1
  Th  Th2  1  0.50000000  0.50000000  0.00000000  1
loop_
_geom_bond_atom_site_label_1
_geom_bond_atom_site_label_2
_geom_bond_distance
_geom_bond_site_symmetry_2
Ho0 Th2 3.566512 1_555
Ho0 Th2 3.566512 1_455
Ho0 Th2 3.566512 1_445
Ho0 Th2 3.566512 1_545
Ho0 Th0 3.566521 1_554
Ho0 Th0 3.566521 1_455
Ho0 Th1 3.566521 1_554
Ho0 Th0 3.566521 1_454
Ho0 Th0 3.566521 1_555
Ho0 Th1 3.566521 1_544
Ho0 Th1 3.566521 1_555
Ho0 Th1 3.566521 1_545
Th0 Th1 3.566512 1_645
Th0 Th1 3.566512 1_655
Th0 Th1 3.566512 1_555
Th0 Th1 3.566512 1_545
Th0 Th2 3.566521 1_545
Th0 Th2 3.566521 1_555
Th0 Th2 3.566521 1_546
Th0 Th2 3.566521 1_556
Th1 Th2 3.566521 1_555
Th1 Th2 3.566521 1_456
Th1 Th2 3.566521 1_455
Th1 Th2 3.566521 1_556
