# generated using pymatgen
data_Ho
_symmetry_space_group_name_H-M   'P 1'
_cell_length_a   7.10493738
_cell_length_b   7.10493645
_cell_length_c   22.72653212
_cell_angle_alpha   90.00000000
_cell_angle_beta   90.00000000
_cell_angle_gamma   120.00001428
_symmetry_Int_Tables_number   1
_chemical_formula_structural   Ho
_chemical_formula_sum   Ho32
_cell_volume   993.53733681
_cell_formula_units_Z   32
loop_
 _symmetry_equiv_pos_site_id
 _symmetry_equiv_pos_as_xyz
  1  'x, y, z'
loop_
 _atom_site_type_symbol
 _atom_site_label
 _atom_site_symmetry_multiplicity
 _atom_site_fract_x
 _atom_site_fract_y
 _atom_site_fract_z
 _atom_site_occupancy
  Ho  Ho0_0  1  0.00000000  0.00000000  0.00000000  1
  Ho  Ho0_1  1  0.00000000  0.00000000  0.50000000  1
  Ho  Ho0_2  1  0.00000000  0.50000000  0.00000000  1
  Ho  Ho0_3  1  0.00000000  0.50000000  0.50000000  1
  Ho  Ho0_4  1  0.50000000  0.00000000  0.00000000  1
  Ho  Ho0_5  1  0.50000000  0.00000000  0.50000000  1
  Ho  Ho0_6  1  0.50000000  0.50000000  0.00000000  1
  Ho  Ho0_7  1  0.50000000  0.50000000  0.50000000  1
  Ho  Ho1_0  1  0.16666650  0.33333250  0.12500000  1
  Ho  Ho1_1  1  0.16666650  0.33333250  0.62500000  1
  Ho  Ho1_2  1  0.16666650  0.83333250  0.12500000  1
  Ho  Ho1_3  1  0.16666650  0.83333250  0.62500000  1
  Ho  Ho1_4  1  0.66666650  0.33333250  0.12500000  1
  Ho  Ho1_5  1  0.66666650  0.33333250  0.62500000  1
  Ho  Ho1_6  1  0.66666650  0.83333250  0.12500000  1
  Ho  Ho1_7  1  0.66666650  0.83333250  0.62500000  1
  Ho  Ho2_0  1  0.00000000  0.00000000  0.25000000  1
  Ho  Ho2_1  1  0.00000000  0.00000000  0.75000000  1
  Ho  Ho2_2  1  0.00000000  0.50000000  0.25000000  1
  Ho  Ho2_3  1  0.00000000  0.50000000  0.75000000  1
  Ho  Ho2_4  1  0.50000000  0.00000000  0.25000000  1
  Ho  Ho2_5  1  0.50000000  0.00000000  0.75000000  1
  Ho  Ho2_6  1  0.50000000  0.50000000  0.25000000  1
  Ho  Ho2_7  1  0.50000000  0.50000000  0.75000000  1
  Ho  Ho3_0  1  0.33333400  0.16666700  0.37500000  1
  Ho  Ho3_1  1  0.33333400  0.16666700  0.87500000  1
  Ho  Ho3_2  1  0.33333400  0.66666700  0.37500000  1
  Ho  Ho3_3  1  0.33333400  0.66666700  0.87500000  1
  Ho  Ho3_4  1  0.83333400  0.16666700  0.37500000  1
  Ho  Ho3_5  1  0.83333400  0.16666700  0.87500000  1
  Ho  Ho3_6  1  0.83333400  0.66666700  0.37500000  1
  Ho  Ho3_7  1  0.83333400  0.66666700  0.87500000  1
loop_
_geom_bond_atom_site_label_1
_geom_bond_atom_site_label_2
_geom_bond_distance
_geom_bond_site_symmetry_2
Ho0_0 Ho1_0 3.503840 1_555
Ho0_0 Ho3_7 3.503842 1_444
Ho0_0 Ho3_5 3.503842 1_454
Ho0_0 Ho1_6 3.503844 1_445
Ho0_0 Ho3_1 3.503845 1_554
Ho0_0 Ho1_2 3.503845 1_545
Ho0_0 Ho0_6 3.552468 1_445
Ho0_0 Ho0_6 3.552468 1_555
Ho0_0 Ho0_2 3.552468 1_545
Ho0_0 Ho0_2 3.552468 1_555
Ho0_0 Ho0_4 3.552469 1_455
Ho0_0 Ho0_4 3.552469 1_555
Ho0_1 Ho1_1 3.503840 1_555
Ho0_1 Ho3_6 3.503842 1_445
Ho0_1 Ho3_4 3.503842 1_455
Ho0_1 Ho1_7 3.503844 1_445
Ho0_1 Ho3_0 3.503845 1_555
Ho0_1 Ho1_3 3.503845 1_545
Ho0_1 Ho0_7 3.552468 1_445
Ho0_1 Ho0_7 3.552468 1_555
Ho0_1 Ho0_3 3.552468 1_545
Ho0_1 Ho0_3 3.552468 1_555
Ho0_1 Ho0_5 3.552469 1_455
Ho0_1 Ho0_5 3.552469 1_555
Ho0_2 Ho1_2 3.503840 1_555
Ho0_2 Ho3_5 3.503842 1_454
Ho0_2 Ho3_7 3.503842 1_454
Ho0_2 Ho1_4 3.503844 1_455
Ho0_2 Ho3_3 3.503845 1_554
Ho0_2 Ho1_0 3.503845 1_555
Ho0_2 Ho0_4 3.552468 1_455
Ho0_2 Ho0_4 3.552468 1_565
Ho0_2 Ho0_6 3.552469 1_455
Ho0_2 Ho0_6 3.552469 1_555
Ho0_3 Ho1_3 3.503840 1_555
Ho0_3 Ho3_4 3.503842 1_455
Ho0_3 Ho3_6 3.503842 1_455
Ho0_3 Ho1_5 3.503844 1_455
Ho0_3 Ho3_2 3.503845 1_555
Ho0_3 Ho1_1 3.503845 1_555
Ho0_3 Ho0_5 3.552468 1_455
Ho0_3 Ho0_5 3.552468 1_565
Ho0_3 Ho0_7 3.552469 1_455
Ho0_3 Ho0_7 3.552469 1_555
Ho0_4 Ho1_4 3.503840 1_555
Ho0_4 Ho3_3 3.503842 1_544
Ho0_4 Ho3_1 3.503842 1_554
Ho0_4 Ho1_2 3.503844 1_545
Ho0_4 Ho3_5 3.503845 1_554
Ho0_4 Ho1_6 3.503845 1_545
Ho0_4 Ho0_6 3.552468 1_545
Ho0_4 Ho0_6 3.552468 1_555
Ho0_5 Ho1_5 3.503840 1_555
Ho0_5 Ho3_2 3.503842 1_545
Ho0_5 Ho3_0 3.503842 1_555
Ho0_5 Ho1_3 3.503844 1_545
Ho0_5 Ho3_4 3.503845 1_555
Ho0_5 Ho1_7 3.503845 1_545
Ho0_5 Ho0_7 3.552468 1_545
Ho0_5 Ho0_7 3.552468 1_555
Ho0_6 Ho1_6 3.503840 1_555
Ho0_6 Ho3_1 3.503842 1_554
Ho0_6 Ho3_3 3.503842 1_554
Ho0_6 Ho1_0 3.503844 1_555
Ho0_6 Ho3_7 3.503845 1_554
Ho0_6 Ho1_4 3.503845 1_555
Ho0_7 Ho1_7 3.503840 1_555
Ho0_7 Ho3_0 3.503842 1_555
Ho0_7 Ho3_2 3.503842 1_555
Ho0_7 Ho1_1 3.503844 1_555
Ho0_7 Ho3_6 3.503845 1_555
Ho0_7 Ho1_5 3.503845 1_555
Ho1_0 Ho2_0 3.503840 1_555
Ho1_0 Ho2_6 3.503844 1_555
Ho1_0 Ho2_2 3.503845 1_555
Ho1_0 Ho1_6 3.552468 1_555
Ho1_0 Ho1_6 3.552468 1_445
Ho1_0 Ho1_2 3.552468 1_545
Ho1_0 Ho1_2 3.552468 1_555
Ho1_0 Ho1_4 3.552469 1_455
Ho1_0 Ho1_4 3.552469 1_555
Ho1_1 Ho2_1 3.503840 1_555
Ho1_1 Ho2_7 3.503844 1_555
Ho1_1 Ho2_3 3.503845 1_555
Ho1_1 Ho1_7 3.552468 1_555
Ho1_1 Ho1_7 3.552468 1_445
Ho1_1 Ho1_3 3.552468 1_545
Ho1_1 Ho1_3 3.552468 1_555
Ho1_1 Ho1_5 3.552469 1_455
Ho1_1 Ho1_5 3.552469 1_555
Ho1_2 Ho2_2 3.503840 1_555
Ho1_2 Ho2_4 3.503844 1_565
Ho1_2 Ho2_0 3.503845 1_565
Ho1_2 Ho1_4 3.552468 1_565
Ho1_2 Ho1_4 3.552468 1_455
Ho1_2 Ho1_6 3.552469 1_455
Ho1_2 Ho1_6 3.552469 1_555
Ho1_3 Ho2_3 3.503840 1_555
Ho1_3 Ho2_5 3.503844 1_565
Ho1_3 Ho2_1 3.503845 1_565
Ho1_3 Ho1_5 3.552468 1_565
Ho1_3 Ho1_5 3.552468 1_455
Ho1_3 Ho1_7 3.552469 1_455
Ho1_3 Ho1_7 3.552469 1_555
Ho1_4 Ho2_4 3.503840 1_555
Ho1_4 Ho2_2 3.503844 1_655
Ho1_4 Ho2_6 3.503845 1_555
Ho1_4 Ho1_6 3.552468 1_555
Ho1_4 Ho1_6 3.552468 1_545
Ho1_5 Ho2_5 3.503840 1_555
Ho1_5 Ho2_3 3.503844 1_655
Ho1_5 Ho2_7 3.503845 1_555
Ho1_5 Ho1_7 3.552468 1_555
Ho1_5 Ho1_7 3.552468 1_545
Ho1_6 Ho2_6 3.503840 1_555
Ho1_6 Ho2_0 3.503844 1_665
Ho1_6 Ho2_4 3.503845 1_565
Ho1_7 Ho2_7 3.503840 1_555
Ho1_7 Ho2_1 3.503844 1_665
Ho1_7 Ho2_5 3.503845 1_565
Ho2_0 Ho3_6 3.503842 1_445
Ho2_0 Ho3_4 3.503842 1_455
Ho2_0 Ho3_0 3.503845 1_555
Ho2_0 Ho2_6 3.552468 1_445
Ho2_0 Ho2_6 3.552468 1_555
Ho2_0 Ho2_2 3.552468 1_545
Ho2_0 Ho2_2 3.552468 1_555
Ho2_0 Ho2_4 3.552469 1_455
Ho2_0 Ho2_4 3.552469 1_555
Ho2_1 Ho3_7 3.503842 1_445
Ho2_1 Ho3_5 3.503842 1_455
Ho2_1 Ho3_1 3.503845 1_555
Ho2_1 Ho2_7 3.552468 1_445
Ho2_1 Ho2_7 3.552468 1_555
Ho2_1 Ho2_3 3.552468 1_555
Ho2_1 Ho2_3 3.552468 1_545
Ho2_1 Ho2_5 3.552469 1_455
Ho2_1 Ho2_5 3.552469 1_555
Ho2_2 Ho3_4 3.503842 1_455
Ho2_2 Ho3_6 3.503842 1_455
Ho2_2 Ho3_2 3.503845 1_555
Ho2_2 Ho2_4 3.552468 1_455
Ho2_2 Ho2_4 3.552468 1_565
Ho2_2 Ho2_6 3.552469 1_455
Ho2_2 Ho2_6 3.552469 1_555
Ho2_3 Ho3_5 3.503842 1_455
Ho2_3 Ho3_7 3.503842 1_455
Ho2_3 Ho3_3 3.503845 1_555
Ho2_3 Ho2_5 3.552468 1_455
Ho2_3 Ho2_5 3.552468 1_565
Ho2_3 Ho2_7 3.552469 1_455
Ho2_3 Ho2_7 3.552469 1_555
Ho2_4 Ho3_2 3.503842 1_545
Ho2_4 Ho3_0 3.503842 1_555
Ho2_4 Ho3_4 3.503845 1_555
Ho2_4 Ho2_6 3.552468 1_555
Ho2_4 Ho2_6 3.552468 1_545
Ho2_5 Ho3_3 3.503842 1_545
Ho2_5 Ho3_1 3.503842 1_555
Ho2_5 Ho3_5 3.503845 1_555
Ho2_5 Ho2_7 3.552468 1_555
Ho2_5 Ho2_7 3.552468 1_545
Ho2_6 Ho3_0 3.503842 1_555
Ho2_6 Ho3_2 3.503842 1_555
Ho2_6 Ho3_6 3.503845 1_555
Ho2_7 Ho3_1 3.503842 1_555
Ho2_7 Ho3_3 3.503842 1_555
Ho2_7 Ho3_7 3.503845 1_555
Ho3_0 Ho3_6 3.552468 1_555
Ho3_0 Ho3_6 3.552468 1_445
Ho3_0 Ho3_2 3.552468 1_555
Ho3_0 Ho3_2 3.552468 1_545
Ho3_0 Ho3_4 3.552469 1_455
Ho3_0 Ho3_4 3.552469 1_555
Ho3_1 Ho3_7 3.552468 1_555
Ho3_1 Ho3_7 3.552468 1_445
Ho3_1 Ho3_3 3.552468 1_555
Ho3_1 Ho3_3 3.552468 1_545
Ho3_1 Ho3_5 3.552469 1_455
Ho3_1 Ho3_5 3.552469 1_555
Ho3_2 Ho3_4 3.552468 1_455
Ho3_2 Ho3_4 3.552468 1_565
Ho3_2 Ho3_6 3.552469 1_455
Ho3_2 Ho3_6 3.552469 1_555
Ho3_3 Ho3_5 3.552468 1_455
Ho3_3 Ho3_5 3.552468 1_565
Ho3_3 Ho3_7 3.552469 1_555
Ho3_3 Ho3_7 3.552469 1_455
Ho3_4 Ho3_6 3.552468 1_555
Ho3_4 Ho3_6 3.552468 1_545
Ho3_5 Ho3_7 3.552468 1_555
Ho3_5 Ho3_7 3.552468 1_545
