# generated using pymatgen
data_Nb2RuW
_symmetry_space_group_name_H-M   'P 1'
_cell_length_a   4.53388640
_cell_length_b   4.53388640
_cell_length_c   4.53388640
_cell_angle_alpha   60.00000000
_cell_angle_beta   60.00000000
_cell_angle_gamma   60.00000000
_symmetry_Int_Tables_number   1
_chemical_formula_structural   Nb2RuW
_chemical_formula_sum   'Nb2 Ru1 W1'
_cell_volume   65.90174370
_cell_formula_units_Z   1
loop_
 _symmetry_equiv_pos_site_id
 _symmetry_equiv_pos_as_xyz
  1  'x, y, z'
loop_
 _atom_site_type_symbol
 _atom_site_label
 _atom_site_symmetry_multiplicity
 _atom_site_fract_x
 _atom_site_fract_y
 _atom_site_fract_z
 _atom_site_occupancy
  Nb  Nb0  1  0.00000000  -0.00000000  -0.00000000  1
  Nb  Nb1  1  0.49999900  0.49999900  0.49999900  1
  Ru  Ru0  1  0.24999900  0.24999900  0.24999900  1
  W  W0  1  0.75000100  0.75000100  0.75000100  1
loop_
_geom_bond_atom_site_label_1
_geom_bond_atom_site_label_2
_geom_bond_distance
_geom_bond_site_symmetry_2
Nb0 Ru0 2.776416 1_555
Nb0 W0 2.776416 1_444
Nb0 W0 2.776431 1_445
Nb0 W0 2.776431 1_454
Nb0 W0 2.776431 1_544
Nb0 Ru0 2.776431 1_455
Nb0 Ru0 2.776431 1_554
Nb0 Ru0 2.776431 1_545
Nb1 W0 2.776420 1_455
Nb1 W0 2.776420 1_554
Nb1 W0 2.776420 1_545
Nb1 Ru0 2.776427 1_555
Nb1 Ru0 2.776427 1_655
Nb1 Ru0 2.776427 1_556
Nb1 Ru0 2.776427 1_565
Nb1 W0 2.776449 1_555
