# generated using pymatgen
data_MnAuO2
_symmetry_space_group_name_H-M   'P 1'
_cell_length_a   6.41941943
_cell_length_b   6.41941943
_cell_length_c   6.41941913
_cell_angle_alpha   28.51614906
_cell_angle_beta   28.51614906
_cell_angle_gamma   28.51614811
_symmetry_Int_Tables_number   1
_chemical_formula_structural   MnAuO2
_chemical_formula_sum   'Mn1 Au1 O2'
_cell_volume   53.29144633
_cell_formula_units_Z   1
loop_
 _symmetry_equiv_pos_site_id
 _symmetry_equiv_pos_as_xyz
  1  'x, y, z'
loop_
 _atom_site_type_symbol
 _atom_site_label
 _atom_site_symmetry_multiplicity
 _atom_site_fract_x
 _atom_site_fract_y
 _atom_site_fract_z
 _atom_site_occupancy
  Mn  Mn0  1  0.50000000  0.50000000  0.50000000  1
  Au  Au0  1  0.00000000  0.00000000  0.00000000  1
  O  O0  1  0.11186400  0.11186400  0.11186400  1
  O  O1  1  0.88813600  0.88813600  0.88813600  1
loop_
_geom_bond_atom_site_label_1
_geom_bond_atom_site_label_2
_geom_bond_distance
_geom_bond_site_symmetry_2
Mn0 O1 2.087270 1_455
Mn0 O0 2.087270 1_655
Mn0 O0 2.087270 1_565
Mn0 O1 2.087270 1_545
Mn0 O0 2.087270 1_556
Mn0 O1 2.087270 1_554
Au0 O1 2.065351 1_444
Au0 O0 2.065351 1_555
