# generated using pymatgen
data_Hf2ReTc
_symmetry_space_group_name_H-M   'P 1'
_cell_length_a   4.62506242
_cell_length_b   4.62506242
_cell_length_c   4.62506242
_cell_angle_alpha   60.00000000
_cell_angle_beta   60.00000000
_cell_angle_gamma   60.00000000
_symmetry_Int_Tables_number   1
_chemical_formula_structural   Hf2ReTc
_chemical_formula_sum   'Hf2 Re1 Tc1'
_cell_volume   69.95806635
_cell_formula_units_Z   1
loop_
 _symmetry_equiv_pos_site_id
 _symmetry_equiv_pos_as_xyz
  1  'x, y, z'
loop_
 _atom_site_type_symbol
 _atom_site_label
 _atom_site_symmetry_multiplicity
 _atom_site_fract_x
 _atom_site_fract_y
 _atom_site_fract_z
 _atom_site_occupancy
  Hf  Hf0  1  0.25000000  0.25000000  0.25000000  1
  Hf  Hf1  1  0.75000000  0.75000000  0.75000000  1
  Re  Re0  1  0.50000000  0.50000000  0.50000000  1
  Tc  Tc0  1  0.00000000  0.00000000  0.00000000  1
loop_
_geom_bond_atom_site_label_1
_geom_bond_atom_site_label_2
_geom_bond_distance
_geom_bond_site_symmetry_2
Hf0 Tc0 2.832261 1_565
Hf0 Re0 2.832261 1_545
Hf0 Re0 2.832261 1_555
Hf0 Re0 2.832261 1_554
Hf0 Tc0 2.832261 1_556
Hf0 Tc0 2.832261 1_555
Hf0 Tc0 2.832261 1_655
Hf0 Re0 2.832261 1_455
Hf1 Tc0 2.832261 1_656
Hf1 Tc0 2.832261 1_666
Hf1 Re0 2.832261 1_555
Hf1 Tc0 2.832261 1_665
Hf1 Re0 2.832261 1_556
Hf1 Re0 2.832261 1_565
Hf1 Re0 2.832261 1_655
Hf1 Tc0 2.832261 1_566
