# generated using pymatgen
data_LaTaN3
_symmetry_space_group_name_H-M   'P 1'
_cell_length_a   5.76324700
_cell_length_b   7.11636800
_cell_length_c   8.33283623
_cell_angle_alpha   54.33877234
_cell_angle_beta   90.00000000
_cell_angle_gamma   90.00000000
_symmetry_Int_Tables_number   1
_chemical_formula_structural   LaTaN3
_chemical_formula_sum   'La4 Ta4 N12'
_cell_volume   277.67079811
_cell_formula_units_Z   4
loop_
 _symmetry_equiv_pos_site_id
 _symmetry_equiv_pos_as_xyz
  1  'x, y, z'
loop_
 _atom_site_type_symbol
 _atom_site_label
 _atom_site_symmetry_multiplicity
 _atom_site_fract_x
 _atom_site_fract_y
 _atom_site_fract_z
 _atom_site_occupancy
  La  La0  1  0.24447000  0.76080800  0.62270400  1
  La  La1  1  0.75553000  0.23919200  0.37729600  1
  La  La2  1  0.25553000  0.76080800  0.12270400  1
  La  La3  1  0.74447000  0.23919200  0.87729600  1
  Ta  Ta0  1  0.72557500  0.77204600  0.85883800  1
  Ta  Ta1  1  0.22557500  0.22795400  0.64116200  1
  Ta  Ta2  1  0.27442500  0.22795400  0.14116200  1
  Ta  Ta3  1  0.77442500  0.77204600  0.35883800  1
  N  N0  1  0.23421300  0.26936300  0.36328800  1
  N  N1  1  0.26578700  0.26936300  0.86328800  1
  N  N2  1  0.53666800  0.06152300  0.70863900  1
  N  N3  1  0.03666800  0.93847700  0.79136100  1
  N  N4  1  0.46333200  0.93847700  0.29136100  1
  N  N5  1  0.76578700  0.73063700  0.63671200  1
  N  N6  1  0.90068400  0.42086400  0.53785200  1
  N  N7  1  0.09931600  0.57913600  0.46214800  1
  N  N8  1  0.73421300  0.73063700  0.13671200  1
  N  N9  1  0.96333200  0.06152300  0.20863900  1
  N  N10  1  0.59931600  0.42086400  0.03785200  1
  N  N11  1  0.40068400  0.57913600  0.96214800  1
loop_
_geom_bond_atom_site_label_1
_geom_bond_atom_site_label_2
_geom_bond_distance
_geom_bond_site_symmetry_2
La0 N7 2.485558 1_555
La0 N11 2.493742 1_555
La0 N4 2.596638 1_555
La0 N3 2.660801 1_555
La0 N5 2.764291 1_455
La0 N1 2.844343 1_555
La0 N0 2.941461 1_565
La0 N5 3.009551 1_555
La0 N2 3.116893 1_565
La0 N9 3.240431 1_465
La1 N6 2.485558 1_555
La1 N10 2.493742 1_555
La1 N2 2.596638 1_555
La1 N9 2.660801 1_555
La1 N0 2.764291 1_655
La1 N8 2.844343 1_555
La1 N5 2.941461 1_545
La1 N0 3.009551 1_555
La1 N4 3.116893 1_545
La1 N3 3.240431 1_645
La2 N11 2.485558 1_554
La2 N7 2.493742 1_555
La2 N3 2.596638 1_554
La2 N4 2.660801 1_555
La2 N8 2.764291 1_555
La2 N0 2.844343 1_555
La2 N1 2.941461 1_564
La2 N8 3.009551 1_455
La2 N9 3.116893 1_465
La2 N2 3.240431 1_564
La3 N10 2.485558 1_556
La3 N6 2.493742 1_555
La3 N9 2.596638 1_556
La3 N2 2.660801 1_555
La3 N1 2.764291 1_555
La3 N5 2.844343 1_555
La3 N8 2.941461 1_546
La3 N1 3.009551 1_655
La3 N3 3.116893 1_645
La3 N4 3.240431 1_546
N0 Ta2 2.049999 1_555
N0 Ta1 2.157585 1_555
N1 Ta1 2.049999 1_555
N1 Ta2 2.157585 1_556
N2 Ta0 1.997304 1_545
N2 Ta1 2.038859 1_555
N3 Ta1 1.997304 1_565
N3 Ta0 2.038859 1_455
N4 Ta2 1.997304 1_565
N4 Ta3 2.038859 1_555
N5 Ta0 2.049999 1_555
N5 Ta3 2.157585 1_555
N6 N7 1.465805 1_655
N6 Ta3 2.157224 1_555
N6 Ta1 2.180305 1_655
N7 Ta1 2.157224 1_555
N7 Ta3 2.180305 1_455
N8 Ta3 2.049999 1_555
N8 Ta0 2.157585 1_554
N9 Ta3 1.997304 1_545
N9 Ta2 2.038859 1_655
N10 N11 1.465805 1_554
N10 Ta0 2.157224 1_554
N10 Ta2 2.180305 1_555
N11 Ta2 2.157224 1_556
N11 Ta0 2.180305 1_555
