# generated using pymatgen
data_Sm3Zr
_symmetry_space_group_name_H-M   'P 1'
_cell_length_a   6.03925368
_cell_length_b   6.03925368
_cell_length_c   6.03925368
_cell_angle_alpha   131.43771120
_cell_angle_beta   131.43771120
_cell_angle_gamma   71.11856397
_symmetry_Int_Tables_number   1
_chemical_formula_structural   Sm3Zr
_chemical_formula_sum   'Sm3 Zr1'
_cell_volume   121.20250689
_cell_formula_units_Z   1
loop_
 _symmetry_equiv_pos_site_id
 _symmetry_equiv_pos_as_xyz
  1  'x, y, z'
loop_
 _atom_site_type_symbol
 _atom_site_label
 _atom_site_symmetry_multiplicity
 _atom_site_fract_x
 _atom_site_fract_y
 _atom_site_fract_z
 _atom_site_occupancy
  Sm  Sm0  1  0.75000000  0.25000000  0.50000000  1
  Sm  Sm1  1  0.25000000  0.75000000  0.50000000  1
  Sm  Sm2  1  0.50000000  0.50000000  -0.00000000  1
  Zr  Zr0  1  -0.00000000  0.00000000  -0.00000000  1
loop_
_geom_bond_atom_site_label_1
_geom_bond_atom_site_label_2
_geom_bond_distance
_geom_bond_site_symmetry_2
Sm0 Sm2 3.493115 1_545
Sm0 Zr0 3.493115 1_656
Sm0 Zr0 3.493115 1_655
Sm0 Zr0 3.493115 1_666
Sm0 Sm2 3.493115 1_555
Sm0 Sm2 3.493115 1_556
Sm0 Sm2 3.493115 1_656
Sm0 Zr0 3.493115 1_555
Sm0 Sm1 3.512098 1_656
Sm0 Sm1 3.512098 1_544
Sm0 Sm1 3.512098 1_555
Sm0 Sm1 3.512098 1_645
Sm1 Zr0 3.493115 1_555
Sm1 Sm2 3.493115 1_566
Sm1 Zr0 3.493115 1_566
Sm1 Zr0 3.493115 1_565
Sm1 Sm2 3.493115 1_555
Sm1 Sm2 3.493115 1_556
Sm1 Zr0 3.493115 1_666
Sm1 Sm2 3.493115 1_455
Sm2 Zr0 3.512098 1_565
Sm2 Zr0 3.512098 1_655
Sm2 Zr0 3.512098 1_666
Sm2 Zr0 3.512098 1_554
