# generated using pymatgen
data_Si3MoPt2
_symmetry_space_group_name_H-M   'P 1'
_cell_length_a   3.49148667
_cell_length_b   9.20416689
_cell_length_c   5.49838402
_cell_angle_alpha   90.00000000
_cell_angle_beta   90.00000000
_cell_angle_gamma   90.00000000
_symmetry_Int_Tables_number   1
_chemical_formula_structural   Si3MoPt2
_chemical_formula_sum   'Si6 Mo2 Pt4'
_cell_volume   176.69731153
_cell_formula_units_Z   2
loop_
 _symmetry_equiv_pos_site_id
 _symmetry_equiv_pos_as_xyz
  1  'x, y, z'
loop_
 _atom_site_type_symbol
 _atom_site_label
 _atom_site_symmetry_multiplicity
 _atom_site_fract_x
 _atom_site_fract_y
 _atom_site_fract_z
 _atom_site_occupancy
  Si  Si0  1  0.49999900  0.43479031  0.17153684  1
  Si  Si1  1  0.49999900  0.77805235  0.18443195  1
  Si  Si2  1  -0.00000000  0.12687572  0.34467240  1
  Si  Si3  1  0.49999900  0.56520869  0.67153684  1
  Si  Si4  1  0.49999900  0.22194665  0.68443095  1
  Si  Si5  1  -0.00000000  0.87312428  0.84467240  1
  Mo  Mo0  1  0.00000000  0.60494170  0.99979769  1
  Mo  Mo1  1  0.00000000  0.39505830  0.49979769  1
  Pt  Pt0  1  0.00000000  0.28520035  0.00068416  1
  Pt  Pt1  1  0.49999900  0.02931976  0.00017796  1
  Pt  Pt2  1  -0.00000000  0.71479865  0.50068516  1
  Pt  Pt3  1  0.49999900  0.97068024  0.50017696  1
loop_
_geom_bond_atom_site_label_1
_geom_bond_atom_site_label_2
_geom_bond_distance
_geom_bond_site_symmetry_2
Mo0 Si0 2.528233 1_556
Mo0 Si0 2.528238 1_456
Mo0 Si3 2.537524 1_555
Mo0 Si3 2.537529 1_455
Mo0 Si1 2.572343 1_556
Mo0 Si1 2.572348 1_456
Mo0 Si5 2.611607 1_555
Mo1 Si3 2.528227 1_555
Mo1 Si3 2.528232 1_455
Mo1 Si0 2.537523 1_555
Mo1 Si0 2.537528 1_455
Mo1 Si4 2.572347 1_555
Mo1 Si4 2.572351 1_455
Mo1 Si2 2.611607 1_555
Pt0 Si2 2.387652 1_555
Pt0 Si0 2.413674 1_555
Pt0 Si0 2.413679 1_455
Pt0 Si4 2.531851 1_554
Pt0 Si4 2.531856 1_454
Pt1 Si5 2.417751 1_544
Pt1 Si5 2.417756 1_644
Pt1 Si4 2.481423 1_554
Pt1 Si1 2.524873 1_545
Pt1 Si2 2.727952 1_555
Pt1 Si2 2.727957 1_655
Pt2 Si5 2.387653 1_555
Pt2 Si3 2.413672 1_555
Pt2 Si3 2.413677 1_455
Pt2 Si1 2.531851 1_555
Pt2 Si1 2.531856 1_455
Pt3 Si2 2.417749 1_565
Pt3 Si2 2.417754 1_665
Pt3 Si1 2.481422 1_555
Pt3 Si4 2.524865 1_565
Pt3 Si5 2.727956 1_555
Pt3 Si5 2.727960 1_655
