# generated using pymatgen
data_Mg2SnO4
_symmetry_space_group_name_H-M   'P 1'
_cell_length_a   6.13760484
_cell_length_b   6.13760484
_cell_length_c   6.13760484
_cell_angle_alpha   60.00000000
_cell_angle_beta   60.00000000
_cell_angle_gamma   60.00000000
_symmetry_Int_Tables_number   1
_chemical_formula_structural   Mg2SnO4
_chemical_formula_sum   'Mg4 Sn2 O8'
_cell_volume   163.48645330
_cell_formula_units_Z   2
loop_
 _symmetry_equiv_pos_site_id
 _symmetry_equiv_pos_as_xyz
  1  'x, y, z'
loop_
 _atom_site_type_symbol
 _atom_site_label
 _atom_site_symmetry_multiplicity
 _atom_site_fract_x
 _atom_site_fract_y
 _atom_site_fract_z
 _atom_site_occupancy
  Mg  Mg0  1  0.12500000  0.12500000  0.62500000  1
  Mg  Mg1  1  0.12500000  0.12500000  0.12500000  1
  Mg  Mg2  1  0.62500000  0.12500000  0.12500000  1
  Mg  Mg3  1  0.12500000  0.62500000  0.12500000  1
  Sn  Sn0  1  0.75000000  0.75000000  0.75000000  1
  Sn  Sn1  1  0.50000000  0.50000000  0.50000000  1
  O  O0  1  0.88273600  0.35179300  0.88273600  1
  O  O1  1  0.35179300  0.88273600  0.88273600  1
  O  O2  1  0.88273600  0.88273600  0.88273600  1
  O  O3  1  0.36726400  0.36726400  0.89820700  1
  O  O4  1  0.88273600  0.88273600  0.35179300  1
  O  O5  1  0.36726400  0.89820700  0.36726400  1
  O  O6  1  0.89820700  0.36726400  0.36726400  1
  O  O7  1  0.36726400  0.36726400  0.36726400  1
loop_
_geom_bond_atom_site_label_1
_geom_bond_atom_site_label_2
_geom_bond_distance
_geom_bond_site_symmetry_2
Mg0 O7 2.104966 1_555
Mg0 O2 2.104966 1_445
Mg0 O1 2.104971 1_545
Mg0 O0 2.104971 1_455
Mg0 O5 2.104971 1_545
Mg0 O6 2.104971 1_455
Mg1 O3 2.104966 1_554
Mg1 O5 2.104966 1_545
Mg1 O6 2.104966 1_455
Mg1 O1 2.104966 1_544
Mg1 O4 2.104966 1_445
Mg1 O0 2.104966 1_454
Mg2 O7 2.104966 1_555
Mg2 O2 2.104966 1_544
Mg2 O0 2.104971 1_554
Mg2 O4 2.104971 1_545
Mg2 O3 2.104971 1_554
Mg2 O5 2.104971 1_545
Mg3 O7 2.104966 1_555
Mg3 O2 2.104966 1_454
Mg3 O4 2.104971 1_455
Mg3 O1 2.104971 1_554
Mg3 O3 2.104971 1_554
Mg3 O6 2.104971 1_455
O0 Sn0 1.995548 1_555
O1 Sn0 1.995548 1_555
O2 Sn0 1.995553 1_555
O3 Sn1 1.995548 1_555
O4 Sn0 1.995548 1_555
O5 Sn1 1.995548 1_555
O6 Sn1 1.995548 1_555
O7 Sn1 1.995553 1_555
