# generated using pymatgen
data_Nb3Ni
_symmetry_space_group_name_H-M   'P 1'
_cell_length_a   4.04572600
_cell_length_b   4.04572600
_cell_length_c   4.04572600
_cell_angle_alpha   90.00000000
_cell_angle_beta   90.00000000
_cell_angle_gamma   90.00000000
_symmetry_Int_Tables_number   1
_chemical_formula_structural   Nb3Ni
_chemical_formula_sum   'Nb3 Ni1'
_cell_volume   66.22003401
_cell_formula_units_Z   1
loop_
 _symmetry_equiv_pos_site_id
 _symmetry_equiv_pos_as_xyz
  1  'x, y, z'
loop_
 _atom_site_type_symbol
 _atom_site_label
 _atom_site_symmetry_multiplicity
 _atom_site_fract_x
 _atom_site_fract_y
 _atom_site_fract_z
 _atom_site_occupancy
  Nb  Nb0  1  0.00000000  0.50000000  0.50000000  1
  Nb  Nb1  1  0.50000000  0.50000000  0.00000000  1
  Nb  Nb2  1  0.50000000  0.00000000  0.50000000  1
  Ni  Ni0  1  0.00000000  0.00000000  0.00000000  1
loop_
_geom_bond_atom_site_label_1
_geom_bond_atom_site_label_2
_geom_bond_distance
_geom_bond_site_symmetry_2
Nb0 Ni0 2.860760 1_556
Nb0 Ni0 2.860760 1_555
Nb0 Nb1 2.860760 1_455
Nb0 Ni0 2.860760 1_565
Nb0 Nb1 2.860760 1_456
Nb0 Nb2 2.860760 1_565
Nb0 Nb1 2.860760 1_556
Nb0 Nb1 2.860760 1_555
Nb0 Nb2 2.860760 1_555
Nb0 Nb2 2.860760 1_465
Nb0 Nb2 2.860760 1_455
Nb0 Ni0 2.860760 1_566
Nb1 Ni0 2.860760 1_665
Nb1 Nb2 2.860760 1_564
Nb1 Ni0 2.860760 1_555
Nb1 Ni0 2.860760 1_565
Nb1 Nb2 2.860760 1_565
Nb1 Nb2 2.860760 1_555
Nb1 Nb2 2.860760 1_554
Nb1 Ni0 2.860760 1_655
Nb2 Ni0 2.860760 1_556
Nb2 Ni0 2.860760 1_555
Nb2 Ni0 2.860760 1_656
Nb2 Ni0 2.860760 1_655
