# generated using pymatgen
data_PmY
_symmetry_space_group_name_H-M   'P 1'
_cell_length_a   7.37501120
_cell_length_b   7.37466219
_cell_length_c   11.86267904
_cell_angle_alpha   89.99885595
_cell_angle_beta   89.99908941
_cell_angle_gamma   120.00105610
_symmetry_Int_Tables_number   1
_chemical_formula_structural   PmY
_chemical_formula_sum   'Pm8 Y8'
_cell_volume   558.74494269
_cell_formula_units_Z   8
loop_
 _symmetry_equiv_pos_site_id
 _symmetry_equiv_pos_as_xyz
  1  'x, y, z'
loop_
 _atom_site_type_symbol
 _atom_site_label
 _atom_site_symmetry_multiplicity
 _atom_site_fract_x
 _atom_site_fract_y
 _atom_site_fract_z
 _atom_site_occupancy
  Pm  Pm0_0  1  0.33335012  0.16668801  0.37502577  1
  Pm  Pm0_1  1  0.33335012  0.16668801  0.87502577  1
  Pm  Pm0_2  1  0.33335012  0.66668801  0.37502577  1
  Pm  Pm0_3  1  0.33335012  0.66668801  0.87502577  1
  Pm  Pm0_4  1  0.83335012  0.16668801  0.37502577  1
  Pm  Pm0_5  1  0.83335012  0.16668801  0.87502577  1
  Pm  Pm0_6  1  0.83335012  0.66668801  0.37502577  1
  Pm  Pm0_7  1  0.83335012  0.66668801  0.87502577  1
  Y  Y0_0  1  0.16665038  0.33331199  0.12497473  1
  Y  Y0_1  1  0.16665038  0.33331199  0.62497473  1
  Y  Y0_2  1  0.16665038  0.83331199  0.12497473  1
  Y  Y0_3  1  0.16665038  0.83331199  0.62497473  1
  Y  Y0_4  1  0.66665038  0.33331199  0.12497473  1
  Y  Y0_5  1  0.66665038  0.33331199  0.62497473  1
  Y  Y0_6  1  0.66665038  0.83331199  0.12497473  1
  Y  Y0_7  1  0.66665038  0.83331199  0.62497473  1
loop_
_geom_bond_atom_site_label_1
_geom_bond_atom_site_label_2
_geom_bond_distance
_geom_bond_site_symmetry_2
Pm0_0 Y0_5 3.650144 1_555
Pm0_0 Y0_1 3.650175 1_555
Pm0_0 Y0_3 3.650260 1_545
Pm0_0 Y0_4 3.651025 1_555
Pm0_0 Y0_0 3.651150 1_555
Pm0_0 Y0_2 3.651356 1_545
Pm0_0 Pm0_2 3.687331 1_545
Pm0_0 Pm0_2 3.687331 1_555
Pm0_0 Pm0_6 3.687359 1_445
Pm0_0 Pm0_6 3.687359 1_555
Pm0_0 Pm0_4 3.687506 1_555
Pm0_0 Pm0_4 3.687506 1_455
Pm0_1 Y0_4 3.650144 1_556
Pm0_1 Y0_0 3.650175 1_556
Pm0_1 Y0_2 3.650260 1_546
Pm0_1 Y0_5 3.651025 1_555
Pm0_1 Y0_1 3.651150 1_555
Pm0_1 Y0_3 3.651356 1_545
Pm0_1 Pm0_3 3.687331 1_545
Pm0_1 Pm0_3 3.687331 1_555
Pm0_1 Pm0_7 3.687359 1_445
Pm0_1 Pm0_7 3.687359 1_555
Pm0_1 Pm0_5 3.687506 1_555
Pm0_1 Pm0_5 3.687506 1_455
Pm0_2 Y0_7 3.650144 1_555
Pm0_2 Y0_3 3.650175 1_555
Pm0_2 Y0_1 3.650260 1_555
Pm0_2 Y0_6 3.651025 1_555
Pm0_2 Y0_2 3.651150 1_555
Pm0_2 Y0_0 3.651356 1_555
Pm0_2 Pm0_4 3.687359 1_455
Pm0_2 Pm0_4 3.687359 1_565
Pm0_2 Pm0_6 3.687506 1_455
Pm0_2 Pm0_6 3.687506 1_555
Pm0_3 Y0_6 3.650144 1_556
Pm0_3 Y0_2 3.650175 1_556
Pm0_3 Y0_0 3.650260 1_556
Pm0_3 Y0_7 3.651025 1_555
Pm0_3 Y0_3 3.651150 1_555
Pm0_3 Y0_1 3.651356 1_555
Pm0_3 Pm0_5 3.687359 1_565
Pm0_3 Pm0_5 3.687359 1_455
Pm0_3 Pm0_7 3.687506 1_455
Pm0_3 Pm0_7 3.687506 1_555
Pm0_4 Y0_1 3.650144 1_655
Pm0_4 Y0_5 3.650175 1_555
Pm0_4 Y0_7 3.650260 1_545
Pm0_4 Y0_0 3.651025 1_655
Pm0_4 Y0_4 3.651150 1_555
Pm0_4 Y0_6 3.651356 1_545
Pm0_4 Pm0_6 3.687331 1_555
Pm0_4 Pm0_6 3.687331 1_545
Pm0_5 Y0_0 3.650144 1_656
Pm0_5 Y0_4 3.650175 1_556
Pm0_5 Y0_6 3.650260 1_546
Pm0_5 Y0_1 3.651025 1_655
Pm0_5 Y0_5 3.651150 1_555
Pm0_5 Y0_7 3.651356 1_545
Pm0_5 Pm0_7 3.687331 1_545
Pm0_5 Pm0_7 3.687331 1_555
Pm0_6 Y0_3 3.650144 1_655
Pm0_6 Y0_7 3.650175 1_555
Pm0_6 Y0_5 3.650260 1_555
Pm0_6 Y0_2 3.651025 1_655
Pm0_6 Y0_6 3.651150 1_555
Pm0_6 Y0_4 3.651356 1_555
Pm0_7 Y0_2 3.650144 1_656
Pm0_7 Y0_6 3.650175 1_556
Pm0_7 Y0_4 3.650260 1_556
Pm0_7 Y0_3 3.651025 1_655
Pm0_7 Y0_7 3.651150 1_555
Pm0_7 Y0_5 3.651356 1_555
Y0_0 Y0_2 3.687331 1_555
Y0_0 Y0_2 3.687331 1_545
Y0_0 Y0_6 3.687359 1_445
Y0_0 Y0_6 3.687359 1_555
Y0_0 Y0_4 3.687506 1_555
Y0_0 Y0_4 3.687506 1_455
Y0_1 Y0_3 3.687331 1_555
Y0_1 Y0_3 3.687331 1_545
Y0_1 Y0_7 3.687359 1_445
Y0_1 Y0_7 3.687359 1_555
Y0_1 Y0_5 3.687506 1_455
Y0_1 Y0_5 3.687506 1_555
Y0_2 Y0_4 3.687359 1_565
Y0_2 Y0_4 3.687359 1_455
Y0_2 Y0_6 3.687506 1_455
Y0_2 Y0_6 3.687506 1_555
Y0_3 Y0_5 3.687359 1_455
Y0_3 Y0_5 3.687359 1_565
Y0_3 Y0_7 3.687506 1_455
Y0_3 Y0_7 3.687506 1_555
Y0_4 Y0_6 3.687331 1_555
Y0_4 Y0_6 3.687331 1_545
Y0_5 Y0_7 3.687331 1_545
Y0_5 Y0_7 3.687331 1_555
