# generated using pymatgen
data_Li4TiO4
_symmetry_space_group_name_H-M   'P 1'
_cell_length_a   5.38594575
_cell_length_b   5.38594588
_cell_length_c   6.10530546
_cell_angle_alpha   90.00000000
_cell_angle_beta   90.00000000
_cell_angle_gamma   93.97097094
_symmetry_Int_Tables_number   1
_chemical_formula_structural   Li4TiO4
_chemical_formula_sum   'Li8 Ti2 O8'
_cell_volume   176.68003549
_cell_formula_units_Z   2
loop_
 _symmetry_equiv_pos_site_id
 _symmetry_equiv_pos_as_xyz
  1  'x, y, z'
loop_
 _atom_site_type_symbol
 _atom_site_label
 _atom_site_symmetry_multiplicity
 _atom_site_fract_x
 _atom_site_fract_y
 _atom_site_fract_z
 _atom_site_occupancy
  Li  Li0  1  0.15873388  0.84126612  -0.00000000  1
  Li  Li1  1  0.84126612  0.15873388  0.50000000  1
  Li  Li2  1  0.84126612  0.15873388  -0.00000000  1
  Li  Li3  1  0.15873388  0.84126612  0.50000000  1
  Li  Li4  1  0.58522393  0.87822824  0.25000000  1
  Li  Li5  1  0.41477607  0.12177176  0.75000000  1
  Li  Li6  1  0.87822824  0.58522393  0.25000000  1
  Li  Li7  1  0.12177176  0.41477607  0.75000000  1
  Ti  Ti0  1  0.34143028  0.34143028  0.25000000  1
  Ti  Ti1  1  0.65856972  0.65856972  0.75000000  1
  O  O0  1  0.27071655  0.66892913  0.25000000  1
  O  O1  1  0.72928345  0.33107087  0.75000000  1
  O  O2  1  0.20278088  0.20278088  0.00041859  1
  O  O3  1  0.79721912  0.79721912  0.50041859  1
  O  O4  1  0.20278088  0.20278088  0.49958141  1
  O  O5  1  0.79721912  0.79721912  0.99958141  1
  O  O6  1  0.66892913  0.27071655  0.25000000  1
  O  O7  1  0.33107087  0.72928345  0.75000000  1
loop_
_geom_bond_atom_site_label_1
_geom_bond_atom_site_label_2
_geom_bond_distance
_geom_bond_site_symmetry_2
Li0 O7 1.905920 1_554
Li0 O0 1.905920 1_555
Li0 O5 1.945123 1_454
Li0 O2 1.945123 1_565
Li1 O6 1.905920 1_555
Li1 O1 1.905920 1_555
Li1 O4 1.945123 1_655
Li1 O3 1.945123 1_545
Li2 O6 1.905920 1_555
Li2 O1 1.905920 1_554
Li2 O2 1.945123 1_655
Li2 O5 1.945123 1_544
Li3 O7 1.905920 1_555
Li3 O0 1.905920 1_555
Li3 O3 1.945123 1_455
Li3 O4 1.945123 1_565
Li4 O0 1.968664 1_555
Li4 O5 1.974979 1_554
Li4 O3 1.974979 1_555
Li4 O6 2.130708 1_565
Li5 O1 1.968664 1_555
Li5 O2 1.974979 1_556
Li5 O4 1.974979 1_555
Li5 O7 2.130708 1_545
Li6 O6 1.968664 1_555
Li6 O3 1.974979 1_555
Li6 O5 1.974979 1_554
Li6 O0 2.130708 1_655
Li7 O7 1.968664 1_555
Li7 O2 1.974979 1_556
Li7 O4 1.974979 1_555
Li7 O1 2.130708 1_455
O0 Ti0 1.830140 1_555
O1 Ti1 1.830140 1_555
O2 Ti0 1.833013 1_555
O3 Ti1 1.833013 1_555
O4 Ti0 1.833013 1_555
O5 Ti1 1.833013 1_555
O6 Ti0 1.830140 1_555
O7 Ti1 1.830140 1_555
