# generated using pymatgen
data_RbF3
_symmetry_space_group_name_H-M   'P 1'
_cell_length_a   5.20958113
_cell_length_b   5.20958113
_cell_length_c   5.20958113
_cell_angle_alpha   134.05214810
_cell_angle_beta   134.05214810
_cell_angle_gamma   67.00656907
_symmetry_Int_Tables_number   1
_chemical_formula_structural   RbF3
_chemical_formula_sum   'Rb1 F3'
_cell_volume   71.84271569
_cell_formula_units_Z   1
loop_
 _symmetry_equiv_pos_site_id
 _symmetry_equiv_pos_as_xyz
  1  'x, y, z'
loop_
 _atom_site_type_symbol
 _atom_site_label
 _atom_site_symmetry_multiplicity
 _atom_site_fract_x
 _atom_site_fract_y
 _atom_site_fract_z
 _atom_site_occupancy
  Rb  Rb0  1  0.00000000  0.00000000  0.00000000  1
  F  F0  1  0.75000000  0.25000000  0.50000000  1
  F  F1  1  0.25000000  0.75000000  0.50000000  1
  F  F2  1  0.50000000  0.50000000  0.00000000  1
loop_
_geom_bond_atom_site_label_1
_geom_bond_atom_site_label_2
_geom_bond_distance
_geom_bond_site_symmetry_2
F0 Rb0 2.975267 1_666
F0 Rb0 2.975267 1_656
F0 Rb0 2.975267 1_655
F0 Rb0 2.975267 1_555
F1 Rb0 2.975267 1_565
F1 Rb0 2.975267 1_555
F1 Rb0 2.975267 1_566
F1 Rb0 2.975267 1_666
F2 Rb0 2.875610 1_565
F2 Rb0 2.875610 1_666
F2 Rb0 2.875610 1_655
F2 Rb0 2.875610 1_554
