# generated using pymatgen
data_Sm3Th
_symmetry_space_group_name_H-M   'P 1'
_cell_length_a   6.25808729
_cell_length_b   6.25808729
_cell_length_c   6.25808729
_cell_angle_alpha   131.78956214
_cell_angle_beta   131.78956214
_cell_angle_gamma   70.56159434
_symmetry_Int_Tables_number   1
_chemical_formula_structural   Sm3Th
_chemical_formula_sum   'Sm3 Th1'
_cell_volume   133.49089632
_cell_formula_units_Z   1
loop_
 _symmetry_equiv_pos_site_id
 _symmetry_equiv_pos_as_xyz
  1  'x, y, z'
loop_
 _atom_site_type_symbol
 _atom_site_label
 _atom_site_symmetry_multiplicity
 _atom_site_fract_x
 _atom_site_fract_y
 _atom_site_fract_z
 _atom_site_occupancy
  Sm  Sm0  1  0.75000000  0.25000000  0.50000000  1
  Sm  Sm1  1  0.25000000  0.75000000  0.50000000  1
  Sm  Sm2  1  0.50000000  0.50000000  0.00000000  1
  Th  Th0  1  0.00000000  0.00000000  0.00000000  1
loop_
_geom_bond_atom_site_label_1
_geom_bond_atom_site_label_2
_geom_bond_distance
_geom_bond_site_symmetry_2
Sm0 Th0 3.613474 1_666
Sm0 Sm2 3.613474 1_545
Sm0 Th0 3.613474 1_656
Sm0 Sm2 3.613474 1_555
Sm0 Th0 3.613474 1_555
Sm0 Sm2 3.613474 1_556
Sm0 Th0 3.613474 1_655
Sm0 Sm2 3.613474 1_656
Sm0 Sm1 3.614571 1_544
Sm0 Sm1 3.614571 1_555
Sm0 Sm1 3.614571 1_645
Sm0 Sm1 3.614571 1_656
Sm1 Th0 3.613474 1_666
Sm1 Sm2 3.613474 1_566
Sm1 Th0 3.613474 1_565
Sm1 Sm2 3.613474 1_455
Sm1 Sm2 3.613474 1_555
Sm1 Th0 3.613474 1_555
Sm1 Sm2 3.613474 1_556
Sm1 Th0 3.613474 1_566
Sm2 Th0 3.614571 1_655
Sm2 Th0 3.614571 1_554
Sm2 Th0 3.614571 1_565
Sm2 Th0 3.614571 1_666
