# generated using pymatgen
data_ZrCr2
_symmetry_space_group_name_H-M   'P 1'
_cell_length_a   5.02739671
_cell_length_b   5.02739754
_cell_length_c   5.02739590
_cell_angle_alpha   60.00000407
_cell_angle_beta   59.99999847
_cell_angle_gamma   59.99999672
_symmetry_Int_Tables_number   1
_chemical_formula_structural   ZrCr2
_chemical_formula_sum   'Zr2 Cr4'
_cell_volume   89.84925311
_cell_formula_units_Z   2
loop_
 _symmetry_equiv_pos_site_id
 _symmetry_equiv_pos_as_xyz
  1  'x, y, z'
loop_
 _atom_site_type_symbol
 _atom_site_label
 _atom_site_symmetry_multiplicity
 _atom_site_fract_x
 _atom_site_fract_y
 _atom_site_fract_z
 _atom_site_occupancy
  Zr  Zr0  1  0.87500000  0.87500000  0.87500000  1
  Zr  Zr1  1  0.12500000  0.12500000  0.12500000  1
  Cr  Cr0  1  0.50000000  0.50000000  0.50000000  1
  Cr  Cr1  1  0.50000000  0.50000000  0.00000000  1
  Cr  Cr2  1  0.00000000  0.50000000  0.50000000  1
  Cr  Cr3  1  0.50000000  -0.00000000  0.50000000  1
loop_
_geom_bond_atom_site_label_1
_geom_bond_atom_site_label_2
_geom_bond_distance
_geom_bond_site_symmetry_2
Zr0 Zr1 3.078639 1_665
Zr0 Zr1 3.078639 1_566
Zr0 Zr1 3.078639 1_666
Zr0 Zr1 3.078640 1_656
Cr0 Cr1 2.513698 1_556
Cr0 Cr1 2.513698 1_555
Cr0 Cr2 2.513698 1_555
Cr0 Cr2 2.513698 1_655
Cr0 Cr3 2.513699 1_565
Cr0 Cr3 2.513699 1_555
Cr0 Zr1 2.947572 1_655
Cr0 Zr0 2.947572 1_455
Cr0 Zr1 2.947573 1_556
Cr0 Zr0 2.947573 1_554
Cr0 Zr0 2.947573 1_545
Cr0 Zr1 2.947573 1_565
Cr1 Cr2 2.513698 1_555
Cr1 Cr2 2.513698 1_654
Cr1 Cr3 2.513699 1_555
Cr1 Cr3 2.513699 1_564
Cr1 Zr0 2.947572 1_454
Cr1 Zr1 2.947572 1_655
Cr1 Zr1 2.947573 1_565
Cr1 Zr0 2.947573 1_544
Cr1 Zr1 2.947573 1_555
Cr1 Zr0 2.947573 1_554
Cr2 Cr3 2.513698 1_465
Cr2 Cr3 2.513698 1_555
Cr2 Zr1 2.947572 1_556
Cr2 Zr0 2.947572 1_454
Cr2 Zr0 2.947572 1_455
Cr2 Zr1 2.947572 1_555
Cr2 Zr0 2.947573 1_445
Cr2 Zr1 2.947573 1_565
Cr3 Zr1 2.947572 1_556
Cr3 Zr0 2.947572 1_544
Cr3 Zr0 2.947572 1_545
Cr3 Zr1 2.947572 1_555
Cr3 Zr0 2.947573 1_445
Cr3 Zr1 2.947573 1_655
