# generated using pymatgen
data_NdTlTe2
_symmetry_space_group_name_H-M   'P 1'
_cell_length_a   4.58089175
_cell_length_b   4.58089092
_cell_length_c   8.52692008
_cell_angle_alpha   74.41821672
_cell_angle_beta   74.41821387
_cell_angle_gamma   59.99999045
_symmetry_Int_Tables_number   1
_chemical_formula_structural   NdTlTe2
_chemical_formula_sum   'Nd1 Tl1 Te2'
_cell_volume   147.31870292
_cell_formula_units_Z   1
loop_
 _symmetry_equiv_pos_site_id
 _symmetry_equiv_pos_as_xyz
  1  'x, y, z'
loop_
 _atom_site_type_symbol
 _atom_site_label
 _atom_site_symmetry_multiplicity
 _atom_site_fract_x
 _atom_site_fract_y
 _atom_site_fract_z
 _atom_site_occupancy
  Nd  Nd0  1  0.00000000  0.00000000  -0.00000000  1
  Tl  Tl0  1  0.50000000  0.50000000  0.50000000  1
  Te  Te0  1  0.74048951  0.74048951  0.77853247  1
  Te  Te1  1  0.25951049  0.25951049  0.22146753  1
loop_
_geom_bond_atom_site_label_1
_geom_bond_atom_site_label_2
_geom_bond_distance
_geom_bond_site_symmetry_2
Nd0 Te1 3.196553 1_555
Nd0 Te0 3.196553 1_444
Nd0 Te0 3.196555 1_454
Nd0 Te1 3.196555 1_545
Nd0 Te0 3.196556 1_544
Nd0 Te1 3.196556 1_455
Te0 Tl0 3.477488 1_565
Te0 Tl0 3.477488 1_655
Te0 Tl0 3.477491 1_555
Te1 Tl0 3.477488 1_545
Te1 Tl0 3.477488 1_455
Te1 Tl0 3.477491 1_555
