# generated using pymatgen
data_KAgBr3
_symmetry_space_group_name_H-M   'P 1'
_cell_length_a   7.42791303
_cell_length_b   7.42791266
_cell_length_c   7.42791369
_cell_angle_alpha   61.64015932
_cell_angle_beta   61.64014645
_cell_angle_gamma   61.64015786
_symmetry_Int_Tables_number   1
_chemical_formula_structural   KAgBr3
_chemical_formula_sum   'K2 Ag2 Br6'
_cell_volume   300.45017184
_cell_formula_units_Z   2
loop_
 _symmetry_equiv_pos_site_id
 _symmetry_equiv_pos_as_xyz
  1  'x, y, z'
loop_
 _atom_site_type_symbol
 _atom_site_label
 _atom_site_symmetry_multiplicity
 _atom_site_fract_x
 _atom_site_fract_y
 _atom_site_fract_z
 _atom_site_occupancy
  K  K0  1  0.25767897  0.25767897  0.25767897  1
  K  K1  1  0.75767897  0.75767897  0.75767897  1
  Ag  Ag0  1  0.00479249  0.00479249  0.00479249  1
  Ag  Ag1  1  0.50479249  0.50479249  0.50479249  1
  Br  Br0  1  0.25632222  0.81108100  0.69862432  1
  Br  Br1  1  0.81108100  0.69862432  0.25632222  1
  Br  Br2  1  0.69862432  0.25632222  0.81108100  1
  Br  Br3  1  0.19862432  0.31108100  0.75632222  1
  Br  Br4  1  0.75632222  0.19862432  0.31108100  1
  Br  Br5  1  0.31108100  0.75632222  0.19862432  1
loop_
_geom_bond_atom_site_label_1
_geom_bond_atom_site_label_2
_geom_bond_distance
_geom_bond_site_symmetry_2
Ag0 Br1 2.692803 1_445
Ag0 Br0 2.692803 1_544
Ag0 Br2 2.692804 1_454
Ag0 Br3 2.693253 1_554
Ag0 Br4 2.693253 1_455
Ag0 Br5 2.693253 1_545
Ag1 Br3 2.692803 1_555
Ag1 Br4 2.692803 1_555
Ag1 Br5 2.692804 1_555
Ag1 Br1 2.693253 1_555
Ag1 Br0 2.693253 1_555
Ag1 Br2 2.693253 1_555
Br0 K0 3.377942 1_565
Br0 K1 3.708832 1_455
Br0 K1 3.768479 1_555
Br1 K0 3.377942 1_655
Br1 K1 3.708832 1_554
Br1 K1 3.768480 1_555
Br2 K0 3.377942 1_556
Br2 K1 3.708832 1_545
Br2 K1 3.768479 1_555
Br3 K1 3.377942 1_455
Br3 K0 3.708832 1_555
Br3 K0 3.768480 1_556
Br4 K1 3.377942 1_545
Br4 K0 3.708832 1_555
Br4 K0 3.768479 1_655
Br5 K1 3.377942 1_554
Br5 K0 3.708832 1_555
Br5 K0 3.768479 1_565
