# generated using pymatgen
data_PbAuO2
_symmetry_space_group_name_H-M   'P 1'
_cell_length_a   3.66959900
_cell_length_b   6.58698900
_cell_length_c   6.66071771
_cell_angle_alpha   68.97563377
_cell_angle_beta   90.00000000
_cell_angle_gamma   90.00000000
_symmetry_Int_Tables_number   1
_chemical_formula_structural   PbAuO2
_chemical_formula_sum   'Pb2 Au2 O4'
_cell_volume   150.28213996
_cell_formula_units_Z   2
loop_
 _symmetry_equiv_pos_site_id
 _symmetry_equiv_pos_as_xyz
  1  'x, y, z'
loop_
 _atom_site_type_symbol
 _atom_site_label
 _atom_site_symmetry_multiplicity
 _atom_site_fract_x
 _atom_site_fract_y
 _atom_site_fract_z
 _atom_site_occupancy
  Pb  Pb0  1  0.00000000  0.00000000  0.50000000  1
  Pb  Pb1  1  0.50000000  0.50000000  0.50000000  1
  Au  Au0  1  0.00000000  0.50000000  0.00000000  1
  Au  Au1  1  0.50000000  0.00000000  0.00000000  1
  O  O0  1  0.50000000  0.13895200  0.67448800  1
  O  O1  1  0.00000000  0.41527000  0.32500300  1
  O  O2  1  0.50000000  0.86104800  0.32551200  1
  O  O3  1  0.00000000  0.58473000  0.67499700  1
loop_
_geom_bond_atom_site_label_1
_geom_bond_atom_site_label_2
_geom_bond_distance
_geom_bond_site_symmetry_2
Au0 O1 2.032423 1_555
Au0 O3 2.032423 1_554
Au1 O2 2.028466 1_545
Au1 O0 2.028466 1_554
O0 Pb1 2.241298 1_555
O0 Pb0 2.513610 1_655
O0 Pb0 2.513610 1_555
O1 Pb1 2.345933 1_555
O1 Pb1 2.345933 1_455
O1 Pb0 2.559918 1_555
O2 Pb1 2.241298 1_555
O2 Pb0 2.513610 1_665
O2 Pb0 2.513610 1_565
O3 Pb1 2.345933 1_455
O3 Pb1 2.345933 1_555
O3 Pb0 2.559918 1_565
