# generated using pymatgen
data_RbInCl3
_symmetry_space_group_name_H-M   'P 1'
_cell_length_a   5.45233329
_cell_length_b   5.45233329
_cell_length_c   5.45295971
_cell_angle_alpha   89.83798278
_cell_angle_beta   89.83798278
_cell_angle_gamma   90.13919047
_symmetry_Int_Tables_number   1
_chemical_formula_structural   RbInCl3
_chemical_formula_sum   'Rb1 In1 Cl3'
_cell_volume   162.10347222
_cell_formula_units_Z   1
loop_
 _symmetry_equiv_pos_site_id
 _symmetry_equiv_pos_as_xyz
  1  'x, y, z'
loop_
 _atom_site_type_symbol
 _atom_site_label
 _atom_site_symmetry_multiplicity
 _atom_site_fract_x
 _atom_site_fract_y
 _atom_site_fract_z
 _atom_site_occupancy
  Rb  Rb0  1  0.99830800  0.99830800  0.00286400  1
  In  In0  1  0.49845000  0.49845000  0.51423700  1
  Cl  Cl0  1  0.99990700  0.49583000  0.51589400  1
  Cl  Cl1  1  0.50465700  0.50465700  0.01437600  1
  Cl  Cl2  1  0.49583000  0.99990700  0.51589400  1
loop_
_geom_bond_atom_site_label_1
_geom_bond_atom_site_label_2
_geom_bond_distance
_geom_bond_site_symmetry_2
Cl0 In0 2.718215 1_655
Cl0 In0 2.734223 1_555
Cl0 Rb0 3.790632 1_546
Cl0 Rb0 3.820777 1_556
Cl0 Rb0 3.902269 1_545
Cl0 Rb0 3.910115 1_555
Cl1 In0 2.725950 1_555
Cl1 In0 2.727848 1_554
Cl1 Rb0 3.802067 1_555
Cl1 Rb0 3.860885 1_455
Cl1 Rb0 3.860885 1_545
Cl1 Rb0 3.900349 1_445
Cl2 In0 2.718215 1_565
Cl2 In0 2.734223 1_555
Cl2 Rb0 3.790632 1_456
Cl2 Rb0 3.820777 1_556
Cl2 Rb0 3.902269 1_455
Cl2 Rb0 3.910115 1_555
