# generated using pymatgen
data_Sr4IrO6
_symmetry_space_group_name_H-M   'P 1'
_cell_length_a   6.89105451
_cell_length_b   6.89105451
_cell_length_c   6.89105365
_cell_angle_alpha   90.26585367
_cell_angle_beta   90.26585367
_cell_angle_gamma   90.26584963
_symmetry_Int_Tables_number   1
_chemical_formula_structural   Sr4IrO6
_chemical_formula_sum   'Sr8 Ir2 O12'
_cell_volume   327.22232974
_cell_formula_units_Z   2
loop_
 _symmetry_equiv_pos_site_id
 _symmetry_equiv_pos_as_xyz
  1  'x, y, z'
loop_
 _atom_site_type_symbol
 _atom_site_label
 _atom_site_symmetry_multiplicity
 _atom_site_fract_x
 _atom_site_fract_y
 _atom_site_fract_z
 _atom_site_occupancy
  Sr  Sr0  1  0.75000000  0.75000000  0.75000000  1
  Sr  Sr1  1  0.25000000  0.25000000  0.25000000  1
  Sr  Sr2  1  0.25000000  0.61581893  0.88418107  1
  Sr  Sr3  1  0.88418107  0.25000000  0.61581893  1
  Sr  Sr4  1  0.61581893  0.88418107  0.25000000  1
  Sr  Sr5  1  0.75000000  0.38418107  0.11581893  1
  Sr  Sr6  1  0.11581893  0.75000000  0.38418107  1
  Sr  Sr7  1  0.38418107  0.11581893  0.75000000  1
  Ir  Ir0  1  0.50000000  0.50000000  0.50000000  1
  Ir  Ir1  1  0.00000000  0.00000000  0.00000000  1
  O  O0  1  0.07237857  0.28471801  0.94120362  1
  O  O1  1  0.94120362  0.07237857  0.28471801  1
  O  O2  1  0.28471801  0.94120362  0.07237857  1
  O  O3  1  0.42762143  0.55879638  0.21528199  1
  O  O4  1  0.21528199  0.42762143  0.55879638  1
  O  O5  1  0.55879638  0.21528199  0.42762143  1
  O  O6  1  0.92762143  0.71528199  0.05879638  1
  O  O7  1  0.05879638  0.92762143  0.71528199  1
  O  O8  1  0.71528199  0.05879638  0.92762143  1
  O  O9  1  0.57237857  0.44120362  0.78471801  1
  O  O10  1  0.44120362  0.78471801  0.57237857  1
  O  O11  1  0.78471801  0.57237857  0.44120362  1
loop_
_geom_bond_atom_site_label_1
_geom_bond_atom_site_label_2
_geom_bond_distance
_geom_bond_site_symmetry_2
Ir0 O9 2.064600 1_555
Ir0 O3 2.064600 1_555
Ir0 O5 2.064600 1_555
Ir0 O10 2.064600 1_555
Ir0 O4 2.064600 1_555
Ir0 O11 2.064600 1_555
Ir1 O7 2.064600 1_544
Ir1 O1 2.064600 1_455
Ir1 O8 2.064600 1_454
Ir1 O2 2.064600 1_545
Ir1 O6 2.064600 1_445
Ir1 O0 2.064600 1_554
O0 Sr1 2.463083 1_556
O0 Sr3 2.594599 1_455
O0 Sr2 2.616353 1_555
O0 Sr5 2.623765 1_456
O0 Sr7 2.782560 1_555
O1 Sr1 2.463083 1_655
O1 Sr4 2.594600 1_545
O1 Sr3 2.616353 1_555
O1 Sr6 2.623765 1_645
O1 Sr5 2.782560 1_555
O2 Sr1 2.463083 1_565
O2 Sr2 2.594599 1_554
O2 Sr4 2.616353 1_555
O2 Sr7 2.623765 1_564
O2 Sr6 2.782560 1_555
O3 Sr1 2.463083 1_555
O3 Sr4 2.594600 1_555
O3 Sr2 2.616353 1_554
O3 Sr5 2.623765 1_555
O3 Sr6 2.782560 1_555
O4 Sr1 2.463083 1_555
O4 Sr2 2.594599 1_555
O4 Sr3 2.616353 1_455
O4 Sr6 2.623765 1_555
O4 Sr7 2.782560 1_555
O5 Sr1 2.463083 1_555
O5 Sr3 2.594599 1_555
O5 Sr4 2.616353 1_545
O5 Sr7 2.623765 1_555
O5 Sr5 2.782560 1_555
O6 Sr0 2.463083 1_554
O6 Sr6 2.594599 1_655
O6 Sr5 2.616353 1_555
O6 Sr2 2.623765 1_654
O6 Sr4 2.782560 1_555
O7 Sr0 2.463083 1_455
O7 Sr7 2.594600 1_565
O7 Sr6 2.616353 1_555
O7 Sr3 2.623765 1_465
O7 Sr2 2.782560 1_555
O8 Sr0 2.463083 1_545
O8 Sr5 2.594599 1_556
O8 Sr7 2.616353 1_555
O8 Sr4 2.623765 1_546
O8 Sr3 2.782560 1_555
O9 Sr0 2.463083 1_555
O9 Sr7 2.594600 1_555
O9 Sr5 2.616353 1_556
O9 Sr2 2.623765 1_555
O9 Sr3 2.782560 1_555
O10 Sr0 2.463083 1_555
O10 Sr6 2.594599 1_555
O10 Sr7 2.616353 1_565
O10 Sr4 2.623765 1_555
O10 Sr2 2.782560 1_555
O11 Sr0 2.463083 1_555
O11 Sr5 2.594599 1_555
O11 Sr6 2.616353 1_655
O11 Sr3 2.623765 1_555
O11 Sr4 2.782560 1_555
