# generated using pymatgen
data_Dy(Al2Cr)4
_symmetry_space_group_name_H-M   'P 1'
_cell_length_a   6.79825625
_cell_length_b   6.79825625
_cell_length_c   6.79825625
_cell_angle_alpha   97.89803488
_cell_angle_beta   97.89803488
_cell_angle_gamma   136.48372831
_symmetry_Int_Tables_number   1
_chemical_formula_structural   Dy(Al2Cr)4
_chemical_formula_sum   'Dy1 Al8 Cr4'
_cell_volume   200.92630298
_cell_formula_units_Z   1
loop_
 _symmetry_equiv_pos_site_id
 _symmetry_equiv_pos_as_xyz
  1  'x, y, z'
loop_
 _atom_site_type_symbol
 _atom_site_label
 _atom_site_symmetry_multiplicity
 _atom_site_fract_x
 _atom_site_fract_y
 _atom_site_fract_z
 _atom_site_occupancy
  Dy  Dy0  1  0.00000000  0.00000000  0.00000000  1
  Al  Al0  1  0.27795800  0.50000000  0.77795800  1
  Al  Al1  1  0.50000000  0.72204200  0.22204200  1
  Al  Al2  1  0.66246400  0.00000000  0.66246400  1
  Al  Al3  1  0.00000000  0.33753600  0.33753600  1
  Al  Al4  1  0.00000000  0.66246400  0.66246400  1
  Al  Al5  1  0.33753600  0.00000000  0.33753600  1
  Al  Al6  1  0.72204200  0.50000000  0.22204200  1
  Al  Al7  1  0.50000000  0.27795800  0.77795800  1
  Cr  Cr0  1  0.00000000  0.00000000  0.50000000  1
  Cr  Cr1  1  0.50000000  0.50000000  0.50000000  1
  Cr  Cr2  1  0.50000000  0.00000000  0.00000000  1
  Cr  Cr3  1  0.00000000  0.50000000  0.00000000  1
loop_
_geom_bond_atom_site_label_1
_geom_bond_atom_site_label_2
_geom_bond_distance
_geom_bond_site_symmetry_2
Al0 Cr1 2.575497 1_555
Al0 Cr0 2.575497 1_555
Al0 Cr2 2.575497 1_566
Al0 Cr3 2.575497 1_556
Al0 Al2 2.722890 1_565
Al0 Al2 2.722890 1_455
Al0 Al7 2.803914 1_555
Al0 Al1 2.803914 1_556
Al0 Al4 2.874817 1_555
Al0 Al3 2.874817 1_555
Al0 Dy0 3.206489 1_666
Al0 Dy0 3.206489 1_556
Al1 Cr0 2.575497 1_665
Al1 Cr1 2.575497 1_555
Al1 Cr3 2.575497 1_555
Al1 Cr2 2.575497 1_565
Al1 Al3 2.722890 1_555
Al1 Al3 2.722890 1_665
Al1 Al6 2.803914 1_555
Al1 Al2 2.874817 1_565
Al1 Al5 2.874817 1_565
Al1 Dy0 3.206489 1_665
Al1 Dy0 3.206489 1_555
Al2 Cr3 2.679889 1_656
Al2 Cr0 2.679889 1_655
Al2 Cr2 2.679889 1_556
Al2 Cr1 2.679889 1_545
Al2 Al7 2.874817 1_555
Al2 Al5 2.901361 1_555
Al2 Dy0 3.013941 1_656
Al3 Cr2 2.679889 1_455
Al3 Cr0 2.679889 1_555
Al3 Cr1 2.679889 1_555
Al3 Cr3 2.679889 1_555
Al3 Al6 2.874817 1_455
Al3 Al4 2.901361 1_555
Al3 Dy0 3.013941 1_555
Al4 Cr0 2.679889 1_565
Al4 Cr1 2.679889 1_455
Al4 Cr2 2.679889 1_566
Al4 Cr3 2.679889 1_556
Al4 Al7 2.722890 1_455
Al4 Al7 2.722890 1_565
Al4 Al6 2.874817 1_455
Al4 Dy0 3.013941 1_566
Al5 Cr3 2.679889 1_545
Al5 Cr2 2.679889 1_555
Al5 Cr1 2.679889 1_555
Al5 Cr0 2.679889 1_555
Al5 Al6 2.722890 1_445
Al5 Al6 2.722890 1_555
Al5 Al7 2.874817 1_555
Al5 Dy0 3.013941 1_555
Al6 Cr0 2.575497 1_665
Al6 Cr2 2.575497 1_555
Al6 Cr1 2.575497 1_555
Al6 Cr3 2.575497 1_655
Al6 Al7 2.803914 1_554
Al6 Dy0 3.206489 1_665
Al6 Dy0 3.206489 1_555
Al7 Cr1 2.575497 1_555
Al7 Cr0 2.575497 1_555
Al7 Cr3 2.575497 1_656
Al7 Cr2 2.575497 1_556
Al7 Dy0 3.206489 1_666
Al7 Dy0 3.206489 1_556
Cr0 Cr1 2.520041 1_445
Cr0 Cr1 2.520041 1_555
Cr0 Dy0 3.399128 1_555
Cr0 Dy0 3.399128 1_556
Cr1 Dy0 3.399128 1_666
Cr1 Dy0 3.399128 1_555
Cr2 Cr3 2.520041 1_655
Cr2 Cr3 2.520041 1_545
Cr2 Dy0 3.399128 1_655
Cr2 Dy0 3.399128 1_555
Cr3 Dy0 3.399128 1_565
Cr3 Dy0 3.399128 1_555
