# generated using pymatgen
data_Rb(Mg4Al3)4
_symmetry_space_group_name_H-M   'P 1'
_cell_length_a   9.25868987
_cell_length_b   9.25868987
_cell_length_c   9.25869026
_cell_angle_alpha   109.67109018
_cell_angle_beta   109.67109018
_cell_angle_gamma   109.67109659
_symmetry_Int_Tables_number   1
_chemical_formula_structural   Rb(Mg4Al3)4
_chemical_formula_sum   'Rb1 Mg16 Al12'
_cell_volume   606.41623016
_cell_formula_units_Z   1
loop_
 _symmetry_equiv_pos_site_id
 _symmetry_equiv_pos_as_xyz
  1  'x, y, z'
loop_
 _atom_site_type_symbol
 _atom_site_label
 _atom_site_symmetry_multiplicity
 _atom_site_fract_x
 _atom_site_fract_y
 _atom_site_fract_z
 _atom_site_occupancy
  Rb  Rb0  1  0.62806300  0.62806300  0.62806300  1
  Mg  Mg0  1  0.34616600  0.00192900  0.00192900  1
  Mg  Mg1  1  0.71485800  0.38464800  0.38464800  1
  Mg  Mg2  1  0.28588900  0.68688500  0.68688500  1
  Mg  Mg3  1  0.99978000  0.60418700  0.31638000  1
  Mg  Mg4  1  0.60418700  0.31638000  0.99978000  1
  Mg  Mg5  1  0.38464800  0.71485800  0.38464800  1
  Mg  Mg6  1  0.00192900  0.34616600  0.00192900  1
  Mg  Mg7  1  0.31638000  0.99978000  0.60418700  1
  Mg  Mg8  1  0.68688500  0.68688500  0.28588900  1
  Mg  Mg9  1  0.68688500  0.28588900  0.68688500  1
  Mg  Mg10  1  0.31638000  0.60418700  0.99978000  1
  Mg  Mg11  1  0.00192900  0.00192900  0.34616600  1
  Mg  Mg12  1  0.38464800  0.38464800  0.71485800  1
  Mg  Mg13  1  0.60418700  0.99978000  0.31638000  1
  Mg  Mg14  1  0.99978000  0.31638000  0.60418700  1
  Mg  Mg15  1  0.00462800  0.00462800  0.00462800  1
  Al  Al0  1  0.17677100  0.36420900  0.36420900  1
  Al  Al1  1  0.01094800  0.81955900  0.63706700  1
  Al  Al2  1  0.36420900  0.36420900  0.17677100  1
  Al  Al3  1  0.63706700  0.01094800  0.81955900  1
  Al  Al4  1  0.18537100  0.18537100  0.82170600  1
  Al  Al5  1  0.81955900  0.01094800  0.63706700  1
  Al  Al6  1  0.81955900  0.63706700  0.01094800  1
  Al  Al7  1  0.18537100  0.82170600  0.18537100  1
  Al  Al8  1  0.63706700  0.81955900  0.01094800  1
  Al  Al9  1  0.36420900  0.17677100  0.36420900  1
  Al  Al10  1  0.01094800  0.63706700  0.81955900  1
  Al  Al11  1  0.82170600  0.18537100  0.18537100  1
loop_
_geom_bond_atom_site_label_1
_geom_bond_atom_site_label_2
_geom_bond_distance
_geom_bond_site_symmetry_2
Mg0 Mg2 3.067245 1_544
Mg0 Mg4 3.093896 1_554
Mg0 Mg13 3.093896 1_545
Mg0 Mg15 3.179104 1_555
Mg0 Mg1 3.467668 1_555
Mg1 Mg13 3.120340 1_545
Mg1 Mg4 3.120341 1_554
Mg1 Rb0 3.134205 1_555
Mg1 Mg3 3.141298 1_555
Mg1 Mg14 3.141299 1_555
Mg1 Mg8 3.284035 1_555
Mg1 Mg9 3.284035 1_555
Mg2 Mg3 3.181100 1_455
Mg2 Mg7 3.185408 1_555
Mg2 Mg5 3.284035 1_555
Mg2 Rb0 3.571200 1_555
Mg3 Mg6 3.093896 1_655
Mg3 Mg5 3.120340 1_655
Mg3 Mg7 3.170281 1_655
Mg3 Mg4 3.170281 1_554
Mg3 Mg8 3.185408 1_555
Mg4 Mg7 3.170281 1_545
Mg4 Mg8 3.181100 1_556
Mg4 Mg9 3.185408 1_555
Mg5 Rb0 3.134205 1_555
Mg5 Mg7 3.141299 1_555
Mg5 Mg8 3.284035 1_555
Mg5 Mg6 3.467668 1_555
Mg6 Mg9 3.067245 1_454
Mg7 Mg9 3.181100 1_565
Mg8 Rb0 3.571200 1_555
Mg9 Rb0 3.571200 1_555
Mg10 Mg6 3.093896 1_556
Mg10 Mg5 3.120341 1_556
Mg10 Mg12 3.141299 1_555
Mg10 Mg13 3.170281 1_556
Mg10 Mg14 3.170281 1_455
Mg10 Mg8 3.181100 1_556
Mg10 Mg2 3.185408 1_555
Mg11 Mg8 3.067244 1_445
Mg11 Mg7 3.093896 1_545
Mg11 Mg14 3.093896 1_455
Mg11 Mg15 3.179104 1_555
Mg11 Mg12 3.467668 1_555
Mg12 Mg14 3.120340 1_455
Mg12 Mg7 3.120340 1_545
Mg12 Rb0 3.134205 1_555
Mg12 Mg4 3.141299 1_555
Mg12 Mg9 3.284035 1_555
Mg12 Mg2 3.284035 1_555
Mg13 Mg5 3.141298 1_555
Mg13 Mg14 3.170281 1_565
Mg13 Mg9 3.181100 1_565
Mg13 Mg8 3.185408 1_555
Mg14 Mg2 3.181100 1_655
Mg14 Mg9 3.185408 1_555
Mg15 Mg6 3.179104 1_555
Mg15 Rb0 3.451948 1_444
Al0 Al11 2.667477 1_455
Al0 Al2 2.837437 1_555
Al0 Al9 2.837437 1_555
Al0 Mg2 2.966242 1_555
Al0 Mg5 3.068331 1_555
Al0 Mg12 3.068331 1_555
Al0 Mg11 3.111984 1_555
Al0 Mg6 3.111984 1_555
Al0 Mg15 3.178239 1_555
Al0 Mg14 3.231618 1_455
Al0 Mg3 3.231618 1_455
Al0 Rb0 3.410663 1_555
Al1 Al4 2.750032 1_565
Al1 Al10 2.762564 1_555
Al1 Al5 2.897247 1_465
Al1 Mg3 2.910541 1_455
Al1 Mg7 2.935767 1_555
Al1 Mg8 3.056972 1_455
Al1 Mg0 3.077122 1_566
Al1 Mg2 3.146094 1_555
Al1 Mg15 3.285809 1_566
Al1 Mg1 3.333280 1_455
Al1 Rb0 3.344788 1_455
Al2 Al4 2.667477 1_554
Al2 Al9 2.837437 1_555
Al2 Mg8 2.966242 1_555
Al2 Mg5 3.068331 1_555
Al2 Mg1 3.068331 1_555
Al2 Mg6 3.111984 1_555
Al2 Mg0 3.111984 1_555
Al2 Mg15 3.178239 1_555
Al2 Mg4 3.231618 1_554
Al2 Mg10 3.231618 1_554
Al2 Rb0 3.410663 1_555
Al3 Al5 2.762564 1_555
Al3 Al8 2.897247 1_546
Al3 Mg7 2.910541 1_545
Al3 Mg4 2.935767 1_555
Al3 Mg2 3.056971 1_545
Al3 Mg6 3.077122 1_656
Al3 Mg9 3.146093 1_555
Al3 Mg15 3.285809 1_656
Al3 Mg5 3.333281 1_545
Al3 Rb0 3.344788 1_545
Al4 Al5 2.750032 1_455
Al4 Mg12 2.820082 1_555
Al4 Mg14 3.032811 1_455
Al4 Mg7 3.032811 1_545
Al4 Mg0 3.134206 1_556
Al4 Mg6 3.134206 1_556
Al4 Mg15 3.224900 1_556
Al4 Mg4 3.226279 1_555
Al4 Mg10 3.226279 1_555
Al5 Mg13 2.910541 1_545
Al5 Mg14 2.935767 1_555
Al5 Mg8 3.056972 1_545
Al5 Mg6 3.077122 1_656
Al5 Mg9 3.146094 1_555
Al5 Mg15 3.285809 1_656
Al5 Mg5 3.333280 1_545
Al5 Rb0 3.344788 1_545
Al6 Al7 2.750032 1_655
Al6 Al8 2.762564 1_555
Al6 Mg4 2.910541 1_554
Al6 Mg3 2.935767 1_555
Al6 Mg9 3.056972 1_554
Al6 Mg11 3.077122 1_665
Al6 Mg8 3.146094 1_555
Al6 Mg15 3.285809 1_665
Al6 Mg12 3.333280 1_554
Al6 Rb0 3.344788 1_554
Al7 Al9 2.667477 1_565
Al7 Mg5 2.820082 1_555
Al7 Mg3 3.032811 1_455
Al7 Mg10 3.032811 1_554
Al7 Mg0 3.134206 1_565
Al7 Mg11 3.134206 1_565
Al7 Mg15 3.224900 1_565
Al7 Mg13 3.226279 1_555
Al7 Mg7 3.226280 1_555
Al8 Mg10 2.910541 1_554
Al8 Mg13 2.935767 1_555
Al8 Mg2 3.056972 1_554
Al8 Mg11 3.077122 1_665
Al8 Mg8 3.146094 1_555
Al8 Mg15 3.285809 1_665
Al8 Mg12 3.333280 1_554
Al8 Rb0 3.344788 1_554
Al9 Mg9 2.966242 1_555
Al9 Mg1 3.068331 1_555
Al9 Mg12 3.068331 1_555
Al9 Mg11 3.111984 1_555
Al9 Mg0 3.111984 1_555
Al9 Mg15 3.178239 1_555
Al9 Mg7 3.231618 1_545
Al9 Mg13 3.231618 1_545
Al9 Rb0 3.410663 1_555
Al10 Al7 2.750032 1_556
Al10 Al6 2.897247 1_456
Al10 Mg14 2.910541 1_455
Al10 Mg10 2.935767 1_555
Al10 Mg9 3.056971 1_455
Al10 Mg0 3.077122 1_566
Al10 Mg2 3.146093 1_555
Al10 Mg15 3.285809 1_566
Al10 Mg1 3.333281 1_455
Al10 Rb0 3.344788 1_455
Al11 Al8 2.750032 1_545
Al11 Al3 2.750032 1_554
Al11 Mg1 2.820082 1_555
Al11 Mg13 3.032811 1_545
Al11 Mg4 3.032811 1_554
Al11 Mg6 3.134206 1_655
Al11 Mg11 3.134206 1_655
Al11 Mg15 3.224900 1_655
Al11 Mg3 3.226279 1_555
Al11 Mg14 3.226280 1_555
