# generated using pymatgen
data_NaOsO3
_symmetry_space_group_name_H-M   'P 1'
_cell_length_a   5.36963185
_cell_length_b   5.36963185
_cell_length_c   5.36963140
_cell_angle_alpha   60.18851187
_cell_angle_beta   60.18851187
_cell_angle_gamma   60.18850953
_symmetry_Int_Tables_number   1
_chemical_formula_structural   NaOsO3
_chemical_formula_sum   'Na2 Os2 O6'
_cell_volume   109.94323617
_cell_formula_units_Z   2
loop_
 _symmetry_equiv_pos_site_id
 _symmetry_equiv_pos_as_xyz
  1  'x, y, z'
loop_
 _atom_site_type_symbol
 _atom_site_label
 _atom_site_symmetry_multiplicity
 _atom_site_fract_x
 _atom_site_fract_y
 _atom_site_fract_z
 _atom_site_occupancy
  Na  Na0  1  0.25000000  0.25000000  0.25000000  1
  Na  Na1  1  0.75000000  0.75000000  0.75000000  1
  Os  Os0  1  0.00000000  0.00000000  -0.00000000  1
  Os  Os1  1  0.50000000  0.50000000  0.50000000  1
  O  O0  1  0.82828098  0.25000000  0.67171902  1
  O  O1  1  0.67171902  0.82828098  0.25000000  1
  O  O2  1  0.25000000  0.67171902  0.82828098  1
  O  O3  1  0.32828098  0.17171902  0.75000000  1
  O  O4  1  0.17171902  0.75000000  0.32828098  1
  O  O5  1  0.75000000  0.32828098  0.17171902  1
loop_
_geom_bond_atom_site_label_1
_geom_bond_atom_site_label_2
_geom_bond_distance
_geom_bond_site_symmetry_2
Na0 O2 2.270925 1_554
Na0 O0 2.270925 1_455
Na0 O1 2.270925 1_545
Na0 O3 2.717707 1_555
Na0 O3 2.717707 1_554
Na0 O4 2.717707 1_555
Na0 O5 2.717707 1_455
Na0 O5 2.717707 1_555
Na0 O4 2.717707 1_545
Na1 O5 2.270925 1_556
Na1 O4 2.270925 1_655
Na1 O3 2.270925 1_565
Na1 O1 2.717707 1_555
Na1 O1 2.717707 1_556
Na1 O0 2.717707 1_555
Na1 O2 2.717707 1_655
Na1 O2 2.717707 1_555
Na1 O0 2.717707 1_565
O0 Os0 1.947329 1_656
O0 Os1 1.947329 1_555
O1 Os0 1.947329 1_665
O1 Os1 1.947329 1_555
O2 Os1 1.947329 1_555
O2 Os0 1.947329 1_566
O3 Os0 1.947329 1_556
O3 Os1 1.947329 1_555
O4 Os0 1.947329 1_565
O4 Os1 1.947329 1_555
O5 Os1 1.947329 1_555
O5 Os0 1.947329 1_655
