# generated using pymatgen
data_Ce3(SiRh)2
_symmetry_space_group_name_H-M   'P 1'
_cell_length_a   5.54733100
_cell_length_b   7.95276400
_cell_length_c   13.17382100
_cell_angle_alpha   90.00000000
_cell_angle_beta   90.00000000
_cell_angle_gamma   90.00000000
_symmetry_Int_Tables_number   1
_chemical_formula_structural   Ce3(SiRh)2
_chemical_formula_sum   'Ce12 Si8 Rh8'
_cell_volume   581.18437956
_cell_formula_units_Z   4
loop_
 _symmetry_equiv_pos_site_id
 _symmetry_equiv_pos_as_xyz
  1  'x, y, z'
loop_
 _atom_site_type_symbol
 _atom_site_label
 _atom_site_symmetry_multiplicity
 _atom_site_fract_x
 _atom_site_fract_y
 _atom_site_fract_z
 _atom_site_occupancy
  Ce  Ce0  1  0.14425000  0.24147200  0.75000000  1
  Ce  Ce1  1  0.85575000  0.75852800  0.25000000  1
  Ce  Ce2  1  0.14425000  0.25852800  0.25000000  1
  Ce  Ce3  1  0.85575000  0.74147200  0.75000000  1
  Ce  Ce4  1  0.64186500  0.38852500  0.59943800  1
  Ce  Ce5  1  0.35813500  0.61147500  0.09943800  1
  Ce  Ce6  1  0.64186500  0.11147500  0.40056200  1
  Ce  Ce7  1  0.35813500  0.88852500  0.90056200  1
  Ce  Ce8  1  0.35813500  0.61147500  0.40056200  1
  Ce  Ce9  1  0.64186500  0.38852500  0.90056200  1
  Ce  Ce10  1  0.35813500  0.88852500  0.59943800  1
  Ce  Ce11  1  0.64186500  0.11147500  0.09943800  1
  Si  Si0  1  0.14656700  0.25000000  0.50000000  1
  Si  Si1  1  0.85343300  0.75000000  0.00000000  1
  Si  Si2  1  0.85343300  0.75000000  0.50000000  1
  Si  Si3  1  0.14656700  0.25000000  0.00000000  1
  Si  Si4  1  0.64558200  0.09607900  0.75000000  1
  Si  Si5  1  0.35441800  0.90392100  0.25000000  1
  Si  Si6  1  0.64558200  0.40392100  0.25000000  1
  Si  Si7  1  0.35441800  0.59607900  0.75000000  1
  Rh  Rh0  1  0.87747000  0.03427100  0.59259800  1
  Rh  Rh1  1  0.12253000  0.96572900  0.09259800  1
  Rh  Rh2  1  0.87747000  0.46572900  0.40740200  1
  Rh  Rh3  1  0.12253000  0.53427100  0.90740200  1
  Rh  Rh4  1  0.12253000  0.96572900  0.40740200  1
  Rh  Rh5  1  0.87747000  0.03427100  0.90740200  1
  Rh  Rh6  1  0.12253000  0.53427100  0.59259800  1
  Rh  Rh7  1  0.87747000  0.46572900  0.09259800  1
loop_
_geom_bond_atom_site_label_1
_geom_bond_atom_site_label_2
_geom_bond_distance
_geom_bond_site_symmetry_2
Ce0 Si4 2.998209 1_455
Ce0 Si4 3.011850 1_555
Ce0 Rh0 3.034011 1_455
Ce0 Rh5 3.034011 1_455
Ce0 Si7 3.051598 1_555
Ce0 Rh3 3.120332 1_555
Ce0 Rh6 3.120332 1_555
Ce0 Si0 3.294179 1_555
Ce0 Si3 3.294179 1_556
Ce1 Si5 2.998209 1_655
Ce1 Si5 3.011850 1_555
Ce1 Rh1 3.034011 1_655
Ce1 Rh4 3.034011 1_655
Ce1 Si6 3.051598 1_555
Ce1 Rh2 3.120332 1_555
Ce1 Rh7 3.120332 1_555
Ce1 Si1 3.294179 1_555
Ce1 Si2 3.294179 1_555
Ce2 Si6 2.998209 1_455
Ce2 Si6 3.011850 1_555
Ce2 Rh7 3.034011 1_455
Ce2 Rh2 3.034011 1_455
Ce2 Si5 3.051598 1_545
Ce2 Rh1 3.120332 1_545
Ce2 Rh4 3.120332 1_545
Ce2 Si0 3.294179 1_555
Ce2 Si3 3.294179 1_555
Ce3 Si7 2.998209 1_655
Ce3 Si7 3.011850 1_555
Ce3 Rh3 3.034011 1_655
Ce3 Rh6 3.034011 1_655
Ce3 Si4 3.051598 1_565
Ce3 Rh0 3.120332 1_565
Ce3 Rh5 3.120332 1_565
Ce3 Si1 3.294179 1_556
Ce3 Si2 3.294179 1_555
Ce4 Rh6 2.908836 1_655
Ce4 Rh2 2.912954 1_555
Ce4 Si7 3.033379 1_555
Ce4 Si4 3.056753 1_555
Ce4 Rh6 3.106656 1_555
Ce4 Rh0 3.107006 1_555
Ce4 Si0 3.237113 1_555
Ce4 Si0 3.281507 1_655
Ce4 Si2 3.370091 1_555
Ce5 Rh7 2.908836 1_455
Ce5 Rh3 2.912954 1_554
Ce5 Si6 3.033379 1_555
Ce5 Si5 3.056753 1_555
Ce5 Rh7 3.106656 1_555
Ce5 Rh1 3.107006 1_555
Ce5 Si1 3.237113 1_555
Ce5 Si1 3.281507 1_455
Ce5 Si3 3.370091 1_555
Ce6 Rh4 2.908836 1_645
Ce6 Rh0 2.912954 1_555
Ce6 Si5 3.033379 1_545
Ce6 Si6 3.056753 1_555
Ce6 Rh4 3.106656 1_545
Ce6 Rh2 3.107006 1_555
Ce6 Si0 3.237113 1_555
Ce6 Si0 3.281507 1_655
Ce6 Si2 3.370091 1_545
Ce7 Rh5 2.908836 1_465
Ce7 Rh1 2.912954 1_556
Ce7 Si4 3.033379 1_565
Ce7 Si7 3.056753 1_555
Ce7 Rh5 3.106656 1_565
Ce7 Rh3 3.107006 1_555
Ce7 Si1 3.237113 1_556
Ce7 Si1 3.281507 1_456
Ce7 Si3 3.370091 1_566
Ce8 Rh2 2.908836 1_455
Ce8 Rh6 2.912954 1_555
Ce8 Si6 3.033379 1_555
Ce8 Si5 3.056753 1_555
Ce8 Rh2 3.106656 1_555
Ce8 Rh4 3.107006 1_555
Ce8 Si2 3.237113 1_555
Ce8 Si2 3.281507 1_455
Ce8 Si0 3.370091 1_555
Ce9 Rh3 2.908836 1_655
Ce9 Rh7 2.912954 1_556
Ce9 Si7 3.033379 1_555
Ce9 Si4 3.056753 1_555
Ce9 Rh3 3.106656 1_555
Ce9 Rh5 3.107006 1_555
Ce9 Si3 3.237113 1_556
Ce9 Si3 3.281507 1_656
Ce9 Si1 3.370091 1_556
Ce10 Rh0 2.908836 1_465
Ce10 Rh4 2.912954 1_555
Ce10 Si4 3.033379 1_565
Ce10 Si7 3.056753 1_555
Ce10 Rh0 3.106656 1_565
Ce10 Rh6 3.107006 1_555
Ce10 Si2 3.237113 1_555
Ce10 Si2 3.281507 1_455
Ce10 Si0 3.370091 1_565
Ce11 Rh1 2.908836 1_645
Ce11 Rh5 2.912954 1_554
Ce11 Si5 3.033379 1_545
Ce11 Si6 3.056753 1_555
Ce11 Rh1 3.106656 1_545
Ce11 Rh7 3.107006 1_555
Ce11 Si3 3.237113 1_555
Ce11 Si3 3.281507 1_655
Ce11 Si1 3.370091 1_545
Rh0 Si4 2.489196 1_555
Rh0 Si2 2.572316 1_545
Rh0 Si0 2.580673 1_655
Rh1 Si5 2.489196 1_555
Rh1 Si3 2.572316 1_565
Rh1 Si1 2.580673 1_455
Rh2 Si6 2.489196 1_555
Rh2 Si2 2.572316 1_555
Rh2 Si0 2.580673 1_655
Rh3 Si7 2.489196 1_555
Rh3 Si3 2.572316 1_556
Rh3 Si1 2.580673 1_456
Rh4 Si5 2.489196 1_555
Rh4 Si0 2.572316 1_565
Rh4 Si2 2.580673 1_455
Rh5 Si4 2.489196 1_555
Rh5 Si1 2.572316 1_546
Rh5 Si3 2.580673 1_656
Rh6 Si7 2.489196 1_555
Rh6 Si0 2.572316 1_555
Rh6 Si2 2.580673 1_455
Rh7 Si6 2.489196 1_555
Rh7 Si1 2.572316 1_555
Rh7 Si3 2.580673 1_655
