# generated using pymatgen
data_Si
_symmetry_space_group_name_H-M   'P 1'
_cell_length_a   8.70406569
_cell_length_b   8.70406569
_cell_length_c   8.70406569
_cell_angle_alpha   109.47122063
_cell_angle_beta   109.47122063
_cell_angle_gamma   109.47122063
_symmetry_Int_Tables_number   1
_chemical_formula_structural   Si
_chemical_formula_sum   Si23
_cell_volume   507.62685496
_cell_formula_units_Z   23
loop_
 _symmetry_equiv_pos_site_id
 _symmetry_equiv_pos_as_xyz
  1  'x, y, z'
loop_
 _atom_site_type_symbol
 _atom_site_label
 _atom_site_symmetry_multiplicity
 _atom_site_fract_x
 _atom_site_fract_y
 _atom_site_fract_z
 _atom_site_occupancy
  Si  Si0  1  0.83065879  0.55862766  0.55862766  1
  Si  Si1  1  0.16934121  0.72796787  0.72796787  1
  Si  Si2  1  -0.00000000  0.44137234  0.27203213  1
  Si  Si3  1  0.55862766  0.55862766  0.83065879  1
  Si  Si4  1  -0.00000000  0.27203213  0.44137234  1
  Si  Si5  1  0.72796787  0.72796787  0.16934121  1
  Si  Si6  1  0.44137234  0.27203213  0.00000000  1
  Si  Si7  1  0.27203213  0.44137234  -0.00000000  1
  Si  Si8  1  0.55862766  0.83065879  0.55862766  1
  Si  Si9  1  0.27203213  -0.00000000  0.44137234  1
  Si  Si10  1  0.44137234  -0.00000000  0.27203213  1
  Si  Si11  1  0.72796787  0.16934121  0.72796787  1
  Si  Si12  1  -0.00000000  -0.00000000  0.00000000  1
  Si  Si13  1  0.72848124  0.72848124  0.72848124  1
  Si  Si14  1  0.27151876  0.00000000  0.00000000  1
  Si  Si15  1  0.00000000  0.27151876  -0.00000000  1
  Si  Si16  1  -0.00000000  0.00000000  0.27151876  1
  Si  Si17  1  0.25000000  0.75000000  0.50000000  1
  Si  Si18  1  0.75000000  0.25000000  0.50000000  1
  Si  Si19  1  0.75000000  0.50000000  0.25000000  1
  Si  Si20  1  0.25000000  0.50000000  0.75000000  1
  Si  Si21  1  0.50000000  0.25000000  0.75000000  1
  Si  Si22  1  0.50000000  0.75000000  0.25000000  1
loop_
_geom_bond_atom_site_label_1
_geom_bond_atom_site_label_2
_geom_bond_distance
_geom_bond_site_symmetry_2
Si0 Si13 2.336317 1_555
Si0 Si18 2.357872 1_555
Si0 Si19 2.357872 1_555
Si0 Si1 2.406962 1_655
Si1 Si14 2.336326 1_566
Si1 Si20 2.357865 1_555
Si1 Si17 2.357865 1_555
Si2 Si4 2.406948 1_555
Si3 Si5 2.406962 1_556
Si6 Si7 2.406948 1_555
Si10 Si14 2.336324 1_555
Si10 Si18 2.357870 1_555
Si10 Si22 2.357870 1_545
Si10 Si9 2.406948 1_555
Si11 Si15 2.336326 1_656
Si11 Si21 2.357865 1_555
Si11 Si18 2.357865 1_555
Si11 Si8 2.406962 1_545
Si12 Si13 2.363317 1_444
Si12 Si15 2.363317 1_555
Si12 Si14 2.363317 1_555
Si12 Si16 2.363317 1_555
Si13 Si8 2.336317 1_555
Si13 Si3 2.336317 1_555
Si14 Si6 2.336324 1_555
Si15 Si7 2.336324 1_555
Si15 Si2 2.336324 1_555
Si16 Si9 2.336324 1_555
Si16 Si4 2.336324 1_555
Si16 Si5 2.336326 1_445
Si17 Si2 2.357870 1_555
Si17 Si9 2.357870 1_565
Si17 Si8 2.357872 1_555
Si18 Si4 2.357870 1_655
Si19 Si5 2.357865 1_555
Si19 Si6 2.357870 1_555
Si19 Si2 2.357870 1_655
Si20 Si7 2.357870 1_556
Si20 Si4 2.357870 1_555
Si20 Si3 2.357872 1_555
Si21 Si9 2.357870 1_555
Si21 Si6 2.357870 1_556
Si21 Si3 2.357872 1_555
Si22 Si5 2.357865 1_555
Si22 Si7 2.357870 1_555
Si22 Si8 2.357872 1_555
