# generated using pymatgen
data_KAuO2
_symmetry_space_group_name_H-M   'P 1'
_cell_length_a   4.20677919
_cell_length_b   6.02307382
_cell_length_c   6.36488508
_cell_angle_alpha   90.00000000
_cell_angle_beta   70.70283292
_cell_angle_gamma   90.00000000
_symmetry_Int_Tables_number   1
_chemical_formula_structural   KAuO2
_chemical_formula_sum   'K2 Au2 O4'
_cell_volume   152.21112651
_cell_formula_units_Z   2
loop_
 _symmetry_equiv_pos_site_id
 _symmetry_equiv_pos_as_xyz
  1  'x, y, z'
loop_
 _atom_site_type_symbol
 _atom_site_label
 _atom_site_symmetry_multiplicity
 _atom_site_fract_x
 _atom_site_fract_y
 _atom_site_fract_z
 _atom_site_occupancy
  K  K0  1  0.29290120  0.25000000  0.41419760  1
  K  K1  1  0.70709880  0.75000000  0.58580240  1
  Au  Au0  1  0.99718373  0.75000000  0.00563353  1
  Au  Au1  1  0.00281627  0.25000000  0.99436647  1
  O  O0  1  0.88884252  0.49466172  0.22231496  1
  O  O1  1  0.11115748  0.50533828  0.77768504  1
  O  O2  1  0.11115748  0.99466172  0.77768504  1
  O  O3  1  0.88884252  0.00533828  0.22231496  1
loop_
_geom_bond_atom_site_label_1
_geom_bond_atom_site_label_2
_geom_bond_distance
_geom_bond_site_symmetry_2
K0 O2 2.670805 1_545
K0 O1 2.670805 1_555
K0 O3 2.815048 1_455
K0 O0 2.815048 1_455
K0 O3 2.815048 1_555
K0 O0 2.815048 1_555
K1 O0 2.670805 1_555
K1 O3 2.670805 1_565
K1 O1 2.815048 1_655
K1 O2 2.815048 1_655
K1 O2 2.815048 1_555
K1 O1 2.815048 1_555
Au0 O2 2.011633 1_654
Au0 O1 2.011633 1_654
Au0 O0 2.014830 1_555
Au0 O3 2.014830 1_565
Au1 O3 2.011633 1_456
Au1 O0 2.011633 1_456
Au1 O1 2.014830 1_555
Au1 O2 2.014830 1_545
