# generated using pymatgen
data_K3Sb2Au3
_symmetry_space_group_name_H-M   'P 1'
_cell_length_a   8.05953858
_cell_length_b   8.05953800
_cell_length_c   8.05953728
_cell_angle_alpha   45.72334187
_cell_angle_beta   45.72334845
_cell_angle_gamma   45.72335059
_symmetry_Int_Tables_number   1
_chemical_formula_structural   K3Sb2Au3
_chemical_formula_sum   'K3 Sb2 Au3'
_cell_volume   244.63884105
_cell_formula_units_Z   1
loop_
 _symmetry_equiv_pos_site_id
 _symmetry_equiv_pos_as_xyz
  1  'x, y, z'
loop_
 _atom_site_type_symbol
 _atom_site_label
 _atom_site_symmetry_multiplicity
 _atom_site_fract_x
 _atom_site_fract_y
 _atom_site_fract_z
 _atom_site_occupancy
  K  K0  1  0.50000000  0.50000000  0.50000000  1
  K  K1  1  0.92013340  0.92013340  0.92013340  1
  K  K2  1  0.07986660  0.07986660  0.07986660  1
  Sb  Sb0  1  0.24185725  0.24185725  0.24185725  1
  Sb  Sb1  1  0.75814275  0.75814275  0.75814275  1
  Au  Au0  1  0.50000000  -0.00000000  0.50000000  1
  Au  Au1  1  0.00000000  0.50000000  0.50000000  1
  Au  Au2  1  0.50000000  0.50000000  -0.00000000  1
loop_
_geom_bond_atom_site_label_1
_geom_bond_atom_site_label_2
_geom_bond_distance
_geom_bond_site_symmetry_2
K0 Sb0 3.963894 1_556
K0 Sb1 3.963894 1_554
K0 Sb1 3.963895 1_545
K0 Sb0 3.963895 1_565
K0 Sb0 3.963896 1_655
K0 Sb1 3.963896 1_455
K1 Sb1 3.500471 1_555
K1 Sb0 3.624282 1_665
K1 Sb0 3.624282 1_656
K1 Sb0 3.624283 1_566
K2 Sb0 3.500471 1_555
K2 Sb1 3.624282 1_445
K2 Sb1 3.624282 1_454
K2 Sb1 3.624283 1_544
Au0 Sb1 2.678717 1_545
Au0 Sb0 2.678717 1_555
Au0 K2 3.575319 1_556
Au0 K1 3.575319 1_544
Au0 K2 3.575319 1_655
Au0 K1 3.575319 1_445
Au0 K0 4.029769 1_555
Au0 K0 4.029769 1_545
Au1 Sb1 2.678717 1_455
Au1 Sb0 2.678717 1_555
Au1 K2 3.575318 1_556
Au1 K1 3.575318 1_454
Au1 K2 3.575319 1_565
Au1 K1 3.575319 1_445
Au1 K0 4.029769 1_555
Au1 K0 4.029769 1_455
Au2 Sb0 2.678717 1_555
Au2 Sb1 2.678717 1_554
Au2 K2 3.575319 1_565
Au2 K1 3.575319 1_544
Au2 K2 3.575319 1_655
Au2 K1 3.575319 1_454
Au2 K0 4.029769 1_555
Au2 K0 4.029769 1_554
