# generated using pymatgen
data_H6PbCI3N
_symmetry_space_group_name_H-M   'P 1'
_cell_length_a   8.91951900
_cell_length_b   9.01262700
_cell_length_c   12.74075500
_cell_angle_alpha   90.00000000
_cell_angle_beta   90.00000000
_cell_angle_gamma   90.00000000
_symmetry_Int_Tables_number   1
_chemical_formula_structural   H6PbCI3N
_chemical_formula_sum   'H24 Pb4 C4 I12 N4'
_cell_volume   1024.20760671
_cell_formula_units_Z   4
loop_
 _symmetry_equiv_pos_site_id
 _symmetry_equiv_pos_as_xyz
  1  'x, y, z'
loop_
 _atom_site_type_symbol
 _atom_site_label
 _atom_site_symmetry_multiplicity
 _atom_site_fract_x
 _atom_site_fract_y
 _atom_site_fract_z
 _atom_site_occupancy
  H  H0  1  0.38840800  0.41067700  0.32074100  1
  H  H1  1  0.61159200  0.58932300  0.67925900  1
  H  H2  1  0.88840800  0.08932300  0.67925900  1
  H  H3  1  0.11159200  0.91067700  0.32074100  1
  H  H4  1  0.61159200  0.58932300  0.82074100  1
  H  H5  1  0.38840800  0.41067700  0.17925900  1
  H  H6  1  0.11159200  0.91067700  0.17925900  1
  H  H7  1  0.88840800  0.08932300  0.82074100  1
  H  H8  1  0.60256100  0.57777300  0.31509300  1
  H  H9  1  0.39743900  0.42222700  0.68490700  1
  H  H10  1  0.10256100  0.92222700  0.68490700  1
  H  H11  1  0.89743900  0.07777300  0.31509300  1
  H  H12  1  0.39743900  0.42222700  0.81509300  1
  H  H13  1  0.60256100  0.57777300  0.18490700  1
  H  H14  1  0.89743900  0.07777300  0.18490700  1
  H  H15  1  0.10256100  0.92222700  0.81509300  1
  H  H16  1  0.54318000  0.33177500  0.25000000  1
  H  H17  1  0.45682000  0.66822500  0.75000000  1
  H  H18  1  0.04318000  0.16822500  0.75000000  1
  H  H19  1  0.95682000  0.83177500  0.25000000  1
  H  H20  1  0.46015000  0.65369200  0.25000000  1
  H  H21  1  0.53985000  0.34630800  0.75000000  1
  H  H22  1  0.96015000  0.84630800  0.75000000  1
  H  H23  1  0.03985000  0.15369200  0.25000000  1
  Pb  Pb0  1  0.00000000  0.50000000  0.00000000  1
  Pb  Pb1  1  0.50000000  0.00000000  0.00000000  1
  Pb  Pb2  1  0.00000000  0.50000000  0.50000000  1
  Pb  Pb3  1  0.50000000  0.00000000  0.50000000  1
  C  C0  1  0.04243100  0.91871800  0.25000000  1
  C  C1  1  0.95756900  0.08128200  0.75000000  1
  C  C2  1  0.54243100  0.58128200  0.75000000  1
  C  C3  1  0.45756900  0.41871800  0.25000000  1
  I  I0  1  0.19719800  0.19864400  0.01838900  1
  I  I1  1  0.80280200  0.80135600  0.98161100  1
  I  I2  1  0.69719800  0.30135600  0.98161100  1
  I  I3  1  0.30280200  0.69864400  0.01838900  1
  I  I4  1  0.80280200  0.80135600  0.51838900  1
  I  I5  1  0.19719800  0.19864400  0.48161100  1
  I  I6  1  0.30280200  0.69864400  0.48161100  1
  I  I7  1  0.69719800  0.30135600  0.51838900  1
  I  I8  1  0.94206700  0.47814400  0.25000000  1
  I  I9  1  0.05793300  0.52185600  0.75000000  1
  I  I10  1  0.44206700  0.02185600  0.75000000  1
  I  I11  1  0.55793300  0.97814400  0.25000000  1
  N  N0  1  0.03487700  0.93407400  0.75000000  1
  N  N1  1  0.96512300  0.06592600  0.25000000  1
  N  N2  1  0.53487700  0.56592600  0.25000000  1
  N  N3  1  0.46512300  0.43407400  0.75000000  1
loop_
_geom_bond_atom_site_label_1
_geom_bond_atom_site_label_2
_geom_bond_distance
_geom_bond_site_symmetry_2
H8 N2 1.031339 1_555
H9 N3 1.031339 1_555
H10 N0 1.031339 1_555
H11 N1 1.031339 1_555
H12 N3 1.031339 1_555
H13 N2 1.031339 1_555
H14 N1 1.031339 1_555
H15 N0 1.031339 1_555
H20 N2 1.034382 1_555
H21 N3 1.034382 1_555
H22 N0 1.034382 1_655
H23 N1 1.034382 1_455
C0 H19 1.094122 1_455
C0 H6 1.094590 1_555
C0 H3 1.094590 1_555
C0 N1 1.495224 1_465
C1 H18 1.094122 1_655
C1 H7 1.094590 1_555
C1 H2 1.094590 1_555
C1 N0 1.495224 1_645
C2 H17 1.094122 1_555
C2 H4 1.094590 1_555
C2 H1 1.094590 1_555
C2 N3 1.495224 1_555
C3 H16 1.094122 1_555
C3 H5 1.094590 1_555
C3 H0 1.094590 1_555
C3 N2 1.495224 1_555
I0 Pb0 3.244282 1_555
I0 Pb1 3.248794 1_555
I1 Pb0 3.244282 1_656
I1 Pb1 3.248794 1_566
I2 Pb1 3.244282 1_556
I2 Pb0 3.248794 1_656
I3 Pb1 3.244282 1_565
I3 Pb0 3.248794 1_555
I4 Pb2 3.244282 1_655
I4 Pb3 3.248794 1_565
I5 Pb2 3.244282 1_555
I5 Pb3 3.248794 1_555
I6 Pb3 3.244282 1_565
I6 Pb2 3.248794 1_555
I7 Pb3 3.244282 1_555
I7 Pb2 3.248794 1_655
I8 Pb2 3.232838 1_655
I8 Pb0 3.232838 1_655
I9 Pb0 3.232838 1_556
I9 Pb2 3.232838 1_555
I10 Pb3 3.232838 1_555
I10 Pb1 3.232838 1_556
I11 Pb3 3.232838 1_565
I11 Pb1 3.232838 1_565
