# generated using pymatgen
data_Mg3Cr
_symmetry_space_group_name_H-M   'P 1'
_cell_length_a   5.34180145
_cell_length_b   5.34180145
_cell_length_c   5.34180145
_cell_angle_alpha   131.96523001
_cell_angle_beta   131.96523001
_cell_angle_gamma   70.28394785
_symmetry_Int_Tables_number   1
_chemical_formula_structural   Mg3Cr
_chemical_formula_sum   'Mg3 Cr1'
_cell_volume   82.59438593
_cell_formula_units_Z   1
loop_
 _symmetry_equiv_pos_site_id
 _symmetry_equiv_pos_as_xyz
  1  'x, y, z'
loop_
 _atom_site_type_symbol
 _atom_site_label
 _atom_site_symmetry_multiplicity
 _atom_site_fract_x
 _atom_site_fract_y
 _atom_site_fract_z
 _atom_site_occupancy
  Mg  Mg0  1  0.50000000  0.50000000  0.00000000  1
  Mg  Mg1  1  0.75000000  0.25000000  0.50000000  1
  Mg  Mg2  1  0.25000000  0.75000000  0.50000000  1
  Cr  Cr0  1  0.00000000  0.00000000  0.00000000  1
loop_
_geom_bond_atom_site_label_1
_geom_bond_atom_site_label_2
_geom_bond_distance
_geom_bond_site_symmetry_2
Mg0 Mg2 3.081762 1_544
Mg0 Mg2 3.081762 1_555
Mg0 Mg1 3.081762 1_565
Mg0 Mg1 3.081762 1_554
Mg0 Mg2 3.081762 1_655
Mg0 Mg2 3.081762 1_554
Mg0 Mg1 3.081762 1_454
Mg0 Mg1 3.081762 1_555
Mg1 Mg2 3.074765 1_656
Mg1 Mg2 3.074765 1_645
Mg1 Mg2 3.074765 1_555
Mg1 Mg2 3.074765 1_544
Cr0 Mg0 3.074765 1_444
Cr0 Mg0 3.074765 1_455
Cr0 Mg0 3.074765 1_556
Cr0 Mg0 3.074765 1_545
Cr0 Mg2 3.081762 1_544
Cr0 Mg2 3.081762 1_555
Cr0 Mg2 3.081762 1_444
Cr0 Mg2 3.081762 1_545
Cr0 Mg1 3.081762 1_444
Cr0 Mg1 3.081762 1_455
Cr0 Mg1 3.081762 1_454
Cr0 Mg1 3.081762 1_555
