# generated using pymatgen
data_SmCoSi3
_symmetry_space_group_name_H-M   'P 1'
_cell_length_a   5.57469554
_cell_length_b   5.57469554
_cell_length_c   5.57469554
_cell_angle_alpha   137.04593830
_cell_angle_beta   137.04593830
_cell_angle_gamma   62.36737665
_symmetry_Int_Tables_number   1
_chemical_formula_structural   SmCoSi3
_chemical_formula_sum   'Sm1 Co1 Si3'
_cell_volume   79.47229952
_cell_formula_units_Z   1
loop_
 _symmetry_equiv_pos_site_id
 _symmetry_equiv_pos_as_xyz
  1  'x, y, z'
loop_
 _atom_site_type_symbol
 _atom_site_label
 _atom_site_symmetry_multiplicity
 _atom_site_fract_x
 _atom_site_fract_y
 _atom_site_fract_z
 _atom_site_occupancy
  Sm  Sm0  1  0.00406354  0.00406354  -0.00000000  1
  Co  Co0  1  0.66095840  0.66095840  0.00000000  1
  Si  Si0  1  0.76119389  0.26119389  0.50000000  1
  Si  Si1  1  0.26119389  0.76119389  0.50000000  1
  Si  Si2  1  0.42759029  0.42759029  -0.00000000  1
loop_
_geom_bond_atom_site_label_1
_geom_bond_atom_site_label_2
_geom_bond_distance
_geom_bond_site_symmetry_2
Co0 Si2 2.225966 1_555
Co0 Si1 2.253887 1_655
Co0 Si0 2.253887 1_565
Co0 Si1 2.253887 1_554
Co0 Si0 2.253887 1_554
Co0 Sm0 3.251369 1_655
Co0 Sm0 3.251369 1_666
Co0 Sm0 3.251369 1_554
Co0 Sm0 3.251369 1_565
Co0 Sm0 3.272686 1_665
Si0 Si2 2.585533 1_656
Si0 Si2 2.585533 1_555
Si0 Sm0 3.087477 1_655
Si0 Sm0 3.087477 1_666
Si0 Sm0 3.190807 1_555
Si0 Sm0 3.190807 1_656
Si1 Si2 2.585533 1_566
Si1 Si2 2.585533 1_555
Si1 Sm0 3.087477 1_565
Si1 Sm0 3.087477 1_666
Si1 Sm0 3.190807 1_555
Si1 Sm0 3.190807 1_566
Si2 Sm0 2.977226 1_655
Si2 Sm0 2.977226 1_554
Si2 Sm0 2.977226 1_565
Si2 Sm0 2.977226 1_666
