# generated using pymatgen
data_LiNd2Os
_symmetry_space_group_name_H-M   'P 1'
_cell_length_a   5.04251661
_cell_length_b   5.04251661
_cell_length_c   5.04251661
_cell_angle_alpha   60.00000000
_cell_angle_beta   60.00000000
_cell_angle_gamma   60.00000000
_symmetry_Int_Tables_number   1
_chemical_formula_structural   LiNd2Os
_chemical_formula_sum   'Li1 Nd2 Os1'
_cell_volume   90.66235895
_cell_formula_units_Z   1
loop_
 _symmetry_equiv_pos_site_id
 _symmetry_equiv_pos_as_xyz
  1  'x, y, z'
loop_
 _atom_site_type_symbol
 _atom_site_label
 _atom_site_symmetry_multiplicity
 _atom_site_fract_x
 _atom_site_fract_y
 _atom_site_fract_z
 _atom_site_occupancy
  Li  Li0  1  0.25000000  0.25000000  0.25000000  1
  Nd  Nd0  1  -0.00000000  0.00000000  -0.00000000  1
  Nd  Nd1  1  0.49999900  0.49999900  0.49999900  1
  Os  Os0  1  0.75000000  0.75000000  0.75000000  1
loop_
_geom_bond_atom_site_label_1
_geom_bond_atom_site_label_2
_geom_bond_distance
_geom_bond_site_symmetry_2
Li0 Nd1 3.087886 1_555
Li0 Nd0 3.087898 1_556
Li0 Nd0 3.087898 1_565
Li0 Nd0 3.087898 1_655
Li0 Nd0 3.087898 1_555
Li0 Nd1 3.087902 1_545
Li0 Nd1 3.087902 1_455
Li0 Nd1 3.087902 1_554
Nd0 Os0 3.087898 1_445
Nd0 Os0 3.087898 1_454
Nd0 Os0 3.087898 1_444
Nd0 Os0 3.087898 1_544
Nd1 Os0 3.087894 1_554
Nd1 Os0 3.087894 1_545
Nd1 Os0 3.087894 1_455
Nd1 Os0 3.087911 1_555
