# generated using pymatgen
data_LaWN3
_symmetry_space_group_name_H-M   'P 1'
_cell_length_a   5.64439367
_cell_length_b   5.64439367
_cell_length_c   5.64439342
_cell_angle_alpha   60.62105804
_cell_angle_beta   60.62105804
_cell_angle_gamma   60.62105723
_symmetry_Int_Tables_number   1
_chemical_formula_structural   LaWN3
_chemical_formula_sum   'La2 W2 N6'
_cell_volume   128.93932838
_cell_formula_units_Z   2
loop_
 _symmetry_equiv_pos_site_id
 _symmetry_equiv_pos_as_xyz
  1  'x, y, z'
loop_
 _atom_site_type_symbol
 _atom_site_label
 _atom_site_symmetry_multiplicity
 _atom_site_fract_x
 _atom_site_fract_y
 _atom_site_fract_z
 _atom_site_occupancy
  La  La0  1  0.75000000  0.75000000  0.75000000  1
  La  La1  1  0.25000000  0.25000000  0.25000000  1
  W  W0  1  0.00000000  0.00000000  0.00000000  1
  W  W1  1  0.50000000  0.50000000  0.50000000  1
  N  N0  1  0.30120200  0.75000000  0.19879800  1
  N  N1  1  0.19879800  0.30120200  0.75000000  1
  N  N2  1  0.69879800  0.25000000  0.80120200  1
  N  N3  1  0.25000000  0.80120200  0.69879800  1
  N  N4  1  0.75000000  0.19879800  0.30120200  1
  N  N5  1  0.80120200  0.69879800  0.25000000  1
loop_
_geom_bond_atom_site_label_1
_geom_bond_atom_site_label_2
_geom_bond_distance
_geom_bond_site_symmetry_2
La0 N4 2.556935 1_565
La0 N0 2.556935 1_556
La0 N1 2.556935 1_655
La0 N5 2.837233 1_556
La0 N5 2.837233 1_555
La0 N2 2.837233 1_565
La0 N3 2.837233 1_555
La0 N3 2.837233 1_655
La0 N2 2.837233 1_555
La0 N0 3.140361 1_655
La0 N4 3.140361 1_556
La0 N1 3.140361 1_565
La1 N2 2.556935 1_554
La1 N3 2.556935 1_545
La1 N5 2.556935 1_455
La1 N1 2.837233 1_554
La1 N1 2.837233 1_555
La1 N4 2.837233 1_555
La1 N0 2.837233 1_545
La1 N0 2.837233 1_555
La1 N4 2.837233 1_455
La1 N3 3.140361 1_554
La1 N2 3.140361 1_455
La1 N5 3.140361 1_545
N0 W1 2.026078 1_555
N0 W0 2.026078 1_565
N1 W1 2.026079 1_555
N1 W0 2.026079 1_556
N2 W1 2.026078 1_555
N2 W0 2.026078 1_656
N3 W0 2.026078 1_566
N3 W1 2.026078 1_555
N4 W0 2.026078 1_655
N4 W1 2.026078 1_555
N5 W1 2.026079 1_555
N5 W0 2.026079 1_665
