# generated using pymatgen
data_LiMg
_symmetry_space_group_name_H-M   'P 1'
_cell_length_a   11.31364201
_cell_length_b   11.31364201
_cell_length_c   14.31318678
_cell_angle_alpha   71.95892554
_cell_angle_beta   71.95892554
_cell_angle_gamma   34.33834633
_symmetry_Int_Tables_number   1
_chemical_formula_structural   LiMg
_chemical_formula_sum   'Li24 Mg24'
_cell_volume   977.63282120
_cell_formula_units_Z   24
loop_
 _symmetry_equiv_pos_site_id
 _symmetry_equiv_pos_as_xyz
  1  'x, y, z'
loop_
 _atom_site_type_symbol
 _atom_site_label
 _atom_site_symmetry_multiplicity
 _atom_site_fract_x
 _atom_site_fract_y
 _atom_site_fract_z
 _atom_site_occupancy
  Li  Li0_0  1  0.07876089  0.07876088  0.07544750  1
  Li  Li0_1  1  0.07876088  0.07876088  0.57544751  1
  Li  Li0_2  1  0.07876088  0.57876088  0.07544751  1
  Li  Li0_3  1  0.07876089  0.57876088  0.57544750  1
  Li  Li0_4  1  0.57876088  0.07876088  0.07544751  1
  Li  Li0_5  1  0.57876089  0.07876089  0.57544750  1
  Li  Li0_6  1  0.57876088  0.57876088  0.07544750  1
  Li  Li0_7  1  0.57876088  0.57876088  0.57544750  1
  Li  Li1_0  1  0.25000000  0.25000000  0.00000000  1
  Li  Li1_1  1  0.25000000  0.25000000  0.50000000  1
  Li  Li1_2  1  0.25000000  0.75000000  0.00000000  1
  Li  Li1_3  1  0.25000000  0.75000000  0.50000000  1
  Li  Li1_4  1  0.75000000  0.25000000  0.00000000  1
  Li  Li1_5  1  0.75000000  0.25000000  0.50000000  1
  Li  Li1_6  1  0.75000000  0.75000000  0.00000000  1
  Li  Li1_7  1  0.75000000  0.75000000  0.50000000  1
  Li  Li2_0  1  0.42123911  0.42123911  0.42455250  1
  Li  Li2_1  1  0.42123911  0.42123911  0.92455250  1
  Li  Li2_2  1  0.42123911  0.92123911  0.42455250  1
  Li  Li2_3  1  0.42123911  0.92123911  0.92455250  1
  Li  Li2_4  1  0.92123911  0.42123912  0.42455250  1
  Li  Li2_5  1  0.92123911  0.42123911  0.92455250  1
  Li  Li2_6  1  0.92123911  0.92123911  0.42455250  1
  Li  Li2_7  1  0.92123911  0.92123911  0.92455250  1
  Mg  Mg0_0  1  0.08721138  0.08721138  0.34340864  1
  Mg  Mg0_1  1  0.08721138  0.08721138  0.84340864  1
  Mg  Mg0_2  1  0.08721138  0.58721138  0.34340864  1
  Mg  Mg0_3  1  0.08721138  0.58721138  0.84340864  1
  Mg  Mg0_4  1  0.58721138  0.08721138  0.34340864  1
  Mg  Mg0_5  1  0.58721138  0.08721138  0.84340864  1
  Mg  Mg0_6  1  0.58721138  0.58721138  0.34340864  1
  Mg  Mg0_7  1  0.58721138  0.58721138  0.84340864  1
  Mg  Mg1_0  1  0.25000000  0.25000000  0.25000000  1
  Mg  Mg1_1  1  0.25000000  0.25000000  0.75000000  1
  Mg  Mg1_2  1  0.25000000  0.75000000  0.25000000  1
  Mg  Mg1_3  1  0.25000000  0.75000000  0.75000000  1
  Mg  Mg1_4  1  0.75000000  0.25000000  0.25000000  1
  Mg  Mg1_5  1  0.75000000  0.25000000  0.75000000  1
  Mg  Mg1_6  1  0.75000000  0.75000000  0.25000000  1
  Mg  Mg1_7  1  0.75000000  0.75000000  0.75000000  1
  Mg  Mg2_0  1  0.41278862  0.41278862  0.15659136  1
  Mg  Mg2_1  1  0.41278862  0.41278862  0.65659136  1
  Mg  Mg2_2  1  0.41278862  0.91278862  0.15659136  1
  Mg  Mg2_3  1  0.41278862  0.91278862  0.65659136  1
  Mg  Mg2_4  1  0.91278862  0.41278862  0.15659136  1
  Mg  Mg2_5  1  0.91278862  0.41278862  0.65659136  1
  Mg  Mg2_6  1  0.91278862  0.91278862  0.15659136  1
  Mg  Mg2_7  1  0.91278862  0.91278862  0.65659136  1
loop_
_geom_bond_atom_site_label_1
_geom_bond_atom_site_label_2
_geom_bond_distance
_geom_bond_site_symmetry_2
Li0_0 Li1_4 2.836535 1_455
Li0_0 Li1_2 2.836535 1_545
Li0_0 Li2_3 2.941246 1_544
Li0_0 Li2_5 2.941246 1_454
Li0_0 Mg2_4 2.967344 1_455
Li0_0 Mg2_2 2.967344 1_545
Li0_0 Mg1_2 3.028507 1_545
Li0_0 Mg1_4 3.028507 1_455
Li0_1 Li1_5 2.836535 1_455
Li0_1 Li1_3 2.836535 1_545
Li0_1 Li2_2 2.941246 1_545
Li0_1 Li2_4 2.941246 1_455
Li0_1 Mg2_3 2.967344 1_545
Li0_1 Mg2_5 2.967344 1_455
Li0_1 Mg1_3 3.028507 1_545
Li0_1 Mg1_5 3.028507 1_455
Li0_2 Li1_0 2.836535 1_555
Li0_2 Li1_6 2.836535 1_455
Li0_2 Li2_7 2.941246 1_454
Li0_2 Li2_1 2.941246 1_554
Li0_2 Mg2_6 2.967344 1_455
Li0_2 Mg2_0 2.967344 1_555
Li0_2 Mg1_0 3.028507 1_555
Li0_2 Mg1_6 3.028507 1_455
Li0_3 Li1_1 2.836535 1_555
Li0_3 Li1_7 2.836535 1_455
Li0_3 Li2_6 2.941246 1_455
Li0_3 Li2_0 2.941246 1_555
Li0_3 Mg2_7 2.967344 1_455
Li0_3 Mg2_1 2.967344 1_555
Li0_3 Mg1_1 3.028507 1_555
Li0_3 Mg1_7 3.028507 1_455
Li0_4 Li1_0 2.836535 1_555
Li0_4 Li1_6 2.836535 1_545
Li0_4 Li2_7 2.941246 1_544
Li0_4 Li2_1 2.941246 1_554
Li0_4 Mg2_6 2.967344 1_545
Li0_4 Mg2_0 2.967344 1_555
Li0_4 Mg1_0 3.028507 1_555
Li0_4 Mg1_6 3.028507 1_545
Li0_5 Li1_1 2.836535 1_555
Li0_5 Li1_7 2.836535 1_545
Li0_5 Li2_6 2.941246 1_545
Li0_5 Li2_0 2.941246 1_555
Li0_5 Mg2_7 2.967344 1_545
Li0_5 Mg2_1 2.967344 1_555
Li0_5 Mg1_1 3.028507 1_555
Li0_5 Mg1_7 3.028507 1_545
Li0_6 Li1_4 2.836535 1_555
Li0_6 Li1_2 2.836535 1_555
Li0_6 Li2_5 2.941246 1_554
Li0_6 Li2_3 2.941246 1_554
Li0_6 Mg2_4 2.967344 1_555
Li0_6 Mg2_2 2.967344 1_555
Li0_6 Mg1_2 3.028507 1_555
Li0_6 Mg1_4 3.028507 1_555
Li0_7 Li1_3 2.836535 1_555
Li0_7 Li1_5 2.836535 1_555
Li0_7 Li2_2 2.941246 1_555
Li0_7 Li2_4 2.941246 1_555
Li0_7 Mg2_3 2.967344 1_555
Li0_7 Mg2_5 2.967344 1_555
Li0_7 Mg1_5 3.028507 1_555
Li0_7 Mg1_3 3.028507 1_555
Li1_0 Li2_3 2.836535 1_544
Li1_0 Li2_5 2.836535 1_454
Li1_0 Mg2_4 2.937211 1_455
Li1_0 Mg0_5 2.937211 1_554
Li1_0 Mg0_3 2.937211 1_554
Li1_0 Mg2_2 2.937211 1_545
Li1_1 Li2_4 2.836535 1_455
Li1_1 Li2_2 2.836535 1_545
Li1_1 Mg0_2 2.937211 1_555
Li1_1 Mg0_4 2.937211 1_555
Li1_1 Mg2_5 2.937211 1_455
Li1_1 Mg2_3 2.937211 1_545
Li1_2 Li2_1 2.836535 1_554
Li1_2 Li2_7 2.836535 1_454
Li1_2 Mg2_0 2.937211 1_555
Li1_2 Mg0_7 2.937211 1_554
Li1_2 Mg2_6 2.937211 1_455
Li1_2 Mg0_1 2.937211 1_564
Li1_3 Li2_0 2.836535 1_555
Li1_3 Li2_6 2.836535 1_455
Li1_3 Mg0_6 2.937211 1_555
Li1_3 Mg0_0 2.937211 1_565
Li1_3 Mg2_7 2.937211 1_455
Li1_3 Mg2_1 2.937211 1_555
Li1_4 Li2_1 2.836535 1_554
Li1_4 Li2_7 2.836535 1_544
Li1_4 Mg0_7 2.937211 1_554
Li1_4 Mg2_0 2.937211 1_555
Li1_4 Mg0_1 2.937211 1_654
Li1_4 Mg2_6 2.937211 1_545
Li1_5 Li2_0 2.836535 1_555
Li1_5 Li2_6 2.836535 1_545
Li1_5 Mg0_6 2.937211 1_555
Li1_5 Mg0_0 2.937211 1_655
Li1_5 Mg2_7 2.937211 1_545
Li1_5 Mg2_1 2.937211 1_555
Li1_6 Li2_5 2.836535 1_554
Li1_6 Li2_3 2.836535 1_554
Li1_6 Mg2_4 2.937211 1_555
Li1_6 Mg2_2 2.937211 1_555
Li1_6 Mg0_3 2.937211 1_654
Li1_6 Mg0_5 2.937211 1_564
Li1_7 Li2_4 2.836535 1_555
Li1_7 Li2_2 2.836535 1_555
Li1_7 Mg2_5 2.937211 1_555
Li1_7 Mg0_2 2.937211 1_655
Li1_7 Mg2_3 2.937211 1_555
Li1_7 Mg0_4 2.937211 1_565
Li2_0 Mg0_4 2.967344 1_555
Li2_0 Mg0_2 2.967344 1_555
Li2_0 Mg1_2 3.028507 1_555
Li2_0 Mg1_4 3.028507 1_555
Li2_1 Mg0_5 2.967344 1_555
Li2_1 Mg0_3 2.967344 1_555
Li2_1 Mg1_3 3.028507 1_555
Li2_1 Mg1_5 3.028507 1_555
Li2_2 Mg0_0 2.967344 1_565
Li2_2 Mg0_6 2.967344 1_555
Li2_2 Mg1_6 3.028507 1_555
Li2_2 Mg1_0 3.028507 1_565
Li2_3 Mg0_1 2.967344 1_565
Li2_3 Mg0_7 2.967344 1_555
Li2_3 Mg1_7 3.028507 1_555
Li2_3 Mg1_1 3.028507 1_565
Li2_4 Mg0_0 2.967344 1_655
Li2_4 Mg0_6 2.967344 1_555
Li2_4 Mg1_6 3.028507 1_555
Li2_4 Mg1_0 3.028507 1_655
Li2_5 Mg0_1 2.967344 1_655
Li2_5 Mg0_7 2.967344 1_555
Li2_5 Mg1_7 3.028507 1_555
Li2_5 Mg1_1 3.028507 1_655
Li2_6 Mg0_4 2.967344 1_565
Li2_6 Mg0_2 2.967344 1_655
Li2_6 Mg1_2 3.028507 1_655
Li2_6 Mg1_4 3.028507 1_565
Li2_7 Mg0_5 2.967344 1_565
Li2_7 Mg0_3 2.967344 1_655
Li2_7 Mg1_3 3.028507 1_655
Li2_7 Mg1_5 3.028507 1_565
Mg0_0 Mg1_4 3.124886 1_455
Mg0_0 Mg1_2 3.124886 1_545
Mg0_0 Mg2_2 3.126616 1_545
Mg0_0 Mg2_4 3.126616 1_455
Mg0_0 Mg1_0 3.335081 1_555
Mg0_1 Mg1_5 3.124886 1_455
Mg0_1 Mg1_3 3.124886 1_545
Mg0_1 Mg2_3 3.126616 1_545
Mg0_1 Mg2_5 3.126616 1_455
Mg0_1 Mg1_1 3.335081 1_555
Mg0_2 Mg1_0 3.124886 1_555
Mg0_2 Mg1_6 3.124886 1_455
Mg0_2 Mg2_6 3.126616 1_455
Mg0_2 Mg2_0 3.126616 1_555
Mg0_2 Mg1_2 3.335081 1_555
Mg0_3 Mg1_1 3.124886 1_555
Mg0_3 Mg1_7 3.124886 1_455
Mg0_3 Mg2_1 3.126616 1_555
Mg0_3 Mg2_7 3.126616 1_455
Mg0_3 Mg1_3 3.335081 1_555
Mg0_4 Mg1_0 3.124886 1_555
Mg0_4 Mg1_6 3.124886 1_545
Mg0_4 Mg2_6 3.126616 1_545
Mg0_4 Mg2_0 3.126616 1_555
Mg0_4 Mg1_4 3.335081 1_555
Mg0_5 Mg1_1 3.124886 1_555
Mg0_5 Mg1_7 3.124886 1_545
Mg0_5 Mg2_1 3.126616 1_555
Mg0_5 Mg2_7 3.126616 1_545
Mg0_5 Mg1_5 3.335081 1_555
Mg0_6 Mg1_2 3.124886 1_555
Mg0_6 Mg1_4 3.124886 1_555
Mg0_6 Mg2_4 3.126616 1_555
Mg0_6 Mg2_2 3.126616 1_555
Mg0_6 Mg1_6 3.335081 1_555
Mg0_7 Mg1_5 3.124886 1_555
Mg0_7 Mg1_3 3.124886 1_555
Mg0_7 Mg2_3 3.126616 1_555
Mg0_7 Mg2_5 3.126616 1_555
Mg0_7 Mg1_7 3.335081 1_555
Mg1_0 Mg2_4 3.124886 1_455
Mg1_0 Mg2_2 3.124886 1_545
Mg1_0 Mg2_0 3.335081 1_555
Mg1_0 Mg1_6 3.339720 1_455
Mg1_0 Mg1_6 3.339720 1_545
Mg1_1 Mg2_5 3.124886 1_455
Mg1_1 Mg2_3 3.124886 1_545
Mg1_1 Mg2_1 3.335081 1_555
Mg1_1 Mg1_7 3.339720 1_545
Mg1_1 Mg1_7 3.339720 1_455
Mg1_2 Mg2_0 3.124886 1_555
Mg1_2 Mg2_6 3.124886 1_455
Mg1_2 Mg2_2 3.335081 1_555
Mg1_2 Mg1_4 3.339720 1_555
Mg1_2 Mg1_4 3.339720 1_465
Mg1_3 Mg2_1 3.124886 1_555
Mg1_3 Mg2_7 3.124886 1_455
Mg1_3 Mg2_3 3.335081 1_555
Mg1_3 Mg1_5 3.339720 1_555
Mg1_3 Mg1_5 3.339720 1_465
Mg1_4 Mg2_0 3.124886 1_555
Mg1_4 Mg2_6 3.124886 1_545
Mg1_4 Mg2_4 3.335081 1_555
Mg1_5 Mg2_1 3.124886 1_555
Mg1_5 Mg2_7 3.124886 1_545
Mg1_5 Mg2_5 3.335081 1_555
Mg1_6 Mg2_4 3.124886 1_555
Mg1_6 Mg2_2 3.124886 1_555
Mg1_6 Mg2_6 3.335081 1_555
Mg1_7 Mg2_5 3.124886 1_555
Mg1_7 Mg2_3 3.124886 1_555
Mg1_7 Mg2_7 3.335081 1_555
