# generated using pymatgen
data_Hf4Co4Si7
_symmetry_space_group_name_H-M   'P 1'
_cell_length_a   9.37055985
_cell_length_b   9.37055680
_cell_length_c   9.37090070
_cell_angle_alpha   94.08042885
_cell_angle_beta   94.08041627
_cell_angle_gamma   149.05935767
_symmetry_Int_Tables_number   1
_chemical_formula_structural   Hf4Co4Si7
_chemical_formula_sum   'Hf8 Co8 Si14'
_cell_volume   407.72897694
_cell_formula_units_Z   2
loop_
 _symmetry_equiv_pos_site_id
 _symmetry_equiv_pos_as_xyz
  1  'x, y, z'
loop_
 _atom_site_type_symbol
 _atom_site_label
 _atom_site_symmetry_multiplicity
 _atom_site_fract_x
 _atom_site_fract_y
 _atom_site_fract_z
 _atom_site_occupancy
  Hf  Hf0  1  0.13769417  0.13769976  0.27535161  1
  Hf  Hf1  1  0.86229965  0.86230551  0.72464736  1
  Hf  Hf2  1  0.13765552  0.86234583  0.00000148  1
  Hf  Hf3  1  0.86234811  0.13765340  0.00000141  1
  Hf  Hf4  1  0.30312882  0.49994541  0.80315592  1
  Hf  Hf5  1  0.69687235  0.50005970  0.19685021  1
  Hf  Hf6  1  0.50005547  0.69687042  0.19684461  1
  Hf  Hf7  1  0.49994164  0.30312724  0.80315038  1
  Co  Co0  1  0.10200746  0.60198520  0.20397849  1
  Co  Co1  1  0.39801617  0.89799394  0.79602451  1
  Co  Co2  1  0.89802474  0.10197186  0.49999645  1
  Co  Co3  1  0.60196758  0.39802927  0.49999633  1
  Co  Co4  1  0.60199154  0.10199449  0.20397626  1
  Co  Co5  1  0.89800689  0.39800975  0.79602643  1
  Co  Co6  1  0.10196378  0.89803260  0.49999637  1
  Co  Co7  1  0.39802596  0.60197081  0.49999624  1
  Si  Si0  1  0.28940421  0.28940750  0.57887236  1
  Si  Si1  1  0.71059100  0.71059428  0.42112777  1
  Si  Si2  1  0.28943991  0.71056372  0.00000123  1
  Si  Si3  1  0.71056315  0.28943434  0.00000085  1
  Si  Si4  1  0.09206138  0.50001012  0.59207422  1
  Si  Si5  1  0.90794147  0.49999196  0.40792756  1
  Si  Si6  1  0.49999181  0.90794036  0.40792623  1
  Si  Si7  1  0.50000752  0.09205779  0.59207286  1
  Si  Si8  1  0.25094470  0.25094775  0.99999505  1
  Si  Si9  1  0.74905327  0.74905493  0.00000545  1
  Si  Si10  1  0.30267364  0.99998235  0.30269452  1
  Si  Si11  1  0.69732733  0.00001719  0.69730732  1
  Si  Si12  1  0.00001799  0.69732676  0.69730562  1
  Si  Si13  1  0.99998277  0.30267277  0.30269290  1
loop_
_geom_bond_atom_site_label_1
_geom_bond_atom_site_label_2
_geom_bond_distance
_geom_bond_site_symmetry_2
Hf0 Si0 2.741191 1_555
Hf0 Si13 2.744688 1_455
Hf0 Si10 2.744802 1_545
Hf0 Si9 2.785255 1_445
Hf0 Si8 2.785326 1_554
Hf0 Si1 2.825018 1_555
Hf0 Si1 2.825037 1_445
Hf1 Si1 2.741181 1_555
Hf1 Si11 2.744684 1_565
Hf1 Si12 2.744803 1_655
Hf1 Si8 2.785268 1_665
Hf1 Si9 2.785338 1_556
Hf1 Si0 2.825021 1_555
Hf1 Si0 2.825025 1_665
Hf2 Si2 2.741525 1_555
Hf2 Si10 2.744878 1_555
Hf2 Si12 2.744903 1_554
Hf2 Si9 2.784904 1_455
Hf2 Si8 2.784914 1_564
Hf2 Si3 2.825184 1_565
Hf2 Si3 2.825197 1_455
Hf3 Si3 2.741519 1_555
Hf3 Si13 2.744866 1_555
Hf3 Si11 2.744890 1_554
Hf3 Si8 2.784830 1_654
Hf3 Si9 2.784840 1_545
Hf3 Si2 2.825184 1_545
Hf3 Si2 2.825192 1_655
Hf4 Si0 2.694850 1_555
Hf4 Si2 2.695191 1_556
Hf4 Si4 2.696263 1_555
Hf4 Si8 2.805215 1_555
Hf4 Si9 2.805407 1_556
Hf4 Si11 2.841457 1_455
Hf4 Si11 2.842041 1_565
Hf5 Si1 2.694825 1_555
Hf5 Si3 2.695276 1_555
Hf5 Si5 2.696265 1_555
Hf5 Si9 2.805252 1_555
Hf5 Si8 2.805444 1_554
Hf5 Si10 2.841457 1_655
Hf5 Si10 2.842047 1_545
Hf6 Si1 2.694838 1_555
Hf6 Si2 2.695191 1_555
Hf6 Si6 2.696271 1_555
Hf6 Si9 2.805215 1_555
Hf6 Si8 2.805388 1_554
Hf6 Si13 2.841461 1_565
Hf6 Si13 2.842046 1_455
Hf7 Si0 2.694839 1_555
Hf7 Si3 2.695271 1_556
Hf7 Si7 2.696255 1_555
Hf7 Si8 2.805270 1_555
Hf7 Si9 2.805444 1_556
Hf7 Si12 2.841451 1_545
Hf7 Si12 2.842045 1_655
Co0 Si2 2.337250 1_555
Co0 Si3 2.337329 1_455
Co0 Si13 2.351933 1_455
Co0 Si10 2.352061 1_555
Co0 Si6 2.375935 1_555
Co0 Si5 2.376174 1_455
Co0 Co4 2.499484 1_565
Co0 Co4 2.499506 1_455
Co0 Hf6 3.010387 1_555
Co0 Hf5 3.010629 1_455
Co0 Hf3 3.012038 1_455
Co0 Hf2 3.012309 1_555
Co1 Si2 2.337239 1_556
Co1 Si3 2.337310 1_566
Co1 Si11 2.351945 1_565
Co1 Si12 2.352072 1_555
Co1 Si4 2.375947 1_555
Co1 Si7 2.376190 1_565
Co1 Co5 2.499484 1_455
Co1 Co5 2.499507 1_565
Co1 Hf4 3.010372 1_555
Co1 Hf7 3.010613 1_565
Co1 Hf3 3.012039 1_566
Co1 Hf2 3.012309 1_556
Co2 Si1 2.336905 1_545
Co2 Si0 2.336921 1_655
Co2 Si13 2.352068 1_555
Co2 Si11 2.352118 1_555
Co2 Si6 2.376430 1_545
Co2 Si4 2.376458 1_655
Co2 Co7 2.499494 1_545
Co2 Co7 2.499496 1_655
Co2 Hf6 3.010172 1_545
Co2 Hf4 3.010234 1_655
Co2 Hf0 3.011769 1_655
Co2 Hf1 3.011805 1_545
Co3 Si1 2.337069 1_555
Co3 Si0 2.337097 1_555
Co3 Si10 2.352123 1_545
Co3 Si12 2.352174 1_655
Co3 Si5 2.376541 1_555
Co3 Si7 2.376569 1_555
Co3 Co6 2.499494 1_655
Co3 Co6 2.499496 1_545
Co3 Hf5 3.010376 1_555
Co3 Hf7 3.010441 1_555
Co3 Hf0 3.011634 1_555
Co3 Hf1 3.011671 1_555
Co4 Si2 2.337256 1_545
Co4 Si3 2.337274 1_555
Co4 Si13 2.351949 1_555
Co4 Si10 2.352066 1_545
Co4 Si5 2.376023 1_555
Co4 Si6 2.376117 1_545
Co4 Hf6 3.010446 1_545
Co4 Hf5 3.010567 1_555
Co4 Hf2 3.012113 1_545
Co4 Hf3 3.012211 1_555
Co5 Si2 2.337262 1_656
Co5 Si3 2.337276 1_556
Co5 Si11 2.351956 1_555
Co5 Si12 2.352076 1_655
Co5 Si7 2.376041 1_555
Co5 Si4 2.376136 1_655
Co5 Hf4 3.010433 1_655
Co5 Hf7 3.010554 1_555
Co5 Hf2 3.012113 1_656
Co5 Hf3 3.012211 1_556
Co6 Si1 2.336839 1_455
Co6 Si0 2.336854 1_565
Co6 Si10 2.352114 1_555
Co6 Si12 2.352164 1_555
Co6 Si5 2.376543 1_455
Co6 Si7 2.376568 1_565
Co6 Hf5 3.010122 1_455
Co6 Hf7 3.010186 1_565
Co6 Hf0 3.011742 1_565
Co6 Hf1 3.011782 1_455
Co7 Si1 2.337070 1_555
Co7 Si0 2.337096 1_555
Co7 Si13 2.352106 1_455
Co7 Si11 2.352156 1_565
Co7 Si6 2.376491 1_555
Co7 Si4 2.376516 1_555
Co7 Hf6 3.010421 1_555
Co7 Hf4 3.010489 1_555
Co7 Hf0 3.011606 1_555
Co7 Hf1 3.011644 1_555
Si4 Si5 2.351639 1_455
Si6 Si7 2.351638 1_565
Si8 Si9 2.490010 1_556
Si8 Si9 2.508980 1_446
