# generated using pymatgen
data_YbAl2Cu
_symmetry_space_group_name_H-M   'P 1'
_cell_length_a   9.12677278
_cell_length_b   9.12677278
_cell_length_c   9.12677348
_cell_angle_alpha   34.78940754
_cell_angle_beta   34.78940754
_cell_angle_gamma   34.78940349
_symmetry_Int_Tables_number   1
_chemical_formula_structural   YbAl2Cu
_chemical_formula_sum   'Yb3 Al6 Cu3'
_cell_volume   220.89943695
_cell_formula_units_Z   3
loop_
 _symmetry_equiv_pos_site_id
 _symmetry_equiv_pos_as_xyz
  1  'x, y, z'
loop_
 _atom_site_type_symbol
 _atom_site_label
 _atom_site_symmetry_multiplicity
 _atom_site_fract_x
 _atom_site_fract_y
 _atom_site_fract_z
 _atom_site_occupancy
  Yb  Yb0  1  0.00000000  0.00000000  0.00000000  1
  Yb  Yb1  1  0.14484200  0.14484200  0.14484200  1
  Yb  Yb2  1  0.85515800  0.85515800  0.85515800  1
  Al  Al0  1  0.07865900  0.57975600  0.57975600  1
  Al  Al1  1  0.57975600  0.07865900  0.57975600  1
  Al  Al2  1  0.57975600  0.57975600  0.07865900  1
  Al  Al3  1  0.42024400  0.42024400  0.92134100  1
  Al  Al4  1  0.42024400  0.92134100  0.42024400  1
  Al  Al5  1  0.92134100  0.42024400  0.42024400  1
  Cu  Cu0  1  0.33459200  0.33459200  0.33459200  1
  Cu  Cu1  1  0.50000000  0.50000000  0.50000000  1
  Cu  Cu2  1  0.66540800  0.66540800  0.66540800  1
loop_
_geom_bond_atom_site_label_1
_geom_bond_atom_site_label_2
_geom_bond_distance
_geom_bond_site_symmetry_2
Al0 Cu0 2.554124 1_555
Al0 Cu2 2.601098 1_455
Al0 Al1 2.722486 1_465
Al0 Al2 2.722486 1_456
Al0 Al1 2.734458 1_555
Al0 Al2 2.734459 1_555
Al0 Cu1 2.742697 1_555
Al0 Yb1 3.205222 1_565
Al0 Yb1 3.205222 1_556
Al0 Yb2 3.214152 1_455
Al0 Yb0 3.406850 1_556
Al0 Yb0 3.406850 1_565
Al1 Cu0 2.554124 1_555
Al1 Cu2 2.601098 1_545
Al1 Al2 2.722486 1_546
Al1 Al2 2.734459 1_555
Al1 Cu1 2.742697 1_555
Al1 Yb1 3.205222 1_655
Al1 Yb1 3.205222 1_556
Al1 Yb2 3.214152 1_545
Al1 Yb0 3.406850 1_556
Al1 Yb0 3.406850 1_655
Al2 Cu0 2.554124 1_555
Al2 Cu2 2.601099 1_554
Al2 Cu1 2.742698 1_555
Al2 Yb1 3.205222 1_565
Al2 Yb1 3.205222 1_655
Al2 Yb2 3.214152 1_554
Al2 Yb0 3.406850 1_655
Al2 Yb0 3.406850 1_565
Al3 Cu2 2.554124 1_555
Al3 Cu0 2.601099 1_556
Al3 Al4 2.722486 1_546
Al3 Al5 2.722486 1_456
Al3 Al4 2.734459 1_555
Al3 Al5 2.734459 1_555
Al3 Cu1 2.742698 1_555
Al3 Yb2 3.205222 1_455
Al3 Yb2 3.205222 1_545
Al3 Yb1 3.214152 1_556
Al3 Yb0 3.406850 1_656
Al3 Yb0 3.406850 1_566
Al4 Cu2 2.554124 1_555
Al4 Cu0 2.601098 1_565
Al4 Al5 2.722486 1_465
Al4 Al5 2.734458 1_555
Al4 Cu1 2.742697 1_555
Al4 Yb2 3.205222 1_455
Al4 Yb2 3.205222 1_554
Al4 Yb1 3.214152 1_565
Al4 Yb0 3.406850 1_665
Al4 Yb0 3.406850 1_566
Al5 Cu2 2.554124 1_555
Al5 Cu0 2.601098 1_655
Al5 Cu1 2.742697 1_555
Al5 Yb2 3.205222 1_545
Al5 Yb2 3.205222 1_554
Al5 Yb1 3.214152 1_655
Al5 Yb0 3.406850 1_665
Al5 Yb0 3.406850 1_656
Cu0 Yb0 3.150734 1_655
Cu0 Yb0 3.150734 1_565
Cu0 Yb0 3.150735 1_556
Cu1 Yb1 3.200096 1_565
Cu1 Yb1 3.200096 1_655
Cu1 Yb2 3.200096 1_545
Cu1 Yb2 3.200096 1_455
Cu1 Yb2 3.200096 1_554
Cu1 Yb1 3.200096 1_556
Cu2 Yb0 3.150734 1_566
Cu2 Yb0 3.150734 1_656
Cu2 Yb0 3.150735 1_665
