# generated using pymatgen
data_KAlAs2O7
_symmetry_space_group_name_H-M   'P 1'
_cell_length_a   6.30575900
_cell_length_b   6.39044132
_cell_length_c   8.32499693
_cell_angle_alpha   96.79878221
_cell_angle_beta   104.57823376
_cell_angle_gamma   102.49408907
_symmetry_Int_Tables_number   1
_chemical_formula_structural   KAlAs2O7
_chemical_formula_sum   'K2 Al2 As4 O14'
_cell_volume   311.63179394
_cell_formula_units_Z   2
loop_
 _symmetry_equiv_pos_site_id
 _symmetry_equiv_pos_as_xyz
  1  'x, y, z'
loop_
 _atom_site_type_symbol
 _atom_site_label
 _atom_site_symmetry_multiplicity
 _atom_site_fract_x
 _atom_site_fract_y
 _atom_site_fract_z
 _atom_site_occupancy
  K  K0  1  0.00000000  0.00000000  0.50000000  1
  K  K1  1  0.00000000  0.00000000  0.00000000  1
  Al  Al0  1  0.62530100  0.31119900  0.77216000  1
  Al  Al1  1  0.37469900  0.68880100  0.22784000  1
  As  As0  1  0.17547300  0.47039700  0.81186100  1
  As  As1  1  0.82452700  0.52960300  0.18813900  1
  As  As2  1  0.51241400  0.75629400  0.66406700  1
  As  As3  1  0.48758600  0.24370600  0.33593300  1
  O  O0  1  0.90630600  0.31256100  0.72258900  1
  O  O1  1  0.09369400  0.68743900  0.27741100  1
  O  O2  1  0.33761800  0.28858500  0.81599500  1
  O  O3  1  0.66238200  0.71141500  0.18400500  1
  O  O4  1  0.21751500  0.64942800  0.99019700  1
  O  O5  1  0.78248500  0.35057200  0.00980300  1
  O  O6  1  0.22224700  0.63708900  0.65522700  1
  O  O7  1  0.77775300  0.36291100  0.34477300  1
  O  O8  1  0.41383800  0.98974200  0.22064600  1
  O  O9  1  0.58616200  0.01025800  0.77935400  1
  O  O10  1  0.45875800  0.24787400  0.53333000  1
  O  O11  1  0.54124200  0.75212600  0.46667000  1
  O  O12  1  0.31991100  0.38122200  0.21983200  1
  O  O13  1  0.68008900  0.61877800  0.78016800  1
loop_
_geom_bond_atom_site_label_1
_geom_bond_atom_site_label_2
_geom_bond_distance
_geom_bond_site_symmetry_2
K0 O1 2.820969 1_545
K0 O0 2.820969 1_455
K0 O11 2.909248 1_445
K0 O10 2.909248 1_555
K0 O3 3.031011 1_445
K0 O2 3.031011 1_555
K0 O7 3.196350 1_455
K0 O6 3.196350 1_545
K1 O8 2.806728 1_545
K1 O9 2.806728 1_454
K1 O5 2.872198 1_455
K1 O4 2.872198 1_544
K1 O13 2.883260 1_444
K1 O12 2.883260 1_555
K1 O0 3.253939 1_454
K1 O1 3.253939 1_545
K1 O3 3.300262 1_445
K1 O2 3.300262 1_554
Al0 O9 1.895345 1_555
Al0 O13 1.910710 1_555
Al0 O0 1.916370 1_555
Al0 O2 1.917597 1_555
Al0 O5 1.935667 1_556
Al0 O10 1.947899 1_555
Al1 O8 1.895345 1_555
Al1 O12 1.910710 1_555
Al1 O1 1.916370 1_555
Al1 O3 1.917597 1_555
Al1 O4 1.935667 1_554
Al1 O11 1.947899 1_555
As0 O4 1.688746 1_555
As0 O0 1.702148 1_455
As0 O2 1.703598 1_555
As0 O6 1.818962 1_555
As1 O5 1.688746 1_555
As1 O1 1.702148 1_655
As1 O3 1.703598 1_555
As1 O7 1.818962 1_555
As2 O9 1.688584 1_565
As2 O11 1.695995 1_555
As2 O13 1.706773 1_555
As2 O6 1.802626 1_555
As3 O8 1.688584 1_545
As3 O10 1.695995 1_555
As3 O12 1.706773 1_555
As3 O7 1.802626 1_555
