# generated using pymatgen
data_RbNpO3
_symmetry_space_group_name_H-M   'P 1'
_cell_length_a   4.30552394
_cell_length_b   4.30554268
_cell_length_c   4.30477441
_cell_angle_alpha   90.28442337
_cell_angle_beta   90.28837595
_cell_angle_gamma   89.67589711
_symmetry_Int_Tables_number   1
_chemical_formula_structural   RbNpO3
_chemical_formula_sum   'Rb1 Np1 O3'
_cell_volume   79.79700012
_cell_formula_units_Z   1
loop_
 _symmetry_equiv_pos_site_id
 _symmetry_equiv_pos_as_xyz
  1  'x, y, z'
loop_
 _atom_site_type_symbol
 _atom_site_label
 _atom_site_symmetry_multiplicity
 _atom_site_fract_x
 _atom_site_fract_y
 _atom_site_fract_z
 _atom_site_occupancy
  Rb  Rb0  1  -0.00000000  0.00000100  -0.00000000  1
  Np  Np0  1  0.50000000  0.49999900  0.50000100  1
  O  O0  1  0.49999900  0.50000100  0.00000000  1
  O  O1  1  0.49999900  0.00000000  0.50000000  1
  O  O2  1  0.00000100  0.49999900  0.50000000  1
loop_
_geom_bond_atom_site_label_1
_geom_bond_atom_site_label_2
_geom_bond_distance
_geom_bond_site_symmetry_2
Np0 O0 2.152383 1_556
Np0 O0 2.152392 1_555
Np0 O2 2.152758 1_555
Np0 O2 2.152766 1_655
Np0 O1 2.152767 1_555
Np0 O1 2.152776 1_565
O0 Rb0 3.035846 1_565
O0 Rb0 3.035852 1_655
O0 Rb0 3.053067 1_555
O0 Rb0 3.053073 1_665
O1 Rb0 3.036527 1_555
O1 Rb0 3.036533 1_656
O1 Rb0 3.051848 1_556
O1 Rb0 3.051855 1_655
O2 Rb0 3.036635 1_555
O2 Rb0 3.036648 1_566
O2 Rb0 3.051747 1_556
O2 Rb0 3.051759 1_565
