# generated using pymatgen
data_Ag
_symmetry_space_group_name_H-M   'P 1'
_cell_length_a   5.89218931
_cell_length_b   5.89218931
_cell_length_c   14.80542302
_cell_angle_alpha   101.47775633
_cell_angle_beta   78.52224367
_cell_angle_gamma   120.00001467
_symmetry_Int_Tables_number   1
_chemical_formula_structural   Ag
_chemical_formula_sum   Ag24
_cell_volume   433.23829102
_cell_formula_units_Z   24
loop_
 _symmetry_equiv_pos_site_id
 _symmetry_equiv_pos_as_xyz
  1  'x, y, z'
loop_
 _atom_site_type_symbol
 _atom_site_label
 _atom_site_symmetry_multiplicity
 _atom_site_fract_x
 _atom_site_fract_y
 _atom_site_fract_z
 _atom_site_occupancy
  Ag  Ag0_0  1  0.00000000  0.00000000  0.00000000  1
  Ag  Ag0_1  1  0.00000000  0.00000000  0.50000000  1
  Ag  Ag0_2  1  0.00000000  0.50000000  0.00000000  1
  Ag  Ag0_3  1  0.00000000  0.50000000  0.50000000  1
  Ag  Ag0_4  1  0.50000000  0.00000000  0.00000000  1
  Ag  Ag0_5  1  0.50000000  0.00000000  0.50000000  1
  Ag  Ag0_6  1  0.50000000  0.50000000  0.00000000  1
  Ag  Ag0_7  1  0.50000000  0.50000000  0.50000000  1
  Ag  Ag1_0  1  0.11114100  0.38886000  0.16657850  1
  Ag  Ag1_1  1  0.11114100  0.38886000  0.66657850  1
  Ag  Ag1_2  1  0.11114100  0.88886000  0.16657850  1
  Ag  Ag1_3  1  0.11114100  0.88886000  0.66657850  1
  Ag  Ag1_4  1  0.61114100  0.38886000  0.16657850  1
  Ag  Ag1_5  1  0.61114100  0.38886000  0.66657850  1
  Ag  Ag1_6  1  0.61114100  0.88886000  0.16657850  1
  Ag  Ag1_7  1  0.61114100  0.88886000  0.66657850  1
  Ag  Ag2_0  1  0.38886000  0.11114100  0.33342150  1
  Ag  Ag2_1  1  0.38886000  0.11114100  0.83342150  1
  Ag  Ag2_2  1  0.38886000  0.61114100  0.33342150  1
  Ag  Ag2_3  1  0.38886000  0.61114100  0.83342150  1
  Ag  Ag2_4  1  0.88886000  0.11114100  0.33342150  1
  Ag  Ag2_5  1  0.88886000  0.11114100  0.83342150  1
  Ag  Ag2_6  1  0.88886000  0.61114100  0.33342150  1
  Ag  Ag2_7  1  0.88886000  0.61114100  0.83342150  1
loop_
_geom_bond_atom_site_label_1
_geom_bond_atom_site_label_2
_geom_bond_distance
_geom_bond_site_symmetry_2
Ag0_0 Ag1_6 2.941852 1_445
Ag0_0 Ag2_7 2.941852 1_444
Ag0_0 Ag1_2 2.941853 1_545
Ag0_0 Ag2_5 2.941853 1_454
Ag0_0 Ag1_0 2.941855 1_555
Ag0_0 Ag2_1 2.941855 1_554
Ag0_0 Ag0_6 2.946094 1_445
Ag0_0 Ag0_6 2.946094 1_555
Ag0_0 Ag0_4 2.946095 1_555
Ag0_0 Ag0_4 2.946095 1_455
Ag0_0 Ag0_2 2.946095 1_555
Ag0_0 Ag0_2 2.946095 1_545
Ag0_1 Ag1_7 2.941852 1_445
Ag0_1 Ag2_6 2.941852 1_445
Ag0_1 Ag1_3 2.941853 1_545
Ag0_1 Ag2_4 2.941853 1_455
Ag0_1 Ag1_1 2.941855 1_555
Ag0_1 Ag2_0 2.941855 1_555
Ag0_1 Ag0_7 2.946094 1_555
Ag0_1 Ag0_7 2.946094 1_445
Ag0_1 Ag0_5 2.946095 1_555
Ag0_1 Ag0_3 2.946095 1_545
Ag0_1 Ag0_5 2.946095 1_455
Ag0_1 Ag0_3 2.946095 1_555
Ag0_2 Ag1_4 2.941852 1_455
Ag0_2 Ag2_5 2.941852 1_454
Ag0_2 Ag1_0 2.941853 1_555
Ag0_2 Ag2_7 2.941853 1_454
Ag0_2 Ag1_2 2.941855 1_555
Ag0_2 Ag2_3 2.941855 1_554
Ag0_2 Ag0_4 2.946094 1_565
Ag0_2 Ag0_4 2.946094 1_455
Ag0_2 Ag0_6 2.946095 1_555
Ag0_2 Ag0_6 2.946095 1_455
Ag0_3 Ag1_5 2.941852 1_455
Ag0_3 Ag2_4 2.941852 1_455
Ag0_3 Ag1_1 2.941853 1_555
Ag0_3 Ag2_6 2.941853 1_455
Ag0_3 Ag1_3 2.941855 1_555
Ag0_3 Ag2_2 2.941855 1_555
Ag0_3 Ag0_5 2.946094 1_565
Ag0_3 Ag0_5 2.946094 1_455
Ag0_3 Ag0_7 2.946095 1_455
Ag0_3 Ag0_7 2.946095 1_555
Ag0_4 Ag1_2 2.941852 1_545
Ag0_4 Ag2_3 2.941852 1_544
Ag0_4 Ag1_6 2.941853 1_545
Ag0_4 Ag2_1 2.941853 1_554
Ag0_4 Ag1_4 2.941855 1_555
Ag0_4 Ag2_5 2.941855 1_554
Ag0_4 Ag0_6 2.946095 1_555
Ag0_4 Ag0_6 2.946095 1_545
Ag0_5 Ag1_3 2.941852 1_545
Ag0_5 Ag2_2 2.941852 1_545
Ag0_5 Ag1_7 2.941853 1_545
Ag0_5 Ag2_0 2.941853 1_555
Ag0_5 Ag1_5 2.941855 1_555
Ag0_5 Ag2_4 2.941855 1_555
Ag0_5 Ag0_7 2.946095 1_545
Ag0_5 Ag0_7 2.946095 1_555
Ag0_6 Ag1_0 2.941852 1_555
Ag0_6 Ag2_1 2.941852 1_554
Ag0_6 Ag1_4 2.941853 1_555
Ag0_6 Ag2_3 2.941853 1_554
Ag0_6 Ag1_6 2.941855 1_555
Ag0_6 Ag2_7 2.941855 1_554
Ag0_7 Ag1_1 2.941852 1_555
Ag0_7 Ag2_0 2.941852 1_555
Ag0_7 Ag1_5 2.941853 1_555
Ag0_7 Ag2_2 2.941853 1_555
Ag0_7 Ag1_7 2.941855 1_555
Ag0_7 Ag2_6 2.941855 1_555
Ag1_0 Ag2_4 2.944963 1_455
Ag1_0 Ag2_2 2.944963 1_555
Ag1_0 Ag2_6 2.944964 1_455
Ag1_0 Ag1_6 2.946094 1_555
Ag1_0 Ag1_6 2.946094 1_445
Ag1_0 Ag1_4 2.946095 1_455
Ag1_0 Ag1_2 2.946095 1_545
Ag1_0 Ag1_2 2.946095 1_555
Ag1_0 Ag1_4 2.946095 1_555
Ag1_1 Ag2_3 2.944963 1_555
Ag1_1 Ag2_5 2.944963 1_455
Ag1_1 Ag2_7 2.944964 1_455
Ag1_1 Ag1_7 2.946094 1_555
Ag1_1 Ag1_7 2.946094 1_445
Ag1_1 Ag1_5 2.946095 1_455
Ag1_1 Ag1_3 2.946095 1_555
Ag1_1 Ag1_5 2.946095 1_555
Ag1_1 Ag1_3 2.946095 1_545
Ag1_2 Ag2_6 2.944963 1_455
Ag1_2 Ag2_0 2.944963 1_565
Ag1_2 Ag2_4 2.944964 1_465
Ag1_2 Ag1_4 2.946094 1_455
Ag1_2 Ag1_4 2.946094 1_565
Ag1_2 Ag1_6 2.946095 1_555
Ag1_2 Ag1_6 2.946095 1_455
Ag1_3 Ag2_7 2.944963 1_455
Ag1_3 Ag2_1 2.944963 1_565
Ag1_3 Ag2_5 2.944964 1_465
Ag1_3 Ag1_5 2.946094 1_455
Ag1_3 Ag1_5 2.946094 1_565
Ag1_3 Ag1_7 2.946095 1_455
Ag1_3 Ag1_7 2.946095 1_555
Ag1_4 Ag2_0 2.944963 1_555
Ag1_4 Ag2_6 2.944963 1_555
Ag1_4 Ag2_2 2.944964 1_555
Ag1_4 Ag1_6 2.946095 1_545
Ag1_4 Ag1_6 2.946095 1_555
Ag1_5 Ag2_7 2.944963 1_555
Ag1_5 Ag2_1 2.944963 1_555
Ag1_5 Ag2_3 2.944964 1_555
Ag1_5 Ag1_7 2.946095 1_555
Ag1_5 Ag1_7 2.946095 1_545
Ag1_6 Ag2_4 2.944963 1_565
Ag1_6 Ag2_2 2.944963 1_555
Ag1_6 Ag2_0 2.944964 1_565
Ag1_7 Ag2_5 2.944963 1_565
Ag1_7 Ag2_3 2.944963 1_555
Ag1_7 Ag2_1 2.944964 1_565
Ag2_0 Ag2_6 2.946094 1_445
Ag2_0 Ag2_6 2.946094 1_555
Ag2_0 Ag2_4 2.946095 1_555
Ag2_0 Ag2_2 2.946095 1_555
Ag2_0 Ag2_2 2.946095 1_545
Ag2_0 Ag2_4 2.946095 1_455
Ag2_1 Ag2_7 2.946094 1_445
Ag2_1 Ag2_7 2.946094 1_555
Ag2_1 Ag2_3 2.946095 1_555
Ag2_1 Ag2_5 2.946095 1_455
Ag2_1 Ag2_5 2.946095 1_555
Ag2_1 Ag2_3 2.946095 1_545
Ag2_2 Ag2_4 2.946094 1_565
Ag2_2 Ag2_4 2.946094 1_455
Ag2_2 Ag2_6 2.946095 1_455
Ag2_2 Ag2_6 2.946095 1_555
Ag2_3 Ag2_5 2.946094 1_455
Ag2_3 Ag2_5 2.946094 1_565
Ag2_3 Ag2_7 2.946095 1_455
Ag2_3 Ag2_7 2.946095 1_555
Ag2_4 Ag2_6 2.946095 1_555
Ag2_4 Ag2_6 2.946095 1_545
Ag2_5 Ag2_7 2.946095 1_545
Ag2_5 Ag2_7 2.946095 1_555
