# generated using pymatgen
data_EuZnGe
_symmetry_space_group_name_H-M   'P 1'
_cell_length_a   4.28010773
_cell_length_b   4.28010877
_cell_length_c   8.66232078
_cell_angle_alpha   90.00000000
_cell_angle_beta   90.00000000
_cell_angle_gamma   119.99999961
_symmetry_Int_Tables_number   1
_chemical_formula_structural   EuZnGe
_chemical_formula_sum   'Eu2 Zn2 Ge2'
_cell_volume   137.42773913
_cell_formula_units_Z   2
loop_
 _symmetry_equiv_pos_site_id
 _symmetry_equiv_pos_as_xyz
  1  'x, y, z'
loop_
 _atom_site_type_symbol
 _atom_site_label
 _atom_site_symmetry_multiplicity
 _atom_site_fract_x
 _atom_site_fract_y
 _atom_site_fract_z
 _atom_site_occupancy
  Eu  Eu0  1  0.00000000  -0.00000000  0.50000000  1
  Eu  Eu1  1  0.00000000  -0.00000000  -0.00000000  1
  Zn  Zn0  1  0.66666700  0.33333300  0.74989449  1
  Zn  Zn1  1  0.33333300  0.66666700  0.25010551  1
  Ge  Ge0  1  0.66666700  0.33333300  0.25010029  1
  Ge  Ge1  1  0.33333300  0.66666700  0.74989971  1
loop_
_geom_bond_atom_site_label_1
_geom_bond_atom_site_label_2
_geom_bond_distance
_geom_bond_site_symmetry_2
Eu0 Zn0 3.285150 1_455
Eu0 Zn1 3.285150 1_545
Eu0 Zn0 3.285152 1_555
Eu0 Zn1 3.285152 1_445
Eu0 Zn0 3.285153 1_445
Eu0 Zn1 3.285153 1_555
Eu0 Ge0 3.285180 1_455
Eu0 Ge1 3.285180 1_545
Eu0 Ge1 3.285182 1_445
Eu0 Ge0 3.285182 1_555
Eu0 Ge0 3.285183 1_445
Eu0 Ge1 3.285183 1_555
Eu1 Ge1 3.286325 1_544
Eu1 Ge0 3.286325 1_455
Eu1 Ge1 3.286327 1_444
Eu1 Ge0 3.286327 1_555
Eu1 Ge0 3.286328 1_445
Eu1 Ge1 3.286328 1_554
Eu1 Zn1 3.286355 1_545
Eu1 Zn0 3.286355 1_454
Eu1 Zn0 3.286357 1_554
Eu1 Zn1 3.286357 1_445
Eu1 Zn1 3.286358 1_555
Eu1 Zn0 3.286358 1_444
Ge0 Zn1 2.471119 1_655
Ge0 Zn1 2.471119 1_545
Ge0 Zn1 2.471127 1_555
Ge1 Zn0 2.471119 1_455
Ge1 Zn0 2.471119 1_565
Ge1 Zn0 2.471127 1_555
