# generated using pymatgen
data_HoVB4
_symmetry_space_group_name_H-M   'P 1'
_cell_length_a   3.42231473
_cell_length_b   5.98681846
_cell_length_c   11.58931921
_cell_angle_alpha   90.00000000
_cell_angle_beta   90.00000000
_cell_angle_gamma   90.00000000
_symmetry_Int_Tables_number   1
_chemical_formula_structural   HoVB4
_chemical_formula_sum   'Ho4 V4 B16'
_cell_volume   237.45097689
_cell_formula_units_Z   4
loop_
 _symmetry_equiv_pos_site_id
 _symmetry_equiv_pos_as_xyz
  1  'x, y, z'
loop_
 _atom_site_type_symbol
 _atom_site_label
 _atom_site_symmetry_multiplicity
 _atom_site_fract_x
 _atom_site_fract_y
 _atom_site_fract_z
 _atom_site_occupancy
  Ho  Ho0  1  0.50000000  0.12431769  0.65145279  1
  Ho  Ho1  1  0.50000000  0.87568231  0.34854721  1
  Ho  Ho2  1  0.50000000  0.62431769  0.84854721  1
  Ho  Ho3  1  0.50000000  0.37568231  0.15145279  1
  V  V0  1  0.50000000  0.12740001  0.91691927  1
  V  V1  1  0.50000000  0.87259999  0.08308073  1
  V  V2  1  0.50000000  0.62740001  0.58308073  1
  V  V3  1  0.50000000  0.37259999  0.41691927  1
  B  B0  1  0.00000000  0.47692576  0.69228137  1
  B  B1  1  -0.00000000  0.52307424  0.30771863  1
  B  B2  1  0.00000000  0.97692576  0.80771863  1
  B  B3  1  -0.00000000  0.02307424  0.19228137  1
  B  B4  1  0.00000000  0.28656777  0.81437788  1
  B  B5  1  -0.00000000  0.71343223  0.18562212  1
  B  B6  1  -0.00000000  0.78656777  0.68562212  1
  B  B7  1  -0.00000000  0.21343223  0.31437788  1
  B  B8  1  -0.00000000  0.36424567  0.96762116  1
  B  B9  1  0.00000000  0.63575433  0.03237884  1
  B  B10  1  -0.00000000  0.86424567  0.53237884  1
  B  B11  1  0.00000000  0.13575433  0.46762116  1
  B  B12  1  0.00000000  0.38499069  0.54761459  1
  B  B13  1  0.00000000  0.61500931  0.45238541  1
  B  B14  1  0.00000000  0.88499069  0.95238541  1
  B  B15  1  -0.00000000  0.11500931  0.04761459  1
loop_
_geom_bond_atom_site_label_1
_geom_bond_atom_site_label_2
_geom_bond_distance
_geom_bond_site_symmetry_2
B0 B12 1.764622 1_555
B0 B4 1.816878 1_555
B0 B6 1.855376 1_555
B0 V2 2.311116 1_555
B0 V2 2.311116 1_455
B0 Ho2 2.643195 1_555
B0 Ho2 2.643195 1_455
B0 Ho0 2.758311 1_455
B0 Ho0 2.758311 1_555
B1 B13 1.764622 1_555
B1 B5 1.816878 1_555
B1 B7 1.855376 1_555
B1 V3 2.311116 1_455
B1 V3 2.311116 1_555
B1 Ho3 2.643195 1_555
B1 Ho3 2.643195 1_455
B1 Ho1 2.758311 1_555
B1 Ho1 2.758311 1_455
B2 B6 1.816878 1_555
B2 B4 1.855376 1_565
B2 V0 2.311116 1_465
B2 V0 2.311116 1_565
B2 Ho0 2.643195 1_565
B2 Ho0 2.643195 1_465
B2 Ho2 2.758311 1_555
B2 Ho2 2.758311 1_455
B3 B7 1.816878 1_555
B3 B5 1.855376 1_545
B3 V1 2.311116 1_445
B3 V1 2.311116 1_545
B3 Ho1 2.643195 1_445
B3 Ho1 2.643195 1_545
B3 Ho3 2.758311 1_455
B3 Ho3 2.758311 1_555
B4 B8 1.835862 1_555
B4 V0 2.290928 1_555
B4 V0 2.290928 1_455
B4 Ho2 2.678349 1_455
B4 Ho2 2.678349 1_555
B4 Ho0 2.727062 1_555
B4 Ho0 2.727062 1_455
B5 B9 1.835862 1_555
B5 V1 2.290928 1_455
B5 V1 2.290928 1_555
B5 Ho3 2.678349 1_555
B5 Ho3 2.678349 1_455
B5 Ho1 2.727062 1_555
B5 Ho1 2.727062 1_455
B6 V2 2.290928 1_555
B6 V2 2.290928 1_455
B6 Ho0 2.678349 1_565
B6 Ho0 2.678349 1_465
B6 Ho2 2.727062 1_555
B6 Ho2 2.727062 1_455
B7 V3 2.290928 1_555
B7 V3 2.290928 1_455
B7 Ho1 2.678349 1_445
B7 Ho1 2.678349 1_545
B7 Ho3 2.727062 1_555
B7 Ho3 2.727062 1_455
B8 B9 1.790366 1_556
B8 V0 2.298678 1_555
B8 V0 2.298678 1_455
B8 Ho2 2.693823 1_555
B8 Ho2 2.693823 1_455
B8 Ho3 2.733442 1_456
B8 Ho3 2.733442 1_556
B9 V1 2.298678 1_555
B9 V1 2.298678 1_455
B9 Ho3 2.693823 1_455
B9 Ho3 2.693823 1_555
B9 Ho2 2.733442 1_554
B9 Ho2 2.733442 1_454
B10 B13 1.756678 1_555
B10 B11 1.790366 1_565
B10 B6 1.835862 1_555
B10 V2 2.298678 1_555
B10 V2 2.298678 1_455
B10 Ho0 2.693823 1_565
B10 Ho0 2.693823 1_465
B10 Ho1 2.733442 1_555
B10 Ho1 2.733442 1_455
B11 B12 1.756678 1_555
B11 B7 1.835862 1_555
B11 V3 2.298678 1_455
B11 V3 2.298678 1_555
B11 Ho1 2.693823 1_445
B11 Ho1 2.693823 1_545
B11 Ho0 2.733442 1_555
B11 Ho0 2.733442 1_455
B12 B13 1.764759 1_555
B12 V2 2.281044 1_455
B12 V2 2.281044 1_555
B12 V3 2.286435 1_455
B12 V3 2.286435 1_555
B12 Ho0 2.609932 1_555
B12 Ho0 2.609932 1_455
B13 V3 2.281044 1_555
B13 V3 2.281044 1_455
B13 V2 2.286435 1_555
B13 V2 2.286435 1_455
B13 Ho1 2.609932 1_555
B13 Ho1 2.609932 1_455
B14 B9 1.756678 1_556
B14 B2 1.764622 1_555
B14 B15 1.764759 1_566
B14 V0 2.281044 1_465
B14 V0 2.281044 1_565
B14 V1 2.286435 1_556
B14 V1 2.286435 1_456
B14 Ho2 2.609932 1_455
B14 Ho2 2.609932 1_555
B15 B8 1.756678 1_554
B15 B3 1.764622 1_555
B15 V1 2.281044 1_445
B15 V1 2.281044 1_545
B15 V0 2.286435 1_454
B15 V0 2.286435 1_554
B15 Ho3 2.609932 1_455
B15 Ho3 2.609932 1_555
