# generated using pymatgen
data_SmFeP
_symmetry_space_group_name_H-M   'P 1'
_cell_length_a   3.82391600
_cell_length_b   3.82391600
_cell_length_c   7.42739600
_cell_angle_alpha   90.00000000
_cell_angle_beta   90.00000000
_cell_angle_gamma   90.00000000
_symmetry_Int_Tables_number   1
_chemical_formula_structural   SmFeP
_chemical_formula_sum   'Sm2 Fe2 P2'
_cell_volume   108.60586191
_cell_formula_units_Z   2
loop_
 _symmetry_equiv_pos_site_id
 _symmetry_equiv_pos_as_xyz
  1  'x, y, z'
loop_
 _atom_site_type_symbol
 _atom_site_label
 _atom_site_symmetry_multiplicity
 _atom_site_fract_x
 _atom_site_fract_y
 _atom_site_fract_z
 _atom_site_occupancy
  Sm  Sm0  1  0.50000000  0.00000000  0.68866300  1
  Sm  Sm1  1  0.00000000  0.50000000  0.31133700  1
  Fe  Fe0  1  0.00000000  0.00000000  0.00000000  1
  Fe  Fe1  1  0.50000000  0.50000000  0.00000000  1
  P  P0  1  0.50000000  0.00000000  0.15938600  1
  P  P1  1  0.00000000  0.50000000  0.84061400  1
loop_
_geom_bond_atom_site_label_1
_geom_bond_atom_site_label_2
_geom_bond_distance
_geom_bond_site_symmetry_2
Fe0 P0 2.248782 1_455
Fe0 P1 2.248782 1_554
Fe0 P0 2.248782 1_555
Fe0 P1 2.248782 1_544
Fe0 Sm1 3.000481 1_555
Fe0 Sm1 3.000481 1_545
Fe0 Sm0 3.000481 1_454
Fe0 Sm0 3.000481 1_554
Fe1 P1 2.248782 1_654
Fe1 P1 2.248782 1_554
Fe1 P0 2.248782 1_555
Fe1 P0 2.248782 1_565
Fe1 Sm1 3.000481 1_655
Fe1 Sm1 3.000481 1_555
Fe1 Sm0 3.000481 1_564
Fe1 Sm0 3.000481 1_554
P0 Sm1 2.930001 1_655
P0 Sm1 2.930001 1_555
P0 Sm1 2.930001 1_545
P0 Sm1 2.930001 1_645
P1 Sm0 2.930001 1_455
P1 Sm0 2.930001 1_565
P1 Sm0 2.930001 1_465
P1 Sm0 2.930001 1_555
