# generated using pymatgen
data_RbCaI3
_symmetry_space_group_name_H-M   'P 1'
_cell_length_a   4.69371084
_cell_length_b   10.46897138
_cell_length_c   17.37418299
_cell_angle_alpha   90.00000000
_cell_angle_beta   90.00000000
_cell_angle_gamma   90.00000000
_symmetry_Int_Tables_number   1
_chemical_formula_structural   RbCaI3
_chemical_formula_sum   'Rb4 Ca4 I12'
_cell_volume   853.73824082
_cell_formula_units_Z   4
loop_
 _symmetry_equiv_pos_site_id
 _symmetry_equiv_pos_as_xyz
  1  'x, y, z'
loop_
 _atom_site_type_symbol
 _atom_site_label
 _atom_site_symmetry_multiplicity
 _atom_site_fract_x
 _atom_site_fract_y
 _atom_site_fract_z
 _atom_site_occupancy
  Rb  Rb0  1  0.75000000  0.57348980  0.17542549  1
  Rb  Rb1  1  0.25000000  0.42651020  0.82457451  1
  Rb  Rb2  1  0.75000000  0.07348980  0.32457451  1
  Rb  Rb3  1  0.25000000  0.92651020  0.67542549  1
  Ca  Ca0  1  0.25000000  0.66533580  0.44289543  1
  Ca  Ca1  1  0.75000000  0.33466420  0.55710457  1
  Ca  Ca2  1  0.25000000  0.16533580  0.05710457  1
  Ca  Ca3  1  0.75000000  0.83466420  0.94289543  1
  I  I0  1  0.75000000  0.83433227  0.50755559  1
  I  I1  1  0.25000000  0.16566773  0.49244441  1
  I  I2  1  0.75000000  0.33433227  0.99244441  1
  I  I3  1  0.25000000  0.66566773  0.00755559  1
  I  I4  1  0.25000000  0.52493734  0.60534049  1
  I  I5  1  0.75000000  0.47506266  0.39465951  1
  I  I6  1  0.25000000  0.02493734  0.89465951  1
  I  I7  1  0.75000000  0.97506266  0.10534049  1
  I  I8  1  0.25000000  0.79432324  0.28510149  1
  I  I9  1  0.75000000  0.20567676  0.71489851  1
  I  I10  1  0.25000000  0.29432324  0.21489851  1
  I  I11  1  0.75000000  0.70567676  0.78510149  1
loop_
_geom_bond_atom_site_label_1
_geom_bond_atom_site_label_2
_geom_bond_distance
_geom_bond_site_symmetry_2
Ca0 I8 3.056065 1_555
Ca0 I0 3.146416 1_455
Ca0 I0 3.146416 1_555
Ca0 I4 3.182146 1_555
Ca0 I5 3.190297 1_555
Ca0 I5 3.190297 1_455
Ca1 I9 3.056065 1_555
Ca1 I1 3.146416 1_655
Ca1 I1 3.146416 1_555
Ca1 I5 3.182146 1_555
Ca1 I4 3.190297 1_555
Ca1 I4 3.190297 1_655
Ca2 I10 3.056065 1_555
Ca2 I2 3.146416 1_454
Ca2 I2 3.146416 1_554
Ca2 I6 3.182146 1_554
Ca2 I7 3.190297 1_445
Ca2 I7 3.190297 1_545
Ca3 I11 3.056065 1_555
Ca3 I3 3.146416 1_656
Ca3 I3 3.146416 1_556
Ca3 I7 3.182146 1_556
Ca3 I6 3.190297 1_565
Ca3 I6 3.190297 1_665
I0 Rb3 3.865946 1_655
I0 Rb3 3.865946 1_555
I0 Rb2 4.046684 1_565
I1 Rb2 3.865946 1_455
I1 Rb2 3.865946 1_555
I1 Rb3 4.046684 1_545
I2 Rb1 3.865946 1_655
I2 Rb1 3.865946 1_555
I2 Rb0 4.046684 1_556
I3 Rb0 3.865946 1_555
I3 Rb0 3.865946 1_455
I3 Rb1 4.046684 1_554
I4 Rb1 3.945930 1_555
I5 Rb0 3.945930 1_555
I6 Rb3 3.945930 1_545
I7 Rb2 3.945930 1_565
I8 Rb0 3.805740 1_455
I8 Rb0 3.805740 1_555
I8 Rb2 3.810457 1_565
I8 Rb2 3.810457 1_465
I9 Rb1 3.805740 1_655
I9 Rb1 3.805740 1_555
I9 Rb3 3.810457 1_545
I9 Rb3 3.810457 1_645
I10 Rb2 3.805740 1_455
I10 Rb2 3.805740 1_555
I10 Rb0 3.810457 1_555
I10 Rb0 3.810457 1_455
I11 Rb3 3.805740 1_655
I11 Rb3 3.805740 1_555
I11 Rb1 3.810457 1_655
I11 Rb1 3.810457 1_555
