# generated using pymatgen
data_YbGe3
_symmetry_space_group_name_H-M   'P 1'
_cell_length_a   6.15410365
_cell_length_b   6.15410365
_cell_length_c   4.98783000
_cell_angle_alpha   90.00000000
_cell_angle_beta   90.00000000
_cell_angle_gamma   119.99999626
_symmetry_Int_Tables_number   1
_chemical_formula_structural   YbGe3
_chemical_formula_sum   'Yb2 Ge6'
_cell_volume   163.59570758
_cell_formula_units_Z   2
loop_
 _symmetry_equiv_pos_site_id
 _symmetry_equiv_pos_as_xyz
  1  'x, y, z'
loop_
 _atom_site_type_symbol
 _atom_site_label
 _atom_site_symmetry_multiplicity
 _atom_site_fract_x
 _atom_site_fract_y
 _atom_site_fract_z
 _atom_site_occupancy
  Yb  Yb0  1  0.33333300  0.66666700  0.75000000  1
  Yb  Yb1  1  0.66666700  0.33333300  0.25000000  1
  Ge  Ge0  1  0.14718300  0.29436600  0.25000000  1
  Ge  Ge1  1  0.70563400  0.85281700  0.25000000  1
  Ge  Ge2  1  0.14718300  0.85281700  0.25000000  1
  Ge  Ge3  1  0.85281700  0.70563400  0.75000000  1
  Ge  Ge4  1  0.29436600  0.14718300  0.75000000  1
  Ge  Ge5  1  0.85281700  0.14718300  0.75000000  1
loop_
_geom_bond_atom_site_label_1
_geom_bond_atom_site_label_2
_geom_bond_distance
_geom_bond_site_symmetry_2
Ge0 Ge2 2.717338 1_545
Ge0 Ge1 2.717338 1_445
Ge0 Ge4 2.946340 1_554
Ge0 Ge4 2.946340 1_555
Ge0 Ge5 2.946340 1_455
Ge0 Ge5 2.946340 1_454
Ge0 Yb1 3.084049 1_455
Ge0 Yb1 3.084055 1_555
Ge0 Yb0 3.186964 1_554
Ge0 Yb0 3.186964 1_555
Ge1 Ge2 2.717338 1_655
Ge1 Ge3 2.946340 1_555
Ge1 Ge3 2.946340 1_554
Ge1 Ge5 2.946340 1_565
Ge1 Ge5 2.946340 1_564
Ge1 Yb1 3.084049 1_565
Ge1 Yb1 3.084055 1_555
Ge1 Yb0 3.186964 1_555
Ge1 Yb0 3.186964 1_554
Ge2 Ge4 2.946340 1_565
Ge2 Ge4 2.946340 1_564
Ge2 Ge3 2.946340 1_455
Ge2 Ge3 2.946340 1_454
Ge2 Yb1 3.084053 1_455
Ge2 Yb1 3.084053 1_565
Ge2 Yb0 3.186960 1_555
Ge2 Yb0 3.186960 1_554
Ge3 Ge5 2.717338 1_565
Ge3 Ge4 2.717338 1_665
Ge3 Yb0 3.084049 1_655
Ge3 Yb0 3.084055 1_555
Ge3 Yb1 3.186964 1_556
Ge3 Yb1 3.186964 1_555
Ge4 Ge5 2.717338 1_455
Ge4 Yb0 3.084049 1_545
Ge4 Yb0 3.084055 1_555
Ge4 Yb1 3.186964 1_556
Ge4 Yb1 3.186964 1_555
Ge5 Yb0 3.084053 1_545
Ge5 Yb0 3.084053 1_655
Ge5 Yb1 3.186960 1_556
Ge5 Yb1 3.186960 1_555
