# generated using pymatgen
data_Zn7Sb8Ru9
_symmetry_space_group_name_H-M   'P 1'
_cell_length_a   8.49369877
_cell_length_b   8.49369877
_cell_length_c   8.49369877
_cell_angle_alpha   60.00000000
_cell_angle_beta   60.00000000
_cell_angle_gamma   60.00000000
_symmetry_Int_Tables_number   1
_chemical_formula_structural   Zn7Sb8Ru9
_chemical_formula_sum   'Zn7 Sb8 Ru9'
_cell_volume   433.28690777
_cell_formula_units_Z   1
loop_
 _symmetry_equiv_pos_site_id
 _symmetry_equiv_pos_as_xyz
  1  'x, y, z'
loop_
 _atom_site_type_symbol
 _atom_site_label
 _atom_site_symmetry_multiplicity
 _atom_site_fract_x
 _atom_site_fract_y
 _atom_site_fract_z
 _atom_site_occupancy
  Zn  Zn0  1  0.50000000  0.00000000  0.00000000  1
  Zn  Zn1  1  0.00000000  0.50000000  0.50000000  1
  Zn  Zn2  1  0.00000000  0.50000000  0.00000000  1
  Zn  Zn3  1  0.00000000  0.00000000  0.50000000  1
  Zn  Zn4  1  0.50000000  0.00000000  0.50000000  1
  Zn  Zn5  1  0.50000000  0.50000000  0.00000000  1
  Zn  Zn6  1  0.00000000  0.00000000  0.00000000  1
  Sb  Sb0  1  0.72599000  0.27401000  0.27401000  1
  Sb  Sb1  1  0.27401000  0.72599000  0.72599000  1
  Sb  Sb2  1  0.27401000  0.72599000  0.27401000  1
  Sb  Sb3  1  0.27401000  0.27401000  0.72599000  1
  Sb  Sb4  1  0.72599000  0.27401000  0.72599000  1
  Sb  Sb5  1  0.72599000  0.72599000  0.27401000  1
  Sb  Sb6  1  0.25000000  0.25000000  0.25000000  1
  Sb  Sb7  1  0.75000000  0.75000000  0.75000000  1
  Ru  Ru0  1  0.12351200  0.12351200  0.12351200  1
  Ru  Ru1  1  0.12351200  0.12351200  0.62946400  1
  Ru  Ru2  1  0.62946400  0.12351200  0.12351200  1
  Ru  Ru3  1  0.12351200  0.62946400  0.12351200  1
  Ru  Ru4  1  0.87648800  0.87648800  0.87648800  1
  Ru  Ru5  1  0.87648800  0.87648800  0.37053600  1
  Ru  Ru6  1  0.87648800  0.37053600  0.87648800  1
  Ru  Ru7  1  0.37053600  0.87648800  0.87648800  1
  Ru  Ru8  1  0.50000000  0.50000000  0.50000000  1
loop_
_geom_bond_atom_site_label_1
_geom_bond_atom_site_label_2
_geom_bond_distance
_geom_bond_site_symmetry_2
Sb0 Zn2 3.016793 1_655
Sb0 Zn3 3.016793 1_655
Sb0 Zn4 3.016793 1_555
Sb0 Zn5 3.016793 1_555
Sb1 Zn4 3.016793 1_565
Sb1 Zn3 3.016793 1_565
Sb1 Zn2 3.016793 1_556
Sb1 Zn5 3.016793 1_556
Sb2 Zn0 3.016793 1_565
Sb2 Zn1 3.016793 1_555
Sb2 Zn3 3.016793 1_565
Sb2 Zn5 3.016793 1_555
Sb3 Zn1 3.016793 1_555
Sb3 Zn4 3.016793 1_555
Sb3 Zn0 3.016793 1_556
Sb3 Zn2 3.016793 1_556
Sb4 Zn3 3.016793 1_655
Sb4 Zn1 3.016793 1_655
Sb4 Zn0 3.016793 1_556
Sb4 Zn5 3.016793 1_556
Sb5 Zn2 3.016793 1_655
Sb5 Zn0 3.016793 1_565
Sb5 Zn4 3.016793 1_565
Sb5 Zn1 3.016793 1_655
Sb6 Zn3 3.002976 1_555
Sb6 Zn0 3.002976 1_555
Sb6 Zn1 3.002976 1_555
Sb6 Zn4 3.002976 1_555
Sb6 Zn5 3.002976 1_555
Sb6 Zn2 3.002976 1_555
Sb7 Zn5 3.002976 1_556
Sb7 Zn0 3.002976 1_566
Sb7 Zn3 3.002976 1_665
Sb7 Zn2 3.002976 1_656
Sb7 Zn4 3.002976 1_565
Sb7 Zn1 3.002976 1_655
Ru0 Zn6 2.569695 1_555
Ru0 Zn3 2.611136 1_555
Ru0 Zn2 2.611136 1_555
Ru0 Zn0 2.611136 1_555
Ru0 Sb6 2.631612 1_555
Ru0 Sb2 2.769521 1_545
Ru0 Sb3 2.769521 1_554
Ru0 Sb0 2.769521 1_455
Ru1 Zn6 2.569695 1_556
Ru1 Zn4 2.611136 1_555
Ru1 Zn3 2.611136 1_555
Ru1 Zn1 2.611136 1_555
Ru1 Sb6 2.631612 1_555
Ru1 Sb3 2.769521 1_555
Ru1 Sb1 2.769521 1_545
Ru1 Sb4 2.769521 1_455
Ru2 Zn6 2.569695 1_655
Ru2 Zn4 2.611136 1_555
Ru2 Zn5 2.611136 1_555
Ru2 Zn0 2.611136 1_555
Ru2 Sb6 2.631612 1_555
Ru2 Sb4 2.769521 1_554
Ru2 Sb0 2.769521 1_555
Ru2 Sb5 2.769521 1_545
Ru3 Zn6 2.569695 1_565
Ru3 Zn5 2.611136 1_555
Ru3 Zn2 2.611136 1_555
Ru3 Zn1 2.611136 1_555
Ru3 Sb6 2.631612 1_555
Ru3 Sb2 2.769521 1_555
Ru3 Sb1 2.769521 1_554
Ru3 Sb5 2.769521 1_455
Ru4 Zn6 2.569695 1_666
Ru4 Zn2 2.611136 1_656
Ru4 Zn0 2.611136 1_566
Ru4 Zn3 2.611136 1_665
Ru4 Sb7 2.631612 1_555
Ru4 Sb4 2.769521 1_565
Ru4 Sb5 2.769521 1_556
Ru4 Sb1 2.769521 1_655
Ru5 Zn6 2.569695 1_665
Ru5 Zn3 2.611136 1_665
Ru5 Zn4 2.611136 1_565
Ru5 Zn1 2.611136 1_655
Ru5 Sb7 2.631612 1_555
Ru5 Sb2 2.769521 1_655
Ru5 Sb0 2.769521 1_565
Ru5 Sb5 2.769521 1_555
Ru6 Zn6 2.569695 1_656
Ru6 Zn2 2.611136 1_656
Ru6 Zn5 2.611136 1_556
Ru6 Zn1 2.611136 1_655
Ru6 Sb7 2.631612 1_555
Ru6 Sb0 2.769521 1_556
Ru6 Sb3 2.769521 1_655
Ru6 Sb4 2.769521 1_555
Ru7 Zn6 2.569695 1_566
Ru7 Zn0 2.611136 1_566
Ru7 Zn5 2.611136 1_556
Ru7 Zn4 2.611136 1_565
Ru7 Sb7 2.631612 1_555
Ru7 Sb2 2.769521 1_556
Ru7 Sb1 2.769521 1_555
Ru7 Sb3 2.769521 1_565
Ru8 Sb4 2.714570 1_555
Ru8 Sb5 2.714570 1_555
Ru8 Sb2 2.714570 1_555
Ru8 Sb3 2.714570 1_555
Ru8 Sb0 2.714570 1_555
Ru8 Sb1 2.714570 1_555
