# generated using pymatgen
data_AcF3
_symmetry_space_group_name_H-M   'P 1'
_cell_length_a   4.23380007
_cell_length_b   4.23380007
_cell_length_c   4.23380007
_cell_angle_alpha   60.00000000
_cell_angle_beta   60.00000000
_cell_angle_gamma   60.00000000
_symmetry_Int_Tables_number   1
_chemical_formula_structural   AcF3
_chemical_formula_sum   'Ac1 F3'
_cell_volume   53.66313488
_cell_formula_units_Z   1
loop_
 _symmetry_equiv_pos_site_id
 _symmetry_equiv_pos_as_xyz
  1  'x, y, z'
loop_
 _atom_site_type_symbol
 _atom_site_label
 _atom_site_symmetry_multiplicity
 _atom_site_fract_x
 _atom_site_fract_y
 _atom_site_fract_z
 _atom_site_occupancy
  Ac  Ac0  1  0.75000000  0.75000000  0.75000000  1
  F  F0  1  0.00000000  0.00000000  -0.00000000  1
  F  F1  1  0.50000000  0.50000000  0.50000000  1
  F  F2  1  0.25000000  0.25000000  0.25000000  1
loop_
_geom_bond_atom_site_label_1
_geom_bond_atom_site_label_2
_geom_bond_distance
_geom_bond_site_symmetry_2
Ac0 F1 2.592662 1_655
Ac0 F0 2.592662 1_566
Ac0 F1 2.592662 1_565
Ac0 F1 2.592662 1_555
Ac0 F1 2.592662 1_556
Ac0 F0 2.592662 1_665
Ac0 F0 2.592662 1_666
Ac0 F0 2.592662 1_656
Ac0 F2 2.993749 1_566
Ac0 F2 2.993749 1_655
Ac0 F2 2.993749 1_565
Ac0 F2 2.993749 1_656
Ac0 F2 2.993749 1_665
Ac0 F2 2.993749 1_556
