# generated using pymatgen
data_Ac3Sc
_symmetry_space_group_name_H-M   'P 1'
_cell_length_a   7.72534969
_cell_length_b   7.72534969
_cell_length_c   6.15429100
_cell_angle_alpha   90.00000000
_cell_angle_beta   90.00000000
_cell_angle_gamma   119.99999738
_symmetry_Int_Tables_number   1
_chemical_formula_structural   Ac3Sc
_chemical_formula_sum   'Ac6 Sc2'
_cell_volume   318.08630060
_cell_formula_units_Z   2
loop_
 _symmetry_equiv_pos_site_id
 _symmetry_equiv_pos_as_xyz
  1  'x, y, z'
loop_
 _atom_site_type_symbol
 _atom_site_label
 _atom_site_symmetry_multiplicity
 _atom_site_fract_x
 _atom_site_fract_y
 _atom_site_fract_z
 _atom_site_occupancy
  Ac  Ac0  1  0.65671500  0.82835700  0.25000000  1
  Ac  Ac1  1  0.17164300  0.34328500  0.25000000  1
  Ac  Ac2  1  0.34328500  0.17164300  0.75000000  1
  Ac  Ac3  1  0.82835700  0.65671500  0.75000000  1
  Ac  Ac4  1  0.17164300  0.82835700  0.25000000  1
  Ac  Ac5  1  0.82835700  0.17164300  0.75000000  1
  Sc  Sc0  1  0.66666700  0.33333300  0.25000000  1
  Sc  Sc1  1  0.33333300  0.66666700  0.75000000  1
loop_
_geom_bond_atom_site_label_1
_geom_bond_atom_site_label_2
_geom_bond_distance
_geom_bond_site_symmetry_2
Ac0 Ac4 3.747351 1_555
Ac0 Ac1 3.747351 1_555
Ac0 Sc1 3.761612 1_555
Ac0 Sc1 3.761612 1_554
Ac0 Ac3 3.839741 1_555
Ac0 Ac3 3.839741 1_554
Ac0 Ac5 3.839749 1_565
Ac0 Ac5 3.839749 1_564
Ac0 Sc0 3.863249 1_555
Ac0 Sc0 3.863249 1_565
Ac0 Ac4 3.977999 1_655
Ac0 Ac1 3.977999 1_665
Ac1 Ac4 3.747351 1_555
Ac1 Sc1 3.761612 1_555
Ac1 Sc1 3.761612 1_554
Ac1 Ac2 3.839741 1_555
Ac1 Ac2 3.839741 1_554
Ac1 Ac5 3.839749 1_455
Ac1 Ac5 3.839749 1_454
Ac1 Sc0 3.863249 1_555
Ac1 Sc0 3.863249 1_455
Ac1 Ac4 3.977999 1_545
Ac2 Ac5 3.747351 1_555
Ac2 Ac3 3.747351 1_555
Ac2 Sc0 3.761612 1_555
Ac2 Sc0 3.761612 1_556
Ac2 Ac4 3.839749 1_546
Ac2 Ac4 3.839749 1_545
Ac2 Sc1 3.863249 1_555
Ac2 Sc1 3.863249 1_545
Ac2 Ac5 3.977999 1_455
Ac2 Ac3 3.977999 1_445
Ac3 Ac5 3.747351 1_555
Ac3 Sc0 3.761612 1_555
Ac3 Sc0 3.761612 1_556
Ac3 Ac4 3.839749 1_655
Ac3 Ac4 3.839749 1_656
Ac3 Sc1 3.863249 1_555
Ac3 Sc1 3.863249 1_655
Ac3 Ac5 3.977999 1_565
Ac4 Sc1 3.761604 1_554
Ac4 Sc1 3.761604 1_555
Ac4 Sc0 3.863249 1_455
Ac4 Sc0 3.863249 1_565
Ac5 Sc0 3.761604 1_555
Ac5 Sc0 3.761604 1_556
Ac5 Sc1 3.863249 1_545
Ac5 Sc1 3.863249 1_655
