# generated using pymatgen
data_Y3Th
_symmetry_space_group_name_H-M   'P 1'
_cell_length_a   7.28908082
_cell_length_b   7.28907693
_cell_length_c   5.82589020
_cell_angle_alpha   90.00000836
_cell_angle_beta   89.99999685
_cell_angle_gamma   120.00000555
_symmetry_Int_Tables_number   1
_chemical_formula_structural   Y3Th
_chemical_formula_sum   'Y6 Th2'
_cell_volume   268.06381987
_cell_formula_units_Z   2
loop_
 _symmetry_equiv_pos_site_id
 _symmetry_equiv_pos_as_xyz
  1  'x, y, z'
loop_
 _atom_site_type_symbol
 _atom_site_label
 _atom_site_symmetry_multiplicity
 _atom_site_fract_x
 _atom_site_fract_y
 _atom_site_fract_z
 _atom_site_occupancy
  Y  Y0  1  0.16814110  0.33626523  0.25000205  1
  Y  Y1  1  0.66373677  0.83185763  0.25000197  1
  Y  Y2  1  0.16812837  0.83186801  0.25000196  1
  Y  Y3  1  0.83186623  0.66371463  0.74999914  1
  Y  Y4  1  0.33628420  0.16813505  0.74999920  1
  Y  Y5  1  0.83185756  0.16814466  0.74999907  1
  Th  Th0  1  0.33332663  0.66667068  0.75000862  1
  Th  Th1  1  0.66666215  0.33334212  0.24999199  1
loop_
_geom_bond_atom_site_label_1
_geom_bond_atom_site_label_2
_geom_bond_distance
_geom_bond_site_symmetry_2
Y0 Y4 3.604324 1_555
Y0 Y4 3.604351 1_554
Y0 Y5 3.604362 1_455
Y0 Y5 3.604390 1_454
Y0 Y1 3.612424 1_555
Y0 Y2 3.612533 1_555
Y0 Y2 3.676544 1_545
Y0 Y1 3.676655 1_445
Y1 Y3 3.604322 1_555
Y1 Y3 3.604348 1_554
Y1 Y5 3.604375 1_565
Y1 Y5 3.604402 1_564
Y1 Y2 3.612568 1_555
Y1 Y2 3.676513 1_655
Y2 Y3 3.604283 1_455
Y2 Y4 3.604301 1_565
Y2 Y3 3.604310 1_454
Y2 Y4 3.604327 1_564
Y3 Y5 3.612216 1_555
Y3 Y4 3.612327 1_555
Y3 Y4 3.676751 1_665
Y3 Y5 3.676861 1_565
Y4 Y5 3.612239 1_555
Y4 Y5 3.676842 1_455
Th0 Y2 3.582580 1_556
Th0 Y0 3.582617 1_556
Th0 Y1 3.582634 1_556
Th0 Y2 3.582644 1_555
Th0 Y0 3.582678 1_555
Th0 Y1 3.582697 1_555
Th0 Y3 3.644460 1_455
Th0 Y4 3.644481 1_565
Th0 Y5 3.644569 1_455
Th0 Y5 3.644604 1_565
Th0 Y4 3.644691 1_555
Th0 Y3 3.644717 1_555
Th1 Y3 3.582493 1_554
Th1 Y4 3.582513 1_554
Th1 Y3 3.582560 1_555
Th1 Y5 3.582568 1_554
Th1 Y4 3.582581 1_555
Th1 Y5 3.582636 1_555
Th1 Y1 3.644426 1_555
Th1 Y0 3.644460 1_555
Th1 Y2 3.644558 1_655
Th1 Y2 3.644615 1_545
Th1 Y0 3.644714 1_655
Th1 Y1 3.644744 1_545
