# generated using pymatgen
data_NdTh3
_symmetry_space_group_name_H-M   'P 1'
_cell_length_a   5.08063042
_cell_length_b   5.08063678
_cell_length_c   5.08062937
_cell_angle_alpha   89.99997609
_cell_angle_beta   90.00016713
_cell_angle_gamma   89.99980896
_symmetry_Int_Tables_number   1
_chemical_formula_structural   NdTh3
_chemical_formula_sum   'Nd1 Th3'
_cell_volume   131.14546173
_cell_formula_units_Z   1
loop_
 _symmetry_equiv_pos_site_id
 _symmetry_equiv_pos_as_xyz
  1  'x, y, z'
loop_
 _atom_site_type_symbol
 _atom_site_label
 _atom_site_symmetry_multiplicity
 _atom_site_fract_x
 _atom_site_fract_y
 _atom_site_fract_z
 _atom_site_occupancy
  Nd  Nd0  1  0.00000100  -0.00000000  -0.00000000  1
  Th  Th0  1  0.99999900  0.50000100  0.50000200  1
  Th  Th1  1  0.50000100  0.99999900  0.50000000  1
  Th  Th2  1  0.50000100  0.50000100  0.99999900  1
loop_
_geom_bond_atom_site_label_1
_geom_bond_atom_site_label_2
_geom_bond_distance
_geom_bond_site_symmetry_2
Nd0 Th0 3.592540 1_444
Nd0 Th2 3.592541 1_544
Nd0 Th1 3.592543 1_545
Nd0 Th1 3.592543 1_444
Nd0 Th0 3.592546 1_454
Nd0 Th2 3.592548 1_454
Nd0 Th2 3.592553 1_444
Nd0 Th0 3.592553 1_445
Nd0 Th1 3.592553 1_544
Nd0 Th1 3.592553 1_445
Nd0 Th2 3.592560 1_554
Nd0 Th0 3.592562 1_455
Th0 Th1 3.592530 1_555
Th0 Th2 3.592535 1_555
Th0 Th2 3.592539 1_655
Th0 Th2 3.592546 1_554
Th0 Th1 3.592556 1_655
Th0 Th1 3.592556 1_545
Th0 Th1 3.592559 1_645
Th0 Th2 3.592571 1_654
Th1 Th2 3.592539 1_555
Th1 Th2 3.592547 1_554
Th1 Th2 3.592554 1_565
Th1 Th2 3.592560 1_564
