# generated using pymatgen
data_Nb3SnS6
_symmetry_space_group_name_H-M   'P 1'
_cell_length_a   5.84839463
_cell_length_b   5.84839556
_cell_length_c   14.47422501
_cell_angle_alpha   90.00000000
_cell_angle_beta   90.00000000
_cell_angle_gamma   120.00000065
_symmetry_Int_Tables_number   1
_chemical_formula_structural   Nb3SnS6
_chemical_formula_sum   'Nb6 Sn2 S12'
_cell_volume   428.74528505
_cell_formula_units_Z   2
loop_
 _symmetry_equiv_pos_site_id
 _symmetry_equiv_pos_as_xyz
  1  'x, y, z'
loop_
 _atom_site_type_symbol
 _atom_site_label
 _atom_site_symmetry_multiplicity
 _atom_site_fract_x
 _atom_site_fract_y
 _atom_site_fract_z
 _atom_site_occupancy
  Nb  Nb0  1  -0.00000000  -0.00000000  0.50000000  1
  Nb  Nb1  1  -0.00000000  -0.00000000  -0.00000000  1
  Nb  Nb2  1  0.33333300  0.66666700  0.50000000  1
  Nb  Nb3  1  0.66666700  0.33333300  -0.00000000  1
  Nb  Nb4  1  0.66666700  0.33333300  0.50000000  1
  Nb  Nb5  1  0.33333300  0.66666700  -0.00000000  1
  Sn  Sn0  1  -0.00000000  -0.00000000  0.75000000  1
  Sn  Sn1  1  -0.00000000  -0.00000000  0.25000000  1
  S  S0  1  0.33500999  -0.00000000  0.39224744  1
  S  S1  1  0.00000000  0.33500999  0.39224744  1
  S  S2  1  0.66499001  0.66499001  0.39224744  1
  S  S3  1  0.33500999  0.33500999  0.89224744  1
  S  S4  1  0.66499001  0.66499001  0.60775256  1
  S  S5  1  0.66499001  0.00000000  0.89224744  1
  S  S6  1  -0.00000000  0.66499001  0.89224744  1
  S  S7  1  -0.00000000  0.66499001  0.10775256  1
  S  S8  1  0.33500999  0.33500999  0.10775256  1
  S  S9  1  0.00000000  0.33500999  0.60775256  1
  S  S10  1  0.33500999  -0.00000000  0.60775256  1
  S  S11  1  0.66499001  0.00000000  0.10775256  1
loop_
_geom_bond_atom_site_label_1
_geom_bond_atom_site_label_2
_geom_bond_distance
_geom_bond_site_symmetry_2
Nb0 S0 2.504237 1_555
Nb0 S10 2.504237 1_555
Nb0 S4 2.504237 1_445
Nb0 S2 2.504237 1_445
Nb0 S1 2.504237 1_555
Nb0 S9 2.504237 1_555
Nb1 S11 2.504237 1_455
Nb1 S5 2.504237 1_454
Nb1 S3 2.504237 1_554
Nb1 S8 2.504237 1_555
Nb1 S6 2.504237 1_544
Nb1 S7 2.504237 1_545
Nb2 S10 2.492758 1_565
Nb2 S0 2.492758 1_565
Nb2 S1 2.492760 1_555
Nb2 S9 2.492760 1_555
Nb2 S4 2.492763 1_555
Nb2 S2 2.492763 1_555
Nb3 S5 2.492758 1_554
Nb3 S11 2.492758 1_555
Nb3 S6 2.492760 1_654
Nb3 S7 2.492760 1_655
Nb3 S3 2.492763 1_554
Nb3 S8 2.492763 1_555
Nb4 S1 2.492758 1_655
Nb4 S9 2.492758 1_655
Nb4 S10 2.492760 1_555
Nb4 S0 2.492760 1_555
Nb4 S2 2.492763 1_555
Nb4 S4 2.492763 1_555
Nb5 S7 2.492758 1_555
Nb5 S6 2.492758 1_554
Nb5 S11 2.492760 1_565
Nb5 S5 2.492760 1_564
Nb5 S8 2.492763 1_555
Nb5 S3 2.492763 1_554
S0 Sn1 2.842164 1_555
S1 Sn1 2.842165 1_555
S2 Sn1 2.842165 1_665
S3 Sn0 2.842165 1_555
S4 Sn0 2.842165 1_665
S5 Sn0 2.842164 1_655
S6 Sn0 2.842165 1_565
S7 Sn1 2.842165 1_565
S8 Sn1 2.842165 1_555
S9 Sn0 2.842165 1_555
S10 Sn0 2.842164 1_555
S11 Sn1 2.842164 1_655
