# generated using pymatgen
data_TiTlCuTe3
_symmetry_space_group_name_H-M   'P 1'
_cell_length_a   3.98034900
_cell_length_b   8.70482900
_cell_length_c   10.57462108
_cell_angle_alpha   66.57953856
_cell_angle_beta   90.00000000
_cell_angle_gamma   90.00000000
_symmetry_Int_Tables_number   1
_chemical_formula_structural   TiTlCuTe3
_chemical_formula_sum   'Ti2 Tl2 Cu2 Te6'
_cell_volume   336.20614344
_cell_formula_units_Z   2
loop_
 _symmetry_equiv_pos_site_id
 _symmetry_equiv_pos_as_xyz
  1  'x, y, z'
loop_
 _atom_site_type_symbol
 _atom_site_label
 _atom_site_symmetry_multiplicity
 _atom_site_fract_x
 _atom_site_fract_y
 _atom_site_fract_z
 _atom_site_occupancy
  Ti  Ti0  1  0.25000000  0.71111400  0.82225700  1
  Ti  Ti1  1  0.75000000  0.28888600  0.17774300  1
  Tl  Tl0  1  0.25000000  0.28349900  0.71636100  1
  Tl  Tl1  1  0.75000000  0.71650100  0.28363900  1
  Cu  Cu0  1  0.25000000  0.07972300  0.39951300  1
  Cu  Cu1  1  0.75000000  0.92027700  0.60048700  1
  Te  Te0  1  0.75000000  0.92209000  0.84572300  1
  Te  Te1  1  0.25000000  0.07791000  0.15427700  1
  Te  Te2  1  0.25000000  0.74910600  0.55621100  1
  Te  Te3  1  0.75000000  0.25089400  0.44378900  1
  Te  Te4  1  0.75000000  0.45610000  0.88180000  1
  Te  Te5  1  0.25000000  0.54390000  0.11820000  1
loop_
_geom_bond_atom_site_label_1
_geom_bond_atom_site_label_2
_geom_bond_distance
_geom_bond_site_symmetry_2
Cu0 Te1 2.599591 1_555
Cu0 Te3 2.637182 1_555
Cu0 Te3 2.637182 1_455
Cu0 Te2 2.690241 1_545
Cu0 Cu1 2.838821 1_445
Cu0 Cu1 2.838821 1_545
Cu0 Ti1 3.062870 1_555
Cu0 Ti1 3.062870 1_455
Cu1 Te0 2.599591 1_555
Cu1 Te2 2.637182 1_555
Cu1 Te2 2.637182 1_655
Cu1 Te3 2.690241 1_565
Cu1 Ti0 3.062870 1_555
Cu1 Ti0 3.062870 1_655
Te0 Ti0 2.785213 1_555
Te0 Ti0 2.785213 1_655
Te0 Tl0 3.508317 1_565
Te0 Tl0 3.508317 1_665
Te1 Ti1 2.785213 1_455
Te1 Ti1 2.785213 1_555
Te1 Tl1 3.508317 1_445
Te1 Tl1 3.508317 1_545
Te2 Ti0 2.699000 1_555
Te3 Ti1 2.699000 1_555
Te4 Ti0 2.858999 1_555
Te4 Ti0 2.858999 1_655
Te4 Ti1 2.879446 1_556
Te4 Tl0 3.371691 1_555
Te4 Tl0 3.371691 1_655
Te5 Ti1 2.858999 1_455
Te5 Ti1 2.858999 1_555
Te5 Ti0 2.879446 1_554
Te5 Tl1 3.371691 1_555
Te5 Tl1 3.371691 1_455
