# generated using pymatgen
data_MnSn3
_symmetry_space_group_name_H-M   'P 1'
_cell_length_a   6.43926469
_cell_length_b   6.43926469
_cell_length_c   5.46416500
_cell_angle_alpha   90.00000000
_cell_angle_beta   90.00000000
_cell_angle_gamma   120.00000707
_symmetry_Int_Tables_number   1
_chemical_formula_structural   MnSn3
_chemical_formula_sum   'Mn2 Sn6'
_cell_volume   196.21263064
_cell_formula_units_Z   2
loop_
 _symmetry_equiv_pos_site_id
 _symmetry_equiv_pos_as_xyz
  1  'x, y, z'
loop_
 _atom_site_type_symbol
 _atom_site_label
 _atom_site_symmetry_multiplicity
 _atom_site_fract_x
 _atom_site_fract_y
 _atom_site_fract_z
 _atom_site_occupancy
  Mn  Mn0  1  0.66666700  0.33333300  0.25000000  1
  Mn  Mn1  1  0.33333300  0.66666700  0.75000000  1
  Sn  Sn0  1  0.82903400  0.17096600  0.75000000  1
  Sn  Sn1  1  0.34193300  0.17096600  0.75000000  1
  Sn  Sn2  1  0.82903400  0.65806700  0.75000000  1
  Sn  Sn3  1  0.17096600  0.82903400  0.25000000  1
  Sn  Sn4  1  0.65806700  0.82903400  0.25000000  1
  Sn  Sn5  1  0.17096600  0.34193300  0.25000000  1
loop_
_geom_bond_atom_site_label_1
_geom_bond_atom_site_label_2
_geom_bond_distance
_geom_bond_site_symmetry_2
Mn0 Sn5 3.219983 1_655
Mn0 Sn4 3.219983 1_545
Mn0 Sn3 3.219989 1_655
Mn0 Sn3 3.219989 1_545
Mn0 Sn4 3.219996 1_555
Mn0 Sn5 3.219996 1_555
Mn0 Sn2 3.277749 1_555
Mn0 Sn1 3.277749 1_555
Mn0 Sn2 3.277749 1_554
Mn0 Sn1 3.277749 1_554
Mn0 Sn0 3.277749 1_555
Mn0 Sn0 3.277749 1_554
Mn1 Sn1 3.219983 1_565
Mn1 Sn2 3.219983 1_455
Mn1 Sn0 3.219989 1_565
Mn1 Sn0 3.219989 1_455
Mn1 Sn2 3.219996 1_555
Mn1 Sn1 3.219996 1_555
Mn1 Sn5 3.277749 1_556
Mn1 Sn4 3.277749 1_555
Mn1 Sn4 3.277749 1_556
Mn1 Sn5 3.277749 1_555
Mn1 Sn3 3.277749 1_555
Mn1 Sn3 3.277749 1_556
Sn0 Sn1 3.136572 1_555
Sn0 Sn2 3.136572 1_555
Sn0 Sn2 3.302692 1_545
Sn0 Sn1 3.302692 1_655
Sn0 Sn4 3.331694 1_546
Sn0 Sn5 3.331694 1_655
Sn0 Sn4 3.331694 1_545
Sn0 Sn5 3.331694 1_656
Sn1 Sn2 3.136572 1_555
Sn1 Sn2 3.302692 1_445
Sn1 Sn3 3.331694 1_545
Sn1 Sn3 3.331694 1_546
Sn1 Sn5 3.331701 1_555
Sn1 Sn5 3.331701 1_556
Sn2 Sn3 3.331694 1_656
Sn2 Sn3 3.331694 1_655
Sn2 Sn4 3.331701 1_555
Sn2 Sn4 3.331701 1_556
Sn3 Sn5 3.136572 1_555
Sn3 Sn4 3.136572 1_555
Sn3 Sn4 3.302692 1_455
Sn3 Sn5 3.302692 1_565
Sn4 Sn5 3.136572 1_555
Sn4 Sn5 3.302692 1_665
