# generated using pymatgen
data_Sr3Yb
_symmetry_space_group_name_H-M   'P 1'
_cell_length_a   6.38558709
_cell_length_b   6.38558709
_cell_length_c   6.38558709
_cell_angle_alpha   60.00000000
_cell_angle_beta   60.00000000
_cell_angle_gamma   60.00000000
_symmetry_Int_Tables_number   1
_chemical_formula_structural   Sr3Yb
_chemical_formula_sum   'Sr3 Yb1'
_cell_volume   184.11429120
_cell_formula_units_Z   1
loop_
 _symmetry_equiv_pos_site_id
 _symmetry_equiv_pos_as_xyz
  1  'x, y, z'
loop_
 _atom_site_type_symbol
 _atom_site_label
 _atom_site_symmetry_multiplicity
 _atom_site_fract_x
 _atom_site_fract_y
 _atom_site_fract_z
 _atom_site_occupancy
  Sr  Sr0  1  0.25000000  0.25000000  0.25000000  1
  Sr  Sr1  1  0.75000000  0.75000000  0.75000000  1
  Sr  Sr2  1  0.50000000  0.50000000  0.50000000  1
  Yb  Yb0  1  0.00000000  0.00000000  0.00000000  1
loop_
_geom_bond_atom_site_label_1
_geom_bond_atom_site_label_2
_geom_bond_distance
_geom_bond_site_symmetry_2
Sr0 Sr2 3.910358 1_455
Sr0 Sr2 3.910358 1_555
Sr0 Sr2 3.910358 1_554
Sr0 Yb0 3.910358 1_565
Sr0 Yb0 3.910358 1_555
Sr0 Yb0 3.910358 1_655
Sr0 Yb0 3.910358 1_556
Sr0 Sr2 3.910358 1_545
Sr1 Yb0 3.910358 1_666
Sr1 Sr2 3.910358 1_556
Sr1 Sr2 3.910358 1_555
Sr1 Yb0 3.910358 1_656
Sr1 Sr2 3.910358 1_565
Sr1 Yb0 3.910358 1_566
Sr1 Sr2 3.910358 1_655
Sr1 Yb0 3.910358 1_665
