# generated using pymatgen
data_Pm3Sc
_symmetry_space_group_name_H-M   'P 1'
_cell_length_a   7.30325699
_cell_length_b   7.30324681
_cell_length_c   5.64037893
_cell_angle_alpha   90.00000000
_cell_angle_beta   90.00000000
_cell_angle_gamma   120.00001410
_symmetry_Int_Tables_number   1
_chemical_formula_structural   Pm3Sc
_chemical_formula_sum   'Pm6 Sc2'
_cell_volume   260.53820240
_cell_formula_units_Z   2
loop_
 _symmetry_equiv_pos_site_id
 _symmetry_equiv_pos_as_xyz
  1  'x, y, z'
loop_
 _atom_site_type_symbol
 _atom_site_label
 _atom_site_symmetry_multiplicity
 _atom_site_fract_x
 _atom_site_fract_y
 _atom_site_fract_z
 _atom_site_occupancy
  Pm  Pm0  1  0.17115166  0.34230133  0.24999900  1
  Pm  Pm1  1  0.82886147  0.17114153  0.74999900  1
  Pm  Pm2  1  0.34228106  0.17114153  0.74999900  1
  Pm  Pm3  1  0.65769867  0.82884934  0.24999900  1
  Pm  Pm4  1  0.17115066  0.82884934  0.24999900  1
  Pm  Pm5  1  0.82886047  0.65772094  0.74999900  1
  Sc  Sc0  1  0.66666700  0.33333300  0.24999900  1
  Sc  Sc1  1  0.33333400  0.66666800  0.74999900  1
loop_
_geom_bond_atom_site_label_1
_geom_bond_atom_site_label_2
_geom_bond_distance
_geom_bond_site_symmetry_2
Pm0 Sc1 3.487455 1_554
Pm0 Sc1 3.487455 1_555
Pm0 Pm3 3.553378 1_555
Pm0 Pm4 3.553384 1_555
Pm0 Pm2 3.555321 1_554
Pm0 Pm2 3.555321 1_555
Pm0 Pm1 3.555326 1_454
Pm0 Pm1 3.555326 1_455
Pm0 Sc0 3.652065 1_555
Pm0 Sc0 3.652073 1_455
Pm0 Pm4 3.749863 1_545
Pm0 Pm3 3.749872 1_445
Pm1 Sc0 3.487527 1_555
Pm1 Sc0 3.487527 1_556
Pm1 Pm5 3.553613 1_555
Pm1 Pm2 3.553622 1_555
Pm1 Pm3 3.555332 1_545
Pm1 Pm3 3.555332 1_546
Pm1 Sc1 3.652060 1_655
Pm1 Sc1 3.652067 1_545
Pm1 Pm5 3.749634 1_545
Pm1 Pm2 3.749635 1_655
Pm2 Sc0 3.487528 1_555
Pm2 Sc0 3.487528 1_556
Pm2 Pm5 3.553611 1_555
Pm2 Pm4 3.555332 1_545
Pm2 Pm4 3.555332 1_546
Pm2 Sc1 3.652062 1_545
Pm2 Sc1 3.652062 1_555
Pm2 Pm5 3.749639 1_445
Pm3 Sc1 3.487449 1_554
Pm3 Sc1 3.487449 1_555
Pm3 Pm4 3.553385 1_555
Pm3 Pm5 3.555325 1_554
Pm3 Pm5 3.555325 1_555
Pm3 Sc0 3.652060 1_565
Pm3 Sc0 3.652068 1_555
Pm3 Pm4 3.749872 1_655
Pm4 Sc1 3.487448 1_555
Pm4 Sc1 3.487448 1_554
Pm4 Pm5 3.555326 1_455
Pm4 Pm5 3.555326 1_454
Pm4 Sc0 3.652066 1_565
Pm4 Sc0 3.652066 1_455
Pm5 Sc0 3.487534 1_555
Pm5 Sc0 3.487534 1_556
Pm5 Sc1 3.652067 1_555
Pm5 Sc1 3.652067 1_655
