# generated using pymatgen
data_SnS2
_symmetry_space_group_name_H-M   'P 1'
_cell_length_a   3.67584724
_cell_length_b   3.67584652
_cell_length_c   12.33894862
_cell_angle_alpha   90.00000000
_cell_angle_beta   90.00000000
_cell_angle_gamma   120.00000647
_symmetry_Int_Tables_number   1
_chemical_formula_structural   SnS2
_chemical_formula_sum   'Sn2 S4'
_cell_volume   144.38550088
_cell_formula_units_Z   2
loop_
 _symmetry_equiv_pos_site_id
 _symmetry_equiv_pos_as_xyz
  1  'x, y, z'
loop_
 _atom_site_type_symbol
 _atom_site_label
 _atom_site_symmetry_multiplicity
 _atom_site_fract_x
 _atom_site_fract_y
 _atom_site_fract_z
 _atom_site_occupancy
  Sn  Sn0  1  0.33333300  0.66666700  0.62501007  1
  Sn  Sn1  1  0.66666700  0.33333300  0.12501007  1
  S  S0  1  0.66666700  0.33333300  0.74340412  1
  S  S1  1  0.33333300  0.66666700  0.24340412  1
  S  S2  1  -0.00000000  -0.00000000  0.00658781  1
  S  S3  1  -0.00000000  0.00000000  0.50658781  1
loop_
_geom_bond_atom_site_label_1
_geom_bond_atom_site_label_2
_geom_bond_distance
_geom_bond_site_symmetry_2
S0 Sn0 2.576441 1_545
S0 Sn0 2.576441 1_655
S0 Sn0 2.576446 1_555
S1 Sn1 2.576441 1_565
S1 Sn1 2.576441 1_455
S1 Sn1 2.576446 1_555
S2 Sn1 2.576638 1_455
S2 Sn1 2.576641 1_445
S2 Sn1 2.576641 1_555
S3 Sn0 2.576638 1_545
S3 Sn0 2.576641 1_555
S3 Sn0 2.576641 1_445
