# generated using pymatgen
data_H8PdC2NCl3
_symmetry_space_group_name_H-M   'P 1'
_cell_length_a   7.63668301
_cell_length_b   7.63668301
_cell_length_c   7.20826349
_cell_angle_alpha   89.61612515
_cell_angle_beta   89.61612515
_cell_angle_gamma   118.61648527
_symmetry_Int_Tables_number   1
_chemical_formula_structural   H8PdC2NCl3
_chemical_formula_sum   'H16 Pd2 C4 N2 Cl6'
_cell_volume   368.99519224
_cell_formula_units_Z   2
loop_
 _symmetry_equiv_pos_site_id
 _symmetry_equiv_pos_as_xyz
  1  'x, y, z'
loop_
 _atom_site_type_symbol
 _atom_site_label
 _atom_site_symmetry_multiplicity
 _atom_site_fract_x
 _atom_site_fract_y
 _atom_site_fract_z
 _atom_site_occupancy
  H  H0  1  0.56019071  0.08452388  0.83073664  1
  H  H1  1  0.49657727  0.21797445  -0.00119946  1
  H  H2  1  0.72000898  0.24821787  0.53949218  1
  H  H3  1  0.75178213  0.27999102  0.96050782  1
  H  H4  1  0.48991991  0.32994439  0.68999031  1
  H  H5  1  0.91547612  0.43980929  0.66926336  1
  H  H6  1  0.32994439  0.48991991  0.18999031  1
  H  H7  1  0.21797445  0.49657727  0.49880054  1
  H  H8  1  0.78202555  0.50342273  0.50119946  1
  H  H9  1  0.67005561  0.51008009  0.81000969  1
  H  H10  1  0.08452388  0.56019071  0.33073664  1
  H  H11  1  0.51008009  0.67005561  0.31000969  1
  H  H12  1  0.24821787  0.72000898  0.03949218  1
  H  H13  1  0.27999102  0.75178213  0.46050782  1
  H  H14  1  0.50342273  0.78202555  0.00119946  1
  H  H15  1  0.43980929  0.91547612  0.16926336  1
  Pd  Pd0  1  -0.00000000  0.00000000  0.50000000  1
  Pd  Pd1  1  -0.00000000  0.00000000  -0.00000000  1
  C  C0  1  0.60668576  0.22753931  0.89677738  1
  C  C1  1  0.77246069  0.39331424  0.60322262  1
  C  C2  1  0.22753931  0.60668576  0.39677738  1
  C  C3  1  0.39331424  0.77246069  0.10322262  1
  N  N0  1  0.62649735  0.37350265  0.75000000  1
  N  N1  1  0.37350265  0.62649735  0.25000000  1
  Cl  Cl0  1  0.88976891  0.11023109  0.25000000  1
  Cl  Cl1  1  0.32702679  0.18491703  0.39571226  1
  Cl  Cl2  1  0.18491703  0.32702679  0.89571226  1
  Cl  Cl3  1  0.81508297  0.67297321  0.10428774  1
  Cl  Cl4  1  0.67297321  0.81508297  0.60428774  1
  Cl  Cl5  1  0.11023109  0.88976891  0.75000000  1
loop_
_geom_bond_atom_site_label_1
_geom_bond_atom_site_label_2
_geom_bond_distance
_geom_bond_site_symmetry_2
H4 N0 1.030169 1_555
H6 N1 1.030169 1_555
H9 N0 1.030169 1_555
H11 N1 1.030169 1_555
C0 H0 1.087785 1_555
C0 H3 1.087844 1_555
C0 H1 1.088749 1_556
C0 N0 1.485021 1_555
C1 H5 1.087785 1_555
C1 H2 1.087844 1_555
C1 H8 1.088749 1_555
C1 N0 1.485021 1_555
C2 H10 1.087785 1_555
C2 H13 1.087844 1_555
C2 H7 1.088749 1_555
C2 N1 1.485021 1_555
C3 H15 1.087785 1_555
C3 H12 1.087844 1_555
C3 H14 1.088749 1_555
C3 N1 1.485021 1_555
Cl0 Pd1 2.311597 1_655
Cl0 Pd0 2.311597 1_655
Cl1 Pd0 2.319204 1_555
Cl2 Pd1 2.319204 1_556
Cl3 Pd1 2.319204 1_665
Cl4 Pd0 2.319204 1_665
Cl5 Pd1 2.311597 1_566
Cl5 Pd0 2.311597 1_565
