# generated using pymatgen
data_BaAgO2
_symmetry_space_group_name_H-M   'P 1'
_cell_length_a   8.97151551
_cell_length_b   8.97151551
_cell_length_c   4.33013925
_cell_angle_alpha   90.00000000
_cell_angle_beta   90.00000000
_cell_angle_gamma   155.10950692
_symmetry_Int_Tables_number   1
_chemical_formula_structural   BaAgO2
_chemical_formula_sum   'Ba2 Ag2 O4'
_cell_volume   146.68889922
_cell_formula_units_Z   2
loop_
 _symmetry_equiv_pos_site_id
 _symmetry_equiv_pos_as_xyz
  1  'x, y, z'
loop_
 _atom_site_type_symbol
 _atom_site_label
 _atom_site_symmetry_multiplicity
 _atom_site_fract_x
 _atom_site_fract_y
 _atom_site_fract_z
 _atom_site_occupancy
  Ba  Ba0  1  0.33207259  0.66792741  0.25000000  1
  Ba  Ba1  1  0.66792741  0.33207259  0.75000000  1
  Ag  Ag0  1  0.06265972  0.93734028  0.25000000  1
  Ag  Ag1  1  0.93734028  0.06265972  0.75000000  1
  O  O0  1  0.18186929  0.81813071  0.25000000  1
  O  O1  1  0.94244692  0.05755308  0.25000000  1
  O  O2  1  0.81813071  0.18186929  0.75000000  1
  O  O3  1  0.05755308  0.94244692  0.75000000  1
loop_
_geom_bond_atom_site_label_1
_geom_bond_atom_site_label_2
_geom_bond_distance
_geom_bond_site_symmetry_2
Ba0 O0 2.631774 1_555
Ba0 O1 2.734618 1_455
Ba0 O1 2.734618 1_565
Ba0 O2 2.912956 1_565
Ba0 O2 2.912956 1_564
Ba0 O2 2.912956 1_455
Ba0 O2 2.912956 1_454
Ba1 O2 2.631774 1_555
Ba1 O3 2.734618 1_655
Ba1 O3 2.734618 1_545
Ba1 O0 2.912956 1_545
Ba1 O0 2.912956 1_546
Ba1 O0 2.912956 1_656
Ba1 O0 2.912956 1_655
Ag0 O0 2.088720 1_555
Ag0 O1 2.106298 1_465
Ag0 O3 2.166918 1_554
Ag0 O3 2.166918 1_555
Ag1 O2 2.088720 1_555
Ag1 O3 2.106298 1_645
Ag1 O1 2.166918 1_555
Ag1 O1 2.166918 1_556
