# generated using pymatgen
data_K3Ta3(BO6)2
_symmetry_space_group_name_H-M   'P 1'
_cell_length_a   8.88869640
_cell_length_b   8.88869640
_cell_length_c   3.94721100
_cell_angle_alpha   90.00000000
_cell_angle_beta   90.00000000
_cell_angle_gamma   120.00000295
_symmetry_Int_Tables_number   1
_chemical_formula_structural   K3Ta3(BO6)2
_chemical_formula_sum   'K3 Ta3 B2 O12'
_cell_volume   270.08291136
_cell_formula_units_Z   1
loop_
 _symmetry_equiv_pos_site_id
 _symmetry_equiv_pos_as_xyz
  1  'x, y, z'
loop_
 _atom_site_type_symbol
 _atom_site_label
 _atom_site_symmetry_multiplicity
 _atom_site_fract_x
 _atom_site_fract_y
 _atom_site_fract_z
 _atom_site_occupancy
  K  K0  1  0.40386700  0.00000000  0.50000000  1
  K  K1  1  0.59613300  0.59613300  0.50000000  1
  K  K2  1  0.00000000  0.40386700  0.50000000  1
  Ta  Ta0  1  0.75337900  0.00000000  0.00000000  1
  Ta  Ta1  1  0.24662100  0.24662100  0.00000000  1
  Ta  Ta2  1  0.00000000  0.75337900  0.00000000  1
  B  B0  1  0.33333300  0.66666700  0.00000000  1
  B  B1  1  0.66666700  0.33333300  0.00000000  1
  O  O0  1  0.81144300  0.49677900  0.00000000  1
  O  O1  1  0.49677900  0.81144300  0.00000000  1
  O  O2  1  0.18855700  0.68533700  0.00000000  1
  O  O3  1  0.31466300  0.50322100  0.00000000  1
  O  O4  1  0.50322100  0.31466300  0.00000000  1
  O  O5  1  0.68533700  0.18855700  0.00000000  1
  O  O6  1  0.73694300  0.00000000  0.50000000  1
  O  O7  1  0.26305700  0.26305700  0.50000000  1
  O  O8  1  0.00000000  0.73694300  0.50000000  1
  O  O9  1  0.17900600  0.00000000  0.00000000  1
  O  O10  1  0.82099400  0.82099400  0.00000000  1
  O  O11  1  0.00000000  0.17900600  0.00000000  1
loop_
_geom_bond_atom_site_label_1
_geom_bond_atom_site_label_2
_geom_bond_distance
_geom_bond_site_symmetry_2
K0 O9 2.808915 1_556
K0 O9 2.808915 1_555
K0 O6 2.960611 1_555
K0 O1 2.961488 1_546
K0 O1 2.961488 1_545
K0 O5 2.961493 1_555
K0 O5 2.961493 1_556
K0 O8 3.156019 1_545
K0 O7 3.156019 1_555
K0 O4 3.166681 1_555
K0 O4 3.166681 1_556
K0 O2 3.166683 1_546
K0 O2 3.166683 1_545
K1 O10 2.808915 1_555
K1 O10 2.808915 1_556
K1 O7 2.960611 1_555
K1 O4 2.961494 1_555
K1 O4 2.961494 1_556
K1 O3 2.961494 1_555
K1 O3 2.961494 1_556
K1 O6 3.156019 1_565
K1 O8 3.156019 1_655
K1 O0 3.166688 1_555
K1 O0 3.166688 1_556
K1 O1 3.166688 1_555
K1 O1 3.166688 1_556
K2 O11 2.808915 1_556
K2 O11 2.808915 1_555
K2 O8 2.960611 1_555
K2 O0 2.961488 1_456
K2 O0 2.961488 1_455
K2 O2 2.961493 1_555
K2 O2 2.961493 1_556
K2 O6 3.156019 1_455
K2 O7 3.156019 1_555
K2 O3 3.166681 1_555
K2 O3 3.166681 1_556
K2 O5 3.166683 1_456
K2 O5 3.166683 1_455
B0 O1 1.377364 1_555
B0 O3 1.377364 1_555
B0 O2 1.377364 1_555
B1 O0 1.377364 1_555
B1 O4 1.377364 1_555
B1 O5 1.377364 1_555
O0 Ta2 2.046594 1_655
O1 Ta0 2.046594 1_565
O2 Ta2 2.046587 1_555
O3 Ta1 2.046596 1_555
O4 Ta1 2.046596 1_555
O5 Ta0 2.046587 1_555
O6 Ta0 1.979005 1_555
O6 Ta0 1.979005 1_556
O7 Ta1 1.979005 1_555
O7 Ta1 1.979005 1_556
O8 Ta2 1.979005 1_555
O8 Ta2 1.979005 1_556
O9 Ta2 1.961935 1_545
O9 Ta1 1.961935 1_555
O10 Ta0 1.961935 1_565
O10 Ta2 1.961935 1_655
O11 Ta0 1.961935 1_455
O11 Ta1 1.961935 1_555
