# generated using pymatgen
data_Re3Mo
_symmetry_space_group_name_H-M   'P 1'
_cell_length_a   5.58998164
_cell_length_b   5.58998164
_cell_length_c   4.54956600
_cell_angle_alpha   90.00000000
_cell_angle_beta   90.00000000
_cell_angle_gamma   119.99999571
_symmetry_Int_Tables_number   1
_chemical_formula_structural   Re3Mo
_chemical_formula_sum   'Re6 Mo2'
_cell_volume   123.11795201
_cell_formula_units_Z   2
loop_
 _symmetry_equiv_pos_site_id
 _symmetry_equiv_pos_as_xyz
  1  'x, y, z'
loop_
 _atom_site_type_symbol
 _atom_site_label
 _atom_site_symmetry_multiplicity
 _atom_site_fract_x
 _atom_site_fract_y
 _atom_site_fract_z
 _atom_site_occupancy
  Re  Re0  1  0.83396900  0.16603100  0.75000000  1
  Re  Re1  1  0.33206300  0.16603100  0.75000000  1
  Re  Re2  1  0.83396900  0.66793700  0.75000000  1
  Re  Re3  1  0.16603100  0.83396900  0.25000000  1
  Re  Re4  1  0.66793700  0.83396900  0.25000000  1
  Re  Re5  1  0.16603100  0.33206300  0.25000000  1
  Mo  Mo0  1  0.66666700  0.33333300  0.25000000  1
  Mo  Mo1  1  0.33333300  0.66666700  0.75000000  1
loop_
_geom_bond_atom_site_label_1
_geom_bond_atom_site_label_2
_geom_bond_distance
_geom_bond_site_symmetry_2
Re0 Re2 2.784336 1_545
Re0 Re1 2.784336 1_655
Re0 Re5 2.785463 1_655
Re0 Re5 2.785463 1_656
Re0 Re4 2.785463 1_546
Re0 Re4 2.785463 1_545
Re0 Re1 2.805645 1_555
Re0 Re2 2.805645 1_555
Re1 Re2 2.784336 1_445
Re1 Re3 2.785463 1_545
Re1 Re3 2.785463 1_546
Re1 Re5 2.785468 1_556
Re1 Re5 2.785468 1_555
Re1 Re2 2.805646 1_555
Re2 Re3 2.785463 1_656
Re2 Re3 2.785463 1_655
Re2 Re4 2.785468 1_555
Re2 Re4 2.785468 1_556
Re3 Re4 2.784336 1_455
Re3 Re5 2.784336 1_565
Re3 Re5 2.805645 1_555
Re3 Re4 2.805645 1_555
Re4 Re5 2.784336 1_665
Re4 Re5 2.805646 1_555
Mo0 Re0 2.792583 1_555
Mo0 Re0 2.792583 1_554
Mo0 Re2 2.792583 1_555
Mo0 Re2 2.792583 1_554
Mo0 Re1 2.792583 1_554
Mo0 Re1 2.792583 1_555
Mo0 Re5 2.794992 1_655
Mo0 Re4 2.794992 1_545
Mo0 Re3 2.794998 1_655
Mo0 Re3 2.794998 1_545
Mo0 Re4 2.795003 1_555
Mo0 Re5 2.795003 1_555
Mo1 Re3 2.792583 1_556
Mo1 Re3 2.792583 1_555
Mo1 Re4 2.792583 1_555
Mo1 Re4 2.792583 1_556
Mo1 Re5 2.792583 1_556
Mo1 Re5 2.792583 1_555
Mo1 Re1 2.794992 1_565
Mo1 Re2 2.794992 1_455
Mo1 Re0 2.794998 1_565
Mo1 Re0 2.794998 1_455
Mo1 Re2 2.795003 1_555
Mo1 Re1 2.795003 1_555
