# generated using pymatgen
data_LaNd3
_symmetry_space_group_name_H-M   'P 1'
_cell_length_a   7.56904891
_cell_length_b   7.56904641
_cell_length_c   5.90733396
_cell_angle_alpha   90.00000000
_cell_angle_beta   90.00000000
_cell_angle_gamma   119.99998760
_symmetry_Int_Tables_number   1
_chemical_formula_structural   LaNd3
_chemical_formula_sum   'La2 Nd6'
_cell_volume   293.09248904
_cell_formula_units_Z   2
loop_
 _symmetry_equiv_pos_site_id
 _symmetry_equiv_pos_as_xyz
  1  'x, y, z'
loop_
 _atom_site_type_symbol
 _atom_site_label
 _atom_site_symmetry_multiplicity
 _atom_site_fract_x
 _atom_site_fract_y
 _atom_site_fract_z
 _atom_site_occupancy
  La  La0  1  0.66666700  0.33333300  0.25000000  1
  La  La1  1  0.33333400  0.66666800  0.75000000  1
  Nd  Nd0  1  0.83388336  0.16611864  0.75000000  1
  Nd  Nd1  1  0.33223528  0.16611864  0.75000000  1
  Nd  Nd2  1  0.83388336  0.66776572  0.75000000  1
  Nd  Nd3  1  0.16611664  0.83388236  0.25000000  1
  Nd  Nd4  1  0.66776372  0.83388236  0.25000000  1
  Nd  Nd5  1  0.16611764  0.33223528  0.25000000  1
loop_
_geom_bond_atom_site_label_1
_geom_bond_atom_site_label_2
_geom_bond_distance
_geom_bond_site_symmetry_2
La0 Nd0 3.678293 1_555
La0 Nd0 3.678293 1_554
La0 Nd1 3.678298 1_555
La0 Nd1 3.678298 1_554
La0 Nd2 3.678301 1_555
La0 Nd2 3.678301 1_554
La0 Nd4 3.784522 1_545
La0 Nd5 3.784528 1_655
La0 Nd3 3.784528 1_655
La0 Nd5 3.784535 1_555
La0 Nd3 3.784535 1_545
La0 Nd4 3.784538 1_555
La1 Nd4 3.678290 1_555
La1 Nd4 3.678290 1_556
La1 Nd3 3.678297 1_555
La1 Nd3 3.678297 1_556
La1 Nd5 3.678301 1_556
La1 Nd5 3.678301 1_555
La1 Nd2 3.784528 1_455
La1 Nd1 3.784530 1_565
La1 Nd1 3.784530 1_555
La1 Nd0 3.784531 1_455
La1 Nd0 3.784531 1_565
La1 Nd2 3.784535 1_555
Nd0 Nd5 3.669731 1_655
Nd0 Nd5 3.669731 1_656
Nd0 Nd4 3.669739 1_545
Nd0 Nd4 3.669739 1_546
Nd0 Nd1 3.772050 1_655
Nd0 Nd2 3.772056 1_545
Nd0 Nd2 3.796990 1_555
Nd0 Nd1 3.796999 1_555
Nd1 Nd5 3.669731 1_556
Nd1 Nd5 3.669731 1_555
Nd1 Nd3 3.669739 1_546
Nd1 Nd3 3.669739 1_545
Nd1 Nd2 3.772054 1_445
Nd1 Nd2 3.796995 1_555
Nd2 Nd3 3.669727 1_656
Nd2 Nd3 3.669727 1_655
Nd2 Nd4 3.669739 1_555
Nd2 Nd4 3.669739 1_556
Nd3 Nd5 3.772053 1_565
Nd3 Nd4 3.772058 1_455
Nd3 Nd4 3.796991 1_555
Nd3 Nd5 3.796994 1_555
Nd4 Nd5 3.772061 1_665
Nd4 Nd5 3.796988 1_555
