# generated using pymatgen
data_La2ZnGa
_symmetry_space_group_name_H-M   'P 1'
_cell_length_a   5.32112173
_cell_length_b   5.32112173
_cell_length_c   5.32112173
_cell_angle_alpha   60.00000000
_cell_angle_beta   60.00000000
_cell_angle_gamma   60.00000000
_symmetry_Int_Tables_number   1
_chemical_formula_structural   La2ZnGa
_chemical_formula_sum   'La2 Zn1 Ga1'
_cell_volume   106.53555813
_cell_formula_units_Z   1
loop_
 _symmetry_equiv_pos_site_id
 _symmetry_equiv_pos_as_xyz
  1  'x, y, z'
loop_
 _atom_site_type_symbol
 _atom_site_label
 _atom_site_symmetry_multiplicity
 _atom_site_fract_x
 _atom_site_fract_y
 _atom_site_fract_z
 _atom_site_occupancy
  La  La0  1  0.49999900  0.49999900  0.49999900  1
  La  La1  1  -0.00000000  0.00000000  0.00000000  1
  Zn  Zn0  1  0.75000000  0.75000000  0.75000000  1
  Ga  Ga0  1  0.25000100  0.25000100  0.25000100  1
loop_
_geom_bond_atom_site_label_1
_geom_bond_atom_site_label_2
_geom_bond_distance
_geom_bond_site_symmetry_2
La0 Zn0 3.258504 1_455
La0 Zn0 3.258504 1_545
La0 Zn0 3.258504 1_554
La0 Zn0 3.258521 1_555
La1 Zn0 3.258508 1_445
La1 Zn0 3.258508 1_444
La1 Zn0 3.258508 1_544
La1 Zn0 3.258508 1_454
Ga0 La0 3.258482 1_555
Ga0 La1 3.258504 1_556
Ga0 La1 3.258504 1_655
Ga0 La1 3.258504 1_565
Ga0 La0 3.258517 1_545
Ga0 La0 3.258517 1_554
Ga0 La0 3.258517 1_455
Ga0 La1 3.258521 1_555
