# generated using pymatgen
data_NaZn13
_symmetry_space_group_name_H-M   'P 1'
_cell_length_a   8.53596738
_cell_length_b   8.53596741
_cell_length_c   8.53596732
_cell_angle_alpha   60.00000036
_cell_angle_beta   60.00000022
_cell_angle_gamma   59.99999805
_symmetry_Int_Tables_number   1
_chemical_formula_structural   NaZn13
_chemical_formula_sum   'Na2 Zn26'
_cell_volume   439.78785958
_cell_formula_units_Z   2
loop_
 _symmetry_equiv_pos_site_id
 _symmetry_equiv_pos_as_xyz
  1  'x, y, z'
loop_
 _atom_site_type_symbol
 _atom_site_label
 _atom_site_symmetry_multiplicity
 _atom_site_fract_x
 _atom_site_fract_y
 _atom_site_fract_z
 _atom_site_occupancy
  Na  Na0  1  0.25000000  0.25000000  0.25000000  1
  Na  Na1  1  0.75000000  0.75000000  0.75000000  1
  Zn  Zn0  1  0.20010309  0.79989691  0.43883458  1
  Zn  Zn1  1  0.70010309  0.06116542  0.93883458  1
  Zn  Zn2  1  0.93883458  0.29989691  0.70010309  1
  Zn  Zn3  1  0.70010309  0.93883458  0.29989691  1
  Zn  Zn4  1  0.06116542  0.29989691  0.93883458  1
  Zn  Zn5  1  0.06116542  0.93883458  0.70010309  1
  Zn  Zn6  1  0.93883458  0.06116542  0.29989691  1
  Zn  Zn7  1  0.43883458  0.20010309  0.79989691  1
  Zn  Zn8  1  0.79989691  0.43883458  0.20010309  1
  Zn  Zn9  1  0.56116542  0.20010309  0.43883458  1
  Zn  Zn10  1  0.79989691  0.56116542  0.43883458  1
  Zn  Zn11  1  0.56116542  0.79989691  0.20010309  1
  Zn  Zn12  1  0.43883458  0.79989691  0.56116542  1
  Zn  Zn13  1  0.20010309  0.43883458  0.56116542  1
  Zn  Zn14  1  0.20010309  0.56116542  0.79989691  1
  Zn  Zn15  1  0.93883458  0.70010309  0.06116542  1
  Zn  Zn16  1  0.29989691  0.93883458  0.06116542  1
  Zn  Zn17  1  0.29989691  0.70010309  0.93883458  1
  Zn  Zn18  1  0.70010309  0.29989691  0.06116542  1
  Zn  Zn19  1  0.06116542  0.70010309  0.29989691  1
  Zn  Zn20  1  0.29989691  0.06116542  0.70010309  1
  Zn  Zn21  1  0.43883458  0.56116542  0.20010309  1
  Zn  Zn22  1  0.56116542  0.43883458  0.79989691  1
  Zn  Zn23  1  0.79989691  0.20010309  0.56116542  1
  Zn  Zn24  1  0.00000000  -0.00000000  -0.00000000  1
  Zn  Zn25  1  0.50000000  0.50000000  0.50000000  1
loop_
_geom_bond_atom_site_label_1
_geom_bond_atom_site_label_2
_geom_bond_distance
_geom_bond_site_symmetry_2
Na0 Zn10 3.506844 1_455
Na0 Zn3 3.506844 1_545
Na0 Zn11 3.506844 1_545
Na0 Zn15 3.506844 1_455
Na0 Zn8 3.506844 1_455
Na0 Zn1 3.506844 1_554
Na0 Zn12 3.506844 1_545
Na0 Zn19 3.506844 1_555
Na0 Zn7 3.506844 1_554
Na0 Zn4 3.506844 1_554
Na0 Zn13 3.506844 1_555
Na0 Zn20 3.506844 1_555
Na0 Zn9 3.506844 1_555
Na0 Zn2 3.506844 1_455
Na0 Zn14 3.506844 1_554
Na0 Zn16 3.506844 1_545
Na0 Zn23 3.506844 1_455
Na0 Zn18 3.506844 1_555
Na0 Zn0 3.506844 1_545
Na0 Zn17 3.506844 1_554
Na0 Zn22 3.506844 1_554
Na0 Zn6 3.506844 1_455
Na0 Zn5 3.506844 1_545
Na0 Zn21 3.506844 1_555
Na1 Zn20 3.506844 1_565
Na1 Zn13 3.506844 1_655
Na1 Zn4 3.506844 1_655
Na1 Zn7 3.506844 1_565
Na1 Zn16 3.506844 1_556
Na1 Zn14 3.506844 1_655
Na1 Zn2 3.506844 1_555
Na1 Zn9 3.506844 1_565
Na1 Zn15 3.506844 1_556
Na1 Zn11 3.506844 1_556
Na1 Zn10 3.506844 1_555
Na1 Zn3 3.506844 1_555
Na1 Zn12 3.506844 1_555
Na1 Zn19 3.506844 1_655
Na1 Zn1 3.506844 1_565
Na1 Zn8 3.506844 1_556
Na1 Zn17 3.506844 1_555
Na1 Zn0 3.506844 1_655
Na1 Zn18 3.506844 1_556
Na1 Zn23 3.506844 1_565
Na1 Zn21 3.506844 1_556
Na1 Zn5 3.506844 1_655
Na1 Zn22 3.506844 1_555
Na1 Zn6 3.506844 1_565
Zn0 Zn6 2.525910 1_465
Zn0 Zn5 2.525910 1_555
Zn0 Zn25 2.612611 1_555
Zn0 Zn19 2.639258 1_555
Zn0 Zn16 2.639258 1_555
Zn0 Zn12 2.714945 1_555
Zn0 Zn14 2.714945 1_555
Zn0 Zn11 2.714945 1_555
Zn0 Zn13 2.714945 1_555
Zn0 Zn21 2.881890 1_555
Zn1 Zn7 2.525910 1_555
Zn1 Zn11 2.525910 1_546
Zn1 Zn24 2.612611 1_656
Zn1 Zn22 2.639258 1_555
Zn1 Zn23 2.639258 1_555
Zn1 Zn15 2.714945 1_546
Zn1 Zn5 2.714945 1_645
Zn1 Zn3 2.714945 1_546
Zn1 Zn18 2.714945 1_556
Zn1 Zn2 2.881890 1_555
Zn2 Zn24 2.612611 1_656
Zn2 Zn22 2.639258 1_555
Zn2 Zn23 2.639258 1_555
Zn2 Zn20 2.714945 1_655
Zn2 Zn5 2.714945 1_645
Zn2 Zn4 2.714945 1_655
Zn3 Zn9 2.525910 1_565
Zn3 Zn6 2.714945 1_565
Zn4 Zn8 2.525910 1_456
Zn4 Zn7 2.639258 1_555
Zn4 Zn6 2.714945 1_456
Zn6 Zn9 2.639258 1_555
Zn6 Zn8 2.639258 1_555
Zn7 Zn9 2.714945 1_555
Zn8 Zn9 2.881890 1_555
Zn10 Zn2 2.525910 1_555
Zn10 Zn19 2.525910 1_655
Zn10 Zn25 2.612611 1_555
Zn10 Zn3 2.639258 1_555
Zn10 Zn15 2.639258 1_555
Zn10 Zn12 2.714945 1_555
Zn10 Zn8 2.714945 1_555
Zn10 Zn23 2.714945 1_555
Zn10 Zn22 2.714945 1_555
Zn10 Zn11 2.881890 1_555
Zn11 Zn16 2.525910 1_555
Zn11 Zn25 2.612611 1_555
Zn11 Zn15 2.639258 1_555
Zn11 Zn3 2.639258 1_555
Zn11 Zn8 2.714945 1_555
Zn11 Zn12 2.714945 1_555
Zn11 Zn21 2.714945 1_555
Zn12 Zn20 2.525910 1_565
Zn12 Zn3 2.525910 1_555
Zn12 Zn25 2.612611 1_555
Zn12 Zn5 2.639258 1_555
Zn12 Zn17 2.639258 1_555
Zn12 Zn22 2.714945 1_555
Zn12 Zn14 2.881890 1_555
Zn13 Zn19 2.525910 1_555
Zn13 Zn2 2.525910 1_455
Zn13 Zn25 2.612611 1_555
Zn13 Zn20 2.639258 1_555
Zn13 Zn4 2.639258 1_555
Zn13 Zn9 2.714945 1_555
Zn13 Zn14 2.714945 1_555
Zn13 Zn21 2.714945 1_555
Zn13 Zn7 2.881890 1_555
Zn14 Zn15 2.525910 1_456
Zn14 Zn4 2.525910 1_555
Zn14 Zn25 2.612611 1_555
Zn14 Zn5 2.639258 1_555
Zn14 Zn17 2.639258 1_555
Zn14 Zn7 2.714945 1_555
Zn14 Zn22 2.714945 1_555
Zn15 Zn8 2.525910 1_555
Zn15 Zn24 2.612611 1_665
Zn15 Zn19 2.714945 1_655
Zn15 Zn17 2.714945 1_654
Zn15 Zn5 2.714945 1_654
Zn15 Zn3 2.881890 1_555
Zn16 Zn7 2.525910 1_564
Zn16 Zn24 2.612611 1_565
Zn16 Zn21 2.639258 1_555
Zn16 Zn4 2.714945 1_564
Zn16 Zn6 2.714945 1_465
Zn16 Zn20 2.714945 1_564
Zn16 Zn17 2.714945 1_554
Zn16 Zn19 2.881890 1_555
Zn17 Zn22 2.525910 1_555
Zn17 Zn21 2.525910 1_556
Zn17 Zn24 2.612611 1_566
Zn17 Zn19 2.714945 1_556
Zn17 Zn20 2.714945 1_565
Zn17 Zn5 2.881890 1_555
Zn18 Zn21 2.525910 1_555
Zn18 Zn22 2.525910 1_554
Zn18 Zn24 2.612611 1_655
Zn18 Zn9 2.639258 1_555
Zn18 Zn8 2.639258 1_555
Zn18 Zn2 2.714945 1_554
Zn18 Zn4 2.714945 1_654
Zn18 Zn3 2.714945 1_545
Zn18 Zn6 2.881890 1_555
Zn19 Zn24 2.612611 1_565
Zn19 Zn21 2.639258 1_555
Zn19 Zn3 2.714945 1_455
Zn19 Zn6 2.714945 1_465
Zn20 Zn9 2.525910 1_555
Zn20 Zn24 2.612611 1_556
Zn20 Zn7 2.639258 1_555
Zn20 Zn5 2.714945 1_545
Zn20 Zn4 2.881890 1_555
Zn21 Zn25 2.612611 1_555
Zn21 Zn8 2.714945 1_555
Zn21 Zn9 2.714945 1_555
Zn22 Zn25 2.612611 1_555
Zn22 Zn7 2.714945 1_555
Zn22 Zn23 2.881890 1_555
Zn23 Zn5 2.525910 1_645
Zn23 Zn6 2.525910 1_555
Zn23 Zn25 2.612611 1_555
Zn23 Zn9 2.714945 1_555
Zn23 Zn8 2.714945 1_555
Zn23 Zn7 2.714945 1_555
Zn24 Zn6 2.612611 1_455
Zn24 Zn5 2.612611 1_544
Zn24 Zn3 2.612611 1_445
Zn24 Zn4 2.612611 1_554
Zn25 Zn8 2.612611 1_555
Zn25 Zn9 2.612611 1_555
Zn25 Zn7 2.612611 1_555
