# generated using pymatgen
data_K3La(AsO4)2
_symmetry_space_group_name_H-M   'P 1'
_cell_length_a   5.92727100
_cell_length_b   7.68881800
_cell_length_c   10.08238501
_cell_angle_alpha   88.34614954
_cell_angle_beta   90.00000000
_cell_angle_gamma   90.00000000
_symmetry_Int_Tables_number   1
_chemical_formula_structural   K3La(AsO4)2
_chemical_formula_sum   'K6 La2 As4 O16'
_cell_volume   459.30025991
_cell_formula_units_Z   2
loop_
 _symmetry_equiv_pos_site_id
 _symmetry_equiv_pos_as_xyz
  1  'x, y, z'
loop_
 _atom_site_type_symbol
 _atom_site_label
 _atom_site_symmetry_multiplicity
 _atom_site_fract_x
 _atom_site_fract_y
 _atom_site_fract_z
 _atom_site_occupancy
  K  K0  1  0.50916600  0.01066200  0.80878200  1
  K  K1  1  0.00916600  0.98933800  0.19121800  1
  K  K2  1  0.51122800  0.85956900  0.40419500  1
  K  K3  1  0.01122800  0.14043100  0.59580500  1
  K  K4  1  0.49749500  0.31533500  0.08250500  1
  K  K5  1  0.99749500  0.68466500  0.91749500  1
  La  La0  1  0.99202200  0.49026300  0.29249900  1
  La  La1  1  0.49202200  0.50973700  0.70750100  1
  As  As0  1  0.99804800  0.25307500  0.91563700  1
  As  As1  1  0.49804800  0.74692500  0.08436300  1
  As  As2  1  0.51850900  0.29818700  0.42666000  1
  As  As3  1  0.01850900  0.70181300  0.57334000  1
  O  O0  1  0.48660400  0.96681400  0.09787200  1
  O  O1  1  0.98660400  0.03318600  0.90212800  1
  O  O2  1  0.07192000  0.48359300  0.55571100  1
  O  O3  1  0.57192000  0.51640700  0.44428900  1
  O  O4  1  0.99837100  0.78800900  0.41399800  1
  O  O5  1  0.49837100  0.21199100  0.58600200  1
  O  O6  1  0.77656200  0.74722100  0.66175900  1
  O  O7  1  0.27656200  0.25277900  0.33824100  1
  O  O8  1  0.25152600  0.78263900  0.65429200  1
  O  O9  1  0.75152600  0.21736100  0.34570800  1
  O  O10  1  0.74491500  0.66716400  0.15556700  1
  O  O11  1  0.24491500  0.33283600  0.84443300  1
  O  O12  1  0.27181700  0.65203900  0.16850500  1
  O  O13  1  0.77181700  0.34796100  0.83149500  1
  O  O14  1  0.49042700  0.68066900  0.92194200  1
  O  O15  1  0.99042700  0.31933100  0.07805800  1
loop_
_geom_bond_atom_site_label_1
_geom_bond_atom_site_label_2
_geom_bond_distance
_geom_bond_site_symmetry_2
K0 O5 2.691626 1_555
K0 O14 2.754018 1_545
K0 O8 2.826603 1_545
K0 O0 2.927524 1_546
K0 O11 2.961429 1_555
K0 O1 2.988900 1_555
K0 O6 2.997583 1_545
K0 O13 3.039119 1_555
K0 O1 3.243277 1_455
K1 O4 2.691626 1_455
K1 O15 2.754018 1_465
K1 O9 2.826603 1_465
K1 O1 2.927524 1_464
K1 O10 2.961429 1_455
K1 O0 2.988900 1_555
K1 O7 2.997583 1_565
K1 O12 3.039119 1_555
K1 O0 3.243277 1_455
K2 O3 2.681976 1_555
K2 O4 2.940511 1_555
K2 O8 2.998606 1_555
K2 O4 3.090308 1_455
K2 O6 3.135888 1_555
K2 O9 3.138590 1_565
K2 O0 3.176928 1_555
K2 O12 3.228870 1_555
K2 O10 3.256535 1_555
K2 O5 3.315886 1_565
K2 O7 3.376580 1_565
K3 O2 2.681976 1_555
K3 O5 2.940511 1_555
K3 O9 2.998606 1_455
K3 O5 3.090308 1_455
K3 O7 3.135888 1_555
K3 O8 3.138590 1_545
K3 O1 3.176928 1_455
K3 O13 3.228870 1_455
K3 O11 3.256535 1_555
K3 O4 3.315886 1_445
K3 O6 3.376580 1_445
K4 O0 2.680499 1_545
K4 O11 2.828852 1_554
K4 O7 2.919404 1_555
K4 O15 2.922233 1_555
K4 O15 3.006008 1_455
K4 O13 3.012464 1_554
K4 O12 3.061520 1_555
K4 O9 3.124330 1_555
K4 O10 3.182168 1_555
K4 O14 3.201621 1_554
K5 O1 2.680499 1_565
K5 O10 2.828852 1_556
K5 O6 2.919404 1_555
K5 O14 2.922233 1_655
K5 O14 3.006008 1_555
K5 O12 3.012464 1_656
K5 O13 3.061520 1_555
K5 O8 3.124330 1_655
K5 O11 3.182168 1_655
K5 O15 3.201621 1_556
La0 O12 2.402226 1_655
La0 O10 2.406857 1_555
La0 O7 2.518470 1_655
La0 O15 2.562416 1_555
La0 O9 2.580246 1_555
La0 O4 2.627714 1_555
La0 O2 2.694760 1_655
La0 O3 2.932694 1_555
La1 O13 2.402226 1_555
La1 O11 2.406857 1_555
La1 O6 2.518470 1_555
La1 O14 2.562416 1_555
La1 O8 2.580246 1_555
La1 O5 2.627714 1_555
La1 O3 2.694760 1_555
La1 O2 2.932694 1_555
As0 O1 1.701430 1_555
As0 O15 1.729572 1_556
As0 O11 1.734118 1_655
As0 O13 1.736184 1_555
As1 O0 1.701430 1_555
As1 O14 1.729572 1_554
As1 O10 1.734118 1_555
As1 O12 1.736184 1_555
As2 O3 1.721692 1_555
As2 O5 1.724243 1_555
As2 O9 1.728942 1_555
As2 O7 1.729505 1_555
As3 O2 1.721692 1_555
As3 O4 1.724243 1_455
As3 O8 1.728942 1_555
As3 O6 1.729505 1_455
