# generated using pymatgen
data_KAgCl3
_symmetry_space_group_name_H-M   'P 1'
_cell_length_a   5.05519060
_cell_length_b   5.05530012
_cell_length_c   5.06723867
_cell_angle_alpha   90.03159851
_cell_angle_beta   90.00151249
_cell_angle_gamma   89.99824553
_symmetry_Int_Tables_number   1
_chemical_formula_structural   KAgCl3
_chemical_formula_sum   'K1 Ag1 Cl3'
_cell_volume   129.49582651
_cell_formula_units_Z   1
loop_
 _symmetry_equiv_pos_site_id
 _symmetry_equiv_pos_as_xyz
  1  'x, y, z'
loop_
 _atom_site_type_symbol
 _atom_site_label
 _atom_site_symmetry_multiplicity
 _atom_site_fract_x
 _atom_site_fract_y
 _atom_site_fract_z
 _atom_site_occupancy
  K  K0  1  0.99919943  0.99897299  0.99676584  1
  Ag  Ag0  1  0.50006808  0.49773563  0.48614024  1
  Cl  Cl0  1  0.00007850  0.49514981  0.48493709  1
  Cl  Cl1  1  0.50176018  0.50044701  0.98600630  1
  Cl  Cl2  1  0.49889181  0.99769056  0.48615353  1
loop_
_geom_bond_atom_site_label_1
_geom_bond_atom_site_label_2
_geom_bond_distance
_geom_bond_site_symmetry_2
Ag0 Cl2 2.527429 1_555
Ag0 Cl0 2.527584 1_555
Ag0 Cl0 2.527689 1_655
Ag0 Cl2 2.527885 1_545
Ag0 Cl1 2.532984 1_555
Ag0 Cl1 2.534357 1_554
Cl0 K0 3.521925 1_444
Cl0 K0 3.551500 1_454
Cl0 K0 3.609075 1_445
Cl0 K0 3.634057 1_455
Cl1 K0 3.560627 1_555
Cl1 K0 3.571125 1_545
Cl1 K0 3.578852 1_455
Cl1 K0 3.589514 1_445
Cl2 K0 3.539807 1_454
Cl2 K0 3.542121 1_554
Cl2 K0 3.616055 1_455
Cl2 K0 3.618134 1_555
