# generated using pymatgen
data_K2O
_symmetry_space_group_name_H-M   'P 1'
_cell_length_a   6.96582103
_cell_length_b   8.12694434
_cell_length_c   8.11949872
_cell_angle_alpha   95.86375396
_cell_angle_beta   64.60085557
_cell_angle_gamma   148.99868331
_symmetry_Int_Tables_number   1
_chemical_formula_structural   K2O
_chemical_formula_sum   'K6 O3'
_cell_volume   175.62937368
_cell_formula_units_Z   3
loop_
 _symmetry_equiv_pos_site_id
 _symmetry_equiv_pos_as_xyz
  1  'x, y, z'
loop_
 _atom_site_type_symbol
 _atom_site_label
 _atom_site_symmetry_multiplicity
 _atom_site_fract_x
 _atom_site_fract_y
 _atom_site_fract_z
 _atom_site_occupancy
  K  K0  1  0.11003221  0.85133324  0.07532373  1
  K  K1  1  0.16741644  0.76182267  0.66697816  1
  K  K2  1  0.16438900  0.49871494  0.93032642  1
  K  K3  1  0.33755123  0.66845209  0.25849139  1
  K  K4  1  0.95091494  0.02211076  0.40666299  1
  K  K5  1  0.33366113  0.25924793  0.66886427  1
  O  O0  1  0.45580143  0.12259673  0.33452680  1
  O  O1  1  0.92662520  0.26010809  0.66820569  1
  O  O2  1  0.43975944  0.43981055  0.00126954  1
loop_
_geom_bond_atom_site_label_1
_geom_bond_atom_site_label_2
_geom_bond_distance
_geom_bond_site_symmetry_2
K0 O1 2.835139 1_564
K0 O0 2.884913 1_455
K0 O2 2.928229 1_455
K0 O2 3.013518 1_565
K0 O0 3.064044 1_565
K1 O0 2.605141 1_565
K1 O2 2.610978 1_456
K1 O1 2.773167 1_565
K1 O1 2.776397 1_455
K2 O0 2.601168 1_456
K2 O2 2.611274 1_556
K2 O1 2.772005 1_565
K2 O1 2.776284 1_455
K3 O1 2.841775 1_455
K3 O0 2.895243 1_455
K3 O2 2.919066 1_555
K3 O2 3.002828 1_665
K3 O0 3.072556 1_565
K4 O0 2.604972 1_655
K4 O2 2.608638 1_655
K4 O1 2.773611 1_555
K4 O1 2.776678 1_445
K5 O1 2.843628 1_455
K5 O0 2.889470 1_555
K5 O2 2.928176 1_446
K5 O2 3.004439 1_556
K5 O0 3.060567 1_665
