# generated using pymatgen
data_Sc3Co2Si3
_symmetry_space_group_name_H-M   'P 1'
_cell_length_a   5.34130515
_cell_length_b   5.34130515
_cell_length_c   12.80244200
_cell_angle_alpha   90.00000000
_cell_angle_beta   90.00000000
_cell_angle_gamma   136.87448708
_symmetry_Int_Tables_number   1
_chemical_formula_structural   Sc3Co2Si3
_chemical_formula_sum   'Sc6 Co4 Si6'
_cell_volume   249.68296420
_cell_formula_units_Z   2
loop_
 _symmetry_equiv_pos_site_id
 _symmetry_equiv_pos_as_xyz
  1  'x, y, z'
loop_
 _atom_site_type_symbol
 _atom_site_label
 _atom_site_symmetry_multiplicity
 _atom_site_fract_x
 _atom_site_fract_y
 _atom_site_fract_z
 _atom_site_occupancy
  Sc  Sc0  1  0.85702500  0.14297500  0.75000000  1
  Sc  Sc1  1  0.57986400  0.42013600  0.61310700  1
  Sc  Sc2  1  0.57986400  0.42013600  0.88689300  1
  Sc  Sc3  1  0.42013600  0.57986400  0.11310700  1
  Sc  Sc4  1  0.14297500  0.85702500  0.25000000  1
  Sc  Sc5  1  0.42013600  0.57986400  0.38689300  1
  Co  Co0  1  0.28473400  0.71526600  0.58316600  1
  Co  Co1  1  0.71526600  0.28473400  0.08316600  1
  Co  Co2  1  0.28473400  0.71526600  0.91683400  1
  Co  Co3  1  0.71526600  0.28473400  0.41683400  1
  Si  Si0  1  0.83605800  0.16394200  0.25000000  1
  Si  Si1  1  0.11364500  0.88635500  0.45923000  1
  Si  Si2  1  0.11364500  0.88635500  0.04077000  1
  Si  Si3  1  0.88635500  0.11364500  0.54077000  1
  Si  Si4  1  0.16394200  0.83605800  0.75000000  1
  Si  Si5  1  0.88635500  0.11364500  0.95923000  1
loop_
_geom_bond_atom_site_label_1
_geom_bond_atom_site_label_2
_geom_bond_distance
_geom_bond_site_symmetry_2
Sc0 Si3 2.694458 1_555
Sc0 Si5 2.694458 1_555
Sc0 Si4 2.744687 1_545
Sc0 Si4 2.744687 1_655
Sc0 Si4 3.049219 1_645
Sc1 Si4 2.760932 1_545
Sc1 Si4 2.760932 1_655
Sc1 Si1 2.801260 1_545
Sc1 Si1 2.801260 1_655
Sc1 Si3 2.899518 1_455
Sc1 Si3 2.899518 1_565
Sc2 Si4 2.760932 1_545
Sc2 Si4 2.760932 1_655
Sc2 Si2 2.801260 1_546
Sc2 Si2 2.801260 1_656
Sc2 Si5 2.899518 1_455
Sc2 Si5 2.899518 1_565
Sc3 Si0 2.760932 1_455
Sc3 Si0 2.760932 1_565
Sc3 Si5 2.801260 1_454
Sc3 Si5 2.801260 1_564
Sc3 Si2 2.899518 1_545
Sc3 Si2 2.899518 1_655
Sc4 Si2 2.694458 1_555
Sc4 Si1 2.694458 1_555
Sc4 Si0 2.744687 1_455
Sc4 Si0 2.744687 1_565
Sc4 Si0 3.049219 1_465
Sc5 Si0 2.760932 1_455
Sc5 Si0 2.760932 1_565
Sc5 Si3 2.801260 1_455
Sc5 Si3 2.801260 1_565
Sc5 Si1 2.899518 1_545
Sc5 Si1 2.899518 1_655
Co0 Si3 2.273195 1_455
Co0 Si3 2.273195 1_565
Co0 Si1 2.325248 1_555
Co0 Si4 2.449930 1_555
Co0 Sc5 2.850201 1_555
Co0 Sc1 2.853634 1_565
Co0 Sc1 2.853634 1_455
Co0 Sc1 2.957064 1_555
Co0 Sc0 2.988534 1_565
Co0 Sc0 2.988534 1_455
Co1 Si2 2.273195 1_545
Co1 Si2 2.273195 1_655
Co1 Si5 2.325248 1_554
Co1 Si0 2.449930 1_555
Co1 Sc2 2.850201 1_554
Co1 Sc3 2.853634 1_655
Co1 Sc3 2.853634 1_545
Co1 Sc3 2.957064 1_555
Co1 Sc4 2.988534 1_655
Co1 Sc4 2.988534 1_545
Co2 Si5 2.273195 1_455
Co2 Si5 2.273195 1_565
Co2 Si2 2.325248 1_556
Co2 Si4 2.449930 1_555
Co2 Sc3 2.850201 1_556
Co2 Sc2 2.853634 1_565
Co2 Sc2 2.853634 1_455
Co2 Sc2 2.957064 1_555
Co2 Sc0 2.988534 1_565
Co2 Sc0 2.988534 1_455
Co3 Si1 2.273195 1_545
Co3 Si1 2.273195 1_655
Co3 Si3 2.325248 1_555
Co3 Si0 2.449930 1_555
Co3 Sc1 2.850201 1_555
Co3 Sc5 2.853634 1_655
Co3 Sc5 2.853634 1_545
Co3 Sc5 2.957064 1_555
Co3 Sc4 2.988534 1_655
Co3 Sc4 2.988534 1_545
Si1 Si3 2.487746 1_465
Si2 Si5 2.487746 1_464
