# generated using pymatgen
data_Mg
_symmetry_space_group_name_H-M   'P 1'
_cell_length_a   6.35365264
_cell_length_b   6.35365202
_cell_length_c   20.63772402
_cell_angle_alpha   90.00000000
_cell_angle_beta   90.00000000
_cell_angle_gamma   120.00000322
_symmetry_Int_Tables_number   1
_chemical_formula_structural   Mg
_chemical_formula_sum   Mg32
_cell_volume   721.50494446
_cell_formula_units_Z   32
loop_
 _symmetry_equiv_pos_site_id
 _symmetry_equiv_pos_as_xyz
  1  'x, y, z'
loop_
 _atom_site_type_symbol
 _atom_site_label
 _atom_site_symmetry_multiplicity
 _atom_site_fract_x
 _atom_site_fract_y
 _atom_site_fract_z
 _atom_site_occupancy
  Mg  Mg0_0  1  0.00000000  0.00000000  0.00000000  1
  Mg  Mg0_1  1  0.00000000  0.00000000  0.50000000  1
  Mg  Mg0_2  1  0.00000000  0.50000000  0.00000000  1
  Mg  Mg0_3  1  0.00000000  0.50000000  0.50000000  1
  Mg  Mg0_4  1  0.50000000  0.00000000  0.00000000  1
  Mg  Mg0_5  1  0.50000000  0.00000000  0.50000000  1
  Mg  Mg0_6  1  0.50000000  0.50000000  0.00000000  1
  Mg  Mg0_7  1  0.50000000  0.50000000  0.50000000  1
  Mg  Mg1_0  1  0.16666700  0.33333400  0.12500000  1
  Mg  Mg1_1  1  0.16666700  0.33333400  0.62500000  1
  Mg  Mg1_2  1  0.16666700  0.83333400  0.12500000  1
  Mg  Mg1_3  1  0.16666700  0.83333400  0.62500000  1
  Mg  Mg1_4  1  0.66666700  0.33333400  0.12500000  1
  Mg  Mg1_5  1  0.66666700  0.33333400  0.62500000  1
  Mg  Mg1_6  1  0.66666700  0.83333400  0.12500000  1
  Mg  Mg1_7  1  0.66666700  0.83333400  0.62500000  1
  Mg  Mg2_0  1  0.00000000  0.00000000  0.25000000  1
  Mg  Mg2_1  1  0.00000000  0.00000000  0.75000000  1
  Mg  Mg2_2  1  0.00000000  0.50000000  0.25000000  1
  Mg  Mg2_3  1  0.00000000  0.50000000  0.75000000  1
  Mg  Mg2_4  1  0.50000000  0.00000000  0.25000000  1
  Mg  Mg2_5  1  0.50000000  0.00000000  0.75000000  1
  Mg  Mg2_6  1  0.50000000  0.50000000  0.25000000  1
  Mg  Mg2_7  1  0.50000000  0.50000000  0.75000000  1
  Mg  Mg3_0  1  0.33333350  0.16666600  0.37500000  1
  Mg  Mg3_1  1  0.33333350  0.16666600  0.87500000  1
  Mg  Mg3_2  1  0.33333350  0.66666600  0.37500000  1
  Mg  Mg3_3  1  0.33333350  0.66666600  0.87500000  1
  Mg  Mg3_4  1  0.83333350  0.16666600  0.37500000  1
  Mg  Mg3_5  1  0.83333350  0.16666600  0.87500000  1
  Mg  Mg3_6  1  0.83333350  0.66666600  0.37500000  1
  Mg  Mg3_7  1  0.83333350  0.66666600  0.87500000  1
loop_
_geom_bond_atom_site_label_1
_geom_bond_atom_site_label_2
_geom_bond_distance
_geom_bond_site_symmetry_2
Mg0_0 Mg3_5 3.165279 1_454
Mg0_0 Mg1_2 3.165280 1_545
Mg0_0 Mg1_6 3.165280 1_445
Mg0_0 Mg3_1 3.165282 1_554
Mg0_0 Mg1_0 3.165284 1_555
Mg0_0 Mg3_7 3.165284 1_444
Mg0_0 Mg0_2 3.176826 1_555
Mg0_0 Mg0_6 3.176826 1_555
Mg0_0 Mg0_2 3.176826 1_545
Mg0_0 Mg0_6 3.176826 1_445
Mg0_0 Mg0_4 3.176826 1_455
Mg0_0 Mg0_4 3.176826 1_555
Mg0_1 Mg3_4 3.165279 1_455
Mg0_1 Mg1_3 3.165280 1_545
Mg0_1 Mg1_7 3.165280 1_445
Mg0_1 Mg3_0 3.165282 1_555
Mg0_1 Mg1_1 3.165284 1_555
Mg0_1 Mg3_6 3.165284 1_445
Mg0_1 Mg0_3 3.176826 1_555
Mg0_1 Mg0_7 3.176826 1_555
Mg0_1 Mg0_7 3.176826 1_445
Mg0_1 Mg0_3 3.176826 1_545
Mg0_1 Mg0_5 3.176826 1_455
Mg0_1 Mg0_5 3.176826 1_555
Mg0_2 Mg3_7 3.165279 1_454
Mg0_2 Mg1_0 3.165280 1_555
Mg0_2 Mg1_4 3.165280 1_455
Mg0_2 Mg3_3 3.165282 1_554
Mg0_2 Mg1_2 3.165284 1_555
Mg0_2 Mg3_5 3.165284 1_454
Mg0_2 Mg0_4 3.176826 1_455
Mg0_2 Mg0_4 3.176826 1_565
Mg0_2 Mg0_6 3.176826 1_455
Mg0_2 Mg0_6 3.176826 1_555
Mg0_3 Mg3_6 3.165279 1_455
Mg0_3 Mg1_1 3.165280 1_555
Mg0_3 Mg1_5 3.165280 1_455
Mg0_3 Mg3_2 3.165282 1_555
Mg0_3 Mg1_3 3.165284 1_555
Mg0_3 Mg3_4 3.165284 1_455
Mg0_3 Mg0_5 3.176826 1_455
Mg0_3 Mg0_5 3.176826 1_565
Mg0_3 Mg0_7 3.176826 1_555
Mg0_3 Mg0_7 3.176826 1_455
Mg0_4 Mg3_1 3.165279 1_554
Mg0_4 Mg1_6 3.165280 1_545
Mg0_4 Mg1_2 3.165280 1_545
Mg0_4 Mg3_5 3.165282 1_554
Mg0_4 Mg1_4 3.165284 1_555
Mg0_4 Mg3_3 3.165284 1_544
Mg0_4 Mg0_6 3.176826 1_555
Mg0_4 Mg0_6 3.176826 1_545
Mg0_5 Mg3_0 3.165279 1_555
Mg0_5 Mg1_7 3.165280 1_545
Mg0_5 Mg1_3 3.165280 1_545
Mg0_5 Mg3_4 3.165282 1_555
Mg0_5 Mg1_5 3.165284 1_555
Mg0_5 Mg3_2 3.165284 1_545
Mg0_5 Mg0_7 3.176826 1_555
Mg0_5 Mg0_7 3.176826 1_545
Mg0_6 Mg3_3 3.165279 1_554
Mg0_6 Mg1_4 3.165280 1_555
Mg0_6 Mg1_0 3.165280 1_555
Mg0_6 Mg3_7 3.165282 1_554
Mg0_6 Mg1_6 3.165284 1_555
Mg0_6 Mg3_1 3.165284 1_554
Mg0_7 Mg3_2 3.165279 1_555
Mg0_7 Mg1_5 3.165280 1_555
Mg0_7 Mg1_1 3.165280 1_555
Mg0_7 Mg3_6 3.165282 1_555
Mg0_7 Mg1_7 3.165284 1_555
Mg0_7 Mg3_0 3.165284 1_555
Mg1_0 Mg2_2 3.165280 1_555
Mg1_0 Mg2_6 3.165280 1_555
Mg1_0 Mg2_0 3.165284 1_555
Mg1_0 Mg1_2 3.176826 1_555
Mg1_0 Mg1_6 3.176826 1_555
Mg1_0 Mg1_6 3.176826 1_445
Mg1_0 Mg1_2 3.176826 1_545
Mg1_0 Mg1_4 3.176826 1_455
Mg1_0 Mg1_4 3.176826 1_555
Mg1_1 Mg2_3 3.165280 1_555
Mg1_1 Mg2_7 3.165280 1_555
Mg1_1 Mg2_1 3.165284 1_555
Mg1_1 Mg1_3 3.176826 1_555
Mg1_1 Mg1_7 3.176826 1_445
Mg1_1 Mg1_7 3.176826 1_555
Mg1_1 Mg1_3 3.176826 1_545
Mg1_1 Mg1_5 3.176826 1_555
Mg1_1 Mg1_5 3.176826 1_455
Mg1_2 Mg2_0 3.165280 1_565
Mg1_2 Mg2_4 3.165280 1_565
Mg1_2 Mg2_2 3.165284 1_555
Mg1_2 Mg1_4 3.176826 1_565
Mg1_2 Mg1_4 3.176826 1_455
Mg1_2 Mg1_6 3.176826 1_455
Mg1_2 Mg1_6 3.176826 1_555
Mg1_3 Mg2_1 3.165280 1_565
Mg1_3 Mg2_5 3.165280 1_565
Mg1_3 Mg2_3 3.165284 1_555
Mg1_3 Mg1_5 3.176826 1_565
Mg1_3 Mg1_5 3.176826 1_455
Mg1_3 Mg1_7 3.176826 1_455
Mg1_3 Mg1_7 3.176826 1_555
Mg1_4 Mg2_6 3.165280 1_555
Mg1_4 Mg2_2 3.165280 1_655
Mg1_4 Mg2_4 3.165284 1_555
Mg1_4 Mg1_6 3.176826 1_555
Mg1_4 Mg1_6 3.176826 1_545
Mg1_5 Mg2_7 3.165280 1_555
Mg1_5 Mg2_3 3.165280 1_655
Mg1_5 Mg2_5 3.165284 1_555
Mg1_5 Mg1_7 3.176826 1_555
Mg1_5 Mg1_7 3.176826 1_545
Mg1_6 Mg2_4 3.165280 1_565
Mg1_6 Mg2_0 3.165280 1_665
Mg1_6 Mg2_6 3.165284 1_555
Mg1_7 Mg2_5 3.165280 1_565
Mg1_7 Mg2_1 3.165280 1_665
Mg1_7 Mg2_7 3.165284 1_555
Mg2_0 Mg3_4 3.165279 1_455
Mg2_0 Mg3_0 3.165282 1_555
Mg2_0 Mg3_6 3.165284 1_445
Mg2_0 Mg2_2 3.176826 1_555
Mg2_0 Mg2_6 3.176826 1_555
Mg2_0 Mg2_6 3.176826 1_445
Mg2_0 Mg2_2 3.176826 1_545
Mg2_0 Mg2_4 3.176826 1_555
Mg2_0 Mg2_4 3.176826 1_455
Mg2_1 Mg3_5 3.165279 1_455
Mg2_1 Mg3_1 3.165282 1_555
Mg2_1 Mg3_7 3.165284 1_445
Mg2_1 Mg2_7 3.176826 1_555
Mg2_1 Mg2_3 3.176826 1_555
Mg2_1 Mg2_7 3.176826 1_445
Mg2_1 Mg2_3 3.176826 1_545
Mg2_1 Mg2_5 3.176826 1_555
Mg2_1 Mg2_5 3.176826 1_455
Mg2_2 Mg3_6 3.165279 1_455
Mg2_2 Mg3_2 3.165282 1_555
Mg2_2 Mg3_4 3.165284 1_455
Mg2_2 Mg2_4 3.176826 1_455
Mg2_2 Mg2_4 3.176826 1_565
Mg2_2 Mg2_6 3.176826 1_455
Mg2_2 Mg2_6 3.176826 1_555
Mg2_3 Mg3_7 3.165279 1_455
Mg2_3 Mg3_3 3.165282 1_555
Mg2_3 Mg3_5 3.165284 1_455
Mg2_3 Mg2_5 3.176826 1_455
Mg2_3 Mg2_5 3.176826 1_565
Mg2_3 Mg2_7 3.176826 1_555
Mg2_3 Mg2_7 3.176826 1_455
Mg2_4 Mg3_0 3.165279 1_555
Mg2_4 Mg3_4 3.165282 1_555
Mg2_4 Mg3_2 3.165284 1_545
Mg2_4 Mg2_6 3.176826 1_555
Mg2_4 Mg2_6 3.176826 1_545
Mg2_5 Mg3_1 3.165279 1_555
Mg2_5 Mg3_5 3.165282 1_555
Mg2_5 Mg3_3 3.165284 1_545
Mg2_5 Mg2_7 3.176826 1_555
Mg2_5 Mg2_7 3.176826 1_545
Mg2_6 Mg3_2 3.165279 1_555
Mg2_6 Mg3_6 3.165282 1_555
Mg2_6 Mg3_0 3.165284 1_555
Mg2_7 Mg3_3 3.165279 1_555
Mg2_7 Mg3_7 3.165282 1_555
Mg2_7 Mg3_1 3.165284 1_555
Mg3_0 Mg3_2 3.176826 1_545
Mg3_0 Mg3_2 3.176826 1_555
Mg3_0 Mg3_6 3.176826 1_445
Mg3_0 Mg3_6 3.176826 1_555
Mg3_0 Mg3_4 3.176826 1_555
Mg3_0 Mg3_4 3.176826 1_455
Mg3_1 Mg3_3 3.176826 1_545
Mg3_1 Mg3_7 3.176826 1_555
Mg3_1 Mg3_3 3.176826 1_555
Mg3_1 Mg3_7 3.176826 1_445
Mg3_1 Mg3_5 3.176826 1_555
Mg3_1 Mg3_5 3.176826 1_455
Mg3_2 Mg3_4 3.176826 1_455
Mg3_2 Mg3_4 3.176826 1_565
Mg3_2 Mg3_6 3.176826 1_455
Mg3_2 Mg3_6 3.176826 1_555
Mg3_3 Mg3_5 3.176826 1_455
Mg3_3 Mg3_5 3.176826 1_565
Mg3_3 Mg3_7 3.176826 1_455
Mg3_3 Mg3_7 3.176826 1_555
Mg3_4 Mg3_6 3.176826 1_555
Mg3_4 Mg3_6 3.176826 1_545
Mg3_5 Mg3_7 3.176826 1_545
Mg3_5 Mg3_7 3.176826 1_555
