# generated using pymatgen
data_Ge3Rh
_symmetry_space_group_name_H-M   'P 1'
_cell_length_a   4.79380724
_cell_length_b   4.79380724
_cell_length_c   4.79380724
_cell_angle_alpha   127.43831010
_cell_angle_beta   127.43831010
_cell_angle_gamma   77.53672691
_symmetry_Int_Tables_number   1
_chemical_formula_structural   Ge3Rh
_chemical_formula_sum   'Ge3 Rh1'
_cell_volume   67.35648996
_cell_formula_units_Z   1
loop_
 _symmetry_equiv_pos_site_id
 _symmetry_equiv_pos_as_xyz
  1  'x, y, z'
loop_
 _atom_site_type_symbol
 _atom_site_label
 _atom_site_symmetry_multiplicity
 _atom_site_fract_x
 _atom_site_fract_y
 _atom_site_fract_z
 _atom_site_occupancy
  Ge  Ge0  1  0.75000000  0.25000000  0.50000000  1
  Ge  Ge1  1  0.25000000  0.75000000  0.50000000  1
  Ge  Ge2  1  0.50000000  0.50000000  0.00000000  1
  Rh  Rh0  1  0.00000000  0.00000000  0.00000000  1
loop_
_geom_bond_atom_site_label_1
_geom_bond_atom_site_label_2
_geom_bond_distance
_geom_bond_site_symmetry_2
Ge0 Rh0 2.828035 1_666
Ge0 Ge2 2.828035 1_545
Ge0 Ge2 2.828035 1_656
Ge0 Rh0 2.828035 1_555
Ge0 Rh0 2.828035 1_656
Ge0 Rh0 2.828035 1_655
Ge0 Ge2 2.828035 1_555
Ge0 Ge2 2.828035 1_556
Ge0 Ge1 3.001755 1_544
Ge0 Ge1 3.001755 1_555
Ge0 Ge1 3.001755 1_656
Ge0 Ge1 3.001755 1_645
Ge1 Rh0 2.828035 1_666
Ge1 Rh0 2.828035 1_555
Ge1 Ge2 2.828035 1_455
Ge1 Ge2 2.828035 1_555
Ge1 Ge2 2.828035 1_566
Ge1 Rh0 2.828035 1_565
Ge1 Ge2 2.828035 1_556
Ge1 Rh0 2.828035 1_566
Ge2 Rh0 3.001755 1_655
Ge2 Rh0 3.001755 1_565
Ge2 Rh0 3.001755 1_666
Ge2 Rh0 3.001755 1_554
