# generated using pymatgen
data_CsSrCl3
_symmetry_space_group_name_H-M   'P 1'
_cell_length_a   7.92629718
_cell_length_b   7.92629661
_cell_length_c   7.92629711
_cell_angle_alpha   60.99453390
_cell_angle_beta   60.99453159
_cell_angle_gamma   60.99453646
_symmetry_Int_Tables_number   1
_chemical_formula_structural   CsSrCl3
_chemical_formula_sum   'Cs2 Sr2 Cl6'
_cell_volume   360.01281334
_cell_formula_units_Z   2
loop_
 _symmetry_equiv_pos_site_id
 _symmetry_equiv_pos_as_xyz
  1  'x, y, z'
loop_
 _atom_site_type_symbol
 _atom_site_label
 _atom_site_symmetry_multiplicity
 _atom_site_fract_x
 _atom_site_fract_y
 _atom_site_fract_z
 _atom_site_occupancy
  Cs  Cs0  1  0.26031232  0.26031232  0.26031232  1
  Cs  Cs1  1  0.76031232  0.76031232  0.76031232  1
  Sr  Sr0  1  0.00569168  0.00569168  0.00569168  1
  Sr  Sr1  1  0.50569168  0.50569168  0.50569168  1
  Cl  Cl0  1  0.25180045  0.81302221  0.69767333  1
  Cl  Cl1  1  0.81302221  0.69767333  0.25180045  1
  Cl  Cl2  1  0.69767333  0.25180045  0.81302221  1
  Cl  Cl3  1  0.19767333  0.31302221  0.75180045  1
  Cl  Cl4  1  0.75180045  0.19767333  0.31302221  1
  Cl  Cl5  1  0.31302221  0.75180045  0.19767333  1
loop_
_geom_bond_atom_site_label_1
_geom_bond_atom_site_label_2
_geom_bond_distance
_geom_bond_site_symmetry_2
Cl0 Sr1 2.858396 1_555
Cl0 Sr0 2.864657 1_566
Cl0 Cs0 3.560583 1_565
Cl0 Cs1 3.885729 1_455
Cl0 Cs1 4.095533 1_555
Cl1 Sr1 2.858396 1_555
Cl1 Sr0 2.864656 1_665
Cl1 Cs0 3.560583 1_655
Cl1 Cs1 3.885729 1_554
Cl1 Cs1 4.095533 1_555
Cl2 Sr1 2.858397 1_555
Cl2 Sr0 2.864657 1_656
Cl2 Cs0 3.560583 1_556
Cl2 Cs1 3.885729 1_545
Cl2 Cs1 4.095533 1_555
Cl3 Sr0 2.858396 1_556
Cl3 Sr1 2.864656 1_555
Cl3 Cs1 3.560583 1_455
Cl3 Cs0 3.885729 1_555
Cl3 Cs0 4.095533 1_556
Cl4 Sr0 2.858396 1_655
Cl4 Sr1 2.864657 1_555
Cl4 Cs1 3.560583 1_545
Cl4 Cs0 3.885730 1_555
Cl4 Cs0 4.095533 1_655
Cl5 Sr0 2.858397 1_565
Cl5 Sr1 2.864657 1_555
Cl5 Cs1 3.560583 1_554
Cl5 Cs0 3.885729 1_555
Cl5 Cs0 4.095533 1_565
