# generated using pymatgen
data_TiRu3
_symmetry_space_group_name_H-M   'P 1'
_cell_length_a   3.85958400
_cell_length_b   3.85958400
_cell_length_c   3.85958400
_cell_angle_alpha   90.00000000
_cell_angle_beta   90.00000000
_cell_angle_gamma   90.00000000
_symmetry_Int_Tables_number   1
_chemical_formula_structural   TiRu3
_chemical_formula_sum   'Ti1 Ru3'
_cell_volume   57.49386330
_cell_formula_units_Z   1
loop_
 _symmetry_equiv_pos_site_id
 _symmetry_equiv_pos_as_xyz
  1  'x, y, z'
loop_
 _atom_site_type_symbol
 _atom_site_label
 _atom_site_symmetry_multiplicity
 _atom_site_fract_x
 _atom_site_fract_y
 _atom_site_fract_z
 _atom_site_occupancy
  Ti  Ti0  1  0.00000000  0.00000000  0.00000000  1
  Ru  Ru0  1  0.50000000  0.50000000  0.00000000  1
  Ru  Ru1  1  0.50000000  0.00000000  0.50000000  1
  Ru  Ru2  1  0.00000000  0.50000000  0.50000000  1
loop_
_geom_bond_atom_site_label_1
_geom_bond_atom_site_label_2
_geom_bond_distance
_geom_bond_site_symmetry_2
Ru0 Ti0 2.729138 1_555
Ru0 Ru1 2.729138 1_555
Ru0 Ru1 2.729138 1_565
Ru0 Ru1 2.729138 1_564
Ru0 Ti0 2.729138 1_565
Ru0 Ti0 2.729138 1_655
Ru0 Ti0 2.729138 1_665
Ru0 Ru1 2.729138 1_554
Ru0 Ru2 2.729138 1_555
Ru0 Ru2 2.729138 1_654
Ru0 Ru2 2.729138 1_554
Ru0 Ru2 2.729138 1_655
Ru1 Ti0 2.729138 1_555
Ru1 Ti0 2.729138 1_656
Ru1 Ti0 2.729138 1_655
Ru1 Ru2 2.729138 1_555
Ru1 Ru2 2.729138 1_545
Ru1 Ru2 2.729138 1_645
Ru1 Ti0 2.729138 1_556
Ru1 Ru2 2.729138 1_655
Ru2 Ti0 2.729138 1_555
Ru2 Ti0 2.729138 1_566
Ru2 Ti0 2.729138 1_565
Ru2 Ti0 2.729138 1_556
