# generated using pymatgen
data_Ni(BMo)2
_symmetry_space_group_name_H-M   'P 1'
_cell_length_a   4.49647402
_cell_length_b   4.49647402
_cell_length_c   4.49647402
_cell_angle_alpha   138.60444562
_cell_angle_beta   119.31116037
_cell_angle_gamma   76.13029839
_symmetry_Int_Tables_number   1
_chemical_formula_structural   Ni(BMo)2
_chemical_formula_sum   'Ni1 B2 Mo2'
_cell_volume   51.12068642
_cell_formula_units_Z   1
loop_
 _symmetry_equiv_pos_site_id
 _symmetry_equiv_pos_as_xyz
  1  'x, y, z'
loop_
 _atom_site_type_symbol
 _atom_site_label
 _atom_site_symmetry_multiplicity
 _atom_site_fract_x
 _atom_site_fract_y
 _atom_site_fract_z
 _atom_site_occupancy
  Ni  Ni0  1  0.00000000  0.00000000  -0.00000000  1
  B  B0  1  0.70283149  0.50000000  0.20283149  1
  B  B1  1  0.29716851  0.50000000  0.79716751  1
  Mo  Mo0  1  0.69947462  0.19947462  0.50000000  1
  Mo  Mo1  1  0.30052538  0.80052538  0.50000000  1
loop_
_geom_bond_atom_site_label_1
_geom_bond_atom_site_label_2
_geom_bond_distance
_geom_bond_site_symmetry_2
B0 B1 1.843014 1_554
B0 Ni0 2.085284 1_666
B0 Ni0 2.085284 1_655
B0 Mo0 2.317215 1_565
B0 Mo1 2.317215 1_544
B0 Mo1 2.317215 1_555
B0 Mo0 2.317215 1_554
B0 Mo0 2.519973 1_555
B0 Mo1 2.519973 1_655
B1 Ni0 2.085281 1_555
B1 Ni0 2.085284 1_566
B1 Mo0 2.317213 1_555
B1 Mo0 2.317215 1_566
B1 Mo1 2.317217 1_545
B1 Mo1 2.317220 1_556
B1 Mo1 2.519969 1_555
B1 Mo0 2.519975 1_455
Mo0 Ni0 2.655775 1_655
Mo0 Ni0 2.655775 1_666
Mo0 Ni0 2.674857 1_555
Mo0 Ni0 2.674857 1_656
Mo1 Ni0 2.655775 1_555
Mo1 Ni0 2.655775 1_566
Mo1 Ni0 2.674857 1_666
Mo1 Ni0 2.674857 1_565
