# generated using pymatgen
data_LuMg3
_symmetry_space_group_name_H-M   'P 1'
_cell_length_a   6.55262967
_cell_length_b   6.55262993
_cell_length_c   5.16998467
_cell_angle_alpha   90.00001029
_cell_angle_beta   89.99998875
_cell_angle_gamma   120.00370310
_symmetry_Int_Tables_number   1
_chemical_formula_structural   LuMg3
_chemical_formula_sum   'Lu2 Mg6'
_cell_volume   192.23609945
_cell_formula_units_Z   2
loop_
 _symmetry_equiv_pos_site_id
 _symmetry_equiv_pos_as_xyz
  1  'x, y, z'
loop_
 _atom_site_type_symbol
 _atom_site_label
 _atom_site_symmetry_multiplicity
 _atom_site_fract_x
 _atom_site_fract_y
 _atom_site_fract_z
 _atom_site_occupancy
  Lu  Lu0  1  0.66666352  0.33333619  0.25000368  1
  Lu  Lu1  1  0.33333677  0.66666453  0.74999513  1
  Mg  Mg0  1  0.16450353  0.32905101  0.24999544  1
  Mg  Mg1  1  0.16455389  0.83544796  0.24999545  1
  Mg  Mg2  1  0.67095017  0.83549715  0.24999509  1
  Mg  Mg3  1  0.32904897  0.16450354  0.75000387  1
  Mg  Mg4  1  0.83544720  0.16455326  0.75000365  1
  Mg  Mg5  1  0.83549695  0.67094834  0.75000369  1
loop_
_geom_bond_atom_site_label_1
_geom_bond_atom_site_label_2
_geom_bond_distance
_geom_bond_site_symmetry_2
Lu0 Mg4 3.217431 1_554
Lu0 Mg4 3.217431 1_555
Lu0 Mg5 3.217521 1_555
Lu0 Mg5 3.217521 1_554
Lu0 Mg3 3.217528 1_554
Lu0 Mg3 3.217530 1_555
Lu0 Mg1 3.276212 1_545
Lu0 Mg1 3.276226 1_655
Lu0 Mg2 3.276291 1_545
Lu0 Mg0 3.276293 1_655
Lu0 Mg0 3.276518 1_555
Lu0 Mg2 3.276519 1_555
Lu1 Mg1 3.217429 1_555
Lu1 Mg1 3.217431 1_556
Lu1 Mg0 3.217524 1_555
Lu1 Mg2 3.217525 1_555
Lu1 Mg2 3.217525 1_556
Lu1 Mg0 3.217527 1_556
Lu1 Mg4 3.276216 1_565
Lu1 Mg4 3.276222 1_455
Lu1 Mg5 3.276287 1_455
Lu1 Mg3 3.276295 1_565
Lu1 Mg3 3.276516 1_555
Lu1 Mg5 3.276523 1_555
Mg0 Mg4 3.188817 1_454
Mg0 Mg4 3.188886 1_455
Mg0 Mg3 3.188999 1_554
Mg0 Mg3 3.189070 1_555
Mg0 Mg2 3.233893 1_445
Mg0 Mg1 3.234563 1_545
Mg0 Mg1 3.318067 1_555
Mg0 Mg2 3.318370 1_555
Mg1 Mg3 3.188814 1_564
Mg1 Mg5 3.188819 1_454
Mg1 Mg3 3.188884 1_565
Mg1 Mg5 3.188888 1_455
Mg1 Mg2 3.234564 1_455
Mg1 Mg2 3.318066 1_555
Mg2 Mg4 3.188815 1_564
Mg2 Mg4 3.188886 1_565
Mg2 Mg5 3.189007 1_554
Mg2 Mg5 3.189079 1_555
Mg3 Mg5 3.233893 1_445
Mg3 Mg4 3.234553 1_455
Mg3 Mg4 3.318077 1_555
Mg3 Mg5 3.318370 1_555
Mg4 Mg5 3.234573 1_545
Mg4 Mg5 3.318057 1_555
