# generated using pymatgen
data_NaSmTe2
_symmetry_space_group_name_H-M   'P 1'
_cell_length_a   4.49432513
_cell_length_b   4.49432644
_cell_length_c   7.93374007
_cell_angle_alpha   73.54624596
_cell_angle_beta   73.54624758
_cell_angle_gamma   59.99999038
_symmetry_Int_Tables_number   1
_chemical_formula_structural   NaSmTe2
_chemical_formula_sum   'Na1 Sm1 Te2'
_cell_volume   131.15090272
_cell_formula_units_Z   1
loop_
 _symmetry_equiv_pos_site_id
 _symmetry_equiv_pos_as_xyz
  1  'x, y, z'
loop_
 _atom_site_type_symbol
 _atom_site_label
 _atom_site_symmetry_multiplicity
 _atom_site_fract_x
 _atom_site_fract_y
 _atom_site_fract_z
 _atom_site_occupancy
  Na  Na0  1  -0.00000000  -0.00000000  0.00000000  1
  Sm  Sm0  1  0.50000000  0.50000000  0.50000000  1
  Te  Te0  1  0.75393206  0.75393206  0.73820183  1
  Te  Te1  1  0.24606794  0.24606794  0.26179817  1
loop_
_geom_bond_atom_site_label_1
_geom_bond_atom_site_label_2
_geom_bond_distance
_geom_bond_site_symmetry_2
Na0 Te0 3.253551 1_544
Na0 Te1 3.253551 1_455
Na0 Te1 3.253551 1_545
Na0 Te0 3.253551 1_454
Na0 Te0 3.253558 1_444
Na0 Te1 3.253558 1_555
Sm0 Te1 3.149983 1_555
Sm0 Te0 3.149983 1_555
Sm0 Te0 3.149989 1_455
Sm0 Te1 3.149989 1_655
Sm0 Te0 3.149990 1_545
Sm0 Te1 3.149990 1_565
