# generated using pymatgen
data_TbY3
_symmetry_space_group_name_H-M   'P 1'
_cell_length_a   6.20954657
_cell_length_b   6.20954657
_cell_length_c   6.20954657
_cell_angle_alpha   131.44962449
_cell_angle_beta   131.44962449
_cell_angle_gamma   71.09968661
_symmetry_Int_Tables_number   1
_chemical_formula_structural   TbY3
_chemical_formula_sum   'Tb1 Y3'
_cell_volume   131.70200525
_cell_formula_units_Z   1
loop_
 _symmetry_equiv_pos_site_id
 _symmetry_equiv_pos_as_xyz
  1  'x, y, z'
loop_
 _atom_site_type_symbol
 _atom_site_label
 _atom_site_symmetry_multiplicity
 _atom_site_fract_x
 _atom_site_fract_y
 _atom_site_fract_z
 _atom_site_occupancy
  Tb  Tb0  1  0.00000000  0.00000000  0.00000000  1
  Y  Y0  1  0.75000100  0.25000100  0.50000000  1
  Y  Y1  1  0.25000100  0.75000100  0.50000000  1
  Y  Y2  1  0.50000000  0.50000000  0.00000000  1
loop_
_geom_bond_atom_site_label_1
_geom_bond_atom_site_label_2
_geom_bond_distance
_geom_bond_site_symmetry_2
Tb0 Y0 3.591397 1_444
Tb0 Y1 3.591397 1_444
Tb0 Y0 3.591397 1_455
Tb0 Y1 3.591397 1_545
Tb0 Y0 3.591411 1_555
Tb0 Y1 3.591411 1_555
Tb0 Y0 3.591411 1_454
Tb0 Y1 3.591411 1_544
Tb0 Y2 3.610298 1_455
Tb0 Y2 3.610298 1_556
Tb0 Y2 3.610298 1_545
Tb0 Y2 3.610298 1_444
Y0 Y2 3.591397 1_555
Y0 Y2 3.591397 1_656
Y0 Y2 3.591411 1_556
Y0 Y2 3.591411 1_545
Y0 Y1 3.610298 1_555
Y0 Y1 3.610298 1_544
Y0 Y1 3.610298 1_656
Y0 Y1 3.610298 1_645
Y1 Y2 3.591397 1_555
Y1 Y2 3.591397 1_566
Y1 Y2 3.591411 1_556
Y1 Y2 3.591411 1_455
