# generated using pymatgen
data_YB4Os
_symmetry_space_group_name_H-M   'P 1'
_cell_length_a   3.56753801
_cell_length_b   5.96322443
_cell_length_c   11.53651825
_cell_angle_alpha   90.00000000
_cell_angle_beta   90.00000000
_cell_angle_gamma   90.00000000
_symmetry_Int_Tables_number   1
_chemical_formula_structural   YB4Os
_chemical_formula_sum   'Y4 B16 Os4'
_cell_volume   245.42823323
_cell_formula_units_Z   4
loop_
 _symmetry_equiv_pos_site_id
 _symmetry_equiv_pos_as_xyz
  1  'x, y, z'
loop_
 _atom_site_type_symbol
 _atom_site_label
 _atom_site_symmetry_multiplicity
 _atom_site_fract_x
 _atom_site_fract_y
 _atom_site_fract_z
 _atom_site_occupancy
  Y  Y0  1  -0.00000000  0.62820251  0.65003233  1
  Y  Y1  1  -0.00000000  0.37179749  0.34996767  1
  Y  Y2  1  -0.00000000  0.12820251  0.84996767  1
  Y  Y3  1  -0.00000000  0.87179749  0.15003233  1
  B  B0  1  0.50000000  0.97495496  0.69107687  1
  B  B1  1  0.50000000  0.02504504  0.30892313  1
  B  B2  1  0.50000000  0.47495496  0.80892313  1
  B  B3  1  0.50000000  0.52504504  0.19107687  1
  B  B4  1  0.50000000  0.78862320  0.81446860  1
  B  B5  1  0.50000000  0.21137680  0.18553140  1
  B  B6  1  0.50000000  0.28862320  0.68553140  1
  B  B7  1  0.50000000  0.71137680  0.31446860  1
  B  B8  1  0.50000000  0.86305458  0.96995710  1
  B  B9  1  0.50000000  0.13694542  0.03004290  1
  B  B10  1  0.50000000  0.36305458  0.53004290  1
  B  B11  1  0.50000000  0.63694542  0.46995710  1
  B  B12  1  0.50000000  0.88781205  0.54661272  1
  B  B13  1  0.50000000  0.11218795  0.45338728  1
  B  B14  1  0.50000000  0.38781205  0.95338728  1
  B  B15  1  0.50000000  0.61218795  0.04661272  1
  Os  Os0  1  0.00000000  0.64092166  0.90642533  1
  Os  Os1  1  0.00000000  0.35907834  0.09357467  1
  Os  Os2  1  -0.00000000  0.14092166  0.59357467  1
  Os  Os3  1  -0.00000000  0.85907834  0.40642533  1
loop_
_geom_bond_atom_site_label_1
_geom_bond_atom_site_label_2
_geom_bond_distance
_geom_bond_site_symmetry_2
B0 B12 1.745749 1_555
B0 B4 1.805827 1_555
B0 B6 1.871568 1_565
B0 Os2 2.329504 1_565
B0 Os2 2.329504 1_665
B0 Y2 2.716066 1_565
B0 Y2 2.716066 1_665
B0 Y0 2.771586 1_655
B0 Y0 2.771586 1_555
B1 B13 1.745749 1_555
B1 B5 1.805827 1_555
B1 B7 1.871568 1_545
B1 Os3 2.329504 1_645
B1 Os3 2.329504 1_545
B1 Y3 2.716066 1_645
B1 Y3 2.716066 1_545
B1 Y1 2.771586 1_555
B1 Y1 2.771586 1_655
B2 B6 1.805827 1_555
B2 B4 1.871568 1_555
B2 Os0 2.329504 1_655
B2 Os0 2.329504 1_555
B2 Y0 2.716066 1_555
B2 Y0 2.716066 1_655
B2 Y2 2.771586 1_555
B2 Y2 2.771586 1_655
B3 B7 1.805827 1_555
B3 B5 1.871568 1_555
B3 Os1 2.329504 1_655
B3 Os1 2.329504 1_555
B3 Y1 2.716066 1_655
B3 Y1 2.716066 1_555
B3 Y3 2.771586 1_655
B3 Y3 2.771586 1_555
B4 B8 1.847893 1_555
B4 Os0 2.254557 1_555
B4 Os0 2.254557 1_655
B4 Y2 2.729492 1_565
B4 Y2 2.729492 1_665
B4 Y0 2.774104 1_655
B4 Y0 2.774104 1_555
B5 B9 1.847893 1_555
B5 Os1 2.254557 1_655
B5 Os1 2.254557 1_555
B5 Y3 2.729492 1_645
B5 Y3 2.729492 1_545
B5 Y1 2.774104 1_555
B5 Y1 2.774104 1_655
B6 Os2 2.254557 1_655
B6 Os2 2.254557 1_555
B6 Y0 2.729492 1_555
B6 Y0 2.729492 1_655
B6 Y2 2.774104 1_655
B6 Y2 2.774104 1_555
B7 Os3 2.254557 1_555
B7 Os3 2.254557 1_655
B7 Y1 2.729492 1_555
B7 Y1 2.729492 1_655
B7 Y3 2.774104 1_555
B7 Y3 2.774104 1_655
B8 B9 1.774283 1_566
B8 Os0 2.339587 1_655
B8 Os0 2.339587 1_555
B8 Y3 2.738670 1_556
B8 Y3 2.738670 1_656
B8 Y2 2.756447 1_565
B8 Y2 2.756447 1_665
B9 Os1 2.339587 1_555
B9 Os1 2.339587 1_655
B9 Y2 2.738670 1_654
B9 Y2 2.738670 1_554
B9 Y3 2.756447 1_645
B9 Y3 2.756447 1_545
B10 B13 1.737813 1_555
B10 B11 1.774283 1_555
B10 B6 1.847893 1_555
B10 Os2 2.339587 1_655
B10 Os2 2.339587 1_555
B10 Y1 2.738670 1_555
B10 Y1 2.738670 1_655
B10 Y0 2.756447 1_655
B10 Y0 2.756447 1_555
B11 B12 1.737813 1_555
B11 B7 1.847893 1_555
B11 Os3 2.339587 1_555
B11 Os3 2.339587 1_655
B11 Y0 2.738670 1_655
B11 Y0 2.738670 1_555
B11 Y1 2.756447 1_555
B11 Y1 2.756447 1_655
B12 B13 1.716668 1_565
B12 Os2 2.398643 1_665
B12 Os2 2.398643 1_565
B12 Os3 2.413870 1_655
B12 Os3 2.413870 1_555
B12 Y0 2.646123 1_555
B12 Y0 2.646123 1_655
B13 Os3 2.398643 1_645
B13 Os3 2.398643 1_545
B13 Os2 2.413870 1_655
B13 Os2 2.413870 1_555
B13 Y1 2.646123 1_555
B13 Y1 2.646123 1_655
B14 B15 1.716668 1_556
B14 B9 1.737813 1_556
B14 B2 1.745749 1_555
B14 Os0 2.398643 1_555
B14 Os0 2.398643 1_655
B14 Os1 2.413870 1_556
B14 Os1 2.413870 1_656
B14 Y2 2.646123 1_555
B14 Y2 2.646123 1_655
B15 B8 1.737813 1_554
B15 B3 1.745749 1_555
B15 Os1 2.398643 1_555
B15 Os1 2.398643 1_655
B15 Os0 2.413870 1_654
B15 Os0 2.413870 1_554
B15 Y3 2.646123 1_555
B15 Y3 2.646123 1_655
Os0 Os1 2.736099 1_556
Os0 Y0 2.958855 1_555
Os0 Y2 2.977867 1_565
Os0 Y2 3.126065 1_555
Os0 Y3 3.129488 1_556
Os1 Y1 2.958855 1_555
Os1 Y3 2.977867 1_545
Os1 Y3 3.126065 1_555
Os1 Y2 3.129488 1_554
Os2 Os3 2.736099 1_545
Os2 Y2 2.958855 1_555
Os2 Y0 2.977867 1_555
Os2 Y0 3.126065 1_545
Os2 Y1 3.129488 1_555
Os3 Y3 2.958855 1_555
Os3 Y1 2.977867 1_555
Os3 Y1 3.126065 1_565
Os3 Y0 3.129488 1_555
