# generated using pymatgen
data_SmLuIn2
_symmetry_space_group_name_H-M   'P 1'
_cell_length_a   5.29506531
_cell_length_b   5.29506526
_cell_length_c   5.29506494
_cell_angle_alpha   59.99994597
_cell_angle_beta   59.99995322
_cell_angle_gamma   59.99993577
_symmetry_Int_Tables_number   1
_chemical_formula_structural   SmLuIn2
_chemical_formula_sum   'Sm1 Lu1 In2'
_cell_volume   104.97802292
_cell_formula_units_Z   1
loop_
 _symmetry_equiv_pos_site_id
 _symmetry_equiv_pos_as_xyz
  1  'x, y, z'
loop_
 _atom_site_type_symbol
 _atom_site_label
 _atom_site_symmetry_multiplicity
 _atom_site_fract_x
 _atom_site_fract_y
 _atom_site_fract_z
 _atom_site_occupancy
  Sm  Sm0  1  0.74999937  0.74999938  0.74999937  1
  Lu  Lu0  1  0.24999998  0.24999998  0.25000000  1
  In  In0  1  -0.00000001  -0.00000002  -0.00000002  1
  In  In1  1  0.50000066  0.50000067  0.50000065  1
loop_
_geom_bond_atom_site_label_1
_geom_bond_atom_site_label_2
_geom_bond_distance
_geom_bond_site_symmetry_2
In0 Sm0 3.242547 1_454
In0 Sm0 3.242547 1_544
In0 Sm0 3.242547 1_445
In0 Lu0 3.242549 1_545
In0 Lu0 3.242550 1_554
In0 Lu0 3.242550 1_455
In0 Lu0 3.242553 1_555
In0 Sm0 3.242561 1_444
In1 Sm0 3.242537 1_555
In1 Lu0 3.242547 1_565
In1 Lu0 3.242547 1_655
In1 Lu0 3.242547 1_556
In1 Sm0 3.242555 1_545
In1 Sm0 3.242555 1_455
In1 Sm0 3.242555 1_554
In1 Lu0 3.242562 1_555
