# generated using pymatgen
data_BaAl2B2O7
_symmetry_space_group_name_H-M   'P 1'
_cell_length_a   8.80915380
_cell_length_b   8.80915380
_cell_length_c   8.80915397
_cell_angle_alpha   33.34059099
_cell_angle_beta   33.34059099
_cell_angle_gamma   33.34058731
_symmetry_Int_Tables_number   1
_chemical_formula_structural   BaAl2B2O7
_chemical_formula_sum   'Ba1 Al2 B2 O7'
_cell_volume   183.86878729
_cell_formula_units_Z   1
loop_
 _symmetry_equiv_pos_site_id
 _symmetry_equiv_pos_as_xyz
  1  'x, y, z'
loop_
 _atom_site_type_symbol
 _atom_site_label
 _atom_site_symmetry_multiplicity
 _atom_site_fract_x
 _atom_site_fract_y
 _atom_site_fract_z
 _atom_site_occupancy
  Ba  Ba0  1  0.00000000  0.00000000  0.00000000  1
  Al  Al0  1  0.56782500  0.56782500  0.56782500  1
  Al  Al1  1  0.43217500  0.43217500  0.43217500  1
  B  B0  1  0.73777500  0.73777500  0.73777500  1
  B  B1  1  0.26222500  0.26222500  0.26222500  1
  O  O0  1  0.95940800  0.48373800  0.35231600  1
  O  O1  1  0.48373800  0.35231600  0.95940800  1
  O  O2  1  0.35231600  0.95940800  0.48373800  1
  O  O3  1  0.50000000  0.50000000  0.50000000  1
  O  O4  1  0.51626200  0.04059200  0.64768400  1
  O  O5  1  0.04059200  0.64768400  0.51626200  1
  O  O6  1  0.64768400  0.51626200  0.04059200  1
loop_
_geom_bond_atom_site_label_1
_geom_bond_atom_site_label_2
_geom_bond_distance
_geom_bond_site_symmetry_2
Ba0 O1 2.778948 1_454
Ba0 O6 2.778948 1_455
Ba0 O4 2.778949 1_554
Ba0 O0 2.778949 1_445
Ba0 O2 2.778949 1_544
Ba0 O5 2.778949 1_545
Al0 O3 1.691252 1_555
Al0 O2 1.786175 1_555
Al0 O0 1.786175 1_555
Al0 O1 1.786175 1_555
Al1 O3 1.691252 1_555
Al1 O5 1.786175 1_555
Al1 O4 1.786175 1_555
Al1 O6 1.786175 1_555
B0 O4 1.380759 1_565
B0 O5 1.380759 1_655
B0 O6 1.380759 1_556
B1 O0 1.380759 1_455
B1 O2 1.380759 1_545
B1 O1 1.380759 1_554
