# generated using pymatgen
data_LiVP2(HO4)2
_symmetry_space_group_name_H-M   'P 1'
_cell_length_a   8.05965859
_cell_length_b   8.05965859
_cell_length_c   18.53777232
_cell_angle_alpha   77.55359985
_cell_angle_beta   77.55359985
_cell_angle_gamma   59.96632584
_symmetry_Int_Tables_number   1
_chemical_formula_structural   LiVP2(HO4)2
_chemical_formula_sum   'Li6 V6 P12 H12 O48'
_cell_volume   1009.70670026
_cell_formula_units_Z   6
loop_
 _symmetry_equiv_pos_site_id
 _symmetry_equiv_pos_as_xyz
  1  'x, y, z'
loop_
 _atom_site_type_symbol
 _atom_site_label
 _atom_site_symmetry_multiplicity
 _atom_site_fract_x
 _atom_site_fract_y
 _atom_site_fract_z
 _atom_site_occupancy
  Li  Li0  1  0.74455800  0.25544200  0.75000000  1
  Li  Li1  1  0.80449300  0.30201600  0.58418200  1
  Li  Li2  1  0.30201600  0.80449300  0.08418200  1
  Li  Li3  1  0.69798400  0.19550700  0.91581800  1
  Li  Li4  1  0.19550700  0.69798400  0.41581800  1
  Li  Li5  1  0.25544200  0.74455800  0.25000000  1
  V  V0  1  0.00000000  0.50000000  0.00000000  1
  V  V1  1  0.91311600  0.41060900  0.26033400  1
  V  V2  1  0.58939100  0.08688400  0.23966600  1
  V  V3  1  0.50000000  0.00000000  0.50000000  1
  V  V4  1  0.41060900  0.91311600  0.76033400  1
  V  V5  1  0.08688400  0.58939100  0.73966600  1
  P  P0  1  0.07898000  0.24109900  0.86047400  1
  P  P1  1  0.18491700  0.25274700  0.63814100  1
  P  P2  1  0.25274700  0.18491700  0.13814100  1
  P  P3  1  0.24109900  0.07898000  0.36047400  1
  P  P4  1  0.68469100  0.41804100  0.13847900  1
  P  P5  1  0.58195900  0.31530900  0.36152100  1
  P  P6  1  0.41804100  0.68469100  0.63847900  1
  P  P7  1  0.31530900  0.58195900  0.86152100  1
  P  P8  1  0.75890100  0.92102000  0.63952600  1
  P  P9  1  0.74725300  0.81508300  0.86185900  1
  P  P10  1  0.81508300  0.74725300  0.36185900  1
  P  P11  1  0.92102000  0.75890100  0.13952600  1
  H  H0  1  0.43228900  0.40091100  0.64001200  1
  H  H1  1  0.90548400  0.52060200  0.63844500  1
  H  H2  1  0.40091100  0.43228900  0.14001200  1
  H  H3  1  0.06768700  0.97398100  0.85905900  1
  H  H4  1  0.02601900  0.93231300  0.64094100  1
  H  H5  1  0.47939800  0.09451600  0.86155500  1
  H  H6  1  0.52060200  0.90548400  0.13844500  1
  H  H7  1  0.93231300  0.02601900  0.14094100  1
  H  H8  1  0.97398100  0.06768700  0.35905900  1
  H  H9  1  0.59908900  0.56771100  0.85998800  1
  H  H10  1  0.09451600  0.47939800  0.36155500  1
  H  H11  1  0.56771100  0.59908900  0.35998800  1
  O  O0  1  0.30356300  0.47209900  0.80364200  1
  O  O1  1  0.54696300  0.46484700  0.86949500  1
  O  O2  1  0.53515300  0.45303700  0.63050500  1
  O  O3  1  0.97580300  0.41429400  0.80250800  1
  O  O4  1  0.95378900  0.38151600  0.62957200  1
  O  O5  1  0.61848400  0.04621100  0.87042800  1
  O  O6  1  0.05545400  0.29184800  0.93692800  1
  O  O7  1  0.11355500  0.29077100  0.33366400  1
  O  O8  1  0.24100800  0.38297500  0.66627400  1
  O  O9  1  0.96777700  0.11323100  0.86772500  1
  O  O10  1  0.88676900  0.03222300  0.63227500  1
  O  O11  1  0.20556600  0.28548100  0.06130400  1
  O  O12  1  0.28548100  0.20556600  0.56130400  1
  O  O13  1  0.19772100  0.07917500  0.69549400  1
  O  O14  1  0.92082500  0.80227900  0.80450600  1
  O  O15  1  0.38297500  0.24100800  0.16627400  1
  O  O16  1  0.29077100  0.11355500  0.83366400  1
  O  O17  1  0.47209900  0.30356300  0.30364200  1
  O  O18  1  0.29184800  0.05545400  0.43692800  1
  O  O19  1  0.78931000  0.43893300  0.06188400  1
  O  O20  1  0.56106700  0.21069000  0.43811600  1
  O  O21  1  0.41429400  0.97580300  0.30250800  1
  O  O22  1  0.25946500  0.79033300  0.83292300  1
  O  O23  1  0.20966700  0.74053500  0.66707700  1
  O  O24  1  0.79033300  0.25946500  0.33292300  1
  O  O25  1  0.74053500  0.20966700  0.16707700  1
  O  O26  1  0.58570600  0.02419700  0.69749200  1
  O  O27  1  0.43893300  0.78931000  0.56188400  1
  O  O28  1  0.21069000  0.56106700  0.93811600  1
  O  O29  1  0.70815200  0.94454600  0.56307200  1
  O  O30  1  0.52790100  0.69643700  0.69635800  1
  O  O31  1  0.70922900  0.88644500  0.16633600  1
  O  O32  1  0.61702500  0.75899200  0.83372600  1
  O  O33  1  0.80227900  0.92082500  0.30450600  1
  O  O34  1  0.07917500  0.19772100  0.19549400  1
  O  O35  1  0.71451900  0.79443400  0.43869600  1
  O  O36  1  0.79443400  0.71451900  0.93869600  1
  O  O37  1  0.11323100  0.96777700  0.36772500  1
  O  O38  1  0.03222300  0.88676900  0.13227500  1
  O  O39  1  0.75899200  0.61702500  0.33372600  1
  O  O40  1  0.88644500  0.70922900  0.66633600  1
  O  O41  1  0.94454600  0.70815200  0.06307200  1
  O  O42  1  0.04621100  0.61848400  0.37042800  1
  O  O43  1  0.38151600  0.95378900  0.12957200  1
  O  O44  1  0.02419700  0.58570600  0.19749200  1
  O  O45  1  0.45303700  0.53515300  0.13050500  1
  O  O46  1  0.46484700  0.54696300  0.36949500  1
  O  O47  1  0.69643700  0.52790100  0.19635800  1
loop_
_geom_bond_atom_site_label_1
_geom_bond_atom_site_label_2
_geom_bond_distance
_geom_bond_site_symmetry_2
Li1 O2 1.983266 1_555
Li1 O10 1.984584 1_555
Li1 O4 2.001756 1_555
Li2 O45 1.983266 1_555
Li2 O38 1.984584 1_555
Li2 O43 2.001756 1_555
Li3 O1 1.983266 1_555
Li3 O9 1.984584 1_555
Li3 O5 2.001756 1_555
Li4 O46 1.983266 1_555
Li4 O37 1.984584 1_555
Li4 O42 2.001756 1_555
H0 O2 1.071745 1_555
H0 O8 1.582356 1_555
H1 O4 1.024814 1_555
H1 O40 1.634991 1_555
H2 O45 1.071745 1_555
H2 O15 1.582356 1_555
H3 O9 1.025233 1_465
H3 O22 1.584558 1_555
H4 O10 1.025233 1_465
H4 O23 1.584558 1_555
H5 O5 1.024814 1_555
H5 O16 1.634991 1_555
H6 O43 1.024814 1_555
H6 O31 1.634991 1_555
H7 O38 1.025233 1_645
H7 O25 1.584558 1_555
H8 O37 1.025233 1_645
H8 O24 1.584558 1_555
H9 O1 1.071745 1_555
H9 O32 1.582356 1_555
H10 O42 1.024814 1_555
H10 O7 1.634991 1_555
H11 O46 1.071745 1_555
H11 O39 1.582356 1_555
O0 P7 1.575238 1_555
O0 V5 2.026544 1_555
O1 P7 1.641158 1_555
O2 P6 1.641158 1_555
O3 P0 1.539920 1_655
O3 V5 2.063171 1_655
O4 P1 1.641230 1_655
O5 P9 1.641230 1_545
O6 P0 1.506107 1_555
O6 V0 2.061788 1_556
O7 P3 1.521674 1_555
O7 V1 2.051651 1_455
O8 P1 1.546144 1_555
O8 V5 2.083331 1_555
O9 P0 1.642067 1_655
O10 P8 1.642067 1_545
O11 P2 1.502571 1_555
O11 V0 2.030504 1_555
O12 P1 1.502571 1_555
O12 V3 2.030504 1_555
O13 P1 1.536134 1_555
O13 V4 2.019118 1_545
O14 P9 1.536134 1_555
O14 V5 2.019118 1_655
O15 P2 1.546144 1_555
O15 V2 2.083331 1_555
O16 P0 1.521674 1_555
O16 V4 2.051651 1_545
O17 P5 1.575238 1_555
O17 V2 2.026544 1_555
O18 P3 1.506107 1_555
O18 V3 2.061788 1_555
O19 P4 1.509448 1_555
O19 V0 2.048249 1_655
O20 P5 1.509448 1_555
O20 V3 2.048249 1_555
O21 P3 1.539920 1_565
O21 V2 2.063171 1_565
O22 P7 1.505494 1_555
O22 V4 2.049412 1_555
O23 P6 1.505494 1_555
O23 V5 2.049412 1_555
O24 P5 1.505494 1_555
O24 V1 2.049412 1_555
O25 P4 1.505494 1_555
O25 V2 2.049412 1_555
O26 P8 1.539920 1_545
O26 V4 2.063171 1_545
O27 P6 1.509448 1_555
O27 V3 2.048249 1_565
O28 P7 1.509448 1_555
O28 V0 2.048249 1_556
O29 P8 1.506107 1_555
O29 V3 2.061788 1_565
O30 P6 1.575238 1_555
O30 V4 2.026544 1_555
O31 P11 1.521674 1_555
O31 V2 2.051651 1_565
O32 P9 1.546144 1_555
O32 V4 2.083331 1_555
O33 P10 1.536134 1_555
O33 V2 2.019118 1_565
O34 P2 1.536134 1_555
O34 V1 2.019118 1_455
O35 P10 1.502571 1_555
O35 V3 2.030504 1_565
O36 P9 1.502571 1_555
O36 V0 2.030504 1_656
O37 P3 1.642067 1_565
O38 P11 1.642067 1_455
O39 P10 1.546144 1_555
O39 V1 2.083331 1_555
O40 P8 1.521674 1_555
O40 V5 2.051651 1_655
O41 P11 1.506107 1_555
O41 V0 2.061788 1_655
O42 P10 1.641230 1_455
O43 P2 1.641230 1_565
O44 P11 1.539920 1_455
O44 V1 2.063171 1_455
O45 P4 1.641158 1_555
O46 P5 1.641158 1_555
O47 P4 1.575238 1_555
O47 V1 2.026544 1_555
