# generated using pymatgen
data_Hf3Ge2
_symmetry_space_group_name_H-M   'P 1'
_cell_length_a   7.10040584
_cell_length_b   7.10040584
_cell_length_c   3.70111906
_cell_angle_alpha   90.00000000
_cell_angle_beta   90.00000000
_cell_angle_gamma   90.00000000
_symmetry_Int_Tables_number   1
_chemical_formula_structural   Hf3Ge2
_chemical_formula_sum   'Hf6 Ge4'
_cell_volume   186.59474171
_cell_formula_units_Z   2
loop_
 _symmetry_equiv_pos_site_id
 _symmetry_equiv_pos_as_xyz
  1  'x, y, z'
loop_
 _atom_site_type_symbol
 _atom_site_label
 _atom_site_symmetry_multiplicity
 _atom_site_fract_x
 _atom_site_fract_y
 _atom_site_fract_z
 _atom_site_occupancy
  Hf  Hf0  1  0.00000000  0.00000000  -0.00000000  1
  Hf  Hf1  1  0.49999900  0.49999900  -0.00000000  1
  Hf  Hf2  1  0.17003912  0.67003812  0.50000000  1
  Hf  Hf3  1  0.82996088  0.32996188  0.50000000  1
  Hf  Hf4  1  0.67003812  0.82996088  0.50000000  1
  Hf  Hf5  1  0.32996188  0.17003912  0.50000000  1
  Ge  Ge0  1  0.63054377  0.13054377  -0.00000000  1
  Ge  Ge1  1  0.36945623  0.86945723  0.00000000  1
  Ge  Ge2  1  0.13054377  0.36945623  0.00000000  1
  Ge  Ge3  1  0.86945723  0.63054377  -0.00000000  1
loop_
_geom_bond_atom_site_label_1
_geom_bond_atom_site_label_2
_geom_bond_distance
_geom_bond_site_symmetry_2
Ge0 Ge1 2.621703 1_545
Ge0 Hf3 2.726605 1_554
Ge0 Hf3 2.726605 1_555
Ge0 Hf1 2.782228 1_555
Ge0 Hf0 2.782232 1_655
Ge0 Hf5 2.838706 1_554
Ge0 Hf5 2.838706 1_555
Ge0 Hf4 2.838710 1_544
Ge0 Hf4 2.838710 1_545
Ge1 Hf2 2.726609 1_555
Ge1 Hf2 2.726609 1_554
Ge1 Hf0 2.782230 1_565
Ge1 Hf1 2.782243 1_555
Ge1 Hf5 2.838705 1_565
Ge1 Hf5 2.838705 1_564
Ge1 Hf4 2.838707 1_555
Ge1 Hf4 2.838707 1_554
Ge2 Ge3 2.621703 1_455
Ge2 Hf5 2.726605 1_554
Ge2 Hf5 2.726605 1_555
Ge2 Hf1 2.782223 1_555
Ge2 Hf0 2.782232 1_555
Ge2 Hf2 2.838706 1_555
Ge2 Hf2 2.838706 1_554
Ge2 Hf3 2.838710 1_455
Ge2 Hf3 2.838710 1_454
Ge3 Hf4 2.726609 1_555
Ge3 Hf4 2.726609 1_554
Ge3 Hf0 2.782230 1_665
Ge3 Hf1 2.782248 1_555
Ge3 Hf2 2.838705 1_655
Ge3 Hf2 2.838705 1_654
Ge3 Hf3 2.838707 1_554
Ge3 Hf3 2.838707 1_555
