# generated using pymatgen
data_NaSnPd2
_symmetry_space_group_name_H-M   'P 1'
_cell_length_a   4.59582737
_cell_length_b   4.59582737
_cell_length_c   4.59582737
_cell_angle_alpha   59.99989831
_cell_angle_beta   59.99989831
_cell_angle_gamma   59.99989841
_symmetry_Int_Tables_number   1
_chemical_formula_structural   NaSnPd2
_chemical_formula_sum   'Na1 Sn1 Pd2'
_cell_volume   68.63965997
_cell_formula_units_Z   1
loop_
 _symmetry_equiv_pos_site_id
 _symmetry_equiv_pos_as_xyz
  1  'x, y, z'
loop_
 _atom_site_type_symbol
 _atom_site_label
 _atom_site_symmetry_multiplicity
 _atom_site_fract_x
 _atom_site_fract_y
 _atom_site_fract_z
 _atom_site_occupancy
  Na  Na0  1  0.25000077  0.25000078  0.25000077  1
  Sn  Sn0  1  0.75000003  0.75000003  0.75000003  1
  Pd  Pd0  1  -0.00000008  -0.00000009  -0.00000008  1
  Pd  Pd1  1  0.49999927  0.49999928  0.49999927  1
loop_
_geom_bond_atom_site_label_1
_geom_bond_atom_site_label_2
_geom_bond_distance
_geom_bond_site_symmetry_2
Na0 Pd1 2.814343 1_555
Na0 Pd0 2.814351 1_565
Na0 Pd0 2.814351 1_556
Na0 Pd0 2.814351 1_655
Na0 Pd1 2.814360 1_554
Na0 Pd1 2.814360 1_455
Na0 Pd1 2.814360 1_545
Na0 Pd0 2.814370 1_555
Pd0 Sn0 2.814355 1_445
Pd0 Sn0 2.814355 1_544
Pd0 Sn0 2.814355 1_454
Pd0 Sn0 2.814359 1_444
Pd1 Sn0 2.814352 1_554
Pd1 Sn0 2.814352 1_455
Pd1 Sn0 2.814352 1_545
Pd1 Sn0 2.814369 1_555
