# generated using pymatgen
data_UBiTe
_symmetry_space_group_name_H-M   'P 1'
_cell_length_a   4.45023633
_cell_length_b   4.45023633
_cell_length_c   9.40126062
_cell_angle_alpha   90.00000000
_cell_angle_beta   90.00000000
_cell_angle_gamma   90.00000000
_symmetry_Int_Tables_number   1
_chemical_formula_structural   UBiTe
_chemical_formula_sum   'U2 Bi2 Te2'
_cell_volume   186.18823797
_cell_formula_units_Z   2
loop_
 _symmetry_equiv_pos_site_id
 _symmetry_equiv_pos_as_xyz
  1  'x, y, z'
loop_
 _atom_site_type_symbol
 _atom_site_label
 _atom_site_symmetry_multiplicity
 _atom_site_fract_x
 _atom_site_fract_y
 _atom_site_fract_z
 _atom_site_occupancy
  U  U0  1  0.25000000  0.25000000  0.27991204  1
  U  U1  1  0.74999900  0.74999900  0.72008896  1
  Bi  Bi0  1  0.74999900  0.25000000  0.00000000  1
  Bi  Bi1  1  0.25000000  0.74999900  0.00000000  1
  Te  Te0  1  0.74999900  0.74999900  0.37196448  1
  Te  Te1  1  0.25000000  0.25000000  0.62803552  1
loop_
_geom_bond_atom_site_label_1
_geom_bond_atom_site_label_2
_geom_bond_distance
_geom_bond_site_symmetry_2
Bi0 Bi1 3.146786 1_555
Bi0 Bi1 3.146792 1_655
Bi0 Bi1 3.146792 1_545
Bi0 Bi1 3.146799 1_645
Bi0 U1 3.446159 1_554
Bi0 U1 3.446165 1_544
Bi0 U0 3.446166 1_555
Bi0 U0 3.446172 1_655
Bi1 U1 3.446159 1_554
Bi1 U1 3.446165 1_454
Bi1 U0 3.446166 1_555
Bi1 U0 3.446172 1_565
Te0 U0 3.263617 1_555
Te0 U0 3.263623 1_655
Te0 U0 3.263623 1_565
Te0 U0 3.263629 1_665
Te0 U1 3.272809 1_555
Te1 U1 3.263619 1_555
Te1 U1 3.263625 1_545
Te1 U1 3.263625 1_455
Te1 U1 3.263631 1_445
Te1 U0 3.272800 1_555
