# generated using pymatgen
data_Sr3Lu
_symmetry_space_group_name_H-M   'P 1'
_cell_length_a   7.01374625
_cell_length_b   7.01374625
_cell_length_c   7.01374625
_cell_angle_alpha   132.12872789
_cell_angle_beta   132.12872789
_cell_angle_gamma   70.02579102
_symmetry_Int_Tables_number   1
_chemical_formula_structural   Sr3Lu
_chemical_formula_sum   'Sr3 Lu1'
_cell_volume   186.05353804
_cell_formula_units_Z   1
loop_
 _symmetry_equiv_pos_site_id
 _symmetry_equiv_pos_as_xyz
  1  'x, y, z'
loop_
 _atom_site_type_symbol
 _atom_site_label
 _atom_site_symmetry_multiplicity
 _atom_site_fract_x
 _atom_site_fract_y
 _atom_site_fract_z
 _atom_site_occupancy
  Sr  Sr0  1  0.75000000  0.25000000  0.50000000  1
  Sr  Sr1  1  0.25000000  0.75000000  0.50000000  1
  Sr  Sr2  1  0.50000000  0.50000000  0.00000000  1
  Lu  Lu0  1  0.00000000  0.00000000  0.00000000  1
loop_
_geom_bond_atom_site_label_1
_geom_bond_atom_site_label_2
_geom_bond_distance
_geom_bond_site_symmetry_2
Sr0 Sr1 4.024213 1_656
Sr0 Sr1 4.024213 1_544
Sr0 Sr1 4.024213 1_645
Sr0 Sr1 4.024213 1_555
Sr0 Sr2 4.043109 1_545
Sr0 Sr2 4.043109 1_556
Sr0 Sr2 4.043109 1_555
Sr0 Sr2 4.043109 1_656
Sr1 Sr2 4.043109 1_455
Sr1 Sr2 4.043109 1_556
Sr1 Sr2 4.043109 1_555
Sr1 Sr2 4.043109 1_566
Lu0 Sr2 4.024213 1_455
Lu0 Sr2 4.024213 1_556
Lu0 Sr2 4.024213 1_444
Lu0 Sr2 4.024213 1_545
Lu0 Sr0 4.043109 1_455
Lu0 Sr0 4.043109 1_444
Lu0 Sr1 4.043109 1_555
Lu0 Sr1 4.043109 1_444
Lu0 Sr1 4.043109 1_544
Lu0 Sr1 4.043109 1_545
Lu0 Sr0 4.043109 1_555
Lu0 Sr0 4.043109 1_454
