# generated using pymatgen
data_Cr3S4
_symmetry_space_group_name_H-M   'P 1'
_cell_length_a   3.49006120
_cell_length_b   6.07338410
_cell_length_c   11.42399557
_cell_angle_alpha   88.54483461
_cell_angle_beta   89.99996592
_cell_angle_gamma   90.00003592
_symmetry_Int_Tables_number   1
_chemical_formula_structural   Cr3S4
_chemical_formula_sum   'Cr6 S8'
_cell_volume   242.07042653
_cell_formula_units_Z   2
loop_
 _symmetry_equiv_pos_site_id
 _symmetry_equiv_pos_as_xyz
  1  'x, y, z'
loop_
 _atom_site_type_symbol
 _atom_site_label
 _atom_site_symmetry_multiplicity
 _atom_site_fract_x
 _atom_site_fract_y
 _atom_site_fract_z
 _atom_site_occupancy
  Cr  Cr0  1  0.00000000  -0.00000615  0.00002074  1
  Cr  Cr1  1  0.50000000  0.50000719  0.49997609  1
  Cr  Cr2  1  0.50000000  0.48463088  0.23640411  1
  Cr  Cr3  1  -0.00000000  0.98460441  0.73641777  1
  Cr  Cr4  1  0.00000000  0.01539254  0.26358278  1
  Cr  Cr5  1  0.50000000  0.51536609  0.76359206  1
  S  S0  1  0.00000000  0.32350665  0.12671890  1
  S  S1  1  0.50000000  0.82343438  0.62670852  1
  S  S2  1  0.50000000  0.84665203  0.13570494  1
  S  S3  1  -0.00000000  0.34665383  0.63567196  1
  S  S4  1  0.00000000  0.65335151  0.36429811  1
  S  S5  1  0.50000000  0.15334055  0.86432998  1
  S  S6  1  0.50000000  0.17655852  0.37326538  1
  S  S7  1  -0.00000000  0.67650560  0.87330565  1
loop_
_geom_bond_atom_site_label_1
_geom_bond_atom_site_label_2
_geom_bond_distance
_geom_bond_site_symmetry_2
Cr0 S7 2.469796 1_544
Cr0 S0 2.469800 1_555
Cr0 S2 2.498361 1_445
Cr0 S2 2.498363 1_545
Cr0 S5 2.498417 1_554
Cr0 S5 2.498419 1_454
Cr1 S6 2.469571 1_555
Cr1 S1 2.469616 1_555
Cr1 S4 2.498323 1_655
Cr1 S4 2.498325 1_555
Cr1 S3 2.498467 1_555
Cr1 S3 2.498470 1_655
Cr2 S0 2.373842 1_655
Cr2 S0 2.373842 1_555
Cr2 S6 2.407646 1_555
Cr2 S2 2.455439 1_555
Cr2 S4 2.511153 1_555
Cr2 S4 2.511153 1_655
Cr3 S1 2.374108 1_555
Cr3 S1 2.374108 1_455
Cr3 S7 2.407960 1_555
Cr3 S3 2.455828 1_565
Cr3 S5 2.511316 1_465
Cr3 S5 2.511316 1_565
Cr4 S6 2.373934 1_455
Cr4 S6 2.373934 1_555
Cr4 S0 2.407858 1_555
Cr4 S4 2.455628 1_545
Cr4 S2 2.511095 1_545
Cr4 S2 2.511095 1_445
Cr5 S7 2.374056 1_555
Cr5 S7 2.374056 1_655
Cr5 S1 2.407787 1_555
Cr5 S5 2.455660 1_555
Cr5 S3 2.511308 1_655
Cr5 S3 2.511308 1_555
