# generated using pymatgen
data_Rh2S3
_symmetry_space_group_name_H-M   'P 1'
_cell_length_a   5.98491181
_cell_length_b   5.98491050
_cell_length_c   6.29494454
_cell_angle_alpha   118.38371231
_cell_angle_beta   61.61628159
_cell_angle_gamma   119.99999017
_symmetry_Int_Tables_number   1
_chemical_formula_structural   Rh2S3
_chemical_formula_sum   'Rh4 S6'
_cell_volume   163.22288044
_cell_formula_units_Z   2
loop_
 _symmetry_equiv_pos_site_id
 _symmetry_equiv_pos_as_xyz
  1  'x, y, z'
loop_
 _atom_site_type_symbol
 _atom_site_label
 _atom_site_symmetry_multiplicity
 _atom_site_fract_x
 _atom_site_fract_y
 _atom_site_fract_z
 _atom_site_occupancy
  Rh  Rh0  1  0.64989332  0.35010668  0.05032003  1
  Rh  Rh1  1  0.85010668  0.14989332  0.44967997  1
  Rh  Rh2  1  0.14989432  0.85010568  0.55031803  1
  Rh  Rh3  1  0.35010568  0.64989432  0.94968097  1
  S  S0  1  0.95017573  0.45017473  0.24999900  1
  S  S1  1  0.54982527  0.74999900  0.24999900  1
  S  S2  1  0.25000000  0.04982427  0.24999900  1
  S  S3  1  0.75000100  0.95017473  0.74999900  1
  S  S4  1  0.45017773  0.25000000  0.74999900  1
  S  S5  1  0.04982527  0.54982327  0.74999900  1
loop_
_geom_bond_atom_site_label_1
_geom_bond_atom_site_label_2
_geom_bond_distance
_geom_bond_site_symmetry_2
Rh0 S1 2.350341 1_555
Rh0 S0 2.350346 1_555
Rh0 S2 2.350346 1_555
Rh0 S4 2.391035 1_554
Rh0 S5 2.391042 1_654
Rh0 S3 2.391046 1_544
Rh1 S0 2.350348 1_555
Rh1 S2 2.350349 1_655
Rh1 S1 2.350351 1_545
Rh1 S4 2.391028 1_555
Rh1 S5 2.391035 1_655
Rh1 S3 2.391039 1_545
Rh2 S3 2.350349 1_455
Rh2 S5 2.350353 1_555
Rh2 S4 2.350357 1_565
Rh2 S0 2.391037 1_455
Rh2 S1 2.391037 1_555
Rh2 S2 2.391039 1_565
Rh3 S5 2.350343 1_555
Rh3 S3 2.350352 1_555
Rh3 S4 2.350362 1_555
Rh3 S2 2.391029 1_566
Rh3 S0 2.391034 1_456
Rh3 S1 2.391040 1_556
