# generated using pymatgen
data_Y5(In2Pd)2
_symmetry_space_group_name_H-M   'P 1'
_cell_length_a   7.29422436
_cell_length_b   16.15135178
_cell_length_c   36.48641664
_cell_angle_alpha   90.00000000
_cell_angle_beta   90.00000000
_cell_angle_gamma   90.00000000
_symmetry_Int_Tables_number   1
_chemical_formula_structural   Y5(In2Pd)2
_chemical_formula_sum   'Y80 In64 Pd32'
_cell_volume   4298.52252427
_cell_formula_units_Z   16
loop_
 _symmetry_equiv_pos_site_id
 _symmetry_equiv_pos_as_xyz
  1  'x, y, z'
loop_
 _atom_site_type_symbol
 _atom_site_label
 _atom_site_symmetry_multiplicity
 _atom_site_fract_x
 _atom_site_fract_y
 _atom_site_fract_z
 _atom_site_occupancy
  Y  Y0_0  1  0.25000000  0.12049621  0.39066286  1
  Y  Y0_1  1  0.25000000  0.12049621  0.89066287  1
  Y  Y0_2  1  0.25000000  0.62049621  0.39066286  1
  Y  Y0_3  1  0.25000000  0.62049621  0.89066287  1
  Y  Y0_4  1  0.75000000  0.12049621  0.39066286  1
  Y  Y0_5  1  0.75000000  0.12049621  0.89066287  1
  Y  Y0_6  1  0.75000000  0.62049621  0.39066286  1
  Y  Y0_7  1  0.75000000  0.62049621  0.89066287  1
  Y  Y1_0  1  0.25000000  0.37950379  0.10933714  1
  Y  Y1_1  1  0.25000000  0.37950379  0.60933713  1
  Y  Y1_2  1  0.25000000  0.87950379  0.10933714  1
  Y  Y1_3  1  0.25000000  0.87950379  0.60933713  1
  Y  Y1_4  1  0.75000000  0.37950379  0.10933714  1
  Y  Y1_5  1  0.75000000  0.37950379  0.60933713  1
  Y  Y1_6  1  0.75000000  0.87950379  0.10933714  1
  Y  Y1_7  1  0.75000000  0.87950379  0.60933713  1
  Y  Y2_0  1  0.25000000  0.12950379  0.14066286  1
  Y  Y2_1  1  0.25000000  0.12950379  0.64066286  1
  Y  Y2_2  1  0.25000000  0.62950379  0.14066286  1
  Y  Y2_3  1  0.25000000  0.62950379  0.64066286  1
  Y  Y2_4  1  0.75000000  0.12950379  0.14066286  1
  Y  Y2_5  1  0.75000000  0.12950379  0.64066286  1
  Y  Y2_6  1  0.75000000  0.62950379  0.14066286  1
  Y  Y2_7  1  0.75000000  0.62950379  0.64066286  1
  Y  Y3_0  1  0.25000000  0.37049621  0.35933714  1
  Y  Y3_1  1  0.25000000  0.37049621  0.85933713  1
  Y  Y3_2  1  0.25000000  0.87049621  0.35933714  1
  Y  Y3_3  1  0.25000000  0.87049621  0.85933713  1
  Y  Y3_4  1  0.75000000  0.37049621  0.35933714  1
  Y  Y3_5  1  0.75000000  0.37049621  0.85933713  1
  Y  Y3_6  1  0.75000000  0.87049621  0.35933714  1
  Y  Y3_7  1  0.75000000  0.87049621  0.85933713  1
  Y  Y4_0  1  0.25000000  0.05879568  0.29142946  1
  Y  Y4_1  1  0.25000000  0.05879568  0.79142946  1
  Y  Y4_2  1  0.25000000  0.55879568  0.29142946  1
  Y  Y4_3  1  0.25000000  0.55879568  0.79142946  1
  Y  Y4_4  1  0.75000000  0.05879568  0.29142946  1
  Y  Y4_5  1  0.75000000  0.05879568  0.79142946  1
  Y  Y4_6  1  0.75000000  0.55879568  0.29142946  1
  Y  Y4_7  1  0.75000000  0.55879568  0.79142946  1
  Y  Y5_0  1  0.25000000  0.44120432  0.20857054  1
  Y  Y5_1  1  0.25000000  0.44120432  0.70857054  1
  Y  Y5_2  1  0.25000000  0.94120432  0.20857054  1
  Y  Y5_3  1  0.25000000  0.94120432  0.70857054  1
  Y  Y5_4  1  0.75000000  0.44120432  0.20857054  1
  Y  Y5_5  1  0.75000000  0.44120432  0.70857054  1
  Y  Y5_6  1  0.75000000  0.94120432  0.20857054  1
  Y  Y5_7  1  0.75000000  0.94120432  0.70857054  1
  Y  Y6_0  1  0.25000000  0.19120432  0.04142946  1
  Y  Y6_1  1  0.25000000  0.19120432  0.54142946  1
  Y  Y6_2  1  0.25000000  0.69120432  0.04142946  1
  Y  Y6_3  1  0.25000000  0.69120432  0.54142946  1
  Y  Y6_4  1  0.75000000  0.19120432  0.04142946  1
  Y  Y6_5  1  0.75000000  0.19120432  0.54142946  1
  Y  Y6_6  1  0.75000000  0.69120432  0.04142946  1
  Y  Y6_7  1  0.75000000  0.69120432  0.54142946  1
  Y  Y7_0  1  0.25000000  0.30879568  0.45857054  1
  Y  Y7_1  1  0.25000000  0.30879568  0.95857054  1
  Y  Y7_2  1  0.25000000  0.80879568  0.45857054  1
  Y  Y7_3  1  0.25000000  0.80879568  0.95857054  1
  Y  Y7_4  1  0.75000000  0.30879568  0.45857054  1
  Y  Y7_5  1  0.75000000  0.30879568  0.95857054  1
  Y  Y7_6  1  0.75000000  0.80879568  0.45857054  1
  Y  Y7_7  1  0.75000000  0.80879568  0.95857054  1
  Y  Y8_0  1  0.25000000  0.00000000  0.00000000  1
  Y  Y8_1  1  0.25000000  0.00000000  0.50000000  1
  Y  Y8_2  1  0.25000000  0.50000000  0.00000000  1
  Y  Y8_3  1  0.25000000  0.50000000  0.50000000  1
  Y  Y8_4  1  0.75000000  0.00000000  0.00000000  1
  Y  Y8_5  1  0.75000000  0.00000000  0.50000000  1
  Y  Y8_6  1  0.75000000  0.50000000  0.00000000  1
  Y  Y8_7  1  0.75000000  0.50000000  0.50000000  1
  Y  Y9_0  1  0.25000000  0.25000000  0.25000000  1
  Y  Y9_1  1  0.25000000  0.25000000  0.75000000  1
  Y  Y9_2  1  0.25000000  0.75000000  0.25000000  1
  Y  Y9_3  1  0.25000000  0.75000000  0.75000000  1
  Y  Y9_4  1  0.75000000  0.25000000  0.25000000  1
  Y  Y9_5  1  0.75000000  0.25000000  0.75000000  1
  Y  Y9_6  1  0.75000000  0.75000000  0.25000000  1
  Y  Y9_7  1  0.75000000  0.75000000  0.75000000  1
  In  In0_0  1  0.00000000  0.03952998  0.07534449  1
  In  In0_1  1  0.00000000  0.03952998  0.57534449  1
  In  In0_2  1  0.00000000  0.53952998  0.07534449  1
  In  In0_3  1  0.00000000  0.53952998  0.57534449  1
  In  In0_4  1  0.50000000  0.03952998  0.07534449  1
  In  In0_5  1  0.50000000  0.03952998  0.57534449  1
  In  In0_6  1  0.50000000  0.53952998  0.07534449  1
  In  In0_7  1  0.50000000  0.53952998  0.57534449  1
  In  In1_0  1  0.00000000  0.46047002  0.42465550  1
  In  In1_1  1  0.00000000  0.46047002  0.92465550  1
  In  In1_2  1  0.00000000  0.96047002  0.42465550  1
  In  In1_3  1  0.00000000  0.96047002  0.92465550  1
  In  In1_4  1  0.50000000  0.46047002  0.42465550  1
  In  In1_5  1  0.50000000  0.46047002  0.92465550  1
  In  In1_6  1  0.50000000  0.96047002  0.42465550  1
  In  In1_7  1  0.50000000  0.96047002  0.92465550  1
  In  In2_0  1  0.00000000  0.21047002  0.32534450  1
  In  In2_1  1  0.00000000  0.21047002  0.82534449  1
  In  In2_2  1  0.00000000  0.71047002  0.32534450  1
  In  In2_3  1  0.00000000  0.71047002  0.82534449  1
  In  In2_4  1  0.50000000  0.21047002  0.32534450  1
  In  In2_5  1  0.50000000  0.21047002  0.82534449  1
  In  In2_6  1  0.50000000  0.71047002  0.32534450  1
  In  In2_7  1  0.50000000  0.71047002  0.82534449  1
  In  In3_0  1  0.00000000  0.28952998  0.17465551  1
  In  In3_1  1  0.00000000  0.28952998  0.67465550  1
  In  In3_2  1  0.00000000  0.78952998  0.17465551  1
  In  In3_3  1  0.00000000  0.78952998  0.67465550  1
  In  In3_4  1  0.50000000  0.28952998  0.17465551  1
  In  In3_5  1  0.50000000  0.28952998  0.67465550  1
  In  In3_6  1  0.50000000  0.78952998  0.17465551  1
  In  In3_7  1  0.50000000  0.78952998  0.67465550  1
  In  In4_0  1  0.00000000  0.10448964  0.21569540  1
  In  In4_1  1  0.00000000  0.10448964  0.71569540  1
  In  In4_2  1  0.00000000  0.60448964  0.21569540  1
  In  In4_3  1  0.00000000  0.60448964  0.71569540  1
  In  In4_4  1  0.50000000  0.10448964  0.21569540  1
  In  In4_5  1  0.50000000  0.10448964  0.71569540  1
  In  In4_6  1  0.50000000  0.60448964  0.21569540  1
  In  In4_7  1  0.50000000  0.60448964  0.71569540  1
  In  In5_0  1  0.00000000  0.39551037  0.28430460  1
  In  In5_1  1  0.00000000  0.39551037  0.78430460  1
  In  In5_2  1  0.00000000  0.89551037  0.28430460  1
  In  In5_3  1  0.00000000  0.89551037  0.78430460  1
  In  In5_4  1  0.50000000  0.39551037  0.28430460  1
  In  In5_5  1  0.50000000  0.39551037  0.78430460  1
  In  In5_6  1  0.50000000  0.89551037  0.28430460  1
  In  In5_7  1  0.50000000  0.89551037  0.78430460  1
  In  In6_0  1  0.00000000  0.14551037  0.46569540  1
  In  In6_1  1  0.00000000  0.14551037  0.96569540  1
  In  In6_2  1  0.00000000  0.64551037  0.46569540  1
  In  In6_3  1  0.00000000  0.64551037  0.96569540  1
  In  In6_4  1  0.50000000  0.14551037  0.46569540  1
  In  In6_5  1  0.50000000  0.14551037  0.96569540  1
  In  In6_6  1  0.50000000  0.64551037  0.46569540  1
  In  In6_7  1  0.50000000  0.64551037  0.96569540  1
  In  In7_0  1  0.00000000  0.35448964  0.03430461  1
  In  In7_1  1  0.00000000  0.35448964  0.53430460  1
  In  In7_2  1  0.00000000  0.85448964  0.03430461  1
  In  In7_3  1  0.00000000  0.85448964  0.53430460  1
  In  In7_4  1  0.50000000  0.35448964  0.03430461  1
  In  In7_5  1  0.50000000  0.35448964  0.53430460  1
  In  In7_6  1  0.50000000  0.85448964  0.03430461  1
  In  In7_7  1  0.50000000  0.85448964  0.53430460  1
  Pd  Pd0_0  1  0.00000000  0.01312131  0.34778846  1
  Pd  Pd0_1  1  0.00000000  0.01312131  0.84778846  1
  Pd  Pd0_2  1  0.00000000  0.51312131  0.34778846  1
  Pd  Pd0_3  1  0.00000000  0.51312131  0.84778846  1
  Pd  Pd0_4  1  0.50000000  0.01312131  0.34778846  1
  Pd  Pd0_5  1  0.50000000  0.01312131  0.84778846  1
  Pd  Pd0_6  1  0.50000000  0.51312131  0.34778846  1
  Pd  Pd0_7  1  0.50000000  0.51312131  0.84778846  1
  Pd  Pd1_0  1  0.00000000  0.48687869  0.15221154  1
  Pd  Pd1_1  1  0.00000000  0.48687869  0.65221153  1
  Pd  Pd1_2  1  0.00000000  0.98687869  0.15221154  1
  Pd  Pd1_3  1  0.00000000  0.98687869  0.65221153  1
  Pd  Pd1_4  1  0.50000000  0.48687869  0.15221154  1
  Pd  Pd1_5  1  0.50000000  0.48687869  0.65221153  1
  Pd  Pd1_6  1  0.50000000  0.98687869  0.15221154  1
  Pd  Pd1_7  1  0.50000000  0.98687869  0.65221153  1
  Pd  Pd2_0  1  0.00000000  0.23687869  0.09778847  1
  Pd  Pd2_1  1  0.00000000  0.23687869  0.59778846  1
  Pd  Pd2_2  1  0.00000000  0.73687869  0.09778847  1
  Pd  Pd2_3  1  0.00000000  0.73687869  0.59778846  1
  Pd  Pd2_4  1  0.50000000  0.23687869  0.09778847  1
  Pd  Pd2_5  1  0.50000000  0.23687869  0.59778846  1
  Pd  Pd2_6  1  0.50000000  0.73687869  0.09778847  1
  Pd  Pd2_7  1  0.50000000  0.73687869  0.59778846  1
  Pd  Pd3_0  1  0.00000000  0.26312131  0.40221154  1
  Pd  Pd3_1  1  0.00000000  0.26312131  0.90221153  1
  Pd  Pd3_2  1  0.00000000  0.76312131  0.40221154  1
  Pd  Pd3_3  1  0.00000000  0.76312131  0.90221153  1
  Pd  Pd3_4  1  0.50000000  0.26312131  0.40221154  1
  Pd  Pd3_5  1  0.50000000  0.26312131  0.90221153  1
  Pd  Pd3_6  1  0.50000000  0.76312131  0.40221154  1
  Pd  Pd3_7  1  0.50000000  0.76312131  0.90221153  1
loop_
_geom_bond_atom_site_label_1
_geom_bond_atom_site_label_2
_geom_bond_distance
_geom_bond_site_symmetry_2
Y4_0 Y9_0 3.438314 1_555
Y4_1 Y9_1 3.438314 1_555
Y4_2 Y9_2 3.438314 1_555
Y4_3 Y9_3 3.438314 1_555
Y4_4 Y9_4 3.438314 1_555
Y4_5 Y9_5 3.438314 1_555
Y4_6 Y9_6 3.438314 1_555
Y4_7 Y9_7 3.438314 1_555
Y5_0 Y9_0 3.438314 1_555
Y5_1 Y9_1 3.438314 1_555
Y5_2 Y9_2 3.438314 1_555
Y5_3 Y9_3 3.438314 1_555
Y5_4 Y9_4 3.438314 1_555
Y5_5 Y9_5 3.438314 1_555
Y5_6 Y9_6 3.438314 1_555
Y5_7 Y9_7 3.438314 1_555
Y6_0 Y8_0 3.438314 1_555
Y6_1 Y8_1 3.438314 1_555
Y6_2 Y8_2 3.438314 1_555
Y6_3 Y8_3 3.438314 1_555
Y6_4 Y8_4 3.438314 1_555
Y6_5 Y8_5 3.438314 1_555
Y6_6 Y8_6 3.438314 1_555
Y6_7 Y8_7 3.438314 1_555
Y7_0 Y8_3 3.438314 1_555
Y7_1 Y8_2 3.438314 1_556
Y7_2 Y8_1 3.438314 1_565
Y7_3 Y8_0 3.438314 1_566
Y7_4 Y8_7 3.438314 1_555
Y7_5 Y8_6 3.438314 1_556
Y7_6 Y8_5 3.438314 1_565
Y7_7 Y8_4 3.438314 1_566
Y8_0 Y8_4 3.647112 1_455
Y8_0 Y8_4 3.647112 1_555
Y8_1 Y8_5 3.647112 1_555
Y8_1 Y8_5 3.647112 1_455
Y8_2 Y8_6 3.647112 1_555
Y8_2 Y8_6 3.647112 1_455
Y8_3 Y8_7 3.647112 1_455
Y8_3 Y8_7 3.647112 1_555
Y9_0 Y9_4 3.647112 1_555
Y9_0 Y9_4 3.647112 1_455
Y9_1 Y9_5 3.647112 1_455
Y9_1 Y9_5 3.647112 1_555
Y9_2 Y9_6 3.647112 1_555
Y9_2 Y9_6 3.647112 1_455
Y9_3 Y9_7 3.647112 1_555
Y9_3 Y9_7 3.647112 1_455
In0_0 Pd1_2 2.930693 1_545
In0_0 Pd2_0 3.290961 1_555
In0_0 Y6_0 3.295127 1_555
In0_0 Y6_4 3.295127 1_455
In0_0 Y2_4 3.334208 1_455
In0_0 Y2_0 3.334208 1_555
In0_0 In7_2 3.342789 1_545
In0_0 Y8_0 3.360100 1_555
In0_0 Y8_4 3.360100 1_455
In0_0 Y1_2 3.397644 1_545
In0_0 Y1_6 3.397644 1_445
In0_1 Pd1_3 2.930693 1_545
In0_1 Pd2_1 3.290961 1_555
In0_1 Y6_5 3.295127 1_455
In0_1 Y6_1 3.295127 1_555
In0_1 Y2_5 3.334208 1_455
In0_1 Y2_1 3.334208 1_555
In0_1 In7_3 3.342789 1_545
In0_1 Y8_5 3.360100 1_455
In0_1 Y8_1 3.360100 1_555
In0_1 Y1_3 3.397644 1_545
In0_1 Y1_7 3.397644 1_445
In0_2 Pd1_0 2.930693 1_555
In0_2 Pd2_2 3.290961 1_555
In0_2 Y6_6 3.295127 1_455
In0_2 Y6_2 3.295127 1_555
In0_2 Y2_6 3.334208 1_455
In0_2 Y2_2 3.334208 1_555
In0_2 In7_0 3.342789 1_555
In0_2 Y8_6 3.360100 1_455
In0_2 Y8_2 3.360100 1_555
In0_2 Y1_0 3.397644 1_555
In0_2 Y1_4 3.397644 1_455
In0_3 Pd1_1 2.930693 1_555
In0_3 Pd2_3 3.290961 1_555
In0_3 Y6_7 3.295127 1_455
In0_3 Y6_3 3.295127 1_555
In0_3 Y2_7 3.334208 1_455
In0_3 Y2_3 3.334208 1_555
In0_3 In7_1 3.342789 1_555
In0_3 Y8_3 3.360100 1_555
In0_3 Y8_7 3.360100 1_455
In0_3 Y1_5 3.397644 1_455
In0_3 Y1_1 3.397644 1_555
In0_4 Pd1_6 2.930693 1_545
In0_4 Pd2_4 3.290961 1_555
In0_4 Y6_0 3.295127 1_555
In0_4 Y6_4 3.295127 1_555
In0_4 Y2_0 3.334208 1_555
In0_4 Y2_4 3.334208 1_555
In0_4 In7_6 3.342789 1_545
In0_4 Y8_0 3.360100 1_555
In0_4 Y8_4 3.360100 1_555
In0_4 Y1_2 3.397644 1_545
In0_4 Y1_6 3.397644 1_545
In0_5 Pd1_7 2.930693 1_545
In0_5 Pd2_5 3.290961 1_555
In0_5 Y6_5 3.295127 1_555
In0_5 Y6_1 3.295127 1_555
In0_5 Y2_5 3.334208 1_555
In0_5 Y2_1 3.334208 1_555
In0_5 In7_7 3.342789 1_545
In0_5 Y8_1 3.360100 1_555
In0_5 Y8_5 3.360100 1_555
In0_5 Y1_3 3.397644 1_545
In0_5 Y1_7 3.397644 1_545
In0_6 Pd1_4 2.930693 1_555
In0_6 Pd2_6 3.290961 1_555
In0_6 Y6_6 3.295127 1_555
In0_6 Y6_2 3.295127 1_555
In0_6 Y2_2 3.334208 1_555
In0_6 Y2_6 3.334208 1_555
In0_6 In7_4 3.342789 1_555
In0_6 Y8_2 3.360100 1_555
In0_6 Y8_6 3.360100 1_555
In0_6 Y1_4 3.397644 1_555
In0_6 Y1_0 3.397644 1_555
In0_7 Pd1_5 2.930693 1_555
In0_7 Pd2_7 3.290961 1_555
In0_7 Y6_3 3.295127 1_555
In0_7 Y6_7 3.295127 1_555
In0_7 Y2_7 3.334208 1_555
In0_7 Y2_3 3.334208 1_555
In0_7 In7_5 3.342789 1_555
In0_7 Y8_7 3.360100 1_555
In0_7 Y8_3 3.360100 1_555
In0_7 Y1_1 3.397644 1_555
In0_7 Y1_5 3.397644 1_555
In1_0 Pd0_2 2.930693 1_555
In1_0 Pd3_0 3.290961 1_555
In1_0 Y7_0 3.295127 1_555
In1_0 Y7_4 3.295127 1_455
In1_0 Y3_4 3.334208 1_455
In1_0 Y3_0 3.334208 1_555
In1_0 In6_2 3.342789 1_555
In1_0 Y8_3 3.360100 1_555
In1_0 Y8_7 3.360100 1_455
In1_0 Y0_2 3.397644 1_555
In1_0 Y0_6 3.397644 1_455
In1_1 Pd0_3 2.930693 1_555
In1_1 Pd3_1 3.290961 1_555
In1_1 Y7_5 3.295127 1_455
In1_1 Y7_1 3.295127 1_555
In1_1 Y3_1 3.334208 1_555
In1_1 Y3_5 3.334208 1_455
In1_1 In6_3 3.342789 1_555
In1_1 Y8_2 3.360100 1_556
In1_1 Y8_6 3.360100 1_456
In1_1 Y0_7 3.397644 1_455
In1_1 Y0_3 3.397644 1_555
In1_2 Pd0_0 2.930693 1_565
In1_2 Pd3_2 3.290961 1_555
In1_2 Y7_6 3.295127 1_455
In1_2 Y7_2 3.295127 1_555
In1_2 Y3_2 3.334208 1_555
In1_2 Y3_6 3.334208 1_455
In1_2 In6_0 3.342789 1_565
In1_2 Y8_5 3.360100 1_465
In1_2 Y8_1 3.360100 1_565
In1_2 Y0_0 3.397644 1_565
In1_2 Y0_4 3.397644 1_465
In1_3 Pd0_1 2.930693 1_565
In1_3 Pd3_3 3.290961 1_555
In1_3 Y7_3 3.295127 1_555
In1_3 Y7_7 3.295127 1_455
In1_3 Y3_3 3.334208 1_555
In1_3 Y3_7 3.334208 1_455
In1_3 In6_1 3.342789 1_565
In1_3 Y8_0 3.360100 1_566
In1_3 Y8_4 3.360100 1_466
In1_3 Y0_5 3.397644 1_465
In1_3 Y0_1 3.397644 1_565
In1_4 Pd0_6 2.930693 1_555
In1_4 Pd3_4 3.290961 1_555
In1_4 Y7_0 3.295127 1_555
In1_4 Y7_4 3.295127 1_555
In1_4 Y3_0 3.334208 1_555
In1_4 Y3_4 3.334208 1_555
In1_4 In6_6 3.342789 1_555
In1_4 Y8_7 3.360100 1_555
In1_4 Y8_3 3.360100 1_555
In1_4 Y0_2 3.397644 1_555
In1_4 Y0_6 3.397644 1_555
In1_5 Pd0_7 2.930693 1_555
In1_5 Pd3_5 3.290961 1_555
In1_5 Y7_5 3.295127 1_555
In1_5 Y7_1 3.295127 1_555
In1_5 Y3_1 3.334208 1_555
In1_5 Y3_5 3.334208 1_555
In1_5 In6_7 3.342789 1_555
In1_5 Y8_2 3.360100 1_556
In1_5 Y8_6 3.360100 1_556
In1_5 Y0_3 3.397644 1_555
In1_5 Y0_7 3.397644 1_555
In1_6 Pd0_4 2.930693 1_565
In1_6 Pd3_6 3.290961 1_555
In1_6 Y7_2 3.295127 1_555
In1_6 Y7_6 3.295127 1_555
In1_6 Y3_2 3.334208 1_555
In1_6 Y3_6 3.334208 1_555
In1_6 In6_4 3.342789 1_565
In1_6 Y8_5 3.360100 1_565
In1_6 Y8_1 3.360100 1_565
In1_6 Y0_0 3.397644 1_565
In1_6 Y0_4 3.397644 1_565
In1_7 Pd0_5 2.930693 1_565
In1_7 Pd3_7 3.290961 1_555
In1_7 Y7_3 3.295127 1_555
In1_7 Y7_7 3.295127 1_555
In1_7 Y3_3 3.334208 1_555
In1_7 Y3_7 3.334208 1_555
In1_7 In6_5 3.342789 1_565
In1_7 Y8_0 3.360100 1_566
In1_7 Y8_4 3.360100 1_566
In1_7 Y0_1 3.397644 1_565
In1_7 Y0_5 3.397644 1_565
In2_0 Pd3_0 2.930693 1_555
In2_0 Pd0_0 3.290961 1_555
In2_0 Y4_0 3.295127 1_555
In2_0 Y4_4 3.295127 1_455
In2_0 Y0_0 3.334208 1_555
In2_0 Y0_4 3.334208 1_455
In2_0 In5_0 3.342789 1_555
In2_0 Y9_0 3.360100 1_555
In2_0 Y9_4 3.360100 1_455
In2_0 Y3_4 3.397644 1_455
In2_0 Y3_0 3.397644 1_555
In2_1 Pd3_1 2.930693 1_555
In2_1 Pd0_1 3.290961 1_555
In2_1 Y4_5 3.295127 1_455
In2_1 Y4_1 3.295127 1_555
In2_1 Y0_1 3.334208 1_555
In2_1 Y0_5 3.334208 1_455
In2_1 In5_1 3.342789 1_555
In2_1 Y9_1 3.360100 1_555
In2_1 Y9_5 3.360100 1_455
In2_1 Y3_1 3.397644 1_555
In2_1 Y3_5 3.397644 1_455
In2_2 Pd3_2 2.930693 1_555
In2_2 Pd0_2 3.290961 1_555
In2_2 Y4_6 3.295127 1_455
In2_2 Y4_2 3.295127 1_555
In2_2 Y0_2 3.334208 1_555
In2_2 Y0_6 3.334208 1_455
In2_2 In5_2 3.342789 1_555
In2_2 Y9_6 3.360100 1_455
In2_2 Y9_2 3.360100 1_555
In2_2 Y3_2 3.397644 1_555
In2_2 Y3_6 3.397644 1_455
In2_3 Pd3_3 2.930693 1_555
In2_3 Pd0_3 3.290961 1_555
In2_3 Y4_7 3.295127 1_455
In2_3 Y4_3 3.295127 1_555
In2_3 Y0_7 3.334208 1_455
In2_3 Y0_3 3.334208 1_555
In2_3 In5_3 3.342789 1_555
In2_3 Y9_7 3.360100 1_455
In2_3 Y9_3 3.360100 1_555
In2_3 Y3_3 3.397644 1_555
In2_3 Y3_7 3.397644 1_455
In2_4 Pd3_4 2.930693 1_555
In2_4 Pd0_4 3.290961 1_555
In2_4 Y4_0 3.295127 1_555
In2_4 Y4_4 3.295127 1_555
In2_4 Y0_0 3.334208 1_555
In2_4 Y0_4 3.334208 1_555
In2_4 In5_4 3.342789 1_555
In2_4 Y9_4 3.360100 1_555
In2_4 Y9_0 3.360100 1_555
In2_4 Y3_0 3.397644 1_555
In2_4 Y3_4 3.397644 1_555
In2_5 Pd3_5 2.930693 1_555
In2_5 Pd0_5 3.290961 1_555
In2_5 Y4_5 3.295127 1_555
In2_5 Y4_1 3.295127 1_555
In2_5 Y0_1 3.334208 1_555
In2_5 Y0_5 3.334208 1_555
In2_5 In5_5 3.342789 1_555
In2_5 Y9_1 3.360100 1_555
In2_5 Y9_5 3.360100 1_555
In2_5 Y3_5 3.397644 1_555
In2_5 Y3_1 3.397644 1_555
In2_6 Pd3_6 2.930693 1_555
In2_6 Pd0_6 3.290961 1_555
In2_6 Y4_6 3.295127 1_555
In2_6 Y4_2 3.295127 1_555
In2_6 Y0_2 3.334208 1_555
In2_6 Y0_6 3.334208 1_555
In2_6 In5_6 3.342789 1_555
In2_6 Y9_2 3.360100 1_555
In2_6 Y9_6 3.360100 1_555
In2_6 Y3_6 3.397644 1_555
In2_6 Y3_2 3.397644 1_555
In2_7 Pd3_7 2.930693 1_555
In2_7 Pd0_7 3.290961 1_555
In2_7 Y4_7 3.295127 1_555
In2_7 Y4_3 3.295127 1_555
In2_7 Y0_7 3.334208 1_555
In2_7 Y0_3 3.334208 1_555
In2_7 In5_7 3.342789 1_555
In2_7 Y9_7 3.360100 1_555
In2_7 Y9_3 3.360100 1_555
In2_7 Y3_3 3.397644 1_555
In2_7 Y3_7 3.397644 1_555
In3_0 Pd2_0 2.930693 1_555
In3_0 Pd1_0 3.290961 1_555
In3_0 Y5_0 3.295127 1_555
In3_0 Y5_4 3.295127 1_455
In3_0 Y1_4 3.334208 1_455
In3_0 Y1_0 3.334208 1_555
In3_0 In4_0 3.342789 1_555
In3_0 Y9_0 3.360100 1_555
In3_0 Y9_4 3.360100 1_455
In3_0 Y2_4 3.397644 1_455
In3_0 Y2_0 3.397644 1_555
In3_1 Pd2_1 2.930693 1_555
In3_1 Pd1_1 3.290961 1_555
In3_1 Y5_5 3.295127 1_455
In3_1 Y5_1 3.295127 1_555
In3_1 Y1_5 3.334208 1_455
In3_1 Y1_1 3.334208 1_555
In3_1 In4_1 3.342789 1_555
In3_1 Y9_1 3.360100 1_555
In3_1 Y9_5 3.360100 1_455
In3_1 Y2_5 3.397644 1_455
In3_1 Y2_1 3.397644 1_555
In3_2 Pd2_2 2.930693 1_555
In3_2 Pd1_2 3.290961 1_555
In3_2 Y5_2 3.295127 1_555
In3_2 Y5_6 3.295127 1_455
In3_2 Y1_2 3.334208 1_555
In3_2 Y1_6 3.334208 1_455
In3_2 In4_2 3.342789 1_555
In3_2 Y9_6 3.360100 1_455
In3_2 Y9_2 3.360100 1_555
In3_2 Y2_6 3.397644 1_455
In3_2 Y2_2 3.397644 1_555
In3_3 Pd2_3 2.930693 1_555
In3_3 Pd1_3 3.290961 1_555
In3_3 Y5_3 3.295127 1_555
In3_3 Y5_7 3.295127 1_455
In3_3 Y1_3 3.334208 1_555
In3_3 Y1_7 3.334208 1_455
In3_3 In4_3 3.342789 1_555
In3_3 Y9_3 3.360100 1_555
In3_3 Y9_7 3.360100 1_455
In3_3 Y2_7 3.397644 1_455
In3_3 Y2_3 3.397644 1_555
In3_4 Pd2_4 2.930693 1_555
In3_4 Pd1_4 3.290961 1_555
In3_4 Y5_0 3.295127 1_555
In3_4 Y5_4 3.295127 1_555
In3_4 Y1_0 3.334208 1_555
In3_4 Y1_4 3.334208 1_555
In3_4 In4_4 3.342789 1_555
In3_4 Y9_0 3.360100 1_555
In3_4 Y9_4 3.360100 1_555
In3_4 Y2_0 3.397644 1_555
In3_4 Y2_4 3.397644 1_555
In3_5 Pd2_5 2.930693 1_555
In3_5 Pd1_5 3.290961 1_555
In3_5 Y5_1 3.295127 1_555
In3_5 Y5_5 3.295127 1_555
In3_5 Y1_1 3.334208 1_555
In3_5 Y1_5 3.334208 1_555
In3_5 In4_5 3.342789 1_555
In3_5 Y9_1 3.360100 1_555
In3_5 Y9_5 3.360100 1_555
In3_5 Y2_1 3.397644 1_555
In3_5 Y2_5 3.397644 1_555
In3_6 Pd2_6 2.930693 1_555
In3_6 Pd1_6 3.290961 1_555
In3_6 Y5_6 3.295127 1_555
In3_6 Y5_2 3.295127 1_555
In3_6 Y1_2 3.334208 1_555
In3_6 Y1_6 3.334208 1_555
In3_6 In4_6 3.342789 1_555
In3_6 Y9_2 3.360100 1_555
In3_6 Y9_6 3.360100 1_555
In3_6 Y2_2 3.397644 1_555
In3_6 Y2_6 3.397644 1_555
In3_7 Pd2_7 2.930693 1_555
In3_7 Pd1_7 3.290961 1_555
In3_7 Y5_3 3.295127 1_555
In3_7 Y5_7 3.295127 1_555
In3_7 Y1_3 3.334208 1_555
In3_7 Y1_7 3.334208 1_555
In3_7 In4_7 3.342789 1_555
In3_7 Y9_3 3.360100 1_555
In3_7 Y9_7 3.360100 1_555
In3_7 Y2_3 3.397644 1_555
In3_7 Y2_7 3.397644 1_555
In4_0 Pd1_2 2.995601 1_545
In4_0 Y5_6 3.216858 1_445
In4_0 Y5_2 3.216858 1_545
In4_0 Y9_0 3.227287 1_555
In4_0 Y9_4 3.227287 1_455
In4_0 Y2_4 3.314123 1_455
In4_0 Y2_0 3.314123 1_555
In4_0 Y4_4 3.391999 1_455
In4_0 Y4_0 3.391999 1_555
In4_1 Pd1_3 2.995601 1_545
In4_1 Y5_3 3.216858 1_545
In4_1 Y5_7 3.216858 1_445
In4_1 Y9_1 3.227287 1_555
In4_1 Y9_5 3.227287 1_455
In4_1 Y2_5 3.314123 1_455
In4_1 Y2_1 3.314123 1_555
In4_1 Y4_1 3.391999 1_555
In4_1 Y4_5 3.391999 1_455
In4_2 Pd1_0 2.995601 1_555
In4_2 Y5_0 3.216858 1_555
In4_2 Y5_4 3.216858 1_455
In4_2 Y9_6 3.227287 1_455
In4_2 Y9_2 3.227287 1_555
In4_2 Y2_6 3.314123 1_455
In4_2 Y2_2 3.314123 1_555
In4_2 Y4_2 3.391999 1_555
In4_2 Y4_6 3.391999 1_455
In4_3 Pd1_1 2.995601 1_555
In4_3 Y5_5 3.216858 1_455
In4_3 Y5_1 3.216858 1_555
In4_3 Y9_7 3.227287 1_455
In4_3 Y9_3 3.227287 1_555
In4_3 Y2_7 3.314123 1_455
In4_3 Y2_3 3.314123 1_555
In4_3 Y4_3 3.391999 1_555
In4_3 Y4_7 3.391999 1_455
In4_4 Pd1_6 2.995601 1_545
In4_4 Y5_6 3.216858 1_545
In4_4 Y5_2 3.216858 1_545
In4_4 Y9_4 3.227287 1_555
In4_4 Y9_0 3.227287 1_555
In4_4 Y2_4 3.314123 1_555
In4_4 Y2_0 3.314123 1_555
In4_4 Y4_0 3.391999 1_555
In4_4 Y4_4 3.391999 1_555
In4_5 Pd1_7 2.995601 1_545
In4_5 Y5_3 3.216858 1_545
In4_5 Y5_7 3.216858 1_545
In4_5 Y9_1 3.227287 1_555
In4_5 Y9_5 3.227287 1_555
In4_5 Y2_1 3.314123 1_555
In4_5 Y2_5 3.314123 1_555
In4_5 Y4_5 3.391999 1_555
In4_5 Y4_1 3.391999 1_555
In4_6 Pd1_4 2.995601 1_555
In4_6 Y5_0 3.216858 1_555
In4_6 Y5_4 3.216858 1_555
In4_6 Y9_6 3.227287 1_555
In4_6 Y9_2 3.227287 1_555
In4_6 Y2_2 3.314123 1_555
In4_6 Y2_6 3.314123 1_555
In4_6 Y4_2 3.391999 1_555
In4_6 Y4_6 3.391999 1_555
In4_7 Pd1_5 2.995601 1_555
In4_7 Y5_1 3.216858 1_555
In4_7 Y5_5 3.216858 1_555
In4_7 Y9_3 3.227287 1_555
In4_7 Y9_7 3.227287 1_555
In4_7 Y2_3 3.314123 1_555
In4_7 Y2_7 3.314123 1_555
In4_7 Y4_3 3.391999 1_555
In4_7 Y4_7 3.391999 1_555
In5_0 Pd0_2 2.995601 1_555
In5_0 Y4_6 3.216858 1_455
In5_0 Y4_2 3.216858 1_555
In5_0 Y9_4 3.227287 1_455
In5_0 Y9_0 3.227287 1_555
In5_0 Y3_0 3.314123 1_555
In5_0 Y3_4 3.314123 1_455
In5_0 Y5_0 3.391999 1_555
In5_0 Y5_4 3.391999 1_455
In5_1 Pd0_3 2.995601 1_555
In5_1 Y4_7 3.216858 1_455
In5_1 Y4_3 3.216858 1_555
In5_1 Y9_5 3.227287 1_455
In5_1 Y9_1 3.227287 1_555
In5_1 Y3_1 3.314123 1_555
In5_1 Y3_5 3.314123 1_455
In5_1 Y5_1 3.391999 1_555
In5_1 Y5_5 3.391999 1_455
In5_2 Pd0_0 2.995601 1_565
In5_2 Y4_4 3.216858 1_465
In5_2 Y4_0 3.216858 1_565
In5_2 Y9_6 3.227287 1_455
In5_2 Y9_2 3.227287 1_555
In5_2 Y3_2 3.314123 1_555
In5_2 Y3_6 3.314123 1_455
In5_2 Y5_6 3.391999 1_455
In5_2 Y5_2 3.391999 1_555
In5_3 Pd0_1 2.995601 1_565
In5_3 Y4_1 3.216858 1_565
In5_3 Y4_5 3.216858 1_465
In5_3 Y9_3 3.227287 1_555
In5_3 Y9_7 3.227287 1_455
In5_3 Y3_7 3.314123 1_455
In5_3 Y3_3 3.314123 1_555
In5_3 Y5_3 3.391999 1_555
In5_3 Y5_7 3.391999 1_455
In5_4 Pd0_6 2.995601 1_555
In5_4 Y4_2 3.216858 1_555
In5_4 Y4_6 3.216858 1_555
In5_4 Y9_4 3.227287 1_555
In5_4 Y9_0 3.227287 1_555
In5_4 Y3_0 3.314123 1_555
In5_4 Y3_4 3.314123 1_555
In5_4 Y5_0 3.391999 1_555
In5_4 Y5_4 3.391999 1_555
In5_5 Pd0_7 2.995601 1_555
In5_5 Y4_3 3.216858 1_555
In5_5 Y4_7 3.216858 1_555
In5_5 Y9_5 3.227287 1_555
In5_5 Y9_1 3.227287 1_555
In5_5 Y3_1 3.314123 1_555
In5_5 Y3_5 3.314123 1_555
In5_5 Y5_1 3.391999 1_555
In5_5 Y5_5 3.391999 1_555
In5_6 Pd0_4 2.995601 1_565
In5_6 Y4_0 3.216858 1_565
In5_6 Y4_4 3.216858 1_565
In5_6 Y9_6 3.227287 1_555
In5_6 Y9_2 3.227287 1_555
In5_6 Y3_2 3.314123 1_555
In5_6 Y3_6 3.314123 1_555
In5_6 Y5_6 3.391999 1_555
In5_6 Y5_2 3.391999 1_555
In5_7 Pd0_5 2.995601 1_565
In5_7 Y4_1 3.216858 1_565
In5_7 Y4_5 3.216858 1_565
In5_7 Y9_3 3.227287 1_555
In5_7 Y9_7 3.227287 1_555
In5_7 Y3_7 3.314123 1_555
In5_7 Y3_3 3.314123 1_555
In5_7 Y5_3 3.391999 1_555
In5_7 Y5_7 3.391999 1_555
In6_0 Pd3_0 2.995601 1_555
In6_0 Y7_0 3.216858 1_555
In6_0 Y7_4 3.216858 1_455
In6_0 Y8_5 3.227287 1_455
In6_0 Y8_1 3.227287 1_555
In6_0 Y0_4 3.314123 1_455
In6_0 Y0_0 3.314123 1_555
In6_0 Y6_1 3.391999 1_555
In6_0 Y6_5 3.391999 1_455
In6_1 Pd3_1 2.995601 1_555
In6_1 Y7_5 3.216858 1_455
In6_1 Y7_1 3.216858 1_555
In6_1 Y8_0 3.227287 1_556
In6_1 Y8_4 3.227287 1_456
In6_1 Y0_5 3.314123 1_455
In6_1 Y0_1 3.314123 1_555
In6_1 Y6_0 3.391999 1_556
In6_1 Y6_4 3.391999 1_456
In6_2 Pd3_2 2.995601 1_555
In6_2 Y7_6 3.216858 1_455
In6_2 Y7_2 3.216858 1_555
In6_2 Y8_7 3.227287 1_455
In6_2 Y8_3 3.227287 1_555
In6_2 Y0_6 3.314123 1_455
In6_2 Y0_2 3.314123 1_555
In6_2 Y6_7 3.391999 1_455
In6_2 Y6_3 3.391999 1_555
In6_3 Pd3_3 2.995601 1_555
In6_3 Y7_7 3.216858 1_455
In6_3 Y7_3 3.216858 1_555
In6_3 Y8_2 3.227287 1_556
In6_3 Y8_6 3.227287 1_456
In6_3 Y0_3 3.314123 1_555
In6_3 Y0_7 3.314123 1_455
In6_3 Y6_6 3.391999 1_456
In6_3 Y6_2 3.391999 1_556
In6_4 Pd3_4 2.995601 1_555
In6_4 Y7_0 3.216858 1_555
In6_4 Y7_4 3.216858 1_555
In6_4 Y8_1 3.227287 1_555
In6_4 Y8_5 3.227287 1_555
In6_4 Y0_0 3.314123 1_555
In6_4 Y0_4 3.314123 1_555
In6_4 Y6_1 3.391999 1_555
In6_4 Y6_5 3.391999 1_555
In6_5 Pd3_5 2.995601 1_555
In6_5 Y7_5 3.216858 1_555
In6_5 Y7_1 3.216858 1_555
In6_5 Y8_0 3.227287 1_556
In6_5 Y8_4 3.227287 1_556
In6_5 Y0_1 3.314123 1_555
In6_5 Y0_5 3.314123 1_555
In6_5 Y6_0 3.391999 1_556
In6_5 Y6_4 3.391999 1_556
In6_6 Pd3_6 2.995601 1_555
In6_6 Y7_6 3.216858 1_555
In6_6 Y7_2 3.216858 1_555
In6_6 Y8_7 3.227287 1_555
In6_6 Y8_3 3.227287 1_555
In6_6 Y0_6 3.314123 1_555
In6_6 Y0_2 3.314123 1_555
In6_6 Y6_7 3.391999 1_555
In6_6 Y6_3 3.391999 1_555
In6_7 Pd3_7 2.995601 1_555
In6_7 Y7_3 3.216858 1_555
In6_7 Y7_7 3.216858 1_555
In6_7 Y8_2 3.227287 1_556
In6_7 Y8_6 3.227287 1_556
In6_7 Y0_3 3.314123 1_555
In6_7 Y0_7 3.314123 1_555
In6_7 Y6_6 3.391999 1_556
In6_7 Y6_2 3.391999 1_556
In7_0 Pd2_0 2.995601 1_555
In7_0 Y6_0 3.216858 1_555
In7_0 Y6_4 3.216858 1_455
In7_0 Y8_6 3.227287 1_455
In7_0 Y8_2 3.227287 1_555
In7_0 Y1_4 3.314123 1_455
In7_0 Y1_0 3.314123 1_555
In7_0 Y7_5 3.391999 1_454
In7_0 Y7_1 3.391999 1_554
In7_1 Pd2_1 2.995601 1_555
In7_1 Y6_5 3.216858 1_455
In7_1 Y6_1 3.216858 1_555
In7_1 Y8_3 3.227287 1_555
In7_1 Y8_7 3.227287 1_455
In7_1 Y1_5 3.314123 1_455
In7_1 Y1_1 3.314123 1_555
In7_1 Y7_4 3.391999 1_455
In7_1 Y7_0 3.391999 1_555
In7_2 Pd2_2 2.995601 1_555
In7_2 Y6_2 3.216858 1_555
In7_2 Y6_6 3.216858 1_455
In7_2 Y8_4 3.227287 1_465
In7_2 Y8_0 3.227287 1_565
In7_2 Y1_6 3.314123 1_455
In7_2 Y1_2 3.314123 1_555
In7_2 Y7_7 3.391999 1_454
In7_2 Y7_3 3.391999 1_554
In7_3 Pd2_3 2.995601 1_555
In7_3 Y6_7 3.216858 1_455
In7_3 Y6_3 3.216858 1_555
In7_3 Y8_5 3.227287 1_465
In7_3 Y8_1 3.227287 1_565
In7_3 Y1_7 3.314123 1_455
In7_3 Y1_3 3.314123 1_555
In7_3 Y7_6 3.391999 1_455
In7_3 Y7_2 3.391999 1_555
In7_4 Pd2_4 2.995601 1_555
In7_4 Y6_4 3.216858 1_555
In7_4 Y6_0 3.216858 1_555
In7_4 Y8_2 3.227287 1_555
In7_4 Y8_6 3.227287 1_555
In7_4 Y1_4 3.314123 1_555
In7_4 Y1_0 3.314123 1_555
In7_4 Y7_1 3.391999 1_554
In7_4 Y7_5 3.391999 1_554
In7_5 Pd2_5 2.995601 1_555
In7_5 Y6_1 3.216858 1_555
In7_5 Y6_5 3.216858 1_555
In7_5 Y8_3 3.227287 1_555
In7_5 Y8_7 3.227287 1_555
In7_5 Y1_5 3.314123 1_555
In7_5 Y1_1 3.314123 1_555
In7_5 Y7_4 3.391999 1_555
In7_5 Y7_0 3.391999 1_555
In7_6 Pd2_6 2.995601 1_555
In7_6 Y6_2 3.216858 1_555
In7_6 Y6_6 3.216858 1_555
In7_6 Y8_0 3.227287 1_565
In7_6 Y8_4 3.227287 1_565
In7_6 Y1_6 3.314123 1_555
In7_6 Y1_2 3.314123 1_555
In7_6 Y7_7 3.391999 1_554
In7_6 Y7_3 3.391999 1_554
In7_7 Pd2_7 2.995601 1_555
In7_7 Y6_3 3.216858 1_555
In7_7 Y6_7 3.216858 1_555
In7_7 Y8_1 3.227287 1_565
In7_7 Y8_5 3.227287 1_565
In7_7 Y1_3 3.314123 1_555
In7_7 Y1_7 3.314123 1_555
In7_7 Y7_6 3.391999 1_555
In7_7 Y7_2 3.391999 1_555
Pd0_0 Y4_4 2.845714 1_455
Pd0_0 Y4_0 2.845714 1_555
Pd0_0 Y0_0 2.963126 1_555
Pd0_0 Y0_4 2.963126 1_455
Pd0_0 Y3_6 2.968068 1_445
Pd0_0 Y3_2 2.968068 1_545
Pd0_1 Y4_1 2.845714 1_555
Pd0_1 Y4_5 2.845714 1_455
Pd0_1 Y0_5 2.963126 1_455
Pd0_1 Y0_1 2.963126 1_555
Pd0_1 Y3_3 2.968068 1_545
Pd0_1 Y3_7 2.968068 1_445
Pd0_2 Y4_6 2.845714 1_455
Pd0_2 Y4_2 2.845714 1_555
Pd0_2 Y0_2 2.963126 1_555
Pd0_2 Y0_6 2.963126 1_455
Pd0_2 Y3_4 2.968068 1_455
Pd0_2 Y3_0 2.968068 1_555
Pd0_3 Y4_7 2.845714 1_455
Pd0_3 Y4_3 2.845714 1_555
Pd0_3 Y0_7 2.963126 1_455
Pd0_3 Y0_3 2.963126 1_555
Pd0_3 Y3_1 2.968068 1_555
Pd0_3 Y3_5 2.968068 1_455
Pd0_4 Y4_0 2.845714 1_555
Pd0_4 Y4_4 2.845714 1_555
Pd0_4 Y0_0 2.963126 1_555
Pd0_4 Y0_4 2.963126 1_555
Pd0_4 Y3_6 2.968068 1_545
Pd0_4 Y3_2 2.968068 1_545
Pd0_5 Y4_5 2.845714 1_555
Pd0_5 Y4_1 2.845714 1_555
Pd0_5 Y0_1 2.963126 1_555
Pd0_5 Y0_5 2.963126 1_555
Pd0_5 Y3_3 2.968068 1_545
Pd0_5 Y3_7 2.968068 1_545
Pd0_6 Y4_6 2.845714 1_555
Pd0_6 Y4_2 2.845714 1_555
Pd0_6 Y0_6 2.963126 1_555
Pd0_6 Y0_2 2.963126 1_555
Pd0_6 Y3_4 2.968068 1_555
Pd0_6 Y3_0 2.968068 1_555
Pd0_7 Y4_7 2.845714 1_555
Pd0_7 Y4_3 2.845714 1_555
Pd0_7 Y0_3 2.963126 1_555
Pd0_7 Y0_7 2.963126 1_555
Pd0_7 Y3_1 2.968068 1_555
Pd0_7 Y3_5 2.968068 1_555
Pd1_0 Y5_4 2.845714 1_455
Pd1_0 Y5_0 2.845714 1_555
Pd1_0 Y1_4 2.963126 1_455
Pd1_0 Y1_0 2.963126 1_555
Pd1_0 Y2_6 2.968068 1_455
Pd1_0 Y2_2 2.968068 1_555
Pd1_1 Y5_1 2.845714 1_555
Pd1_1 Y5_5 2.845714 1_455
Pd1_1 Y1_5 2.963126 1_455
Pd1_1 Y1_1 2.963126 1_555
Pd1_1 Y2_7 2.968068 1_455
Pd1_1 Y2_3 2.968068 1_555
Pd1_2 Y5_6 2.845714 1_455
Pd1_2 Y5_2 2.845714 1_555
Pd1_2 Y1_2 2.963126 1_555
Pd1_2 Y1_6 2.963126 1_455
Pd1_2 Y2_4 2.968068 1_465
Pd1_2 Y2_0 2.968068 1_565
Pd1_3 Y5_3 2.845714 1_555
Pd1_3 Y5_7 2.845714 1_455
Pd1_3 Y1_3 2.963126 1_555
Pd1_3 Y1_7 2.963126 1_455
Pd1_3 Y2_5 2.968068 1_465
Pd1_3 Y2_1 2.968068 1_565
Pd1_4 Y5_4 2.845714 1_555
Pd1_4 Y5_0 2.845714 1_555
Pd1_4 Y1_4 2.963126 1_555
Pd1_4 Y1_0 2.963126 1_555
Pd1_4 Y2_2 2.968068 1_555
Pd1_4 Y2_6 2.968068 1_555
Pd1_5 Y5_1 2.845714 1_555
Pd1_5 Y5_5 2.845714 1_555
Pd1_5 Y1_5 2.963126 1_555
Pd1_5 Y1_1 2.963126 1_555
Pd1_5 Y2_7 2.968068 1_555
Pd1_5 Y2_3 2.968068 1_555
Pd1_6 Y5_6 2.845714 1_555
Pd1_6 Y5_2 2.845714 1_555
Pd1_6 Y1_2 2.963126 1_555
Pd1_6 Y1_6 2.963126 1_555
Pd1_6 Y2_0 2.968068 1_565
Pd1_6 Y2_4 2.968068 1_565
Pd1_7 Y5_3 2.845714 1_555
Pd1_7 Y5_7 2.845714 1_555
Pd1_7 Y1_3 2.963126 1_555
Pd1_7 Y1_7 2.963126 1_555
Pd1_7 Y2_5 2.968068 1_565
Pd1_7 Y2_1 2.968068 1_565
Pd2_0 Y6_0 2.845714 1_555
Pd2_0 Y6_4 2.845714 1_455
Pd2_0 Y2_4 2.963126 1_455
Pd2_0 Y2_0 2.963126 1_555
Pd2_0 Y1_0 2.968068 1_555
Pd2_0 Y1_4 2.968068 1_455
Pd2_1 Y6_1 2.845714 1_555
Pd2_1 Y6_5 2.845714 1_455
Pd2_1 Y2_5 2.963126 1_455
Pd2_1 Y2_1 2.963126 1_555
Pd2_1 Y1_5 2.968068 1_455
Pd2_1 Y1_1 2.968068 1_555
Pd2_2 Y6_6 2.845714 1_455
Pd2_2 Y6_2 2.845714 1_555
Pd2_2 Y2_6 2.963126 1_455
Pd2_2 Y2_2 2.963126 1_555
Pd2_2 Y1_2 2.968068 1_555
Pd2_2 Y1_6 2.968068 1_455
Pd2_3 Y6_3 2.845714 1_555
Pd2_3 Y6_7 2.845714 1_455
Pd2_3 Y2_7 2.963126 1_455
Pd2_3 Y2_3 2.963126 1_555
Pd2_3 Y1_3 2.968068 1_555
Pd2_3 Y1_7 2.968068 1_455
Pd2_4 Y6_4 2.845714 1_555
Pd2_4 Y6_0 2.845714 1_555
Pd2_4 Y2_0 2.963126 1_555
Pd2_4 Y2_4 2.963126 1_555
Pd2_4 Y1_0 2.968068 1_555
Pd2_4 Y1_4 2.968068 1_555
Pd2_5 Y6_1 2.845714 1_555
Pd2_5 Y6_5 2.845714 1_555
Pd2_5 Y2_1 2.963126 1_555
Pd2_5 Y2_5 2.963126 1_555
Pd2_5 Y1_1 2.968068 1_555
Pd2_5 Y1_5 2.968068 1_555
Pd2_6 Y6_2 2.845714 1_555
Pd2_6 Y6_6 2.845714 1_555
Pd2_6 Y2_2 2.963126 1_555
Pd2_6 Y2_6 2.963126 1_555
Pd2_6 Y1_2 2.968068 1_555
Pd2_6 Y1_6 2.968068 1_555
Pd2_7 Y6_3 2.845714 1_555
Pd2_7 Y6_7 2.845714 1_555
Pd2_7 Y2_3 2.963126 1_555
Pd2_7 Y2_7 2.963126 1_555
Pd2_7 Y1_7 2.968068 1_555
Pd2_7 Y1_3 2.968068 1_555
Pd3_0 Y7_0 2.845714 1_555
Pd3_0 Y7_4 2.845714 1_455
Pd3_0 Y3_4 2.963126 1_455
Pd3_0 Y3_0 2.963126 1_555
Pd3_0 Y0_4 2.968068 1_455
Pd3_0 Y0_0 2.968068 1_555
Pd3_1 Y7_5 2.845714 1_455
Pd3_1 Y7_1 2.845714 1_555
Pd3_1 Y3_5 2.963126 1_455
Pd3_1 Y3_1 2.963126 1_555
Pd3_1 Y0_1 2.968068 1_555
Pd3_1 Y0_5 2.968068 1_455
Pd3_2 Y7_2 2.845714 1_555
Pd3_2 Y7_6 2.845714 1_455
Pd3_2 Y3_2 2.963126 1_555
Pd3_2 Y3_6 2.963126 1_455
Pd3_2 Y0_2 2.968068 1_555
Pd3_2 Y0_6 2.968068 1_455
Pd3_3 Y7_7 2.845714 1_455
Pd3_3 Y7_3 2.845714 1_555
Pd3_3 Y3_3 2.963126 1_555
Pd3_3 Y3_7 2.963126 1_455
Pd3_3 Y0_7 2.968068 1_455
Pd3_3 Y0_3 2.968068 1_555
Pd3_4 Y7_0 2.845714 1_555
Pd3_4 Y7_4 2.845714 1_555
Pd3_4 Y3_0 2.963126 1_555
Pd3_4 Y3_4 2.963126 1_555
Pd3_4 Y0_4 2.968068 1_555
Pd3_4 Y0_0 2.968068 1_555
Pd3_5 Y7_1 2.845714 1_555
Pd3_5 Y7_5 2.845714 1_555
Pd3_5 Y3_5 2.963126 1_555
Pd3_5 Y3_1 2.963126 1_555
Pd3_5 Y0_1 2.968068 1_555
Pd3_5 Y0_5 2.968068 1_555
Pd3_6 Y7_6 2.845714 1_555
Pd3_6 Y7_2 2.845714 1_555
Pd3_6 Y3_6 2.963126 1_555
Pd3_6 Y3_2 2.963126 1_555
Pd3_6 Y0_2 2.968068 1_555
Pd3_6 Y0_6 2.968068 1_555
Pd3_7 Y7_3 2.845714 1_555
Pd3_7 Y7_7 2.845714 1_555
Pd3_7 Y3_3 2.963126 1_555
Pd3_7 Y3_7 2.963126 1_555
Pd3_7 Y0_7 2.968068 1_555
Pd3_7 Y0_3 2.968068 1_555
