# generated using pymatgen
data_Ni5As2
_symmetry_space_group_name_H-M   'P 1'
_cell_length_a   6.74223981
_cell_length_b   6.74223995
_cell_length_c   12.45306781
_cell_angle_alpha   90.00000000
_cell_angle_beta   90.00000000
_cell_angle_gamma   119.99999937
_symmetry_Int_Tables_number   1
_chemical_formula_structural   Ni5As2
_chemical_formula_sum   'Ni30 As12'
_cell_volume   490.24749969
_cell_formula_units_Z   6
loop_
 _symmetry_equiv_pos_site_id
 _symmetry_equiv_pos_as_xyz
  1  'x, y, z'
loop_
 _atom_site_type_symbol
 _atom_site_label
 _atom_site_symmetry_multiplicity
 _atom_site_fract_x
 _atom_site_fract_y
 _atom_site_fract_z
 _atom_site_occupancy
  Ni  Ni0  1  0.00000000  0.00000000  0.94919604  1
  Ni  Ni1  1  0.00000000  0.00000000  0.44919604  1
  Ni  Ni2  1  0.33333300  0.66666700  0.09491519  1
  Ni  Ni3  1  0.66666700  0.33333300  0.59491519  1
  Ni  Ni4  1  0.33333300  0.66666700  0.59491519  1
  Ni  Ni5  1  0.66666700  0.33333300  0.09491519  1
  Ni  Ni6  1  0.24976712  0.00000000  0.12147142  1
  Ni  Ni7  1  0.24976712  0.24976712  0.62147142  1
  Ni  Ni8  1  -0.00000000  0.75023288  0.62147142  1
  Ni  Ni9  1  0.00000000  0.24976712  0.12147142  1
  Ni  Ni10  1  0.75023288  0.75023288  0.12147142  1
  Ni  Ni11  1  0.75023288  0.00000000  0.62147142  1
  Ni  Ni12  1  0.62399567  0.00000000  0.21945640  1
  Ni  Ni13  1  0.62399567  0.62399567  0.71945540  1
  Ni  Ni14  1  0.00000000  0.37600433  0.71945540  1
  Ni  Ni15  1  -0.00000000  0.62399567  0.21945640  1
  Ni  Ni16  1  0.37600433  0.37600433  0.21945640  1
  Ni  Ni17  1  0.37600433  0.00000000  0.71945540  1
  Ni  Ni18  1  0.31105684  0.00000000  0.32905125  1
  Ni  Ni19  1  0.31105684  0.31105684  0.82905125  1
  Ni  Ni20  1  -0.00000000  0.68894316  0.82905125  1
  Ni  Ni21  1  0.00000000  0.31105684  0.32905125  1
  Ni  Ni22  1  0.68894316  0.68894316  0.32905125  1
  Ni  Ni23  1  0.68894316  0.00000000  0.82905125  1
  Ni  Ni24  1  0.62567953  0.00000000  0.43261457  1
  Ni  Ni25  1  0.62567953  0.62567953  0.93261457  1
  Ni  Ni26  1  0.00000000  0.37432047  0.93261457  1
  Ni  Ni27  1  -0.00000000  0.62567953  0.43261457  1
  Ni  Ni28  1  0.37432047  0.37432047  0.43261457  1
  Ni  Ni29  1  0.37432047  0.00000000  0.93261457  1
  As  As0  1  0.00000000  0.00000000  0.25500836  1
  As  As1  1  0.00000000  0.00000000  0.75500836  1
  As  As2  1  0.33333300  0.66666700  0.29459813  1
  As  As3  1  0.66666700  0.33333300  0.79459813  1
  As  As4  1  0.33333300  0.66666700  0.79459813  1
  As  As5  1  0.66666700  0.33333300  0.29459813  1
  As  As6  1  0.66921887  0.00000000  0.02299700  1
  As  As7  1  0.66921887  0.66921887  0.52299700  1
  As  As8  1  0.00000000  0.33078113  0.52299700  1
  As  As9  1  -0.00000000  0.66921887  0.02299700  1
  As  As10  1  0.33078113  0.33078113  0.02299700  1
  As  As11  1  0.33078113  0.00000000  0.52299700  1
loop_
_geom_bond_atom_site_label_1
_geom_bond_atom_site_label_2
_geom_bond_distance
_geom_bond_site_symmetry_2
Ni10 Ni15 2.546062 1_655
Ni10 Ni12 2.546062 1_565
Ni10 Ni16 2.802704 1_555
Ni11 Ni14 2.546056 1_655
Ni11 Ni13 2.546056 1_545
Ni11 Ni17 2.802699 1_555
Ni12 Ni18 2.512841 1_555
Ni12 Ni9 2.546062 1_655
Ni12 Ni5 2.625338 1_555
Ni12 Ni2 2.625340 1_545
Ni12 Ni24 2.654497 1_555
Ni12 Ni21 2.714976 1_655
Ni12 Ni22 2.714976 1_545
Ni12 Ni6 2.802704 1_555
Ni13 Ni19 2.512848 1_555
Ni13 Ni8 2.546056 1_655
Ni13 Ni4 2.625336 1_555
Ni13 Ni3 2.625336 1_555
Ni13 Ni25 2.654510 1_555
Ni13 Ni20 2.714982 1_655
Ni13 Ni23 2.714982 1_565
Ni13 Ni7 2.802699 1_555
Ni14 Ni20 2.512848 1_555
Ni14 Ni7 2.546056 1_555
Ni14 Ni3 2.625331 1_455
Ni14 Ni4 2.625333 1_555
Ni14 Ni26 2.654510 1_555
Ni14 Ni19 2.714982 1_555
Ni14 Ni23 2.714982 1_455
Ni14 Ni8 2.802699 1_555
Ni15 Ni21 2.512841 1_555
Ni15 Ni6 2.546062 1_565
Ni15 Ni2 2.625338 1_555
Ni15 Ni5 2.625340 1_455
Ni15 Ni27 2.654497 1_555
Ni15 Ni22 2.714976 1_455
Ni15 Ni18 2.714976 1_565
Ni15 Ni9 2.802704 1_555
Ni16 Ni22 2.512841 1_555
Ni16 Ni9 2.546062 1_555
Ni16 Ni6 2.546062 1_555
Ni16 Ni5 2.625344 1_555
Ni16 Ni2 2.625344 1_555
Ni16 Ni28 2.654497 1_555
Ni16 Ni21 2.714976 1_555
Ni16 Ni18 2.714976 1_555
Ni17 Ni23 2.512848 1_555
Ni17 Ni8 2.546056 1_545
Ni17 Ni7 2.546056 1_555
Ni17 Ni4 2.625331 1_545
Ni17 Ni3 2.625333 1_555
Ni17 Ni29 2.654510 1_555
Ni17 Ni20 2.714982 1_545
Ni17 Ni19 2.714982 1_555
As0 Ni18 2.290967 1_555
As0 Ni22 2.290967 1_445
As0 Ni21 2.290967 1_555
As0 Ni6 2.366687 1_555
As0 Ni10 2.366687 1_445
As0 Ni9 2.366687 1_555
As0 Ni1 2.418232 1_555
As0 Ni12 2.573480 1_455
As0 Ni16 2.573480 1_555
As0 Ni15 2.573480 1_545
As1 Ni23 2.290967 1_455
As1 Ni19 2.290967 1_555
As1 Ni20 2.290967 1_545
As1 Ni11 2.366687 1_455
As1 Ni7 2.366687 1_555
As1 Ni8 2.366687 1_545
As1 Ni0 2.418232 1_555
As1 Ni17 2.573482 1_555
As1 Ni13 2.573482 1_445
As1 Ni14 2.573482 1_555
As2 Ni15 2.315743 1_555
As2 Ni12 2.315745 1_565
As2 Ni16 2.315749 1_555
As2 Ni18 2.365383 1_565
As2 Ni21 2.365387 1_555
As2 Ni22 2.365390 1_555
As2 Ni2 2.486665 1_555
As2 Ni27 2.731334 1_555
As2 Ni24 2.731336 1_565
As2 Ni28 2.731339 1_555
As3 Ni14 2.315748 1_655
As3 Ni17 2.315751 1_555
As3 Ni13 2.315754 1_555
As3 Ni23 2.365383 1_555
As3 Ni20 2.365387 1_655
As3 Ni19 2.365390 1_555
As3 Ni3 2.486665 1_555
As3 Ni26 2.731334 1_655
As3 Ni29 2.731336 1_555
As3 Ni25 2.731339 1_555
As4 Ni17 2.315748 1_565
As4 Ni14 2.315751 1_555
As4 Ni13 2.315754 1_555
As4 Ni20 2.365383 1_555
As4 Ni23 2.365387 1_565
As4 Ni19 2.365390 1_555
As4 Ni4 2.486665 1_555
As4 Ni29 2.731334 1_565
As4 Ni26 2.731336 1_555
As4 Ni25 2.731339 1_555
As5 Ni12 2.315743 1_555
As5 Ni15 2.315745 1_655
As5 Ni16 2.315749 1_555
As5 Ni21 2.365383 1_655
As5 Ni18 2.365387 1_555
As5 Ni22 2.365390 1_555
As5 Ni5 2.486665 1_555
As5 Ni24 2.731334 1_555
As5 Ni27 2.731336 1_655
As5 Ni28 2.731339 1_555
As6 Ni29 2.284749 1_554
As6 Ni9 2.357505 1_655
As6 Ni10 2.357505 1_545
As6 Ni0 2.412150 1_654
As6 Ni23 2.418878 1_554
As6 Ni5 2.427328 1_555
As6 Ni2 2.427332 1_545
As6 Ni12 2.465449 1_555
As6 Ni26 2.642255 1_654
As6 Ni25 2.642255 1_544
As7 Ni28 2.284749 1_555
As7 Ni8 2.357505 1_655
As7 Ni11 2.357505 1_565
As7 Ni1 2.412150 1_665
As7 Ni22 2.418878 1_555
As7 Ni4 2.427335 1_555
As7 Ni3 2.427335 1_555
As7 Ni13 2.465437 1_555
As7 Ni27 2.642255 1_655
As7 Ni24 2.642255 1_565
As8 Ni27 2.284749 1_555
As8 Ni7 2.357505 1_555
As8 Ni11 2.357505 1_455
As8 Ni1 2.412150 1_555
As8 Ni21 2.418878 1_555
As8 Ni3 2.427328 1_455
As8 Ni4 2.427332 1_555
As8 Ni14 2.465437 1_555
As8 Ni28 2.642255 1_555
As8 Ni24 2.642255 1_455
As9 Ni26 2.284749 1_554
As9 Ni10 2.357505 1_455
As9 Ni6 2.357505 1_565
As9 Ni0 2.412150 1_564
As9 Ni20 2.418878 1_554
As9 Ni2 2.427328 1_555
As9 Ni5 2.427332 1_455
As9 Ni15 2.465449 1_555
As9 Ni25 2.642255 1_454
As9 Ni29 2.642255 1_564
As10 Ni25 2.284749 1_554
As10 Ni9 2.357505 1_555
As10 Ni6 2.357505 1_555
As10 Ni0 2.412150 1_554
As10 Ni19 2.418878 1_554
As10 Ni5 2.427335 1_555
As10 Ni2 2.427335 1_555
As10 Ni16 2.465449 1_555
As10 Ni26 2.642255 1_554
As10 Ni29 2.642255 1_554
As11 Ni24 2.284749 1_555
As11 Ni8 2.357505 1_545
As11 Ni7 2.357505 1_555
As11 Ni1 2.412150 1_555
As11 Ni18 2.418878 1_555
As11 Ni4 2.427328 1_545
As11 Ni3 2.427332 1_555
As11 Ni17 2.465437 1_555
As11 Ni27 2.642255 1_545
As11 Ni28 2.642255 1_555
