# generated using pymatgen
data_Tm
_symmetry_space_group_name_H-M   'P 1'
_cell_length_a   7.02598232
_cell_length_b   7.02597908
_cell_length_c   22.49496638
_cell_angle_alpha   90.00000000
_cell_angle_beta   90.00000000
_cell_angle_gamma   119.99998521
_symmetry_Int_Tables_number   1
_chemical_formula_structural   Tm
_chemical_formula_sum   Tm32
_cell_volume   961.67859587
_cell_formula_units_Z   32
loop_
 _symmetry_equiv_pos_site_id
 _symmetry_equiv_pos_as_xyz
  1  'x, y, z'
loop_
 _atom_site_type_symbol
 _atom_site_label
 _atom_site_symmetry_multiplicity
 _atom_site_fract_x
 _atom_site_fract_y
 _atom_site_fract_z
 _atom_site_occupancy
  Tm  Tm0_0  1  0.00000000  0.00000000  0.49998978  1
  Tm  Tm0_1  1  0.00000000  0.00000000  0.99998978  1
  Tm  Tm0_2  1  0.00000000  0.50000000  0.49998978  1
  Tm  Tm0_3  1  0.00000000  0.50000000  0.99998978  1
  Tm  Tm0_4  1  0.50000000  0.00000000  0.49998978  1
  Tm  Tm0_5  1  0.50000000  0.00000000  0.99998978  1
  Tm  Tm0_6  1  0.50000000  0.50000000  0.49998978  1
  Tm  Tm0_7  1  0.50000000  0.50000000  0.99998978  1
  Tm  Tm1_0  1  0.16666650  0.33333350  0.12500000  1
  Tm  Tm1_1  1  0.16666650  0.33333350  0.62500000  1
  Tm  Tm1_2  1  0.16666650  0.83333350  0.12500000  1
  Tm  Tm1_3  1  0.16666650  0.83333350  0.62500000  1
  Tm  Tm1_4  1  0.66666650  0.33333350  0.12500000  1
  Tm  Tm1_5  1  0.66666650  0.33333350  0.62500000  1
  Tm  Tm1_6  1  0.66666650  0.83333350  0.12500000  1
  Tm  Tm1_7  1  0.66666650  0.83333350  0.62500000  1
  Tm  Tm2_0  1  0.00000000  0.00000000  0.25001023  1
  Tm  Tm2_1  1  0.00000000  0.00000000  0.75001023  1
  Tm  Tm2_2  1  0.00000000  0.50000000  0.25001023  1
  Tm  Tm2_3  1  0.00000000  0.50000000  0.75001023  1
  Tm  Tm2_4  1  0.50000000  0.00000000  0.25001023  1
  Tm  Tm2_5  1  0.50000000  0.00000000  0.75001023  1
  Tm  Tm2_6  1  0.50000000  0.50000000  0.25001023  1
  Tm  Tm2_7  1  0.50000000  0.50000000  0.75001023  1
  Tm  Tm3_0  1  0.33333300  0.16666650  0.37500000  1
  Tm  Tm3_1  1  0.33333300  0.16666650  0.87500000  1
  Tm  Tm3_2  1  0.33333300  0.66666650  0.37500000  1
  Tm  Tm3_3  1  0.33333300  0.66666650  0.87500000  1
  Tm  Tm3_4  1  0.83333300  0.16666650  0.37500000  1
  Tm  Tm3_5  1  0.83333300  0.16666650  0.87500000  1
  Tm  Tm3_6  1  0.83333300  0.66666650  0.37500000  1
  Tm  Tm3_7  1  0.83333300  0.66666650  0.87500000  1
loop_
_geom_bond_atom_site_label_1
_geom_bond_atom_site_label_2
_geom_bond_distance
_geom_bond_site_symmetry_2
Tm0_0 Tm3_0 3.466846 1_555
Tm0_0 Tm3_6 3.466847 1_445
Tm0_0 Tm3_4 3.466847 1_455
Tm0_0 Tm1_3 3.467218 1_545
Tm0_0 Tm1_1 3.467220 1_555
Tm0_0 Tm1_7 3.467221 1_445
Tm0_0 Tm0_2 3.512990 1_555
Tm0_0 Tm0_2 3.512990 1_545
Tm0_0 Tm0_6 3.512991 1_555
Tm0_0 Tm0_6 3.512991 1_445
Tm0_0 Tm0_4 3.512991 1_555
Tm0_0 Tm0_4 3.512991 1_455
Tm0_1 Tm3_1 3.466846 1_555
Tm0_1 Tm3_7 3.466847 1_445
Tm0_1 Tm3_5 3.466847 1_455
Tm0_1 Tm1_2 3.467218 1_546
Tm0_1 Tm1_0 3.467220 1_556
Tm0_1 Tm1_6 3.467221 1_446
Tm0_1 Tm0_3 3.512990 1_555
Tm0_1 Tm0_3 3.512990 1_545
Tm0_1 Tm0_7 3.512991 1_445
Tm0_1 Tm0_7 3.512991 1_555
Tm0_1 Tm0_5 3.512991 1_555
Tm0_1 Tm0_5 3.512991 1_455
Tm0_2 Tm3_2 3.466846 1_555
Tm0_2 Tm3_4 3.466847 1_455
Tm0_2 Tm3_6 3.466847 1_455
Tm0_2 Tm1_1 3.467218 1_555
Tm0_2 Tm1_3 3.467220 1_555
Tm0_2 Tm1_5 3.467221 1_455
Tm0_2 Tm0_4 3.512991 1_565
Tm0_2 Tm0_4 3.512991 1_455
Tm0_2 Tm0_6 3.512991 1_455
Tm0_2 Tm0_6 3.512991 1_555
Tm0_3 Tm3_3 3.466846 1_555
Tm0_3 Tm3_5 3.466847 1_455
Tm0_3 Tm3_7 3.466847 1_455
Tm0_3 Tm1_0 3.467218 1_556
Tm0_3 Tm1_2 3.467220 1_556
Tm0_3 Tm1_4 3.467221 1_456
Tm0_3 Tm0_5 3.512991 1_455
Tm0_3 Tm0_5 3.512991 1_565
Tm0_3 Tm0_7 3.512991 1_555
Tm0_3 Tm0_7 3.512991 1_455
Tm0_4 Tm3_4 3.466846 1_555
Tm0_4 Tm3_2 3.466847 1_545
Tm0_4 Tm3_0 3.466847 1_555
Tm0_4 Tm1_7 3.467218 1_545
Tm0_4 Tm1_5 3.467220 1_555
Tm0_4 Tm1_3 3.467221 1_545
Tm0_4 Tm0_6 3.512990 1_555
Tm0_4 Tm0_6 3.512990 1_545
Tm0_5 Tm3_5 3.466846 1_555
Tm0_5 Tm3_3 3.466847 1_545
Tm0_5 Tm3_1 3.466847 1_555
Tm0_5 Tm1_6 3.467218 1_546
Tm0_5 Tm1_4 3.467220 1_556
Tm0_5 Tm1_2 3.467221 1_546
Tm0_5 Tm0_7 3.512990 1_545
Tm0_5 Tm0_7 3.512990 1_555
Tm0_6 Tm3_6 3.466846 1_555
Tm0_6 Tm3_0 3.466847 1_555
Tm0_6 Tm3_2 3.466847 1_555
Tm0_6 Tm1_5 3.467218 1_555
Tm0_6 Tm1_7 3.467220 1_555
Tm0_6 Tm1_1 3.467221 1_555
Tm0_7 Tm3_7 3.466846 1_555
Tm0_7 Tm3_1 3.466847 1_555
Tm0_7 Tm3_3 3.466847 1_555
Tm0_7 Tm1_4 3.467218 1_556
Tm0_7 Tm1_6 3.467220 1_556
Tm0_7 Tm1_0 3.467221 1_556
Tm1_0 Tm2_2 3.467218 1_555
Tm1_0 Tm2_0 3.467220 1_555
Tm1_0 Tm2_6 3.467221 1_555
Tm1_0 Tm1_2 3.512990 1_555
Tm1_0 Tm1_2 3.512990 1_545
Tm1_0 Tm1_6 3.512991 1_445
Tm1_0 Tm1_6 3.512991 1_555
Tm1_0 Tm1_4 3.512991 1_555
Tm1_0 Tm1_4 3.512991 1_455
Tm1_1 Tm2_3 3.467218 1_555
Tm1_1 Tm2_1 3.467220 1_555
Tm1_1 Tm2_7 3.467221 1_555
Tm1_1 Tm1_3 3.512990 1_555
Tm1_1 Tm1_3 3.512990 1_545
Tm1_1 Tm1_7 3.512991 1_445
Tm1_1 Tm1_7 3.512991 1_555
Tm1_1 Tm1_5 3.512991 1_555
Tm1_1 Tm1_5 3.512991 1_455
Tm1_2 Tm2_0 3.467218 1_565
Tm1_2 Tm2_2 3.467220 1_555
Tm1_2 Tm2_4 3.467221 1_565
Tm1_2 Tm1_4 3.512991 1_455
Tm1_2 Tm1_4 3.512991 1_565
Tm1_2 Tm1_6 3.512991 1_455
Tm1_2 Tm1_6 3.512991 1_555
Tm1_3 Tm2_1 3.467218 1_565
Tm1_3 Tm2_3 3.467220 1_555
Tm1_3 Tm2_5 3.467221 1_565
Tm1_3 Tm1_5 3.512991 1_455
Tm1_3 Tm1_5 3.512991 1_565
Tm1_3 Tm1_7 3.512991 1_455
Tm1_3 Tm1_7 3.512991 1_555
Tm1_4 Tm2_6 3.467218 1_555
Tm1_4 Tm2_4 3.467220 1_555
Tm1_4 Tm2_2 3.467221 1_655
Tm1_4 Tm1_6 3.512990 1_555
Tm1_4 Tm1_6 3.512990 1_545
Tm1_5 Tm2_7 3.467218 1_555
Tm1_5 Tm2_5 3.467220 1_555
Tm1_5 Tm2_3 3.467221 1_655
Tm1_5 Tm1_7 3.512990 1_555
Tm1_5 Tm1_7 3.512990 1_545
Tm1_6 Tm2_4 3.467218 1_565
Tm1_6 Tm2_6 3.467220 1_555
Tm1_6 Tm2_0 3.467221 1_665
Tm1_7 Tm2_5 3.467218 1_565
Tm1_7 Tm2_7 3.467220 1_555
Tm1_7 Tm2_1 3.467221 1_665
Tm2_0 Tm3_0 3.466846 1_555
Tm2_0 Tm3_6 3.466847 1_445
Tm2_0 Tm3_4 3.466847 1_455
Tm2_0 Tm2_2 3.512990 1_545
Tm2_0 Tm2_2 3.512990 1_555
Tm2_0 Tm2_6 3.512991 1_555
Tm2_0 Tm2_6 3.512991 1_445
Tm2_0 Tm2_4 3.512991 1_555
Tm2_0 Tm2_4 3.512991 1_455
Tm2_1 Tm3_1 3.466846 1_555
Tm2_1 Tm3_7 3.466847 1_445
Tm2_1 Tm3_5 3.466847 1_455
Tm2_1 Tm2_3 3.512990 1_545
Tm2_1 Tm2_3 3.512990 1_555
Tm2_1 Tm2_7 3.512991 1_445
Tm2_1 Tm2_7 3.512991 1_555
Tm2_1 Tm2_5 3.512991 1_455
Tm2_1 Tm2_5 3.512991 1_555
Tm2_2 Tm3_2 3.466846 1_555
Tm2_2 Tm3_4 3.466847 1_455
Tm2_2 Tm3_6 3.466847 1_455
Tm2_2 Tm2_4 3.512991 1_565
Tm2_2 Tm2_4 3.512991 1_455
Tm2_2 Tm2_6 3.512991 1_455
Tm2_2 Tm2_6 3.512991 1_555
Tm2_3 Tm3_3 3.466846 1_555
Tm2_3 Tm3_5 3.466847 1_455
Tm2_3 Tm3_7 3.466847 1_455
Tm2_3 Tm2_5 3.512991 1_565
Tm2_3 Tm2_5 3.512991 1_455
Tm2_3 Tm2_7 3.512991 1_455
Tm2_3 Tm2_7 3.512991 1_555
Tm2_4 Tm3_4 3.466846 1_555
Tm2_4 Tm3_2 3.466847 1_545
Tm2_4 Tm3_0 3.466847 1_555
Tm2_4 Tm2_6 3.512990 1_545
Tm2_4 Tm2_6 3.512990 1_555
Tm2_5 Tm3_5 3.466846 1_555
Tm2_5 Tm3_3 3.466847 1_545
Tm2_5 Tm3_1 3.466847 1_555
Tm2_5 Tm2_7 3.512990 1_555
Tm2_5 Tm2_7 3.512990 1_545
Tm2_6 Tm3_6 3.466846 1_555
Tm2_6 Tm3_0 3.466847 1_555
Tm2_6 Tm3_2 3.466847 1_555
Tm2_7 Tm3_7 3.466846 1_555
Tm2_7 Tm3_1 3.466847 1_555
Tm2_7 Tm3_3 3.466847 1_555
Tm3_0 Tm3_2 3.512990 1_555
Tm3_0 Tm3_2 3.512990 1_545
Tm3_0 Tm3_6 3.512991 1_445
Tm3_0 Tm3_6 3.512991 1_555
Tm3_0 Tm3_4 3.512991 1_555
Tm3_0 Tm3_4 3.512991 1_455
Tm3_1 Tm3_3 3.512990 1_555
Tm3_1 Tm3_3 3.512990 1_545
Tm3_1 Tm3_7 3.512991 1_445
Tm3_1 Tm3_7 3.512991 1_555
Tm3_1 Tm3_5 3.512991 1_555
Tm3_1 Tm3_5 3.512991 1_455
Tm3_2 Tm3_4 3.512991 1_455
Tm3_2 Tm3_4 3.512991 1_565
Tm3_2 Tm3_6 3.512991 1_555
Tm3_2 Tm3_6 3.512991 1_455
Tm3_3 Tm3_5 3.512991 1_455
Tm3_3 Tm3_5 3.512991 1_565
Tm3_3 Tm3_7 3.512991 1_555
Tm3_3 Tm3_7 3.512991 1_455
Tm3_4 Tm3_6 3.512990 1_555
Tm3_4 Tm3_6 3.512990 1_545
Tm3_5 Tm3_7 3.512990 1_555
Tm3_5 Tm3_7 3.512990 1_545
