# generated using pymatgen
data_U3(SiNi)4
_symmetry_space_group_name_H-M   'P 1'
_cell_length_a   12.07271209
_cell_length_b   12.07271209
_cell_length_c   12.07271209
_cell_angle_alpha   161.67382902
_cell_angle_beta   161.22874993
_cell_angle_gamma   26.35085615
_symmetry_Int_Tables_number   1
_chemical_formula_structural   U3(SiNi)4
_chemical_formula_sum   'U3 Si4 Ni4'
_cell_volume   177.97217364
_cell_formula_units_Z   1
loop_
 _symmetry_equiv_pos_site_id
 _symmetry_equiv_pos_as_xyz
  1  'x, y, z'
loop_
 _atom_site_type_symbol
 _atom_site_label
 _atom_site_symmetry_multiplicity
 _atom_site_fract_x
 _atom_site_fract_y
 _atom_site_fract_z
 _atom_site_occupancy
  U  U0  1  0.00000000  0.00000000  0.00000000  1
  U  U1  1  0.35369200  0.85369200  0.50000000  1
  U  U2  1  0.64630800  0.14630800  0.50000000  1
  Si  Si0  1  0.45009200  0.45009200  0.00000000  1
  Si  Si1  1  0.54990800  0.54990800  0.00000000  1
  Si  Si2  1  0.19659600  0.69659600  0.50000000  1
  Si  Si3  1  0.80340400  0.30340400  0.50000000  1
  Ni  Ni0  1  0.74975200  0.74975200  0.00000000  1
  Ni  Ni1  1  0.90125300  0.40125300  0.50000000  1
  Ni  Ni2  1  0.09874700  0.59874700  0.50000000  1
  Ni  Ni3  1  0.25024800  0.25024800  0.00000000  1
loop_
_geom_bond_atom_site_label_1
_geom_bond_atom_site_label_2
_geom_bond_distance
_geom_bond_site_symmetry_2
Si0 Si1 2.346658 1_555
Si0 U1 2.971939 1_544
Si0 U1 2.971939 1_555
Si0 U0 2.991481 1_554
Si0 U0 2.991481 1_666
Si0 U0 2.991481 1_655
Si0 U0 2.991481 1_565
Si1 U2 2.971939 1_565
Si1 U2 2.971939 1_554
Si1 U0 2.991481 1_655
Si1 U0 2.991481 1_565
Si1 U0 2.991481 1_554
Si1 U0 2.991481 1_666
Si2 U2 2.994996 1_555
Si2 U2 2.994996 1_465
Si2 U2 2.994996 1_454
Si2 U2 2.994996 1_566
Si3 U1 2.994996 1_656
Si3 U1 2.994996 1_544
Si3 U1 2.994996 1_555
Si3 U1 2.994996 1_645
Ni0 Si3 2.299367 1_554
Ni0 Si3 2.299367 1_565
Ni0 Si2 2.331929 1_655
Ni0 Si2 2.331929 1_554
Ni0 Ni3 2.751798 1_554
Ni0 Ni3 2.751798 1_666
Ni0 Ni3 2.751798 1_655
Ni0 Ni3 2.751798 1_565
Ni0 U2 3.100077 1_554
Ni0 U2 3.100077 1_565
Ni0 U1 3.138059 1_554
Ni0 U1 3.138059 1_655
Ni1 Si0 2.279150 1_656
Ni1 Si0 2.279150 1_555
Ni1 Si3 2.300414 1_555
Ni1 U1 2.970273 1_645
Ni1 U1 2.970273 1_656
Ni1 U1 2.970273 1_544
Ni1 U1 2.970273 1_555
Ni1 U0 3.014228 1_655
Ni1 U0 3.014228 1_666
Ni2 Si1 2.279150 1_556
Ni2 Si1 2.279150 1_455
Ni2 Si2 2.300414 1_555
Ni2 U2 2.970273 1_555
Ni2 U2 2.970273 1_566
Ni2 U2 2.970273 1_454
Ni2 U2 2.970273 1_465
Ni2 U0 3.014228 1_555
Ni2 U0 3.014228 1_566
Ni3 Si2 2.299367 1_544
Ni3 Si2 2.299367 1_555
Ni3 Si3 2.331929 1_454
Ni3 Si3 2.331929 1_555
Ni3 U1 3.100077 1_555
Ni3 U1 3.100077 1_544
Ni3 U2 3.138059 1_555
Ni3 U2 3.138059 1_454
