# generated using pymatgen
data_Er
_symmetry_space_group_name_H-M   'P 1'
_cell_length_a   7.17699356
_cell_length_b   7.17699281
_cell_length_c   11.01394276
_cell_angle_alpha   90.00000000
_cell_angle_beta   90.00000000
_cell_angle_gamma   119.99999371
_symmetry_Int_Tables_number   1
_chemical_formula_structural   Er
_chemical_formula_sum   Er16
_cell_volume   491.31332401
_cell_formula_units_Z   16
loop_
 _symmetry_equiv_pos_site_id
 _symmetry_equiv_pos_as_xyz
  1  'x, y, z'
loop_
 _atom_site_type_symbol
 _atom_site_label
 _atom_site_symmetry_multiplicity
 _atom_site_fract_x
 _atom_site_fract_y
 _atom_site_fract_z
 _atom_site_occupancy
  Er  Er0_0  1  0.16666650  0.33333350  0.12500000  1
  Er  Er0_1  1  0.16666650  0.33333350  0.62500000  1
  Er  Er0_2  1  0.16666650  0.83333350  0.12500000  1
  Er  Er0_3  1  0.16666650  0.83333350  0.62500000  1
  Er  Er0_4  1  0.66666650  0.33333350  0.12500000  1
  Er  Er0_5  1  0.66666650  0.33333350  0.62500000  1
  Er  Er0_6  1  0.66666650  0.83333350  0.12500000  1
  Er  Er0_7  1  0.66666650  0.83333350  0.62500000  1
  Er  Er1_0  1  0.33333350  0.16666650  0.37500000  1
  Er  Er1_1  1  0.33333350  0.16666650  0.87500000  1
  Er  Er1_2  1  0.33333350  0.66666650  0.37500000  1
  Er  Er1_3  1  0.33333350  0.66666650  0.87500000  1
  Er  Er1_4  1  0.83333350  0.16666650  0.37500000  1
  Er  Er1_5  1  0.83333350  0.16666650  0.87500000  1
  Er  Er1_6  1  0.83333350  0.66666650  0.37500000  1
  Er  Er1_7  1  0.83333350  0.66666650  0.87500000  1
loop_
_geom_bond_atom_site_label_1
_geom_bond_atom_site_label_2
_geom_bond_distance
_geom_bond_site_symmetry_2
Er0_0 Er1_3 3.445883 1_554
Er0_0 Er1_2 3.445883 1_555
Er0_0 Er1_5 3.445883 1_454
Er0_0 Er1_4 3.445883 1_455
Er0_0 Er1_0 3.445887 1_555
Er0_0 Er1_1 3.445887 1_554
Er0_0 Er0_2 3.588496 1_545
Er0_0 Er0_2 3.588496 1_555
Er0_0 Er0_4 3.588497 1_455
Er0_0 Er0_4 3.588497 1_555
Er0_0 Er0_6 3.588497 1_445
Er0_0 Er0_6 3.588497 1_555
Er0_1 Er1_2 3.445883 1_555
Er0_1 Er1_3 3.445883 1_555
Er0_1 Er1_4 3.445883 1_455
Er0_1 Er1_5 3.445883 1_455
Er0_1 Er1_0 3.445887 1_555
Er0_1 Er1_1 3.445887 1_555
Er0_1 Er0_3 3.588496 1_545
Er0_1 Er0_3 3.588496 1_555
Er0_1 Er0_5 3.588497 1_455
Er0_1 Er0_5 3.588497 1_555
Er0_1 Er0_7 3.588497 1_445
Er0_1 Er0_7 3.588497 1_555
Er0_2 Er1_1 3.445883 1_564
Er0_2 Er1_0 3.445883 1_565
Er0_2 Er1_7 3.445883 1_454
Er0_2 Er1_6 3.445883 1_455
Er0_2 Er1_3 3.445887 1_554
Er0_2 Er1_2 3.445887 1_555
Er0_2 Er0_6 3.588497 1_455
Er0_2 Er0_6 3.588497 1_555
Er0_2 Er0_4 3.588497 1_455
Er0_2 Er0_4 3.588497 1_565
Er0_3 Er1_1 3.445883 1_565
Er0_3 Er1_0 3.445883 1_565
Er0_3 Er1_7 3.445883 1_455
Er0_3 Er1_6 3.445883 1_455
Er0_3 Er1_2 3.445887 1_555
Er0_3 Er1_3 3.445887 1_555
Er0_3 Er0_7 3.588497 1_455
Er0_3 Er0_7 3.588497 1_555
Er0_3 Er0_5 3.588497 1_455
Er0_3 Er0_5 3.588497 1_565
Er0_4 Er1_7 3.445883 1_554
Er0_4 Er1_6 3.445883 1_555
Er0_4 Er1_1 3.445883 1_554
Er0_4 Er1_0 3.445883 1_555
Er0_4 Er1_5 3.445887 1_554
Er0_4 Er1_4 3.445887 1_555
Er0_4 Er0_6 3.588496 1_545
Er0_4 Er0_6 3.588496 1_555
Er0_5 Er1_7 3.445883 1_555
Er0_5 Er1_6 3.445883 1_555
Er0_5 Er1_1 3.445883 1_555
Er0_5 Er1_0 3.445883 1_555
Er0_5 Er1_4 3.445887 1_555
Er0_5 Er1_5 3.445887 1_555
Er0_5 Er0_7 3.588496 1_545
Er0_5 Er0_7 3.588496 1_555
Er0_6 Er1_5 3.445883 1_564
Er0_6 Er1_4 3.445883 1_565
Er0_6 Er1_3 3.445883 1_554
Er0_6 Er1_2 3.445883 1_555
Er0_6 Er1_6 3.445887 1_555
Er0_6 Er1_7 3.445887 1_554
Er0_7 Er1_4 3.445883 1_565
Er0_7 Er1_5 3.445883 1_565
Er0_7 Er1_3 3.445883 1_555
Er0_7 Er1_2 3.445883 1_555
Er0_7 Er1_6 3.445887 1_555
Er0_7 Er1_7 3.445887 1_555
Er1_0 Er1_2 3.588496 1_555
Er1_0 Er1_2 3.588496 1_545
Er1_0 Er1_4 3.588497 1_455
Er1_0 Er1_4 3.588497 1_555
Er1_0 Er1_6 3.588497 1_445
Er1_0 Er1_6 3.588497 1_555
Er1_1 Er1_3 3.588496 1_545
Er1_1 Er1_3 3.588496 1_555
Er1_1 Er1_5 3.588497 1_455
Er1_1 Er1_5 3.588497 1_555
Er1_1 Er1_7 3.588497 1_445
Er1_1 Er1_7 3.588497 1_555
Er1_2 Er1_6 3.588497 1_455
Er1_2 Er1_6 3.588497 1_555
Er1_2 Er1_4 3.588497 1_455
Er1_2 Er1_4 3.588497 1_565
Er1_3 Er1_7 3.588497 1_455
Er1_3 Er1_7 3.588497 1_555
Er1_3 Er1_5 3.588497 1_455
Er1_3 Er1_5 3.588497 1_565
Er1_4 Er1_6 3.588496 1_545
Er1_4 Er1_6 3.588496 1_555
Er1_5 Er1_7 3.588496 1_545
Er1_5 Er1_7 3.588496 1_555
