# generated using pymatgen
data_Nb2AsC
_symmetry_space_group_name_H-M   'P 1'
_cell_length_a   3.35724183
_cell_length_b   3.35724152
_cell_length_c   11.93195637
_cell_angle_alpha   90.00000000
_cell_angle_beta   90.00000000
_cell_angle_gamma   119.99998264
_symmetry_Int_Tables_number   1
_chemical_formula_structural   Nb2AsC
_chemical_formula_sum   'Nb4 As2 C2'
_cell_volume   116.46825697
_cell_formula_units_Z   2
loop_
 _symmetry_equiv_pos_site_id
 _symmetry_equiv_pos_as_xyz
  1  'x, y, z'
loop_
 _atom_site_type_symbol
 _atom_site_label
 _atom_site_symmetry_multiplicity
 _atom_site_fract_x
 _atom_site_fract_y
 _atom_site_fract_z
 _atom_site_occupancy
  Nb  Nb0  1  0.33333300  0.66666700  0.40533384  1
  Nb  Nb1  1  0.66666700  0.33333300  0.90533384  1
  Nb  Nb2  1  0.66666700  0.33333300  0.59466616  1
  Nb  Nb3  1  0.33333300  0.66666700  0.09466616  1
  As  As0  1  0.66666700  0.33333300  0.25000000  1
  As  As1  1  0.33333300  0.66666700  0.75000000  1
  C  C0  1  -0.00000000  -0.00000000  0.50000000  1
  C  C1  1  -0.00000000  -0.00000000  -0.00000000  1
loop_
_geom_bond_atom_site_label_1
_geom_bond_atom_site_label_2
_geom_bond_distance
_geom_bond_site_symmetry_2
As0 Nb0 2.681836 1_545
As0 Nb3 2.681836 1_545
As0 Nb0 2.681836 1_655
As0 Nb3 2.681836 1_655
As0 Nb3 2.681840 1_555
As0 Nb0 2.681840 1_555
As1 Nb2 2.681836 1_565
As1 Nb1 2.681836 1_565
As1 Nb2 2.681836 1_455
As1 Nb1 2.681836 1_455
As1 Nb2 2.681840 1_555
As1 Nb1 2.681840 1_555
C0 Nb0 2.243414 1_545
C0 Nb2 2.243414 1_455
C0 Nb2 2.243416 1_445
C0 Nb0 2.243416 1_555
C0 Nb0 2.243417 1_445
C0 Nb2 2.243417 1_555
C1 Nb3 2.243414 1_545
C1 Nb1 2.243414 1_454
C1 Nb1 2.243416 1_444
C1 Nb3 2.243416 1_555
C1 Nb1 2.243417 1_554
C1 Nb3 2.243417 1_445
