# generated using pymatgen
data_TlAuO2
_symmetry_space_group_name_H-M   'P 1'
_cell_length_a   3.47416976
_cell_length_b   3.47416989
_cell_length_c   6.57210606
_cell_angle_alpha   74.67394233
_cell_angle_beta   74.67393996
_cell_angle_gamma   59.99999580
_symmetry_Int_Tables_number   1
_chemical_formula_structural   TlAuO2
_chemical_formula_sum   'Tl1 Au1 O2'
_cell_volume   65.41925200
_cell_formula_units_Z   1
loop_
 _symmetry_equiv_pos_site_id
 _symmetry_equiv_pos_as_xyz
  1  'x, y, z'
loop_
 _atom_site_type_symbol
 _atom_site_label
 _atom_site_symmetry_multiplicity
 _atom_site_fract_x
 _atom_site_fract_y
 _atom_site_fract_z
 _atom_site_occupancy
  Tl  Tl0  1  0.50000000  0.50000000  0.50000000  1
  Au  Au0  1  0.00000000  -0.00000000  -0.00000000  1
  O  O0  1  0.89210916  0.89210916  0.32367153  1
  O  O1  1  0.10789084  0.10789084  0.67632847  1
loop_
_geom_bond_atom_site_label_1
_geom_bond_atom_site_label_2
_geom_bond_distance
_geom_bond_site_symmetry_2
Au0 O0 2.025710 1_445
Au0 O1 2.025710 1_554
O0 Tl0 2.289349 1_555
O0 Tl0 2.289351 1_565
O0 Tl0 2.289351 1_655
O1 Tl0 2.289349 1_555
O1 Tl0 2.289351 1_545
O1 Tl0 2.289351 1_455
