# generated using pymatgen
data_RhSe2
_symmetry_space_group_name_H-M   'P 1'
_cell_length_a   6.05032529
_cell_length_b   6.05032426
_cell_length_c   6.05032426
_cell_angle_alpha   89.99998049
_cell_angle_beta   90.00001951
_cell_angle_gamma   89.99996098
_symmetry_Int_Tables_number   1
_chemical_formula_structural   RhSe2
_chemical_formula_sum   'Rh4 Se8'
_cell_volume   221.48077079
_cell_formula_units_Z   4
loop_
 _symmetry_equiv_pos_site_id
 _symmetry_equiv_pos_as_xyz
  1  'x, y, z'
loop_
 _atom_site_type_symbol
 _atom_site_label
 _atom_site_symmetry_multiplicity
 _atom_site_fract_x
 _atom_site_fract_y
 _atom_site_fract_z
 _atom_site_occupancy
  Rh  Rh0  1  -0.00000000  0.50000000  0.50000000  1
  Rh  Rh1  1  0.50000000  0.50000000  0.00000000  1
  Rh  Rh2  1  0.50000000  -0.00000000  0.50000000  1
  Rh  Rh3  1  -0.00000000  -0.00000000  0.00000000  1
  Se  Se0  1  0.37727213  0.12272687  0.87727313  1
  Se  Se1  1  0.12272587  0.87727313  0.37727213  1
  Se  Se2  1  0.87727313  0.37727313  0.12272687  1
  Se  Se3  1  0.62272787  0.62272687  0.62272687  1
  Se  Se4  1  0.37727213  0.37727313  0.37727313  1
  Se  Se5  1  0.12272687  0.62272687  0.87727313  1
  Se  Se6  1  0.87727413  0.12272687  0.62272787  1
  Se  Se7  1  0.62272787  0.87727313  0.12272687  1
loop_
_geom_bond_atom_site_label_1
_geom_bond_atom_site_label_2
_geom_bond_distance
_geom_bond_site_symmetry_2
Rh0 Se4 2.512583 1_555
Rh0 Se3 2.512583 1_455
Rh0 Se5 2.512588 1_555
Rh0 Se2 2.512588 1_455
Rh0 Se1 2.512589 1_555
Rh0 Se6 2.512589 1_455
Rh1 Se2 2.512588 1_555
Rh1 Se5 2.512588 1_554
Rh1 Se3 2.512590 1_554
Rh1 Se4 2.512590 1_555
Rh1 Se7 2.512591 1_555
Rh1 Se0 2.512591 1_554
Rh2 Se3 2.512589 1_545
Rh2 Se4 2.512589 1_555
Rh2 Se0 2.512590 1_555
Rh2 Se7 2.512590 1_545
Rh2 Se6 2.512596 1_555
Rh2 Se1 2.512596 1_545
Rh3 Se1 2.512580 1_545
Rh3 Se6 2.512580 1_454
Rh3 Se0 2.512584 1_554
Rh3 Se7 2.512584 1_445
Rh3 Se5 2.512588 1_544
Rh3 Se2 2.512588 1_455
Se0 Se7 2.572231 1_546
Se1 Se6 2.572225 1_465
Se2 Se5 2.572226 1_654
Se3 Se4 2.572233 1_555
