# generated using pymatgen
data_BaNaP
_symmetry_space_group_name_H-M   'P 1'
_cell_length_a   7.96893375
_cell_length_b   7.96893417
_cell_length_c   4.69856292
_cell_angle_alpha   90.00000000
_cell_angle_beta   90.00000000
_cell_angle_gamma   119.99999820
_symmetry_Int_Tables_number   1
_chemical_formula_structural   BaNaP
_chemical_formula_sum   'Ba3 Na3 P3'
_cell_volume   258.40216157
_cell_formula_units_Z   3
loop_
 _symmetry_equiv_pos_site_id
 _symmetry_equiv_pos_as_xyz
  1  'x, y, z'
loop_
 _atom_site_type_symbol
 _atom_site_label
 _atom_site_symmetry_multiplicity
 _atom_site_fract_x
 _atom_site_fract_y
 _atom_site_fract_z
 _atom_site_occupancy
  Ba  Ba0  1  0.00000000  0.58782111  0.50000000  1
  Ba  Ba1  1  0.58782111  0.00000000  0.50000000  1
  Ba  Ba2  1  0.41217889  0.41217889  0.50000000  1
  Na  Na0  1  0.24176981  0.00000000  -0.00000000  1
  Na  Na1  1  0.75823019  0.75823019  -0.00000000  1
  Na  Na2  1  0.00000000  0.24176981  0.00000000  1
  P  P0  1  0.66666700  0.33333300  -0.00000000  1
  P  P1  1  0.00000000  0.00000000  0.50000000  1
  P  P2  1  0.33333300  0.66666700  -0.00000000  1
loop_
_geom_bond_atom_site_label_1
_geom_bond_atom_site_label_2
_geom_bond_distance
_geom_bond_site_symmetry_2
Ba0 P1 3.284626 1_565
Ba0 P2 3.361678 1_556
Ba0 P2 3.361678 1_555
Ba0 P0 3.361679 1_455
Ba0 P0 3.361679 1_456
Ba1 P1 3.284626 1_655
Ba1 P0 3.361678 1_556
Ba1 P0 3.361678 1_555
Ba1 P2 3.361679 1_545
Ba1 P2 3.361679 1_546
Ba2 P1 3.284626 1_555
Ba2 P0 3.361683 1_555
Ba2 P0 3.361683 1_556
Ba2 P2 3.361683 1_555
Ba2 P2 3.361683 1_556
Na0 P1 3.038272 1_554
Na0 P1 3.038272 1_555
Na0 P2 3.086517 1_545
Na0 P0 3.086522 1_555
Na1 P1 3.038272 1_665
Na1 P1 3.038272 1_664
Na1 P2 3.086525 1_555
Na1 P0 3.086525 1_555
Na2 P1 3.038272 1_555
Na2 P1 3.038272 1_554
Na2 P0 3.086517 1_455
Na2 P2 3.086522 1_555
