# generated using pymatgen
data_RbTbS2
_symmetry_space_group_name_H-M   'P 1'
_cell_length_a   8.01005439
_cell_length_b   8.01005439
_cell_length_c   8.01005428
_cell_angle_alpha   29.50953414
_cell_angle_beta   29.50953414
_cell_angle_gamma   29.50952497
_symmetry_Int_Tables_number   1
_chemical_formula_structural   RbTbS2
_chemical_formula_sum   'Rb1 Tb1 S2'
_cell_volume   110.37046121
_cell_formula_units_Z   1
loop_
 _symmetry_equiv_pos_site_id
 _symmetry_equiv_pos_as_xyz
  1  'x, y, z'
loop_
 _atom_site_type_symbol
 _atom_site_label
 _atom_site_symmetry_multiplicity
 _atom_site_fract_x
 _atom_site_fract_y
 _atom_site_fract_z
 _atom_site_occupancy
  Rb  Rb0  1  0.00000000  -0.00000000  -0.00000000  1
  Tb  Tb0  1  0.50000000  0.50000000  0.50000000  1
  S  S0  1  0.76902471  0.76902471  0.76902471  1
  S  S1  1  0.23097529  0.23097529  0.23097529  1
loop_
_geom_bond_atom_site_label_1
_geom_bond_atom_site_label_2
_geom_bond_distance
_geom_bond_site_symmetry_2
Rb0 S1 3.328018 1_545
Rb0 S1 3.328018 1_455
Rb0 S0 3.328018 1_454
Rb0 S0 3.328018 1_544
Rb0 S1 3.328018 1_554
Rb0 S0 3.328018 1_445
S0 Tb0 2.780372 1_655
S0 Tb0 2.780372 1_565
S0 Tb0 2.780373 1_556
S1 Tb0 2.780372 1_455
S1 Tb0 2.780372 1_545
S1 Tb0 2.780373 1_554
