# generated using pymatgen
data_RbCaCl3
_symmetry_space_group_name_H-M   'P 1'
_cell_length_a   7.50794249
_cell_length_b   7.50794249
_cell_length_c   7.50794271
_cell_angle_alpha   60.88403643
_cell_angle_beta   60.88403643
_cell_angle_gamma   60.88404753
_symmetry_Int_Tables_number   1
_chemical_formula_structural   RbCaCl3
_chemical_formula_sum   'Rb2 Ca2 Cl6'
_cell_volume   305.22319822
_cell_formula_units_Z   2
loop_
 _symmetry_equiv_pos_site_id
 _symmetry_equiv_pos_as_xyz
  1  'x, y, z'
loop_
 _atom_site_type_symbol
 _atom_site_label
 _atom_site_symmetry_multiplicity
 _atom_site_fract_x
 _atom_site_fract_y
 _atom_site_fract_z
 _atom_site_occupancy
  Rb  Rb0  1  0.25797985  0.25797985  0.25797985  1
  Rb  Rb1  1  0.75797985  0.75797985  0.75797985  1
  Ca  Ca0  1  0.00588517  0.00588517  0.00588517  1
  Ca  Ca1  1  0.50588517  0.50588517  0.50588517  1
  Cl  Cl0  1  0.81545948  0.25330790  0.69586661  1
  Cl  Cl1  1  0.69586661  0.81545948  0.25330790  1
  Cl  Cl2  1  0.25330790  0.69586661  0.81545948  1
  Cl  Cl3  1  0.31545948  0.19586661  0.75330790  1
  Cl  Cl4  1  0.19586661  0.75330790  0.31545948  1
  Cl  Cl5  1  0.75330790  0.31545948  0.19586661  1
loop_
_geom_bond_atom_site_label_1
_geom_bond_atom_site_label_2
_geom_bond_distance
_geom_bond_site_symmetry_2
Ca0 Cl3 2.708792 1_554
Ca0 Cl4 2.708793 1_545
Ca0 Cl5 2.708793 1_455
Ca0 Cl1 2.712692 1_445
Ca0 Cl0 2.712692 1_454
Ca0 Cl2 2.712693 1_544
Ca1 Cl1 2.708792 1_555
Ca1 Cl2 2.708793 1_555
Ca1 Cl0 2.708793 1_555
Ca1 Cl3 2.712692 1_555
Ca1 Cl5 2.712692 1_555
Ca1 Cl4 2.712693 1_555
Cl0 Rb0 3.349582 1_655
Cl0 Rb1 3.729898 1_545
Cl0 Rb1 3.833149 1_555
Cl1 Rb0 3.349582 1_565
Cl1 Rb1 3.729898 1_554
Cl1 Rb1 3.833149 1_555
Cl2 Rb0 3.349582 1_556
Cl2 Rb1 3.729898 1_455
Cl2 Rb1 3.833148 1_555
Cl3 Rb1 3.349582 1_545
Cl3 Rb0 3.729898 1_555
Cl3 Rb0 3.833149 1_556
Cl4 Rb1 3.349582 1_455
Cl4 Rb0 3.729898 1_555
Cl4 Rb0 3.833148 1_565
Cl5 Rb1 3.349582 1_554
Cl5 Rb0 3.729898 1_555
Cl5 Rb0 3.833149 1_655
