# generated using pymatgen
data_Li2Mg
_symmetry_space_group_name_H-M   'P 1'
_cell_length_a   6.58126182
_cell_length_b   15.20629278
_cell_length_c   9.80613710
_cell_angle_alpha   90.00000000
_cell_angle_beta   90.00000000
_cell_angle_gamma   77.50237049
_symmetry_Int_Tables_number   1
_chemical_formula_structural   Li2Mg
_chemical_formula_sum   'Li32 Mg16'
_cell_volume   958.11132498
_cell_formula_units_Z   16
loop_
 _symmetry_equiv_pos_site_id
 _symmetry_equiv_pos_as_xyz
  1  'x, y, z'
loop_
 _atom_site_type_symbol
 _atom_site_label
 _atom_site_symmetry_multiplicity
 _atom_site_fract_x
 _atom_site_fract_y
 _atom_site_fract_z
 _atom_site_occupancy
  Li  Li0_0  1  0.49054288  0.01891625  0.00000000  1
  Li  Li0_1  1  0.49054288  0.01891625  0.50000000  1
  Li  Li0_2  1  0.49054288  0.51891625  0.00000000  1
  Li  Li0_3  1  0.49054288  0.51891625  0.50000000  1
  Li  Li0_4  1  0.99054287  0.01891625  0.00000000  1
  Li  Li0_5  1  0.99054287  0.01891625  0.50000000  1
  Li  Li0_6  1  0.99054287  0.51891625  0.00000000  1
  Li  Li0_7  1  0.99054287  0.51891625  0.50000000  1
  Li  Li1_0  1  0.32103779  0.35792641  0.00000000  1
  Li  Li1_1  1  0.32103779  0.35792641  0.50000000  1
  Li  Li1_2  1  0.32103779  0.85792641  0.00000000  1
  Li  Li1_3  1  0.32103779  0.85792641  0.50000000  1
  Li  Li1_4  1  0.82103779  0.35792641  0.00000000  1
  Li  Li1_5  1  0.82103779  0.35792641  0.50000000  1
  Li  Li1_6  1  0.82103779  0.85792641  0.00000000  1
  Li  Li1_7  1  0.82103779  0.85792641  0.50000000  1
  Li  Li2_0  1  0.39834713  0.20330625  0.25000050  1
  Li  Li2_1  1  0.39834713  0.20330625  0.75000050  1
  Li  Li2_2  1  0.39834713  0.70330625  0.25000050  1
  Li  Li2_3  1  0.39834713  0.70330625  0.75000050  1
  Li  Li2_4  1  0.89834713  0.20330625  0.25000050  1
  Li  Li2_5  1  0.89834713  0.20330625  0.75000050  1
  Li  Li2_6  1  0.89834713  0.70330625  0.25000050  1
  Li  Li2_7  1  0.89834713  0.70330625  0.75000050  1
  Li  Li3_0  1  0.06785221  0.36429608  0.25000050  1
  Li  Li3_1  1  0.06785221  0.36429608  0.75000050  1
  Li  Li3_2  1  0.06785221  0.86429608  0.25000050  1
  Li  Li3_3  1  0.06785221  0.86429608  0.75000050  1
  Li  Li3_4  1  0.56785221  0.36429608  0.25000050  1
  Li  Li3_5  1  0.56785221  0.36429608  0.75000050  1
  Li  Li3_6  1  0.56785221  0.86429608  0.25000050  1
  Li  Li3_7  1  0.56785221  0.86429608  0.75000050  1
  Mg  Mg0_0  1  0.15596567  0.18807017  0.00000000  1
  Mg  Mg0_1  1  0.15596567  0.18807017  0.50000000  1
  Mg  Mg0_2  1  0.15596567  0.68807017  0.00000000  1
  Mg  Mg0_3  1  0.15596567  0.68807017  0.50000000  1
  Mg  Mg0_4  1  0.65596566  0.18807017  0.00000000  1
  Mg  Mg0_5  1  0.65596566  0.18807017  0.50000000  1
  Mg  Mg0_6  1  0.65596567  0.68807017  0.00000000  1
  Mg  Mg0_7  1  0.65596567  0.68807017  0.50000000  1
  Mg  Mg1_0  1  0.23292383  0.03415232  0.25000050  1
  Mg  Mg1_1  1  0.23292383  0.03415232  0.75000050  1
  Mg  Mg1_2  1  0.23292383  0.53415232  0.25000050  1
  Mg  Mg1_3  1  0.23292383  0.53415232  0.75000050  1
  Mg  Mg1_4  1  0.73292384  0.03415232  0.25000050  1
  Mg  Mg1_5  1  0.73292384  0.03415232  0.75000050  1
  Mg  Mg1_6  1  0.73292384  0.53415232  0.25000050  1
  Mg  Mg1_7  1  0.73292384  0.53415232  0.75000050  1
loop_
_geom_bond_atom_site_label_1
_geom_bond_atom_site_label_2
_geom_bond_distance
_geom_bond_site_symmetry_2
Li0_0 Li1_2 2.901622 1_545
Li0_0 Li1_6 2.901622 1_545
Li0_0 Mg1_5 2.961115 1_554
Li0_0 Mg1_1 2.961122 1_554
Li0_0 Mg1_4 2.961123 1_555
Li0_0 Mg1_0 2.961130 1_555
Li0_0 Mg0_4 3.002243 1_555
Li0_0 Mg0_0 3.002245 1_555
Li0_1 Li1_3 2.901622 1_545
Li0_1 Li1_7 2.901622 1_545
Li0_1 Mg1_4 2.961115 1_555
Li0_1 Mg1_0 2.961122 1_555
Li0_1 Mg1_5 2.961123 1_555
Li0_1 Mg1_1 2.961130 1_555
Li0_1 Mg0_5 3.002243 1_555
Li0_1 Mg0_1 3.002245 1_555
Li0_2 Li1_0 2.901622 1_555
Li0_2 Li1_4 2.901622 1_555
Li0_2 Mg1_7 2.961115 1_554
Li0_2 Mg1_3 2.961122 1_554
Li0_2 Mg1_6 2.961123 1_555
Li0_2 Mg1_2 2.961130 1_555
Li0_2 Mg0_6 3.002243 1_555
Li0_2 Mg0_2 3.002245 1_555
Li0_3 Li1_1 2.901622 1_555
Li0_3 Li1_5 2.901622 1_555
Li0_3 Mg1_6 2.961115 1_555
Li0_3 Mg1_2 2.961122 1_555
Li0_3 Mg1_7 2.961123 1_555
Li0_3 Mg1_3 2.961130 1_555
Li0_3 Mg0_7 3.002243 1_555
Li0_3 Mg0_3 3.002245 1_555
Li0_4 Li1_6 2.901622 1_545
Li0_4 Li1_2 2.901622 1_645
Li0_4 Mg1_1 2.961115 1_654
Li0_4 Mg1_5 2.961122 1_554
Li0_4 Mg1_0 2.961123 1_655
Li0_4 Mg1_4 2.961130 1_555
Li0_4 Mg0_0 3.002243 1_655
Li0_4 Mg0_4 3.002245 1_555
Li0_5 Li1_7 2.901622 1_545
Li0_5 Li1_3 2.901622 1_645
Li0_5 Mg1_0 2.961115 1_655
Li0_5 Mg1_4 2.961122 1_555
Li0_5 Mg1_1 2.961123 1_655
Li0_5 Mg1_5 2.961130 1_555
Li0_5 Mg0_1 3.002243 1_655
Li0_5 Mg0_5 3.002245 1_555
Li0_6 Li1_4 2.901622 1_555
Li0_6 Li1_0 2.901622 1_655
Li0_6 Mg1_3 2.961115 1_654
Li0_6 Mg1_7 2.961122 1_554
Li0_6 Mg1_2 2.961123 1_655
Li0_6 Mg1_6 2.961130 1_555
Li0_6 Mg0_2 3.002243 1_655
Li0_6 Mg0_6 3.002245 1_555
Li0_7 Li1_5 2.901622 1_555
Li0_7 Li1_1 2.901622 1_655
Li0_7 Mg1_2 2.961115 1_655
Li0_7 Mg1_6 2.961122 1_555
Li0_7 Mg1_3 2.961123 1_655
Li0_7 Mg1_7 2.961130 1_555
Li0_7 Mg0_3 3.002243 1_655
Li0_7 Mg0_7 3.002245 1_555
Li1_0 Li3_5 2.953978 1_554
Li1_0 Li3_1 2.953983 1_554
Li1_0 Li3_4 2.953986 1_555
Li1_0 Li3_0 2.953992 1_555
Li1_0 Mg0_4 3.010970 1_555
Li1_0 Mg0_0 3.010971 1_555
Li1_1 Li3_4 2.953978 1_555
Li1_1 Li3_0 2.953983 1_555
Li1_1 Li3_5 2.953986 1_555
Li1_1 Li3_1 2.953992 1_555
Li1_1 Mg0_5 3.010970 1_555
Li1_1 Mg0_1 3.010971 1_555
Li1_2 Li3_7 2.953978 1_554
Li1_2 Li3_3 2.953983 1_554
Li1_2 Li3_6 2.953986 1_555
Li1_2 Li3_2 2.953992 1_555
Li1_2 Mg0_6 3.010970 1_555
Li1_2 Mg0_2 3.010971 1_555
Li1_3 Li3_6 2.953978 1_555
Li1_3 Li3_2 2.953983 1_555
Li1_3 Li3_7 2.953986 1_555
Li1_3 Li3_3 2.953992 1_555
Li1_3 Mg0_7 3.010970 1_555
Li1_3 Mg0_3 3.010971 1_555
Li1_4 Li3_1 2.953978 1_654
Li1_4 Li3_5 2.953983 1_554
Li1_4 Li3_0 2.953986 1_655
Li1_4 Li3_4 2.953992 1_555
Li1_4 Mg0_0 3.010970 1_655
Li1_4 Mg0_4 3.010971 1_555
Li1_5 Li3_0 2.953978 1_655
Li1_5 Li3_4 2.953983 1_555
Li1_5 Li3_1 2.953986 1_655
Li1_5 Li3_5 2.953992 1_555
Li1_5 Mg0_1 3.010970 1_655
Li1_5 Mg0_5 3.010971 1_555
Li1_6 Li3_3 2.953978 1_654
Li1_6 Li3_7 2.953983 1_554
Li1_6 Li3_2 2.953986 1_655
Li1_6 Li3_6 2.953992 1_555
Li1_6 Mg0_2 3.010970 1_655
Li1_6 Mg0_6 3.010971 1_555
Li1_7 Li3_2 2.953978 1_655
Li1_7 Li3_6 2.953983 1_555
Li1_7 Li3_3 2.953986 1_655
Li1_7 Li3_7 2.953992 1_555
Li1_7 Mg0_3 3.010970 1_655
Li1_7 Mg0_7 3.010971 1_555
Li2_0 Li3_4 2.901622 1_555
Li2_0 Li3_0 2.901622 1_555
Li2_0 Mg0_1 2.961117 1_555
Li2_0 Mg0_5 2.961120 1_555
Li2_0 Mg0_0 2.961125 1_555
Li2_0 Mg0_4 2.961129 1_555
Li2_0 Mg1_4 3.002243 1_555
Li2_0 Mg1_0 3.002245 1_555
Li2_1 Li3_5 2.901622 1_555
Li2_1 Li3_1 2.901622 1_555
Li2_1 Mg0_0 2.961117 1_556
Li2_1 Mg0_4 2.961120 1_556
Li2_1 Mg0_1 2.961125 1_555
Li2_1 Mg0_5 2.961129 1_555
Li2_1 Mg1_5 3.002243 1_555
Li2_1 Mg1_1 3.002245 1_555
Li2_2 Li3_6 2.901622 1_555
Li2_2 Li3_2 2.901622 1_555
Li2_2 Mg0_3 2.961117 1_555
Li2_2 Mg0_7 2.961120 1_555
Li2_2 Mg0_2 2.961125 1_555
Li2_2 Mg0_6 2.961129 1_555
Li2_2 Mg1_6 3.002243 1_555
Li2_2 Mg1_2 3.002245 1_555
Li2_3 Li3_7 2.901622 1_555
Li2_3 Li3_3 2.901622 1_555
Li2_3 Mg0_2 2.961117 1_556
Li2_3 Mg0_6 2.961120 1_556
Li2_3 Mg0_3 2.961125 1_555
Li2_3 Mg0_7 2.961129 1_555
Li2_3 Mg1_7 3.002243 1_555
Li2_3 Mg1_3 3.002245 1_555
Li2_4 Li3_0 2.901622 1_655
Li2_4 Li3_4 2.901622 1_555
Li2_4 Mg0_5 2.961117 1_555
Li2_4 Mg0_1 2.961120 1_655
Li2_4 Mg0_4 2.961125 1_555
Li2_4 Mg0_0 2.961129 1_655
Li2_4 Mg1_0 3.002243 1_655
Li2_4 Mg1_4 3.002245 1_555
Li2_5 Li3_1 2.901622 1_655
Li2_5 Li3_5 2.901622 1_555
Li2_5 Mg0_4 2.961117 1_556
Li2_5 Mg0_0 2.961120 1_656
Li2_5 Mg0_5 2.961125 1_555
Li2_5 Mg0_1 2.961129 1_655
Li2_5 Mg1_1 3.002243 1_655
Li2_5 Mg1_5 3.002245 1_555
Li2_6 Li3_2 2.901622 1_655
Li2_6 Li3_6 2.901622 1_555
Li2_6 Mg0_7 2.961117 1_555
Li2_6 Mg0_3 2.961120 1_655
Li2_6 Mg0_6 2.961125 1_555
Li2_6 Mg0_2 2.961129 1_655
Li2_6 Mg1_2 3.002243 1_655
Li2_6 Mg1_6 3.002245 1_555
Li2_7 Li3_3 2.901622 1_655
Li2_7 Li3_7 2.901622 1_555
Li2_7 Mg0_6 2.961117 1_556
Li2_7 Mg0_2 2.961120 1_656
Li2_7 Mg0_7 2.961125 1_555
Li2_7 Mg0_3 2.961129 1_655
Li2_7 Mg1_3 3.002243 1_655
Li2_7 Mg1_7 3.002245 1_555
Li3_0 Mg1_2 3.010970 1_555
Li3_0 Mg1_6 3.010972 1_455
Li3_1 Mg1_3 3.010970 1_555
Li3_1 Mg1_7 3.010972 1_455
Li3_2 Mg1_0 3.010970 1_565
Li3_2 Mg1_4 3.010972 1_465
Li3_3 Mg1_1 3.010970 1_565
Li3_3 Mg1_5 3.010972 1_465
Li3_4 Mg1_6 3.010970 1_555
Li3_4 Mg1_2 3.010972 1_555
Li3_5 Mg1_7 3.010970 1_555
Li3_5 Mg1_3 3.010972 1_555
Li3_6 Mg1_4 3.010970 1_565
Li3_6 Mg1_0 3.010972 1_565
Li3_7 Mg1_5 3.010970 1_565
Li3_7 Mg1_1 3.010972 1_565
Mg0_0 Mg0_4 3.290631 1_555
Mg0_0 Mg0_4 3.290631 1_455
Mg0_0 Mg1_1 3.351343 1_554
Mg0_0 Mg1_0 3.351350 1_555
Mg0_1 Mg0_5 3.290631 1_555
Mg0_1 Mg0_5 3.290631 1_455
Mg0_1 Mg1_0 3.351343 1_555
Mg0_1 Mg1_1 3.351350 1_555
Mg0_2 Mg0_6 3.290631 1_555
Mg0_2 Mg0_6 3.290631 1_455
Mg0_2 Mg1_3 3.351343 1_554
Mg0_2 Mg1_2 3.351350 1_555
Mg0_3 Mg0_7 3.290631 1_455
Mg0_3 Mg0_7 3.290631 1_555
Mg0_3 Mg1_2 3.351343 1_555
Mg0_3 Mg1_3 3.351350 1_555
Mg0_4 Mg1_5 3.351343 1_554
Mg0_4 Mg1_4 3.351350 1_555
Mg0_5 Mg1_4 3.351343 1_555
Mg0_5 Mg1_5 3.351350 1_555
Mg0_6 Mg1_7 3.351343 1_554
Mg0_6 Mg1_6 3.351350 1_555
Mg0_7 Mg1_6 3.351343 1_555
Mg0_7 Mg1_7 3.351350 1_555
Mg1_0 Mg1_4 3.290631 1_555
Mg1_0 Mg1_4 3.290631 1_455
Mg1_1 Mg1_5 3.290631 1_455
Mg1_1 Mg1_5 3.290631 1_555
Mg1_2 Mg1_6 3.290631 1_455
Mg1_2 Mg1_6 3.290631 1_555
Mg1_3 Mg1_7 3.290631 1_455
Mg1_3 Mg1_7 3.290631 1_555
