# generated using pymatgen
data_VRh
_symmetry_space_group_name_H-M   'P 1'
_cell_length_a   8.82641108
_cell_length_b   8.82641108
_cell_length_c   5.58444574
_cell_angle_alpha   90.00000000
_cell_angle_beta   90.00000000
_cell_angle_gamma   81.24715881
_symmetry_Int_Tables_number   1
_chemical_formula_structural   VRh
_chemical_formula_sum   'V16 Rh16'
_cell_volume   429.99250529
_cell_formula_units_Z   16
loop_
 _symmetry_equiv_pos_site_id
 _symmetry_equiv_pos_as_xyz
  1  'x, y, z'
loop_
 _atom_site_type_symbol
 _atom_site_label
 _atom_site_symmetry_multiplicity
 _atom_site_fract_x
 _atom_site_fract_y
 _atom_site_fract_z
 _atom_site_occupancy
  V  V0_0  1  0.14813944  0.35186005  0.00000000  1
  V  V0_1  1  0.14813944  0.35186005  0.50000000  1
  V  V0_2  1  0.14813944  0.85186005  0.00000000  1
  V  V0_3  1  0.14813944  0.85186005  0.50000000  1
  V  V0_4  1  0.64813944  0.35186006  0.00000000  1
  V  V0_5  1  0.64813944  0.35186006  0.50000000  1
  V  V0_6  1  0.64813944  0.85186005  0.00000000  1
  V  V0_7  1  0.64813944  0.85186005  0.50000000  1
  V  V1_0  1  0.35186006  0.14813945  0.00000000  1
  V  V1_1  1  0.35186006  0.14813945  0.50000000  1
  V  V1_2  1  0.35186005  0.64813944  0.00000000  1
  V  V1_3  1  0.35186005  0.64813944  0.50000000  1
  V  V1_4  1  0.85186005  0.14813944  0.00000000  1
  V  V1_5  1  0.85186005  0.14813944  0.50000000  1
  V  V1_6  1  0.85186005  0.64813944  0.00000000  1
  V  V1_7  1  0.85186005  0.64813944  0.50000000  1
  Rh  Rh0_0  1  0.10797276  0.10797276  0.25000000  1
  Rh  Rh0_1  1  0.10797276  0.10797276  0.75000000  1
  Rh  Rh0_2  1  0.10797276  0.60797276  0.25000000  1
  Rh  Rh0_3  1  0.10797276  0.60797276  0.75000000  1
  Rh  Rh0_4  1  0.60797276  0.10797276  0.25000000  1
  Rh  Rh0_5  1  0.60797276  0.10797276  0.75000000  1
  Rh  Rh0_6  1  0.60797276  0.60797276  0.25000000  1
  Rh  Rh0_7  1  0.60797276  0.60797276  0.75000000  1
  Rh  Rh1_0  1  0.39202774  0.39202774  0.25000000  1
  Rh  Rh1_1  1  0.39202774  0.39202774  0.75000000  1
  Rh  Rh1_2  1  0.39202774  0.89202774  0.25000000  1
  Rh  Rh1_3  1  0.39202774  0.89202774  0.75000000  1
  Rh  Rh1_4  1  0.89202774  0.39202774  0.25000000  1
  Rh  Rh1_5  1  0.89202774  0.39202774  0.75000000  1
  Rh  Rh1_6  1  0.89202774  0.89202774  0.25000000  1
  Rh  Rh1_7  1  0.89202774  0.89202774  0.75000000  1
loop_
_geom_bond_atom_site_label_1
_geom_bond_atom_site_label_2
_geom_bond_distance
_geom_bond_site_symmetry_2
V0_0 V1_0 2.341466 1_555
V0_0 V0_1 2.792223 1_555
V0_0 V0_1 2.792223 1_554
V0_1 V1_1 2.341466 1_555
V0_2 V1_2 2.341466 1_555
V0_2 V0_3 2.792223 1_555
V0_2 V0_3 2.792223 1_554
V0_3 V1_3 2.341466 1_555
V0_4 V1_4 2.341466 1_555
V0_4 V0_5 2.792223 1_555
V0_4 V0_5 2.792223 1_554
V0_5 V1_5 2.341466 1_555
V0_6 V1_6 2.341466 1_555
V0_6 V0_7 2.792223 1_555
V0_6 V0_7 2.792223 1_554
V0_7 V1_7 2.341466 1_555
V1_0 V1_1 2.792223 1_555
V1_0 V1_1 2.792223 1_554
V1_2 V1_3 2.792223 1_555
V1_2 V1_3 2.792223 1_554
V1_4 V1_5 2.792223 1_555
V1_4 V1_5 2.792223 1_554
V1_6 V1_7 2.792223 1_555
V1_6 V1_7 2.792223 1_554
Rh0_0 V0_0 2.634575 1_555
Rh0_0 V0_1 2.634575 1_555
Rh0_0 V1_0 2.634575 1_555
Rh0_0 V1_1 2.634575 1_555
Rh0_0 V1_5 2.634581 1_455
Rh0_0 V1_4 2.634581 1_455
Rh0_0 V0_3 2.634581 1_545
Rh0_0 V0_2 2.634581 1_545
Rh0_0 Rh0_1 2.792223 1_555
Rh0_0 Rh0_1 2.792223 1_554
Rh0_0 Rh1_6 2.893351 1_445
Rh0_0 Rh1_2 2.909382 1_545
Rh0_0 Rh1_4 2.909382 1_455
Rh0_1 V0_1 2.634575 1_555
Rh0_1 V0_0 2.634575 1_556
Rh0_1 V1_0 2.634575 1_556
Rh0_1 V1_1 2.634575 1_555
Rh0_1 V1_5 2.634581 1_455
Rh0_1 V1_4 2.634581 1_456
Rh0_1 V0_2 2.634581 1_546
Rh0_1 V0_3 2.634581 1_545
Rh0_1 Rh1_7 2.893351 1_445
Rh0_1 Rh1_3 2.909382 1_545
Rh0_1 Rh1_5 2.909382 1_455
Rh0_2 V0_3 2.634575 1_555
Rh0_2 V0_2 2.634575 1_555
Rh0_2 V1_2 2.634575 1_555
Rh0_2 V1_3 2.634575 1_555
Rh0_2 V1_6 2.634581 1_455
Rh0_2 V1_7 2.634581 1_455
Rh0_2 V0_0 2.634581 1_555
Rh0_2 V0_1 2.634581 1_555
Rh0_2 Rh0_3 2.792223 1_554
Rh0_2 Rh0_3 2.792223 1_555
Rh0_2 Rh1_4 2.893351 1_455
Rh0_2 Rh1_0 2.909382 1_555
Rh0_2 Rh1_6 2.909382 1_455
Rh0_3 V0_2 2.634575 1_556
Rh0_3 V0_3 2.634575 1_555
Rh0_3 V1_2 2.634575 1_556
Rh0_3 V1_3 2.634575 1_555
Rh0_3 V1_6 2.634581 1_456
Rh0_3 V1_7 2.634581 1_455
Rh0_3 V0_1 2.634581 1_555
Rh0_3 V0_0 2.634581 1_556
Rh0_3 Rh1_5 2.893351 1_455
Rh0_3 Rh1_1 2.909382 1_555
Rh0_3 Rh1_7 2.909382 1_455
Rh0_4 V0_5 2.634575 1_555
Rh0_4 V0_4 2.634575 1_555
Rh0_4 V1_4 2.634575 1_555
Rh0_4 V1_5 2.634575 1_555
Rh0_4 V1_1 2.634581 1_555
Rh0_4 V1_0 2.634581 1_555
Rh0_4 V0_6 2.634581 1_545
Rh0_4 V0_7 2.634581 1_545
Rh0_4 Rh0_5 2.792223 1_554
Rh0_4 Rh0_5 2.792223 1_555
Rh0_4 Rh1_2 2.893351 1_545
Rh0_4 Rh1_0 2.909382 1_555
Rh0_4 Rh1_6 2.909382 1_545
Rh0_5 V0_4 2.634575 1_556
Rh0_5 V1_4 2.634575 1_556
Rh0_5 V0_5 2.634575 1_555
Rh0_5 V1_5 2.634575 1_555
Rh0_5 V1_1 2.634581 1_555
Rh0_5 V1_0 2.634581 1_556
Rh0_5 V0_7 2.634581 1_545
Rh0_5 V0_6 2.634581 1_546
Rh0_5 Rh1_3 2.893351 1_545
Rh0_5 Rh1_1 2.909382 1_555
Rh0_5 Rh1_7 2.909382 1_545
Rh0_6 V0_7 2.634575 1_555
Rh0_6 V0_6 2.634575 1_555
Rh0_6 V1_7 2.634575 1_555
Rh0_6 V1_6 2.634575 1_555
Rh0_6 V0_5 2.634581 1_555
Rh0_6 V0_4 2.634581 1_555
Rh0_6 V1_3 2.634581 1_555
Rh0_6 V1_2 2.634581 1_555
Rh0_6 Rh0_7 2.792223 1_555
Rh0_6 Rh0_7 2.792223 1_554
Rh0_6 Rh1_0 2.893351 1_555
Rh0_6 Rh1_4 2.909382 1_555
Rh0_6 Rh1_2 2.909382 1_555
Rh0_7 V0_6 2.634575 1_556
Rh0_7 V0_7 2.634575 1_555
Rh0_7 V1_6 2.634575 1_556
Rh0_7 V1_7 2.634575 1_555
Rh0_7 V0_4 2.634581 1_556
Rh0_7 V1_2 2.634581 1_556
Rh0_7 V0_5 2.634581 1_555
Rh0_7 V1_3 2.634581 1_555
Rh0_7 Rh1_1 2.893351 1_555
Rh0_7 Rh1_5 2.909382 1_555
Rh0_7 Rh1_3 2.909382 1_555
Rh1_0 V1_2 2.634574 1_555
Rh1_0 V1_3 2.634574 1_555
Rh1_0 V0_4 2.634574 1_555
Rh1_0 V0_5 2.634574 1_555
Rh1_0 V0_0 2.634585 1_555
Rh1_0 V0_1 2.634585 1_555
Rh1_0 V1_0 2.634585 1_555
Rh1_0 V1_1 2.634585 1_555
Rh1_0 Rh1_1 2.792223 1_555
Rh1_0 Rh1_1 2.792223 1_554
Rh1_1 V1_2 2.634574 1_556
Rh1_1 V1_3 2.634574 1_555
Rh1_1 V0_4 2.634574 1_556
Rh1_1 V0_5 2.634574 1_555
Rh1_1 V0_1 2.634585 1_555
Rh1_1 V0_0 2.634585 1_556
Rh1_1 V1_1 2.634585 1_555
Rh1_1 V1_0 2.634585 1_556
Rh1_2 V1_1 2.634574 1_565
Rh1_2 V0_7 2.634574 1_555
Rh1_2 V0_6 2.634574 1_555
Rh1_2 V1_0 2.634574 1_565
Rh1_2 V1_3 2.634585 1_555
Rh1_2 V1_2 2.634585 1_555
Rh1_2 V0_3 2.634585 1_555
Rh1_2 V0_2 2.634585 1_555
Rh1_2 Rh1_3 2.792223 1_554
Rh1_2 Rh1_3 2.792223 1_555
Rh1_3 V1_1 2.634574 1_565
Rh1_3 V0_7 2.634574 1_555
Rh1_3 V0_6 2.634574 1_556
Rh1_3 V1_0 2.634574 1_566
Rh1_3 V0_3 2.634585 1_555
Rh1_3 V0_2 2.634585 1_556
Rh1_3 V1_2 2.634585 1_556
Rh1_3 V1_3 2.634585 1_555
Rh1_4 V1_6 2.634574 1_555
Rh1_4 V1_7 2.634574 1_555
Rh1_4 V0_1 2.634574 1_655
Rh1_4 V0_0 2.634574 1_655
Rh1_4 V0_4 2.634585 1_555
Rh1_4 V0_5 2.634585 1_555
Rh1_4 V1_4 2.634585 1_555
Rh1_4 V1_5 2.634585 1_555
Rh1_4 Rh1_5 2.792223 1_554
Rh1_4 Rh1_5 2.792223 1_555
Rh1_5 V1_6 2.634574 1_556
Rh1_5 V1_7 2.634574 1_555
Rh1_5 V0_1 2.634574 1_655
Rh1_5 V0_0 2.634574 1_656
Rh1_5 V1_4 2.634585 1_556
Rh1_5 V1_5 2.634585 1_555
Rh1_5 V0_5 2.634585 1_555
Rh1_5 V0_4 2.634585 1_556
Rh1_6 V1_5 2.634574 1_565
Rh1_6 V1_4 2.634574 1_565
Rh1_6 V0_2 2.634574 1_655
Rh1_6 V0_3 2.634574 1_655
Rh1_6 V0_7 2.634585 1_555
Rh1_6 V1_6 2.634585 1_555
Rh1_6 V0_6 2.634585 1_555
Rh1_6 V1_7 2.634585 1_555
Rh1_6 Rh1_7 2.792223 1_555
Rh1_6 Rh1_7 2.792223 1_554
Rh1_7 V1_4 2.634574 1_566
Rh1_7 V1_5 2.634574 1_565
Rh1_7 V0_2 2.634574 1_656
Rh1_7 V0_3 2.634574 1_655
Rh1_7 V1_6 2.634585 1_556
Rh1_7 V0_6 2.634585 1_556
Rh1_7 V0_7 2.634585 1_555
Rh1_7 V1_7 2.634585 1_555
