# generated using pymatgen
data_SiC
_symmetry_space_group_name_H-M   'P 1'
_cell_length_a   17.70033064
_cell_length_b   17.70033064
_cell_length_c   17.70033138
_cell_angle_alpha   9.97288938
_cell_angle_beta   9.97288938
_cell_angle_gamma   9.97289194
_symmetry_Int_Tables_number   1
_chemical_formula_structural   SiC
_chemical_formula_sum   'Si7 C7'
_cell_volume   144.40303730
_cell_formula_units_Z   7
loop_
 _symmetry_equiv_pos_site_id
 _symmetry_equiv_pos_as_xyz
  1  'x, y, z'
loop_
 _atom_site_type_symbol
 _atom_site_label
 _atom_site_symmetry_multiplicity
 _atom_site_fract_x
 _atom_site_fract_y
 _atom_site_fract_z
 _atom_site_occupancy
  Si  Si0  1  0.80953000  0.80953000  0.80953000  1
  Si  Si1  1  0.71422985  0.71422985  0.71422985  1
  Si  Si2  1  0.57142720  0.57142720  0.57142720  1
  Si  Si3  1  0.42855255  0.42855255  0.42855255  1
  Si  Si4  1  0.28573816  0.28573816  0.28573816  1
  Si  Si5  1  0.19043752  0.19043752  0.19043752  1
  Si  Si6  1  0.99998494  0.99998494  0.99998494  1
  C  C0  1  0.84524169  0.84524169  0.84524169  1
  C  C1  1  0.74993787  0.74993787  0.74993787  1
  C  C2  1  0.60724316  0.60724316  0.60724316  1
  C  C3  1  0.46436822  0.46436822  0.46436822  1
  C  C4  1  0.32145026  0.32145026  0.32145026  1
  C  C5  1  0.22614445  0.22614445  0.22614445  1
  C  C6  1  0.03570913  0.03570913  0.03570913  1
loop_
_geom_bond_atom_site_label_1
_geom_bond_atom_site_label_2
_geom_bond_distance
_geom_bond_site_symmetry_2
C0 Si5 1.883832 1_665
C0 Si5 1.883832 1_566
C0 Si5 1.883832 1_656
C0 Si0 1.886751 1_555
C1 Si3 1.885340 1_556
C1 Si3 1.885340 1_655
C1 Si3 1.885340 1_565
C1 Si1 1.886557 1_555
C2 Si4 1.883232 1_556
C2 Si4 1.883232 1_655
C2 Si4 1.883232 1_565
C2 Si2 1.892260 1_555
C3 Si0 1.883234 1_554
C3 Si0 1.883235 1_455
C3 Si0 1.883235 1_545
C3 Si3 1.892244 1_555
C4 Si6 1.883929 1_445
C4 Si6 1.883929 1_544
C4 Si6 1.883929 1_454
C4 Si4 1.886772 1_555
C5 Si2 1.885364 1_554
C5 Si2 1.885365 1_545
C5 Si2 1.885365 1_455
C5 Si5 1.886499 1_555
C6 Si1 1.883684 1_445
C6 Si1 1.883684 1_454
C6 Si1 1.883684 1_544
C6 Si6 1.887411 1_444
