# generated using pymatgen
data_SrTePd
_symmetry_space_group_name_H-M   'P 1'
_cell_length_a   4.89759551
_cell_length_b   4.89759551
_cell_length_c   4.89759551
_cell_angle_alpha   60.00000000
_cell_angle_beta   60.00000000
_cell_angle_gamma   60.00000000
_symmetry_Int_Tables_number   1
_chemical_formula_structural   SrTePd
_chemical_formula_sum   'Sr1 Te1 Pd1'
_cell_volume   83.06799838
_cell_formula_units_Z   1
loop_
 _symmetry_equiv_pos_site_id
 _symmetry_equiv_pos_as_xyz
  1  'x, y, z'
loop_
 _atom_site_type_symbol
 _atom_site_label
 _atom_site_symmetry_multiplicity
 _atom_site_fract_x
 _atom_site_fract_y
 _atom_site_fract_z
 _atom_site_occupancy
  Sr  Sr0  1  0.00000000  0.00000000  0.00000000  1
  Te  Te0  1  0.50000000  0.50000000  0.50000000  1
  Pd  Pd0  1  0.75000000  0.75000000  0.75000000  1
loop_
_geom_bond_atom_site_label_1
_geom_bond_atom_site_label_2
_geom_bond_distance
_geom_bond_site_symmetry_2
Sr0 Te0 3.463123 1_454
Sr0 Te0 3.463123 1_445
Sr0 Te0 3.463123 1_545
Sr0 Te0 3.463123 1_554
Sr0 Te0 3.463123 1_455
Sr0 Te0 3.463123 1_544
Pd0 Te0 2.999152 1_555
Pd0 Sr0 2.999152 1_665
Pd0 Sr0 2.999152 1_666
Pd0 Te0 2.999152 1_556
Pd0 Sr0 2.999152 1_656
Pd0 Te0 2.999152 1_655
Pd0 Te0 2.999152 1_565
Pd0 Sr0 2.999152 1_566
