# generated using pymatgen
data_Ho2Co3Si5
_symmetry_space_group_name_H-M   'P 1'
_cell_length_a   7.81196144
_cell_length_b   7.81189333
_cell_length_c   7.81855263
_cell_angle_alpha   138.83786063
_cell_angle_beta   105.94842214
_cell_angle_gamma   88.36768673
_symmetry_Int_Tables_number   1
_chemical_formula_structural   Ho2Co3Si5
_chemical_formula_sum   'Ho4 Co6 Si10'
_cell_volume   289.71700971
_cell_formula_units_Z   2
loop_
 _symmetry_equiv_pos_site_id
 _symmetry_equiv_pos_as_xyz
  1  'x, y, z'
loop_
 _atom_site_type_symbol
 _atom_site_label
 _atom_site_symmetry_multiplicity
 _atom_site_fract_x
 _atom_site_fract_y
 _atom_site_fract_z
 _atom_site_occupancy
  Ho  Ho0  1  0.59966840  0.86603071  0.73388164  1
  Ho  Ho1  1  0.13211795  0.36566709  0.76607359  1
  Ho  Ho2  1  0.86796314  0.63433977  0.23399984  1
  Ho  Ho3  1  0.40026055  0.13397359  0.26604544  1
  Co  Co0  1  0.00011062  0.25016217  0.24994563  1
  Co  Co1  1  -0.00007455  0.74987276  0.75005555  1
  Co  Co2  1  0.25363540  0.86089108  0.39104550  1
  Co  Co3  1  0.53008088  0.63744259  0.89102311  1
  Co  Co4  1  0.46989042  0.36254089  0.10897292  1
  Co  Co5  1  0.74634461  0.13908963  0.60895532  1
  Si  Si0  1  0.77324598  0.02307926  0.24995495  1
  Si  Si1  1  0.22677965  0.97694997  0.75004991  1
  Si  Si2  1  0.77365812  0.52367841  0.74990637  1
  Si  Si3  1  0.94229136  0.10026031  0.84213790  1
  Si  Si4  1  0.05771261  0.89975260  0.15785978  1
  Si  Si5  1  0.49952636  0.24972773  0.75013678  1
  Si  Si6  1  0.50040058  0.75020318  0.24986087  1
  Si  Si7  1  0.74188647  0.39983449  0.34215693  1
  Si  Si8  1  0.25813425  0.60016917  0.65785462  1
  Si  Si9  1  0.22636820  0.47633460  0.25008334  1
loop_
_geom_bond_atom_site_label_1
_geom_bond_atom_site_label_2
_geom_bond_distance
_geom_bond_site_symmetry_2
Ho0 Si3 2.816125 1_565
Ho0 Si7 2.953406 1_555
Ho0 Si7 2.956469 1_566
Ho0 Si5 2.993330 1_565
Ho0 Si6 3.002127 1_555
Ho0 Si1 3.024227 1_555
Ho0 Si9 3.030713 1_555
Ho0 Si2 3.036362 1_555
Ho0 Si0 3.042873 1_566
Ho0 Si8 3.061138 1_555
Ho1 Si8 2.816952 1_555
Ho1 Si4 2.953878 1_556
Ho1 Si4 2.956257 1_545
Ho1 Si5 2.992036 1_555
Ho1 Si6 3.001978 1_556
Ho1 Si1 3.022209 1_545
Ho1 Si9 3.031365 1_556
Ho1 Si2 3.037214 1_455
Ho1 Si0 3.042246 1_455
Ho1 Si3 3.060689 1_455
Ho2 Si7 2.816758 1_555
Ho2 Si3 2.953599 1_554
Ho2 Si3 2.956013 1_565
Ho2 Si6 2.993004 1_555
Ho2 Si5 3.002941 1_554
Ho2 Si0 3.022824 1_565
Ho2 Si2 3.031990 1_554
Ho2 Si9 3.036748 1_655
Ho2 Si1 3.041757 1_655
Ho2 Si4 3.060889 1_655
Ho3 Si4 2.815824 1_545
Ho3 Si8 2.953095 1_555
Ho3 Si8 2.956196 1_544
Ho3 Si6 2.994230 1_545
Ho3 Si5 3.003026 1_555
Ho3 Si0 3.024857 1_555
Ho3 Si2 3.031324 1_555
Ho3 Si9 3.035826 1_555
Ho3 Si1 3.042369 1_544
Ho3 Si7 3.061368 1_555
Co0 Si7 2.313378 1_455
Co0 Si4 2.313953 1_545
Co0 Si3 2.314823 1_454
Co0 Si8 2.315511 1_555
Co0 Si9 2.533737 1_555
Co0 Si0 2.543062 1_455
Co0 Co1 2.747290 1_544
Co0 Co1 2.747325 1_555
Co0 Ho2 3.225573 1_455
Co0 Ho3 3.225745 1_555
Co0 Ho0 3.230871 1_444
Co0 Ho1 3.231946 1_555
Co1 Si8 2.313311 1_555
Co1 Si3 2.313867 1_465
Co1 Si4 2.314930 1_556
Co1 Si7 2.315595 1_455
Co1 Si2 2.533850 1_455
Co1 Si1 2.542951 1_555
Co1 Ho1 3.226249 1_555
Co1 Ho0 3.226463 1_455
Co1 Ho3 3.230157 1_566
Co1 Ho2 3.231272 1_455
Co2 Si4 2.243239 1_555
Co2 Si9 2.281879 1_555
Co2 Si1 2.285974 1_555
Co2 Si6 2.306413 1_555
Co2 Si5 2.308002 1_565
Co2 Ho2 2.952277 1_455
Co2 Ho1 2.990170 1_554
Co2 Ho1 2.992504 1_565
Co3 Si8 2.242570 1_555
Co3 Si2 2.282288 1_555
Co3 Si0 2.286127 1_566
Co3 Si5 2.305891 1_555
Co3 Si6 2.307758 1_556
Co3 Ho0 2.952887 1_555
Co3 Ho3 2.990163 1_555
Co3 Ho3 2.992761 1_566
Co4 Si7 2.242834 1_555
Co4 Si9 2.281857 1_555
Co4 Si1 2.285752 1_544
Co4 Si6 2.305487 1_555
Co4 Si5 2.307379 1_554
Co4 Ho3 2.952344 1_555
Co4 Ho0 2.989906 1_555
Co4 Ho0 2.992536 1_544
Co5 Si3 2.243123 1_555
Co5 Si2 2.282166 1_555
Co5 Si0 2.286294 1_555
Co5 Si5 2.306803 1_555
Co5 Si6 2.308389 1_545
Co5 Ho1 2.952891 1_655
Co5 Ho2 2.990435 1_556
Co5 Ho2 2.992778 1_545
Si0 Si4 2.469384 1_645
Si0 Si7 2.470485 1_555
Si0 Si2 2.746934 1_544
Si0 Si2 2.747690 1_555
Si1 Si3 2.469515 1_465
Si1 Si8 2.470703 1_555
Si1 Si9 2.746846 1_566
Si1 Si9 2.747778 1_555
Si2 Si7 2.468980 1_555
Si2 Si4 2.470052 1_656
Si3 Si9 2.470144 1_656
Si8 Si9 2.469198 1_555
