# generated using pymatgen
data_YbU3
_symmetry_space_group_name_H-M   'P 1'
_cell_length_a   4.42595100
_cell_length_b   4.42595100
_cell_length_c   4.42595100
_cell_angle_alpha   90.00000000
_cell_angle_beta   90.00000000
_cell_angle_gamma   90.00000000
_symmetry_Int_Tables_number   1
_chemical_formula_structural   YbU3
_chemical_formula_sum   'Yb1 U3'
_cell_volume   86.70014115
_cell_formula_units_Z   1
loop_
 _symmetry_equiv_pos_site_id
 _symmetry_equiv_pos_as_xyz
  1  'x, y, z'
loop_
 _atom_site_type_symbol
 _atom_site_label
 _atom_site_symmetry_multiplicity
 _atom_site_fract_x
 _atom_site_fract_y
 _atom_site_fract_z
 _atom_site_occupancy
  Yb  Yb0  1  0.00000000  0.00000000  0.00000000  1
  U  U0  1  0.00000000  0.50000000  0.50000000  1
  U  U1  1  0.50000000  0.00000000  0.50000000  1
  U  U2  1  0.50000000  0.50000000  0.00000000  1
loop_
_geom_bond_atom_site_label_1
_geom_bond_atom_site_label_2
_geom_bond_distance
_geom_bond_site_symmetry_2
U0 U2 3.129620 1_456
U0 Yb0 3.129620 1_555
U0 Yb0 3.129620 1_556
U0 Yb0 3.129620 1_566
U0 U1 3.129620 1_565
U0 Yb0 3.129620 1_565
U0 U2 3.129620 1_455
U0 U1 3.129620 1_555
U0 U2 3.129620 1_555
U0 U2 3.129620 1_556
U0 U1 3.129620 1_465
U0 U1 3.129620 1_455
U1 Yb0 3.129620 1_555
U1 Yb0 3.129620 1_556
U1 U2 3.129620 1_545
U1 Yb0 3.129620 1_655
U1 U2 3.129620 1_546
U1 Yb0 3.129620 1_656
U1 U2 3.129620 1_555
U1 U2 3.129620 1_556
U2 Yb0 3.129620 1_555
U2 Yb0 3.129620 1_655
U2 Yb0 3.129620 1_565
U2 Yb0 3.129620 1_665
