# generated using pymatgen
data_H4C2O
_symmetry_space_group_name_H-M   'P 1'
_cell_length_a   10.76191640
_cell_length_b   10.76191640
_cell_length_c   10.76191640
_cell_angle_alpha   92.92043330
_cell_angle_beta   92.92043330
_cell_angle_gamma   153.90966607
_symmetry_Int_Tables_number   1
_chemical_formula_structural   H4C2O
_chemical_formula_sum   'H32 C16 O8'
_cell_volume   534.01890774
_cell_formula_units_Z   8
loop_
 _symmetry_equiv_pos_site_id
 _symmetry_equiv_pos_as_xyz
  1  'x, y, z'
loop_
 _atom_site_type_symbol
 _atom_site_label
 _atom_site_symmetry_multiplicity
 _atom_site_fract_x
 _atom_site_fract_y
 _atom_site_fract_z
 _atom_site_occupancy
  H  H0  1  0.51825300  0.56843500  0.17469500  1
  H  H1  1  0.39374000  0.34355800  0.82530500  1
  H  H2  1  0.81843500  0.14374000  0.55018200  1
  H  H3  1  0.59355800  0.26825300  0.44981800  1
  H  H4  1  0.73174700  0.18156500  0.32530500  1
  H  H5  1  0.85626000  0.40644200  0.67469500  1
  H  H6  1  0.43156500  0.60626000  0.94981800  1
  H  H7  1  0.65644200  0.48174700  0.05018200  1
  H  H8  1  0.19608400  0.35024600  0.20181300  1
  H  H9  1  0.14843300  0.99427000  0.79818700  1
  H  H10  1  0.60024600  0.89843300  0.65416300  1
  H  H11  1  0.24427000  0.94608400  0.34583700  1
  H  H12  1  0.05391600  0.39975400  0.29818700  1
  H  H13  1  0.10156700  0.75573000  0.70181300  1
  H  H14  1  0.64975400  0.85156700  0.84583700  1
  H  H15  1  0.00573000  0.80391600  0.15416300  1
  H  H16  1  0.27272400  0.36029200  0.41609000  1
  H  H17  1  0.94420300  0.85663400  0.58391000  1
  H  H18  1  0.61029200  0.69420300  0.58756800  1
  H  H19  1  0.10663400  0.02272400  0.41243200  1
  H  H20  1  0.97727600  0.38970800  0.08391000  1
  H  H21  1  0.30579700  0.89336600  0.91609000  1
  H  H22  1  0.63970800  0.05579700  0.91243200  1
  H  H23  1  0.14336600  0.72727600  0.08756800  1
  H  H24  1  0.21376300  0.20146600  0.18595400  1
  H  H25  1  0.01551100  0.02780900  0.81404600  1
  H  H26  1  0.45146600  0.76551100  0.48770200  1
  H  H27  1  0.27780900  0.96376300  0.51229800  1
  H  H28  1  0.03623700  0.54853400  0.31404600  1
  H  H29  1  0.23448900  0.72219100  0.68595400  1
  H  H30  1  0.79853400  0.98448900  0.01229800  1
  H  H31  1  0.97219100  0.78623700  0.98770200  1
  C  C0  1  0.44587000  0.48891400  0.36706900  1
  C  C1  1  0.12184500  0.07880100  0.63293100  1
  C  C2  1  0.73891400  0.87184500  0.54304400  1
  C  C3  1  0.32880100  0.19587000  0.45695600  1
  C  C4  1  0.80413000  0.26108600  0.13293100  1
  C  C5  1  0.12815500  0.67119900  0.86706900  1
  C  C6  1  0.51108600  0.87815500  0.95695600  1
  C  C7  1  0.92119900  0.55413000  0.04304400  1
  C  C8  1  0.33928800  0.39883000  0.22344700  1
  C  C9  1  0.17538300  0.11584100  0.77655300  1
  C  C10  1  0.64883000  0.92538300  0.55954100  1
  C  C11  1  0.36584100  0.08928800  0.44045900  1
  C  C12  1  0.91071200  0.35117000  0.27655300  1
  C  C13  1  0.07461700  0.63415900  0.72344700  1
  C  C14  1  0.60117000  0.82461700  0.94045900  1
  C  C15  1  0.88415900  0.66071200  0.05954100  1
  O  O0  1  0.68817500  0.78718800  0.40840600  1
  O  O1  1  0.37878200  0.27977000  0.59159400  1
  O  O2  1  0.03718800  0.12878200  0.59901300  1
  O  O3  1  0.52977000  0.43817500  0.40098700  1
  O  O4  1  0.56182500  0.96281200  0.09159400  1
  O  O5  1  0.87121800  0.47023000  0.90840600  1
  O  O6  1  0.21281200  0.62121800  0.90098700  1
  O  O7  1  0.72023000  0.31182500  0.09901300  1
loop_
_geom_bond_atom_site_label_1
_geom_bond_atom_site_label_2
_geom_bond_distance
_geom_bond_site_symmetry_2
C0 H16 1.099162 1_555
C0 O0 1.415235 1_555
C0 O3 1.455683 1_555
C1 H17 1.099165 1_445
C1 O1 1.415233 1_555
C1 O2 1.455673 1_555
C2 H18 1.099156 1_555
C2 O2 1.415235 1_665
C2 O0 1.455673 1_555
C3 H19 1.099162 1_555
C3 O3 1.415234 1_555
C3 O1 1.455675 1_555
C4 H20 1.099162 1_555
C4 O4 1.415235 1_545
C4 O7 1.455683 1_555
C5 H21 1.099165 1_555
C5 O5 1.415233 1_455
C5 O6 1.455673 1_555
C6 H22 1.099156 1_565
C6 O6 1.415235 1_555
C6 O4 1.455673 1_556
C7 H23 1.099162 1_655
C7 O7 1.415234 1_555
C7 O5 1.455675 1_554
C8 H24 1.096547 1_555
C8 H0 1.096548 1_555
C8 H8 1.098353 1_555
C9 H1 1.096548 1_555
C9 H25 1.096555 1_555
C9 H9 1.098363 1_545
C10 H26 1.096544 1_555
C10 H2 1.096545 1_565
C10 H10 1.098373 1_555
C11 H27 1.096547 1_545
C11 H3 1.096549 1_555
C11 H11 1.098369 1_545
C12 H28 1.096547 1_655
C12 H4 1.096548 1_555
C12 H12 1.098353 1_655
C13 H5 1.096548 1_455
C13 H29 1.096555 1_555
C13 H13 1.098363 1_555
C14 H30 1.096544 1_556
C14 H6 1.096545 1_555
C14 H14 1.098373 1_555
C15 H31 1.096547 1_554
C15 H7 1.096549 1_555
C15 H15 1.098369 1_655
