# generated using pymatgen
data_Li3Ag
_symmetry_space_group_name_H-M   'P 1'
_cell_length_a   5.75689163
_cell_length_b   5.75690215
_cell_length_c   4.60972795
_cell_angle_alpha   90.00000000
_cell_angle_beta   90.00000000
_cell_angle_gamma   120.00006351
_symmetry_Int_Tables_number   1
_chemical_formula_structural   Li3Ag
_chemical_formula_sum   'Li6 Ag2'
_cell_volume   132.30691743
_cell_formula_units_Z   2
loop_
 _symmetry_equiv_pos_site_id
 _symmetry_equiv_pos_as_xyz
  1  'x, y, z'
loop_
 _atom_site_type_symbol
 _atom_site_label
 _atom_site_symmetry_multiplicity
 _atom_site_fract_x
 _atom_site_fract_y
 _atom_site_fract_z
 _atom_site_occupancy
  Li  Li0  1  0.17312376  0.34624552  0.24999900  1
  Li  Li1  1  0.65375548  0.82687724  0.24999900  1
  Li  Li2  1  0.17312276  0.82687724  0.24999900  1
  Li  Li3  1  0.82687724  0.65375548  0.74999900  1
  Li  Li4  1  0.34624652  0.17312276  0.74999900  1
  Li  Li5  1  0.82687724  0.17312276  0.74999900  1
  Ag  Ag0  1  0.33333300  0.66666700  0.74999900  1
  Ag  Ag1  1  0.66666700  0.33333300  0.24999900  1
loop_
_geom_bond_atom_site_label_1
_geom_bond_atom_site_label_2
_geom_bond_distance
_geom_bond_site_symmetry_2
Ag0 Li2 2.804352 1_555
Ag0 Li2 2.804352 1_556
Ag0 Li0 2.804354 1_555
Ag0 Li0 2.804354 1_556
Ag0 Li1 2.804356 1_555
Ag0 Li1 2.804356 1_556
Ag0 Li4 2.879165 1_565
Ag0 Li5 2.879165 1_455
Ag0 Li3 2.879165 1_455
Ag0 Li5 2.879166 1_565
Ag0 Li3 2.879166 1_555
Ag0 Li4 2.879177 1_555
Ag1 Li4 2.804350 1_555
Ag1 Li4 2.804350 1_554
Ag1 Li5 2.804352 1_554
Ag1 Li5 2.804352 1_555
Ag1 Li3 2.804357 1_554
Ag1 Li3 2.804357 1_555
Ag1 Li0 2.879163 1_555
Ag1 Li2 2.879165 1_655
Ag1 Li2 2.879166 1_545
Ag1 Li0 2.879168 1_655
Ag1 Li1 2.879171 1_545
Ag1 Li1 2.879171 1_555
