# generated using pymatgen
data_H6C6NO
_symmetry_space_group_name_H-M   'P 1'
_cell_length_a   9.98666200
_cell_length_b   14.89876801
_cell_length_c   19.86741760
_cell_angle_alpha   90.01390902
_cell_angle_beta   90.00201297
_cell_angle_gamma   90.00164595
_symmetry_Int_Tables_number   1
_chemical_formula_structural   H6C6NO
_chemical_formula_sum   'H12 C12 N2 O2'
_cell_volume   2956.05231793
_cell_formula_units_Z   2
loop_
 _symmetry_equiv_pos_site_id
 _symmetry_equiv_pos_as_xyz
  1  'x, y, z'
loop_
 _atom_site_type_symbol
 _atom_site_label
 _atom_site_symmetry_multiplicity
 _atom_site_fract_x
 _atom_site_fract_y
 _atom_site_fract_z
 _atom_site_occupancy
  H  H0  1  0.50008600  0.57156500  0.21305000  1
  H  H1  1  0.49585800  0.36122000  0.47758200  1
  H  H2  1  0.49646200  0.36042100  0.59966000  1
  H  H3  1  0.50014000  0.65220500  0.60125700  1
  H  H4  1  0.49885500  0.65155000  0.47832300  1
  H  H5  1  0.49772700  0.58311200  0.37583600  1
  H  H6  1  0.49783000  0.43332200  0.77090900  1
  H  H7  1  0.40395700  0.38161900  0.70547800  1
  H  H8  1  0.58319000  0.37750000  0.70459200  1
  H  H9  1  0.50304400  0.57204300  0.77264000  1
  H  H10  1  0.59204800  0.62792500  0.70750800  1
  H  H11  1  0.41271000  0.62939700  0.70868600  1
  C  C0  1  0.49720000  0.50685200  0.46707800  1
  C  C1  1  0.49641700  0.42527100  0.50410900  1
  C  C2  1  0.49680500  0.42478700  0.57371600  1
  C  C3  1  0.49841400  0.50602700  0.61155900  1
  C  C4  1  0.49902300  0.58807900  0.57489100  1
  C  C5  1  0.49830700  0.58752100  0.50520700  1
  C  C6  1  0.49750700  0.51415300  0.39480500  1
  C  C7  1  0.49807900  0.44979900  0.34486100  1
  C  C8  1  0.49852300  0.35554600  0.35705800  1
  C  C9  1  0.49911200  0.47445100  0.27277700  1
  C  C10  1  0.49590700  0.41975500  0.71680900  1
  C  C11  1  0.50190700  0.58793600  0.71886800  1
  N  N0  1  0.49954000  0.50467400  0.68059300  1
  N  N1  1  0.49907100  0.27867000  0.36845000  1
  O  O0  1  0.49989000  0.42088500  0.22598800  1
  O  O1  1  0.49928000  0.56520600  0.26200900  1
loop_
_geom_bond_atom_site_label_1
_geom_bond_atom_site_label_2
_geom_bond_distance
_geom_bond_site_symmetry_2
H0 O1 0.977348 1_555
C0 C5 1.420567 1_555
C0 C1 1.420950 1_555
C0 C6 1.440022 1_555
C1 H1 1.090042 1_555
C1 C2 1.382937 1_555
C2 H2 1.088835 1_555
C3 N0 1.371726 1_555
C4 H3 1.089522 1_555
C4 C5 1.384482 1_555
C5 H4 1.093427 1_555
C6 H5 1.094431 1_555
C6 C7 1.379651 1_555
C7 C8 1.425073 1_555
C8 N1 1.167572 1_555
C9 O0 1.225041 1_555
C9 O1 1.369009 1_555
C10 H6 1.093788 1_555
C10 H8 1.102278 1_555
C10 H7 1.103008 1_555
C10 N0 1.456079 1_555
C11 H9 1.094352 1_555
C11 H11 1.102754 1_555
C11 H10 1.102870 1_555
C11 N0 1.455056 1_555
