# generated using pymatgen
data_LaTcN3
_symmetry_space_group_name_H-M   'P 1'
_cell_length_a   5.57893991
_cell_length_b   5.57893991
_cell_length_c   5.57894042
_cell_angle_alpha   60.50393108
_cell_angle_beta   60.50393108
_cell_angle_gamma   60.50392938
_symmetry_Int_Tables_number   1
_chemical_formula_structural   LaTcN3
_chemical_formula_sum   'La2 Tc2 N6'
_cell_volume   124.18184178
_cell_formula_units_Z   2
loop_
 _symmetry_equiv_pos_site_id
 _symmetry_equiv_pos_as_xyz
  1  'x, y, z'
loop_
 _atom_site_type_symbol
 _atom_site_label
 _atom_site_symmetry_multiplicity
 _atom_site_fract_x
 _atom_site_fract_y
 _atom_site_fract_z
 _atom_site_occupancy
  La  La0  1  0.75000000  0.75000000  0.75000000  1
  La  La1  1  0.25000000  0.25000000  0.25000000  1
  Tc  Tc0  1  0.00000000  0.00000000  0.00000000  1
  Tc  Tc1  1  0.50000000  0.50000000  0.50000000  1
  N  N0  1  0.70335000  0.25000000  0.79665000  1
  N  N1  1  0.29665000  0.75000000  0.20335000  1
  N  N2  1  0.75000000  0.20335000  0.29665000  1
  N  N3  1  0.79665000  0.70335000  0.25000000  1
  N  N4  1  0.20335000  0.29665000  0.75000000  1
  N  N5  1  0.25000000  0.79665000  0.70335000  1
loop_
_geom_bond_atom_site_label_1
_geom_bond_atom_site_label_2
_geom_bond_distance
_geom_bond_site_symmetry_2
La0 N4 2.548453 1_655
La0 N2 2.548453 1_565
La0 N1 2.548453 1_556
La0 N0 2.801769 1_555
La0 N5 2.801769 1_655
La0 N5 2.801769 1_555
La0 N0 2.801769 1_565
La0 N3 2.801770 1_555
La0 N3 2.801770 1_556
La0 N4 3.072927 1_565
La0 N1 3.072928 1_655
La0 N2 3.072928 1_556
La1 N3 2.548453 1_455
La1 N5 2.548453 1_545
La1 N0 2.548453 1_554
La1 N1 2.801769 1_555
La1 N2 2.801769 1_455
La1 N2 2.801769 1_555
La1 N1 2.801769 1_545
La1 N4 2.801770 1_555
La1 N4 2.801770 1_554
La1 N3 3.072927 1_545
La1 N5 3.072928 1_554
La1 N0 3.072928 1_455
N0 Tc0 1.997260 1_656
N0 Tc1 1.997260 1_555
N1 Tc0 1.997260 1_565
N1 Tc1 1.997260 1_555
N2 Tc1 1.997260 1_555
N2 Tc0 1.997260 1_655
N3 Tc0 1.997260 1_665
N3 Tc1 1.997260 1_555
N4 Tc1 1.997260 1_555
N4 Tc0 1.997260 1_556
N5 Tc1 1.997260 1_555
N5 Tc0 1.997260 1_566
