# generated using pymatgen
data_ZnCdS2
_symmetry_space_group_name_H-M   'P 1'
_cell_length_a   3.95435425
_cell_length_b   3.95435425
_cell_length_c   5.71911689
_cell_angle_alpha   90.00000000
_cell_angle_beta   90.00000000
_cell_angle_gamma   90.00000000
_symmetry_Int_Tables_number   1
_chemical_formula_structural   ZnCdS2
_chemical_formula_sum   'Zn1 Cd1 S2'
_cell_volume   89.42935918
_cell_formula_units_Z   1
loop_
 _symmetry_equiv_pos_site_id
 _symmetry_equiv_pos_as_xyz
  1  'x, y, z'
loop_
 _atom_site_type_symbol
 _atom_site_label
 _atom_site_symmetry_multiplicity
 _atom_site_fract_x
 _atom_site_fract_y
 _atom_site_fract_z
 _atom_site_occupancy
  Zn  Zn0  1  0.49999900  0.49999900  0.50000000  1
  Cd  Cd0  1  -0.00000000  -0.00000000  0.00000000  1
  S  S0  1  0.00000000  0.49999900  0.27642094  1
  S  S1  1  0.49999900  -0.00000000  0.72358006  1
loop_
_geom_bond_atom_site_label_1
_geom_bond_atom_site_label_2
_geom_bond_distance
_geom_bond_site_symmetry_2
Cd0 S1 2.531480 1_554
Cd0 S0 2.531483 1_555
Cd0 S1 2.531486 1_454
Cd0 S0 2.531489 1_545
S0 Zn0 2.354617 1_555
S0 Zn0 2.354624 1_455
S1 Zn0 2.354620 1_555
S1 Zn0 2.354627 1_545
