# generated using pymatgen
data_Sm3I
_symmetry_space_group_name_H-M   'P 1'
_cell_length_a   6.42250500
_cell_length_b   6.42250500
_cell_length_c   6.42250500
_cell_angle_alpha   135.49328437
_cell_angle_beta   135.49328437
_cell_angle_gamma   64.76470597
_symmetry_Int_Tables_number   1
_chemical_formula_structural   Sm3I
_chemical_formula_sum   'Sm3 I1'
_cell_volume   128.34132628
_cell_formula_units_Z   1
loop_
 _symmetry_equiv_pos_site_id
 _symmetry_equiv_pos_as_xyz
  1  'x, y, z'
loop_
 _atom_site_type_symbol
 _atom_site_label
 _atom_site_symmetry_multiplicity
 _atom_site_fract_x
 _atom_site_fract_y
 _atom_site_fract_z
 _atom_site_occupancy
  Sm  Sm0  1  0.75000000  0.25000000  0.50000000  1
  Sm  Sm1  1  0.25000000  0.75000000  0.50000000  1
  Sm  Sm2  1  0.50000000  0.50000000  0.00000000  1
  I  I0  1  0.00000000  0.00000000  0.00000000  1
loop_
_geom_bond_atom_site_label_1
_geom_bond_atom_site_label_2
_geom_bond_distance
_geom_bond_site_symmetry_2
I0 Sm2 3.439680 1_556
I0 Sm2 3.439680 1_444
I0 Sm2 3.439680 1_545
I0 Sm2 3.439680 1_455
I0 Sm0 3.642800 1_444
I0 Sm0 3.642800 1_454
I0 Sm1 3.642800 1_555
I0 Sm1 3.642800 1_545
I0 Sm1 3.642800 1_544
I0 Sm0 3.642800 1_455
I0 Sm0 3.642800 1_555
I0 Sm1 3.642800 1_444
