# generated using pymatgen
data_LiFeHSO5
_symmetry_space_group_name_H-M   'P 1'
_cell_length_a   5.46230889
_cell_length_b   7.34865834
_cell_length_c   9.51214263
_cell_angle_alpha   70.64558326
_cell_angle_beta   90.00000000
_cell_angle_gamma   90.00000000
_symmetry_Int_Tables_number   1
_chemical_formula_structural   LiFeHSO5
_chemical_formula_sum   'Li4 Fe4 H4 S4 O20'
_cell_volume   360.24537258
_cell_formula_units_Z   4
loop_
 _symmetry_equiv_pos_site_id
 _symmetry_equiv_pos_as_xyz
  1  'x, y, z'
loop_
 _atom_site_type_symbol
 _atom_site_label
 _atom_site_symmetry_multiplicity
 _atom_site_fract_x
 _atom_site_fract_y
 _atom_site_fract_z
 _atom_site_occupancy
  Li  Li0  1  0.42585062  0.68075405  0.08105155  1
  Li  Li1  1  0.92585062  0.81924595  0.91894845  1
  Li  Li2  1  0.57414938  0.31924595  0.91894845  1
  Li  Li3  1  0.07414938  0.18075405  0.08105155  1
  Fe  Fe0  1  0.76291642  0.87184516  0.55522654  1
  Fe  Fe1  1  0.26291642  0.62815484  0.44477346  1
  Fe  Fe2  1  0.23708358  0.12815484  0.44477346  1
  Fe  Fe3  1  0.73708358  0.37184516  0.55522654  1
  H  H0  1  0.49646848  0.40746139  0.32733644  1
  H  H1  1  0.99646848  0.09253861  0.67266356  1
  H  H2  1  0.50353152  0.59253861  0.67266356  1
  H  H3  1  0.00353152  0.90746139  0.32733644  1
  S  S0  1  0.06767058  0.51035563  0.79104489  1
  S  S1  1  0.56767058  0.98964437  0.20895511  1
  S  S2  1  0.93232942  0.48964437  0.20895511  1
  S  S3  1  0.43232942  0.01035563  0.79104489  1
  O  O0  1  0.92426518  0.12578280  0.57303766  1
  O  O1  1  0.42426518  0.37421720  0.42696234  1
  O  O2  1  0.07573482  0.87421720  0.42696234  1
  O  O3  1  0.57573482  0.62578280  0.57303766  1
  O  O4  1  0.43528938  0.96303178  0.64984739  1
  O  O5  1  0.93528938  0.53696822  0.35015261  1
  O  O6  1  0.56471062  0.03696822  0.35015261  1
  O  O7  1  0.06471062  0.46303178  0.64984739  1
  O  O8  1  0.54893830  0.20117797  0.76187502  1
  O  O9  1  0.04893830  0.29882203  0.23812498  1
  O  O10  1  0.45106170  0.79882203  0.23812498  1
  O  O11  1  0.95106170  0.70117797  0.76187502  1
  O  O12  1  0.67886757  0.48518649  0.15928317  1
  O  O13  1  0.17886757  0.01481351  0.84071683  1
  O  O14  1  0.32113243  0.51481351  0.84071683  1
  O  O15  1  0.82113243  0.98518649  0.15928317  1
  O  O16  1  0.42674445  0.13594741  0.09415672  1
  O  O17  1  0.92674445  0.36405259  0.90584328  1
  O  O18  1  0.57325555  0.86405259  0.90584328  1
  O  O19  1  0.07325555  0.63594741  0.09415672  1
loop_
_geom_bond_atom_site_label_1
_geom_bond_atom_site_label_2
_geom_bond_distance
_geom_bond_site_symmetry_2
Li0 O18 1.937086 1_554
Li0 O19 1.950939 1_555
Li0 O12 1.954586 1_555
Li0 O10 1.965544 1_555
Li1 O19 1.937086 1_656
Li1 O18 1.950939 1_555
Li1 O13 1.954586 1_665
Li1 O11 1.965544 1_555
Li2 O16 1.937086 1_556
Li2 O17 1.950939 1_555
Li2 O14 1.954586 1_555
Li2 O8 1.965544 1_555
Li3 O17 1.937086 1_454
Li3 O16 1.950939 1_555
Li3 O15 1.954586 1_445
Li3 O9 1.965544 1_555
Fe0 O3 2.034878 1_555
Fe0 O2 2.096298 1_655
Fe0 O0 2.120695 1_565
Fe0 O11 2.204302 1_555
Fe0 O4 2.204892 1_555
Fe0 O6 2.209266 1_565
Fe1 O2 2.034878 1_555
Fe1 O3 2.096298 1_555
Fe1 O1 2.120695 1_555
Fe1 O10 2.204302 1_555
Fe1 O5 2.204892 1_455
Fe1 O7 2.209266 1_555
Fe2 O1 2.034878 1_555
Fe2 O0 2.096298 1_455
Fe2 O2 2.120695 1_545
Fe2 O9 2.204302 1_555
Fe2 O6 2.204892 1_555
Fe2 O4 2.209266 1_545
Fe3 O0 2.034878 1_555
Fe3 O1 2.096298 1_555
Fe3 O3 2.120695 1_555
Fe3 O8 2.204302 1_555
Fe3 O7 2.204892 1_655
Fe3 O5 2.209266 1_555
H0 O1 0.979710 1_555
H1 O0 0.979710 1_555
H2 O3 0.979710 1_555
H3 O2 0.979710 1_555
O4 S3 1.494887 1_565
O5 S2 1.494887 1_555
O6 S1 1.494887 1_545
O7 S0 1.494887 1_555
O8 S3 1.480275 1_555
O9 S2 1.480275 1_455
O10 S1 1.480275 1_555
O11 S0 1.480275 1_655
O12 S2 1.466758 1_555
O13 S3 1.466758 1_555
O14 S0 1.466758 1_555
O15 S1 1.466758 1_555
O16 S1 1.470620 1_545
O17 S0 1.470620 1_655
O18 S3 1.470620 1_565
O19 S2 1.470620 1_455
