# generated using pymatgen
data_BaBAsO5
_symmetry_space_group_name_H-M   'P 1'
_cell_length_a   7.44012093
_cell_length_b   7.44012093
_cell_length_c   7.20150200
_cell_angle_alpha   90.00000000
_cell_angle_beta   90.00000000
_cell_angle_gamma   120.00000826
_symmetry_Int_Tables_number   1
_chemical_formula_structural   BaBAsO5
_chemical_formula_sum   'Ba3 B3 As3 O15'
_cell_volume   345.23408740
_cell_formula_units_Z   3
loop_
 _symmetry_equiv_pos_site_id
 _symmetry_equiv_pos_as_xyz
  1  'x, y, z'
loop_
 _atom_site_type_symbol
 _atom_site_label
 _atom_site_symmetry_multiplicity
 _atom_site_fract_x
 _atom_site_fract_y
 _atom_site_fract_z
 _atom_site_occupancy
  Ba  Ba0  1  0.38974400  0.38974400  0.50000000  1
  Ba  Ba1  1  0.00000000  0.61025600  0.16666700  1
  Ba  Ba2  1  0.61025600  0.00000000  0.83333300  1
  B  B0  1  0.90449700  0.90449700  0.50000000  1
  B  B1  1  0.00000000  0.09550300  0.16666700  1
  B  B2  1  0.09550300  0.00000000  0.83333300  1
  As  As0  1  0.60647400  0.00000000  0.33333300  1
  As  As1  1  0.39352600  0.39352600  0.00000000  1
  As  As2  1  0.00000000  0.60647400  0.66666700  1
  O  O0  1  0.97394800  0.97394800  0.00000000  1
  O  O1  1  0.02605200  0.00000000  0.33333300  1
  O  O2  1  0.00000000  0.02605200  0.66666700  1
  O  O3  1  0.56730800  0.15095500  0.48275800  1
  O  O4  1  0.58364700  0.43269200  0.14942500  1
  O  O5  1  0.84904500  0.41635300  0.81609100  1
  O  O6  1  0.14408400  0.82265300  0.81244300  1
  O  O7  1  0.17734700  0.32143100  0.14577700  1
  O  O8  1  0.67856900  0.85591600  0.47911000  1
  O  O9  1  0.15095500  0.56730800  0.51724200  1
  O  O10  1  0.43269200  0.58364700  0.85057500  1
  O  O11  1  0.41635300  0.84904500  0.18390900  1
  O  O12  1  0.85591600  0.67856900  0.52089000  1
  O  O13  1  0.32143100  0.17734700  0.85422300  1
  O  O14  1  0.82265300  0.14408400  0.18755700  1
loop_
_geom_bond_atom_site_label_1
_geom_bond_atom_site_label_2
_geom_bond_distance
_geom_bond_site_symmetry_2
Ba0 O9 2.695214 1_555
Ba0 O3 2.695214 1_555
Ba0 O4 2.845406 1_555
Ba0 O10 2.845406 1_555
Ba0 O13 2.908548 1_555
Ba0 O7 2.908548 1_555
Ba0 O8 3.035924 1_555
Ba0 O12 3.035924 1_555
Ba0 O2 3.053625 1_555
Ba0 O1 3.053625 1_555
Ba1 O11 2.695214 1_555
Ba1 O4 2.695214 1_455
Ba1 O9 2.845406 1_555
Ba1 O5 2.845412 1_454
Ba1 O12 2.908548 1_455
Ba1 O6 2.908554 1_554
Ba1 O14 3.035924 1_455
Ba1 O7 3.035924 1_555
Ba1 O1 3.053622 1_565
Ba1 O0 3.053625 1_455
Ba2 O5 2.695214 1_555
Ba2 O10 2.695214 1_545
Ba2 O3 2.845406 1_555
Ba2 O11 2.845412 1_546
Ba2 O8 2.908548 1_545
Ba2 O14 2.908554 1_556
Ba2 O6 3.035924 1_545
Ba2 O13 3.035924 1_555
Ba2 O2 3.053622 1_655
Ba2 O0 3.053625 1_546
B0 O1 1.456293 1_665
B0 O2 1.456293 1_665
B0 O8 1.539882 1_555
B0 O12 1.539882 1_555
B1 O1 1.456287 1_555
B1 O0 1.456293 1_445
B1 O7 1.539882 1_555
B1 O14 1.539882 1_455
B2 O2 1.456287 1_555
B2 O0 1.456293 1_446
B2 O13 1.539882 1_555
B2 O6 1.539882 1_545
As0 O11 1.682718 1_545
As0 O3 1.682723 1_555
As0 O14 1.764658 1_555
As0 O8 1.764663 1_545
As1 O4 1.682723 1_555
As1 O10 1.682723 1_554
As1 O7 1.764663 1_555
As1 O13 1.764663 1_554
As2 O5 1.682718 1_455
As2 O9 1.682723 1_555
As2 O6 1.764658 1_555
As2 O12 1.764663 1_455
