# generated using pymatgen
data_TbGa2Pd
_symmetry_space_group_name_H-M   'P 1'
_cell_length_a   5.52525278
_cell_length_b   5.52525278
_cell_length_c   6.55914036
_cell_angle_alpha   90.00000000
_cell_angle_beta   90.00000000
_cell_angle_gamma   47.19669875
_symmetry_Int_Tables_number   1
_chemical_formula_structural   TbGa2Pd
_chemical_formula_sum   'Tb2 Ga4 Pd2'
_cell_volume   146.91436112
_cell_formula_units_Z   2
loop_
 _symmetry_equiv_pos_site_id
 _symmetry_equiv_pos_as_xyz
  1  'x, y, z'
loop_
 _atom_site_type_symbol
 _atom_site_label
 _atom_site_symmetry_multiplicity
 _atom_site_fract_x
 _atom_site_fract_y
 _atom_site_fract_z
 _atom_site_occupancy
  Tb  Tb0  1  0.41077075  0.41077075  0.25000100  1
  Tb  Tb1  1  0.58922825  0.58922825  0.75000100  1
  Ga  Ga0  1  0.12724822  0.12724822  0.05501314  1
  Ga  Ga1  1  0.87275278  0.87275278  0.55501314  1
  Ga  Ga2  1  0.87275278  0.87275278  0.94498586  1
  Ga  Ga3  1  0.12724822  0.12724822  0.44498586  1
  Pd  Pd0  1  0.70040779  0.70040779  0.25000100  1
  Pd  Pd1  1  0.29959321  0.29959321  0.75000100  1
loop_
_geom_bond_atom_site_label_1
_geom_bond_atom_site_label_2
_geom_bond_distance
_geom_bond_site_symmetry_2
Tb0 Tb1 3.744503 1_555
Tb0 Tb1 3.744503 1_554
Ga0 Ga3 2.557886 1_555
Ga0 Pd1 2.654866 1_554
Ga0 Pd0 2.660263 1_545
Ga0 Pd0 2.660263 1_455
Ga0 Ga2 2.676264 1_444
Ga0 Tb1 3.007180 1_454
Ga0 Tb1 3.007180 1_544
Ga0 Tb0 3.143043 1_555
Ga0 Tb0 3.366544 1_455
Ga0 Tb0 3.366544 1_545
Ga1 Ga2 2.557886 1_555
Ga1 Pd0 2.654866 1_555
Ga1 Pd1 2.660263 1_655
Ga1 Pd1 2.660263 1_565
Ga1 Ga3 2.676264 1_665
Ga1 Tb0 3.007177 1_565
Ga1 Tb0 3.007177 1_655
Ga1 Tb1 3.143061 1_555
Ga1 Tb1 3.366530 1_565
Ga1 Tb1 3.366530 1_655
Ga2 Pd0 2.654881 1_556
Ga2 Pd1 2.660253 1_565
Ga2 Pd1 2.660253 1_655
Ga2 Tb0 3.007190 1_566
Ga2 Tb0 3.007190 1_656
Ga2 Tb1 3.143053 1_555
Ga2 Tb1 3.366523 1_565
Ga2 Tb1 3.366523 1_655
Ga3 Pd1 2.654881 1_555
Ga3 Pd0 2.660253 1_545
Ga3 Pd0 2.660253 1_455
Ga3 Tb1 3.007193 1_545
Ga3 Tb1 3.007193 1_455
Ga3 Tb0 3.143035 1_555
Ga3 Tb0 3.366536 1_455
Ga3 Tb0 3.366536 1_545
Pd0 Tb0 2.932980 1_555
Pd0 Tb0 3.070873 1_655
Pd0 Tb0 3.070873 1_565
Pd0 Tb1 3.467436 1_555
Pd0 Tb1 3.467436 1_554
Pd1 Tb1 2.932960 1_555
Pd1 Tb1 3.070887 1_455
Pd1 Tb1 3.070887 1_545
Pd1 Tb0 3.467430 1_555
Pd1 Tb0 3.467430 1_556
