# generated using pymatgen
data_GeH6CI3N
_symmetry_space_group_name_H-M   'P 1'
_cell_length_a   8.61863000
_cell_length_b   8.62627161
_cell_length_c   12.38091004
_cell_angle_alpha   89.63467383
_cell_angle_beta   89.62787523
_cell_angle_gamma   89.91447745
_symmetry_Int_Tables_number   1
_chemical_formula_structural   GeH6CI3N
_chemical_formula_sum   'Ge4 H24 C4 I12 N4'
_cell_volume   920.44000844
_cell_formula_units_Z   4
loop_
 _symmetry_equiv_pos_site_id
 _symmetry_equiv_pos_as_xyz
  1  'x, y, z'
loop_
 _atom_site_type_symbol
 _atom_site_label
 _atom_site_symmetry_multiplicity
 _atom_site_fract_x
 _atom_site_fract_y
 _atom_site_fract_z
 _atom_site_occupancy
  Ge  Ge0  1  0.99620400  0.99753900  0.02027700  1
  Ge  Ge1  1  0.50334100  0.50174800  0.52027000  1
  Ge  Ge2  1  0.99679400  0.00225400  0.52025100  1
  Ge  Ge3  1  0.49568400  0.49720500  0.02027400  1
  H  H0  1  0.58301100  0.08080300  0.70217700  1
  H  H1  1  0.37972300  0.03603900  0.70565400  1
  H  H2  1  0.60539100  0.96780400  0.88305300  1
  H  H3  1  0.41930700  0.91752600  0.88475200  1
  H  H4  1  0.46603400  0.10440800  0.88569600  1
  H  H5  1  0.07907100  0.58472400  0.70044800  1
  H  H6  1  0.87819600  0.52992800  0.70519800  1
  H  H7  1  0.10939200  0.47713400  0.88096200  1
  H  H8  1  0.92545400  0.41716100  0.88604200  1
  H  H9  1  0.96472000  0.60618900  0.88360800  1
  H  H10  1  0.11598200  0.50985400  0.20146300  1
  H  H11  1  0.92992800  0.60410100  0.20451200  1
  H  H12  1  0.06776000  0.40991900  0.38242300  1
  H  H13  1  0.89059600  0.48889300  0.38560300  1
  H  H14  1  0.04772400  0.60162400  0.38354100  1
  H  H15  1  0.57836400  0.08482500  0.20117900  1
  H  H16  1  0.37890500  0.02477400  0.20544700  1
  H  H17  1  0.60907900  0.98060100  0.38295100  1
  H  H18  1  0.42633500  0.91695900  0.38729400  1
  H  H19  1  0.46179700  0.10653500  0.38313200  1
  H  H20  1  0.94188500  0.39644700  0.20406800  1
  H  H21  1  0.02591500  0.38351800  0.70367900  1
  H  H22  1  0.52031200  0.88248600  0.70383500  1
  H  H23  1  0.53034100  0.88226200  0.20535000  1
  C  C0  1  0.49629600  0.99745700  0.23242100  1
  C  C1  1  0.99512900  0.49935300  0.73157300  1
  C  C2  1  0.99693000  0.50228600  0.23184000  1
  C  C3  1  0.49536700  0.99999900  0.73236900  1
  I  I0  1  0.99901900  0.99998800  0.24289000  1
  I  I1  1  0.49830700  0.49946100  0.74275600  1
  I  I2  1  0.99863700  0.99931300  0.74273300  1
  I  I3  1  0.50118000  0.49946200  0.24282200  1
  I  I4  1  0.75870000  0.25602700  0.00939000  1
  I  I5  1  0.25491100  0.75475700  0.50862500  1
  I  I6  1  0.75084200  0.76347400  0.00804700  1
  I  I7  1  0.24251400  0.25503100  0.50793700  1
  I  I8  1  0.24661700  0.74428500  0.00804100  1
  I  I9  1  0.74362300  0.24336900  0.50942600  1
  I  I10  1  0.26335700  0.25088000  0.00923000  1
  I  I11  1  0.75543400  0.74210300  0.50898200  1
  N  N0  1  0.49922800  0.00093500  0.35288200  1
  N  N1  1  0.99961200  0.50064200  0.85197000  1
  N  N2  1  0.00024600  0.50097300  0.35225600  1
  N  N3  1  0.49747400  0.99816500  0.85282900  1
loop_
_geom_bond_atom_site_label_1
_geom_bond_atom_site_label_2
_geom_bond_distance
_geom_bond_site_symmetry_2
Ge0 I0 2.756632 1_555
Ge0 I6 2.931283 1_555
Ge0 I4 3.027588 1_565
Ge0 I8 3.072359 1_655
Ge0 I10 3.178556 1_665
Ge1 I1 2.754584 1_555
Ge1 I11 3.007458 1_555
Ge1 I9 3.043164 1_555
Ge1 I5 3.058540 1_555
Ge1 I7 3.103065 1_555
Ge2 I2 2.754633 1_545
Ge2 I9 3.015262 1_555
Ge2 I7 3.044376 1_655
Ge2 I11 3.066676 1_545
Ge2 I5 3.084369 1_645
Ge3 I3 2.756255 1_555
Ge3 I10 2.926275 1_555
Ge3 I8 3.026570 1_555
Ge3 I4 3.077431 1_555
Ge3 I6 3.184513 1_555
H2 N3 1.037421 1_555
H3 N3 1.043257 1_555
H4 N3 1.039967 1_545
H7 N1 1.033480 1_455
H8 N1 1.048349 1_555
H8 I4 2.506029 1_556
H9 N1 1.036840 1_555
H12 N2 1.045342 1_555
H13 N2 1.033964 1_655
H14 N2 1.038617 1_555
H17 N0 1.033913 1_565
H18 N0 1.046377 1_565
H19 N0 1.037326 1_555
C0 H23 1.089943 1_555
C0 H16 1.092415 1_565
C0 H15 1.101015 1_565
C0 N0 1.492289 1_565
C1 H21 1.091118 1_655
C1 H6 1.092815 1_555
C1 H5 1.099357 1_655
C1 N1 1.491489 1_555
C2 H20 1.088243 1_555
C2 H10 1.092425 1_655
C2 H11 1.102978 1_555
C2 N2 1.491290 1_655
C3 H0 1.091218 1_565
C3 H1 1.096127 1_565
C3 H22 1.096148 1_555
C3 N3 1.491616 1_555
