# generated using pymatgen
data_Cs2NaInH6
_symmetry_space_group_name_H-M   'P 1'
_cell_length_a   6.26166805
_cell_length_b   6.26166805
_cell_length_c   6.26166805
_cell_angle_alpha   60.00000000
_cell_angle_beta   60.00000000
_cell_angle_gamma   60.00000000
_symmetry_Int_Tables_number   1
_chemical_formula_structural   Cs2NaInH6
_chemical_formula_sum   'Cs2 Na1 In1 H6'
_cell_volume   173.60215986
_cell_formula_units_Z   1
loop_
 _symmetry_equiv_pos_site_id
 _symmetry_equiv_pos_as_xyz
  1  'x, y, z'
loop_
 _atom_site_type_symbol
 _atom_site_label
 _atom_site_symmetry_multiplicity
 _atom_site_fract_x
 _atom_site_fract_y
 _atom_site_fract_z
 _atom_site_occupancy
  Cs  Cs0  1  0.25000000  0.25000000  0.25000000  1
  Cs  Cs1  1  0.75000000  0.75000000  0.75000000  1
  Na  Na0  1  0.50000000  0.50000000  0.50000000  1
  In  In0  1  -0.00000000  0.00000000  -0.00000000  1
  H  H0  1  0.22301537  0.77698463  0.77698463  1
  H  H1  1  0.22301537  0.77698463  0.22301537  1
  H  H2  1  0.77698463  0.22301537  0.77698463  1
  H  H3  1  0.77698463  0.77698463  0.22301537  1
  H  H4  1  0.22301537  0.22301537  0.77698463  1
  H  H5  1  0.77698463  0.22301537  0.22301537  1
loop_
_geom_bond_atom_site_label_1
_geom_bond_atom_site_label_2
_geom_bond_distance
_geom_bond_site_symmetry_2
Cs0 H4 3.139940 1_555
Cs0 H2 3.139940 1_455
Cs0 H1 3.139940 1_555
Cs0 H1 3.139940 1_545
Cs0 H3 3.139940 1_455
Cs0 H5 3.139940 1_455
Cs0 H0 3.139940 1_545
Cs0 H5 3.139940 1_555
Cs0 H3 3.139940 1_545
Cs0 H0 3.139940 1_554
Cs0 H4 3.139940 1_554
Cs0 H2 3.139940 1_554
Cs1 H0 3.139940 1_655
Cs1 H3 3.139940 1_556
Cs1 H2 3.139940 1_565
Cs1 H1 3.139940 1_556
Cs1 H5 3.139940 1_565
Cs1 H4 3.139940 1_655
Cs1 H1 3.139940 1_655
Cs1 H5 3.139940 1_556
Cs1 H4 3.139940 1_565
Cs1 H3 3.139940 1_555
Cs1 H0 3.139940 1_555
Cs1 H2 3.139940 1_555
H0 In0 1.974876 1_566
H0 Na0 2.452792 1_555
H1 In0 1.974876 1_565
H1 Na0 2.452792 1_555
H2 In0 1.974876 1_656
H2 Na0 2.452792 1_555
H3 In0 1.974876 1_665
H3 Na0 2.452792 1_555
H4 In0 1.974876 1_556
H4 Na0 2.452792 1_555
H5 In0 1.974876 1_655
H5 Na0 2.452792 1_555
