# generated using pymatgen
data_Pr2TlAg
_symmetry_space_group_name_H-M   'P 1'
_cell_length_a   5.44920626
_cell_length_b   5.44920627
_cell_length_c   5.44920552
_cell_angle_alpha   59.99994179
_cell_angle_beta   59.99996862
_cell_angle_gamma   59.99999996
_symmetry_Int_Tables_number   1
_chemical_formula_structural   Pr2TlAg
_chemical_formula_sum   'Pr2 Tl1 Ag1'
_cell_volume   114.41537556
_cell_formula_units_Z   1
loop_
 _symmetry_equiv_pos_site_id
 _symmetry_equiv_pos_as_xyz
  1  'x, y, z'
loop_
 _atom_site_type_symbol
 _atom_site_label
 _atom_site_symmetry_multiplicity
 _atom_site_fract_x
 _atom_site_fract_y
 _atom_site_fract_z
 _atom_site_occupancy
  Pr  Pr0  1  -0.00000000  0.00000000  -0.00000000  1
  Pr  Pr1  1  0.50000100  0.50000100  0.50000100  1
  Tl  Tl0  1  0.75000000  0.75000000  0.75000000  1
  Ag  Ag0  1  0.25000000  0.25000000  0.25000000  1
loop_
_geom_bond_atom_site_label_1
_geom_bond_atom_site_label_2
_geom_bond_distance
_geom_bond_site_symmetry_2
Pr0 Tl0 3.336941 1_445
Pr0 Tl0 3.336943 1_454
Pr0 Tl0 3.336943 1_544
Pr0 Tl0 3.336944 1_444
Pr1 Tl0 3.336931 1_555
Pr1 Tl0 3.336945 1_554
Pr1 Tl0 3.336947 1_545
Pr1 Tl0 3.336948 1_455
Ag0 Pr1 3.336937 1_554
Ag0 Pr1 3.336938 1_545
Ag0 Pr1 3.336939 1_455
Ag0 Pr0 3.336941 1_556
Ag0 Pr0 3.336943 1_565
Ag0 Pr0 3.336943 1_655
Ag0 Pr0 3.336944 1_555
Ag0 Pr1 3.336958 1_555
