# generated using pymatgen
data_Sm2(InCo3)3
_symmetry_space_group_name_H-M   'P 1'
_cell_length_a   11.36806177
_cell_length_b   11.36806177
_cell_length_c   4.03316000
_cell_angle_alpha   90.00000000
_cell_angle_beta   90.00000000
_cell_angle_gamma   155.10905943
_symmetry_Int_Tables_number   1
_chemical_formula_structural   Sm2(InCo3)3
_chemical_formula_sum   'Sm2 In3 Co9'
_cell_volume   219.37613117
_cell_formula_units_Z   1
loop_
 _symmetry_equiv_pos_site_id
 _symmetry_equiv_pos_as_xyz
  1  'x, y, z'
loop_
 _atom_site_type_symbol
 _atom_site_label
 _atom_site_symmetry_multiplicity
 _atom_site_fract_x
 _atom_site_fract_y
 _atom_site_fract_z
 _atom_site_occupancy
  Sm  Sm0  1  0.68767500  0.32523900  0.00000000  1
  Sm  Sm1  1  0.32523900  0.68767500  0.00000000  1
  In  In0  1  0.80382900  0.20809600  0.50000000  1
  In  In1  1  0.20809600  0.80382900  0.50000000  1
  In  In2  1  0.99964500  0.99964500  0.00000000  1
  Co  Co0  1  0.88223500  0.11952100  0.00000000  1
  Co  Co1  1  0.66025300  0.84464700  0.50000000  1
  Co  Co2  1  0.11952100  0.88223500  0.00000000  1
  Co  Co3  1  0.84464700  0.66025300  0.50000000  1
  Co  Co4  1  0.56243200  0.43978100  0.00000000  1
  Co  Co5  1  0.49765100  0.49765100  0.50000000  1
  Co  Co6  1  0.43978100  0.56243200  0.00000000  1
  Co  Co7  1  0.15301200  0.33845100  0.50000000  1
  Co  Co8  1  0.33845100  0.15301200  0.50000000  1
loop_
_geom_bond_atom_site_label_1
_geom_bond_atom_site_label_2
_geom_bond_distance
_geom_bond_site_symmetry_2
In0 Sm1 3.205081 1_545
In0 Sm1 3.205081 1_546
In0 Sm1 3.208783 1_655
In0 Sm1 3.208783 1_656
In0 In1 3.243412 1_545
In0 In1 3.243412 1_655
In0 Sm0 3.282337 1_556
In0 Sm0 3.282337 1_555
In1 Sm0 3.205081 1_455
In1 Sm0 3.205081 1_456
In1 Sm0 3.208783 1_566
In1 Sm0 3.208783 1_565
In1 Sm1 3.282337 1_556
In1 Sm1 3.282337 1_555
Co0 Co7 2.416041 1_655
Co0 Co7 2.416041 1_654
Co0 Co1 2.427566 1_545
Co0 Co1 2.427566 1_544
Co0 In2 2.634102 1_545
Co0 In0 2.739199 1_554
Co0 In0 2.739199 1_555
Co0 Co6 2.759727 1_545
Co0 Co6 2.761714 1_655
Co0 Sm1 2.792685 1_545
Co0 Sm1 2.840242 1_655
Co1 Co5 2.397643 1_555
Co1 Co7 2.417043 1_665
Co1 Co6 2.460303 1_555
Co1 Co6 2.460303 1_556
Co1 Co7 2.482882 1_555
Co1 In0 2.738702 1_565
Co1 Sm1 3.070131 1_555
Co1 Sm1 3.070131 1_556
Co1 In2 3.118275 1_556
Co1 In2 3.118275 1_555
Co2 Co8 2.416041 1_565
Co2 Co8 2.416041 1_564
Co2 Co3 2.427566 1_455
Co2 Co3 2.427566 1_454
Co2 In2 2.634102 1_455
Co2 In1 2.739199 1_554
Co2 In1 2.739199 1_555
Co2 Co4 2.759727 1_455
Co2 Co4 2.761714 1_565
Co2 Sm0 2.792685 1_455
Co2 Sm0 2.840242 1_565
Co3 Co5 2.397643 1_555
Co3 Co8 2.417043 1_665
Co3 Co4 2.460303 1_556
Co3 Co4 2.460303 1_555
Co3 Co8 2.482882 1_555
Co3 In1 2.738702 1_655
Co3 Sm0 3.070131 1_556
Co3 Sm0 3.070131 1_555
Co3 In2 3.118275 1_555
Co3 In2 3.118275 1_556
Co4 Co5 2.433243 1_555
Co4 Co5 2.433243 1_554
Co4 Co8 2.473494 1_555
Co4 Co8 2.473494 1_554
Co4 Sm0 2.661966 1_555
Co4 In2 2.796594 1_555
Co4 In2 2.809113 1_445
Co5 Co7 2.400268 1_555
Co5 Co8 2.400268 1_555
Co5 Co6 2.433243 1_555
Co5 Co6 2.433243 1_556
Co5 In2 3.165596 1_446
Co5 In2 3.165596 1_445
Co5 In2 3.180683 1_556
Co5 In2 3.180683 1_555
Co6 Co7 2.473494 1_555
Co6 Co7 2.473494 1_554
Co6 Sm1 2.661966 1_555
Co6 In2 2.796594 1_555
Co6 In2 2.809113 1_445
Co7 In0 2.698375 1_455
Co7 Sm1 3.091798 1_556
Co7 Sm1 3.091798 1_555
Co7 In2 3.123802 1_446
Co7 In2 3.123802 1_445
Co8 In1 2.698375 1_545
Co8 Sm0 3.091798 1_556
Co8 Sm0 3.091798 1_555
Co8 In2 3.123802 1_446
Co8 In2 3.123802 1_445
