# generated using pymatgen
data_Sr(BO2)2
_symmetry_space_group_name_H-M   'P 1'
_cell_length_a   4.34803074
_cell_length_b   6.56867503
_cell_length_c   12.05384592
_cell_angle_alpha   90.00000000
_cell_angle_beta   90.00000000
_cell_angle_gamma   90.00000000
_symmetry_Int_Tables_number   1
_chemical_formula_structural   Sr(BO2)2
_chemical_formula_sum   'Sr4 B8 O16'
_cell_volume   344.26749402
_cell_formula_units_Z   4
loop_
 _symmetry_equiv_pos_site_id
 _symmetry_equiv_pos_as_xyz
  1  'x, y, z'
loop_
 _atom_site_type_symbol
 _atom_site_label
 _atom_site_symmetry_multiplicity
 _atom_site_fract_x
 _atom_site_fract_y
 _atom_site_fract_z
 _atom_site_occupancy
  Sr  Sr0  1  0.23851325  0.25000000  0.00000000  1
  Sr  Sr1  1  0.26148675  0.75000000  0.50000000  1
  Sr  Sr2  1  0.76148675  0.75000000  0.00000000  1
  Sr  Sr3  1  0.73851325  0.25000000  0.50000000  1
  B  B0  1  0.67059666  0.37426607  0.80580380  1
  B  B1  1  0.67059666  0.12573393  0.19419620  1
  B  B2  1  0.82940334  0.87426607  0.69419620  1
  B  B3  1  0.82940334  0.62573393  0.30580380  1
  B  B4  1  0.17059666  0.12573393  0.30580380  1
  B  B5  1  0.17059666  0.37426607  0.69419620  1
  B  B6  1  0.32940334  0.62573393  0.19419620  1
  B  B7  1  0.32940334  0.87426607  0.80580380  1
  O  O0  1  0.23556340  0.59422198  0.09088697  1
  O  O1  1  0.73556340  0.90577802  0.59088697  1
  O  O2  1  0.76443660  0.09422198  0.09088697  1
  O  O3  1  0.73556340  0.59422198  0.40911303  1
  O  O4  1  0.85157844  0.35348043  0.71135255  1
  O  O5  1  0.85157844  0.14651957  0.28864745  1
  O  O6  1  0.64842156  0.85348043  0.78864745  1
  O  O7  1  0.64842156  0.64651957  0.21135255  1
  O  O8  1  0.14842156  0.64651957  0.28864745  1
  O  O9  1  0.14842156  0.85348043  0.71135255  1
  O  O10  1  0.35157844  0.14651957  0.21135255  1
  O  O11  1  0.35157844  0.35348043  0.78864745  1
  O  O12  1  0.26443660  0.09422198  0.40911303  1
  O  O13  1  0.26443660  0.40577802  0.59088697  1
  O  O14  1  0.76443660  0.40577802  0.90911303  1
  O  O15  1  0.23556340  0.90577802  0.90911303  1
loop_
_geom_bond_atom_site_label_1
_geom_bond_atom_site_label_2
_geom_bond_distance
_geom_bond_site_symmetry_2
B0 O14 1.326662 1_555
B0 O4 1.390705 1_555
B0 O11 1.409062 1_555
B1 O2 1.326662 1_555
B1 O5 1.390705 1_555
B1 O10 1.409062 1_555
B2 O1 1.326662 1_555
B2 O6 1.390705 1_555
B2 O9 1.409062 1_655
B3 O3 1.326662 1_555
B3 O7 1.390705 1_555
B3 O8 1.409062 1_655
B4 O12 1.326662 1_555
B4 O10 1.390705 1_555
B4 O5 1.409062 1_455
B5 O13 1.326662 1_555
B5 O11 1.390705 1_555
B5 O4 1.409062 1_455
B6 O0 1.326662 1_555
B6 O8 1.390705 1_555
B6 O7 1.409062 1_555
B7 O15 1.326662 1_555
B7 O9 1.390705 1_555
B7 O6 1.409062 1_555
O0 Sr0 2.512541 1_555
O0 Sr2 2.548767 1_455
O0 Sr2 2.734299 1_555
O1 Sr3 2.512541 1_565
O1 Sr1 2.548767 1_555
O1 Sr1 2.734299 1_655
O2 Sr2 2.512541 1_545
O2 Sr0 2.548767 1_655
O2 Sr0 2.734299 1_555
O3 Sr3 2.512541 1_555
O3 Sr1 2.548767 1_555
O3 Sr1 2.734299 1_655
O4 Sr3 2.682170 1_555
O5 Sr3 2.682170 1_555
O6 Sr2 2.682170 1_556
O7 Sr2 2.682170 1_555
O8 Sr1 2.682170 1_555
O9 Sr1 2.682170 1_555
O10 Sr0 2.682170 1_555
O11 Sr0 2.682170 1_556
O12 Sr1 2.512541 1_545
O12 Sr3 2.548767 1_555
O12 Sr3 2.734299 1_455
O13 Sr1 2.512541 1_555
O13 Sr3 2.548767 1_555
O13 Sr3 2.734299 1_455
O14 Sr2 2.512541 1_556
O14 Sr0 2.548767 1_656
O14 Sr0 2.734299 1_556
O15 Sr0 2.512541 1_566
O15 Sr2 2.548767 1_456
O15 Sr2 2.734299 1_556
