# generated using pymatgen
data_YbMg
_symmetry_space_group_name_H-M   'P 1'
_cell_length_a   3.70277399
_cell_length_b   5.28788913
_cell_length_c   5.29325714
_cell_angle_alpha   90.00000000
_cell_angle_beta   90.00000000
_cell_angle_gamma   90.00000000
_symmetry_Int_Tables_number   1
_chemical_formula_structural   YbMg
_chemical_formula_sum   'Yb2 Mg2'
_cell_volume   103.64122503
_cell_formula_units_Z   2
loop_
 _symmetry_equiv_pos_site_id
 _symmetry_equiv_pos_as_xyz
  1  'x, y, z'
loop_
 _atom_site_type_symbol
 _atom_site_label
 _atom_site_symmetry_multiplicity
 _atom_site_fract_x
 _atom_site_fract_y
 _atom_site_fract_z
 _atom_site_occupancy
  Yb  Yb0  1  0.00000000  0.75000000  0.74695496  1
  Yb  Yb1  1  0.00000000  0.25000000  0.25304504  1
  Mg  Mg0  1  0.50000000  0.75000000  0.24588094  1
  Mg  Mg1  1  0.50000000  0.25000000  0.75411906  1
loop_
_geom_bond_atom_site_label_1
_geom_bond_atom_site_label_2
_geom_bond_distance
_geom_bond_site_symmetry_2
Mg0 Yb0 3.225247 1_554
Mg0 Yb0 3.225247 1_654
Mg0 Yb1 3.227927 1_665
Mg0 Yb1 3.227927 1_555
Mg0 Yb1 3.227927 1_565
Mg0 Yb1 3.227927 1_655
Mg0 Yb0 3.234564 1_555
Mg0 Yb0 3.234564 1_655
Mg1 Yb1 3.225247 1_556
Mg1 Yb1 3.225247 1_656
Mg1 Yb0 3.227927 1_545
Mg1 Yb0 3.227927 1_555
Mg1 Yb0 3.227927 1_655
Mg1 Yb0 3.227927 1_645
Mg1 Yb1 3.234564 1_555
Mg1 Yb1 3.234564 1_655
