# generated using pymatgen
data_ThGeO4
_symmetry_space_group_name_H-M   'P 1'
_cell_length_a   5.13922484
_cell_length_b   5.13922400
_cell_length_c   6.81330995
_cell_angle_alpha   112.15700946
_cell_angle_beta   112.15700526
_cell_angle_gamma   90.00001234
_symmetry_Int_Tables_number   1
_chemical_formula_structural   ThGeO4
_chemical_formula_sum   'Th2 Ge2 O8'
_cell_volume   152.21755841
_cell_formula_units_Z   2
loop_
 _symmetry_equiv_pos_site_id
 _symmetry_equiv_pos_as_xyz
  1  'x, y, z'
loop_
 _atom_site_type_symbol
 _atom_site_label
 _atom_site_symmetry_multiplicity
 _atom_site_fract_x
 _atom_site_fract_y
 _atom_site_fract_z
 _atom_site_occupancy
  Th  Th0  1  0.37500000  0.12500000  0.75000000  1
  Th  Th1  1  0.62500000  0.87500000  0.25000000  1
  Ge  Ge0  1  0.87500000  0.62500000  0.75000000  1
  Ge  Ge1  1  0.12500000  0.37500000  0.25000000  1
  O  O0  1  0.94592765  0.29114100  0.59214057  1
  O  O1  1  0.30099857  0.44592765  0.09214057  1
  O  O2  1  0.79114100  0.14621292  0.09214057  1
  O  O3  1  0.64621292  0.80099857  0.59214057  1
  O  O4  1  0.35378708  0.19900143  0.40785943  1
  O  O5  1  0.20885900  0.85378708  0.90785943  1
  O  O6  1  0.69900143  0.55407235  0.90785943  1
  O  O7  1  0.05407235  0.70885900  0.40785943  1
loop_
_geom_bond_atom_site_label_1
_geom_bond_atom_site_label_2
_geom_bond_distance
_geom_bond_site_symmetry_2
Ge0 O6 1.771241 1_555
Ge0 O3 1.771242 1_555
Ge0 O5 1.771245 1_655
Ge0 O0 1.771245 1_555
Ge1 O1 1.771241 1_555
Ge1 O4 1.771242 1_555
Ge1 O2 1.771245 1_455
Ge1 O7 1.771245 1_555
O0 Th0 2.377404 1_655
O0 Th1 2.463250 1_545
O1 Th1 2.377406 1_555
O1 Th0 2.463253 1_554
O2 Th1 2.377404 1_545
O2 Th0 2.463251 1_554
O3 Th0 2.377407 1_565
O3 Th1 2.463253 1_555
O4 Th1 2.377407 1_545
O4 Th0 2.463253 1_555
O5 Th0 2.377404 1_565
O5 Th1 2.463251 1_556
O6 Th0 2.377406 1_555
O6 Th1 2.463253 1_556
O7 Th1 2.377404 1_455
O7 Th0 2.463250 1_565
