# generated using pymatgen
data_GdF3
_symmetry_space_group_name_H-M   'P 1'
_cell_length_a   3.95857478
_cell_length_b   3.95857478
_cell_length_c   3.95857478
_cell_angle_alpha   60.00000000
_cell_angle_beta   60.00000000
_cell_angle_gamma   60.00000000
_symmetry_Int_Tables_number   1
_chemical_formula_structural   GdF3
_chemical_formula_sum   'Gd1 F3'
_cell_volume   43.86332626
_cell_formula_units_Z   1
loop_
 _symmetry_equiv_pos_site_id
 _symmetry_equiv_pos_as_xyz
  1  'x, y, z'
loop_
 _atom_site_type_symbol
 _atom_site_label
 _atom_site_symmetry_multiplicity
 _atom_site_fract_x
 _atom_site_fract_y
 _atom_site_fract_z
 _atom_site_occupancy
  Gd  Gd0  1  0.74999900  0.74999900  0.74999900  1
  F  F0  1  -0.00000000  -0.00000000  -0.00000000  1
  F  F1  1  0.49999900  0.49999900  0.49999900  1
  F  F2  1  0.25000000  0.25000000  0.25000000  1
loop_
_geom_bond_atom_site_label_1
_geom_bond_atom_site_label_2
_geom_bond_distance
_geom_bond_site_symmetry_2
F0 Gd0 2.424119 1_454
F0 Gd0 2.424119 1_445
F0 Gd0 2.424119 1_544
F0 Gd0 2.424132 1_444
F1 Gd0 2.424122 1_455
F1 Gd0 2.424122 1_545
F1 Gd0 2.424122 1_554
F1 Gd0 2.424122 1_555
F2 Gd0 2.799129 1_545
F2 Gd0 2.799129 1_455
F2 Gd0 2.799129 1_554
F2 Gd0 2.799141 1_544
F2 Gd0 2.799141 1_445
F2 Gd0 2.799141 1_454
