# generated using pymatgen
data_Li2Sb
_symmetry_space_group_name_H-M   'P 1'
_cell_length_a   7.95140499
_cell_length_b   7.95140499
_cell_length_c   6.56835100
_cell_angle_alpha   90.00000000
_cell_angle_beta   90.00000000
_cell_angle_gamma   120.00000822
_symmetry_Int_Tables_number   1
_chemical_formula_structural   Li2Sb
_chemical_formula_sum   'Li12 Sb6'
_cell_volume   359.64555417
_cell_formula_units_Z   6
loop_
 _symmetry_equiv_pos_site_id
 _symmetry_equiv_pos_as_xyz
  1  'x, y, z'
loop_
 _atom_site_type_symbol
 _atom_site_label
 _atom_site_symmetry_multiplicity
 _atom_site_fract_x
 _atom_site_fract_y
 _atom_site_fract_z
 _atom_site_occupancy
  Li  Li0  1  0.29100600  0.00000000  0.00000000  1
  Li  Li1  1  0.70899400  0.70899400  0.50000000  1
  Li  Li2  1  0.00000000  0.29100600  0.50000000  1
  Li  Li3  1  0.00000000  0.29100600  0.00000000  1
  Li  Li4  1  0.70899400  0.70899400  0.00000000  1
  Li  Li5  1  0.29100600  0.00000000  0.50000000  1
  Li  Li6  1  0.63732100  0.00989100  0.25000000  1
  Li  Li7  1  0.37257000  0.36267900  0.25000000  1
  Li  Li8  1  0.99010900  0.62743000  0.25000000  1
  Li  Li9  1  0.62743000  0.99010900  0.75000000  1
  Li  Li10  1  0.36267900  0.37257000  0.75000000  1
  Li  Li11  1  0.00989100  0.63732100  0.75000000  1
  Sb  Sb0  1  0.00000000  0.00000000  0.25000000  1
  Sb  Sb1  1  0.00000000  0.00000000  0.75000000  1
  Sb  Sb2  1  0.33333300  0.66666700  0.02377200  1
  Sb  Sb3  1  0.33333300  0.66666700  0.47622800  1
  Sb  Sb4  1  0.66666700  0.33333300  0.97622800  1
  Sb  Sb5  1  0.66666700  0.33333300  0.52377200  1
loop_
_geom_bond_atom_site_label_1
_geom_bond_atom_site_label_2
_geom_bond_distance
_geom_bond_site_symmetry_2
Li0 Sb1 2.837361 1_554
Li0 Sb0 2.837361 1_555
Li0 Sb2 2.838073 1_545
Li0 Sb4 2.838077 1_554
Li1 Sb0 2.837360 1_665
Li1 Sb1 2.837360 1_665
Li1 Sb3 2.838081 1_555
Li1 Sb5 2.838081 1_555
Li2 Sb0 2.837361 1_555
Li2 Sb1 2.837361 1_555
Li2 Sb5 2.838073 1_455
Li2 Sb3 2.838077 1_555
Li3 Sb0 2.837361 1_555
Li3 Sb1 2.837361 1_554
Li3 Sb4 2.838073 1_454
Li3 Sb2 2.838077 1_555
Li4 Sb0 2.837360 1_665
Li4 Sb1 2.837360 1_664
Li4 Sb4 2.838081 1_554
Li4 Sb2 2.838081 1_555
Li5 Sb0 2.837361 1_555
Li5 Sb1 2.837361 1_555
Li5 Sb3 2.838073 1_545
Li5 Sb5 2.838077 1_555
Li6 Sb0 2.923925 1_655
Li6 Sb3 2.983620 1_545
Li6 Sb2 2.983620 1_545
Li6 Sb5 3.049954 1_555
Li6 Sb4 3.049954 1_554
Li7 Sb0 2.923924 1_555
Li7 Sb2 2.983624 1_555
Li7 Sb3 2.983624 1_555
Li7 Sb5 3.049960 1_555
Li7 Sb4 3.049960 1_554
Li8 Sb0 2.923925 1_665
Li8 Sb2 2.983617 1_655
Li8 Sb3 2.983617 1_655
Li8 Sb5 3.049956 1_555
Li8 Sb4 3.049956 1_554
Li9 Sb1 2.923925 1_665
Li9 Sb5 2.983617 1_565
Li9 Sb4 2.983617 1_565
Li9 Sb2 3.049956 1_556
Li9 Sb3 3.049956 1_555
Li10 Sb1 2.923924 1_555
Li10 Sb4 2.983624 1_555
Li10 Sb5 2.983624 1_555
Li10 Sb2 3.049960 1_556
Li10 Sb3 3.049960 1_555
Li11 Sb1 2.923925 1_565
Li11 Sb4 2.983620 1_455
Li11 Sb5 2.983620 1_455
Li11 Sb2 3.049954 1_556
Li11 Sb3 3.049954 1_555
