# generated using pymatgen
data_YMg5
_symmetry_space_group_name_H-M   'P 1'
_cell_length_a   12.46009658
_cell_length_b   12.46009658
_cell_length_c   14.06692443
_cell_angle_alpha   72.95089256
_cell_angle_beta   72.95089256
_cell_angle_gamma   34.33496758
_symmetry_Int_Tables_number   1
_chemical_formula_structural   YMg5
_chemical_formula_sum   'Y8 Mg40'
_cell_volume   1172.38108634
_cell_formula_units_Z   8
loop_
 _symmetry_equiv_pos_site_id
 _symmetry_equiv_pos_as_xyz
  1  'x, y, z'
loop_
 _atom_site_type_symbol
 _atom_site_label
 _atom_site_symmetry_multiplicity
 _atom_site_fract_x
 _atom_site_fract_y
 _atom_site_fract_z
 _atom_site_occupancy
  Y  Y0_0  1  0.25000000  0.25000000  0.25000000  1
  Y  Y0_1  1  0.25000000  0.25000000  0.75000000  1
  Y  Y0_2  1  0.25000000  0.75000000  0.25000000  1
  Y  Y0_3  1  0.25000000  0.75000000  0.75000000  1
  Y  Y0_4  1  0.75000000  0.25000000  0.25000000  1
  Y  Y0_5  1  0.75000000  0.25000000  0.75000000  1
  Y  Y0_6  1  0.75000000  0.75000000  0.25000000  1
  Y  Y0_7  1  0.75000000  0.75000000  0.75000000  1
  Mg  Mg0_0  1  0.08799582  0.08799582  0.33551763  1
  Mg  Mg0_1  1  0.08799582  0.08799582  0.83551763  1
  Mg  Mg0_2  1  0.08799582  0.58799582  0.33551763  1
  Mg  Mg0_3  1  0.08799582  0.58799582  0.83551763  1
  Mg  Mg0_4  1  0.58799583  0.08799583  0.33551763  1
  Mg  Mg0_5  1  0.58799583  0.08799583  0.83551763  1
  Mg  Mg0_6  1  0.58799582  0.58799582  0.33551763  1
  Mg  Mg0_7  1  0.58799583  0.58799583  0.83551763  1
  Mg  Mg1_0  1  0.41373004  0.41373004  0.42306564  1
  Mg  Mg1_1  1  0.41373004  0.41373004  0.92306564  1
  Mg  Mg1_2  1  0.41373004  0.91373004  0.42306564  1
  Mg  Mg1_3  1  0.41373004  0.91373004  0.92306564  1
  Mg  Mg1_4  1  0.91373004  0.41373004  0.42306564  1
  Mg  Mg1_5  1  0.91373004  0.41373004  0.92306564  1
  Mg  Mg1_6  1  0.91373004  0.91373004  0.42306564  1
  Mg  Mg1_7  1  0.91373004  0.91373004  0.92306564  1
  Mg  Mg2_0  1  0.25000000  0.25000000  0.00000000  1
  Mg  Mg2_1  1  0.25000000  0.25000000  0.50000000  1
  Mg  Mg2_2  1  0.25000000  0.75000000  0.00000000  1
  Mg  Mg2_3  1  0.25000000  0.75000000  0.50000000  1
  Mg  Mg2_4  1  0.75000000  0.25000000  0.00000000  1
  Mg  Mg2_5  1  0.75000000  0.25000000  0.50000000  1
  Mg  Mg2_6  1  0.75000000  0.75000000  0.00000000  1
  Mg  Mg2_7  1  0.75000000  0.75000000  0.50000000  1
  Mg  Mg3_0  1  0.08626996  0.08626996  0.07693436  1
  Mg  Mg3_1  1  0.08626996  0.08626996  0.57693436  1
  Mg  Mg3_2  1  0.08626996  0.58626996  0.07693436  1
  Mg  Mg3_3  1  0.08626996  0.58626996  0.57693436  1
  Mg  Mg3_4  1  0.58626996  0.08626996  0.07693436  1
  Mg  Mg3_5  1  0.58626996  0.08626996  0.57693436  1
  Mg  Mg3_6  1  0.58626996  0.58626996  0.07693436  1
  Mg  Mg3_7  1  0.58626996  0.58626996  0.57693436  1
  Mg  Mg4_0  1  0.41200417  0.41200417  0.16448236  1
  Mg  Mg4_1  1  0.41200417  0.41200417  0.66448237  1
  Mg  Mg4_2  1  0.41200417  0.91200417  0.16448236  1
  Mg  Mg4_3  1  0.41200418  0.91200417  0.66448237  1
  Mg  Mg4_4  1  0.91200417  0.41200417  0.16448236  1
  Mg  Mg4_5  1  0.91200417  0.41200418  0.66448237  1
  Mg  Mg4_6  1  0.91200417  0.91200417  0.16448236  1
  Mg  Mg4_7  1  0.91200417  0.91200417  0.66448237  1
loop_
_geom_bond_atom_site_label_1
_geom_bond_atom_site_label_2
_geom_bond_distance
_geom_bond_site_symmetry_2
Y0_0 Y0_6 3.677795 1_545
Y0_0 Y0_6 3.677795 1_455
Y0_1 Y0_7 3.677795 1_545
Y0_1 Y0_7 3.677795 1_455
Y0_2 Y0_4 3.677795 1_555
Y0_2 Y0_4 3.677795 1_465
Y0_3 Y0_5 3.677795 1_555
Y0_3 Y0_5 3.677795 1_465
Mg0_0 Mg1_2 3.084274 1_545
Mg0_0 Mg1_4 3.084274 1_455
Mg0_0 Mg4_2 3.110186 1_545
Mg0_0 Mg4_4 3.110186 1_455
Mg0_0 Mg2_5 3.185844 1_455
Mg0_0 Mg2_3 3.185844 1_545
Mg0_0 Y0_4 3.281049 1_455
Mg0_0 Y0_2 3.281049 1_545
Mg0_0 Mg3_1 3.383607 1_555
Mg0_0 Y0_0 3.671253 1_555
Mg0_1 Mg1_3 3.084274 1_545
Mg0_1 Mg1_5 3.084274 1_455
Mg0_1 Mg4_5 3.110186 1_455
Mg0_1 Mg4_3 3.110186 1_545
Mg0_1 Mg2_4 3.185844 1_456
Mg0_1 Mg2_2 3.185844 1_546
Mg0_1 Y0_5 3.281049 1_455
Mg0_1 Y0_3 3.281049 1_545
Mg0_1 Mg3_0 3.383607 1_556
Mg0_1 Y0_1 3.671253 1_555
Mg0_2 Mg1_6 3.084274 1_455
Mg0_2 Mg1_0 3.084274 1_555
Mg0_2 Mg4_0 3.110186 1_555
Mg0_2 Mg4_6 3.110186 1_455
Mg0_2 Mg2_1 3.185844 1_555
Mg0_2 Mg2_7 3.185844 1_455
Mg0_2 Y0_0 3.281049 1_555
Mg0_2 Y0_6 3.281049 1_455
Mg0_2 Mg3_3 3.383607 1_555
Mg0_2 Y0_2 3.671253 1_555
Mg0_3 Mg1_7 3.084274 1_455
Mg0_3 Mg1_1 3.084274 1_555
Mg0_3 Mg4_7 3.110186 1_455
Mg0_3 Mg4_1 3.110186 1_555
Mg0_3 Mg2_0 3.185844 1_556
Mg0_3 Mg2_6 3.185844 1_456
Mg0_3 Y0_7 3.281049 1_455
Mg0_3 Y0_1 3.281049 1_555
Mg0_3 Mg3_2 3.383607 1_556
Mg0_3 Y0_3 3.671253 1_555
Mg0_4 Mg1_6 3.084274 1_545
Mg0_4 Mg1_0 3.084274 1_555
Mg0_4 Mg4_0 3.110186 1_555
Mg0_4 Mg4_6 3.110186 1_545
Mg0_4 Mg2_1 3.185844 1_555
Mg0_4 Mg2_7 3.185844 1_545
Mg0_4 Y0_0 3.281049 1_555
Mg0_4 Y0_6 3.281049 1_545
Mg0_4 Mg3_5 3.383607 1_555
Mg0_4 Y0_4 3.671253 1_555
Mg0_5 Mg1_7 3.084274 1_545
Mg0_5 Mg1_1 3.084274 1_555
Mg0_5 Mg4_7 3.110186 1_545
Mg0_5 Mg4_1 3.110186 1_555
Mg0_5 Mg2_0 3.185844 1_556
Mg0_5 Mg2_6 3.185844 1_546
Mg0_5 Y0_7 3.281049 1_545
Mg0_5 Y0_1 3.281049 1_555
Mg0_5 Mg3_4 3.383607 1_556
Mg0_5 Y0_5 3.671253 1_555
Mg0_6 Mg1_2 3.084274 1_555
Mg0_6 Mg1_4 3.084274 1_555
Mg0_6 Mg4_2 3.110186 1_555
Mg0_6 Mg4_4 3.110186 1_555
Mg0_6 Mg2_5 3.185844 1_555
Mg0_6 Mg2_3 3.185844 1_555
Mg0_6 Y0_4 3.281049 1_555
Mg0_6 Y0_2 3.281049 1_555
Mg0_6 Mg3_7 3.383607 1_555
Mg0_6 Y0_6 3.671253 1_555
Mg0_7 Mg1_3 3.084274 1_555
Mg0_7 Mg1_5 3.084274 1_555
Mg0_7 Mg4_3 3.110186 1_555
Mg0_7 Mg4_5 3.110186 1_555
Mg0_7 Mg2_4 3.185844 1_556
Mg0_7 Mg2_2 3.185844 1_556
Mg0_7 Y0_5 3.281049 1_555
Mg0_7 Y0_3 3.281049 1_555
Mg0_7 Mg3_6 3.383607 1_556
Mg0_7 Y0_7 3.671253 1_555
Mg1_0 Mg3_5 3.002993 1_555
Mg1_0 Mg3_3 3.002993 1_555
Mg1_0 Mg2_3 3.183757 1_555
Mg1_0 Mg2_5 3.183757 1_555
Mg1_0 Y0_2 3.233967 1_555
Mg1_0 Y0_4 3.233967 1_555
Mg1_0 Mg4_1 3.383607 1_555
Mg1_1 Mg3_4 3.002993 1_556
Mg1_1 Mg3_2 3.002993 1_556
Mg1_1 Mg2_2 3.183757 1_556
Mg1_1 Mg2_4 3.183757 1_556
Mg1_1 Y0_3 3.233967 1_555
Mg1_1 Y0_5 3.233967 1_555
Mg1_1 Mg4_0 3.383607 1_556
Mg1_2 Mg3_7 3.002993 1_555
Mg1_2 Mg3_1 3.002993 1_565
Mg1_2 Mg2_7 3.183757 1_555
Mg1_2 Mg2_1 3.183757 1_565
Mg1_2 Y0_6 3.233967 1_555
Mg1_2 Y0_0 3.233967 1_565
Mg1_2 Mg4_3 3.383607 1_555
Mg1_3 Mg3_0 3.002993 1_566
Mg1_3 Mg3_6 3.002993 1_556
Mg1_3 Mg2_6 3.183757 1_556
Mg1_3 Mg2_0 3.183757 1_566
Mg1_3 Y0_1 3.233967 1_565
Mg1_3 Y0_7 3.233967 1_555
Mg1_3 Mg4_2 3.383607 1_556
Mg1_4 Mg3_1 3.002993 1_655
Mg1_4 Mg3_7 3.002993 1_555
Mg1_4 Mg2_7 3.183757 1_555
Mg1_4 Mg2_1 3.183757 1_655
Mg1_4 Y0_6 3.233967 1_555
Mg1_4 Y0_0 3.233967 1_655
Mg1_4 Mg4_5 3.383607 1_555
Mg1_5 Mg3_6 3.002993 1_556
Mg1_5 Mg3_0 3.002993 1_656
Mg1_5 Mg2_6 3.183757 1_556
Mg1_5 Mg2_0 3.183757 1_656
Mg1_5 Y0_7 3.233967 1_555
Mg1_5 Y0_1 3.233967 1_655
Mg1_5 Mg4_4 3.383607 1_556
Mg1_6 Mg3_5 3.002993 1_565
Mg1_6 Mg3_3 3.002993 1_655
Mg1_6 Mg2_5 3.183757 1_565
Mg1_6 Mg2_3 3.183757 1_655
Mg1_6 Y0_2 3.233967 1_655
Mg1_6 Y0_4 3.233967 1_565
Mg1_6 Mg4_7 3.383607 1_555
Mg1_7 Mg3_4 3.002993 1_566
Mg1_7 Mg3_2 3.002993 1_656
Mg1_7 Mg2_2 3.183757 1_656
Mg1_7 Mg2_4 3.183757 1_566
Mg1_7 Y0_5 3.233967 1_565
Mg1_7 Y0_3 3.233967 1_655
Mg1_7 Mg4_6 3.383607 1_556
Mg2_0 Mg3_2 3.183757 1_555
Mg2_0 Mg3_4 3.183757 1_555
Mg2_0 Mg4_4 3.185844 1_455
Mg2_0 Mg4_2 3.185844 1_545
Mg2_0 Y0_0 3.516731 1_555
Mg2_0 Y0_1 3.516731 1_554
Mg2_1 Mg3_3 3.183757 1_555
Mg2_1 Mg3_5 3.183757 1_555
Mg2_1 Mg4_5 3.185844 1_455
Mg2_1 Mg4_3 3.185844 1_545
Mg2_1 Y0_1 3.516731 1_555
Mg2_1 Y0_0 3.516731 1_555
Mg2_2 Mg3_6 3.183757 1_555
Mg2_2 Mg3_0 3.183757 1_565
Mg2_2 Mg4_6 3.185844 1_455
Mg2_2 Mg4_0 3.185844 1_555
Mg2_2 Y0_3 3.516731 1_554
Mg2_2 Y0_2 3.516731 1_555
Mg2_3 Mg3_7 3.183757 1_555
Mg2_3 Mg3_1 3.183757 1_565
Mg2_3 Mg4_1 3.185844 1_555
Mg2_3 Mg4_7 3.185844 1_455
Mg2_3 Y0_3 3.516731 1_555
Mg2_3 Y0_2 3.516731 1_555
Mg2_4 Mg3_6 3.183757 1_555
Mg2_4 Mg3_0 3.183757 1_655
Mg2_4 Mg4_0 3.185844 1_555
Mg2_4 Mg4_6 3.185844 1_545
Mg2_4 Y0_4 3.516731 1_555
Mg2_4 Y0_5 3.516731 1_554
Mg2_5 Mg3_7 3.183757 1_555
Mg2_5 Mg3_1 3.183757 1_655
Mg2_5 Mg4_1 3.185844 1_555
Mg2_5 Mg4_7 3.185844 1_545
Mg2_5 Y0_5 3.516731 1_555
Mg2_5 Y0_4 3.516731 1_555
Mg2_6 Mg3_2 3.183757 1_655
Mg2_6 Mg3_4 3.183757 1_565
Mg2_6 Mg4_4 3.185844 1_555
Mg2_6 Mg4_2 3.185844 1_555
Mg2_6 Y0_7 3.516731 1_554
Mg2_6 Y0_6 3.516731 1_555
Mg2_7 Mg3_3 3.183757 1_655
Mg2_7 Mg3_5 3.183757 1_565
Mg2_7 Mg4_5 3.185844 1_555
Mg2_7 Mg4_3 3.185844 1_555
Mg2_7 Y0_7 3.516731 1_555
Mg2_7 Y0_6 3.516731 1_555
Mg3_0 Mg4_2 3.084274 1_545
Mg3_0 Mg4_4 3.084274 1_455
Mg3_0 Y0_4 3.233967 1_455
Mg3_0 Y0_2 3.233967 1_545
Mg3_1 Mg4_3 3.084274 1_545
Mg3_1 Mg4_5 3.084274 1_455
Mg3_1 Y0_5 3.233967 1_455
Mg3_1 Y0_3 3.233967 1_545
Mg3_2 Mg4_0 3.084274 1_555
Mg3_2 Mg4_6 3.084274 1_455
Mg3_2 Y0_0 3.233967 1_555
Mg3_2 Y0_6 3.233967 1_455
Mg3_3 Mg4_7 3.084274 1_455
Mg3_3 Mg4_1 3.084274 1_555
Mg3_3 Y0_1 3.233967 1_555
Mg3_3 Y0_7 3.233967 1_455
Mg3_4 Mg4_0 3.084274 1_555
Mg3_4 Mg4_6 3.084274 1_545
Mg3_4 Y0_0 3.233967 1_555
Mg3_4 Y0_6 3.233967 1_545
Mg3_5 Mg4_7 3.084274 1_545
Mg3_5 Mg4_1 3.084274 1_555
Mg3_5 Y0_1 3.233967 1_555
Mg3_5 Y0_7 3.233967 1_545
Mg3_6 Mg4_2 3.084274 1_555
Mg3_6 Mg4_4 3.084274 1_555
Mg3_6 Y0_4 3.233967 1_555
Mg3_6 Y0_2 3.233967 1_555
Mg3_7 Mg4_3 3.084274 1_555
Mg3_7 Mg4_5 3.084274 1_555
Mg3_7 Y0_5 3.233967 1_555
Mg3_7 Y0_3 3.233967 1_555
Mg4_0 Y0_2 3.281049 1_555
Mg4_0 Y0_4 3.281049 1_555
Mg4_0 Y0_0 3.671253 1_555
Mg4_1 Y0_3 3.281049 1_555
Mg4_1 Y0_5 3.281049 1_555
Mg4_1 Y0_1 3.671253 1_555
Mg4_2 Y0_6 3.281049 1_555
Mg4_2 Y0_0 3.281049 1_565
Mg4_2 Y0_2 3.671253 1_555
Mg4_3 Y0_7 3.281049 1_555
Mg4_3 Y0_1 3.281049 1_565
Mg4_3 Y0_3 3.671253 1_555
Mg4_4 Y0_6 3.281049 1_555
Mg4_4 Y0_0 3.281049 1_655
Mg4_4 Y0_4 3.671253 1_555
Mg4_5 Y0_7 3.281049 1_555
Mg4_5 Y0_1 3.281049 1_655
Mg4_5 Y0_5 3.671253 1_555
Mg4_6 Y0_2 3.281049 1_655
Mg4_6 Y0_4 3.281049 1_565
Mg4_6 Y0_6 3.671253 1_555
Mg4_7 Y0_3 3.281049 1_655
Mg4_7 Y0_5 3.281049 1_565
Mg4_7 Y0_7 3.671253 1_555
