# generated using pymatgen
data_H(C3N2)4
_symmetry_space_group_name_H-M   'P 1'
_cell_length_a   5.10402500
_cell_length_b   5.10402500
_cell_length_c   5.10402500
_cell_angle_alpha   90.00000000
_cell_angle_beta   90.00000000
_cell_angle_gamma   90.00000000
_symmetry_Int_Tables_number   1
_chemical_formula_structural   H(C3N2)4
_chemical_formula_sum   'H1 C12 N8'
_cell_volume   132.96531868
_cell_formula_units_Z   1
loop_
 _symmetry_equiv_pos_site_id
 _symmetry_equiv_pos_as_xyz
  1  'x, y, z'
loop_
 _atom_site_type_symbol
 _atom_site_label
 _atom_site_symmetry_multiplicity
 _atom_site_fract_x
 _atom_site_fract_y
 _atom_site_fract_z
 _atom_site_occupancy
  H  H0  1  0.50000000  0.50000000  0.50000000  1
  C  C0  1  0.15694900  0.15694900  0.50000000  1
  C  C1  1  0.84305100  0.84305100  0.50000000  1
  C  C2  1  0.84305100  0.15694900  0.50000000  1
  C  C3  1  0.15694900  0.84305100  0.50000000  1
  C  C4  1  0.50000000  0.15694900  0.15694900  1
  C  C5  1  0.50000000  0.84305100  0.84305100  1
  C  C6  1  0.50000000  0.84305100  0.15694900  1
  C  C7  1  0.50000000  0.15694900  0.84305100  1
  C  C8  1  0.15694900  0.50000000  0.15694900  1
  C  C9  1  0.84305100  0.50000000  0.84305100  1
  C  C10  1  0.15694900  0.50000000  0.84305100  1
  C  C11  1  0.84305100  0.50000000  0.15694900  1
  N  N0  1  0.25768000  0.25768000  0.25768000  1
  N  N1  1  0.74232000  0.74232000  0.74232000  1
  N  N2  1  0.74232000  0.74232000  0.25768000  1
  N  N3  1  0.25768000  0.25768000  0.74232000  1
  N  N4  1  0.74232000  0.25768000  0.74232000  1
  N  N5  1  0.25768000  0.74232000  0.25768000  1
  N  N6  1  0.25768000  0.74232000  0.74232000  1
  N  N7  1  0.74232000  0.25768000  0.25768000  1
loop_
_geom_bond_atom_site_label_1
_geom_bond_atom_site_label_2
_geom_bond_distance
_geom_bond_site_symmetry_2
C0 N3 1.434698 1_555
C0 N0 1.434698 1_555
C1 N1 1.434698 1_555
C1 N2 1.434698 1_555
C2 N7 1.434698 1_555
C2 N4 1.434698 1_555
C3 N5 1.434698 1_555
C3 N6 1.434698 1_555
C4 N7 1.434698 1_555
C4 N0 1.434698 1_555
C5 N1 1.434698 1_555
C5 N6 1.434698 1_555
C6 N5 1.434698 1_555
C6 N2 1.434698 1_555
C7 N4 1.434698 1_555
C7 N3 1.434698 1_555
C8 N5 1.434698 1_555
C8 N0 1.434698 1_555
C9 N1 1.434698 1_555
C9 N4 1.434698 1_555
C10 N3 1.434698 1_555
C10 N6 1.434698 1_555
C11 N7 1.434698 1_555
C11 N2 1.434698 1_555
