# generated using pymatgen
data_Zr3Zn
_symmetry_space_group_name_H-M   'P 1'
_cell_length_a   5.41570406
_cell_length_b   5.41570406
_cell_length_c   5.41570406
_cell_angle_alpha   133.44560002
_cell_angle_beta   133.44560002
_cell_angle_gamma   67.95522139
_symmetry_Int_Tables_number   1
_chemical_formula_structural   Zr3Zn
_chemical_formula_sum   'Zr3 Zn1'
_cell_volume   82.28170612
_cell_formula_units_Z   1
loop_
 _symmetry_equiv_pos_site_id
 _symmetry_equiv_pos_as_xyz
  1  'x, y, z'
loop_
 _atom_site_type_symbol
 _atom_site_label
 _atom_site_symmetry_multiplicity
 _atom_site_fract_x
 _atom_site_fract_y
 _atom_site_fract_z
 _atom_site_occupancy
  Zr  Zr0  1  0.75000000  0.25000100  0.50000000  1
  Zr  Zr1  1  0.25000100  0.75000000  0.50000000  1
  Zr  Zr2  1  0.50000000  0.50000000  -0.00000000  1
  Zn  Zn0  1  0.00000000  -0.00000000  -0.00000000  1
loop_
_geom_bond_atom_site_label_1
_geom_bond_atom_site_label_2
_geom_bond_distance
_geom_bond_site_symmetry_2
Zr0 Zr1 3.026663 1_555
Zr0 Zr1 3.026669 1_656
Zr0 Zr1 3.026669 1_544
Zr0 Zr1 3.026675 1_645
Zr0 Zr2 3.102034 1_555
Zr0 Zr2 3.102037 1_656
Zr0 Zr2 3.102040 1_556
Zr0 Zr2 3.102043 1_545
Zr1 Zr2 3.102034 1_555
Zr1 Zr2 3.102037 1_566
Zr1 Zr2 3.102040 1_556
Zr1 Zr2 3.102043 1_455
Zn0 Zr2 3.026669 1_455
Zn0 Zr2 3.026669 1_556
Zn0 Zr2 3.026669 1_545
Zn0 Zr2 3.026669 1_444
Zn0 Zr0 3.102034 1_444
Zn0 Zr1 3.102034 1_444
Zn0 Zr1 3.102037 1_545
Zn0 Zr0 3.102037 1_455
Zn0 Zr1 3.102040 1_555
Zn0 Zr0 3.102040 1_555
Zn0 Zr0 3.102043 1_454
Zn0 Zr1 3.102043 1_544
