# generated using pymatgen
data_HAuO2
_symmetry_space_group_name_H-M   'P 1'
_cell_length_a   4.07555539
_cell_length_b   4.65954647
_cell_length_c   5.40536816
_cell_angle_alpha   92.28158792
_cell_angle_beta   90.17755880
_cell_angle_gamma   114.89210340
_symmetry_Int_Tables_number   1
_chemical_formula_structural   HAuO2
_chemical_formula_sum   'H2 Au2 O4'
_cell_volume   93.01718776
_cell_formula_units_Z   2
loop_
 _symmetry_equiv_pos_site_id
 _symmetry_equiv_pos_as_xyz
  1  'x, y, z'
loop_
 _atom_site_type_symbol
 _atom_site_label
 _atom_site_symmetry_multiplicity
 _atom_site_fract_x
 _atom_site_fract_y
 _atom_site_fract_z
 _atom_site_occupancy
  H  H0  1  0.92793334  0.98631472  0.24936875  1
  H  H1  1  0.07206666  0.01368528  0.75063125  1
  Au  Au0  1  -0.00000000  0.50000000  0.00000000  1
  Au  Au1  1  0.50000000  0.50000000  0.50000000  1
  O  O0  1  0.24073587  0.27881565  0.79783972  1
  O  O1  1  0.95362202  0.72216899  0.70269537  1
  O  O2  1  0.75926413  0.72118435  0.20216028  1
  O  O3  1  0.04637798  0.27783101  0.29730463  1
loop_
_geom_bond_atom_site_label_1
_geom_bond_atom_site_label_2
_geom_bond_distance
_geom_bond_site_symmetry_2
H0 O2 1.150112 1_555
H0 O3 1.250780 1_665
H1 O0 1.150112 1_555
H1 O1 1.250780 1_445
Au0 O1 1.996311 1_454
Au0 O3 1.996311 1_555
Au0 O0 1.996773 1_554
Au0 O2 1.996773 1_455
Au1 O1 1.993997 1_555
Au1 O3 1.993997 1_555
Au1 O2 1.999118 1_555
Au1 O0 1.999118 1_555
