# generated using pymatgen
data_CaU(PO4)2
_symmetry_space_group_name_H-M   'P 1'
_cell_length_a   6.20149700
_cell_length_b   7.02821800
_cell_length_c   14.08095000
_cell_angle_alpha   90.00000000
_cell_angle_beta   90.00000000
_cell_angle_gamma   90.00000000
_symmetry_Int_Tables_number   1
_chemical_formula_structural   CaU(PO4)2
_chemical_formula_sum   'Ca4 U4 P8 O32'
_cell_volume   613.72486382
_cell_formula_units_Z   4
loop_
 _symmetry_equiv_pos_site_id
 _symmetry_equiv_pos_as_xyz
  1  'x, y, z'
loop_
 _atom_site_type_symbol
 _atom_site_label
 _atom_site_symmetry_multiplicity
 _atom_site_fract_x
 _atom_site_fract_y
 _atom_site_fract_z
 _atom_site_occupancy
  Ca  Ca0  1  0.89394600  0.75000000  0.61981200  1
  Ca  Ca1  1  0.39394600  0.25000000  0.88018800  1
  Ca  Ca2  1  0.10605400  0.25000000  0.38018800  1
  Ca  Ca3  1  0.60605400  0.75000000  0.11981200  1
  U  U0  1  0.12953700  0.75000000  0.87206100  1
  U  U1  1  0.62953700  0.25000000  0.62793900  1
  U  U2  1  0.87046300  0.25000000  0.12793900  1
  U  U3  1  0.37046300  0.75000000  0.37206100  1
  P  P0  1  0.40025800  0.75000000  0.62867700  1
  P  P1  1  0.90025800  0.25000000  0.87132300  1
  P  P2  1  0.59974200  0.25000000  0.37132300  1
  P  P3  1  0.09974200  0.75000000  0.12867700  1
  P  P4  1  0.62835600  0.75000000  0.87275800  1
  P  P5  1  0.12835600  0.25000000  0.62724200  1
  P  P6  1  0.37164400  0.25000000  0.12724200  1
  P  P7  1  0.87164400  0.75000000  0.37275800  1
  O  O0  1  0.77270200  0.75000000  0.96242500  1
  O  O1  1  0.27270200  0.25000000  0.53757500  1
  O  O2  1  0.22729800  0.25000000  0.03757500  1
  O  O3  1  0.72729800  0.75000000  0.46242500  1
  O  O4  1  0.79396500  0.75000000  0.78976500  1
  O  O5  1  0.29396500  0.25000000  0.71023500  1
  O  O6  1  0.20603500  0.25000000  0.21023500  1
  O  O7  1  0.70603500  0.75000000  0.28976500  1
  O  O8  1  0.53062600  0.42162700  0.12901100  1
  O  O9  1  0.03062600  0.57837300  0.37098900  1
  O  O10  1  0.46937400  0.92162700  0.87098900  1
  O  O11  1  0.96937400  0.07837300  0.62901100  1
  O  O12  1  0.46937400  0.57837300  0.87098900  1
  O  O13  1  0.96937400  0.42162700  0.62901100  1
  O  O14  1  0.53062600  0.07837300  0.12901100  1
  O  O15  1  0.03062600  0.92162700  0.37098900  1
  O  O16  1  0.27016400  0.75000000  0.20943900  1
  O  O17  1  0.77016400  0.25000000  0.29056100  1
  O  O18  1  0.72983600  0.25000000  0.79056100  1
  O  O19  1  0.22983600  0.75000000  0.70943900  1
  O  O20  1  0.22551500  0.75000000  0.03318700  1
  O  O21  1  0.72551500  0.25000000  0.46681300  1
  O  O22  1  0.77448500  0.25000000  0.96681300  1
  O  O23  1  0.27448500  0.75000000  0.53318700  1
  O  O24  1  0.95002700  0.92718800  0.13392900  1
  O  O25  1  0.45002700  0.07281200  0.36607100  1
  O  O26  1  0.04997300  0.42718800  0.86607100  1
  O  O27  1  0.54997300  0.57281200  0.63392900  1
  O  O28  1  0.04997300  0.07281200  0.86607100  1
  O  O29  1  0.54997300  0.92718800  0.63392900  1
  O  O30  1  0.95002700  0.57281200  0.13392900  1
  O  O31  1  0.45002700  0.42718800  0.36607100  1
loop_
_geom_bond_atom_site_label_1
_geom_bond_atom_site_label_2
_geom_bond_distance
_geom_bond_site_symmetry_2
Ca0 O11 2.358364 1_565
Ca0 O13 2.358364 1_555
Ca0 O19 2.435509 1_655
Ca0 O3 2.445284 1_555
Ca0 O4 2.472118 1_555
Ca0 O27 2.478032 1_555
Ca0 O29 2.478032 1_555
Ca0 O23 2.656502 1_655
Ca1 O10 2.358364 1_545
Ca1 O12 2.358364 1_555
Ca1 O18 2.435509 1_555
Ca1 O2 2.445284 1_556
Ca1 O5 2.472118 1_555
Ca1 O26 2.478032 1_555
Ca1 O28 2.478032 1_555
Ca1 O22 2.656502 1_555
Ca2 O9 2.358364 1_555
Ca2 O15 2.358364 1_545
Ca2 O17 2.435509 1_455
Ca2 O1 2.445284 1_555
Ca2 O6 2.472118 1_555
Ca2 O31 2.478032 1_555
Ca2 O25 2.478032 1_555
Ca2 O21 2.656502 1_455
Ca3 O14 2.358364 1_565
Ca3 O8 2.358364 1_555
Ca3 O16 2.435509 1_555
Ca3 O0 2.445284 1_554
Ca3 O7 2.472118 1_555
Ca3 O30 2.478032 1_555
Ca3 O24 2.478032 1_555
Ca3 O20 2.656502 1_555
O0 P4 1.547729 1_555
O0 U0 2.552647 1_655
O1 P5 1.547729 1_555
O1 U1 2.552647 1_555
O2 P6 1.547729 1_555
O2 U2 2.552647 1_455
O3 P7 1.547729 1_555
O3 U3 2.552647 1_555
O4 P4 1.555780 1_555
O4 U0 2.381931 1_655
O5 P5 1.555780 1_555
O5 U1 2.381931 1_555
O6 P6 1.555780 1_555
O6 U2 2.381931 1_455
O7 P7 1.555780 1_555
O7 U3 2.381931 1_555
O8 P6 1.558097 1_555
O8 U2 2.428327 1_555
O9 P7 1.558097 1_455
O9 U3 2.428327 1_555
O10 P4 1.558097 1_555
O10 U0 2.428327 1_555
O11 P5 1.558097 1_655
O11 U1 2.428327 1_555
O12 P4 1.558097 1_555
O12 U0 2.428327 1_555
O13 P5 1.558097 1_655
O13 U1 2.428327 1_555
O14 P6 1.558097 1_555
O14 U2 2.428327 1_555
O15 P7 1.558097 1_455
O15 U3 2.428327 1_555
O16 P3 1.552486 1_555
O16 U3 2.372847 1_555
O17 P2 1.552486 1_555
O17 U2 2.372847 1_555
O18 P1 1.552486 1_555
O18 U1 2.372847 1_555
O19 P0 1.552486 1_555
O19 U0 2.372847 1_555
O20 P3 1.554443 1_555
O20 U0 2.345583 1_554
O21 P2 1.554443 1_555
O21 U1 2.345583 1_555
O22 P1 1.554443 1_555
O22 U2 2.345583 1_556
O23 P0 1.554443 1_555
O23 U3 2.345583 1_555
O24 P3 1.555093 1_655
O24 U2 2.323359 1_565
O25 P2 1.555093 1_555
O25 U3 2.323359 1_545
O26 P1 1.555093 1_455
O26 U0 2.323359 1_555
O27 P0 1.555093 1_555
O27 U1 2.323359 1_555
O28 P1 1.555093 1_455
O28 U0 2.323359 1_545
O29 P0 1.555093 1_555
O29 U1 2.323359 1_565
O30 P3 1.555093 1_655
O30 U2 2.323359 1_555
O31 P2 1.555093 1_555
O31 U3 2.323359 1_555
