# generated using pymatgen
data_NdB2HF10
_symmetry_space_group_name_H-M   'P 1'
_cell_length_a   5.88628100
_cell_length_b   7.07791200
_cell_length_c   8.81546678
_cell_angle_alpha   67.45699620
_cell_angle_beta   90.00000000
_cell_angle_gamma   90.00000000
_symmetry_Int_Tables_number   1
_chemical_formula_structural   NdB2HF10
_chemical_formula_sum   'Nd2 B4 H2 F20'
_cell_volume   339.21234304
_cell_formula_units_Z   2
loop_
 _symmetry_equiv_pos_site_id
 _symmetry_equiv_pos_as_xyz
  1  'x, y, z'
loop_
 _atom_site_type_symbol
 _atom_site_label
 _atom_site_symmetry_multiplicity
 _atom_site_fract_x
 _atom_site_fract_y
 _atom_site_fract_z
 _atom_site_occupancy
  Nd  Nd0  1  0.75000000  0.23262900  0.34351500  1
  Nd  Nd1  1  0.25000000  0.76737100  0.65648500  1
  B  B0  1  0.25000000  0.25174600  0.04943900  1
  B  B1  1  0.25000000  0.58605900  0.30508400  1
  B  B2  1  0.75000000  0.41394100  0.69491600  1
  B  B3  1  0.75000000  0.74825400  0.95056100  1
  H  H0  1  0.75000000  0.92797700  0.15273700  1
  H  H1  1  0.25000000  0.07202300  0.84726300  1
  F  F0  1  0.25000000  0.07188600  0.01507500  1
  F  F1  1  0.75000000  0.57658000  0.10027800  1
  F  F2  1  0.25000000  0.66581100  0.13641000  1
  F  F3  1  0.44549300  0.25288900  0.14298000  1
  F  F4  1  0.05450700  0.25288900  0.14298000  1
  F  F5  1  0.75000000  0.92794300  0.26349600  1
  F  F6  1  0.25000000  0.73971700  0.37247700  1
  F  F7  1  0.44717700  0.45912200  0.36635900  1
  F  F8  1  0.05282300  0.45912200  0.36635900  1
  F  F9  1  0.00000000  0.00000000  0.50000000  1
  F  F10  1  0.50000000  0.00000000  0.50000000  1
  F  F11  1  0.94717700  0.54087800  0.63364100  1
  F  F12  1  0.55282300  0.54087800  0.63364100  1
  F  F13  1  0.75000000  0.26028300  0.62752300  1
  F  F14  1  0.25000000  0.07205700  0.73650400  1
  F  F15  1  0.94549300  0.74711100  0.85702000  1
  F  F16  1  0.55450700  0.74711100  0.85702000  1
  F  F17  1  0.75000000  0.33418900  0.86359000  1
  F  F18  1  0.25000000  0.42342000  0.89972200  1
  F  F19  1  0.75000000  0.92811400  0.98492500  1
loop_
_geom_bond_atom_site_label_1
_geom_bond_atom_site_label_2
_geom_bond_distance
_geom_bond_site_symmetry_2
B0 F18 1.410227 1_554
B0 F0 1.417067 1_555
B0 F3 1.417508 1_555
B0 F4 1.417508 1_555
B1 F2 1.373337 1_555
B1 F6 1.425203 1_555
B1 F7 1.440125 1_555
B1 F8 1.440125 1_555
B2 F17 1.373337 1_555
B2 F13 1.425203 1_555
B2 F11 1.440125 1_555
B2 F12 1.440125 1_555
B3 F1 1.410227 1_556
B3 F19 1.417067 1_555
B3 F15 1.417508 1_555
B3 F16 1.417508 1_555
F0 H1 1.478970 1_554
F1 Nd0 2.553793 1_555
F3 Nd0 2.482758 1_555
F4 Nd0 2.482758 1_455
F5 H0 0.976300 1_555
F5 Nd0 2.512902 1_565
F6 Nd1 2.585031 1_555
F7 Nd0 2.456689 1_555
F8 Nd0 2.456689 1_455
F9 Nd0 2.244545 1_455
F9 Nd1 2.244545 1_545
F10 Nd0 2.244545 1_555
F10 Nd1 2.244545 1_545
F11 Nd1 2.456689 1_655
F12 Nd1 2.456689 1_555
F13 Nd0 2.585031 1_555
F14 H1 0.976300 1_555
F14 Nd1 2.512902 1_545
F15 Nd1 2.482758 1_655
F16 Nd1 2.482758 1_555
F18 Nd1 2.553793 1_555
F19 H0 1.478970 1_556
