# generated using pymatgen
data_InCuO3
_symmetry_space_group_name_H-M   'P 1'
_cell_length_a   3.78734100
_cell_length_b   3.78734100
_cell_length_c   3.78734100
_cell_angle_alpha   90.00000000
_cell_angle_beta   90.00000000
_cell_angle_gamma   90.00000000
_symmetry_Int_Tables_number   1
_chemical_formula_structural   InCuO3
_chemical_formula_sum   'In1 Cu1 O3'
_cell_volume   54.32543694
_cell_formula_units_Z   1
loop_
 _symmetry_equiv_pos_site_id
 _symmetry_equiv_pos_as_xyz
  1  'x, y, z'
loop_
 _atom_site_type_symbol
 _atom_site_label
 _atom_site_symmetry_multiplicity
 _atom_site_fract_x
 _atom_site_fract_y
 _atom_site_fract_z
 _atom_site_occupancy
  In  In0  1  0.00000000  0.00000000  0.00000000  1
  Cu  Cu0  1  0.50000000  0.50000000  0.50000000  1
  O  O0  1  0.50000000  0.50000000  0.00000000  1
  O  O1  1  0.50000000  0.00000000  0.50000000  1
  O  O2  1  0.00000000  0.50000000  0.50000000  1
loop_
_geom_bond_atom_site_label_1
_geom_bond_atom_site_label_2
_geom_bond_distance
_geom_bond_site_symmetry_2
In0 O2 2.678055 1_545
In0 O1 2.678055 1_555
In0 O1 2.678055 1_454
In0 O0 2.678055 1_555
In0 O1 2.678055 1_554
In0 O0 2.678055 1_545
In0 O2 2.678055 1_554
In0 O2 2.678055 1_555
In0 O0 2.678055 1_445
In0 O0 2.678055 1_455
In0 O2 2.678055 1_544
In0 O1 2.678055 1_455
Cu0 O1 1.893671 1_555
Cu0 O0 1.893671 1_555
Cu0 O2 1.893671 1_555
Cu0 O1 1.893671 1_565
Cu0 O2 1.893671 1_655
Cu0 O0 1.893671 1_556
