# generated using pymatgen
data_K3BP2
_symmetry_space_group_name_H-M   'P 1'
_cell_length_a   6.46343017
_cell_length_b   6.46343029
_cell_length_c   8.95177689
_cell_angle_alpha   74.95764901
_cell_angle_beta   74.95764664
_cell_angle_gamma   86.69355492
_symmetry_Int_Tables_number   1
_chemical_formula_structural   K3BP2
_chemical_formula_sum   'K6 B2 P4'
_cell_volume   348.76046425
_cell_formula_units_Z   2
loop_
 _symmetry_equiv_pos_site_id
 _symmetry_equiv_pos_as_xyz
  1  'x, y, z'
loop_
 _atom_site_type_symbol
 _atom_site_label
 _atom_site_symmetry_multiplicity
 _atom_site_fract_x
 _atom_site_fract_y
 _atom_site_fract_z
 _atom_site_occupancy
  K  K0  1  0.65050411  0.34949589  0.25000000  1
  K  K1  1  0.34949589  0.65050411  0.75000000  1
  K  K2  1  0.25264679  0.15271869  0.01823534  1
  K  K3  1  0.84728131  0.74735321  0.48176466  1
  K  K4  1  0.74735321  0.84728131  0.98176466  1
  K  K5  1  0.15271869  0.25264679  0.51823534  1
  B  B0  1  0.28260354  0.71739646  0.25000000  1
  B  B1  1  0.71739646  0.28260354  0.75000000  1
  P  P0  1  0.40768834  0.85190382  0.35209720  1
  P  P1  1  0.14809618  0.59231166  0.14790280  1
  P  P2  1  0.85190382  0.40768834  0.85209720  1
  P  P3  1  0.59231166  0.14809618  0.64790280  1
loop_
_geom_bond_atom_site_label_1
_geom_bond_atom_site_label_2
_geom_bond_distance
_geom_bond_site_symmetry_2
K0 P2 3.387875 1_554
K0 P3 3.387875 1_555
K0 P1 3.457454 1_655
K0 P0 3.457454 1_545
K1 P1 3.387875 1_556
K1 P0 3.387875 1_555
K1 P2 3.457454 1_455
K1 P3 3.457454 1_565
K2 P1 3.310608 1_555
K2 P2 3.445527 1_454
K2 P0 3.468454 1_545
K2 P3 3.475176 1_554
K2 P1 3.552014 1_545
K3 P0 3.310608 1_555
K3 P3 3.445526 1_565
K3 P1 3.468454 1_655
K3 P2 3.475176 1_555
K3 P0 3.552014 1_655
K4 P2 3.310608 1_555
K4 P1 3.445527 1_656
K4 P3 3.468454 1_565
K4 P0 3.475176 1_556
K4 P2 3.552014 1_565
K5 P3 3.310608 1_555
K5 P0 3.445526 1_545
K5 P2 3.468454 1_455
K5 P1 3.475176 1_555
K5 P3 3.552014 1_455
B0 P0 1.766866 1_555
B0 P1 1.766866 1_555
B0 K3 3.061741 1_455
B0 K2 3.061741 1_565
B0 K0 3.264439 1_555
B0 K4 3.315770 1_554
B0 K5 3.315770 1_555
B1 P3 1.766866 1_555
B1 P2 1.766866 1_555
B1 K5 3.061741 1_655
B1 K4 3.061741 1_545
B1 K1 3.264439 1_555
B1 K2 3.315770 1_556
B1 K3 3.315770 1_555
