# generated using pymatgen
data_Sr3MgIrO6
_symmetry_space_group_name_H-M   'P 1'
_cell_length_a   6.69332711
_cell_length_b   6.69332605
_cell_length_c   6.69332715
_cell_angle_alpha   92.38207594
_cell_angle_beta   92.38205499
_cell_angle_gamma   92.38204907
_symmetry_Int_Tables_number   1
_chemical_formula_structural   Sr3MgIrO6
_chemical_formula_sum   'Sr6 Mg2 Ir2 O12'
_cell_volume   299.06560377
_cell_formula_units_Z   2
loop_
 _symmetry_equiv_pos_site_id
 _symmetry_equiv_pos_as_xyz
  1  'x, y, z'
loop_
 _atom_site_type_symbol
 _atom_site_label
 _atom_site_symmetry_multiplicity
 _atom_site_fract_x
 _atom_site_fract_y
 _atom_site_fract_z
 _atom_site_occupancy
  Sr  Sr0  1  0.61502289  0.24999909  0.88497886  1
  Sr  Sr1  1  0.88497876  0.61502267  0.24999892  1
  Sr  Sr2  1  0.75000111  0.11502138  0.38497730  1
  Sr  Sr3  1  0.38497711  0.75000091  0.11502114  1
  Sr  Sr4  1  0.11502124  0.38497733  0.75000108  1
  Sr  Sr5  1  0.24999889  0.88497862  0.61502270  1
  Mg  Mg0  1  0.25000020  0.25000062  0.25000072  1
  Mg  Mg1  1  0.74999980  0.74999938  0.74999928  1
  Ir  Ir0  1  -0.00000000  0.00000000  0.00000000  1
  Ir  Ir1  1  0.50000000  0.50000000  0.50000000  1
  O  O0  1  0.59592152  0.78758267  0.46396777  1
  O  O1  1  0.46396770  0.59592139  0.78758258  1
  O  O2  1  0.78758273  0.46396773  0.59592158  1
  O  O3  1  0.90407951  0.03603250  0.71241435  1
  O  O4  1  0.71241443  0.90407935  0.03603271  1
  O  O5  1  0.03603271  0.71241431  0.90407896  1
  O  O6  1  0.40407848  0.21241733  0.53603223  1
  O  O7  1  0.53603230  0.40407861  0.21241742  1
  O  O8  1  0.21241727  0.53603227  0.40407842  1
  O  O9  1  0.09592049  0.96396750  0.28758565  1
  O  O10  1  0.96396729  0.28758569  0.09592104  1
  O  O11  1  0.28758557  0.09592065  0.96396729  1
loop_
_geom_bond_atom_site_label_1
_geom_bond_atom_site_label_2
_geom_bond_distance
_geom_bond_site_symmetry_2
Mg0 O8 2.165557 1_555
Mg0 O6 2.165559 1_555
Mg0 O7 2.165562 1_555
Mg0 O10 2.165574 1_455
Mg0 O9 2.165575 1_545
Mg0 O11 2.165578 1_554
Mg1 O2 2.165557 1_555
Mg1 O0 2.165559 1_555
Mg1 O1 2.165562 1_555
Mg1 O5 2.165574 1_655
Mg1 O3 2.165575 1_565
Mg1 O4 2.165578 1_556
Ir0 O9 2.030851 1_545
Ir0 O3 2.030851 1_454
Ir0 O4 2.030851 1_445
Ir0 O11 2.030851 1_554
Ir0 O5 2.030852 1_544
Ir0 O10 2.030852 1_455
Ir1 O1 2.030833 1_555
Ir1 O7 2.030833 1_555
Ir1 O6 2.030834 1_555
Ir1 O0 2.030834 1_555
Ir1 O2 2.030834 1_555
Ir1 O8 2.030834 1_555
O0 Sr2 2.469865 1_565
O0 Sr5 2.659595 1_555
O0 Sr3 2.675706 1_555
O0 Sr1 2.721576 1_555
O1 Sr3 2.469864 1_556
O1 Sr0 2.659595 1_555
O1 Sr4 2.675704 1_555
O1 Sr5 2.721576 1_555
O2 Sr4 2.469864 1_655
O2 Sr1 2.659596 1_555
O2 Sr2 2.675703 1_555
O2 Sr0 2.721576 1_555
O3 Sr2 2.469849 1_555
O3 Sr5 2.659565 1_645
O3 Sr4 2.675688 1_655
O3 Sr0 2.721578 1_555
O4 Sr3 2.469850 1_555
O4 Sr0 2.659567 1_564
O4 Sr2 2.675687 1_565
O4 Sr1 2.721577 1_555
O5 Sr4 2.469846 1_555
O5 Sr1 2.659570 1_456
O5 Sr3 2.675687 1_556
O5 Sr5 2.721575 1_555
O6 Sr5 2.469865 1_545
O6 Sr2 2.659595 1_555
O6 Sr0 2.675706 1_555
O6 Sr4 2.721576 1_555
O7 Sr0 2.469864 1_554
O7 Sr3 2.659595 1_555
O7 Sr1 2.675704 1_555
O7 Sr2 2.721576 1_555
O8 Sr1 2.469864 1_455
O8 Sr4 2.659596 1_555
O8 Sr5 2.675703 1_555
O8 Sr3 2.721576 1_555
O9 Sr5 2.469849 1_555
O9 Sr2 2.659565 1_465
O9 Sr1 2.675688 1_455
O9 Sr3 2.721578 1_555
O10 Sr1 2.469846 1_555
O10 Sr4 2.659570 1_654
O10 Sr0 2.675687 1_554
O10 Sr2 2.721575 1_555
O11 Sr0 2.469850 1_555
O11 Sr3 2.659567 1_546
O11 Sr5 2.675687 1_545
O11 Sr4 2.721577 1_555
