# generated using pymatgen
data_Lu(Mg4Al3)4
_symmetry_space_group_name_H-M   'P 1'
_cell_length_a   9.11778912
_cell_length_b   9.11778912
_cell_length_c   9.11778912
_cell_angle_alpha   109.47122063
_cell_angle_beta   109.47122063
_cell_angle_gamma   109.47122063
_symmetry_Int_Tables_number   1
_chemical_formula_structural   Lu(Mg4Al3)4
_chemical_formula_sum   'Lu1 Mg16 Al12'
_cell_volume   583.50789814
_cell_formula_units_Z   1
loop_
 _symmetry_equiv_pos_site_id
 _symmetry_equiv_pos_as_xyz
  1  'x, y, z'
loop_
 _atom_site_type_symbol
 _atom_site_label
 _atom_site_symmetry_multiplicity
 _atom_site_fract_x
 _atom_site_fract_y
 _atom_site_fract_z
 _atom_site_occupancy
  Lu  Lu0  1  0.00000000  0.00000000  0.00000000  1
  Mg  Mg0  1  0.00000000  0.35492200  0.00000000  1
  Mg  Mg1  1  0.35492200  0.00000000  0.00000000  1
  Mg  Mg2  1  0.60321400  0.31876100  0.00000000  1
  Mg  Mg3  1  0.31876100  0.60321400  0.00000000  1
  Mg  Mg4  1  0.39678600  0.39678600  0.71554700  1
  Mg  Mg5  1  0.28445300  0.68123900  0.68123900  1
  Mg  Mg6  1  0.68123900  0.28445300  0.68123900  1
  Mg  Mg7  1  0.64507800  0.64507800  0.64507800  1
  Mg  Mg8  1  0.00000000  0.31876100  0.60321400  1
  Mg  Mg9  1  0.31876100  0.00000000  0.60321400  1
  Mg  Mg10  1  0.39678600  0.71554700  0.39678600  1
  Mg  Mg11  1  0.71554700  0.39678600  0.39678600  1
  Mg  Mg12  1  0.00000000  0.00000000  0.35492200  1
  Mg  Mg13  1  0.60321400  0.00000000  0.31876100  1
  Mg  Mg14  1  0.00000000  0.60321400  0.31876100  1
  Mg  Mg15  1  0.68123900  0.68123900  0.28445300  1
  Al  Al0  1  0.81398100  0.63334800  0.00000000  1
  Al  Al1  1  0.63334800  0.81398100  0.00000000  1
  Al  Al2  1  0.18601900  0.18601900  0.81936700  1
  Al  Al3  1  0.00000000  0.63334800  0.81398100  1
  Al  Al4  1  0.63334800  0.00000000  0.81398100  1
  Al  Al5  1  0.81398100  0.00000000  0.63334800  1
  Al  Al6  1  0.00000000  0.81398100  0.63334800  1
  Al  Al7  1  0.36665200  0.18063300  0.36665200  1
  Al  Al8  1  0.18063300  0.36665200  0.36665200  1
  Al  Al9  1  0.18601900  0.81936700  0.18601900  1
  Al  Al10  1  0.81936700  0.18601900  0.18601900  1
  Al  Al11  1  0.36665200  0.36665200  0.18063300  1
loop_
_geom_bond_atom_site_label_1
_geom_bond_atom_site_label_2
_geom_bond_distance
_geom_bond_site_symmetry_2
Lu0 Mg12 3.236104 1_555
Lu0 Mg0 3.236104 1_555
Lu0 Mg1 3.236104 1_555
Lu0 Mg7 3.236104 1_444
Mg0 Mg14 3.030806 1_555
Mg0 Mg3 3.030806 1_555
Mg0 Mg6 3.030806 1_454
Mg1 Mg13 3.030806 1_555
Mg1 Mg2 3.030806 1_555
Mg1 Mg5 3.030806 1_544
Mg2 Mg4 3.105432 1_554
Mg2 Mg9 3.157814 1_554
Mg2 Mg6 3.157814 1_554
Mg3 Mg4 3.105432 1_554
Mg3 Mg8 3.157814 1_554
Mg3 Mg5 3.157814 1_554
Mg4 Mg7 3.030806 1_555
Mg4 Mg8 3.157814 1_555
Mg4 Mg9 3.157814 1_555
Mg4 Mg5 3.157814 1_555
Mg4 Mg6 3.157814 1_555
Mg5 Mg8 3.105432 1_555
Mg5 Mg9 3.157814 1_565
Mg6 Mg9 3.105432 1_555
Mg6 Mg8 3.157814 1_655
Mg10 Mg7 3.030806 1_555
Mg10 Mg13 3.105432 1_565
Mg10 Mg9 3.105432 1_565
Mg10 Mg3 3.157814 1_555
Mg10 Mg14 3.157814 1_555
Mg10 Mg5 3.157814 1_555
Mg10 Mg15 3.157814 1_555
Mg11 Mg7 3.030806 1_555
Mg11 Mg8 3.105432 1_655
Mg11 Mg14 3.105432 1_655
Mg11 Mg2 3.157814 1_555
Mg11 Mg13 3.157814 1_555
Mg11 Mg6 3.157814 1_555
Mg11 Mg15 3.157814 1_555
Mg12 Mg8 3.030806 1_555
Mg12 Mg9 3.030806 1_555
Mg12 Mg15 3.030806 1_445
Mg13 Mg6 3.105432 1_555
Mg13 Mg8 3.157814 1_655
Mg13 Mg3 3.157814 1_545
Mg13 Mg15 3.157814 1_545
Mg14 Mg5 3.105432 1_555
Mg14 Mg2 3.157814 1_455
Mg14 Mg9 3.157814 1_565
Mg14 Mg15 3.157814 1_455
Mg15 Mg3 3.105432 1_555
Mg15 Mg2 3.105432 1_555
Al0 Al1 2.689497 1_555
Al0 Al9 2.769690 1_655
Al0 Al3 2.769690 1_654
Al0 Mg2 2.871520 1_555
Al0 Mg14 2.992663 1_655
Al0 Mg6 2.992663 1_554
Al0 Mg12 3.142224 1_665
Al0 Mg7 3.142224 1_554
Al0 Mg15 3.173676 1_555
Al0 Mg4 3.173676 1_554
Al0 Lu0 3.205098 1_665
Al1 Al10 2.769690 1_565
Al1 Al4 2.769690 1_564
Al1 Mg3 2.871520 1_555
Al1 Mg13 2.992663 1_565
Al1 Mg5 2.992663 1_554
Al1 Mg12 3.142224 1_665
Al1 Mg7 3.142224 1_554
Al1 Mg15 3.173676 1_555
Al1 Mg4 3.173676 1_554
Al1 Lu0 3.205098 1_665
Al2 Al6 2.769690 1_545
Al2 Al5 2.769690 1_455
Al2 Mg4 2.871520 1_555
Al2 Mg8 2.992663 1_555
Al2 Mg9 2.992663 1_555
Al2 Mg0 3.142224 1_556
Al2 Mg1 3.142224 1_556
Al2 Mg2 3.173676 1_556
Al2 Mg3 3.173676 1_556
Al2 Lu0 3.205098 1_556
Al3 Al6 2.689497 1_555
Al3 Al9 2.769690 1_556
Al3 Mg8 2.871520 1_555
Al3 Mg3 2.992663 1_556
Al3 Mg6 2.992663 1_455
Al3 Mg1 3.142224 1_566
Al3 Mg7 3.142224 1_455
Al3 Mg5 3.173676 1_555
Al3 Mg11 3.173676 1_455
Al3 Lu0 3.205098 1_566
Al4 Al5 2.689497 1_555
Al4 Mg9 2.871520 1_555
Al4 Mg2 2.992663 1_556
Al4 Mg5 2.992663 1_545
Al4 Mg0 3.142224 1_656
Al4 Mg7 3.142224 1_545
Al4 Mg6 3.173676 1_555
Al4 Mg10 3.173676 1_545
Al4 Lu0 3.205098 1_656
Al5 Al6 2.769690 1_645
Al5 Mg13 2.871520 1_555
Al5 Mg8 2.992663 1_655
Al5 Mg15 2.992663 1_545
Al5 Mg0 3.142224 1_656
Al5 Mg7 3.142224 1_545
Al5 Mg6 3.173676 1_555
Al5 Mg10 3.173676 1_545
Al5 Lu0 3.205098 1_656
Al6 Mg14 2.871520 1_555
Al6 Mg9 2.992663 1_565
Al6 Mg15 2.992663 1_455
Al6 Mg1 3.142224 1_566
Al6 Mg7 3.142224 1_455
Al6 Mg5 3.173676 1_555
Al6 Mg11 3.173676 1_455
Al6 Lu0 3.205098 1_566
Al7 Al9 2.689497 1_545
Al7 Al8 2.769690 1_555
Al7 Mg6 2.871520 1_555
Al7 Mg11 2.992663 1_555
Al7 Mg4 2.992663 1_555
Al7 Mg1 3.142224 1_555
Al7 Mg12 3.142224 1_555
Al7 Mg9 3.173676 1_555
Al7 Mg13 3.173676 1_555
Al7 Lu0 3.205098 1_555
Al8 Mg5 2.871520 1_555
Al8 Mg10 2.992663 1_555
Al8 Mg4 2.992663 1_555
Al8 Mg0 3.142224 1_555
Al8 Mg12 3.142224 1_555
Al8 Mg8 3.173676 1_555
Al8 Mg14 3.173676 1_555
Al8 Lu0 3.205098 1_555
Al9 Mg10 2.871520 1_555
Al9 Mg14 2.992663 1_555
Al9 Mg3 2.992663 1_555
Al9 Mg1 3.142224 1_565
Al9 Mg12 3.142224 1_565
Al9 Mg9 3.173676 1_565
Al9 Mg13 3.173676 1_565
Al9 Lu0 3.205098 1_565
Al10 Al8 2.689497 1_655
Al10 Al4 2.769690 1_554
Al10 Mg11 2.871520 1_555
Al10 Mg13 2.992663 1_555
Al10 Mg2 2.992663 1_555
Al10 Mg0 3.142224 1_655
Al10 Mg12 3.142224 1_655
Al10 Mg8 3.173676 1_655
Al10 Mg14 3.173676 1_655
Al10 Lu0 3.205098 1_655
Al11 Al2 2.689497 1_554
Al11 Al8 2.769690 1_555
Al11 Al7 2.769690 1_555
Al11 Mg15 2.871520 1_555
Al11 Mg10 2.992663 1_555
Al11 Mg11 2.992663 1_555
Al11 Mg1 3.142224 1_555
Al11 Mg0 3.142224 1_555
Al11 Mg3 3.173676 1_555
Al11 Mg2 3.173676 1_555
Al11 Lu0 3.205098 1_555
