# generated using pymatgen
data_Nd(BRh)4
_symmetry_space_group_name_H-M   'P 1'
_cell_length_a   5.37639700
_cell_length_b   5.37639700
_cell_length_c   7.55002500
_cell_angle_alpha   90.00000000
_cell_angle_beta   90.00000000
_cell_angle_gamma   90.00000000
_symmetry_Int_Tables_number   1
_chemical_formula_structural   Nd(BRh)4
_chemical_formula_sum   'Nd2 B8 Rh8'
_cell_volume   218.23834014
_cell_formula_units_Z   2
loop_
 _symmetry_equiv_pos_site_id
 _symmetry_equiv_pos_as_xyz
  1  'x, y, z'
loop_
 _atom_site_type_symbol
 _atom_site_label
 _atom_site_symmetry_multiplicity
 _atom_site_fract_x
 _atom_site_fract_y
 _atom_site_fract_z
 _atom_site_occupancy
  Nd  Nd0  1  0.00000000  0.00000000  0.00000000  1
  Nd  Nd1  1  0.50000000  0.50000000  0.50000000  1
  B  B0  1  0.50000000  0.83149400  0.84829000  1
  B  B1  1  0.50000000  0.16850600  0.84829000  1
  B  B2  1  0.83149400  0.50000000  0.15171000  1
  B  B3  1  0.16850600  0.50000000  0.15171000  1
  B  B4  1  0.33149400  0.00000000  0.34829000  1
  B  B5  1  0.66850600  0.00000000  0.34829000  1
  B  B6  1  0.00000000  0.33149400  0.65171000  1
  B  B7  1  0.00000000  0.66850600  0.65171000  1
  Rh  Rh0  1  0.25127000  0.50000000  0.85678800  1
  Rh  Rh1  1  0.74873000  0.50000000  0.85678800  1
  Rh  Rh2  1  0.50000000  0.74873000  0.14321200  1
  Rh  Rh3  1  0.50000000  0.25127000  0.14321200  1
  Rh  Rh4  1  0.00000000  0.75127000  0.35678800  1
  Rh  Rh5  1  0.00000000  0.24873000  0.35678800  1
  Rh  Rh6  1  0.24873000  0.00000000  0.64321200  1
  Rh  Rh7  1  0.75127000  0.00000000  0.64321200  1
loop_
_geom_bond_atom_site_label_1
_geom_bond_atom_site_label_2
_geom_bond_distance
_geom_bond_site_symmetry_2
Nd0 Rh5 3.007429 1_555
Nd0 Rh4 3.007429 1_545
Nd0 Rh7 3.007429 1_454
Nd0 Rh6 3.007429 1_554
Nd0 Rh2 3.196956 1_445
Nd0 Rh2 3.196956 1_545
Nd0 Rh0 3.196956 1_544
Nd0 Rh1 3.196956 1_444
Nd0 Rh1 3.196956 1_454
Nd0 Rh3 3.196956 1_455
Nd0 Rh0 3.196956 1_554
Nd0 Rh3 3.196956 1_555
Nd1 Rh3 3.007429 1_555
Nd1 Rh2 3.007429 1_555
Nd1 Rh1 3.007429 1_555
Nd1 Rh0 3.007429 1_555
Nd1 Rh6 3.196956 1_565
Nd1 Rh7 3.196956 1_565
Nd1 Rh4 3.196956 1_655
Nd1 Rh4 3.196956 1_555
Nd1 Rh7 3.196956 1_555
Nd1 Rh6 3.196956 1_555
Nd1 Rh5 3.196956 1_555
Nd1 Rh5 3.196956 1_655
B0 B1 1.811910 1_565
B0 Rh0 2.229081 1_555
B0 Rh1 2.229081 1_555
B0 Rh7 2.245691 1_565
B0 Rh6 2.245691 1_565
B0 Rh2 2.270694 1_556
B0 Nd0 3.059271 1_566
B0 Nd0 3.059271 1_666
B0 Nd1 3.176661 1_555
B1 Rh0 2.229081 1_555
B1 Rh1 2.229081 1_555
B1 Rh6 2.245691 1_555
B1 Rh7 2.245691 1_555
B1 Rh3 2.270694 1_556
B1 Nd0 3.059271 1_656
B1 Nd0 3.059271 1_556
B1 Nd1 3.176661 1_555
B2 B3 1.811910 1_655
B2 Rh3 2.229081 1_555
B2 Rh2 2.229081 1_555
B2 Rh4 2.245691 1_655
B2 Rh5 2.245691 1_655
B2 Rh1 2.270694 1_554
B2 Nd0 3.059271 1_655
B2 Nd0 3.059271 1_665
B2 Nd1 3.176661 1_555
B3 Rh3 2.229081 1_555
B3 Rh2 2.229081 1_555
B3 Rh5 2.245691 1_555
B3 Rh4 2.245691 1_555
B3 Rh0 2.270694 1_554
B3 Nd0 3.059271 1_565
B3 Nd0 3.059271 1_555
B3 Nd1 3.176661 1_555
B4 B5 1.811910 1_555
B4 Rh5 2.229081 1_555
B4 Rh4 2.229081 1_545
B4 Rh2 2.245691 1_545
B4 Rh3 2.245691 1_555
B4 Rh6 2.270694 1_555
B4 Nd1 3.059271 1_545
B4 Nd1 3.059271 1_555
B4 Nd0 3.176661 1_555
B5 Rh4 2.229081 1_645
B5 Rh5 2.229081 1_655
B5 Rh2 2.245691 1_545
B5 Rh3 2.245691 1_555
B5 Rh7 2.270694 1_555
B5 Nd1 3.059271 1_545
B5 Nd1 3.059271 1_555
B5 Nd0 3.176661 1_655
B6 B7 1.811910 1_555
B6 Rh6 2.229081 1_555
B6 Rh7 2.229081 1_455
B6 Rh0 2.245691 1_555
B6 Rh1 2.245691 1_455
B6 Rh5 2.270694 1_555
B6 Nd1 3.059271 1_455
B6 Nd1 3.059271 1_555
B6 Nd0 3.176661 1_556
B7 Rh7 2.229081 1_465
B7 Rh6 2.229081 1_565
B7 Rh0 2.245691 1_555
B7 Rh1 2.245691 1_455
B7 Rh4 2.270694 1_555
B7 Nd1 3.059271 1_455
B7 Nd1 3.059271 1_555
B7 Nd0 3.176661 1_566
