# generated using pymatgen
data_MgCuO2
_symmetry_space_group_name_H-M   'P 1'
_cell_length_a   5.15623387
_cell_length_b   5.15623387
_cell_length_c   3.06510900
_cell_angle_alpha   90.00000000
_cell_angle_beta   90.00000000
_cell_angle_gamma   107.40935894
_symmetry_Int_Tables_number   1
_chemical_formula_structural   MgCuO2
_chemical_formula_sum   'Mg2 Cu2 O4'
_cell_volume   77.75828389
_cell_formula_units_Z   2
loop_
 _symmetry_equiv_pos_site_id
 _symmetry_equiv_pos_as_xyz
  1  'x, y, z'
loop_
 _atom_site_type_symbol
 _atom_site_label
 _atom_site_symmetry_multiplicity
 _atom_site_fract_x
 _atom_site_fract_y
 _atom_site_fract_z
 _atom_site_occupancy
  Mg  Mg0  1  0.00000000  0.00000000  0.00000000  1
  Mg  Mg1  1  0.50000000  0.50000000  0.00000000  1
  Cu  Cu0  1  0.50000000  0.00000000  0.50000000  1
  Cu  Cu1  1  0.00000000  0.50000000  0.50000000  1
  O  O0  1  0.75000000  0.25000000  0.09630700  1
  O  O1  1  0.25000000  0.75000000  0.90369300  1
  O  O2  1  0.75000000  0.75000000  0.50000000  1
  O  O3  1  0.25000000  0.25000000  0.50000000  1
loop_
_geom_bond_atom_site_label_1
_geom_bond_atom_site_label_2
_geom_bond_distance
_geom_bond_site_symmetry_2
Mg0 O0 2.098765 1_455
Mg0 O1 2.098765 1_544
Mg0 O2 2.162807 1_445
Mg0 O3 2.162807 1_555
Mg0 O2 2.162807 1_444
Mg0 O3 2.162807 1_554
Mg1 O0 2.098765 1_555
Mg1 O1 2.098765 1_554
Mg1 O2 2.162807 1_554
Mg1 O3 2.162807 1_555
Mg1 O3 2.162807 1_554
Mg1 O2 2.162807 1_555
Cu0 O1 1.964708 1_545
Cu0 O0 1.964708 1_555
Cu0 O3 2.077902 1_555
Cu0 O2 2.077902 1_545
Cu0 O0 2.381106 1_556
Cu0 O1 2.381106 1_544
Cu1 O1 1.964708 1_555
Cu1 O0 1.964708 1_455
Cu1 O3 2.077902 1_555
Cu1 O2 2.077902 1_455
Cu1 O0 2.381106 1_456
Cu1 O1 2.381106 1_554
