# generated using pymatgen
data_Sm2Fe17C3
_symmetry_space_group_name_H-M   'P 1'
_cell_length_a   6.52577303
_cell_length_b   6.52577303
_cell_length_c   6.52577330
_cell_angle_alpha   83.57628514
_cell_angle_beta   83.57628514
_cell_angle_gamma   83.57629117
_symmetry_Int_Tables_number   1
_chemical_formula_structural   Sm2Fe17C3
_chemical_formula_sum   'Sm2 Fe17 C3'
_cell_volume   273.03332665
_cell_formula_units_Z   1
loop_
 _symmetry_equiv_pos_site_id
 _symmetry_equiv_pos_as_xyz
  1  'x, y, z'
loop_
 _atom_site_type_symbol
 _atom_site_label
 _atom_site_symmetry_multiplicity
 _atom_site_fract_x
 _atom_site_fract_y
 _atom_site_fract_z
 _atom_site_occupancy
  Sm  Sm0  1  0.65655800  0.65655800  0.65655800  1
  Sm  Sm1  1  0.34344200  0.34344200  0.34344200  1
  Fe  Fe0  1  0.00000000  0.00000000  0.50000000  1
  Fe  Fe1  1  0.50000000  0.00000000  0.00000000  1
  Fe  Fe2  1  0.00000000  0.50000000  0.00000000  1
  Fe  Fe3  1  0.71612000  0.28388000  0.00000000  1
  Fe  Fe4  1  0.00000000  0.71612000  0.28388000  1
  Fe  Fe5  1  0.28388000  0.00000000  0.71612000  1
  Fe  Fe6  1  0.00000000  0.28388000  0.71612000  1
  Fe  Fe7  1  0.71612000  0.00000000  0.28388000  1
  Fe  Fe8  1  0.28388000  0.71612000  0.00000000  1
  Fe  Fe9  1  0.34244600  0.34244600  0.85697600  1
  Fe  Fe10  1  0.85697600  0.34244600  0.34244600  1
  Fe  Fe11  1  0.34244600  0.85697600  0.34244600  1
  Fe  Fe12  1  0.65755400  0.65755400  0.14302400  1
  Fe  Fe13  1  0.14302400  0.65755400  0.65755400  1
  Fe  Fe14  1  0.65755400  0.14302400  0.65755400  1
  Fe  Fe15  1  0.90506300  0.90506300  0.90506300  1
  Fe  Fe16  1  0.09493700  0.09493700  0.09493700  1
  C  C0  1  0.50000000  0.50000000  0.00000000  1
  C  C1  1  0.00000000  0.50000000  0.50000000  1
  C  C2  1  0.50000000  0.00000000  0.50000000  1
loop_
_geom_bond_atom_site_label_1
_geom_bond_atom_site_label_2
_geom_bond_distance
_geom_bond_site_symmetry_2
Fe0 Fe4 2.450633 1_545
Fe0 Fe7 2.450633 1_455
Fe0 Fe5 2.450633 1_555
Fe0 Fe6 2.450633 1_555
Fe0 Fe14 2.481155 1_455
Fe0 Fe13 2.481155 1_545
Fe0 Fe10 2.481155 1_455
Fe0 Fe11 2.481155 1_545
Fe0 Fe15 2.666074 1_445
Fe0 Fe16 2.666074 1_555
Fe0 Sm1 3.345028 1_555
Fe0 Sm0 3.345028 1_445
Fe1 Fe8 2.450633 1_545
Fe1 Fe3 2.450633 1_555
Fe1 Fe5 2.450633 1_554
Fe1 Fe7 2.450633 1_555
Fe1 Fe14 2.481155 1_554
Fe1 Fe11 2.481155 1_545
Fe1 Fe12 2.481155 1_545
Fe1 Fe9 2.481155 1_554
Fe1 Fe15 2.666074 1_544
Fe1 Fe16 2.666074 1_555
Fe1 Sm1 3.345028 1_555
Fe1 Sm0 3.345028 1_544
Fe2 Fe3 2.450633 1_455
Fe2 Fe8 2.450633 1_555
Fe2 Fe6 2.450633 1_554
Fe2 Fe4 2.450633 1_555
Fe2 Fe9 2.481155 1_554
Fe2 Sm1 3.345028 1_555
Fe2 Sm0 3.345028 1_454
Fe10 Fe2 2.481155 1_655
Fe10 Fe16 2.662777 1_655
Fe11 Fe16 2.662777 1_565
Fe12 Fe2 2.481155 1_655
Fe12 Fe15 2.662777 1_554
Fe13 Fe2 2.481155 1_556
Fe13 Fe15 2.662777 1_455
Fe14 Fe15 2.662777 1_545
Fe15 Fe16 2.374140 1_666
Fe15 Fe2 2.666074 1_656
Fe15 Fe5 2.739525 1_665
Fe15 Fe6 2.739525 1_665
Fe15 Fe4 2.739525 1_656
Fe15 Fe7 2.739525 1_566
Fe15 Fe3 2.739525 1_566
Fe15 Fe8 2.739525 1_656
Fe15 Sm0 3.107248 1_555
Fe16 Fe9 2.662777 1_554
Fe16 Fe2 2.666074 1_555
Fe16 Fe4 2.739525 1_545
Fe16 Fe7 2.739525 1_455
Fe16 Fe6 2.739525 1_554
Fe16 Fe5 2.739525 1_554
Fe16 Fe8 2.739525 1_545
Fe16 Fe3 2.739525 1_455
Fe16 Sm1 3.107248 1_555
C0 Fe3 1.879653 1_555
C0 Fe8 1.879653 1_555
C0 Fe12 1.910852 1_555
C0 Fe9 1.910852 1_554
C0 Sm1 2.513864 1_555
C0 Sm0 2.513864 1_554
C1 Fe6 1.879653 1_555
C1 Fe4 1.879653 1_555
C1 Fe13 1.910852 1_555
C1 Fe10 1.910852 1_455
C1 Sm1 2.513864 1_555
C1 Sm0 2.513864 1_455
C2 Fe5 1.879653 1_555
C2 Fe7 1.879653 1_555
C2 Fe14 1.910852 1_555
C2 Fe11 1.910852 1_545
C2 Sm1 2.513864 1_555
C2 Sm0 2.513864 1_545
