# generated using pymatgen
data_ReTc3
_symmetry_space_group_name_H-M   'P 1'
_cell_length_a   5.49177424
_cell_length_b   5.49178165
_cell_length_c   4.40552810
_cell_angle_alpha   90.00005164
_cell_angle_beta   90.00018117
_cell_angle_gamma   119.99994388
_symmetry_Int_Tables_number   1
_chemical_formula_structural   ReTc3
_chemical_formula_sum   'Re2 Tc6'
_cell_volume   115.06805962
_cell_formula_units_Z   2
loop_
 _symmetry_equiv_pos_site_id
 _symmetry_equiv_pos_as_xyz
  1  'x, y, z'
loop_
 _atom_site_type_symbol
 _atom_site_label
 _atom_site_symmetry_multiplicity
 _atom_site_fract_x
 _atom_site_fract_y
 _atom_site_fract_z
 _atom_site_occupancy
  Re  Re0  1  0.33335015  0.66666370  0.75000515  1
  Re  Re1  1  0.66668875  0.33335397  0.24998818  1
  Tc  Tc0  1  0.16691378  0.33383750  0.24999623  1
  Tc  Tc1  1  0.66615705  0.83307183  0.24999683  1
  Tc  Tc2  1  0.16690227  0.83306974  0.24999575  1
  Tc  Tc3  1  0.83307236  0.66615269  0.75000510  1
  Tc  Tc4  1  0.33383751  0.16692624  0.75000544  1
  Tc  Tc5  1  0.83307913  0.16692432  0.75000633  1
loop_
_geom_bond_atom_site_label_1
_geom_bond_atom_site_label_2
_geom_bond_distance
_geom_bond_site_symmetry_2
Re0 Tc1 2.712443 1_556
Re0 Tc0 2.712505 1_556
Re0 Tc1 2.712513 1_555
Re0 Tc0 2.712561 1_555
Re0 Tc2 2.712577 1_556
Re0 Tc2 2.712641 1_555
Re0 Tc3 2.745766 1_555
Re0 Tc4 2.745788 1_555
Re0 Tc5 2.745864 1_565
Re0 Tc5 2.745921 1_455
Re0 Tc4 2.745995 1_565
Re0 Tc3 2.746011 1_455
Re1 Tc3 2.712400 1_554
Re1 Tc5 2.712451 1_554
Re1 Tc3 2.712514 1_555
Re1 Tc4 2.712534 1_554
Re1 Tc5 2.712578 1_555
Re1 Tc4 2.712669 1_555
Re1 Tc2 2.745698 1_655
Re1 Tc0 2.745796 1_655
Re1 Tc1 2.745803 1_555
Re1 Tc0 2.745980 1_555
Re1 Tc1 2.745981 1_545
Re1 Tc2 2.746086 1_545
Tc0 Tc5 2.715292 1_454
Tc0 Tc4 2.715303 1_554
Tc0 Tc4 2.715366 1_555
Tc0 Tc5 2.715375 1_455
Tc0 Tc2 2.741706 1_555
Tc0 Tc1 2.741711 1_555
Tc0 Tc1 2.750072 1_445
Tc0 Tc2 2.750076 1_545
Tc1 Tc3 2.715305 1_554
Tc1 Tc5 2.715354 1_564
Tc1 Tc3 2.715361 1_555
Tc1 Tc5 2.715415 1_565
Tc1 Tc2 2.741789 1_555
Tc1 Tc2 2.749985 1_655
Tc2 Tc3 2.715282 1_454
Tc2 Tc3 2.715359 1_455
Tc2 Tc4 2.715365 1_564
Tc2 Tc4 2.715427 1_565
Tc3 Tc4 2.741666 1_555
Tc3 Tc5 2.741672 1_555
Tc3 Tc5 2.750110 1_565
Tc3 Tc4 2.750116 1_665
Tc4 Tc5 2.741728 1_555
Tc4 Tc5 2.750047 1_455
