# generated using pymatgen
data_Th(CrB3)2
_symmetry_space_group_name_H-M   'P 1'
_cell_length_a   3.10936544
_cell_length_b   5.52650597
_cell_length_c   5.52650511
_cell_angle_alpha   72.70564675
_cell_angle_beta   73.66138563
_cell_angle_gamma   73.66136933
_symmetry_Int_Tables_number   1
_chemical_formula_structural   Th(CrB3)2
_chemical_formula_sum   'Th1 Cr2 B6'
_cell_volume   84.96242868
_cell_formula_units_Z   1
loop_
 _symmetry_equiv_pos_site_id
 _symmetry_equiv_pos_as_xyz
  1  'x, y, z'
loop_
 _atom_site_type_symbol
 _atom_site_label
 _atom_site_symmetry_multiplicity
 _atom_site_fract_x
 _atom_site_fract_y
 _atom_site_fract_z
 _atom_site_occupancy
  Th  Th0  1  -0.00000000  0.00000000  -0.00000000  1
  Cr  Cr0  1  0.84564553  0.65435447  0.65435447  1
  Cr  Cr1  1  0.15435447  0.34564553  0.34564553  1
  B  B0  1  0.69652106  0.53957396  0.06738393  1
  B  B1  1  0.30347894  0.46042604  0.93261607  1
  B  B2  1  0.30347894  0.93261607  0.46042604  1
  B  B3  1  0.50000000  0.35925848  0.64074152  1
  B  B4  1  0.50000000  0.64074152  0.35925848  1
  B  B5  1  0.69652106  0.06738393  0.53957396  1
loop_
_geom_bond_atom_site_label_1
_geom_bond_atom_site_label_2
_geom_bond_distance
_geom_bond_site_symmetry_2
B0 B4 1.754234 1_555
B0 B1 1.801716 1_554
B0 B1 1.801716 1_654
B0 Cr0 2.129976 1_554
B0 Cr1 2.221134 1_655
B0 Cr1 2.221134 1_555
B0 Th0 2.844935 1_665
B0 Th0 2.844935 1_565
B0 Th0 2.966576 1_655
B1 B3 1.754234 1_555
B1 Cr1 2.129976 1_556
B1 Cr0 2.221134 1_455
B1 Cr0 2.221134 1_555
B1 Th0 2.844935 1_556
B1 Th0 2.844935 1_656
B1 Th0 2.966576 1_566
B2 B4 1.754234 1_555
B2 B5 1.801716 1_565
B2 B5 1.801716 1_465
B2 Cr1 2.129976 1_565
B2 Cr0 2.221134 1_555
B2 Cr0 2.221134 1_455
B2 Th0 2.844934 1_565
B2 Th0 2.844935 1_665
B2 Th0 2.966576 1_566
B3 B5 1.754234 1_555
B3 B4 1.844203 1_555
B3 Cr1 2.219227 1_555
B3 Cr0 2.219227 1_555
B3 Cr0 2.219228 1_455
B3 Cr1 2.219228 1_655
B3 Th0 2.820861 1_656
B3 Th0 2.820862 1_556
B4 Cr0 2.219227 1_555
B4 Cr1 2.219227 1_555
B4 Cr1 2.219228 1_655
B4 Cr0 2.219228 1_455
B4 Th0 2.820861 1_565
B4 Th0 2.820862 1_665
B5 Cr0 2.129976 1_545
B5 Cr1 2.221134 1_555
B5 Cr1 2.221134 1_655
B5 Th0 2.844934 1_656
B5 Th0 2.844935 1_556
B5 Th0 2.966576 1_655
