# generated using pymatgen
data_ZrSiPt
_symmetry_space_group_name_H-M   'P 1'
_cell_length_a   6.63092860
_cell_length_b   3.91207884
_cell_length_c   7.56521774
_cell_angle_alpha   90.00000000
_cell_angle_beta   90.00000000
_cell_angle_gamma   90.00000000
_symmetry_Int_Tables_number   1
_chemical_formula_structural   ZrSiPt
_chemical_formula_sum   'Zr4 Si4 Pt4'
_cell_volume   196.24716083
_cell_formula_units_Z   4
loop_
 _symmetry_equiv_pos_site_id
 _symmetry_equiv_pos_as_xyz
  1  'x, y, z'
loop_
 _atom_site_type_symbol
 _atom_site_label
 _atom_site_symmetry_multiplicity
 _atom_site_fract_x
 _atom_site_fract_y
 _atom_site_fract_z
 _atom_site_occupancy
  Zr  Zr0  1  0.47607728  0.75000000  0.17809131  1
  Zr  Zr1  1  0.97607728  0.75000000  0.32190969  1
  Zr  Zr2  1  0.02392172  0.24999900  0.67809031  1
  Zr  Zr3  1  0.52392272  0.24999900  0.82190969  1
  Si  Si0  1  0.76391066  0.24999900  0.12160563  1
  Si  Si1  1  0.26390966  0.24999900  0.37839437  1
  Si  Si2  1  0.73608934  0.75000000  0.62160663  1
  Si  Si3  1  0.23608934  0.75000000  0.87839337  1
  Pt  Pt0  1  0.14545019  0.24999900  0.06476109  1
  Pt  Pt1  1  0.64545019  0.24999900  0.43523891  1
  Pt  Pt2  1  0.35455081  0.75000000  0.56476009  1
  Pt  Pt3  1  0.85454981  0.75000000  0.93523991  1
loop_
_geom_bond_atom_site_label_1
_geom_bond_atom_site_label_2
_geom_bond_distance
_geom_bond_site_symmetry_2
Si0 Zr0 2.766125 1_545
Si0 Zr0 2.766130 1_555
Si0 Zr3 2.769993 1_554
Si0 Zr1 2.846331 1_545
Si0 Zr1 2.846337 1_555
Si1 Zr1 2.766119 1_445
Si1 Zr1 2.766125 1_455
Si1 Zr2 2.769993 1_555
Si1 Zr0 2.846331 1_545
Si1 Zr0 2.846336 1_555
Si2 Zr2 2.766118 1_665
Si2 Zr2 2.766123 1_655
Si2 Zr1 2.770000 1_555
Si2 Zr3 2.846327 1_565
Si2 Zr3 2.846333 1_555
Si3 Zr3 2.766123 1_565
Si3 Zr3 2.766128 1_555
Si3 Zr0 2.770006 1_556
Si3 Zr2 2.846331 1_565
Si3 Zr2 2.846336 1_555
Pt0 Si3 2.484986 1_544
Pt0 Si3 2.484992 1_554
Pt0 Si1 2.499346 1_555
Pt0 Si0 2.566250 1_455
Pt0 Zr1 2.978582 1_445
Pt0 Zr1 2.978587 1_455
Pt0 Zr2 3.034216 1_554
Pt0 Zr0 3.060656 1_545
Pt0 Zr0 3.060661 1_555
Pt0 Zr3 3.110242 1_554
Pt1 Si2 2.484986 1_545
Pt1 Si2 2.484992 1_555
Pt1 Si0 2.499348 1_555
Pt1 Si1 2.566257 1_555
Pt1 Zr0 2.978577 1_545
Pt1 Zr0 2.978582 1_555
Pt1 Zr3 3.034215 1_555
Pt1 Zr1 3.060654 1_545
Pt1 Zr1 3.060659 1_555
Pt1 Zr2 3.110237 1_655
Pt2 Si1 2.484981 1_565
Pt2 Si1 2.484987 1_555
Pt2 Si3 2.499350 1_555
Pt2 Si2 2.566246 1_555
Pt2 Zr3 2.978585 1_565
Pt2 Zr3 2.978590 1_555
Pt2 Zr0 3.034198 1_555
Pt2 Zr2 3.060666 1_565
Pt2 Zr2 3.060671 1_555
Pt2 Zr1 3.110243 1_455
Pt3 Si0 2.484977 1_566
Pt3 Si0 2.484983 1_556
Pt3 Si2 2.499348 1_555
Pt3 Si3 2.566253 1_655
Pt3 Zr2 2.978585 1_665
Pt3 Zr2 2.978590 1_655
Pt3 Zr1 3.034207 1_556
Pt3 Zr3 3.060656 1_565
Pt3 Zr3 3.060661 1_555
Pt3 Zr0 3.110242 1_556
