# generated using pymatgen
data_Cs2SeClF6
_symmetry_space_group_name_H-M   'P 1'
_cell_length_a   6.90968342
_cell_length_b   6.90968342
_cell_length_c   6.90968342
_cell_angle_alpha   60.00000000
_cell_angle_beta   60.00000000
_cell_angle_gamma   60.00000000
_symmetry_Int_Tables_number   1
_chemical_formula_structural   Cs2SeClF6
_chemical_formula_sum   'Cs2 Se1 Cl1 F6'
_cell_volume   233.27030170
_cell_formula_units_Z   1
loop_
 _symmetry_equiv_pos_site_id
 _symmetry_equiv_pos_as_xyz
  1  'x, y, z'
loop_
 _atom_site_type_symbol
 _atom_site_label
 _atom_site_symmetry_multiplicity
 _atom_site_fract_x
 _atom_site_fract_y
 _atom_site_fract_z
 _atom_site_occupancy
  Cs  Cs0  1  0.25000000  0.25000000  0.25000000  1
  Cs  Cs1  1  0.75000000  0.75000000  0.75000000  1
  Se  Se0  1  0.00000000  0.00000000  0.00000000  1
  Cl  Cl0  1  0.50000000  0.50000000  0.50000000  1
  F  F0  1  0.19637400  0.80362600  0.80362600  1
  F  F1  1  0.19637400  0.80362600  0.19637400  1
  F  F2  1  0.80362600  0.19637400  0.80362600  1
  F  F3  1  0.80362600  0.80362600  0.19637400  1
  F  F4  1  0.19637400  0.19637400  0.80362600  1
  F  F5  1  0.80362600  0.19637400  0.19637400  1
loop_
_geom_bond_atom_site_label_1
_geom_bond_atom_site_label_2
_geom_bond_distance
_geom_bond_site_symmetry_2
Cs0 F1 3.494357 1_555
Cs0 F4 3.494357 1_555
Cs0 F5 3.494357 1_555
Cs0 F0 3.494357 1_554
Cs0 F3 3.494357 1_455
Cs0 F2 3.494357 1_455
Cs0 F3 3.494357 1_545
Cs0 F0 3.494357 1_545
Cs0 F2 3.494357 1_554
Cs0 F4 3.494357 1_554
Cs0 F1 3.494357 1_545
Cs0 F5 3.494357 1_455
Cs1 F2 3.494357 1_555
Cs1 F5 3.494357 1_556
Cs1 F4 3.494357 1_565
Cs1 F5 3.494357 1_565
Cs1 F4 3.494357 1_655
Cs1 F3 3.494357 1_555
Cs1 F3 3.494357 1_556
Cs1 F0 3.494357 1_555
Cs1 F2 3.494357 1_565
Cs1 F1 3.494357 1_556
Cs1 F0 3.494357 1_655
Cs1 F1 3.494357 1_655
F0 Se0 1.918921 1_566
F1 Se0 1.918921 1_565
F2 Se0 1.918921 1_656
F3 Se0 1.918921 1_665
F4 Se0 1.918921 1_556
F5 Se0 1.918921 1_655
