# generated using pymatgen
data_Na3SbTe3
_symmetry_space_group_name_H-M   'P 1'
_cell_length_a   9.67837300
_cell_length_b   9.67837300
_cell_length_c   9.67837300
_cell_angle_alpha   90.00000000
_cell_angle_beta   90.00000000
_cell_angle_gamma   90.00000000
_symmetry_Int_Tables_number   1
_chemical_formula_structural   Na3SbTe3
_chemical_formula_sum   'Na12 Sb4 Te12'
_cell_volume   906.58194745
_cell_formula_units_Z   4
loop_
 _symmetry_equiv_pos_site_id
 _symmetry_equiv_pos_as_xyz
  1  'x, y, z'
loop_
 _atom_site_type_symbol
 _atom_site_label
 _atom_site_symmetry_multiplicity
 _atom_site_fract_x
 _atom_site_fract_y
 _atom_site_fract_z
 _atom_site_occupancy
  Na  Na0  1  0.58997200  0.91002800  0.08997200  1
  Na  Na1  1  0.18267800  0.18267800  0.18267800  1
  Na  Na2  1  0.31732200  0.81732200  0.68267800  1
  Na  Na3  1  0.68267800  0.31732200  0.81732200  1
  Na  Na4  1  0.91002800  0.08997200  0.58997200  1
  Na  Na5  1  0.08997200  0.58997200  0.91002800  1
  Na  Na6  1  0.41002800  0.41002800  0.41002800  1
  Na  Na7  1  0.32744800  0.17255200  0.82744800  1
  Na  Na8  1  0.17255200  0.82744800  0.32744800  1
  Na  Na9  1  0.82744800  0.32744800  0.17255200  1
  Na  Na10  1  0.67255200  0.67255200  0.67255200  1
  Na  Na11  1  0.81732200  0.68267800  0.31732200  1
  Sb  Sb0  1  0.03872600  0.46127400  0.53872600  1
  Sb  Sb1  1  0.46127400  0.53872600  0.03872600  1
  Sb  Sb2  1  0.96127400  0.96127400  0.96127400  1
  Sb  Sb3  1  0.53872600  0.03872600  0.46127400  1
  Te  Te0  1  0.25958900  0.11945600  0.50262100  1
  Te  Te1  1  0.74041100  0.61945600  0.99737900  1
  Te  Te2  1  0.38054400  0.49737900  0.75958900  1
  Te  Te3  1  0.99737900  0.74041100  0.61945600  1
  Te  Te4  1  0.49737900  0.75958900  0.38054400  1
  Te  Te5  1  0.11945600  0.50262100  0.25958900  1
  Te  Te6  1  0.50262100  0.25958900  0.11945600  1
  Te  Te7  1  0.61945600  0.99737900  0.74041100  1
  Te  Te8  1  0.88054400  0.00262100  0.24041100  1
  Te  Te9  1  0.00262100  0.24041100  0.88054400  1
  Te  Te10  1  0.24041100  0.88054400  0.00262100  1
  Te  Te11  1  0.75958900  0.38054400  0.49737900  1
loop_
_geom_bond_atom_site_label_1
_geom_bond_atom_site_label_2
_geom_bond_distance
_geom_bond_site_symmetry_2
Na0 Te1 3.291180 1_554
Na0 Te8 3.291180 1_565
Na0 Te4 3.291180 1_555
Na0 Te7 3.498868 1_554
Na0 Te10 3.498868 1_555
Na0 Te6 3.498868 1_565
Na1 Te0 3.242989 1_555
Na1 Te5 3.242989 1_555
Na1 Te6 3.242989 1_555
Na1 Te8 3.449611 1_455
Na1 Te10 3.449611 1_545
Na1 Te9 3.449611 1_554
Na2 Te2 3.242989 1_555
Na2 Te3 3.242989 1_455
Na2 Te10 3.242989 1_556
Na2 Te0 3.449611 1_565
Na2 Te7 3.449611 1_555
Na2 Te4 3.449611 1_555
Na3 Te7 3.242989 1_545
Na3 Te11 3.242989 1_555
Na3 Te9 3.242989 1_655
Na3 Te6 3.449611 1_556
Na3 Te1 3.449611 1_555
Na3 Te2 3.449611 1_555
Na4 Te7 3.291180 1_545
Na4 Te9 3.291180 1_655
Na4 Te11 3.291180 1_555
Na4 Te8 3.498868 1_555
Na4 Te3 3.498868 1_545
Na4 Te0 3.498868 1_655
Na5 Te10 3.291180 1_556
Na5 Te3 3.291180 1_455
Na5 Te2 3.291180 1_555
Na5 Te9 3.498868 1_555
Na5 Te1 3.498868 1_455
Na5 Te5 3.498868 1_556
Na6 Te0 3.291180 1_555
Na6 Te6 3.291180 1_555
Na6 Te5 3.291180 1_555
Na6 Te4 3.498868 1_555
Na6 Te11 3.498868 1_555
Na6 Te2 3.498868 1_555
Na7 Te0 3.252518 1_555
Na7 Te2 3.252518 1_555
Na7 Te9 3.252518 1_555
Na7 Te7 3.401638 1_545
Na7 Te6 3.401638 1_556
Na7 Te10 3.401638 1_546
Na8 Te4 3.252518 1_555
Na8 Te5 3.252518 1_555
Na8 Te10 3.252518 1_555
Na8 Te3 3.401638 1_455
Na8 Te0 3.401638 1_565
Na8 Te8 3.401638 1_465
Na9 Te6 3.252518 1_555
Na9 Te11 3.252518 1_555
Na9 Te8 3.252518 1_555
Na9 Te1 3.401638 1_554
Na9 Te9 3.401638 1_654
Na9 Te5 3.401638 1_655
Na10 Te3 3.252518 1_555
Na10 Te7 3.252518 1_555
Na10 Te1 3.252518 1_555
Na10 Te4 3.401638 1_555
Na10 Te2 3.401638 1_555
Na10 Te11 3.401638 1_555
Na11 Te1 3.242989 1_554
Na11 Te4 3.242989 1_555
Na11 Te8 3.242989 1_565
Na11 Te11 3.449611 1_555
Na11 Te5 3.449611 1_655
Na11 Te3 3.449611 1_555
Sb0 Te11 2.840637 1_455
Sb0 Te5 2.840637 1_555
Sb0 Te3 2.840637 1_455
Sb1 Te6 2.840637 1_555
Sb1 Te2 2.840637 1_554
Sb1 Te1 2.840637 1_554
Sb2 Te10 2.840637 1_656
Sb2 Te8 2.840637 1_566
Sb2 Te9 2.840637 1_665
Sb3 Te7 2.840637 1_545
Sb3 Te4 2.840637 1_545
Sb3 Te0 2.840637 1_555
