# generated using pymatgen
data_NaSrAs
_symmetry_space_group_name_H-M   'P 1'
_cell_length_a   7.82717363
_cell_length_b   7.82717454
_cell_length_c   4.58468176
_cell_angle_alpha   90.00000000
_cell_angle_beta   90.00000000
_cell_angle_gamma   120.00000043
_symmetry_Int_Tables_number   1
_chemical_formula_structural   NaSrAs
_chemical_formula_sum   'Na3 Sr3 As3'
_cell_volume   243.24829842
_cell_formula_units_Z   3
loop_
 _symmetry_equiv_pos_site_id
 _symmetry_equiv_pos_as_xyz
  1  'x, y, z'
loop_
 _atom_site_type_symbol
 _atom_site_label
 _atom_site_symmetry_multiplicity
 _atom_site_fract_x
 _atom_site_fract_y
 _atom_site_fract_z
 _atom_site_occupancy
  Na  Na0  1  0.24212468  0.00000000  -0.00000000  1
  Na  Na1  1  0.75787532  0.75787532  0.00000000  1
  Na  Na2  1  0.00000000  0.24212468  -0.00000000  1
  Sr  Sr0  1  0.00000000  0.58478902  0.50000000  1
  Sr  Sr1  1  0.58478902  0.00000000  0.50000000  1
  Sr  Sr2  1  0.41521098  0.41521098  0.50000000  1
  As  As0  1  0.66666700  0.33333300  -0.00000000  1
  As  As1  1  0.00000000  0.00000000  0.50000000  1
  As  As2  1  0.33333300  0.66666700  0.00000000  1
loop_
_geom_bond_atom_site_label_1
_geom_bond_atom_site_label_2
_geom_bond_distance
_geom_bond_site_symmetry_2
As0 Na2 3.029759 1_655
As0 Na0 3.029764 1_555
As0 Na1 3.029767 1_555
As0 Sr1 3.286433 1_555
As0 Sr1 3.286433 1_554
As0 Sr0 3.286434 1_655
As0 Sr0 3.286434 1_654
As0 Sr2 3.286438 1_555
As0 Sr2 3.286438 1_554
As1 Na0 2.974294 1_555
As1 Na0 2.974294 1_556
As1 Na1 2.974295 1_446
As1 Na1 2.974295 1_445
As1 Na2 2.974295 1_556
As1 Na2 2.974295 1_555
As1 Sr1 3.249928 1_455
As1 Sr2 3.249929 1_555
As1 Sr0 3.249929 1_545
As2 Na0 3.029759 1_565
As2 Na2 3.029765 1_555
As2 Na1 3.029767 1_555
As2 Sr0 3.286433 1_554
As2 Sr0 3.286433 1_555
As2 Sr1 3.286435 1_564
As2 Sr1 3.286435 1_565
As2 Sr2 3.286438 1_554
As2 Sr2 3.286438 1_555
