# generated using pymatgen
data_BaPr2PdO5
_symmetry_space_group_name_H-M   'P 1'
_cell_length_a   6.81975999
_cell_length_b   6.81975999
_cell_length_c   5.94093102
_cell_angle_alpha   90.00000000
_cell_angle_beta   90.00000000
_cell_angle_gamma   90.00000000
_symmetry_Int_Tables_number   1
_chemical_formula_structural   BaPr2PdO5
_chemical_formula_sum   'Ba2 Pr4 Pd2 O10'
_cell_volume   276.30751127
_cell_formula_units_Z   2
loop_
 _symmetry_equiv_pos_site_id
 _symmetry_equiv_pos_as_xyz
  1  'x, y, z'
loop_
 _atom_site_type_symbol
 _atom_site_label
 _atom_site_symmetry_multiplicity
 _atom_site_fract_x
 _atom_site_fract_y
 _atom_site_fract_z
 _atom_site_occupancy
  Ba  Ba0  1  0.50000000  0.50000000  0.00000000  1
  Ba  Ba1  1  0.00000000  0.00000000  0.00000000  1
  Pr  Pr0  1  0.67266081  0.17266081  0.50000000  1
  Pr  Pr1  1  0.17266081  0.32733919  0.50000000  1
  Pr  Pr2  1  0.82733919  0.67266081  0.50000000  1
  Pr  Pr3  1  0.32733919  0.82733919  0.50000000  1
  Pd  Pd0  1  0.00000000  0.50000000  0.00000000  1
  Pd  Pd1  1  0.50000000  0.00000000  0.00000000  1
  O  O0  1  0.50000000  0.50000000  0.50000000  1
  O  O1  1  -0.00000000  0.00000000  0.50000000  1
  O  O2  1  0.14046006  0.64046006  0.24871602  1
  O  O3  1  0.85953994  0.35953994  0.24871602  1
  O  O4  1  0.35953994  0.14046006  0.24871602  1
  O  O5  1  0.64046006  0.85953994  0.24871602  1
  O  O6  1  0.14046006  0.64046006  0.75128398  1
  O  O7  1  0.64046006  0.85953994  0.75128398  1
  O  O8  1  0.85953994  0.35953994  0.75128398  1
  O  O9  1  0.35953994  0.14046006  0.75128398  1
loop_
_geom_bond_atom_site_label_1
_geom_bond_atom_site_label_2
_geom_bond_distance
_geom_bond_site_symmetry_2
Ba0 O0 2.970466 1_554
Ba0 O0 2.970466 1_555
Ba0 O4 3.018788 1_555
Ba0 O7 3.018788 1_554
Ba0 O8 3.018788 1_554
Ba0 O9 3.018788 1_554
Ba0 O5 3.018788 1_555
Ba0 O2 3.018788 1_555
Ba0 O3 3.018788 1_555
Ba0 O6 3.018788 1_554
Ba1 O1 2.970466 1_555
Ba1 O1 2.970466 1_554
Ba1 O4 3.018788 1_555
Ba1 O7 3.018788 1_444
Ba1 O6 3.018788 1_544
Ba1 O9 3.018788 1_554
Ba1 O3 3.018788 1_455
Ba1 O2 3.018788 1_545
Ba1 O8 3.018788 1_454
Ba1 O5 3.018788 1_445
O0 Pr0 2.523889 1_555
O0 Pr3 2.523889 1_555
O0 Pr1 2.523889 1_555
O0 Pr2 2.523889 1_555
O1 Pr2 2.523889 1_445
O1 Pr1 2.523889 1_555
O1 Pr3 2.523889 1_545
O1 Pr0 2.523889 1_455
O2 Pd0 2.004614 1_555
O2 Pr3 2.340339 1_555
O2 Pr2 2.614733 1_455
O2 Pr1 2.614733 1_555
O3 Pd0 2.004614 1_655
O3 Pr0 2.340339 1_555
O3 Pr1 2.614733 1_655
O3 Pr2 2.614733 1_555
O4 Pd1 2.004614 1_555
O4 Pr1 2.340339 1_555
O4 Pr0 2.614733 1_555
O4 Pr3 2.614733 1_545
O5 Pd1 2.004614 1_565
O5 Pr2 2.340339 1_555
O5 Pr3 2.614733 1_555
O5 Pr0 2.614733 1_565
O6 Pd0 2.004614 1_556
O6 Pr3 2.340339 1_555
O6 Pr2 2.614733 1_455
O6 Pr1 2.614733 1_555
O7 Pd1 2.004614 1_566
O7 Pr2 2.340339 1_555
O7 Pr3 2.614733 1_555
O7 Pr0 2.614733 1_565
O8 Pd0 2.004614 1_656
O8 Pr0 2.340339 1_555
O8 Pr1 2.614733 1_655
O8 Pr2 2.614733 1_555
O9 Pd1 2.004614 1_556
O9 Pr1 2.340339 1_555
O9 Pr0 2.614733 1_555
O9 Pr3 2.614733 1_545
