# generated using pymatgen
data_Zn6Mo
_symmetry_space_group_name_H-M   'P 1'
_cell_length_a   5.39311576
_cell_length_b   5.39253321
_cell_length_c   5.39437123
_cell_angle_alpha   59.99422795
_cell_angle_beta   59.98912596
_cell_angle_gamma   60.02190200
_symmetry_Int_Tables_number   1
_chemical_formula_structural   Zn6Mo
_chemical_formula_sum   'Zn6 Mo1'
_cell_volume   110.93678399
_cell_formula_units_Z   1
loop_
 _symmetry_equiv_pos_site_id
 _symmetry_equiv_pos_as_xyz
  1  'x, y, z'
loop_
 _atom_site_type_symbol
 _atom_site_label
 _atom_site_symmetry_multiplicity
 _atom_site_fract_x
 _atom_site_fract_y
 _atom_site_fract_z
 _atom_site_occupancy
  Zn  Zn0  1  0.50000071  0.50000071  0.99999841  1
  Zn  Zn1  1  0.50000071  0.99999841  0.50000071  1
  Zn  Zn2  1  0.00000004  0.00000004  0.49999926  1
  Zn  Zn3  1  0.00000004  0.49999926  0.00000004  1
  Zn  Zn4  1  0.99999841  0.50000071  0.50000071  1
  Zn  Zn5  1  0.49999926  0.00000004  0.00000004  1
  Mo  Mo0  1  -0.00000016  -0.00000016  -0.00000016  1
loop_
_geom_bond_atom_site_label_1
_geom_bond_atom_site_label_2
_geom_bond_distance
_geom_bond_site_symmetry_2
Zn0 Zn5 2.696263 1_566
Zn0 Zn5 2.696270 1_556
Zn0 Zn4 2.696416 1_555
Zn0 Zn4 2.696441 1_456
Zn0 Zn1 2.696479 1_555
Zn0 Zn1 2.696503 1_546
Zn0 Zn3 2.696555 1_656
Zn0 Zn3 2.696561 1_556
Zn1 Zn2 2.696555 1_665
Zn1 Zn2 2.696561 1_565
Zn1 Zn5 2.697182 1_566
Zn1 Zn5 2.697189 1_565
Zn1 Zn4 2.697292 1_555
Zn1 Zn4 2.697317 1_465
Zn2 Zn4 2.696263 1_445
Zn2 Zn4 2.696270 1_455
Zn2 Zn5 2.696424 1_555
Zn2 Zn5 2.696433 1_456
Zn2 Zn3 2.696487 1_555
Zn2 Zn3 2.696495 1_546
Zn3 Zn4 2.697182 1_454
Zn3 Zn4 2.697189 1_455
Zn3 Zn5 2.697301 1_555
Zn3 Zn5 2.697309 1_465
Mo0 Zn3 2.696265 1_555
Mo0 Zn3 2.696269 1_545
Mo0 Zn1 2.696429 1_445
Mo0 Zn1 2.696429 1_544
Mo0 Zn4 2.696491 1_445
Mo0 Zn4 2.696491 1_454
Mo0 Zn5 2.696556 1_555
Mo0 Zn5 2.696560 1_455
Mo0 Zn2 2.697184 1_555
Mo0 Zn2 2.697188 1_554
Mo0 Zn0 2.697305 1_454
Mo0 Zn0 2.697305 1_544
