# generated using pymatgen
data_LiLu2Ru
_symmetry_space_group_name_H-M   'P 1'
_cell_length_a   4.77498845
_cell_length_b   4.77498845
_cell_length_c   4.77498845
_cell_angle_alpha   60.00000000
_cell_angle_beta   60.00000000
_cell_angle_gamma   60.00000000
_symmetry_Int_Tables_number   1
_chemical_formula_structural   LiLu2Ru
_chemical_formula_sum   'Li1 Lu2 Ru1'
_cell_volume   76.98426669
_cell_formula_units_Z   1
loop_
 _symmetry_equiv_pos_site_id
 _symmetry_equiv_pos_as_xyz
  1  'x, y, z'
loop_
 _atom_site_type_symbol
 _atom_site_label
 _atom_site_symmetry_multiplicity
 _atom_site_fract_x
 _atom_site_fract_y
 _atom_site_fract_z
 _atom_site_occupancy
  Li  Li0  1  0.25000100  0.25000100  0.25000100  1
  Lu  Lu0  1  -0.00000000  0.00000000  0.00000000  1
  Lu  Lu1  1  0.50000000  0.50000000  0.50000000  1
  Ru  Ru0  1  0.75000000  0.75000000  0.75000000  1
loop_
_geom_bond_atom_site_label_1
_geom_bond_atom_site_label_2
_geom_bond_distance
_geom_bond_site_symmetry_2
Li0 Lu1 2.924060 1_555
Li0 Lu0 2.924067 1_655
Li0 Lu0 2.924067 1_565
Li0 Lu0 2.924067 1_556
Li0 Lu1 2.924075 1_545
Li0 Lu1 2.924075 1_554
Li0 Lu1 2.924075 1_455
Li0 Lu0 2.924083 1_555
Li0 Ru0 3.376420 1_545
Li0 Ru0 3.376420 1_554
Li0 Ru0 3.376420 1_455
Li0 Ru0 3.376433 1_454
Li0 Ru0 3.376433 1_445
Li0 Ru0 3.376433 1_544
Lu0 Ru0 2.924071 1_454
Lu0 Ru0 2.924071 1_544
Lu0 Ru0 2.924071 1_445
Lu0 Ru0 2.924071 1_444
Lu1 Ru0 2.924071 1_455
Lu1 Ru0 2.924071 1_545
Lu1 Ru0 2.924071 1_555
Lu1 Ru0 2.924071 1_554
