# generated using pymatgen
data_CsSnF3
_symmetry_space_group_name_H-M   'P 1'
_cell_length_a   4.77234100
_cell_length_b   4.91583899
_cell_length_c   5.04052016
_cell_angle_alpha   94.56653921
_cell_angle_beta   92.35238713
_cell_angle_gamma   91.16891364
_symmetry_Int_Tables_number   1
_chemical_formula_structural   CsSnF3
_chemical_formula_sum   'Cs1 Sn1 F3'
_cell_volume   117.74292902
_cell_formula_units_Z   1
loop_
 _symmetry_equiv_pos_site_id
 _symmetry_equiv_pos_as_xyz
  1  'x, y, z'
loop_
 _atom_site_type_symbol
 _atom_site_label
 _atom_site_symmetry_multiplicity
 _atom_site_fract_x
 _atom_site_fract_y
 _atom_site_fract_z
 _atom_site_occupancy
  Cs  Cs0  1  0.00579900  0.00177100  0.98547300  1
  Sn  Sn0  1  0.50430500  0.49868500  0.48673000  1
  F  F0  1  0.96225900  0.52813200  0.53134000  1
  F  F1  1  0.51485200  0.52584000  0.90807400  1
  F  F2  1  0.51278300  0.93557500  0.52838300  1
loop_
_geom_bond_atom_site_label_1
_geom_bond_atom_site_label_2
_geom_bond_distance
_geom_bond_site_symmetry_2
Cs0 F0 3.129965 1_445
Cs0 F2 3.217827 1_445
Cs0 F1 3.266710 1_445
Cs0 F2 3.411526 1_545
Cs0 F1 3.419379 1_545
Cs0 F1 3.551053 1_455
Cs0 F1 3.559995 1_555
Cs0 F0 3.592244 1_455
Cs0 F2 3.616485 1_546
Cs0 F0 3.639242 1_456
F0 Sn0 2.188504 1_555
F0 Sn0 2.611712 1_655
F1 Sn0 2.115811 1_555
F2 Sn0 2.140609 1_555
