# generated using pymatgen
data_Li(SiRh)2
_symmetry_space_group_name_H-M   'P 1'
_cell_length_a   13.97753906
_cell_length_b   13.97753906
_cell_length_c   5.48140924
_cell_angle_alpha   90.00000000
_cell_angle_beta   90.00000000
_cell_angle_gamma   90.00000000
_symmetry_Int_Tables_number   1
_chemical_formula_structural   Li(SiRh)2
_chemical_formula_sum   'Li16 Si32 Rh32'
_cell_volume   1070.91168346
_cell_formula_units_Z   16
loop_
 _symmetry_equiv_pos_site_id
 _symmetry_equiv_pos_as_xyz
  1  'x, y, z'
loop_
 _atom_site_type_symbol
 _atom_site_label
 _atom_site_symmetry_multiplicity
 _atom_site_fract_x
 _atom_site_fract_y
 _atom_site_fract_z
 _atom_site_occupancy
  Li  Li0_0  1  0.00000000  0.00000000  0.00000000  1
  Li  Li0_1  1  0.00000000  0.00000000  0.50000000  1
  Li  Li0_2  1  0.00000000  0.50000000  0.00000000  1
  Li  Li0_3  1  0.00000000  0.50000000  0.50000000  1
  Li  Li0_4  1  0.50000000  0.00000000  0.00000000  1
  Li  Li0_5  1  0.50000000  0.00000000  0.50000000  1
  Li  Li0_6  1  0.50000000  0.50000000  0.00000000  1
  Li  Li0_7  1  0.50000000  0.50000000  0.50000000  1
  Li  Li1_0  1  0.25000000  0.25000000  0.00000000  1
  Li  Li1_1  1  0.25000000  0.25000000  0.50000000  1
  Li  Li1_2  1  0.25000000  0.75000000  0.00000000  1
  Li  Li1_3  1  0.25000000  0.75000000  0.50000000  1
  Li  Li1_4  1  0.75000000  0.25000000  0.00000000  1
  Li  Li1_5  1  0.75000000  0.25000000  0.50000000  1
  Li  Li1_6  1  0.75000000  0.75000000  0.00000000  1
  Li  Li1_7  1  0.75000000  0.75000000  0.50000000  1
  Si  Si0_0  1  0.32248285  0.07248285  0.00000000  1
  Si  Si0_1  1  0.32248285  0.07248285  0.50000000  1
  Si  Si0_2  1  0.32248285  0.57248285  0.00000000  1
  Si  Si0_3  1  0.32248285  0.57248285  0.50000000  1
  Si  Si0_4  1  0.82248285  0.07248285  0.00000000  1
  Si  Si0_5  1  0.82248285  0.07248285  0.50000000  1
  Si  Si0_6  1  0.82248285  0.57248285  0.00000000  1
  Si  Si0_7  1  0.82248285  0.57248285  0.50000000  1
  Si  Si1_0  1  0.07248285  0.17751665  0.00000000  1
  Si  Si1_1  1  0.07248285  0.17751665  0.50000000  1
  Si  Si1_2  1  0.07248285  0.67751665  0.00000000  1
  Si  Si1_3  1  0.07248285  0.67751665  0.50000000  1
  Si  Si1_4  1  0.57248285  0.17751665  0.00000000  1
  Si  Si1_5  1  0.57248285  0.17751665  0.50000000  1
  Si  Si1_6  1  0.57248285  0.67751665  0.00000000  1
  Si  Si1_7  1  0.57248285  0.67751665  0.50000000  1
  Si  Si2_0  1  0.42751715  0.32248285  0.00000000  1
  Si  Si2_1  1  0.42751715  0.32248285  0.50000000  1
  Si  Si2_2  1  0.42751715  0.82248285  0.00000000  1
  Si  Si2_3  1  0.42751715  0.82248285  0.50000000  1
  Si  Si2_4  1  0.92751715  0.32248285  0.00000000  1
  Si  Si2_5  1  0.92751715  0.32248285  0.50000000  1
  Si  Si2_6  1  0.92751715  0.82248285  0.00000000  1
  Si  Si2_7  1  0.92751715  0.82248285  0.50000000  1
  Si  Si3_0  1  0.17751665  0.42751715  0.00000000  1
  Si  Si3_1  1  0.17751665  0.42751715  0.50000000  1
  Si  Si3_2  1  0.17751665  0.92751715  0.00000000  1
  Si  Si3_3  1  0.17751665  0.92751715  0.50000000  1
  Si  Si3_4  1  0.67751665  0.42751715  0.00000000  1
  Si  Si3_5  1  0.67751665  0.42751715  0.50000000  1
  Si  Si3_6  1  0.67751665  0.92751715  0.00000000  1
  Si  Si3_7  1  0.67751665  0.92751715  0.50000000  1
  Rh  Rh0_0  1  0.17503550  0.07496550  0.24999950  1
  Rh  Rh0_1  1  0.17503550  0.07496550  0.74999950  1
  Rh  Rh0_2  1  0.17503550  0.57496550  0.24999950  1
  Rh  Rh0_3  1  0.17503550  0.57496550  0.74999950  1
  Rh  Rh0_4  1  0.67503550  0.07496550  0.24999950  1
  Rh  Rh0_5  1  0.67503550  0.07496550  0.74999950  1
  Rh  Rh0_6  1  0.67503550  0.57496550  0.24999950  1
  Rh  Rh0_7  1  0.67503550  0.57496550  0.74999950  1
  Rh  Rh1_0  1  0.42503500  0.17503550  0.24999950  1
  Rh  Rh1_1  1  0.42503500  0.17503550  0.74999950  1
  Rh  Rh1_2  1  0.42503500  0.67503550  0.24999950  1
  Rh  Rh1_3  1  0.42503500  0.67503550  0.74999950  1
  Rh  Rh1_4  1  0.92503500  0.17503550  0.24999950  1
  Rh  Rh1_5  1  0.92503500  0.17503550  0.74999950  1
  Rh  Rh1_6  1  0.92503500  0.67503550  0.24999950  1
  Rh  Rh1_7  1  0.92503500  0.67503550  0.74999950  1
  Rh  Rh2_0  1  0.07496550  0.32496500  0.24999950  1
  Rh  Rh2_1  1  0.07496550  0.32496500  0.74999950  1
  Rh  Rh2_2  1  0.07496550  0.82496500  0.24999950  1
  Rh  Rh2_3  1  0.07496550  0.82496500  0.74999950  1
  Rh  Rh2_4  1  0.57496550  0.32496500  0.24999950  1
  Rh  Rh2_5  1  0.57496550  0.32496500  0.74999950  1
  Rh  Rh2_6  1  0.57496550  0.82496500  0.24999950  1
  Rh  Rh2_7  1  0.57496550  0.82496500  0.74999950  1
  Rh  Rh3_0  1  0.32496500  0.42503500  0.24999950  1
  Rh  Rh3_1  1  0.32496500  0.42503500  0.74999950  1
  Rh  Rh3_2  1  0.32496500  0.92503500  0.24999950  1
  Rh  Rh3_3  1  0.32496500  0.92503500  0.74999950  1
  Rh  Rh3_4  1  0.82496500  0.42503500  0.24999950  1
  Rh  Rh3_5  1  0.82496500  0.42503500  0.74999950  1
  Rh  Rh3_6  1  0.82496500  0.92503500  0.24999950  1
  Rh  Rh3_7  1  0.82496500  0.92503500  0.74999950  1
loop_
_geom_bond_atom_site_label_1
_geom_bond_atom_site_label_2
_geom_bond_distance
_geom_bond_site_symmetry_2
Li0_0 Si1_0 2.680115 1_555
Li0_0 Si3_2 2.680115 1_545
Li0_0 Si0_4 2.680122 1_455
Li0_0 Si2_6 2.680122 1_445
Li0_0 Li0_1 2.740705 1_555
Li0_0 Li0_1 2.740705 1_554
Li0_0 Rh3_6 2.993568 1_445
Li0_0 Rh2_2 2.993570 1_545
Li0_0 Rh3_7 2.993570 1_444
Li0_0 Rh2_3 2.993572 1_544
Li0_0 Rh1_4 2.993573 1_455
Li0_0 Rh0_0 2.993576 1_555
Li0_0 Rh1_5 2.993576 1_454
Li0_0 Rh0_1 2.993578 1_554
Li0_1 Si1_1 2.680115 1_555
Li0_1 Si3_3 2.680115 1_545
Li0_1 Si0_5 2.680122 1_455
Li0_1 Si2_7 2.680122 1_445
Li0_1 Rh3_7 2.993568 1_445
Li0_1 Rh2_3 2.993570 1_545
Li0_1 Rh3_6 2.993570 1_445
Li0_1 Rh2_2 2.993572 1_545
Li0_1 Rh1_5 2.993573 1_455
Li0_1 Rh0_1 2.993576 1_555
Li0_1 Rh1_4 2.993576 1_455
Li0_1 Rh0_0 2.993578 1_555
Li0_2 Si3_0 2.680115 1_555
Li0_2 Si1_2 2.680115 1_555
Li0_2 Si2_4 2.680122 1_455
Li0_2 Si0_6 2.680122 1_455
Li0_2 Li0_3 2.740705 1_555
Li0_2 Li0_3 2.740705 1_554
Li0_2 Rh3_4 2.993568 1_455
Li0_2 Rh2_0 2.993570 1_555
Li0_2 Rh3_5 2.993570 1_454
Li0_2 Rh2_1 2.993572 1_554
Li0_2 Rh1_6 2.993573 1_455
Li0_2 Rh0_2 2.993576 1_555
Li0_2 Rh1_7 2.993576 1_454
Li0_2 Rh0_3 2.993578 1_554
Li0_3 Si3_1 2.680115 1_555
Li0_3 Si1_3 2.680115 1_555
Li0_3 Si2_5 2.680122 1_455
Li0_3 Si0_7 2.680122 1_455
Li0_3 Rh3_5 2.993568 1_455
Li0_3 Rh2_1 2.993570 1_555
Li0_3 Rh3_4 2.993570 1_455
Li0_3 Rh2_0 2.993572 1_555
Li0_3 Rh1_7 2.993573 1_455
Li0_3 Rh0_3 2.993576 1_555
Li0_3 Rh1_6 2.993576 1_455
Li0_3 Rh0_2 2.993578 1_555
Li0_4 Si3_6 2.680115 1_545
Li0_4 Si1_4 2.680115 1_555
Li0_4 Si0_0 2.680122 1_555
Li0_4 Si2_2 2.680122 1_545
Li0_4 Li0_5 2.740705 1_555
Li0_4 Li0_5 2.740705 1_554
Li0_4 Rh3_2 2.993568 1_545
Li0_4 Rh2_6 2.993570 1_545
Li0_4 Rh3_3 2.993570 1_544
Li0_4 Rh2_7 2.993572 1_544
Li0_4 Rh1_0 2.993573 1_555
Li0_4 Rh0_4 2.993576 1_555
Li0_4 Rh1_1 2.993576 1_554
Li0_4 Rh0_5 2.993578 1_554
Li0_5 Si1_5 2.680115 1_555
Li0_5 Si3_7 2.680115 1_545
Li0_5 Si0_1 2.680122 1_555
Li0_5 Si2_3 2.680122 1_545
Li0_5 Rh3_3 2.993568 1_545
Li0_5 Rh2_7 2.993570 1_545
Li0_5 Rh3_2 2.993570 1_545
Li0_5 Rh2_6 2.993572 1_545
Li0_5 Rh1_1 2.993573 1_555
Li0_5 Rh0_5 2.993576 1_555
Li0_5 Rh1_0 2.993576 1_555
Li0_5 Rh0_4 2.993578 1_555
Li0_6 Si3_4 2.680115 1_555
Li0_6 Si1_6 2.680115 1_555
Li0_6 Si2_0 2.680122 1_555
Li0_6 Si0_2 2.680122 1_555
Li0_6 Li0_7 2.740705 1_555
Li0_6 Li0_7 2.740705 1_554
Li0_6 Rh3_0 2.993568 1_555
Li0_6 Rh2_4 2.993570 1_555
Li0_6 Rh3_1 2.993570 1_554
Li0_6 Rh2_5 2.993572 1_554
Li0_6 Rh1_2 2.993573 1_555
Li0_6 Rh0_6 2.993576 1_555
Li0_6 Rh1_3 2.993576 1_554
Li0_6 Rh0_7 2.993578 1_554
Li0_7 Si3_5 2.680115 1_555
Li0_7 Si1_7 2.680115 1_555
Li0_7 Si2_1 2.680122 1_555
Li0_7 Si0_3 2.680122 1_555
Li0_7 Rh3_1 2.993568 1_555
Li0_7 Rh2_5 2.993570 1_555
Li0_7 Rh3_0 2.993570 1_555
Li0_7 Rh2_4 2.993572 1_555
Li0_7 Rh1_3 2.993573 1_555
Li0_7 Rh0_7 2.993576 1_555
Li0_7 Rh1_2 2.993576 1_555
Li0_7 Rh0_6 2.993578 1_555
Li1_0 Si0_0 2.680122 1_555
Li1_0 Si2_0 2.680122 1_555
Li1_0 Si1_0 2.680124 1_555
Li1_0 Si3_0 2.680124 1_555
Li1_0 Li1_1 2.740705 1_555
Li1_0 Li1_1 2.740705 1_554
Li1_0 Rh0_0 2.993559 1_555
Li1_0 Rh2_0 2.993562 1_555
Li1_0 Rh0_1 2.993562 1_554
Li1_0 Rh2_1 2.993564 1_554
Li1_0 Rh1_0 2.993565 1_555
Li1_0 Rh3_0 2.993568 1_555
Li1_0 Rh1_1 2.993568 1_554
Li1_0 Rh3_1 2.993570 1_554
Li1_1 Si0_1 2.680122 1_555
Li1_1 Si2_1 2.680122 1_555
Li1_1 Si3_1 2.680124 1_555
Li1_1 Si1_1 2.680124 1_555
Li1_1 Rh0_1 2.993559 1_555
Li1_1 Rh2_1 2.993562 1_555
Li1_1 Rh0_0 2.993562 1_555
Li1_1 Rh2_0 2.993564 1_555
Li1_1 Rh1_1 2.993565 1_555
Li1_1 Rh3_1 2.993568 1_555
Li1_1 Rh1_0 2.993568 1_555
Li1_1 Rh3_0 2.993570 1_555
Li1_2 Si0_2 2.680122 1_555
Li1_2 Si2_2 2.680122 1_555
Li1_2 Si3_2 2.680124 1_555
Li1_2 Si1_2 2.680124 1_555
Li1_2 Li1_3 2.740705 1_555
Li1_2 Li1_3 2.740705 1_554
Li1_2 Rh0_2 2.993559 1_555
Li1_2 Rh2_2 2.993562 1_555
Li1_2 Rh0_3 2.993562 1_554
Li1_2 Rh2_3 2.993564 1_554
Li1_2 Rh1_2 2.993565 1_555
Li1_2 Rh3_2 2.993568 1_555
Li1_2 Rh1_3 2.993568 1_554
Li1_2 Rh3_3 2.993570 1_554
Li1_3 Si0_3 2.680122 1_555
Li1_3 Si2_3 2.680122 1_555
Li1_3 Si3_3 2.680124 1_555
Li1_3 Si1_3 2.680124 1_555
Li1_3 Rh0_3 2.993559 1_555
Li1_3 Rh2_3 2.993562 1_555
Li1_3 Rh0_2 2.993562 1_555
Li1_3 Rh2_2 2.993564 1_555
Li1_3 Rh1_3 2.993565 1_555
Li1_3 Rh3_3 2.993568 1_555
Li1_3 Rh1_2 2.993568 1_555
Li1_3 Rh3_2 2.993570 1_555
Li1_4 Si2_4 2.680122 1_555
Li1_4 Si0_4 2.680122 1_555
Li1_4 Si1_4 2.680124 1_555
Li1_4 Si3_4 2.680124 1_555
Li1_4 Li1_5 2.740705 1_555
Li1_4 Li1_5 2.740705 1_554
Li1_4 Rh0_4 2.993559 1_555
Li1_4 Rh2_4 2.993562 1_555
Li1_4 Rh0_5 2.993562 1_554
Li1_4 Rh2_5 2.993564 1_554
Li1_4 Rh1_4 2.993565 1_555
Li1_4 Rh3_4 2.993568 1_555
Li1_4 Rh1_5 2.993568 1_554
Li1_4 Rh3_5 2.993570 1_554
Li1_5 Si2_5 2.680122 1_555
Li1_5 Si0_5 2.680122 1_555
Li1_5 Si1_5 2.680124 1_555
Li1_5 Si3_5 2.680124 1_555
Li1_5 Rh0_5 2.993559 1_555
Li1_5 Rh2_5 2.993562 1_555
Li1_5 Rh0_4 2.993562 1_555
Li1_5 Rh2_4 2.993564 1_555
Li1_5 Rh1_5 2.993565 1_555
Li1_5 Rh3_5 2.993568 1_555
Li1_5 Rh1_4 2.993568 1_555
Li1_5 Rh3_4 2.993570 1_555
Li1_6 Si2_6 2.680122 1_555
Li1_6 Si0_6 2.680122 1_555
Li1_6 Si3_6 2.680124 1_555
Li1_6 Si1_6 2.680124 1_555
Li1_6 Li1_7 2.740705 1_555
Li1_6 Li1_7 2.740705 1_554
Li1_6 Rh0_6 2.993559 1_555
Li1_6 Rh2_6 2.993562 1_555
Li1_6 Rh0_7 2.993562 1_554
Li1_6 Rh2_7 2.993564 1_554
Li1_6 Rh1_6 2.993565 1_555
Li1_6 Rh3_6 2.993568 1_555
Li1_6 Rh1_7 2.993568 1_554
Li1_6 Rh3_7 2.993570 1_554
Li1_7 Si2_7 2.680122 1_555
Li1_7 Si0_7 2.680122 1_555
Li1_7 Si3_7 2.680124 1_555
Li1_7 Si1_7 2.680124 1_555
Li1_7 Rh0_7 2.993559 1_555
Li1_7 Rh2_7 2.993562 1_555
Li1_7 Rh0_6 2.993562 1_555
Li1_7 Rh2_6 2.993564 1_555
Li1_7 Rh1_7 2.993565 1_555
Li1_7 Rh3_7 2.993568 1_555
Li1_7 Rh1_6 2.993568 1_555
Li1_7 Rh3_6 2.993570 1_555
Rh0_0 Si1_0 2.446888 1_555
Rh0_0 Si1_1 2.446891 1_555
Rh0_0 Si0_0 2.475193 1_555
Rh0_0 Si0_1 2.475196 1_555
Rh0_0 Si3_2 2.475205 1_545
Rh0_0 Si3_3 2.475208 1_545
Rh0_1 Si1_1 2.446888 1_555
Rh0_1 Si1_0 2.446891 1_556
Rh0_1 Si0_1 2.475193 1_555
Rh0_1 Si0_0 2.475196 1_556
Rh0_1 Si3_3 2.475205 1_545
Rh0_1 Si3_2 2.475208 1_546
Rh0_2 Si1_2 2.446888 1_555
Rh0_2 Si1_3 2.446891 1_555
Rh0_2 Si0_2 2.475193 1_555
Rh0_2 Si0_3 2.475196 1_555
Rh0_2 Si3_0 2.475205 1_555
Rh0_2 Si3_1 2.475208 1_555
Rh0_3 Si1_3 2.446888 1_555
Rh0_3 Si1_2 2.446891 1_556
Rh0_3 Si0_3 2.475193 1_555
Rh0_3 Si0_2 2.475196 1_556
Rh0_3 Si3_1 2.475205 1_555
Rh0_3 Si3_0 2.475208 1_556
Rh0_4 Si1_4 2.446888 1_555
Rh0_4 Si1_5 2.446891 1_555
Rh0_4 Si0_4 2.475193 1_555
Rh0_4 Si0_5 2.475196 1_555
Rh0_4 Si3_6 2.475205 1_545
Rh0_4 Si3_7 2.475208 1_545
Rh0_5 Si1_5 2.446888 1_555
Rh0_5 Si1_4 2.446891 1_556
Rh0_5 Si0_5 2.475193 1_555
Rh0_5 Si0_4 2.475196 1_556
Rh0_5 Si3_7 2.475205 1_545
Rh0_5 Si3_6 2.475208 1_546
Rh0_6 Si1_6 2.446888 1_555
Rh0_6 Si1_7 2.446891 1_555
Rh0_6 Si0_6 2.475193 1_555
Rh0_6 Si0_7 2.475196 1_555
Rh0_6 Si3_4 2.475205 1_555
Rh0_6 Si3_5 2.475208 1_555
Rh0_7 Si1_7 2.446888 1_555
Rh0_7 Si1_6 2.446891 1_556
Rh0_7 Si0_7 2.475193 1_555
Rh0_7 Si0_6 2.475196 1_556
Rh0_7 Si3_5 2.475205 1_555
Rh0_7 Si3_4 2.475208 1_556
Rh1_0 Si0_0 2.446897 1_555
Rh1_0 Si0_1 2.446900 1_555
Rh1_0 Si2_0 2.475193 1_555
Rh1_0 Si2_1 2.475196 1_555
Rh1_0 Si1_4 2.475199 1_555
Rh1_0 Si1_5 2.475202 1_555
Rh1_1 Si0_1 2.446897 1_555
Rh1_1 Si0_0 2.446900 1_556
Rh1_1 Si2_1 2.475193 1_555
Rh1_1 Si2_0 2.475196 1_556
Rh1_1 Si1_5 2.475199 1_555
Rh1_1 Si1_4 2.475202 1_556
Rh1_2 Si0_2 2.446897 1_555
Rh1_2 Si0_3 2.446900 1_555
Rh1_2 Si2_2 2.475193 1_555
Rh1_2 Si2_3 2.475196 1_555
Rh1_2 Si1_6 2.475199 1_555
Rh1_2 Si1_7 2.475202 1_555
Rh1_3 Si0_3 2.446897 1_555
Rh1_3 Si0_2 2.446900 1_556
Rh1_3 Si2_3 2.475193 1_555
Rh1_3 Si2_2 2.475196 1_556
Rh1_3 Si1_7 2.475199 1_555
Rh1_3 Si1_6 2.475202 1_556
Rh1_4 Si0_4 2.446897 1_555
Rh1_4 Si0_5 2.446900 1_555
Rh1_4 Si2_4 2.475193 1_555
Rh1_4 Si2_5 2.475196 1_555
Rh1_4 Si1_0 2.475199 1_655
Rh1_4 Si1_1 2.475202 1_655
Rh1_5 Si0_5 2.446897 1_555
Rh1_5 Si0_4 2.446900 1_556
Rh1_5 Si2_5 2.475193 1_555
Rh1_5 Si2_4 2.475196 1_556
Rh1_5 Si1_1 2.475199 1_655
Rh1_5 Si1_0 2.475202 1_656
Rh1_6 Si0_6 2.446897 1_555
Rh1_6 Si0_7 2.446900 1_555
Rh1_6 Si2_6 2.475193 1_555
Rh1_6 Si2_7 2.475196 1_555
Rh1_6 Si1_2 2.475199 1_655
Rh1_6 Si1_3 2.475202 1_655
Rh1_7 Si0_7 2.446897 1_555
Rh1_7 Si0_6 2.446900 1_556
Rh1_7 Si2_7 2.475193 1_555
Rh1_7 Si2_6 2.475196 1_556
Rh1_7 Si1_3 2.475199 1_655
Rh1_7 Si1_2 2.475202 1_656
Rh2_0 Si3_0 2.446884 1_555
Rh2_0 Si3_1 2.446887 1_555
Rh2_0 Si2_4 2.475205 1_455
Rh2_0 Si1_0 2.475205 1_555
Rh2_0 Si2_5 2.475208 1_455
Rh2_0 Si1_1 2.475208 1_555
Rh2_1 Si3_1 2.446884 1_555
Rh2_1 Si3_0 2.446887 1_556
Rh2_1 Si2_5 2.475205 1_455
Rh2_1 Si1_1 2.475205 1_555
Rh2_1 Si2_4 2.475208 1_456
Rh2_1 Si1_0 2.475208 1_556
Rh2_2 Si3_2 2.446884 1_555
Rh2_2 Si3_3 2.446887 1_555
Rh2_2 Si2_6 2.475205 1_455
Rh2_2 Si1_2 2.475205 1_555
Rh2_2 Si2_7 2.475208 1_455
Rh2_2 Si1_3 2.475208 1_555
Rh2_3 Si3_3 2.446884 1_555
Rh2_3 Si3_2 2.446887 1_556
Rh2_3 Si2_7 2.475205 1_455
Rh2_3 Si1_3 2.475205 1_555
Rh2_3 Si2_6 2.475208 1_456
Rh2_3 Si1_2 2.475208 1_556
Rh2_4 Si3_4 2.446884 1_555
Rh2_4 Si3_5 2.446887 1_555
Rh2_4 Si2_0 2.475205 1_555
Rh2_4 Si1_4 2.475205 1_555
Rh2_4 Si2_1 2.475208 1_555
Rh2_4 Si1_5 2.475208 1_555
Rh2_5 Si3_5 2.446884 1_555
Rh2_5 Si3_4 2.446887 1_556
Rh2_5 Si2_1 2.475205 1_555
Rh2_5 Si1_5 2.475205 1_555
Rh2_5 Si2_0 2.475208 1_556
Rh2_5 Si1_4 2.475208 1_556
Rh2_6 Si3_6 2.446884 1_555
Rh2_6 Si3_7 2.446887 1_555
Rh2_6 Si2_2 2.475205 1_555
Rh2_6 Si1_6 2.475205 1_555
Rh2_6 Si2_3 2.475208 1_555
Rh2_6 Si1_7 2.475208 1_555
Rh2_7 Si3_7 2.446884 1_555
Rh2_7 Si3_6 2.446887 1_556
Rh2_7 Si2_3 2.475205 1_555
Rh2_7 Si1_7 2.475205 1_555
Rh2_7 Si2_2 2.475208 1_556
Rh2_7 Si1_6 2.475208 1_556
Rh3_0 Si2_0 2.446892 1_555
Rh3_0 Si2_1 2.446895 1_555
Rh3_0 Si0_2 2.475199 1_555
Rh3_0 Si0_3 2.475202 1_555
Rh3_0 Si3_0 2.475205 1_555
Rh3_0 Si3_1 2.475208 1_555
Rh3_1 Si2_1 2.446892 1_555
Rh3_1 Si2_0 2.446895 1_556
Rh3_1 Si0_3 2.475199 1_555
Rh3_1 Si0_2 2.475202 1_556
Rh3_1 Si3_1 2.475205 1_555
Rh3_1 Si3_0 2.475208 1_556
Rh3_2 Si2_2 2.446892 1_555
Rh3_2 Si2_3 2.446895 1_555
Rh3_2 Si0_0 2.475199 1_565
Rh3_2 Si0_1 2.475202 1_565
Rh3_2 Si3_2 2.475205 1_555
Rh3_2 Si3_3 2.475208 1_555
Rh3_3 Si2_3 2.446892 1_555
Rh3_3 Si2_2 2.446895 1_556
Rh3_3 Si0_1 2.475199 1_565
Rh3_3 Si0_0 2.475202 1_566
Rh3_3 Si3_3 2.475205 1_555
Rh3_3 Si3_2 2.475208 1_556
Rh3_4 Si2_4 2.446892 1_555
Rh3_4 Si2_5 2.446895 1_555
Rh3_4 Si0_6 2.475199 1_555
Rh3_4 Si0_7 2.475202 1_555
Rh3_4 Si3_4 2.475205 1_555
Rh3_4 Si3_5 2.475208 1_555
Rh3_5 Si2_5 2.446892 1_555
Rh3_5 Si2_4 2.446895 1_556
Rh3_5 Si0_7 2.475199 1_555
Rh3_5 Si0_6 2.475202 1_556
Rh3_5 Si3_5 2.475205 1_555
Rh3_5 Si3_4 2.475208 1_556
Rh3_6 Si2_6 2.446892 1_555
Rh3_6 Si2_7 2.446895 1_555
Rh3_6 Si0_4 2.475199 1_565
Rh3_6 Si0_5 2.475202 1_565
Rh3_6 Si3_6 2.475205 1_555
Rh3_6 Si3_7 2.475208 1_555
Rh3_7 Si2_7 2.446892 1_555
Rh3_7 Si2_6 2.446895 1_556
Rh3_7 Si0_5 2.475199 1_565
Rh3_7 Si0_4 2.475202 1_566
Rh3_7 Si3_7 2.475205 1_555
Rh3_7 Si3_6 2.475208 1_556
