# generated using pymatgen
data_Mn3Fe
_symmetry_space_group_name_H-M   'P 1'
_cell_length_a   10.55476928
_cell_length_b   5.38594884
_cell_length_c   7.52998326
_cell_angle_alpha   90.00000000
_cell_angle_beta   90.00000000
_cell_angle_gamma   90.00000000
_symmetry_Int_Tables_number   1
_chemical_formula_structural   Mn3Fe
_chemical_formula_sum   'Mn24 Fe8'
_cell_volume   428.06032700
_cell_formula_units_Z   8
loop_
 _symmetry_equiv_pos_site_id
 _symmetry_equiv_pos_as_xyz
  1  'x, y, z'
loop_
 _atom_site_type_symbol
 _atom_site_label
 _atom_site_symmetry_multiplicity
 _atom_site_fract_x
 _atom_site_fract_y
 _atom_site_fract_z
 _atom_site_occupancy
  Mn  Mn0_0  1  0.25000000  0.00000000  0.00000000  1
  Mn  Mn0_1  1  0.25000000  0.00000000  0.50000000  1
  Mn  Mn0_2  1  0.25000000  0.50000000  0.00000000  1
  Mn  Mn0_3  1  0.25000000  0.50000000  0.50000000  1
  Mn  Mn0_4  1  0.75000000  0.00000000  0.00000000  1
  Mn  Mn0_5  1  0.75000000  0.00000000  0.50000000  1
  Mn  Mn0_6  1  0.75000000  0.50000000  0.00000000  1
  Mn  Mn0_7  1  0.75000000  0.50000000  0.50000000  1
  Mn  Mn1_0  1  0.37696227  0.25000000  0.25000000  1
  Mn  Mn1_1  1  0.37696227  0.25000000  0.75000000  1
  Mn  Mn1_2  1  0.37696227  0.75000000  0.25000000  1
  Mn  Mn1_3  1  0.37696227  0.75000000  0.75000000  1
  Mn  Mn1_4  1  0.87696226  0.25000000  0.25000000  1
  Mn  Mn1_5  1  0.87696226  0.25000000  0.75000000  1
  Mn  Mn1_6  1  0.87696226  0.75000000  0.25000000  1
  Mn  Mn1_7  1  0.87696226  0.75000000  0.75000000  1
  Mn  Mn2_0  1  0.12303773  0.25000000  0.25000000  1
  Mn  Mn2_1  1  0.12303773  0.25000000  0.75000000  1
  Mn  Mn2_2  1  0.12303773  0.75000000  0.25000000  1
  Mn  Mn2_3  1  0.12303773  0.75000000  0.75000000  1
  Mn  Mn2_4  1  0.62303774  0.25000000  0.25000000  1
  Mn  Mn2_5  1  0.62303774  0.25000000  0.75000000  1
  Mn  Mn2_6  1  0.62303774  0.75000000  0.25000000  1
  Mn  Mn2_7  1  0.62303774  0.75000000  0.75000000  1
  Fe  Fe0_0  1  0.00000000  0.00000000  0.00000000  1
  Fe  Fe0_1  1  0.00000000  0.00000000  0.50000000  1
  Fe  Fe0_2  1  0.00000000  0.50000000  0.00000000  1
  Fe  Fe0_3  1  0.00000000  0.50000000  0.50000000  1
  Fe  Fe0_4  1  0.50000000  0.00000000  0.00000000  1
  Fe  Fe0_5  1  0.50000000  0.00000000  0.50000000  1
  Fe  Fe0_6  1  0.50000000  0.50000000  0.00000000  1
  Fe  Fe0_7  1  0.50000000  0.50000000  0.50000000  1
loop_
_geom_bond_atom_site_label_1
_geom_bond_atom_site_label_2
_geom_bond_distance
_geom_bond_site_symmetry_2
Mn0_0 Mn1_2 2.674429 1_545
Mn0_0 Mn2_2 2.674429 1_545
Mn0_0 Mn2_0 2.674429 1_555
Mn0_0 Mn1_0 2.674429 1_555
Mn0_0 Mn1_1 2.674429 1_554
Mn0_0 Mn2_1 2.674429 1_554
Mn0_0 Mn1_3 2.674429 1_544
Mn0_0 Mn2_3 2.674429 1_544
Mn0_0 Mn0_2 2.692974 1_545
Mn0_0 Mn0_2 2.692974 1_555
Mn0_1 Mn1_1 2.674429 1_555
Mn0_1 Mn2_3 2.674429 1_545
Mn0_1 Mn1_3 2.674429 1_545
Mn0_1 Mn2_1 2.674429 1_555
Mn0_1 Mn2_2 2.674429 1_545
Mn0_1 Mn1_2 2.674429 1_545
Mn0_1 Mn2_0 2.674429 1_555
Mn0_1 Mn1_0 2.674429 1_555
Mn0_1 Mn0_3 2.692974 1_555
Mn0_1 Mn0_3 2.692974 1_545
Mn0_2 Mn1_2 2.674429 1_555
Mn0_2 Mn2_0 2.674429 1_555
Mn0_2 Mn1_0 2.674429 1_555
Mn0_2 Mn2_2 2.674429 1_555
Mn0_2 Mn1_3 2.674429 1_554
Mn0_2 Mn1_1 2.674429 1_554
Mn0_2 Mn2_3 2.674429 1_554
Mn0_2 Mn2_1 2.674429 1_554
Mn0_3 Mn1_3 2.674429 1_555
Mn0_3 Mn1_1 2.674429 1_555
Mn0_3 Mn2_3 2.674429 1_555
Mn0_3 Mn2_1 2.674429 1_555
Mn0_3 Mn1_2 2.674429 1_555
Mn0_3 Mn2_0 2.674429 1_555
Mn0_3 Mn1_0 2.674429 1_555
Mn0_3 Mn2_2 2.674429 1_555
Mn0_4 Mn1_4 2.674429 1_555
Mn0_4 Mn1_6 2.674429 1_545
Mn0_4 Mn2_4 2.674429 1_555
Mn0_4 Mn2_6 2.674429 1_545
Mn0_4 Mn1_5 2.674429 1_554
Mn0_4 Mn2_5 2.674429 1_554
Mn0_4 Mn2_7 2.674429 1_544
Mn0_4 Mn1_7 2.674429 1_544
Mn0_4 Mn0_6 2.692974 1_555
Mn0_4 Mn0_6 2.692974 1_545
Mn0_5 Mn1_7 2.674429 1_545
Mn0_5 Mn1_5 2.674429 1_555
Mn0_5 Mn2_7 2.674429 1_545
Mn0_5 Mn2_5 2.674429 1_555
Mn0_5 Mn1_4 2.674429 1_555
Mn0_5 Mn1_6 2.674429 1_545
Mn0_5 Mn2_4 2.674429 1_555
Mn0_5 Mn2_6 2.674429 1_545
Mn0_5 Mn0_7 2.692974 1_555
Mn0_5 Mn0_7 2.692974 1_545
Mn0_6 Mn1_4 2.674429 1_555
Mn0_6 Mn2_6 2.674429 1_555
Mn0_6 Mn2_4 2.674429 1_555
Mn0_6 Mn1_6 2.674429 1_555
Mn0_6 Mn1_5 2.674429 1_554
Mn0_6 Mn2_7 2.674429 1_554
Mn0_6 Mn2_5 2.674429 1_554
Mn0_6 Mn1_7 2.674429 1_554
Mn0_7 Mn1_7 2.674429 1_555
Mn0_7 Mn1_5 2.674429 1_555
Mn0_7 Mn2_7 2.674429 1_555
Mn0_7 Mn2_5 2.674429 1_555
Mn0_7 Mn1_4 2.674429 1_555
Mn0_7 Mn2_6 2.674429 1_555
Mn0_7 Mn2_4 2.674429 1_555
Mn0_7 Mn1_6 2.674429 1_555
Mn1_0 Mn2_4 2.597270 1_555
Mn1_0 Mn2_0 2.680115 1_555
Mn1_0 Mn1_2 2.692974 1_555
Mn1_0 Mn1_2 2.692974 1_545
Mn1_1 Mn2_5 2.597270 1_555
Mn1_1 Mn2_1 2.680115 1_555
Mn1_1 Mn1_3 2.692974 1_545
Mn1_1 Mn1_3 2.692974 1_555
Mn1_2 Mn2_6 2.597270 1_555
Mn1_2 Mn2_2 2.680115 1_555
Mn1_3 Mn2_7 2.597270 1_555
Mn1_3 Mn2_3 2.680115 1_555
Mn1_4 Mn2_0 2.597270 1_655
Mn1_4 Mn2_4 2.680115 1_555
Mn1_4 Mn1_6 2.692974 1_545
Mn1_4 Mn1_6 2.692974 1_555
Mn1_5 Mn2_1 2.597270 1_655
Mn1_5 Mn2_5 2.680115 1_555
Mn1_5 Mn1_7 2.692974 1_555
Mn1_5 Mn1_7 2.692974 1_545
Mn1_6 Mn2_2 2.597270 1_655
Mn1_6 Mn2_6 2.680115 1_555
Mn1_7 Mn2_3 2.597270 1_655
Mn1_7 Mn2_7 2.680115 1_555
Mn2_0 Mn2_2 2.692974 1_555
Mn2_0 Mn2_2 2.692974 1_545
Mn2_1 Mn2_3 2.692974 1_545
Mn2_1 Mn2_3 2.692974 1_555
Mn2_4 Mn2_6 2.692974 1_545
Mn2_4 Mn2_6 2.692974 1_555
Mn2_5 Mn2_7 2.692974 1_555
Mn2_5 Mn2_7 2.692974 1_545
Fe0_0 Mn0_0 2.638692 1_555
Fe0_0 Mn0_4 2.638692 1_455
Fe0_0 Mn2_0 2.653916 1_555
Fe0_0 Mn2_2 2.653916 1_545
Fe0_0 Mn1_4 2.653916 1_455
Fe0_0 Mn2_1 2.653916 1_554
Fe0_0 Mn2_3 2.653916 1_544
Fe0_0 Mn1_6 2.653916 1_445
Fe0_0 Mn1_7 2.653916 1_444
Fe0_0 Mn1_5 2.653916 1_454
Fe0_0 Fe0_2 2.692974 1_555
Fe0_0 Fe0_2 2.692974 1_545
Fe0_1 Mn0_1 2.638692 1_555
Fe0_1 Mn0_5 2.638692 1_455
Fe0_1 Mn2_3 2.653916 1_545
Fe0_1 Mn1_7 2.653916 1_445
Fe0_1 Mn1_5 2.653916 1_455
Fe0_1 Mn2_1 2.653916 1_555
Fe0_1 Mn2_0 2.653916 1_555
Fe0_1 Mn2_2 2.653916 1_545
Fe0_1 Mn1_4 2.653916 1_455
Fe0_1 Mn1_6 2.653916 1_445
Fe0_1 Fe0_3 2.692974 1_545
Fe0_1 Fe0_3 2.692974 1_555
Fe0_2 Mn0_2 2.638692 1_555
Fe0_2 Mn0_6 2.638692 1_455
Fe0_2 Mn2_0 2.653916 1_555
Fe0_2 Mn2_2 2.653916 1_555
Fe0_2 Mn1_4 2.653916 1_455
Fe0_2 Mn2_1 2.653916 1_554
Fe0_2 Mn1_6 2.653916 1_455
Fe0_2 Mn2_3 2.653916 1_554
Fe0_2 Mn1_7 2.653916 1_454
Fe0_2 Mn1_5 2.653916 1_454
Fe0_3 Mn0_3 2.638692 1_555
Fe0_3 Mn0_7 2.638692 1_455
Fe0_3 Mn1_7 2.653916 1_455
Fe0_3 Mn1_5 2.653916 1_455
Fe0_3 Mn2_3 2.653916 1_555
Fe0_3 Mn2_1 2.653916 1_555
Fe0_3 Mn2_0 2.653916 1_555
Fe0_3 Mn2_2 2.653916 1_555
Fe0_3 Mn1_4 2.653916 1_455
Fe0_3 Mn1_6 2.653916 1_455
Fe0_4 Mn0_0 2.638692 1_555
Fe0_4 Mn0_4 2.638692 1_555
Fe0_4 Mn1_0 2.653916 1_555
Fe0_4 Mn1_2 2.653916 1_545
Fe0_4 Mn2_6 2.653916 1_545
Fe0_4 Mn1_3 2.653916 1_544
Fe0_4 Mn1_1 2.653916 1_554
Fe0_4 Mn2_4 2.653916 1_555
Fe0_4 Mn2_7 2.653916 1_544
Fe0_4 Mn2_5 2.653916 1_554
Fe0_4 Fe0_6 2.692974 1_545
Fe0_4 Fe0_6 2.692974 1_555
Fe0_5 Mn0_1 2.638692 1_555
Fe0_5 Mn0_5 2.638692 1_555
Fe0_5 Mn2_5 2.653916 1_555
Fe0_5 Mn1_1 2.653916 1_555
Fe0_5 Mn1_3 2.653916 1_545
Fe0_5 Mn2_7 2.653916 1_545
Fe0_5 Mn1_0 2.653916 1_555
Fe0_5 Mn1_2 2.653916 1_545
Fe0_5 Mn2_6 2.653916 1_545
Fe0_5 Mn2_4 2.653916 1_555
Fe0_5 Fe0_7 2.692974 1_555
Fe0_5 Fe0_7 2.692974 1_545
Fe0_6 Mn0_2 2.638692 1_555
Fe0_6 Mn0_6 2.638692 1_555
Fe0_6 Mn1_2 2.653916 1_555
Fe0_6 Mn1_0 2.653916 1_555
Fe0_6 Mn2_6 2.653916 1_555
Fe0_6 Mn1_3 2.653916 1_554
Fe0_6 Mn1_1 2.653916 1_554
Fe0_6 Mn2_4 2.653916 1_555
Fe0_6 Mn2_7 2.653916 1_554
Fe0_6 Mn2_5 2.653916 1_554
Fe0_7 Mn0_3 2.638692 1_555
Fe0_7 Mn0_7 2.638692 1_555
Fe0_7 Mn2_5 2.653916 1_555
Fe0_7 Mn1_1 2.653916 1_555
Fe0_7 Mn2_7 2.653916 1_555
Fe0_7 Mn1_3 2.653916 1_555
Fe0_7 Mn1_2 2.653916 1_555
Fe0_7 Mn1_0 2.653916 1_555
Fe0_7 Mn2_6 2.653916 1_555
Fe0_7 Mn2_4 2.653916 1_555
