# generated using pymatgen
data_Rb3Ca
_symmetry_space_group_name_H-M   'P 1'
_cell_length_a   9.44943855
_cell_length_b   9.44943855
_cell_length_c   7.67229000
_cell_angle_alpha   90.00000000
_cell_angle_beta   90.00000000
_cell_angle_gamma   120.00000388
_symmetry_Int_Tables_number   1
_chemical_formula_structural   Rb3Ca
_chemical_formula_sum   'Rb6 Ca2'
_cell_volume   593.29082950
_cell_formula_units_Z   2
loop_
 _symmetry_equiv_pos_site_id
 _symmetry_equiv_pos_as_xyz
  1  'x, y, z'
loop_
 _atom_site_type_symbol
 _atom_site_label
 _atom_site_symmetry_multiplicity
 _atom_site_fract_x
 _atom_site_fract_y
 _atom_site_fract_z
 _atom_site_occupancy
  Rb  Rb0  1  0.17184700  0.34369400  0.25000000  1
  Rb  Rb1  1  0.65630600  0.82815300  0.25000000  1
  Rb  Rb2  1  0.17184700  0.82815300  0.25000000  1
  Rb  Rb3  1  0.82815300  0.65630600  0.75000000  1
  Rb  Rb4  1  0.34369400  0.17184700  0.75000000  1
  Rb  Rb5  1  0.82815300  0.17184700  0.75000000  1
  Ca  Ca0  1  0.33333300  0.66666700  0.75000000  1
  Ca  Ca1  1  0.66666700  0.33333300  0.25000000  1
loop_
_geom_bond_atom_site_label_1
_geom_bond_atom_site_label_2
_geom_bond_distance
_geom_bond_site_symmetry_2
Rb0 Rb1 4.577865 1_555
Rb0 Rb2 4.577866 1_555
Rb0 Rb5 4.756758 1_454
Rb0 Rb5 4.756758 1_455
Rb0 Rb4 4.756758 1_554
Rb0 Rb4 4.756758 1_555
Rb0 Rb1 4.871573 1_445
Rb0 Rb2 4.871573 1_545
Rb1 Rb2 4.577866 1_555
Rb1 Rb5 4.756758 1_565
Rb1 Rb5 4.756758 1_564
Rb1 Rb3 4.756758 1_554
Rb1 Rb3 4.756758 1_555
Rb1 Rb2 4.871573 1_655
Rb2 Rb3 4.756758 1_455
Rb2 Rb4 4.756758 1_565
Rb2 Rb4 4.756758 1_564
Rb2 Rb3 4.756758 1_454
Rb3 Rb4 4.577865 1_555
Rb3 Rb5 4.577866 1_555
Rb3 Rb4 4.871573 1_665
Rb3 Rb5 4.871573 1_565
Rb4 Rb5 4.577866 1_555
Rb4 Rb5 4.871573 1_455
Ca0 Rb2 4.658497 1_555
Ca0 Rb2 4.658497 1_556
Ca0 Rb0 4.658502 1_556
Ca0 Rb1 4.658502 1_556
Ca0 Rb0 4.658502 1_555
Ca0 Rb1 4.658502 1_555
Ca0 Rb4 4.725475 1_565
Ca0 Rb3 4.725475 1_455
Ca0 Rb5 4.725480 1_565
Ca0 Rb5 4.725480 1_455
Ca0 Rb3 4.725485 1_555
Ca0 Rb4 4.725485 1_555
Ca1 Rb5 4.658497 1_555
Ca1 Rb5 4.658497 1_554
Ca1 Rb4 4.658502 1_555
Ca1 Rb3 4.658502 1_555
Ca1 Rb4 4.658502 1_554
Ca1 Rb3 4.658502 1_554
Ca1 Rb0 4.725475 1_655
Ca1 Rb1 4.725475 1_545
Ca1 Rb2 4.725480 1_655
Ca1 Rb2 4.725480 1_545
Ca1 Rb1 4.725485 1_555
Ca1 Rb0 4.725485 1_555
