# generated using pymatgen
data_SiSn3
_symmetry_space_group_name_H-M   'P 1'
_cell_length_a   4.64962200
_cell_length_b   4.64962200
_cell_length_c   4.64962200
_cell_angle_alpha   90.00000000
_cell_angle_beta   90.00000000
_cell_angle_gamma   90.00000000
_symmetry_Int_Tables_number   1
_chemical_formula_structural   SiSn3
_chemical_formula_sum   'Si1 Sn3'
_cell_volume   100.52010708
_cell_formula_units_Z   1
loop_
 _symmetry_equiv_pos_site_id
 _symmetry_equiv_pos_as_xyz
  1  'x, y, z'
loop_
 _atom_site_type_symbol
 _atom_site_label
 _atom_site_symmetry_multiplicity
 _atom_site_fract_x
 _atom_site_fract_y
 _atom_site_fract_z
 _atom_site_occupancy
  Si  Si0  1  0.00000000  0.00000000  0.00000000  1
  Sn  Sn0  1  0.00000000  0.50000000  0.50000000  1
  Sn  Sn1  1  0.50000000  0.00000000  0.50000000  1
  Sn  Sn2  1  0.50000000  0.50000000  0.00000000  1
loop_
_geom_bond_atom_site_label_1
_geom_bond_atom_site_label_2
_geom_bond_distance
_geom_bond_site_symmetry_2
Si0 Sn0 3.287779 1_544
Si0 Sn0 3.287779 1_545
Si0 Sn0 3.287779 1_555
Si0 Sn2 3.287779 1_455
Si0 Sn1 3.287779 1_455
Si0 Sn1 3.287779 1_454
Si0 Sn1 3.287779 1_555
Si0 Sn0 3.287779 1_554
Si0 Sn1 3.287779 1_554
Si0 Sn2 3.287779 1_545
Si0 Sn2 3.287779 1_555
Si0 Sn2 3.287779 1_445
Sn0 Sn2 3.287779 1_556
Sn0 Sn2 3.287779 1_455
Sn0 Sn1 3.287779 1_565
Sn0 Sn1 3.287779 1_555
Sn0 Sn1 3.287779 1_455
Sn0 Sn1 3.287779 1_465
Sn0 Sn2 3.287779 1_555
Sn0 Sn2 3.287779 1_456
Sn1 Sn2 3.287779 1_556
Sn1 Sn2 3.287779 1_546
Sn1 Sn2 3.287779 1_545
Sn1 Sn2 3.287779 1_555
