# generated using pymatgen
data_Yb3(Bi7Te12)2
_symmetry_space_group_name_H-M   'P 1'
_cell_length_a   8.29500900
_cell_length_b   8.33818121
_cell_length_c   21.50188941
_cell_angle_alpha   97.86265761
_cell_angle_beta   97.12279512
_cell_angle_gamma   108.79345444
_symmetry_Int_Tables_number   1
_chemical_formula_structural   Yb3(Bi7Te12)2
_chemical_formula_sum   'Yb3 Bi14 Te24'
_cell_volume   1372.08073486
_cell_formula_units_Z   1
loop_
 _symmetry_equiv_pos_site_id
 _symmetry_equiv_pos_as_xyz
  1  'x, y, z'
loop_
 _atom_site_type_symbol
 _atom_site_label
 _atom_site_symmetry_multiplicity
 _atom_site_fract_x
 _atom_site_fract_y
 _atom_site_fract_z
 _atom_site_occupancy
  Yb  Yb0  1  0.12726500  0.74997000  0.04470000  1
  Yb  Yb1  1  0.76997700  0.13753500  0.20153400  1
  Yb  Yb2  1  0.84991300  0.60287000  0.92385500  1
  Bi  Bi0  1  0.09375100  0.78464200  0.38889200  1
  Bi  Bi1  1  0.39303000  0.28280700  0.11870300  1
  Bi  Bi2  1  0.13386200  0.76111500  0.71323200  1
  Bi  Bi3  1  0.42591200  0.25635000  0.43492500  1
  Bi  Bi4  1  0.25635100  0.39707400  0.28028600  1
  Bi  Bi5  1  0.92119200  0.66962400  0.25402900  1
  Bi  Bi6  1  0.64560800  0.90472400  0.08651000  1
  Bi  Bi7  1  0.74284500  0.09223900  0.88678200  1
  Bi  Bi8  1  0.39723700  0.24108500  0.77429600  1
  Bi  Bi9  1  0.25386800  0.34610700  0.63387900  1
  Bi  Bi10  1  0.95052600  0.66088000  0.57520300  1
  Bi  Bi11  1  0.55810700  0.81939300  0.43169600  1
  Bi  Bi12  1  0.24249400  0.37100500  0.94961700  1
  Bi  Bi13  1  0.59482900  0.82221400  0.75174600  1
  Te  Te0  1  0.62740500  0.50178600  0.16373500  1
  Te  Te1  1  0.14042700  0.50036200  0.16737000  1
  Te  Te2  1  0.60091000  0.47834500  0.50152000  1
  Te  Te3  1  0.84682900  0.36009900  0.05119000  1
  Te  Te4  1  0.96915200  0.99151700  0.29349400  1
  Te  Te5  1  0.13530600  0.50383200  0.49430600  1
  Te  Te6  1  0.50542200  0.63085700  0.32482400  1
  Te  Te7  1  0.99154500  0.98271200  0.12050500  1
  Te  Te8  1  0.62352300  0.48764100  0.83628400  1
  Te  Te9  1  0.36931000  0.87572300  0.21273300  1
  Te  Te10  1  0.99583100  0.99593900  0.63221000  1
  Te  Te11  1  0.11519500  0.48628800  0.84095600  1
  Te  Te12  1  0.50960900  0.64828800  0.66705700  1
  Te  Te13  1  0.98793600  0.99562000  0.45947900  1
  Te  Te14  1  0.87490400  0.38245000  0.37670700  1
  Te  Te15  1  0.49574200  0.12534900  0.32966900  1
  Te  Te16  1  0.36898100  0.88375400  0.54387000  1
  Te  Te17  1  0.97495200  0.97750300  0.96097900  1
  Te  Te18  1  0.46906200  0.62095000  0.99762300  1
  Te  Te19  1  0.00218000  0.98302300  0.79238400  1
  Te  Te20  1  0.89211200  0.39446500  0.70818000  1
  Te  Te21  1  0.51721100  0.15704300  0.66413500  1
  Te  Te22  1  0.37777100  0.87599900  0.87360900  1
  Te  Te23  1  0.50192000  0.13582200  0.99563300  1
loop_
_geom_bond_atom_site_label_1
_geom_bond_atom_site_label_2
_geom_bond_distance
_geom_bond_site_symmetry_2
Bi0 Te13 2.600661 1_455
Bi0 Bi5 2.950047 1_455
Bi0 Te14 3.213965 1_455
Bi0 Te5 3.537929 1_555
Bi1 Te0 2.193942 1_555
Bi1 Te23 3.120764 1_554
Bi1 Te1 3.354037 1_555
Bi2 Te19 2.900855 1_555
Bi2 Te20 3.047062 1_455
Bi2 Te10 3.172192 1_455
Bi3 Te2 2.147551 1_555
Bi3 Te15 2.589816 1_555
Bi4 Te6 2.321462 1_555
Bi4 Te1 2.843910 1_555
Bi5 Te4 2.585995 1_555
Bi5 Te0 2.748194 1_555
Bi5 Te1 3.247393 1_655
Bi6 Te18 2.689261 1_554
Bi6 Te7 2.709053 1_555
Bi6 Yb1 2.777202 1_565
Bi6 Te23 3.299139 1_564
Bi7 Te17 2.830196 1_545
Bi7 Te22 2.937901 1_545
Bi7 Te23 3.316491 1_555
Bi7 Te19 3.378765 1_645
Bi7 Yb2 4.001489 1_555
Bi8 Te8 2.381129 1_555
Bi8 Te21 2.769808 1_555
Bi8 Te19 3.394386 1_545
Bi9 Te12 2.654566 1_555
Bi9 Te10 3.005550 1_445
Bi9 Te21 3.134826 1_555
Bi9 Te5 3.589509 1_555
Bi10 Te10 2.778720 1_555
Bi10 Te5 2.901888 1_655
Bi10 Te2 2.931526 1_555
Bi10 Bi2 3.033596 1_655
Bi11 Te6 2.502563 1_555
Bi11 Te16 3.113412 1_555
Bi11 Te13 3.329320 1_555
Bi11 Te2 3.486159 1_555
Bi12 Te18 2.312501 1_555
Bi12 Te11 2.855610 1_555
Bi12 Te17 3.378238 1_445
Bi12 Te23 3.489577 1_555
Bi12 Yb0 3.967542 1_556
Bi13 Te12 2.053419 1_555
Bi13 Te19 3.163375 1_655
Bi13 Bi7 3.248610 1_565
Bi13 Te22 3.417243 1_555
Te0 Yb1 3.746336 1_555
Te1 Te9 3.037873 1_555
Te1 Te3 3.065313 1_455
Te1 Yb0 3.588553 1_555
Te1 Yb1 3.783224 1_455
Te3 Yb0 3.366126 1_655
Te3 Yb2 3.618705 1_554
Te4 Yb1 3.044068 1_565
Te7 Yb0 2.947470 1_655
Te7 Yb1 3.128487 1_565
Te8 Yb2 2.336822 1_555
Te9 Yb1 3.396624 1_565
Te9 Yb0 3.740672 1_555
Te11 Te20 3.056153 1_455
Te11 Te22 3.198815 1_555
Te11 Yb2 3.292623 1_455
Te14 Te5 2.936094 1_655
Te14 Te15 3.127982 1_555
Te14 Yb1 3.879706 1_555
Te15 Te9 2.874349 1_545
Te15 Yb1 3.775937 1_555
Te16 Te21 3.030754 1_565
Te16 Te5 3.088031 1_555
Te17 Yb2 2.914745 1_555
Te17 Yb0 3.217308 1_656
Te18 Yb0 3.549561 1_556
Te18 Yb2 3.742060 1_555
Te20 Te21 3.045802 1_555
Te22 Te23 2.995884 1_565
Te23 Te3 2.864187 1_556
