# generated using pymatgen
data_Sm3Np
_symmetry_space_group_name_H-M   'P 1'
_cell_length_a   7.19418751
_cell_length_b   7.19418751
_cell_length_c   5.73075100
_cell_angle_alpha   90.00000000
_cell_angle_beta   90.00000000
_cell_angle_gamma   119.99999548
_symmetry_Int_Tables_number   1
_chemical_formula_structural   Sm3Np
_chemical_formula_sum   'Sm6 Np2'
_cell_volume   256.86545208
_cell_formula_units_Z   2
loop_
 _symmetry_equiv_pos_site_id
 _symmetry_equiv_pos_as_xyz
  1  'x, y, z'
loop_
 _atom_site_type_symbol
 _atom_site_label
 _atom_site_symmetry_multiplicity
 _atom_site_fract_x
 _atom_site_fract_y
 _atom_site_fract_z
 _atom_site_occupancy
  Sm  Sm0  1  0.16931400  0.33862800  0.25000000  1
  Sm  Sm1  1  0.66137200  0.83068600  0.25000000  1
  Sm  Sm2  1  0.16931400  0.83068600  0.25000000  1
  Sm  Sm3  1  0.83068600  0.66137200  0.75000000  1
  Sm  Sm4  1  0.33862800  0.16931400  0.75000000  1
  Sm  Sm5  1  0.83068600  0.16931400  0.75000000  1
  Np  Np0  1  0.33333300  0.66666700  0.75000000  1
  Np  Np1  1  0.66666700  0.33333300  0.25000000  1
loop_
_geom_bond_atom_site_label_1
_geom_bond_atom_site_label_2
_geom_bond_distance
_geom_bond_site_symmetry_2
Sm0 Sm2 3.539958 1_555
Sm0 Sm1 3.539958 1_555
Sm0 Sm4 3.558301 1_554
Sm0 Sm4 3.558301 1_555
Sm0 Sm5 3.558301 1_455
Sm0 Sm5 3.558301 1_454
Sm0 Sm2 3.654230 1_545
Sm0 Sm1 3.654230 1_445
Sm1 Sm2 3.539958 1_555
Sm1 Sm3 3.558301 1_554
Sm1 Sm3 3.558301 1_555
Sm1 Sm5 3.558301 1_565
Sm1 Sm5 3.558301 1_564
Sm1 Sm2 3.654230 1_655
Sm2 Sm4 3.558301 1_565
Sm2 Sm4 3.558301 1_564
Sm2 Sm3 3.558301 1_455
Sm2 Sm3 3.558301 1_454
Sm3 Sm5 3.539958 1_555
Sm3 Sm4 3.539958 1_555
Sm3 Sm5 3.654230 1_565
Sm3 Sm4 3.654230 1_665
Sm4 Sm5 3.539958 1_555
Sm4 Sm5 3.654230 1_455
Np0 Sm2 3.519582 1_555
Np0 Sm2 3.519582 1_556
Np0 Sm1 3.519586 1_556
Np0 Sm1 3.519586 1_555
Np0 Sm0 3.519586 1_556
Np0 Sm0 3.519586 1_555
Np0 Sm3 3.597241 1_455
Np0 Sm4 3.597241 1_565
Np0 Sm5 3.597245 1_565
Np0 Sm5 3.597245 1_455
Np0 Sm4 3.597249 1_555
Np0 Sm3 3.597249 1_555
Np1 Sm5 3.519582 1_555
Np1 Sm5 3.519582 1_554
Np1 Sm3 3.519586 1_555
Np1 Sm4 3.519586 1_555
Np1 Sm4 3.519586 1_554
Np1 Sm3 3.519586 1_554
Np1 Sm1 3.597241 1_545
Np1 Sm0 3.597241 1_655
Np1 Sm2 3.597245 1_655
Np1 Sm2 3.597245 1_545
Np1 Sm0 3.597249 1_555
Np1 Sm1 3.597249 1_555
