# generated using pymatgen
data_SrZrN2
_symmetry_space_group_name_H-M   'P 1'
_cell_length_a   6.23458327
_cell_length_b   6.23458358
_cell_length_c   6.23458433
_cell_angle_alpha   31.42354549
_cell_angle_beta   31.42354130
_cell_angle_gamma   31.42354162
_symmetry_Int_Tables_number   1
_chemical_formula_structural   SrZrN2
_chemical_formula_sum   'Sr1 Zr1 N2'
_cell_volume   58.47388177
_cell_formula_units_Z   1
loop_
 _symmetry_equiv_pos_site_id
 _symmetry_equiv_pos_as_xyz
  1  'x, y, z'
loop_
 _atom_site_type_symbol
 _atom_site_label
 _atom_site_symmetry_multiplicity
 _atom_site_fract_x
 _atom_site_fract_y
 _atom_site_fract_z
 _atom_site_occupancy
  Sr  Sr0  1  -0.00000000  -0.00000000  0.00000000  1
  Zr  Zr0  1  0.50000000  0.50000000  0.50000000  1
  N  N0  1  0.76659036  0.76659036  0.76659036  1
  N  N1  1  0.23340964  0.23340964  0.23340964  1
loop_
_geom_bond_atom_site_label_1
_geom_bond_atom_site_label_2
_geom_bond_distance
_geom_bond_site_symmetry_2
N0 Zr0 2.281782 1_655
N0 Zr0 2.281783 1_565
N0 Zr0 2.281783 1_556
N0 Sr0 2.636660 1_566
N0 Sr0 2.636661 1_656
N0 Sr0 2.636661 1_665
N1 Zr0 2.281782 1_455
N1 Zr0 2.281783 1_545
N1 Zr0 2.281783 1_554
N1 Sr0 2.636660 1_655
N1 Sr0 2.636661 1_565
N1 Sr0 2.636661 1_556
