# generated using pymatgen
data_Yb3W
_symmetry_space_group_name_H-M   'P 1'
_cell_length_a   6.55348519
_cell_length_b   6.55348519
_cell_length_c   5.12065562
_cell_angle_alpha   90.00000000
_cell_angle_beta   90.00000000
_cell_angle_gamma   120.00000281
_symmetry_Int_Tables_number   1
_chemical_formula_structural   Yb3W
_chemical_formula_sum   'Yb6 W2'
_cell_volume   190.45870770
_cell_formula_units_Z   2
loop_
 _symmetry_equiv_pos_site_id
 _symmetry_equiv_pos_as_xyz
  1  'x, y, z'
loop_
 _atom_site_type_symbol
 _atom_site_label
 _atom_site_symmetry_multiplicity
 _atom_site_fract_x
 _atom_site_fract_y
 _atom_site_fract_z
 _atom_site_occupancy
  Yb  Yb0  1  0.17184658  0.34369317  0.25000000  1
  Yb  Yb1  1  0.65630683  0.82815342  0.25000000  1
  Yb  Yb2  1  0.17184658  0.82815342  0.25000000  1
  Yb  Yb3  1  0.82815342  0.65630683  0.75000000  1
  Yb  Yb4  1  0.34369317  0.17184658  0.75000000  1
  Yb  Yb5  1  0.82815342  0.17184658  0.75000000  1
  W  W0  1  0.33333300  0.66666700  0.75000000  1
  W  W1  1  0.66666700  0.33333300  0.25000000  1
loop_
_geom_bond_atom_site_label_1
_geom_bond_atom_site_label_2
_geom_bond_distance
_geom_bond_site_symmetry_2
Yb0 Yb1 3.174903 1_555
Yb0 Yb2 3.174903 1_555
Yb0 Yb5 3.218729 1_454
Yb0 Yb5 3.218729 1_455
Yb0 Yb4 3.218729 1_554
Yb0 Yb4 3.218729 1_555
Yb0 Yb1 3.378582 1_445
Yb0 Yb2 3.378582 1_545
Yb1 Yb2 3.174903 1_555
Yb1 Yb5 3.218729 1_565
Yb1 Yb5 3.218729 1_564
Yb1 Yb3 3.218729 1_554
Yb1 Yb3 3.218729 1_555
Yb1 Yb2 3.378582 1_655
Yb2 Yb4 3.218729 1_564
Yb2 Yb4 3.218729 1_565
Yb2 Yb3 3.218729 1_455
Yb2 Yb3 3.218729 1_454
Yb3 Yb4 3.174903 1_555
Yb3 Yb5 3.174903 1_555
Yb3 Yb4 3.378582 1_665
Yb3 Yb5 3.378582 1_565
Yb4 Yb5 3.174903 1_555
Yb4 Yb5 3.378582 1_455
W0 Yb2 3.148852 1_556
W0 Yb2 3.148852 1_555
W0 Yb0 3.148855 1_556
W0 Yb1 3.148855 1_556
W0 Yb1 3.148855 1_555
W0 Yb0 3.148855 1_555
W0 Yb4 3.277267 1_565
W0 Yb3 3.277267 1_455
W0 Yb5 3.277270 1_455
W0 Yb5 3.277270 1_565
W0 Yb3 3.277273 1_555
W0 Yb4 3.277273 1_555
W1 Yb5 3.148852 1_554
W1 Yb5 3.148852 1_555
W1 Yb4 3.148855 1_554
W1 Yb4 3.148855 1_555
W1 Yb3 3.148855 1_554
W1 Yb3 3.148855 1_555
W1 Yb0 3.277267 1_655
W1 Yb1 3.277267 1_545
W1 Yb2 3.277270 1_545
W1 Yb2 3.277270 1_655
W1 Yb1 3.277273 1_555
W1 Yb0 3.277273 1_555
