# generated using pymatgen
data_Cs2ZrSe3
_symmetry_space_group_name_H-M   'P 1'
_cell_length_a   7.18261606
_cell_length_b   8.17587412
_cell_length_c   8.17587480
_cell_angle_alpha   108.21690197
_cell_angle_beta   90.00000000
_cell_angle_gamma   90.00000000
_symmetry_Int_Tables_number   1
_chemical_formula_structural   Cs2ZrSe3
_chemical_formula_sum   'Cs4 Zr2 Se6'
_cell_volume   456.05767209
_cell_formula_units_Z   2
loop_
 _symmetry_equiv_pos_site_id
 _symmetry_equiv_pos_as_xyz
  1  'x, y, z'
loop_
 _atom_site_type_symbol
 _atom_site_label
 _atom_site_symmetry_multiplicity
 _atom_site_fract_x
 _atom_site_fract_y
 _atom_site_fract_z
 _atom_site_occupancy
  Cs  Cs0  1  0.25000000  0.81805776  0.50757120  1
  Cs  Cs1  1  0.75000000  0.18194224  0.49242880  1
  Cs  Cs2  1  0.75000000  0.49242880  0.18194224  1
  Cs  Cs3  1  0.25000000  0.50757120  0.81805776  1
  Zr  Zr0  1  0.25000000  0.08224193  0.08224193  1
  Zr  Zr1  1  0.75000000  0.91775807  0.91775807  1
  Se  Se0  1  0.75000000  0.65840490  0.65840490  1
  Se  Se1  1  0.25000000  0.34159510  0.34159510  1
  Se  Se2  1  0.50000000  0.13596489  0.86403511  1
  Se  Se3  1  0.00000000  0.13596489  0.86403511  1
  Se  Se4  1  0.50000000  0.86403511  0.13596489  1
  Se  Se5  1  -0.00000000  0.86403511  0.13596489  1
loop_
_geom_bond_atom_site_label_1
_geom_bond_atom_site_label_2
_geom_bond_distance
_geom_bond_site_symmetry_2
Cs0 Se4 3.648347 1_555
Cs0 Se5 3.648347 1_555
Cs0 Se1 3.702873 1_555
Cs0 Se2 3.706436 1_565
Cs0 Se3 3.706436 1_565
Cs0 Se0 4.138661 1_555
Cs0 Se0 4.138661 1_455
Cs1 Se3 3.648347 1_655
Cs1 Se2 3.648347 1_555
Cs1 Se0 3.702873 1_555
Cs1 Se5 3.706436 1_645
Cs1 Se4 3.706436 1_545
Cs1 Se1 4.138661 1_555
Cs1 Se1 4.138661 1_655
Cs2 Se4 3.648347 1_555
Cs2 Se5 3.648347 1_655
Cs2 Se0 3.702874 1_555
Cs2 Se3 3.706436 1_654
Cs2 Se2 3.706436 1_554
Cs2 Se1 4.138661 1_555
Cs2 Se1 4.138661 1_655
Cs3 Se3 3.648347 1_555
Cs3 Se2 3.648347 1_555
Cs3 Se1 3.702874 1_555
Cs3 Se5 3.706436 1_556
Cs3 Se4 3.706436 1_556
Cs3 Se0 4.138661 1_455
Cs3 Se0 4.138661 1_555
Se0 Zr1 2.486227 1_555
Se1 Zr0 2.486227 1_555
Se2 Zr1 2.662705 1_545
Se2 Zr0 2.662705 1_556
Se3 Zr1 2.662705 1_445
Se3 Zr0 2.662705 1_556
Se4 Zr0 2.662705 1_565
Se4 Zr1 2.662705 1_554
Se5 Zr0 2.662705 1_565
Se5 Zr1 2.662705 1_454
