# generated using pymatgen
data_InSb3
_symmetry_space_group_name_H-M   'P 1'
_cell_length_a   5.36631114
_cell_length_b   5.36631114
_cell_length_c   5.36631114
_cell_angle_alpha   60.00000000
_cell_angle_beta   60.00000000
_cell_angle_gamma   60.00000000
_symmetry_Int_Tables_number   1
_chemical_formula_structural   InSb3
_chemical_formula_sum   'In1 Sb3'
_cell_volume   109.27292085
_cell_formula_units_Z   1
loop_
 _symmetry_equiv_pos_site_id
 _symmetry_equiv_pos_as_xyz
  1  'x, y, z'
loop_
 _atom_site_type_symbol
 _atom_site_label
 _atom_site_symmetry_multiplicity
 _atom_site_fract_x
 _atom_site_fract_y
 _atom_site_fract_z
 _atom_site_occupancy
  In  In0  1  0.00000000  0.00000000  0.00000000  1
  Sb  Sb0  1  0.25000000  0.25000000  0.25000000  1
  Sb  Sb1  1  0.75000000  0.75000000  0.75000000  1
  Sb  Sb2  1  0.50000000  0.50000000  0.50000000  1
loop_
_geom_bond_atom_site_label_1
_geom_bond_atom_site_label_2
_geom_bond_distance
_geom_bond_site_symmetry_2
In0 Sb1 3.286181 1_444
In0 Sb0 3.286181 1_554
In0 Sb1 3.286181 1_445
In0 Sb1 3.286181 1_454
In0 Sb0 3.286181 1_545
In0 Sb0 3.286181 1_555
In0 Sb0 3.286181 1_455
In0 Sb1 3.286181 1_544
Sb0 Sb2 3.286181 1_555
Sb0 Sb2 3.286181 1_554
Sb0 Sb2 3.286181 1_545
Sb0 Sb2 3.286181 1_455
Sb1 Sb2 3.286181 1_556
Sb1 Sb2 3.286181 1_555
Sb1 Sb2 3.286181 1_565
Sb1 Sb2 3.286181 1_655
