# generated using pymatgen
data_CdCuF4
_symmetry_space_group_name_H-M   'P 1'
_cell_length_a   5.34074084
_cell_length_b   5.34074035
_cell_length_c   6.38057248
_cell_angle_alpha   114.74092439
_cell_angle_beta   114.74092710
_cell_angle_gamma   89.99999355
_symmetry_Int_Tables_number   1
_chemical_formula_structural   CdCuF4
_chemical_formula_sum   'Cd2 Cu2 F8'
_cell_volume   146.69501090
_cell_formula_units_Z   2
loop_
 _symmetry_equiv_pos_site_id
 _symmetry_equiv_pos_as_xyz
  1  'x, y, z'
loop_
 _atom_site_type_symbol
 _atom_site_label
 _atom_site_symmetry_multiplicity
 _atom_site_fract_x
 _atom_site_fract_y
 _atom_site_fract_z
 _atom_site_occupancy
  Cd  Cd0  1  0.75000000  0.75000000  0.50000000  1
  Cd  Cd1  1  0.25000000  0.25000000  0.50000000  1
  Cu  Cu0  1  0.50000000  0.00000000  0.00000000  1
  Cu  Cu1  1  0.00000000  0.50000000  0.00000000  1
  F  F0  1  0.94622928  0.44622928  0.25524554  1
  F  F1  1  0.69098274  0.19098274  0.74475446  1
  F  F2  1  0.05377072  0.55377072  0.74475446  1
  F  F3  1  0.19098274  0.05377072  0.74475446  1
  F  F4  1  0.30901726  0.80901726  0.25524554  1
  F  F5  1  0.44622928  0.30901726  0.25524554  1
  F  F6  1  0.80901726  0.94622928  0.25524554  1
  F  F7  1  0.55377072  0.69098274  0.74475446  1
loop_
_geom_bond_atom_site_label_1
_geom_bond_atom_site_label_2
_geom_bond_distance
_geom_bond_site_symmetry_2
Cd0 F5 2.327748 1_555
Cd0 F3 2.327748 1_665
Cd0 F1 2.327750 1_565
Cd0 F4 2.327750 1_555
Cd0 F2 2.327752 1_655
Cd0 F0 2.327752 1_555
Cd0 F6 2.327754 1_555
Cd0 F7 2.327754 1_555
Cd1 F7 2.327748 1_555
Cd1 F6 2.327748 1_445
Cd1 F4 2.327750 1_545
Cd1 F1 2.327750 1_555
Cd1 F0 2.327752 1_455
Cd1 F2 2.327752 1_555
Cd1 F3 2.327754 1_555
Cd1 F5 2.327754 1_555
Cu0 F3 1.897441 1_554
Cu0 F6 1.897441 1_545
Cu0 F5 1.897441 1_555
Cu0 F7 1.897441 1_544
Cu1 F0 1.897439 1_455
Cu1 F2 1.897439 1_554
Cu1 F1 1.897444 1_454
Cu1 F4 1.897444 1_555
