# generated using pymatgen
data_La(PRu)2
_symmetry_space_group_name_H-M   'P 1'
_cell_length_a   4.02543005
_cell_length_b   4.02542954
_cell_length_c   6.17126523
_cell_angle_alpha   109.03485180
_cell_angle_beta   109.03485223
_cell_angle_gamma   89.99998306
_symmetry_Int_Tables_number   1
_chemical_formula_structural   La(PRu)2
_chemical_formula_sum   'La1 P2 Ru2'
_cell_volume   88.72748287
_cell_formula_units_Z   1
loop_
 _symmetry_equiv_pos_site_id
 _symmetry_equiv_pos_as_xyz
  1  'x, y, z'
loop_
 _atom_site_type_symbol
 _atom_site_label
 _atom_site_symmetry_multiplicity
 _atom_site_fract_x
 _atom_site_fract_y
 _atom_site_fract_z
 _atom_site_occupancy
  La  La0  1  0.00000000  0.00000000  0.00000000  1
  P  P0  1  0.64509025  0.64509025  0.29017951  1
  P  P1  1  0.35490975  0.35490975  0.70982049  1
  Ru  Ru0  1  0.25000000  0.75000000  0.50000000  1
  Ru  Ru1  1  0.75000000  0.25000000  0.50000000  1
loop_
_geom_bond_atom_site_label_1
_geom_bond_atom_site_label_2
_geom_bond_distance
_geom_bond_site_symmetry_2
La0 P1 3.259859 1_554
La0 P0 3.259859 1_445
La0 P0 3.259860 1_455
La0 P1 3.259860 1_544
La0 P1 3.259860 1_454
La0 P0 3.259860 1_545
La0 P1 3.259863 1_444
La0 P0 3.259863 1_555
La0 Ru0 3.398034 1_555
La0 Ru1 3.398034 1_444
La0 Ru0 3.398034 1_444
La0 Ru1 3.398034 1_555
La0 Ru0 3.398034 1_545
La0 Ru1 3.398034 1_454
La0 Ru1 3.398035 1_455
La0 Ru0 3.398035 1_544
P0 Ru1 2.317537 1_565
P0 Ru0 2.317538 1_655
P0 Ru1 2.317541 1_555
P0 Ru0 2.317541 1_555
P1 Ru0 2.317537 1_545
P1 Ru1 2.317538 1_455
P1 Ru0 2.317541 1_555
P1 Ru1 2.317541 1_555
