# generated using pymatgen
data_CsPrS2
_symmetry_space_group_name_H-M   'P 1'
_cell_length_a   4.26357056
_cell_length_b   4.26356921
_cell_length_c   16.22379004
_cell_angle_alpha   90.00000000
_cell_angle_beta   90.00000000
_cell_angle_gamma   120.00000244
_symmetry_Int_Tables_number   1
_chemical_formula_structural   CsPrS2
_chemical_formula_sum   'Cs2 Pr2 S4'
_cell_volume   255.40518529
_cell_formula_units_Z   2
loop_
 _symmetry_equiv_pos_site_id
 _symmetry_equiv_pos_as_xyz
  1  'x, y, z'
loop_
 _atom_site_type_symbol
 _atom_site_label
 _atom_site_symmetry_multiplicity
 _atom_site_fract_x
 _atom_site_fract_y
 _atom_site_fract_z
 _atom_site_occupancy
  Cs  Cs0  1  0.66666700  0.33333300  0.75000000  1
  Cs  Cs1  1  0.33333300  0.66666700  0.25000000  1
  Pr  Pr0  1  0.00000000  -0.00000000  -0.00000000  1
  Pr  Pr1  1  0.00000000  0.00000000  0.50000000  1
  S  S0  1  0.33333300  0.66666700  0.90569892  1
  S  S1  1  0.66666700  0.33333300  0.40569892  1
  S  S2  1  0.33333300  0.66666700  0.59430108  1
  S  S3  1  0.66666700  0.33333300  0.09430108  1
loop_
_geom_bond_atom_site_label_1
_geom_bond_atom_site_label_2
_geom_bond_distance
_geom_bond_site_symmetry_2
Cs0 S2 3.527058 1_545
Cs0 S0 3.527058 1_545
Cs0 S2 3.527059 1_655
Cs0 S0 3.527059 1_655
Cs0 S2 3.527064 1_555
Cs0 S0 3.527064 1_555
Cs1 S1 3.527058 1_565
Cs1 S3 3.527058 1_565
Cs1 S3 3.527059 1_455
Cs1 S1 3.527059 1_455
Cs1 S3 3.527064 1_555
Cs1 S1 3.527064 1_555
Pr0 S0 2.898273 1_544
Pr0 S3 2.898273 1_455
Pr0 S0 2.898276 1_554
Pr0 S3 2.898276 1_445
Pr0 S0 2.898277 1_444
Pr0 S3 2.898277 1_555
Pr1 S2 2.898273 1_545
Pr1 S1 2.898273 1_455
Pr1 S2 2.898276 1_555
Pr1 S1 2.898276 1_445
Pr1 S1 2.898277 1_555
Pr1 S2 2.898277 1_445
