# generated using pymatgen
data_CuBiO2
_symmetry_space_group_name_H-M   'P 1'
_cell_length_a   6.74372822
_cell_length_b   6.74372822
_cell_length_c   6.74372822
_cell_angle_alpha   145.77921736
_cell_angle_beta   126.81929937
_cell_angle_gamma   64.77526205
_symmetry_Int_Tables_number   1
_chemical_formula_structural   CuBiO2
_chemical_formula_sum   'Cu2 Bi2 O4'
_cell_volume   136.42437204
_cell_formula_units_Z   2
loop_
 _symmetry_equiv_pos_site_id
 _symmetry_equiv_pos_as_xyz
  1  'x, y, z'
loop_
 _atom_site_type_symbol
 _atom_site_label
 _atom_site_symmetry_multiplicity
 _atom_site_fract_x
 _atom_site_fract_y
 _atom_site_fract_z
 _atom_site_occupancy
  Cu  Cu0  1  0.27625400  0.00000000  0.27625400  1
  Cu  Cu1  1  0.72374600  0.00000000  0.72374600  1
  Bi  Bi0  1  0.19633200  0.69633200  0.50000000  1
  Bi  Bi1  1  0.80366800  0.30366800  0.50000000  1
  O  O0  1  0.08587900  0.83990500  0.24597400  1
  O  O1  1  0.59393200  0.83990500  0.75402600  1
  O  O2  1  0.40606800  0.16009500  0.24597400  1
  O  O3  1  0.91412100  0.16009500  0.75402600  1
loop_
_geom_bond_atom_site_label_1
_geom_bond_atom_site_label_2
_geom_bond_distance
_geom_bond_site_symmetry_2
Cu0 O2 1.832521 1_555
Cu0 O0 1.832526 1_545
Cu1 O1 1.832521 1_545
Cu1 O3 1.832526 1_555
Bi0 O0 2.241825 1_555
Bi0 O1 2.241831 1_555
Bi0 O2 2.512389 1_555
Bi0 O3 2.512392 1_465
Bi0 O3 2.512392 1_454
Bi0 O2 2.512392 1_566
Bi1 O3 2.241825 1_555
Bi1 O2 2.241831 1_555
Bi1 O1 2.512389 1_555
Bi1 O0 2.512392 1_656
Bi1 O0 2.512392 1_645
Bi1 O1 2.512392 1_544
