# generated using pymatgen
data_Rb3Hf
_symmetry_space_group_name_H-M   'P 1'
_cell_length_a   7.51681487
_cell_length_b   7.51681487
_cell_length_c   7.51681487
_cell_angle_alpha   131.23656590
_cell_angle_beta   131.23656590
_cell_angle_gamma   71.43749400
_symmetry_Int_Tables_number   1
_chemical_formula_structural   Rb3Hf
_chemical_formula_sum   'Rb3 Hf1'
_cell_volume   235.05448910
_cell_formula_units_Z   1
loop_
 _symmetry_equiv_pos_site_id
 _symmetry_equiv_pos_as_xyz
  1  'x, y, z'
loop_
 _atom_site_type_symbol
 _atom_site_label
 _atom_site_symmetry_multiplicity
 _atom_site_fract_x
 _atom_site_fract_y
 _atom_site_fract_z
 _atom_site_occupancy
  Rb  Rb0  1  0.75000000  0.25000000  0.50000000  1
  Rb  Rb1  1  0.25000000  0.75000000  0.50000000  1
  Rb  Rb2  1  0.50000000  0.50000000  0.00000000  1
  Hf  Hf0  1  0.00000000  0.00000000  0.00000000  1
loop_
_geom_bond_atom_site_label_1
_geom_bond_atom_site_label_2
_geom_bond_distance
_geom_bond_site_symmetry_2
Rb0 Rb2 4.352019 1_555
Rb0 Rb2 4.352019 1_556
Rb0 Rb2 4.352019 1_545
Rb0 Rb2 4.352019 1_656
Rb0 Rb1 4.388368 1_555
Rb0 Rb1 4.388368 1_544
Rb0 Rb1 4.388368 1_645
Rb0 Rb1 4.388368 1_656
Rb1 Rb2 4.352019 1_566
Rb1 Rb2 4.352019 1_455
Rb1 Rb2 4.352019 1_556
Rb1 Rb2 4.352019 1_555
Hf0 Rb0 4.352019 1_444
Hf0 Rb1 4.352019 1_544
Hf0 Rb1 4.352019 1_545
Hf0 Rb1 4.352019 1_444
Hf0 Rb0 4.352019 1_455
Hf0 Rb0 4.352019 1_555
Hf0 Rb1 4.352019 1_555
Hf0 Rb0 4.352019 1_454
Hf0 Rb2 4.388368 1_444
Hf0 Rb2 4.388368 1_545
Hf0 Rb2 4.388368 1_455
Hf0 Rb2 4.388368 1_556
