# generated using pymatgen
data_Pm3Y
_symmetry_space_group_name_H-M   'P 1'
_cell_length_a   5.15214123
_cell_length_b   5.15206473
_cell_length_c   5.15229417
_cell_angle_alpha   90.00000000
_cell_angle_beta   89.99988012
_cell_angle_gamma   89.99976023
_symmetry_Int_Tables_number   1
_chemical_formula_structural   Pm3Y
_chemical_formula_sum   'Pm3 Y1'
_cell_volume   136.76334717
_cell_formula_units_Z   1
loop_
 _symmetry_equiv_pos_site_id
 _symmetry_equiv_pos_as_xyz
  1  'x, y, z'
loop_
 _atom_site_type_symbol
 _atom_site_label
 _atom_site_symmetry_multiplicity
 _atom_site_fract_x
 _atom_site_fract_y
 _atom_site_fract_z
 _atom_site_occupancy
  Pm  Pm0  1  0.00000000  0.50000000  0.49999900  1
  Pm  Pm1  1  0.49999900  -0.00000000  0.49999900  1
  Pm  Pm2  1  0.49999900  0.49999800  0.00000000  1
  Y  Y0  1  -0.00000000  0.00000000  0.00000000  1
loop_
_geom_bond_atom_site_label_1
_geom_bond_atom_site_label_2
_geom_bond_distance
_geom_bond_site_symmetry_2
Pm0 Pm1 3.643076 1_555
Pm0 Pm1 3.643083 1_465
Pm0 Pm1 3.643091 1_565
Pm0 Pm1 3.643098 1_455
Pm0 Y0 3.643137 1_565
Pm0 Y0 3.643137 1_555
Pm0 Y0 3.643145 1_556
Pm0 Y0 3.643145 1_566
Pm0 Pm2 3.643157 1_555
Pm0 Pm2 3.643172 1_456
Pm0 Pm2 3.643172 1_455
Pm0 Pm2 3.643172 1_556
Pm1 Pm2 3.643130 1_555
Pm1 Pm2 3.643137 1_556
Pm1 Pm2 3.643145 1_545
Pm1 Pm2 3.643152 1_546
Pm1 Y0 3.643164 1_655
Pm1 Y0 3.643164 1_556
Pm1 Y0 3.643165 1_555
Pm1 Y0 3.643179 1_656
Pm2 Y0 3.643076 1_655
Pm2 Y0 3.643083 1_565
Pm2 Y0 3.643084 1_555
Pm2 Y0 3.643106 1_665
