# generated using pymatgen
data_Rh3Se
_symmetry_space_group_name_H-M   'P 1'
_cell_length_a   5.60028468
_cell_length_b   5.60028468
_cell_length_c   4.44881200
_cell_angle_alpha   90.00000000
_cell_angle_beta   90.00000000
_cell_angle_gamma   120.00000806
_symmetry_Int_Tables_number   1
_chemical_formula_structural   Rh3Se
_chemical_formula_sum   'Rh6 Se2'
_cell_volume   120.83558765
_cell_formula_units_Z   2
loop_
 _symmetry_equiv_pos_site_id
 _symmetry_equiv_pos_as_xyz
  1  'x, y, z'
loop_
 _atom_site_type_symbol
 _atom_site_label
 _atom_site_symmetry_multiplicity
 _atom_site_fract_x
 _atom_site_fract_y
 _atom_site_fract_z
 _atom_site_occupancy
  Rh  Rh0  1  0.16464400  0.32928800  0.25000000  1
  Rh  Rh1  1  0.67071200  0.83535600  0.25000000  1
  Rh  Rh2  1  0.16464400  0.83535600  0.25000000  1
  Rh  Rh3  1  0.83535600  0.67071200  0.75000000  1
  Rh  Rh4  1  0.32928800  0.16464400  0.75000000  1
  Rh  Rh5  1  0.83535600  0.16464400  0.75000000  1
  Se  Se0  1  0.33333300  0.66666700  0.75000000  1
  Se  Se1  1  0.66666700  0.33333300  0.25000000  1
loop_
_geom_bond_atom_site_label_1
_geom_bond_atom_site_label_2
_geom_bond_distance
_geom_bond_site_symmetry_2
Rh0 Rh5 2.738344 1_454
Rh0 Rh5 2.738344 1_455
Rh0 Rh4 2.738344 1_554
Rh0 Rh4 2.738344 1_555
Rh0 Se0 2.761414 1_555
Rh0 Se0 2.761414 1_554
Rh0 Rh1 2.766159 1_445
Rh0 Rh2 2.766160 1_545
Rh0 Se1 2.800208 1_455
Rh0 Se1 2.800214 1_555
Rh0 Rh1 2.834125 1_555
Rh0 Rh2 2.834125 1_555
Rh1 Rh5 2.738344 1_564
Rh1 Rh5 2.738344 1_565
Rh1 Rh3 2.738344 1_554
Rh1 Rh3 2.738344 1_555
Rh1 Se0 2.761414 1_554
Rh1 Se0 2.761414 1_555
Rh1 Rh2 2.766160 1_655
Rh1 Se1 2.800208 1_565
Rh1 Se1 2.800214 1_555
Rh1 Rh2 2.834125 1_555
Rh2 Rh4 2.738344 1_564
Rh2 Rh3 2.738344 1_455
Rh2 Rh3 2.738344 1_454
Rh2 Rh4 2.738344 1_565
Rh2 Se0 2.761411 1_555
Rh2 Se0 2.761411 1_554
Rh2 Se1 2.800211 1_455
Rh2 Se1 2.800211 1_565
Rh3 Se1 2.761414 1_555
Rh3 Se1 2.761414 1_556
Rh3 Rh4 2.766159 1_665
Rh3 Rh5 2.766160 1_565
Rh3 Se0 2.800208 1_655
Rh3 Se0 2.800214 1_555
Rh3 Rh4 2.834125 1_555
Rh3 Rh5 2.834125 1_555
Rh4 Se1 2.761414 1_555
Rh4 Se1 2.761414 1_556
Rh4 Rh5 2.766160 1_455
Rh4 Se0 2.800208 1_545
Rh4 Se0 2.800214 1_555
Rh4 Rh5 2.834125 1_555
Rh5 Se1 2.761411 1_556
Rh5 Se1 2.761411 1_555
Rh5 Se0 2.800211 1_545
Rh5 Se0 2.800211 1_655
