# generated using pymatgen
data_YLuTl2
_symmetry_space_group_name_H-M   'P 1'
_cell_length_a   5.29547664
_cell_length_b   5.29547738
_cell_length_c   5.29547958
_cell_angle_alpha   59.99999545
_cell_angle_beta   59.99999996
_cell_angle_gamma   59.99998622
_symmetry_Int_Tables_number   1
_chemical_formula_structural   YLuTl2
_chemical_formula_sum   'Y1 Lu1 Tl2'
_cell_volume   105.00268723
_cell_formula_units_Z   1
loop_
 _symmetry_equiv_pos_site_id
 _symmetry_equiv_pos_as_xyz
  1  'x, y, z'
loop_
 _atom_site_type_symbol
 _atom_site_label
 _atom_site_symmetry_multiplicity
 _atom_site_fract_x
 _atom_site_fract_y
 _atom_site_fract_z
 _atom_site_occupancy
  Y  Y0  1  0.74999900  0.74999900  0.74999900  1
  Lu  Lu0  1  0.25000000  0.25000000  0.25000000  1
  Tl  Tl0  1  -0.00000000  0.00000000  -0.00000000  1
  Tl  Tl1  1  0.50000000  0.50000100  0.50000100  1
loop_
_geom_bond_atom_site_label_1
_geom_bond_atom_site_label_2
_geom_bond_distance
_geom_bond_site_symmetry_2
Lu0 Tl1 3.242800 1_545
Lu0 Tl1 3.242801 1_554
Lu0 Tl0 3.242804 1_655
Lu0 Tl1 3.242804 1_455
Lu0 Tl0 3.242804 1_565
Lu0 Tl0 3.242805 1_555
Lu0 Tl0 3.242806 1_556
Lu0 Tl1 3.242813 1_555
Tl0 Y0 3.242799 1_544
Tl0 Y0 3.242800 1_454
Tl0 Y0 3.242801 1_445
Tl0 Y0 3.242818 1_444
Tl1 Y0 3.242783 1_555
Tl1 Y0 3.242808 1_455
Tl1 Y0 3.242813 1_545
Tl1 Y0 3.242814 1_554
