# generated using pymatgen
data_UBiSb
_symmetry_space_group_name_H-M   'P 1'
_cell_length_a   4.41965100
_cell_length_b   4.41965100
_cell_length_c   8.82400900
_cell_angle_alpha   90.00000000
_cell_angle_beta   90.00000000
_cell_angle_gamma   90.00000000
_symmetry_Int_Tables_number   1
_chemical_formula_structural   UBiSb
_chemical_formula_sum   'U2 Bi2 Sb2'
_cell_volume   172.36214702
_cell_formula_units_Z   2
loop_
 _symmetry_equiv_pos_site_id
 _symmetry_equiv_pos_as_xyz
  1  'x, y, z'
loop_
 _atom_site_type_symbol
 _atom_site_label
 _atom_site_symmetry_multiplicity
 _atom_site_fract_x
 _atom_site_fract_y
 _atom_site_fract_z
 _atom_site_occupancy
  U  U0  1  0.00000000  0.50000000  0.29350400  1
  U  U1  1  0.50000000  0.00000000  0.70649600  1
  Bi  Bi0  1  0.50000000  0.50000000  0.00000000  1
  Bi  Bi1  1  0.00000000  0.00000000  0.00000000  1
  Sb  Sb0  1  0.00000000  0.50000000  0.64700100  1
  Sb  Sb1  1  0.50000000  0.00000000  0.35299900  1
loop_
_geom_bond_atom_site_label_1
_geom_bond_atom_site_label_2
_geom_bond_distance
_geom_bond_site_symmetry_2
Bi0 Bi1 3.125165 1_565
Bi0 Bi1 3.125165 1_665
Bi0 Bi1 3.125165 1_655
Bi0 Bi1 3.125165 1_555
Bi0 U1 3.404529 1_564
Bi0 U1 3.404529 1_554
Bi0 U0 3.404529 1_555
Bi0 U0 3.404529 1_655
Bi1 U1 3.404529 1_454
Bi1 U1 3.404529 1_554
Bi1 U0 3.404529 1_545
Bi1 U0 3.404529 1_555
Sb0 U0 3.119261 1_555
Sb0 U1 3.168953 1_555
Sb0 U1 3.168953 1_455
Sb0 U1 3.168953 1_565
Sb0 U1 3.168953 1_465
Sb1 U1 3.119261 1_555
Sb1 U0 3.168953 1_655
Sb1 U0 3.168953 1_545
Sb1 U0 3.168953 1_555
Sb1 U0 3.168953 1_645
