# generated using pymatgen
data_Li3Re
_symmetry_space_group_name_H-M   'P 1'
_cell_length_a   5.41511685
_cell_length_b   5.41511685
_cell_length_c   4.51716300
_cell_angle_alpha   90.00000000
_cell_angle_beta   90.00000000
_cell_angle_gamma   120.00001036
_symmetry_Int_Tables_number   1
_chemical_formula_structural   Li3Re
_chemical_formula_sum   'Li6 Re2'
_cell_volume   114.71283506
_cell_formula_units_Z   2
loop_
 _symmetry_equiv_pos_site_id
 _symmetry_equiv_pos_as_xyz
  1  'x, y, z'
loop_
 _atom_site_type_symbol
 _atom_site_label
 _atom_site_symmetry_multiplicity
 _atom_site_fract_x
 _atom_site_fract_y
 _atom_site_fract_z
 _atom_site_occupancy
  Li  Li0  1  0.16960000  0.33919900  0.25000000  1
  Li  Li1  1  0.66080100  0.83040000  0.25000000  1
  Li  Li2  1  0.16960000  0.83040000  0.25000000  1
  Li  Li3  1  0.83040000  0.66080100  0.75000000  1
  Li  Li4  1  0.33919900  0.16960000  0.75000000  1
  Li  Li5  1  0.83040000  0.16960000  0.75000000  1
  Re  Re0  1  0.33333300  0.66666700  0.75000000  1
  Re  Re1  1  0.66666700  0.33333300  0.25000000  1
loop_
_geom_bond_atom_site_label_1
_geom_bond_atom_site_label_2
_geom_bond_distance
_geom_bond_site_symmetry_2
Li0 Li1 2.659910 1_555
Li0 Li2 2.659911 1_555
Li0 Re1 2.707698 1_455
Li0 Re1 2.707698 1_555
Li0 Re0 2.731222 1_554
Li0 Re0 2.731222 1_555
Li0 Li1 2.755206 1_445
Li0 Li2 2.755206 1_545
Li0 Li4 2.762527 1_554
Li0 Li4 2.762527 1_555
Li0 Li5 2.762533 1_454
Li0 Li5 2.762533 1_455
Li1 Li2 2.659911 1_555
Li1 Re1 2.707698 1_565
Li1 Re1 2.707698 1_555
Li1 Re0 2.731222 1_554
Li1 Re0 2.731222 1_555
Li1 Li2 2.755206 1_655
Li1 Li3 2.762527 1_554
Li1 Li3 2.762527 1_555
Li1 Li5 2.762533 1_565
Li1 Li5 2.762533 1_564
Li2 Re1 2.707698 1_455
Li2 Re1 2.707698 1_565
Li2 Re0 2.731217 1_555
Li2 Re0 2.731217 1_554
Li2 Li4 2.762533 1_564
Li2 Li4 2.762533 1_565
Li2 Li3 2.762533 1_455
Li2 Li3 2.762533 1_454
Li3 Li4 2.659910 1_555
Li3 Li5 2.659911 1_555
Li3 Re0 2.707698 1_655
Li3 Re0 2.707698 1_555
Li3 Re1 2.731222 1_555
Li3 Re1 2.731222 1_556
Li3 Li4 2.755206 1_665
Li3 Li5 2.755206 1_565
Li4 Li5 2.659911 1_555
Li4 Re0 2.707698 1_545
Li4 Re0 2.707698 1_555
Li4 Re1 2.731222 1_555
Li4 Re1 2.731222 1_556
Li4 Li5 2.755206 1_455
Li5 Re0 2.707698 1_545
Li5 Re0 2.707698 1_655
Li5 Re1 2.731217 1_555
Li5 Re1 2.731217 1_556
