# generated using pymatgen
data_KAuSe
_symmetry_space_group_name_H-M   'P 1'
_cell_length_a   5.18435620
_cell_length_b   5.18435615
_cell_length_c   6.86853415
_cell_angle_alpha   90.00000000
_cell_angle_beta   90.00000000
_cell_angle_gamma   102.23522930
_symmetry_Int_Tables_number   1
_chemical_formula_structural   KAuSe
_chemical_formula_sum   'K2 Au2 Se2'
_cell_volume   180.41610397
_cell_formula_units_Z   2
loop_
 _symmetry_equiv_pos_site_id
 _symmetry_equiv_pos_as_xyz
  1  'x, y, z'
loop_
 _atom_site_type_symbol
 _atom_site_label
 _atom_site_symmetry_multiplicity
 _atom_site_fract_x
 _atom_site_fract_y
 _atom_site_fract_z
 _atom_site_occupancy
  K  K0  1  0.36430490  0.63569510  0.75000000  1
  K  K1  1  0.63569510  0.36430490  0.25000000  1
  Au  Au0  1  0.00000000  0.00000000  0.00000000  1
  Au  Au1  1  0.00000000  0.00000000  0.50000000  1
  Se  Se0  1  0.78604948  0.21395052  0.75000000  1
  Se  Se1  1  0.21395052  0.78604948  0.25000000  1
loop_
_geom_bond_atom_site_label_1
_geom_bond_atom_site_label_2
_geom_bond_distance
_geom_bond_site_symmetry_2
K0 Se0 3.315073 1_565
K0 Se0 3.315073 1_455
K0 Se0 3.404061 1_555
K0 Se1 3.642381 1_556
K0 Se1 3.642381 1_555
K1 Se1 3.315073 1_545
K1 Se1 3.315073 1_655
K1 Se1 3.404061 1_555
K1 Se0 3.642381 1_555
K1 Se0 3.642381 1_554
Au0 Se0 2.435292 1_454
Au0 Se1 2.435292 1_545
Au0 K1 3.405107 1_455
Au0 K0 3.405107 1_544
Au0 K1 3.839123 1_445
Au0 K0 3.839123 1_554
Au0 K1 3.839123 1_555
Au0 K0 3.839123 1_444
Au1 Se0 2.435292 1_455
Au1 Se1 2.435292 1_545
Au1 K1 3.405107 1_455
Au1 K0 3.405107 1_545
Au1 K1 3.839123 1_445
Au1 K0 3.839123 1_555
Au1 K1 3.839123 1_555
Au1 K0 3.839123 1_445
