# generated using pymatgen
data_ZnSn3
_symmetry_space_group_name_H-M   'P 1'
_cell_length_a   6.57096112
_cell_length_b   6.57096112
_cell_length_c   5.45682800
_cell_angle_alpha   90.00000000
_cell_angle_beta   90.00000000
_cell_angle_gamma   119.99999111
_symmetry_Int_Tables_number   1
_chemical_formula_structural   ZnSn3
_chemical_formula_sum   'Zn2 Sn6'
_cell_volume   204.04630289
_cell_formula_units_Z   2
loop_
 _symmetry_equiv_pos_site_id
 _symmetry_equiv_pos_as_xyz
  1  'x, y, z'
loop_
 _atom_site_type_symbol
 _atom_site_label
 _atom_site_symmetry_multiplicity
 _atom_site_fract_x
 _atom_site_fract_y
 _atom_site_fract_z
 _atom_site_occupancy
  Zn  Zn0  1  0.33333300  0.66666700  0.75000000  1
  Zn  Zn1  1  0.66666700  0.33333300  0.25000000  1
  Sn  Sn0  1  0.16916900  0.33833800  0.25000000  1
  Sn  Sn1  1  0.66166200  0.83083100  0.25000000  1
  Sn  Sn2  1  0.16916900  0.83083100  0.25000000  1
  Sn  Sn3  1  0.83083100  0.66166200  0.75000000  1
  Sn  Sn4  1  0.33833800  0.16916900  0.75000000  1
  Sn  Sn5  1  0.83083100  0.16916900  0.75000000  1
loop_
_geom_bond_atom_site_label_1
_geom_bond_atom_site_label_2
_geom_bond_distance
_geom_bond_site_symmetry_2
Sn0 Sn2 3.236152 1_555
Sn0 Sn1 3.236153 1_555
Sn0 Zn1 3.285601 1_455
Sn0 Zn1 3.285607 1_555
Sn0 Zn0 3.306833 1_555
Sn0 Zn0 3.306833 1_554
Sn0 Sn2 3.334809 1_545
Sn0 Sn1 3.334809 1_445
Sn0 Sn4 3.339345 1_554
Sn0 Sn4 3.339345 1_555
Sn0 Sn5 3.339345 1_455
Sn0 Sn5 3.339345 1_454
Sn1 Sn2 3.236152 1_555
Sn1 Zn1 3.285601 1_565
Sn1 Zn1 3.285607 1_555
Sn1 Zn0 3.306833 1_555
Sn1 Zn0 3.306833 1_554
Sn1 Sn2 3.334809 1_655
Sn1 Sn3 3.339345 1_555
Sn1 Sn3 3.339345 1_554
Sn1 Sn5 3.339345 1_565
Sn1 Sn5 3.339345 1_564
Sn2 Zn1 3.285604 1_455
Sn2 Zn1 3.285604 1_565
Sn2 Zn0 3.306830 1_554
Sn2 Zn0 3.306830 1_555
Sn2 Sn3 3.339345 1_455
Sn2 Sn3 3.339345 1_454
Sn2 Sn4 3.339345 1_565
Sn2 Sn4 3.339345 1_564
Sn3 Sn5 3.236152 1_555
Sn3 Sn4 3.236153 1_555
Sn3 Zn0 3.285601 1_655
Sn3 Zn0 3.285607 1_555
Sn3 Zn1 3.306833 1_555
Sn3 Zn1 3.306833 1_556
Sn3 Sn5 3.334809 1_565
Sn3 Sn4 3.334809 1_665
Sn4 Sn5 3.236152 1_555
Sn4 Zn0 3.285601 1_545
Sn4 Zn0 3.285607 1_555
Sn4 Zn1 3.306833 1_555
Sn4 Zn1 3.306833 1_556
Sn4 Sn5 3.334809 1_455
Sn5 Zn0 3.285604 1_545
Sn5 Zn0 3.285604 1_655
Sn5 Zn1 3.306830 1_555
Sn5 Zn1 3.306830 1_556
