# generated using pymatgen
data_ThMg3
_symmetry_space_group_name_H-M   'P 1'
_cell_length_a   6.76275752
_cell_length_b   6.76275842
_cell_length_c   5.21411579
_cell_angle_alpha   90.00000000
_cell_angle_beta   90.00000000
_cell_angle_gamma   120.00001928
_symmetry_Int_Tables_number   1
_chemical_formula_structural   ThMg3
_chemical_formula_sum   'Th2 Mg6'
_cell_volume   206.51847458
_cell_formula_units_Z   2
loop_
 _symmetry_equiv_pos_site_id
 _symmetry_equiv_pos_as_xyz
  1  'x, y, z'
loop_
 _atom_site_type_symbol
 _atom_site_label
 _atom_site_symmetry_multiplicity
 _atom_site_fract_x
 _atom_site_fract_y
 _atom_site_fract_z
 _atom_site_occupancy
  Th  Th0  1  0.66666700  0.33333300  0.25000100  1
  Th  Th1  1  0.33333300  0.66666600  0.75000000  1
  Mg  Mg0  1  0.16078553  0.32157107  0.25000100  1
  Mg  Mg1  1  0.16078453  0.83921447  0.25000100  1
  Mg  Mg2  1  0.67842993  0.83921447  0.25000100  1
  Mg  Mg3  1  0.32157107  0.16078453  0.75000000  1
  Mg  Mg4  1  0.83921347  0.16078453  0.75000000  1
  Mg  Mg5  1  0.83921447  0.67842693  0.75000000  1
loop_
_geom_bond_atom_site_label_1
_geom_bond_atom_site_label_2
_geom_bond_distance
_geom_bond_site_symmetry_2
Mg0 Mg4 3.216171 1_455
Mg0 Mg3 3.216172 1_555
Mg0 Mg4 3.216180 1_454
Mg0 Mg3 3.216180 1_554
Mg0 Mg2 3.262057 1_445
Mg0 Mg1 3.262058 1_545
Mg0 Th1 3.298737 1_555
Mg0 Th1 3.298745 1_554
Mg0 Th0 3.382077 1_455
Mg0 Th0 3.382084 1_555
Mg0 Mg2 3.500699 1_555
Mg0 Mg1 3.500701 1_555
Mg1 Mg5 3.216164 1_455
Mg1 Mg3 3.216165 1_565
Mg1 Mg5 3.216173 1_454
Mg1 Mg3 3.216173 1_564
Mg1 Mg2 3.262047 1_455
Mg1 Th1 3.298745 1_555
Mg1 Th1 3.298753 1_554
Mg1 Th0 3.382076 1_455
Mg1 Th0 3.382083 1_565
Mg1 Mg2 3.500710 1_555
Mg2 Mg4 3.216165 1_565
Mg2 Mg5 3.216172 1_555
Mg2 Mg4 3.216173 1_564
Mg2 Mg5 3.216180 1_554
Mg2 Th1 3.298744 1_555
Mg2 Th1 3.298752 1_554
Mg2 Th0 3.382081 1_565
Mg2 Th0 3.382081 1_555
Mg3 Mg5 3.262063 1_445
Mg3 Mg4 3.262067 1_455
Mg3 Th0 3.298741 1_555
Mg3 Th0 3.298749 1_556
Mg3 Th1 3.382077 1_545
Mg3 Th1 3.382084 1_555
Mg3 Mg4 3.500690 1_555
Mg3 Mg5 3.500693 1_555
Mg4 Mg5 3.262071 1_545
Mg4 Th0 3.298737 1_555
Mg4 Th0 3.298746 1_556
Mg4 Th1 3.382076 1_545
Mg4 Th1 3.382083 1_655
Mg4 Mg5 3.500687 1_555
Mg5 Th0 3.298734 1_555
Mg5 Th0 3.298742 1_556
Mg5 Th1 3.382073 1_655
Mg5 Th1 3.382087 1_555
