# generated using pymatgen
data_MgSbPd2
_symmetry_space_group_name_H-M   'P 1'
_cell_length_a   4.59452696
_cell_length_b   4.59452696
_cell_length_c   4.59452696
_cell_angle_alpha   60.00000000
_cell_angle_beta   60.00000000
_cell_angle_gamma   60.00000000
_symmetry_Int_Tables_number   1
_chemical_formula_structural   MgSbPd2
_chemical_formula_sum   'Mg1 Sb1 Pd2'
_cell_volume   68.58156874
_cell_formula_units_Z   1
loop_
 _symmetry_equiv_pos_site_id
 _symmetry_equiv_pos_as_xyz
  1  'x, y, z'
loop_
 _atom_site_type_symbol
 _atom_site_label
 _atom_site_symmetry_multiplicity
 _atom_site_fract_x
 _atom_site_fract_y
 _atom_site_fract_z
 _atom_site_occupancy
  Mg  Mg0  1  0.25000000  0.25000000  0.25000000  1
  Sb  Sb0  1  0.74999900  0.74999900  0.74999900  1
  Pd  Pd0  1  0.00000000  0.00000000  -0.00000000  1
  Pd  Pd1  1  0.49999900  0.49999900  0.49999900  1
loop_
_geom_bond_atom_site_label_1
_geom_bond_atom_site_label_2
_geom_bond_distance
_geom_bond_site_symmetry_2
Mg0 Pd1 2.813550 1_555
Mg0 Pd0 2.813562 1_555
Mg0 Pd0 2.813562 1_565
Mg0 Pd0 2.813562 1_556
Mg0 Pd0 2.813562 1_655
Mg0 Pd1 2.813565 1_545
Mg0 Pd1 2.813565 1_554
Mg0 Pd1 2.813565 1_455
Mg0 Sb0 3.248815 1_545
Mg0 Sb0 3.248815 1_455
Mg0 Sb0 3.248815 1_554
Mg0 Sb0 3.248828 1_454
Mg0 Sb0 3.248828 1_544
Mg0 Sb0 3.248828 1_445
Pd0 Sb0 2.813558 1_445
Pd0 Sb0 2.813558 1_544
Pd0 Sb0 2.813558 1_454
Pd0 Sb0 2.813573 1_444
Pd1 Sb0 2.813562 1_554
Pd1 Sb0 2.813562 1_455
Pd1 Sb0 2.813562 1_545
Pd1 Sb0 2.813562 1_555
