# generated using pymatgen
data_SmCdPd2
_symmetry_space_group_name_H-M   'P 1'
_cell_length_a   4.82545426
_cell_length_b   4.82545426
_cell_length_c   4.82545426
_cell_angle_alpha   60.00000000
_cell_angle_beta   60.00000000
_cell_angle_gamma   60.00000000
_symmetry_Int_Tables_number   1
_chemical_formula_structural   SmCdPd2
_chemical_formula_sum   'Sm1 Cd1 Pd2'
_cell_volume   79.45104475
_cell_formula_units_Z   1
loop_
 _symmetry_equiv_pos_site_id
 _symmetry_equiv_pos_as_xyz
  1  'x, y, z'
loop_
 _atom_site_type_symbol
 _atom_site_label
 _atom_site_symmetry_multiplicity
 _atom_site_fract_x
 _atom_site_fract_y
 _atom_site_fract_z
 _atom_site_occupancy
  Sm  Sm0  1  0.74999900  0.74999900  0.74999900  1
  Cd  Cd0  1  0.25000000  0.25000000  0.25000000  1
  Pd  Pd0  1  0.49999900  0.49999900  0.49999900  1
  Pd  Pd1  1  0.00000000  0.00000000  0.00000000  1
loop_
_geom_bond_atom_site_label_1
_geom_bond_atom_site_label_2
_geom_bond_distance
_geom_bond_site_symmetry_2
Cd0 Pd0 2.954963 1_555
Cd0 Pd1 2.954975 1_565
Cd0 Pd1 2.954975 1_655
Cd0 Pd1 2.954975 1_556
Cd0 Pd1 2.954975 1_555
Cd0 Pd0 2.954979 1_545
Cd0 Pd0 2.954979 1_554
Cd0 Pd0 2.954979 1_455
Pd0 Sm0 2.954975 1_545
Pd0 Sm0 2.954975 1_554
Pd0 Sm0 2.954975 1_455
Pd0 Sm0 2.954975 1_555
Pd1 Sm0 2.954971 1_544
Pd1 Sm0 2.954971 1_445
Pd1 Sm0 2.954971 1_454
Pd1 Sm0 2.954987 1_444
