# generated using pymatgen
data_PrErTl2
_symmetry_space_group_name_H-M   'P 1'
_cell_length_a   5.41236840
_cell_length_b   5.40894081
_cell_length_c   5.43189308
_cell_angle_alpha   59.90683301
_cell_angle_beta   59.90056160
_cell_angle_gamma   60.25655258
_symmetry_Int_Tables_number   1
_chemical_formula_structural   PrErTl2
_chemical_formula_sum   'Pr1 Er1 Tl2'
_cell_volume   112.49535693
_cell_formula_units_Z   1
loop_
 _symmetry_equiv_pos_site_id
 _symmetry_equiv_pos_as_xyz
  1  'x, y, z'
loop_
 _atom_site_type_symbol
 _atom_site_label
 _atom_site_symmetry_multiplicity
 _atom_site_fract_x
 _atom_site_fract_y
 _atom_site_fract_z
 _atom_site_occupancy
  Pr  Pr0  1  0.75000259  0.75000022  0.75000014  1
  Er  Er0  1  0.24999369  0.25000002  0.24999520  1
  Tl  Tl0  1  0.00013562  0.99979883  0.00025857  1
  Tl  Tl1  1  0.49987010  0.50020293  0.49974708  1
loop_
_geom_bond_atom_site_label_1
_geom_bond_atom_site_label_2
_geom_bond_distance
_geom_bond_site_symmetry_2
Pr0 Tl1 3.317958 1_555
Pr0 Tl0 3.317990 1_656
Pr0 Tl0 3.318109 1_646
Pr0 Tl1 3.318115 1_565
Pr0 Tl0 3.318244 1_655
Pr0 Tl1 3.318268 1_556
Pr0 Tl0 3.318504 1_556
Pr0 Tl1 3.318506 1_655
Er0 Tl0 3.316232 1_545
Er0 Tl1 3.316315 1_545
Er0 Tl0 3.316322 1_555
Er0 Tl1 3.316389 1_555
Er0 Tl1 3.319649 1_455
Er0 Tl0 3.319730 1_645
Er0 Tl1 3.320492 1_554
Er0 Tl0 3.320560 1_546
