# generated using pymatgen
data_Tm2S3
_symmetry_space_group_name_H-M   'P 1'
_cell_length_a   3.79536446
_cell_length_b   10.38286421
_cell_length_c   10.46119607
_cell_angle_alpha   90.00000000
_cell_angle_beta   90.00000000
_cell_angle_gamma   90.00000000
_symmetry_Int_Tables_number   1
_chemical_formula_structural   Tm2S3
_chemical_formula_sum   'Tm8 S12'
_cell_volume   412.24177815
_cell_formula_units_Z   4
loop_
 _symmetry_equiv_pos_site_id
 _symmetry_equiv_pos_as_xyz
  1  'x, y, z'
loop_
 _atom_site_type_symbol
 _atom_site_label
 _atom_site_symmetry_multiplicity
 _atom_site_fract_x
 _atom_site_fract_y
 _atom_site_fract_z
 _atom_site_occupancy
  Tm  Tm0  1  0.25000000  0.99586714  0.80831344  1
  Tm  Tm1  1  0.75000000  0.68702618  0.01042151  1
  Tm  Tm2  1  0.25000000  0.31297382  0.98957849  1
  Tm  Tm3  1  0.75000000  0.81297382  0.51042151  1
  Tm  Tm4  1  0.75000000  0.49586714  0.69168656  1
  Tm  Tm5  1  0.75000000  0.00413286  0.19168656  1
  Tm  Tm6  1  0.25000000  0.18702618  0.48957849  1
  Tm  Tm7  1  0.25000000  0.50413286  0.30831344  1
  S  S0  1  0.75000000  0.44426906  0.11841614  1
  S  S1  1  0.25000000  0.94426906  0.38158386  1
  S  S2  1  0.75000000  0.05573094  0.61841614  1
  S  S3  1  0.25000000  0.55573094  0.88158386  1
  S  S4  1  0.75000000  0.80646982  0.77340984  1
  S  S5  1  0.75000000  0.37298838  0.45379602  1
  S  S6  1  0.25000000  0.62701162  0.54620398  1
  S  S7  1  0.25000000  0.19353018  0.22659016  1
  S  S8  1  0.25000000  0.30646982  0.72659016  1
  S  S9  1  0.25000000  0.87298838  0.04620398  1
  S  S10  1  0.75000000  0.69353018  0.27340984  1
  S  S11  1  0.75000000  0.12701162  0.95379602  1
loop_
_geom_bond_atom_site_label_1
_geom_bond_atom_site_label_2
_geom_bond_distance
_geom_bond_site_symmetry_2
S0 Tm2 2.697429 1_654
S0 Tm2 2.697429 1_554
S0 Tm1 2.762125 1_555
S0 Tm7 2.816722 1_655
S0 Tm7 2.816722 1_555
S1 Tm3 2.697429 1_555
S1 Tm3 2.697429 1_455
S1 Tm6 2.762125 1_565
S1 Tm5 2.816722 1_565
S1 Tm5 2.816722 1_465
S2 Tm6 2.697429 1_655
S2 Tm6 2.697429 1_555
S2 Tm3 2.762125 1_545
S2 Tm0 2.816722 1_645
S2 Tm0 2.816722 1_545
S3 Tm1 2.697429 1_456
S3 Tm1 2.697429 1_556
S3 Tm2 2.762125 1_555
S3 Tm4 2.816722 1_455
S3 Tm4 2.816722 1_555
S4 Tm3 2.752001 1_555
S4 Tm0 2.757098 1_555
S4 Tm0 2.757098 1_655
S4 Tm1 2.772285 1_556
S4 Tm4 3.336340 1_555
S5 Tm6 2.733018 1_655
S5 Tm6 2.733018 1_555
S5 Tm7 2.787750 1_655
S5 Tm7 2.787750 1_555
S5 Tm4 2.796601 1_555
S6 Tm3 2.733018 1_555
S6 Tm3 2.733018 1_455
S6 Tm4 2.787750 1_455
S6 Tm4 2.787750 1_555
S6 Tm7 2.796601 1_555
S7 Tm6 2.752001 1_555
S7 Tm5 2.757098 1_455
S7 Tm5 2.757098 1_555
S7 Tm2 2.772285 1_554
S7 Tm7 3.336340 1_555
S8 Tm2 2.752001 1_555
S8 Tm4 2.757098 1_455
S8 Tm4 2.757098 1_555
S8 Tm6 2.772285 1_555
S8 Tm0 3.336340 1_545
S9 Tm1 2.733018 1_455
S9 Tm1 2.733018 1_555
S9 Tm5 2.787750 1_565
S9 Tm5 2.787750 1_465
S9 Tm0 2.796601 1_554
S10 Tm1 2.752001 1_555
S10 Tm7 2.757098 1_655
S10 Tm7 2.757098 1_555
S10 Tm3 2.772285 1_555
S10 Tm5 3.336340 1_565
S11 Tm2 2.733018 1_555
S11 Tm2 2.733018 1_655
S11 Tm0 2.787750 1_545
S11 Tm0 2.787750 1_645
S11 Tm5 2.796601 1_556
