# generated using pymatgen
data_Ba2Sb
_symmetry_space_group_name_H-M   'P 1'
_cell_length_a   5.26976240
_cell_length_b   5.26976195
_cell_length_c   10.24002684
_cell_angle_alpha   104.91062431
_cell_angle_beta   104.91061871
_cell_angle_gamma   89.99999598
_symmetry_Int_Tables_number   1
_chemical_formula_structural   Ba2Sb
_chemical_formula_sum   'Ba4 Sb2'
_cell_volume   264.87329781
_cell_formula_units_Z   2
loop_
 _symmetry_equiv_pos_site_id
 _symmetry_equiv_pos_as_xyz
  1  'x, y, z'
loop_
 _atom_site_type_symbol
 _atom_site_label
 _atom_site_symmetry_multiplicity
 _atom_site_fract_x
 _atom_site_fract_y
 _atom_site_fract_z
 _atom_site_occupancy
  Ba  Ba0  1  0.31955125  0.31955125  0.63910349  1
  Ba  Ba1  1  0.68044875  0.68044875  0.36089651  1
  Ba  Ba2  1  -0.00000000  0.50000000  -0.00000000  1
  Ba  Ba3  1  0.50000000  0.00000000  -0.00000000  1
  Sb  Sb0  1  0.86608327  0.86608327  0.73216654  1
  Sb  Sb1  1  0.13391673  0.13391673  0.26783346  1
loop_
_geom_bond_atom_site_label_1
_geom_bond_atom_site_label_2
_geom_bond_distance
_geom_bond_site_symmetry_2
Ba0 Sb1 3.541164 1_555
Ba0 Sb0 3.830543 1_445
Ba0 Sb0 3.830547 1_455
Ba0 Sb0 3.830547 1_545
Ba0 Sb0 3.830551 1_555
Ba1 Sb0 3.541164 1_555
Ba1 Sb1 3.830543 1_665
Ba1 Sb1 3.830547 1_655
Ba1 Sb1 3.830547 1_565
Ba1 Sb1 3.830551 1_555
Ba2 Sb1 3.669948 1_565
Ba2 Sb0 3.669948 1_444
Ba2 Sb1 3.669948 1_555
Ba2 Sb0 3.669948 1_454
Ba3 Sb0 3.669948 1_544
Ba3 Sb1 3.669948 1_555
Ba3 Sb0 3.669949 1_444
Ba3 Sb1 3.669949 1_655
