# generated using pymatgen
data_Tb(BIr)4
_symmetry_space_group_name_H-M   'P 1'
_cell_length_a   7.61558926
_cell_length_b   7.61559130
_cell_length_c   3.97260461
_cell_angle_alpha   89.99997783
_cell_angle_beta   90.00011182
_cell_angle_gamma   89.99998465
_symmetry_Int_Tables_number   1
_chemical_formula_structural   Tb(BIr)4
_chemical_formula_sum   'Tb2 B8 Ir8'
_cell_volume   230.40000493
_cell_formula_units_Z   2
loop_
 _symmetry_equiv_pos_site_id
 _symmetry_equiv_pos_as_xyz
  1  'x, y, z'
loop_
 _atom_site_type_symbol
 _atom_site_label
 _atom_site_symmetry_multiplicity
 _atom_site_fract_x
 _atom_site_fract_y
 _atom_site_fract_z
 _atom_site_occupancy
  Tb  Tb0  1  0.25000000  0.25000100  0.25000676  1
  Tb  Tb1  1  0.75000000  0.74999900  0.75000676  1
  B  B0  1  0.02757468  0.59271369  0.13960836  1
  B  B1  1  0.47242432  0.90728631  0.13960736  1
  B  B2  1  0.90728154  0.02758853  0.36040460  1
  B  B3  1  0.59271846  0.47241147  0.36040460  1
  B  B4  1  0.40728731  0.52757468  0.63960836  1
  B  B5  1  0.09271369  0.97242532  0.63960936  1
  B  B6  1  0.52758953  0.09271746  0.86040460  1
  B  B7  1  0.97241147  0.40728154  0.86040460  1
  Ir  Ir0  1  0.41030409  0.64072988  0.13819359  1
  Ir  Ir1  1  0.08969591  0.85926912  0.13819159  1
  Ir  Ir2  1  0.64072590  0.08969867  0.36179707  1
  Ir  Ir3  1  0.85927310  0.41030033  0.36179407  1
  Ir  Ir4  1  0.14072888  0.58969691  0.63819159  1
  Ir  Ir5  1  0.35926912  0.91030409  0.63819159  1
  Ir  Ir6  1  0.91030133  0.14072690  0.86179507  1
  Ir  Ir7  1  0.58969867  0.35927310  0.86179507  1
loop_
_geom_bond_atom_site_label_1
_geom_bond_atom_site_label_2
_geom_bond_distance
_geom_bond_site_symmetry_2
B0 B7 1.844173 1_454
B0 Ir1 2.084383 1_555
B0 Ir3 2.086077 1_455
B0 Ir4 2.160134 1_555
B0 Ir4 2.170463 1_554
B0 Tb1 2.880762 1_454
B1 B6 1.844168 1_564
B1 Ir0 2.084389 1_555
B1 Ir2 2.086077 1_565
B1 Ir5 2.160144 1_555
B1 Ir5 2.170460 1_554
B1 Tb1 2.880776 1_554
B2 B5 1.844173 1_645
B2 Ir2 2.084365 1_555
B2 Ir1 2.086212 1_645
B2 Ir6 2.160183 1_554
B2 Ir6 2.170319 1_555
B2 Tb1 2.880838 1_545
B3 B4 1.844168 1_555
B3 Ir3 2.084359 1_555
B3 Ir0 2.086201 1_555
B3 Ir7 2.160184 1_554
B3 Ir7 2.170318 1_555
B3 Tb1 2.880825 1_555
B4 Ir4 2.084406 1_555
B4 Ir7 2.086066 1_555
B4 Ir0 2.160146 1_556
B4 Ir0 2.170457 1_555
B4 Tb0 2.880765 1_555
B5 Ir5 2.084383 1_555
B5 Ir6 2.086072 1_465
B5 Ir1 2.160138 1_556
B5 Ir1 2.170472 1_555
B5 Tb0 2.880777 1_565
B6 Ir7 2.084364 1_555
B6 Ir5 2.086210 1_545
B6 Ir2 2.160172 1_555
B6 Ir2 2.170318 1_556
B6 Tb0 2.880845 1_556
B7 Ir6 2.084358 1_555
B7 Ir4 2.086207 1_655
B7 Ir3 2.160186 1_555
B7 Ir3 2.170316 1_556
B7 Tb0 2.880825 1_656
