# generated using pymatgen
data_Be3Ru
_symmetry_space_group_name_H-M   'P 1'
_cell_length_a   4.77699003
_cell_length_b   4.77813836
_cell_length_c   3.75681267
_cell_angle_alpha   90.00043063
_cell_angle_beta   89.99975602
_cell_angle_gamma   120.00710757
_symmetry_Int_Tables_number   1
_chemical_formula_structural   Be3Ru
_chemical_formula_sum   'Be6 Ru2'
_cell_volume   74.25609708
_cell_formula_units_Z   2
loop_
 _symmetry_equiv_pos_site_id
 _symmetry_equiv_pos_as_xyz
  1  'x, y, z'
loop_
 _atom_site_type_symbol
 _atom_site_label
 _atom_site_symmetry_multiplicity
 _atom_site_fract_x
 _atom_site_fract_y
 _atom_site_fract_z
 _atom_site_occupancy
  Be  Be0  1  0.16104182  0.32196883  0.24999761  1
  Be  Be1  1  0.67778402  0.83892621  0.24999711  1
  Be  Be2  1  0.16109027  0.83909306  0.24999871  1
  Be  Be3  1  0.83896018  0.67803117  0.75000239  1
  Be  Be4  1  0.32221898  0.16107479  0.75000389  1
  Be  Be5  1  0.83891173  0.16090794  0.75000129  1
  Ru  Ru0  1  0.33316752  0.66657566  0.74999553  1
  Ru  Ru1  1  0.66682948  0.33342334  0.25000747  1
loop_
_geom_bond_atom_site_label_1
_geom_bond_atom_site_label_2
_geom_bond_distance
_geom_bond_site_symmetry_2
Be0 Be5 2.303055 1_454
Be0 Be4 2.303074 1_554
Be0 Be5 2.303077 1_455
Be0 Be4 2.303127 1_555
Be0 Be2 2.307363 1_545
Be0 Be1 2.308033 1_445
Be0 Ru0 2.358278 1_555
Be0 Ru0 2.358305 1_554
Be0 Ru1 2.388689 1_455
Be0 Ru1 2.389241 1_555
Be0 Be1 2.469018 1_555
Be0 Be2 2.470775 1_555
Be1 Be5 2.302890 1_564
Be1 Be5 2.302902 1_565
Be1 Be3 2.303077 1_554
Be1 Be3 2.303124 1_555
Be1 Be2 2.308351 1_655
Be1 Ru0 2.358103 1_555
Be1 Ru0 2.358113 1_554
Be1 Ru1 2.389376 1_565
Be1 Ru1 2.389622 1_555
Be1 Be2 2.468640 1_555
Be2 Be4 2.302887 1_564
Be2 Be4 2.302905 1_565
Be2 Be3 2.303055 1_454
Be2 Be3 2.303077 1_455
Be2 Ru0 2.358248 1_555
Be2 Ru0 2.358252 1_554
Be2 Ru1 2.388839 1_455
Be2 Ru1 2.389145 1_565
Be3 Be5 2.307368 1_565
Be3 Be4 2.308038 1_665
Be3 Ru1 2.358271 1_555
Be3 Ru1 2.358316 1_556
Be3 Ru0 2.388668 1_655
Be3 Ru0 2.389263 1_555
Be3 Be4 2.469013 1_555
Be3 Be5 2.470771 1_555
Be4 Be5 2.308355 1_455
Be4 Ru1 2.358082 1_555
Be4 Ru1 2.358104 1_556
Be4 Ru0 2.389371 1_545
Be4 Ru0 2.389626 1_555
Be4 Be5 2.468635 1_555
Be5 Ru1 2.358247 1_555
Be5 Ru1 2.358268 1_556
Be5 Ru0 2.388823 1_655
Be5 Ru0 2.389162 1_545
