# generated using pymatgen
data_U3Cl
_symmetry_space_group_name_H-M   'P 1'
_cell_length_a   5.47241132
_cell_length_b   5.47241132
_cell_length_c   5.47241132
_cell_angle_alpha   136.22237718
_cell_angle_beta   136.22237718
_cell_angle_gamma   63.63672339
_symmetry_Int_Tables_number   1
_chemical_formula_structural   U3Cl
_chemical_formula_sum   'U3 Cl1'
_cell_volume   77.41785217
_cell_formula_units_Z   1
loop_
 _symmetry_equiv_pos_site_id
 _symmetry_equiv_pos_as_xyz
  1  'x, y, z'
loop_
 _atom_site_type_symbol
 _atom_site_label
 _atom_site_symmetry_multiplicity
 _atom_site_fract_x
 _atom_site_fract_y
 _atom_site_fract_z
 _atom_site_occupancy
  U  U0  1  0.75000000  0.25000000  0.50000000  1
  U  U1  1  0.25000000  0.75000000  0.50000000  1
  U  U2  1  0.50000000  0.50000000  0.00000000  1
  Cl  Cl0  1  0.00000000  0.00000000  0.00000000  1
loop_
_geom_bond_atom_site_label_1
_geom_bond_atom_site_label_2
_geom_bond_distance
_geom_bond_site_symmetry_2
Cl0 U2 2.885209 1_444
Cl0 U2 2.885209 1_556
Cl0 U2 2.885209 1_545
Cl0 U2 2.885209 1_455
Cl0 U0 3.093207 1_555
Cl0 U1 3.093207 1_545
Cl0 U1 3.093207 1_555
Cl0 U0 3.093207 1_455
Cl0 U0 3.093207 1_454
Cl0 U1 3.093207 1_444
Cl0 U0 3.093207 1_444
Cl0 U1 3.093207 1_544
