# generated using pymatgen
data_RbLiO3
_symmetry_space_group_name_H-M   'P 1'
_cell_length_a   4.17939200
_cell_length_b   4.17939200
_cell_length_c   4.17939200
_cell_angle_alpha   90.00000000
_cell_angle_beta   90.00000000
_cell_angle_gamma   90.00000000
_symmetry_Int_Tables_number   1
_chemical_formula_structural   RbLiO3
_chemical_formula_sum   'Rb1 Li1 O3'
_cell_volume   73.00276698
_cell_formula_units_Z   1
loop_
 _symmetry_equiv_pos_site_id
 _symmetry_equiv_pos_as_xyz
  1  'x, y, z'
loop_
 _atom_site_type_symbol
 _atom_site_label
 _atom_site_symmetry_multiplicity
 _atom_site_fract_x
 _atom_site_fract_y
 _atom_site_fract_z
 _atom_site_occupancy
  Rb  Rb0  1  0.00000000  0.00000000  0.00000000  1
  Li  Li0  1  0.50000000  0.50000000  0.50000000  1
  O  O0  1  0.50000000  0.50000000  0.00000000  1
  O  O1  1  0.50000000  0.00000000  0.50000000  1
  O  O2  1  0.00000000  0.50000000  0.50000000  1
loop_
_geom_bond_atom_site_label_1
_geom_bond_atom_site_label_2
_geom_bond_distance
_geom_bond_site_symmetry_2
Li0 O1 2.089696 1_555
Li0 O0 2.089696 1_555
Li0 O2 2.089696 1_555
Li0 O1 2.089696 1_565
Li0 O0 2.089696 1_556
Li0 O2 2.089696 1_655
O0 Rb0 2.955276 1_565
O0 Rb0 2.955276 1_665
O0 Rb0 2.955276 1_655
O0 Rb0 2.955276 1_555
O1 Rb0 2.955276 1_656
O1 Rb0 2.955276 1_655
O1 Rb0 2.955276 1_555
O1 Rb0 2.955276 1_556
O2 Rb0 2.955276 1_565
O2 Rb0 2.955276 1_555
O2 Rb0 2.955276 1_566
O2 Rb0 2.955276 1_556
