# generated using pymatgen
data_Li3PS4
_symmetry_space_group_name_H-M   'P 1'
_cell_length_a   6.17176593
_cell_length_b   8.01859859
_cell_length_c   13.03281824
_cell_angle_alpha   90.00000000
_cell_angle_beta   90.00000000
_cell_angle_gamma   90.00000000
_symmetry_Int_Tables_number   1
_chemical_formula_structural   Li3PS4
_chemical_formula_sum   'Li12 P4 S16'
_cell_volume   644.98001564
_cell_formula_units_Z   4
loop_
 _symmetry_equiv_pos_site_id
 _symmetry_equiv_pos_as_xyz
  1  'x, y, z'
loop_
 _atom_site_type_symbol
 _atom_site_label
 _atom_site_symmetry_multiplicity
 _atom_site_fract_x
 _atom_site_fract_y
 _atom_site_fract_z
 _atom_site_occupancy
  Li  Li0  1  0.38940176  0.03349734  0.33254575  1
  Li  Li1  1  0.61059824  0.96650266  0.66745425  1
  Li  Li2  1  0.88940176  0.96650266  0.16745425  1
  Li  Li3  1  0.11059824  0.03349734  0.83254575  1
  Li  Li4  1  0.61059824  0.53349734  0.66745425  1
  Li  Li5  1  0.38940176  0.46650266  0.33254575  1
  Li  Li6  1  0.11059824  0.46650266  0.83254575  1
  Li  Li7  1  0.88940176  0.53349734  0.16745425  1
  Li  Li8  1  0.50000000  -0.00000000  -0.00000000  1
  Li  Li9  1  -0.00000000  -0.00000000  0.50000000  1
  Li  Li10  1  0.50000000  0.50000000  -0.00000000  1
  Li  Li11  1  -0.00000000  0.50000000  0.50000000  1
  P  P0  1  0.15238914  0.25000000  0.08946782  1
  P  P1  1  0.84761086  0.75000000  0.91053218  1
  P  P2  1  0.65238914  0.75000000  0.41053218  1
  P  P3  1  0.34761086  0.25000000  0.58946782  1
  S  S0  1  0.82467616  0.25000000  0.10018968  1
  S  S1  1  0.17532384  0.75000000  0.89981032  1
  S  S2  1  0.32467616  0.75000000  0.39981032  1
  S  S3  1  0.67532384  0.25000000  0.60018968  1
  S  S4  1  0.27242266  0.25000000  0.94066789  1
  S  S5  1  0.72757734  0.75000000  0.05933211  1
  S  S6  1  0.77242266  0.75000000  0.55933211  1
  S  S7  1  0.22757734  0.25000000  0.44066789  1
  S  S8  1  0.27096483  0.03652390  0.15386116  1
  S  S9  1  0.72903517  0.96347610  0.84613884  1
  S  S10  1  0.77096483  0.96347610  0.34613884  1
  S  S11  1  0.22903517  0.03652390  0.65386116  1
  S  S12  1  0.72903517  0.53652390  0.84613884  1
  S  S13  1  0.27096483  0.46347610  0.15386116  1
  S  S14  1  0.22903517  0.46347610  0.65386116  1
  S  S15  1  0.77096483  0.53652390  0.34613884  1
loop_
_geom_bond_atom_site_label_1
_geom_bond_atom_site_label_2
_geom_bond_distance
_geom_bond_site_symmetry_2
Li0 S10 2.427401 1_545
Li0 S8 2.440910 1_555
Li0 S7 2.448880 1_555
Li0 S2 2.468959 1_545
Li1 S11 2.427401 1_565
Li1 S9 2.440910 1_555
Li1 S6 2.448880 1_555
Li1 S3 2.468959 1_565
Li2 S8 2.427401 1_665
Li2 S10 2.440910 1_555
Li2 S5 2.448880 1_555
Li2 S0 2.468959 1_565
Li3 S9 2.427401 1_445
Li3 S11 2.440910 1_555
Li3 S4 2.448880 1_555
Li3 S1 2.468959 1_545
Li4 S14 2.427401 1_555
Li4 S12 2.440910 1_555
Li4 S6 2.448880 1_555
Li4 S3 2.468959 1_555
Li5 S15 2.427401 1_555
Li5 S13 2.440910 1_555
Li5 S7 2.448880 1_555
Li5 S2 2.468959 1_555
Li6 S12 2.427401 1_455
Li6 S14 2.440910 1_555
Li6 S4 2.448880 1_555
Li6 S1 2.468959 1_555
Li7 S13 2.427401 1_655
Li7 S15 2.440910 1_555
Li7 S5 2.448880 1_555
Li7 S0 2.468959 1_555
Li8 S9 2.470811 1_544
Li8 S8 2.470811 1_555
Li8 S4 2.566969 1_554
Li8 S5 2.566969 1_545
Li9 S10 2.470811 1_445
Li9 S11 2.470811 1_555
Li9 S7 2.566969 1_555
Li9 S6 2.566969 1_445
Li10 S12 2.470811 1_554
Li10 S13 2.470811 1_555
Li10 S4 2.566969 1_554
Li10 S5 2.566969 1_555
Li11 S15 2.470811 1_455
Li11 S14 2.470811 1_555
Li11 S7 2.566969 1_555
Li11 S6 2.566969 1_455
P0 S0 2.027389 1_455
P0 S8 2.042070 1_555
P0 S13 2.042070 1_555
P0 S4 2.075965 1_554
P1 S1 2.027389 1_655
P1 S9 2.042070 1_555
P1 S12 2.042070 1_555
P1 S5 2.075965 1_556
P2 S2 2.027389 1_555
P2 S10 2.042070 1_555
P2 S15 2.042070 1_555
P2 S6 2.075965 1_555
P3 S3 2.027389 1_555
P3 S11 2.042070 1_555
P3 S14 2.042070 1_555
P3 S7 2.075965 1_555
