# generated using pymatgen
data_Ce2Zn17
_symmetry_space_group_name_H-M   'P 1'
_cell_length_a   8.98707600
_cell_length_b   8.98689254
_cell_length_c   8.80802800
_cell_angle_alpha   90.00226744
_cell_angle_beta   89.99759828
_cell_angle_gamma   119.99958227
_symmetry_Int_Tables_number   1
_chemical_formula_structural   Ce2Zn17
_chemical_formula_sum   'Ce4 Zn34'
_cell_volume   616.08283521
_cell_formula_units_Z   2
loop_
 _symmetry_equiv_pos_site_id
 _symmetry_equiv_pos_as_xyz
  1  'x, y, z'
loop_
 _atom_site_type_symbol
 _atom_site_label
 _atom_site_symmetry_multiplicity
 _atom_site_fract_x
 _atom_site_fract_y
 _atom_site_fract_z
 _atom_site_occupancy
  Ce  Ce0  1  0.33327500  0.66667100  0.74999600  1
  Ce  Ce1  1  0.66670100  0.33331600  0.25000500  1
  Ce  Ce2  1  0.99996000  0.99997000  0.25000900  1
  Ce  Ce3  1  0.00003200  0.00002400  0.74999200  1
  Zn  Zn0  1  0.32984100  0.95966100  0.25000200  1
  Zn  Zn1  1  0.66996800  0.04019700  0.74999400  1
  Zn  Zn2  1  0.04030500  0.37013000  0.24999200  1
  Zn  Zn3  1  0.62983000  0.67012800  0.25001000  1
  Zn  Zn4  1  0.37024700  0.33006700  0.74998400  1
  Zn  Zn5  1  0.95979100  0.62977100  0.75001100  1
  Zn  Zn6  1  0.37023700  0.04018700  0.75000300  1
  Zn  Zn7  1  0.66993500  0.62978000  0.74999200  1
  Zn  Zn8  1  0.95979000  0.33001200  0.75000200  1
  Zn  Zn9  1  0.04031400  0.67016500  0.25000600  1
  Zn  Zn10  1  0.32985500  0.37017700  0.25001100  1
  Zn  Zn11  1  0.62984200  0.95968400  0.24999200  1
  Zn  Zn12  1  0.49997500  0.99996100  0.99991500  1
  Zn  Zn13  1  0.49995500  0.99991800  0.50009000  1
  Zn  Zn14  1  0.00007100  0.50003600  0.99991100  1
  Zn  Zn15  1  0.49995300  0.50004800  0.99990700  1
  Zn  Zn16  1  0.49995800  0.50003600  0.50007700  1
  Zn  Zn17  1  0.00005500  0.50003200  0.50009400  1
  Zn  Zn18  1  0.33333800  0.66668600  0.10066300  1
  Zn  Zn19  1  0.66667100  0.33332400  0.60081000  1
  Zn  Zn20  1  0.66667600  0.33335400  0.89917800  1
  Zn  Zn21  1  0.33331500  0.66666100  0.39935400  1
  Zn  Zn22  1  0.16208700  0.32419200  0.97789600  1
  Zn  Zn23  1  0.83794700  0.67589100  0.47791400  1
  Zn  Zn24  1  0.67581100  0.83792700  0.97791900  1
  Zn  Zn25  1  0.16208100  0.83791200  0.97786800  1
  Zn  Zn26  1  0.83794600  0.16205600  0.47791000  1
  Zn  Zn27  1  0.32412500  0.16205800  0.47791300  1
  Zn  Zn28  1  0.83795800  0.67587200  0.02208200  1
  Zn  Zn29  1  0.83795000  0.16205800  0.02210400  1
  Zn  Zn30  1  0.32412100  0.16204900  0.02207300  1
  Zn  Zn31  1  0.67582100  0.83791000  0.52208600  1
  Zn  Zn32  1  0.16208500  0.83790100  0.52212400  1
  Zn  Zn33  1  0.16207400  0.32417300  0.52211100  1
loop_
_geom_bond_atom_site_label_1
_geom_bond_atom_site_label_2
_geom_bond_distance
_geom_bond_site_symmetry_2
Ce0 Zn21 3.088465 1_555
Ce0 Zn18 3.088685 1_556
Ce0 Zn6 3.203603 1_565
Ce0 Zn5 3.203622 1_455
Ce0 Zn8 3.203899 1_455
Ce0 Zn4 3.204105 1_555
Ce0 Zn1 3.204226 1_565
Ce0 Zn7 3.204244 1_555
Ce0 Zn25 3.336314 1_555
Ce0 Zn32 3.336371 1_555
Ce0 Zn33 3.336807 1_555
Ce0 Zn22 3.336837 1_555
Ce0 Zn31 3.337275 1_555
Ce0 Zn24 3.337364 1_555
Ce0 Zn14 3.401575 1_555
Ce0 Zn17 3.401681 1_555
Ce0 Zn13 3.401817 1_555
Ce0 Zn12 3.402074 1_555
Ce0 Zn16 3.402205 1_555
Ce0 Zn15 3.402216 1_555
Ce1 Zn19 3.089900 1_555
Ce1 Zn20 3.090094 1_554
Ce1 Zn2 3.205021 1_655
Ce1 Zn11 3.205030 1_545
Ce1 Zn9 3.205279 1_655
Ce1 Zn3 3.205444 1_555
Ce1 Zn0 3.205525 1_545
Ce1 Zn10 3.205754 1_555
Ce1 Zn29 3.336915 1_555
Ce1 Zn26 3.337075 1_555
Ce1 Zn23 3.337413 1_555
Ce1 Zn28 3.337438 1_555
Ce1 Zn27 3.337451 1_555
Ce1 Zn30 3.337685 1_555
Ce1 Zn12 3.403434 1_544
Ce1 Zn17 3.403542 1_655
Ce1 Zn14 3.403580 1_654
Ce1 Zn13 3.403733 1_545
Ce1 Zn16 3.403937 1_555
Ce1 Zn15 3.404344 1_554
Ce2 Zn11 3.160847 1_555
Ce2 Zn9 3.160895 1_655
Ce2 Zn2 3.160934 1_665
Ce2 Zn3 3.160937 1_555
Ce2 Zn0 3.161394 1_655
Ce2 Zn10 3.161522 1_665
Ce2 Zn23 3.223621 1_555
Ce2 Zn26 3.223627 1_565
Ce2 Zn29 3.223784 1_565
Ce2 Zn28 3.223790 1_555
Ce2 Zn27 3.224186 1_665
Ce2 Zn30 3.224257 1_665
Ce2 Zn31 3.479543 1_555
Ce2 Zn24 3.479767 1_554
Ce2 Zn33 3.480026 1_665
Ce2 Zn25 3.480090 1_654
Ce2 Zn32 3.480180 1_655
Ce2 Zn22 3.480274 1_664
Ce3 Zn8 3.161944 1_455
Ce3 Zn6 3.162081 1_555
Ce3 Zn4 3.162126 1_555
Ce3 Zn5 3.162151 1_445
Ce3 Zn1 3.162318 1_455
Ce3 Zn7 3.162463 1_445
Ce3 Zn32 3.223909 1_545
Ce3 Zn33 3.223916 1_555
Ce3 Zn25 3.224009 1_545
Ce3 Zn22 3.224090 1_555
Ce3 Zn31 3.224477 1_445
Ce3 Zn24 3.224573 1_445
Ce3 Zn27 3.479296 1_555
Ce3 Zn30 3.479374 1_556
Ce3 Zn23 3.479485 1_445
Ce3 Zn26 3.479551 1_455
Ce3 Zn29 3.479558 1_456
Ce3 Zn28 3.479740 1_446
Zn0 Zn12 2.601397 1_554
Zn0 Zn13 2.601455 1_555
Zn0 Zn9 2.601852 1_555
Zn0 Zn11 2.696028 1_555
Zn0 Zn27 2.726553 1_565
Zn0 Zn30 2.726737 1_565
Zn0 Zn32 2.750540 1_555
Zn0 Zn25 2.750667 1_554
Zn0 Zn18 2.957369 1_555
Zn0 Zn21 2.957621 1_555
Zn1 Zn13 2.599582 1_545
Zn1 Zn12 2.599591 1_545
Zn1 Zn8 2.604611 1_555
Zn1 Zn6 2.693660 1_555
Zn1 Zn31 2.726299 1_545
Zn1 Zn24 2.726383 1_545
Zn1 Zn26 2.751055 1_555
Zn1 Zn29 2.751304 1_556
Zn1 Zn19 2.957261 1_555
Zn1 Zn20 2.957388 1_555
Zn2 Zn9 2.696342 1_555
Zn2 Zn29 2.726227 1_455
Zn2 Zn26 2.726437 1_455
Zn2 Zn22 2.750210 1_554
Zn2 Zn33 2.750499 1_555
Zn2 Zn21 2.957927 1_555
Zn3 Zn31 2.750269 1_555
Zn4 Zn6 2.605075 1_555
Zn4 Zn7 2.693421 1_555
Zn5 Zn7 2.604998 1_555
Zn5 Zn8 2.693897 1_555
Zn10 Zn16 2.601229 1_555
Zn10 Zn15 2.601483 1_554
Zn10 Zn2 2.601997 1_555
Zn10 Zn3 2.695780 1_555
Zn10 Zn27 2.726597 1_555
Zn10 Zn30 2.726768 1_555
Zn10 Zn33 2.750446 1_555
Zn10 Zn22 2.750609 1_554
Zn10 Zn21 2.957628 1_555
Zn10 Zn18 2.957851 1_555
Zn11 Zn12 2.601490 1_554
Zn11 Zn13 2.601493 1_555
Zn11 Zn3 2.602155 1_555
Zn11 Zn29 2.726392 1_565
Zn11 Zn26 2.726577 1_565
Zn11 Zn24 2.750018 1_554
Zn11 Zn31 2.750389 1_555
Zn11 Zn18 2.957642 1_555
Zn11 Zn21 2.957958 1_555
Zn12 Zn6 2.599492 1_565
Zn12 Zn24 2.637471 1_555
Zn12 Zn25 2.637746 1_555
Zn12 Zn30 2.638131 1_566
Zn12 Zn29 2.638465 1_566
Zn12 Zn18 2.741462 1_556
Zn12 Zn20 2.742300 1_565
Zn13 Zn6 2.599440 1_565
Zn13 Zn31 2.637526 1_555
Zn13 Zn32 2.637545 1_555
Zn13 Zn27 2.638371 1_565
Zn13 Zn26 2.638566 1_565
Zn13 Zn21 2.741260 1_555
Zn13 Zn19 2.742311 1_565
Zn14 Zn5 2.599554 1_455
Zn14 Zn8 2.599570 1_455
Zn14 Zn9 2.601499 1_556
Zn14 Zn2 2.601550 1_556
Zn14 Zn22 2.637406 1_555
Zn14 Zn25 2.637554 1_555
Zn14 Zn28 2.638187 1_456
Zn14 Zn29 2.638431 1_456
Zn14 Zn18 2.741468 1_556
Zn14 Zn20 2.742357 1_455
Zn15 Zn7 2.599501 1_555
Zn15 Zn4 2.599519 1_555
Zn15 Zn3 2.601423 1_556
Zn15 Zn22 2.637510 1_555
Zn15 Zn24 2.637542 1_555
Zn15 Zn30 2.638571 1_556
Zn15 Zn28 2.638674 1_556
Zn15 Zn18 2.741275 1_556
Zn15 Zn20 2.742406 1_555
Zn16 Zn4 2.599387 1_555
Zn16 Zn7 2.599532 1_555
Zn16 Zn3 2.601206 1_555
Zn16 Zn31 2.637511 1_555
Zn16 Zn33 2.637654 1_555
Zn16 Zn27 2.638401 1_555
Zn16 Zn23 2.638540 1_555
Zn16 Zn21 2.741371 1_555
Zn16 Zn19 2.742555 1_555
Zn17 Zn5 2.599543 1_455
Zn17 Zn8 2.599643 1_455
Zn17 Zn9 2.601520 1_555
Zn17 Zn2 2.601637 1_555
Zn17 Zn32 2.637478 1_555
Zn17 Zn33 2.637566 1_555
Zn17 Zn23 2.638353 1_455
Zn17 Zn26 2.638403 1_455
Zn17 Zn21 2.741340 1_555
Zn17 Zn19 2.742185 1_455
Zn18 Zn21 2.630879 1_555
Zn18 Zn24 2.876377 1_554
Zn18 Zn22 2.876558 1_554
Zn18 Zn25 2.876650 1_554
Zn18 Zn9 2.957751 1_555
Zn18 Zn3 2.957924 1_555
Zn18 Zn2 2.957987 1_555
Zn19 Zn20 2.628034 1_555
Zn19 Zn26 2.877336 1_555
Zn19 Zn27 2.877461 1_555
Zn19 Zn23 2.877555 1_555
Zn19 Zn4 2.957333 1_555
Zn19 Zn8 2.957340 1_555
Zn19 Zn6 2.957366 1_555
Zn19 Zn5 2.957388 1_555
Zn19 Zn7 2.957548 1_555
Zn20 Zn28 2.877185 1_556
Zn20 Zn30 2.877468 1_556
Zn20 Zn29 2.877711 1_556
Zn20 Zn5 2.957107 1_555
Zn20 Zn8 2.957260 1_555
Zn20 Zn4 2.957431 1_555
Zn20 Zn7 2.957434 1_555
Zn20 Zn6 2.957441 1_555
Zn21 Zn32 2.876379 1_555
Zn21 Zn33 2.876525 1_555
Zn21 Zn31 2.876626 1_555
Zn21 Zn9 2.957787 1_555
Zn21 Zn3 2.957900 1_555
Zn22 Zn29 2.552644 1_456
Zn22 Zn30 2.552897 1_556
Zn22 Zn8 2.726301 1_455
Zn22 Zn4 2.726406 1_555
Zn23 Zn31 2.552608 1_555
Zn23 Zn32 2.552674 1_655
Zn23 Zn9 2.726404 1_655
Zn23 Zn3 2.726531 1_555
Zn23 Zn7 2.751141 1_555
Zn23 Zn5 2.751161 1_555
Zn24 Zn29 2.552518 1_566
Zn24 Zn28 2.553071 1_556
Zn24 Zn7 2.726399 1_555
Zn24 Zn3 2.750541 1_556
Zn25 Zn28 2.552545 1_456
Zn25 Zn30 2.552591 1_566
Zn25 Zn5 2.726056 1_455
Zn25 Zn6 2.726107 1_565
Zn25 Zn9 2.750664 1_556
Zn26 Zn33 2.552585 1_655
Zn26 Zn31 2.552638 1_545
Zn26 Zn8 2.751028 1_555
Zn27 Zn32 2.552769 1_545
Zn27 Zn33 2.552804 1_555
Zn27 Zn4 2.751051 1_555
Zn27 Zn6 2.751188 1_555
Zn28 Zn9 2.726496 1_655
Zn28 Zn3 2.726697 1_555
Zn28 Zn5 2.750747 1_554
Zn28 Zn7 2.751383 1_554
Zn29 Zn8 2.751118 1_554
Zn30 Zn6 2.750903 1_554
Zn30 Zn4 2.751296 1_554
Zn31 Zn7 2.726236 1_555
Zn32 Zn5 2.726224 1_455
Zn32 Zn6 2.726226 1_565
Zn32 Zn9 2.750456 1_555
Zn33 Zn8 2.726147 1_455
Zn33 Zn4 2.726290 1_555
