# generated using pymatgen
data_Th(CuSn)2
_symmetry_space_group_name_H-M   'P 1'
_cell_length_a   4.43898880
_cell_length_b   4.43898880
_cell_length_c   10.55907541
_cell_angle_alpha   90.00000000
_cell_angle_beta   90.00000000
_cell_angle_gamma   90.00000000
_symmetry_Int_Tables_number   1
_chemical_formula_structural   Th(CuSn)2
_chemical_formula_sum   'Th2 Cu4 Sn4'
_cell_volume   208.06258505
_cell_formula_units_Z   2
loop_
 _symmetry_equiv_pos_site_id
 _symmetry_equiv_pos_as_xyz
  1  'x, y, z'
loop_
 _atom_site_type_symbol
 _atom_site_label
 _atom_site_symmetry_multiplicity
 _atom_site_fract_x
 _atom_site_fract_y
 _atom_site_fract_z
 _atom_site_occupancy
  Th  Th0  1  0.75000000  0.75000000  0.23954966  1
  Th  Th1  1  0.24999900  0.24999900  0.76045034  1
  Cu  Cu0  1  0.75000000  0.24999900  -0.00000000  1
  Cu  Cu1  1  0.24999900  0.75000000  -0.00000000  1
  Cu  Cu2  1  0.24999900  0.24999900  0.36394436  1
  Cu  Cu3  1  0.75000000  0.75000000  0.63605464  1
  Sn  Sn0  1  0.24999900  0.24999900  0.12801680  1
  Sn  Sn1  1  0.75000000  0.24999900  0.50000000  1
  Sn  Sn2  1  0.24999900  0.75000000  0.50000000  1
  Sn  Sn3  1  0.75000000  0.75000000  0.87198320  1
loop_
_geom_bond_atom_site_label_1
_geom_bond_atom_site_label_2
_geom_bond_distance
_geom_bond_site_symmetry_2
Cu0 Sn3 2.598718 1_544
Cu0 Sn0 2.598718 1_655
Cu0 Sn0 2.598725 1_555
Cu0 Sn3 2.598725 1_554
Cu0 Th0 3.365132 1_545
Cu0 Th1 3.365132 1_654
Cu0 Th1 3.365138 1_554
Cu0 Th0 3.365138 1_555
Cu1 Sn0 2.598718 1_565
Cu1 Sn3 2.598718 1_454
Cu1 Sn0 2.598725 1_555
Cu1 Sn3 2.598725 1_554
Cu1 Th0 3.365132 1_455
Cu1 Th1 3.365132 1_564
Cu1 Th1 3.365138 1_554
Cu1 Th0 3.365138 1_555
Cu2 Sn0 2.491177 1_555
Cu2 Sn2 2.643864 1_545
Cu2 Sn1 2.643864 1_455
Cu2 Sn2 2.643872 1_555
Cu2 Sn1 2.643872 1_555
Cu2 Th0 3.402578 1_445
Cu2 Th0 3.402584 1_455
Cu2 Th0 3.402584 1_545
Cu2 Th0 3.402589 1_555
Cu3 Sn3 2.491187 1_555
Cu3 Sn2 2.643858 1_655
Cu3 Sn1 2.643858 1_565
Cu3 Sn1 2.643866 1_555
Cu3 Sn2 2.643866 1_555
Cu3 Th1 3.402582 1_665
Cu3 Th1 3.402588 1_655
Cu3 Th1 3.402588 1_565
Cu3 Th1 3.402593 1_555
Sn0 Th0 3.352493 1_445
Sn0 Th0 3.352499 1_545
Sn0 Th0 3.352499 1_455
Sn0 Th0 3.352505 1_555
Sn1 Th0 3.534016 1_545
Sn1 Th1 3.534016 1_655
Sn1 Th0 3.534021 1_555
Sn1 Th1 3.534021 1_555
Sn2 Th0 3.534016 1_455
Sn2 Th1 3.534016 1_565
Sn2 Th0 3.534021 1_555
Sn2 Th1 3.534021 1_555
Sn3 Th1 3.352493 1_665
Sn3 Th1 3.352499 1_655
Sn3 Th1 3.352499 1_565
Sn3 Th1 3.352505 1_555
