# generated using pymatgen
data_LaNiSb
_symmetry_space_group_name_H-M   'P 1'
_cell_length_a   4.87031534
_cell_length_b   4.87031534
_cell_length_c   4.87031534
_cell_angle_alpha   60.00000000
_cell_angle_beta   60.00000000
_cell_angle_gamma   60.00000000
_symmetry_Int_Tables_number   1
_chemical_formula_structural   LaNiSb
_chemical_formula_sum   'La1 Ni1 Sb1'
_cell_volume   81.68762049
_cell_formula_units_Z   1
loop_
 _symmetry_equiv_pos_site_id
 _symmetry_equiv_pos_as_xyz
  1  'x, y, z'
loop_
 _atom_site_type_symbol
 _atom_site_label
 _atom_site_symmetry_multiplicity
 _atom_site_fract_x
 _atom_site_fract_y
 _atom_site_fract_z
 _atom_site_occupancy
  La  La0  1  0.25000000  0.25000000  0.25000000  1
  Ni  Ni0  1  0.75000000  0.75000000  0.75000000  1
  Sb  Sb0  1  0.00000000  0.00000000  0.00000000  1
loop_
_geom_bond_atom_site_label_1
_geom_bond_atom_site_label_2
_geom_bond_distance
_geom_bond_site_symmetry_2
La0 Sb0 2.982447 1_555
La0 Sb0 2.982447 1_556
La0 Sb0 2.982447 1_565
La0 Sb0 2.982447 1_655
La0 Ni0 3.443833 1_454
La0 Ni0 3.443833 1_455
La0 Ni0 3.443833 1_545
La0 Ni0 3.443833 1_544
La0 Ni0 3.443833 1_445
La0 Ni0 3.443833 1_554
Ni0 Sb0 2.982447 1_566
Ni0 Sb0 2.982447 1_656
Ni0 Sb0 2.982447 1_666
Ni0 Sb0 2.982447 1_665
