# generated using pymatgen
data_TmHfCo2
_symmetry_space_group_name_H-M   'P 1'
_cell_length_a   4.55753067
_cell_length_b   4.55753067
_cell_length_c   4.55753142
_cell_angle_alpha   59.99999456
_cell_angle_beta   60.00000544
_cell_angle_gamma   60.00000000
_symmetry_Int_Tables_number   1
_chemical_formula_structural   TmHfCo2
_chemical_formula_sum   'Tm1 Hf1 Co2'
_cell_volume   66.93817575
_cell_formula_units_Z   1
loop_
 _symmetry_equiv_pos_site_id
 _symmetry_equiv_pos_as_xyz
  1  'x, y, z'
loop_
 _atom_site_type_symbol
 _atom_site_label
 _atom_site_symmetry_multiplicity
 _atom_site_fract_x
 _atom_site_fract_y
 _atom_site_fract_z
 _atom_site_occupancy
  Tm  Tm0  1  0.74999900  0.74999900  0.74999900  1
  Hf  Hf0  1  0.25000000  0.25000000  0.25000000  1
  Co  Co0  1  0.50000000  0.50000000  0.50000000  1
  Co  Co1  1  0.00000000  -0.00000000  -0.00000000  1
loop_
_geom_bond_atom_site_label_1
_geom_bond_atom_site_label_2
_geom_bond_distance
_geom_bond_site_symmetry_2
Co0 Tm0 2.790895 1_555
Co0 Hf0 2.790906 1_565
Co0 Hf0 2.790906 1_655
Co0 Hf0 2.790906 1_555
Co0 Hf0 2.790907 1_556
Co0 Tm0 2.790910 1_545
Co0 Tm0 2.790910 1_455
Co0 Tm0 2.790910 1_554
Co1 Tm0 2.790902 1_454
Co1 Tm0 2.790903 1_544
Co1 Tm0 2.790903 1_445
Co1 Hf0 2.790906 1_545
Co1 Hf0 2.790906 1_455
Co1 Hf0 2.790906 1_555
Co1 Hf0 2.790907 1_554
Co1 Tm0 2.790917 1_444
