# generated using pymatgen
data_Hf5Al3N
_symmetry_space_group_name_H-M   'P 1'
_cell_length_a   8.08968859
_cell_length_b   8.08968859
_cell_length_c   5.66636300
_cell_angle_alpha   90.00000000
_cell_angle_beta   90.00000000
_cell_angle_gamma   120.00000484
_symmetry_Int_Tables_number   1
_chemical_formula_structural   Hf5Al3N
_chemical_formula_sum   'Hf10 Al6 N2'
_cell_volume   321.14311196
_cell_formula_units_Z   2
loop_
 _symmetry_equiv_pos_site_id
 _symmetry_equiv_pos_as_xyz
  1  'x, y, z'
loop_
 _atom_site_type_symbol
 _atom_site_label
 _atom_site_symmetry_multiplicity
 _atom_site_fract_x
 _atom_site_fract_y
 _atom_site_fract_z
 _atom_site_occupancy
  Hf  Hf0  1  0.66666700  0.33333300  0.00000000  1
  Hf  Hf1  1  0.33333300  0.66666700  0.00000000  1
  Hf  Hf2  1  0.22413800  0.00000000  0.25000000  1
  Hf  Hf3  1  0.00000000  0.22413800  0.25000000  1
  Hf  Hf4  1  0.77586200  0.77586200  0.25000000  1
  Hf  Hf5  1  0.66666700  0.33333300  0.50000000  1
  Hf  Hf6  1  0.33333300  0.66666700  0.50000000  1
  Hf  Hf7  1  0.77586200  0.00000000  0.75000000  1
  Hf  Hf8  1  0.00000000  0.77586200  0.75000000  1
  Hf  Hf9  1  0.22413800  0.22413800  0.75000000  1
  Al  Al0  1  0.59663400  0.00000000  0.25000000  1
  Al  Al1  1  0.00000000  0.59663400  0.25000000  1
  Al  Al2  1  0.40336600  0.40336600  0.25000000  1
  Al  Al3  1  0.40336600  0.00000000  0.75000000  1
  Al  Al4  1  0.00000000  0.40336600  0.75000000  1
  Al  Al5  1  0.59663400  0.59663400  0.75000000  1
  N  N0  1  0.00000000  0.00000000  0.00000000  1
  N  N1  1  0.00000000  0.00000000  0.50000000  1
loop_
_geom_bond_atom_site_label_1
_geom_bond_atom_site_label_2
_geom_bond_distance
_geom_bond_site_symmetry_2
Hf0 Hf5 2.833181 1_554
Hf0 Hf5 2.833181 1_555
Hf1 Hf6 2.833181 1_555
Hf1 Hf6 2.833181 1_554
Hf2 N0 2.300967 1_555
Hf2 N1 2.300967 1_555
Hf3 N0 2.300967 1_555
Hf3 N1 2.300967 1_555
Hf4 N0 2.300967 1_665
Hf4 N1 2.300967 1_665
Hf7 N0 2.300967 1_656
Hf7 N1 2.300967 1_655
Hf8 N0 2.300967 1_566
Hf8 N1 2.300967 1_565
Hf9 N0 2.300967 1_556
Hf9 N1 2.300967 1_555
Al0 Hf3 2.831764 1_655
Al0 Hf4 2.831765 1_545
Al0 Hf5 2.841024 1_555
Al0 Hf0 2.841024 1_555
Al0 Hf6 2.841026 1_545
Al0 Hf1 2.841026 1_545
Al0 Hf2 3.013377 1_555
Al0 Hf7 3.182628 1_554
Al0 Hf7 3.182628 1_555
Al1 Hf2 2.831764 1_565
Al1 Hf4 2.831765 1_455
Al1 Hf6 2.841024 1_555
Al1 Hf1 2.841024 1_555
Al1 Hf5 2.841026 1_455
Al1 Hf0 2.841026 1_455
Al1 Hf3 3.013377 1_555
Al1 Hf8 3.182628 1_555
Al1 Hf8 3.182628 1_554
Al2 Hf3 2.831764 1_555
Al2 Hf2 2.831764 1_555
Al2 Hf1 2.841031 1_555
Al2 Hf0 2.841031 1_555
Al2 Hf6 2.841031 1_555
Al2 Hf5 2.841031 1_555
Al2 Hf4 3.013376 1_555
Al2 Hf9 3.182628 1_555
Al2 Hf9 3.182628 1_554
Al3 Hf8 2.831764 1_545
Al3 Hf9 2.831765 1_555
Al3 Hf6 2.841024 1_545
Al3 Hf1 2.841024 1_546
Al3 Hf5 2.841026 1_555
Al3 Hf0 2.841026 1_556
Al3 Hf7 3.013377 1_555
Al3 Hf2 3.182628 1_555
Al3 Hf2 3.182628 1_556
Al4 Hf7 2.831764 1_455
Al4 Hf9 2.831765 1_555
Al4 Hf5 2.841024 1_455
Al4 Hf0 2.841024 1_456
Al4 Hf6 2.841026 1_555
Al4 Hf1 2.841026 1_556
Al4 Hf8 3.013377 1_555
Al4 Hf3 3.182628 1_555
Al4 Hf3 3.182628 1_556
Al5 Hf7 2.831764 1_565
Al5 Hf8 2.831764 1_655
Al5 Hf0 2.841031 1_556
Al5 Hf1 2.841031 1_556
Al5 Hf6 2.841031 1_555
Al5 Hf5 2.841031 1_555
Al5 Hf9 3.013376 1_555
Al5 Hf4 3.182628 1_555
Al5 Hf4 3.182628 1_556
