# generated using pymatgen
data_HgS
_symmetry_space_group_name_H-M   'P 1'
_cell_length_a   4.43070827
_cell_length_b   4.43070827
_cell_length_c   9.74559100
_cell_angle_alpha   90.00000000
_cell_angle_beta   90.00000000
_cell_angle_gamma   120.00000408
_symmetry_Int_Tables_number   1
_chemical_formula_structural   HgS
_chemical_formula_sum   'Hg3 S3'
_cell_volume   165.68573061
_cell_formula_units_Z   3
loop_
 _symmetry_equiv_pos_site_id
 _symmetry_equiv_pos_as_xyz
  1  'x, y, z'
loop_
 _atom_site_type_symbol
 _atom_site_label
 _atom_site_symmetry_multiplicity
 _atom_site_fract_x
 _atom_site_fract_y
 _atom_site_fract_z
 _atom_site_occupancy
  Hg  Hg0  1  0.75845000  0.75845000  0.00000000  1
  Hg  Hg1  1  0.24155000  0.00000000  0.66666700  1
  Hg  Hg2  1  0.00000000  0.24155000  0.33333300  1
  S  S0  1  0.45651200  0.45651200  0.50000000  1
  S  S1  1  0.54348800  0.00000000  0.16666700  1
  S  S2  1  0.00000000  0.54348800  0.83333300  1
loop_
_geom_bond_atom_site_label_1
_geom_bond_atom_site_label_2
_geom_bond_distance
_geom_bond_site_symmetry_2
Hg0 S2 2.389585 1_654
Hg0 S1 2.389585 1_565
Hg1 S2 2.389578 1_545
Hg1 S0 2.389585 1_555
Hg2 S1 2.389578 1_455
Hg2 S0 2.389585 1_555
