# generated using pymatgen
data_Rb3Er
_symmetry_space_group_name_H-M   'P 1'
_cell_length_a   9.09526924
_cell_length_b   9.09526924
_cell_length_c   7.39932900
_cell_angle_alpha   90.00000000
_cell_angle_beta   90.00000000
_cell_angle_gamma   119.99999449
_symmetry_Int_Tables_number   1
_chemical_formula_structural   Rb3Er
_chemical_formula_sum   'Rb6 Er2'
_cell_volume   530.09549499
_cell_formula_units_Z   2
loop_
 _symmetry_equiv_pos_site_id
 _symmetry_equiv_pos_as_xyz
  1  'x, y, z'
loop_
 _atom_site_type_symbol
 _atom_site_label
 _atom_site_symmetry_multiplicity
 _atom_site_fract_x
 _atom_site_fract_y
 _atom_site_fract_z
 _atom_site_occupancy
  Rb  Rb0  1  0.17369400  0.34738700  0.25000000  1
  Rb  Rb1  1  0.65261300  0.82630600  0.25000000  1
  Rb  Rb2  1  0.17369400  0.82630600  0.25000000  1
  Rb  Rb3  1  0.82630600  0.65261300  0.75000000  1
  Rb  Rb4  1  0.34738700  0.17369400  0.75000000  1
  Rb  Rb5  1  0.82630600  0.17369400  0.75000000  1
  Er  Er0  1  0.33333300  0.66666700  0.75000000  1
  Er  Er1  1  0.66666700  0.33333300  0.25000000  1
loop_
_geom_bond_atom_site_label_1
_geom_bond_atom_site_label_2
_geom_bond_distance
_geom_bond_site_symmetry_2
Rb0 Rb2 4.355897 1_555
Rb0 Rb1 4.355898 1_555
Rb0 Rb4 4.601595 1_555
Rb0 Rb4 4.601595 1_554
Rb0 Rb5 4.601604 1_455
Rb0 Rb5 4.601604 1_454
Rb0 Rb2 4.739372 1_545
Rb0 Rb1 4.739372 1_445
Rb1 Rb2 4.355897 1_555
Rb1 Rb3 4.601595 1_555
Rb1 Rb3 4.601595 1_554
Rb1 Rb5 4.601604 1_565
Rb1 Rb5 4.601604 1_564
Rb1 Rb2 4.739372 1_655
Rb2 Rb3 4.601604 1_455
Rb2 Rb4 4.601604 1_565
Rb2 Rb4 4.601604 1_564
Rb2 Rb3 4.601604 1_454
Rb3 Rb5 4.355897 1_555
Rb3 Rb4 4.355898 1_555
Rb3 Rb5 4.739372 1_565
Rb3 Rb4 4.739372 1_665
Rb4 Rb5 4.355897 1_555
Rb4 Rb5 4.739372 1_455
Er0 Rb2 4.473486 1_555
Er0 Rb2 4.473486 1_556
Er0 Rb0 4.473495 1_555
Er0 Rb0 4.473495 1_556
Er0 Rb1 4.473495 1_555
Er0 Rb1 4.473495 1_556
Er0 Rb3 4.548982 1_555
Er0 Rb4 4.548982 1_555
Er0 Rb3 4.548982 1_455
Er0 Rb4 4.548982 1_565
Er0 Rb5 4.548982 1_565
Er0 Rb5 4.548982 1_455
Er1 Rb5 4.473486 1_554
Er1 Rb5 4.473486 1_555
Er1 Rb3 4.473495 1_554
Er1 Rb4 4.473495 1_555
Er1 Rb4 4.473495 1_554
Er1 Rb3 4.473495 1_555
Er1 Rb0 4.548982 1_555
Er1 Rb1 4.548982 1_555
Er1 Rb0 4.548982 1_655
Er1 Rb1 4.548982 1_545
Er1 Rb2 4.548982 1_655
Er1 Rb2 4.548982 1_545
