# generated using pymatgen
data_Dy3Sb4Au3
_symmetry_space_group_name_H-M   'P 1'
_cell_length_a   8.55629266
_cell_length_b   8.55629266
_cell_length_c   8.55629266
_cell_angle_alpha   109.47026189
_cell_angle_beta   109.47026189
_cell_angle_gamma   109.47026189
_symmetry_Int_Tables_number   1
_chemical_formula_structural   Dy3Sb4Au3
_chemical_formula_sum   'Dy6 Sb8 Au6'
_cell_volume   482.22577169
_cell_formula_units_Z   2
loop_
 _symmetry_equiv_pos_site_id
 _symmetry_equiv_pos_as_xyz
  1  'x, y, z'
loop_
 _atom_site_type_symbol
 _atom_site_label
 _atom_site_symmetry_multiplicity
 _atom_site_fract_x
 _atom_site_fract_y
 _atom_site_fract_z
 _atom_site_occupancy
  Dy  Dy0  1  0.25001711  0.62500980  0.37500314  1
  Dy  Dy1  1  0.74996889  0.87498665  0.12499287  1
  Dy  Dy2  1  0.37500314  0.25001711  0.62500980  1
  Dy  Dy3  1  0.62500980  0.37500314  0.25001711  1
  Dy  Dy4  1  0.12499287  0.74996889  0.87498665  1
  Dy  Dy5  1  0.87498665  0.12499287  0.74996889  1
  Sb  Sb0  1  0.17470501  0.17470501  0.17470501  1
  Sb  Sb1  1  0.49998876  -0.00000526  0.32536922  1
  Sb  Sb2  1  0.32536922  0.49998876  -0.00000526  1
  Sb  Sb3  1  -0.00000526  0.32536922  0.49998876  1
  Sb  Sb4  1  0.67465420  0.67465420  0.67465420  1
  Sb  Sb5  1  0.49996961  -0.00000636  0.82532263  1
  Sb  Sb6  1  -0.00000636  0.82532263  0.49996961  1
  Sb  Sb7  1  0.82532263  0.49996961  -0.00000636  1
  Au  Au0  1  0.25003190  0.12503512  0.87499582  1
  Au  Au1  1  0.74999043  0.37499360  0.62497185  1
  Au  Au2  1  0.87499582  0.25003190  0.12503512  1
  Au  Au3  1  0.12503512  0.87499582  0.25003190  1
  Au  Au4  1  0.62497185  0.74999043  0.37499360  1
  Au  Au5  1  0.37499360  0.62497185  0.74999043  1
loop_
_geom_bond_atom_site_label_1
_geom_bond_atom_site_label_2
_geom_bond_distance
_geom_bond_site_symmetry_2
Dy0 Sb0 3.377020 1_555
Dy0 Sb6 3.377101 1_555
Dy0 Sb5 3.377180 1_565
Dy0 Sb2 3.377327 1_555
Dy0 Sb1 3.462435 1_565
Dy0 Sb3 3.462632 1_555
Dy0 Sb4 3.462681 1_555
Dy0 Sb7 3.462932 1_455
Dy1 Sb1 3.377225 1_565
Dy1 Sb4 3.377294 1_554
Dy1 Sb7 3.377391 1_555
Dy1 Sb3 3.377508 1_665
Dy1 Sb2 3.462493 1_555
Dy1 Sb6 3.462704 1_655
Dy1 Sb5 3.462840 1_564
Dy1 Sb0 3.463253 1_665
Dy2 Sb0 3.377020 1_555
Dy2 Sb5 3.377101 1_555
Dy2 Sb7 3.377180 1_556
Dy2 Sb3 3.377327 1_555
Dy2 Sb2 3.462435 1_556
Dy2 Sb1 3.462632 1_555
Dy2 Sb4 3.462681 1_555
Dy2 Sb6 3.462932 1_545
Dy3 Sb0 3.377020 1_555
Dy3 Sb7 3.377101 1_555
Dy3 Sb6 3.377180 1_655
Dy3 Sb1 3.377327 1_555
Dy3 Sb3 3.462435 1_655
Dy3 Sb2 3.462632 1_555
Dy3 Sb4 3.462681 1_555
Dy3 Sb5 3.462932 1_554
Dy4 Sb2 3.377225 1_556
Dy4 Sb4 3.377294 1_455
Dy4 Sb6 3.377391 1_555
Dy4 Sb1 3.377508 1_566
Dy4 Sb3 3.462493 1_555
Dy4 Sb5 3.462704 1_565
Dy4 Sb7 3.462840 1_456
Dy4 Sb0 3.463253 1_566
Dy5 Sb3 3.377225 1_655
Dy5 Sb4 3.377294 1_545
Dy5 Sb5 3.377391 1_555
Dy5 Sb2 3.377508 1_656
Dy5 Sb1 3.462493 1_555
Dy5 Sb7 3.462704 1_556
Dy5 Sb6 3.462840 1_645
Dy5 Sb0 3.463253 1_656
Au0 Sb2 2.779642 1_556
Au0 Sb5 2.779696 1_555
Au0 Sb0 2.780298 1_556
Au0 Sb6 2.780377 1_545
Au0 Dy2 3.024787 1_555
Au0 Dy3 3.025228 1_556
Au0 Dy5 3.025319 1_455
Au0 Dy4 3.025621 1_545
Au1 Sb3 2.779824 1_655
Au1 Sb4 2.779942 1_555
Au1 Sb1 2.779950 1_555
Au1 Sb7 2.780223 1_556
Au1 Dy3 3.024798 1_555
Au1 Dy5 3.025067 1_555
Au1 Dy4 3.025142 1_655
Au1 Dy2 3.025175 1_555
Au2 Sb3 2.779642 1_655
Au2 Sb7 2.779696 1_555
Au2 Sb0 2.780298 1_655
Au2 Sb5 2.780377 1_554
Au2 Dy3 3.024787 1_555
Au2 Dy0 3.025228 1_655
Au2 Dy1 3.025319 1_545
Au2 Dy5 3.025621 1_554
Au3 Sb1 2.779642 1_565
Au3 Sb6 2.779696 1_555
Au3 Sb0 2.780298 1_565
Au3 Sb7 2.780377 1_455
Au3 Dy0 3.024787 1_555
Au3 Dy2 3.025228 1_565
Au3 Dy4 3.025319 1_554
Au3 Dy1 3.025621 1_455
Au4 Sb1 2.779824 1_565
Au4 Sb4 2.779942 1_555
Au4 Sb2 2.779950 1_555
Au4 Sb6 2.780223 1_655
Au4 Dy0 3.024798 1_555
Au4 Dy1 3.025067 1_555
Au4 Dy5 3.025142 1_565
Au4 Dy3 3.025175 1_555
Au5 Sb2 2.779824 1_556
Au5 Sb4 2.779942 1_555
Au5 Sb3 2.779950 1_555
Au5 Sb5 2.780223 1_565
Au5 Dy2 3.024798 1_555
Au5 Dy4 3.025067 1_555
Au5 Dy1 3.025142 1_556
Au5 Dy0 3.025175 1_555
