# generated using pymatgen
data_SrSiPt
_symmetry_space_group_name_H-M   'P 1'
_cell_length_a   6.51280424
_cell_length_b   6.51280424
_cell_length_c   6.51280424
_cell_angle_alpha   90.00000000
_cell_angle_beta   90.00000000
_cell_angle_gamma   90.00000000
_symmetry_Int_Tables_number   1
_chemical_formula_structural   SrSiPt
_chemical_formula_sum   'Sr4 Si4 Pt4'
_cell_volume   276.25113652
_cell_formula_units_Z   4
loop_
 _symmetry_equiv_pos_site_id
 _symmetry_equiv_pos_as_xyz
  1  'x, y, z'
loop_
 _atom_site_type_symbol
 _atom_site_label
 _atom_site_symmetry_multiplicity
 _atom_site_fract_x
 _atom_site_fract_y
 _atom_site_fract_z
 _atom_site_occupancy
  Sr  Sr0  1  0.13178087  0.13178087  0.13178087  1
  Sr  Sr1  1  0.86821913  0.63178087  0.36821913  1
  Sr  Sr2  1  0.36821913  0.86821913  0.63178087  1
  Sr  Sr3  1  0.63178087  0.36821913  0.86821913  1
  Si  Si0  1  0.34127388  0.65872612  0.15872612  1
  Si  Si1  1  0.65872612  0.15872612  0.34127388  1
  Si  Si2  1  0.15872612  0.34127388  0.65872612  1
  Si  Si3  1  0.84127388  0.84127388  0.84127388  1
  Pt  Pt0  1  0.58833981  0.91166019  0.08833981  1
  Pt  Pt1  1  0.41166019  0.41166019  0.41166019  1
  Pt  Pt2  1  0.91166019  0.08833981  0.58833981  1
  Pt  Pt3  1  0.08833981  0.58833981  0.91166019  1
loop_
_geom_bond_atom_site_label_1
_geom_bond_atom_site_label_2
_geom_bond_distance
_geom_bond_site_symmetry_2
Si0 Sr3 3.277066 1_554
Si0 Sr1 3.374074 1_455
Si0 Sr2 3.374074 1_555
Si0 Sr0 3.374074 1_565
Si1 Sr2 3.277066 1_545
Si1 Sr3 3.374074 1_554
Si1 Sr1 3.374074 1_555
Si1 Sr0 3.374074 1_655
Si2 Sr1 3.277066 1_455
Si2 Sr2 3.374074 1_545
Si2 Sr3 3.374074 1_555
Si2 Sr0 3.374074 1_556
Si3 Sr0 3.277066 1_666
Si3 Sr1 3.374074 1_555
Si3 Sr3 3.374074 1_555
Si3 Sr2 3.374074 1_555
Pt0 Si3 2.347967 1_554
Pt0 Si1 2.347967 1_565
Pt0 Si0 2.347967 1_555
Pt0 Sr1 3.157181 1_555
Pt0 Sr3 3.313131 1_564
Pt0 Sr2 3.313131 1_554
Pt0 Sr0 3.313131 1_565
Pt1 Si1 2.347967 1_555
Pt1 Si2 2.347967 1_555
Pt1 Si0 2.347967 1_555
Pt1 Sr0 3.157181 1_555
Pt1 Sr2 3.313131 1_555
Pt1 Sr3 3.313131 1_555
Pt1 Sr1 3.313131 1_555
Pt2 Si1 2.347967 1_555
Pt2 Si3 2.347967 1_545
Pt2 Si2 2.347967 1_655
Pt2 Sr3 3.157181 1_555
Pt2 Sr2 3.313131 1_645
Pt2 Sr1 3.313131 1_545
Pt2 Sr0 3.313131 1_655
Pt3 Si2 2.347967 1_555
Pt3 Si3 2.347967 1_455
Pt3 Si0 2.347967 1_556
Pt3 Sr2 3.157181 1_555
Pt3 Sr1 3.313131 1_456
Pt3 Sr3 3.313131 1_455
Pt3 Sr0 3.313131 1_556
