# generated using pymatgen
data_Tl2Cr3O12
_symmetry_space_group_name_H-M   'P 1'
_cell_length_a   8.78576166
_cell_length_b   8.71654015
_cell_length_c   12.92627704
_cell_angle_alpha   90.00000000
_cell_angle_beta   90.00000000
_cell_angle_gamma   90.00000000
_symmetry_Int_Tables_number   1
_chemical_formula_structural   Tl2Cr3O12
_chemical_formula_sum   'Tl8 Cr12 O48'
_cell_volume   989.91296460
_cell_formula_units_Z   4
loop_
 _symmetry_equiv_pos_site_id
 _symmetry_equiv_pos_as_xyz
  1  'x, y, z'
loop_
 _atom_site_type_symbol
 _atom_site_label
 _atom_site_symmetry_multiplicity
 _atom_site_fract_x
 _atom_site_fract_y
 _atom_site_fract_z
 _atom_site_occupancy
  Tl  Tl0  1  0.60310952  0.74785948  0.40665069  1
  Tl  Tl1  1  0.10310952  0.75214052  0.09334931  1
  Tl  Tl2  1  0.89689048  0.74785948  0.59334931  1
  Tl  Tl3  1  0.39689048  0.75214052  0.90665069  1
  Tl  Tl4  1  0.39689048  0.25214052  0.59334931  1
  Tl  Tl5  1  0.89689048  0.24785948  0.90665069  1
  Tl  Tl6  1  0.10310952  0.25214052  0.40665069  1
  Tl  Tl7  1  0.60310952  0.24785948  0.09334931  1
  Cr  Cr0  1  0.75000000  0.10919521  0.50000000  1
  Cr  Cr1  1  0.25000000  0.39080479  -0.00000000  1
  Cr  Cr2  1  0.25000000  0.89080479  0.50000000  1
  Cr  Cr3  1  0.75000000  0.60919521  -0.00000000  1
  Cr  Cr4  1  0.97026595  0.11689820  0.16770214  1
  Cr  Cr5  1  0.47026595  0.38310180  0.33229786  1
  Cr  Cr6  1  0.52973405  0.11689820  0.83229786  1
  Cr  Cr7  1  0.02973405  0.38310180  0.66770214  1
  Cr  Cr8  1  0.02973405  0.88310180  0.83229786  1
  Cr  Cr9  1  0.52973405  0.61689820  0.66770214  1
  Cr  Cr10  1  0.47026595  0.88310180  0.16770214  1
  Cr  Cr11  1  0.97026595  0.61689820  0.33229786  1
  O  O0  1  0.64115435  0.50125456  0.07311504  1
  O  O1  1  0.14115435  -0.00125456  0.42688496  1
  O  O2  1  0.85884565  0.50125456  0.92688496  1
  O  O3  1  0.35884565  -0.00125456  0.57311504  1
  O  O4  1  0.35884565  0.49874544  0.92688496  1
  O  O5  1  0.85884565  0.00125456  0.57311504  1
  O  O6  1  0.14115435  0.49874544  0.07311504  1
  O  O7  1  0.64115435  0.00125456  0.42688496  1
  O  O8  1  0.41597317  0.00580717  0.90114866  1
  O  O9  1  0.91597317  0.49419283  0.59885134  1
  O  O10  1  0.08402683  0.00580717  0.09885134  1
  O  O11  1  0.58402683  0.49419283  0.40114866  1
  O  O12  1  0.58402683  0.99419283  0.09885134  1
  O  O13  1  0.08402683  0.50580717  0.40114866  1
  O  O14  1  0.91597317  0.99419283  0.90114866  1
  O  O15  1  0.41597317  0.50580717  0.59885134  1
  O  O16  1  0.64319006  0.72134375  0.92666198  1
  O  O17  1  0.35680994  0.27865625  0.07333802  1
  O  O18  1  0.14319006  0.27865625  0.92666198  1
  O  O19  1  0.64319006  0.22134375  0.57333802  1
  O  O20  1  0.64184408  0.72233116  0.58335346  1
  O  O21  1  0.14184408  0.77766884  0.91664654  1
  O  O22  1  0.85815592  0.72233116  0.41664654  1
  O  O23  1  0.35815592  0.77766884  0.08335346  1
  O  O24  1  0.35815592  0.27766884  0.41664654  1
  O  O25  1  0.85815592  0.22233116  0.08335346  1
  O  O26  1  0.14184408  0.27766884  0.58335346  1
  O  O27  1  0.64184408  0.22233116  0.91664654  1
  O  O28  1  0.63522167  0.01655846  0.76037995  1
  O  O29  1  0.13522167  0.48344154  0.73962005  1
  O  O30  1  0.86477833  0.01655846  0.23962005  1
  O  O31  1  0.36477833  0.48344154  0.26037995  1
  O  O32  1  0.36477833  0.98344154  0.23962005  1
  O  O33  1  0.86477833  0.51655846  0.26037995  1
  O  O34  1  0.13522167  0.98344154  0.76037995  1
  O  O35  1  0.63522167  0.51655846  0.73962005  1
  O  O36  1  0.42270718  0.73379079  0.73827154  1
  O  O37  1  0.92270718  0.76620921  0.76172846  1
  O  O38  1  0.07729282  0.73379079  0.26172846  1
  O  O39  1  0.57729282  0.76620921  0.23827154  1
  O  O40  1  0.57729282  0.26620921  0.26172846  1
  O  O41  1  0.07729282  0.23379079  0.23827154  1
  O  O42  1  0.92270718  0.26620921  0.73827154  1
  O  O43  1  0.42270718  0.23379079  0.76172846  1
  O  O44  1  0.35680994  0.77865625  0.42666198  1
  O  O45  1  0.85680994  0.72134375  0.07333802  1
  O  O46  1  0.14319006  0.77865625  0.57333802  1
  O  O47  1  0.85680994  0.22134375  0.42666198  1
loop_
_geom_bond_atom_site_label_1
_geom_bond_atom_site_label_2
_geom_bond_distance
_geom_bond_site_symmetry_2
Cr0 O7 1.641022 1_555
Cr0 O5 1.641022 1_555
Cr0 O19 1.653749 1_555
Cr0 O47 1.653749 1_555
Cr1 O6 1.641022 1_555
Cr1 O4 1.641022 1_554
Cr1 O17 1.653749 1_555
Cr1 O18 1.653749 1_554
Cr2 O1 1.641022 1_565
Cr2 O3 1.641022 1_565
Cr2 O44 1.653749 1_555
Cr2 O46 1.653749 1_555
Cr3 O0 1.641022 1_555
Cr3 O2 1.641022 1_554
Cr3 O16 1.653749 1_554
Cr3 O45 1.653749 1_555
Cr4 O30 1.577372 1_555
Cr4 O10 1.651874 1_655
Cr4 O41 1.659654 1_655
Cr4 O25 1.733071 1_555
Cr5 O31 1.577372 1_555
Cr5 O11 1.651874 1_555
Cr5 O40 1.659654 1_555
Cr5 O24 1.733071 1_555
Cr6 O28 1.577372 1_555
Cr6 O8 1.651874 1_555
Cr6 O43 1.659654 1_555
Cr6 O27 1.733071 1_555
Cr7 O29 1.577372 1_555
Cr7 O9 1.651874 1_455
Cr7 O42 1.659654 1_455
Cr7 O26 1.733071 1_555
Cr8 O34 1.577372 1_555
Cr8 O14 1.651874 1_455
Cr8 O37 1.659654 1_455
Cr8 O21 1.733071 1_555
Cr9 O35 1.577372 1_555
Cr9 O15 1.651874 1_555
Cr9 O36 1.659654 1_555
Cr9 O20 1.733071 1_555
Cr10 O32 1.577372 1_555
Cr10 O12 1.651874 1_555
Cr10 O39 1.659654 1_555
Cr10 O23 1.733071 1_555
Cr11 O33 1.577372 1_555
Cr11 O13 1.651874 1_655
Cr11 O38 1.659654 1_655
Cr11 O22 1.733071 1_555
O0 Tl7 2.249137 1_555
O1 Tl6 2.249137 1_555
O2 Tl5 2.249137 1_555
O3 Tl4 2.249137 1_555
O4 Tl3 2.249137 1_555
O5 Tl2 2.249137 1_545
O6 Tl1 2.249137 1_555
O7 Tl0 2.249137 1_545
O8 Tl3 2.218583 1_545
O9 Tl2 2.218583 1_555
O10 Tl1 2.218583 1_545
O11 Tl0 2.218583 1_555
O12 Tl7 2.218583 1_565
O13 Tl6 2.218583 1_555
O14 Tl5 2.218583 1_565
O15 Tl4 2.218583 1_555
O16 Tl3 2.195806 1_555
O17 Tl7 2.195806 1_555
O18 Tl5 2.195806 1_455
O19 Tl4 2.195806 1_555
O20 Tl2 2.255502 1_555
O20 Tl0 2.320017 1_555
O21 Tl3 2.255502 1_555
O21 Tl1 2.320017 1_556
O22 Tl0 2.255502 1_555
O22 Tl2 2.320017 1_555
O23 Tl1 2.255502 1_555
O23 Tl3 2.320017 1_554
O24 Tl6 2.255502 1_555
O24 Tl4 2.320017 1_555
O25 Tl7 2.255502 1_555
O25 Tl5 2.320017 1_554
O26 Tl4 2.255502 1_555
O26 Tl6 2.320017 1_555
O27 Tl5 2.255502 1_555
O27 Tl7 2.320017 1_556
O36 Tl3 2.194140 1_555
O37 Tl2 2.194140 1_555
O38 Tl1 2.194140 1_555
O39 Tl0 2.194140 1_555
O40 Tl7 2.194140 1_555
O41 Tl6 2.194140 1_555
O42 Tl5 2.194140 1_555
O43 Tl4 2.194140 1_555
O44 Tl0 2.195806 1_555
O45 Tl1 2.195806 1_655
O46 Tl2 2.195806 1_455
O47 Tl6 2.195806 1_655
