# generated using pymatgen
data_TiPt3
_symmetry_space_group_name_H-M   'P 1'
_cell_length_a   5.57368108
_cell_length_b   5.57367879
_cell_length_c   4.49078659
_cell_angle_alpha   90.00000000
_cell_angle_beta   90.00000000
_cell_angle_gamma   120.00000148
_symmetry_Int_Tables_number   1
_chemical_formula_structural   TiPt3
_chemical_formula_sum   'Ti2 Pt6'
_cell_volume   120.81951682
_cell_formula_units_Z   2
loop_
 _symmetry_equiv_pos_site_id
 _symmetry_equiv_pos_as_xyz
  1  'x, y, z'
loop_
 _atom_site_type_symbol
 _atom_site_label
 _atom_site_symmetry_multiplicity
 _atom_site_fract_x
 _atom_site_fract_y
 _atom_site_fract_z
 _atom_site_occupancy
  Ti  Ti0  1  0.33333300  0.66666600  0.74999900  1
  Ti  Ti1  1  0.66666600  0.33333300  0.24999900  1
  Pt  Pt0  1  0.16720780  0.33441559  0.24999900  1
  Pt  Pt1  1  0.66558541  0.83279520  0.24999900  1
  Pt  Pt2  1  0.16720880  0.83279520  0.24999900  1
  Pt  Pt3  1  0.83279220  0.66558541  0.74999900  1
  Pt  Pt4  1  0.33441559  0.16720880  0.74999900  1
  Pt  Pt5  1  0.83279220  0.16720880  0.74999900  1
loop_
_geom_bond_atom_site_label_1
_geom_bond_atom_site_label_2
_geom_bond_distance
_geom_bond_site_symmetry_2
Pt0 Ti0 2.759315 1_555
Pt0 Ti0 2.759315 1_554
Pt0 Pt4 2.765400 1_554
Pt0 Pt4 2.765400 1_555
Pt0 Pt5 2.765403 1_455
Pt0 Pt5 2.765403 1_454
Pt0 Pt1 2.777803 1_555
Pt0 Pt2 2.777805 1_555
Pt0 Ti1 2.786843 1_555
Pt0 Ti1 2.786848 1_455
Pt0 Pt2 2.795874 1_545
Pt0 Pt1 2.795877 1_445
Pt1 Ti0 2.759321 1_554
Pt1 Ti0 2.759321 1_555
Pt1 Pt5 2.765397 1_565
Pt1 Pt5 2.765397 1_564
Pt1 Pt3 2.765406 1_554
Pt1 Pt3 2.765406 1_555
Pt1 Pt2 2.777792 1_555
Pt1 Ti1 2.786830 1_565
Pt1 Ti1 2.786858 1_555
Pt1 Pt2 2.795889 1_655
Pt2 Ti0 2.759324 1_555
Pt2 Ti0 2.759324 1_554
Pt2 Pt4 2.765397 1_565
Pt2 Pt4 2.765397 1_564
Pt2 Pt3 2.765406 1_455
Pt2 Pt3 2.765406 1_454
Pt2 Ti1 2.786831 1_565
Pt2 Ti1 2.786859 1_455
Pt3 Ti1 2.759321 1_555
Pt3 Ti1 2.759321 1_556
Pt3 Pt5 2.777791 1_555
Pt3 Pt4 2.777792 1_555
Pt3 Ti0 2.786843 1_555
Pt3 Ti0 2.786848 1_655
Pt3 Pt5 2.795888 1_565
Pt3 Pt4 2.795888 1_665
Pt4 Ti1 2.759316 1_555
Pt4 Ti1 2.759316 1_556
Pt4 Pt5 2.777792 1_555
Pt4 Ti0 2.786836 1_555
Pt4 Ti0 2.786853 1_545
Pt4 Pt5 2.795889 1_455
Pt5 Ti1 2.759316 1_555
Pt5 Ti1 2.759316 1_556
Pt5 Ti0 2.786839 1_655
Pt5 Ti0 2.786850 1_545
