# generated using pymatgen
data_Mg2As
_symmetry_space_group_name_H-M   'P 1'
_cell_length_a   8.87938895
_cell_length_b   8.87938895
_cell_length_c   4.58618300
_cell_angle_alpha   90.00000000
_cell_angle_beta   90.00000000
_cell_angle_gamma   152.49158301
_symmetry_Int_Tables_number   1
_chemical_formula_structural   Mg2As
_chemical_formula_sum   'Mg4 As2'
_cell_volume   167.01123080
_cell_formula_units_Z   2
loop_
 _symmetry_equiv_pos_site_id
 _symmetry_equiv_pos_as_xyz
  1  'x, y, z'
loop_
 _atom_site_type_symbol
 _atom_site_label
 _atom_site_symmetry_multiplicity
 _atom_site_fract_x
 _atom_site_fract_y
 _atom_site_fract_z
 _atom_site_occupancy
  Mg  Mg0  1  0.93448300  0.06551700  0.75000000  1
  Mg  Mg1  1  0.73696400  0.26303600  0.75000000  1
  Mg  Mg2  1  0.26303600  0.73696400  0.25000000  1
  Mg  Mg3  1  0.06551700  0.93448300  0.25000000  1
  As  As0  1  0.33771900  0.66228100  0.75000000  1
  As  As1  1  0.66228100  0.33771900  0.25000000  1
loop_
_geom_bond_atom_site_label_1
_geom_bond_atom_site_label_2
_geom_bond_distance
_geom_bond_site_symmetry_2
As0 Mg2 2.630181 1_556
As0 Mg2 2.630181 1_555
As0 Mg0 2.691267 1_565
As0 Mg0 2.691267 1_455
As0 Mg1 2.734497 1_455
As0 Mg1 2.734497 1_565
As1 Mg1 2.630181 1_555
As1 Mg1 2.630181 1_554
As1 Mg3 2.691267 1_655
As1 Mg3 2.691267 1_545
As1 Mg2 2.734497 1_545
As1 Mg2 2.734497 1_655
