# generated using pymatgen
data_Dy3Fe2Si3
_symmetry_space_group_name_H-M   'P 1'
_cell_length_a   5.65462140
_cell_length_b   5.65462140
_cell_length_c   13.59724900
_cell_angle_alpha   90.00000000
_cell_angle_beta   90.00000000
_cell_angle_gamma   137.72884616
_symmetry_Int_Tables_number   1
_chemical_formula_structural   Dy3Fe2Si3
_chemical_formula_sum   'Dy6 Fe4 Si6'
_cell_volume   292.44273664
_cell_formula_units_Z   2
loop_
 _symmetry_equiv_pos_site_id
 _symmetry_equiv_pos_as_xyz
  1  'x, y, z'
loop_
 _atom_site_type_symbol
 _atom_site_label
 _atom_site_symmetry_multiplicity
 _atom_site_fract_x
 _atom_site_fract_y
 _atom_site_fract_z
 _atom_site_occupancy
  Dy  Dy0  1  0.58030900  0.41969100  0.61198200  1
  Dy  Dy1  1  0.41969100  0.58030900  0.38801800  1
  Dy  Dy2  1  0.41969100  0.58030900  0.11198200  1
  Dy  Dy3  1  0.58030900  0.41969100  0.88801800  1
  Dy  Dy4  1  0.13541300  0.86458700  0.25000000  1
  Dy  Dy5  1  0.86458700  0.13541300  0.75000000  1
  Fe  Fe0  1  0.28452100  0.71547900  0.91956300  1
  Fe  Fe1  1  0.71547900  0.28452100  0.08043700  1
  Fe  Fe2  1  0.71547900  0.28452100  0.41956300  1
  Fe  Fe3  1  0.28452100  0.71547900  0.58043700  1
  Si  Si0  1  0.87384500  0.12615500  0.53977400  1
  Si  Si1  1  0.12615500  0.87384500  0.46022600  1
  Si  Si2  1  0.12615500  0.87384500  0.03977400  1
  Si  Si3  1  0.87384500  0.12615500  0.96022600  1
  Si  Si4  1  0.82381400  0.17618600  0.25000000  1
  Si  Si5  1  0.17618600  0.82381400  0.75000000  1
loop_
_geom_bond_atom_site_label_1
_geom_bond_atom_site_label_2
_geom_bond_distance
_geom_bond_site_symmetry_2
Dy0 Si1 2.940911 1_545
Dy0 Si1 2.940911 1_655
Dy0 Si5 2.949900 1_545
Dy0 Si5 2.949900 1_655
Dy0 Fe2 2.979664 1_555
Dy0 Fe3 2.996903 1_655
Dy0 Fe3 2.996903 1_545
Dy0 Si0 3.140756 1_565
Dy0 Si0 3.140756 1_455
Dy0 Fe3 3.149455 1_555
Dy0 Si0 3.248293 1_555
Dy1 Si0 2.940911 1_455
Dy1 Si0 2.940911 1_565
Dy1 Si4 2.949900 1_565
Dy1 Si4 2.949900 1_455
Dy1 Fe3 2.979664 1_555
Dy1 Fe2 2.996903 1_565
Dy1 Fe2 2.996903 1_455
Dy1 Si1 3.140756 1_545
Dy1 Si1 3.140756 1_655
Dy1 Fe2 3.149455 1_555
Dy1 Si1 3.248293 1_555
Dy2 Si3 2.940911 1_454
Dy2 Si3 2.940911 1_564
Dy2 Si4 2.949900 1_565
Dy2 Si4 2.949900 1_455
Dy2 Fe0 2.979664 1_554
Dy2 Fe1 2.996903 1_565
Dy2 Fe1 2.996903 1_455
Dy2 Si2 3.140756 1_655
Dy2 Si2 3.140756 1_545
Dy2 Fe1 3.149455 1_555
Dy2 Si2 3.248293 1_555
Dy3 Si2 2.940911 1_546
Dy3 Si2 2.940911 1_656
Dy3 Si5 2.949900 1_545
Dy3 Si5 2.949900 1_655
Dy3 Fe1 2.979664 1_556
Dy3 Fe0 2.996903 1_655
Dy3 Fe0 2.996903 1_545
Dy3 Si3 3.140756 1_455
Dy3 Si3 3.140756 1_565
Dy3 Fe0 3.149455 1_555
Dy3 Si3 3.248293 1_555
Dy4 Si4 2.847231 1_455
Dy4 Si4 2.847231 1_565
Dy4 Si2 2.860163 1_555
Dy4 Si1 2.860163 1_555
Dy4 Fe2 3.191591 1_455
Dy4 Fe1 3.191591 1_565
Dy4 Fe1 3.191591 1_455
Dy4 Fe2 3.191591 1_565
Dy4 Si4 3.286892 1_465
Dy5 Si5 2.847231 1_545
Dy5 Si5 2.847231 1_655
Dy5 Si3 2.860163 1_555
Dy5 Si0 2.860163 1_555
Dy5 Fe3 3.191591 1_655
Dy5 Fe3 3.191591 1_545
Dy5 Fe0 3.191591 1_655
Dy5 Fe0 3.191591 1_545
Dy5 Si5 3.286892 1_645
Fe0 Si3 2.313159 1_455
Fe0 Si3 2.313159 1_565
Fe0 Si2 2.337167 1_556
Fe0 Si5 2.573260 1_555
Fe1 Si2 2.313159 1_545
Fe1 Si2 2.313159 1_655
Fe1 Si3 2.337167 1_554
Fe1 Si4 2.573260 1_555
Fe2 Si1 2.313159 1_545
Fe2 Si1 2.313159 1_655
Fe2 Si0 2.337167 1_555
Fe2 Si4 2.573260 1_555
Fe3 Si0 2.313159 1_455
Fe3 Si0 2.313159 1_565
Fe3 Si1 2.337167 1_555
Fe3 Si5 2.573260 1_555
Si0 Si1 2.872878 1_645
Si2 Si3 2.872878 1_464
