# generated using pymatgen
data_ZnH
_symmetry_space_group_name_H-M   'P 1'
_cell_length_a   2.69262778
_cell_length_b   2.69262778
_cell_length_c   6.58646900
_cell_angle_alpha   90.00000000
_cell_angle_beta   90.00000000
_cell_angle_gamma   119.99999466
_symmetry_Int_Tables_number   1
_chemical_formula_structural   ZnH
_chemical_formula_sum   'Zn2 H2'
_cell_volume   41.35575485
_cell_formula_units_Z   2
loop_
 _symmetry_equiv_pos_site_id
 _symmetry_equiv_pos_as_xyz
  1  'x, y, z'
loop_
 _atom_site_type_symbol
 _atom_site_label
 _atom_site_symmetry_multiplicity
 _atom_site_fract_x
 _atom_site_fract_y
 _atom_site_fract_z
 _atom_site_occupancy
  Zn  Zn0  1  0.66666700  0.33333300  0.82363100  1
  Zn  Zn1  1  0.33333300  0.66666700  0.32363100  1
  H  H0  1  0.33333300  0.66666700  0.05137000  1
  H  H1  1  0.66666700  0.33333300  0.55137000  1
loop_
_geom_bond_atom_site_label_1
_geom_bond_atom_site_label_2
_geom_bond_distance
_geom_bond_site_symmetry_2
H0 Zn1 1.793239 1_555
H0 Zn0 2.160262 1_564
H0 Zn0 2.160262 1_454
H0 Zn0 2.160265 1_554
H1 Zn0 1.793239 1_555
H1 Zn1 2.160262 1_545
H1 Zn1 2.160262 1_655
H1 Zn1 2.160265 1_555
