# generated using pymatgen
data_RbHg2
_symmetry_space_group_name_H-M   'P 1'
_cell_length_a   5.40662466
_cell_length_b   6.81459715
_cell_length_c   6.81459703
_cell_angle_alpha   76.70822212
_cell_angle_beta   66.62829027
_cell_angle_gamma   66.62830270
_symmetry_Int_Tables_number   1
_chemical_formula_structural   RbHg2
_chemical_formula_sum   'Rb2 Hg4'
_cell_volume   210.78020724
_cell_formula_units_Z   2
loop_
 _symmetry_equiv_pos_site_id
 _symmetry_equiv_pos_as_xyz
  1  'x, y, z'
loop_
 _atom_site_type_symbol
 _atom_site_label
 _atom_site_symmetry_multiplicity
 _atom_site_fract_x
 _atom_site_fract_y
 _atom_site_fract_z
 _atom_site_occupancy
  Rb  Rb0  1  0.94804581  0.30195419  0.30195419  1
  Rb  Rb1  1  0.05195419  0.69804581  0.69804581  1
  Hg  Hg0  1  0.33552236  0.10225980  0.72669448  1
  Hg  Hg1  1  0.66447764  0.89774020  0.27330552  1
  Hg  Hg2  1  0.66447764  0.27330552  0.89774020  1
  Hg  Hg3  1  0.33552236  0.72669448  0.10225980  1
loop_
_geom_bond_atom_site_label_1
_geom_bond_atom_site_label_2
_geom_bond_distance
_geom_bond_site_symmetry_2
Rb0 Rb1 4.335751 1_654
Rb0 Rb1 4.335751 1_645
Rb0 Rb1 4.543491 1_555
Rb0 Rb1 4.543493 1_655
Hg0 Hg2 3.129642 1_455
Hg0 Hg2 3.129652 1_555
Hg0 Hg3 3.176226 1_546
Hg0 Hg1 3.210192 1_545
Hg0 Rb1 3.715782 1_555
Hg0 Rb1 3.716392 1_545
Hg0 Rb1 3.716395 1_645
Hg0 Rb0 3.909446 1_456
Hg0 Rb0 3.918703 1_455
Hg0 Rb0 3.918706 1_555
Hg1 Hg3 3.129642 1_655
Hg1 Hg3 3.129652 1_555
Hg1 Hg2 3.176226 1_564
Hg1 Rb0 3.715782 1_555
Hg1 Rb0 3.716392 1_565
Hg1 Rb0 3.716395 1_465
Hg1 Rb1 3.909446 1_654
Hg1 Rb1 3.918703 1_655
Hg1 Rb1 3.918706 1_555
Hg2 Hg3 3.210192 1_556
Hg2 Rb0 3.715781 1_555
Hg2 Rb0 3.716392 1_556
Hg2 Rb0 3.716395 1_456
Hg2 Rb1 3.909446 1_645
Hg2 Rb1 3.918703 1_655
Hg2 Rb1 3.918706 1_555
Hg3 Rb1 3.715781 1_555
Hg3 Rb1 3.716392 1_554
Hg3 Rb1 3.716395 1_654
Hg3 Rb0 3.909446 1_465
Hg3 Rb0 3.918703 1_455
Hg3 Rb0 3.918706 1_555
