# generated using pymatgen
data_HfNiPb
_symmetry_space_group_name_H-M   'P 1'
_cell_length_a   4.42932536
_cell_length_b   4.42932536
_cell_length_c   4.42932536
_cell_angle_alpha   60.00000000
_cell_angle_beta   60.00000000
_cell_angle_gamma   60.00000000
_symmetry_Int_Tables_number   1
_chemical_formula_structural   HfNiPb
_chemical_formula_sum   'Hf1 Ni1 Pb1'
_cell_volume   61.44658508
_cell_formula_units_Z   1
loop_
 _symmetry_equiv_pos_site_id
 _symmetry_equiv_pos_as_xyz
  1  'x, y, z'
loop_
 _atom_site_type_symbol
 _atom_site_label
 _atom_site_symmetry_multiplicity
 _atom_site_fract_x
 _atom_site_fract_y
 _atom_site_fract_z
 _atom_site_occupancy
  Hf  Hf0  1  0.00000000  0.00000000  0.00000000  1
  Ni  Ni0  1  0.50000000  0.50000000  0.50000000  1
  Pb  Pb0  1  0.25000000  0.25000000  0.25000000  1
loop_
_geom_bond_atom_site_label_1
_geom_bond_atom_site_label_2
_geom_bond_distance
_geom_bond_site_symmetry_2
Hf0 Pb0 2.712397 1_455
Hf0 Pb0 2.712397 1_554
Hf0 Pb0 2.712397 1_545
Hf0 Pb0 2.712397 1_555
Hf0 Ni0 3.132006 1_554
Hf0 Ni0 3.132006 1_445
Hf0 Ni0 3.132006 1_454
Hf0 Ni0 3.132006 1_544
Hf0 Ni0 3.132006 1_455
Hf0 Ni0 3.132006 1_545
Ni0 Pb0 2.712397 1_655
Ni0 Pb0 2.712397 1_556
Ni0 Pb0 2.712397 1_555
Ni0 Pb0 2.712397 1_565
