# generated using pymatgen
data_RbInO3
_symmetry_space_group_name_H-M   'P 1'
_cell_length_a   4.35485400
_cell_length_b   4.35485400
_cell_length_c   4.35485400
_cell_angle_alpha   90.00000000
_cell_angle_beta   90.00000000
_cell_angle_gamma   90.00000000
_symmetry_Int_Tables_number   1
_chemical_formula_structural   RbInO3
_chemical_formula_sum   'Rb1 In1 O3'
_cell_volume   82.58873203
_cell_formula_units_Z   1
loop_
 _symmetry_equiv_pos_site_id
 _symmetry_equiv_pos_as_xyz
  1  'x, y, z'
loop_
 _atom_site_type_symbol
 _atom_site_label
 _atom_site_symmetry_multiplicity
 _atom_site_fract_x
 _atom_site_fract_y
 _atom_site_fract_z
 _atom_site_occupancy
  Rb  Rb0  1  0.00000000  0.00000000  0.00000000  1
  In  In0  1  0.50000000  0.50000000  0.50000000  1
  O  O0  1  0.50000000  0.50000000  0.00000000  1
  O  O1  1  0.50000000  0.00000000  0.50000000  1
  O  O2  1  0.00000000  0.50000000  0.50000000  1
loop_
_geom_bond_atom_site_label_1
_geom_bond_atom_site_label_2
_geom_bond_distance
_geom_bond_site_symmetry_2
In0 O0 2.177427 1_556
In0 O2 2.177427 1_655
In0 O1 2.177427 1_555
In0 O0 2.177427 1_555
In0 O2 2.177427 1_555
In0 O1 2.177427 1_565
O0 Rb0 3.079347 1_565
O0 Rb0 3.079347 1_655
O0 Rb0 3.079347 1_665
O0 Rb0 3.079347 1_555
O1 Rb0 3.079347 1_656
O1 Rb0 3.079347 1_655
O1 Rb0 3.079347 1_555
O1 Rb0 3.079347 1_556
O2 Rb0 3.079347 1_565
O2 Rb0 3.079347 1_566
O2 Rb0 3.079347 1_555
O2 Rb0 3.079347 1_556
