# generated using pymatgen
data_NaAl3
_symmetry_space_group_name_H-M   'P 1'
_cell_length_a   5.04125839
_cell_length_b   5.04125839
_cell_length_c   5.04125839
_cell_angle_alpha   128.56131244
_cell_angle_beta   128.56131244
_cell_angle_gamma   75.71747208
_symmetry_Int_Tables_number   1
_chemical_formula_structural   NaAl3
_chemical_formula_sum   'Na1 Al3'
_cell_volume   76.19902469
_cell_formula_units_Z   1
loop_
 _symmetry_equiv_pos_site_id
 _symmetry_equiv_pos_as_xyz
  1  'x, y, z'
loop_
 _atom_site_type_symbol
 _atom_site_label
 _atom_site_symmetry_multiplicity
 _atom_site_fract_x
 _atom_site_fract_y
 _atom_site_fract_z
 _atom_site_occupancy
  Na  Na0  1  0.00000000  0.00000000  0.00000000  1
  Al  Al0  1  0.75000000  0.25000000  0.50000000  1
  Al  Al1  1  0.25000000  0.75000000  0.50000000  1
  Al  Al2  1  0.50000000  0.50000000  0.00000000  1
loop_
_geom_bond_atom_site_label_1
_geom_bond_atom_site_label_2
_geom_bond_distance
_geom_bond_site_symmetry_2
Al0 Al2 2.957471 1_656
Al0 Na0 2.957471 1_666
Al0 Al2 2.957471 1_545
Al0 Al2 2.957471 1_555
Al0 Na0 2.957471 1_655
Al0 Na0 2.957471 1_555
Al0 Na0 2.957471 1_656
Al0 Al2 2.957471 1_556
Al1 Na0 2.957471 1_566
Al1 Na0 2.957471 1_666
Al1 Al2 2.957471 1_555
Al1 Al2 2.957471 1_566
Al1 Al2 2.957471 1_455
Al1 Na0 2.957471 1_555
Al1 Al2 2.957471 1_556
Al1 Na0 2.957471 1_565
Al2 Na0 3.093905 1_666
Al2 Na0 3.093905 1_565
Al2 Na0 3.093905 1_554
Al2 Na0 3.093905 1_655
