# generated using pymatgen
data_LuGeAu
_symmetry_space_group_name_H-M   'P 1'
_cell_length_a   4.38630369
_cell_length_b   4.38630454
_cell_length_c   7.13297831
_cell_angle_alpha   90.00000000
_cell_angle_beta   90.00000000
_cell_angle_gamma   120.00000123
_symmetry_Int_Tables_number   1
_chemical_formula_structural   LuGeAu
_chemical_formula_sum   'Lu2 Ge2 Au2'
_cell_volume   118.84995124
_cell_formula_units_Z   2
loop_
 _symmetry_equiv_pos_site_id
 _symmetry_equiv_pos_as_xyz
  1  'x, y, z'
loop_
 _atom_site_type_symbol
 _atom_site_label
 _atom_site_symmetry_multiplicity
 _atom_site_fract_x
 _atom_site_fract_y
 _atom_site_fract_z
 _atom_site_occupancy
  Lu  Lu0  1  -0.00000000  -0.00000000  0.49658297  1
  Lu  Lu1  1  0.00000000  -0.00000000  0.99658297  1
  Ge  Ge0  1  0.66666700  0.33333300  0.79082113  1
  Ge  Ge1  1  0.33333300  0.66666700  0.29082113  1
  Au  Au0  1  0.33333300  0.66666700  0.69529590  1
  Au  Au1  1  0.66666700  0.33333300  0.19529590  1
loop_
_geom_bond_atom_site_label_1
_geom_bond_atom_site_label_2
_geom_bond_distance
_geom_bond_site_symmetry_2
Ge0 Lu1 2.927001 1_655
Ge0 Lu1 2.927004 1_555
Ge0 Lu1 2.927005 1_665
Ge0 Lu0 3.289095 1_655
Ge0 Lu0 3.289098 1_555
Ge0 Lu0 3.289098 1_665
Ge1 Lu0 2.927001 1_565
Ge1 Lu0 2.927004 1_665
Ge1 Lu0 2.927005 1_555
Ge1 Lu1 3.289095 1_564
Ge1 Lu1 3.289098 1_664
Ge1 Lu1 3.289098 1_554
Au0 Ge0 2.622496 1_455
Au0 Ge0 2.622496 1_565
Au0 Ge0 2.622504 1_555
Au0 Ge1 2.885110 1_555
Au0 Lu0 2.902115 1_565
Au0 Lu0 2.902118 1_665
Au0 Lu0 2.902119 1_555
Au0 Lu1 3.321405 1_565
Au0 Lu1 3.321407 1_665
Au0 Lu1 3.321408 1_555
Au1 Ge1 2.622496 1_655
Au1 Ge1 2.622496 1_545
Au1 Ge1 2.622504 1_555
Au1 Ge0 2.885110 1_554
Au1 Lu1 2.902115 1_654
Au1 Lu1 2.902118 1_554
Au1 Lu1 2.902119 1_664
Au1 Lu0 3.321405 1_655
Au1 Lu0 3.321407 1_555
Au1 Lu0 3.321408 1_665
