# generated using pymatgen
data_Li3Er
_symmetry_space_group_name_H-M   'P 1'
_cell_length_a   6.47759850
_cell_length_b   6.47759850
_cell_length_c   5.04748000
_cell_angle_alpha   90.00000000
_cell_angle_beta   90.00000000
_cell_angle_gamma   120.00000510
_symmetry_Int_Tables_number   1
_chemical_formula_structural   Li3Er
_chemical_formula_sum   'Li6 Er2'
_cell_volume   183.41433159
_cell_formula_units_Z   2
loop_
 _symmetry_equiv_pos_site_id
 _symmetry_equiv_pos_as_xyz
  1  'x, y, z'
loop_
 _atom_site_type_symbol
 _atom_site_label
 _atom_site_symmetry_multiplicity
 _atom_site_fract_x
 _atom_site_fract_y
 _atom_site_fract_z
 _atom_site_occupancy
  Li  Li0  1  0.15235000  0.30470000  0.25000000  1
  Li  Li1  1  0.69530000  0.84765000  0.25000000  1
  Li  Li2  1  0.15235000  0.84765000  0.25000000  1
  Li  Li3  1  0.84765000  0.69530000  0.75000000  1
  Li  Li4  1  0.30470000  0.15235000  0.75000000  1
  Li  Li5  1  0.84765000  0.15235000  0.75000000  1
  Er  Er0  1  0.33333300  0.66666700  0.75000000  1
  Er  Er1  1  0.66666700  0.33333300  0.25000000  1
loop_
_geom_bond_atom_site_label_1
_geom_bond_atom_site_label_2
_geom_bond_distance
_geom_bond_site_symmetry_2
Li0 Li1 2.960586 1_445
Li0 Li2 2.960586 1_545
Li0 Li5 3.048107 1_455
Li0 Li5 3.048107 1_454
Li0 Li4 3.048107 1_555
Li0 Li4 3.048107 1_554
Li1 Li2 2.960586 1_655
Li1 Li5 3.048107 1_565
Li1 Li5 3.048107 1_564
Li1 Li3 3.048107 1_554
Li1 Li3 3.048107 1_555
Li2 Li4 3.048107 1_565
Li2 Li4 3.048107 1_564
Li2 Li3 3.048107 1_455
Li2 Li3 3.048107 1_454
Li3 Li4 2.960586 1_665
Li3 Li5 2.960586 1_565
Li4 Li5 2.960586 1_455
Er0 Li2 3.239193 1_556
Er0 Li2 3.239193 1_555
Er0 Li0 3.239197 1_556
Er0 Li0 3.239197 1_555
Er0 Li1 3.239197 1_555
Er0 Li1 3.239197 1_556
Er0 Li4 3.242777 1_565
Er0 Li3 3.242777 1_455
Er0 Li5 3.242780 1_565
Er0 Li5 3.242780 1_455
Er0 Li3 3.242783 1_555
Er0 Li4 3.242783 1_555
Er1 Li5 3.239193 1_555
Er1 Li5 3.239193 1_554
Er1 Li3 3.239197 1_555
Er1 Li4 3.239197 1_554
Er1 Li4 3.239197 1_555
Er1 Li3 3.239197 1_554
Er1 Li0 3.242777 1_655
Er1 Li1 3.242777 1_545
Er1 Li2 3.242780 1_655
Er1 Li2 3.242780 1_545
Er1 Li1 3.242783 1_555
Er1 Li0 3.242783 1_555
