# generated using pymatgen
data_SmAs3
_symmetry_space_group_name_H-M   'P 1'
_cell_length_a   5.82802722
_cell_length_b   5.82802722
_cell_length_c   5.82802722
_cell_angle_alpha   138.32761782
_cell_angle_beta   138.32761782
_cell_angle_gamma   60.40160549
_symmetry_Int_Tables_number   1
_chemical_formula_structural   SmAs3
_chemical_formula_sum   'Sm1 As3'
_cell_volume   86.58334162
_cell_formula_units_Z   1
loop_
 _symmetry_equiv_pos_site_id
 _symmetry_equiv_pos_as_xyz
  1  'x, y, z'
loop_
 _atom_site_type_symbol
 _atom_site_label
 _atom_site_symmetry_multiplicity
 _atom_site_fract_x
 _atom_site_fract_y
 _atom_site_fract_z
 _atom_site_occupancy
  Sm  Sm0  1  0.00000000  0.00000000  0.00000000  1
  As  As0  1  0.75000000  0.25000000  0.50000000  1
  As  As1  1  0.25000000  0.75000000  0.50000000  1
  As  As2  1  0.50000000  0.50000000  0.00000000  1
loop_
_geom_bond_atom_site_label_1
_geom_bond_atom_site_label_2
_geom_bond_distance
_geom_bond_site_symmetry_2
As0 As1 2.931685 1_555
As0 As1 2.931685 1_656
As0 As1 2.931685 1_544
As0 As1 2.931685 1_645
As0 Sm0 3.261927 1_555
As0 Sm0 3.261927 1_656
As0 Sm0 3.261927 1_655
As0 Sm0 3.261927 1_666
As1 Sm0 3.261927 1_666
As1 Sm0 3.261927 1_555
As1 Sm0 3.261927 1_566
As1 Sm0 3.261927 1_565
As2 Sm0 2.931685 1_666
As2 Sm0 2.931685 1_565
As2 Sm0 2.931685 1_554
As2 Sm0 2.931685 1_655
