# generated using pymatgen
data_ZrZnRh2
_symmetry_space_group_name_H-M   'P 1'
_cell_length_a   4.43045458
_cell_length_b   4.43045458
_cell_length_c   4.43045458
_cell_angle_alpha   60.00000000
_cell_angle_beta   60.00000000
_cell_angle_gamma   60.00000000
_symmetry_Int_Tables_number   1
_chemical_formula_structural   ZrZnRh2
_chemical_formula_sum   'Zr1 Zn1 Rh2'
_cell_volume   61.49359301
_cell_formula_units_Z   1
loop_
 _symmetry_equiv_pos_site_id
 _symmetry_equiv_pos_as_xyz
  1  'x, y, z'
loop_
 _atom_site_type_symbol
 _atom_site_label
 _atom_site_symmetry_multiplicity
 _atom_site_fract_x
 _atom_site_fract_y
 _atom_site_fract_z
 _atom_site_occupancy
  Zr  Zr0  1  0.75000000  0.75000000  0.75000000  1
  Zn  Zn0  1  0.24999900  0.24999900  0.24999900  1
  Rh  Rh0  1  -0.00000000  -0.00000000  -0.00000000  1
  Rh  Rh1  1  0.50000000  0.50000000  0.50000000  1
loop_
_geom_bond_atom_site_label_1
_geom_bond_atom_site_label_2
_geom_bond_distance
_geom_bond_site_symmetry_2
Rh0 Zn0 2.713077 1_555
Rh0 Zr0 2.713088 1_544
Rh0 Zr0 2.713088 1_454
Rh0 Zr0 2.713088 1_444
Rh0 Zr0 2.713088 1_445
Rh0 Zn0 2.713092 1_455
Rh0 Zn0 2.713092 1_554
Rh0 Zn0 2.713092 1_545
Rh1 Zn0 2.713085 1_565
Rh1 Zn0 2.713085 1_556
Rh1 Zn0 2.713085 1_655
Rh1 Zr0 2.713088 1_545
Rh1 Zr0 2.713088 1_455
Rh1 Zr0 2.713088 1_555
Rh1 Zr0 2.713088 1_554
Rh1 Zn0 2.713099 1_555
