# generated using pymatgen
data_SiO2
_symmetry_space_group_name_H-M   'P 1'
_cell_length_a   4.48793100
_cell_length_b   4.48793100
_cell_length_c   4.48793100
_cell_angle_alpha   90.00000000
_cell_angle_beta   90.00000000
_cell_angle_gamma   90.00000000
_symmetry_Int_Tables_number   1
_chemical_formula_structural   SiO2
_chemical_formula_sum   'Si4 O8'
_cell_volume   90.39377291
_cell_formula_units_Z   4
loop_
 _symmetry_equiv_pos_site_id
 _symmetry_equiv_pos_as_xyz
  1  'x, y, z'
loop_
 _atom_site_type_symbol
 _atom_site_label
 _atom_site_symmetry_multiplicity
 _atom_site_fract_x
 _atom_site_fract_y
 _atom_site_fract_z
 _atom_site_occupancy
  Si  Si0  1  0.00000000  0.50000000  0.50000000  1
  Si  Si1  1  0.50000000  0.50000000  0.00000000  1
  Si  Si2  1  0.50000000  0.00000000  0.50000000  1
  Si  Si3  1  0.00000000  0.00000000  0.00000000  1
  O  O0  1  0.34379000  0.15621000  0.84379000  1
  O  O1  1  0.15621000  0.84379000  0.34379000  1
  O  O2  1  0.84379000  0.34379000  0.15621000  1
  O  O3  1  0.65621000  0.65621000  0.65621000  1
  O  O4  1  0.34379000  0.34379000  0.34379000  1
  O  O5  1  0.15621000  0.65621000  0.84379000  1
  O  O6  1  0.84379000  0.15621000  0.65621000  1
  O  O7  1  0.65621000  0.84379000  0.15621000  1
loop_
_geom_bond_atom_site_label_1
_geom_bond_atom_site_label_2
_geom_bond_distance
_geom_bond_site_symmetry_2
O0 Si3 1.833992 1_556
O0 Si2 1.833992 1_555
O0 Si1 1.833992 1_556
O1 Si3 1.833992 1_565
O1 Si2 1.833992 1_565
O1 Si0 1.833992 1_555
O2 Si3 1.833992 1_655
O2 Si0 1.833992 1_655
O2 Si1 1.833992 1_555
O3 Si1 1.833992 1_556
O3 Si2 1.833992 1_565
O3 Si0 1.833992 1_655
O4 Si2 1.833992 1_555
O4 Si0 1.833992 1_555
O4 Si1 1.833992 1_555
O5 Si1 1.833992 1_556
O5 Si0 1.833992 1_555
O5 Si3 1.833992 1_566
O6 Si2 1.833992 1_555
O6 Si3 1.833992 1_656
O6 Si0 1.833992 1_655
O7 Si2 1.833992 1_565
O7 Si3 1.833992 1_665
O7 Si1 1.833992 1_555
