# generated using pymatgen
data_LuBrO
_symmetry_space_group_name_H-M   'P 1'
_cell_length_a   3.72589343
_cell_length_b   3.72589343
_cell_length_c   8.74631276
_cell_angle_alpha   90.00000000
_cell_angle_beta   90.00000000
_cell_angle_gamma   90.00000000
_symmetry_Int_Tables_number   1
_chemical_formula_structural   LuBrO
_chemical_formula_sum   'Lu2 Br2 O2'
_cell_volume   121.41877890
_cell_formula_units_Z   2
loop_
 _symmetry_equiv_pos_site_id
 _symmetry_equiv_pos_as_xyz
  1  'x, y, z'
loop_
 _atom_site_type_symbol
 _atom_site_label
 _atom_site_symmetry_multiplicity
 _atom_site_fract_x
 _atom_site_fract_y
 _atom_site_fract_z
 _atom_site_occupancy
  Lu  Lu0  1  0.75000000  0.75000000  0.37604287  1
  Lu  Lu1  1  0.25000100  0.25000100  0.62395613  1
  Br  Br0  1  0.25000100  0.25000100  0.18643491  1
  Br  Br1  1  0.75000000  0.75000000  0.81356509  1
  O  O0  1  0.75000000  0.25000100  0.50000000  1
  O  O1  1  0.25000100  0.75000000  0.50000000  1
loop_
_geom_bond_atom_site_label_1
_geom_bond_atom_site_label_2
_geom_bond_distance
_geom_bond_site_symmetry_2
Lu0 O1 2.155453 1_555
Lu0 O0 2.155453 1_555
Lu0 O0 2.155459 1_565
Lu0 O1 2.155459 1_655
Lu1 O1 2.155448 1_555
Lu1 O0 2.155448 1_555
Lu1 O1 2.155455 1_545
Lu1 O0 2.155455 1_455
Br0 Lu0 3.113086 1_555
Br0 Lu0 3.113091 1_455
Br0 Lu0 3.113091 1_545
Br0 Lu0 3.113095 1_445
Br1 Lu1 3.113091 1_555
Br1 Lu1 3.113095 1_565
Br1 Lu1 3.113095 1_655
Br1 Lu1 3.113100 1_665
