# generated using pymatgen
data_CsCaI3
_symmetry_space_group_name_H-M   'P 1'
_cell_length_a   4.72814982
_cell_length_b   10.71713597
_cell_length_c   17.79891735
_cell_angle_alpha   90.00000000
_cell_angle_beta   90.00000000
_cell_angle_gamma   90.00000000
_symmetry_Int_Tables_number   1
_chemical_formula_structural   CsCaI3
_chemical_formula_sum   'Cs4 Ca4 I12'
_cell_volume   901.91073595
_cell_formula_units_Z   4
loop_
 _symmetry_equiv_pos_site_id
 _symmetry_equiv_pos_as_xyz
  1  'x, y, z'
loop_
 _atom_site_type_symbol
 _atom_site_label
 _atom_site_symmetry_multiplicity
 _atom_site_fract_x
 _atom_site_fract_y
 _atom_site_fract_z
 _atom_site_occupancy
  Cs  Cs0  1  0.75000000  0.07090758  0.67382045  1
  Cs  Cs1  1  0.25000000  0.92909142  0.32617955  1
  Cs  Cs2  1  0.75000000  0.57090758  0.82617955  1
  Cs  Cs3  1  0.25000000  0.42909242  0.17382045  1
  Ca  Ca0  1  0.25000000  0.16187897  0.94307819  1
  Ca  Ca1  1  0.75000000  0.83812203  0.05692281  1
  Ca  Ca2  1  0.25000000  0.66187897  0.55692281  1
  Ca  Ca3  1  0.75000000  0.33812203  0.44307719  1
  I  I0  1  0.75000000  0.33014263  0.00347319  1
  I  I1  1  0.25000000  0.66985637  0.99652681  1
  I  I2  1  0.75000000  0.83014263  0.49652681  1
  I  I3  1  0.25000000  0.16985637  0.50347319  1
  I  I4  1  0.25000000  0.02632617  0.10274214  1
  I  I5  1  0.75000000  0.97367383  0.89725686  1
  I  I6  1  0.25000000  0.52632617  0.39725686  1
  I  I7  1  0.75000000  0.47367383  0.60274314  1
  I  I8  1  0.25000000  0.28717430  0.78881895  1
  I  I9  1  0.75000000  0.71282570  0.21118105  1
  I  I10  1  0.25000000  0.78717530  0.71118105  1
  I  I11  1  0.75000000  0.21282570  0.28881795  1
loop_
_geom_bond_atom_site_label_1
_geom_bond_atom_site_label_2
_geom_bond_distance
_geom_bond_site_symmetry_2
Cs0 I8 3.892358 1_555
Cs0 I8 3.892358 1_655
Cs0 I10 3.908644 1_645
Cs0 I10 3.908644 1_545
Cs0 I3 3.988283 1_555
Cs0 I3 3.988283 1_655
Cs0 I2 4.076277 1_545
Cs0 I5 4.111186 1_545
Cs1 I9 3.892352 1_555
Cs1 I9 3.892352 1_455
Cs1 I11 3.908663 1_465
Cs1 I11 3.908663 1_565
Cs1 I2 3.988283 1_555
Cs1 I2 3.988283 1_455
Cs1 I3 4.076277 1_565
Cs1 I4 4.111205 1_565
Cs2 I10 3.892364 1_555
Cs2 I10 3.892364 1_655
Cs2 I8 3.908652 1_555
Cs2 I8 3.908652 1_655
Cs2 I1 3.988283 1_655
Cs2 I1 3.988283 1_555
Cs2 I0 4.076277 1_556
Cs2 I7 4.111186 1_555
Cs3 I11 3.892349 1_455
Cs3 I11 3.892349 1_555
Cs3 I9 3.908652 1_455
Cs3 I9 3.908652 1_555
Cs3 I0 3.988286 1_455
Cs3 I0 3.988286 1_555
Cs3 I1 4.076270 1_554
Cs3 I6 4.111186 1_555
Ca0 I8 3.056421 1_555
Ca0 I0 3.161694 1_556
Ca0 I0 3.161694 1_456
Ca0 I4 3.191635 1_556
Ca0 I5 3.212845 1_445
Ca0 I5 3.212845 1_545
Ca1 I9 3.056410 1_555
Ca1 I1 3.161712 1_554
Ca1 I1 3.161712 1_654
Ca1 I5 3.191662 1_554
Ca1 I4 3.212830 1_565
Ca1 I4 3.212830 1_665
Ca2 I10 3.056410 1_555
Ca2 I2 3.161700 1_455
Ca2 I2 3.161700 1_555
Ca2 I6 3.191666 1_555
Ca2 I7 3.212841 1_455
Ca2 I7 3.212841 1_555
Ca3 I11 3.056426 1_555
Ca3 I3 3.161712 1_655
Ca3 I3 3.161712 1_555
Ca3 I7 3.191662 1_555
Ca3 I6 3.212834 1_655
Ca3 I6 3.212834 1_555
