# generated using pymatgen
data_Y2Si5Rh3
_symmetry_space_group_name_H-M   'P 1'
_cell_length_a   8.07924577
_cell_length_b   8.07924577
_cell_length_c   5.66723710
_cell_angle_alpha   71.10362945
_cell_angle_beta   71.10362945
_cell_angle_gamma   93.40971721
_symmetry_Int_Tables_number   1
_chemical_formula_structural   Y2Si5Rh3
_chemical_formula_sum   'Y4 Si10 Rh6'
_cell_volume   325.49551090
_cell_formula_units_Z   2
loop_
 _symmetry_equiv_pos_site_id
 _symmetry_equiv_pos_as_xyz
  1  'x, y, z'
loop_
 _atom_site_type_symbol
 _atom_site_label
 _atom_site_symmetry_multiplicity
 _atom_site_fract_x
 _atom_site_fract_y
 _atom_site_fract_z
 _atom_site_occupancy
  Y  Y0  1  0.86614948  0.59903292  0.76160340  1
  Y  Y1  1  0.13385052  0.40096708  0.23839660  1
  Y  Y2  1  0.40096708  0.13385052  0.73839660  1
  Y  Y3  1  0.59903292  0.86614948  0.26160340  1
  Si  Si0  1  0.77573623  0.22426377  0.75000000  1
  Si  Si1  1  0.22426377  0.77573623  0.25000000  1
  Si  Si2  1  0.51148863  0.48851137  0.75000000  1
  Si  Si3  1  0.48851137  0.51148863  0.25000000  1
  Si  Si4  1  0.21116849  0.78883151  0.75000000  1
  Si  Si5  1  0.78883151  0.21116849  0.25000000  1
  Si  Si6  1  0.26568955  0.05633553  0.33947959  1
  Si  Si7  1  0.73431045  0.94366447  0.66052041  1
  Si  Si8  1  0.94366447  0.73431045  0.16052041  1
  Si  Si9  1  0.05633553  0.26568955  0.83947959  1
  Rh  Rh0  1  0.53826873  0.25929949  0.12613818  1
  Rh  Rh1  1  0.74070051  0.46173127  0.37386182  1
  Rh  Rh2  1  0.46173127  0.74070051  0.87386182  1
  Rh  Rh3  1  0.25929949  0.53826873  0.62613818  1
  Rh  Rh4  1  0.99771344  0.00228656  0.25000000  1
  Rh  Rh5  1  0.00228656  0.99771344  0.75000000  1
loop_
_geom_bond_atom_site_label_1
_geom_bond_atom_site_label_2
_geom_bond_distance
_geom_bond_site_symmetry_2
Si0 Si9 2.504575 1_655
Si0 Si7 2.504575 1_545
Si0 Si5 2.837801 1_556
Si0 Si5 2.837801 1_555
Si0 Y0 3.098837 1_555
Si0 Y2 3.098837 1_555
Si0 Y1 3.195272 1_655
Si0 Y3 3.195272 1_546
Si1 Si6 2.504575 1_565
Si1 Si8 2.504575 1_455
Si1 Si4 2.837801 1_555
Si1 Si4 2.837801 1_554
Si1 Y1 3.098837 1_555
Si1 Y3 3.098837 1_555
Si1 Y0 3.195272 1_455
Si1 Y2 3.195272 1_564
Si2 Y0 2.977894 1_555
Si2 Y2 2.977894 1_555
Si2 Y1 3.236594 1_556
Si2 Y3 3.236594 1_555
Si3 Y3 2.977894 1_555
Si3 Y1 2.977894 1_555
Si3 Y2 3.236594 1_555
Si3 Y0 3.236594 1_554
Si4 Si6 2.498760 1_565
Si4 Si8 2.498760 1_456
Si4 Y2 3.071377 1_565
Si4 Y0 3.071377 1_455
Si4 Y1 3.301564 1_556
Si4 Y3 3.301564 1_555
Si5 Si9 2.498760 1_654
Si5 Si7 2.498760 1_545
Si5 Y1 3.071377 1_655
Si5 Y3 3.071377 1_545
Si5 Y2 3.301564 1_555
Si5 Y0 3.301564 1_554
Si6 Y1 2.988358 1_555
Si6 Y2 3.022218 1_555
Si6 Y2 3.052231 1_554
Si6 Y3 3.157616 1_545
Si7 Y0 2.988358 1_555
Si7 Y3 3.022218 1_555
Si7 Y3 3.052231 1_556
Si7 Y2 3.157616 1_565
Si8 Y3 2.988358 1_555
Si8 Y0 3.022218 1_554
Si8 Y0 3.052231 1_555
Si8 Y1 3.157616 1_655
Si9 Y2 2.988358 1_555
Si9 Y1 3.022218 1_556
Si9 Y1 3.052231 1_555
Si9 Y0 3.157616 1_455
Rh0 Si6 2.358440 1_555
Rh0 Si5 2.362038 1_555
Rh0 Si3 2.376295 1_555
Rh0 Si2 2.410332 1_554
Rh0 Si0 2.472132 1_554
Rh0 Y2 3.064752 1_555
Rh0 Y3 3.125662 1_545
Rh0 Y2 3.158187 1_554
Rh0 Y0 3.276695 1_554
Rh0 Y1 3.458429 1_555
Rh1 Si8 2.358440 1_555
Rh1 Si5 2.362038 1_555
Rh1 Si3 2.376295 1_555
Rh1 Si2 2.410332 1_555
Rh1 Si0 2.472132 1_555
Rh1 Y0 3.064752 1_554
Rh1 Y1 3.125662 1_655
Rh1 Y0 3.158187 1_555
Rh1 Y2 3.276695 1_555
Rh1 Y3 3.458429 1_555
Rh2 Si7 2.358440 1_555
Rh2 Si4 2.362038 1_555
Rh2 Si2 2.376295 1_555
Rh2 Si3 2.410332 1_556
Rh2 Si1 2.472132 1_556
Rh2 Y3 3.064752 1_555
Rh2 Y2 3.125662 1_565
Rh2 Y3 3.158187 1_556
Rh2 Y1 3.276695 1_556
Rh2 Y0 3.458429 1_555
Rh3 Si9 2.358440 1_555
Rh3 Si4 2.362038 1_555
Rh3 Si2 2.376295 1_555
Rh3 Si3 2.410332 1_555
Rh3 Si1 2.472132 1_555
Rh3 Y1 3.064752 1_556
Rh3 Y0 3.125662 1_455
Rh3 Y1 3.158187 1_555
Rh3 Y3 3.276695 1_555
Rh3 Y2 3.458429 1_555
Rh4 Si8 2.424325 1_545
Rh4 Si6 2.424325 1_655
Rh4 Si5 2.456587 1_555
Rh4 Si9 2.474939 1_654
Rh4 Si7 2.474939 1_545
Rh4 Si1 2.664379 1_645
Rh4 Y1 3.314166 1_655
Rh4 Y3 3.314166 1_545
Rh4 Y0 3.409428 1_545
Rh4 Y2 3.409428 1_654
Rh5 Si7 2.424325 1_455
Rh5 Si9 2.424325 1_565
Rh5 Si4 2.456587 1_555
Rh5 Si8 2.474939 1_456
Rh5 Si6 2.474939 1_565
Rh5 Si0 2.664379 1_465
Rh5 Y2 3.314166 1_565
Rh5 Y0 3.314166 1_455
Rh5 Y3 3.409428 1_456
Rh5 Y1 3.409428 1_565
