# generated using pymatgen
data_LuSi2Ni
_symmetry_space_group_name_H-M   'P 1'
_cell_length_a   8.49554004
_cell_length_b   8.49554004
_cell_length_c   3.85326589
_cell_angle_alpha   90.00000000
_cell_angle_beta   90.00000000
_cell_angle_gamma   153.69156405
_symmetry_Int_Tables_number   1
_chemical_formula_structural   LuSi2Ni
_chemical_formula_sum   'Lu2 Si4 Ni2'
_cell_volume   123.25763430
_cell_formula_units_Z   2
loop_
 _symmetry_equiv_pos_site_id
 _symmetry_equiv_pos_as_xyz
  1  'x, y, z'
loop_
 _atom_site_type_symbol
 _atom_site_label
 _atom_site_symmetry_multiplicity
 _atom_site_fract_x
 _atom_site_fract_y
 _atom_site_fract_z
 _atom_site_occupancy
  Lu  Lu0  1  0.89457696  0.10542304  0.75000000  1
  Lu  Lu1  1  0.10542304  0.89457696  0.25000000  1
  Si  Si0  1  0.54019335  0.45980665  0.75000000  1
  Si  Si1  1  0.45980665  0.54019335  0.25000000  1
  Si  Si2  1  0.25004309  0.74995691  0.75000000  1
  Si  Si3  1  0.74995691  0.25004309  0.25000000  1
  Ni  Ni0  1  0.67422791  0.32577209  0.75000000  1
  Ni  Ni1  1  0.32577209  0.67422791  0.25000000  1
loop_
_geom_bond_atom_site_label_1
_geom_bond_atom_site_label_2
_geom_bond_distance
_geom_bond_site_symmetry_2
Lu0 Si1 2.935053 1_656
Lu0 Si1 2.935053 1_655
Lu0 Si1 2.935053 1_545
Lu0 Si1 2.935053 1_546
Lu0 Ni1 2.957315 1_546
Lu0 Ni1 2.957315 1_545
Lu0 Ni1 2.957315 1_656
Lu0 Ni1 2.957315 1_655
Lu0 Si3 3.072017 1_555
Lu0 Si3 3.072017 1_556
Lu0 Si2 3.075128 1_655
Lu0 Si2 3.075128 1_545
Lu0 Si0 3.089076 1_545
Lu0 Si0 3.089076 1_655
Lu1 Si0 2.935053 1_455
Lu1 Si0 2.935053 1_454
Lu1 Si0 2.935053 1_565
Lu1 Si0 2.935053 1_564
Lu1 Ni0 2.957315 1_454
Lu1 Ni0 2.957315 1_455
Lu1 Ni0 2.957315 1_565
Lu1 Ni0 2.957315 1_564
Lu1 Si2 3.072017 1_555
Lu1 Si2 3.072017 1_554
Lu1 Si3 3.075128 1_565
Lu1 Si3 3.075128 1_455
Lu1 Si1 3.089076 1_565
Lu1 Si1 3.089076 1_455
Si0 Si1 2.341124 1_555
Si0 Si1 2.341124 1_556
Si2 Si3 2.729428 1_566
Si2 Si3 2.729428 1_456
Si2 Si3 2.729428 1_455
Si2 Si3 2.729428 1_565
Ni0 Si0 2.217636 1_555
Ni0 Si3 2.298219 1_556
Ni0 Si3 2.298219 1_555
Ni0 Si2 2.304633 1_545
Ni0 Si2 2.304633 1_655
Ni1 Si1 2.217636 1_555
Ni1 Si2 2.298219 1_554
Ni1 Si2 2.298219 1_555
Ni1 Si3 2.304633 1_455
Ni1 Si3 2.304633 1_565
