# generated using pymatgen
data_Pr2CdSn
_symmetry_space_group_name_H-M   'P 1'
_cell_length_a   5.47826548
_cell_length_b   5.47826548
_cell_length_c   5.47826548
_cell_angle_alpha   60.00000000
_cell_angle_beta   60.00000000
_cell_angle_gamma   60.00000000
_symmetry_Int_Tables_number   1
_chemical_formula_structural   Pr2CdSn
_chemical_formula_sum   'Pr2 Cd1 Sn1'
_cell_volume   116.25569209
_cell_formula_units_Z   1
loop_
 _symmetry_equiv_pos_site_id
 _symmetry_equiv_pos_as_xyz
  1  'x, y, z'
loop_
 _atom_site_type_symbol
 _atom_site_label
 _atom_site_symmetry_multiplicity
 _atom_site_fract_x
 _atom_site_fract_y
 _atom_site_fract_z
 _atom_site_occupancy
  Pr  Pr0  1  -0.00000000  0.00000000  0.00000000  1
  Pr  Pr1  1  0.50000000  0.50000000  0.50000000  1
  Cd  Cd0  1  0.25000000  0.25000000  0.25000000  1
  Sn  Sn0  1  0.75000000  0.75000000  0.75000000  1
loop_
_geom_bond_atom_site_label_1
_geom_bond_atom_site_label_2
_geom_bond_distance
_geom_bond_site_symmetry_2
Pr0 Sn0 3.354739 1_544
Pr0 Sn0 3.354739 1_444
Pr0 Sn0 3.354739 1_445
Pr0 Sn0 3.354739 1_454
Pr1 Sn0 3.354739 1_545
Pr1 Sn0 3.354739 1_555
Pr1 Sn0 3.354739 1_554
Pr1 Sn0 3.354739 1_455
Cd0 Pr1 3.354739 1_554
Cd0 Pr1 3.354739 1_455
Cd0 Pr0 3.354739 1_555
Cd0 Pr0 3.354739 1_556
Cd0 Pr0 3.354739 1_565
Cd0 Pr0 3.354739 1_655
Cd0 Pr1 3.354739 1_545
Cd0 Pr1 3.354739 1_555
