# generated using pymatgen
data_Er2FeC4
_symmetry_space_group_name_H-M   'P 1'
_cell_length_a   4.95989859
_cell_length_b   6.50238461
_cell_length_c   6.50238497
_cell_angle_alpha   69.47980286
_cell_angle_beta   67.58013588
_cell_angle_gamma   67.58014262
_symmetry_Int_Tables_number   1
_chemical_formula_structural   Er2FeC4
_chemical_formula_sum   'Er4 Fe2 C8'
_cell_volume   173.96831136
_cell_formula_units_Z   2
loop_
 _symmetry_equiv_pos_site_id
 _symmetry_equiv_pos_as_xyz
  1  'x, y, z'
loop_
 _atom_site_type_symbol
 _atom_site_label
 _atom_site_symmetry_multiplicity
 _atom_site_fract_x
 _atom_site_fract_y
 _atom_site_fract_z
 _atom_site_occupancy
  Er  Er0  1  0.14449084  0.51137994  0.19963937  1
  Er  Er1  1  0.85550916  0.48862006  0.80036063  1
  Er  Er2  1  0.35550916  0.80036063  0.48862006  1
  Er  Er3  1  0.64449084  0.19963937  0.51137994  1
  Fe  Fe0  1  0.25000000  -0.00000000  0.00000000  1
  Fe  Fe1  1  0.75000000  -0.00000000  0.00000000  1
  C  C0  1  0.42192533  0.24313545  0.91301388  1
  C  C1  1  0.57807467  0.75686455  0.08698612  1
  C  C2  1  0.07807467  0.08698612  0.75686455  1
  C  C3  1  0.92192533  0.91301388  0.24313545  1
  C  C4  1  0.37043710  0.46800726  0.79112153  1
  C  C5  1  0.62956390  0.53199274  0.20887847  1
  C  C6  1  0.87043610  0.79112153  0.46800726  1
  C  C7  1  0.12956290  0.20887847  0.53199274  1
loop_
_geom_bond_atom_site_label_1
_geom_bond_atom_site_label_2
_geom_bond_distance
_geom_bond_site_symmetry_2
C0 C4 1.374235 1_555
C0 Fe0 1.892095 1_556
C0 Fe1 1.892095 1_556
C0 Er3 2.489894 1_555
C0 Er0 2.627059 1_556
C1 C5 1.374235 1_555
C1 Fe1 1.892095 1_565
C1 Fe0 1.892095 1_565
C1 Er2 2.489894 1_555
C1 Er1 2.627059 1_554
C2 C7 1.374235 1_555
C2 Fe1 1.892095 1_456
C2 Fe0 1.892095 1_556
C2 Er1 2.489894 1_455
C2 Er2 2.627059 1_545
C3 C6 1.374235 1_555
C3 Fe0 1.892095 1_665
C3 Fe1 1.892095 1_565
C3 Er0 2.489894 1_655
C3 Er3 2.627059 1_565
C4 Er2 2.356628 1_555
C4 Er1 2.484318 1_555
C4 Er1 2.484338 1_455
C4 Er0 2.530811 1_556
C4 Er3 2.594522 1_555
C5 Er3 2.356628 1_555
C5 Er0 2.484323 1_555
C5 Er0 2.484333 1_655
C5 Er1 2.530811 1_554
C5 Er2 2.594522 1_555
C6 Er1 2.356628 1_555
C6 Er2 2.484323 1_655
C6 Er2 2.484333 1_555
C6 Er3 2.530811 1_565
C6 Er0 2.594522 1_655
C7 Er0 2.356628 1_555
C7 Er3 2.484318 1_455
C7 Er3 2.484338 1_555
C7 Er2 2.530811 1_545
C7 Er1 2.594522 1_455
