# generated using pymatgen
data_Pr(BOs)2
_symmetry_space_group_name_H-M   'P 1'
_cell_length_a   5.64431455
_cell_length_b   5.64431455
_cell_length_c   6.02756856
_cell_angle_alpha   108.65419973
_cell_angle_beta   108.65419973
_cell_angle_gamma   108.47262810
_symmetry_Int_Tables_number   1
_chemical_formula_structural   Pr(BOs)2
_chemical_formula_sum   'Pr2 B4 Os4'
_cell_volume   152.43649775
_cell_formula_units_Z   2
loop_
 _symmetry_equiv_pos_site_id
 _symmetry_equiv_pos_as_xyz
  1  'x, y, z'
loop_
 _atom_site_type_symbol
 _atom_site_label
 _atom_site_symmetry_multiplicity
 _atom_site_fract_x
 _atom_site_fract_y
 _atom_site_fract_z
 _atom_site_occupancy
  Pr  Pr0  1  -0.00000000  -0.00000000  -0.00000000  1
  Pr  Pr1  1  0.25000000  0.75000100  0.50000000  1
  B  B0  1  0.68365041  0.31634959  0.00000000  1
  B  B1  1  0.31634959  0.68365041  -0.00000000  1
  B  B2  1  0.93364186  0.06636014  0.50000000  1
  B  B3  1  0.56636014  0.43364186  0.50000000  1
  Os  Os0  1  0.61335306  0.11335206  0.22670311  1
  Os  Os1  1  0.63664922  0.63664922  0.27330043  1
  Os  Os2  1  0.36335078  0.36335078  0.72670057  1
  Os  Os3  1  0.88664894  0.38664894  0.77329789  1
loop_
_geom_bond_atom_site_label_1
_geom_bond_atom_site_label_2
_geom_bond_distance
_geom_bond_site_symmetry_2
B0 Os0 2.097097 1_555
B0 Os3 2.097098 1_554
B0 Os2 2.175043 1_554
B0 Os1 2.175046 1_555
B0 Pr0 2.897757 1_655
B0 Pr1 3.074452 1_544
B0 Pr1 3.074455 1_655
B1 Os3 2.097098 1_454
B1 Os0 2.097104 1_565
B1 Os2 2.175043 1_554
B1 Os1 2.175046 1_555
B1 Pr0 2.897757 1_565
B1 Pr1 3.074453 1_555
B1 Pr1 3.074457 1_554
B2 Os2 2.097116 1_655
B2 Os1 2.097127 1_545
B2 Os0 2.174963 1_555
B2 Os3 2.174970 1_555
B2 Pr1 2.897839 1_645
B2 Pr0 3.074468 1_655
B2 Pr0 3.074475 1_656
B3 Os1 2.097106 1_555
B3 Os2 2.097122 1_555
B3 Os3 2.174970 1_555
B3 Os0 2.174970 1_555
B3 Pr1 2.897849 1_555
B3 Pr0 3.074468 1_666
B3 Pr0 3.074475 1_555
Os0 Pr0 3.045077 1_655
Os0 Pr0 3.045091 1_555
Os1 Pr1 3.045075 1_555
Os1 Pr1 3.045079 1_655
Os2 Pr1 3.045076 1_545
Os2 Pr1 3.045083 1_555
Os3 Pr0 3.045082 1_656
Os3 Pr0 3.045082 1_666
