# generated using pymatgen
data_Nd(Mg4Al3)4
_symmetry_space_group_name_H-M   'P 1'
_cell_length_a   9.25906695
_cell_length_b   9.25906695
_cell_length_c   9.25906680
_cell_angle_alpha   110.14944546
_cell_angle_beta   110.14944546
_cell_angle_gamma   110.14943970
_symmetry_Int_Tables_number   1
_chemical_formula_structural   Nd(Mg4Al3)4
_chemical_formula_sum   'Nd1 Mg16 Al12'
_cell_volume   595.21642694
_cell_formula_units_Z   1
loop_
 _symmetry_equiv_pos_site_id
 _symmetry_equiv_pos_as_xyz
  1  'x, y, z'
loop_
 _atom_site_type_symbol
 _atom_site_label
 _atom_site_symmetry_multiplicity
 _atom_site_fract_x
 _atom_site_fract_y
 _atom_site_fract_z
 _atom_site_occupancy
  Nd  Nd0  1  0.62864700  0.62864700  0.62864700  1
  Mg  Mg0  1  0.34658100  0.00408300  0.00408300  1
  Mg  Mg1  1  0.71917000  0.38722200  0.38722200  1
  Mg  Mg2  1  0.00381300  0.00381300  0.00381300  1
  Mg  Mg3  1  0.28295000  0.68479000  0.68479000  1
  Mg  Mg4  1  0.99859900  0.60558700  0.31165600  1
  Mg  Mg5  1  0.60558700  0.31165600  0.99859900  1
  Mg  Mg6  1  0.38722200  0.71917000  0.38722200  1
  Mg  Mg7  1  0.00408300  0.34658100  0.00408300  1
  Mg  Mg8  1  0.31165600  0.99859900  0.60558700  1
  Mg  Mg9  1  0.68479000  0.68479000  0.28295000  1
  Mg  Mg10  1  0.68479000  0.28295000  0.68479000  1
  Mg  Mg11  1  0.31165600  0.60558700  0.99859900  1
  Mg  Mg12  1  0.00408300  0.00408300  0.34658100  1
  Mg  Mg13  1  0.38722200  0.38722200  0.71917000  1
  Mg  Mg14  1  0.60558700  0.99859900  0.31165600  1
  Mg  Mg15  1  0.99859900  0.31165600  0.60558700  1
  Al  Al0  1  0.18652400  0.37007300  0.37007300  1
  Al  Al1  1  0.82526900  0.18921900  0.18921900  1
  Al  Al2  1  0.00159600  0.81512000  0.63557600  1
  Al  Al3  1  0.37007300  0.37007300  0.18652400  1
  Al  Al4  1  0.63557600  0.00159600  0.81512000  1
  Al  Al5  1  0.18921900  0.18921900  0.82526900  1
  Al  Al6  1  0.81512000  0.00159600  0.63557600  1
  Al  Al7  1  0.81512000  0.63557600  0.00159600  1
  Al  Al8  1  0.18921900  0.82526900  0.18921900  1
  Al  Al9  1  0.63557600  0.81512000  0.00159600  1
  Al  Al10  1  0.37007300  0.18652400  0.37007300  1
  Al  Al11  1  0.00159600  0.63557600  0.81512000  1
loop_
_geom_bond_atom_site_label_1
_geom_bond_atom_site_label_2
_geom_bond_distance
_geom_bond_site_symmetry_2
Mg0 Mg14 3.056513 1_545
Mg0 Mg5 3.056513 1_554
Mg0 Mg3 3.066899 1_544
Mg0 Mg2 3.171990 1_555
Mg0 Mg1 3.396744 1_555
Mg1 Mg5 3.113630 1_554
Mg1 Mg14 3.113631 1_545
Mg1 Nd0 3.136129 1_555
Mg1 Mg15 3.144704 1_555
Mg1 Mg4 3.144705 1_555
Mg1 Mg10 3.293888 1_555
Mg1 Mg9 3.293888 1_555
Mg2 Mg7 3.171990 1_555
Mg2 Nd0 3.355625 1_444
Mg3 Mg4 3.172281 1_455
Mg3 Mg8 3.181360 1_555
Mg3 Mg6 3.293888 1_555
Mg3 Nd0 3.590578 1_555
Mg4 Mg7 3.056513 1_655
Mg4 Mg5 3.086412 1_554
Mg4 Mg8 3.086412 1_655
Mg4 Mg6 3.113631 1_655
Mg4 Mg9 3.181360 1_555
Mg5 Mg8 3.086412 1_545
Mg5 Mg9 3.172281 1_556
Mg6 Nd0 3.136129 1_555
Mg6 Mg8 3.144704 1_555
Mg6 Mg9 3.293888 1_555
Mg6 Mg7 3.396744 1_555
Mg9 Nd0 3.590578 1_555
Mg10 Mg7 3.066899 1_656
Mg10 Mg14 3.172281 1_545
Mg10 Mg8 3.172281 1_545
Mg10 Mg5 3.181360 1_555
Mg10 Mg15 3.181360 1_555
Mg10 Mg13 3.293888 1_555
Mg10 Nd0 3.590578 1_555
Mg11 Mg7 3.056513 1_556
Mg11 Mg15 3.086412 1_455
Mg11 Mg14 3.086412 1_556
Mg11 Mg6 3.113630 1_556
Mg11 Mg13 3.144704 1_555
Mg11 Mg9 3.172281 1_556
Mg11 Mg3 3.181360 1_555
Mg12 Mg15 3.056513 1_455
Mg12 Mg8 3.056513 1_545
Mg12 Mg9 3.066899 1_445
Mg12 Mg2 3.171990 1_555
Mg12 Mg13 3.396744 1_555
Mg13 Mg8 3.113631 1_545
Mg13 Mg15 3.113631 1_455
Mg13 Nd0 3.136130 1_555
Mg13 Mg5 3.144704 1_555
Mg13 Mg3 3.293888 1_555
Mg14 Mg15 3.086412 1_565
Mg14 Mg6 3.144705 1_555
Mg14 Mg9 3.181360 1_555
Mg15 Mg3 3.172281 1_655
Al0 Al1 2.673364 1_455
Al0 Al10 2.786826 1_555
Al0 Al3 2.786826 1_555
Al0 Mg3 2.888768 1_555
Al0 Mg13 3.038295 1_555
Al0 Mg6 3.038295 1_555
Al0 Mg7 3.111205 1_555
Al0 Mg12 3.111206 1_555
Al0 Mg2 3.167764 1_555
Al0 Nd0 3.281547 1_555
Al0 Mg4 3.294488 1_455
Al0 Mg15 3.294488 1_455
Al1 Al4 2.767976 1_554
Al1 Al9 2.767976 1_545
Al1 Mg1 2.802359 1_555
Al1 Mg5 3.005231 1_554
Al1 Mg14 3.005231 1_545
Al1 Mg12 3.133141 1_655
Al1 Mg7 3.133141 1_655
Al1 Mg15 3.193160 1_555
Al1 Mg4 3.193160 1_555
Al1 Mg2 3.241444 1_655
Al2 Al5 2.767976 1_565
Al2 Al6 2.831266 1_465
Al2 Mg4 2.942229 1_455
Al2 Mg8 2.952822 1_555
Al2 Mg9 2.994915 1_455
Al2 Mg0 3.071572 1_566
Al2 Mg3 3.190150 1_555
Al2 Mg1 3.204034 1_455
Al2 Mg2 3.240510 1_566
Al2 Nd0 3.251612 1_455
Al3 Al5 2.673363 1_554
Al3 Mg9 2.888768 1_555
Al3 Mg1 3.038295 1_555
Al3 Mg6 3.038295 1_555
Al3 Mg7 3.111205 1_555
Al3 Mg0 3.111205 1_555
Al3 Mg2 3.167764 1_555
Al3 Nd0 3.281547 1_555
Al3 Mg5 3.294488 1_554
Al3 Mg11 3.294488 1_554
Al4 Al6 2.726018 1_555
Al4 Al9 2.831266 1_546
Al4 Mg8 2.942229 1_545
Al4 Mg5 2.952822 1_555
Al4 Mg3 2.994915 1_545
Al4 Mg7 3.071572 1_656
Al4 Mg10 3.190150 1_555
Al4 Mg6 3.204034 1_545
Al4 Mg2 3.240510 1_656
Al4 Nd0 3.251612 1_545
Al5 Al6 2.767976 1_455
Al5 Mg13 2.802360 1_555
Al5 Mg8 3.005231 1_545
Al5 Mg15 3.005231 1_455
Al5 Mg0 3.133141 1_556
Al5 Mg7 3.133141 1_556
Al5 Mg11 3.193160 1_555
Al5 Mg5 3.193160 1_555
Al5 Mg2 3.241444 1_556
Al6 Mg14 2.942229 1_545
Al6 Mg15 2.952822 1_555
Al6 Mg9 2.994915 1_545
Al6 Mg7 3.071572 1_656
Al6 Mg10 3.190150 1_555
Al6 Mg6 3.204034 1_545
Al6 Mg2 3.240510 1_656
Al6 Nd0 3.251612 1_545
Al7 Al9 2.726018 1_555
Al7 Al8 2.767976 1_655
Al7 Mg5 2.942229 1_554
Al7 Mg4 2.952822 1_555
Al7 Mg10 2.994915 1_554
Al7 Mg12 3.071572 1_665
Al7 Mg9 3.190150 1_555
Al7 Mg13 3.204034 1_554
Al7 Mg2 3.240511 1_665
Al7 Nd0 3.251612 1_554
Al8 Mg6 2.802359 1_555
Al8 Mg11 3.005231 1_554
Al8 Mg4 3.005231 1_455
Al8 Mg12 3.133141 1_565
Al8 Mg0 3.133141 1_565
Al8 Mg8 3.193160 1_555
Al8 Mg14 3.193160 1_555
Al8 Mg2 3.241444 1_565
Al9 Mg11 2.942229 1_554
Al9 Mg14 2.952822 1_555
Al9 Mg3 2.994915 1_554
Al9 Mg12 3.071572 1_665
Al9 Mg9 3.190150 1_555
Al9 Mg13 3.204034 1_554
Al9 Mg2 3.240511 1_665
Al9 Nd0 3.251612 1_554
Al10 Al8 2.673364 1_545
Al10 Al3 2.786826 1_555
Al10 Mg10 2.888768 1_555
Al10 Mg13 3.038295 1_555
Al10 Mg1 3.038295 1_555
Al10 Mg0 3.111205 1_555
Al10 Mg12 3.111206 1_555
Al10 Mg2 3.167764 1_555
Al10 Nd0 3.281547 1_555
Al10 Mg14 3.294488 1_545
Al10 Mg8 3.294488 1_545
Al11 Al2 2.726018 1_555
Al11 Al8 2.767976 1_556
Al11 Al7 2.831266 1_456
Al11 Mg15 2.942229 1_455
Al11 Mg11 2.952822 1_555
Al11 Mg10 2.994915 1_455
Al11 Mg0 3.071572 1_566
Al11 Mg3 3.190150 1_555
Al11 Mg1 3.204034 1_455
Al11 Mg2 3.240510 1_566
Al11 Nd0 3.251612 1_455
