# generated using pymatgen
data_Tm3(GePd)4
_symmetry_space_group_name_H-M   'P 1'
_cell_length_a   4.11640680
_cell_length_b   7.03816920
_cell_length_c   7.99963506
_cell_angle_alpha   116.09786322
_cell_angle_beta   104.90914240
_cell_angle_gamma   90.00000497
_symmetry_Int_Tables_number   1
_chemical_formula_structural   Tm3(GePd)4
_chemical_formula_sum   'Tm3 Ge4 Pd4'
_cell_volume   199.41051016
_cell_formula_units_Z   1
loop_
 _symmetry_equiv_pos_site_id
 _symmetry_equiv_pos_as_xyz
  1  'x, y, z'
loop_
 _atom_site_type_symbol
 _atom_site_label
 _atom_site_symmetry_multiplicity
 _atom_site_fract_x
 _atom_site_fract_y
 _atom_site_fract_z
 _atom_site_occupancy
  Tm  Tm0  1  0.87470940  0.37470940  0.74941780  1
  Tm  Tm1  1  0.12529060  0.62529060  0.25058220  1
  Tm  Tm2  1  -0.00000000  -0.00000000  -0.00000000  1
  Ge  Ge0  1  0.50000000  0.68811292  0.00000000  1
  Ge  Ge1  1  0.50000000  0.31188708  1.00000000  1
  Ge  Ge2  1  0.21891924  0.21891924  0.43783748  1
  Ge  Ge3  1  0.78108076  0.78108076  0.56216252  1
  Pd  Pd0  1  0.32459948  0.62373064  0.64919896  1
  Pd  Pd1  1  0.67540052  0.97453168  0.35080104  1
  Pd  Pd2  1  0.32459948  0.02546832  0.64919896  1
  Pd  Pd3  1  0.67540052  0.37626936  0.35080104  1
loop_
_geom_bond_atom_site_label_1
_geom_bond_atom_site_label_2
_geom_bond_distance
_geom_bond_site_symmetry_2
Ge0 Pd1 2.537802 1_555
Ge0 Pd0 2.537803 1_554
Ge0 Ge1 2.647941 1_554
Ge0 Tm0 2.993955 1_454
Ge0 Tm0 2.993957 1_554
Ge0 Tm1 2.993958 1_655
Ge0 Tm1 2.993960 1_555
Ge0 Tm2 3.009107 1_665
Ge0 Tm2 3.009107 1_565
Ge1 Pd2 2.537802 1_555
Ge1 Pd3 2.537803 1_556
Ge1 Tm1 2.993955 1_656
Ge1 Tm1 2.993957 1_556
Ge1 Tm0 2.993958 1_455
Ge1 Tm0 2.993960 1_555
Ge1 Tm2 3.009107 1_556
Ge1 Tm2 3.009107 1_656
Ge2 Pd0 2.559061 1_555
Ge2 Pd2 2.559067 1_555
Ge2 Pd3 2.567828 1_555
Ge2 Pd3 2.567832 1_455
Ge2 Pd1 2.567832 1_545
Ge2 Pd1 2.567836 1_445
Ge2 Tm0 2.972436 1_455
Ge2 Tm0 2.972437 1_555
Ge2 Tm2 3.013582 1_555
Ge3 Pd3 2.559061 1_555
Ge3 Pd1 2.559067 1_555
Ge3 Pd0 2.567828 1_555
Ge3 Pd0 2.567832 1_655
Ge3 Pd2 2.567832 1_565
Ge3 Pd2 2.567836 1_665
Ge3 Tm1 2.972436 1_655
Ge3 Tm1 2.972437 1_555
Ge3 Tm2 3.013582 1_666
Pd0 Tm0 3.023976 1_455
Pd0 Tm0 3.023979 1_555
Pd0 Tm1 3.086452 1_555
Pd1 Tm1 3.023981 1_655
Pd1 Tm1 3.023984 1_555
Pd1 Tm0 3.086455 1_565
Pd2 Tm0 3.023981 1_455
Pd2 Tm0 3.023984 1_555
Pd2 Tm1 3.086455 1_545
Pd3 Tm1 3.023976 1_655
Pd3 Tm1 3.023979 1_555
Pd3 Tm0 3.086452 1_555
