# generated using pymatgen
data_AuBrO2
_symmetry_space_group_name_H-M   'P 1'
_cell_length_a   10.98579985
_cell_length_b   10.98579985
_cell_length_c   3.62052582
_cell_angle_alpha   88.94605174
_cell_angle_beta   88.94605174
_cell_angle_gamma   154.52399645
_symmetry_Int_Tables_number   1
_chemical_formula_structural   AuBrO2
_chemical_formula_sum   'Au2 Br2 O4'
_cell_volume   187.29292962
_cell_formula_units_Z   2
loop_
 _symmetry_equiv_pos_site_id
 _symmetry_equiv_pos_as_xyz
  1  'x, y, z'
loop_
 _atom_site_type_symbol
 _atom_site_label
 _atom_site_symmetry_multiplicity
 _atom_site_fract_x
 _atom_site_fract_y
 _atom_site_fract_z
 _atom_site_occupancy
  Au  Au0  1  0.50000000  0.00000000  0.00000000  1
  Au  Au1  1  0.00000000  0.50000000  0.50000000  1
  Br  Br0  1  0.34542000  0.65458000  0.25000000  1
  Br  Br1  1  0.65458000  0.34542000  0.75000000  1
  O  O0  1  0.90320000  0.84128000  0.26427000  1
  O  O1  1  0.84128000  0.90320000  0.76427000  1
  O  O2  1  0.09680000  0.15872000  0.73573000  1
  O  O3  1  0.15872000  0.09680000  0.23573000  1
loop_
_geom_bond_atom_site_label_1
_geom_bond_atom_site_label_2
_geom_bond_distance
_geom_bond_site_symmetry_2
Au0 Br1 2.506987 1_554
Au0 Br0 2.506987 1_545
Au1 Br0 2.506987 1_555
Au1 Br1 2.506987 1_455
O0 O3 1.233574 1_665
O1 O2 1.233574 1_665
