# generated using pymatgen
data_Tm2CoCu
_symmetry_space_group_name_H-M   'P 1'
_cell_length_a   4.73376252
_cell_length_b   4.73376252
_cell_length_c   4.73376252
_cell_angle_alpha   60.00000000
_cell_angle_beta   60.00000000
_cell_angle_gamma   60.00000000
_symmetry_Int_Tables_number   1
_chemical_formula_structural   Tm2CoCu
_chemical_formula_sum   'Tm2 Co1 Cu1'
_cell_volume   75.00745033
_cell_formula_units_Z   1
loop_
 _symmetry_equiv_pos_site_id
 _symmetry_equiv_pos_as_xyz
  1  'x, y, z'
loop_
 _atom_site_type_symbol
 _atom_site_label
 _atom_site_symmetry_multiplicity
 _atom_site_fract_x
 _atom_site_fract_y
 _atom_site_fract_z
 _atom_site_occupancy
  Tm  Tm0  1  -0.00000000  -0.00000000  -0.00000000  1
  Tm  Tm1  1  0.50000100  0.50000100  0.50000100  1
  Co  Co0  1  0.25000000  0.25000000  0.25000000  1
  Cu  Cu0  1  0.74999900  0.74999900  0.74999900  1
loop_
_geom_bond_atom_site_label_1
_geom_bond_atom_site_label_2
_geom_bond_distance
_geom_bond_site_symmetry_2
Co0 Tm1 2.898822 1_545
Co0 Tm1 2.898822 1_455
Co0 Tm1 2.898822 1_554
Co0 Tm0 2.898826 1_565
Co0 Tm0 2.898826 1_555
Co0 Tm0 2.898826 1_655
Co0 Tm0 2.898826 1_556
Co0 Tm1 2.898837 1_555
Cu0 Tm1 2.898802 1_555
Cu0 Tm0 2.898822 1_566
Cu0 Tm0 2.898822 1_665
Cu0 Tm0 2.898822 1_656
Cu0 Tm1 2.898833 1_655
Cu0 Tm1 2.898833 1_565
Cu0 Tm1 2.898833 1_556
Cu0 Tm0 2.898837 1_666
