# generated using pymatgen
data_Pr3Y
_symmetry_space_group_name_H-M   'P 1'
_cell_length_a   7.52482799
_cell_length_b   7.52350415
_cell_length_c   5.89937312
_cell_angle_alpha   90.00000000
_cell_angle_beta   90.00000000
_cell_angle_gamma   120.00154062
_symmetry_Int_Tables_number   1
_chemical_formula_structural   Pr3Y
_chemical_formula_sum   'Pr6 Y2'
_cell_volume   289.23210350
_cell_formula_units_Z   2
loop_
 _symmetry_equiv_pos_site_id
 _symmetry_equiv_pos_as_xyz
  1  'x, y, z'
loop_
 _atom_site_type_symbol
 _atom_site_label
 _atom_site_symmetry_multiplicity
 _atom_site_fract_x
 _atom_site_fract_y
 _atom_site_fract_z
 _atom_site_occupancy
  Pr  Pr0  1  0.16739511  0.33502067  0.25000000  1
  Pr  Pr1  1  0.66488545  0.83243030  0.25000000  1
  Pr  Pr2  1  0.16744597  0.83223213  0.25000000  1
  Pr  Pr3  1  0.83207517  0.66409788  0.75000000  1
  Pr  Pr4  1  0.33594148  0.16810160  0.75000000  1
  Pr  Pr5  1  0.83225406  0.16815054  0.75000000  1
  Y  Y0  1  0.33342164  0.66674597  0.75000000  1
  Y  Y1  1  0.66658112  0.33321991  0.25000000  1
loop_
_geom_bond_atom_site_label_1
_geom_bond_atom_site_label_2
_geom_bond_distance
_geom_bond_site_symmetry_2
Pr0 Y0 3.656779 1_554
Pr0 Y0 3.656779 1_555
Pr0 Pr5 3.670210 1_455
Pr0 Pr5 3.670210 1_454
Pr0 Pr4 3.671385 1_555
Pr0 Pr4 3.671385 1_554
Pr0 Pr2 3.740581 1_555
Pr0 Pr1 3.742809 1_555
Pr0 Y1 3.761783 1_455
Pr0 Y1 3.763081 1_555
Pr0 Pr1 3.781182 1_445
Pr0 Pr2 3.782923 1_545
Pr1 Y0 3.655997 1_555
Pr1 Y0 3.655997 1_554
Pr1 Pr3 3.671601 1_555
Pr1 Pr3 3.671601 1_554
Pr1 Pr5 3.672225 1_564
Pr1 Pr5 3.672225 1_565
Pr1 Pr2 3.742401 1_555
Pr1 Y1 3.761329 1_565
Pr1 Y1 3.762208 1_555
Pr1 Pr2 3.782427 1_655
Pr2 Y0 3.655907 1_554
Pr2 Y0 3.655907 1_555
Pr2 Pr3 3.671098 1_454
Pr2 Pr3 3.671098 1_455
Pr2 Pr4 3.672805 1_565
Pr2 Pr4 3.672805 1_564
Pr2 Y1 3.761555 1_455
Pr2 Y1 3.762475 1_565
Pr3 Y1 3.653519 1_555
Pr3 Y1 3.653519 1_556
Pr3 Pr5 3.731935 1_555
Pr3 Pr4 3.732389 1_555
Pr3 Y0 3.762284 1_555
Pr3 Y0 3.762624 1_655
Pr3 Pr5 3.791569 1_565
Pr3 Pr4 3.791602 1_665
Pr4 Y1 3.652827 1_556
Pr4 Y1 3.652827 1_555
Pr4 Pr5 3.734483 1_555
Pr4 Y0 3.761070 1_555
Pr4 Y0 3.762506 1_545
Pr4 Pr5 3.790345 1_455
Pr5 Y1 3.653140 1_556
Pr5 Y1 3.653140 1_555
Pr5 Y0 3.761145 1_655
Pr5 Y0 3.762921 1_545
