# generated using pymatgen
data_LiZnSb
_symmetry_space_group_name_H-M   'P 1'
_cell_length_a   4.42299786
_cell_length_b   4.42299786
_cell_length_c   7.16481418
_cell_angle_alpha   90.00000000
_cell_angle_beta   90.00000000
_cell_angle_gamma   119.99999319
_symmetry_Int_Tables_number   1
_chemical_formula_structural   LiZnSb
_chemical_formula_sum   'Li2 Zn2 Sb2'
_cell_volume   121.38612629
_cell_formula_units_Z   2
loop_
 _symmetry_equiv_pos_site_id
 _symmetry_equiv_pos_as_xyz
  1  'x, y, z'
loop_
 _atom_site_type_symbol
 _atom_site_label
 _atom_site_symmetry_multiplicity
 _atom_site_fract_x
 _atom_site_fract_y
 _atom_site_fract_z
 _atom_site_occupancy
  Li  Li0  1  -0.00000000  0.00000000  0.67598323  1
  Li  Li1  1  -0.00000000  0.00000000  0.17598323  1
  Zn  Zn0  1  0.33333300  0.66666700  0.01132357  1
  Zn  Zn1  1  0.66666700  0.33333300  0.51132357  1
  Sb  Sb0  1  0.66666700  0.33333300  0.89369220  1
  Sb  Sb1  1  0.33333300  0.66666700  0.39369220  1
loop_
_geom_bond_atom_site_label_1
_geom_bond_atom_site_label_2
_geom_bond_distance
_geom_bond_site_symmetry_2
Li0 Zn1 2.812966 1_455
Li0 Zn1 2.812970 1_555
Li0 Zn1 2.812970 1_445
Li0 Sb0 2.992335 1_455
Li0 Sb0 2.992339 1_555
Li0 Sb0 2.992339 1_445
Li0 Sb1 3.257563 1_545
Li0 Sb1 3.257566 1_555
Li0 Sb1 3.257566 1_445
Li1 Zn0 2.812966 1_545
Li1 Zn0 2.812970 1_445
Li1 Zn0 2.812970 1_555
Li1 Sb1 2.992335 1_545
Li1 Sb1 2.992339 1_555
Li1 Sb1 2.992339 1_445
Li1 Sb0 3.257563 1_454
Li1 Sb0 3.257566 1_554
Li1 Sb0 3.257566 1_444
Sb0 Zn0 2.689104 1_546
Sb0 Zn0 2.689104 1_656
Sb0 Zn0 2.689111 1_556
Sb0 Zn1 2.739600 1_555
Sb1 Zn1 2.689104 1_455
Sb1 Zn1 2.689104 1_565
Sb1 Zn1 2.689111 1_555
Sb1 Zn0 2.739600 1_555
