# generated using pymatgen
data_LiHf2Ir
_symmetry_space_group_name_H-M   'P 1'
_cell_length_a   4.60315774
_cell_length_b   4.60316424
_cell_length_c   4.60316135
_cell_angle_alpha   60.00006235
_cell_angle_beta   60.00002597
_cell_angle_gamma   60.00001555
_symmetry_Int_Tables_number   1
_chemical_formula_structural   LiHf2Ir
_chemical_formula_sum   'Li1 Hf2 Ir1'
_cell_volume   68.96899046
_cell_formula_units_Z   1
loop_
 _symmetry_equiv_pos_site_id
 _symmetry_equiv_pos_as_xyz
  1  'x, y, z'
loop_
 _atom_site_type_symbol
 _atom_site_label
 _atom_site_symmetry_multiplicity
 _atom_site_fract_x
 _atom_site_fract_y
 _atom_site_fract_z
 _atom_site_occupancy
  Li  Li0  1  0.75000000  0.75000000  0.75000000  1
  Hf  Hf0  1  -0.00000000  -0.00000000  0.00000000  1
  Hf  Hf1  1  0.49999900  0.50000000  0.50000000  1
  Ir  Ir0  1  0.24999900  0.24999900  0.24999900  1
loop_
_geom_bond_atom_site_label_1
_geom_bond_atom_site_label_2
_geom_bond_distance
_geom_bond_site_symmetry_2
Hf0 Ir0 2.818837 1_555
Hf0 Li0 2.818847 1_544
Hf0 Li0 2.818848 1_444
Hf0 Li0 2.818851 1_445
Hf0 Ir0 2.818851 1_455
Hf0 Li0 2.818852 1_454
Hf0 Ir0 2.818855 1_554
Hf0 Ir0 2.818856 1_545
Hf1 Li0 2.818844 1_455
Hf1 Ir0 2.818847 1_556
Hf1 Ir0 2.818847 1_655
Hf1 Ir0 2.818849 1_565
Hf1 Li0 2.818851 1_554
Hf1 Li0 2.818852 1_555
Hf1 Li0 2.818852 1_545
Hf1 Ir0 2.818856 1_555
