# generated using pymatgen
data_PmDy3
_symmetry_space_group_name_H-M   'P 1'
_cell_length_a   6.18589452
_cell_length_b   6.18589452
_cell_length_c   6.18589452
_cell_angle_alpha   131.74838598
_cell_angle_beta   131.74838598
_cell_angle_gamma   70.62671535
_symmetry_Int_Tables_number   1
_chemical_formula_structural   PmDy3
_chemical_formula_sum   'Pm1 Dy3'
_cell_volume   129.07936657
_cell_formula_units_Z   1
loop_
 _symmetry_equiv_pos_site_id
 _symmetry_equiv_pos_as_xyz
  1  'x, y, z'
loop_
 _atom_site_type_symbol
 _atom_site_label
 _atom_site_symmetry_multiplicity
 _atom_site_fract_x
 _atom_site_fract_y
 _atom_site_fract_z
 _atom_site_occupancy
  Pm  Pm0  1  0.00000000  0.00000000  0.00000000  1
  Dy  Dy0  1  0.75000200  0.25000100  0.50000100  1
  Dy  Dy1  1  0.25000100  0.75000200  0.50000100  1
  Dy  Dy2  1  0.50000000  0.50000000  0.00000000  1
loop_
_geom_bond_atom_site_label_1
_geom_bond_atom_site_label_2
_geom_bond_distance
_geom_bond_site_symmetry_2
Dy0 Dy2 3.572496 1_656
Dy0 Pm0 3.572500 1_655
Dy0 Pm0 3.572500 1_666
Dy0 Dy2 3.572504 1_555
Dy0 Pm0 3.572511 1_656
Dy0 Dy2 3.572514 1_545
Dy0 Dy2 3.572514 1_556
Dy0 Pm0 3.572518 1_555
Dy0 Dy1 3.575736 1_645
Dy0 Dy1 3.575743 1_656
Dy0 Dy1 3.575743 1_544
Dy0 Dy1 3.575750 1_555
Dy1 Dy2 3.572496 1_566
Dy1 Pm0 3.572500 1_565
Dy1 Pm0 3.572500 1_666
Dy1 Dy2 3.572504 1_555
Dy1 Pm0 3.572511 1_566
Dy1 Dy2 3.572514 1_455
Dy1 Dy2 3.572514 1_556
Dy1 Pm0 3.572518 1_555
Dy2 Pm0 3.575743 1_655
Dy2 Pm0 3.575743 1_666
Dy2 Pm0 3.575743 1_554
Dy2 Pm0 3.575743 1_565
