# generated using pymatgen
data_Ge3Rh2Se3
_symmetry_space_group_name_H-M   'P 1'
_cell_length_a   7.08092300
_cell_length_b   10.01393700
_cell_length_c   10.01393739
_cell_angle_alpha   120.00000200
_cell_angle_beta   90.00000000
_cell_angle_gamma   90.00000000
_symmetry_Int_Tables_number   1
_chemical_formula_structural   Ge3Rh2Se3
_chemical_formula_sum   'Ge12 Rh8 Se12'
_cell_volume   614.93642886
_cell_formula_units_Z   4
loop_
 _symmetry_equiv_pos_site_id
 _symmetry_equiv_pos_as_xyz
  1  'x, y, z'
loop_
 _atom_site_type_symbol
 _atom_site_label
 _atom_site_symmetry_multiplicity
 _atom_site_fract_x
 _atom_site_fract_y
 _atom_site_fract_z
 _atom_site_occupancy
  Ge  Ge0  1  0.16411200  0.50223900  0.34878700  1
  Ge  Ge1  1  0.50223900  0.34878700  0.16411200  1
  Ge  Ge2  1  0.34878700  0.16411200  0.50223900  1
  Ge  Ge3  1  0.83588800  0.49776100  0.65121300  1
  Ge  Ge4  1  0.49776100  0.65121300  0.83588800  1
  Ge  Ge5  1  0.65121300  0.83588800  0.49776100  1
  Ge  Ge6  1  0.66362400  0.00257600  0.15181500  1
  Ge  Ge7  1  0.00257600  0.15181500  0.66362400  1
  Ge  Ge8  1  0.15181500  0.66362400  0.00257600  1
  Ge  Ge9  1  0.33637600  0.99742400  0.84818500  1
  Ge  Ge10  1  0.99742400  0.84818500  0.33637600  1
  Ge  Ge11  1  0.84818500  0.33637600  0.99742400  1
  Rh  Rh0  1  0.74769700  0.74769700  0.74769700  1
  Rh  Rh1  1  0.25230300  0.25230300  0.25230300  1
  Rh  Rh2  1  0.24607100  0.75079500  0.25251500  1
  Rh  Rh3  1  0.75079500  0.25251500  0.24607100  1
  Rh  Rh4  1  0.25251500  0.24607100  0.75079500  1
  Rh  Rh5  1  0.75392900  0.24920500  0.74748500  1
  Rh  Rh6  1  0.24920500  0.74748500  0.75392900  1
  Rh  Rh7  1  0.74748500  0.75392900  0.24920500  1
  Se  Se0  1  0.14785500  0.49868700  0.64400000  1
  Se  Se1  1  0.49868700  0.64400000  0.14785500  1
  Se  Se2  1  0.64400000  0.14785500  0.49868700  1
  Se  Se3  1  0.85214500  0.50131300  0.35600000  1
  Se  Se4  1  0.50131300  0.35600000  0.85214500  1
  Se  Se5  1  0.35600000  0.85214500  0.50131300  1
  Se  Se6  1  0.64755400  0.99643100  0.85668600  1
  Se  Se7  1  0.99643100  0.85668600  0.64755400  1
  Se  Se8  1  0.85668600  0.64755400  0.99643100  1
  Se  Se9  1  0.35244600  0.00356900  0.14331400  1
  Se  Se10  1  0.00356900  0.14331400  0.35244600  1
  Se  Se11  1  0.14331400  0.35244600  0.00356900  1
loop_
_geom_bond_atom_site_label_1
_geom_bond_atom_site_label_2
_geom_bond_distance
_geom_bond_site_symmetry_2
Ge0 Se3 2.210366 1_455
Ge0 Rh1 2.273653 1_555
Ge1 Rh3 2.343475 1_555
Ge1 Rh1 2.387223 1_555
Ge2 Se2 2.095631 1_555
Ge2 Rh4 2.300158 1_555
Ge2 Se10 2.820712 1_555
Ge3 Se0 2.210366 1_655
Ge3 Rh0 2.273653 1_555
Ge4 Rh6 2.343475 1_555
Ge4 Rh0 2.387223 1_555
Ge5 Se5 2.095631 1_555
Ge5 Rh7 2.300158 1_555
Ge5 Se7 2.820712 1_555
Ge6 Se9 2.205286 1_555
Ge6 Rh3 2.274615 1_555
Ge6 Se6 2.927333 1_544
Ge6 Se10 2.997579 1_655
Ge6 Se2 3.024566 1_555
Ge6 Rh7 3.151483 1_545
Ge7 Rh5 1.984249 1_455
Ge7 Rh4 1.990264 1_555
Ge7 Se7 2.878646 1_445
Ge8 Se8 2.094513 1_454
Ge8 Rh2 2.299348 1_555
Ge9 Se6 2.205286 1_555
Ge9 Rh6 2.274615 1_555
Ge9 Se9 2.927333 1_566
Ge9 Se7 2.997579 1_455
Ge9 Se5 3.024566 1_555
Ge9 Rh4 3.151483 1_565
Ge10 Rh2 1.984249 1_655
Ge10 Rh7 1.990264 1_555
Ge10 Se10 2.878646 1_665
Ge11 Se11 2.094513 1_656
Ge11 Rh5 2.299348 1_555
Rh0 Se6 2.275880 1_555
Rh0 Se7 2.528514 1_555
Rh1 Se9 2.275880 1_555
Rh1 Se10 2.528514 1_555
Rh2 Se1 2.078686 1_555
Rh2 Se5 2.305355 1_555
Rh3 Se3 2.278487 1_555
Rh3 Se10 2.588251 1_655
Rh4 Se4 2.056277 1_555
Rh4 Se11 2.333138 1_556
Rh5 Se4 2.078686 1_555
Rh5 Se2 2.305355 1_555
Rh6 Se0 2.278487 1_555
Rh6 Se7 2.588251 1_455
Rh7 Se1 2.056277 1_555
Rh7 Se8 2.333138 1_554
