# generated using pymatgen
data_ScBe13
_symmetry_space_group_name_H-M   'P 1'
_cell_length_a   7.10320543
_cell_length_b   7.10320614
_cell_length_c   7.10320829
_cell_angle_alpha   60.00177223
_cell_angle_beta   60.00177555
_cell_angle_gamma   60.00177226
_symmetry_Int_Tables_number   1
_chemical_formula_structural   ScBe13
_chemical_formula_sum   'Sc2 Be26'
_cell_volume   253.43454151
_cell_formula_units_Z   2
loop_
 _symmetry_equiv_pos_site_id
 _symmetry_equiv_pos_as_xyz
  1  'x, y, z'
loop_
 _atom_site_type_symbol
 _atom_site_label
 _atom_site_symmetry_multiplicity
 _atom_site_fract_x
 _atom_site_fract_y
 _atom_site_fract_z
 _atom_site_occupancy
  Sc  Sc0  1  0.24999900  0.25000000  0.24999900  1
  Sc  Sc1  1  0.75000100  0.75000100  0.75000100  1
  Be  Be0  1  0.29274808  0.06247993  0.93753616  1
  Be  Be1  1  0.06257770  0.29266353  0.70719215  1
  Be  Be2  1  0.70725292  0.93751807  0.06246284  1
  Be  Be3  1  0.93742230  0.70733547  0.29280785  1
  Be  Be4  1  0.93753716  0.29274808  0.06247993  1
  Be  Be5  1  0.06247993  0.93753616  0.29274808  1
  Be  Be6  1  0.29280785  0.93742230  0.70733547  1
  Be  Be7  1  0.29266353  0.70719215  0.06257770  1
  Be  Be8  1  0.70719215  0.06257770  0.29266353  1
  Be  Be9  1  0.93751807  0.06246284  0.70725292  1
  Be  Be10  1  0.06246284  0.70725292  0.93751807  1
  Be  Be11  1  0.70733547  0.29280785  0.93742230  1
  Be  Be12  1  0.43751907  0.20725292  0.56246284  1
  Be  Be13  1  0.20733547  0.43742330  0.79280785  1
  Be  Be14  1  0.56247993  0.79274708  0.43753716  1
  Be  Be15  1  0.79266353  0.56257770  0.20719215  1
  Be  Be16  1  0.20725292  0.56246284  0.43751907  1
  Be  Be17  1  0.56246284  0.43751907  0.20725292  1
  Be  Be18  1  0.56257770  0.20719315  0.79266353  1
  Be  Be19  1  0.79280785  0.20733547  0.43742330  1
  Be  Be20  1  0.43742230  0.79280785  0.20733547  1
  Be  Be21  1  0.43753716  0.56247993  0.79274708  1
  Be  Be22  1  0.79274708  0.43753716  0.56247993  1
  Be  Be23  1  0.20719315  0.79266353  0.56257770  1
  Be  Be24  1  -0.00000000  0.00000000  -0.00000000  1
  Be  Be25  1  0.50000000  0.50000000  0.50000000  1
loop_
_geom_bond_atom_site_label_1
_geom_bond_atom_site_label_2
_geom_bond_distance
_geom_bond_site_symmetry_2
Be0 Be24 2.126329 1_556
Be0 Be20 2.174443 1_546
Be0 Be18 2.174685 1_555
Be0 Be13 2.188201 1_555
Be0 Be12 2.188909 1_555
Be0 Be6 2.216808 1_545
Be0 Be4 2.216949 1_456
Be0 Be5 2.216954 1_546
Be0 Be7 2.217531 1_546
Be0 Be1 2.313069 1_555
Be0 Sc0 2.944548 1_556
Be0 Sc1 2.944789 1_545
Be1 Be24 2.126289 1_556
Be1 Be16 2.174448 1_555
Be1 Be22 2.174685 1_455
Be1 Be12 2.188191 1_555
Be1 Be13 2.189126 1_555
Be1 Be9 2.216814 1_455
Be1 Be6 2.216855 1_545
Be1 Be11 2.216859 1_455
Be1 Be4 2.217533 1_456
Be1 Sc0 2.944176 1_555
Be1 Sc1 2.945439 1_455
Be2 Be24 2.126333 1_665
Be2 Be20 2.174677 1_555
Be2 Be8 2.216815 1_565
Be2 Be9 2.216939 1_564
Be2 Be3 2.313069 1_555
Be2 Sc1 2.944528 1_554
Be2 Sc0 2.944803 1_565
Be3 Be5 2.216807 1_655
Be3 Be7 2.216855 1_655
Be3 Be8 2.216859 1_565
Be3 Sc1 2.944182 1_555
Be3 Sc0 2.945428 1_655
Be4 Be5 2.216952 1_645
Be4 Be8 2.313073 1_555
Be4 Sc0 2.944539 1_655
Be4 Sc1 2.944791 1_554
Be5 Be8 2.217531 1_465
Be5 Be7 2.313069 1_555
Be5 Sc0 2.944548 1_565
Be5 Sc1 2.944789 1_455
Be6 Be7 2.216859 1_556
Be6 Be9 2.217540 1_465
Be6 Sc1 2.944181 1_555
Be6 Sc0 2.945435 1_565
Be7 Sc0 2.944172 1_555
Be7 Sc1 2.945439 1_554
Be8 Sc0 2.944177 1_555
Be8 Sc1 2.945440 1_545
Be9 Sc1 2.944527 1_545
Be9 Sc0 2.944803 1_655
Be10 Be24 2.126333 1_566
Be10 Be15 2.174450 1_456
Be10 Be13 2.174671 1_555
Be10 Be23 2.188186 1_555
Be10 Be21 2.188914 1_555
Be10 Be7 2.216814 1_556
Be10 Be2 2.216939 1_456
Be10 Be9 2.216939 1_465
Be10 Be3 2.217541 1_456
Be10 Be6 2.313068 1_555
Be10 Sc1 2.944527 1_455
Be10 Sc0 2.944797 1_556
Be11 Be24 2.126293 1_656
Be11 Be21 2.174442 1_555
Be11 Be17 2.174682 1_556
Be11 Be22 2.188197 1_555
Be11 Be18 2.189115 1_555
Be11 Be4 2.216814 1_556
Be11 Be8 2.216855 1_556
Be11 Be2 2.217540 1_546
Be11 Be9 2.313069 1_555
Be11 Sc1 2.944181 1_555
Be11 Sc0 2.945432 1_556
Be12 Be25 2.126329 1_555
Be12 Be8 2.174448 1_555
Be12 Be6 2.174682 1_545
Be12 Be18 2.216813 1_555
Be12 Be16 2.216940 1_555
Be12 Be17 2.216940 1_555
Be12 Be19 2.217534 1_555
Be12 Be13 2.313074 1_555
Be12 Sc0 2.944561 1_555
Be12 Sc1 2.944800 1_545
Be13 Be25 2.126292 1_555
Be13 Be4 2.174442 1_456
Be13 Be21 2.216805 1_555
Be13 Be23 2.216851 1_555
Be13 Be18 2.216859 1_555
Be13 Be16 2.217535 1_555
Be13 Sc0 2.944161 1_556
Be13 Sc1 2.945419 1_455
Be14 Be25 2.126325 1_555
Be14 Be6 2.174442 1_555
Be14 Be8 2.174685 1_565
Be14 Be3 2.188196 1_555
Be14 Be2 2.188915 1_555
Be14 Be20 2.216811 1_555
Be14 Be22 2.216941 1_555
Be14 Be21 2.216942 1_555
Be14 Be23 2.217522 1_555
Be14 Be15 2.313069 1_555
Be14 Sc1 2.944570 1_555
Be14 Sc0 2.944801 1_565
Be15 Be25 2.126289 1_555
Be15 Be4 2.174679 1_555
Be15 Be2 2.188185 1_555
Be15 Be3 2.189120 1_555
Be15 Be17 2.216809 1_555
Be15 Be20 2.216855 1_555
Be15 Be19 2.216860 1_555
Be15 Be22 2.217530 1_555
Be15 Sc1 2.944158 1_554
Be15 Sc0 2.945425 1_655
Be16 Be25 2.126329 1_555
Be16 Be3 2.174682 1_455
Be16 Be7 2.188192 1_555
Be16 Be5 2.188909 1_555
Be16 Be23 2.216813 1_555
Be16 Be17 2.216940 1_555
Be16 Be20 2.313068 1_555
Be16 Sc0 2.944558 1_555
Be16 Sc1 2.944800 1_455
Be17 Be25 2.126330 1_555
Be17 Be7 2.174448 1_555
Be17 Be8 2.188191 1_555
Be17 Be4 2.188914 1_555
Be17 Be20 2.217533 1_555
Be17 Be19 2.313074 1_555
Be17 Sc0 2.944558 1_555
Be17 Sc1 2.944801 1_554
Be18 Be25 2.126287 1_555
Be18 Be2 2.174451 1_546
Be18 Be9 2.188185 1_555
Be18 Be19 2.216851 1_555
Be18 Be21 2.217523 1_555
Be18 Be22 2.313063 1_555
Be18 Sc1 2.944164 1_545
Be18 Sc0 2.945427 1_556
Be19 Be25 2.126292 1_555
Be19 Be5 2.174447 1_645
Be19 Be9 2.174671 1_555
Be19 Be4 2.188202 1_555
Be19 Be8 2.189127 1_555
Be19 Be22 2.216805 1_555
Be19 Sc0 2.944162 1_655
Be19 Sc1 2.945420 1_545
Be20 Be25 2.126294 1_555
Be20 Be5 2.188195 1_555
Be20 Be7 2.189121 1_555
Be20 Be23 2.216858 1_555
Be20 Sc0 2.944167 1_565
Be20 Sc1 2.945422 1_554
Be21 Be25 2.126325 1_555
Be21 Be7 2.174686 1_556
Be21 Be6 2.188196 1_555
Be21 Be22 2.216941 1_555
Be21 Be23 2.313064 1_555
Be21 Sc1 2.944570 1_555
Be21 Sc0 2.944795 1_556
Be22 Be25 2.126325 1_555
Be22 Be3 2.174442 1_555
Be22 Be9 2.188914 1_555
Be22 Sc1 2.944570 1_555
Be22 Sc0 2.944795 1_655
Be23 Be25 2.126286 1_555
Be23 Be9 2.174451 1_465
Be23 Be5 2.174686 1_555
Be23 Be6 2.189115 1_555
Be23 Sc1 2.944163 1_455
Be23 Sc0 2.945430 1_565
Be24 Be7 2.126289 1_545
Be24 Be8 2.126289 1_455
Be24 Be3 2.126294 1_445
Be24 Be6 2.126294 1_544
Be24 Be5 2.126330 1_545
Be24 Be4 2.126332 1_455
Be24 Be9 2.126334 1_454
