# generated using pymatgen
data_Sr(DyS2)2
_symmetry_space_group_name_H-M   'P 1'
_cell_length_a   3.98829332
_cell_length_b   12.01085718
_cell_length_c   14.32411544
_cell_angle_alpha   90.00000000
_cell_angle_beta   90.00000000
_cell_angle_gamma   90.00000000
_symmetry_Int_Tables_number   1
_chemical_formula_structural   Sr(DyS2)2
_chemical_formula_sum   'Sr4 Dy8 S16'
_cell_volume   686.16554447
_cell_formula_units_Z   4
loop_
 _symmetry_equiv_pos_site_id
 _symmetry_equiv_pos_as_xyz
  1  'x, y, z'
loop_
 _atom_site_type_symbol
 _atom_site_label
 _atom_site_symmetry_multiplicity
 _atom_site_fract_x
 _atom_site_fract_y
 _atom_site_fract_z
 _atom_site_occupancy
  Sr  Sr0  1  0.25000000  0.75673750  0.16108379  1
  Sr  Sr1  1  0.75000000  0.74326250  0.66108379  1
  Sr  Sr2  1  0.25000000  0.25673750  0.33891621  1
  Sr  Sr3  1  0.75000000  0.24326250  0.83891621  1
  Dy  Dy0  1  0.25000000  0.43073905  0.11006312  1
  Dy  Dy1  1  0.75000000  0.06926095  0.61006312  1
  Dy  Dy2  1  0.25000000  0.93073905  0.38993688  1
  Dy  Dy3  1  0.75000000  0.56926095  0.88993688  1
  Dy  Dy4  1  0.25000000  0.42028844  0.60135572  1
  Dy  Dy5  1  0.75000000  0.07971156  0.10135572  1
  Dy  Dy6  1  0.25000000  0.92028844  0.89864428  1
  Dy  Dy7  1  0.75000000  0.57971156  0.39864428  1
  S  S0  1  0.25000000  0.02096424  0.21606828  1
  S  S1  1  0.75000000  0.47903576  0.71606828  1
  S  S2  1  0.25000000  0.52096424  0.28393172  1
  S  S3  1  0.75000000  0.97903576  0.78393172  1
  S  S4  1  0.25000000  0.13024931  0.97392811  1
  S  S5  1  0.75000000  0.36975069  0.47392811  1
  S  S6  1  0.25000000  0.63024931  0.52607189  1
  S  S7  1  0.75000000  0.86975069  0.02607189  1
  S  S8  1  0.25000000  0.20864547  0.67426856  1
  S  S9  1  0.75000000  0.29135453  0.17426856  1
  S  S10  1  0.25000000  0.70864547  0.82573144  1
  S  S11  1  0.75000000  0.79135453  0.32573144  1
  S  S12  1  0.25000000  0.41525688  0.92139468  1
  S  S13  1  0.75000000  0.08474312  0.42139468  1
  S  S14  1  0.25000000  0.91525688  0.57860532  1
  S  S15  1  0.75000000  0.58474312  0.07860532  1
loop_
_geom_bond_atom_site_label_1
_geom_bond_atom_site_label_2
_geom_bond_distance
_geom_bond_site_symmetry_2
Dy0 S12 2.708899 1_554
Dy0 S2 2.716068 1_555
Dy0 S15 2.757015 1_455
Dy0 S15 2.757015 1_555
Dy0 S9 2.761367 1_555
Dy0 S9 2.761367 1_455
Dy1 S13 2.708899 1_555
Dy1 S3 2.716068 1_545
Dy1 S14 2.757015 1_645
Dy1 S14 2.757015 1_545
Dy1 S8 2.761367 1_655
Dy1 S8 2.761367 1_555
Dy2 S14 2.708899 1_555
Dy2 S0 2.716068 1_565
Dy2 S13 2.757015 1_565
Dy2 S13 2.757015 1_465
Dy2 S11 2.761367 1_455
Dy2 S11 2.761367 1_555
Dy3 S15 2.708899 1_556
Dy3 S1 2.716068 1_555
Dy3 S12 2.757015 1_555
Dy3 S12 2.757015 1_655
Dy3 S10 2.761367 1_555
Dy3 S10 2.761367 1_655
Dy4 S1 2.678519 1_455
Dy4 S1 2.678519 1_555
Dy4 S6 2.742702 1_555
Dy4 S8 2.748205 1_555
Dy4 S5 2.770694 1_555
Dy4 S5 2.770694 1_455
Dy5 S0 2.678519 1_555
Dy5 S0 2.678519 1_655
Dy5 S7 2.742702 1_545
Dy5 S9 2.748205 1_555
Dy5 S4 2.770694 1_654
Dy5 S4 2.770694 1_554
Dy6 S3 2.678519 1_455
Dy6 S3 2.678519 1_555
Dy6 S4 2.742702 1_565
Dy6 S10 2.748205 1_555
Dy6 S7 2.770694 1_556
Dy6 S7 2.770694 1_456
Dy7 S2 2.678519 1_555
Dy7 S2 2.678519 1_655
Dy7 S5 2.742702 1_555
Dy7 S11 2.748205 1_555
Dy7 S6 2.770694 1_555
Dy7 S6 2.770694 1_655
S0 Sr0 3.269861 1_545
S0 Sr2 3.334039 1_555
S1 Sr1 3.269861 1_555
S1 Sr3 3.334039 1_555
S2 Sr2 3.269861 1_555
S2 Sr0 3.334039 1_555
S3 Sr3 3.269861 1_565
S3 Sr1 3.334039 1_555
S4 Sr3 3.091793 1_555
S4 Sr3 3.091793 1_455
S5 Sr2 3.091793 1_555
S5 Sr2 3.091793 1_655
S6 Sr1 3.091793 1_455
S6 Sr1 3.091793 1_555
S7 Sr0 3.091793 1_555
S7 Sr0 3.091793 1_655
S8 Sr3 3.116359 1_455
S8 Sr3 3.116359 1_555
S9 Sr2 3.116359 1_555
S9 Sr2 3.116359 1_655
S10 Sr1 3.116359 1_455
S10 Sr1 3.116359 1_555
S11 Sr0 3.116359 1_655
S11 Sr0 3.116359 1_555
S12 Sr3 3.104824 1_555
S12 Sr3 3.104824 1_455
S13 Sr2 3.104824 1_555
S13 Sr2 3.104824 1_655
S14 Sr1 3.104824 1_555
S14 Sr1 3.104824 1_455
S15 Sr0 3.104824 1_555
S15 Sr0 3.104824 1_655
