# generated using pymatgen
data_Sr10Cu5Bi10O29
_symmetry_space_group_name_H-M   'P 1'
_cell_length_a   5.40342600
_cell_length_b   13.88412586
_cell_length_c   25.14426543
_cell_angle_alpha   81.97914513
_cell_angle_beta   83.83174783
_cell_angle_gamma   78.77922248
_symmetry_Int_Tables_number   1
_chemical_formula_structural   Sr10Cu5Bi10O29
_chemical_formula_sum   'Sr20 Cu10 Bi20 O58'
_cell_volume   1825.93795463
_cell_formula_units_Z   2
loop_
 _symmetry_equiv_pos_site_id
 _symmetry_equiv_pos_as_xyz
  1  'x, y, z'
loop_
 _atom_site_type_symbol
 _atom_site_label
 _atom_site_symmetry_multiplicity
 _atom_site_fract_x
 _atom_site_fract_y
 _atom_site_fract_z
 _atom_site_occupancy
  Sr  Sr0  1  0.18559300  0.83978600  0.51109800  1
  Sr  Sr1  1  0.19520900  0.42121000  0.92789100  1
  Sr  Sr2  1  0.82835500  0.74945500  0.87199100  1
  Sr  Sr3  1  0.84610900  0.57879000  0.07210900  1
  Sr  Sr4  1  0.69016400  0.50718500  0.82773300  1
  Sr  Sr5  1  0.20747900  0.05949100  0.32178100  1
  Sr  Sr6  1  0.70771800  0.33791400  0.02845200  1
  Sr  Sr7  1  0.71410500  0.15991600  0.22622700  1
  Sr  Sr8  1  0.83470800  0.16021400  0.48890200  1
  Sr  Sr9  1  0.70119200  0.95193200  0.41658600  1
  Sr  Sr10  1  0.35524600  0.49281500  0.17226700  1
  Sr  Sr11  1  0.20690900  0.25054500  0.12800900  1
  Sr  Sr12  1  0.17733900  0.61475800  0.71767700  1
  Sr  Sr13  1  0.33267300  0.04806800  0.58341400  1
  Sr  Sr14  1  0.84490400  0.38524200  0.28232300  1
  Sr  Sr15  1  0.32796100  0.84008400  0.77377300  1
  Sr  Sr16  1  0.34135200  0.66208600  0.97154800  1
  Sr  Sr17  1  0.68003600  0.72646200  0.60946300  1
  Sr  Sr18  1  0.34411200  0.27353800  0.39053700  1
  Sr  Sr19  1  0.82620600  0.94050900  0.67821900  1
  Cu  Cu0  1  0.77977600  0.17626700  0.35565100  1
  Cu  Cu1  1  0.75892600  0.94176100  0.54787000  1
  Cu  Cu2  1  0.24785900  0.82373300  0.64434900  1
  Cu  Cu3  1  0.78484700  0.37525100  0.15480000  1
  Cu  Cu4  1  0.76758200  0.54249400  0.94865400  1
  Cu  Cu5  1  0.27643300  0.45750600  0.05134600  1
  Cu  Cu6  1  0.26929500  0.05823900  0.45213000  1
  Cu  Cu7  1  0.25479500  0.62474900  0.84520000  1
  Cu  Cu8  1  0.28449400  0.28020800  0.25573800  1
  Cu  Cu9  1  0.74854900  0.71979200  0.74426200  1
  Bi  Bi0  1  0.11749600  0.97563000  0.17911000  1
  Bi  Bi1  1  0.95462300  0.46242900  0.42975500  1
  Bi  Bi2  1  0.48749800  0.41130400  0.68232700  1
  Bi  Bi3  1  0.14793300  0.32593700  0.77694600  1
  Bi  Bi4  1  0.39142100  0.59529800  0.31509900  1
  Bi  Bi5  1  0.40872400  0.34588200  0.53340200  1
  Bi  Bi6  1  0.57225500  0.23135600  0.89117500  1
  Bi  Bi7  1  0.11566800  0.14869100  0.98784400  1
  Bi  Bi8  1  0.52944000  0.65411800  0.46659800  1
  Bi  Bi9  1  0.96275700  0.02437000  0.82089000  1
  Bi  Bi10  1  0.44972500  0.76864400  0.10882500  1
  Bi  Bi11  1  0.96520300  0.22619300  0.63306200  1
  Bi  Bi12  1  0.04505000  0.67406300  0.22305400  1
  Bi  Bi13  1  0.57529800  0.88092800  0.27092700  1
  Bi  Bi14  1  0.57721200  0.06601200  0.08532900  1
  Bi  Bi15  1  0.06243800  0.53757100  0.57024500  1
  Bi  Bi16  1  0.42587000  0.93398800  0.91467100  1
  Bi  Bi17  1  0.42344300  0.11907200  0.72907300  1
  Bi  Bi18  1  0.97913300  0.85130900  0.01215600  1
  Bi  Bi19  1  0.10594700  0.77380700  0.36693800  1
  O  O0  1  0.52412400  0.30799900  0.81012700  1
  O  O1  1  0.16377100  0.10868600  0.21250500  1
  O  O2  1  0.15776800  0.46115000  0.80578400  1
  O  O3  1  0.89083500  0.53885000  0.19421600  1
  O  O4  1  0.09093900  0.66433100  0.60899100  1
  O  O5  1  0.49706900  0.66972200  0.79225800  1
  O  O6  1  0.51920300  0.49778500  0.99922500  1
  O  O7  1  0.40305600  0.63303000  0.08034300  1
  O  O8  1  0.00383500  0.88466700  0.59689500  1
  O  O9  1  0.53361800  0.22609700  0.30311200  1
  O  O10  1  0.81761800  0.33566900  0.39100900  1
  O  O11  1  0.69555000  0.01067400  0.30708100  1
  O  O12  1  0.40599900  0.69200100  0.18987300  1
  O  O13  1  0.04284600  0.23496100  0.30780200  1
  O  O14  1  0.69626000  0.19964000  0.11788700  1
  O  O15  1  0.03508900  0.33027800  0.20774200  1
  O  O16  1  0.52227200  0.11533300  0.40310500  1
  O  O17  1  0.17840800  0.88721200  0.26880000  1
  O  O18  1  0.01736400  0.00096700  0.50064300  1
  O  O19  1  0.37779500  0.98932600  0.69291900  1
  O  O20  1  0.39028300  0.21373300  0.50162600  1
  O  O21  1  0.18195000  0.06578200  0.09161100  1
  O  O22  1  0.51575400  0.99903300  0.49935700  1
  O  O23  1  0.37873200  0.80036000  0.88211300  1
  O  O24  1  0.50627700  0.78472800  0.35831700  1
  O  O25  1  0.02218900  0.12014400  0.40558700  1
  O  O26  1  0.51262900  0.58380100  0.89666600  1
  O  O27  1  0.50008300  0.76503900  0.69219800  1
  O  O28  1  0.13969300  0.45792000  0.64694700  1
  O  O29  1  0.99143900  0.66738600  0.79398700  1
  O  O30  1  0.03482600  0.54208000  0.35305300  1
  O  O31  1  0.32234900  0.42221400  0.45152100  1
  O  O32  1  0.53096400  0.41548000  0.10190900  1
  O  O33  1  0.01357600  0.58452000  0.89809100  1
  O  O34  1  0.02455700  0.93421800  0.90838900  1
  O  O35  1  0.36015600  0.02275800  0.81805600  1
  O  O36  1  0.85086800  0.71872600  0.98177300  1
  O  O37  1  0.15036900  0.28127400  0.01822700  1
  O  O38  1  0.68968300  0.36697000  0.91965700  1
  O  O39  1  0.51638700  0.14568900  0.99981400  1
  O  O40  1  0.02219400  0.50221500  0.00077500  1
  O  O41  1  0.49645800  0.87985600  0.59441300  1
  O  O42  1  0.84762200  0.09451500  0.59902100  1
  O  O43  1  0.53006500  0.33261400  0.20601300  1
  O  O44  1  0.03216200  0.41619900  0.10333400  1
  O  O45  1  0.84258000  0.89131400  0.78749500  1
  O  O46  1  0.17875300  0.22568600  0.90434400  1
  O  O47  1  0.37088400  0.85431100  0.00018600  1
  O  O48  1  0.00440900  0.77390300  0.69688800  1
  O  O49  1  0.04872300  0.77431400  0.09565600  1
  O  O50  1  0.36323300  0.21527200  0.64168300  1
  O  O51  1  0.51934200  0.97724200  0.18194400  1
  O  O52  1  0.15125900  0.68843200  0.45044900  1
  O  O53  1  0.15408600  0.90548500  0.40097900  1
  O  O54  1  0.67492400  0.78626700  0.49837400  1
  O  O55  1  0.02239600  0.11278800  0.73120000  1
  O  O56  1  0.44861300  0.57778600  0.54847900  1
  O  O57  1  0.01237800  0.31156800  0.54955100  1
loop_
_geom_bond_atom_site_label_1
_geom_bond_atom_site_label_2
_geom_bond_distance
_geom_bond_site_symmetry_2
Cu0 O25 1.892784 1_655
Cu0 O9 1.938403 1_555
Cu0 O16 1.973601 1_555
Cu0 O13 1.985421 1_655
Cu0 O10 2.548444 1_555
Cu1 O22 1.874537 1_555
Cu1 O8 1.889120 1_655
Cu1 O18 1.963136 1_665
Cu1 O41 1.989145 1_555
Cu1 Sr13 2.623902 1_565
Cu2 O8 1.870915 1_555
Cu2 O27 1.901461 1_555
Cu2 O48 1.918324 1_555
Cu2 O41 1.939075 1_555
Cu3 O44 1.871474 1_655
Cu3 O43 1.904575 1_555
Cu3 O15 1.953601 1_655
Cu3 O32 1.961918 1_555
Cu4 O33 1.858846 1_655
Cu4 O6 1.881664 1_555
Cu4 O26 1.950850 1_555
Cu4 O40 1.951035 1_656
Cu4 Sr16 2.624164 1_555
Cu5 O6 1.860806 1_554
Cu5 O44 1.869340 1_555
Cu5 O32 1.924792 1_555
Cu5 O40 1.926831 1_555
Cu6 O25 1.870718 1_555
Cu6 O22 1.871023 1_545
Cu6 O18 1.940907 1_555
Cu6 O16 1.950219 1_555
Cu7 O33 1.866286 1_555
Cu7 O5 1.894039 1_555
Cu7 O26 1.952610 1_555
Cu7 O29 1.971510 1_455
Cu8 O9 1.869933 1_555
Cu8 O15 1.872594 1_555
Cu8 O13 1.880358 1_555
Cu8 O43 1.902299 1_555
Cu9 O29 1.882092 1_555
Cu9 O5 1.888725 1_555
Cu9 O48 1.922315 1_655
Cu9 O27 1.931544 1_555
Bi0 O51 2.184703 1_555
Bi0 O1 2.199580 1_565
Bi0 O21 2.401026 1_565
Bi0 O17 2.435343 1_555
Bi1 O31 2.067853 1_655
Bi1 O30 2.131209 1_655
Bi1 O10 2.394818 1_555
Bi2 O28 2.113629 1_555
Bi3 O2 2.116579 1_555
Bi3 O0 2.235954 1_555
Bi4 O30 2.265286 1_555
Bi5 O20 2.124161 1_555
Bi5 O31 2.232690 1_555
Bi5 O57 2.265975 1_555
Bi6 O46 2.131522 1_555
Bi6 O0 2.180370 1_555
Bi6 O38 2.323715 1_555
Bi7 O37 2.136561 1_556
Bi7 O39 2.209543 1_555
Bi7 O46 2.242485 1_555
Bi7 O21 2.731884 1_556
Bi8 O52 2.076795 1_555
Bi8 O56 2.220525 1_555
Bi8 O54 2.393354 1_555
Bi9 O35 2.136681 1_655
Bi9 O45 2.357215 1_545
Bi9 O34 2.396948 1_645
Bi9 O55 2.433503 1_655
Bi10 O7 2.172929 1_555
Bi10 O12 2.174945 1_555
Bi10 O49 2.211633 1_555
Bi10 O47 2.864308 1_555
Bi11 O50 2.158634 1_655
Bi11 O57 2.277556 1_655
Bi11 O42 2.341866 1_555
Bi11 O55 2.748450 1_655
Bi11 Sr13 3.167818 1_655
Bi12 O12 2.084079 1_555
Bi12 O3 2.421365 1_455
Bi13 O17 2.135453 1_555
Bi13 O11 2.352266 1_565
Bi13 O24 2.439295 1_555
Bi13 O51 2.457377 1_555
Bi14 O21 2.125203 1_555
Bi14 O39 2.302558 1_554
Bi14 O14 2.351093 1_555
Bi14 O51 2.582551 1_545
Bi15 O28 2.124839 1_555
Bi15 O4 2.164834 1_555
Bi15 O56 2.255705 1_555
Bi16 O34 2.190428 1_555
Bi16 O23 2.197682 1_555
Bi16 O47 2.293968 1_556
Bi16 O35 2.593488 1_565
Bi17 O55 2.180334 1_555
Bi17 O19 2.193268 1_545
Bi17 O50 2.425628 1_555
Bi17 O35 2.467741 1_555
Bi18 O47 2.113547 1_655
Bi18 O49 2.253694 1_655
Bi18 O36 2.335652 1_554
Bi18 O34 2.706868 1_654
Bi18 Sr16 3.177014 1_654
Bi19 O24 2.183329 1_555
Bi19 O53 2.193706 1_555
Bi19 O52 2.275346 1_555
Bi19 O17 2.769398 1_555
O0 Sr4 3.168859 1_555
O1 Sr7 2.396733 1_455
O1 Sr11 2.711451 1_555
O1 Sr5 2.761323 1_555
O2 Sr4 2.503480 1_455
O2 Sr1 3.064280 1_555
O3 Sr10 2.487340 1_655
O3 Sr14 2.878768 1_555
O3 Sr3 3.069978 1_555
O3 Sr10 3.201558 1_555
O4 Sr17 2.219401 1_455
O4 Sr12 2.790027 1_555
O5 Sr15 2.364124 1_555
O5 Sr4 2.387218 1_555
O6 Sr6 2.308745 1_556
O6 Sr16 2.336477 1_555
O7 Sr3 2.361483 1_555
O7 Sr16 2.755529 1_554
O7 Sr10 2.830321 1_555
O8 Sr19 2.331252 1_455
O8 Sr0 2.385051 1_555
O8 Sr13 3.105447 1_565
O9 Sr7 2.296642 1_555
O9 Sr18 2.443869 1_555
O10 Sr14 2.718790 1_555
O10 Sr18 2.806794 1_655
O10 Sr18 2.856365 1_555
O10 Sr8 3.207725 1_555
O11 Sr5 2.591506 1_555
O11 Sr7 2.701523 1_555
O11 Sr9 2.762086 1_545
O11 Sr5 3.044174 1_655
O12 Sr10 2.929540 1_555
O13 Sr14 2.194006 1_455
O13 Sr5 2.415570 1_555
O14 Sr11 2.595037 1_555
O14 Sr7 2.711242 1_555
O14 Sr6 2.749192 1_555
O14 Sr11 3.022889 1_655
O15 Sr14 2.198897 1_455
O15 Sr11 2.434372 1_555
O16 Sr18 2.213619 1_555
O16 Sr9 2.280065 1_545
O17 Sr5 2.932776 1_565
O18 Sr8 2.231815 1_455
O18 Sr0 2.235824 1_545
O18 Sr13 3.039294 1_555
O19 Sr19 2.388525 1_555
O19 Sr15 2.724544 1_555
O19 Sr13 2.783190 1_565
O20 Sr8 2.372360 1_555
O20 Sr18 2.824153 1_555
O20 Sr13 2.904765 1_555
O21 Sr11 2.872760 1_555
O22 Sr9 2.332334 1_555
O22 Sr13 2.366298 1_565
O23 Sr2 2.390785 1_555
O23 Sr15 2.735464 1_555
O23 Sr16 2.762605 1_555
O25 Sr8 2.318230 1_455
O25 Sr5 2.421926 1_555
O26 Sr4 2.194564 1_555
O26 Sr16 2.321251 1_555
O27 Sr17 2.287710 1_555
O27 Sr15 2.442771 1_555
O28 Sr12 3.045802 1_555
O29 Sr12 2.217201 1_655
O29 Sr2 2.404846 1_555
O31 Sr18 2.715938 1_555
O32 Sr10 2.226317 1_555
O32 Sr6 2.293288 1_555
O33 Sr1 2.341731 1_555
O33 Sr2 2.346517 1_455
O33 Sr16 3.115851 1_555
O34 Sr2 3.234851 1_455
O35 Sr15 2.950281 1_545
O36 Sr16 2.609109 1_655
O36 Sr2 2.745882 1_555
O36 Sr3 2.776727 1_556
O36 Sr16 3.052112 1_555
O37 Sr6 2.365932 1_455
O37 Sr11 2.774337 1_555
O37 Sr1 2.797553 1_554
O38 Sr1 2.624948 1_555
O38 Sr6 2.718383 1_556
O38 Sr4 2.806644 1_555
O38 Sr1 3.006176 1_655
O40 Sr3 2.241544 1_455
O40 Sr1 2.301129 1_554
O40 Sr16 3.033684 1_554
O41 Sr17 2.167151 1_555
O41 Sr13 2.319938 1_565
O42 Sr13 2.575070 1_655
O42 Sr19 2.722045 1_545
O42 Sr8 2.795610 1_555
O42 Sr13 3.052165 1_555
O43 Sr10 2.321087 1_555
O43 Sr7 2.416000 1_555
O44 Sr11 2.334272 1_555
O44 Sr3 2.348381 1_455
O45 Sr15 2.579077 1_655
O45 Sr2 2.693533 1_555
O45 Sr19 2.743904 1_555
O45 Sr15 3.066220 1_555
O46 Sr1 2.877801 1_555
O47 Sr16 2.897177 1_554
O48 Sr12 2.237804 1_555
O48 Sr19 2.329291 1_455
O50 Sr13 2.951867 1_555
O52 Sr0 2.807623 1_555
O53 Sr9 2.410108 1_455
O53 Sr5 2.747584 1_565
O53 Sr0 2.804223 1_555
O54 Sr0 2.601059 1_555
O54 Sr17 2.802299 1_555
O54 Sr9 2.878220 1_555
O54 Sr0 3.053295 1_655
O57 Sr8 3.107605 1_455
