# generated using pymatgen
data_Mo9HS18
_symmetry_space_group_name_H-M   'P 1'
_cell_length_a   3.16808900
_cell_length_b   13.20517900
_cell_length_c   43.29767900
_cell_angle_alpha   90.00000000
_cell_angle_beta   90.00000000
_cell_angle_gamma   90.00000000
_symmetry_Int_Tables_number   1
_chemical_formula_structural   Mo9HS18
_chemical_formula_sum   'Mo18 H2 S36'
_cell_volume   1811.36629556
_cell_formula_units_Z   2
loop_
 _symmetry_equiv_pos_site_id
 _symmetry_equiv_pos_as_xyz
  1  'x, y, z'
loop_
 _atom_site_type_symbol
 _atom_site_label
 _atom_site_symmetry_multiplicity
 _atom_site_fract_x
 _atom_site_fract_y
 _atom_site_fract_z
 _atom_site_occupancy
  Mo  Mo0  1  0.00000000  0.00000000  0.29829100  1
  Mo  Mo1  1  0.00000000  0.50000000  0.12778500  1
  Mo  Mo2  1  0.50000000  0.50000000  0.19164800  1
  Mo  Mo3  1  0.00000000  0.00000000  0.17005500  1
  Mo  Mo4  1  0.00000000  0.50000000  0.25551400  1
  Mo  Mo5  1  0.50000000  0.50000000  0.06397100  1
  Mo  Mo6  1  0.00000000  0.50000000  0.38328100  1
  Mo  Mo7  1  0.00000000  0.00000000  0.04201800  1
  Mo  Mo8  1  0.00000000  0.00000000  0.42633700  1
  Mo  Mo9  1  0.50000000  0.00000000  0.36227900  1
  Mo  Mo10  1  0.50000000  0.50000000  0.44739500  1
  Mo  Mo11  1  0.50000000  0.00000000  0.23416100  1
  Mo  Mo12  1  0.00000000  0.50000000  0.50775400  1
  Mo  Mo13  1  0.50000000  0.00000000  0.10606100  1
  Mo  Mo14  1  0.50000000  0.50000000  0.31939400  1
  Mo  Mo15  1  0.00000000  0.50000000  0.99992800  1
  Mo  Mo16  1  0.50000000  0.00000000  0.98122200  1
  Mo  Mo17  1  0.50000000  0.00000000  0.48772500  1
  H  H0  1  0.00000000  0.09675100  0.54328300  1
  H  H1  1  0.00000000  0.90324900  0.54328300  1
  S  S0  1  0.50000000  0.38550000  0.97762800  1
  S  S1  1  0.50000000  0.11856000  0.31973000  1
  S  S2  1  0.00000000  0.61816400  0.42587700  1
  S  S3  1  0.00000000  0.11858300  0.12741900  1
  S  S4  1  0.50000000  0.11835500  0.06346500  1
  S  S5  1  0.50000000  0.38124600  0.10638500  1
  S  S6  1  0.50000000  0.88144000  0.31973000  1
  S  S7  1  0.00000000  0.12026500  0.51264700  1
  S  S8  1  0.00000000  0.88141700  0.12741900  1
  S  S9  1  0.00000000  0.61865300  0.17025600  1
  S  S10  1  0.50000000  0.12177600  0.44717200  1
  S  S11  1  0.50000000  0.61875400  0.10638500  1
  S  S12  1  0.50000000  0.61450000  0.97762800  1
  S  S13  1  0.50000000  0.38139700  0.36192000  1
  S  S14  1  0.00000000  0.38183600  0.42587700  1
  S  S15  1  0.50000000  0.61865500  0.23412400  1
  S  S16  1  0.00000000  0.87973500  0.51264700  1
  S  S17  1  0.50000000  0.37859400  0.49064500  1
  S  S18  1  0.00000000  0.11850000  0.25562200  1
  S  S19  1  0.50000000  0.11853600  0.19148000  1
  S  S20  1  0.00000000  0.11840600  0.38367300  1
  S  S21  1  0.00000000  0.87924400  0.99881700  1
  S  S22  1  0.50000000  0.62140600  0.49064500  1
  S  S23  1  0.50000000  0.38134500  0.23412400  1
  S  S24  1  0.50000000  0.61860300  0.36192000  1
  S  S25  1  0.00000000  0.38148600  0.04240500  1
  S  S26  1  0.00000000  0.38134700  0.17025600  1
  S  S27  1  0.00000000  0.88150000  0.25562200  1
  S  S28  1  0.50000000  0.88164500  0.06346500  1
  S  S29  1  0.00000000  0.61864200  0.29801400  1
  S  S30  1  0.50000000  0.88146400  0.19148000  1
  S  S31  1  0.00000000  0.38135800  0.29801400  1
  S  S32  1  0.00000000  0.88159400  0.38367300  1
  S  S33  1  0.50000000  0.87822400  0.44717200  1
  S  S34  1  0.00000000  0.12075600  0.99881700  1
  S  S35  1  0.00000000  0.61851400  0.04240500  1
loop_
_geom_bond_atom_site_label_1
_geom_bond_atom_site_label_2
_geom_bond_distance
_geom_bond_site_symmetry_2
Mo0 S6 2.412879 1_445
Mo0 S6 2.412879 1_545
Mo0 S1 2.412879 1_455
Mo0 S1 2.412879 1_555
Mo0 S27 2.421112 1_545
Mo0 S18 2.421112 1_555
Mo1 S5 2.413893 1_455
Mo1 S11 2.413893 1_555
Mo1 S5 2.413893 1_555
Mo1 S11 2.413893 1_455
Mo1 S9 2.415886 1_555
Mo1 S26 2.415886 1_555
Mo2 S9 2.412894 1_555
Mo2 S9 2.412894 1_655
Mo2 S26 2.412894 1_555
Mo2 S26 2.412894 1_655
Mo2 S15 2.416068 1_555
Mo2 S23 2.416068 1_555
Mo3 S19 2.412440 1_455
Mo3 S19 2.412440 1_555
Mo3 S30 2.412440 1_545
Mo3 S30 2.412440 1_445
Mo3 S8 2.420731 1_545
Mo3 S3 2.420731 1_555
Mo4 S15 2.412878 1_555
Mo4 S15 2.412878 1_455
Mo4 S23 2.412878 1_455
Mo4 S23 2.412878 1_555
Mo4 S31 2.416748 1_555
Mo4 S29 2.416748 1_555
Mo5 S25 2.414606 1_555
Mo5 S35 2.414606 1_555
Mo5 S35 2.414606 1_655
Mo5 S25 2.414606 1_655
Mo5 S11 2.414874 1_555
Mo5 S5 2.414874 1_555
Mo6 S24 2.411950 1_455
Mo6 S24 2.411950 1_555
Mo6 S13 2.411950 1_455
Mo6 S13 2.411950 1_555
Mo6 S2 2.415833 1_555
Mo6 S14 2.415833 1_555
Mo7 S4 2.411257 1_455
Mo7 S4 2.411257 1_555
Mo7 S28 2.411257 1_445
Mo7 S28 2.411257 1_545
Mo7 S34 2.457956 1_554
Mo7 S21 2.457956 1_544
Mo8 S20 2.420144 1_555
Mo8 S32 2.420144 1_545
Mo8 S10 2.430822 1_555
Mo8 S33 2.430822 1_445
Mo8 S33 2.430822 1_545
Mo8 S10 2.430822 1_455
Mo9 S20 2.410810 1_555
Mo9 S20 2.410810 1_655
Mo9 S32 2.410810 1_545
Mo9 S32 2.410810 1_645
Mo9 S6 2.417662 1_545
Mo9 S1 2.417662 1_555
Mo10 S2 2.410809 1_555
Mo10 S2 2.410809 1_655
Mo10 S14 2.410809 1_655
Mo10 S14 2.410809 1_555
Mo10 S17 2.465144 1_555
Mo10 S22 2.465144 1_555
Mo11 S27 2.412731 1_545
Mo11 S27 2.412731 1_645
Mo11 S18 2.412731 1_555
Mo11 S18 2.412731 1_655
Mo11 S19 2.421816 1_555
Mo11 S30 2.421816 1_545
Mo12 S22 2.372375 1_555
Mo12 S17 2.372375 1_555
Mo12 S22 2.372375 1_455
Mo12 S17 2.372375 1_455
Mo13 S8 2.411729 1_545
Mo13 S3 2.411729 1_555
Mo13 S3 2.411729 1_655
Mo13 S8 2.411729 1_645
Mo13 S4 2.417462 1_555
Mo13 S28 2.417462 1_545
Mo14 S31 2.412600 1_555
Mo14 S31 2.412600 1_655
Mo14 S29 2.412600 1_555
Mo14 S29 2.412600 1_655
Mo14 S13 2.417272 1_555
Mo14 S24 2.417272 1_555
Mo15 S0 2.393237 1_455
Mo15 S0 2.393237 1_555
Mo15 S12 2.393237 1_455
Mo15 S12 2.393237 1_555
Mo15 S35 2.414894 1_556
Mo15 S25 2.414894 1_556
Mo16 S34 2.373254 1_655
Mo16 S34 2.373254 1_555
Mo16 S21 2.373254 1_545
Mo16 S21 2.373254 1_645
Mo17 S10 2.380948 1_555
Mo17 S33 2.380948 1_545
Mo17 S7 2.489117 1_555
Mo17 S7 2.489117 1_655
Mo17 S16 2.489117 1_545
Mo17 S16 2.489117 1_645
H0 S7 1.362326 1_555
H1 S16 1.362326 1_555
