# generated using pymatgen
data_YbSm3
_symmetry_space_group_name_H-M   'P 1'
_cell_length_a   6.20096057
_cell_length_b   6.20096057
_cell_length_c   6.20096096
_cell_angle_alpha   131.52747753
_cell_angle_beta   131.52748720
_cell_angle_gamma   70.97634371
_symmetry_Int_Tables_number   1
_chemical_formula_structural   YbSm3
_chemical_formula_sum   'Yb1 Sm3'
_cell_volume   130.86201080
_cell_formula_units_Z   1
loop_
 _symmetry_equiv_pos_site_id
 _symmetry_equiv_pos_as_xyz
  1  'x, y, z'
loop_
 _atom_site_type_symbol
 _atom_site_label
 _atom_site_symmetry_multiplicity
 _atom_site_fract_x
 _atom_site_fract_y
 _atom_site_fract_z
 _atom_site_occupancy
  Yb  Yb0  1  0.00000000  0.00000000  0.00000000  1
  Sm  Sm0  1  0.75000000  0.25000000  0.50000000  1
  Sm  Sm1  1  0.25000000  0.75000000  0.50000000  1
  Sm  Sm2  1  0.50000000  0.50000000  0.00000000  1
loop_
_geom_bond_atom_site_label_1
_geom_bond_atom_site_label_2
_geom_bond_distance
_geom_bond_site_symmetry_2
Sm0 Sm2 3.585073 1_656
Sm0 Yb0 3.585073 1_555
Sm0 Sm2 3.585073 1_555
Sm0 Yb0 3.585073 1_656
Sm0 Sm2 3.585074 1_556
Sm0 Yb0 3.585074 1_655
Sm0 Yb0 3.585074 1_666
Sm0 Sm2 3.585074 1_545
Sm0 Sm1 3.599874 1_555
Sm0 Sm1 3.599874 1_645
Sm0 Sm1 3.599875 1_656
Sm0 Sm1 3.599875 1_544
Sm1 Sm2 3.585073 1_455
Sm1 Yb0 3.585073 1_666
Sm1 Sm2 3.585073 1_556
Sm1 Yb0 3.585073 1_565
Sm1 Sm2 3.585074 1_566
Sm1 Yb0 3.585074 1_566
Sm1 Sm2 3.585074 1_555
Sm1 Yb0 3.585074 1_555
Sm2 Yb0 3.599874 1_655
Sm2 Yb0 3.599874 1_565
Sm2 Yb0 3.599875 1_554
Sm2 Yb0 3.599875 1_666
