# generated using pymatgen
data_Ac3Yb
_symmetry_space_group_name_H-M   'P 1'
_cell_length_a   7.95127736
_cell_length_b   7.95127736
_cell_length_c   6.39753900
_cell_angle_alpha   90.00000000
_cell_angle_beta   90.00000000
_cell_angle_gamma   119.99999466
_symmetry_Int_Tables_number   1
_chemical_formula_structural   Ac3Yb
_chemical_formula_sum   'Ac6 Yb2'
_cell_volume   350.28166302
_cell_formula_units_Z   2
loop_
 _symmetry_equiv_pos_site_id
 _symmetry_equiv_pos_as_xyz
  1  'x, y, z'
loop_
 _atom_site_type_symbol
 _atom_site_label
 _atom_site_symmetry_multiplicity
 _atom_site_fract_x
 _atom_site_fract_y
 _atom_site_fract_z
 _atom_site_occupancy
  Ac  Ac0  1  0.16648900  0.33297700  0.25000000  1
  Ac  Ac1  1  0.66702300  0.83351100  0.25000000  1
  Ac  Ac2  1  0.16648900  0.83351100  0.25000000  1
  Ac  Ac3  1  0.83351100  0.66702300  0.75000000  1
  Ac  Ac4  1  0.33297700  0.16648900  0.75000000  1
  Ac  Ac5  1  0.83351100  0.16648900  0.75000000  1
  Yb  Yb0  1  0.33333300  0.66666700  0.75000000  1
  Yb  Yb1  1  0.66666700  0.33333300  0.25000000  1
loop_
_geom_bond_atom_site_label_1
_geom_bond_atom_site_label_2
_geom_bond_distance
_geom_bond_site_symmetry_2
Ac0 Ac4 3.935658 1_554
Ac0 Ac4 3.935658 1_555
Ac0 Ac5 3.935666 1_454
Ac0 Ac5 3.935666 1_455
Ac0 Yb0 3.938525 1_555
Ac0 Yb0 3.938525 1_554
Ac0 Ac2 3.971393 1_545
Ac0 Ac1 3.971393 1_445
Ac0 Yb1 3.975639 1_455
Ac0 Yb1 3.975639 1_555
Ac0 Ac2 3.979885 1_555
Ac0 Ac1 3.979885 1_555
Ac1 Ac3 3.935658 1_555
Ac1 Ac3 3.935658 1_554
Ac1 Ac5 3.935666 1_565
Ac1 Ac5 3.935666 1_564
Ac1 Yb0 3.938525 1_555
Ac1 Yb0 3.938525 1_554
Ac1 Ac2 3.971393 1_655
Ac1 Yb1 3.975639 1_565
Ac1 Yb1 3.975639 1_555
Ac1 Ac2 3.979885 1_555
Ac2 Ac4 3.935666 1_565
Ac2 Ac4 3.935666 1_564
Ac2 Ac3 3.935666 1_455
Ac2 Ac3 3.935666 1_454
Ac2 Yb0 3.938516 1_554
Ac2 Yb0 3.938516 1_555
Ac2 Yb1 3.975640 1_455
Ac2 Yb1 3.975640 1_565
Ac3 Yb1 3.938525 1_555
Ac3 Yb1 3.938525 1_556
Ac3 Ac5 3.971393 1_565
Ac3 Ac4 3.971393 1_665
Ac3 Yb0 3.975639 1_655
Ac3 Yb0 3.975639 1_555
Ac3 Ac5 3.979885 1_555
Ac3 Ac4 3.979885 1_555
Ac4 Yb1 3.938525 1_555
Ac4 Yb1 3.938525 1_556
Ac4 Ac5 3.971393 1_455
Ac4 Yb0 3.975639 1_545
Ac4 Yb0 3.975639 1_555
Ac4 Ac5 3.979885 1_555
Ac5 Yb1 3.938516 1_555
Ac5 Yb1 3.938516 1_556
Ac5 Yb0 3.975640 1_545
Ac5 Yb0 3.975640 1_655
