# generated using pymatgen
data_Na6P4W
_symmetry_space_group_name_H-M   'P 1'
_cell_length_a   9.10023576
_cell_length_b   9.10023700
_cell_length_c   7.13122511
_cell_angle_alpha   89.99997814
_cell_angle_beta   90.00001304
_cell_angle_gamma   120.00389430
_symmetry_Int_Tables_number   1
_chemical_formula_structural   Na6P4W
_chemical_formula_sum   'Na12 P8 W2'
_cell_volume   511.42632646
_cell_formula_units_Z   2
loop_
 _symmetry_equiv_pos_site_id
 _symmetry_equiv_pos_as_xyz
  1  'x, y, z'
loop_
 _atom_site_type_symbol
 _atom_site_label
 _atom_site_symmetry_multiplicity
 _atom_site_fract_x
 _atom_site_fract_y
 _atom_site_fract_z
 _atom_site_occupancy
  Na  Na0  1  0.14772215  0.29544390  0.28522505  1
  Na  Na1  1  0.85228219  0.14771763  0.78523602  1
  Na  Na2  1  0.53267344  0.46732596  0.10792620  1
  Na  Na3  1  0.06532593  0.53265119  0.60793567  1
  Na  Na4  1  0.46734836  0.93467456  0.60793537  1
  Na  Na5  1  0.53265110  0.06532544  0.10793589  1
  Na  Na6  1  0.93467451  0.46734920  0.10793522  1
  Na  Na7  1  0.46732618  0.53267412  0.60792664  1
  Na  Na8  1  0.14771815  0.85228232  0.28523549  1
  Na  Na9  1  0.70455613  0.85227736  0.28522495  1
  Na  Na10  1  0.85227805  0.70455616  0.78522527  1
  Na  Na11  1  0.29544342  0.14772149  0.78522487  1
  P  P0  1  0.80558172  0.61116169  0.39370607  1
  P  P1  1  0.38883785  0.19441809  0.39370566  1
  P  P2  1  0.33333365  0.66666691  0.31840181  1
  P  P3  1  0.66666645  0.33333329  0.81840232  1
  P  P4  1  0.80557799  0.19442215  0.39370894  1
  P  P5  1  0.19442177  0.80557746  0.89370813  1
  P  P6  1  0.19441915  0.38883858  0.89370669  1
  P  P7  1  0.61116216  0.80558248  0.89370561  1
  W  W0  1  0.66666822  0.33333131  0.49589458  1
  W  W1  1  0.33333142  0.66666871  0.99589456  1
loop_
_geom_bond_atom_site_label_1
_geom_bond_atom_site_label_2
_geom_bond_distance
_geom_bond_site_symmetry_2
Na0 P4 2.876695 1_455
Na0 P1 2.876758 1_555
Na0 P6 2.887389 1_554
Na0 P2 2.935059 1_555
Na1 P7 2.876524 1_545
Na1 P6 2.876539 1_655
Na1 P4 2.887489 1_555
Na1 P3 2.935290 1_555
Na2 P3 2.953568 1_554
Na2 P1 2.963668 1_555
Na2 P0 2.963672 1_555
Na2 P6 3.181237 1_554
Na2 P7 3.181255 1_554
Na2 W1 3.242088 1_554
Na3 P2 2.953652 1_555
Na3 P6 2.963705 1_555
Na3 P5 2.963743 1_555
Na3 P4 3.180987 1_455
Na3 P0 3.181292 1_455
Na3 W0 3.241719 1_455
Na4 P2 2.953651 1_555
Na4 P7 2.963702 1_555
Na4 P5 2.963746 1_555
Na4 P4 3.180988 1_565
Na4 P1 3.181288 1_565
Na4 W0 3.241711 1_565
Na5 P3 2.953651 1_554
Na5 P1 2.963700 1_555
Na5 P4 2.963749 1_555
Na5 P5 3.180992 1_544
Na5 P7 3.181289 1_544
Na5 W1 3.241712 1_544
Na6 P3 2.953649 1_554
Na6 P0 2.963702 1_555
Na6 P4 2.963753 1_555
Na6 P5 3.180982 1_654
Na6 P6 3.181294 1_654
Na6 W1 3.241712 1_654
Na7 P2 2.953570 1_555
Na7 P6 2.963666 1_555
Na7 P7 2.963669 1_555
Na7 P0 3.181251 1_555
Na7 P1 3.181255 1_555
Na7 W0 3.242090 1_555
Na8 P1 2.876529 1_565
Na8 P0 2.876535 1_455
Na8 P5 2.887490 1_554
Na8 P2 2.935286 1_555
Na9 P4 2.876701 1_565
Na9 P0 2.876757 1_555
Na9 P7 2.887395 1_554
Na9 P2 2.935054 1_555
Na10 P5 2.876690 1_655
Na10 P7 2.876763 1_555
Na10 P0 2.887395 1_555
Na10 P3 2.935057 1_555
Na11 P5 2.876693 1_545
Na11 P6 2.876763 1_555
Na11 P1 2.887395 1_555
Na11 P3 2.935059 1_555
P0 W0 2.307592 1_555
P1 W0 2.307592 1_555
P2 W1 2.299872 1_554
P3 W0 2.299875 1_555
P4 W0 2.307622 1_555
P5 W1 2.307620 1_555
P6 W1 2.307589 1_555
P7 W1 2.307595 1_555
