# generated using pymatgen
data_Ac3Hg
_symmetry_space_group_name_H-M   'P 1'
_cell_length_a   7.70495632
_cell_length_b   7.70495632
_cell_length_c   5.91254900
_cell_angle_alpha   90.00000000
_cell_angle_beta   90.00000000
_cell_angle_gamma   120.00000274
_symmetry_Int_Tables_number   1
_chemical_formula_structural   Ac3Hg
_chemical_formula_sum   'Ac6 Hg2'
_cell_volume   303.98050672
_cell_formula_units_Z   2
loop_
 _symmetry_equiv_pos_site_id
 _symmetry_equiv_pos_as_xyz
  1  'x, y, z'
loop_
 _atom_site_type_symbol
 _atom_site_label
 _atom_site_symmetry_multiplicity
 _atom_site_fract_x
 _atom_site_fract_y
 _atom_site_fract_z
 _atom_site_occupancy
  Ac  Ac0  1  0.17596900  0.35193900  0.25000000  1
  Ac  Ac1  1  0.64806100  0.82403100  0.25000000  1
  Ac  Ac2  1  0.17596900  0.82403100  0.25000000  1
  Ac  Ac3  1  0.82403100  0.64806100  0.75000000  1
  Ac  Ac4  1  0.35193900  0.17596900  0.75000000  1
  Ac  Ac5  1  0.82403100  0.17596900  0.75000000  1
  Hg  Hg0  1  0.33333300  0.66666700  0.75000000  1
  Hg  Hg1  1  0.66666700  0.33333300  0.25000000  1
loop_
_geom_bond_atom_site_label_1
_geom_bond_atom_site_label_2
_geom_bond_distance
_geom_bond_site_symmetry_2
Ac0 Hg0 3.626279 1_555
Ac0 Hg0 3.626279 1_554
Ac0 Ac1 3.637448 1_555
Ac0 Ac2 3.637448 1_555
Ac0 Ac5 3.775502 1_455
Ac0 Ac5 3.775502 1_454
Ac0 Ac4 3.775510 1_555
Ac0 Ac4 3.775510 1_554
Ac0 Hg1 3.854470 1_455
Ac0 Hg1 3.854486 1_555
Ac0 Ac1 4.067508 1_445
Ac0 Ac2 4.067508 1_545
Ac1 Hg0 3.626279 1_555
Ac1 Hg0 3.626279 1_554
Ac1 Ac2 3.637448 1_555
Ac1 Ac5 3.775502 1_565
Ac1 Ac5 3.775502 1_564
Ac1 Ac3 3.775510 1_555
Ac1 Ac3 3.775510 1_554
Ac1 Hg1 3.854470 1_565
Ac1 Hg1 3.854486 1_555
Ac1 Ac2 4.067508 1_655
Ac2 Hg0 3.626279 1_555
Ac2 Hg0 3.626279 1_554
Ac2 Ac3 3.775502 1_454
Ac2 Ac3 3.775502 1_455
Ac2 Ac4 3.775502 1_565
Ac2 Ac4 3.775502 1_564
Ac2 Hg1 3.854478 1_455
Ac2 Hg1 3.854478 1_565
Ac3 Hg1 3.626279 1_555
Ac3 Hg1 3.626279 1_556
Ac3 Ac4 3.637448 1_555
Ac3 Ac5 3.637448 1_555
Ac3 Hg0 3.854470 1_655
Ac3 Hg0 3.854486 1_555
Ac3 Ac4 4.067508 1_665
Ac3 Ac5 4.067508 1_565
Ac4 Hg1 3.626279 1_555
Ac4 Hg1 3.626279 1_556
Ac4 Ac5 3.637448 1_555
Ac4 Hg0 3.854470 1_545
Ac4 Hg0 3.854486 1_555
Ac4 Ac5 4.067508 1_455
Ac5 Hg1 3.626279 1_556
Ac5 Hg1 3.626279 1_555
Ac5 Hg0 3.854478 1_545
Ac5 Hg0 3.854478 1_655
