# generated using pymatgen
data_Ba3Si6(NO6)2
_symmetry_space_group_name_H-M   'P 1'
_cell_length_a   7.59569043
_cell_length_b   7.59569043
_cell_length_c   6.59588100
_cell_angle_alpha   90.00000000
_cell_angle_beta   90.00000000
_cell_angle_gamma   120.00000378
_symmetry_Int_Tables_number   1
_chemical_formula_structural   Ba3Si6(NO6)2
_chemical_formula_sum   'Ba3 Si6 N2 O12'
_cell_volume   329.56261476
_cell_formula_units_Z   1
loop_
 _symmetry_equiv_pos_site_id
 _symmetry_equiv_pos_as_xyz
  1  'x, y, z'
loop_
 _atom_site_type_symbol
 _atom_site_label
 _atom_site_symmetry_multiplicity
 _atom_site_fract_x
 _atom_site_fract_y
 _atom_site_fract_z
 _atom_site_occupancy
  Ba  Ba0  1  0.33333300  0.66666700  0.10174300  1
  Ba  Ba1  1  0.66666700  0.33333300  0.89825700  1
  Ba  Ba2  1  0.00000000  0.00000000  0.00000000  1
  Si  Si0  1  0.40759500  0.23621200  0.39035500  1
  Si  Si1  1  0.76378800  0.17138200  0.39035500  1
  Si  Si2  1  0.82861800  0.59240500  0.39035500  1
  Si  Si3  1  0.59240500  0.76378800  0.60964500  1
  Si  Si4  1  0.23621200  0.82861800  0.60964500  1
  Si  Si5  1  0.17138200  0.40759500  0.60964500  1
  N  N0  1  0.33333300  0.66666700  0.56273300  1
  N  N1  1  0.66666700  0.33333300  0.43726700  1
  O  O0  1  0.63826300  0.70204200  0.82764100  1
  O  O1  1  0.29795800  0.93622100  0.82764100  1
  O  O2  1  0.06377900  0.36173700  0.82764100  1
  O  O3  1  0.36173700  0.29795800  0.17235900  1
  O  O4  1  0.70204200  0.06377900  0.17235900  1
  O  O5  1  0.93622100  0.63826300  0.17235900  1
  O  O6  1  0.69628200  0.01473800  0.58863300  1
  O  O7  1  0.98526200  0.68154400  0.58863300  1
  O  O8  1  0.31845600  0.30371800  0.58863300  1
  O  O9  1  0.30371800  0.98526200  0.41136700  1
  O  O10  1  0.01473800  0.31845600  0.41136700  1
  O  O11  1  0.68154400  0.69628200  0.41136700  1
loop_
_geom_bond_atom_site_label_1
_geom_bond_atom_site_label_2
_geom_bond_distance
_geom_bond_site_symmetry_2
Ba0 O1 2.843071 1_554
Ba0 O2 2.843074 1_554
Ba0 O0 2.843077 1_554
Ba0 O5 2.951445 1_455
Ba0 O4 2.951449 1_565
Ba0 O3 2.951453 1_555
Ba0 N0 3.040635 1_555
Ba0 O9 3.259121 1_555
Ba0 O10 3.259124 1_555
Ba0 O11 3.259127 1_555
Ba1 O4 2.843071 1_556
Ba1 O5 2.843074 1_556
Ba1 O3 2.843077 1_556
Ba1 O2 2.951445 1_655
Ba1 O1 2.951449 1_545
Ba1 O0 2.951453 1_555
Ba1 N1 3.040635 1_555
Ba1 O6 3.259121 1_555
Ba1 O7 3.259124 1_555
Ba1 O8 3.259127 1_555
Ba2 O3 2.783090 1_555
Ba2 O0 2.783090 1_444
Ba2 O2 2.783090 1_554
Ba2 O5 2.783090 1_445
Ba2 O4 2.783090 1_455
Ba2 O1 2.783090 1_544
N0 Si5 1.749467 1_555
N0 Si3 1.749467 1_555
N0 Si4 1.749467 1_555
N1 Si2 1.749467 1_555
N1 Si0 1.749467 1_555
N1 Si1 1.749467 1_555
O0 Si3 1.603791 1_555
O1 Si4 1.603788 1_555
O2 Si5 1.603788 1_555
O3 Si0 1.603791 1_555
O4 Si1 1.603788 1_555
O5 Si2 1.603788 1_555
O6 Si3 1.664675 1_545
O6 Si1 1.667000 1_555
O7 Si4 1.664676 1_655
O7 Si2 1.667001 1_555
O8 Si5 1.664682 1_555
O8 Si0 1.667005 1_555
O9 Si0 1.664675 1_565
O9 Si4 1.667000 1_555
O10 Si1 1.664676 1_455
O10 Si5 1.667001 1_555
O11 Si2 1.664682 1_555
O11 Si3 1.667005 1_555
