# generated using pymatgen
data_LuBe13
_symmetry_space_group_name_H-M   'P 1'
_cell_length_a   7.15480855
_cell_length_b   7.15480855
_cell_length_c   7.15473215
_cell_angle_alpha   60.00035324
_cell_angle_beta   60.00035324
_cell_angle_gamma   60.00068255
_symmetry_Int_Tables_number   1
_chemical_formula_structural   LuBe13
_chemical_formula_sum   'Lu2 Be26'
_cell_volume   258.98760279
_cell_formula_units_Z   2
loop_
 _symmetry_equiv_pos_site_id
 _symmetry_equiv_pos_as_xyz
  1  'x, y, z'
loop_
 _atom_site_type_symbol
 _atom_site_label
 _atom_site_symmetry_multiplicity
 _atom_site_fract_x
 _atom_site_fract_y
 _atom_site_fract_z
 _atom_site_occupancy
  Lu  Lu0  1  0.25000000  0.25000000  0.25000000  1
  Lu  Lu1  1  0.75000000  0.75000000  0.75000000  1
  Be  Be0  1  0.29175089  0.06244287  0.93754963  1
  Be  Be1  1  0.06244487  0.29174889  0.70825561  1
  Be  Be2  1  0.70825211  0.93755513  0.06244837  1
  Be  Be3  1  0.93755713  0.70825011  0.29174339  1
  Be  Be4  1  0.93755018  0.29175009  0.06244406  1
  Be  Be5  1  0.06244663  0.93755137  0.29175469  1
  Be  Be6  1  0.29174809  0.93755218  0.70825467  1
  Be  Be7  1  0.29173990  0.70825910  0.06244689  1
  Be  Be8  1  0.70825091  0.06244982  0.29174433  1
  Be  Be9  1  0.93755137  0.06244663  0.70824831  1
  Be  Be10  1  0.06244782  0.70825291  0.93755394  1
  Be  Be11  1  0.70825910  0.29173990  0.93755511  1
  Be  Be12  1  0.43755613  0.20825211  0.56244837  1
  Be  Be13  1  0.20825011  0.43755813  0.79174239  1
  Be  Be14  1  0.56244287  0.79174989  0.43755063  1
  Be  Be15  1  0.79174789  0.56244487  0.20825561  1
  Be  Be16  1  0.20825291  0.56244782  0.43755494  1
  Be  Be17  1  0.56244663  0.43755237  0.20824831  1
  Be  Be18  1  0.56244982  0.20825091  0.79174333  1
  Be  Be19  1  0.79173890  0.20825910  0.43755611  1
  Be  Be20  1  0.43755318  0.79174709  0.20825467  1
  Be  Be21  1  0.43755237  0.56244663  0.79175369  1
  Be  Be22  1  0.79174909  0.43755118  0.56244406  1
  Be  Be23  1  0.20825910  0.79173890  0.56244689  1
  Be  Be24  1  -0.00000000  0.00000000  -0.00000000  1
  Be  Be25  1  0.49999900  0.49999900  0.49999900  1
loop_
_geom_bond_atom_site_label_1
_geom_bond_atom_site_label_2
_geom_bond_distance
_geom_bond_site_symmetry_2
Be0 Be24 2.134676 1_556
Be0 Be18 2.199893 1_555
Be0 Be20 2.199895 1_546
Be0 Be12 2.206353 1_555
Be0 Be13 2.206453 1_555
Be0 Be6 2.226168 1_545
Be0 Be7 2.226192 1_546
Be0 Be5 2.226275 1_546
Be0 Be4 2.226295 1_456
Be0 Be1 2.320155 1_555
Be0 Lu1 2.969615 1_545
Be0 Lu0 2.969631 1_556
Be1 Be24 2.134674 1_556
Be1 Be16 2.199893 1_555
Be1 Be22 2.199895 1_455
Be1 Be13 2.206353 1_555
Be1 Be12 2.206431 1_555
Be1 Be4 2.226174 1_456
Be1 Be11 2.226203 1_455
Be1 Be9 2.226264 1_455
Be1 Be6 2.226268 1_545
Be1 Lu0 2.969620 1_555
Be1 Lu1 2.969630 1_455
Be2 Be24 2.134669 1_665
Be2 Be20 2.199893 1_555
Be2 Be8 2.226181 1_565
Be2 Be9 2.226241 1_564
Be2 Be3 2.320155 1_555
Be2 Lu1 2.969617 1_554
Be2 Lu0 2.969636 1_565
Be3 Be7 2.226183 1_655
Be3 Be5 2.226252 1_655
Be3 Be8 2.226288 1_565
Be3 Lu0 2.969621 1_655
Be3 Lu1 2.969628 1_555
Be4 Be5 2.226290 1_645
Be4 Be8 2.320153 1_555
Be4 Lu1 2.969612 1_554
Be4 Lu0 2.969635 1_655
Be5 Be8 2.226273 1_465
Be5 Be7 2.320155 1_555
Be5 Lu1 2.969585 1_455
Be5 Lu0 2.969603 1_565
Be6 Be7 2.226188 1_556
Be6 Be9 2.226274 1_465
Be6 Lu0 2.969623 1_565
Be6 Lu1 2.969626 1_555
Be7 Lu0 2.969650 1_555
Be7 Lu1 2.969659 1_554
Be8 Lu0 2.969618 1_555
Be8 Lu1 2.969633 1_545
Be9 Lu1 2.969589 1_545
Be9 Lu0 2.969606 1_655
Be10 Be24 2.134670 1_566
Be10 Be13 2.199889 1_555
Be10 Be15 2.199899 1_456
Be10 Be23 2.206384 1_555
Be10 Be21 2.206393 1_555
Be10 Be3 2.226175 1_456
Be10 Be7 2.226184 1_556
Be10 Be9 2.226256 1_465
Be10 Be2 2.226261 1_456
Be10 Be6 2.320153 1_555
Be10 Lu1 2.969621 1_455
Be10 Lu0 2.969632 1_556
Be11 Be24 2.134647 1_656
Be11 Be17 2.199856 1_556
Be11 Be21 2.199929 1_555
Be11 Be18 2.206400 1_555
Be11 Be22 2.206406 1_555
Be11 Be8 2.226168 1_556
Be11 Be4 2.226172 1_556
Be11 Be2 2.226193 1_546
Be11 Be9 2.320155 1_555
Be11 Lu0 2.969649 1_556
Be11 Lu1 2.969658 1_555
Be12 Be25 2.134651 1_555
Be12 Be8 2.199889 1_555
Be12 Be6 2.199899 1_545
Be12 Be18 2.226168 1_555
Be12 Be19 2.226181 1_555
Be12 Be17 2.226242 1_555
Be12 Be16 2.226263 1_555
Be12 Be13 2.320155 1_555
Be12 Lu0 2.969623 1_555
Be12 Lu1 2.969633 1_545
Be13 Be25 2.134665 1_555
Be13 Be4 2.199899 1_456
Be13 Be16 2.226163 1_555
Be13 Be23 2.226170 1_555
Be13 Be21 2.226253 1_555
Be13 Be18 2.226289 1_555
Be13 Lu1 2.969618 1_455
Be13 Lu0 2.969633 1_556
Be14 Be25 2.134686 1_555
Be14 Be6 2.199889 1_555
Be14 Be8 2.199899 1_565
Be14 Be2 2.206358 1_555
Be14 Be3 2.206447 1_555
Be14 Be20 2.226169 1_555
Be14 Be23 2.226193 1_555
Be14 Be21 2.226262 1_555
Be14 Be22 2.226283 1_555
Be14 Be15 2.320155 1_555
Be14 Lu0 2.969621 1_565
Be14 Lu1 2.969628 1_555
Be15 Be25 2.134672 1_555
Be15 Be4 2.199889 1_555
Be15 Be3 2.206358 1_555
Be15 Be2 2.206426 1_555
Be15 Be22 2.226175 1_555
Be15 Be19 2.226204 1_555
Be15 Be17 2.226252 1_555
Be15 Be20 2.226256 1_555
Be15 Lu1 2.969617 1_554
Be15 Lu0 2.969636 1_655
Be16 Be25 2.134652 1_555
Be16 Be3 2.199895 1_455
Be16 Be5 2.206388 1_555
Be16 Be7 2.206390 1_555
Be16 Be23 2.226172 1_555
Be16 Be17 2.226258 1_555
Be16 Be20 2.320153 1_555
Be16 Lu0 2.969627 1_555
Be16 Lu1 2.969629 1_455
Be17 Be25 2.134677 1_555
Be17 Be7 2.199929 1_555
Be17 Be8 2.206383 1_555
Be17 Be4 2.206388 1_555
Be17 Be20 2.226261 1_555
Be17 Be19 2.320155 1_555
Be17 Lu0 2.969595 1_555
Be17 Lu1 2.969603 1_554
Be18 Be25 2.134673 1_555
Be18 Be2 2.199895 1_546
Be18 Be9 2.206377 1_555
Be18 Be19 2.226156 1_555
Be18 Be21 2.226274 1_555
Be18 Be22 2.320153 1_555
Be18 Lu1 2.969615 1_545
Be18 Lu0 2.969638 1_556
Be19 Be25 2.134640 1_555
Be19 Be9 2.199850 1_555
Be19 Be5 2.199935 1_645
Be19 Be8 2.206395 1_555
Be19 Be4 2.206411 1_555
Be19 Be22 2.226173 1_555
Be19 Lu1 2.969646 1_545
Be19 Lu0 2.969664 1_655
Be20 Be25 2.134665 1_555
Be20 Be7 2.206395 1_555
Be20 Be5 2.206404 1_555
Be20 Be23 2.226189 1_555
Be20 Lu1 2.969620 1_554
Be20 Lu0 2.969631 1_565
Be21 Be25 2.134712 1_555
Be21 Be7 2.199856 1_556
Be21 Be6 2.206399 1_555
Be21 Be22 2.226278 1_555
Be21 Be23 2.320155 1_555
Be21 Lu0 2.969591 1_556
Be21 Lu1 2.969600 1_555
Be22 Be25 2.134687 1_555
Be22 Be3 2.199893 1_555
Be22 Be9 2.206393 1_555
Be22 Lu0 2.969617 1_655
Be22 Lu1 2.969632 1_555
Be23 Be25 2.134647 1_555
Be23 Be5 2.199850 1_555
Be23 Be9 2.199935 1_465
Be23 Be6 2.206400 1_555
Be23 Lu1 2.969647 1_455
Be23 Lu0 2.969665 1_565
Be24 Be7 2.134649 1_545
Be24 Be3 2.134672 1_445
Be24 Be6 2.134673 1_544
Be24 Be8 2.134674 1_455
Be24 Be4 2.134677 1_455
Be24 Be9 2.134696 1_454
Be24 Be5 2.134703 1_545
