# generated using pymatgen
data_NpSb3
_symmetry_space_group_name_H-M   'P 1'
_cell_length_a   6.25229743
_cell_length_b   6.25229743
_cell_length_c   6.25229743
_cell_angle_alpha   138.19501573
_cell_angle_beta   138.19501573
_cell_angle_gamma   60.60445391
_symmetry_Int_Tables_number   1
_chemical_formula_structural   NpSb3
_chemical_formula_sum   'Np1 Sb3'
_cell_volume   107.44259691
_cell_formula_units_Z   1
loop_
 _symmetry_equiv_pos_site_id
 _symmetry_equiv_pos_as_xyz
  1  'x, y, z'
loop_
 _atom_site_type_symbol
 _atom_site_label
 _atom_site_symmetry_multiplicity
 _atom_site_fract_x
 _atom_site_fract_y
 _atom_site_fract_z
 _atom_site_occupancy
  Np  Np0  1  0.00000000  0.00000000  0.00000000  1
  Sb  Sb0  1  0.75000000  0.25000000  0.50000000  1
  Sb  Sb1  1  0.25000000  0.75000000  0.50000000  1
  Sb  Sb2  1  0.50000000  0.50000000  0.00000000  1
loop_
_geom_bond_atom_site_label_1
_geom_bond_atom_site_label_2
_geom_bond_distance
_geom_bond_site_symmetry_2
Np0 Sb2 3.154667 1_444
Np0 Sb2 3.154667 1_545
Np0 Sb2 3.154667 1_556
Np0 Sb2 3.154667 1_455
Np0 Sb0 3.501541 1_555
Np0 Sb1 3.501541 1_444
Np0 Sb0 3.501541 1_454
Np0 Sb0 3.501541 1_455
Np0 Sb0 3.501541 1_444
Np0 Sb1 3.501541 1_545
Np0 Sb1 3.501541 1_555
Np0 Sb1 3.501541 1_544
Sb0 Sb1 3.154667 1_645
Sb0 Sb1 3.154667 1_555
Sb0 Sb1 3.154667 1_544
Sb0 Sb1 3.154667 1_656
