# generated using pymatgen
data_RbCaSb
_symmetry_space_group_name_H-M   'P 1'
_cell_length_a   5.38931429
_cell_length_b   5.38931429
_cell_length_c   8.52838083
_cell_angle_alpha   90.00000000
_cell_angle_beta   90.00000000
_cell_angle_gamma   90.00000000
_symmetry_Int_Tables_number   1
_chemical_formula_structural   RbCaSb
_chemical_formula_sum   'Rb2 Ca2 Sb2'
_cell_volume   247.70433532
_cell_formula_units_Z   2
loop_
 _symmetry_equiv_pos_site_id
 _symmetry_equiv_pos_as_xyz
  1  'x, y, z'
loop_
 _atom_site_type_symbol
 _atom_site_label
 _atom_site_symmetry_multiplicity
 _atom_site_fract_x
 _atom_site_fract_y
 _atom_site_fract_z
 _atom_site_occupancy
  Rb  Rb0  1  0.25000000  0.25000000  0.63408430  1
  Rb  Rb1  1  0.75000000  0.75000000  0.36591570  1
  Ca  Ca0  1  0.25000000  0.75000000  0.00000000  1
  Ca  Ca1  1  0.75000000  0.25000000  0.00000000  1
  Sb  Sb0  1  0.75000000  0.75000000  0.80406899  1
  Sb  Sb1  1  0.25000000  0.25000000  0.19593101  1
loop_
_geom_bond_atom_site_label_1
_geom_bond_atom_site_label_2
_geom_bond_distance
_geom_bond_site_symmetry_2
Rb0 Sb1 3.736738 1_555
Rb0 Sb0 4.077250 1_445
Rb0 Sb0 4.077250 1_455
Rb0 Sb0 4.077250 1_555
Rb0 Sb0 4.077250 1_545
Rb1 Sb0 3.736738 1_555
Rb1 Sb1 4.077250 1_665
Rb1 Sb1 4.077250 1_565
Rb1 Sb1 4.077250 1_655
Rb1 Sb1 4.077250 1_555
Ca0 Sb1 3.170699 1_555
Ca0 Sb0 3.170699 1_454
Ca0 Sb1 3.170699 1_565
Ca0 Sb0 3.170699 1_554
Ca1 Sb1 3.170699 1_555
Ca1 Sb0 3.170699 1_544
Ca1 Sb0 3.170699 1_554
Ca1 Sb1 3.170699 1_655
