# generated using pymatgen
data_AgPb3
_symmetry_space_group_name_H-M   'P 1'
_cell_length_a   6.90566447
_cell_length_b   6.90566447
_cell_length_c   5.56419100
_cell_angle_alpha   90.00000000
_cell_angle_beta   90.00000000
_cell_angle_gamma   120.00000453
_symmetry_Int_Tables_number   1
_chemical_formula_structural   AgPb3
_chemical_formula_sum   'Ag2 Pb6'
_cell_volume   229.79659435
_cell_formula_units_Z   2
loop_
 _symmetry_equiv_pos_site_id
 _symmetry_equiv_pos_as_xyz
  1  'x, y, z'
loop_
 _atom_site_type_symbol
 _atom_site_label
 _atom_site_symmetry_multiplicity
 _atom_site_fract_x
 _atom_site_fract_y
 _atom_site_fract_z
 _atom_site_occupancy
  Ag  Ag0  1  0.33333300  0.66666700  0.75000000  1
  Ag  Ag1  1  0.66666700  0.33333300  0.25000000  1
  Pb  Pb0  1  0.17111300  0.34222700  0.25000000  1
  Pb  Pb1  1  0.65777400  0.82888700  0.25000000  1
  Pb  Pb2  1  0.17111300  0.82888700  0.25000000  1
  Pb  Pb3  1  0.82888700  0.65777400  0.75000000  1
  Pb  Pb4  1  0.34222700  0.17111300  0.75000000  1
  Pb  Pb5  1  0.82888700  0.17111300  0.75000000  1
loop_
_geom_bond_atom_site_label_1
_geom_bond_atom_site_label_2
_geom_bond_distance
_geom_bond_site_symmetry_2
Ag0 Pb0 3.391880 1_555
Ag0 Pb0 3.391880 1_556
Ag0 Pb2 3.391880 1_555
Ag0 Pb2 3.391880 1_556
Ag0 Pb1 3.391883 1_555
Ag0 Pb1 3.391883 1_556
Ag0 Pb4 3.453235 1_565
Ag0 Pb3 3.453238 1_455
Ag0 Pb5 3.453241 1_565
Ag0 Pb5 3.453241 1_455
Ag0 Pb3 3.453245 1_555
Ag0 Pb4 3.453249 1_555
Ag1 Pb4 3.391880 1_555
Ag1 Pb4 3.391880 1_554
Ag1 Pb5 3.391880 1_555
Ag1 Pb5 3.391880 1_554
Ag1 Pb3 3.391883 1_555
Ag1 Pb3 3.391883 1_554
Ag1 Pb0 3.453235 1_655
Ag1 Pb1 3.453238 1_545
Ag1 Pb2 3.453241 1_655
Ag1 Pb2 3.453241 1_545
Ag1 Pb1 3.453245 1_555
Ag1 Pb0 3.453249 1_555
Pb0 Pb2 3.360711 1_555
Pb0 Pb1 3.360714 1_555
Pb0 Pb5 3.453829 1_455
Pb0 Pb5 3.453829 1_454
Pb0 Pb4 3.453837 1_555
Pb0 Pb4 3.453837 1_554
Pb0 Pb1 3.544950 1_445
Pb0 Pb2 3.544954 1_545
Pb1 Pb2 3.360718 1_555
Pb1 Pb5 3.453829 1_564
Pb1 Pb5 3.453829 1_565
Pb1 Pb3 3.453830 1_555
Pb1 Pb3 3.453830 1_554
Pb1 Pb2 3.544947 1_655
Pb2 Pb3 3.453829 1_455
Pb2 Pb3 3.453829 1_454
Pb2 Pb4 3.453829 1_565
Pb2 Pb4 3.453829 1_564
Pb3 Pb4 3.360714 1_555
Pb3 Pb5 3.360718 1_555
Pb3 Pb5 3.544947 1_565
Pb3 Pb4 3.544950 1_665
Pb4 Pb5 3.360711 1_555
Pb4 Pb5 3.544954 1_455
