# generated using pymatgen
data_K3Nb
_symmetry_space_group_name_H-M   'P 1'
_cell_length_a   8.29178349
_cell_length_b   8.29178349
_cell_length_c   6.60698300
_cell_angle_alpha   90.00000000
_cell_angle_beta   90.00000000
_cell_angle_gamma   119.99999595
_symmetry_Int_Tables_number   1
_chemical_formula_structural   K3Nb
_chemical_formula_sum   'K6 Nb2'
_cell_volume   393.39582455
_cell_formula_units_Z   2
loop_
 _symmetry_equiv_pos_site_id
 _symmetry_equiv_pos_as_xyz
  1  'x, y, z'
loop_
 _atom_site_type_symbol
 _atom_site_label
 _atom_site_symmetry_multiplicity
 _atom_site_fract_x
 _atom_site_fract_y
 _atom_site_fract_z
 _atom_site_occupancy
  K  K0  1  0.17707700  0.35415400  0.25000000  1
  K  K1  1  0.64584600  0.82292300  0.25000000  1
  K  K2  1  0.17707700  0.82292300  0.25000000  1
  K  K3  1  0.82292300  0.64584600  0.75000000  1
  K  K4  1  0.35415400  0.17707700  0.75000000  1
  K  K5  1  0.82292300  0.17707700  0.75000000  1
  Nb  Nb0  1  0.33333300  0.66666700  0.75000000  1
  Nb  Nb1  1  0.66666700  0.33333300  0.25000000  1
loop_
_geom_bond_atom_site_label_1
_geom_bond_atom_site_label_2
_geom_bond_distance
_geom_bond_site_symmetry_2
K0 K2 3.886931 1_555
K0 K1 3.886931 1_555
K0 Nb0 3.993638 1_554
K0 Nb0 3.993638 1_555
K0 Nb1 4.148583 1_455
K0 Nb1 4.148591 1_555
K0 K4 4.169008 1_554
K0 K4 4.169008 1_555
K0 K5 4.169008 1_455
K0 K5 4.169008 1_454
K0 K2 4.404852 1_545
K0 K1 4.404853 1_445
K1 K2 3.886931 1_555
K1 Nb0 3.993638 1_555
K1 Nb0 3.993638 1_554
K1 Nb1 4.148583 1_565
K1 Nb1 4.148591 1_555
K1 K3 4.169008 1_554
K1 K3 4.169008 1_555
K1 K5 4.169008 1_564
K1 K5 4.169008 1_565
K1 K2 4.404852 1_655
K2 Nb0 3.993634 1_554
K2 Nb0 3.993634 1_555
K2 Nb1 4.148587 1_455
K2 Nb1 4.148587 1_565
K2 K4 4.169008 1_564
K2 K3 4.169008 1_455
K2 K3 4.169008 1_454
K2 K4 4.169008 1_565
K3 K5 3.886931 1_555
K3 K4 3.886931 1_555
K3 Nb1 3.993638 1_555
K3 Nb1 3.993638 1_556
K3 Nb0 4.148583 1_655
K3 Nb0 4.148591 1_555
K3 K5 4.404852 1_565
K3 K4 4.404853 1_665
K4 K5 3.886931 1_555
K4 Nb1 3.993638 1_555
K4 Nb1 3.993638 1_556
K4 Nb0 4.148583 1_545
K4 Nb0 4.148591 1_555
K4 K5 4.404852 1_455
K5 Nb1 3.993634 1_555
K5 Nb1 3.993634 1_556
K5 Nb0 4.148587 1_545
K5 Nb0 4.148587 1_655
