# generated using pymatgen
data_Tb(AlC)3
_symmetry_space_group_name_H-M   'P 1'
_cell_length_a   3.42307131
_cell_length_b   3.42307400
_cell_length_c   17.31045075
_cell_angle_alpha   90.00000000
_cell_angle_beta   90.00000000
_cell_angle_gamma   119.99999342
_symmetry_Int_Tables_number   1
_chemical_formula_structural   Tb(AlC)3
_chemical_formula_sum   'Tb2 Al6 C6'
_cell_volume   175.65935009
_cell_formula_units_Z   2
loop_
 _symmetry_equiv_pos_site_id
 _symmetry_equiv_pos_as_xyz
  1  'x, y, z'
loop_
 _atom_site_type_symbol
 _atom_site_label
 _atom_site_symmetry_multiplicity
 _atom_site_fract_x
 _atom_site_fract_y
 _atom_site_fract_z
 _atom_site_occupancy
  Tb  Tb0  1  0.00000000  -0.00000000  -0.00000000  1
  Tb  Tb1  1  0.00000000  -0.00000000  0.50000000  1
  Al  Al0  1  0.33332761  0.66665722  0.13455479  1
  Al  Al1  1  0.66666537  0.33332675  0.25000000  1
  Al  Al2  1  0.33332761  0.66665722  0.36544421  1
  Al  Al3  1  0.66667239  0.33334178  0.63455579  1
  Al  Al4  1  0.33333563  0.66667225  0.75000000  1
  Al  Al5  1  0.66667239  0.33334178  0.86544521  1
  C  C0  1  0.66666590  0.33332880  0.09407441  1
  C  C1  1  0.33332963  0.66666126  0.25000000  1
  C  C2  1  0.66666590  0.33332880  0.40592659  1
  C  C3  1  0.33333510  0.66667120  0.59407341  1
  C  C4  1  0.66667137  0.33333874  0.75000000  1
  C  C5  1  0.33333510  0.66667120  0.90592559  1
loop_
_geom_bond_atom_site_label_1
_geom_bond_atom_site_label_2
_geom_bond_distance
_geom_bond_site_symmetry_2
Al0 C1 1.998409 1_555
Al0 C0 2.096849 1_455
Al0 C0 2.096864 1_555
Al0 C0 2.096878 1_565
Al1 C1 1.976304 1_655
Al1 C1 1.976309 1_545
Al1 C1 1.976322 1_555
Al2 C1 1.998391 1_555
Al2 C2 2.096861 1_455
Al2 C2 2.096875 1_555
Al2 C2 2.096890 1_565
Al3 C4 1.998391 1_555
Al3 C3 2.096863 1_655
Al3 C3 2.096875 1_555
Al3 C3 2.096887 1_545
Al4 C4 1.976304 1_455
Al4 C4 1.976312 1_565
Al4 C4 1.976320 1_555
Al5 C4 1.998409 1_555
Al5 C5 2.096852 1_655
Al5 C5 2.096864 1_555
Al5 C5 2.096875 1_545
C0 Tb0 2.560797 1_655
C0 Tb0 2.560803 1_555
C0 Tb0 2.560817 1_665
C2 Tb1 2.560786 1_655
C2 Tb1 2.560792 1_555
C2 Tb1 2.560806 1_665
C3 Tb1 2.560788 1_565
C3 Tb1 2.560790 1_665
C3 Tb1 2.560806 1_555
C5 Tb0 2.560799 1_566
C5 Tb0 2.560801 1_666
C5 Tb0 2.560817 1_556
