# generated using pymatgen
data_Th3O
_symmetry_space_group_name_H-M   'P 1'
_cell_length_a   5.99289329
_cell_length_b   5.99289329
_cell_length_c   5.99289329
_cell_angle_alpha   135.84700549
_cell_angle_beta   135.84700549
_cell_angle_gamma   64.21695599
_symmetry_Int_Tables_number   1
_chemical_formula_structural   Th3O
_chemical_formula_sum   'Th3 O1'
_cell_volume   103.01272171
_cell_formula_units_Z   1
loop_
 _symmetry_equiv_pos_site_id
 _symmetry_equiv_pos_as_xyz
  1  'x, y, z'
loop_
 _atom_site_type_symbol
 _atom_site_label
 _atom_site_symmetry_multiplicity
 _atom_site_fract_x
 _atom_site_fract_y
 _atom_site_fract_z
 _atom_site_occupancy
  Th  Th0  1  0.75000000  0.25000000  0.50000000  1
  Th  Th1  1  0.25000000  0.75000000  0.50000000  1
  Th  Th2  1  0.50000000  0.50000000  0.00000000  1
  O  O0  1  0.00000000  0.00000000  0.00000000  1
loop_
_geom_bond_atom_site_label_1
_geom_bond_atom_site_label_2
_geom_bond_distance
_geom_bond_site_symmetry_2
Th0 Th1 3.185366 1_645
Th0 Th1 3.185366 1_656
Th0 Th1 3.185366 1_544
Th0 Th1 3.185366 1_555
Th0 Th2 3.393425 1_656
Th0 Th2 3.393425 1_555
Th0 Th2 3.393425 1_545
Th0 Th2 3.393425 1_556
Th1 Th2 3.393425 1_555
Th1 Th2 3.393425 1_556
Th1 Th2 3.393425 1_455
Th1 Th2 3.393425 1_566
O0 Th2 3.185366 1_455
O0 Th2 3.185366 1_444
O0 Th2 3.185366 1_545
O0 Th2 3.185366 1_556
O0 Th0 3.393425 1_455
O0 Th0 3.393425 1_444
O0 Th0 3.393425 1_454
O0 Th0 3.393425 1_555
O0 Th1 3.393425 1_544
O0 Th1 3.393425 1_444
O0 Th1 3.393425 1_555
O0 Th1 3.393425 1_545
