# generated using pymatgen
data_MgZn2
_symmetry_space_group_name_H-M   'P 1'
_cell_length_a   5.15063824
_cell_length_b   5.15063824
_cell_length_c   5.15063824
_cell_angle_alpha   59.99994514
_cell_angle_beta   59.99994514
_cell_angle_gamma   59.99994514
_symmetry_Int_Tables_number   1
_chemical_formula_structural   MgZn2
_chemical_formula_sum   'Mg2 Zn4'
_cell_volume   96.62012760
_cell_formula_units_Z   2
loop_
 _symmetry_equiv_pos_site_id
 _symmetry_equiv_pos_as_xyz
  1  'x, y, z'
loop_
 _atom_site_type_symbol
 _atom_site_label
 _atom_site_symmetry_multiplicity
 _atom_site_fract_x
 _atom_site_fract_y
 _atom_site_fract_z
 _atom_site_occupancy
  Mg  Mg0  1  0.75000000  0.75000000  0.75000000  1
  Mg  Mg1  1  0.50000000  0.50000000  0.50000000  1
  Zn  Zn0  1  0.12500000  0.12500000  0.12500000  1
  Zn  Zn1  1  0.62500000  0.12500000  0.12500000  1
  Zn  Zn2  1  0.12500000  0.12500000  0.62500000  1
  Zn  Zn3  1  0.12500000  0.62500000  0.12500000  1
loop_
_geom_bond_atom_site_label_1
_geom_bond_atom_site_label_2
_geom_bond_distance
_geom_bond_site_symmetry_2
Mg0 Zn0 3.019827 1_566
Mg0 Zn0 3.019827 1_665
Mg0 Zn0 3.019827 1_656
Mg0 Zn1 3.019828 1_565
Mg0 Zn2 3.019828 1_655
Mg0 Zn3 3.019828 1_655
Mg0 Zn3 3.019828 1_556
Mg0 Zn1 3.019828 1_556
Mg0 Zn2 3.019828 1_565
Mg0 Zn2 3.019830 1_665
Mg0 Zn1 3.019830 1_566
Mg0 Zn3 3.019830 1_656
Mg0 Mg1 3.154107 1_655
Mg0 Mg1 3.154107 1_565
Mg0 Mg1 3.154107 1_556
Mg0 Mg1 3.154110 1_555
Mg1 Zn0 3.019827 1_556
Mg1 Zn0 3.019827 1_565
Mg1 Zn0 3.019827 1_655
Mg1 Zn1 3.019828 1_565
Mg1 Zn2 3.019828 1_655
Mg1 Zn3 3.019828 1_655
Mg1 Zn3 3.019828 1_556
Mg1 Zn1 3.019828 1_556
Mg1 Zn2 3.019828 1_565
Mg1 Zn1 3.019830 1_555
Mg1 Zn2 3.019830 1_555
Mg1 Zn3 3.019830 1_555
Zn0 Zn2 2.575319 1_555
Zn0 Zn2 2.575319 1_554
Zn0 Zn3 2.575319 1_545
Zn0 Zn3 2.575319 1_555
Zn0 Zn1 2.575319 1_555
Zn0 Zn1 2.575319 1_455
Zn1 Zn2 2.575317 1_555
Zn1 Zn2 2.575317 1_654
Zn1 Zn3 2.575317 1_645
Zn1 Zn3 2.575317 1_555
Zn2 Zn3 2.575317 1_546
Zn2 Zn3 2.575317 1_555
