# generated using pymatgen
data_Lu2Mo2C3
_symmetry_space_group_name_H-M   'P 1'
_cell_length_a   5.84277083
_cell_length_b   5.84277083
_cell_length_c   5.57852736
_cell_angle_alpha   71.59137774
_cell_angle_beta   108.40862226
_cell_angle_gamma   146.90032613
_symmetry_Int_Tables_number   1
_chemical_formula_structural   Lu2Mo2C3
_chemical_formula_sum   'Lu2 Mo2 C3'
_cell_volume   98.19298203
_cell_formula_units_Z   1
loop_
 _symmetry_equiv_pos_site_id
 _symmetry_equiv_pos_as_xyz
  1  'x, y, z'
loop_
 _atom_site_type_symbol
 _atom_site_label
 _atom_site_symmetry_multiplicity
 _atom_site_fract_x
 _atom_site_fract_y
 _atom_site_fract_z
 _atom_site_occupancy
  Lu  Lu0  1  0.61596316  0.38403484  0.81730261  1
  Lu  Lu1  1  0.38403484  0.61596416  0.18269839  1
  Mo  Mo0  1  0.85221864  0.14777936  0.63279486  1
  Mo  Mo1  1  0.14777936  0.85221864  0.36720414  1
  C  C0  1  0.27007472  0.72992328  0.74816211  1
  C  C1  1  0.72992428  0.27007372  0.25183889  1
  C  C2  1  0.99999900  0.99999900  0.50000000  1
loop_
_geom_bond_atom_site_label_1
_geom_bond_atom_site_label_2
_geom_bond_distance
_geom_bond_site_symmetry_2
C0 Mo0 2.102601 1_455
C0 Mo0 2.102601 1_565
C0 Mo1 2.115378 1_555
C0 Lu1 2.338119 1_556
C0 Lu0 2.517419 1_455
C0 Lu0 2.517419 1_565
C1 Mo1 2.102602 1_655
C1 Mo1 2.102602 1_545
C1 Mo0 2.115366 1_555
C1 Lu0 2.338123 1_554
C1 Lu1 2.517406 1_545
C1 Lu1 2.517408 1_655
C2 Mo0 2.024092 1_565
C2 Mo1 2.024096 1_655
C2 Lu1 2.464846 1_555
C2 Lu1 2.464848 1_665
C2 Lu0 2.464848 1_555
C2 Lu0 2.464848 1_665
