# generated using pymatgen
data_Tb3Nd
_symmetry_space_group_name_H-M   'P 1'
_cell_length_a   7.32616095
_cell_length_b   7.32618407
_cell_length_c   5.84938650
_cell_angle_alpha   90.00000000
_cell_angle_beta   90.00000000
_cell_angle_gamma   120.00011200
_symmetry_Int_Tables_number   1
_chemical_formula_structural   Tb3Nd
_chemical_formula_sum   'Tb6 Nd2'
_cell_volume   271.89094333
_cell_formula_units_Z   2
loop_
 _symmetry_equiv_pos_site_id
 _symmetry_equiv_pos_as_xyz
  1  'x, y, z'
loop_
 _atom_site_type_symbol
 _atom_site_label
 _atom_site_symmetry_multiplicity
 _atom_site_fract_x
 _atom_site_fract_y
 _atom_site_fract_z
 _atom_site_occupancy
  Tb  Tb0  1  0.67099851  0.83549826  0.25000000  1
  Tb  Tb1  1  0.16452409  0.32899307  0.25000000  1
  Tb  Tb2  1  0.83551589  0.16453848  0.74999900  1
  Tb  Tb3  1  0.32901150  0.16450725  0.74999900  1
  Tb  Tb4  1  0.83551689  0.67098041  0.74999900  1
  Tb  Tb5  1  0.16452409  0.83553102  0.25000000  1
  Nd  Nd0  1  0.66662214  0.33331157  0.25000000  1
  Nd  Nd1  1  0.33328789  0.66664495  0.74999900  1
loop_
_geom_bond_atom_site_label_1
_geom_bond_atom_site_label_2
_geom_bond_distance
_geom_bond_site_symmetry_2
Tb0 Tb4 3.593322 1_555
Tb0 Tb4 3.593331 1_554
Tb0 Tb2 3.593336 1_565
Tb0 Tb2 3.593346 1_564
Tb0 Tb5 3.615528 1_655
Tb0 Tb1 3.615535 1_665
Tb0 Tb1 3.710625 1_555
Tb0 Tb5 3.710633 1_555
Tb1 Tb3 3.593089 1_555
Tb1 Tb3 3.593099 1_554
Tb1 Tb2 3.593214 1_455
Tb1 Tb2 3.593224 1_454
Tb1 Tb5 3.615194 1_545
Tb1 Tb5 3.710990 1_555
Tb2 Tb3 3.615543 1_655
Tb2 Tb4 3.615901 1_545
Tb2 Tb4 3.710283 1_555
Tb2 Tb3 3.710618 1_555
Tb3 Tb5 3.593100 1_545
Tb3 Tb5 3.593110 1_546
Tb3 Tb4 3.615539 1_445
Tb3 Tb4 3.710622 1_555
Tb4 Tb5 3.593211 1_655
Tb4 Tb5 3.593220 1_656
Nd0 Tb3 3.625194 1_555
Nd0 Tb3 3.625203 1_554
Nd0 Tb2 3.625409 1_555
Nd0 Tb4 3.625416 1_555
Nd0 Tb2 3.625418 1_554
Nd0 Tb4 3.625425 1_554
Nd0 Tb1 3.662734 1_555
Nd0 Tb5 3.662738 1_545
Nd0 Tb0 3.663186 1_555
Nd0 Tb0 3.663208 1_545
Nd0 Tb5 3.663627 1_655
Nd0 Tb1 3.663631 1_655
Nd1 Tb5 3.625345 1_555
Nd1 Tb1 3.625352 1_555
Nd1 Tb5 3.625354 1_556
Nd1 Tb1 3.625362 1_556
Nd1 Tb0 3.625569 1_555
Nd1 Tb0 3.625578 1_556
Nd1 Tb4 3.662735 1_455
Nd1 Tb2 3.662738 1_455
Nd1 Tb3 3.663189 1_555
Nd1 Tb3 3.663196 1_565
Nd1 Tb2 3.663628 1_565
Nd1 Tb4 3.663633 1_555
