# generated using pymatgen
data_OsRu3
_symmetry_space_group_name_H-M   'P 1'
_cell_length_a   5.43041554
_cell_length_b   5.43041593
_cell_length_c   4.29098234
_cell_angle_alpha   90.00000000
_cell_angle_beta   90.00000000
_cell_angle_gamma   119.99998782
_symmetry_Int_Tables_number   1
_chemical_formula_structural   OsRu3
_chemical_formula_sum   'Os2 Ru6'
_cell_volume   109.58562027
_cell_formula_units_Z   2
loop_
 _symmetry_equiv_pos_site_id
 _symmetry_equiv_pos_as_xyz
  1  'x, y, z'
loop_
 _atom_site_type_symbol
 _atom_site_label
 _atom_site_symmetry_multiplicity
 _atom_site_fract_x
 _atom_site_fract_y
 _atom_site_fract_z
 _atom_site_occupancy
  Os  Os0  1  0.66666472  0.33333666  0.25000000  1
  Os  Os1  1  0.33333489  0.66666444  0.74999900  1
  Ru  Ru0  1  0.83255512  0.16744454  0.74999900  1
  Ru  Ru1  1  0.33489087  0.16744816  0.74999900  1
  Ru  Ru2  1  0.83255126  0.66510761  0.74999900  1
  Ru  Ru3  1  0.16743956  0.83255570  0.25000000  1
  Ru  Ru4  1  0.66511489  0.83254947  0.25000000  1
  Ru  Ru5  1  0.16744769  0.33488642  0.25000000  1
loop_
_geom_bond_atom_site_label_1
_geom_bond_atom_site_label_2
_geom_bond_distance
_geom_bond_site_symmetry_2
Os0 Ru2 2.652844 1_555
Os0 Ru2 2.652851 1_554
Os0 Ru1 2.652852 1_555
Os0 Ru1 2.652859 1_554
Os0 Ru0 2.652876 1_555
Os0 Ru0 2.652883 1_554
Os0 Ru4 2.715151 1_555
Os0 Ru5 2.715174 1_555
Os0 Ru3 2.715202 1_655
Os0 Ru3 2.715235 1_545
Os0 Ru5 2.715261 1_655
Os0 Ru4 2.715284 1_545
Os1 Ru5 2.652864 1_555
Os1 Ru4 2.652869 1_555
Os1 Ru5 2.652871 1_556
Os1 Ru4 2.652876 1_556
Os1 Ru3 2.652887 1_555
Os1 Ru3 2.652894 1_556
Os1 Ru1 2.715187 1_555
Os1 Ru2 2.715189 1_555
Os1 Ru0 2.715217 1_455
Os1 Ru0 2.715219 1_565
Os1 Ru2 2.715246 1_455
Os1 Ru1 2.715249 1_565
Ru0 Ru5 2.661505 1_655
Ru0 Ru5 2.661512 1_656
Ru0 Ru4 2.661512 1_545
Ru0 Ru4 2.661519 1_546
Ru0 Ru2 2.702528 1_555
Ru0 Ru1 2.702534 1_555
Ru0 Ru1 2.727882 1_655
Ru0 Ru2 2.727888 1_545
Ru1 Ru5 2.661474 1_555
Ru1 Ru5 2.661481 1_556
Ru1 Ru3 2.661505 1_545
Ru1 Ru3 2.661512 1_546
Ru1 Ru2 2.702501 1_555
Ru1 Ru2 2.727916 1_445
Ru2 Ru4 2.661465 1_555
Ru2 Ru4 2.661472 1_556
Ru2 Ru3 2.661493 1_655
Ru2 Ru3 2.661500 1_656
Ru3 Ru5 2.702573 1_555
Ru3 Ru4 2.702601 1_555
Ru3 Ru4 2.727815 1_455
Ru3 Ru5 2.727843 1_565
Ru4 Ru5 2.702529 1_555
Ru4 Ru5 2.727888 1_665
