# generated using pymatgen
data_KV5Se8
_symmetry_space_group_name_H-M   'P 1'
_cell_length_a   9.48066580
_cell_length_b   9.48066580
_cell_length_c   8.96323916
_cell_angle_alpha   75.79152364
_cell_angle_beta   75.79152364
_cell_angle_gamma   22.50324564
_symmetry_Int_Tables_number   1
_chemical_formula_structural   KV5Se8
_chemical_formula_sum   'K1 V5 Se8'
_cell_volume   298.53627999
_cell_formula_units_Z   1
loop_
 _symmetry_equiv_pos_site_id
 _symmetry_equiv_pos_as_xyz
  1  'x, y, z'
loop_
 _atom_site_type_symbol
 _atom_site_label
 _atom_site_symmetry_multiplicity
 _atom_site_fract_x
 _atom_site_fract_y
 _atom_site_fract_z
 _atom_site_occupancy
  K  K0  1  0.50000000  0.50000000  -0.00000000  1
  V  V0  1  -0.00000000  -0.00000000  0.50000000  1
  V  V1  1  0.34926822  0.34926822  0.48017431  1
  V  V2  1  0.28724024  0.28724024  0.85044389  1
  V  V3  1  0.71275976  0.71275976  0.14955611  1
  V  V4  1  0.65073178  0.65073178  0.51982569  1
  Se  Se0  1  0.42629413  0.42629413  0.66720629  1
  Se  Se1  1  0.91513392  0.91513392  0.31527995  1
  Se  Se2  1  0.83846001  0.83846001  -0.01159336  1
  Se  Se3  1  0.76099037  0.76099037  0.65750451  1
  Se  Se4  1  0.23900963  0.23900963  0.34249549  1
  Se  Se5  1  0.16153999  0.16153999  0.01159336  1
  Se  Se6  1  0.08486608  0.08486608  0.68472005  1
  Se  Se7  1  0.57370587  0.57370587  0.33279371  1
loop_
_geom_bond_atom_site_label_1
_geom_bond_atom_site_label_2
_geom_bond_distance
_geom_bond_site_symmetry_2
K0 Se1 3.415603 1_455
K0 Se1 3.415603 1_545
K0 Se6 3.415603 1_654
K0 Se6 3.415603 1_564
K0 Se2 3.551599 1_455
K0 Se2 3.551599 1_545
K0 Se5 3.551599 1_565
K0 Se5 3.551599 1_655
K0 Se7 3.580927 1_555
K0 Se0 3.580927 1_554
Se0 V1 2.462557 1_555
Se0 V0 2.553171 1_655
Se0 V0 2.553171 1_565
Se0 V2 2.694236 1_555
Se1 V1 2.490106 1_565
Se1 V1 2.490106 1_655
Se1 V0 2.557357 1_665
Se2 V3 2.420921 1_555
Se2 V2 2.539286 1_564
Se2 V2 2.539286 1_654
Se3 V4 2.644579 1_555
Se3 V2 2.659603 1_655
Se3 V2 2.659603 1_565
Se3 V1 2.708764 1_565
Se3 V1 2.708764 1_655
Se4 V1 2.644579 1_555
Se4 V3 2.659603 1_455
Se4 V3 2.659603 1_545
Se4 V4 2.708764 1_455
Se4 V4 2.708764 1_545
Se5 V2 2.420921 1_554
Se5 V3 2.539286 1_455
Se5 V3 2.539286 1_545
Se6 V4 2.490106 1_545
Se6 V4 2.490106 1_455
Se6 V0 2.557357 1_555
Se7 V4 2.462557 1_555
Se7 V0 2.553171 1_655
Se7 V0 2.553171 1_565
Se7 V3 2.694236 1_555
