# generated using pymatgen
data_Li7La3Zr2O12
_symmetry_space_group_name_H-M   'P 1'
_cell_length_a   11.31061927
_cell_length_b   11.31061927
_cell_length_c   11.31061927
_cell_angle_alpha   108.37749580
_cell_angle_beta   108.37749580
_cell_angle_gamma   111.68153854
_symmetry_Int_Tables_number   1
_chemical_formula_structural   Li7La3Zr2O12
_chemical_formula_sum   'Li28 La12 Zr8 O48'
_cell_volume   1112.62847653
_cell_formula_units_Z   4
loop_
 _symmetry_equiv_pos_site_id
 _symmetry_equiv_pos_as_xyz
  1  'x, y, z'
loop_
 _atom_site_type_symbol
 _atom_site_label
 _atom_site_symmetry_multiplicity
 _atom_site_fract_x
 _atom_site_fract_y
 _atom_site_fract_z
 _atom_site_occupancy
  Li  Li0  1  0.50000000  0.50000000  0.00000000  1
  Li  Li1  1  0.00000000  0.00000000  0.00000000  1
  Li  Li2  1  0.25000000  0.75000000  0.50000000  1
  Li  Li3  1  0.75000000  0.25000000  0.50000000  1
  Li  Li4  1  0.93121100  0.93121100  0.36242200  1
  Li  Li5  1  0.06878900  0.43121100  0.00000000  1
  Li  Li6  1  0.68121100  0.18121100  0.86242200  1
  Li  Li7  1  0.81878900  0.68121100  0.50000000  1
  Li  Li8  1  0.31878900  0.81878900  0.13757800  1
  Li  Li9  1  0.18121100  0.31878900  0.50000000  1
  Li  Li10  1  0.56878900  0.56878900  0.63757800  1
  Li  Li11  1  0.43121100  0.06878900  0.00000000  1
  Li  Li12  1  0.90667800  0.14965900  0.91805000  1
  Li  Li13  1  0.73160900  0.64965900  0.24298200  1
  Li  Li14  1  0.89965900  0.15667800  0.41805000  1
  Li  Li15  1  0.23862800  0.65667800  0.25701800  1
  Li  Li16  1  0.34332200  0.60034100  0.58195000  1
  Li  Li17  1  0.51839100  0.10034100  0.25701800  1
  Li  Li18  1  0.35034100  0.59332200  0.08195000  1
  Li  Li19  1  0.01137200  0.09332200  0.24298200  1
  Li  Li20  1  0.40667800  0.48862800  0.75701800  1
  Li  Li21  1  0.23160900  0.98862800  0.08195000  1
  Li  Li22  1  0.39965900  0.98160900  0.74298200  1
  Li  Li23  1  0.73862800  0.48160900  0.58195000  1
  Li  Li24  1  0.84332200  0.26137200  0.74298200  1
  Li  Li25  1  0.01839100  0.76137200  0.41805000  1
  Li  Li26  1  0.85034100  0.76839100  0.75701800  1
  Li  Li27  1  0.51137200  0.26839100  0.91805000  1
  La  La0  1  0.75000000  0.75000000  0.00000000  1
  La  La1  1  0.25000000  0.25000000  0.00000000  1
  La  La2  1  0.50000000  0.00000000  0.50000000  1
  La  La3  1  0.00000000  0.50000000  0.50000000  1
  La  La4  1  0.37500000  0.75237000  0.87737000  1
  La  La5  1  0.37500000  0.25237000  0.37737000  1
  La  La6  1  0.50237000  0.62500000  0.37737000  1
  La  La7  1  0.74763000  0.12500000  0.12263000  1
  La  La8  1  0.87500000  0.99763000  0.62263000  1
  La  La9  1  0.87500000  0.49763000  0.12263000  1
  La  La10  1  0.00237000  0.62500000  0.87737000  1
  La  La11  1  0.24763000  0.12500000  0.62263000  1
  Zr  Zr0  1  0.62500000  0.87500000  0.75000000  1
  Zr  Zr1  1  0.62500000  0.37500000  0.25000000  1
  Zr  Zr2  1  0.62500000  0.87500000  0.25000000  1
  Zr  Zr3  1  0.12500000  0.37500000  0.25000000  1
  Zr  Zr4  1  0.12500000  0.37500000  0.75000000  1
  Zr  Zr5  1  0.12500000  0.87500000  0.25000000  1
  Zr  Zr6  1  0.12500000  0.87500000  0.75000000  1
  Zr  Zr7  1  0.62500000  0.37500000  0.75000000  1
  O  O0  1  0.52677900  0.68668000  0.77086700  1
  O  O1  1  0.41581300  0.18668000  0.15990100  1
  O  O2  1  0.43668000  0.77677900  0.27086700  1
  O  O3  1  0.00591200  0.27677900  0.34009900  1
  O  O4  1  0.72322100  0.06332000  0.72913300  1
  O  O5  1  0.83418700  0.56332000  0.34009900  1
  O  O6  1  0.81332000  0.97322100  0.22913300  1
  O  O7  1  0.24408800  0.47322100  0.15990100  1
  O  O8  1  0.02677900  0.25591200  0.84009900  1
  O  O9  1  0.91581300  0.75591200  0.22913300  1
  O  O10  1  0.93668000  0.66581300  0.65990100  1
  O  O11  1  0.50591200  0.16581300  0.72913300  1
  O  O12  1  0.22322100  0.49408800  0.65990100  1
  O  O13  1  0.33418700  0.99408800  0.27086700  1
  O  O14  1  0.31332000  0.08418700  0.84009900  1
  O  O15  1  0.74408800  0.58418700  0.77086700  1
  O  O16  1  0.94311000  0.39563000  0.65740600  1
  O  O17  1  0.23822400  0.89563000  0.45252000  1
  O  O18  1  0.14563000  0.19311000  0.15740600  1
  O  O19  1  0.53570400  0.69311000  0.04748000  1
  O  O20  1  0.30689000  0.35437000  0.84259400  1
  O  O21  1  0.01177600  0.85437000  0.04748000  1
  O  O22  1  0.10437000  0.55689000  0.34259400  1
  O  O23  1  0.71429600  0.05689000  0.45252000  1
  O  O24  1  0.44311000  0.78570400  0.54748000  1
  O  O25  1  0.73822400  0.28570400  0.34259400  1
  O  O26  1  0.64563000  0.48822400  0.95252000  1
  O  O27  1  0.03570400  0.98822400  0.84259400  1
  O  O28  1  0.80689000  0.96429600  0.95252000  1
  O  O29  1  0.51177600  0.46429600  0.15740600  1
  O  O30  1  0.60437000  0.26177600  0.54748000  1
  O  O31  1  0.21429600  0.76177600  0.65740600  1
  O  O32  1  0.20553700  0.57958700  0.92759600  1
  O  O33  1  0.15199100  0.07958700  0.37405000  1
  O  O34  1  0.32958700  0.45553700  0.42759600  1
  O  O35  1  0.52794100  0.95553700  0.12595000  1
  O  O36  1  0.04446300  0.17041300  0.57240400  1
  O  O37  1  0.09800900  0.67041300  0.12595000  1
  O  O38  1  0.92041300  0.29446300  0.07240400  1
  O  O39  1  0.72205900  0.79446300  0.37405000  1
  O  O40  1  0.70553700  0.77794100  0.62595000  1
  O  O41  1  0.65199100  0.27794100  0.07240400  1
  O  O42  1  0.82958700  0.40199100  0.87405000  1
  O  O43  1  0.02794100  0.90199100  0.57240400  1
  O  O44  1  0.54446300  0.97205900  0.87405000  1
  O  O45  1  0.59800900  0.47205900  0.42759600  1
  O  O46  1  0.42041300  0.34800900  0.62595000  1
  O  O47  1  0.22205900  0.84800900  0.92759600  1
loop_
_geom_bond_atom_site_label_1
_geom_bond_atom_site_label_2
_geom_bond_distance
_geom_bond_site_symmetry_2
Li0 O29 1.921996 1_555
Li0 O20 1.921996 1_554
Li0 O26 1.921996 1_554
Li0 O19 1.921996 1_555
Li1 O18 1.921996 1_555
Li1 O28 1.921996 1_444
Li1 O21 1.921996 1_545
Li1 O27 1.921996 1_544
Li2 O22 1.921996 1_555
Li2 O24 1.921996 1_555
Li2 O31 1.921996 1_555
Li2 O17 1.921996 1_555
Li3 O23 1.921996 1_555
Li3 O30 1.921996 1_555
Li3 O16 1.921996 1_555
Li3 O25 1.921996 1_555
Li4 O9 1.982138 1_555
Li4 O6 1.982138 1_555
Li4 O39 2.372070 1_555
Li4 O33 2.372070 1_665
Li4 O36 2.463866 1_665
Li4 O43 2.463866 1_655
Li5 O7 1.982138 1_555
Li5 O8 1.982138 1_554
Li5 O32 2.372070 1_554
Li5 O38 2.372070 1_455
Li5 O37 2.463866 1_555
Li5 O42 2.463866 1_454
Li6 O4 1.982138 1_555
Li6 O11 1.982138 1_555
Li6 O44 2.372070 1_545
Li6 O42 2.372070 1_555
Li6 O41 2.463866 1_556
Li6 O38 2.463866 1_556
Li7 O10 1.982138 1_555
Li7 O5 1.982138 1_555
Li7 O45 2.372070 1_555
Li7 O43 2.372070 1_655
Li7 O39 2.463866 1_555
Li7 O40 2.463866 1_555
Li8 O13 1.982138 1_555
Li8 O2 1.982138 1_555
Li8 O37 2.372070 1_555
Li8 O35 2.372070 1_555
Li8 O47 2.463866 1_554
Li8 O32 2.463866 1_554
Li9 O12 1.982138 1_555
Li9 O3 1.982138 1_555
Li9 O36 2.372070 1_555
Li9 O34 2.372070 1_555
Li9 O46 2.463866 1_555
Li9 O33 2.463866 1_555
Li10 O0 1.982138 1_555
Li10 O15 1.982138 1_555
Li10 O40 2.372070 1_555
Li10 O46 2.372070 1_555
Li10 O34 2.463866 1_555
Li10 O45 2.463866 1_555
Li11 O14 1.982138 1_554
Li11 O1 1.982138 1_555
Li11 O47 2.372070 1_544
Li11 O41 2.372070 1_555
Li11 O44 2.463866 1_544
Li11 O35 2.463866 1_545
Li12 O38 1.895401 1_556
Li12 O4 2.053372 1_555
Li12 O8 2.069782 1_655
Li12 O28 2.205882 1_545
Li13 O39 1.895395 1_555
Li13 O5 2.053367 1_555
Li13 O9 2.069788 1_555
Li13 O29 2.205879 1_555
Li14 O36 1.895401 1_655
Li14 O6 2.053372 1_545
Li14 O3 2.069782 1_655
Li14 O23 2.205882 1_555
Li15 O37 1.895395 1_555
Li15 O7 2.053370 1_555
Li15 O2 2.069776 1_555
Li15 O22 2.205891 1_555
Li16 O34 1.895401 1_555
Li16 O0 2.053372 1_555
Li16 O12 2.069782 1_555
Li16 O24 2.205882 1_555
Li17 O35 1.895395 1_545
Li17 O1 2.053367 1_555
Li17 O13 2.069788 1_545
Li17 O25 2.205879 1_555
Li18 O32 1.895401 1_554
Li18 O2 2.053372 1_555
Li18 O7 2.069782 1_555
Li18 O19 2.205882 1_555
Li19 O33 1.895395 1_555
Li19 O3 2.053370 1_555
Li19 O6 2.069776 1_445
Li19 O18 2.205891 1_555
Li20 O46 1.895395 1_555
Li20 O12 2.053370 1_555
Li20 O0 2.069776 1_555
Li20 O20 2.205891 1_555
Li21 O47 1.895401 1_554
Li21 O13 2.053372 1_555
Li21 O1 2.069782 1_565
Li21 O21 2.205882 1_555
Li22 O44 1.895395 1_555
Li22 O14 2.053367 1_565
Li22 O11 2.069788 1_565
Li22 O31 2.205879 1_555
Li23 O45 1.895401 1_555
Li23 O15 2.053372 1_555
Li23 O10 2.069782 1_555
Li23 O30 2.205882 1_555
Li24 O42 1.895395 1_555
Li24 O8 2.053370 1_655
Li24 O4 2.069776 1_555
Li24 O16 2.205891 1_555
Li25 O43 1.895401 1_555
Li25 O9 2.053372 1_455
Li25 O5 2.069782 1_455
Li25 O17 2.205882 1_555
Li26 O40 1.895395 1_555
Li26 O10 2.053367 1_555
Li26 O15 2.069788 1_555
Li26 O27 2.205879 1_655
Li27 O41 1.895401 1_556
Li27 O11 2.053372 1_555
Li27 O14 2.069782 1_555
Li27 O26 2.205882 1_555
La0 O21 2.542361 1_655
La0 O26 2.542361 1_554
La0 O28 2.542361 1_554
La0 O19 2.542361 1_555
La0 O6 2.640384 1_555
La0 O9 2.640384 1_555
La0 O15 2.640384 1_554
La0 O0 2.640384 1_554
La1 O18 2.542361 1_555
La1 O27 2.542361 1_544
La1 O29 2.542361 1_555
La1 O20 2.542361 1_554
La1 O14 2.640384 1_554
La1 O1 2.640384 1_555
La1 O8 2.640384 1_554
La1 O7 2.640384 1_555
La2 O30 2.542361 1_555
La2 O17 2.542361 1_545
La2 O24 2.542361 1_545
La2 O23 2.542361 1_555
La2 O13 2.640384 1_545
La2 O11 2.640384 1_555
La2 O2 2.640384 1_545
La2 O4 2.640384 1_555
La3 O25 2.542361 1_455
La3 O31 2.542361 1_555
La3 O22 2.542361 1_555
La3 O16 2.542361 1_455
La3 O12 2.640384 1_555
La3 O10 2.640384 1_455
La3 O3 2.640384 1_555
La3 O5 2.640384 1_455
La4 O47 2.469839 1_555
La4 O35 2.469839 1_556
La4 O32 2.536663 1_555
La4 O44 2.536663 1_555
La4 O12 2.575330 1_555
La4 O0 2.575330 1_555
La4 O19 2.638805 1_556
La4 O31 2.638805 1_555
La5 O34 2.469839 1_555
La5 O46 2.469839 1_555
La5 O33 2.536663 1_555
La5 O45 2.536663 1_555
La5 O1 2.575330 1_555
La5 O13 2.575330 1_545
La5 O30 2.638805 1_555
La5 O18 2.638805 1_555
La6 O45 2.469839 1_555
La6 O40 2.469839 1_555
La6 O34 2.536663 1_555
La6 O39 2.536663 1_555
La6 O2 2.575330 1_555
La6 O7 2.575330 1_555
La6 O24 2.638805 1_555
La6 O29 2.638805 1_555
La7 O44 2.469839 1_544
La7 O41 2.469839 1_555
La7 O38 2.536663 1_555
La7 O35 2.536663 1_545
La7 O3 2.575330 1_655
La7 O6 2.575330 1_545
La7 O28 2.638805 1_544
La7 O25 2.638805 1_555
La8 O39 2.469839 1_555
La8 O43 2.469839 1_655
La8 O36 2.536663 1_665
La8 O40 2.536663 1_555
La8 O8 2.575330 1_665
La8 O4 2.575330 1_565
La8 O27 2.638805 1_655
La8 O23 2.638805 1_565
La9 O42 2.469839 1_554
La9 O38 2.469839 1_555
La9 O37 2.536663 1_655
La9 O41 2.536663 1_555
La9 O5 2.575330 1_555
La9 O9 2.575330 1_555
La9 O26 2.638805 1_554
La9 O22 2.638805 1_655
La10 O37 2.469839 1_556
La10 O32 2.469839 1_555
La10 O47 2.536663 1_555
La10 O42 2.536663 1_455
La10 O15 2.575330 1_455
La10 O10 2.575330 1_455
La10 O21 2.638805 1_556
La10 O16 2.638805 1_455
La11 O36 2.469839 1_555
La11 O33 2.469839 1_555
La11 O46 2.536663 1_555
La11 O43 2.536663 1_545
La11 O11 2.575330 1_555
La11 O14 2.575330 1_555
La11 O20 2.638805 1_555
La11 O17 2.638805 1_545
O0 Zr0 2.135585 1_555
O1 Zr1 2.135585 1_555
O2 Zr2 2.135585 1_555
O3 Zr3 2.135585 1_555
O4 Zr0 2.135585 1_545
O5 Zr1 2.135585 1_555
O6 Zr2 2.135585 1_555
O7 Zr3 2.135585 1_555
O8 Zr4 2.135585 1_555
O9 Zr5 2.135585 1_655
O10 Zr6 2.135585 1_655
O11 Zr7 2.135585 1_555
O12 Zr4 2.135585 1_555
O13 Zr5 2.135585 1_555
O14 Zr6 2.135585 1_545
O15 Zr7 2.135585 1_555
O16 Zr4 2.129301 1_655
O17 Zr5 2.129301 1_555
O18 Zr3 2.129301 1_555
O19 Zr2 2.129301 1_555
O20 Zr4 2.129301 1_555
O21 Zr5 2.129301 1_555
O22 Zr3 2.129301 1_555
O23 Zr2 2.129301 1_545
O24 Zr0 2.129301 1_555
O25 Zr1 2.129301 1_555
O26 Zr7 2.129301 1_555
O27 Zr6 2.129301 1_555
O28 Zr0 2.129301 1_555
O29 Zr1 2.129301 1_555
O30 Zr7 2.129301 1_555
O31 Zr6 2.129301 1_555
O32 Zr4 2.139428 1_555
O33 Zr5 2.139428 1_545
O34 Zr3 2.139428 1_555
O35 Zr2 2.139428 1_555
O36 Zr4 2.139428 1_555
O37 Zr5 2.139428 1_555
O38 Zr3 2.139428 1_655
O39 Zr2 2.139428 1_555
O40 Zr0 2.139428 1_555
O41 Zr1 2.139428 1_555
O42 Zr7 2.139428 1_555
O43 Zr6 2.139428 1_555
O44 Zr0 2.139428 1_555
O45 Zr1 2.139428 1_555
O46 Zr7 2.139428 1_555
O47 Zr6 2.139428 1_555
