# generated using pymatgen
data_AgBiO2
_symmetry_space_group_name_H-M   'P 1'
_cell_length_a   3.53624284
_cell_length_b   6.59780179
_cell_length_c   6.72223777
_cell_angle_alpha   114.91675416
_cell_angle_beta   90.00000000
_cell_angle_gamma   90.00000000
_symmetry_Int_Tables_number   1
_chemical_formula_structural   AgBiO2
_chemical_formula_sum   'Ag2 Bi2 O4'
_cell_volume   142.24093738
_cell_formula_units_Z   2
loop_
 _symmetry_equiv_pos_site_id
 _symmetry_equiv_pos_as_xyz
  1  'x, y, z'
loop_
 _atom_site_type_symbol
 _atom_site_label
 _atom_site_symmetry_multiplicity
 _atom_site_fract_x
 _atom_site_fract_y
 _atom_site_fract_z
 _atom_site_occupancy
  Ag  Ag0  1  0.75000000  0.97612168  0.31982078  1
  Ag  Ag1  1  0.25000000  0.02387832  0.68017922  1
  Bi  Bi0  1  0.25000000  0.44234187  0.24065893  1
  Bi  Bi1  1  0.75000000  0.55765813  0.75934107  1
  O  O0  1  0.75000000  0.63159929  0.19559488  1
  O  O1  1  0.25000000  0.36840071  0.80440512  1
  O  O2  1  0.25000000  0.68208036  0.58172365  1
  O  O3  1  0.75000000  0.31791964  0.41827635  1
loop_
_geom_bond_atom_site_label_1
_geom_bond_atom_site_label_2
_geom_bond_distance
_geom_bond_site_symmetry_2
Ag0 O0 2.065154 1_555
Ag0 O3 2.065423 1_565
Ag1 O1 2.065154 1_555
Ag1 O2 2.065423 1_545
Bi0 O2 2.168590 1_555
Bi0 O0 2.257423 1_555
Bi0 O0 2.257423 1_455
Bi0 O3 2.460008 1_455
Bi0 O3 2.460008 1_555
Bi0 O1 2.762728 1_554
Bi1 O3 2.168590 1_555
Bi1 O1 2.257423 1_555
Bi1 O1 2.257423 1_655
Bi1 O2 2.460008 1_655
Bi1 O2 2.460008 1_555
Bi1 O0 2.762728 1_556
