# generated using pymatgen
data_LiHoO3
_symmetry_space_group_name_H-M   'P 1'
_cell_length_a   3.66306000
_cell_length_b   3.66306000
_cell_length_c   3.66306000
_cell_angle_alpha   90.00000000
_cell_angle_beta   90.00000000
_cell_angle_gamma   90.00000000
_symmetry_Int_Tables_number   1
_chemical_formula_structural   LiHoO3
_chemical_formula_sum   'Li1 Ho1 O3'
_cell_volume   49.15097045
_cell_formula_units_Z   1
loop_
 _symmetry_equiv_pos_site_id
 _symmetry_equiv_pos_as_xyz
  1  'x, y, z'
loop_
 _atom_site_type_symbol
 _atom_site_label
 _atom_site_symmetry_multiplicity
 _atom_site_fract_x
 _atom_site_fract_y
 _atom_site_fract_z
 _atom_site_occupancy
  Li  Li0  1  0.00000000  0.00000000  0.00000000  1
  Ho  Ho0  1  0.50000000  0.50000000  0.50000000  1
  O  O0  1  0.00000000  0.00000000  0.50000000  1
  O  O1  1  0.00000000  0.50000000  0.00000000  1
  O  O2  1  0.50000000  0.00000000  0.00000000  1
loop_
_geom_bond_atom_site_label_1
_geom_bond_atom_site_label_2
_geom_bond_distance
_geom_bond_site_symmetry_2
Li0 O0 1.831530 1_554
Li0 O1 1.831530 1_555
Li0 O0 1.831530 1_555
Li0 O2 1.831530 1_455
Li0 O2 1.831530 1_555
Li0 O1 1.831530 1_545
Ho0 O2 2.590175 1_555
Ho0 O2 2.590175 1_556
Ho0 O0 2.590175 1_665
Ho0 O1 2.590175 1_656
Ho0 O1 2.590175 1_655
Ho0 O1 2.590175 1_555
Ho0 O2 2.590175 1_565
Ho0 O1 2.590175 1_556
Ho0 O2 2.590175 1_566
Ho0 O0 2.590175 1_655
Ho0 O0 2.590175 1_555
Ho0 O0 2.590175 1_565
