# generated using pymatgen
data_Tb2Si3
_symmetry_space_group_name_H-M   'P 1'
_cell_length_a   12.22017768
_cell_length_b   12.22017768
_cell_length_c   4.28406000
_cell_angle_alpha   90.00000000
_cell_angle_beta   90.00000000
_cell_angle_gamma   160.03017025
_symmetry_Int_Tables_number   1
_chemical_formula_structural   Tb2Si3
_chemical_formula_sum   'Tb4 Si6'
_cell_volume   218.49094554
_cell_formula_units_Z   2
loop_
 _symmetry_equiv_pos_site_id
 _symmetry_equiv_pos_as_xyz
  1  'x, y, z'
loop_
 _atom_site_type_symbol
 _atom_site_label
 _atom_site_symmetry_multiplicity
 _atom_site_fract_x
 _atom_site_fract_y
 _atom_site_fract_z
 _atom_site_occupancy
  Tb  Tb0  1  0.25362500  0.74637500  0.25000000  1
  Tb  Tb1  1  0.74637500  0.25362500  0.75000000  1
  Tb  Tb2  1  0.61788100  0.38211900  0.25000000  1
  Tb  Tb3  1  0.38211900  0.61788100  0.75000000  1
  Si  Si0  1  0.47850400  0.52149600  0.25000000  1
  Si  Si1  1  0.52149600  0.47850400  0.75000000  1
  Si  Si2  1  0.83587300  0.16412700  0.25000000  1
  Si  Si3  1  0.16412700  0.83587300  0.75000000  1
  Si  Si4  1  0.06832300  0.93167700  0.75000000  1
  Si  Si5  1  0.93167700  0.06832300  0.25000000  1
loop_
_geom_bond_atom_site_label_1
_geom_bond_atom_site_label_2
_geom_bond_distance
_geom_bond_site_symmetry_2
Si0 Si1 2.378898 1_555
Si0 Si1 2.378898 1_554
Si0 Si5 2.399985 1_565
Si0 Si5 2.399985 1_455
Si0 Tb3 3.157643 1_555
Si0 Tb3 3.157643 1_554
Si0 Tb2 3.354828 1_555
Si1 Si4 2.399985 1_545
Si1 Si4 2.399985 1_655
Si1 Tb2 3.157643 1_555
Si1 Tb2 3.157643 1_556
Si1 Tb3 3.354828 1_555
Si2 Si5 2.306018 1_555
Si2 Tb0 2.899793 1_655
Si2 Tb0 2.899793 1_545
Si2 Tb1 3.037928 1_554
Si2 Tb1 3.037928 1_555
Si2 Tb3 3.211991 1_655
Si2 Tb3 3.211991 1_654
Si2 Tb3 3.211991 1_544
Si2 Tb3 3.211991 1_545
Si3 Si4 2.306018 1_555
Si3 Tb1 2.899793 1_565
Si3 Tb1 2.899793 1_455
Si3 Tb0 3.037928 1_555
Si3 Tb0 3.037928 1_556
Si3 Tb2 3.211991 1_566
Si3 Tb2 3.211991 1_565
Si3 Tb2 3.211991 1_456
Si3 Tb2 3.211991 1_455
Si4 Tb2 3.240482 1_455
Si4 Tb2 3.240482 1_456
Si4 Tb2 3.240482 1_566
Si4 Tb2 3.240482 1_565
Si5 Tb3 3.240482 1_544
Si5 Tb3 3.240482 1_545
Si5 Tb3 3.240482 1_655
Si5 Tb3 3.240482 1_654
