# generated using pymatgen
data_KGaPO4F
_symmetry_space_group_name_H-M   'P 1'
_cell_length_a   6.38148400
_cell_length_b   10.59502500
_cell_length_c   12.91522400
_cell_angle_alpha   90.00000000
_cell_angle_beta   90.00000000
_cell_angle_gamma   90.00000000
_symmetry_Int_Tables_number   1
_chemical_formula_structural   KGaPO4F
_chemical_formula_sum   'K8 Ga8 P8 O32 F8'
_cell_volume   873.22389929
_cell_formula_units_Z   8
loop_
 _symmetry_equiv_pos_site_id
 _symmetry_equiv_pos_as_xyz
  1  'x, y, z'
loop_
 _atom_site_type_symbol
 _atom_site_label
 _atom_site_symmetry_multiplicity
 _atom_site_fract_x
 _atom_site_fract_y
 _atom_site_fract_z
 _atom_site_occupancy
  K  K0  1  0.22459400  0.81523700  0.62026000  1
  K  K1  1  0.72459400  0.31523700  0.87974000  1
  K  K2  1  0.27540600  0.81523700  0.12026000  1
  K  K3  1  0.69533700  0.07162700  0.10429000  1
  K  K4  1  0.19533700  0.57162700  0.39571000  1
  K  K5  1  0.30466300  0.57162700  0.89571000  1
  K  K6  1  0.80466300  0.07162700  0.60429000  1
  K  K7  1  0.77540600  0.31523700  0.37974000  1
  Ga  Ga0  1  0.49469900  0.01414100  0.38820900  1
  Ga  Ga1  1  0.50530100  0.51414100  0.61179100  1
  Ga  Ga2  1  0.00530100  0.01414100  0.88820900  1
  Ga  Ga3  1  0.25214000  0.26334400  0.24608000  1
  Ga  Ga4  1  0.74786000  0.76334400  0.75392000  1
  Ga  Ga5  1  0.24786000  0.26334400  0.74608000  1
  Ga  Ga6  1  0.75214000  0.76334400  0.25392000  1
  Ga  Ga7  1  0.99469900  0.51414100  0.11179100  1
  P  P0  1  0.00073400  0.01573200  0.31692100  1
  P  P1  1  0.99926600  0.51573200  0.68307900  1
  P  P2  1  0.49926600  0.01573200  0.81692100  1
  P  P3  1  0.50073400  0.51573200  0.18307900  1
  P  P4  1  0.82880500  0.76483900  0.00020600  1
  P  P5  1  0.17119500  0.26483900  0.99979400  1
  P  P6  1  0.67119500  0.76483900  0.50020600  1
  P  P7  1  0.32880500  0.26483900  0.49979400  1
  O  O0  1  0.54187000  0.63072600  0.25631300  1
  O  O1  1  0.31223100  0.24419700  0.09572000  1
  O  O2  1  0.81223100  0.74419700  0.40428000  1
  O  O3  1  0.18776900  0.24419700  0.59572000  1
  O  O4  1  0.69146000  0.78269500  0.09820200  1
  O  O5  1  0.30854000  0.28269500  0.90179800  1
  O  O6  1  0.80854000  0.78269500  0.59820200  1
  O  O7  1  0.19146000  0.28269500  0.40179800  1
  O  O8  1  0.95176000  0.90272700  0.24312700  1
  O  O9  1  0.04824000  0.40272700  0.75687300  1
  O  O10  1  0.54824000  0.90272700  0.74312700  1
  O  O11  1  0.45176000  0.40272700  0.25687300  1
  O  O12  1  0.04187000  0.13072600  0.24368700  1
  O  O13  1  0.95813000  0.63072600  0.75631300  1
  O  O14  1  0.45813000  0.13072600  0.74368700  1
  O  O15  1  0.68776900  0.74419700  0.90428000  1
  O  O16  1  0.19194800  0.98716000  0.38642500  1
  O  O17  1  0.80805200  0.48716000  0.61357500  1
  O  O18  1  0.30805200  0.98716000  0.88642500  1
  O  O19  1  0.96976000  0.88404200  0.98860800  1
  O  O20  1  0.80851200  0.04513200  0.38662400  1
  O  O21  1  0.19148800  0.54513200  0.61337600  1
  O  O22  1  0.69148800  0.04513200  0.88662400  1
  O  O23  1  0.30851200  0.54513200  0.11337600  1
  O  O24  1  0.48386000  0.15269000  0.48551000  1
  O  O25  1  0.51614000  0.65269000  0.51449000  1
  O  O26  1  0.01614000  0.15269000  0.98551000  1
  O  O27  1  0.98386000  0.65269000  0.01449000  1
  O  O28  1  0.46976000  0.38404200  0.51139200  1
  O  O29  1  0.53024000  0.88404200  0.48860800  1
  O  O30  1  0.03024000  0.38404200  0.01139200  1
  O  O31  1  0.69194800  0.48716000  0.11357500  1
  F  F0  1  0.48214500  0.14297400  0.27252500  1
  F  F1  1  0.51785500  0.64297400  0.72747500  1
  F  F2  1  0.01785500  0.14297400  0.77252500  1
  F  F3  1  0.98214500  0.64297400  0.22747500  1
  F  F4  1  0.02582500  0.39243700  0.22919200  1
  F  F5  1  0.97417500  0.89243700  0.77080800  1
  F  F6  1  0.47417500  0.39243700  0.72919200  1
  F  F7  1  0.52582500  0.89243700  0.27080800  1
loop_
_geom_bond_atom_site_label_1
_geom_bond_atom_site_label_2
_geom_bond_distance
_geom_bond_site_symmetry_2
K0 O29 2.688280 1_555
K0 O6 2.692449 1_455
K0 O10 2.764597 1_555
K0 O21 2.870934 1_555
K0 O25 2.879836 1_555
K0 O13 3.130608 1_455
K1 O30 2.688280 1_656
K1 O5 2.692449 1_555
K1 O9 2.764597 1_655
K1 O22 2.870934 1_555
K1 O26 2.879836 1_655
K1 O14 3.130608 1_555
K2 O19 2.688280 1_454
K2 O4 2.692449 1_555
K2 O8 2.764597 1_455
K2 O23 2.870934 1_555
K2 O27 2.879836 1_455
K2 O0 3.130608 1_555
K3 O26 2.698526 1_654
K3 O22 2.825293 1_554
K3 O12 2.919516 1_655
K3 O8 3.015830 1_545
K3 O19 3.041222 1_544
K3 O1 3.054867 1_555
K3 O4 3.062351 1_545
K4 O25 2.698526 1_555
K4 O21 2.825293 1_555
K4 O0 2.919516 1_555
K4 O11 3.015830 1_555
K4 O28 3.041222 1_555
K4 O2 3.054867 1_455
K4 O7 3.062351 1_555
K5 O27 2.698526 1_456
K5 O23 2.825293 1_556
K5 O13 2.919516 1_455
K5 O9 3.015830 1_555
K5 O30 3.041222 1_556
K5 O15 3.054867 1_555
K5 O5 3.062351 1_555
K6 O24 2.698526 1_555
K6 O20 2.825293 1_555
K6 O14 2.919516 1_555
K6 O10 3.015830 1_545
K6 O29 3.041222 1_545
K6 O3 3.054867 1_655
K6 O6 3.062351 1_545
K7 O28 2.688280 1_555
K7 O7 2.692449 1_655
K7 O11 2.764597 1_555
K7 O20 2.870934 1_555
K7 O24 2.879836 1_555
K7 O12 3.130608 1_655
Ga0 O29 1.905991 1_545
Ga0 O24 1.933600 1_555
Ga0 O16 1.953171 1_545
Ga0 O20 2.029436 1_555
Ga1 O28 1.905991 1_555
Ga1 O25 1.933600 1_555
Ga1 O17 1.953171 1_555
Ga1 O21 2.029436 1_555
Ga2 O19 1.905991 1_445
Ga2 O26 1.933600 1_555
Ga2 O18 1.953171 1_545
Ga2 O22 2.029436 1_455
Ga3 O12 1.943131 1_555
Ga3 O11 1.955254 1_555
Ga3 O1 1.989801 1_555
Ga3 O7 2.058309 1_555
Ga4 O13 1.943131 1_555
Ga4 O10 1.955254 1_555
Ga4 O15 1.989801 1_555
Ga4 O6 2.058309 1_555
Ga5 O14 1.943131 1_555
Ga5 O9 1.955254 1_555
Ga5 O3 1.989801 1_555
Ga5 O5 2.058309 1_555
Ga6 O0 1.943131 1_555
Ga6 O8 1.955254 1_555
Ga6 O2 1.989801 1_555
Ga6 O4 2.058309 1_555
Ga7 O30 1.905991 1_655
Ga7 O27 1.933600 1_555
Ga7 O31 1.953171 1_555
Ga7 O23 2.029436 1_655
O0 P3 1.564584 1_555
O1 P5 1.546852 1_554
O2 P6 1.546852 1_555
O3 P7 1.546852 1_555
O4 P4 1.551073 1_555
O5 P5 1.551073 1_555
O6 P6 1.551073 1_555
O7 P7 1.551073 1_555
O8 P0 1.561894 1_665
O9 P1 1.561894 1_455
O10 P2 1.561894 1_565
O11 P3 1.561894 1_555
O12 P0 1.564584 1_555
O13 P1 1.564584 1_555
O14 P2 1.564584 1_555
O15 P4 1.546852 1_556
O16 P0 1.544795 1_565
O17 P1 1.544795 1_555
O18 P2 1.544795 1_565
O19 P4 1.557757 1_556
O20 P0 1.553107 1_655
O21 P1 1.553107 1_455
O22 P2 1.553107 1_555
O23 P3 1.553107 1_555
O24 P7 1.557233 1_555
O25 P6 1.557233 1_555
O26 P5 1.557233 1_555
O27 P4 1.557233 1_555
O28 P7 1.557757 1_555
O29 P6 1.557757 1_555
O30 P5 1.557757 1_554
O31 P3 1.544795 1_555
F0 Ga3 1.974198 1_555
F0 Ga0 2.025315 1_555
F0 K3 2.672706 1_555
F0 K7 2.958175 1_555
F1 Ga4 1.974198 1_555
F1 Ga1 2.025315 1_555
F1 K5 2.672706 1_555
F1 K0 2.958175 1_555
F2 Ga5 1.974198 1_555
F2 Ga2 2.025315 1_555
F2 K6 2.672706 1_455
F2 K1 2.958175 1_455
F3 Ga6 1.974198 1_555
F3 Ga7 2.025315 1_555
F3 K4 2.672706 1_655
F3 K2 2.958175 1_655
F4 Ga7 2.000300 1_455
F4 Ga3 2.001020 1_555
F4 K7 2.646376 1_455
F4 K4 3.065893 1_555
F5 Ga2 2.000300 1_665
F5 Ga4 2.001020 1_555
F5 K0 2.646376 1_655
F5 K6 3.065893 1_565
F6 Ga1 2.000300 1_555
F6 Ga5 2.001020 1_555
F6 K1 2.646376 1_555
F6 K5 3.065893 1_555
F7 Ga0 2.000300 1_565
F7 Ga6 2.001020 1_555
F7 K2 2.646376 1_555
F7 K3 3.065893 1_565
