# generated using pymatgen
data_Be3Ni
_symmetry_space_group_name_H-M   'P 1'
_cell_length_a   4.58192828
_cell_length_b   4.58191197
_cell_length_c   3.68591688
_cell_angle_alpha   90.00000000
_cell_angle_beta   90.00000000
_cell_angle_gamma   119.99988589
_symmetry_Int_Tables_number   1
_chemical_formula_structural   Be3Ni
_chemical_formula_sum   'Be6 Ni2'
_cell_volume   67.01494975
_cell_formula_units_Z   2
loop_
 _symmetry_equiv_pos_site_id
 _symmetry_equiv_pos_as_xyz
  1  'x, y, z'
loop_
 _atom_site_type_symbol
 _atom_site_label
 _atom_site_symmetry_multiplicity
 _atom_site_fract_x
 _atom_site_fract_y
 _atom_site_fract_z
 _atom_site_occupancy
  Be  Be0  1  0.83313998  0.16686302  0.75000100  1
  Be  Be1  1  0.33372405  0.16686202  0.75000100  1
  Be  Be2  1  0.83313998  0.66627595  0.75000100  1
  Be  Be3  1  0.16686102  0.83313898  0.24999900  1
  Be  Be4  1  0.66627695  0.83313998  0.24999900  1
  Be  Be5  1  0.16686202  0.33372505  0.24999900  1
  Ni  Ni0  1  0.66666700  0.33333400  0.24999900  1
  Ni  Ni1  1  0.33333400  0.66666800  0.75000100  1
loop_
_geom_bond_atom_site_label_1
_geom_bond_atom_site_label_2
_geom_bond_distance
_geom_bond_site_symmetry_2
Be0 Ni0 2.267572 1_556
Be0 Ni0 2.267584 1_555
Be0 Be4 2.269374 1_546
Be0 Be5 2.269375 1_656
Be0 Be4 2.269386 1_545
Be0 Be5 2.269387 1_655
Be0 Be2 2.288266 1_555
Be0 Be1 2.288286 1_555
Be0 Ni1 2.290962 1_655
Be0 Ni1 2.290967 1_545
Be0 Be1 2.293643 1_655
Be0 Be2 2.293646 1_545
Be1 Ni0 2.267572 1_556
Be1 Ni0 2.267584 1_555
Be1 Be3 2.269374 1_546
Be1 Be5 2.269379 1_556
Be1 Be3 2.269386 1_545
Be1 Be5 2.269391 1_555
Be1 Be2 2.288283 1_555
Be1 Ni1 2.290952 1_545
Be1 Ni1 2.290961 1_555
Be1 Be2 2.293645 1_445
Be2 Ni0 2.267567 1_556
Be2 Ni0 2.267579 1_555
Be2 Be3 2.269372 1_656
Be2 Be4 2.269383 1_556
Be2 Be3 2.269384 1_655
Be2 Be4 2.269395 1_555
Be2 Ni1 2.290955 1_655
Be2 Ni1 2.290974 1_555
Be3 Ni1 2.267572 1_554
Be3 Ni1 2.267584 1_555
Be3 Be5 2.288273 1_555
Be3 Be4 2.288286 1_555
Be3 Ni0 2.290962 1_455
Be3 Ni0 2.290967 1_565
Be3 Be5 2.293639 1_565
Be3 Be4 2.293643 1_455
Be4 Ni1 2.267572 1_554
Be4 Ni1 2.267584 1_555
Be4 Be5 2.288283 1_555
Be4 Ni0 2.290952 1_565
Be4 Ni0 2.290961 1_555
Be4 Be5 2.293645 1_665
Be5 Ni1 2.267569 1_554
Be5 Ni1 2.267581 1_555
Be5 Ni0 2.290962 1_455
Be5 Ni0 2.290967 1_555
