# generated using pymatgen
data_SmY3
_symmetry_space_group_name_H-M   'P 1'
_cell_length_a   6.23368651
_cell_length_b   6.23368651
_cell_length_c   6.23368651
_cell_angle_alpha   131.42031715
_cell_angle_beta   131.42031715
_cell_angle_gamma   71.14612835
_symmetry_Int_Tables_number   1
_chemical_formula_structural   SmY3
_chemical_formula_sum   'Sm1 Y3'
_cell_volume   133.35649195
_cell_formula_units_Z   1
loop_
 _symmetry_equiv_pos_site_id
 _symmetry_equiv_pos_as_xyz
  1  'x, y, z'
loop_
 _atom_site_type_symbol
 _atom_site_label
 _atom_site_symmetry_multiplicity
 _atom_site_fract_x
 _atom_site_fract_y
 _atom_site_fract_z
 _atom_site_occupancy
  Sm  Sm0  1  0.00000000  -0.00000000  0.00000000  1
  Y  Y0  1  0.75000100  0.25000000  0.50000200  1
  Y  Y1  1  0.25000000  0.75000100  0.50000200  1
  Y  Y2  1  0.50000000  0.50000000  0.00000000  1
loop_
_geom_bond_atom_site_label_1
_geom_bond_atom_site_label_2
_geom_bond_distance
_geom_bond_site_symmetry_2
Sm0 Y1 3.605873 1_544
Sm0 Y0 3.605873 1_454
Sm0 Y0 3.605884 1_444
Sm0 Y1 3.605884 1_444
Sm0 Y1 3.605884 1_555
Sm0 Y0 3.605884 1_555
Sm0 Y0 3.605888 1_455
Sm0 Y1 3.605888 1_545
Sm0 Y2 3.626389 1_545
Sm0 Y2 3.626389 1_556
Sm0 Y2 3.626389 1_455
Sm0 Y2 3.626389 1_444
Y0 Y2 3.605877 1_556
Y0 Y2 3.605880 1_656
Y0 Y2 3.605880 1_545
Y0 Y2 3.605891 1_555
Y0 Y1 3.626382 1_645
Y0 Y1 3.626389 1_656
Y0 Y1 3.626389 1_544
Y0 Y1 3.626396 1_555
Y1 Y2 3.605877 1_556
Y1 Y2 3.605880 1_566
Y1 Y2 3.605880 1_455
Y1 Y2 3.605891 1_555
