# generated using pymatgen
data_LaPm3
_symmetry_space_group_name_H-M   'P 1'
_cell_length_a   7.52263818
_cell_length_b   7.52263328
_cell_length_c   5.87265813
_cell_angle_alpha   90.00000000
_cell_angle_beta   90.00000000
_cell_angle_gamma   119.99997506
_symmetry_Int_Tables_number   1
_chemical_formula_structural   LaPm3
_chemical_formula_sum   'La2 Pm6'
_cell_volume   287.80976544
_cell_formula_units_Z   2
loop_
 _symmetry_equiv_pos_site_id
 _symmetry_equiv_pos_as_xyz
  1  'x, y, z'
loop_
 _atom_site_type_symbol
 _atom_site_label
 _atom_site_symmetry_multiplicity
 _atom_site_fract_x
 _atom_site_fract_y
 _atom_site_fract_z
 _atom_site_occupancy
  La  La0  1  0.66666800  0.33333300  0.25000100  1
  La  La1  1  0.33333400  0.66666800  0.75000000  1
  Pm  Pm0  1  0.83391649  0.16608251  0.75000000  1
  Pm  Pm1  1  0.33216603  0.16608251  0.75000000  1
  Pm  Pm2  1  0.83391849  0.66783397  0.75000000  1
  Pm  Pm3  1  0.16608251  0.83391649  0.25000100  1
  Pm  Pm4  1  0.66783297  0.83391649  0.25000100  1
  Pm  Pm5  1  0.16608251  0.33216603  0.25000100  1
loop_
_geom_bond_atom_site_label_1
_geom_bond_atom_site_label_2
_geom_bond_distance
_geom_bond_site_symmetry_2
La0 Pm0 3.656620 1_555
La0 Pm2 3.656628 1_555
La0 Pm0 3.656629 1_554
La0 Pm1 3.656633 1_555
La0 Pm2 3.656637 1_554
La0 Pm1 3.656642 1_554
La0 Pm5 3.761312 1_655
La0 Pm4 3.761317 1_545
La0 Pm3 3.761319 1_655
La0 Pm4 3.761332 1_555
La0 Pm3 3.761335 1_545
La0 Pm5 3.761342 1_555
La1 Pm4 3.656621 1_555
La1 Pm3 3.656624 1_555
La1 Pm4 3.656630 1_556
La1 Pm5 3.656632 1_555
La1 Pm3 3.656633 1_556
La1 Pm5 3.656641 1_556
La1 Pm1 3.761313 1_565
La1 Pm2 3.761315 1_455
La1 Pm0 3.761316 1_565
La1 Pm1 3.761336 1_555
La1 Pm2 3.761338 1_555
La1 Pm0 3.761338 1_455
Pm0 Pm4 3.647583 1_545
Pm0 Pm5 3.647583 1_655
Pm0 Pm4 3.647592 1_546
Pm0 Pm5 3.647593 1_656
Pm0 Pm2 3.748149 1_545
Pm0 Pm1 3.748151 1_655
Pm0 Pm2 3.774485 1_555
Pm0 Pm1 3.774487 1_555
Pm1 Pm3 3.647583 1_545
Pm1 Pm5 3.647587 1_555
Pm1 Pm3 3.647592 1_546
Pm1 Pm5 3.647596 1_556
Pm1 Pm2 3.748140 1_445
Pm1 Pm2 3.774499 1_555
Pm2 Pm3 3.647576 1_655
Pm2 Pm3 3.647585 1_656
Pm2 Pm4 3.647590 1_555
Pm2 Pm4 3.647600 1_556
Pm3 Pm5 3.748149 1_565
Pm3 Pm4 3.748151 1_455
Pm3 Pm5 3.774485 1_555
Pm3 Pm4 3.774487 1_555
Pm4 Pm5 3.748151 1_665
Pm4 Pm5 3.774487 1_555
