# generated using pymatgen
data_NiPd3
_symmetry_space_group_name_H-M   'P 1'
_cell_length_a   5.38998034
_cell_length_b   5.38998034
_cell_length_c   4.42051400
_cell_angle_alpha   90.00000000
_cell_angle_beta   90.00000000
_cell_angle_gamma   120.00000419
_symmetry_Int_Tables_number   1
_chemical_formula_structural   NiPd3
_chemical_formula_sum   'Ni2 Pd6'
_cell_volume   111.21868250
_cell_formula_units_Z   2
loop_
 _symmetry_equiv_pos_site_id
 _symmetry_equiv_pos_as_xyz
  1  'x, y, z'
loop_
 _atom_site_type_symbol
 _atom_site_label
 _atom_site_symmetry_multiplicity
 _atom_site_fract_x
 _atom_site_fract_y
 _atom_site_fract_z
 _atom_site_occupancy
  Ni  Ni0  1  0.66666700  0.33333300  0.25000000  1
  Ni  Ni1  1  0.33333300  0.66666700  0.75000000  1
  Pd  Pd0  1  0.83070500  0.16929500  0.75000000  1
  Pd  Pd1  1  0.33859000  0.16929500  0.75000000  1
  Pd  Pd2  1  0.83070500  0.66141000  0.75000000  1
  Pd  Pd3  1  0.16929500  0.83070500  0.25000000  1
  Pd  Pd4  1  0.66141000  0.83070500  0.25000000  1
  Pd  Pd5  1  0.16929500  0.33859000  0.25000000  1
loop_
_geom_bond_atom_site_label_1
_geom_bond_atom_site_label_2
_geom_bond_distance
_geom_bond_site_symmetry_2
Ni0 Pd0 2.688952 1_554
Ni0 Pd0 2.688952 1_555
Ni0 Pd1 2.688954 1_554
Ni0 Pd1 2.688954 1_555
Ni0 Pd2 2.688954 1_555
Ni0 Pd2 2.688954 1_554
Ni0 Pd5 2.695099 1_655
Ni0 Pd4 2.695099 1_545
Ni0 Pd3 2.695102 1_655
Ni0 Pd3 2.695102 1_545
Ni0 Pd5 2.695105 1_555
Ni0 Pd4 2.695105 1_555
Ni1 Pd3 2.688952 1_556
Ni1 Pd3 2.688952 1_555
Ni1 Pd5 2.688954 1_555
Ni1 Pd5 2.688954 1_556
Ni1 Pd4 2.688954 1_555
Ni1 Pd4 2.688954 1_556
Ni1 Pd2 2.695099 1_455
Ni1 Pd1 2.695099 1_565
Ni1 Pd0 2.695102 1_455
Ni1 Pd0 2.695102 1_565
Ni1 Pd2 2.695105 1_555
Ni1 Pd1 2.695105 1_555
Pd0 Pd1 2.652490 1_555
Pd0 Pd2 2.652490 1_555
Pd0 Pd4 2.717202 1_545
Pd0 Pd4 2.717202 1_546
Pd0 Pd5 2.717202 1_656
Pd0 Pd5 2.717202 1_655
Pd0 Pd1 2.737490 1_655
Pd0 Pd2 2.737490 1_545
Pd1 Pd2 2.652490 1_555
Pd1 Pd3 2.717202 1_546
Pd1 Pd3 2.717202 1_545
Pd1 Pd5 2.717202 1_555
Pd1 Pd5 2.717202 1_556
Pd1 Pd2 2.737490 1_445
Pd2 Pd3 2.717202 1_655
Pd2 Pd3 2.717202 1_656
Pd2 Pd4 2.717202 1_555
Pd2 Pd4 2.717202 1_556
Pd3 Pd5 2.652490 1_555
Pd3 Pd4 2.652490 1_555
Pd3 Pd4 2.737490 1_455
Pd3 Pd5 2.737490 1_565
Pd4 Pd5 2.652490 1_555
Pd4 Pd5 2.737490 1_665
