# generated using pymatgen
data_BaSi4O9
_symmetry_space_group_name_H-M   'P 1'
_cell_length_a   6.57940983
_cell_length_b   6.57940983
_cell_length_c   9.46998800
_cell_angle_alpha   90.00000000
_cell_angle_beta   90.00000000
_cell_angle_gamma   119.99999824
_symmetry_Int_Tables_number   1
_chemical_formula_structural   BaSi4O9
_chemical_formula_sum   'Ba2 Si8 O18'
_cell_volume   355.02092085
_cell_formula_units_Z   2
loop_
 _symmetry_equiv_pos_site_id
 _symmetry_equiv_pos_as_xyz
  1  'x, y, z'
loop_
 _atom_site_type_symbol
 _atom_site_label
 _atom_site_symmetry_multiplicity
 _atom_site_fract_x
 _atom_site_fract_y
 _atom_site_fract_z
 _atom_site_occupancy
  Ba  Ba0  1  0.66666700  0.33333300  0.50000000  1
  Ba  Ba1  1  0.66666700  0.33333300  0.00000000  1
  Si  Si0  1  0.08915200  0.78869900  0.75000000  1
  Si  Si1  1  0.21130100  0.30045300  0.75000000  1
  Si  Si2  1  0.69954700  0.91084800  0.75000000  1
  Si  Si3  1  0.69954700  0.78869900  0.25000000  1
  Si  Si4  1  0.21130100  0.91084800  0.25000000  1
  Si  Si5  1  0.08915200  0.30045300  0.25000000  1
  Si  Si6  1  0.33333300  0.66666700  0.50000000  1
  Si  Si7  1  0.33333300  0.66666700  0.00000000  1
  O  O0  1  0.55689500  0.89387400  0.60694000  1
  O  O1  1  0.10612600  0.44310500  0.39306000  1
  O  O2  1  0.10612600  0.66302100  0.60694000  1
  O  O3  1  0.33697900  0.44310500  0.60694000  1
  O  O4  1  0.10612600  0.66302100  0.89306000  1
  O  O5  1  0.33697900  0.44310500  0.89306000  1
  O  O6  1  0.55689500  0.89387400  0.89306000  1
  O  O7  1  0.33697900  0.89387400  0.10694000  1
  O  O8  1  0.55689500  0.66302100  0.10694000  1
  O  O9  1  0.55689500  0.66302100  0.39306000  1
  O  O10  1  0.92264900  0.73565700  0.25000000  1
  O  O11  1  0.81300800  0.07735100  0.25000000  1
  O  O12  1  0.26434300  0.18699200  0.25000000  1
  O  O13  1  0.26434300  0.07735100  0.75000000  1
  O  O14  1  0.81300800  0.73565700  0.75000000  1
  O  O15  1  0.92264900  0.18699200  0.75000000  1
  O  O16  1  0.10612600  0.44310500  0.10694000  1
  O  O17  1  0.33697900  0.89387400  0.39306000  1
loop_
_geom_bond_atom_site_label_1
_geom_bond_atom_site_label_2
_geom_bond_distance
_geom_bond_site_symmetry_2
Ba0 O1 2.796257 1_655
Ba0 O0 2.796257 1_545
Ba0 O2 2.796259 1_655
Ba0 O17 2.796259 1_545
Ba0 O9 2.796263 1_555
Ba0 O3 2.796263 1_555
Ba0 O11 3.315160 1_555
Ba0 O15 3.315160 1_555
Ba0 O10 3.315163 1_555
Ba0 O13 3.315163 1_555
Ba0 O12 3.315164 1_555
Ba0 O14 3.315164 1_555
Ba1 O16 2.796257 1_655
Ba1 O6 2.796257 1_544
Ba1 O7 2.796259 1_545
Ba1 O4 2.796259 1_654
Ba1 O8 2.796263 1_555
Ba1 O5 2.796263 1_554
Ba1 O15 3.315160 1_554
Ba1 O11 3.315160 1_555
Ba1 O10 3.315163 1_555
Ba1 O13 3.315163 1_554
Ba1 O12 3.315164 1_555
Ba1 O14 3.315164 1_554
O0 Si2 1.619870 1_555
O0 Si6 1.795833 1_555
O1 Si5 1.619870 1_555
O1 Si6 1.795833 1_555
O2 Si0 1.619870 1_555
O2 Si6 1.795831 1_555
O3 Si1 1.619870 1_555
O3 Si6 1.795836 1_555
O4 Si0 1.619870 1_555
O4 Si7 1.795831 1_556
O5 Si1 1.619870 1_555
O5 Si7 1.795836 1_556
O6 Si2 1.619870 1_555
O6 Si7 1.795833 1_556
O7 Si4 1.619870 1_555
O7 Si7 1.795831 1_555
O8 Si3 1.619870 1_555
O8 Si7 1.795836 1_555
O9 Si3 1.619870 1_555
O9 Si6 1.795836 1_555
O10 Si4 1.657210 1_655
O10 Si3 1.669949 1_555
O11 Si3 1.657210 1_545
O11 Si5 1.669949 1_655
O12 Si5 1.657210 1_555
O12 Si4 1.669949 1_545
O13 Si0 1.657210 1_545
O13 Si1 1.669949 1_555
O14 Si2 1.657210 1_555
O14 Si0 1.669949 1_655
O15 Si1 1.657210 1_655
O15 Si2 1.669949 1_545
O16 Si5 1.619870 1_555
O16 Si7 1.795833 1_555
O17 Si4 1.619870 1_555
O17 Si6 1.795831 1_555
