# generated using pymatgen
data_CuAgO2
_symmetry_space_group_name_H-M   'P 1'
_cell_length_a   2.81644281
_cell_length_b   3.35389257
_cell_length_c   5.40417723
_cell_angle_alpha   90.00000000
_cell_angle_beta   90.00000000
_cell_angle_gamma   90.00000000
_symmetry_Int_Tables_number   1
_chemical_formula_structural   CuAgO2
_chemical_formula_sum   'Cu1 Ag1 O2'
_cell_volume   51.04811003
_cell_formula_units_Z   1
loop_
 _symmetry_equiv_pos_site_id
 _symmetry_equiv_pos_as_xyz
  1  'x, y, z'
loop_
 _atom_site_type_symbol
 _atom_site_label
 _atom_site_symmetry_multiplicity
 _atom_site_fract_x
 _atom_site_fract_y
 _atom_site_fract_z
 _atom_site_occupancy
  Cu  Cu0  1  0.50000000  0.50000000  0.50000000  1
  Ag  Ag0  1  0.00000000  0.00000000  0.00000000  1
  O  O0  1  -0.00000000  0.50000000  0.27084978  1
  O  O1  1  -0.00000000  0.50000000  0.72915022  1
loop_
_geom_bond_atom_site_label_1
_geom_bond_atom_site_label_2
_geom_bond_distance
_geom_bond_site_symmetry_2
Cu0 O1 1.875272 1_655
Cu0 O1 1.875272 1_555
Cu0 O0 1.875272 1_655
Cu0 O0 1.875272 1_555
Ag0 O0 2.225899 1_555
Ag0 O0 2.225899 1_545
Ag0 O1 2.225899 1_544
Ag0 O1 2.225899 1_554
