# generated using pymatgen
data_Sm3Hf
_symmetry_space_group_name_H-M   'P 1'
_cell_length_a   6.01755327
_cell_length_b   6.01755327
_cell_length_c   6.01755327
_cell_angle_alpha   131.50038799
_cell_angle_beta   131.50038799
_cell_angle_gamma   71.01926363
_symmetry_Int_Tables_number   1
_chemical_formula_structural   Sm3Hf
_chemical_formula_sum   'Sm3 Hf1'
_cell_volume   119.68411657
_cell_formula_units_Z   1
loop_
 _symmetry_equiv_pos_site_id
 _symmetry_equiv_pos_as_xyz
  1  'x, y, z'
loop_
 _atom_site_type_symbol
 _atom_site_label
 _atom_site_symmetry_multiplicity
 _atom_site_fract_x
 _atom_site_fract_y
 _atom_site_fract_z
 _atom_site_occupancy
  Sm  Sm0  1  0.75000000  0.25000000  0.50000000  1
  Sm  Sm1  1  0.25000000  0.75000000  0.50000000  1
  Sm  Sm2  1  0.50000000  0.50000000  0.00000000  1
  Hf  Hf0  1  0.00000000  0.00000000  0.00000000  1
loop_
_geom_bond_atom_site_label_1
_geom_bond_atom_site_label_2
_geom_bond_distance
_geom_bond_site_symmetry_2
Sm0 Sm2 3.479498 1_555
Sm0 Sm2 3.479498 1_656
Sm0 Sm2 3.479498 1_556
Sm0 Sm2 3.479498 1_545
Sm0 Sm1 3.495234 1_656
Sm0 Sm1 3.495234 1_555
Sm0 Sm1 3.495234 1_544
Sm0 Sm1 3.495234 1_645
Sm1 Sm2 3.479498 1_566
Sm1 Sm2 3.479498 1_455
Sm1 Sm2 3.479498 1_555
Sm1 Sm2 3.479498 1_556
Hf0 Sm0 3.479498 1_555
Hf0 Sm0 3.479498 1_444
Hf0 Sm0 3.479498 1_454
Hf0 Sm1 3.479498 1_444
Hf0 Sm1 3.479498 1_544
Hf0 Sm0 3.479498 1_455
Hf0 Sm1 3.479498 1_555
Hf0 Sm1 3.479498 1_545
Hf0 Sm2 3.495234 1_444
Hf0 Sm2 3.495234 1_545
Hf0 Sm2 3.495234 1_455
Hf0 Sm2 3.495234 1_556
