# generated using pymatgen
data_LiBeSb
_symmetry_space_group_name_H-M   'P 1'
_cell_length_a   4.17242521
_cell_length_b   4.17242521
_cell_length_c   6.78078700
_cell_angle_alpha   90.00000000
_cell_angle_beta   90.00000000
_cell_angle_gamma   119.99998748
_symmetry_Int_Tables_number   1
_chemical_formula_structural   LiBeSb
_chemical_formula_sum   'Li2 Be2 Sb2'
_cell_volume   102.23224797
_cell_formula_units_Z   2
loop_
 _symmetry_equiv_pos_site_id
 _symmetry_equiv_pos_as_xyz
  1  'x, y, z'
loop_
 _atom_site_type_symbol
 _atom_site_label
 _atom_site_symmetry_multiplicity
 _atom_site_fract_x
 _atom_site_fract_y
 _atom_site_fract_z
 _atom_site_occupancy
  Li  Li0  1  0.00000000  0.00000000  0.15259800  1
  Li  Li1  1  0.00000000  0.00000000  0.65259800  1
  Be  Be0  1  0.33333300  0.66666700  0.00722600  1
  Be  Be1  1  0.66666700  0.33333300  0.50722600  1
  Sb  Sb0  1  0.33333300  0.66666700  0.39017500  1
  Sb  Sb1  1  0.66666700  0.33333300  0.89017500  1
loop_
_geom_bond_atom_site_label_1
_geom_bond_atom_site_label_2
_geom_bond_distance
_geom_bond_site_symmetry_2
Li0 Sb0 2.897968 1_545
Li0 Sb0 2.897972 1_445
Li0 Sb0 2.897972 1_555
Li0 Sb1 2.994899 1_454
Li0 Sb1 2.994902 1_444
Li0 Sb1 2.994902 1_554
Li1 Sb1 2.897968 1_455
Li1 Sb1 2.897972 1_555
Li1 Sb1 2.897972 1_445
Li1 Sb0 2.994899 1_545
Li1 Sb0 2.994902 1_445
Li1 Sb0 2.994902 1_555
Be0 Sb1 2.536334 1_454
Be0 Sb1 2.536334 1_564
Be0 Sb1 2.536340 1_554
Be0 Sb0 2.596696 1_555
Be0 Li0 2.602827 1_565
Be0 Li0 2.602831 1_555
Be0 Li0 2.602831 1_665
Be1 Sb0 2.536334 1_545
Be1 Sb0 2.536334 1_655
Be1 Sb0 2.536340 1_555
Be1 Sb1 2.596696 1_555
Be1 Li1 2.602827 1_655
Be1 Li1 2.602831 1_665
Be1 Li1 2.602831 1_555
