# generated using pymatgen
data_Pr3Er
_symmetry_space_group_name_H-M   'P 1'
_cell_length_a   5.18359198
_cell_length_b   5.18359198
_cell_length_c   5.18359198
_cell_angle_alpha   90.00000000
_cell_angle_beta   90.00000000
_cell_angle_gamma   90.00000000
_symmetry_Int_Tables_number   1
_chemical_formula_structural   Pr3Er
_chemical_formula_sum   'Pr3 Er1'
_cell_volume   139.28117688
_cell_formula_units_Z   1
loop_
 _symmetry_equiv_pos_site_id
 _symmetry_equiv_pos_as_xyz
  1  'x, y, z'
loop_
 _atom_site_type_symbol
 _atom_site_label
 _atom_site_symmetry_multiplicity
 _atom_site_fract_x
 _atom_site_fract_y
 _atom_site_fract_z
 _atom_site_occupancy
  Pr  Pr0  1  -0.00000000  0.49999900  0.49999900  1
  Pr  Pr1  1  0.49999900  0.00000000  0.49999900  1
  Pr  Pr2  1  0.49999900  0.49999900  -0.00000000  1
  Er  Er0  1  -0.00000000  0.00000000  -0.00000000  1
loop_
_geom_bond_atom_site_label_1
_geom_bond_atom_site_label_2
_geom_bond_distance
_geom_bond_site_symmetry_2
Pr0 Pr1 3.665346 1_555
Pr0 Pr2 3.665346 1_555
Pr0 Pr2 3.665353 1_556
Pr0 Pr1 3.665353 1_565
Pr0 Pr2 3.665353 1_455
Pr0 Pr1 3.665353 1_455
Pr0 Pr2 3.665360 1_456
Pr0 Pr1 3.665360 1_465
Pr1 Pr2 3.665346 1_555
Pr1 Pr2 3.665353 1_556
Pr1 Pr2 3.665353 1_545
Pr1 Pr2 3.665360 1_546
Er0 Pr1 3.665346 1_555
Er0 Pr0 3.665346 1_555
Er0 Pr2 3.665346 1_555
Er0 Pr0 3.665353 1_545
Er0 Pr0 3.665353 1_554
Er0 Pr2 3.665353 1_455
Er0 Pr1 3.665353 1_554
Er0 Pr2 3.665353 1_545
Er0 Pr1 3.665353 1_455
Er0 Pr1 3.665360 1_454
Er0 Pr0 3.665360 1_544
Er0 Pr2 3.665360 1_445
