# generated using pymatgen
data_Cs5Tl11Cd2
_symmetry_space_group_name_H-M   'P 1'
_cell_length_a   5.67275496
_cell_length_b   11.42020387
_cell_length_c   11.42020387
_cell_angle_alpha   72.37163072
_cell_angle_beta   90.00000000
_cell_angle_gamma   90.00000000
_symmetry_Int_Tables_number   1
_chemical_formula_structural   Cs5Tl11Cd2
_chemical_formula_sum   'Cs5 Tl11 Cd2'
_cell_volume   705.10411315
_cell_formula_units_Z   1
loop_
 _symmetry_equiv_pos_site_id
 _symmetry_equiv_pos_as_xyz
  1  'x, y, z'
loop_
 _atom_site_type_symbol
 _atom_site_label
 _atom_site_symmetry_multiplicity
 _atom_site_fract_x
 _atom_site_fract_y
 _atom_site_fract_z
 _atom_site_occupancy
  Cs  Cs0  1  0.00000000  0.39219273  0.22618448  1
  Cs  Cs1  1  0.49999900  0.10406460  0.51307002  1
  Cs  Cs2  1  0.00000000  0.77381552  0.60780727  1
  Cs  Cs3  1  0.00000000  0.36746604  0.63253396  1
  Cs  Cs4  1  0.49999900  0.48693098  0.89593540  1
  Tl  Tl0  1  0.49999900  0.66061546  0.14042269  1
  Tl  Tl1  1  0.49999900  0.15843689  0.14884258  1
  Tl  Tl2  1  0.00000000  0.71969330  0.28030570  1
  Tl  Tl3  1  0.00000000  0.02330213  0.28607819  1
  Tl  Tl4  1  0.49999900  0.85957731  0.33938454  1
  Tl  Tl5  1  0.49999900  0.57151741  0.42848259  1
  Tl  Tl6  1  0.00000000  0.01380811  0.79359753  1
  Tl  Tl7  1  0.49999900  0.15847468  0.84152432  1
  Tl  Tl8  1  0.49999900  0.85115742  0.84156311  1
  Tl  Tl9  1  0.00000000  0.71392081  0.97669787  1
  Tl  Tl10  1  0.00000000  0.20640247  0.98619189  1
  Cd  Cd0  1  0.25047594  0.93786256  0.06213744  1
  Cd  Cd1  1  0.74952306  0.93786256  0.06213744  1
loop_
_geom_bond_atom_site_label_1
_geom_bond_atom_site_label_2
_geom_bond_distance
_geom_bond_site_symmetry_2
Cs0 Tl9 3.908584 1_554
Cs0 Tl10 3.941557 1_554
Cs0 Tl2 3.971232 1_555
Cs0 Tl3 4.058359 1_555
Cs0 Tl0 4.072189 1_555
Cs0 Tl0 4.072197 1_455
Cs0 Tl1 4.168901 1_555
Cs0 Tl1 4.168909 1_455
Cs0 Tl5 4.521292 1_555
Cs0 Tl5 4.521299 1_455
Cs0 Cs3 4.563020 1_555
Cs0 Cs4 4.579124 1_554
Cs0 Cs4 4.579131 1_454
Cs0 Cs1 4.803826 1_555
Cs0 Cs1 4.803833 1_455
Cs1 Tl4 3.883883 1_545
Cs1 Tl8 3.981552 1_545
Cs1 Tl7 3.983458 1_555
Cs1 Tl1 4.015352 1_555
Cs1 Tl3 4.130838 1_555
Cs1 Tl3 4.130845 1_655
Cs1 Tl6 4.167846 1_555
Cs1 Tl6 4.167854 1_655
Cs1 Cs2 4.579124 1_545
Cs1 Cs2 4.579132 1_645
Cs1 Cs3 4.630408 1_555
Cs1 Cs3 4.630415 1_655
Cs2 Tl3 3.908592 1_565
Cs2 Tl6 3.941557 1_565
Cs2 Tl2 3.971248 1_555
Cs2 Tl9 4.058357 1_555
Cs2 Tl4 4.072189 1_555
Cs2 Tl4 4.072197 1_455
Cs2 Tl8 4.168901 1_555
Cs2 Tl8 4.168909 1_455
Cs2 Tl5 4.521292 1_555
Cs2 Tl5 4.521299 1_455
Cs2 Cs3 4.563020 1_555
Cs2 Cs4 4.803820 1_555
Cs2 Cs4 4.803827 1_455
Cs3 Tl10 3.898203 1_555
Cs3 Tl6 3.898203 1_555
Cs3 Tl5 3.951786 1_555
Cs3 Tl5 3.951794 1_455
Cs3 Tl7 3.998452 1_555
Cs3 Tl7 3.998461 1_455
Cs3 Cs4 4.630414 1_555
Cs3 Cs4 4.630421 1_455
Cs4 Tl0 3.883875 1_556
Cs4 Tl1 3.981561 1_556
Cs4 Tl7 3.983486 1_555
Cs4 Tl8 4.015341 1_555
Cs4 Tl9 4.130822 1_555
Cs4 Tl9 4.130829 1_655
Cs4 Tl10 4.167854 1_555
Cs4 Tl10 4.167862 1_655
Tl0 Tl5 3.135293 1_555
Tl0 Tl9 3.349959 1_554
Tl0 Tl9 3.349968 1_654
Tl0 Tl2 3.421255 1_555
Tl0 Tl2 3.421264 1_655
Tl0 Tl8 3.447549 1_554
Tl1 Tl10 3.343517 1_554
Tl1 Tl10 3.343526 1_654
Tl1 Tl3 3.379055 1_555
Tl1 Tl3 3.379064 1_655
Tl1 Tl4 3.447549 1_545
Tl1 Tl7 3.509507 1_554
Tl2 Tl4 3.421265 1_555
Tl2 Tl4 3.421274 1_455
Tl2 Tl5 3.469540 1_555
Tl2 Tl5 3.469549 1_455
Tl2 Tl9 3.487793 1_554
Tl2 Tl3 3.487805 1_565
Tl3 Tl4 3.349959 1_545
Tl3 Tl4 3.349968 1_445
Tl4 Tl5 3.135293 1_555
Tl6 Tl8 3.343517 1_545
Tl6 Tl8 3.343526 1_445
Tl6 Tl7 3.409073 1_555
Tl6 Tl7 3.409083 1_455
Tl6 Tl9 3.429873 1_545
Tl7 Tl8 3.509492 1_545
Tl8 Tl9 3.379058 1_555
Tl8 Tl9 3.379068 1_655
Tl10 Tl7 3.409083 1_555
Tl10 Tl7 3.409093 1_455
Tl10 Tl3 3.429863 1_556
Tl10 Tl6 3.550408 1_555
Cd0 Cd1 2.830972 1_555
Cd0 Cd1 2.841783 1_455
Cd0 Tl10 3.250426 1_564
Cd0 Tl6 3.250426 1_564
Cd0 Tl2 3.267180 1_555
Cd0 Tl8 3.292446 1_554
Cd0 Tl1 3.292446 1_565
Cd0 Tl7 3.294561 1_564
Cd0 Tl3 3.320084 1_565
Cd0 Tl9 3.320093 1_554
Cd0 Tl0 3.333664 1_555
Cd0 Tl4 3.333664 1_555
Cd1 Tl10 3.250428 1_664
Cd1 Tl6 3.250428 1_664
Cd1 Tl2 3.267182 1_655
Cd1 Tl8 3.292449 1_554
Cd1 Tl1 3.292449 1_565
Cd1 Tl7 3.294563 1_564
Cd1 Tl3 3.320086 1_665
Cd1 Tl9 3.320096 1_654
Cd1 Tl0 3.333666 1_555
Cd1 Tl4 3.333666 1_555
