# generated using pymatgen
data_LaVN3
_symmetry_space_group_name_H-M   'P 1'
_cell_length_a   3.62958300
_cell_length_b   6.02494145
_cell_length_c   6.32877564
_cell_angle_alpha   106.96251734
_cell_angle_beta   96.41196281
_cell_angle_gamma   90.83803040
_symmetry_Int_Tables_number   1
_chemical_formula_structural   LaVN3
_chemical_formula_sum   'La2 V2 N6'
_cell_volume   131.38653391
_cell_formula_units_Z   2
loop_
 _symmetry_equiv_pos_site_id
 _symmetry_equiv_pos_as_xyz
  1  'x, y, z'
loop_
 _atom_site_type_symbol
 _atom_site_label
 _atom_site_symmetry_multiplicity
 _atom_site_fract_x
 _atom_site_fract_y
 _atom_site_fract_z
 _atom_site_occupancy
  La  La0  1  0.55135600  0.78920100  0.27069800  1
  La  La1  1  0.62554700  0.33256800  0.72800800  1
  V  V0  1  0.14797200  0.81770000  0.75254500  1
  V  V1  1  0.07663700  0.28821900  0.25220900  1
  N  N0  1  0.96990700  0.94693800  0.05007500  1
  N  N1  1  0.67743300  0.83483000  0.88687500  1
  N  N2  1  0.06559000  0.46792300  0.08091600  1
  N  N3  1  0.55330200  0.22184800  0.31089700  1
  N  N4  1  0.10674800  0.52384600  0.56467100  1
  N  N5  1  0.11051800  0.00177600  0.58456700  1
loop_
_geom_bond_atom_site_label_1
_geom_bond_atom_site_label_2
_geom_bond_distance
_geom_bond_site_symmetry_2
La0 N0 2.523178 1_555
La0 N2 2.523628 1_555
La0 N3 2.543939 1_565
La0 N1 2.611494 1_554
La0 N5 2.691501 1_665
La0 N5 2.726115 1_565
La0 N0 2.735214 1_455
La0 N2 2.814772 1_655
La1 N4 2.503260 1_555
La1 N3 2.509000 1_555
La1 N2 2.511332 1_656
La1 N4 2.546892 1_655
La1 N5 2.597481 1_555
La1 N5 2.701567 1_655
La1 N1 2.892988 1_555
La1 N2 3.127896 1_556
N0 N1 1.406055 1_554
N0 V0 2.000179 1_654
N0 V1 2.084638 1_665
N1 V0 1.982028 1_655
N1 V0 2.001129 1_555
N2 V1 1.739398 1_555
N3 V1 1.804013 1_555
N3 V1 2.031733 1_655
N4 V0 1.815173 1_555
N4 V1 2.060816 1_555
N5 V0 1.743192 1_545
