# generated using pymatgen
data_PrVGe3
_symmetry_space_group_name_H-M   'P 1'
_cell_length_a   6.23430393
_cell_length_b   6.23420814
_cell_length_c   5.77359175
_cell_angle_alpha   90.00000051
_cell_angle_beta   90.00000219
_cell_angle_gamma   119.99943032
_symmetry_Int_Tables_number   1
_chemical_formula_structural   PrVGe3
_chemical_formula_sum   'Pr2 V2 Ge6'
_cell_volume   194.33385470
_cell_formula_units_Z   2
loop_
 _symmetry_equiv_pos_site_id
 _symmetry_equiv_pos_as_xyz
  1  'x, y, z'
loop_
 _atom_site_type_symbol
 _atom_site_label
 _atom_site_symmetry_multiplicity
 _atom_site_fract_x
 _atom_site_fract_y
 _atom_site_fract_z
 _atom_site_occupancy
  Pr  Pr0  1  0.66666899  0.33333866  0.24998810  1
  Pr  Pr1  1  0.33333065  0.66666075  0.75001090  1
  V  V0  1  -0.00000018  -0.00000001  -0.00000009  1
  V  V1  1  -0.00000004  0.00000000  0.49999930  1
  Ge  Ge0  1  0.19713853  0.39427971  0.25002741  1
  Ge  Ge1  1  0.19714757  0.80285714  0.25002765  1
  Ge  Ge2  1  0.60571121  0.80285944  0.25002779  1
  Ge  Ge3  1  0.39428858  0.19714046  0.74997147  1
  Ge  Ge4  1  0.80285205  0.19714240  0.74997162  1
  Ge  Ge5  1  0.80286164  0.60572046  0.74997185  1
loop_
_geom_bond_atom_site_label_1
_geom_bond_atom_site_label_2
_geom_bond_distance
_geom_bond_site_symmetry_2
Ge0 Ge1 2.547129 1_555
Ge0 Ge2 2.547191 1_555
Ge0 V1 2.571845 1_555
Ge0 V0 2.572025 1_555
Ge0 Pr0 3.134468 1_555
Ge0 Pr0 3.134468 1_455
Ge0 Pr1 3.239702 1_555
Ge0 Pr1 3.239872 1_554
Ge1 Ge2 2.547103 1_555
Ge1 V1 2.571890 1_565
Ge1 V0 2.572073 1_565
Ge1 Pr0 3.134479 1_455
Ge1 Pr0 3.134485 1_565
Ge1 Pr1 3.239697 1_555
Ge1 Pr1 3.239869 1_554
Ge2 V1 2.571911 1_665
Ge2 V0 2.572093 1_665
Ge2 Pr0 3.134428 1_555
Ge2 Pr0 3.134433 1_565
Ge2 Pr1 3.239710 1_555
Ge2 Pr1 3.239883 1_554
Ge3 Ge4 2.547103 1_555
Ge3 Ge5 2.547193 1_555
Ge3 V1 2.571912 1_555
Ge3 V0 2.572095 1_556
Ge3 Pr1 3.134426 1_555
Ge3 Pr1 3.134436 1_545
Ge3 Pr0 3.239711 1_555
Ge3 Pr0 3.239882 1_556
Ge4 Ge5 2.547131 1_555
Ge4 V1 2.571892 1_655
Ge4 V0 2.572072 1_656
Ge4 Pr1 3.134478 1_655
Ge4 Pr1 3.134486 1_545
Ge4 Pr0 3.239698 1_555
Ge4 Pr0 3.239867 1_556
Ge5 V1 2.571846 1_665
Ge5 V0 2.572026 1_666
Ge5 Pr1 3.134467 1_655
Ge5 Pr1 3.134469 1_555
Ge5 Pr0 3.239706 1_555
Ge5 Pr0 3.239873 1_556
