# generated using pymatgen
data_TiAu
_symmetry_space_group_name_H-M   'P 1'
_cell_length_a   6.64452436
_cell_length_b   6.64452436
_cell_length_c   12.20584392
_cell_angle_alpha   90.00000000
_cell_angle_beta   90.00000000
_cell_angle_gamma   90.00000000
_symmetry_Int_Tables_number   1
_chemical_formula_structural   TiAu
_chemical_formula_sum   'Ti16 Au16'
_cell_volume   538.88439578
_cell_formula_units_Z   16
loop_
 _symmetry_equiv_pos_site_id
 _symmetry_equiv_pos_as_xyz
  1  'x, y, z'
loop_
 _atom_site_type_symbol
 _atom_site_label
 _atom_site_symmetry_multiplicity
 _atom_site_fract_x
 _atom_site_fract_y
 _atom_site_fract_z
 _atom_site_occupancy
  Ti  Ti0_0  1  0.37500000  0.37500000  0.43224943  1
  Ti  Ti0_1  1  0.37500000  0.37500000  0.93224943  1
  Ti  Ti0_2  1  0.37500000  0.87500000  0.43224943  1
  Ti  Ti0_3  1  0.37500000  0.87500000  0.93224943  1
  Ti  Ti0_4  1  0.87500000  0.37500000  0.43224943  1
  Ti  Ti0_5  1  0.87500000  0.37500000  0.93224943  1
  Ti  Ti0_6  1  0.87500000  0.87500000  0.43224943  1
  Ti  Ti0_7  1  0.87500000  0.87500000  0.93224943  1
  Ti  Ti1_0  1  0.12500000  0.12500000  0.06775058  1
  Ti  Ti1_1  1  0.12500000  0.12500000  0.56775058  1
  Ti  Ti1_2  1  0.12500000  0.62500000  0.06775058  1
  Ti  Ti1_3  1  0.12500000  0.62500000  0.56775058  1
  Ti  Ti1_4  1  0.62500000  0.12500000  0.06775058  1
  Ti  Ti1_5  1  0.62500000  0.12500000  0.56775058  1
  Ti  Ti1_6  1  0.62500000  0.62500000  0.06775058  1
  Ti  Ti1_7  1  0.62500000  0.62500000  0.56775058  1
  Au  Au0_0  1  0.37500000  0.37500000  0.18017243  1
  Au  Au0_1  1  0.37500000  0.37500000  0.68017243  1
  Au  Au0_2  1  0.37500000  0.87500000  0.18017243  1
  Au  Au0_3  1  0.37500000  0.87500000  0.68017243  1
  Au  Au0_4  1  0.87500000  0.37500000  0.18017243  1
  Au  Au0_5  1  0.87500000  0.37500000  0.68017243  1
  Au  Au0_6  1  0.87500000  0.87500000  0.18017243  1
  Au  Au0_7  1  0.87500000  0.87500000  0.68017243  1
  Au  Au1_0  1  0.12500000  0.12500000  0.31982758  1
  Au  Au1_1  1  0.12500000  0.12500000  0.81982758  1
  Au  Au1_2  1  0.12500000  0.62500000  0.31982758  1
  Au  Au1_3  1  0.12500000  0.62500000  0.81982758  1
  Au  Au1_4  1  0.62500000  0.12500000  0.31982758  1
  Au  Au1_5  1  0.62500000  0.12500000  0.81982758  1
  Au  Au1_6  1  0.62500000  0.62500000  0.31982758  1
  Au  Au1_7  1  0.62500000  0.62500000  0.81982758  1
loop_
_geom_bond_atom_site_label_1
_geom_bond_atom_site_label_2
_geom_bond_distance
_geom_bond_site_symmetry_2
Ti0_0 Ti1_7 2.872998 1_555
Ti0_0 Ti1_5 2.872998 1_555
Ti0_0 Ti1_3 2.872998 1_555
Ti0_0 Ti1_1 2.872998 1_555
Ti0_0 Ti0_2 3.322262 1_555
Ti0_0 Ti0_4 3.322262 1_555
Ti0_0 Ti0_4 3.322262 1_455
Ti0_0 Ti0_2 3.322262 1_545
Ti0_1 Ti1_6 2.872998 1_556
Ti0_1 Ti1_2 2.872998 1_556
Ti0_1 Ti1_4 2.872998 1_556
Ti0_1 Ti1_0 2.872998 1_556
Ti0_1 Ti0_5 3.322262 1_555
Ti0_1 Ti0_3 3.322262 1_555
Ti0_1 Ti0_5 3.322262 1_455
Ti0_1 Ti0_3 3.322262 1_545
Ti0_2 Ti1_7 2.872998 1_555
Ti0_2 Ti1_5 2.872998 1_565
Ti0_2 Ti1_3 2.872998 1_555
Ti0_2 Ti1_1 2.872998 1_565
Ti0_2 Ti0_6 3.322262 1_555
Ti0_2 Ti0_6 3.322262 1_455
Ti0_3 Ti1_6 2.872998 1_556
Ti0_3 Ti1_4 2.872998 1_566
Ti0_3 Ti1_2 2.872998 1_556
Ti0_3 Ti1_0 2.872998 1_566
Ti0_3 Ti0_7 3.322262 1_555
Ti0_3 Ti0_7 3.322262 1_455
Ti0_4 Ti1_7 2.872998 1_555
Ti0_4 Ti1_3 2.872998 1_655
Ti0_4 Ti1_1 2.872998 1_655
Ti0_4 Ti1_5 2.872998 1_555
Ti0_4 Ti0_6 3.322262 1_555
Ti0_4 Ti0_6 3.322262 1_545
Ti0_5 Ti1_6 2.872998 1_556
Ti0_5 Ti1_2 2.872998 1_656
Ti0_5 Ti1_0 2.872998 1_656
Ti0_5 Ti1_4 2.872998 1_556
Ti0_5 Ti0_7 3.322262 1_555
Ti0_5 Ti0_7 3.322262 1_545
Ti0_6 Ti1_7 2.872998 1_555
Ti0_6 Ti1_3 2.872998 1_655
Ti0_6 Ti1_5 2.872998 1_565
Ti0_6 Ti1_1 2.872998 1_665
Ti0_7 Ti1_4 2.872998 1_566
Ti0_7 Ti1_0 2.872998 1_666
Ti0_7 Ti1_6 2.872998 1_556
Ti0_7 Ti1_2 2.872998 1_656
Ti1_0 Ti1_4 3.322262 1_555
Ti1_0 Ti1_2 3.322262 1_545
Ti1_0 Ti1_2 3.322262 1_555
Ti1_0 Ti1_4 3.322262 1_455
Ti1_1 Ti1_5 3.322262 1_455
Ti1_1 Ti1_3 3.322262 1_545
Ti1_1 Ti1_5 3.322262 1_555
Ti1_1 Ti1_3 3.322262 1_555
Ti1_2 Ti1_6 3.322262 1_455
Ti1_2 Ti1_6 3.322262 1_555
Ti1_3 Ti1_7 3.322262 1_455
Ti1_3 Ti1_7 3.322262 1_555
Ti1_4 Ti1_6 3.322262 1_545
Ti1_4 Ti1_6 3.322262 1_555
Ti1_5 Ti1_7 3.322262 1_545
Ti1_5 Ti1_7 3.322262 1_555
Au0_0 Ti1_6 2.720598 1_555
Au0_0 Ti1_4 2.720598 1_555
Au0_0 Ti1_2 2.720598 1_555
Au0_0 Ti1_0 2.720598 1_555
Au0_0 Au1_6 2.902483 1_555
Au0_0 Au1_4 2.902483 1_555
Au0_0 Au1_2 2.902483 1_555
Au0_0 Au1_0 2.902483 1_555
Au0_0 Ti0_1 3.026109 1_554
Au0_0 Ti0_0 3.076813 1_555
Au0_1 Ti1_7 2.720598 1_555
Au0_1 Ti1_5 2.720598 1_555
Au0_1 Ti1_3 2.720598 1_555
Au0_1 Ti1_1 2.720598 1_555
Au0_1 Au1_7 2.902483 1_555
Au0_1 Au1_5 2.902483 1_555
Au0_1 Au1_3 2.902483 1_555
Au0_1 Au1_1 2.902483 1_555
Au0_1 Ti0_0 3.026109 1_555
Au0_1 Ti0_1 3.076813 1_555
Au0_2 Ti1_6 2.720598 1_555
Au0_2 Ti1_4 2.720598 1_565
Au0_2 Ti1_2 2.720598 1_555
Au0_2 Ti1_0 2.720598 1_565
Au0_2 Au1_6 2.902483 1_555
Au0_2 Au1_0 2.902483 1_565
Au0_2 Au1_4 2.902483 1_565
Au0_2 Au1_2 2.902483 1_555
Au0_2 Ti0_3 3.026109 1_554
Au0_2 Ti0_2 3.076813 1_555
Au0_3 Ti1_7 2.720598 1_555
Au0_3 Ti1_5 2.720598 1_565
Au0_3 Ti1_3 2.720598 1_555
Au0_3 Ti1_1 2.720598 1_565
Au0_3 Au1_7 2.902483 1_555
Au0_3 Au1_5 2.902483 1_565
Au0_3 Au1_1 2.902483 1_565
Au0_3 Au1_3 2.902483 1_555
Au0_3 Ti0_2 3.026109 1_555
Au0_3 Ti0_3 3.076813 1_555
Au0_4 Ti1_6 2.720598 1_555
Au0_4 Ti1_2 2.720598 1_655
Au0_4 Ti1_0 2.720598 1_655
Au0_4 Ti1_4 2.720598 1_555
Au0_4 Au1_2 2.902483 1_655
Au0_4 Au1_6 2.902483 1_555
Au0_4 Au1_0 2.902483 1_655
Au0_4 Au1_4 2.902483 1_555
Au0_4 Ti0_5 3.026109 1_554
Au0_4 Ti0_4 3.076813 1_555
Au0_5 Ti1_7 2.720598 1_555
Au0_5 Ti1_3 2.720598 1_655
Au0_5 Ti1_1 2.720598 1_655
Au0_5 Ti1_5 2.720598 1_555
Au0_5 Au1_3 2.902483 1_655
Au0_5 Au1_7 2.902483 1_555
Au0_5 Au1_5 2.902483 1_555
Au0_5 Au1_1 2.902483 1_655
Au0_5 Ti0_4 3.026109 1_555
Au0_5 Ti0_5 3.076813 1_555
Au0_6 Ti1_0 2.720598 1_665
Au0_6 Ti1_6 2.720598 1_555
Au0_6 Ti1_2 2.720598 1_655
Au0_6 Ti1_4 2.720598 1_565
Au0_6 Au1_2 2.902483 1_655
Au0_6 Au1_6 2.902483 1_555
Au0_6 Au1_0 2.902483 1_665
Au0_6 Au1_4 2.902483 1_565
Au0_6 Ti0_7 3.026109 1_554
Au0_6 Ti0_6 3.076813 1_555
Au0_7 Ti1_7 2.720598 1_555
Au0_7 Ti1_3 2.720598 1_655
Au0_7 Ti1_5 2.720598 1_565
Au0_7 Ti1_1 2.720598 1_665
Au0_7 Au1_3 2.902483 1_655
Au0_7 Au1_5 2.902483 1_565
Au0_7 Au1_7 2.902483 1_555
Au0_7 Au1_1 2.902483 1_665
Au0_7 Ti0_6 3.026109 1_555
Au0_7 Ti0_7 3.076813 1_555
Au1_0 Ti0_6 2.720598 1_445
Au1_0 Ti0_2 2.720598 1_545
Au1_0 Ti0_4 2.720598 1_455
Au1_0 Ti0_0 2.720598 1_555
Au1_0 Ti1_1 3.026109 1_555
Au1_0 Ti1_0 3.076813 1_555
Au1_1 Ti0_7 2.720598 1_445
Au1_1 Ti0_1 2.720598 1_555
Au1_1 Ti0_5 2.720598 1_455
Au1_1 Ti0_3 2.720598 1_545
Au1_1 Ti1_0 3.026109 1_556
Au1_1 Ti1_1 3.076813 1_555
Au1_2 Ti0_0 2.720598 1_555
Au1_2 Ti0_4 2.720598 1_455
Au1_2 Ti0_6 2.720598 1_455
Au1_2 Ti0_2 2.720598 1_555
Au1_2 Ti1_3 3.026109 1_555
Au1_2 Ti1_2 3.076813 1_555
Au1_3 Ti0_7 2.720598 1_455
Au1_3 Ti0_5 2.720598 1_455
Au1_3 Ti0_1 2.720598 1_555
Au1_3 Ti0_3 2.720598 1_555
Au1_3 Ti1_2 3.026109 1_556
Au1_3 Ti1_3 3.076813 1_555
Au1_4 Ti0_0 2.720598 1_555
Au1_4 Ti0_2 2.720598 1_545
Au1_4 Ti0_6 2.720598 1_545
Au1_4 Ti0_4 2.720598 1_555
Au1_4 Ti1_5 3.026109 1_555
Au1_4 Ti1_4 3.076813 1_555
Au1_5 Ti0_3 2.720598 1_545
Au1_5 Ti0_1 2.720598 1_555
Au1_5 Ti0_7 2.720598 1_545
Au1_5 Ti0_5 2.720598 1_555
Au1_5 Ti1_4 3.026109 1_556
Au1_5 Ti1_5 3.076813 1_555
Au1_6 Ti0_0 2.720598 1_555
Au1_6 Ti0_4 2.720598 1_555
Au1_6 Ti0_6 2.720598 1_555
Au1_6 Ti0_2 2.720598 1_555
Au1_6 Ti1_7 3.026109 1_555
Au1_6 Ti1_6 3.076813 1_555
Au1_7 Ti0_1 2.720598 1_555
Au1_7 Ti0_3 2.720598 1_555
Au1_7 Ti0_7 2.720598 1_555
Au1_7 Ti0_5 2.720598 1_555
Au1_7 Ti1_6 3.026109 1_556
Au1_7 Ti1_7 3.076813 1_555
