# generated using pymatgen
data_Cu
_symmetry_space_group_name_H-M   'P 1'
_cell_length_a   5.06152830
_cell_length_b   5.06152781
_cell_length_c   16.52363016
_cell_angle_alpha   90.00000000
_cell_angle_beta   90.00000000
_cell_angle_gamma   120.00002950
_symmetry_Int_Tables_number   1
_chemical_formula_structural   Cu
_chemical_formula_sum   Cu32
_cell_volume   366.60574378
_cell_formula_units_Z   32
loop_
 _symmetry_equiv_pos_site_id
 _symmetry_equiv_pos_as_xyz
  1  'x, y, z'
loop_
 _atom_site_type_symbol
 _atom_site_label
 _atom_site_symmetry_multiplicity
 _atom_site_fract_x
 _atom_site_fract_y
 _atom_site_fract_z
 _atom_site_occupancy
  Cu  Cu0_0  1  0.00000000  0.00000000  0.00000000  1
  Cu  Cu0_1  1  0.00000000  0.00000000  0.50000000  1
  Cu  Cu0_2  1  0.00000000  0.50000000  0.00000000  1
  Cu  Cu0_3  1  0.00000000  0.50000000  0.50000000  1
  Cu  Cu0_4  1  0.50000000  0.00000000  0.00000000  1
  Cu  Cu0_5  1  0.50000000  0.00000000  0.50000000  1
  Cu  Cu0_6  1  0.50000000  0.50000000  0.00000000  1
  Cu  Cu0_7  1  0.50000000  0.50000000  0.50000000  1
  Cu  Cu1_0  1  0.16666700  0.33333350  0.12500050  1
  Cu  Cu1_1  1  0.16666700  0.33333350  0.62500050  1
  Cu  Cu1_2  1  0.16666700  0.83333350  0.12500050  1
  Cu  Cu1_3  1  0.16666700  0.83333350  0.62500050  1
  Cu  Cu1_4  1  0.66666700  0.33333350  0.12500050  1
  Cu  Cu1_5  1  0.66666700  0.33333350  0.62500050  1
  Cu  Cu1_6  1  0.66666700  0.83333350  0.12500050  1
  Cu  Cu1_7  1  0.66666700  0.83333350  0.62500050  1
  Cu  Cu2_0  1  0.00000000  0.00000000  0.25000000  1
  Cu  Cu2_1  1  0.00000000  0.00000000  0.75000000  1
  Cu  Cu2_2  1  0.00000000  0.50000000  0.25000000  1
  Cu  Cu2_3  1  0.00000000  0.50000000  0.75000000  1
  Cu  Cu2_4  1  0.50000000  0.00000000  0.25000000  1
  Cu  Cu2_5  1  0.50000000  0.00000000  0.75000000  1
  Cu  Cu2_6  1  0.50000000  0.50000000  0.25000000  1
  Cu  Cu2_7  1  0.50000000  0.50000000  0.75000000  1
  Cu  Cu3_0  1  0.33333300  0.16666700  0.37500050  1
  Cu  Cu3_1  1  0.33333300  0.16666700  0.87500050  1
  Cu  Cu3_2  1  0.33333300  0.66666700  0.37500050  1
  Cu  Cu3_3  1  0.33333300  0.66666700  0.87500050  1
  Cu  Cu3_4  1  0.83333300  0.16666700  0.37500050  1
  Cu  Cu3_5  1  0.83333300  0.16666700  0.87500050  1
  Cu  Cu3_6  1  0.83333300  0.66666700  0.37500050  1
  Cu  Cu3_7  1  0.83333300  0.66666700  0.87500050  1
loop_
_geom_bond_atom_site_label_1
_geom_bond_atom_site_label_2
_geom_bond_distance
_geom_bond_site_symmetry_2
Cu0_0 Cu3_7 2.530016 1_444
Cu0_0 Cu3_1 2.530016 1_554
Cu0_0 Cu3_5 2.530019 1_454
Cu0_0 Cu1_6 2.530030 1_445
Cu0_0 Cu1_0 2.530031 1_555
Cu0_0 Cu1_2 2.530031 1_545
Cu0_0 Cu0_6 2.530763 1_555
Cu0_0 Cu0_6 2.530763 1_445
Cu0_0 Cu0_2 2.530764 1_545
Cu0_0 Cu0_2 2.530764 1_555
Cu0_0 Cu0_4 2.530764 1_555
Cu0_0 Cu0_4 2.530764 1_455
Cu0_1 Cu3_6 2.530016 1_445
Cu0_1 Cu3_0 2.530016 1_555
Cu0_1 Cu3_4 2.530019 1_455
Cu0_1 Cu1_7 2.530030 1_445
Cu0_1 Cu1_1 2.530031 1_555
Cu0_1 Cu1_3 2.530031 1_545
Cu0_1 Cu0_7 2.530763 1_555
Cu0_1 Cu0_7 2.530763 1_445
Cu0_1 Cu0_3 2.530764 1_545
Cu0_1 Cu0_3 2.530764 1_555
Cu0_1 Cu0_5 2.530764 1_555
Cu0_1 Cu0_5 2.530764 1_455
Cu0_2 Cu3_5 2.530016 1_454
Cu0_2 Cu3_3 2.530016 1_554
Cu0_2 Cu3_7 2.530019 1_454
Cu0_2 Cu1_4 2.530030 1_455
Cu0_2 Cu1_2 2.530031 1_555
Cu0_2 Cu1_0 2.530031 1_555
Cu0_2 Cu0_4 2.530763 1_565
Cu0_2 Cu0_4 2.530763 1_455
Cu0_2 Cu0_6 2.530764 1_555
Cu0_2 Cu0_6 2.530764 1_455
Cu0_3 Cu3_4 2.530016 1_455
Cu0_3 Cu3_2 2.530016 1_555
Cu0_3 Cu3_6 2.530019 1_455
Cu0_3 Cu1_5 2.530030 1_455
Cu0_3 Cu1_3 2.530031 1_555
Cu0_3 Cu1_1 2.530031 1_555
Cu0_3 Cu0_5 2.530763 1_565
Cu0_3 Cu0_5 2.530763 1_455
Cu0_3 Cu0_7 2.530764 1_555
Cu0_3 Cu0_7 2.530764 1_455
Cu0_4 Cu3_3 2.530016 1_544
Cu0_4 Cu3_5 2.530016 1_554
Cu0_4 Cu3_1 2.530019 1_554
Cu0_4 Cu1_2 2.530030 1_545
Cu0_4 Cu1_4 2.530031 1_555
Cu0_4 Cu1_6 2.530031 1_545
Cu0_4 Cu0_6 2.530764 1_545
Cu0_4 Cu0_6 2.530764 1_555
Cu0_5 Cu3_2 2.530016 1_545
Cu0_5 Cu3_4 2.530016 1_555
Cu0_5 Cu3_0 2.530019 1_555
Cu0_5 Cu1_3 2.530030 1_545
Cu0_5 Cu1_5 2.530031 1_555
Cu0_5 Cu1_7 2.530031 1_545
Cu0_5 Cu0_7 2.530764 1_545
Cu0_5 Cu0_7 2.530764 1_555
Cu0_6 Cu3_1 2.530016 1_554
Cu0_6 Cu3_7 2.530016 1_554
Cu0_6 Cu3_3 2.530019 1_554
Cu0_6 Cu1_0 2.530030 1_555
Cu0_6 Cu1_6 2.530031 1_555
Cu0_6 Cu1_4 2.530031 1_555
Cu0_7 Cu3_0 2.530016 1_555
Cu0_7 Cu3_6 2.530016 1_555
Cu0_7 Cu3_2 2.530019 1_555
Cu0_7 Cu1_1 2.530030 1_555
Cu0_7 Cu1_7 2.530031 1_555
Cu0_7 Cu1_5 2.530031 1_555
Cu1_0 Cu2_6 2.530016 1_555
Cu1_0 Cu2_0 2.530017 1_555
Cu1_0 Cu2_2 2.530018 1_555
Cu1_0 Cu1_6 2.530763 1_555
Cu1_0 Cu1_6 2.530763 1_445
Cu1_0 Cu1_2 2.530764 1_555
Cu1_0 Cu1_2 2.530764 1_545
Cu1_0 Cu1_4 2.530764 1_455
Cu1_0 Cu1_4 2.530764 1_555
Cu1_1 Cu2_7 2.530016 1_555
Cu1_1 Cu2_1 2.530017 1_555
Cu1_1 Cu2_3 2.530018 1_555
Cu1_1 Cu1_7 2.530763 1_555
Cu1_1 Cu1_7 2.530763 1_445
Cu1_1 Cu1_3 2.530764 1_555
Cu1_1 Cu1_3 2.530764 1_545
Cu1_1 Cu1_5 2.530764 1_555
Cu1_1 Cu1_5 2.530764 1_455
Cu1_2 Cu2_4 2.530016 1_565
Cu1_2 Cu2_2 2.530017 1_555
Cu1_2 Cu2_0 2.530018 1_565
Cu1_2 Cu1_4 2.530763 1_455
Cu1_2 Cu1_4 2.530763 1_565
Cu1_2 Cu1_6 2.530764 1_555
Cu1_2 Cu1_6 2.530764 1_455
Cu1_3 Cu2_5 2.530016 1_565
Cu1_3 Cu2_3 2.530017 1_555
Cu1_3 Cu2_1 2.530018 1_565
Cu1_3 Cu1_5 2.530763 1_455
Cu1_3 Cu1_5 2.530763 1_565
Cu1_3 Cu1_7 2.530764 1_555
Cu1_3 Cu1_7 2.530764 1_455
Cu1_4 Cu2_2 2.530016 1_655
Cu1_4 Cu2_4 2.530017 1_555
Cu1_4 Cu2_6 2.530018 1_555
Cu1_4 Cu1_6 2.530764 1_555
Cu1_4 Cu1_6 2.530764 1_545
Cu1_5 Cu2_3 2.530016 1_655
Cu1_5 Cu2_5 2.530017 1_555
Cu1_5 Cu2_7 2.530018 1_555
Cu1_5 Cu1_7 2.530764 1_555
Cu1_5 Cu1_7 2.530764 1_545
Cu1_6 Cu2_0 2.530016 1_665
Cu1_6 Cu2_6 2.530017 1_555
Cu1_6 Cu2_4 2.530018 1_565
Cu1_7 Cu2_1 2.530016 1_665
Cu1_7 Cu2_7 2.530017 1_555
Cu1_7 Cu2_5 2.530018 1_565
Cu2_0 Cu3_6 2.530030 1_445
Cu2_0 Cu3_0 2.530030 1_555
Cu2_0 Cu3_4 2.530033 1_455
Cu2_0 Cu2_6 2.530763 1_555
Cu2_0 Cu2_6 2.530763 1_445
Cu2_0 Cu2_2 2.530764 1_555
Cu2_0 Cu2_2 2.530764 1_545
Cu2_0 Cu2_4 2.530764 1_455
Cu2_0 Cu2_4 2.530764 1_555
Cu2_1 Cu3_7 2.530030 1_445
Cu2_1 Cu3_1 2.530030 1_555
Cu2_1 Cu3_5 2.530033 1_455
Cu2_1 Cu2_7 2.530763 1_555
Cu2_1 Cu2_7 2.530763 1_445
Cu2_1 Cu2_3 2.530764 1_555
Cu2_1 Cu2_3 2.530764 1_545
Cu2_1 Cu2_5 2.530764 1_455
Cu2_1 Cu2_5 2.530764 1_555
Cu2_2 Cu3_4 2.530030 1_455
Cu2_2 Cu3_2 2.530030 1_555
Cu2_2 Cu3_6 2.530033 1_455
Cu2_2 Cu2_4 2.530763 1_565
Cu2_2 Cu2_4 2.530763 1_455
Cu2_2 Cu2_6 2.530764 1_555
Cu2_2 Cu2_6 2.530764 1_455
Cu2_3 Cu3_5 2.530030 1_455
Cu2_3 Cu3_3 2.530030 1_555
Cu2_3 Cu3_7 2.530033 1_455
Cu2_3 Cu2_5 2.530763 1_455
Cu2_3 Cu2_5 2.530763 1_565
Cu2_3 Cu2_7 2.530764 1_555
Cu2_3 Cu2_7 2.530764 1_455
Cu2_4 Cu3_2 2.530030 1_545
Cu2_4 Cu3_4 2.530030 1_555
Cu2_4 Cu3_0 2.530033 1_555
Cu2_4 Cu2_6 2.530764 1_545
Cu2_4 Cu2_6 2.530764 1_555
Cu2_5 Cu3_3 2.530030 1_545
Cu2_5 Cu3_5 2.530030 1_555
Cu2_5 Cu3_1 2.530033 1_555
Cu2_5 Cu2_7 2.530764 1_545
Cu2_5 Cu2_7 2.530764 1_555
Cu2_6 Cu3_0 2.530030 1_555
Cu2_6 Cu3_6 2.530030 1_555
Cu2_6 Cu3_2 2.530033 1_555
Cu2_7 Cu3_1 2.530030 1_555
Cu2_7 Cu3_7 2.530030 1_555
Cu2_7 Cu3_3 2.530033 1_555
Cu3_0 Cu3_6 2.530763 1_555
Cu3_0 Cu3_6 2.530763 1_445
Cu3_0 Cu3_2 2.530764 1_545
Cu3_0 Cu3_2 2.530764 1_555
Cu3_0 Cu3_4 2.530764 1_555
Cu3_0 Cu3_4 2.530764 1_455
Cu3_1 Cu3_7 2.530763 1_555
Cu3_1 Cu3_7 2.530763 1_445
Cu3_1 Cu3_3 2.530764 1_545
Cu3_1 Cu3_3 2.530764 1_555
Cu3_1 Cu3_5 2.530764 1_555
Cu3_1 Cu3_5 2.530764 1_455
Cu3_2 Cu3_4 2.530763 1_565
Cu3_2 Cu3_4 2.530763 1_455
Cu3_2 Cu3_6 2.530764 1_555
Cu3_2 Cu3_6 2.530764 1_455
Cu3_3 Cu3_5 2.530763 1_455
Cu3_3 Cu3_5 2.530763 1_565
Cu3_3 Cu3_7 2.530764 1_555
Cu3_3 Cu3_7 2.530764 1_455
Cu3_4 Cu3_6 2.530764 1_555
Cu3_4 Cu3_6 2.530764 1_545
Cu3_5 Cu3_7 2.530764 1_555
Cu3_5 Cu3_7 2.530764 1_545
