# generated using pymatgen
data_Ni2W4C
_symmetry_space_group_name_H-M   'P 1'
_cell_length_a   7.96113973
_cell_length_b   7.96113975
_cell_length_c   7.96114023
_cell_angle_alpha   60.00121351
_cell_angle_beta   60.00121160
_cell_angle_gamma   60.00120901
_symmetry_Int_Tables_number   1
_chemical_formula_structural   Ni2W4C
_chemical_formula_sum   'Ni8 W16 C4'
_cell_volume   356.79823564
_cell_formula_units_Z   4
loop_
 _symmetry_equiv_pos_site_id
 _symmetry_equiv_pos_as_xyz
  1  'x, y, z'
loop_
 _atom_site_type_symbol
 _atom_site_label
 _atom_site_symmetry_multiplicity
 _atom_site_fract_x
 _atom_site_fract_y
 _atom_site_fract_z
 _atom_site_occupancy
  Ni  Ni0  1  0.83321290  0.83321256  0.83321317  1
  Ni  Ni1  1  0.83321220  0.83321196  0.50036242  1
  Ni  Ni2  1  0.50036242  0.83321192  0.83321235  1
  Ni  Ni3  1  0.83321242  0.50036150  0.83321258  1
  Ni  Ni4  1  0.41679557  0.41679519  0.41679543  1
  Ni  Ni5  1  0.41679594  0.41679607  0.74961404  1
  Ni  Ni6  1  0.41679605  0.74961384  0.41679593  1
  Ni  Ni7  1  0.74961422  0.41679595  0.41679587  1
  W  W0  1  0.44120194  0.05879811  0.05879753  1
  W  W1  1  0.05879788  0.44120183  0.44120173  1
  W  W2  1  0.05879780  0.44120223  0.05879766  1
  W  W3  1  0.05879762  0.05879806  0.44120199  1
  W  W4  1  0.44120158  0.05879816  0.44120171  1
  W  W5  1  0.44120175  0.44120203  0.05879773  1
  W  W6  1  0.19125529  0.80874501  0.19125523  1
  W  W7  1  0.80874465  0.19125544  0.80874481  1
  W  W8  1  0.80874474  0.19125553  0.19125524  1
  W  W9  1  0.19125524  0.19125552  0.80874483  1
  W  W10  1  0.19125518  0.80874472  0.80874494  1
  W  W11  1  0.80874480  0.80874494  0.19125510  1
  W  W12  1  0.62498822  0.62498799  0.62498841  1
  W  W13  1  0.62498839  0.62498819  0.12503546  1
  W  W14  1  0.12503579  0.62498796  0.62498842  1
  W  W15  1  0.62498832  0.12503541  0.62498847  1
  C  C0  1  0.12500506  0.12500494  0.12500508  1
  C  C1  1  0.12500491  0.12500504  0.62498506  1
  C  C2  1  0.62498506  0.12500501  0.12500494  1
  C  C3  1  0.12500505  0.62498492  0.12500488  1
loop_
_geom_bond_atom_site_label_1
_geom_bond_atom_site_label_2
_geom_bond_distance
_geom_bond_site_symmetry_2
Ni0 W13 2.437023 1_556
Ni0 W15 2.437026 1_565
Ni0 W14 2.437026 1_655
Ni0 Ni2 2.649875 1_555
Ni0 Ni1 2.649877 1_555
Ni0 Ni3 2.649878 1_555
Ni0 W11 2.669887 1_556
Ni0 W10 2.669889 1_655
Ni0 W7 2.669892 1_565
Ni0 W2 2.864672 1_656
Ni0 W0 2.864676 1_566
Ni0 W3 2.864678 1_665
Ni1 W12 2.436985 1_555
Ni1 W15 2.437015 1_565
Ni1 W14 2.437016 1_655
Ni1 Ni2 2.649913 1_555
Ni1 Ni3 2.649917 1_555
Ni1 W11 2.669876 1_555
Ni1 W6 2.669937 1_655
Ni1 W8 2.669939 1_565
Ni1 W3 2.864621 1_665
Ni1 W1 2.864657 1_655
Ni1 W4 2.864660 1_565
Ni2 W12 2.436985 1_555
Ni2 W13 2.437013 1_556
Ni2 W15 2.437015 1_565
Ni2 Ni3 2.649915 1_555
Ni2 W10 2.669876 1_555
Ni2 W6 2.669936 1_556
Ni2 W9 2.669939 1_565
Ni2 W0 2.864620 1_566
Ni2 W5 2.864655 1_556
Ni2 W4 2.864661 1_565
Ni3 W12 2.436987 1_555
Ni3 W13 2.437014 1_556
Ni3 W14 2.437016 1_655
Ni3 W7 2.669871 1_555
Ni3 W8 2.669931 1_556
Ni3 W9 2.669931 1_655
Ni3 W2 2.864618 1_656
Ni3 W5 2.864657 1_556
Ni3 W1 2.864659 1_655
Ni4 W14 2.436614 1_555
Ni4 W15 2.436614 1_555
Ni4 W13 2.436615 1_555
Ni4 Ni6 2.649620 1_555
Ni4 Ni7 2.649621 1_555
Ni4 Ni5 2.649621 1_555
Ni4 W4 2.669949 1_555
Ni4 W1 2.669952 1_555
Ni4 W5 2.669952 1_555
Ni4 W8 2.864165 1_555
Ni4 W9 2.864167 1_555
Ni4 W6 2.864169 1_555
Ni5 W12 2.436571 1_555
Ni5 W14 2.436602 1_555
Ni5 W15 2.436605 1_555
Ni5 Ni6 2.649659 1_555
Ni5 Ni7 2.649661 1_555
Ni5 W5 2.669924 1_556
Ni5 W0 2.669990 1_556
Ni5 W2 2.669991 1_556
Ni5 W9 2.864113 1_555
Ni5 W10 2.864143 1_555
Ni5 W7 2.864143 1_555
Ni6 W12 2.436574 1_555
Ni6 W14 2.436603 1_555
Ni6 W13 2.436604 1_555
Ni6 Ni7 2.649659 1_555
Ni6 W4 2.669927 1_565
Ni6 W3 2.669994 1_565
Ni6 W0 2.669995 1_565
Ni6 W6 2.864113 1_555
Ni6 W11 2.864144 1_555
Ni6 W10 2.864145 1_555
Ni7 W12 2.436573 1_555
Ni7 W13 2.436604 1_555
Ni7 W15 2.436605 1_555
Ni7 W1 2.669923 1_655
Ni7 W3 2.669989 1_655
Ni7 W2 2.669991 1_655
Ni7 W8 2.864113 1_555
Ni7 W7 2.864144 1_555
Ni7 W11 2.864144 1_555
C0 W0 2.125237 1_555
C0 W3 2.125237 1_555
C0 W2 2.125239 1_555
C0 W6 2.125556 1_545
C0 W9 2.125558 1_554
C0 W8 2.125558 1_455
C1 W3 2.125204 1_555
C1 W4 2.125253 1_555
C1 W1 2.125254 1_555
C1 W9 2.125524 1_555
C1 W7 2.125574 1_455
C1 W10 2.125575 1_545
C2 W0 2.125205 1_555
C2 W4 2.125254 1_555
C2 W5 2.125255 1_555
C2 W8 2.125523 1_555
C2 W11 2.125573 1_545
C2 W7 2.125573 1_554
C3 W2 2.125202 1_555
C3 W5 2.125252 1_555
C3 W1 2.125254 1_555
C3 W6 2.125525 1_555
C3 W10 2.125573 1_554
C3 W11 2.125575 1_455
