# generated using pymatgen
data_Sm3Tm
_symmetry_space_group_name_H-M   'P 1'
_cell_length_a   7.32326138
_cell_length_b   7.32325497
_cell_length_c   5.83852605
_cell_angle_alpha   90.00000000
_cell_angle_beta   90.00000000
_cell_angle_gamma   120.00006025
_symmetry_Int_Tables_number   1
_chemical_formula_structural   Sm3Tm
_chemical_formula_sum   'Sm6 Tm2'
_cell_volume   271.17039910
_cell_formula_units_Z   2
loop_
 _symmetry_equiv_pos_site_id
 _symmetry_equiv_pos_as_xyz
  1  'x, y, z'
loop_
 _atom_site_type_symbol
 _atom_site_label
 _atom_site_symmetry_multiplicity
 _atom_site_fract_x
 _atom_site_fract_y
 _atom_site_fract_z
 _atom_site_occupancy
  Sm  Sm0  1  0.16949245  0.33898391  0.25000100  1
  Sm  Sm1  1  0.66101709  0.83050755  0.25000100  1
  Sm  Sm2  1  0.16949245  0.83050755  0.25000100  1
  Sm  Sm3  1  0.83050755  0.66101609  0.75000000  1
  Sm  Sm4  1  0.33898391  0.16949245  0.75000000  1
  Sm  Sm5  1  0.83050755  0.16949245  0.75000000  1
  Tm  Tm0  1  0.33333400  0.66666700  0.75000000  1
  Tm  Tm1  1  0.66666700  0.33333300  0.25000100  1
loop_
_geom_bond_atom_site_label_1
_geom_bond_atom_site_label_2
_geom_bond_distance
_geom_bond_site_symmetry_2
Sm0 Tm0 3.583434 1_555
Sm0 Tm0 3.583444 1_554
Sm0 Sm2 3.599553 1_555
Sm0 Sm1 3.599555 1_555
Sm0 Sm4 3.625468 1_555
Sm0 Sm5 3.625475 1_455
Sm0 Sm4 3.625478 1_554
Sm0 Sm5 3.625484 1_454
Sm0 Tm1 3.661806 1_455
Sm0 Tm1 3.661806 1_555
Sm0 Sm1 3.723697 1_445
Sm0 Sm2 3.723702 1_545
Sm1 Tm0 3.583435 1_555
Sm1 Tm0 3.583445 1_554
Sm1 Sm2 3.599563 1_555
Sm1 Sm3 3.625464 1_555
Sm1 Sm3 3.625474 1_554
Sm1 Sm5 3.625474 1_565
Sm1 Sm5 3.625483 1_564
Sm1 Tm1 3.661799 1_555
Sm1 Tm1 3.661806 1_565
Sm1 Sm2 3.723698 1_655
Sm2 Tm0 3.583432 1_555
Sm2 Tm0 3.583442 1_554
Sm2 Sm4 3.625474 1_565
Sm2 Sm3 3.625475 1_455
Sm2 Sm4 3.625483 1_564
Sm2 Sm3 3.625484 1_454
Sm2 Tm1 3.661801 1_565
Sm2 Tm1 3.661801 1_455
Sm3 Tm1 3.583434 1_555
Sm3 Tm1 3.583444 1_556
Sm3 Sm4 3.599551 1_555
Sm3 Sm5 3.599553 1_555
Sm3 Tm0 3.661799 1_555
Sm3 Tm0 3.661813 1_655
Sm3 Sm4 3.723700 1_665
Sm3 Sm5 3.723702 1_565
Sm4 Tm1 3.583435 1_555
Sm4 Tm1 3.583445 1_556
Sm4 Sm5 3.599556 1_555
Sm4 Tm0 3.661799 1_555
Sm4 Tm0 3.661806 1_545
Sm4 Sm5 3.723705 1_455
Sm5 Tm1 3.583429 1_555
Sm5 Tm1 3.583438 1_556
Sm5 Tm0 3.661798 1_545
Sm5 Tm0 3.661805 1_655
