# generated using pymatgen
data_NdHf
_symmetry_space_group_name_H-M   'P 1'
_cell_length_a   6.76535586
_cell_length_b   6.76535586
_cell_length_c   11.18464600
_cell_angle_alpha   90.00000000
_cell_angle_beta   90.00000000
_cell_angle_gamma   119.99999863
_symmetry_Int_Tables_number   1
_chemical_formula_structural   NdHf
_chemical_formula_sum   'Nd8 Hf8'
_cell_volume   443.33719772
_cell_formula_units_Z   8
loop_
 _symmetry_equiv_pos_site_id
 _symmetry_equiv_pos_as_xyz
  1  'x, y, z'
loop_
 _atom_site_type_symbol
 _atom_site_label
 _atom_site_symmetry_multiplicity
 _atom_site_fract_x
 _atom_site_fract_y
 _atom_site_fract_z
 _atom_site_occupancy
  Nd  Nd0_0  1  0.33333350  0.16666650  0.00000000  1
  Nd  Nd0_1  1  0.33333350  0.16666650  0.50000000  1
  Nd  Nd0_2  1  0.33333350  0.66666650  0.00000000  1
  Nd  Nd0_3  1  0.33333350  0.66666650  0.50000000  1
  Nd  Nd0_4  1  0.83333350  0.16666650  0.00000000  1
  Nd  Nd0_5  1  0.83333350  0.16666650  0.50000000  1
  Nd  Nd0_6  1  0.83333350  0.66666650  0.00000000  1
  Nd  Nd0_7  1  0.83333350  0.66666650  0.50000000  1
  Hf  Hf0_0  1  0.00000000  0.00000000  0.25000000  1
  Hf  Hf0_1  1  0.00000000  0.00000000  0.75000000  1
  Hf  Hf0_2  1  0.00000000  0.50000000  0.25000000  1
  Hf  Hf0_3  1  0.00000000  0.50000000  0.75000000  1
  Hf  Hf0_4  1  0.50000000  0.00000000  0.25000000  1
  Hf  Hf0_5  1  0.50000000  0.00000000  0.75000000  1
  Hf  Hf0_6  1  0.50000000  0.50000000  0.25000000  1
  Hf  Hf0_7  1  0.50000000  0.50000000  0.75000000  1
loop_
_geom_bond_atom_site_label_1
_geom_bond_atom_site_label_2
_geom_bond_distance
_geom_bond_site_symmetry_2
Nd0_0 Nd0_2 3.382678 1_555
Nd0_0 Nd0_4 3.382678 1_555
Nd0_0 Nd0_4 3.382678 1_455
Nd0_0 Nd0_2 3.382678 1_545
Nd0_0 Nd0_6 3.382678 1_445
Nd0_0 Nd0_6 3.382678 1_555
Nd0_1 Nd0_5 3.382678 1_555
Nd0_1 Nd0_3 3.382678 1_555
Nd0_1 Nd0_3 3.382678 1_545
Nd0_1 Nd0_5 3.382678 1_455
Nd0_1 Nd0_7 3.382678 1_445
Nd0_1 Nd0_7 3.382678 1_555
Nd0_2 Nd0_6 3.382678 1_455
Nd0_2 Nd0_6 3.382678 1_555
Nd0_2 Nd0_4 3.382678 1_455
Nd0_2 Nd0_4 3.382678 1_565
Nd0_3 Nd0_7 3.382678 1_455
Nd0_3 Nd0_7 3.382678 1_555
Nd0_3 Nd0_5 3.382678 1_455
Nd0_3 Nd0_5 3.382678 1_565
Nd0_4 Nd0_6 3.382678 1_555
Nd0_4 Nd0_6 3.382678 1_545
Nd0_5 Nd0_7 3.382678 1_555
Nd0_5 Nd0_7 3.382678 1_545
Hf0_0 Hf0_4 3.382678 1_455
Hf0_0 Hf0_2 3.382678 1_545
Hf0_0 Hf0_4 3.382678 1_555
Hf0_0 Hf0_2 3.382678 1_555
Hf0_0 Hf0_6 3.382678 1_555
Hf0_0 Hf0_6 3.382678 1_445
Hf0_0 Nd0_4 3.410672 1_455
Hf0_0 Nd0_5 3.410672 1_455
Hf0_0 Nd0_0 3.410673 1_555
Hf0_0 Nd0_7 3.410673 1_445
Hf0_0 Nd0_6 3.410673 1_445
Hf0_0 Nd0_1 3.410673 1_555
Hf0_1 Hf0_3 3.382678 1_545
Hf0_1 Hf0_5 3.382678 1_455
Hf0_1 Hf0_5 3.382678 1_555
Hf0_1 Hf0_3 3.382678 1_555
Hf0_1 Hf0_7 3.382678 1_555
Hf0_1 Hf0_7 3.382678 1_445
Hf0_1 Nd0_5 3.410672 1_455
Hf0_1 Nd0_4 3.410672 1_456
Hf0_1 Nd0_0 3.410673 1_556
Hf0_1 Nd0_7 3.410673 1_445
Hf0_1 Nd0_6 3.410673 1_446
Hf0_1 Nd0_1 3.410673 1_555
Hf0_2 Hf0_6 3.382678 1_455
Hf0_2 Hf0_6 3.382678 1_555
Hf0_2 Hf0_4 3.382678 1_455
Hf0_2 Hf0_4 3.382678 1_565
Hf0_2 Nd0_6 3.410672 1_455
Hf0_2 Nd0_7 3.410672 1_455
Hf0_2 Nd0_3 3.410673 1_555
Hf0_2 Nd0_5 3.410673 1_455
Hf0_2 Nd0_2 3.410673 1_555
Hf0_2 Nd0_4 3.410673 1_455
Hf0_3 Hf0_7 3.382678 1_555
Hf0_3 Hf0_7 3.382678 1_455
Hf0_3 Hf0_5 3.382678 1_565
Hf0_3 Hf0_5 3.382678 1_455
Hf0_3 Nd0_6 3.410672 1_456
Hf0_3 Nd0_7 3.410672 1_455
Hf0_3 Nd0_4 3.410673 1_456
Hf0_3 Nd0_3 3.410673 1_555
Hf0_3 Nd0_5 3.410673 1_455
Hf0_3 Nd0_2 3.410673 1_556
Hf0_4 Hf0_6 3.382678 1_545
Hf0_4 Hf0_6 3.382678 1_555
Hf0_4 Nd0_1 3.410672 1_555
Hf0_4 Nd0_0 3.410672 1_555
Hf0_4 Nd0_4 3.410673 1_555
Hf0_4 Nd0_5 3.410673 1_555
Hf0_4 Nd0_3 3.410673 1_545
Hf0_4 Nd0_2 3.410673 1_545
Hf0_5 Hf0_7 3.382678 1_555
Hf0_5 Hf0_7 3.382678 1_545
Hf0_5 Nd0_1 3.410672 1_555
Hf0_5 Nd0_0 3.410672 1_556
Hf0_5 Nd0_4 3.410673 1_556
Hf0_5 Nd0_5 3.410673 1_555
Hf0_5 Nd0_3 3.410673 1_545
Hf0_5 Nd0_2 3.410673 1_546
Hf0_6 Nd0_2 3.410672 1_555
Hf0_6 Nd0_3 3.410672 1_555
Hf0_6 Nd0_0 3.410673 1_555
Hf0_6 Nd0_6 3.410673 1_555
Hf0_6 Nd0_7 3.410673 1_555
Hf0_6 Nd0_1 3.410673 1_555
Hf0_7 Nd0_2 3.410672 1_556
Hf0_7 Nd0_3 3.410672 1_555
Hf0_7 Nd0_0 3.410673 1_556
Hf0_7 Nd0_6 3.410673 1_556
Hf0_7 Nd0_7 3.410673 1_555
Hf0_7 Nd0_1 3.410673 1_555
