# generated using pymatgen
data_Ho7FeI12
_symmetry_space_group_name_H-M   'P 1'
_cell_length_a   9.04799700
_cell_length_b   12.79580000
_cell_length_c   12.79580012
_cell_angle_alpha   119.99999969
_cell_angle_beta   90.00000000
_cell_angle_gamma   90.00000000
_symmetry_Int_Tables_number   1
_chemical_formula_structural   Ho7FeI12
_chemical_formula_sum   'Ho7 Fe1 I12'
_cell_volume   1282.97434416
_cell_formula_units_Z   1
loop_
 _symmetry_equiv_pos_site_id
 _symmetry_equiv_pos_as_xyz
  1  'x, y, z'
loop_
 _atom_site_type_symbol
 _atom_site_label
 _atom_site_symmetry_multiplicity
 _atom_site_fract_x
 _atom_site_fract_y
 _atom_site_fract_z
 _atom_site_occupancy
  Ho  Ho0  1  0.21394200  0.47888800  0.93074700  1
  Ho  Ho1  1  0.59036400  0.78605800  0.73505400  1
  Ho  Ho2  1  0.52111200  0.59036400  0.19569400  1
  Ho  Ho3  1  0.40963600  0.21394200  0.26494600  1
  Ho  Ho4  1  0.00000000  0.00000000  0.00000000  1
  Ho  Ho5  1  0.47888800  0.40963600  0.80430600  1
  Ho  Ho6  1  0.78605800  0.52111200  0.06925300  1
  Fe  Fe0  1  0.50000000  0.50000000  0.00000000  1
  I  I0  1  0.33888100  0.03838200  0.07673200  1
  I  I1  1  0.27551800  0.82049800  0.60818300  1
  I  I2  1  0.11511300  0.33888100  0.69950100  1
  I  I3  1  0.72448200  0.17950200  0.39181700  1
  I  I4  1  0.82049800  0.42868100  0.84683700  1
  I  I5  1  0.96161800  0.88488700  0.77623300  1
  I  I6  1  0.42868100  0.27551800  0.54498000  1
  I  I7  1  0.88488700  0.66111900  0.30049900  1
  I  I8  1  0.17950200  0.57131900  0.15316300  1
  I  I9  1  0.57131900  0.72448200  0.45502000  1
  I  I10  1  0.03838200  0.11511300  0.22376700  1
  I  I11  1  0.66111900  0.96161800  0.92326800  1
loop_
_geom_bond_atom_site_label_1
_geom_bond_atom_site_label_2
_geom_bond_distance
_geom_bond_site_symmetry_2
Ho0 I8 2.495912 1_556
Ho0 I2 2.731962 1_555
Ho1 I11 2.417902 1_555
Ho1 I9 3.266029 1_555
Ho1 I1 3.414724 1_555
Ho1 I5 3.534699 1_555
Ho2 I9 2.909960 1_555
Ho2 I8 3.126742 1_555
Ho3 I0 2.417902 1_555
Ho3 I6 3.266029 1_555
Ho3 I3 3.414724 1_555
Ho3 I10 3.534699 1_555
Ho4 I10 2.504213 1_555
Ho4 I5 2.504213 1_444
Ho4 I0 3.181912 1_555
Ho4 I11 3.181912 1_444
Ho5 I6 2.909960 1_555
Ho5 I4 3.126742 1_555
Ho6 I4 2.495912 1_554
Ho6 I7 2.731962 1_555
Fe0 Ho2 2.179082 1_555
Fe0 Ho5 2.179082 1_554
Fe0 Ho6 2.705161 1_555
Fe0 Ho0 2.705161 1_554
