# generated using pymatgen
data_TaNbTc2
_symmetry_space_group_name_H-M   'P 1'
_cell_length_a   4.49837410
_cell_length_b   4.49837410
_cell_length_c   4.49837410
_cell_angle_alpha   60.00000000
_cell_angle_beta   60.00000000
_cell_angle_gamma   60.00000000
_symmetry_Int_Tables_number   1
_chemical_formula_structural   TaNbTc2
_chemical_formula_sum   'Ta1 Nb1 Tc2'
_cell_volume   64.36528728
_cell_formula_units_Z   1
loop_
 _symmetry_equiv_pos_site_id
 _symmetry_equiv_pos_as_xyz
  1  'x, y, z'
loop_
 _atom_site_type_symbol
 _atom_site_label
 _atom_site_symmetry_multiplicity
 _atom_site_fract_x
 _atom_site_fract_y
 _atom_site_fract_z
 _atom_site_occupancy
  Ta  Ta0  1  0.75000100  0.75000100  0.75000100  1
  Nb  Nb0  1  0.25000000  0.25000000  0.25000000  1
  Tc  Tc0  1  0.00000000  -0.00000000  0.00000000  1
  Tc  Tc1  1  0.50000000  0.50000000  0.50000000  1
loop_
_geom_bond_atom_site_label_1
_geom_bond_atom_site_label_2
_geom_bond_distance
_geom_bond_site_symmetry_2
Ta0 Tc0 2.754669 1_666
Ta0 Tc1 2.754677 1_556
Ta0 Tc1 2.754677 1_565
Ta0 Tc1 2.754677 1_655
Ta0 Tc0 2.754684 1_566
Ta0 Tc0 2.754684 1_656
Ta0 Tc0 2.754684 1_665
Ta0 Tc1 2.754691 1_555
Nb0 Tc1 2.754680 1_455
Nb0 Tc0 2.754680 1_565
Nb0 Tc0 2.754680 1_556
Nb0 Tc0 2.754680 1_555
Nb0 Tc1 2.754680 1_555
Nb0 Tc1 2.754680 1_554
Nb0 Tc0 2.754680 1_655
Nb0 Tc1 2.754680 1_545
