# generated using pymatgen
data_SmAg3
_symmetry_space_group_name_H-M   'P 1'
_cell_length_a   6.43161767
_cell_length_b   6.43161939
_cell_length_c   4.79118238
_cell_angle_alpha   90.00000000
_cell_angle_beta   90.00000000
_cell_angle_gamma   119.99999665
_symmetry_Int_Tables_number   1
_chemical_formula_structural   SmAg3
_chemical_formula_sum   'Sm2 Ag6'
_cell_volume   171.63818154
_cell_formula_units_Z   2
loop_
 _symmetry_equiv_pos_site_id
 _symmetry_equiv_pos_as_xyz
  1  'x, y, z'
loop_
 _atom_site_type_symbol
 _atom_site_label
 _atom_site_symmetry_multiplicity
 _atom_site_fract_x
 _atom_site_fract_y
 _atom_site_fract_z
 _atom_site_occupancy
  Sm  Sm0  1  0.66666700  0.33333400  0.24999900  1
  Sm  Sm1  1  0.33333300  0.66666700  0.75000000  1
  Ag  Ag0  1  0.15084762  0.30169325  0.24999900  1
  Ag  Ag1  1  0.69830775  0.84915238  0.24999900  1
  Ag  Ag2  1  0.15084762  0.84915238  0.24999900  1
  Ag  Ag3  1  0.84915338  0.15084662  0.75000000  1
  Ag  Ag4  1  0.30169325  0.15084662  0.75000000  1
  Ag  Ag5  1  0.84915238  0.69830575  0.75000000  1
loop_
_geom_bond_atom_site_label_1
_geom_bond_atom_site_label_2
_geom_bond_distance
_geom_bond_site_symmetry_2
Ag0 Ag1 2.910567 1_445
Ag0 Ag2 2.910571 1_545
Ag0 Ag4 2.926194 1_554
Ag0 Ag3 2.926200 1_454
Ag0 Ag4 2.926202 1_555
Ag0 Ag3 2.926208 1_455
Ag0 Sm1 3.141887 1_554
Ag0 Sm1 3.141894 1_555
Ag0 Sm0 3.220628 1_555
Ag0 Sm0 3.220641 1_455
Ag0 Ag2 3.521049 1_555
Ag0 Ag1 3.521052 1_555
Ag1 Ag2 2.910563 1_655
Ag1 Ag5 2.926190 1_554
Ag1 Ag5 2.926198 1_555
Ag1 Ag3 2.926200 1_564
Ag1 Ag3 2.926208 1_565
Ag1 Sm1 3.141890 1_554
Ag1 Sm1 3.141897 1_555
Ag1 Sm0 3.220622 1_555
Ag1 Sm0 3.220648 1_565
Ag1 Ag2 3.521054 1_555
Ag2 Ag4 2.926200 1_564
Ag2 Ag5 2.926203 1_454
Ag2 Ag4 2.926208 1_565
Ag2 Ag5 2.926211 1_455
Ag2 Sm1 3.141876 1_554
Ag2 Sm1 3.141883 1_555
Ag2 Sm0 3.220631 1_455
Ag2 Sm0 3.220637 1_565
Ag3 Ag4 2.910563 1_655
Ag3 Ag5 2.910567 1_545
Ag3 Sm0 3.141886 1_556
Ag3 Sm0 3.141894 1_555
Ag3 Sm1 3.220635 1_545
Ag3 Sm1 3.220635 1_655
Ag3 Ag5 3.521052 1_555
Ag3 Ag4 3.521054 1_555
Ag4 Ag5 2.910570 1_445
Ag4 Sm0 3.141886 1_556
Ag4 Sm0 3.141894 1_555
Ag4 Sm1 3.220632 1_545
Ag4 Sm1 3.220638 1_555
Ag4 Ag5 3.521048 1_555
Ag5 Sm0 3.141879 1_556
Ag5 Sm0 3.141887 1_555
Ag5 Sm1 3.220634 1_655
Ag5 Sm1 3.220634 1_555
