# generated using pymatgen
data_Th7Te12
_symmetry_space_group_name_H-M   'P 1'
_cell_length_a   12.56694030
_cell_length_b   12.56647261
_cell_length_c   4.38759031
_cell_angle_alpha   90.00000000
_cell_angle_beta   90.00000000
_cell_angle_gamma   119.99983643
_symmetry_Int_Tables_number   1
_chemical_formula_structural   Th7Te12
_chemical_formula_sum   'Th7 Te12'
_cell_volume   600.06784712
_cell_formula_units_Z   1
loop_
 _symmetry_equiv_pos_site_id
 _symmetry_equiv_pos_as_xyz
  1  'x, y, z'
loop_
 _atom_site_type_symbol
 _atom_site_label
 _atom_site_symmetry_multiplicity
 _atom_site_fract_x
 _atom_site_fract_y
 _atom_site_fract_z
 _atom_site_occupancy
  Th  Th0  1  0.72313868  0.16200116  -0.00000000  1
  Th  Th1  1  0.83798128  0.56112789  0.00000000  1
  Th  Th2  1  0.43885965  0.27684975  0.00000000  1
  Th  Th3  1  0.54865823  0.71210324  0.50000000  1
  Th  Th4  1  0.28791633  0.83657892  0.50000000  1
  Th  Th5  1  0.16343595  0.45133989  0.50000000  1
  Th  Th6  1  0.00000013  0.00001186  0.00000000  1
  Te  Te0  1  0.74406337  0.75292287  0.00000000  1
  Te  Te1  1  0.24707816  0.99113065  0.00000000  1
  Te  Te2  1  0.00885040  0.25594061  -0.00000000  1
  Te  Te3  1  0.49191354  0.86710972  -0.00000000  1
  Te  Te4  1  0.13290582  0.62481959  -0.00000000  1
  Te  Te5  1  0.37519728  0.50808395  -0.00000000  1
  Te  Te6  1  0.86451263  0.38657732  0.50000000  1
  Te  Te7  1  0.21806669  0.21356355  0.50000000  1
  Te  Te8  1  0.99550431  0.78193859  0.50000000  1
  Te  Te9  1  0.78644215  0.00448111  0.50000000  1
  Te  Te10  1  0.52205743  0.13548546  0.50000000  1
  Te  Te11  1  0.61341999  0.47793487  0.50000000  1
loop_
_geom_bond_atom_site_label_1
_geom_bond_atom_site_label_2
_geom_bond_distance
_geom_bond_site_symmetry_2
Te0 Th3 3.137900 1_555
Te0 Th3 3.137900 1_554
Te0 Th6 3.162167 1_665
Te0 Th1 3.169645 1_555
Te1 Th4 3.137656 1_555
Te1 Th4 3.137656 1_554
Te1 Th6 3.162295 1_565
Te1 Th2 3.169664 1_565
Te2 Th5 3.137821 1_554
Te2 Th5 3.137821 1_555
Te2 Th6 3.161979 1_555
Te2 Th0 3.169677 1_455
Te3 Th3 3.241073 1_554
Te3 Th3 3.241073 1_555
Te3 Th4 3.247849 1_554
Te3 Th4 3.247849 1_555
Te3 Th0 3.377589 1_565
Te4 Th4 3.241142 1_554
Te4 Th4 3.241142 1_555
Te4 Th5 3.247902 1_554
Te4 Th5 3.247902 1_555
Te4 Th1 3.377992 1_455
Te5 Th5 3.241225 1_555
Te5 Th5 3.241225 1_554
Te5 Th3 3.247912 1_555
Te5 Th3 3.247912 1_554
Te5 Th2 3.377644 1_555
Te6 Th1 3.235216 1_556
Te6 Th1 3.235216 1_555
Te6 Th0 3.304500 1_555
Te6 Th0 3.304500 1_556
Te6 Th5 3.422982 1_655
Te7 Th2 3.307185 1_555
Te7 Th2 3.307185 1_556
Te7 Th5 3.383921 1_555
Te7 Th6 3.488581 1_556
Te7 Th6 3.488581 1_555
Te8 Th1 3.307283 1_556
Te8 Th1 3.307283 1_555
Te8 Th4 3.384063 1_655
Te8 Th6 3.488690 1_666
Te8 Th6 3.488690 1_665
Te9 Th0 3.307361 1_555
Te9 Th0 3.307361 1_556
Te9 Th3 3.383748 1_545
Te9 Th6 3.488444 1_656
Te9 Th6 3.488444 1_655
Te10 Th0 3.235331 1_555
Te10 Th0 3.235331 1_556
Te10 Th2 3.304393 1_555
Te10 Th2 3.304393 1_556
Te10 Th4 3.422667 1_545
Te11 Th2 3.235292 1_555
Te11 Th2 3.235292 1_556
Te11 Th1 3.304447 1_556
Te11 Th1 3.304447 1_555
Te11 Th3 3.422948 1_555
