# generated using pymatgen
data_Zn2CuPt
_symmetry_space_group_name_H-M   'P 1'
_cell_length_a   4.24159755
_cell_length_b   4.24159755
_cell_length_c   4.24159755
_cell_angle_alpha   60.00000000
_cell_angle_beta   60.00000000
_cell_angle_gamma   60.00000000
_symmetry_Int_Tables_number   1
_chemical_formula_structural   Zn2CuPt
_chemical_formula_sum   'Zn2 Cu1 Pt1'
_cell_volume   53.96017885
_cell_formula_units_Z   1
loop_
 _symmetry_equiv_pos_site_id
 _symmetry_equiv_pos_as_xyz
  1  'x, y, z'
loop_
 _atom_site_type_symbol
 _atom_site_label
 _atom_site_symmetry_multiplicity
 _atom_site_fract_x
 _atom_site_fract_y
 _atom_site_fract_z
 _atom_site_occupancy
  Zn  Zn0  1  0.00000000  0.00000000  -0.00000000  1
  Zn  Zn1  1  0.50000100  0.50000100  0.50000100  1
  Cu  Cu0  1  0.25000000  0.25000000  0.25000000  1
  Pt  Pt0  1  0.74999900  0.74999900  0.74999900  1
loop_
_geom_bond_atom_site_label_1
_geom_bond_atom_site_label_2
_geom_bond_distance
_geom_bond_site_symmetry_2
Cu0 Zn1 2.597434 1_554
Cu0 Zn1 2.597434 1_455
Cu0 Zn1 2.597434 1_545
Cu0 Zn0 2.597437 1_555
Cu0 Zn0 2.597437 1_565
Cu0 Zn0 2.597437 1_655
Cu0 Zn0 2.597437 1_556
Cu0 Zn1 2.597448 1_555
Pt0 Zn1 2.597417 1_555
Pt0 Zn0 2.597434 1_566
Pt0 Zn0 2.597434 1_665
Pt0 Zn0 2.597434 1_656
Pt0 Zn1 2.597444 1_556
Pt0 Zn1 2.597444 1_655
Pt0 Zn1 2.597444 1_565
Pt0 Zn0 2.597448 1_666
