# generated using pymatgen
data_NbGaFe2
_symmetry_space_group_name_H-M   'P 1'
_cell_length_a   4.16281454
_cell_length_b   4.16281460
_cell_length_c   4.16281573
_cell_angle_alpha   60.00043244
_cell_angle_beta   60.00043379
_cell_angle_gamma   60.00046076
_symmetry_Int_Tables_number   1
_chemical_formula_structural   NbGaFe2
_chemical_formula_sum   'Nb1 Ga1 Fe2'
_cell_volume   51.00945410
_cell_formula_units_Z   1
loop_
 _symmetry_equiv_pos_site_id
 _symmetry_equiv_pos_as_xyz
  1  'x, y, z'
loop_
 _atom_site_type_symbol
 _atom_site_label
 _atom_site_symmetry_multiplicity
 _atom_site_fract_x
 _atom_site_fract_y
 _atom_site_fract_z
 _atom_site_occupancy
  Nb  Nb0  1  0.74999926  0.74999933  0.74999933  1
  Ga  Ga0  1  0.24999993  0.25000010  0.25000010  1
  Fe  Fe0  1  0.00000040  0.00000028  0.00000027  1
  Fe  Fe1  1  0.50000042  0.50000029  0.50000030  1
loop_
_geom_bond_atom_site_label_1
_geom_bond_atom_site_label_2
_geom_bond_distance
_geom_bond_site_symmetry_2
Fe0 Ga0 2.549182 1_555
Fe0 Nb0 2.549195 1_444
Fe0 Nb0 2.549203 1_544
Fe0 Nb0 2.549204 1_454
Fe0 Nb0 2.549204 1_445
Fe0 Ga0 2.549208 1_554
Fe0 Ga0 2.549208 1_545
Fe0 Ga0 2.549209 1_455
Fe1 Nb0 2.549174 1_555
Fe1 Ga0 2.549188 1_555
Fe1 Ga0 2.549206 1_655
Fe1 Ga0 2.549207 1_556
Fe1 Ga0 2.549207 1_565
Fe1 Nb0 2.549211 1_545
Fe1 Nb0 2.549211 1_554
Fe1 Nb0 2.549211 1_455
