# generated using pymatgen
data_Nd2Co12P7
_symmetry_space_group_name_H-M   'P 1'
_cell_length_a   8.97821212
_cell_length_b   8.97856502
_cell_length_c   3.68608744
_cell_angle_alpha   89.99999935
_cell_angle_beta   89.99999747
_cell_angle_gamma   120.00350390
_symmetry_Int_Tables_number   1
_chemical_formula_structural   Nd2Co12P7
_chemical_formula_sum   'Nd2 Co12 P7'
_cell_volume   257.32247731
_cell_formula_units_Z   1
loop_
 _symmetry_equiv_pos_site_id
 _symmetry_equiv_pos_as_xyz
  1  'x, y, z'
loop_
 _atom_site_type_symbol
 _atom_site_label
 _atom_site_symmetry_multiplicity
 _atom_site_fract_x
 _atom_site_fract_y
 _atom_site_fract_z
 _atom_site_occupancy
  Nd  Nd0  1  0.00000865  -0.00000490  0.00000003  1
  Nd  Nd1  1  0.33334822  0.66668268  0.49999991  1
  Co  Co0  1  0.09195009  0.39183273  0.00000003  1
  Co  Co1  1  0.60817913  0.70012558  0.00000006  1
  Co  Co2  1  0.29987051  0.90806890  0.00000002  1
  Co  Co3  1  0.04810919  0.76208902  0.49999999  1
  Co  Co4  1  0.23789584  0.28602092  0.49999995  1
  Co  Co5  1  0.71398738  0.95189106  0.50000001  1
  Co  Co6  1  0.81815397  0.60487069  0.00000010  1
  Co  Co7  1  0.39514140  0.21328412  0.00000002  1
  Co  Co8  1  0.78673056  0.18181715  0.00000009  1
  Co  Co9  1  0.87496194  0.42570114  0.50000006  1
  Co  Co10  1  0.57429768  0.44927268  0.50000002  1
  Co  Co11  1  0.55072856  0.12501230  0.49999994  1
  P  P0  1  0.77319739  0.73162011  0.49999995  1
  P  P1  1  0.26837194  0.04157923  0.49999990  1
  P  P2  1  0.95842420  0.22677679  0.49999993  1
  P  P3  1  0.66663441  0.33334333  0.00000001  1
  P  P4  1  0.07398538  0.63650108  -0.00000002  1
  P  P5  1  0.36350824  0.43748545  -0.00000002  1
  P  P6  1  0.56251731  0.92602892  0.00000003  1
loop_
_geom_bond_atom_site_label_1
_geom_bond_atom_site_label_2
_geom_bond_distance
_geom_bond_site_symmetry_2
Nd0 P1 2.905484 1_555
Nd0 P1 2.905484 1_554
Nd0 P0 2.905593 1_445
Nd0 P0 2.905594 1_444
Nd0 P2 2.905598 1_455
Nd0 P2 2.905599 1_454
Nd1 P6 2.874166 1_555
Nd1 P6 2.874167 1_556
Nd1 P4 2.874299 1_555
Nd1 P4 2.874300 1_556
Nd1 P5 2.874408 1_555
Nd1 P5 2.874409 1_556
Co0 P5 2.261173 1_555
Co0 P4 2.281704 1_555
Co0 P2 2.292031 1_455
Co0 P2 2.292031 1_454
Co0 Nd1 2.972362 1_555
Co0 Nd1 2.972362 1_554
Co0 Nd0 3.186578 1_555
Co1 P6 2.261333 1_555
Co1 P5 2.281586 1_555
Co1 P0 2.291903 1_555
Co1 P0 2.291904 1_554
Co1 Nd1 2.972287 1_555
Co1 Nd1 2.972287 1_554
Co1 Nd0 3.186246 1_665
Co2 P4 2.261136 1_555
Co2 P6 2.281740 1_555
Co2 P1 2.291894 1_565
Co2 P1 2.291895 1_564
Co2 Nd1 2.972515 1_555
Co2 Nd1 2.972515 1_554
Co2 Nd0 3.186157 1_565
Co3 P4 2.232545 1_556
Co3 P4 2.232545 1_555
Co3 P1 2.290172 1_565
Co3 P0 2.343424 1_455
Co3 Nd0 3.011413 1_565
Co3 Nd0 3.011413 1_566
Co3 Nd1 3.079958 1_555
Co4 P5 2.232542 1_555
Co4 P5 2.232542 1_556
Co4 P2 2.289974 1_455
Co4 P1 2.343570 1_555
Co4 Nd0 3.011323 1_555
Co4 Nd0 3.011323 1_556
Co4 Nd1 3.080005 1_555
Co5 P6 2.232560 1_555
Co5 P6 2.232560 1_556
Co5 P0 2.290290 1_555
Co5 P2 2.343219 1_565
Co5 Nd0 3.011401 1_665
Co5 Nd0 3.011401 1_666
Co5 Nd1 3.079659 1_555
Co6 P3 2.115953 1_555
Co6 P4 2.168885 1_655
Co6 P0 2.305260 1_555
Co6 P0 2.305261 1_554
Co6 Nd0 3.075494 1_665
Co7 P3 2.115581 1_555
Co7 P5 2.169015 1_555
Co7 P1 2.305233 1_555
Co7 P1 2.305234 1_554
Co7 Nd0 3.075427 1_555
Co8 P3 2.116754 1_555
Co8 P6 2.168659 1_545
Co8 P2 2.305138 1_555
Co8 P2 2.305138 1_554
Co8 Nd0 3.075397 1_655
Co9 P2 2.256106 1_555
Co9 P3 2.455951 1_556
Co9 P3 2.455951 1_555
Co9 P4 2.605692 1_656
Co9 P4 2.605692 1_655
Co10 P0 2.255667 1_555
Co10 P3 2.455710 1_556
Co10 P3 2.455710 1_555
Co10 P5 2.605629 1_556
Co10 P5 2.605629 1_555
Co11 P1 2.255758 1_555
Co11 P3 2.455977 1_555
Co11 P3 2.455977 1_556
Co11 P6 2.605574 1_545
Co11 P6 2.605574 1_546
