# generated using pymatgen
data_Zr3As2
_symmetry_space_group_name_H-M   'P 1'
_cell_length_a   10.58756438
_cell_length_b   3.76391103
_cell_length_c   10.14826188
_cell_angle_alpha   90.00000000
_cell_angle_beta   90.00000000
_cell_angle_gamma   90.00000000
_symmetry_Int_Tables_number   1
_chemical_formula_structural   Zr3As2
_chemical_formula_sum   'Zr12 As8'
_cell_volume   404.41483585
_cell_formula_units_Z   4
loop_
 _symmetry_equiv_pos_site_id
 _symmetry_equiv_pos_as_xyz
  1  'x, y, z'
loop_
 _atom_site_type_symbol
 _atom_site_label
 _atom_site_symmetry_multiplicity
 _atom_site_fract_x
 _atom_site_fract_y
 _atom_site_fract_z
 _atom_site_occupancy
  Zr  Zr0  1  0.21525809  0.24999800  0.20371304  1
  Zr  Zr1  1  0.28474191  0.74999900  0.70371204  1
  Zr  Zr2  1  0.71525809  0.24999800  0.29628796  1
  Zr  Zr3  1  0.78474191  0.74999900  0.79628796  1
  Zr  Zr4  1  0.12418773  0.74999900  0.43253169  1
  Zr  Zr5  1  0.37581227  0.24999800  0.93253369  1
  Zr  Zr6  1  0.62418773  0.74999900  0.06746731  1
  Zr  Zr7  1  0.87581227  0.24999800  0.56746631  1
  Zr  Zr8  1  0.04427913  0.24999800  0.87459840  1
  Zr  Zr9  1  0.45572187  0.74999900  0.37459840  1
  Zr  Zr10  1  0.54427813  0.24999800  0.62540160  1
  Zr  Zr11  1  0.95572187  0.74999900  0.12540160  1
  As  As0  1  0.30569546  0.24999800  0.49923589  1
  As  As1  1  0.19430454  0.74999900  0.99923589  1
  As  As2  1  0.69430354  0.74999900  0.50076511  1
  As  As3  1  0.80569546  0.24999800  0.00076411  1
  As  As4  1  0.97217326  0.24999800  0.32086866  1
  As  As5  1  0.52782674  0.74999900  0.82086866  1
  As  As6  1  0.47217326  0.24999800  0.17913034  1
  As  As7  1  0.02782674  0.74999900  0.67913034  1
loop_
_geom_bond_atom_site_label_1
_geom_bond_atom_site_label_2
_geom_bond_distance
_geom_bond_site_symmetry_2
As0 Zr9 2.768512 1_545
As0 Zr9 2.768517 1_555
As0 Zr4 2.773627 1_545
As0 Zr4 2.773632 1_555
As0 Zr1 2.810143 1_545
As0 Zr1 2.810148 1_555
As0 Zr10 2.831970 1_555
As0 Zr0 3.148188 1_555
As1 Zr8 2.768506 1_565
As1 Zr8 2.768511 1_555
As1 Zr5 2.773622 1_565
As1 Zr5 2.773627 1_555
As1 Zr0 2.810151 1_566
As1 Zr0 2.810156 1_556
As1 Zr11 2.831970 1_456
As1 Zr1 3.148198 1_555
As2 Zr10 2.768501 1_565
As2 Zr10 2.768506 1_555
As2 Zr7 2.773627 1_565
As2 Zr7 2.773632 1_555
As2 Zr2 2.810152 1_565
As2 Zr2 2.810157 1_555
As2 Zr9 2.831965 1_555
As2 Zr3 3.148191 1_555
As3 Zr11 2.768512 1_545
As3 Zr11 2.768517 1_555
As3 Zr6 2.773624 1_545
As3 Zr6 2.773629 1_555
As3 Zr3 2.810143 1_544
As3 Zr3 2.810148 1_554
As3 Zr8 2.831979 1_654
As3 Zr2 3.148198 1_555
As4 Zr7 2.702510 1_555
As4 Zr4 2.723274 1_645
As4 Zr4 2.723280 1_655
As4 Zr2 2.731520 1_555
As4 Zr11 2.739882 1_545
As4 Zr11 2.739887 1_555
As4 Zr0 2.835023 1_655
As5 Zr6 2.702519 1_556
As5 Zr5 2.723283 1_565
As5 Zr5 2.723288 1_555
As5 Zr3 2.731520 1_555
As5 Zr10 2.739882 1_565
As5 Zr10 2.739887 1_555
As5 Zr1 2.835027 1_555
As6 Zr5 2.702500 1_554
As6 Zr6 2.723274 1_545
As6 Zr6 2.723280 1_555
As6 Zr0 2.731522 1_555
As6 Zr9 2.739889 1_545
As6 Zr9 2.739894 1_555
As6 Zr2 2.835031 1_555
As7 Zr4 2.702519 1_555
As7 Zr7 2.723279 1_465
As7 Zr7 2.723284 1_455
As7 Zr1 2.731521 1_555
As7 Zr8 2.739890 1_565
As7 Zr8 2.739895 1_555
As7 Zr3 2.835031 1_455
