# generated using pymatgen
data_TlNiO3
_symmetry_space_group_name_H-M   'P 1'
_cell_length_a   5.37748955
_cell_length_b   5.37748955
_cell_length_c   5.37748953
_cell_angle_alpha   59.74406927
_cell_angle_beta   59.74406927
_cell_angle_gamma   59.74407030
_symmetry_Int_Tables_number   1
_chemical_formula_structural   TlNiO3
_chemical_formula_sum   'Tl2 Ni2 O6'
_cell_volume   109.31815844
_cell_formula_units_Z   2
loop_
 _symmetry_equiv_pos_site_id
 _symmetry_equiv_pos_as_xyz
  1  'x, y, z'
loop_
 _atom_site_type_symbol
 _atom_site_label
 _atom_site_symmetry_multiplicity
 _atom_site_fract_x
 _atom_site_fract_y
 _atom_site_fract_z
 _atom_site_occupancy
  Tl  Tl0  1  0.26952000  0.26952000  0.26952000  1
  Tl  Tl1  1  0.76952000  0.76952000  0.76952000  1
  Ni  Ni0  1  0.00598600  0.00598600  0.00598600  1
  Ni  Ni1  1  0.50598600  0.50598600  0.50598600  1
  O  O0  1  0.84742400  0.24300600  0.66256300  1
  O  O1  1  0.66256300  0.84742400  0.24300600  1
  O  O2  1  0.24300600  0.66256300  0.84742400  1
  O  O3  1  0.34742400  0.16256300  0.74300600  1
  O  O4  1  0.16256300  0.74300600  0.34742400  1
  O  O5  1  0.74300600  0.34742400  0.16256300  1
loop_
_geom_bond_atom_site_label_1
_geom_bond_atom_site_label_2
_geom_bond_distance
_geom_bond_site_symmetry_2
Ni0 O3 1.954843 1_554
Ni0 O4 1.954843 1_545
Ni0 O5 1.954843 1_455
Ni0 O1 1.970206 1_445
Ni0 O0 1.970206 1_454
Ni0 O2 1.970206 1_544
Ni1 O1 1.954843 1_555
Ni1 O2 1.954843 1_555
Ni1 O0 1.954843 1_555
Ni1 O3 1.970206 1_555
Ni1 O5 1.970206 1_555
Ni1 O4 1.970206 1_555
O0 Tl0 2.197172 1_655
O0 Tl1 2.519046 1_545
O1 Tl0 2.197172 1_565
O1 Tl1 2.519046 1_554
O2 Tl0 2.197172 1_556
O2 Tl1 2.519046 1_455
O3 Tl1 2.197172 1_545
O3 Tl0 2.519046 1_555
O4 Tl1 2.197172 1_455
O4 Tl0 2.519046 1_555
O5 Tl1 2.197172 1_554
O5 Tl0 2.519046 1_555
