# generated using pymatgen
data_RbTlBr3
_symmetry_space_group_name_H-M   'P 1'
_cell_length_a   8.22767917
_cell_length_b   8.22767917
_cell_length_c   8.22767905
_cell_angle_alpha   60.01287335
_cell_angle_beta   60.01287335
_cell_angle_gamma   60.01287280
_symmetry_Int_Tables_number   1
_chemical_formula_structural   RbTlBr3
_chemical_formula_sum   'Rb2 Tl2 Br6'
_cell_volume   393.95241682
_cell_formula_units_Z   2
loop_
 _symmetry_equiv_pos_site_id
 _symmetry_equiv_pos_as_xyz
  1  'x, y, z'
loop_
 _atom_site_type_symbol
 _atom_site_label
 _atom_site_symmetry_multiplicity
 _atom_site_fract_x
 _atom_site_fract_y
 _atom_site_fract_z
 _atom_site_occupancy
  Rb  Rb0  1  0.72640200  0.72640200  0.72640200  1
  Rb  Rb1  1  0.22640200  0.22640200  0.22640200  1
  Tl  Tl0  1  0.99538700  0.99538700  0.99538700  1
  Tl  Tl1  1  0.49538700  0.49538700  0.49538700  1
  Br  Br0  1  0.75545600  0.17332000  0.32093400  1
  Br  Br1  1  0.17332000  0.32093400  0.75545600  1
  Br  Br2  1  0.32093400  0.75545600  0.17332000  1
  Br  Br3  1  0.82093400  0.67332000  0.25545600  1
  Br  Br4  1  0.25545600  0.82093400  0.67332000  1
  Br  Br5  1  0.67332000  0.25545600  0.82093400  1
loop_
_geom_bond_atom_site_label_1
_geom_bond_atom_site_label_2
_geom_bond_distance
_geom_bond_site_symmetry_2
Br0 Tl1 2.953741 1_555
Br0 Tl0 2.993309 1_544
Br0 Rb0 3.539313 1_545
Br0 Rb1 3.761544 1_655
Br1 Tl1 2.953741 1_555
Br1 Tl0 2.993309 1_445
Br1 Rb0 3.539313 1_455
Br1 Rb1 3.761544 1_556
Br2 Tl1 2.953741 1_555
Br2 Tl0 2.993309 1_454
Br2 Rb0 3.539313 1_554
Br2 Rb1 3.761544 1_565
Br3 Tl0 2.953741 1_554
Br3 Tl1 2.993309 1_555
Br3 Rb1 3.539313 1_655
Br3 Rb0 3.761544 1_555
Br4 Tl0 2.953741 1_455
Br4 Tl1 2.993309 1_555
Br4 Rb1 3.539313 1_565
Br4 Rb0 3.761544 1_555
Br5 Tl0 2.953741 1_545
Br5 Tl1 2.993309 1_555
Br5 Rb1 3.539313 1_556
Br5 Rb0 3.761544 1_555
