# generated using pymatgen
data_Si
_symmetry_space_group_name_H-M   'P 1'
_cell_length_a   5.31706156
_cell_length_b   7.21491711
_cell_length_c   7.21491872
_cell_angle_alpha   82.19654710
_cell_angle_beta   68.37828065
_cell_angle_gamma   68.37828147
_symmetry_Int_Tables_number   1
_chemical_formula_structural   Si
_chemical_formula_sum   Si16
_cell_volume   239.19999281
_cell_formula_units_Z   16
loop_
 _symmetry_equiv_pos_site_id
 _symmetry_equiv_pos_as_xyz
  1  'x, y, z'
loop_
 _atom_site_type_symbol
 _atom_site_label
 _atom_site_symmetry_multiplicity
 _atom_site_fract_x
 _atom_site_fract_y
 _atom_site_fract_z
 _atom_site_occupancy
  Si  Si0_0  1  0.18750000  0.12500000  0.37500000  1
  Si  Si0_1  1  0.18750000  0.12500000  0.87500000  1
  Si  Si0_2  1  0.18750000  0.62500000  0.37500000  1
  Si  Si0_3  1  0.18750000  0.62500000  0.87500000  1
  Si  Si0_4  1  0.68750000  0.12500000  0.37500000  1
  Si  Si0_5  1  0.68750000  0.12500000  0.87500000  1
  Si  Si0_6  1  0.68750000  0.62500000  0.37500000  1
  Si  Si0_7  1  0.68750000  0.62500000  0.87500000  1
  Si  Si1_0  1  0.31250000  0.37500000  0.12500000  1
  Si  Si1_1  1  0.31250000  0.37500000  0.62500000  1
  Si  Si1_2  1  0.31250000  0.87500000  0.12500000  1
  Si  Si1_3  1  0.31250000  0.87500000  0.62500000  1
  Si  Si1_4  1  0.81250000  0.37500000  0.12500000  1
  Si  Si1_5  1  0.81250000  0.37500000  0.62500000  1
  Si  Si1_6  1  0.81250000  0.87500000  0.12500000  1
  Si  Si1_7  1  0.81250000  0.87500000  0.62500000  1
loop_
_geom_bond_atom_site_label_1
_geom_bond_atom_site_label_2
_geom_bond_distance
_geom_bond_site_symmetry_2
Si0_0 Si1_5 2.462751 1_455
Si0_0 Si1_0 2.462751 1_555
Si0_0 Si1_2 2.462751 1_545
Si0_0 Si1_3 2.462751 1_545
Si0_0 Si0_4 2.658531 1_455
Si0_0 Si0_4 2.658531 1_555
Si0_1 Si1_4 2.462751 1_456
Si0_1 Si1_1 2.462751 1_555
Si0_1 Si1_3 2.462751 1_545
Si0_1 Si1_2 2.462751 1_546
Si0_1 Si0_5 2.658531 1_455
Si0_1 Si0_5 2.658531 1_555
Si0_2 Si1_7 2.462751 1_455
Si0_2 Si1_2 2.462751 1_555
Si0_2 Si1_0 2.462751 1_555
Si0_2 Si1_1 2.462751 1_555
Si0_2 Si0_6 2.658531 1_555
Si0_2 Si0_6 2.658531 1_455
Si0_3 Si1_6 2.462751 1_456
Si0_3 Si1_3 2.462751 1_555
Si0_3 Si1_1 2.462751 1_555
Si0_3 Si1_0 2.462751 1_556
Si0_3 Si0_7 2.658531 1_455
Si0_3 Si0_7 2.658531 1_555
Si0_4 Si1_1 2.462751 1_555
Si0_4 Si1_4 2.462751 1_555
Si0_4 Si1_6 2.462751 1_545
Si0_4 Si1_7 2.462751 1_545
Si0_5 Si1_0 2.462751 1_556
Si0_5 Si1_5 2.462751 1_555
Si0_5 Si1_7 2.462751 1_545
Si0_5 Si1_6 2.462751 1_546
Si0_6 Si1_3 2.462751 1_555
Si0_6 Si1_6 2.462751 1_555
Si0_6 Si1_4 2.462751 1_555
Si0_6 Si1_5 2.462751 1_555
Si0_7 Si1_2 2.462751 1_556
Si0_7 Si1_7 2.462751 1_555
Si0_7 Si1_5 2.462751 1_555
Si0_7 Si1_4 2.462751 1_556
Si1_0 Si1_4 2.658531 1_555
Si1_0 Si1_4 2.658531 1_455
Si1_1 Si1_5 2.658531 1_555
Si1_1 Si1_5 2.658531 1_455
Si1_2 Si1_6 2.658531 1_555
Si1_2 Si1_6 2.658531 1_455
Si1_3 Si1_7 2.658531 1_555
Si1_3 Si1_7 2.658531 1_455
