# generated using pymatgen
data_Th2Ta6O19
_symmetry_space_group_name_H-M   'P 1'
_cell_length_a   6.43873022
_cell_length_b   6.43873022
_cell_length_c   20.19761700
_cell_angle_alpha   90.00000000
_cell_angle_beta   90.00000000
_cell_angle_gamma   120.00000224
_symmetry_Int_Tables_number   1
_chemical_formula_structural   Th2Ta6O19
_chemical_formula_sum   'Th4 Ta12 O38'
_cell_volume   725.15561086
_cell_formula_units_Z   2
loop_
 _symmetry_equiv_pos_site_id
 _symmetry_equiv_pos_as_xyz
  1  'x, y, z'
loop_
 _atom_site_type_symbol
 _atom_site_label
 _atom_site_symmetry_multiplicity
 _atom_site_fract_x
 _atom_site_fract_y
 _atom_site_fract_z
 _atom_site_occupancy
  Th  Th0  1  0.33333300  0.66666700  0.50000000  1
  Th  Th1  1  0.66666700  0.33333300  0.00000000  1
  Th  Th2  1  0.66666700  0.33333300  0.50000000  1
  Th  Th3  1  0.33333300  0.66666700  0.00000000  1
  Ta  Ta0  1  0.65295000  0.65295000  0.84367700  1
  Ta  Ta1  1  0.34705000  0.00000000  0.84367700  1
  Ta  Ta2  1  0.00000000  0.34705000  0.84367700  1
  Ta  Ta3  1  0.00000000  0.65295000  0.34367700  1
  Ta  Ta4  1  0.34705000  0.00000000  0.65632300  1
  Ta  Ta5  1  0.34705000  0.34705000  0.34367700  1
  Ta  Ta6  1  0.65295000  0.00000000  0.34367700  1
  Ta  Ta7  1  0.34705000  0.34705000  0.15632300  1
  Ta  Ta8  1  0.00000000  0.65295000  0.15632300  1
  Ta  Ta9  1  0.00000000  0.34705000  0.65632300  1
  Ta  Ta10  1  0.65295000  0.65295000  0.65632300  1
  Ta  Ta11  1  0.65295000  0.00000000  0.15632300  1
  O  O0  1  0.66666700  0.33333300  0.14595100  1
  O  O1  1  0.33333300  0.66666700  0.64595100  1
  O  O2  1  0.33333300  0.66666700  0.35404900  1
  O  O3  1  0.66666700  0.33333300  0.85404900  1
  O  O4  1  0.33333300  0.66666700  0.85404900  1
  O  O5  1  0.66666700  0.33333300  0.35404900  1
  O  O6  1  0.66666700  0.33333300  0.64595100  1
  O  O7  1  0.33333300  0.66666700  0.14595100  1
  O  O8  1  0.61921600  0.61921600  0.94282300  1
  O  O9  1  0.38078400  0.00000000  0.94282300  1
  O  O10  1  0.00000000  0.38078400  0.94282300  1
  O  O11  1  0.00000000  0.61921600  0.44282300  1
  O  O12  1  0.38078400  0.00000000  0.55717700  1
  O  O13  1  0.38078400  0.38078400  0.44282300  1
  O  O14  1  0.61921600  0.00000000  0.44282300  1
  O  O15  1  0.38078400  0.38078400  0.05717700  1
  O  O16  1  0.23640800  0.00000000  0.15646600  1
  O  O17  1  0.23640800  0.23640800  0.65646600  1
  O  O18  1  0.00000000  0.76359200  0.65646600  1
  O  O19  1  0.00000000  0.23640800  0.15646600  1
  O  O20  1  0.76359200  0.76359200  0.15646600  1
  O  O21  1  0.23640800  0.00000000  0.34353400  1
  O  O22  1  0.76359200  0.76359200  0.34353400  1
  O  O23  1  0.76359200  0.00000000  0.65646600  1
  O  O24  1  0.00000000  0.23640800  0.34353400  1
  O  O25  1  0.00000000  0.76359200  0.84353400  1
  O  O26  1  0.76359200  0.00000000  0.84353400  1
  O  O27  1  0.23640800  0.23640800  0.84353400  1
  O  O28  1  0.59701000  0.00000000  0.25000000  1
  O  O29  1  0.59701000  0.59701000  0.75000000  1
  O  O30  1  0.00000000  0.40299000  0.75000000  1
  O  O31  1  0.00000000  0.59701000  0.25000000  1
  O  O32  1  0.40299000  0.40299000  0.25000000  1
  O  O33  1  0.40299000  0.00000000  0.75000000  1
  O  O34  1  0.61921600  0.00000000  0.05717700  1
  O  O35  1  0.61921600  0.61921600  0.55717700  1
  O  O36  1  0.00000000  0.38078400  0.55717700  1
  O  O37  1  0.00000000  0.61921600  0.05717700  1
loop_
_geom_bond_atom_site_label_1
_geom_bond_atom_site_label_2
_geom_bond_distance
_geom_bond_site_symmetry_2
O0 Ta11 2.113878 1_555
O0 Ta8 2.113881 1_655
O0 Ta7 2.113885 1_555
O1 Ta4 2.113878 1_565
O1 Ta9 2.113881 1_555
O1 Ta10 2.113885 1_555
O2 Ta3 2.113878 1_555
O2 Ta6 2.113881 1_565
O2 Ta5 2.113885 1_555
O3 Ta2 2.113878 1_655
O3 Ta1 2.113881 1_555
O3 Ta0 2.113885 1_555
O4 Ta1 2.113878 1_565
O4 Ta2 2.113881 1_555
O4 Ta0 2.113885 1_555
O5 Ta6 2.113878 1_555
O5 Ta3 2.113881 1_655
O5 Ta5 2.113885 1_555
O6 Ta9 2.113878 1_655
O6 Ta4 2.113881 1_555
O6 Ta10 2.113885 1_555
O7 Ta8 2.113878 1_555
O7 Ta11 2.113881 1_565
O7 Ta7 2.113885 1_555
O8 Ta0 2.014258 1_555
O8 Th1 2.318975 1_556
O8 Th3 2.318975 1_556
O9 Ta1 2.014258 1_555
O9 Th3 2.318970 1_546
O9 Th1 2.318972 1_556
O10 Ta2 2.014258 1_555
O10 Th1 2.318970 1_456
O10 Th3 2.318972 1_556
O11 Ta3 2.014258 1_555
O11 Th0 2.318970 1_555
O11 Th2 2.318972 1_455
O12 Ta4 2.014258 1_555
O12 Th0 2.318970 1_545
O12 Th2 2.318972 1_555
O13 Ta5 2.014258 1_555
O13 Th2 2.318975 1_555
O13 Th0 2.318975 1_555
O14 Ta6 2.014258 1_555
O14 Th2 2.318970 1_555
O14 Th0 2.318972 1_545
O15 Ta7 2.014258 1_555
O15 Th1 2.318975 1_555
O15 Th3 2.318975 1_555
O16 Ta8 1.977091 1_545
O16 Ta7 1.977091 1_555
O17 Ta4 1.977091 1_555
O17 Ta9 1.977091 1_555
O18 Ta4 1.977091 1_565
O18 Ta10 1.977091 1_455
O19 Ta11 1.977091 1_455
O19 Ta7 1.977091 1_555
O20 Ta11 1.977091 1_565
O20 Ta8 1.977091 1_655
O21 Ta3 1.977091 1_545
O21 Ta5 1.977091 1_555
O22 Ta3 1.977091 1_655
O22 Ta6 1.977091 1_565
O23 Ta9 1.977091 1_655
O23 Ta10 1.977091 1_545
O24 Ta6 1.977091 1_455
O24 Ta5 1.977091 1_555
O25 Ta1 1.977091 1_565
O25 Ta0 1.977091 1_455
O26 Ta2 1.977091 1_655
O26 Ta0 1.977091 1_545
O27 Ta1 1.977091 1_555
O27 Ta2 1.977091 1_555
O28 Ta11 1.926030 1_555
O28 Ta6 1.926030 1_555
O29 Ta10 1.926030 1_555
O29 Ta0 1.926030 1_555
O30 Ta2 1.926030 1_555
O30 Ta9 1.926030 1_555
O31 Ta3 1.926030 1_555
O31 Ta8 1.926030 1_555
O32 Ta7 1.926030 1_555
O32 Ta5 1.926030 1_555
O33 Ta1 1.926030 1_555
O33 Ta4 1.926030 1_555
O34 Ta11 2.014258 1_555
O34 Th1 2.318970 1_555
O34 Th3 2.318972 1_545
O35 Ta10 2.014258 1_555
O35 Th2 2.318975 1_555
O35 Th0 2.318975 1_555
O36 Ta9 2.014258 1_555
O36 Th2 2.318970 1_455
O36 Th0 2.318972 1_555
O37 Ta8 2.014258 1_555
O37 Th3 2.318970 1_555
O37 Th1 2.318972 1_455
