# generated using pymatgen
data_Er3P4Pd7
_symmetry_space_group_name_H-M   'P 1'
_cell_length_a   3.96696964
_cell_length_b   7.86543449
_cell_length_c   8.14547229
_cell_angle_alpha   71.27540865
_cell_angle_beta   75.90635503
_cell_angle_gamma   75.39360478
_symmetry_Int_Tables_number   1
_chemical_formula_structural   Er3P4Pd7
_chemical_formula_sum   'Er3 P4 Pd7'
_cell_volume   229.23033176
_cell_formula_units_Z   1
loop_
 _symmetry_equiv_pos_site_id
 _symmetry_equiv_pos_as_xyz
  1  'x, y, z'
loop_
 _atom_site_type_symbol
 _atom_site_label
 _atom_site_symmetry_multiplicity
 _atom_site_fract_x
 _atom_site_fract_y
 _atom_site_fract_z
 _atom_site_occupancy
  Er  Er0  1  0.50000000  0.50000000  0.50000000  1
  Er  Er1  1  0.18020190  0.81544462  0.82415159  1
  Er  Er2  1  0.81979810  0.18455538  0.17584841  1
  P  P0  1  0.60595092  0.10685574  0.68124143  1
  P  P1  1  0.39404908  0.89314426  0.31875857  1
  P  P2  1  0.15850765  0.43400460  0.24897711  1
  P  P3  1  0.84149235  0.56599540  0.75102289  1
  Pd  Pd0  1  0.33210890  0.41482427  0.92095792  1
  Pd  Pd1  1  0.99017668  0.23504376  0.78460288  1
  Pd  Pd2  1  0.00982332  0.76495624  0.21539712  1
  Pd  Pd3  1  0.50000000  -0.00000000  0.00000000  1
  Pd  Pd4  1  0.80406221  0.86079127  0.53108430  1
  Pd  Pd5  1  0.19593779  0.13920873  0.46891570  1
  Pd  Pd6  1  0.66789110  0.58517573  0.07904208  1
loop_
_geom_bond_atom_site_label_1
_geom_bond_atom_site_label_2
_geom_bond_distance
_geom_bond_site_symmetry_2
Er0 P1 2.938341 1_555
Er0 P0 2.938341 1_555
Er0 P2 2.944569 1_655
Er0 P3 2.944569 1_455
Er0 P3 2.944576 1_555
Er0 P2 2.944576 1_555
Er0 Pd6 3.207450 1_555
Er0 Pd0 3.207450 1_555
Er0 Pd2 3.247783 1_555
Er0 Pd1 3.247783 1_555
Er0 Pd1 3.247784 1_455
Er0 Pd2 3.247784 1_655
Er0 Pd4 3.450865 1_555
Er0 Pd5 3.450865 1_555
Er0 Pd5 3.450865 1_655
Er0 Pd4 3.450865 1_455
Er1 P3 2.911964 1_455
Er1 P3 2.911973 1_555
Er1 Pd0 2.931297 1_555
Er1 P0 2.956868 1_565
Er1 P0 2.956870 1_465
Er1 Pd3 2.986133 1_566
Er1 Pd3 2.986133 1_466
Er1 Pd4 2.995319 1_455
Er1 Pd4 2.995319 1_555
Er1 Pd2 3.007415 1_556
Er1 Pd6 3.018025 1_556
Er1 Pd6 3.018026 1_456
Er1 Pd1 3.121714 1_465
Er1 Pd5 3.181633 1_565
Er2 P2 2.911964 1_655
Er2 P2 2.911973 1_555
Er2 Pd6 2.931297 1_555
Er2 P1 2.956868 1_545
Er2 P1 2.956870 1_645
Er2 Pd3 2.986133 1_555
Er2 Pd3 2.986133 1_655
Er2 Pd5 2.995319 1_655
Er2 Pd5 2.995319 1_555
Er2 Pd1 3.007415 1_554
Er2 Pd0 3.018025 1_554
Er2 Pd0 3.018026 1_654
Er2 Pd2 3.121714 1_645
Er2 Pd4 3.181633 1_545
P0 Pd3 2.422840 1_556
P0 Pd1 2.448204 1_455
P0 Pd1 2.448207 1_555
P0 Pd4 2.478701 1_545
P0 Pd5 2.565173 1_555
P0 Pd5 2.565176 1_655
P1 Pd3 2.422840 1_565
P1 Pd2 2.448204 1_655
P1 Pd2 2.448207 1_555
P1 Pd5 2.478701 1_565
P1 Pd4 2.565173 1_555
P1 Pd4 2.565176 1_455
P2 Pd5 2.428332 1_555
P2 Pd2 2.458820 1_555
P2 Pd6 2.491164 1_455
P2 Pd6 2.491174 1_555
P2 Pd0 2.635563 1_554
P3 Pd4 2.428332 1_555
P3 Pd1 2.458820 1_555
P3 Pd0 2.491164 1_655
P3 Pd0 2.491174 1_555
P3 Pd6 2.635563 1_556
Pd0 Pd1 2.789717 1_455
Pd0 Pd1 2.789717 1_555
Pd0 Pd6 2.840943 1_556
Pd0 Pd6 2.840943 1_456
Pd0 Pd3 3.044324 1_556
Pd1 Pd5 2.785426 1_655
Pd1 Pd3 2.888988 1_656
Pd1 Pd3 2.888989 1_556
Pd2 Pd4 2.785426 1_455
Pd2 Pd6 2.789717 1_455
Pd2 Pd6 2.789717 1_555
Pd2 Pd3 2.888988 1_465
Pd2 Pd3 2.888989 1_565
Pd3 Pd6 3.044324 1_545
Pd4 Pd5 2.844334 1_565
Pd4 Pd5 2.844334 1_665
