# generated using pymatgen
data_TmMgAg2
_symmetry_space_group_name_H-M   'P 1'
_cell_length_a   4.86471970
_cell_length_b   4.86471970
_cell_length_c   4.86471970
_cell_angle_alpha   60.00000000
_cell_angle_beta   60.00000000
_cell_angle_gamma   60.00000000
_symmetry_Int_Tables_number   1
_chemical_formula_structural   TmMgAg2
_chemical_formula_sum   'Tm1 Mg1 Ag2'
_cell_volume   81.40638471
_cell_formula_units_Z   1
loop_
 _symmetry_equiv_pos_site_id
 _symmetry_equiv_pos_as_xyz
  1  'x, y, z'
loop_
 _atom_site_type_symbol
 _atom_site_label
 _atom_site_symmetry_multiplicity
 _atom_site_fract_x
 _atom_site_fract_y
 _atom_site_fract_z
 _atom_site_occupancy
  Tm  Tm0  1  0.75000100  0.75000100  0.75000100  1
  Mg  Mg0  1  0.25000000  0.25000000  0.25000000  1
  Ag  Ag0  1  0.50000000  0.50000000  0.50000000  1
  Ag  Ag1  1  0.00000000  -0.00000000  0.00000000  1
loop_
_geom_bond_atom_site_label_1
_geom_bond_atom_site_label_2
_geom_bond_distance
_geom_bond_site_symmetry_2
Ag0 Tm0 2.979016 1_554
Ag0 Tm0 2.979016 1_455
Ag0 Tm0 2.979016 1_545
Ag0 Mg0 2.979020 1_655
Ag0 Mg0 2.979020 1_565
Ag0 Mg0 2.979020 1_556
Ag0 Mg0 2.979020 1_555
Ag0 Tm0 2.979032 1_555
Ag1 Tm0 2.979008 1_444
Ag1 Mg0 2.979020 1_455
Ag1 Mg0 2.979020 1_554
Ag1 Mg0 2.979020 1_545
Ag1 Mg0 2.979020 1_555
Ag1 Tm0 2.979024 1_544
Ag1 Tm0 2.979024 1_454
Ag1 Tm0 2.979024 1_445
