# generated using pymatgen
data_Li3Pt
_symmetry_space_group_name_H-M   'P 1'
_cell_length_a   4.57913988
_cell_length_b   4.57913988
_cell_length_c   4.57913988
_cell_angle_alpha   129.19664734
_cell_angle_beta   129.19664734
_cell_angle_gamma   74.69436505
_symmetry_Int_Tables_number   1
_chemical_formula_structural   Li3Pt
_chemical_formula_sum   'Li3 Pt1'
_cell_volume   56.18255776
_cell_formula_units_Z   1
loop_
 _symmetry_equiv_pos_site_id
 _symmetry_equiv_pos_as_xyz
  1  'x, y, z'
loop_
 _atom_site_type_symbol
 _atom_site_label
 _atom_site_symmetry_multiplicity
 _atom_site_fract_x
 _atom_site_fract_y
 _atom_site_fract_z
 _atom_site_occupancy
  Li  Li0  1  0.75000000  0.25000000  0.50000000  1
  Li  Li1  1  0.25000000  0.75000000  0.50000000  1
  Li  Li2  1  0.50000000  0.50000000  0.00000000  1
  Pt  Pt0  1  0.00000000  0.00000000  0.00000000  1
loop_
_geom_bond_atom_site_label_1
_geom_bond_atom_site_label_2
_geom_bond_distance
_geom_bond_site_symmetry_2
Li0 Li2 2.677932 1_556
Li0 Li2 2.677932 1_555
Li0 Pt0 2.677932 1_656
Li0 Pt0 2.677932 1_666
Li0 Li2 2.677932 1_545
Li0 Pt0 2.677932 1_655
Li0 Pt0 2.677932 1_555
Li0 Li2 2.677932 1_656
Li0 Li1 2.777904 1_645
Li0 Li1 2.777904 1_555
Li0 Li1 2.777904 1_544
Li0 Li1 2.777904 1_656
Li1 Li2 2.677932 1_556
Li1 Li2 2.677932 1_555
Li1 Pt0 2.677932 1_565
Li1 Li2 2.677932 1_566
Li1 Pt0 2.677932 1_666
Li1 Pt0 2.677932 1_566
Li1 Pt0 2.677932 1_555
Li1 Li2 2.677932 1_455
Li2 Pt0 2.777904 1_565
Li2 Pt0 2.777904 1_666
Li2 Pt0 2.777904 1_554
Li2 Pt0 2.777904 1_655
