# generated using pymatgen
data_KDy(CO3)2
_symmetry_space_group_name_H-M   'P 1'
_cell_length_a   6.42229724
_cell_length_b   6.42229724
_cell_length_c   7.06981103
_cell_angle_alpha   76.63431012
_cell_angle_beta   76.63431012
_cell_angle_gamma   97.16810675
_symmetry_Int_Tables_number   1
_chemical_formula_structural   KDy(CO3)2
_chemical_formula_sum   'K2 Dy2 C4 O12'
_cell_volume   271.08188693
_cell_formula_units_Z   2
loop_
 _symmetry_equiv_pos_site_id
 _symmetry_equiv_pos_as_xyz
  1  'x, y, z'
loop_
 _atom_site_type_symbol
 _atom_site_label
 _atom_site_symmetry_multiplicity
 _atom_site_fract_x
 _atom_site_fract_y
 _atom_site_fract_z
 _atom_site_occupancy
  K  K0  1  0.88060900  0.11939100  0.75000000  1
  K  K1  1  0.11939100  0.88060900  0.25000000  1
  Dy  Dy0  1  0.40757600  0.59242400  0.75000000  1
  Dy  Dy1  1  0.59242400  0.40757600  0.25000000  1
  C  C0  1  0.60334400  0.85612600  0.25120900  1
  C  C1  1  0.14387400  0.39665600  0.24879100  1
  C  C2  1  0.39665600  0.14387400  0.74879100  1
  C  C3  1  0.85612600  0.60334400  0.75120900  1
  O  O0  1  0.05627500  0.59209200  0.73406600  1
  O  O1  1  0.40790800  0.94372500  0.76593400  1
  O  O2  1  0.94372500  0.40790800  0.26593400  1
  O  O3  1  0.59209200  0.05627500  0.23406600  1
  O  O4  1  0.79227300  0.74255500  0.62301400  1
  O  O5  1  0.25744500  0.20772700  0.87698600  1
  O  O6  1  0.20772700  0.25744500  0.37698600  1
  O  O7  1  0.74255500  0.79227300  0.12301400  1
  O  O8  1  0.69982800  0.46591100  0.89889000  1
  O  O9  1  0.53408900  0.30017200  0.60111000  1
  O  O10  1  0.30017200  0.53408900  0.10111000  1
  O  O11  1  0.46591100  0.69982800  0.39889000  1
loop_
_geom_bond_atom_site_label_1
_geom_bond_atom_site_label_2
_geom_bond_distance
_geom_bond_site_symmetry_2
K0 O5 2.807548 1_655
K0 O4 2.807548 1_545
K0 O6 2.836706 1_655
K0 O7 2.836706 1_546
K0 O8 2.927711 1_555
K0 O9 2.927711 1_555
K0 O0 3.070849 1_655
K0 O1 3.070849 1_545
K1 O6 2.807548 1_565
K1 O7 2.807548 1_455
K1 O4 2.836706 1_455
K1 O5 2.836706 1_564
K1 O11 2.927711 1_555
K1 O10 2.927711 1_555
K1 O3 3.070849 1_565
K1 O2 3.070849 1_455
Dy0 O1 2.284593 1_555
Dy0 O0 2.284593 1_555
Dy0 O10 2.343462 1_556
Dy0 O11 2.343462 1_555
Dy0 O5 2.412369 1_555
Dy0 O4 2.412369 1_555
Dy0 O9 2.487899 1_555
Dy0 O8 2.487899 1_555
Dy1 O2 2.284593 1_555
Dy1 O3 2.284593 1_555
Dy1 O9 2.343462 1_555
Dy1 O8 2.343462 1_554
Dy1 O7 2.412369 1_555
Dy1 O6 2.412369 1_555
Dy1 O10 2.487899 1_555
Dy1 O11 2.487899 1_555
C0 O3 1.275700 1_565
C0 O7 1.295227 1_555
C0 O11 1.320999 1_555
C1 O2 1.275700 1_455
C1 O6 1.295227 1_555
C1 O10 1.320999 1_555
C2 O1 1.275700 1_545
C2 O5 1.295227 1_555
C2 O9 1.320999 1_555
C3 O0 1.275700 1_655
C3 O4 1.295227 1_555
C3 O8 1.320999 1_555
