# generated using pymatgen
data_Sr4Li(BN2)3
_symmetry_space_group_name_H-M   'P 1'
_cell_length_a   6.48922708
_cell_length_b   6.48922708
_cell_length_c   6.48922708
_cell_angle_alpha   109.47122063
_cell_angle_beta   109.47122063
_cell_angle_gamma   109.47122063
_symmetry_Int_Tables_number   1
_chemical_formula_structural   Sr4Li(BN2)3
_chemical_formula_sum   'Sr4 Li1 B3 N6'
_cell_volume   210.35702703
_cell_formula_units_Z   1
loop_
 _symmetry_equiv_pos_site_id
 _symmetry_equiv_pos_as_xyz
  1  'x, y, z'
loop_
 _atom_site_type_symbol
 _atom_site_label
 _atom_site_symmetry_multiplicity
 _atom_site_fract_x
 _atom_site_fract_y
 _atom_site_fract_z
 _atom_site_occupancy
  Sr  Sr0  1  0.50000000  0.00000000  0.00000000  1
  Sr  Sr1  1  0.00000000  0.00000000  0.50000000  1
  Sr  Sr2  1  0.50000000  0.50000000  0.50000000  1
  Sr  Sr3  1  0.00000000  0.50000000  0.00000000  1
  Li  Li0  1  0.00000000  0.00000000  0.00000000  1
  B  B0  1  0.50000000  0.50000000  0.00000000  1
  B  B1  1  0.00000000  0.50000000  0.50000000  1
  B  B2  1  0.50000000  0.00000000  0.50000000  1
  N  N0  1  0.00000000  0.68022000  0.68022000  1
  N  N1  1  0.31978000  0.31978000  0.00000000  1
  N  N2  1  0.00000000  0.31978000  0.31978000  1
  N  N3  1  0.31978000  0.00000000  0.31978000  1
  N  N4  1  0.68022000  0.00000000  0.68022000  1
  N  N5  1  0.68022000  0.68022000  0.00000000  1
loop_
_geom_bond_atom_site_label_1
_geom_bond_atom_site_label_2
_geom_bond_distance
_geom_bond_site_symmetry_2
Li0 N0 2.396148 1_544
Li0 N5 2.396148 1_445
Li0 N4 2.396148 1_454
Li0 N2 2.396148 1_555
Li0 N3 2.396148 1_555
Li0 N1 2.396148 1_555
B0 N1 1.350409 1_555
B0 N5 1.350409 1_555
B1 N2 1.350409 1_555
B1 N0 1.350409 1_555
B2 N3 1.350409 1_555
B2 N4 1.350409 1_555
N0 Sr1 2.700322 1_565
N0 Sr0 2.700322 1_566
N0 Sr3 2.700322 1_556
N0 Sr2 2.700322 1_455
N1 Sr2 2.700322 1_555
N1 Sr3 2.700322 1_555
N1 Sr0 2.700322 1_555
N1 Sr1 2.700322 1_554
N2 Sr0 2.700322 1_455
N2 Sr1 2.700322 1_555
N2 Sr2 2.700322 1_555
N2 Sr3 2.700322 1_555
N3 Sr0 2.700322 1_555
N3 Sr1 2.700322 1_555
N3 Sr3 2.700322 1_545
N3 Sr2 2.700322 1_555
N4 Sr2 2.700322 1_545
N4 Sr0 2.700322 1_556
N4 Sr3 2.700322 1_656
N4 Sr1 2.700322 1_655
N5 Sr0 2.700322 1_565
N5 Sr2 2.700322 1_554
N5 Sr1 2.700322 1_665
N5 Sr3 2.700322 1_655
