# generated using pymatgen
data_Cr(GaS2)2
_symmetry_space_group_name_H-M   'P 1'
_cell_length_a   3.70012813
_cell_length_b   3.70012813
_cell_length_c   12.08947800
_cell_angle_alpha   90.00000000
_cell_angle_beta   90.00000000
_cell_angle_gamma   120.00000240
_symmetry_Int_Tables_number   1
_chemical_formula_structural   Cr(GaS2)2
_chemical_formula_sum   'Cr1 Ga2 S4'
_cell_volume   143.34141854
_cell_formula_units_Z   1
loop_
 _symmetry_equiv_pos_site_id
 _symmetry_equiv_pos_as_xyz
  1  'x, y, z'
loop_
 _atom_site_type_symbol
 _atom_site_label
 _atom_site_symmetry_multiplicity
 _atom_site_fract_x
 _atom_site_fract_y
 _atom_site_fract_z
 _atom_site_occupancy
  Cr  Cr0  1  0.00000000  0.00000000  0.00000000  1
  Ga  Ga0  1  0.33333300  0.66666700  0.29266300  1
  Ga  Ga1  1  0.66666700  0.33333300  0.70733700  1
  S  S0  1  0.33333300  0.66666700  0.10365600  1
  S  S1  1  0.66666700  0.33333300  0.89634400  1
  S  S2  1  0.33333300  0.66666700  0.62467600  1
  S  S3  1  0.66666700  0.33333300  0.37532400  1
loop_
_geom_bond_atom_site_label_1
_geom_bond_atom_site_label_2
_geom_bond_distance
_geom_bond_site_symmetry_2
Cr0 S0 2.476695 1_545
Cr0 S1 2.476695 1_454
Cr0 S0 2.476698 1_555
Cr0 S0 2.476698 1_445
Cr0 S1 2.476698 1_554
Cr0 S1 2.476698 1_444
Ga0 S0 2.284996 1_555
Ga0 S3 2.358452 1_455
Ga0 S3 2.358452 1_565
Ga0 S3 2.358458 1_555
Ga1 S1 2.284996 1_555
Ga1 S2 2.358452 1_545
Ga1 S2 2.358452 1_655
Ga1 S2 2.358458 1_555
