# generated using pymatgen
data_MgScCd2
_symmetry_space_group_name_H-M   'P 1'
_cell_length_a   4.90932780
_cell_length_b   4.90932780
_cell_length_c   4.90932780
_cell_angle_alpha   60.00000000
_cell_angle_beta   60.00000000
_cell_angle_gamma   60.00000000
_symmetry_Int_Tables_number   1
_chemical_formula_structural   MgScCd2
_chemical_formula_sum   'Mg1 Sc1 Cd2'
_cell_volume   83.66640270
_cell_formula_units_Z   1
loop_
 _symmetry_equiv_pos_site_id
 _symmetry_equiv_pos_as_xyz
  1  'x, y, z'
loop_
 _atom_site_type_symbol
 _atom_site_label
 _atom_site_symmetry_multiplicity
 _atom_site_fract_x
 _atom_site_fract_y
 _atom_site_fract_z
 _atom_site_occupancy
  Mg  Mg0  1  0.25000000  0.25000000  0.25000000  1
  Sc  Sc0  1  0.75000000  0.75000000  0.75000000  1
  Cd  Cd0  1  0.50000100  0.50000100  0.50000100  1
  Cd  Cd1  1  -0.00000000  0.00000000  -0.00000000  1
loop_
_geom_bond_atom_site_label_1
_geom_bond_atom_site_label_2
_geom_bond_distance
_geom_bond_site_symmetry_2
Cd0 Sc0 3.006325 1_555
Cd0 Mg0 3.006333 1_655
Cd0 Mg0 3.006333 1_556
Cd0 Mg0 3.006333 1_565
Cd0 Sc0 3.006341 1_554
Cd0 Sc0 3.006341 1_455
Cd0 Sc0 3.006341 1_545
Cd0 Mg0 3.006349 1_555
Cd1 Sc0 3.006337 1_445
Cd1 Mg0 3.006337 1_545
Cd1 Sc0 3.006337 1_444
Cd1 Sc0 3.006337 1_454
Cd1 Mg0 3.006337 1_554
Cd1 Mg0 3.006337 1_555
Cd1 Mg0 3.006337 1_455
Cd1 Sc0 3.006337 1_544
