# generated using pymatgen
data_Nd3I
_symmetry_space_group_name_H-M   'P 1'
_cell_length_a   7.08348032
_cell_length_b   7.08348032
_cell_length_c   5.80516200
_cell_angle_alpha   90.00000000
_cell_angle_beta   90.00000000
_cell_angle_gamma   120.00000302
_symmetry_Int_Tables_number   1
_chemical_formula_structural   Nd3I
_chemical_formula_sum   'Nd6 I2'
_cell_volume   252.25416513
_cell_formula_units_Z   2
loop_
 _symmetry_equiv_pos_site_id
 _symmetry_equiv_pos_as_xyz
  1  'x, y, z'
loop_
 _atom_site_type_symbol
 _atom_site_label
 _atom_site_symmetry_multiplicity
 _atom_site_fract_x
 _atom_site_fract_y
 _atom_site_fract_z
 _atom_site_occupancy
  Nd  Nd0  1  0.83348500  0.16651500  0.75000000  1
  Nd  Nd1  1  0.33303100  0.16651500  0.75000000  1
  Nd  Nd2  1  0.83348500  0.66696900  0.75000000  1
  Nd  Nd3  1  0.16651500  0.83348500  0.25000000  1
  Nd  Nd4  1  0.66696900  0.83348500  0.25000000  1
  Nd  Nd5  1  0.16651500  0.33303100  0.25000000  1
  I  I0  1  0.66666700  0.33333300  0.25000000  1
  I  I1  1  0.33333300  0.66666700  0.75000000  1
loop_
_geom_bond_atom_site_label_1
_geom_bond_atom_site_label_2
_geom_bond_distance
_geom_bond_site_symmetry_2
I0 Nd5 3.541734 1_655
I0 Nd4 3.541734 1_545
I0 Nd3 3.541740 1_655
I0 Nd3 3.541740 1_545
I0 Nd4 3.541748 1_555
I0 Nd5 3.541748 1_555
I0 Nd2 3.551603 1_554
I0 Nd2 3.551603 1_555
I0 Nd1 3.551603 1_554
I0 Nd1 3.551603 1_555
I0 Nd0 3.551603 1_555
I0 Nd0 3.551603 1_554
I1 Nd1 3.541734 1_565
I1 Nd2 3.541734 1_455
I1 Nd0 3.541740 1_565
I1 Nd0 3.541740 1_455
I1 Nd2 3.541748 1_555
I1 Nd1 3.541748 1_555
I1 Nd4 3.551603 1_556
I1 Nd4 3.551603 1_555
I1 Nd5 3.551603 1_556
I1 Nd5 3.551603 1_555
I1 Nd3 3.551603 1_556
I1 Nd3 3.551603 1_555
