# generated using pymatgen
data_KZrCuSe3
_symmetry_space_group_name_H-M   'P 1'
_cell_length_a   7.72837802
_cell_length_b   7.72837802
_cell_length_c   10.24176800
_cell_angle_alpha   90.00000000
_cell_angle_beta   90.00000000
_cell_angle_gamma   150.71463646
_symmetry_Int_Tables_number   1
_chemical_formula_structural   KZrCuSe3
_chemical_formula_sum   'K2 Zr2 Cu2 Se6'
_cell_volume   299.22803644
_cell_formula_units_Z   2
loop_
 _symmetry_equiv_pos_site_id
 _symmetry_equiv_pos_as_xyz
  1  'x, y, z'
loop_
 _atom_site_type_symbol
 _atom_site_label
 _atom_site_symmetry_multiplicity
 _atom_site_fract_x
 _atom_site_fract_y
 _atom_site_fract_z
 _atom_site_occupancy
  K  K0  1  0.25072700  0.74927300  0.75000000  1
  K  K1  1  0.74927300  0.25072700  0.25000000  1
  Zr  Zr0  1  0.00000000  0.00000000  0.00000000  1
  Zr  Zr1  1  0.00000000  0.00000000  0.50000000  1
  Cu  Cu0  1  0.53148700  0.46851300  0.75000000  1
  Cu  Cu1  1  0.46851300  0.53148700  0.25000000  1
  Se  Se0  1  0.62240200  0.37759800  0.94592300  1
  Se  Se1  1  0.06829100  0.93170900  0.25000000  1
  Se  Se2  1  0.37759800  0.62240200  0.44592300  1
  Se  Se3  1  0.37759800  0.62240200  0.05407700  1
  Se  Se4  1  0.62240200  0.37759800  0.55407700  1
  Se  Se5  1  0.93170900  0.06829100  0.75000000  1
loop_
_geom_bond_atom_site_label_1
_geom_bond_atom_site_label_2
_geom_bond_distance
_geom_bond_site_symmetry_2
K0 Se5 3.337983 1_565
K0 Se5 3.337983 1_455
K0 Se0 3.395001 1_565
K0 Se0 3.395001 1_455
K0 Se4 3.395001 1_565
K0 Se4 3.395001 1_455
K0 Se3 3.646726 1_556
K0 Se2 3.646726 1_555
K1 Se1 3.337983 1_655
K1 Se1 3.337983 1_545
K1 Se2 3.395001 1_655
K1 Se2 3.395001 1_545
K1 Se3 3.395001 1_655
K1 Se3 3.395001 1_545
K1 Se4 3.646726 1_555
K1 Se0 3.646726 1_554
Cu0 Se0 2.423835 1_555
Cu0 Se4 2.423835 1_555
Cu0 Se5 2.458313 1_455
Cu0 Se5 2.458313 1_565
Cu1 Se2 2.423835 1_555
Cu1 Se3 2.423835 1_555
Cu1 Se1 2.458313 1_545
Cu1 Se1 2.458313 1_655
Se0 Zr0 2.733901 1_666
Se0 Zr0 2.733901 1_556
Se1 Zr0 2.756604 1_565
Se1 Zr1 2.756604 1_565
Se2 Zr1 2.733901 1_555
Se2 Zr1 2.733901 1_665
Se3 Zr0 2.733901 1_555
Se3 Zr0 2.733901 1_665
Se4 Zr1 2.733901 1_665
Se4 Zr1 2.733901 1_555
Se5 Zr0 2.756604 1_656
Se5 Zr1 2.756604 1_655
