# generated using pymatgen
data_LiAlPdF6
_symmetry_space_group_name_H-M   'P 1'
_cell_length_a   5.07464210
_cell_length_b   5.07464210
_cell_length_c   9.24640300
_cell_angle_alpha   90.00000000
_cell_angle_beta   90.00000000
_cell_angle_gamma   120.00000127
_symmetry_Int_Tables_number   1
_chemical_formula_structural   LiAlPdF6
_chemical_formula_sum   'Li2 Al2 Pd2 F12'
_cell_volume   206.21216411
_cell_formula_units_Z   2
loop_
 _symmetry_equiv_pos_site_id
 _symmetry_equiv_pos_as_xyz
  1  'x, y, z'
loop_
 _atom_site_type_symbol
 _atom_site_label
 _atom_site_symmetry_multiplicity
 _atom_site_fract_x
 _atom_site_fract_y
 _atom_site_fract_z
 _atom_site_occupancy
  Li  Li0  1  0.33333300  0.66666700  0.25000000  1
  Li  Li1  1  0.66666700  0.33333300  0.75000000  1
  Al  Al0  1  0.66666700  0.33333300  0.25000000  1
  Al  Al1  1  0.33333300  0.66666700  0.75000000  1
  Pd  Pd0  1  0.00000000  0.00000000  0.00000000  1
  Pd  Pd1  1  0.00000000  0.00000000  0.50000000  1
  F  F0  1  0.37246200  0.34316900  0.13905200  1
  F  F1  1  0.62753800  0.97070700  0.63905200  1
  F  F2  1  0.02929300  0.65683100  0.63905200  1
  F  F3  1  0.34316900  0.37246200  0.63905200  1
  F  F4  1  0.65683100  0.62753800  0.36094800  1
  F  F5  1  0.65683100  0.02929300  0.13905200  1
  F  F6  1  0.97070700  0.62753800  0.13905200  1
  F  F7  1  0.97070700  0.34316900  0.36094800  1
  F  F8  1  0.34316900  0.97070700  0.86094800  1
  F  F9  1  0.37246200  0.02929300  0.36094800  1
  F  F10  1  0.62753800  0.65683100  0.86094800  1
  F  F11  1  0.02929300  0.37246200  0.86094800  1
loop_
_geom_bond_atom_site_label_1
_geom_bond_atom_site_label_2
_geom_bond_distance
_geom_bond_site_symmetry_2
Al0 F7 1.832597 1_555
Al0 F5 1.832597 1_555
Al0 F9 1.832599 1_555
Al0 F6 1.832599 1_555
Al0 F4 1.832601 1_555
Al0 F0 1.832601 1_555
Al1 F8 1.832597 1_555
Al1 F2 1.832597 1_555
Al1 F1 1.832599 1_555
Al1 F11 1.832599 1_555
Al1 F3 1.832601 1_555
Al1 F10 1.832601 1_555
F0 Li0 2.027999 1_555
F0 Pd0 2.228622 1_555
F1 Li1 2.027995 1_565
F1 Pd1 2.228622 1_665
F2 Li1 2.027997 1_455
F2 Pd1 2.228622 1_565
F3 Li1 2.027999 1_555
F3 Pd1 2.228622 1_555
F4 Li0 2.027999 1_555
F4 Pd1 2.228622 1_665
F5 Li0 2.027997 1_545
F5 Pd0 2.228622 1_655
F6 Li0 2.027995 1_655
F6 Pd0 2.228622 1_665
F7 Li0 2.027997 1_655
F7 Pd1 2.228622 1_655
F8 Li1 2.027997 1_565
F8 Pd0 2.228622 1_566
F9 Li0 2.027995 1_545
F9 Pd1 2.228622 1_555
F10 Li1 2.027999 1_555
F10 Pd0 2.228622 1_666
F11 Li1 2.027995 1_455
F11 Pd0 2.228622 1_556
