# generated using pymatgen
data_TmFeGe2
_symmetry_space_group_name_H-M   'P 1'
_cell_length_a   8.61201714
_cell_length_b   8.61201714
_cell_length_c   4.16508400
_cell_angle_alpha   90.00000000
_cell_angle_beta   90.00000000
_cell_angle_gamma   152.67196757
_symmetry_Int_Tables_number   1
_chemical_formula_structural   TmFeGe2
_chemical_formula_sum   'Tm2 Fe2 Ge4'
_cell_volume   141.81623172
_cell_formula_units_Z   2
loop_
 _symmetry_equiv_pos_site_id
 _symmetry_equiv_pos_as_xyz
  1  'x, y, z'
loop_
 _atom_site_type_symbol
 _atom_site_label
 _atom_site_symmetry_multiplicity
 _atom_site_fract_x
 _atom_site_fract_y
 _atom_site_fract_z
 _atom_site_occupancy
  Tm  Tm0  1  0.89041200  0.10958800  0.75000000  1
  Tm  Tm1  1  0.10958800  0.89041200  0.25000000  1
  Fe  Fe0  1  0.67890300  0.32109700  0.75000000  1
  Fe  Fe1  1  0.32109700  0.67890300  0.25000000  1
  Ge  Ge0  1  0.54428600  0.45571400  0.75000000  1
  Ge  Ge1  1  0.45571400  0.54428600  0.25000000  1
  Ge  Ge2  1  0.25233600  0.74766400  0.75000000  1
  Ge  Ge3  1  0.74766400  0.25233600  0.25000000  1
loop_
_geom_bond_atom_site_label_1
_geom_bond_atom_site_label_2
_geom_bond_distance
_geom_bond_site_symmetry_2
Fe0 Ge0 2.253025 1_555
Fe0 Ge2 2.376817 1_545
Fe0 Ge2 2.376817 1_655
Fe0 Ge3 2.379364 1_555
Fe0 Ge3 2.379364 1_556
Fe0 Tm1 3.133940 1_545
Fe0 Tm1 3.133940 1_546
Fe0 Tm1 3.133940 1_655
Fe0 Tm1 3.133940 1_656
Fe1 Ge1 2.253025 1_555
Fe1 Ge3 2.376817 1_455
Fe1 Ge3 2.376817 1_565
Fe1 Ge2 2.379364 1_554
Fe1 Ge2 2.379364 1_555
Fe1 Tm0 3.133940 1_455
Fe1 Tm0 3.133940 1_454
Fe1 Tm0 3.133940 1_565
Fe1 Tm0 3.133940 1_564
Ge0 Ge1 2.556259 1_555
Ge0 Ge1 2.556259 1_556
Ge0 Tm1 3.109704 1_545
Ge0 Tm1 3.109704 1_546
Ge0 Tm1 3.109704 1_656
Ge0 Tm1 3.109704 1_655
Ge0 Tm0 3.281929 1_455
Ge0 Tm0 3.281929 1_565
Ge1 Tm0 3.109704 1_454
Ge1 Tm0 3.109704 1_455
Ge1 Tm0 3.109704 1_565
Ge1 Tm0 3.109704 1_564
Ge1 Tm1 3.281929 1_545
Ge1 Tm1 3.281929 1_655
Ge2 Tm0 3.078817 1_565
Ge2 Tm0 3.078817 1_455
Ge2 Tm1 3.169357 1_556
Ge2 Tm1 3.169357 1_555
Ge3 Tm1 3.078817 1_655
Ge3 Tm1 3.078817 1_545
Ge3 Tm0 3.169357 1_555
Ge3 Tm0 3.169357 1_554
