# generated using pymatgen
data_SmNi2B2C
_symmetry_space_group_name_H-M   'P 1'
_cell_length_a   5.69459577
_cell_length_b   5.69459577
_cell_length_c   5.69459577
_cell_angle_alpha   142.79605793
_cell_angle_beta   142.79605793
_cell_angle_gamma   53.63147486
_symmetry_Int_Tables_number   1
_chemical_formula_structural   SmNi2B2C
_chemical_formula_sum   'Sm1 Ni2 B2 C1'
_cell_volume   67.08072488
_cell_formula_units_Z   1
loop_
 _symmetry_equiv_pos_site_id
 _symmetry_equiv_pos_as_xyz
  1  'x, y, z'
loop_
 _atom_site_type_symbol
 _atom_site_label
 _atom_site_symmetry_multiplicity
 _atom_site_fract_x
 _atom_site_fract_y
 _atom_site_fract_z
 _atom_site_occupancy
  Sm  Sm0  1  0.00000000  0.00000000  0.00000000  1
  Ni  Ni0  1  0.75000000  0.25000000  0.50000000  1
  Ni  Ni1  1  0.25000000  0.75000000  0.50000000  1
  B  B0  1  0.35282800  0.35282800  0.00000000  1
  B  B1  1  0.64717200  0.64717200  0.00000000  1
  C  C0  1  0.50000000  0.50000000  0.00000000  1
loop_
_geom_bond_atom_site_label_1
_geom_bond_atom_site_label_2
_geom_bond_distance
_geom_bond_site_symmetry_2
B0 C0 1.495918 1_555
B0 Ni1 2.095757 1_555
B0 Ni0 2.095757 1_454
B0 Ni1 2.095757 1_544
B0 Ni0 2.095757 1_555
B1 C0 1.495918 1_555
B1 Ni0 2.095757 1_554
B1 Ni1 2.095757 1_554
B1 Ni0 2.095757 1_565
B1 Ni1 2.095757 1_655
C0 Sm0 2.568961 1_666
C0 Sm0 2.568961 1_554
C0 Sm0 2.568961 1_565
C0 Sm0 2.568961 1_655
