# generated using pymatgen
data_TbH3
_symmetry_space_group_name_H-M   'P 1'
_cell_length_a   6.35832169
_cell_length_b   6.35832282
_cell_length_c   6.63056653
_cell_angle_alpha   90.00000780
_cell_angle_beta   90.00000000
_cell_angle_gamma   119.99998350
_symmetry_Int_Tables_number   1
_chemical_formula_structural   TbH3
_chemical_formula_sum   'Tb6 H18'
_cell_volume   232.14878292
_cell_formula_units_Z   6
loop_
 _symmetry_equiv_pos_site_id
 _symmetry_equiv_pos_as_xyz
  1  'x, y, z'
loop_
 _atom_site_type_symbol
 _atom_site_label
 _atom_site_symmetry_multiplicity
 _atom_site_fract_x
 _atom_site_fract_y
 _atom_site_fract_z
 _atom_site_occupancy
  Tb  Tb0  1  0.00000066  0.66281087  0.24999977  1
  Tb  Tb1  1  0.33718913  0.33718879  0.24999977  1
  Tb  Tb2  1  0.66281021  0.00000034  0.24999977  1
  Tb  Tb3  1  0.66281187  0.66281121  0.75000023  1
  Tb  Tb4  1  -0.00000066  0.33718913  0.75000023  1
  Tb  Tb5  1  0.33718879  -0.00000034  0.75000023  1
  H  H0  1  0.67946008  0.64855544  0.09086079  1
  H  H1  1  0.35144456  0.03090464  0.09086079  1
  H  H2  1  0.96909536  0.32053992  0.09086079  1
  H  H3  1  0.33333300  0.66666700  0.18694879  1
  H  H4  1  0.00000000  0.00000100  0.24999871  1
  H  H5  1  0.66666600  0.33333300  0.31304888  1
  H  H6  1  0.03090547  0.35144573  0.40913936  1
  H  H7  1  0.64855427  0.67946074  0.40913936  1
  H  H8  1  0.32053926  0.96909453  0.40913936  1
  H  H9  1  0.67946074  0.03090647  0.59086064  1
  H  H10  1  0.35144573  0.32054026  0.59086064  1
  H  H11  1  0.96909453  0.64855427  0.59086064  1
  H  H12  1  0.33333400  0.66666700  0.68695112  1
  H  H13  1  -0.00000000  -0.00000000  0.75000029  1
  H  H14  1  0.66666700  0.33333400  0.81305121  1
  H  H15  1  0.03090464  0.67946008  0.90913921  1
  H  H16  1  0.64855544  0.96909536  0.90913921  1
  H  H17  1  0.32053992  0.35144456  0.90913921  1
loop_
_geom_bond_atom_site_label_1
_geom_bond_atom_site_label_2
_geom_bond_distance
_geom_bond_site_symmetry_2
H0 Tb0 2.256267 1_655
H0 Tb3 2.266509 1_554
H0 Tb1 2.336779 1_555
H0 Tb2 2.520837 1_565
H1 Tb1 2.256262 1_555
H1 Tb5 2.266509 1_554
H1 Tb2 2.336772 1_555
H1 Tb0 2.520832 1_545
H2 Tb2 2.256265 1_555
H2 Tb4 2.266509 1_654
H2 Tb0 2.336776 1_655
H2 Tb1 2.520834 1_655
H3 Tb0 2.148352 1_555
H3 Tb2 2.148358 1_565
H3 Tb1 2.148364 1_555
H4 Tb1 2.143953 1_555
H4 Tb2 2.143959 1_455
H4 Tb0 2.143966 1_545
H5 Tb1 2.148352 1_555
H5 Tb2 2.148353 1_555
H5 Tb0 2.148362 1_655
H6 Tb1 2.256265 1_555
H6 Tb4 2.266512 1_555
H6 Tb0 2.336773 1_555
H6 Tb2 2.520842 1_455
H7 Tb2 2.256263 1_565
H7 Tb3 2.266512 1_555
H7 Tb1 2.336780 1_555
H7 Tb0 2.520847 1_655
H8 Tb0 2.256260 1_555
H8 Tb5 2.266511 1_565
H8 Tb2 2.336776 1_565
H8 Tb1 2.520836 1_565
H9 Tb4 2.256257 1_655
H9 Tb2 2.266512 1_555
H9 Tb5 2.336779 1_555
H9 Tb3 2.520845 1_545
H10 Tb5 2.256266 1_555
H10 Tb1 2.266511 1_555
H10 Tb3 2.336779 1_555
H10 Tb4 2.520844 1_555
H11 Tb3 2.256260 1_555
H11 Tb0 2.266512 1_655
H11 Tb4 2.336773 1_655
H11 Tb5 2.520839 1_665
H12 Tb5 2.148356 1_565
H12 Tb3 2.148358 1_555
H12 Tb4 2.148362 1_555
H13 Tb3 2.143953 1_445
H13 Tb5 2.143956 1_555
H13 Tb4 2.143959 1_555
H14 Tb4 2.148355 1_655
H14 Tb3 2.148355 1_555
H14 Tb5 2.148365 1_555
H15 Tb5 2.256262 1_565
H15 Tb0 2.266509 1_556
H15 Tb4 2.336776 1_555
H15 Tb3 2.520828 1_455
H16 Tb3 2.256265 1_555
H16 Tb2 2.266509 1_566
H16 Tb5 2.336778 1_565
H16 Tb4 2.520832 1_665
H17 Tb4 2.256267 1_555
H17 Tb1 2.266509 1_556
H17 Tb3 2.336782 1_555
H17 Tb5 2.520834 1_555
