# generated using pymatgen
data_AgBiO2
_symmetry_space_group_name_H-M   'P 1'
_cell_length_a   3.55443000
_cell_length_b   6.23223000
_cell_length_c   6.87578964
_cell_angle_alpha   81.20002891
_cell_angle_beta   90.00000000
_cell_angle_gamma   90.00000000
_symmetry_Int_Tables_number   1
_chemical_formula_structural   AgBiO2
_chemical_formula_sum   'Ag2 Bi2 O4'
_cell_volume   150.51971112
_cell_formula_units_Z   2
loop_
 _symmetry_equiv_pos_site_id
 _symmetry_equiv_pos_as_xyz
  1  'x, y, z'
loop_
 _atom_site_type_symbol
 _atom_site_label
 _atom_site_symmetry_multiplicity
 _atom_site_fract_x
 _atom_site_fract_y
 _atom_site_fract_z
 _atom_site_occupancy
  Ag  Ag0  1  0.25000000  0.18626000  0.91022000  1
  Ag  Ag1  1  0.75000000  0.81374000  0.08978000  1
  Bi  Bi0  1  0.75000000  0.24706000  0.38798000  1
  Bi  Bi1  1  0.25000000  0.75294000  0.61202000  1
  O  O0  1  0.75000000  0.71183000  0.81290000  1
  O  O1  1  0.25000000  0.28817000  0.18710000  1
  O  O2  1  0.75000000  0.90259000  0.37588000  1
  O  O3  1  0.25000000  0.09741000  0.62412000  1
loop_
_geom_bond_atom_site_label_1
_geom_bond_atom_site_label_2
_geom_bond_distance
_geom_bond_site_symmetry_2
Ag0 O1 2.097065 1_556
Ag0 O3 2.123592 1_555
Ag1 O0 2.097065 1_554
Ag1 O2 2.123592 1_555
Bi0 O2 2.161109 1_545
Bi0 O1 2.241338 1_555
Bi0 O1 2.241338 1_655
Bi0 O3 2.490229 1_555
Bi0 O3 2.490229 1_655
Bi1 O3 2.161109 1_565
Bi1 O0 2.241338 1_455
Bi1 O0 2.241338 1_555
Bi1 O2 2.490229 1_555
Bi1 O2 2.490229 1_455
