# generated using pymatgen
data_KCaSiHO4
_symmetry_space_group_name_H-M   'P 1'
_cell_length_a   7.53915700
_cell_length_b   5.60810300
_cell_length_c   5.65630045
_cell_angle_alpha   61.40153414
_cell_angle_beta   90.00000000
_cell_angle_gamma   90.00000000
_symmetry_Int_Tables_number   1
_chemical_formula_structural   KCaSiHO4
_chemical_formula_sum   'K2 Ca2 Si2 H2 O8'
_cell_volume   209.97310672
_cell_formula_units_Z   2
loop_
 _symmetry_equiv_pos_site_id
 _symmetry_equiv_pos_as_xyz
  1  'x, y, z'
loop_
 _atom_site_type_symbol
 _atom_site_label
 _atom_site_symmetry_multiplicity
 _atom_site_fract_x
 _atom_site_fract_y
 _atom_site_fract_z
 _atom_site_occupancy
  K  K0  1  0.76682200  0.35419600  0.27919400  1
  K  K1  1  0.26682200  0.64580400  0.72080600  1
  Ca  Ca0  1  0.51506200  0.99519100  0.99295900  1
  Ca  Ca1  1  0.01506200  0.00480900  0.00704100  1
  Si  Si0  1  0.75458000  0.68109100  0.62455100  1
  Si  Si1  1  0.25458000  0.31890900  0.37544900  1
  H  H0  1  0.99746300  0.95989900  0.53511900  1
  H  H1  1  0.49746300  0.04010100  0.46488100  1
  O  O0  1  0.76197800  0.34898800  0.78405700  1
  O  O1  1  0.26197800  0.65101200  0.21594300  1
  O  O2  1  0.75976300  0.81241800  0.29440300  1
  O  O3  1  0.25976300  0.18758200  0.70559700  1
  O  O4  1  0.58962600  0.80886700  0.71804500  1
  O  O5  1  0.08962600  0.19113300  0.28195500  1
  O  O6  1  0.93770500  0.80843100  0.70635300  1
  O  O7  1  0.43770500  0.19156900  0.29364700  1
loop_
_geom_bond_atom_site_label_1
_geom_bond_atom_site_label_2
_geom_bond_distance
_geom_bond_site_symmetry_2
K0 O5 2.597226 1_655
K0 O2 2.612569 1_555
K0 O7 2.631307 1_555
K0 O0 2.814978 1_554
K0 O0 2.842027 1_555
K0 O2 2.998592 1_545
K0 O4 3.257731 1_554
K0 O6 3.278077 1_554
K1 O4 2.597226 1_555
K1 O3 2.612569 1_555
K1 O6 2.631307 1_455
K1 O1 2.814978 1_556
K1 O1 2.842027 1_555
K1 O3 2.998592 1_565
K1 O5 3.257731 1_556
K1 O7 3.278077 1_556
Ca0 O4 2.319790 1_555
Ca0 O2 2.384987 1_556
Ca0 O3 2.414909 1_565
Ca0 O7 2.497767 1_566
Ca0 O0 2.560050 1_565
Ca0 O1 2.574184 1_556
Ca1 O5 2.319790 1_555
Ca1 O3 2.384987 1_554
Ca1 O2 2.414909 1_445
Ca1 O6 2.497767 1_444
Ca1 O1 2.560050 1_545
Ca1 O0 2.574184 1_454
H0 O6 1.036818 1_555
H0 O5 1.561169 1_665
H0 K1 2.560993 1_655
H0 K0 2.635206 1_565
H1 O7 1.036818 1_555
H1 O4 1.561169 1_545
H1 K0 2.560993 1_555
H1 K1 2.635206 1_545
O0 Si0 1.636225 1_555
O1 Si1 1.636225 1_555
O2 Si0 1.647583 1_555
O3 Si1 1.647583 1_555
O4 Si0 1.643931 1_555
O5 Si1 1.643931 1_555
O6 Si0 1.716534 1_555
O7 Si1 1.716534 1_555
