# generated using pymatgen
data_Pr2ZnAg
_symmetry_space_group_name_H-M   'P 1'
_cell_length_a   5.28718450
_cell_length_b   5.28718377
_cell_length_c   5.28718377
_cell_angle_alpha   60.00002761
_cell_angle_beta   60.00005070
_cell_angle_gamma   59.99997691
_symmetry_Int_Tables_number   1
_chemical_formula_structural   Pr2ZnAg
_chemical_formula_sum   'Pr2 Zn1 Ag1'
_cell_volume   104.51014738
_cell_formula_units_Z   1
loop_
 _symmetry_equiv_pos_site_id
 _symmetry_equiv_pos_as_xyz
  1  'x, y, z'
loop_
 _atom_site_type_symbol
 _atom_site_label
 _atom_site_symmetry_multiplicity
 _atom_site_fract_x
 _atom_site_fract_y
 _atom_site_fract_z
 _atom_site_occupancy
  Pr  Pr0  1  -0.00000000  0.00000000  0.00000000  1
  Pr  Pr1  1  0.50000000  0.50000000  0.50000000  1
  Zn  Zn0  1  0.75000000  0.75000000  0.75000000  1
  Ag  Ag0  1  0.25000000  0.25000000  0.25000000  1
loop_
_geom_bond_atom_site_label_1
_geom_bond_atom_site_label_2
_geom_bond_distance
_geom_bond_site_symmetry_2
Pr0 Zn0 3.237725 1_454
Pr0 Zn0 3.237725 1_444
Pr0 Zn0 3.237727 1_544
Pr0 Zn0 3.237728 1_445
Pr1 Zn0 3.237725 1_545
Pr1 Zn0 3.237725 1_555
Pr1 Zn0 3.237727 1_455
Pr1 Zn0 3.237728 1_554
Ag0 Pr0 3.237725 1_565
Ag0 Pr1 3.237725 1_545
Ag0 Pr0 3.237725 1_555
Ag0 Pr1 3.237725 1_555
Ag0 Pr1 3.237727 1_455
Ag0 Pr0 3.237727 1_655
Ag0 Pr1 3.237728 1_554
Ag0 Pr0 3.237728 1_556
