# generated using pymatgen
data_TbAg3
_symmetry_space_group_name_H-M   'P 1'
_cell_length_a   5.17132272
_cell_length_b   5.17132272
_cell_length_c   5.17132272
_cell_angle_alpha   129.27523140
_cell_angle_beta   129.27523140
_cell_angle_gamma   74.56811614
_symmetry_Int_Tables_number   1
_chemical_formula_structural   TbAg3
_chemical_formula_sum   'Tb1 Ag3'
_cell_volume   80.75398034
_cell_formula_units_Z   1
loop_
 _symmetry_equiv_pos_site_id
 _symmetry_equiv_pos_as_xyz
  1  'x, y, z'
loop_
 _atom_site_type_symbol
 _atom_site_label
 _atom_site_symmetry_multiplicity
 _atom_site_fract_x
 _atom_site_fract_y
 _atom_site_fract_z
 _atom_site_occupancy
  Tb  Tb0  1  -0.00000000  0.00000000  -0.00000000  1
  Ag  Ag0  1  0.75000200  0.25000100  0.50000100  1
  Ag  Ag1  1  0.25000100  0.75000200  0.50000100  1
  Ag  Ag2  1  0.50000000  0.50000000  -0.00000000  1
loop_
_geom_bond_atom_site_label_1
_geom_bond_atom_site_label_2
_geom_bond_distance
_geom_bond_site_symmetry_2
Ag0 Ag2 3.023064 1_656
Ag0 Tb0 3.023067 1_666
Ag0 Tb0 3.023067 1_655
Ag0 Ag2 3.023070 1_555
Ag0 Tb0 3.023075 1_656
Ag0 Ag2 3.023078 1_545
Ag0 Ag2 3.023078 1_556
Ag0 Tb0 3.023081 1_555
Ag0 Ag1 3.132611 1_645
Ag0 Ag1 3.132617 1_544
Ag0 Ag1 3.132617 1_656
Ag0 Ag1 3.132623 1_555
Ag1 Ag2 3.023064 1_566
Ag1 Tb0 3.023067 1_565
Ag1 Tb0 3.023067 1_666
Ag1 Ag2 3.023070 1_555
Ag1 Tb0 3.023075 1_566
Ag1 Ag2 3.023078 1_455
Ag1 Ag2 3.023078 1_556
Ag1 Tb0 3.023081 1_555
Ag2 Tb0 3.132617 1_666
Ag2 Tb0 3.132617 1_655
Ag2 Tb0 3.132617 1_565
Ag2 Tb0 3.132617 1_554
