# generated using pymatgen
data_In3Au
_symmetry_space_group_name_H-M   'P 1'
_cell_length_a   5.80257460
_cell_length_b   5.80257460
_cell_length_c   5.80257460
_cell_angle_alpha   134.64793796
_cell_angle_beta   134.64793796
_cell_angle_gamma   66.07771930
_symmetry_Int_Tables_number   1
_chemical_formula_structural   In3Au
_chemical_formula_sum   'In3 Au1'
_cell_volume   97.36798060
_cell_formula_units_Z   1
loop_
 _symmetry_equiv_pos_site_id
 _symmetry_equiv_pos_as_xyz
  1  'x, y, z'
loop_
 _atom_site_type_symbol
 _atom_site_label
 _atom_site_symmetry_multiplicity
 _atom_site_fract_x
 _atom_site_fract_y
 _atom_site_fract_z
 _atom_site_occupancy
  In  In0  1  0.75000000  0.25000000  0.50000000  1
  In  In1  1  0.25000000  0.75000000  0.50000000  1
  In  In2  1  0.50000000  0.50000000  0.00000000  1
  Au  Au0  1  0.00000000  0.00000000  0.00000000  1
loop_
_geom_bond_atom_site_label_1
_geom_bond_atom_site_label_2
_geom_bond_distance
_geom_bond_site_symmetry_2
In0 In1 3.163608 1_645
In0 In1 3.163608 1_555
In0 In1 3.163608 1_544
In0 In1 3.163608 1_656
In0 In2 3.304478 1_656
In0 In2 3.304478 1_545
In0 In2 3.304478 1_556
In0 In2 3.304478 1_555
In1 In2 3.304478 1_455
In1 In2 3.304478 1_556
In1 In2 3.304478 1_555
In1 In2 3.304478 1_566
Au0 In2 3.163608 1_455
Au0 In2 3.163608 1_444
Au0 In2 3.163608 1_545
Au0 In2 3.163608 1_556
Au0 In1 3.304478 1_444
Au0 In0 3.304478 1_555
Au0 In1 3.304478 1_544
Au0 In1 3.304478 1_545
Au0 In0 3.304478 1_454
Au0 In0 3.304478 1_444
Au0 In0 3.304478 1_455
Au0 In1 3.304478 1_555
