# generated using pymatgen
data_SmAs2Au
_symmetry_space_group_name_H-M   'P 1'
_cell_length_a   4.04200278
_cell_length_b   4.04200278
_cell_length_c   10.34451017
_cell_angle_alpha   90.00000000
_cell_angle_beta   90.00000000
_cell_angle_gamma   89.99978971
_symmetry_Int_Tables_number   1
_chemical_formula_structural   SmAs2Au
_chemical_formula_sum   'Sm2 As4 Au2'
_cell_volume   169.00639829
_cell_formula_units_Z   2
loop_
 _symmetry_equiv_pos_site_id
 _symmetry_equiv_pos_as_xyz
  1  'x, y, z'
loop_
 _atom_site_type_symbol
 _atom_site_label
 _atom_site_symmetry_multiplicity
 _atom_site_fract_x
 _atom_site_fract_y
 _atom_site_fract_z
 _atom_site_occupancy
  Sm  Sm0  1  0.25000000  0.24999900  0.23129635  1
  Sm  Sm1  1  0.75000000  0.74999900  0.76870365  1
  As  As0  1  0.25000000  0.74999900  0.00000000  1
  As  As1  1  0.75000000  0.24999900  0.00000000  1
  As  As2  1  0.75000000  0.74999900  0.31686595  1
  As  As3  1  0.25000000  0.24999900  0.68313405  1
  Au  Au0  1  0.25000000  0.74999900  0.50000000  1
  Au  Au1  1  0.75000000  0.24999900  0.50000000  1
loop_
_geom_bond_atom_site_label_1
_geom_bond_atom_site_label_2
_geom_bond_distance
_geom_bond_site_symmetry_2
As0 As1 2.858122 1_555
As0 As1 2.858122 1_465
As0 As1 2.858133 1_455
As0 As1 2.858133 1_565
As0 Sm0 3.131966 1_565
As0 Sm1 3.131966 1_454
As0 Sm0 3.131966 1_555
As0 Sm1 3.131966 1_554
As1 Sm1 3.131966 1_544
As1 Sm0 3.131966 1_555
As1 Sm1 3.131966 1_554
As1 Sm0 3.131966 1_655
As2 Au0 2.770076 1_655
As2 Au1 2.770076 1_565
As2 Au0 2.770076 1_555
As2 Au1 2.770076 1_555
As2 Sm0 2.992056 1_655
As2 Sm0 2.992056 1_565
As2 Sm0 2.992066 1_555
As2 Sm0 2.992066 1_665
As3 Au0 2.770076 1_545
As3 Au1 2.770076 1_455
As3 Au0 2.770076 1_555
As3 Au1 2.770076 1_555
As3 Sm1 2.992056 1_545
As3 Sm1 2.992056 1_455
As3 Sm1 2.992066 1_555
As3 Sm1 2.992066 1_445
Au0 Au1 2.858122 1_555
Au0 Au1 2.858122 1_465
Au0 Au1 2.858133 1_455
Au0 Au1 2.858133 1_565
Au0 Sm1 3.436665 1_555
Au0 Sm1 3.436665 1_455
Au0 Sm0 3.436665 1_555
Au0 Sm0 3.436665 1_565
Au1 Sm0 3.436665 1_655
Au1 Sm1 3.436665 1_555
Au1 Sm1 3.436665 1_545
Au1 Sm0 3.436665 1_555
