# generated using pymatgen
data_NdSi
_symmetry_space_group_name_H-M   'P 1'
_cell_length_a   3.93734473
_cell_length_b   5.93561510
_cell_length_c   8.27752774
_cell_angle_alpha   90.00000000
_cell_angle_beta   90.00000000
_cell_angle_gamma   90.00000000
_symmetry_Int_Tables_number   1
_chemical_formula_structural   NdSi
_chemical_formula_sum   'Nd4 Si4'
_cell_volume   193.45048215
_cell_formula_units_Z   4
loop_
 _symmetry_equiv_pos_site_id
 _symmetry_equiv_pos_as_xyz
  1  'x, y, z'
loop_
 _atom_site_type_symbol
 _atom_site_label
 _atom_site_symmetry_multiplicity
 _atom_site_fract_x
 _atom_site_fract_y
 _atom_site_fract_z
 _atom_site_occupancy
  Nd  Nd0  1  0.25000000  0.38636963  0.67926218  1
  Nd  Nd1  1  0.75000000  0.61363037  0.32073782  1
  Nd  Nd2  1  0.75000000  0.88636963  0.82073782  1
  Nd  Nd3  1  0.25000000  0.11363037  0.17926218  1
  Si  Si0  1  0.25000000  0.87936154  0.53499440  1
  Si  Si1  1  0.75000000  0.12063846  0.46500560  1
  Si  Si2  1  0.75000000  0.37936154  0.96500560  1
  Si  Si3  1  0.25000000  0.62063846  0.03499440  1
loop_
_geom_bond_atom_site_label_1
_geom_bond_atom_site_label_2
_geom_bond_distance
_geom_bond_site_symmetry_2
Nd0 Si2 3.077630 1_555
Nd0 Si2 3.077630 1_455
Nd0 Si1 3.083639 1_455
Nd0 Si1 3.083639 1_555
Nd0 Si0 3.160502 1_555
Nd0 Si0 3.237682 1_545
Nd0 Si3 3.256400 1_556
Nd1 Si3 3.077630 1_555
Nd1 Si3 3.077630 1_655
Nd1 Si0 3.083639 1_655
Nd1 Si0 3.083639 1_555
Nd1 Si1 3.160502 1_555
Nd1 Si1 3.237682 1_565
Nd1 Si2 3.256400 1_554
Nd2 Si0 3.077630 1_655
Nd2 Si0 3.077630 1_555
Nd2 Si3 3.083639 1_656
Nd2 Si3 3.083639 1_556
Nd2 Si2 3.160502 1_565
Nd2 Si2 3.237682 1_555
Nd2 Si1 3.256400 1_565
Nd3 Si1 3.077630 1_455
Nd3 Si1 3.077630 1_555
Nd3 Si2 3.083639 1_554
Nd3 Si2 3.083639 1_454
Nd3 Si3 3.160502 1_545
Nd3 Si3 3.237682 1_555
Nd3 Si0 3.256400 1_545
Si0 Si1 2.502456 1_565
Si0 Si1 2.502456 1_465
Si2 Si3 2.502456 1_556
Si2 Si3 2.502456 1_656
