# generated using pymatgen
data_TmMg5
_symmetry_space_group_name_H-M   'P 1'
_cell_length_a   6.46310955
_cell_length_b   6.46310877
_cell_length_c   31.71699730
_cell_angle_alpha   89.99992307
_cell_angle_beta   90.00007516
_cell_angle_gamma   120.01460097
_symmetry_Int_Tables_number   1
_chemical_formula_structural   TmMg5
_chemical_formula_sum   'Tm8 Mg40'
_cell_volume   1147.20693276
_cell_formula_units_Z   8
loop_
 _symmetry_equiv_pos_site_id
 _symmetry_equiv_pos_as_xyz
  1  'x, y, z'
loop_
 _atom_site_type_symbol
 _atom_site_label
 _atom_site_symmetry_multiplicity
 _atom_site_fract_x
 _atom_site_fract_y
 _atom_site_fract_z
 _atom_site_occupancy
  Tm  Tm0_0  1  0.33333988  0.16666019  0.41647534  1
  Tm  Tm0_1  1  0.33333988  0.16666019  0.91647534  1
  Tm  Tm0_2  1  0.33333989  0.66666019  0.41647534  1
  Tm  Tm0_3  1  0.33333989  0.66666019  0.91647534  1
  Tm  Tm0_4  1  0.83333988  0.16666019  0.41647534  1
  Tm  Tm0_5  1  0.83333989  0.16666019  0.91647534  1
  Tm  Tm0_6  1  0.83333988  0.66666019  0.41647534  1
  Tm  Tm0_7  1  0.83333988  0.66666019  0.91647534  1
  Mg  Mg0_0  1  0.99999078  0.00000927  0.00441031  1
  Mg  Mg0_1  1  0.99999078  0.00000927  0.50441031  1
  Mg  Mg0_2  1  0.99999078  0.50000926  0.00441031  1
  Mg  Mg0_3  1  0.99999078  0.50000926  0.50441031  1
  Mg  Mg0_4  1  0.49999078  0.00000926  0.00441031  1
  Mg  Mg0_5  1  0.49999078  0.00000926  0.50441031  1
  Mg  Mg0_6  1  0.49999078  0.50000926  0.00441031  1
  Mg  Mg0_7  1  0.49999078  0.50000926  0.50441031  1
  Mg  Mg1_0  1  0.33334509  0.16665479  0.08586596  1
  Mg  Mg1_1  1  0.33334509  0.16665479  0.58586596  1
  Mg  Mg1_2  1  0.33334509  0.66665479  0.08586596  1
  Mg  Mg1_3  1  0.33334509  0.66665479  0.58586596  1
  Mg  Mg1_4  1  0.83334509  0.16665479  0.08586596  1
  Mg  Mg1_5  1  0.83334509  0.16665479  0.58586596  1
  Mg  Mg1_6  1  0.83334509  0.66665479  0.08586596  1
  Mg  Mg1_7  1  0.83334509  0.66665479  0.58586596  1
  Mg  Mg2_0  1  0.99999227  0.00000770  0.16693020  1
  Mg  Mg2_1  1  0.99999227  0.00000770  0.66693020  1
  Mg  Mg2_2  1  0.99999227  0.50000771  0.16693020  1
  Mg  Mg2_3  1  0.99999227  0.50000771  0.66693020  1
  Mg  Mg2_4  1  0.49999226  0.00000770  0.16693020  1
  Mg  Mg2_5  1  0.49999226  0.00000770  0.66693020  1
  Mg  Mg2_6  1  0.49999226  0.50000771  0.16693020  1
  Mg  Mg2_7  1  0.49999226  0.50000771  0.66693020  1
  Mg  Mg3_0  1  0.33334336  0.16665659  0.24769342  1
  Mg  Mg3_1  1  0.33334336  0.16665659  0.74769342  1
  Mg  Mg3_2  1  0.33334336  0.66665659  0.24769342  1
  Mg  Mg3_3  1  0.33334336  0.66665659  0.74769342  1
  Mg  Mg3_4  1  0.83334336  0.16665659  0.24769342  1
  Mg  Mg3_5  1  0.83334336  0.16665659  0.74769342  1
  Mg  Mg3_6  1  0.83334336  0.66665659  0.24769342  1
  Mg  Mg3_7  1  0.83334336  0.66665659  0.74769342  1
  Mg  Mg4_0  1  0.99998911  0.00001095  0.32862427  1
  Mg  Mg4_1  1  0.99998911  0.00001095  0.82862427  1
  Mg  Mg4_2  1  0.99998911  0.50001095  0.32862427  1
  Mg  Mg4_3  1  0.99998911  0.50001095  0.82862427  1
  Mg  Mg4_4  1  0.49998911  0.00001095  0.32862427  1
  Mg  Mg4_5  1  0.49998911  0.00001095  0.82862427  1
  Mg  Mg4_6  1  0.49998911  0.50001095  0.32862427  1
  Mg  Mg4_7  1  0.49998911  0.50001095  0.82862427  1
loop_
_geom_bond_atom_site_label_1
_geom_bond_atom_site_label_2
_geom_bond_distance
_geom_bond_site_symmetry_2
Tm0_0 Tm0_6 3.230841 1_555
Tm0_0 Tm0_6 3.230841 1_445
Tm0_0 Tm0_2 3.231554 1_555
Tm0_0 Tm0_2 3.231554 1_545
Tm0_0 Tm0_4 3.231555 1_555
Tm0_0 Tm0_4 3.231555 1_455
Tm0_1 Tm0_7 3.230841 1_555
Tm0_1 Tm0_7 3.230841 1_445
Tm0_1 Tm0_3 3.231554 1_555
Tm0_1 Tm0_3 3.231554 1_545
Tm0_1 Tm0_5 3.231555 1_455
Tm0_1 Tm0_5 3.231555 1_555
Tm0_2 Tm0_4 3.230841 1_565
Tm0_2 Tm0_4 3.230841 1_455
Tm0_2 Tm0_6 3.231555 1_555
Tm0_2 Tm0_6 3.231555 1_455
Tm0_3 Tm0_5 3.230841 1_455
Tm0_3 Tm0_5 3.230841 1_565
Tm0_3 Tm0_7 3.231555 1_555
Tm0_3 Tm0_7 3.231555 1_455
Tm0_4 Tm0_6 3.231554 1_555
Tm0_4 Tm0_6 3.231554 1_545
Tm0_5 Tm0_7 3.231554 1_545
Tm0_5 Tm0_7 3.231554 1_555
Mg0_0 Mg1_0 3.186692 1_655
Mg0_0 Mg1_6 3.186693 1_545
Mg0_0 Mg1_4 3.186730 1_555
Mg0_0 Mg0_6 3.230841 1_655
Mg0_0 Mg0_6 3.230841 1_545
Mg0_0 Mg0_2 3.231554 1_545
Mg0_0 Mg0_2 3.231554 1_555
Mg0_0 Mg0_4 3.231555 1_655
Mg0_0 Mg0_4 3.231555 1_555
Mg0_0 Tm0_7 3.355444 1_544
Mg0_0 Tm0_1 3.355444 1_654
Mg0_0 Tm0_5 3.355522 1_554
Mg0_1 Mg1_1 3.186692 1_655
Mg0_1 Mg1_7 3.186693 1_545
Mg0_1 Mg1_5 3.186730 1_555
Mg0_1 Mg0_7 3.230841 1_655
Mg0_1 Mg0_7 3.230841 1_545
Mg0_1 Mg0_3 3.231554 1_555
Mg0_1 Mg0_3 3.231554 1_545
Mg0_1 Mg0_5 3.231555 1_555
Mg0_1 Mg0_5 3.231555 1_655
Mg0_1 Tm0_6 3.355444 1_545
Mg0_1 Tm0_0 3.355444 1_655
Mg0_1 Tm0_4 3.355522 1_555
Mg0_2 Mg1_2 3.186692 1_655
Mg0_2 Mg1_4 3.186693 1_555
Mg0_2 Mg1_6 3.186730 1_555
Mg0_2 Mg0_4 3.230841 1_555
Mg0_2 Mg0_4 3.230841 1_665
Mg0_2 Mg0_6 3.231555 1_655
Mg0_2 Mg0_6 3.231555 1_555
Mg0_2 Tm0_5 3.355444 1_554
Mg0_2 Tm0_3 3.355444 1_654
Mg0_2 Tm0_7 3.355522 1_554
Mg0_3 Mg1_3 3.186692 1_655
Mg0_3 Mg1_5 3.186693 1_555
Mg0_3 Mg1_7 3.186730 1_555
Mg0_3 Mg0_5 3.230841 1_555
Mg0_3 Mg0_5 3.230841 1_665
Mg0_3 Mg0_7 3.231555 1_655
Mg0_3 Mg0_7 3.231555 1_555
Mg0_3 Tm0_4 3.355444 1_555
Mg0_3 Tm0_2 3.355444 1_655
Mg0_3 Tm0_6 3.355522 1_555
Mg0_4 Mg1_4 3.186692 1_555
Mg0_4 Mg1_2 3.186693 1_545
Mg0_4 Mg1_0 3.186730 1_555
Mg0_4 Mg0_6 3.231554 1_545
Mg0_4 Mg0_6 3.231554 1_555
Mg0_4 Tm0_3 3.355444 1_544
Mg0_4 Tm0_5 3.355444 1_554
Mg0_4 Tm0_1 3.355522 1_554
Mg0_5 Mg1_5 3.186692 1_555
Mg0_5 Mg1_3 3.186693 1_545
Mg0_5 Mg1_1 3.186730 1_555
Mg0_5 Mg0_7 3.231554 1_555
Mg0_5 Mg0_7 3.231554 1_545
Mg0_5 Tm0_2 3.355444 1_545
Mg0_5 Tm0_4 3.355444 1_555
Mg0_5 Tm0_0 3.355522 1_555
Mg0_6 Mg1_6 3.186692 1_555
Mg0_6 Mg1_0 3.186693 1_555
Mg0_6 Mg1_2 3.186730 1_555
Mg0_6 Tm0_1 3.355444 1_554
Mg0_6 Tm0_7 3.355444 1_554
Mg0_6 Tm0_3 3.355522 1_554
Mg0_7 Mg1_7 3.186692 1_555
Mg0_7 Mg1_1 3.186693 1_555
Mg0_7 Mg1_3 3.186730 1_555
Mg0_7 Tm0_0 3.355444 1_555
Mg0_7 Tm0_6 3.355444 1_555
Mg0_7 Tm0_2 3.355522 1_555
Mg1_0 Mg2_0 3.176634 1_455
Mg1_0 Mg2_6 3.176634 1_555
Mg1_0 Mg2_4 3.176679 1_555
Mg1_0 Mg1_6 3.230841 1_445
Mg1_0 Mg1_6 3.230841 1_555
Mg1_0 Mg1_2 3.231554 1_555
Mg1_0 Mg1_2 3.231554 1_545
Mg1_0 Mg1_4 3.231555 1_555
Mg1_0 Mg1_4 3.231555 1_455
Mg1_1 Mg2_1 3.176634 1_455
Mg1_1 Mg2_7 3.176634 1_555
Mg1_1 Mg2_5 3.176679 1_555
Mg1_1 Mg1_7 3.230841 1_555
Mg1_1 Mg1_7 3.230841 1_445
Mg1_1 Mg1_3 3.231554 1_555
Mg1_1 Mg1_3 3.231554 1_545
Mg1_1 Mg1_5 3.231555 1_555
Mg1_1 Mg1_5 3.231555 1_455
Mg1_2 Mg2_2 3.176634 1_455
Mg1_2 Mg2_4 3.176634 1_565
Mg1_2 Mg2_6 3.176679 1_555
Mg1_2 Mg1_4 3.230841 1_565
Mg1_2 Mg1_4 3.230841 1_455
Mg1_2 Mg1_6 3.231555 1_455
Mg1_2 Mg1_6 3.231555 1_555
Mg1_3 Mg2_3 3.176634 1_455
Mg1_3 Mg2_5 3.176634 1_565
Mg1_3 Mg2_7 3.176679 1_555
Mg1_3 Mg1_5 3.230841 1_455
Mg1_3 Mg1_5 3.230841 1_565
Mg1_3 Mg1_7 3.231555 1_455
Mg1_3 Mg1_7 3.231555 1_555
Mg1_4 Mg2_4 3.176634 1_555
Mg1_4 Mg2_2 3.176634 1_555
Mg1_4 Mg2_0 3.176679 1_555
Mg1_4 Mg1_6 3.231554 1_555
Mg1_4 Mg1_6 3.231554 1_545
Mg1_5 Mg2_5 3.176634 1_555
Mg1_5 Mg2_3 3.176634 1_555
Mg1_5 Mg2_1 3.176679 1_555
Mg1_5 Mg1_7 3.231554 1_555
Mg1_5 Mg1_7 3.231554 1_545
Mg1_6 Mg2_6 3.176634 1_555
Mg1_6 Mg2_0 3.176634 1_565
Mg1_6 Mg2_2 3.176679 1_555
Mg1_7 Mg2_7 3.176634 1_555
Mg1_7 Mg2_1 3.176634 1_565
Mg1_7 Mg2_3 3.176679 1_555
Mg2_0 Mg3_6 3.168903 1_545
Mg2_0 Mg3_0 3.168903 1_655
Mg2_0 Mg3_4 3.168973 1_555
Mg2_0 Mg2_6 3.230841 1_655
Mg2_0 Mg2_6 3.230841 1_545
Mg2_0 Mg2_2 3.231554 1_545
Mg2_0 Mg2_2 3.231554 1_555
Mg2_0 Mg2_4 3.231555 1_655
Mg2_0 Mg2_4 3.231555 1_555
Mg2_1 Mg3_7 3.168903 1_545
Mg2_1 Mg3_1 3.168903 1_655
Mg2_1 Mg3_5 3.168973 1_555
Mg2_1 Mg2_7 3.230841 1_655
Mg2_1 Mg2_7 3.230841 1_545
Mg2_1 Mg2_3 3.231554 1_555
Mg2_1 Mg2_3 3.231554 1_545
Mg2_1 Mg2_5 3.231555 1_655
Mg2_1 Mg2_5 3.231555 1_555
Mg2_2 Mg3_4 3.168903 1_555
Mg2_2 Mg3_2 3.168903 1_655
Mg2_2 Mg3_6 3.168973 1_555
Mg2_2 Mg2_4 3.230841 1_665
Mg2_2 Mg2_4 3.230841 1_555
Mg2_2 Mg2_6 3.231555 1_655
Mg2_2 Mg2_6 3.231555 1_555
Mg2_3 Mg3_5 3.168903 1_555
Mg2_3 Mg3_3 3.168903 1_655
Mg2_3 Mg3_7 3.168973 1_555
Mg2_3 Mg2_5 3.230841 1_665
Mg2_3 Mg2_5 3.230841 1_555
Mg2_3 Mg2_7 3.231555 1_655
Mg2_3 Mg2_7 3.231555 1_555
Mg2_4 Mg3_2 3.168903 1_545
Mg2_4 Mg3_4 3.168903 1_555
Mg2_4 Mg3_0 3.168973 1_555
Mg2_4 Mg2_6 3.231554 1_545
Mg2_4 Mg2_6 3.231554 1_555
Mg2_5 Mg3_3 3.168903 1_545
Mg2_5 Mg3_5 3.168903 1_555
Mg2_5 Mg3_1 3.168973 1_555
Mg2_5 Mg2_7 3.231554 1_555
Mg2_5 Mg2_7 3.231554 1_545
Mg2_6 Mg3_0 3.168903 1_555
Mg2_6 Mg3_6 3.168903 1_555
Mg2_6 Mg3_2 3.168973 1_555
Mg2_7 Mg3_1 3.168903 1_555
Mg2_7 Mg3_7 3.168903 1_555
Mg2_7 Mg3_3 3.168973 1_555
Mg3_0 Mg4_0 3.173215 1_455
Mg3_0 Mg4_6 3.173215 1_555
Mg3_0 Mg4_4 3.173247 1_555
Mg3_0 Mg3_6 3.230841 1_555
Mg3_0 Mg3_6 3.230841 1_445
Mg3_0 Mg3_2 3.231554 1_545
Mg3_0 Mg3_2 3.231554 1_555
Mg3_0 Mg3_4 3.231555 1_555
Mg3_0 Mg3_4 3.231555 1_455
Mg3_1 Mg4_1 3.173215 1_455
Mg3_1 Mg4_7 3.173215 1_555
Mg3_1 Mg4_5 3.173247 1_555
Mg3_1 Mg3_7 3.230841 1_555
Mg3_1 Mg3_7 3.230841 1_445
Mg3_1 Mg3_3 3.231554 1_555
Mg3_1 Mg3_3 3.231554 1_545
Mg3_1 Mg3_5 3.231555 1_555
Mg3_1 Mg3_5 3.231555 1_455
Mg3_2 Mg4_2 3.173215 1_455
Mg3_2 Mg4_4 3.173215 1_565
Mg3_2 Mg4_6 3.173247 1_555
Mg3_2 Mg3_4 3.230841 1_565
Mg3_2 Mg3_4 3.230841 1_455
Mg3_2 Mg3_6 3.231555 1_555
Mg3_2 Mg3_6 3.231555 1_455
Mg3_3 Mg4_3 3.173215 1_455
Mg3_3 Mg4_5 3.173215 1_565
Mg3_3 Mg4_7 3.173247 1_555
Mg3_3 Mg3_5 3.230841 1_565
Mg3_3 Mg3_5 3.230841 1_455
Mg3_3 Mg3_7 3.231555 1_555
Mg3_3 Mg3_7 3.231555 1_455
Mg3_4 Mg4_4 3.173215 1_555
Mg3_4 Mg4_2 3.173215 1_555
Mg3_4 Mg4_0 3.173247 1_555
Mg3_4 Mg3_6 3.231554 1_555
Mg3_4 Mg3_6 3.231554 1_545
Mg3_5 Mg4_5 3.173215 1_555
Mg3_5 Mg4_3 3.173215 1_555
Mg3_5 Mg4_1 3.173247 1_555
Mg3_5 Mg3_7 3.231554 1_555
Mg3_5 Mg3_7 3.231554 1_545
Mg3_6 Mg4_6 3.173215 1_555
Mg3_6 Mg4_0 3.173215 1_565
Mg3_6 Mg4_2 3.173247 1_555
Mg3_7 Mg4_7 3.173215 1_555
Mg3_7 Mg4_1 3.173215 1_565
Mg3_7 Mg4_3 3.173247 1_555
Mg4_0 Mg4_6 3.230841 1_655
Mg4_0 Mg4_6 3.230841 1_545
Mg4_0 Mg4_2 3.231554 1_555
Mg4_0 Mg4_2 3.231554 1_545
Mg4_0 Mg4_4 3.231555 1_555
Mg4_0 Mg4_4 3.231555 1_655
Mg4_0 Tm0_6 3.353235 1_545
Mg4_0 Tm0_0 3.353235 1_655
Mg4_0 Tm0_4 3.353305 1_555
Mg4_1 Mg4_7 3.230841 1_655
Mg4_1 Mg4_7 3.230841 1_545
Mg4_1 Mg4_3 3.231554 1_555
Mg4_1 Mg4_3 3.231554 1_545
Mg4_1 Mg4_5 3.231555 1_555
Mg4_1 Mg4_5 3.231555 1_655
Mg4_1 Tm0_7 3.353235 1_545
Mg4_1 Tm0_1 3.353235 1_655
Mg4_1 Tm0_5 3.353305 1_555
Mg4_2 Mg4_4 3.230841 1_555
Mg4_2 Mg4_4 3.230841 1_665
Mg4_2 Mg4_6 3.231555 1_655
Mg4_2 Mg4_6 3.231555 1_555
Mg4_2 Tm0_4 3.353235 1_555
Mg4_2 Tm0_2 3.353235 1_655
Mg4_2 Tm0_6 3.353305 1_555
Mg4_3 Mg4_5 3.230841 1_555
Mg4_3 Mg4_5 3.230841 1_665
Mg4_3 Mg4_7 3.231555 1_655
Mg4_3 Mg4_7 3.231555 1_555
Mg4_3 Tm0_5 3.353235 1_555
Mg4_3 Tm0_3 3.353235 1_655
Mg4_3 Tm0_7 3.353305 1_555
Mg4_4 Mg4_6 3.231554 1_555
Mg4_4 Mg4_6 3.231554 1_545
Mg4_4 Tm0_2 3.353235 1_545
Mg4_4 Tm0_4 3.353235 1_555
Mg4_4 Tm0_0 3.353305 1_555
Mg4_5 Mg4_7 3.231554 1_555
Mg4_5 Mg4_7 3.231554 1_545
Mg4_5 Tm0_3 3.353235 1_545
Mg4_5 Tm0_5 3.353235 1_555
Mg4_5 Tm0_1 3.353305 1_555
Mg4_6 Tm0_0 3.353235 1_555
Mg4_6 Tm0_6 3.353235 1_555
Mg4_6 Tm0_2 3.353305 1_555
Mg4_7 Tm0_1 3.353235 1_555
Mg4_7 Tm0_7 3.353235 1_555
Mg4_7 Tm0_3 3.353305 1_555
