# generated using pymatgen
data_NbCo3
_symmetry_space_group_name_H-M   'P 1'
_cell_length_a   5.14162961
_cell_length_b   5.14153304
_cell_length_c   4.11789191
_cell_angle_alpha   90.00000051
_cell_angle_beta   90.00000036
_cell_angle_gamma   119.99945781
_symmetry_Int_Tables_number   1
_chemical_formula_structural   NbCo3
_chemical_formula_sum   'Nb2 Co6'
_cell_volume   94.27604740
_cell_formula_units_Z   2
loop_
 _symmetry_equiv_pos_site_id
 _symmetry_equiv_pos_as_xyz
  1  'x, y, z'
loop_
 _atom_site_type_symbol
 _atom_site_label
 _atom_site_symmetry_multiplicity
 _atom_site_fract_x
 _atom_site_fract_y
 _atom_site_fract_z
 _atom_site_occupancy
  Nb  Nb0  1  0.66666507  0.33332962  0.24999960  1
  Nb  Nb1  1  0.33335080  0.66667763  0.74999936  1
  Co  Co0  1  0.31388958  0.15694870  0.74999949  1
  Co  Co1  1  0.84305355  0.68610605  0.74999950  1
  Co  Co2  1  0.15693319  0.84304885  0.24999952  1
  Co  Co3  1  0.68611341  0.84305470  0.24999952  1
  Co  Co4  1  0.15693802  0.31389179  0.24999951  1
  Co  Co5  1  0.84306038  0.15694665  0.74999949  1
loop_
_geom_bond_atom_site_label_1
_geom_bond_atom_site_label_2
_geom_bond_distance
_geom_bond_site_symmetry_2
Co0 Co5 2.420824 1_455
Co0 Co1 2.420879 1_445
Co0 Co4 2.488531 1_555
Co0 Co4 2.488531 1_556
Co0 Co2 2.488543 1_545
Co0 Co2 2.488544 1_546
Co0 Nb1 2.572218 1_555
Co0 Nb1 2.572235 1_545
Co0 Nb0 2.589749 1_555
Co0 Nb0 2.589749 1_556
Co0 Co1 2.720745 1_555
Co0 Co5 2.720806 1_555
Co1 Co5 2.420825 1_565
Co1 Co2 2.488508 1_655
Co1 Co2 2.488508 1_656
Co1 Co3 2.488517 1_555
Co1 Co3 2.488517 1_556
Co1 Nb1 2.572213 1_555
Co1 Nb1 2.572327 1_655
Co1 Nb0 2.589733 1_555
Co1 Nb0 2.589734 1_556
Co1 Co5 2.720708 1_555
Co2 Co3 2.420796 1_455
Co2 Co4 2.420842 1_565
Co2 Nb0 2.572236 1_455
Co2 Nb0 2.572305 1_565
Co2 Nb1 2.589768 1_555
Co2 Nb1 2.589769 1_554
Co2 Co4 2.720691 1_555
Co2 Co3 2.720834 1_555
Co3 Co4 2.420835 1_665
Co3 Co5 2.488524 1_565
Co3 Co5 2.488524 1_564
Co3 Nb0 2.572220 1_565
Co3 Nb0 2.572229 1_555
Co3 Nb1 2.589714 1_555
Co3 Nb1 2.589715 1_554
Co3 Co4 2.720789 1_555
Co4 Co5 2.488503 1_455
Co4 Co5 2.488503 1_454
Co4 Nb0 2.572228 1_455
Co4 Nb0 2.572315 1_555
Co4 Nb1 2.589758 1_555
Co4 Nb1 2.589760 1_554
Co5 Nb1 2.572216 1_545
Co5 Nb1 2.572322 1_655
Co5 Nb0 2.589739 1_555
Co5 Nb0 2.589740 1_556
