# generated using pymatgen
data_Pm3Er
_symmetry_space_group_name_H-M   'P 1'
_cell_length_a   7.42170430
_cell_length_b   7.42170541
_cell_length_c   5.74134547
_cell_angle_alpha   90.00000000
_cell_angle_beta   90.00000000
_cell_angle_gamma   120.00001474
_symmetry_Int_Tables_number   1
_chemical_formula_structural   Pm3Er
_chemical_formula_sum   'Pm6 Er2'
_cell_volume   273.87450535
_cell_formula_units_Z   2
loop_
 _symmetry_equiv_pos_site_id
 _symmetry_equiv_pos_as_xyz
  1  'x, y, z'
loop_
 _atom_site_type_symbol
 _atom_site_label
 _atom_site_symmetry_multiplicity
 _atom_site_fract_x
 _atom_site_fract_y
 _atom_site_fract_z
 _atom_site_occupancy
  Pm  Pm0  1  0.16730827  0.33461555  0.25000000  1
  Pm  Pm1  1  0.66538345  0.83269173  0.25000000  1
  Pm  Pm2  1  0.16730727  0.83269173  0.25000000  1
  Pm  Pm3  1  0.83269173  0.66538345  0.75000000  1
  Pm  Pm4  1  0.33461555  0.16730827  0.75000000  1
  Pm  Pm5  1  0.83269273  0.16730827  0.75000000  1
  Er  Er0  1  0.33333400  0.66666800  0.75000000  1
  Er  Er1  1  0.66666700  0.33333300  0.25000000  1
loop_
_geom_bond_atom_site_label_1
_geom_bond_atom_site_label_2
_geom_bond_distance
_geom_bond_site_symmetry_2
Pm0 Pm4 3.586957 1_554
Pm0 Pm4 3.586957 1_555
Pm0 Pm5 3.586960 1_455
Pm0 Pm5 3.586960 1_454
Pm0 Pm1 3.696570 1_555
Pm0 Pm2 3.696578 1_555
Pm0 Pm2 3.725127 1_545
Pm0 Pm1 3.725133 1_445
Pm1 Pm5 3.586964 1_565
Pm1 Pm5 3.586964 1_564
Pm1 Pm3 3.586964 1_554
Pm1 Pm3 3.586964 1_555
Pm1 Pm2 3.696574 1_555
Pm1 Pm2 3.725130 1_655
Pm2 Pm3 3.586960 1_455
Pm2 Pm3 3.586960 1_454
Pm2 Pm4 3.586964 1_564
Pm2 Pm4 3.586964 1_565
Pm3 Pm4 3.696570 1_555
Pm3 Pm5 3.696571 1_555
Pm3 Pm4 3.725133 1_665
Pm3 Pm5 3.725134 1_565
Pm4 Pm5 3.696582 1_555
Pm4 Pm5 3.725123 1_455
Er0 Pm1 3.577095 1_555
Er0 Pm1 3.577095 1_556
Er0 Pm2 3.577100 1_555
Er0 Pm2 3.577100 1_556
Er0 Pm0 3.577107 1_555
Er0 Pm0 3.577107 1_556
Er0 Pm5 3.710857 1_565
Er0 Pm4 3.710858 1_565
Er0 Pm3 3.710861 1_455
Er0 Pm3 3.710861 1_555
Er0 Pm5 3.710864 1_455
Er0 Pm4 3.710866 1_555
Er1 Pm3 3.577099 1_555
Er1 Pm3 3.577099 1_554
Er1 Pm5 3.577100 1_554
Er1 Pm5 3.577100 1_555
Er1 Pm4 3.577103 1_555
Er1 Pm4 3.577103 1_554
Er1 Pm2 3.710857 1_655
Er1 Pm1 3.710858 1_545
Er1 Pm0 3.710861 1_655
Er1 Pm0 3.710861 1_555
Er1 Pm2 3.710864 1_545
Er1 Pm1 3.710866 1_555
