# generated using pymatgen
data_CaAlH5
_symmetry_space_group_name_H-M   'P 1'
_cell_length_a   6.90761657
_cell_length_b   8.31252154
_cell_length_c   12.35932690
_cell_angle_alpha   51.60455402
_cell_angle_beta   90.00000000
_cell_angle_gamma   90.00000000
_symmetry_Int_Tables_number   1
_chemical_formula_structural   CaAlH5
_chemical_formula_sum   'Ca8 Al8 H40'
_cell_volume   556.19797515
_cell_formula_units_Z   8
loop_
 _symmetry_equiv_pos_site_id
 _symmetry_equiv_pos_as_xyz
  1  'x, y, z'
loop_
 _atom_site_type_symbol
 _atom_site_label
 _atom_site_symmetry_multiplicity
 _atom_site_fract_x
 _atom_site_fract_y
 _atom_site_fract_z
 _atom_site_occupancy
  Ca  Ca0  1  0.26992337  0.21740376  0.54394283  1
  Ca  Ca1  1  0.76992337  0.78259624  0.95605717  1
  Ca  Ca2  1  0.73007663  0.78259624  0.45605717  1
  Ca  Ca3  1  0.23007663  0.21740376  0.04394283  1
  Ca  Ca4  1  0.22815856  0.65826196  0.65045601  1
  Ca  Ca5  1  0.72815856  0.34173804  0.84954399  1
  Ca  Ca6  1  0.77184144  0.34173804  0.34954399  1
  Ca  Ca7  1  0.27184144  0.65826196  0.15045601  1
  Al  Al0  1  0.28013139  0.78555641  0.84225946  1
  Al  Al1  1  0.78013139  0.21444359  0.65774054  1
  Al  Al2  1  0.71986861  0.21444359  0.15774054  1
  Al  Al3  1  0.21986861  0.78555641  0.34225946  1
  Al  Al4  1  0.19075084  0.19254635  0.81126559  1
  Al  Al5  1  0.69075084  0.80745365  0.68873441  1
  Al  Al6  1  0.80924916  0.80745365  0.18873441  1
  Al  Al7  1  0.30924916  0.19254635  0.31126559  1
  H  H0  1  0.19430593  0.00245080  0.98295644  1
  H  H1  1  0.69430593  -0.00245080  0.51704356  1
  H  H2  1  0.80569407  -0.00245080  0.01704356  1
  H  H3  1  0.30569407  0.00245080  0.48295644  1
  H  H4  1  0.21011769  0.38725255  0.64036475  1
  H  H5  1  0.71011769  0.61274745  0.85963525  1
  H  H6  1  0.78988231  0.61274745  0.35963525  1
  H  H7  1  0.28988231  0.38725255  0.14036475  1
  H  H8  1  0.11478373  0.30310731  0.33744976  1
  H  H9  1  0.61478373  0.69689269  0.16255024  1
  H  H10  1  0.88521627  0.69689269  0.66255024  1
  H  H11  1  0.38521627  0.30310731  0.83744976  1
  H  H12  1  0.14392097  0.88760308  0.69794647  1
  H  H13  1  0.64392097  0.11239692  0.80205353  1
  H  H14  1  0.85607903  0.11239692  0.30205353  1
  H  H15  1  0.35607903  0.88760308  0.19794647  1
  H  H16  1  0.46956016  0.88547258  0.71208188  1
  H  H17  1  0.96956016  0.11452742  0.78791812  1
  H  H18  1  0.53043984  0.11452742  0.28791812  1
  H  H19  1  0.03043984  0.88547258  0.21208188  1
  H  H20  1  0.09823814  0.72630437  0.95417908  1
  H  H21  1  0.59823814  0.27369563  0.54582092  1
  H  H22  1  0.90176186  0.27369563  0.04582092  1
  H  H23  1  0.40176186  0.72630437  0.45417908  1
  H  H24  1  0.44291636  0.73578694  0.96133871  1
  H  H25  1  0.94291636  0.26421306  0.53866129  1
  H  H26  1  0.55708364  0.26421306  0.03866129  1
  H  H27  1  0.05708364  0.73578694  0.46133871  1
  H  H28  1  0.06286311  0.34811466  0.83639347  1
  H  H29  1  0.56286311  0.65188534  0.66360653  1
  H  H30  1  0.93713689  0.65188534  0.16360653  1
  H  H31  1  0.43713689  0.34811466  0.33639347  1
  H  H32  1  0.28703832  0.56058446  0.86935854  1
  H  H33  1  0.78703832  0.43941554  0.63064146  1
  H  H34  1  0.71296168  0.43941554  0.13064146  1
  H  H35  1  0.21296168  0.56058446  0.36935854  1
  H  H36  1  0.30204701  0.04542218  0.77679467  1
  H  H37  1  0.80204701  0.95457782  0.72320533  1
  H  H38  1  0.69795299  0.95457782  0.22320533  1
  H  H39  1  0.19795299  0.04542218  0.27679467  1
loop_
_geom_bond_atom_site_label_1
_geom_bond_atom_site_label_2
_geom_bond_distance
_geom_bond_site_symmetry_2
Ca0 H25 2.286147 1_455
Ca0 H36 2.294488 1_555
Ca0 H35 2.302718 1_555
Ca0 H21 2.318670 1_555
Ca0 H12 2.326878 1_545
Ca0 H3 2.344101 1_555
Ca0 H31 2.373326 1_555
Ca0 H4 2.382063 1_555
Ca0 H8 2.431210 1_555
Ca0 H16 2.590528 1_545
Ca1 H24 2.286147 1_555
Ca1 H37 2.294488 1_555
Ca1 H34 2.302718 1_556
Ca1 H20 2.318670 1_655
Ca1 H13 2.326878 1_565
Ca1 H2 2.344101 1_566
Ca1 H30 2.373326 1_556
Ca1 H5 2.382063 1_555
Ca1 H9 2.431210 1_556
Ca1 H17 2.590528 1_565
Ca2 H27 2.286147 1_655
Ca2 H38 2.294488 1_555
Ca2 H33 2.302718 1_555
Ca2 H23 2.318670 1_555
Ca2 H14 2.326878 1_565
Ca2 H1 2.344101 1_565
Ca2 H29 2.373326 1_555
Ca2 H6 2.382063 1_555
Ca2 H10 2.431210 1_555
Ca2 H18 2.590528 1_565
Ca3 H26 2.286147 1_555
Ca3 H39 2.294488 1_555
Ca3 H32 2.302718 1_554
Ca3 H22 2.318670 1_455
Ca3 H15 2.326878 1_545
Ca3 H0 2.344101 1_554
Ca3 H28 2.373326 1_554
Ca3 H7 2.382063 1_555
Ca3 H11 2.431210 1_554
Ca3 H19 2.590528 1_545
Ca4 H29 2.316013 1_555
Ca4 H3 2.323995 1_565
Ca4 H27 2.324646 1_555
Ca4 H32 2.327155 1_555
Ca4 H4 2.335610 1_555
Ca4 H12 2.389019 1_555
Ca4 H10 2.407662 1_455
Ca4 H28 2.423220 1_555
Ca4 H23 2.436875 1_555
Ca4 H11 2.599741 1_555
Ca5 H28 2.316013 1_655
Ca5 H2 2.323995 1_556
Ca5 H26 2.324646 1_556
Ca5 H33 2.327155 1_555
Ca5 H5 2.335610 1_555
Ca5 H13 2.389019 1_555
Ca5 H11 2.407662 1_555
Ca5 H29 2.423220 1_555
Ca5 H22 2.436875 1_556
Ca5 H10 2.599741 1_555
Ca6 H31 2.316013 1_555
Ca6 H1 2.323995 1_555
Ca6 H25 2.324646 1_555
Ca6 H34 2.327155 1_555
Ca6 H6 2.335610 1_555
Ca6 H14 2.389019 1_555
Ca6 H8 2.407662 1_655
Ca6 H30 2.423220 1_555
Ca6 H21 2.436875 1_555
Ca6 H9 2.599741 1_555
Ca7 H30 2.316013 1_455
Ca7 H0 2.323995 1_564
Ca7 H24 2.324646 1_554
Ca7 H35 2.327155 1_555
Ca7 H7 2.335610 1_555
Ca7 H15 2.389019 1_555
Ca7 H9 2.407662 1_555
Ca7 H31 2.423220 1_555
Ca7 H20 2.436875 1_554
Ca7 H8 2.599741 1_555
Al0 H32 1.683343 1_555
Al0 H24 1.686787 1_555
Al0 H20 1.699514 1_555
Al0 H12 1.704911 1_555
Al0 H36 1.781217 1_565
Al0 H16 1.825016 1_555
Al1 H33 1.683343 1_555
Al1 H25 1.686787 1_555
Al1 H21 1.699514 1_555
Al1 H13 1.704911 1_555
Al1 H37 1.781217 1_545
Al1 H17 1.825016 1_555
Al2 H34 1.683343 1_555
Al2 H26 1.686787 1_555
Al2 H22 1.699514 1_555
Al2 H14 1.704911 1_555
Al2 H38 1.781217 1_545
Al2 H18 1.825016 1_555
Al3 H35 1.683343 1_555
Al3 H27 1.686787 1_555
Al3 H23 1.699514 1_555
Al3 H15 1.704911 1_555
Al3 H39 1.781217 1_565
Al3 H19 1.825016 1_555
Al4 H0 1.683817 1_555
Al4 H4 1.688902 1_555
Al4 H36 1.707461 1_555
Al4 H28 1.745849 1_555
Al4 H17 1.752371 1_455
Al4 H11 1.767270 1_555
Al5 H1 1.683817 1_565
Al5 H5 1.688902 1_555
Al5 H37 1.707461 1_555
Al5 H29 1.745849 1_555
Al5 H16 1.752371 1_555
Al5 H10 1.767270 1_555
Al6 H2 1.683817 1_565
Al6 H6 1.688902 1_555
Al6 H38 1.707461 1_555
Al6 H30 1.745849 1_555
Al6 H19 1.752371 1_655
Al6 H9 1.767270 1_555
Al7 H3 1.683817 1_555
Al7 H7 1.688902 1_555
Al7 H39 1.707461 1_555
Al7 H31 1.745849 1_555
Al7 H18 1.752371 1_555
Al7 H8 1.767270 1_555
