# generated using pymatgen
data_Sm3Sb4Au3
_symmetry_space_group_name_H-M   'P 1'
_cell_length_a   8.66406727
_cell_length_b   8.66406727
_cell_length_c   8.66406727
_cell_angle_alpha   109.47119828
_cell_angle_beta   109.47119828
_cell_angle_gamma   109.47119828
_symmetry_Int_Tables_number   1
_chemical_formula_structural   Sm3Sb4Au3
_chemical_formula_sum   'Sm6 Sb8 Au6'
_cell_volume   500.66117622
_cell_formula_units_Z   2
loop_
 _symmetry_equiv_pos_site_id
 _symmetry_equiv_pos_as_xyz
  1  'x, y, z'
loop_
 _atom_site_type_symbol
 _atom_site_label
 _atom_site_symmetry_multiplicity
 _atom_site_fract_x
 _atom_site_fract_y
 _atom_site_fract_z
 _atom_site_occupancy
  Sm  Sm0  1  0.25000100  0.62500100  0.37500000  1
  Sm  Sm1  1  0.75000000  0.87500000  0.12499900  1
  Sm  Sm2  1  0.37500000  0.25000100  0.62500100  1
  Sm  Sm3  1  0.62500100  0.37500000  0.25000100  1
  Sm  Sm4  1  0.12499900  0.75000000  0.87500000  1
  Sm  Sm5  1  0.87500000  0.12499900  0.75000000  1
  Sb  Sb0  1  0.17185406  0.17185406  0.17185406  1
  Sb  Sb1  1  0.50000000  0.00000000  0.32814594  1
  Sb  Sb2  1  0.32814594  0.50000000  0.00000000  1
  Sb  Sb3  1  0.00000000  0.32814594  0.50000000  1
  Sb  Sb4  1  0.67185506  0.67185506  0.67185506  1
  Sb  Sb5  1  0.50000000  0.00000000  0.82814494  1
  Sb  Sb6  1  0.00000000  0.82814494  0.50000000  1
  Sb  Sb7  1  0.82814494  0.50000000  0.00000000  1
  Au  Au0  1  0.24999900  0.12499900  0.87500000  1
  Au  Au1  1  0.75000100  0.37500000  0.62500000  1
  Au  Au2  1  0.87500000  0.24999900  0.12499900  1
  Au  Au3  1  0.12499900  0.87500000  0.24999900  1
  Au  Au4  1  0.62500000  0.75000100  0.37500000  1
  Au  Au5  1  0.37500000  0.62500000  0.75000100  1
loop_
_geom_bond_atom_site_label_1
_geom_bond_atom_site_label_2
_geom_bond_distance
_geom_bond_site_symmetry_2
Sb0 Sm3 3.434688 1_555
Sb0 Sm0 3.434688 1_555
Sb0 Sm2 3.434688 1_555
Sb0 Sm4 3.490905 1_544
Sb0 Sm5 3.490905 1_454
Sb0 Sm1 3.490905 1_445
Sb1 Sm3 3.434677 1_555
Sb1 Sm1 3.434687 1_545
Sb1 Sm4 3.434688 1_544
Sb1 Sm0 3.490899 1_545
Sb1 Sm5 3.490913 1_555
Sb1 Sm2 3.490917 1_555
Sb2 Sm0 3.434677 1_555
Sb2 Sm4 3.434687 1_554
Sb2 Sm5 3.434688 1_454
Sb2 Sm2 3.490899 1_554
Sb2 Sm1 3.490913 1_555
Sb2 Sm3 3.490917 1_555
Sb3 Sm2 3.434677 1_555
Sb3 Sm5 3.434687 1_455
Sb3 Sm1 3.434688 1_445
Sb3 Sm3 3.490899 1_455
Sb3 Sm4 3.490913 1_555
Sb3 Sm0 3.490917 1_555
Sb4 Sm5 3.434670 1_565
Sb4 Sm4 3.434670 1_655
Sb4 Sm1 3.434670 1_556
Sb4 Sm2 3.490912 1_555
Sb4 Sm0 3.490912 1_555
Sb4 Sm3 3.490912 1_555
Sb5 Sm5 3.434676 1_555
Sb5 Sm0 3.434677 1_545
Sb5 Sm2 3.434679 1_555
Sb5 Sm1 3.490908 1_546
Sb5 Sm3 3.490918 1_556
Sb5 Sm4 3.490920 1_545
Sb6 Sm4 3.434676 1_555
Sb6 Sm3 3.434677 1_455
Sb6 Sm0 3.434679 1_555
Sb6 Sm5 3.490908 1_465
Sb6 Sm2 3.490918 1_565
Sb6 Sm1 3.490920 1_455
Sb7 Sm1 3.434676 1_555
Sb7 Sm2 3.434677 1_554
Sb7 Sm3 3.434679 1_555
Sb7 Sm4 3.490908 1_654
Sb7 Sm0 3.490918 1_655
Sb7 Sm5 3.490920 1_554
Au0 Sb0 2.808250 1_556
Au0 Sb6 2.808258 1_545
Au0 Sb5 2.808261 1_555
Au0 Sb2 2.808263 1_556
Au0 Sm5 3.063203 1_455
Au0 Sm4 3.063203 1_545
Au0 Sm2 3.063214 1_555
Au0 Sm3 3.063226 1_556
Au1 Sb3 2.808247 1_655
Au1 Sb1 2.808259 1_555
Au1 Sb7 2.808261 1_556
Au1 Sb4 2.808263 1_555
Au1 Sm3 3.063203 1_555
Au1 Sm4 3.063205 1_655
Au1 Sm5 3.063214 1_555
Au1 Sm2 3.063223 1_555
Au2 Sb0 2.808250 1_655
Au2 Sb5 2.808258 1_554
Au2 Sb7 2.808261 1_555
Au2 Sb3 2.808263 1_655
Au2 Sm5 3.063203 1_554
Au2 Sm1 3.063203 1_545
Au2 Sm3 3.063214 1_555
Au2 Sm0 3.063226 1_655
Au3 Sb0 2.808250 1_565
Au3 Sb7 2.808258 1_455
Au3 Sb6 2.808261 1_555
Au3 Sb1 2.808263 1_565
Au3 Sm1 3.063203 1_455
Au3 Sm4 3.063203 1_554
Au3 Sm0 3.063214 1_555
Au3 Sm2 3.063226 1_565
Au4 Sb1 2.808247 1_565
Au4 Sb2 2.808259 1_555
Au4 Sb6 2.808261 1_655
Au4 Sb4 2.808263 1_555
Au4 Sm0 3.063203 1_555
Au4 Sm5 3.063205 1_565
Au4 Sm1 3.063214 1_555
Au4 Sm3 3.063223 1_555
Au5 Sb2 2.808247 1_556
Au5 Sb3 2.808259 1_555
Au5 Sb5 2.808261 1_565
Au5 Sb4 2.808263 1_555
Au5 Sm2 3.063203 1_555
Au5 Sm1 3.063205 1_556
Au5 Sm4 3.063214 1_555
Au5 Sm0 3.063223 1_555
