# generated using pymatgen
data_RbTeAu
_symmetry_space_group_name_H-M   'P 1'
_cell_length_a   5.13832786
_cell_length_b   5.98093499
_cell_length_c   7.26749067
_cell_angle_alpha   90.00000000
_cell_angle_beta   90.00000000
_cell_angle_gamma   90.00000000
_symmetry_Int_Tables_number   1
_chemical_formula_structural   RbTeAu
_chemical_formula_sum   'Rb2 Te2 Au2'
_cell_volume   223.34455879
_cell_formula_units_Z   2
loop_
 _symmetry_equiv_pos_site_id
 _symmetry_equiv_pos_as_xyz
  1  'x, y, z'
loop_
 _atom_site_type_symbol
 _atom_site_label
 _atom_site_symmetry_multiplicity
 _atom_site_fract_x
 _atom_site_fract_y
 _atom_site_fract_z
 _atom_site_occupancy
  Rb  Rb0  1  0.50000000  0.75000000  0.28663811  1
  Rb  Rb1  1  0.50000000  0.25000000  0.71336189  1
  Te  Te0  1  0.00000000  0.75000000  0.70365787  1
  Te  Te1  1  0.00000000  0.25000000  0.29634213  1
  Au  Au0  1  0.00000000  0.00000000  0.00000000  1
  Au  Au1  1  0.00000000  0.50000000  0.00000000  1
loop_
_geom_bond_atom_site_label_1
_geom_bond_atom_site_label_2
_geom_bond_distance
_geom_bond_site_symmetry_2
Rb0 Te1 3.943155 1_555
Rb0 Te1 3.943155 1_655
Rb0 Te1 3.943155 1_565
Rb0 Te1 3.943155 1_665
Rb0 Te0 3.973118 1_555
Rb0 Te0 3.973118 1_655
Rb1 Te0 3.943155 1_655
Rb1 Te0 3.943155 1_645
Rb1 Te0 3.943155 1_555
Rb1 Te0 3.943155 1_545
Rb1 Te1 3.973118 1_555
Rb1 Te1 3.973118 1_655
Au0 Te1 2.621830 1_555
Au0 Te0 2.621830 1_544
Au0 Au1 2.990467 1_555
Au0 Au1 2.990467 1_545
Au0 Rb1 3.629848 1_554
Au0 Rb1 3.629848 1_454
Au0 Rb0 3.629848 1_445
Au0 Rb0 3.629848 1_545
Au1 Te1 2.621830 1_555
Au1 Te0 2.621830 1_554
Au1 Rb1 3.629848 1_554
Au1 Rb1 3.629848 1_454
Au1 Rb0 3.629848 1_455
Au1 Rb0 3.629848 1_555
