# generated using pymatgen
data_Tb3FeB7
_symmetry_space_group_name_H-M   'P 1'
_cell_length_a   8.07202541
_cell_length_b   8.07202541
_cell_length_c   9.33720763
_cell_angle_alpha   90.00000000
_cell_angle_beta   90.00000000
_cell_angle_gamma   155.52482676
_symmetry_Int_Tables_number   1
_chemical_formula_structural   Tb3FeB7
_chemical_formula_sum   'Tb6 Fe2 B14'
_cell_volume   252.05530761
_cell_formula_units_Z   2
loop_
 _symmetry_equiv_pos_site_id
 _symmetry_equiv_pos_as_xyz
  1  'x, y, z'
loop_
 _atom_site_type_symbol
 _atom_site_label
 _atom_site_symmetry_multiplicity
 _atom_site_fract_x
 _atom_site_fract_y
 _atom_site_fract_z
 _atom_site_occupancy
  Tb  Tb0  1  0.89553967  0.10446033  0.06047397  1
  Tb  Tb1  1  0.10446033  0.89553967  0.56047397  1
  Tb  Tb2  1  0.10446033  0.89553967  0.93952603  1
  Tb  Tb3  1  0.89553967  0.10446033  0.43952603  1
  Tb  Tb4  1  0.24292272  0.75707728  0.25000000  1
  Tb  Tb5  1  0.75707728  0.24292272  0.75000000  1
  Fe  Fe0  1  0.05490116  0.94509884  0.25000000  1
  Fe  Fe1  1  0.94509884  0.05490116  0.75000000  1
  B  B0  1  0.46126525  0.53873475  0.25000000  1
  B  B1  1  0.53873475  0.46126525  0.75000000  1
  B  B2  1  0.72721326  0.27278674  0.03228879  1
  B  B3  1  0.27278674  0.72721326  0.53228879  1
  B  B4  1  0.27278674  0.72721326  0.96771121  1
  B  B5  1  0.72721326  0.27278674  0.46771121  1
  B  B6  1  0.62985313  0.37014687  0.34629311  1
  B  B7  1  0.37014687  0.62985313  0.84629311  1
  B  B8  1  0.37014687  0.62985313  0.65370689  1
  B  B9  1  0.62985313  0.37014687  0.15370689  1
  B  B10  1  0.52249283  0.47750717  0.39967504  1
  B  B11  1  0.47750717  0.52249283  0.89967504  1
  B  B12  1  0.47750717  0.52249283  0.60032496  1
  B  B13  1  0.52249283  0.47750717  0.10032496  1
loop_
_geom_bond_atom_site_label_1
_geom_bond_atom_site_label_2
_geom_bond_distance
_geom_bond_site_symmetry_2
B0 B13 1.698910 1_555
B0 B10 1.698910 1_555
B0 Fe0 2.260521 1_655
B0 Fe0 2.260521 1_545
B0 Tb0 2.671037 1_565
B0 Tb3 2.671037 1_565
B0 Tb0 2.671037 1_455
B0 Tb3 2.671037 1_455
B1 B11 1.698910 1_555
B1 B12 1.698910 1_555
B1 Fe1 2.260521 1_565
B1 Fe1 2.260521 1_455
B1 Tb1 2.671037 1_655
B1 Tb2 2.671037 1_655
B1 Tb2 2.671037 1_545
B1 Tb1 2.671037 1_545
B2 B9 1.909137 1_555
B2 B4 1.951429 1_654
B2 B4 1.951429 1_544
B2 Tb4 2.668570 1_545
B2 Tb4 2.668570 1_655
B2 Tb0 2.668729 1_555
B2 Tb5 2.677571 1_554
B2 Tb2 2.725530 1_544
B2 Tb2 2.725530 1_654
B3 B8 1.909137 1_555
B3 B5 1.951429 1_565
B3 B5 1.951429 1_455
B3 Tb5 2.668570 1_455
B3 Tb5 2.668570 1_565
B3 Tb1 2.668729 1_555
B3 Tb4 2.677571 1_555
B3 Tb3 2.725530 1_565
B3 Tb3 2.725530 1_455
B4 B7 1.909137 1_555
B4 Tb5 2.668570 1_455
B4 Tb5 2.668570 1_565
B4 Tb2 2.668729 1_555
B4 Tb4 2.677571 1_556
B4 Tb0 2.725530 1_566
B4 Tb0 2.725530 1_456
B5 B6 1.909137 1_555
B5 Tb4 2.668570 1_545
B5 Tb4 2.668570 1_655
B5 Tb3 2.668729 1_555
B5 Tb5 2.677571 1_555
B5 Tb1 2.725530 1_655
B5 Tb1 2.725530 1_545
B6 B9 1.798218 1_555
B6 Fe0 2.265896 1_545
B6 Fe0 2.265896 1_655
B6 Tb4 2.630262 1_655
B6 Tb4 2.630262 1_545
B6 Tb1 2.662219 1_655
B6 Tb1 2.662219 1_545
B7 B8 1.798218 1_555
B7 Fe1 2.265896 1_455
B7 Fe1 2.265896 1_565
B7 Tb5 2.630262 1_455
B7 Tb5 2.630262 1_565
B7 Tb0 2.662219 1_566
B7 Tb0 2.662219 1_456
B8 Fe1 2.265896 1_455
B8 Fe1 2.265896 1_565
B8 Tb5 2.630262 1_455
B8 Tb5 2.630262 1_565
B8 Tb3 2.662219 1_565
B8 Tb3 2.662219 1_455
B9 Fe0 2.265896 1_545
B9 Fe0 2.265896 1_655
B9 Tb4 2.630262 1_655
B9 Tb4 2.630262 1_545
B9 Tb2 2.662219 1_544
B9 Tb2 2.662219 1_654
B10 B6 1.765660 1_555
B10 B12 2.003443 1_555
B10 Fe0 2.267616 1_655
B10 Fe0 2.267616 1_545
B10 Tb1 2.618045 1_545
B10 Tb1 2.618045 1_655
B10 Tb3 2.660420 1_455
B10 Tb3 2.660420 1_565
B11 B7 1.765660 1_555
B11 B13 2.003443 1_556
B11 Fe1 2.267616 1_565
B11 Fe1 2.267616 1_455
B11 Tb0 2.618045 1_456
B11 Tb0 2.618045 1_566
B11 Tb2 2.660420 1_545
B11 Tb2 2.660420 1_655
B12 B8 1.765660 1_555
B12 Fe1 2.267616 1_565
B12 Fe1 2.267616 1_455
B12 Tb3 2.618045 1_455
B12 Tb3 2.618045 1_565
B12 Tb1 2.660420 1_655
B12 Tb1 2.660420 1_545
B13 B9 1.765660 1_555
B13 Fe0 2.267616 1_655
B13 Fe0 2.267616 1_545
B13 Tb2 2.618045 1_544
B13 Tb2 2.618045 1_654
B13 Tb0 2.660420 1_455
B13 Tb0 2.660420 1_565
