# generated using pymatgen
data_Al2CoOs
_symmetry_space_group_name_H-M   'P 1'
_cell_length_a   4.13746520
_cell_length_b   4.13746306
_cell_length_c   4.13746377
_cell_angle_alpha   59.99994889
_cell_angle_beta   59.99996597
_cell_angle_gamma   59.99997162
_symmetry_Int_Tables_number   1
_chemical_formula_structural   Al2CoOs
_chemical_formula_sum   'Al2 Co1 Os1'
_cell_volume   50.08265197
_cell_formula_units_Z   1
loop_
 _symmetry_equiv_pos_site_id
 _symmetry_equiv_pos_as_xyz
  1  'x, y, z'
loop_
 _atom_site_type_symbol
 _atom_site_label
 _atom_site_symmetry_multiplicity
 _atom_site_fract_x
 _atom_site_fract_y
 _atom_site_fract_z
 _atom_site_occupancy
  Al  Al0  1  0.50000100  0.50000100  0.50000100  1
  Al  Al1  1  -0.00000000  0.00000000  -0.00000000  1
  Co  Co0  1  0.25000000  0.25000000  0.25000000  1
  Os  Os0  1  0.75000100  0.75000100  0.75000100  1
loop_
_geom_bond_atom_site_label_1
_geom_bond_atom_site_label_2
_geom_bond_distance
_geom_bond_site_symmetry_2
Al0 Co0 2.533664 1_565
Al0 Co0 2.533664 1_556
Al0 Co0 2.533665 1_655
Al0 Os0 2.533667 1_545
Al0 Os0 2.533667 1_554
Al0 Os0 2.533669 1_455
Al0 Os0 2.533670 1_555
Al0 Co0 2.533680 1_555
Al1 Os0 2.533660 1_444
Al1 Co0 2.533667 1_545
Al1 Co0 2.533667 1_554
Al1 Co0 2.533669 1_455
Al1 Co0 2.533670 1_555
Al1 Os0 2.533670 1_454
Al1 Os0 2.533671 1_445
Al1 Os0 2.533672 1_544
