# generated using pymatgen
data_Sm2Mg
_symmetry_space_group_name_H-M   'P 1'
_cell_length_a   7.60073464
_cell_length_b   17.81833791
_cell_length_c   11.08286128
_cell_angle_alpha   90.00000000
_cell_angle_beta   90.00000000
_cell_angle_gamma   77.68512069
_symmetry_Int_Tables_number   1
_chemical_formula_structural   Sm2Mg
_chemical_formula_sum   'Sm32 Mg16'
_cell_volume   1466.44194562
_cell_formula_units_Z   16
loop_
 _symmetry_equiv_pos_site_id
 _symmetry_equiv_pos_as_xyz
  1  'x, y, z'
loop_
 _atom_site_type_symbol
 _atom_site_label
 _atom_site_symmetry_multiplicity
 _atom_site_fract_x
 _atom_site_fract_y
 _atom_site_fract_z
 _atom_site_occupancy
  Sm  Sm0_0  1  0.48888718  0.02222715  0.00000000  1
  Sm  Sm0_1  1  0.48888718  0.02222715  0.50000000  1
  Sm  Sm0_2  1  0.48888718  0.52222715  0.00000000  1
  Sm  Sm0_3  1  0.48888718  0.52222715  0.50000000  1
  Sm  Sm0_4  1  0.98888718  0.02222715  0.00000000  1
  Sm  Sm0_5  1  0.98888718  0.02222715  0.50000000  1
  Sm  Sm0_6  1  0.98888718  0.52222715  0.00000000  1
  Sm  Sm0_7  1  0.98888718  0.52222715  0.50000000  1
  Sm  Sm1_0  1  0.33091755  0.33816590  0.00000000  1
  Sm  Sm1_1  1  0.33091755  0.33816590  0.50000000  1
  Sm  Sm1_2  1  0.33091755  0.83816590  0.00000000  1
  Sm  Sm1_3  1  0.33091755  0.83816590  0.50000000  1
  Sm  Sm1_4  1  0.83091755  0.33816590  0.00000000  1
  Sm  Sm1_5  1  0.83091755  0.33816590  0.50000000  1
  Sm  Sm1_6  1  0.83091755  0.83816590  0.00000000  1
  Sm  Sm1_7  1  0.83091755  0.83816590  0.50000000  1
  Sm  Sm2_0  1  0.40000232  0.19999485  0.24999950  1
  Sm  Sm2_1  1  0.40000232  0.19999485  0.74999950  1
  Sm  Sm2_2  1  0.40000232  0.69999485  0.24999950  1
  Sm  Sm2_3  1  0.40000232  0.69999485  0.74999950  1
  Sm  Sm2_4  1  0.90000232  0.19999485  0.24999950  1
  Sm  Sm2_5  1  0.90000232  0.19999485  0.74999950  1
  Sm  Sm2_6  1  0.90000232  0.69999485  0.24999950  1
  Sm  Sm2_7  1  0.90000232  0.69999485  0.74999950  1
  Sm  Sm3_0  1  0.05797095  0.38405610  0.24999950  1
  Sm  Sm3_1  1  0.05797095  0.38405610  0.74999950  1
  Sm  Sm3_2  1  0.05797095  0.88405610  0.24999950  1
  Sm  Sm3_3  1  0.05797095  0.88405610  0.74999950  1
  Sm  Sm3_4  1  0.55797095  0.38405610  0.24999950  1
  Sm  Sm3_5  1  0.55797095  0.38405610  0.74999950  1
  Sm  Sm3_6  1  0.55797095  0.88405610  0.24999950  1
  Sm  Sm3_7  1  0.55797095  0.88405610  0.74999950  1
  Mg  Mg0_0  1  0.16080953  0.17837944  0.00000000  1
  Mg  Mg0_1  1  0.16080953  0.17837944  0.50000000  1
  Mg  Mg0_2  1  0.16080953  0.67837944  0.00000000  1
  Mg  Mg0_3  1  0.16080953  0.67837944  0.50000000  1
  Mg  Mg0_4  1  0.66080953  0.17837944  0.00000000  1
  Mg  Mg0_5  1  0.66080953  0.17837944  0.50000000  1
  Mg  Mg0_6  1  0.66080953  0.67837944  0.00000000  1
  Mg  Mg0_7  1  0.66080953  0.67837944  0.50000000  1
  Mg  Mg1_0  1  0.22807797  0.04384306  0.24999950  1
  Mg  Mg1_1  1  0.22807797  0.04384306  0.74999950  1
  Mg  Mg1_2  1  0.22807797  0.54384306  0.24999950  1
  Mg  Mg1_3  1  0.22807797  0.54384306  0.74999950  1
  Mg  Mg1_4  1  0.72807797  0.04384306  0.24999950  1
  Mg  Mg1_5  1  0.72807797  0.04384306  0.74999950  1
  Mg  Mg1_6  1  0.72807797  0.54384306  0.24999950  1
  Mg  Mg1_7  1  0.72807797  0.54384306  0.74999950  1
loop_
_geom_bond_atom_site_label_1
_geom_bond_atom_site_label_2
_geom_bond_distance
_geom_bond_site_symmetry_2
Sm0_0 Sm3_6 3.669120 1_545
Sm0_0 Sm3_7 3.669128 1_544
Sm0_0 Sm1_6 3.725264 1_545
Sm0_0 Sm1_2 3.725267 1_545
Sm0_0 Sm0_4 3.800367 1_455
Sm0_0 Sm0_4 3.800367 1_555
Sm0_1 Sm3_7 3.669120 1_545
Sm0_1 Sm3_6 3.669128 1_545
Sm0_1 Sm1_7 3.725264 1_545
Sm0_1 Sm1_3 3.725267 1_545
Sm0_1 Sm0_5 3.800367 1_455
Sm0_1 Sm0_5 3.800367 1_555
Sm0_2 Sm3_4 3.669120 1_555
Sm0_2 Sm3_5 3.669128 1_554
Sm0_2 Sm1_4 3.725264 1_555
Sm0_2 Sm1_0 3.725267 1_555
Sm0_2 Sm0_6 3.800367 1_555
Sm0_2 Sm0_6 3.800367 1_455
Sm0_3 Sm3_5 3.669120 1_555
Sm0_3 Sm3_4 3.669128 1_555
Sm0_3 Sm1_5 3.725264 1_555
Sm0_3 Sm1_1 3.725267 1_555
Sm0_3 Sm0_7 3.800367 1_555
Sm0_3 Sm0_7 3.800367 1_455
Sm0_4 Sm3_2 3.669120 1_645
Sm0_4 Sm3_3 3.669128 1_644
Sm0_4 Sm1_2 3.725264 1_645
Sm0_4 Sm1_6 3.725267 1_545
Sm0_5 Sm3_3 3.669120 1_645
Sm0_5 Sm3_2 3.669128 1_645
Sm0_5 Sm1_3 3.725264 1_645
Sm0_5 Sm1_7 3.725267 1_545
Sm0_6 Sm3_0 3.669120 1_655
Sm0_6 Sm3_1 3.669128 1_654
Sm0_6 Sm1_0 3.725264 1_655
Sm0_6 Sm1_4 3.725267 1_555
Sm0_7 Sm3_1 3.669120 1_655
Sm0_7 Sm3_0 3.669128 1_655
Sm0_7 Sm1_1 3.725264 1_655
Sm0_7 Sm1_5 3.725267 1_555
Sm1_0 Sm3_4 3.453358 1_555
Sm1_0 Sm3_5 3.453367 1_554
Sm1_0 Sm3_0 3.453371 1_555
Sm1_0 Sm3_1 3.453380 1_554
Sm1_0 Sm2_0 3.669120 1_555
Sm1_0 Sm2_1 3.669128 1_554
Sm1_0 Sm1_4 3.800367 1_555
Sm1_0 Sm1_4 3.800367 1_455
Sm1_1 Sm3_5 3.453358 1_555
Sm1_1 Sm3_4 3.453367 1_555
Sm1_1 Sm3_1 3.453371 1_555
Sm1_1 Sm3_0 3.453380 1_555
Sm1_1 Sm2_1 3.669120 1_555
Sm1_1 Sm2_0 3.669128 1_555
Sm1_1 Sm1_5 3.800367 1_455
Sm1_1 Sm1_5 3.800367 1_555
Sm1_2 Sm3_6 3.453358 1_555
Sm1_2 Sm3_7 3.453367 1_554
Sm1_2 Sm3_2 3.453371 1_555
Sm1_2 Sm3_3 3.453380 1_554
Sm1_2 Sm2_2 3.669120 1_555
Sm1_2 Sm2_3 3.669128 1_554
Sm1_2 Sm1_6 3.800367 1_555
Sm1_2 Sm1_6 3.800367 1_455
Sm1_3 Sm3_7 3.453358 1_555
Sm1_3 Sm3_6 3.453367 1_555
Sm1_3 Sm3_3 3.453371 1_555
Sm1_3 Sm3_2 3.453380 1_555
Sm1_3 Sm2_3 3.669120 1_555
Sm1_3 Sm2_2 3.669128 1_555
Sm1_3 Sm1_7 3.800367 1_555
Sm1_3 Sm1_7 3.800367 1_455
Sm1_4 Sm3_0 3.453358 1_655
Sm1_4 Sm3_1 3.453367 1_654
Sm1_4 Sm3_4 3.453371 1_555
Sm1_4 Sm3_5 3.453380 1_554
Sm1_4 Sm2_4 3.669120 1_555
Sm1_4 Sm2_5 3.669128 1_554
Sm1_5 Sm3_1 3.453358 1_655
Sm1_5 Sm3_0 3.453367 1_655
Sm1_5 Sm3_5 3.453371 1_555
Sm1_5 Sm3_4 3.453380 1_555
Sm1_5 Sm2_5 3.669120 1_555
Sm1_5 Sm2_4 3.669128 1_555
Sm1_6 Sm3_2 3.453358 1_655
Sm1_6 Sm3_3 3.453367 1_654
Sm1_6 Sm3_6 3.453371 1_555
Sm1_6 Sm3_7 3.453380 1_554
Sm1_6 Sm2_6 3.669120 1_555
Sm1_6 Sm2_7 3.669128 1_554
Sm1_7 Sm3_3 3.453358 1_655
Sm1_7 Sm3_2 3.453367 1_655
Sm1_7 Sm3_7 3.453371 1_555
Sm1_7 Sm3_6 3.453380 1_555
Sm1_7 Sm2_7 3.669120 1_555
Sm1_7 Sm2_6 3.669128 1_555
Sm2_0 Sm3_4 3.725263 1_555
Sm2_0 Sm3_0 3.725268 1_555
Sm2_0 Sm2_4 3.800367 1_455
Sm2_0 Sm2_4 3.800367 1_555
Sm2_1 Sm3_5 3.725263 1_555
Sm2_1 Sm3_1 3.725268 1_555
Sm2_1 Sm2_5 3.800367 1_455
Sm2_1 Sm2_5 3.800367 1_555
Sm2_2 Sm3_6 3.725263 1_555
Sm2_2 Sm3_2 3.725268 1_555
Sm2_2 Sm2_6 3.800367 1_555
Sm2_2 Sm2_6 3.800367 1_455
Sm2_3 Sm3_7 3.725263 1_555
Sm2_3 Sm3_3 3.725268 1_555
Sm2_3 Sm2_7 3.800367 1_555
Sm2_3 Sm2_7 3.800367 1_455
Sm2_4 Sm3_0 3.725263 1_655
Sm2_4 Sm3_4 3.725268 1_555
Sm2_5 Sm3_1 3.725263 1_655
Sm2_5 Sm3_5 3.725268 1_555
Sm2_6 Sm3_2 3.725263 1_655
Sm2_6 Sm3_6 3.725268 1_555
Sm2_7 Sm3_3 3.725263 1_655
Sm2_7 Sm3_7 3.725268 1_555
Sm3_0 Sm3_4 3.800367 1_455
Sm3_0 Sm3_4 3.800367 1_555
Sm3_1 Sm3_5 3.800367 1_455
Sm3_1 Sm3_5 3.800367 1_555
Sm3_2 Sm3_6 3.800367 1_455
Sm3_2 Sm3_6 3.800367 1_555
Sm3_3 Sm3_7 3.800367 1_455
Sm3_3 Sm3_7 3.800367 1_555
Mg0_0 Sm0_4 3.316639 1_455
Mg0_0 Sm0_0 3.316652 1_555
Mg0_0 Sm1_4 3.368688 1_455
Mg0_0 Sm1_0 3.368699 1_555
Mg0_0 Sm2_4 3.380697 1_455
Mg0_0 Sm2_0 3.380701 1_555
Mg0_0 Sm2_5 3.380706 1_454
Mg0_0 Sm2_1 3.380710 1_554
Mg0_1 Sm0_5 3.316639 1_455
Mg0_1 Sm0_1 3.316652 1_555
Mg0_1 Sm1_5 3.368688 1_455
Mg0_1 Sm1_1 3.368699 1_555
Mg0_1 Sm2_5 3.380697 1_455
Mg0_1 Sm2_1 3.380701 1_555
Mg0_1 Sm2_4 3.380706 1_455
Mg0_1 Sm2_0 3.380710 1_555
Mg0_2 Sm0_6 3.316639 1_455
Mg0_2 Sm0_2 3.316652 1_555
Mg0_2 Sm1_6 3.368688 1_455
Mg0_2 Sm1_2 3.368699 1_555
Mg0_2 Sm2_6 3.380697 1_455
Mg0_2 Sm2_2 3.380701 1_555
Mg0_2 Sm2_7 3.380706 1_454
Mg0_2 Sm2_3 3.380710 1_554
Mg0_3 Sm0_7 3.316639 1_455
Mg0_3 Sm0_3 3.316652 1_555
Mg0_3 Sm1_7 3.368688 1_455
Mg0_3 Sm1_3 3.368699 1_555
Mg0_3 Sm2_7 3.380697 1_455
Mg0_3 Sm2_3 3.380701 1_555
Mg0_3 Sm2_6 3.380706 1_455
Mg0_3 Sm2_2 3.380710 1_555
Mg0_4 Sm0_0 3.316639 1_555
Mg0_4 Sm0_4 3.316652 1_555
Mg0_4 Sm1_0 3.368688 1_555
Mg0_4 Sm1_4 3.368699 1_555
Mg0_4 Sm2_0 3.380697 1_555
Mg0_4 Sm2_4 3.380701 1_555
Mg0_4 Sm2_1 3.380706 1_554
Mg0_4 Sm2_5 3.380710 1_554
Mg0_5 Sm0_1 3.316639 1_555
Mg0_5 Sm0_5 3.316652 1_555
Mg0_5 Sm1_1 3.368688 1_555
Mg0_5 Sm1_5 3.368699 1_555
Mg0_5 Sm2_1 3.380697 1_555
Mg0_5 Sm2_5 3.380701 1_555
Mg0_5 Sm2_0 3.380706 1_555
Mg0_5 Sm2_4 3.380710 1_555
Mg0_6 Sm0_2 3.316639 1_555
Mg0_6 Sm0_6 3.316652 1_555
Mg0_6 Sm1_2 3.368688 1_555
Mg0_6 Sm1_6 3.368699 1_555
Mg0_6 Sm2_2 3.380697 1_555
Mg0_6 Sm2_6 3.380701 1_555
Mg0_6 Sm2_3 3.380706 1_554
Mg0_6 Sm2_7 3.380710 1_554
Mg0_7 Sm0_3 3.316639 1_555
Mg0_7 Sm0_7 3.316652 1_555
Mg0_7 Sm1_3 3.368688 1_555
Mg0_7 Sm1_7 3.368699 1_555
Mg0_7 Sm2_3 3.380697 1_555
Mg0_7 Sm2_7 3.380701 1_555
Mg0_7 Sm2_2 3.380706 1_555
Mg0_7 Sm2_6 3.380710 1_555
Mg1_0 Sm2_4 3.316637 1_455
Mg1_0 Sm2_0 3.316640 1_555
Mg1_0 Sm3_6 3.368698 1_545
Mg1_0 Sm3_2 3.368702 1_545
Mg1_0 Sm0_4 3.380694 1_455
Mg1_0 Sm0_5 3.380703 1_455
Mg1_0 Sm0_0 3.380705 1_555
Mg1_0 Sm0_1 3.380714 1_555
Mg1_1 Sm2_5 3.316637 1_455
Mg1_1 Sm2_1 3.316640 1_555
Mg1_1 Sm3_7 3.368698 1_545
Mg1_1 Sm3_3 3.368702 1_545
Mg1_1 Sm0_5 3.380694 1_455
Mg1_1 Sm0_4 3.380703 1_456
Mg1_1 Sm0_1 3.380705 1_555
Mg1_1 Sm0_0 3.380714 1_556
Mg1_2 Sm2_6 3.316637 1_455
Mg1_2 Sm2_2 3.316640 1_555
Mg1_2 Sm3_4 3.368698 1_555
Mg1_2 Sm3_0 3.368702 1_555
Mg1_2 Sm0_6 3.380694 1_455
Mg1_2 Sm0_7 3.380703 1_455
Mg1_2 Sm0_2 3.380705 1_555
Mg1_2 Sm0_3 3.380714 1_555
Mg1_3 Sm2_7 3.316637 1_455
Mg1_3 Sm2_3 3.316640 1_555
Mg1_3 Sm3_5 3.368698 1_555
Mg1_3 Sm3_1 3.368702 1_555
Mg1_3 Sm0_7 3.380694 1_455
Mg1_3 Sm0_6 3.380703 1_456
Mg1_3 Sm0_3 3.380705 1_555
Mg1_3 Sm0_2 3.380714 1_556
Mg1_4 Sm2_0 3.316637 1_555
Mg1_4 Sm2_4 3.316640 1_555
Mg1_4 Sm3_2 3.368698 1_645
Mg1_4 Sm3_6 3.368702 1_545
Mg1_4 Sm0_0 3.380694 1_555
Mg1_4 Sm0_1 3.380703 1_555
Mg1_4 Sm0_4 3.380705 1_555
Mg1_4 Sm0_5 3.380714 1_555
Mg1_5 Sm2_1 3.316637 1_555
Mg1_5 Sm2_5 3.316640 1_555
Mg1_5 Sm3_3 3.368698 1_645
Mg1_5 Sm3_7 3.368702 1_545
Mg1_5 Sm0_1 3.380694 1_555
Mg1_5 Sm0_0 3.380703 1_556
Mg1_5 Sm0_5 3.380705 1_555
Mg1_5 Sm0_4 3.380714 1_556
Mg1_6 Sm2_2 3.316637 1_555
Mg1_6 Sm2_6 3.316640 1_555
Mg1_6 Sm3_0 3.368698 1_655
Mg1_6 Sm3_4 3.368702 1_555
Mg1_6 Sm0_2 3.380694 1_555
Mg1_6 Sm0_3 3.380703 1_555
Mg1_6 Sm0_6 3.380705 1_555
Mg1_6 Sm0_7 3.380714 1_555
Mg1_7 Sm2_3 3.316637 1_555
Mg1_7 Sm2_7 3.316640 1_555
Mg1_7 Sm3_1 3.368698 1_655
Mg1_7 Sm3_5 3.368702 1_555
Mg1_7 Sm0_3 3.380694 1_555
Mg1_7 Sm0_2 3.380703 1_556
Mg1_7 Sm0_7 3.380705 1_555
Mg1_7 Sm0_6 3.380714 1_556
