# generated using pymatgen
data_Ca6In2NF
_symmetry_space_group_name_H-M   'P 1'
_cell_length_a   7.04346378
_cell_length_b   7.04346378
_cell_length_c   7.04346378
_cell_angle_alpha   60.00000000
_cell_angle_beta   60.00000000
_cell_angle_gamma   60.00000000
_symmetry_Int_Tables_number   1
_chemical_formula_structural   Ca6In2NF
_chemical_formula_sum   'Ca6 In2 N1 F1'
_cell_volume   247.08356487
_cell_formula_units_Z   1
loop_
 _symmetry_equiv_pos_site_id
 _symmetry_equiv_pos_as_xyz
  1  'x, y, z'
loop_
 _atom_site_type_symbol
 _atom_site_label
 _atom_site_symmetry_multiplicity
 _atom_site_fract_x
 _atom_site_fract_y
 _atom_site_fract_z
 _atom_site_occupancy
  Ca  Ca0  1  0.23998700  0.76001200  0.76001200  1
  Ca  Ca1  1  0.23998800  0.76001300  0.23998700  1
  Ca  Ca2  1  0.76001200  0.23998700  0.76001200  1
  Ca  Ca3  1  0.76001300  0.76001300  0.23998700  1
  Ca  Ca4  1  0.23998800  0.23998800  0.76001200  1
  Ca  Ca5  1  0.76001300  0.23998800  0.23998700  1
  In  In0  1  0.25000000  0.25000000  0.25000000  1
  In  In1  1  0.75000000  0.75000000  0.75000000  1
  N  N0  1  0.00000000  0.00000000  0.00000000  1
  F  F0  1  0.50000000  0.50000000  0.50000000  1
loop_
_geom_bond_atom_site_label_1
_geom_bond_atom_site_label_2
_geom_bond_distance
_geom_bond_site_symmetry_2
Ca0 N0 2.390511 1_566
Ca0 F0 2.589970 1_555
Ca0 In1 3.523137 1_455
Ca0 In0 3.523144 1_565
Ca0 In0 3.523144 1_556
Ca0 In1 3.523151 1_555
Ca1 N0 2.390506 1_565
Ca1 F0 2.589975 1_555
Ca1 In0 3.523140 1_565
Ca1 In1 3.523140 1_554
Ca1 In1 3.523147 1_455
Ca1 In0 3.523147 1_555
Ca2 N0 2.390511 1_656
Ca2 F0 2.589970 1_555
Ca2 In1 3.523137 1_545
Ca2 In0 3.523144 1_655
Ca2 In0 3.523144 1_556
Ca2 In1 3.523151 1_555
Ca3 N0 2.390501 1_665
Ca3 F0 2.589980 1_555
Ca3 In1 3.523144 1_555
Ca3 In0 3.523144 1_565
Ca3 In0 3.523144 1_655
Ca3 In1 3.523144 1_554
Ca4 N0 2.390511 1_556
Ca4 F0 2.589970 1_555
Ca4 In0 3.523144 1_555
Ca4 In1 3.523144 1_455
Ca4 In1 3.523144 1_545
Ca4 In0 3.523144 1_556
Ca5 N0 2.390506 1_655
Ca5 F0 2.589975 1_555
Ca5 In0 3.523140 1_655
Ca5 In1 3.523140 1_554
Ca5 In1 3.523147 1_545
Ca5 In0 3.523147 1_555
