# generated using pymatgen
data_Lu2PdRh
_symmetry_space_group_name_H-M   'P 1'
_cell_length_a   4.76439770
_cell_length_b   4.76387818
_cell_length_c   4.76295875
_cell_angle_alpha   60.00130150
_cell_angle_beta   60.01486316
_cell_angle_gamma   59.99529471
_symmetry_Int_Tables_number   1
_chemical_formula_structural   Lu2PdRh
_chemical_formula_sum   'Lu2 Pd1 Rh1'
_cell_volume   76.44833979
_cell_formula_units_Z   1
loop_
 _symmetry_equiv_pos_site_id
 _symmetry_equiv_pos_as_xyz
  1  'x, y, z'
loop_
 _atom_site_type_symbol
 _atom_site_label
 _atom_site_symmetry_multiplicity
 _atom_site_fract_x
 _atom_site_fract_y
 _atom_site_fract_z
 _atom_site_occupancy
  Lu  Lu0  1  0.00000045  0.99997288  0.00000115  1
  Lu  Lu1  1  0.49999993  0.50002682  0.49999852  1
  Pd  Pd0  1  0.24999425  0.24999232  0.25000480  1
  Rh  Rh0  1  0.75000438  0.75000898  0.74999553  1
loop_
_geom_bond_atom_site_label_1
_geom_bond_atom_site_label_2
_geom_bond_distance
_geom_bond_site_symmetry_2
Lu0 Rh0 2.916968 1_454
Lu0 Pd0 2.917008 1_555
Lu0 Rh0 2.917074 1_455
Lu0 Pd0 2.917082 1_564
Lu0 Pd0 2.917168 1_565
Lu0 Rh0 2.917224 1_464
Lu0 Rh0 2.917816 1_554
Lu0 Pd0 2.917824 1_465
Lu1 Pd0 2.916949 1_565
Lu1 Rh0 2.917038 1_555
Lu1 Rh0 2.917107 1_554
Lu1 Pd0 2.917120 1_556
Lu1 Rh0 2.917153 1_545
Lu1 Pd0 2.917234 1_555
Lu1 Pd0 2.917778 1_655
Lu1 Rh0 2.917783 1_455
