# generated using pymatgen
data_HfAs
_symmetry_space_group_name_H-M   'P 1'
_cell_length_a   3.78670151
_cell_length_b   3.78670160
_cell_length_c   12.68227822
_cell_angle_alpha   90.00000000
_cell_angle_beta   90.00000000
_cell_angle_gamma   120.00000801
_symmetry_Int_Tables_number   1
_chemical_formula_structural   HfAs
_chemical_formula_sum   'Hf4 As4'
_cell_volume   157.48892891
_cell_formula_units_Z   4
loop_
 _symmetry_equiv_pos_site_id
 _symmetry_equiv_pos_as_xyz
  1  'x, y, z'
loop_
 _atom_site_type_symbol
 _atom_site_label
 _atom_site_symmetry_multiplicity
 _atom_site_fract_x
 _atom_site_fract_y
 _atom_site_fract_z
 _atom_site_occupancy
  Hf  Hf0  1  0.33333300  0.66666700  0.38307015  1
  Hf  Hf1  1  0.66666700  0.33333300  0.88307015  1
  Hf  Hf2  1  0.66666700  0.33333300  0.61692985  1
  Hf  Hf3  1  0.33333300  0.66666700  0.11692985  1
  As  As0  1  0.66666700  0.33333300  0.25000000  1
  As  As1  1  0.33333300  0.66666700  0.75000000  1
  As  As2  1  0.00000000  -0.00000000  0.50000000  1
  As  As3  1  0.00000000  -0.00000000  -0.00000000  1
loop_
_geom_bond_atom_site_label_1
_geom_bond_atom_site_label_2
_geom_bond_distance
_geom_bond_site_symmetry_2
As0 Hf3 2.761847 1_655
As0 Hf0 2.761847 1_655
As0 Hf3 2.761847 1_545
As0 Hf0 2.761847 1_545
As0 Hf3 2.761852 1_555
As0 Hf0 2.761852 1_555
As1 Hf1 2.761847 1_455
As1 Hf2 2.761847 1_455
As1 Hf2 2.761847 1_565
As1 Hf1 2.761847 1_565
As1 Hf1 2.761852 1_555
As1 Hf2 2.761852 1_555
As2 Hf0 2.641741 1_545
As2 Hf2 2.641741 1_455
As2 Hf0 2.641743 1_445
As2 Hf2 2.641743 1_555
As2 Hf0 2.641744 1_555
As2 Hf2 2.641744 1_445
As3 Hf3 2.641741 1_545
As3 Hf1 2.641741 1_454
As3 Hf1 2.641743 1_554
As3 Hf3 2.641743 1_445
As3 Hf1 2.641744 1_444
As3 Hf3 2.641744 1_555
