# generated using pymatgen
data_RbMgPO4
_symmetry_space_group_name_H-M   'P 1'
_cell_length_a   8.79702194
_cell_length_b   9.29490004
_cell_length_c   5.38619167
_cell_angle_alpha   90.00000000
_cell_angle_beta   90.00000000
_cell_angle_gamma   90.00000000
_symmetry_Int_Tables_number   1
_chemical_formula_structural   RbMgPO4
_chemical_formula_sum   'Rb4 Mg4 P4 O16'
_cell_volume   440.41510195
_cell_formula_units_Z   4
loop_
 _symmetry_equiv_pos_site_id
 _symmetry_equiv_pos_as_xyz
  1  'x, y, z'
loop_
 _atom_site_type_symbol
 _atom_site_label
 _atom_site_symmetry_multiplicity
 _atom_site_fract_x
 _atom_site_fract_y
 _atom_site_fract_z
 _atom_site_occupancy
  Rb  Rb0  1  0.49610134  0.21531754  0.22863548  1
  Rb  Rb1  1  0.99610034  0.28468346  0.22863548  1
  Rb  Rb2  1  0.00389966  0.71531754  0.72863548  1
  Rb  Rb3  1  0.50389966  0.78468246  0.72863548  1
  Mg  Mg0  1  0.31788677  0.58407559  0.24737308  1
  Mg  Mg1  1  0.81788777  0.91592441  0.24737308  1
  Mg  Mg2  1  0.18211223  0.08407559  0.74737308  1
  Mg  Mg3  1  0.68211223  0.41592441  0.74737308  1
  P  P0  1  0.70692326  0.58031212  0.24654750  1
  P  P1  1  0.20692226  0.91968788  0.24654750  1
  P  P2  1  0.79307674  0.08031212  0.74654750  1
  P  P3  1  0.29307774  0.41968788  0.74654750  1
  O  O0  1  0.76887427  0.55108369  0.98424908  1
  O  O1  1  0.26887427  0.94891631  0.98424908  1
  O  O2  1  0.53370772  0.58344194  0.23819372  1
  O  O3  1  0.03370772  0.91655906  0.23819372  1
  O  O4  1  0.76506520  0.72449762  0.34528159  1
  O  O5  1  0.26506420  0.77550238  0.34528159  1
  O  O6  1  0.26057229  0.03995423  0.42191955  1
  O  O7  1  0.76057329  0.46004577  0.42191955  1
  O  O8  1  0.73112573  0.05108369  0.48424908  1
  O  O9  1  0.23112673  0.44891631  0.48424908  1
  O  O10  1  0.96629228  0.08344094  0.73819472  1
  O  O11  1  0.46629328  0.41655806  0.73819472  1
  O  O12  1  0.73493480  0.22449662  0.84528159  1
  O  O13  1  0.23493480  0.27550338  0.84528159  1
  O  O14  1  0.23942771  0.53995423  0.92191955  1
  O  O15  1  0.73942671  0.96004577  0.92191955  1
loop_
_geom_bond_atom_site_label_1
_geom_bond_atom_site_label_2
_geom_bond_distance
_geom_bond_site_symmetry_2
Mg0 O2 1.899234 1_555
Mg0 O5 1.913090 1_555
Mg0 O14 1.928061 1_554
Mg0 O9 1.946434 1_555
Mg1 O3 1.899226 1_655
Mg1 O4 1.913090 1_555
Mg1 O15 1.928068 1_554
Mg1 O8 1.946441 1_565
Mg2 O10 1.899226 1_455
Mg2 O13 1.913099 1_555
Mg2 O6 1.928065 1_555
Mg2 O1 1.946441 1_545
Mg3 O11 1.899217 1_555
Mg3 O12 1.913099 1_555
Mg3 O7 1.928068 1_555
Mg3 O0 1.946441 1_555
O0 P0 1.538437 1_556
O0 Rb2 2.915562 1_655
O0 Rb1 3.443794 1_556
O0 Rb3 3.470372 1_555
O1 P1 1.538441 1_556
O1 Rb3 2.915562 1_555
O1 Rb0 3.443805 1_566
O1 Rb2 3.470372 1_555
O2 P0 1.524723 1_555
O2 Rb3 3.247413 1_555
O2 Rb3 3.331708 1_554
O2 Rb0 3.438021 1_555
O3 P1 1.524714 1_555
O3 Rb2 3.247418 1_555
O3 Rb2 3.331714 1_554
O3 Rb1 3.438021 1_465
O4 P0 1.529879 1_555
O4 Rb2 2.947047 1_655
O4 Rb3 3.139239 1_555
O5 P1 1.529879 1_555
O5 Rb3 2.947054 1_555
O5 Rb2 3.139233 1_555
O6 P1 1.537729 1_545
O6 Rb0 2.834371 1_555
O6 Rb1 3.416305 1_455
O7 P0 1.537729 1_555
O7 Rb1 2.834353 1_555
O7 Rb0 3.416298 1_555
O8 P2 1.538437 1_555
O8 Rb0 2.915556 1_555
O8 Rb3 3.443800 1_545
O8 Rb1 3.470378 1_555
O9 P3 1.538437 1_555
O9 Rb1 2.915564 1_455
O9 Rb2 3.443805 1_555
O9 Rb0 3.470372 1_555
O10 P2 1.524722 1_555
O10 Rb1 3.247419 1_556
O10 Rb1 3.331723 1_555
O10 Rb2 3.438012 1_645
O11 P3 1.524722 1_555
O11 Rb0 3.247409 1_556
O11 Rb0 3.331713 1_555
O11 Rb3 3.438021 1_555
O12 P2 1.529870 1_555
O12 Rb0 2.947041 1_556
O12 Rb1 3.139243 1_556
O13 P3 1.529873 1_555
O13 Rb1 2.947047 1_456
O13 Rb0 3.139247 1_556
O14 P3 1.537729 1_555
O14 Rb2 2.834365 1_555
O14 Rb3 3.416298 1_555
O15 P2 1.537729 1_565
O15 Rb3 2.834358 1_555
O15 Rb2 3.416304 1_655
