# generated using pymatgen
data_Sn5O6
_symmetry_space_group_name_H-M   'P 1'
_cell_length_a   4.89427967
_cell_length_b   13.84555188
_cell_length_c   5.79922978
_cell_angle_alpha   91.76297288
_cell_angle_beta   90.00000000
_cell_angle_gamma   90.00000000
_symmetry_Int_Tables_number   1
_chemical_formula_structural   Sn5O6
_chemical_formula_sum   'Sn10 O12'
_cell_volume   392.79300813
_cell_formula_units_Z   2
loop_
 _symmetry_equiv_pos_site_id
 _symmetry_equiv_pos_as_xyz
  1  'x, y, z'
loop_
 _atom_site_type_symbol
 _atom_site_label
 _atom_site_symmetry_multiplicity
 _atom_site_fract_x
 _atom_site_fract_y
 _atom_site_fract_z
 _atom_site_occupancy
  Sn  Sn0  1  0.00112870  0.90297418  0.82285988  1
  Sn  Sn1  1  0.00013035  0.69103592  0.34500598  1
  Sn  Sn2  1  0.49887130  0.90297418  0.32285988  1
  Sn  Sn3  1  0.50112870  0.09702582  0.67714012  1
  Sn  Sn4  1  0.50013035  0.30896408  0.15499502  1
  Sn  Sn5  1  -0.00112870  0.09702582  0.17714012  1
  Sn  Sn6  1  -0.00013035  0.30896408  0.65499402  1
  Sn  Sn7  1  0.50000000  0.50000000  0.50000000  1
  Sn  Sn8  1  0.49986965  0.69103592  0.84500698  1
  Sn  Sn9  1  -0.00000000  0.50000000  0.00000000  1
  O  O0  1  0.82076379  0.63566624  0.03547048  1
  O  O1  1  0.17923621  0.36433376  0.96452952  1
  O  O2  1  0.32076379  0.36433376  0.46452952  1
  O  O3  1  0.80213851  0.44352507  0.70948554  1
  O  O4  1  0.19786149  0.55647493  0.29051446  1
  O  O5  1  0.68361129  0.04161941  0.37157435  1
  O  O6  1  0.81638871  0.04161941  0.87157435  1
  O  O7  1  0.67923621  0.63566624  0.53547048  1
  O  O8  1  0.31638871  0.95838059  0.62842565  1
  O  O9  1  0.18361129  0.95838059  0.12842565  1
  O  O10  1  0.30213851  0.55647493  0.79051446  1
  O  O11  1  0.69786149  0.44352507  0.20948554  1
loop_
_geom_bond_atom_site_label_1
_geom_bond_atom_site_label_2
_geom_bond_distance
_geom_bond_site_symmetry_2
O0 Sn9 2.077586 1_655
O0 Sn8 2.080009 1_554
O0 Sn1 2.120368 1_655
O1 Sn9 2.077586 1_556
O1 Sn4 2.080016 1_556
O1 Sn6 2.120368 1_555
O2 Sn7 2.077586 1_555
O2 Sn6 2.080013 1_555
O2 Sn4 2.120363 1_555
O3 Sn9 2.075222 1_656
O3 Sn7 2.081450 1_555
O3 Sn6 2.114524 1_655
O4 Sn9 2.075222 1_555
O4 Sn7 2.081450 1_555
O4 Sn1 2.114524 1_555
O5 Sn5 2.072169 1_655
O5 Sn3 2.107762 1_555
O5 Sn2 2.132816 1_545
O6 Sn3 2.072169 1_555
O6 Sn5 2.107762 1_656
O6 Sn0 2.132816 1_645
O7 Sn7 2.077586 1_555
O7 Sn1 2.080013 1_655
O7 Sn8 2.120373 1_555
O8 Sn0 2.072169 1_555
O8 Sn2 2.107762 1_555
O8 Sn3 2.132816 1_565
O9 Sn2 2.072169 1_555
O9 Sn0 2.107762 1_554
O9 Sn5 2.132816 1_565
O10 Sn7 2.075222 1_555
O10 Sn9 2.081450 1_556
O10 Sn8 2.114525 1_555
O11 Sn7 2.075222 1_555
O11 Sn9 2.081450 1_655
O11 Sn4 2.114524 1_555
