# generated using pymatgen
data_CsBaSiHO4
_symmetry_space_group_name_H-M   'P 1'
_cell_length_a   8.34261700
_cell_length_b   6.12071400
_cell_length_c   6.12414432
_cell_angle_alpha   61.75199618
_cell_angle_beta   90.00000000
_cell_angle_gamma   90.00000000
_symmetry_Int_Tables_number   1
_chemical_formula_structural   CsBaSiHO4
_chemical_formula_sum   'Cs2 Ba2 Si2 H2 O8'
_cell_volume   275.47359918
_cell_formula_units_Z   2
loop_
 _symmetry_equiv_pos_site_id
 _symmetry_equiv_pos_as_xyz
  1  'x, y, z'
loop_
 _atom_site_type_symbol
 _atom_site_label
 _atom_site_symmetry_multiplicity
 _atom_site_fract_x
 _atom_site_fract_y
 _atom_site_fract_z
 _atom_site_occupancy
  Cs  Cs0  1  0.22989300  0.36432500  0.27672000  1
  Cs  Cs1  1  0.72989300  0.63567500  0.72328000  1
  Ba  Ba0  1  0.48288000  0.01656300  0.98958400  1
  Ba  Ba1  1  0.98288000  0.98343700  0.01041600  1
  Si  Si0  1  0.24570800  0.69245400  0.61648300  1
  Si  Si1  1  0.74570800  0.30754600  0.38351700  1
  H  H0  1  0.01308800  0.51720400  0.53918800  1
  H  H1  1  0.51308800  0.48279600  0.46081200  1
  O  O0  1  0.23673400  0.84619200  0.77405500  1
  O  O1  1  0.73673400  0.15380800  0.22594500  1
  O  O2  1  0.24060500  0.87383200  0.31522100  1
  O  O3  1  0.74060500  0.12616800  0.68477900  1
  O  O4  1  0.39379500  0.49082600  0.69718700  1
  O  O5  1  0.89379500  0.50917400  0.30281300  1
  O  O6  1  0.07429700  0.50872100  0.68453800  1
  O  O7  1  0.57429700  0.49127900  0.31546200  1
loop_
_geom_bond_atom_site_label_1
_geom_bond_atom_site_label_2
_geom_bond_distance
_geom_bond_site_symmetry_2
Cs0 H1 2.855260 1_555
Cs0 H0 2.855609 1_555
Cs0 O2 2.899403 1_545
Cs0 O5 2.967781 1_455
Cs0 O7 3.014974 1_555
Cs0 O0 3.095846 1_554
Cs0 O0 3.192830 1_545
Cs0 O2 3.238046 1_555
Cs0 O4 3.314678 1_555
Cs0 O4 3.530498 1_554
Cs0 O6 3.547452 1_554
Cs1 H0 2.855260 1_655
Cs1 H1 2.855609 1_555
Cs1 O3 2.899403 1_565
Cs1 O4 2.967781 1_555
Cs1 O6 3.014974 1_655
Cs1 O1 3.095846 1_556
Cs1 O1 3.192830 1_565
Cs1 O3 3.238046 1_555
Cs1 O5 3.314678 1_555
Cs1 O5 3.530498 1_556
Cs1 O7 3.547452 1_556
Ba0 O2 2.678876 1_546
Ba0 O4 2.695357 1_555
Ba0 O3 2.715155 1_555
Ba0 O0 2.889530 1_545
Ba0 O1 2.904660 1_556
Ba0 O7 2.971164 1_546
Ba1 O3 2.678876 1_564
Ba1 O5 2.695357 1_555
Ba1 O2 2.715155 1_655
Ba1 O1 2.889530 1_565
Ba1 O0 2.904660 1_654
Ba1 O6 2.971164 1_664
H0 O6 1.006012 1_555
H1 O7 1.006012 1_555
O0 Si0 1.637623 1_555
O1 Si1 1.637623 1_555
O2 Si0 1.642984 1_555
O3 Si1 1.642984 1_555
O4 Si0 1.648098 1_555
O5 Si1 1.648098 1_555
O6 Si0 1.743463 1_555
O7 Si1 1.743463 1_555
