# generated using pymatgen
data_Ba(AuO2)2
_symmetry_space_group_name_H-M   'P 1'
_cell_length_a   6.49562470
_cell_length_b   6.49562450
_cell_length_c   6.90103160
_cell_angle_alpha   118.07501038
_cell_angle_beta   118.07501884
_cell_angle_gamma   90.00000047
_symmetry_Int_Tables_number   1
_chemical_formula_structural   Ba(AuO2)2
_chemical_formula_sum   'Ba2 Au4 O8'
_cell_volume   217.31580062
_cell_formula_units_Z   2
loop_
 _symmetry_equiv_pos_site_id
 _symmetry_equiv_pos_as_xyz
  1  'x, y, z'
loop_
 _atom_site_type_symbol
 _atom_site_label
 _atom_site_symmetry_multiplicity
 _atom_site_fract_x
 _atom_site_fract_y
 _atom_site_fract_z
 _atom_site_occupancy
  Ba  Ba0  1  0.12500000  0.37500000  0.25000000  1
  Ba  Ba1  1  0.87500000  0.62500000  0.75000000  1
  Au  Au0  1  0.50000000  -0.00000000  0.50000000  1
  Au  Au1  1  0.50000000  0.50000000  -0.00000000  1
  Au  Au2  1  -0.00000000  -0.00000000  0.50000000  1
  Au  Au3  1  0.50000000  -0.00000000  -0.00000000  1
  O  O0  1  0.82000528  0.18533376  0.34130090  1
  O  O1  1  0.15596715  0.32000528  0.84130090  1
  O  O2  1  0.68533376  0.02129562  0.84130090  1
  O  O3  1  0.52129562  0.65596715  0.34130090  1
  O  O4  1  0.17999472  0.81466624  0.65869910  1
  O  O5  1  0.84403285  0.67999472  0.15869910  1
  O  O6  1  0.47870438  0.34403285  0.65869910  1
  O  O7  1  0.31466624  0.97870438  0.15869910  1
loop_
_geom_bond_atom_site_label_1
_geom_bond_atom_site_label_2
_geom_bond_distance
_geom_bond_site_symmetry_2
Ba0 O2 2.776444 1_454
Ba0 O6 2.776444 1_555
Ba0 O4 2.776445 1_555
Ba0 O1 2.776445 1_554
Ba0 O3 2.783031 1_555
Ba0 O5 2.783031 1_455
Ba0 O7 2.783031 1_545
Ba0 O0 2.783031 1_455
Ba1 O7 2.776444 1_656
Ba1 O3 2.776444 1_555
Ba1 O0 2.776445 1_555
Ba1 O5 2.776445 1_556
Ba1 O6 2.783031 1_555
Ba1 O1 2.783031 1_655
Ba1 O2 2.783031 1_565
Ba1 O4 2.783031 1_655
Au0 O2 2.010075 1_555
Au0 O7 2.010075 1_545
Au0 O6 2.012819 1_555
Au0 O3 2.012819 1_545
Au1 O3 2.010075 1_555
Au1 O6 2.010075 1_554
Au1 O1 2.012818 1_554
Au1 O5 2.012818 1_555
Au2 O1 2.010075 1_555
Au2 O5 2.010075 1_445
Au2 O4 2.012819 1_545
Au2 O0 2.012819 1_455
Au3 O0 2.010075 1_555
Au3 O4 2.010075 1_544
Au3 O7 2.012819 1_545
Au3 O2 2.012819 1_554
