# generated using pymatgen
data_HfSb3
_symmetry_space_group_name_H-M   'P 1'
_cell_length_a   6.49785072
_cell_length_b   6.49785072
_cell_length_c   5.52448500
_cell_angle_alpha   90.00000000
_cell_angle_beta   90.00000000
_cell_angle_gamma   120.00000732
_symmetry_Int_Tables_number   1
_chemical_formula_structural   HfSb3
_chemical_formula_sum   'Hf2 Sb6'
_cell_volume   202.00487839
_cell_formula_units_Z   2
loop_
 _symmetry_equiv_pos_site_id
 _symmetry_equiv_pos_as_xyz
  1  'x, y, z'
loop_
 _atom_site_type_symbol
 _atom_site_label
 _atom_site_symmetry_multiplicity
 _atom_site_fract_x
 _atom_site_fract_y
 _atom_site_fract_z
 _atom_site_occupancy
  Hf  Hf0  1  0.33333300  0.66666700  0.75000000  1
  Hf  Hf1  1  0.66666700  0.33333300  0.25000000  1
  Sb  Sb0  1  0.17739700  0.35479300  0.25000000  1
  Sb  Sb1  1  0.64520700  0.82260300  0.25000000  1
  Sb  Sb2  1  0.17739700  0.82260300  0.25000000  1
  Sb  Sb3  1  0.82260300  0.64520700  0.75000000  1
  Sb  Sb4  1  0.35479300  0.17739700  0.75000000  1
  Sb  Sb5  1  0.82260300  0.17739700  0.75000000  1
loop_
_geom_bond_atom_site_label_1
_geom_bond_atom_site_label_2
_geom_bond_distance
_geom_bond_site_symmetry_2
Hf0 Sb5 3.251169 1_455
Hf0 Sb5 3.251169 1_565
Hf0 Sb3 3.251169 1_455
Hf0 Sb4 3.251169 1_565
Hf0 Sb4 3.251169 1_555
Hf0 Sb3 3.251169 1_555
Hf0 Sb2 3.272614 1_555
Hf0 Sb2 3.272614 1_556
Hf0 Sb1 3.272620 1_555
Hf0 Sb1 3.272620 1_556
Hf0 Sb0 3.272620 1_556
Hf0 Sb0 3.272620 1_555
Hf1 Sb2 3.251169 1_655
Hf1 Sb2 3.251169 1_545
Hf1 Sb1 3.251169 1_545
Hf1 Sb0 3.251169 1_655
Hf1 Sb0 3.251169 1_555
Hf1 Sb1 3.251169 1_555
Hf1 Sb5 3.272614 1_554
Hf1 Sb5 3.272614 1_555
Hf1 Sb3 3.272620 1_554
Hf1 Sb3 3.272620 1_555
Hf1 Sb4 3.272620 1_555
Hf1 Sb4 3.272620 1_554
