# generated using pymatgen
data_LiErSn
_symmetry_space_group_name_H-M   'P 1'
_cell_length_a   9.26501666
_cell_length_b   9.26501455
_cell_length_c   7.24077299
_cell_angle_alpha   89.99998190
_cell_angle_beta   90.00001279
_cell_angle_gamma   120.00068347
_symmetry_Int_Tables_number   1
_chemical_formula_structural   LiErSn
_chemical_formula_sum   'Li8 Er8 Sn8'
_cell_volume   538.27583419
_cell_formula_units_Z   8
loop_
 _symmetry_equiv_pos_site_id
 _symmetry_equiv_pos_as_xyz
  1  'x, y, z'
loop_
 _atom_site_type_symbol
 _atom_site_label
 _atom_site_symmetry_multiplicity
 _atom_site_fract_x
 _atom_site_fract_y
 _atom_site_fract_z
 _atom_site_occupancy
  Li  Li0  1  0.16686806  0.33372248  0.21155356  1
  Li  Li1  1  0.16685650  0.83314219  0.21155445  1
  Li  Li2  1  0.66627747  0.83313170  0.21155524  1
  Li  Li3  1  0.66666808  0.33333243  0.32592807  1
  Li  Li4  1  0.83313361  0.66627837  0.71155494  1
  Li  Li5  1  0.33372196  0.16686764  0.71155387  1
  Li  Li6  1  0.83314287  0.16685763  0.71155410  1
  Li  Li7  1  0.33333088  0.66666695  0.82593018  1
  Er  Er0  1  0.00000246  0.99999763  0.00097216  1
  Er  Er1  1  0.51151656  0.02303331  0.00625095  1
  Er  Er2  1  0.51151512  0.48848579  0.00625096  1
  Er  Er3  1  0.97696715  0.48848397  0.00624981  1
  Er  Er4  1  0.99999732  0.00000259  0.50097267  1
  Er  Er5  1  0.48848370  0.97696657  0.50625055  1
  Er  Er6  1  0.02303304  0.51151609  0.50624941  1
  Er  Er7  1  0.48848518  0.51151452  0.50625102  1
  Sn  Sn0  1  0.33333179  0.66666248  0.24011269  1
  Sn  Sn1  1  0.83334896  0.66669927  0.26952232  1
  Sn  Sn2  1  0.33329869  0.16665280  0.26952317  1
  Sn  Sn3  1  0.83335385  0.16665248  0.26952142  1
  Sn  Sn4  1  0.66666839  0.33333801  0.74011176  1
  Sn  Sn5  1  0.16665151  0.33330110  0.76952045  1
  Sn  Sn6  1  0.16664614  0.83334745  0.76951929  1
  Sn  Sn7  1  0.66670074  0.83334655  0.76952097  1
loop_
_geom_bond_atom_site_label_1
_geom_bond_atom_site_label_2
_geom_bond_distance
_geom_bond_site_symmetry_2
Li0 Sn0 2.679397 1_555
Li0 Sn2 2.708651 1_555
Li0 Sn3 2.708732 1_455
Li0 Sn5 3.200663 1_554
Li1 Sn0 2.679544 1_555
Li1 Sn1 2.708679 1_455
Li1 Sn2 2.708704 1_565
Li1 Sn6 3.200678 1_554
Li2 Sn0 2.679442 1_555
Li2 Sn1 2.708676 1_555
Li2 Sn3 2.708781 1_565
Li2 Sn7 3.200672 1_554
Li3 Sn1 2.705831 1_555
Li3 Sn3 2.705851 1_555
Li3 Sn2 2.705851 1_555
Li3 Sn4 2.999010 1_555
Li4 Sn4 2.679398 1_555
Li4 Sn7 2.708653 1_555
Li4 Sn6 2.708714 1_655
Li4 Sn1 3.200660 1_555
Li5 Sn4 2.679448 1_555
Li5 Sn5 2.708676 1_555
Li5 Sn6 2.708776 1_545
Li5 Sn2 3.200646 1_555
Li6 Sn4 2.679543 1_555
Li6 Sn5 2.708686 1_655
Li6 Sn7 2.708705 1_545
Li6 Sn3 3.200660 1_555
Li7 Sn5 2.705828 1_555
Li7 Sn6 2.705852 1_555
Li7 Sn7 2.705859 1_555
Li7 Sn0 2.999002 1_556
Er0 Li1 3.081319 1_555
Er0 Li0 3.081399 1_565
Er0 Li2 3.081407 1_455
Er0 Sn6 3.156005 1_554
Er0 Sn7 3.156028 1_454
Er0 Sn5 3.156041 1_564
Er0 Sn2 3.306483 1_565
Er0 Sn1 3.306493 1_455
Er0 Sn3 3.306546 1_465
Er0 Li4 3.400207 1_454
Er0 Li5 3.400214 1_564
Er0 Li6 3.400234 1_464
Er0 Er4 3.620383 1_464
Er0 Er4 3.620390 1_465
Er1 Li7 3.143367 1_544
Er1 Li1 3.143881 1_545
Er1 Li2 3.143932 1_545
Er1 Sn4 3.148423 1_554
Er1 Sn3 3.213719 1_555
Er1 Sn2 3.213747 1_555
Er1 Sn6 3.258950 1_544
Er1 Sn7 3.258974 1_544
Er1 Sn0 3.323192 1_545
Er1 Li6 3.352263 1_554
Er1 Li5 3.352295 1_554
Er1 Li3 3.399514 1_555
Er1 Er5 3.639203 1_545
Er1 Er5 3.639209 1_544
Er2 Li7 3.143386 1_554
Er2 Li2 3.143787 1_555
Er2 Li0 3.143789 1_555
Er2 Sn4 3.148422 1_554
Er2 Sn2 3.213695 1_555
Er2 Sn1 3.213696 1_555
Er2 Sn7 3.258878 1_554
Er2 Sn5 3.258901 1_554
Er2 Sn0 3.323143 1_555
Er2 Li4 3.352206 1_554
Er2 Li5 3.352209 1_554
Er2 Li3 3.399574 1_555
Er2 Er7 3.639199 1_554
Er2 Er7 3.639200 1_555
Er3 Li7 3.143345 1_654
Er3 Li1 3.143871 1_655
Er3 Li0 3.143929 1_655
Er3 Sn4 3.148381 1_554
Er3 Sn3 3.213687 1_555
Er3 Sn1 3.213723 1_555
Er3 Sn6 3.258897 1_654
Er3 Sn5 3.258946 1_654
Er3 Sn0 3.323154 1_655
Er3 Li6 3.352258 1_554
Er3 Li4 3.352279 1_554
Er3 Li3 3.399520 1_555
Er3 Er6 3.639202 1_655
Er3 Er6 3.639208 1_654
Er4 Li6 3.081317 1_555
Er4 Li5 3.081397 1_655
Er4 Li4 3.081397 1_545
Er4 Sn3 3.155994 1_555
Er4 Sn2 3.156020 1_655
Er4 Sn1 3.156036 1_545
Er4 Sn7 3.306474 1_545
Er4 Sn5 3.306484 1_655
Er4 Sn6 3.306537 1_645
Er4 Li2 3.400212 1_545
Er4 Li0 3.400219 1_655
Er4 Li1 3.400236 1_645
Er5 Li3 3.143368 1_565
Er5 Li6 3.143875 1_565
Er5 Li5 3.143931 1_565
Er5 Sn0 3.148414 1_555
Er5 Sn6 3.213714 1_555
Er5 Sn7 3.213736 1_555
Er5 Sn3 3.258939 1_565
Er5 Sn2 3.258965 1_565
Er5 Sn4 3.323195 1_565
Er5 Li1 3.352265 1_555
Er5 Li2 3.352286 1_555
Er5 Li7 3.399529 1_555
Er6 Li3 3.143358 1_455
Er6 Li6 3.143873 1_455
Er6 Li4 3.143930 1_455
Er6 Sn0 3.148376 1_555
Er6 Sn6 3.213680 1_555
Er6 Sn5 3.213715 1_555
Er6 Sn3 3.258889 1_455
Er6 Sn1 3.258937 1_455
Er6 Sn4 3.323152 1_455
Er6 Li1 3.352253 1_555
Er6 Li0 3.352288 1_555
Er6 Li7 3.399524 1_555
Er7 Li3 3.143391 1_555
Er7 Li5 3.143788 1_555
Er7 Li4 3.143804 1_555
Er7 Sn0 3.148419 1_555
Er7 Sn7 3.213680 1_555
Er7 Sn5 3.213687 1_555
Er7 Sn2 3.258877 1_555
Er7 Sn1 3.258896 1_555
Er7 Sn4 3.323137 1_555
Er7 Li2 3.352196 1_555
Er7 Li0 3.352204 1_555
Er7 Li7 3.399588 1_555
