# generated using pymatgen
data_MgZn
_symmetry_space_group_name_H-M   'P 1'
_cell_length_a   6.25497376
_cell_length_b   9.67931800
_cell_length_c   9.15822024
_cell_angle_alpha   90.00000000
_cell_angle_beta   90.00000000
_cell_angle_gamma   90.00000000
_symmetry_Int_Tables_number   1
_chemical_formula_structural   MgZn
_chemical_formula_sum   'Mg16 Zn16'
_cell_volume   554.47418818
_cell_formula_units_Z   16
loop_
 _symmetry_equiv_pos_site_id
 _symmetry_equiv_pos_as_xyz
  1  'x, y, z'
loop_
 _atom_site_type_symbol
 _atom_site_label
 _atom_site_symmetry_multiplicity
 _atom_site_fract_x
 _atom_site_fract_y
 _atom_site_fract_z
 _atom_site_occupancy
  Mg  Mg0_0  1  0.24999900  0.26500277  0.00000000  1
  Mg  Mg0_1  1  0.24999900  0.26500277  0.50000000  1
  Mg  Mg0_2  1  0.24999900  0.76500277  0.00000000  1
  Mg  Mg0_3  1  0.24999900  0.76500277  0.50000000  1
  Mg  Mg0_4  1  0.74999900  0.26500277  0.00000000  1
  Mg  Mg0_5  1  0.74999900  0.26500277  0.50000000  1
  Mg  Mg0_6  1  0.74999900  0.76500277  0.00000000  1
  Mg  Mg0_7  1  0.74999900  0.76500277  0.50000000  1
  Mg  Mg1_0  1  0.24999900  0.06833124  0.24999900  1
  Mg  Mg1_1  1  0.24999900  0.06833124  0.74999900  1
  Mg  Mg1_2  1  0.24999900  0.56833124  0.24999900  1
  Mg  Mg1_3  1  0.24999900  0.56833124  0.74999900  1
  Mg  Mg1_4  1  0.74999900  0.06833124  0.24999900  1
  Mg  Mg1_5  1  0.74999900  0.06833124  0.74999900  1
  Mg  Mg1_6  1  0.74999900  0.56833124  0.24999900  1
  Mg  Mg1_7  1  0.74999900  0.56833124  0.74999900  1
  Zn  Zn0_0  1  0.00000000  0.00576679  0.00000000  1
  Zn  Zn0_1  1  0.00000000  0.00576679  0.50000000  1
  Zn  Zn0_2  1  0.00000000  0.50576679  0.00000000  1
  Zn  Zn0_3  1  0.00000000  0.50576679  0.50000000  1
  Zn  Zn0_4  1  0.50000000  0.00576679  0.00000000  1
  Zn  Zn0_5  1  0.50000000  0.00576679  0.50000000  1
  Zn  Zn0_6  1  0.50000000  0.50576679  0.00000000  1
  Zn  Zn0_7  1  0.50000000  0.50576679  0.50000000  1
  Zn  Zn1_0  1  0.00000000  0.32756621  0.24999900  1
  Zn  Zn1_1  1  0.00000000  0.32756621  0.74999900  1
  Zn  Zn1_2  1  0.00000000  0.82756621  0.24999900  1
  Zn  Zn1_3  1  0.00000000  0.82756621  0.74999900  1
  Zn  Zn1_4  1  0.50000000  0.32756621  0.24999900  1
  Zn  Zn1_5  1  0.50000000  0.32756621  0.74999900  1
  Zn  Zn1_6  1  0.50000000  0.82756621  0.24999900  1
  Zn  Zn1_7  1  0.50000000  0.82756621  0.74999900  1
loop_
_geom_bond_atom_site_label_1
_geom_bond_atom_site_label_2
_geom_bond_distance
_geom_bond_site_symmetry_2
Mg0_0 Zn0_2 2.806454 1_555
Mg0_0 Zn0_6 2.806461 1_555
Mg0_0 Zn1_0 2.837959 1_555
Mg0_0 Zn1_4 2.837966 1_555
Mg0_0 Zn1_1 2.837974 1_554
Mg0_0 Zn1_5 2.837981 1_554
Mg0_0 Zn0_0 2.956602 1_555
Mg0_0 Zn0_4 2.956609 1_555
Mg0_0 Mg1_0 2.977564 1_555
Mg0_0 Mg1_1 2.977578 1_554
Mg0_0 Mg0_4 3.127487 1_455
Mg0_0 Mg0_4 3.127487 1_555
Mg0_1 Zn0_3 2.806454 1_555
Mg0_1 Zn0_7 2.806461 1_555
Mg0_1 Zn1_1 2.837959 1_555
Mg0_1 Zn1_5 2.837966 1_555
Mg0_1 Zn1_0 2.837974 1_555
Mg0_1 Zn1_4 2.837981 1_555
Mg0_1 Zn0_1 2.956602 1_555
Mg0_1 Zn0_5 2.956609 1_555
Mg0_1 Mg1_1 2.977564 1_555
Mg0_1 Mg1_0 2.977578 1_555
Mg0_1 Mg0_5 3.127487 1_555
Mg0_1 Mg0_5 3.127487 1_455
Mg0_2 Zn0_0 2.806454 1_565
Mg0_2 Zn0_4 2.806461 1_565
Mg0_2 Zn1_2 2.837959 1_555
Mg0_2 Zn1_6 2.837966 1_555
Mg0_2 Zn1_3 2.837974 1_554
Mg0_2 Zn1_7 2.837981 1_554
Mg0_2 Zn0_2 2.956602 1_555
Mg0_2 Zn0_6 2.956609 1_555
Mg0_2 Mg1_2 2.977564 1_555
Mg0_2 Mg1_3 2.977578 1_554
Mg0_2 Mg0_6 3.127487 1_455
Mg0_2 Mg0_6 3.127487 1_555
Mg0_3 Zn0_1 2.806454 1_565
Mg0_3 Zn0_5 2.806461 1_565
Mg0_3 Zn1_3 2.837959 1_555
Mg0_3 Zn1_7 2.837966 1_555
Mg0_3 Zn1_2 2.837974 1_555
Mg0_3 Zn1_6 2.837981 1_555
Mg0_3 Zn0_3 2.956602 1_555
Mg0_3 Zn0_7 2.956609 1_555
Mg0_3 Mg1_3 2.977564 1_555
Mg0_3 Mg1_2 2.977578 1_555
Mg0_3 Mg0_7 3.127487 1_455
Mg0_3 Mg0_7 3.127487 1_555
Mg0_4 Zn0_6 2.806454 1_555
Mg0_4 Zn0_2 2.806461 1_655
Mg0_4 Zn1_4 2.837959 1_555
Mg0_4 Zn1_0 2.837966 1_655
Mg0_4 Zn1_5 2.837974 1_554
Mg0_4 Zn1_1 2.837981 1_654
Mg0_4 Zn0_4 2.956602 1_555
Mg0_4 Zn0_0 2.956609 1_655
Mg0_4 Mg1_4 2.977564 1_555
Mg0_4 Mg1_5 2.977578 1_554
Mg0_5 Zn0_7 2.806454 1_555
Mg0_5 Zn0_3 2.806461 1_655
Mg0_5 Zn1_5 2.837959 1_555
Mg0_5 Zn1_1 2.837966 1_655
Mg0_5 Zn1_4 2.837974 1_555
Mg0_5 Zn1_0 2.837981 1_655
Mg0_5 Zn0_5 2.956602 1_555
Mg0_5 Zn0_1 2.956609 1_655
Mg0_5 Mg1_5 2.977564 1_555
Mg0_5 Mg1_4 2.977578 1_555
Mg0_6 Zn0_4 2.806454 1_565
Mg0_6 Zn0_0 2.806461 1_665
Mg0_6 Zn1_6 2.837959 1_555
Mg0_6 Zn1_2 2.837966 1_655
Mg0_6 Zn1_7 2.837974 1_554
Mg0_6 Zn1_3 2.837981 1_654
Mg0_6 Zn0_6 2.956602 1_555
Mg0_6 Zn0_2 2.956609 1_655
Mg0_6 Mg1_6 2.977564 1_555
Mg0_6 Mg1_7 2.977578 1_554
Mg0_7 Zn0_5 2.806454 1_565
Mg0_7 Zn0_1 2.806461 1_665
Mg0_7 Zn1_7 2.837959 1_555
Mg0_7 Zn1_3 2.837966 1_655
Mg0_7 Zn1_6 2.837974 1_555
Mg0_7 Zn1_2 2.837981 1_655
Mg0_7 Zn0_7 2.956602 1_555
Mg0_7 Zn0_3 2.956609 1_655
Mg0_7 Mg1_7 2.977564 1_555
Mg0_7 Mg1_6 2.977578 1_555
Mg1_0 Zn1_2 2.806462 1_545
Mg1_0 Zn1_6 2.806469 1_545
Mg1_0 Zn0_0 2.837961 1_555
Mg1_0 Zn0_4 2.837968 1_555
Mg1_0 Zn0_1 2.837976 1_555
Mg1_0 Zn0_5 2.837983 1_555
Mg1_0 Zn1_0 2.956594 1_555
Mg1_0 Zn1_4 2.956601 1_555
Mg1_0 Mg1_4 3.127487 1_455
Mg1_0 Mg1_4 3.127487 1_555
Mg1_1 Zn1_3 2.806462 1_545
Mg1_1 Zn1_7 2.806469 1_545
Mg1_1 Zn0_1 2.837961 1_555
Mg1_1 Zn0_5 2.837968 1_555
Mg1_1 Zn0_0 2.837976 1_556
Mg1_1 Zn0_4 2.837983 1_556
Mg1_1 Zn1_1 2.956594 1_555
Mg1_1 Zn1_5 2.956601 1_555
Mg1_1 Mg1_5 3.127487 1_455
Mg1_1 Mg1_5 3.127487 1_555
Mg1_2 Zn1_0 2.806462 1_555
Mg1_2 Zn1_4 2.806469 1_555
Mg1_2 Zn0_2 2.837961 1_555
Mg1_2 Zn0_6 2.837968 1_555
Mg1_2 Zn0_3 2.837976 1_555
Mg1_2 Zn0_7 2.837983 1_555
Mg1_2 Zn1_2 2.956594 1_555
Mg1_2 Zn1_6 2.956601 1_555
Mg1_2 Mg1_6 3.127487 1_455
Mg1_2 Mg1_6 3.127487 1_555
Mg1_3 Zn1_1 2.806462 1_555
Mg1_3 Zn1_5 2.806469 1_555
Mg1_3 Zn0_3 2.837961 1_555
Mg1_3 Zn0_7 2.837968 1_555
Mg1_3 Zn0_2 2.837976 1_556
Mg1_3 Zn0_6 2.837983 1_556
Mg1_3 Zn1_3 2.956594 1_555
Mg1_3 Zn1_7 2.956601 1_555
Mg1_3 Mg1_7 3.127487 1_555
Mg1_3 Mg1_7 3.127487 1_455
Mg1_4 Zn1_6 2.806462 1_545
Mg1_4 Zn1_2 2.806469 1_645
Mg1_4 Zn0_4 2.837961 1_555
Mg1_4 Zn0_0 2.837968 1_655
Mg1_4 Zn0_5 2.837976 1_555
Mg1_4 Zn0_1 2.837983 1_655
Mg1_4 Zn1_4 2.956594 1_555
Mg1_4 Zn1_0 2.956601 1_655
Mg1_5 Zn1_7 2.806462 1_545
Mg1_5 Zn1_3 2.806469 1_645
Mg1_5 Zn0_5 2.837961 1_555
Mg1_5 Zn0_1 2.837968 1_655
Mg1_5 Zn0_4 2.837976 1_556
Mg1_5 Zn0_0 2.837983 1_656
Mg1_5 Zn1_5 2.956594 1_555
Mg1_5 Zn1_1 2.956601 1_655
Mg1_6 Zn1_4 2.806462 1_555
Mg1_6 Zn1_0 2.806469 1_655
Mg1_6 Zn0_6 2.837961 1_555
Mg1_6 Zn0_2 2.837968 1_655
Mg1_6 Zn0_7 2.837976 1_555
Mg1_6 Zn0_3 2.837983 1_655
Mg1_6 Zn1_6 2.956594 1_555
Mg1_6 Zn1_2 2.956601 1_655
Mg1_7 Zn1_5 2.806462 1_555
Mg1_7 Zn1_1 2.806469 1_655
Mg1_7 Zn0_7 2.837961 1_555
Mg1_7 Zn0_3 2.837968 1_655
Mg1_7 Zn0_6 2.837976 1_556
Mg1_7 Zn0_2 2.837983 1_656
Mg1_7 Zn1_7 2.956594 1_555
Mg1_7 Zn1_3 2.956601 1_655
Zn0_0 Zn1_2 2.866559 1_545
Zn0_0 Zn1_3 2.866574 1_544
Zn0_1 Zn1_3 2.866559 1_545
Zn0_1 Zn1_2 2.866574 1_545
Zn0_2 Zn1_0 2.866559 1_555
Zn0_2 Zn1_1 2.866574 1_554
Zn0_3 Zn1_1 2.866559 1_555
Zn0_3 Zn1_0 2.866574 1_555
Zn0_4 Zn1_6 2.866559 1_545
Zn0_4 Zn1_7 2.866574 1_544
Zn0_5 Zn1_7 2.866559 1_545
Zn0_5 Zn1_6 2.866574 1_545
Zn0_6 Zn1_4 2.866559 1_555
Zn0_6 Zn1_5 2.866574 1_554
Zn0_7 Zn1_5 2.866559 1_555
Zn0_7 Zn1_4 2.866574 1_555
