# generated using pymatgen
data_Sr(SbO3)2
_symmetry_space_group_name_H-M   'P 1'
_cell_length_a   5.29166341
_cell_length_b   5.29166300
_cell_length_c   5.38664006
_cell_angle_alpha   90.00000000
_cell_angle_beta   90.00000000
_cell_angle_gamma   120.00000260
_symmetry_Int_Tables_number   1
_chemical_formula_structural   Sr(SbO3)2
_chemical_formula_sum   'Sr1 Sb2 O6'
_cell_volume   130.62700441
_cell_formula_units_Z   1
loop_
 _symmetry_equiv_pos_site_id
 _symmetry_equiv_pos_as_xyz
  1  'x, y, z'
loop_
 _atom_site_type_symbol
 _atom_site_label
 _atom_site_symmetry_multiplicity
 _atom_site_fract_x
 _atom_site_fract_y
 _atom_site_fract_z
 _atom_site_occupancy
  Sr  Sr0  1  -0.00000000  -0.00000000  0.00000000  1
  Sb  Sb0  1  0.33333300  0.66666700  0.50000000  1
  Sb  Sb1  1  0.66666700  0.33333300  0.50000000  1
  O  O0  1  0.37716844  0.37716844  0.70543987  1
  O  O1  1  0.62283156  -0.00000000  0.70543987  1
  O  O2  1  -0.00000000  0.62283156  0.70543987  1
  O  O3  1  0.37716844  -0.00000000  0.29456013  1
  O  O4  1  0.00000000  0.37716844  0.29456013  1
  O  O5  1  0.62283156  0.62283156  0.29456013  1
loop_
_geom_bond_atom_site_label_1
_geom_bond_atom_site_label_2
_geom_bond_distance
_geom_bond_site_symmetry_2
O0 Sb0 1.995143 1_555
O0 Sb1 1.995143 1_555
O0 Sr0 2.549705 1_556
O1 Sb1 1.995138 1_555
O1 Sb0 1.995140 1_545
O1 Sr0 2.549705 1_656
O2 Sb0 1.995138 1_555
O2 Sb1 1.995140 1_455
O2 Sr0 2.549705 1_566
O3 Sb0 1.995138 1_545
O3 Sb1 1.995140 1_555
O3 Sr0 2.549705 1_555
O4 Sb1 1.995138 1_455
O4 Sb0 1.995140 1_555
O4 Sr0 2.549705 1_555
O5 Sb1 1.995143 1_555
O5 Sb0 1.995143 1_555
O5 Sr0 2.549705 1_665
