# generated using pymatgen
data_NaAc
_symmetry_space_group_name_H-M   'P 1'
_cell_length_a   7.76719955
_cell_length_b   7.76719955
_cell_length_c   13.03571400
_cell_angle_alpha   90.00000000
_cell_angle_beta   90.00000000
_cell_angle_gamma   119.99999619
_symmetry_Int_Tables_number   1
_chemical_formula_structural   NaAc
_chemical_formula_sum   'Na8 Ac8'
_cell_volume   681.07415166
_cell_formula_units_Z   8
loop_
 _symmetry_equiv_pos_site_id
 _symmetry_equiv_pos_as_xyz
  1  'x, y, z'
loop_
 _atom_site_type_symbol
 _atom_site_label
 _atom_site_symmetry_multiplicity
 _atom_site_fract_x
 _atom_site_fract_y
 _atom_site_fract_z
 _atom_site_occupancy
  Na  Na0_0  1  0.00000000  0.00000000  0.00000000  1
  Na  Na0_1  1  0.00000000  0.00000000  0.50000000  1
  Na  Na0_2  1  0.00000000  0.50000000  0.00000000  1
  Na  Na0_3  1  0.00000000  0.50000000  0.50000000  1
  Na  Na0_4  1  0.50000000  0.00000000  0.00000000  1
  Na  Na0_5  1  0.50000000  0.00000000  0.50000000  1
  Na  Na0_6  1  0.50000000  0.50000000  0.00000000  1
  Na  Na0_7  1  0.50000000  0.50000000  0.50000000  1
  Ac  Ac0_0  1  0.16666650  0.33333350  0.25000000  1
  Ac  Ac0_1  1  0.16666650  0.33333350  0.75000000  1
  Ac  Ac0_2  1  0.16666650  0.83333350  0.25000000  1
  Ac  Ac0_3  1  0.16666650  0.83333350  0.75000000  1
  Ac  Ac0_4  1  0.66666650  0.33333350  0.25000000  1
  Ac  Ac0_5  1  0.66666650  0.33333350  0.75000000  1
  Ac  Ac0_6  1  0.66666650  0.83333350  0.25000000  1
  Ac  Ac0_7  1  0.66666650  0.83333350  0.75000000  1
loop_
_geom_bond_atom_site_label_1
_geom_bond_atom_site_label_2
_geom_bond_distance
_geom_bond_site_symmetry_2
Na0_0 Na0_2 3.883600 1_555
Na0_0 Na0_4 3.883600 1_455
Na0_0 Na0_2 3.883600 1_545
Na0_0 Na0_4 3.883600 1_555
Na0_0 Na0_6 3.883600 1_555
Na0_0 Na0_6 3.883600 1_445
Na0_1 Na0_5 3.883600 1_555
Na0_1 Na0_3 3.883600 1_545
Na0_1 Na0_3 3.883600 1_555
Na0_1 Na0_5 3.883600 1_455
Na0_1 Na0_7 3.883600 1_555
Na0_1 Na0_7 3.883600 1_445
Na0_2 Na0_6 3.883600 1_455
Na0_2 Na0_6 3.883600 1_555
Na0_2 Na0_4 3.883600 1_565
Na0_2 Na0_4 3.883600 1_455
Na0_3 Na0_7 3.883600 1_555
Na0_3 Na0_7 3.883600 1_455
Na0_3 Na0_5 3.883600 1_565
Na0_3 Na0_5 3.883600 1_455
Na0_4 Na0_6 3.883600 1_555
Na0_4 Na0_6 3.883600 1_545
Na0_5 Na0_7 3.883600 1_545
Na0_5 Na0_7 3.883600 1_555
Ac0_0 Ac0_4 3.883600 1_555
Ac0_0 Ac0_2 3.883600 1_555
Ac0_0 Ac0_2 3.883600 1_545
Ac0_0 Ac0_4 3.883600 1_455
Ac0_0 Ac0_6 3.883600 1_445
Ac0_0 Ac0_6 3.883600 1_555
Ac0_0 Na0_2 3.955762 1_555
Ac0_0 Na0_3 3.955762 1_555
Ac0_0 Na0_7 3.955764 1_555
Ac0_0 Na0_1 3.955764 1_555
Ac0_0 Na0_6 3.955764 1_555
Ac0_0 Na0_0 3.955764 1_555
Ac0_1 Ac0_3 3.883600 1_555
Ac0_1 Ac0_5 3.883600 1_555
Ac0_1 Ac0_3 3.883600 1_545
Ac0_1 Ac0_5 3.883600 1_455
Ac0_1 Ac0_7 3.883600 1_555
Ac0_1 Ac0_7 3.883600 1_445
Ac0_1 Na0_2 3.955762 1_556
Ac0_1 Na0_3 3.955762 1_555
Ac0_1 Na0_0 3.955764 1_556
Ac0_1 Na0_6 3.955764 1_556
Ac0_1 Na0_7 3.955764 1_555
Ac0_1 Na0_1 3.955764 1_555
Ac0_2 Ac0_6 3.883600 1_555
Ac0_2 Ac0_6 3.883600 1_455
Ac0_2 Ac0_4 3.883600 1_455
Ac0_2 Ac0_4 3.883600 1_565
Ac0_2 Na0_0 3.955762 1_565
Ac0_2 Na0_1 3.955762 1_565
Ac0_2 Na0_4 3.955764 1_565
Ac0_2 Na0_2 3.955764 1_555
Ac0_2 Na0_5 3.955764 1_565
Ac0_2 Na0_3 3.955764 1_555
Ac0_3 Ac0_7 3.883600 1_555
Ac0_3 Ac0_7 3.883600 1_455
Ac0_3 Ac0_5 3.883600 1_565
Ac0_3 Ac0_5 3.883600 1_455
Ac0_3 Na0_0 3.955762 1_566
Ac0_3 Na0_1 3.955762 1_565
Ac0_3 Na0_2 3.955764 1_556
Ac0_3 Na0_4 3.955764 1_566
Ac0_3 Na0_3 3.955764 1_555
Ac0_3 Na0_5 3.955764 1_565
Ac0_4 Ac0_6 3.883600 1_545
Ac0_4 Ac0_6 3.883600 1_555
Ac0_4 Na0_7 3.955762 1_555
Ac0_4 Na0_6 3.955762 1_555
Ac0_4 Na0_4 3.955764 1_555
Ac0_4 Na0_5 3.955764 1_555
Ac0_4 Na0_3 3.955764 1_655
Ac0_4 Na0_2 3.955764 1_655
Ac0_5 Ac0_7 3.883600 1_545
Ac0_5 Ac0_7 3.883600 1_555
Ac0_5 Na0_6 3.955762 1_556
Ac0_5 Na0_7 3.955762 1_555
Ac0_5 Na0_4 3.955764 1_556
Ac0_5 Na0_2 3.955764 1_656
Ac0_5 Na0_3 3.955764 1_655
Ac0_5 Na0_5 3.955764 1_555
Ac0_6 Na0_4 3.955762 1_565
Ac0_6 Na0_5 3.955762 1_565
Ac0_6 Na0_0 3.955764 1_665
Ac0_6 Na0_7 3.955764 1_555
Ac0_6 Na0_1 3.955764 1_665
Ac0_6 Na0_6 3.955764 1_555
Ac0_7 Na0_4 3.955762 1_566
Ac0_7 Na0_5 3.955762 1_565
Ac0_7 Na0_0 3.955764 1_666
Ac0_7 Na0_6 3.955764 1_556
Ac0_7 Na0_7 3.955764 1_555
Ac0_7 Na0_1 3.955764 1_665
