# generated using pymatgen
data_TbMn12
_symmetry_space_group_name_H-M   'P 1'
_cell_length_a   6.34064567
_cell_length_b   6.34064567
_cell_length_c   6.34064567
_cell_angle_alpha   97.68719676
_cell_angle_beta   97.68719676
_cell_angle_gamma   137.09390857
_symmetry_Int_Tables_number   1
_chemical_formula_structural   TbMn12
_chemical_formula_sum   'Tb1 Mn12'
_cell_volume   161.52402590
_cell_formula_units_Z   1
loop_
 _symmetry_equiv_pos_site_id
 _symmetry_equiv_pos_as_xyz
  1  'x, y, z'
loop_
 _atom_site_type_symbol
 _atom_site_label
 _atom_site_symmetry_multiplicity
 _atom_site_fract_x
 _atom_site_fract_y
 _atom_site_fract_z
 _atom_site_occupancy
  Tb  Tb0  1  0.00000000  0.00000000  0.00000000  1
  Mn  Mn0  1  0.49999900  0.49999900  0.50000000  1
  Mn  Mn1  1  0.00000100  0.00000100  0.50000000  1
  Mn  Mn2  1  0.50000000  0.99999900  0.00000000  1
  Mn  Mn3  1  0.99999900  0.50000000  0.00000000  1
  Mn  Mn4  1  0.00000000  0.36136900  0.36136900  1
  Mn  Mn5  1  0.00000000  0.63863300  0.63863300  1
  Mn  Mn6  1  0.63863300  0.00000000  0.63863300  1
  Mn  Mn7  1  0.36136900  0.00000000  0.36136900  1
  Mn  Mn8  1  0.50000100  0.27124500  0.77124600  1
  Mn  Mn9  1  0.50000000  0.72875500  0.22875400  1
  Mn  Mn10  1  0.72875500  0.50000000  0.22875400  1
  Mn  Mn11  1  0.27124500  0.50000100  0.77124600  1
loop_
_geom_bond_atom_site_label_1
_geom_bond_atom_site_label_2
_geom_bond_distance
_geom_bond_site_symmetry_2
Mn0 Mn1 2.319010 1_555
Mn0 Mn1 2.319028 1_665
Mn0 Mn8 2.393568 1_555
Mn0 Mn11 2.393568 1_555
Mn0 Mn9 2.393570 1_555
Mn0 Mn10 2.393570 1_555
Mn0 Mn6 2.561558 1_565
Mn0 Mn5 2.561558 1_655
Mn0 Mn7 2.561560 1_555
Mn0 Mn4 2.561560 1_555
Mn0 Tb0 3.170321 1_555
Mn0 Tb0 3.170325 1_666
Mn1 Mn8 2.393568 1_555
Mn1 Mn11 2.393568 1_555
Mn1 Mn9 2.393568 1_445
Mn1 Mn10 2.393568 1_445
Mn1 Mn5 2.561558 1_545
Mn1 Mn6 2.561558 1_455
Mn1 Mn7 2.561560 1_555
Mn1 Mn4 2.561560 1_555
Mn1 Tb0 3.170321 1_555
Mn1 Tb0 3.170325 1_556
Mn2 Mn3 2.319019 1_565
Mn2 Mn3 2.319019 1_455
Mn2 Mn9 2.393553 1_555
Mn2 Mn8 2.393560 1_564
Mn2 Mn6 2.561555 1_564
Mn2 Mn5 2.561557 1_554
Mn2 Mn4 2.561561 1_665
Mn2 Mn7 2.561563 1_565
Mn2 Tb0 3.170318 1_665
Mn2 Tb0 3.170327 1_565
Mn3 Mn8 2.393550 1_554
Mn3 Mn9 2.393565 1_655
Mn3 Mn5 2.561555 1_654
Mn3 Mn6 2.561557 1_554
Mn3 Mn7 2.561561 1_665
Mn3 Mn4 2.561563 1_655
Mn3 Tb0 3.170318 1_665
Mn3 Tb0 3.170327 1_655
Mn4 Mn5 2.313982 1_555
Mn4 Mn9 2.569587 1_445
Mn4 Mn9 2.569591 1_555
Mn4 Mn7 2.838145 1_455
Mn4 Mn7 2.838145 1_565
Mn4 Mn6 2.838152 1_455
Mn4 Mn6 2.838152 1_565
Mn4 Tb0 3.015903 1_555
Mn5 Mn8 2.569580 1_565
Mn5 Mn8 2.569580 1_455
Mn5 Mn7 2.838152 1_565
Mn5 Mn7 2.838152 1_455
Mn5 Mn6 2.838158 1_565
Mn5 Mn6 2.838158 1_455
Mn5 Tb0 3.015886 1_566
Mn6 Mn7 2.313982 1_555
Mn6 Mn8 2.542279 1_555
Mn6 Mn9 2.542289 1_545
Mn6 Tb0 3.015886 1_656
Mn7 Mn9 2.542277 1_545
Mn7 Mn8 2.542279 1_555
Mn7 Tb0 3.015903 1_555
Mn8 Tb0 3.003773 1_666
Mn8 Tb0 3.003773 1_556
Mn9 Tb0 3.003768 1_665
Mn9 Tb0 3.003772 1_555
Mn10 Mn3 2.393553 1_555
Mn10 Mn2 2.393565 1_545
Mn10 Mn4 2.542277 1_655
Mn10 Mn5 2.542289 1_655
Mn10 Mn7 2.569587 1_665
Mn10 Mn7 2.569591 1_555
Mn10 Mn8 2.699915 1_554
Mn10 Mn9 2.699927 1_555
Mn10 Tb0 3.003768 1_665
Mn10 Tb0 3.003772 1_555
Mn11 Mn2 2.393550 1_556
Mn11 Mn3 2.393560 1_456
Mn11 Mn4 2.542279 1_555
Mn11 Mn5 2.542279 1_555
Mn11 Mn6 2.569580 1_565
Mn11 Mn6 2.569580 1_455
Mn11 Mn9 2.699915 1_556
Mn11 Mn8 2.699939 1_555
Mn11 Tb0 3.003773 1_666
Mn11 Tb0 3.003773 1_556
