# generated using pymatgen
data_NaCuO2
_symmetry_space_group_name_H-M   'P 1'
_cell_length_a   5.68458777
_cell_length_b   5.68458777
_cell_length_c   5.33526908
_cell_angle_alpha   90.00000000
_cell_angle_beta   90.00000000
_cell_angle_gamma   143.69056397
_symmetry_Int_Tables_number   1
_chemical_formula_structural   NaCuO2
_chemical_formula_sum   'Na2 Cu2 O4'
_cell_volume   102.08995359
_cell_formula_units_Z   2
loop_
 _symmetry_equiv_pos_site_id
 _symmetry_equiv_pos_as_xyz
  1  'x, y, z'
loop_
 _atom_site_type_symbol
 _atom_site_label
 _atom_site_symmetry_multiplicity
 _atom_site_fract_x
 _atom_site_fract_y
 _atom_site_fract_z
 _atom_site_occupancy
  Na  Na0  1  0.71208302  0.28791698  0.25000000  1
  Na  Na1  1  0.28791698  0.71208302  0.75000000  1
  Cu  Cu0  1  0.99671703  0.00328297  0.25000000  1
  Cu  Cu1  1  0.00328297  0.99671703  0.75000000  1
  O  O0  1  0.11434899  0.88565101  0.49370654  1
  O  O1  1  0.88565101  0.11434899  0.50629346  1
  O  O2  1  0.11434899  0.88565101  0.00629346  1
  O  O3  1  0.88565101  0.11434899  0.99370654  1
loop_
_geom_bond_atom_site_label_1
_geom_bond_atom_site_label_2
_geom_bond_distance
_geom_bond_site_symmetry_2
Na0 O3 2.320718 1_554
Na0 O1 2.320718 1_555
Na0 O2 2.437759 1_655
Na0 O0 2.437759 1_655
Na0 O2 2.437759 1_545
Na0 O0 2.437759 1_545
Na1 O2 2.320718 1_556
Na1 O0 2.320718 1_555
Na1 O1 2.437759 1_565
Na1 O3 2.437759 1_565
Na1 O1 2.437759 1_455
Na1 O3 2.437759 1_455
Cu0 O0 1.818120 1_645
Cu0 O2 1.818120 1_645
Cu0 O1 1.819190 1_555
Cu0 O3 1.819190 1_554
Cu1 O3 1.818120 1_465
Cu1 O1 1.818120 1_465
Cu1 O2 1.819190 1_556
Cu1 O0 1.819190 1_555
