# generated using pymatgen
data_LiLuO3
_symmetry_space_group_name_H-M   'P 1'
_cell_length_a   3.62979800
_cell_length_b   3.62979800
_cell_length_c   3.62979800
_cell_angle_alpha   90.00000000
_cell_angle_beta   90.00000000
_cell_angle_gamma   90.00000000
_symmetry_Int_Tables_number   1
_chemical_formula_structural   LiLuO3
_chemical_formula_sum   'Li1 Lu1 O3'
_cell_volume   47.82416224
_cell_formula_units_Z   1
loop_
 _symmetry_equiv_pos_site_id
 _symmetry_equiv_pos_as_xyz
  1  'x, y, z'
loop_
 _atom_site_type_symbol
 _atom_site_label
 _atom_site_symmetry_multiplicity
 _atom_site_fract_x
 _atom_site_fract_y
 _atom_site_fract_z
 _atom_site_occupancy
  Li  Li0  1  0.50000000  0.50000000  0.50000000  1
  Lu  Lu0  1  0.00000000  0.00000000  0.00000000  1
  O  O0  1  0.50000000  0.50000000  0.00000000  1
  O  O1  1  0.50000000  0.00000000  0.50000000  1
  O  O2  1  0.00000000  0.50000000  0.50000000  1
loop_
_geom_bond_atom_site_label_1
_geom_bond_atom_site_label_2
_geom_bond_distance
_geom_bond_site_symmetry_2
Li0 O1 1.814899 1_555
Li0 O0 1.814899 1_555
Li0 O2 1.814899 1_555
Li0 O1 1.814899 1_565
Li0 O2 1.814899 1_655
Li0 O0 1.814899 1_556
Lu0 O1 2.566655 1_555
Lu0 O0 2.566655 1_555
Lu0 O0 2.566655 1_445
Lu0 O1 2.566655 1_554
Lu0 O2 2.566655 1_555
Lu0 O0 2.566655 1_545
Lu0 O2 2.566655 1_554
Lu0 O0 2.566655 1_455
Lu0 O2 2.566655 1_544
Lu0 O2 2.566655 1_545
Lu0 O1 2.566655 1_455
Lu0 O1 2.566655 1_454
