# generated using pymatgen
data_LaWN3
_symmetry_space_group_name_H-M   'P 1'
_cell_length_a   5.68549136
_cell_length_b   5.68549136
_cell_length_c   5.68549108
_cell_angle_alpha   60.01458804
_cell_angle_beta   60.01458804
_cell_angle_gamma   60.01458530
_symmetry_Int_Tables_number   1
_chemical_formula_structural   LaWN3
_chemical_formula_sum   'La2 W2 N6'
_cell_volume   129.99677794
_cell_formula_units_Z   2
loop_
 _symmetry_equiv_pos_site_id
 _symmetry_equiv_pos_as_xyz
  1  'x, y, z'
loop_
 _atom_site_type_symbol
 _atom_site_label
 _atom_site_symmetry_multiplicity
 _atom_site_fract_x
 _atom_site_fract_y
 _atom_site_fract_z
 _atom_site_occupancy
  La  La0  1  0.53577556  0.53577556  0.53577556  1
  La  La1  1  0.03577556  0.03577556  0.03577556  1
  W  W0  1  0.78388625  0.78388625  0.78388625  1
  W  W1  1  0.28388625  0.28388625  0.28388625  1
  N  N0  1  0.00251906  0.10456864  0.55496148  1
  N  N1  1  0.60456864  0.50251906  0.05496148  1
  N  N2  1  0.05496148  0.60456864  0.50251906  1
  N  N3  1  0.50251906  0.05496148  0.60456864  1
  N  N4  1  0.55496148  0.00251906  0.10456864  1
  N  N5  1  0.10456864  0.55496148  0.00251906  1
loop_
_geom_bond_atom_site_label_1
_geom_bond_atom_site_label_2
_geom_bond_distance
_geom_bond_site_symmetry_2
La0 N0 2.565815 1_655
La0 N5 2.565815 1_556
La0 N4 2.565815 1_565
La0 N1 2.652481 1_555
La0 N2 2.652481 1_555
La0 N3 2.652481 1_555
La1 N1 2.565815 1_455
La1 N2 2.565815 1_545
La1 N3 2.565815 1_554
La1 N0 2.652481 1_554
La1 N5 2.652481 1_545
La1 N4 2.652481 1_455
N0 W1 1.889182 1_555
N0 W0 2.199901 1_445
N1 W0 1.889182 1_554
N1 W1 2.199901 1_555
N2 W0 1.889181 1_455
N2 W1 2.199901 1_555
N3 W0 1.889181 1_545
N3 W1 2.199901 1_555
N4 W1 1.889181 1_555
N4 W0 2.199901 1_544
N5 W1 1.889181 1_555
N5 W0 2.199901 1_454
