# generated using pymatgen
data_C3N4
_symmetry_space_group_name_H-M   'P 1'
_cell_length_a   6.51113361
_cell_length_b   6.51113361
_cell_length_c   4.74476500
_cell_angle_alpha   90.00000000
_cell_angle_beta   90.00000000
_cell_angle_gamma   119.99999603
_symmetry_Int_Tables_number   1
_chemical_formula_structural   C3N4
_chemical_formula_sum   'C12 N16'
_cell_volume   174.20417972
_cell_formula_units_Z   4
loop_
 _symmetry_equiv_pos_site_id
 _symmetry_equiv_pos_as_xyz
  1  'x, y, z'
loop_
 _atom_site_type_symbol
 _atom_site_label
 _atom_site_symmetry_multiplicity
 _atom_site_fract_x
 _atom_site_fract_y
 _atom_site_fract_z
 _atom_site_occupancy
  C  C0  1  0.51715700  0.08111000  0.20429900  1
  C  C1  1  0.91889000  0.43604700  0.20429900  1
  C  C2  1  0.56395300  0.48284300  0.20429900  1
  C  C3  1  0.08111000  0.51715700  0.70429900  1
  C  C4  1  0.43604700  0.91889000  0.70429900  1
  C  C5  1  0.48284300  0.56395300  0.70429900  1
  C  C6  1  0.16582400  0.25489500  0.99273200  1
  C  C7  1  0.74510500  0.91092900  0.99273200  1
  C  C8  1  0.08907100  0.83417600  0.99273200  1
  C  C9  1  0.25489500  0.16582400  0.49273200  1
  C  C10  1  0.91092900  0.74510500  0.49273200  1
  C  C11  1  0.83417600  0.08907100  0.49273200  1
  N  N0  1  0.00000000  0.00000000  0.99307300  1
  N  N1  1  0.00000000  0.00000000  0.49307300  1
  N  N2  1  0.33333300  0.66666700  0.62870500  1
  N  N3  1  0.66666700  0.33333300  0.12870500  1
  N  N4  1  0.34675200  0.95006600  0.97330500  1
  N  N5  1  0.04993400  0.39668600  0.97330500  1
  N  N6  1  0.60331400  0.65324800  0.97330500  1
  N  N7  1  0.95006600  0.34675200  0.47330500  1
  N  N8  1  0.39668600  0.04993400  0.47330500  1
  N  N9  1  0.65324800  0.60331400  0.47330500  1
  N  N10  1  0.31470300  0.31965600  0.24527200  1
  N  N11  1  0.68034400  0.99504700  0.24527200  1
  N  N12  1  0.00495300  0.68529700  0.24527200  1
  N  N13  1  0.31965600  0.31470300  0.74527200  1
  N  N14  1  0.99504700  0.68034400  0.74527200  1
  N  N15  1  0.68529700  0.00495300  0.74527200  1
loop_
_geom_bond_atom_site_label_1
_geom_bond_atom_site_label_2
_geom_bond_distance
_geom_bond_site_symmetry_2
C0 N11 1.440899 1_545
C0 N8 1.458214 1_555
C0 N3 1.474658 1_555
C0 N4 1.487826 1_544
C1 N12 1.440899 1_655
C1 N7 1.458214 1_555
C1 N3 1.474658 1_555
C1 N5 1.487826 1_654
C2 N10 1.440899 1_555
C2 N9 1.458214 1_555
C2 N3 1.474663 1_555
C2 N6 1.487826 1_554
C3 N14 1.440899 1_455
C3 N5 1.458214 1_555
C3 N2 1.474658 1_555
C3 N7 1.487826 1_455
C4 N15 1.440899 1_565
C4 N4 1.458214 1_555
C4 N2 1.474658 1_555
C4 N8 1.487826 1_565
C5 N13 1.440899 1_555
C5 N6 1.458214 1_555
C5 N2 1.474663 1_555
C5 N9 1.487826 1_555
C6 N5 1.458374 1_555
C6 N0 1.458863 1_555
C6 N13 1.464051 1_555
C6 N10 1.464417 1_556
C7 N6 1.458374 1_555
C7 N0 1.458863 1_665
C7 N15 1.464051 1_565
C7 N11 1.464417 1_556
C8 N4 1.458374 1_555
C8 N0 1.458863 1_565
C8 N14 1.464051 1_455
C8 N12 1.464417 1_556
C9 N8 1.458374 1_555
C9 N1 1.458863 1_555
C9 N10 1.464051 1_555
C9 N13 1.464417 1_555
C10 N9 1.458374 1_555
C10 N1 1.458863 1_665
C10 N12 1.464051 1_655
C10 N14 1.464417 1_555
C11 N7 1.458374 1_555
C11 N1 1.458863 1_655
C11 N11 1.464051 1_545
C11 N15 1.464417 1_555
