# generated using pymatgen
data_BaCe
_symmetry_space_group_name_H-M   'P 1'
_cell_length_a   7.83578846
_cell_length_b   7.83578846
_cell_length_c   13.23926200
_cell_angle_alpha   90.00000000
_cell_angle_beta   90.00000000
_cell_angle_gamma   120.00000390
_symmetry_Int_Tables_number   1
_chemical_formula_structural   BaCe
_chemical_formula_sum   'Ba8 Ce8'
_cell_volume   703.97915147
_cell_formula_units_Z   8
loop_
 _symmetry_equiv_pos_site_id
 _symmetry_equiv_pos_as_xyz
  1  'x, y, z'
loop_
 _atom_site_type_symbol
 _atom_site_label
 _atom_site_symmetry_multiplicity
 _atom_site_fract_x
 _atom_site_fract_y
 _atom_site_fract_z
 _atom_site_occupancy
  Ba  Ba0_0  1  0.00000000  0.00000000  0.25000000  1
  Ba  Ba0_1  1  0.00000000  0.00000000  0.75000000  1
  Ba  Ba0_2  1  1.00000000  0.50000000  0.25000000  1
  Ba  Ba0_3  1  1.00000000  0.50000000  0.75000000  1
  Ba  Ba0_4  1  0.50000000  0.00000000  0.25000000  1
  Ba  Ba0_5  1  0.50000000  0.00000000  0.75000000  1
  Ba  Ba0_6  1  0.50000000  0.50000000  0.25000000  1
  Ba  Ba0_7  1  0.50000000  0.50000000  0.75000000  1
  Ce  Ce0_0  1  0.33333350  0.16666650  0.00000000  1
  Ce  Ce0_1  1  0.33333350  0.16666650  0.50000000  1
  Ce  Ce0_2  1  0.33333350  0.66666650  0.00000000  1
  Ce  Ce0_3  1  0.33333350  0.66666650  0.50000000  1
  Ce  Ce0_4  1  0.83333350  0.16666650  0.00000000  1
  Ce  Ce0_5  1  0.83333350  0.16666650  0.50000000  1
  Ce  Ce0_6  1  0.83333350  0.66666650  0.00000000  1
  Ce  Ce0_7  1  0.83333350  0.66666650  0.50000000  1
loop_
_geom_bond_atom_site_label_1
_geom_bond_atom_site_label_2
_geom_bond_distance
_geom_bond_site_symmetry_2
Ba0_0 Ba0_6 3.917894 1_555
Ba0_0 Ba0_6 3.917894 1_445
Ba0_0 Ba0_2 3.917894 1_445
Ba0_0 Ba0_4 3.917894 1_555
Ba0_0 Ba0_4 3.917894 1_455
Ba0_0 Ba0_2 3.917894 1_455
Ba0_0 Ce0_4 4.008928 1_455
Ba0_0 Ce0_5 4.008928 1_455
Ba0_0 Ce0_7 4.008929 1_445
Ba0_0 Ce0_1 4.008929 1_555
Ba0_0 Ce0_0 4.008929 1_555
Ba0_0 Ce0_6 4.008929 1_445
Ba0_1 Ba0_7 3.917894 1_555
Ba0_1 Ba0_7 3.917894 1_445
Ba0_1 Ba0_3 3.917894 1_445
Ba0_1 Ba0_5 3.917894 1_555
Ba0_1 Ba0_5 3.917894 1_455
Ba0_1 Ba0_3 3.917894 1_455
Ba0_1 Ce0_4 4.008928 1_456
Ba0_1 Ce0_5 4.008928 1_455
Ba0_1 Ce0_6 4.008929 1_446
Ba0_1 Ce0_0 4.008929 1_556
Ba0_1 Ce0_7 4.008929 1_445
Ba0_1 Ce0_1 4.008929 1_555
Ba0_2 Ba0_4 3.917894 1_555
Ba0_2 Ba0_4 3.917894 1_665
Ba0_2 Ba0_6 3.917894 1_555
Ba0_2 Ba0_6 3.917894 1_655
Ba0_2 Ce0_6 4.008928 1_555
Ba0_2 Ce0_7 4.008928 1_555
Ba0_2 Ce0_2 4.008929 1_655
Ba0_2 Ce0_3 4.008929 1_655
Ba0_2 Ce0_4 4.008929 1_555
Ba0_2 Ce0_5 4.008929 1_555
Ba0_3 Ba0_5 3.917894 1_555
Ba0_3 Ba0_5 3.917894 1_665
Ba0_3 Ba0_7 3.917894 1_555
Ba0_3 Ba0_7 3.917894 1_655
Ba0_3 Ce0_7 4.008928 1_555
Ba0_3 Ce0_6 4.008928 1_556
Ba0_3 Ce0_2 4.008929 1_656
Ba0_3 Ce0_4 4.008929 1_556
Ba0_3 Ce0_3 4.008929 1_655
Ba0_3 Ce0_5 4.008929 1_555
Ba0_4 Ba0_6 3.917894 1_545
Ba0_4 Ba0_6 3.917894 1_555
Ba0_4 Ce0_0 4.008928 1_555
Ba0_4 Ce0_1 4.008928 1_555
Ba0_4 Ce0_4 4.008929 1_555
Ba0_4 Ce0_5 4.008929 1_555
Ba0_4 Ce0_3 4.008929 1_545
Ba0_4 Ce0_2 4.008929 1_545
Ba0_5 Ba0_7 3.917894 1_545
Ba0_5 Ba0_7 3.917894 1_555
Ba0_5 Ce0_0 4.008928 1_556
Ba0_5 Ce0_1 4.008928 1_555
Ba0_5 Ce0_2 4.008929 1_546
Ba0_5 Ce0_4 4.008929 1_556
Ba0_5 Ce0_5 4.008929 1_555
Ba0_5 Ce0_3 4.008929 1_545
Ba0_6 Ce0_2 4.008928 1_555
Ba0_6 Ce0_3 4.008928 1_555
Ba0_6 Ce0_6 4.008929 1_555
Ba0_6 Ce0_7 4.008929 1_555
Ba0_6 Ce0_1 4.008929 1_555
Ba0_6 Ce0_0 4.008929 1_555
Ba0_7 Ce0_2 4.008928 1_556
Ba0_7 Ce0_3 4.008928 1_555
Ba0_7 Ce0_0 4.008929 1_556
Ba0_7 Ce0_6 4.008929 1_556
Ba0_7 Ce0_7 4.008929 1_555
Ba0_7 Ce0_1 4.008929 1_555
Ce0_0 Ce0_6 3.917894 1_555
Ce0_0 Ce0_6 3.917894 1_445
Ce0_0 Ce0_2 3.917894 1_545
Ce0_0 Ce0_4 3.917894 1_455
Ce0_0 Ce0_4 3.917894 1_555
Ce0_0 Ce0_2 3.917894 1_555
Ce0_1 Ce0_7 3.917894 1_555
Ce0_1 Ce0_7 3.917894 1_445
Ce0_1 Ce0_3 3.917894 1_545
Ce0_1 Ce0_5 3.917894 1_455
Ce0_1 Ce0_5 3.917894 1_555
Ce0_1 Ce0_3 3.917894 1_555
Ce0_2 Ce0_4 3.917894 1_455
Ce0_2 Ce0_4 3.917894 1_565
Ce0_2 Ce0_6 3.917894 1_455
Ce0_2 Ce0_6 3.917894 1_555
Ce0_3 Ce0_5 3.917894 1_455
Ce0_3 Ce0_5 3.917894 1_565
Ce0_3 Ce0_7 3.917894 1_455
Ce0_3 Ce0_7 3.917894 1_555
Ce0_4 Ce0_6 3.917894 1_545
Ce0_4 Ce0_6 3.917894 1_555
Ce0_5 Ce0_7 3.917894 1_545
Ce0_5 Ce0_7 3.917894 1_555
