# generated using pymatgen
data_CsBeAsO4
_symmetry_space_group_name_H-M   'P 1'
_cell_length_a   5.17260925
_cell_length_b   8.84962436
_cell_length_c   9.43690686
_cell_angle_alpha   90.00000000
_cell_angle_beta   90.00000000
_cell_angle_gamma   90.00000000
_symmetry_Int_Tables_number   1
_chemical_formula_structural   CsBeAsO4
_chemical_formula_sum   'Cs4 Be4 As4 O16'
_cell_volume   431.98053440
_cell_formula_units_Z   4
loop_
 _symmetry_equiv_pos_site_id
 _symmetry_equiv_pos_as_xyz
  1  'x, y, z'
loop_
 _atom_site_type_symbol
 _atom_site_label
 _atom_site_symmetry_multiplicity
 _atom_site_fract_x
 _atom_site_fract_y
 _atom_site_fract_z
 _atom_site_occupancy
  Cs  Cs0  1  0.49770503  0.31817911  0.49410559  1
  Cs  Cs1  1  0.99770503  0.68182089  0.50589441  1
  Cs  Cs2  1  0.49770503  0.18182089  0.99410559  1
  Cs  Cs3  1  0.99770503  0.81817911  0.00589441  1
  Be  Be0  1  -0.00085798  0.09513924  0.32990021  1
  Be  Be1  1  0.49914202  0.59513924  0.17009979  1
  Be  Be2  1  -0.00085798  0.40486076  0.82990021  1
  Be  Be3  1  0.49914202  0.90486076  0.67009979  1
  As  As0  1  0.50030746  0.91408113  0.32570778  1
  As  As1  1  0.00030746  0.08591887  0.67429222  1
  As  As2  1  0.50030746  0.58591887  0.82570778  1
  As  As3  1  0.00030746  0.41408113  0.17429222  1
  O  O0  1  0.01541343  0.12380118  0.49980914  1
  O  O1  1  0.51541343  0.62380118  0.00019086  1
  O  O2  1  0.01541343  0.37619882  -0.00019086  1
  O  O3  1  0.51541343  0.87619882  0.50019086  1
  O  O4  1  0.69604257  0.46132512  0.22368486  1
  O  O5  1  0.19604257  0.53867488  0.77631514  1
  O  O6  1  0.69604257  0.03867488  0.72368486  1
  O  O7  1  0.19604257  0.96132512  0.27631514  1
  O  O8  1  0.59195023  0.75530123  0.24098213  1
  O  O9  1  0.09195023  0.24469877  0.75901787  1
  O  O10  1  0.59195023  0.74469877  0.74098213  1
  O  O11  1  0.09195023  0.25530123  0.25901787  1
  O  O12  1  0.70543926  0.44519521  0.77772455  1
  O  O13  1  0.20543926  0.55480479  0.22227545  1
  O  O14  1  0.70543926  0.05480479  0.27772455  1
  O  O15  1  0.20543926  0.94519521  0.72227545  1
loop_
_geom_bond_atom_site_label_1
_geom_bond_atom_site_label_2
_geom_bond_distance
_geom_bond_site_symmetry_2
Cs0 O4 3.028142 1_555
Cs0 O0 3.030750 1_555
Cs0 O12 3.095426 1_555
Cs0 O11 3.104253 1_555
Cs0 O0 3.183246 1_655
Cs0 O14 3.279741 1_555
Cs0 O9 3.328307 1_555
Cs0 O6 3.444497 1_555
Cs0 O13 3.640184 1_555
Cs0 O5 3.651703 1_555
Cs1 O5 3.028142 1_655
Cs1 O3 3.030750 1_555
Cs1 O13 3.095426 1_655
Cs1 O10 3.104253 1_555
Cs1 O3 3.183246 1_655
Cs1 O15 3.279741 1_655
Cs1 O8 3.328307 1_555
Cs1 O7 3.444497 1_655
Cs1 O12 3.640184 1_555
Cs1 O4 3.651703 1_555
Cs2 O6 3.028142 1_555
Cs2 O2 3.030750 1_556
Cs2 O14 3.095426 1_556
Cs2 O9 3.104253 1_555
Cs2 O2 3.183246 1_656
Cs2 O12 3.279741 1_555
Cs2 O11 3.328307 1_556
Cs2 O4 3.444497 1_556
Cs2 O15 3.640184 1_545
Cs2 O7 3.651703 1_546
Cs3 O7 3.028142 1_655
Cs3 O1 3.030750 1_555
Cs3 O15 3.095426 1_654
Cs3 O8 3.104253 1_555
Cs3 O1 3.183246 1_655
Cs3 O13 3.279741 1_655
Cs3 O10 3.328307 1_554
Cs3 O5 3.444497 1_654
Cs3 O14 3.640184 1_565
Cs3 O6 3.651703 1_564
Be0 O0 1.625534 1_555
Be0 O14 1.636411 1_455
Be0 O11 1.639160 1_555
Be0 O7 1.641759 1_545
Be1 O1 1.625534 1_555
Be1 O13 1.636411 1_555
Be1 O8 1.639160 1_555
Be1 O4 1.641759 1_555
Be2 O2 1.625534 1_556
Be2 O12 1.636411 1_455
Be2 O9 1.639160 1_555
Be2 O5 1.641759 1_555
Be3 O3 1.625534 1_555
Be3 O15 1.636411 1_555
Be3 O10 1.639160 1_555
Be3 O6 1.641759 1_565
As0 O3 1.682178 1_555
As0 O8 1.684758 1_555
As0 O7 1.693826 1_555
As0 O14 1.697587 1_565
As1 O0 1.682178 1_555
As1 O9 1.684758 1_555
As1 O6 1.693826 1_455
As1 O15 1.697587 1_545
As2 O1 1.682178 1_556
As2 O10 1.684758 1_555
As2 O5 1.693826 1_555
As2 O12 1.697587 1_555
As3 O2 1.682178 1_555
As3 O11 1.684758 1_555
As3 O4 1.693826 1_455
As3 O13 1.697587 1_555
