# generated using pymatgen
data_NdAu3
_symmetry_space_group_name_H-M   'P 1'
_cell_length_a   4.95063611
_cell_length_b   4.95064347
_cell_length_c   4.95063537
_cell_angle_alpha   60.00013286
_cell_angle_beta   60.00011325
_cell_angle_gamma   60.00008859
_symmetry_Int_Tables_number   1
_chemical_formula_structural   NdAu3
_chemical_formula_sum   'Nd1 Au3'
_cell_volume   85.79652485
_cell_formula_units_Z   1
loop_
 _symmetry_equiv_pos_site_id
 _symmetry_equiv_pos_as_xyz
  1  'x, y, z'
loop_
 _atom_site_type_symbol
 _atom_site_label
 _atom_site_symmetry_multiplicity
 _atom_site_fract_x
 _atom_site_fract_y
 _atom_site_fract_z
 _atom_site_occupancy
  Nd  Nd0  1  0.74999900  0.74999900  0.74999900  1
  Au  Au0  1  0.00000000  0.00000000  0.00000000  1
  Au  Au1  1  0.49999900  0.49999900  0.49999900  1
  Au  Au2  1  0.25000000  0.25000000  0.25000000  1
loop_
_geom_bond_atom_site_label_1
_geom_bond_atom_site_label_2
_geom_bond_distance
_geom_bond_site_symmetry_2
Au0 Au2 3.031632 1_555
Au0 Nd0 3.031633 1_544
Au0 Nd0 3.031634 1_445
Au0 Au2 3.031637 1_455
Au0 Au2 3.031638 1_554
Au0 Nd0 3.031638 1_454
Au0 Au2 3.031642 1_545
Au0 Nd0 3.031644 1_444
Au1 Au2 3.031620 1_555
Au1 Nd0 3.031632 1_555
Au1 Nd0 3.031637 1_455
Au1 Nd0 3.031638 1_554
Au1 Au2 3.031641 1_655
Au1 Au2 3.031642 1_556
Au1 Nd0 3.031642 1_545
Au1 Au2 3.031646 1_565
Au2 Nd0 3.500624 1_545
Au2 Nd0 3.500626 1_455
Au2 Nd0 3.500628 1_554
Au2 Nd0 3.500638 1_454
Au2 Nd0 3.500640 1_544
Au2 Nd0 3.500642 1_445
