# generated using pymatgen
data_HfCoAs
_symmetry_space_group_name_H-M   'P 1'
_cell_length_a   3.79517913
_cell_length_b   6.42264666
_cell_length_c   7.18765567
_cell_angle_alpha   90.00000000
_cell_angle_beta   90.00000000
_cell_angle_gamma   90.00000000
_symmetry_Int_Tables_number   1
_chemical_formula_structural   HfCoAs
_chemical_formula_sum   'Hf4 Co4 As4'
_cell_volume   175.19978665
_cell_formula_units_Z   4
loop_
 _symmetry_equiv_pos_site_id
 _symmetry_equiv_pos_as_xyz
  1  'x, y, z'
loop_
 _atom_site_type_symbol
 _atom_site_label
 _atom_site_symmetry_multiplicity
 _atom_site_fract_x
 _atom_site_fract_y
 _atom_site_fract_z
 _atom_site_occupancy
  Hf  Hf0  1  0.25000000  0.51914567  0.81238678  1
  Hf  Hf1  1  0.75000000  0.48085433  0.18761322  1
  Hf  Hf2  1  0.25000000  0.01914567  0.68761322  1
  Hf  Hf3  1  0.75000000  0.98085433  0.31238678  1
  Co  Co0  1  0.25000000  0.63848224  0.43616397  1
  Co  Co1  1  0.75000000  0.36151776  0.56383603  1
  Co  Co2  1  0.25000000  0.13848224  0.06383603  1
  Co  Co3  1  0.75000000  0.86151776  0.93616397  1
  As  As0  1  0.75000000  0.73165207  0.61473337  1
  As  As1  1  0.25000000  0.26834793  0.38526663  1
  As  As2  1  0.75000000  0.23165207  0.88526663  1
  As  As3  1  0.25000000  0.76834793  0.11473337  1
loop_
_geom_bond_atom_site_label_1
_geom_bond_atom_site_label_2
_geom_bond_distance
_geom_bond_site_symmetry_2
Co0 Co1 2.758123 1_455
Co0 Co1 2.758123 1_555
Co0 Hf1 2.795952 1_555
Co0 Hf1 2.795952 1_455
Co0 Hf0 2.810683 1_555
Co0 Hf3 3.037708 1_555
Co0 Hf3 3.037708 1_455
Co0 Hf2 3.040365 1_565
Co1 Hf0 2.795952 1_555
Co1 Hf0 2.795952 1_655
Co1 Hf1 2.810683 1_555
Co1 Hf2 3.037708 1_555
Co1 Hf2 3.037708 1_655
Co1 Hf3 3.040365 1_545
Co2 Co3 2.758123 1_444
Co2 Co3 2.758123 1_544
Co2 Hf3 2.795952 1_545
Co2 Hf3 2.795952 1_445
Co2 Hf2 2.810683 1_554
Co2 Hf1 3.037708 1_455
Co2 Hf1 3.037708 1_555
Co2 Hf0 3.040365 1_554
Co3 Hf2 2.795952 1_665
Co3 Hf2 2.795952 1_565
Co3 Hf3 2.810683 1_556
Co3 Hf0 3.037708 1_555
Co3 Hf0 3.037708 1_655
Co3 Hf1 3.040365 1_556
As0 Co0 2.367760 1_655
As0 Co0 2.367760 1_555
As0 Co1 2.405226 1_555
As0 Co3 2.456283 1_555
As0 Hf3 2.698955 1_555
As0 Hf2 2.699018 1_565
As0 Hf2 2.699018 1_665
As0 Hf0 2.735317 1_555
As0 Hf0 2.735317 1_655
As1 Co1 2.367760 1_455
As1 Co1 2.367760 1_555
As1 Co0 2.405226 1_555
As1 Co2 2.456283 1_555
As1 Hf2 2.698955 1_555
As1 Hf3 2.699018 1_445
As1 Hf3 2.699018 1_545
As1 Hf1 2.735317 1_555
As1 Hf1 2.735317 1_455
As2 Co2 2.367760 1_656
As2 Co2 2.367760 1_556
As2 Co3 2.405226 1_545
As2 Co1 2.456283 1_555
As2 Hf1 2.698955 1_556
As2 Hf0 2.699018 1_655
As2 Hf0 2.699018 1_555
As2 Hf2 2.735317 1_555
As2 Hf2 2.735317 1_655
As3 Co3 2.367760 1_554
As3 Co3 2.367760 1_454
As3 Co2 2.405226 1_565
As3 Co0 2.456283 1_555
As3 Hf0 2.698955 1_554
As3 Hf1 2.699018 1_455
As3 Hf1 2.699018 1_555
As3 Hf3 2.735317 1_455
As3 Hf3 2.735317 1_555
