# generated using pymatgen
data_Li3In
_symmetry_space_group_name_H-M   'P 1'
_cell_length_a   5.15126564
_cell_length_b   5.15126564
_cell_length_c   5.15126564
_cell_angle_alpha   132.35228370
_cell_angle_beta   132.35228370
_cell_angle_gamma   69.67319895
_symmetry_Int_Tables_number   1
_chemical_formula_structural   Li3In
_chemical_formula_sum   'Li3 In1'
_cell_volume   73.22091101
_cell_formula_units_Z   1
loop_
 _symmetry_equiv_pos_site_id
 _symmetry_equiv_pos_as_xyz
  1  'x, y, z'
loop_
 _atom_site_type_symbol
 _atom_site_label
 _atom_site_symmetry_multiplicity
 _atom_site_fract_x
 _atom_site_fract_y
 _atom_site_fract_z
 _atom_site_occupancy
  Li  Li0  1  0.75000100  0.25000000  0.50000000  1
  Li  Li1  1  0.25000000  0.75000100  0.50000000  1
  Li  Li2  1  0.50000000  0.50000000  -0.00000000  1
  In  In0  1  -0.00000000  -0.00000000  -0.00000000  1
loop_
_geom_bond_atom_site_label_1
_geom_bond_atom_site_label_2
_geom_bond_distance
_geom_bond_site_symmetry_2
Li0 Li1 2.942593 1_645
Li0 Li1 2.942599 1_544
Li0 Li1 2.942599 1_656
Li0 Li1 2.942604 1_555
Li0 Li2 2.966240 1_656
Li0 Li2 2.966243 1_555
Li0 Li2 2.966246 1_545
Li0 Li2 2.966249 1_556
Li1 Li2 2.966240 1_566
Li1 Li2 2.966243 1_555
Li1 Li2 2.966246 1_455
Li1 Li2 2.966249 1_556
In0 Li2 2.942599 1_455
In0 Li2 2.942599 1_444
In0 Li2 2.942599 1_556
In0 Li2 2.942599 1_545
In0 Li1 2.966240 1_545
In0 Li0 2.966240 1_455
In0 Li0 2.966243 1_444
In0 Li1 2.966243 1_444
In0 Li1 2.966246 1_544
In0 Li0 2.966246 1_454
In0 Li1 2.966249 1_555
In0 Li0 2.966249 1_555
