# generated using pymatgen
data_Rb2NbAgSe4
_symmetry_space_group_name_H-M   'P 1'
_cell_length_a   14.38913374
_cell_length_b   12.84197533
_cell_length_c   7.81512087
_cell_angle_alpha   84.58407111
_cell_angle_beta   62.68449415
_cell_angle_gamma   32.73143474
_symmetry_Int_Tables_number   1
_chemical_formula_structural   Rb2NbAgSe4
_chemical_formula_sum   'Rb4 Nb2 Ag2 Se8'
_cell_volume   551.30443552
_cell_formula_units_Z   2
loop_
 _symmetry_equiv_pos_site_id
 _symmetry_equiv_pos_as_xyz
  1  'x, y, z'
loop_
 _atom_site_type_symbol
 _atom_site_label
 _atom_site_symmetry_multiplicity
 _atom_site_fract_x
 _atom_site_fract_y
 _atom_site_fract_z
 _atom_site_occupancy
  Rb  Rb0  1  0.31954700  0.31954700  0.68045300  1
  Rb  Rb1  1  0.93045300  0.93045300  0.56954700  1
  Rb  Rb2  1  0.68045300  0.68045300  0.31954700  1
  Rb  Rb3  1  0.56954700  0.56954700  0.93045300  1
  Nb  Nb0  1  0.75000000  0.75000000  0.75000000  1
  Nb  Nb1  1  0.50000000  0.50000000  0.50000000  1
  Ag  Ag0  1  0.25000000  0.25000000  0.25000000  1
  Ag  Ag1  1  0.00000000  0.00000000  0.00000000  1
  Se  Se0  1  0.37231700  0.01320700  0.92538500  1
  Se  Se1  1  0.56090900  0.32461500  0.23679300  1
  Se  Se2  1  0.23679300  0.87768300  0.56090900  1
  Se  Se3  1  0.32461500  0.56090900  0.87768300  1
  Se  Se4  1  0.68909100  0.92538500  0.01320700  1
  Se  Se5  1  0.92538500  0.68909100  0.37231700  1
  Se  Se6  1  0.01320700  0.37231700  0.68909100  1
  Se  Se7  1  0.87768300  0.23679300  0.32461500  1
loop_
_geom_bond_atom_site_label_1
_geom_bond_atom_site_label_2
_geom_bond_distance
_geom_bond_site_symmetry_2
Rb0 Se5 3.607299 1_545
Rb0 Se4 3.607299 1_456
Rb0 Se1 3.657017 1_555
Rb0 Se3 3.657017 1_555
Rb0 Se6 3.821496 1_555
Rb0 Se0 3.821496 1_555
Rb0 Se5 3.916553 1_456
Rb0 Se4 3.916553 1_545
Rb1 Se3 3.607299 1_565
Rb1 Se1 3.607299 1_655
Rb1 Se4 3.657017 1_556
Rb1 Se5 3.657017 1_555
Rb1 Se7 3.821496 1_565
Rb1 Se2 3.821496 1_655
Rb1 Se3 3.916553 1_654
Rb1 Se1 3.916553 1_566
Rb2 Se0 3.607299 1_565
Rb2 Se6 3.607299 1_654
Rb2 Se7 3.657017 1_555
Rb2 Se2 3.657017 1_555
Rb2 Se4 3.821496 1_555
Rb2 Se5 3.821496 1_555
Rb2 Se0 3.916553 1_654
Rb2 Se6 3.916553 1_565
Rb3 Se7 3.607299 1_555
Rb3 Se2 3.607299 1_556
Rb3 Se0 3.657017 1_565
Rb3 Se6 3.657017 1_655
Rb3 Se1 3.821496 1_556
Rb3 Se3 3.821496 1_555
Rb3 Se7 3.916553 1_466
Rb3 Se2 3.916553 1_645
Nb0 Se5 2.443580 1_555
Nb0 Se6 2.443580 1_655
Nb0 Se0 2.443580 1_565
Nb0 Se4 2.443580 1_556
Nb1 Se7 2.443580 1_555
Nb1 Se1 2.443580 1_555
Nb1 Se3 2.443580 1_555
Nb1 Se2 2.443580 1_555
Ag0 Se0 2.671043 1_554
Ag0 Se6 2.671043 1_555
Ag0 Se4 2.671043 1_545
Ag0 Se5 2.671043 1_455
Ag1 Se7 2.671043 1_455
Ag1 Se2 2.671043 1_544
Ag1 Se1 2.671043 1_455
Ag1 Se3 2.671043 1_544
