# generated using pymatgen
data_PaAlCu2
_symmetry_space_group_name_H-M   'P 1'
_cell_length_a   4.57379078
_cell_length_b   4.57379149
_cell_length_c   4.57379006
_cell_angle_alpha   59.99993766
_cell_angle_beta   59.99997402
_cell_angle_gamma   60.00004679
_symmetry_Int_Tables_number   1
_chemical_formula_structural   PaAlCu2
_chemical_formula_sum   'Pa1 Al1 Cu2'
_cell_volume   67.65715767
_cell_formula_units_Z   1
loop_
 _symmetry_equiv_pos_site_id
 _symmetry_equiv_pos_as_xyz
  1  'x, y, z'
loop_
 _atom_site_type_symbol
 _atom_site_label
 _atom_site_symmetry_multiplicity
 _atom_site_fract_x
 _atom_site_fract_y
 _atom_site_fract_z
 _atom_site_occupancy
  Pa  Pa0  1  0.75000000  0.75000000  0.75000000  1
  Al  Al0  1  0.24999900  0.24999900  0.24999900  1
  Cu  Cu0  1  0.50000100  0.50000100  0.50000100  1
  Cu  Cu1  1  0.00000000  0.00000000  0.00000000  1
loop_
_geom_bond_atom_site_label_1
_geom_bond_atom_site_label_2
_geom_bond_distance
_geom_bond_site_symmetry_2
Al0 Cu1 2.800852 1_555
Al0 Cu0 2.800853 1_554
Al0 Cu0 2.800856 1_545
Al0 Cu0 2.800857 1_455
Al0 Cu1 2.800864 1_556
Al0 Cu1 2.800867 1_565
Al0 Cu1 2.800868 1_655
Al0 Cu0 2.800886 1_555
Cu0 Pa0 2.800852 1_555
Cu0 Pa0 2.800864 1_554
Cu0 Pa0 2.800867 1_545
Cu0 Pa0 2.800868 1_455
Cu1 Pa0 2.800861 1_445
Cu1 Pa0 2.800864 1_444
Cu1 Pa0 2.800864 1_454
Cu1 Pa0 2.800864 1_544
