# generated using pymatgen
data_Rb2Bi2O5
_symmetry_space_group_name_H-M   'P 1'
_cell_length_a   8.82501453
_cell_length_b   4.33298858
_cell_length_c   4.33296243
_cell_angle_alpha   90.00000000
_cell_angle_beta   90.00000000
_cell_angle_gamma   90.00000000
_symmetry_Int_Tables_number   1
_chemical_formula_structural   Rb2Bi2O5
_chemical_formula_sum   'Rb2 Bi2 O5'
_cell_volume   165.68679491
_cell_formula_units_Z   1
loop_
 _symmetry_equiv_pos_site_id
 _symmetry_equiv_pos_as_xyz
  1  'x, y, z'
loop_
 _atom_site_type_symbol
 _atom_site_label
 _atom_site_symmetry_multiplicity
 _atom_site_fract_x
 _atom_site_fract_y
 _atom_site_fract_z
 _atom_site_occupancy
  Rb  Rb0  1  -0.00000000  -0.00000000  -0.00000000  1
  Rb  Rb1  1  0.50000100  -0.00000000  -0.00000000  1
  Bi  Bi0  1  0.26314555  0.49999900  0.49999900  1
  Bi  Bi1  1  0.73685445  0.49999900  0.49999900  1
  O  O0  1  0.23261154  0.49999900  -0.00000000  1
  O  O1  1  0.76738846  0.49999900  -0.00000000  1
  O  O2  1  0.50000100  0.49999900  0.49999900  1
  O  O3  1  0.23261154  0.00000000  0.49999900  1
  O  O4  1  0.76738846  -0.00000000  0.49999900  1
loop_
_geom_bond_atom_site_label_1
_geom_bond_atom_site_label_2
_geom_bond_distance
_geom_bond_site_symmetry_2
Bi0 O2 2.090253 1_555
Bi0 O0 2.183170 1_555
Bi0 O0 2.183179 1_556
Bi0 O3 2.183183 1_555
Bi0 O3 2.183192 1_565
Bi1 O2 2.090235 1_555
Bi1 O1 2.183170 1_555
Bi1 O1 2.183179 1_556
Bi1 O4 2.183183 1_555
Bi1 O4 2.183192 1_565
O0 Rb0 2.984572 1_555
O0 Rb0 2.984578 1_565
O0 Rb1 3.203426 1_555
O0 Rb1 3.203432 1_565
O1 Rb0 2.984572 1_655
O1 Rb0 2.984578 1_665
O1 Rb1 3.203413 1_555
O1 Rb1 3.203419 1_565
O2 Rb1 3.063870 1_555
O2 Rb1 3.063876 1_556
O2 Rb1 3.063876 1_565
O2 Rb1 3.063882 1_566
O3 Rb0 2.984562 1_555
O3 Rb0 2.984568 1_556
O3 Rb1 3.203417 1_555
O3 Rb1 3.203423 1_556
O4 Rb0 2.984562 1_655
O4 Rb0 2.984568 1_656
O4 Rb1 3.203404 1_555
O4 Rb1 3.203410 1_556
