# generated using pymatgen
data_Zn3In
_symmetry_space_group_name_H-M   'P 1'
_cell_length_a   6.11734933
_cell_length_b   6.11734933
_cell_length_c   4.68006800
_cell_angle_alpha   90.00000000
_cell_angle_beta   90.00000000
_cell_angle_gamma   121.79049001
_symmetry_Int_Tables_number   1
_chemical_formula_structural   Zn3In
_chemical_formula_sum   'Zn6 In2'
_cell_volume   148.86325381
_cell_formula_units_Z   2
loop_
 _symmetry_equiv_pos_site_id
 _symmetry_equiv_pos_as_xyz
  1  'x, y, z'
loop_
 _atom_site_type_symbol
 _atom_site_label
 _atom_site_symmetry_multiplicity
 _atom_site_fract_x
 _atom_site_fract_y
 _atom_site_fract_z
 _atom_site_occupancy
  Zn  Zn0  1  0.84703900  0.15296100  0.25000000  1
  Zn  Zn1  1  0.30842500  0.15454700  0.25000000  1
  Zn  Zn2  1  0.84545300  0.69157500  0.25000000  1
  Zn  Zn3  1  0.15296100  0.84703900  0.75000000  1
  Zn  Zn4  1  0.69157500  0.84545300  0.75000000  1
  Zn  Zn5  1  0.15454700  0.30842500  0.75000000  1
  In  In0  1  0.66661600  0.33338400  0.75000000  1
  In  In1  1  0.33338400  0.66661600  0.25000000  1
loop_
_geom_bond_atom_site_label_1
_geom_bond_atom_site_label_2
_geom_bond_distance
_geom_bond_site_symmetry_2
Zn0 Zn1 2.817360 1_655
Zn0 Zn2 2.817360 1_545
Zn0 Zn4 2.834418 1_545
Zn0 Zn4 2.834418 1_544
Zn0 Zn5 2.834418 1_655
Zn0 Zn5 2.834418 1_654
Zn1 Zn2 2.755171 1_445
Zn1 Zn3 2.834418 1_544
Zn1 Zn3 2.834418 1_545
Zn1 Zn5 2.860343 1_554
Zn1 Zn5 2.860343 1_555
Zn2 Zn3 2.834418 1_654
Zn2 Zn3 2.834418 1_655
Zn2 Zn4 2.860343 1_555
Zn2 Zn4 2.860343 1_554
Zn3 Zn5 2.817360 1_565
Zn3 Zn4 2.817360 1_455
Zn4 Zn5 2.755171 1_665
In0 Zn3 2.979105 1_545
In0 Zn3 2.979105 1_655
In0 Zn1 2.991346 1_555
In0 Zn1 2.991346 1_556
In0 Zn2 2.991346 1_555
In0 Zn2 2.991346 1_556
In0 Zn0 3.032428 1_556
In0 Zn0 3.032428 1_555
In0 Zn5 3.054827 1_555
In0 Zn4 3.054827 1_555
In0 Zn4 3.068026 1_545
In0 Zn5 3.068026 1_655
In1 Zn0 2.979105 1_565
In1 Zn0 2.979105 1_455
In1 Zn5 2.991346 1_554
In1 Zn5 2.991346 1_555
In1 Zn4 2.991346 1_555
In1 Zn4 2.991346 1_554
In1 Zn3 3.032428 1_554
In1 Zn3 3.032428 1_555
In1 Zn1 3.054827 1_555
In1 Zn2 3.054827 1_555
In1 Zn2 3.068026 1_455
In1 Zn1 3.068026 1_565
