# generated using pymatgen
data_Cu3OF5
_symmetry_space_group_name_H-M   'P 1'
_cell_length_a   7.54065713
_cell_length_b   5.53504728
_cell_length_c   5.38770919
_cell_angle_alpha   70.58667508
_cell_angle_beta   107.75736870
_cell_angle_gamma   106.39862776
_symmetry_Int_Tables_number   1
_chemical_formula_structural   Cu3OF5
_chemical_formula_sum   'Cu6 O2 F10'
_cell_volume   197.84113011
_cell_formula_units_Z   2
loop_
 _symmetry_equiv_pos_site_id
 _symmetry_equiv_pos_as_xyz
  1  'x, y, z'
loop_
 _atom_site_type_symbol
 _atom_site_label
 _atom_site_symmetry_multiplicity
 _atom_site_fract_x
 _atom_site_fract_y
 _atom_site_fract_z
 _atom_site_occupancy
  Cu  Cu0  1  0.66250458  0.62335883  0.69395554  1
  Cu  Cu1  1  0.82022143  0.32311936  0.32084998  1
  Cu  Cu2  1  0.17977857  0.67688064  0.67915002  1
  Cu  Cu3  1  0.33749542  0.37664117  0.30604446  1
  Cu  Cu4  1  0.50000000  0.00000000  -0.00000000  1
  Cu  Cu5  1  0.00000000  0.00000000  -0.00000000  1
  O  O0  1  0.65187647  0.33143025  0.98665328  1
  O  O1  1  0.34812353  0.66856975  0.01334672  1
  F  F0  1  0.99397327  0.76694784  0.79486534  1
  F  F1  1  0.72736403  0.87257192  0.91642783  1
  F  F2  1  0.65192047  0.91899167  0.38343541  1
  F  F3  1  0.98128043  0.28122275  0.67659225  1
  F  F4  1  0.64669216  0.42556048  0.44685166  1
  F  F5  1  0.35330784  0.57443952  0.55314834  1
  F  F6  1  0.01871957  0.71877725  0.32340775  1
  F  F7  1  0.34807953  0.08100833  0.61656459  1
  F  F8  1  0.27263597  0.12742808  0.08357217  1
  F  F9  1  0.00602673  0.23305216  0.20513466  1
loop_
_geom_bond_atom_site_label_1
_geom_bond_atom_site_label_2
_geom_bond_distance
_geom_bond_site_symmetry_2
Cu0 O0 1.847773 1_555
Cu0 F2 1.911895 1_555
Cu0 F4 1.945167 1_555
Cu0 F1 1.984751 1_555
Cu0 F5 2.187721 1_555
Cu0 F0 2.347633 1_555
Cu1 O0 1.854529 1_554
Cu1 F3 1.909440 1_555
Cu1 F4 1.926462 1_555
Cu1 F9 1.932377 1_655
Cu1 F2 2.210117 1_545
Cu1 F6 2.278873 1_655
Cu2 O1 1.854529 1_556
Cu2 F6 1.909440 1_555
Cu2 F5 1.926462 1_555
Cu2 F0 1.932377 1_455
Cu2 F7 2.210117 1_565
Cu2 F3 2.278873 1_455
Cu3 O1 1.847773 1_555
Cu3 F7 1.911895 1_555
Cu3 F5 1.945167 1_555
Cu3 F8 1.984751 1_555
Cu3 F4 2.187721 1_555
Cu3 F9 2.347633 1_555
Cu4 O0 1.859668 1_554
Cu4 O1 1.859668 1_545
Cu4 F7 2.002950 1_554
Cu4 F2 2.002950 1_545
Cu4 F1 2.237055 1_544
Cu4 F8 2.237055 1_555
Cu5 F3 1.910491 1_454
Cu5 F6 1.910491 1_545
Cu5 F1 1.937649 1_444
Cu5 F8 1.937649 1_555
Cu5 F0 1.942040 1_444
Cu5 F9 1.942040 1_555
