# generated using pymatgen
data_RbSmTe2
_symmetry_space_group_name_H-M   'P 1'
_cell_length_a   4.59625918
_cell_length_b   4.59625990
_cell_length_c   8.91189256
_cell_angle_alpha   75.05615945
_cell_angle_beta   75.05616189
_cell_angle_gamma   60.00001001
_symmetry_Int_Tables_number   1
_chemical_formula_structural   RbSmTe2
_chemical_formula_sum   'Rb1 Sm1 Te2'
_cell_volume   155.64993923
_cell_formula_units_Z   1
loop_
 _symmetry_equiv_pos_site_id
 _symmetry_equiv_pos_as_xyz
  1  'x, y, z'
loop_
 _atom_site_type_symbol
 _atom_site_label
 _atom_site_symmetry_multiplicity
 _atom_site_fract_x
 _atom_site_fract_y
 _atom_site_fract_z
 _atom_site_occupancy
  Rb  Rb0  1  -0.00000000  0.00000000  0.00000000  1
  Sm  Sm0  1  0.50000000  0.50000000  0.50000000  1
  Te  Te0  1  0.76529978  0.76529978  0.70409965  1
  Te  Te1  1  0.23470022  0.23470022  0.29590035  1
loop_
_geom_bond_atom_site_label_1
_geom_bond_atom_site_label_2
_geom_bond_distance
_geom_bond_site_symmetry_2
Rb0 Te1 3.657764 1_455
Rb0 Te0 3.657764 1_544
Rb0 Te1 3.657764 1_545
Rb0 Te0 3.657764 1_454
Rb0 Te1 3.657766 1_555
Rb0 Te0 3.657766 1_444
Sm0 Te0 3.171271 1_555
Sm0 Te1 3.171271 1_555
Sm0 Te0 3.171275 1_455
Sm0 Te1 3.171275 1_655
Sm0 Te0 3.171275 1_545
Sm0 Te1 3.171275 1_565
