# generated using pymatgen
data_SrTcN3
_symmetry_space_group_name_H-M   'P 1'
_cell_length_a   6.65380809
_cell_length_b   6.65380809
_cell_length_c   5.76897500
_cell_angle_alpha   90.00000000
_cell_angle_beta   90.00000000
_cell_angle_gamma   143.10083523
_symmetry_Int_Tables_number   1
_chemical_formula_structural   SrTcN3
_chemical_formula_sum   'Sr2 Tc2 N6'
_cell_volume   153.35081193
_cell_formula_units_Z   2
loop_
 _symmetry_equiv_pos_site_id
 _symmetry_equiv_pos_as_xyz
  1  'x, y, z'
loop_
 _atom_site_type_symbol
 _atom_site_label
 _atom_site_symmetry_multiplicity
 _atom_site_fract_x
 _atom_site_fract_y
 _atom_site_fract_z
 _atom_site_occupancy
  Sr  Sr0  1  0.62922300  0.37077700  0.25000000  1
  Sr  Sr1  1  0.37077700  0.62922300  0.75000000  1
  Tc  Tc0  1  0.09511600  0.90488400  0.75000000  1
  Tc  Tc1  1  0.90488400  0.09511600  0.25000000  1
  N  N0  1  0.45400400  0.84768000  0.25000000  1
  N  N1  1  0.15232000  0.54599600  0.25000000  1
  N  N2  1  0.00000000  0.00000000  0.50000000  1
  N  N3  1  0.54599600  0.15232000  0.75000000  1
  N  N4  1  0.84768000  0.45400400  0.75000000  1
  N  N5  1  0.00000000  0.00000000  0.00000000  1
loop_
_geom_bond_atom_site_label_1
_geom_bond_atom_site_label_2
_geom_bond_distance
_geom_bond_site_symmetry_2
N0 N1 1.270531 1_555
N0 Tc1 1.952226 1_565
N0 Sr0 2.642642 1_565
N0 Sr1 3.074471 1_555
N0 Sr1 3.074471 1_554
N1 Tc1 1.952226 1_455
N1 Sr0 2.642642 1_455
N1 Sr1 3.074471 1_554
N1 Sr1 3.074471 1_555
N2 Tc0 1.876638 1_545
N2 Tc1 1.876638 1_455
N2 Sr0 3.029058 1_555
N2 Sr1 3.029058 1_555
N2 Sr1 3.029058 1_445
N2 Sr0 3.029058 1_445
N3 N4 1.270531 1_555
N3 Tc0 1.952226 1_545
N3 Sr1 2.642642 1_545
N3 Sr0 3.074471 1_555
N3 Sr0 3.074471 1_556
N4 Tc0 1.952226 1_655
N4 Sr1 2.642642 1_655
N4 Sr0 3.074471 1_555
N4 Sr0 3.074471 1_556
N5 Tc0 1.876638 1_544
N5 Tc1 1.876638 1_455
N5 Sr0 3.029058 1_555
N5 Sr1 3.029058 1_554
N5 Sr1 3.029058 1_444
N5 Sr0 3.029058 1_445
