# generated using pymatgen
data_Sm(BRu)2
_symmetry_space_group_name_H-M   'P 1'
_cell_length_a   5.57721618
_cell_length_b   5.57721618
_cell_length_c   5.92468973
_cell_angle_alpha   108.94827508
_cell_angle_beta   108.94827508
_cell_angle_gamma   108.06587160
_symmetry_Int_Tables_number   1
_chemical_formula_structural   Sm(BRu)2
_chemical_formula_sum   'Sm2 B4 Ru4'
_cell_volume   145.99136451
_cell_formula_units_Z   2
loop_
 _symmetry_equiv_pos_site_id
 _symmetry_equiv_pos_as_xyz
  1  'x, y, z'
loop_
 _atom_site_type_symbol
 _atom_site_label
 _atom_site_symmetry_multiplicity
 _atom_site_fract_x
 _atom_site_fract_y
 _atom_site_fract_z
 _atom_site_occupancy
  Sm  Sm0  1  -0.00000000  -0.00000000  -0.00000000  1
  Sm  Sm1  1  0.25000000  0.75000000  0.49999900  1
  B  B0  1  0.68501354  0.31498646  -0.00000000  1
  B  B1  1  0.31498646  0.68501354  -0.00000000  1
  B  B2  1  0.93502801  0.06497199  0.49999900  1
  B  B3  1  0.56497299  0.43502801  0.49999900  1
  Ru  Ru0  1  0.61261666  0.11261666  0.22523132  1
  Ru  Ru1  1  0.63736026  0.63736026  0.27472152  1
  Ru  Ru2  1  0.36263974  0.36263974  0.72527948  1
  Ru  Ru3  1  0.88738334  0.38738334  0.77476668  1
loop_
_geom_bond_atom_site_label_1
_geom_bond_atom_site_label_2
_geom_bond_distance
_geom_bond_site_symmetry_2
B0 Ru0 2.064698 1_555
B0 Ru3 2.064709 1_554
B0 Ru2 2.151570 1_554
B0 Ru1 2.151574 1_555
B0 Sm0 2.843664 1_655
B0 Sm1 3.019881 1_655
B0 Sm1 3.019885 1_544
B1 Ru0 2.064709 1_565
B1 Ru3 2.064709 1_454
B1 Ru2 2.151570 1_554
B1 Ru1 2.151574 1_555
B1 Sm0 2.843664 1_565
B1 Sm1 3.019877 1_555
B1 Sm1 3.019889 1_554
B2 Ru1 2.064794 1_545
B2 Ru2 2.064794 1_655
B2 Ru0 2.151819 1_555
B2 Ru3 2.151819 1_555
B2 Sm1 2.843533 1_645
B2 Sm0 3.019852 1_655
B2 Sm0 3.019863 1_656
B3 Ru1 2.064783 1_555
B3 Ru2 2.064803 1_555
B3 Ru0 2.151815 1_555
B3 Ru3 2.151815 1_555
B3 Sm1 2.843538 1_555
B3 Sm0 3.019858 1_555
B3 Sm0 3.019859 1_666
Ru0 Sm0 3.002116 1_655
Ru0 Sm0 3.002123 1_555
Ru1 Sm1 3.002200 1_555
Ru1 Sm1 3.002208 1_655
Ru2 Sm1 3.002208 1_545
Ru2 Sm1 3.002211 1_555
Ru3 Sm0 3.002123 1_656
Ru3 Sm0 3.002123 1_666
