# generated using pymatgen
data_Mn2SiRu
_symmetry_space_group_name_H-M   'P 1'
_cell_length_a   4.10463913
_cell_length_b   4.10463913
_cell_length_c   4.10463913
_cell_angle_alpha   60.00000000
_cell_angle_beta   60.00000000
_cell_angle_gamma   60.00000000
_symmetry_Int_Tables_number   1
_chemical_formula_structural   Mn2SiRu
_chemical_formula_sum   'Mn2 Si1 Ru1'
_cell_volume   48.90012213
_cell_formula_units_Z   1
loop_
 _symmetry_equiv_pos_site_id
 _symmetry_equiv_pos_as_xyz
  1  'x, y, z'
loop_
 _atom_site_type_symbol
 _atom_site_label
 _atom_site_symmetry_multiplicity
 _atom_site_fract_x
 _atom_site_fract_y
 _atom_site_fract_z
 _atom_site_occupancy
  Mn  Mn0  1  0.00000000  0.00000000  -0.00000000  1
  Mn  Mn1  1  0.75000000  0.75000000  0.75000000  1
  Si  Si0  1  0.25000000  0.25000000  0.25000000  1
  Ru  Ru0  1  0.50000000  0.50000000  0.50000000  1
loop_
_geom_bond_atom_site_label_1
_geom_bond_atom_site_label_2
_geom_bond_distance
_geom_bond_site_symmetry_2
Mn0 Si0 2.513568 1_545
Mn0 Si0 2.513568 1_554
Mn0 Mn1 2.513568 1_454
Mn0 Mn1 2.513568 1_444
Mn0 Si0 2.513568 1_455
Mn0 Mn1 2.513568 1_544
Mn0 Mn1 2.513568 1_445
Mn0 Si0 2.513568 1_555
Mn0 Ru0 2.902418 1_545
Mn0 Ru0 2.902418 1_554
Mn0 Ru0 2.902418 1_455
Mn0 Ru0 2.902418 1_454
Mn0 Ru0 2.902418 1_445
Mn0 Ru0 2.902418 1_544
Mn1 Ru0 2.513568 1_556
Mn1 Ru0 2.513568 1_565
Mn1 Ru0 2.513568 1_555
Mn1 Ru0 2.513568 1_655
Ru0 Si0 2.513568 1_655
Ru0 Si0 2.513568 1_556
Ru0 Si0 2.513568 1_565
Ru0 Si0 2.513568 1_555
