# generated using pymatgen
data_Tl(IO3)3
_symmetry_space_group_name_H-M   'P 1'
_cell_length_a   7.45597567
_cell_length_b   7.45597578
_cell_length_c   7.45597532
_cell_angle_alpha   82.89951636
_cell_angle_beta   82.89951243
_cell_angle_gamma   82.89950555
_symmetry_Int_Tables_number   1
_chemical_formula_structural   Tl(IO3)3
_chemical_formula_sum   'Tl2 I6 O18'
_cell_volume   405.67887047
_cell_formula_units_Z   2
loop_
 _symmetry_equiv_pos_site_id
 _symmetry_equiv_pos_as_xyz
  1  'x, y, z'
loop_
 _atom_site_type_symbol
 _atom_site_label
 _atom_site_symmetry_multiplicity
 _atom_site_fract_x
 _atom_site_fract_y
 _atom_site_fract_z
 _atom_site_occupancy
  Tl  Tl0  1  0.17725427  0.17725427  0.17725427  1
  Tl  Tl1  1  0.82274573  0.82274573  0.82274573  1
  I  I0  1  0.71348267  0.12692045  0.41485372  1
  I  I1  1  0.41485372  0.71348267  0.12692045  1
  I  I2  1  0.12692045  0.41485372  0.71348267  1
  I  I3  1  0.28651733  0.87307955  0.58514628  1
  I  I4  1  0.58514628  0.28651733  0.87307955  1
  I  I5  1  0.87307955  0.58514628  0.28651733  1
  O  O0  1  0.78345671  0.26015136  0.57662625  1
  O  O1  1  0.57662625  0.78345671  0.26015136  1
  O  O2  1  0.26015136  0.57662625  0.78345671  1
  O  O3  1  0.21654329  0.73984864  0.42337375  1
  O  O4  1  0.42337375  0.21654329  0.73984864  1
  O  O5  1  0.73984864  0.42337375  0.21654329  1
  O  O6  1  0.68680449  0.91666261  0.56751461  1
  O  O7  1  0.56751461  0.68680449  0.91666261  1
  O  O8  1  0.91666261  0.56751461  0.68680449  1
  O  O9  1  0.31319551  0.08333739  0.43248539  1
  O  O10  1  0.43248539  0.31319551  0.08333739  1
  O  O11  1  0.08333739  0.43248539  0.31319551  1
  O  O12  1  0.93105614  0.04345657  0.29961191  1
  O  O13  1  0.29961191  0.93105614  0.04345657  1
  O  O14  1  0.04345657  0.29961191  0.93105614  1
  O  O15  1  0.06894386  0.95654343  0.70038809  1
  O  O16  1  0.70038809  0.06894386  0.95654343  1
  O  O17  1  0.95654343  0.70038809  0.06894386  1
loop_
_geom_bond_atom_site_label_1
_geom_bond_atom_site_label_2
_geom_bond_distance
_geom_bond_site_symmetry_2
I0 O0 1.814865 1_555
I0 O12 1.815265 1_555
I0 O6 1.836502 1_545
I0 O5 2.517565 1_555
I1 O1 1.814865 1_555
I1 O13 1.815265 1_555
I1 O7 1.836502 1_554
I1 O3 2.517565 1_555
I2 O2 1.814865 1_555
I2 O14 1.815265 1_555
I2 O8 1.836502 1_455
I2 O4 2.517565 1_555
I3 O3 1.814865 1_555
I3 O15 1.815265 1_555
I3 O9 1.836502 1_565
I3 O2 2.517565 1_555
I4 O4 1.814865 1_555
I4 O16 1.815265 1_555
I4 O10 1.836502 1_556
I4 O0 2.517565 1_555
I5 O5 1.814865 1_555
I5 O17 1.815265 1_555
I5 O11 1.836502 1_655
I5 O1 2.517565 1_555
O6 Tl1 2.260756 1_555
O7 Tl1 2.260756 1_555
O8 Tl1 2.260756 1_555
O9 Tl0 2.260756 1_555
O10 Tl0 2.260756 1_555
O11 Tl0 2.260756 1_555
O12 Tl0 2.238479 1_655
O13 Tl0 2.238479 1_565
O14 Tl0 2.238479 1_556
O15 Tl1 2.238479 1_455
O16 Tl1 2.238479 1_545
O17 Tl1 2.238479 1_554
