# generated using pymatgen
data_K3Gd(PO4)2
_symmetry_space_group_name_H-M   'P 1'
_cell_length_a   5.62526637
_cell_length_b   7.38146352
_cell_length_c   9.43329475
_cell_angle_alpha   89.17334678
_cell_angle_beta   90.00000000
_cell_angle_gamma   90.00000000
_symmetry_Int_Tables_number   1
_chemical_formula_structural   K3Gd(PO4)2
_chemical_formula_sum   'K6 Gd2 P4 O16'
_cell_volume   391.65508623
_cell_formula_units_Z   2
loop_
 _symmetry_equiv_pos_site_id
 _symmetry_equiv_pos_as_xyz
  1  'x, y, z'
loop_
 _atom_site_type_symbol
 _atom_site_label
 _atom_site_symmetry_multiplicity
 _atom_site_fract_x
 _atom_site_fract_y
 _atom_site_fract_z
 _atom_site_occupancy
  K  K0  1  0.75000000  0.63509674  0.59109029  1
  K  K1  1  0.25000000  0.36490326  0.40890971  1
  K  K2  1  0.75000000  0.49338043  0.19089082  1
  K  K3  1  0.25000000  0.50661957  0.80910918  1
  K  K4  1  0.25000000  0.79866281  0.08229128  1
  K  K5  1  0.75000000  0.20133719  0.91770872  1
  Gd  Gd0  1  0.75000000  0.99276119  0.29006388  1
  Gd  Gd1  1  0.25000000  0.00723881  0.70993612  1
  P  P0  1  0.75000000  0.76820280  0.91179203  1
  P  P1  1  0.25000000  0.23179720  0.08820797  1
  P  P2  1  0.75000000  0.18997609  0.57305950  1
  P  P3  1  0.25000000  0.81002391  0.42694050  1
  O  O0  1  0.75000000  0.82527748  0.06861232  1
  O  O1  1  0.25000000  0.17472252  0.93138768  1
  O  O2  1  0.75000000  0.56295893  0.89826210  1
  O  O3  1  0.25000000  0.43704107  0.10173790  1
  O  O4  1  0.02680748  0.15244485  0.16219783  1
  O  O5  1  0.52680748  0.84755515  0.83780217  1
  O  O6  1  0.97319252  0.84755515  0.83780217  1
  O  O7  1  0.47319252  0.15244485  0.16219783  1
  O  O8  1  0.75000000  0.28333693  0.42532750  1
  O  O9  1  0.25000000  0.71666307  0.57467250  1
  O  O10  1  0.52647704  0.24467743  0.65716181  1
  O  O11  1  0.02647704  0.75532257  0.34283819  1
  O  O12  1  0.47352296  0.75532257  0.34283819  1
  O  O13  1  0.97352296  0.24467743  0.65716181  1
  O  O14  1  0.75000000  0.98526505  0.54645639  1
  O  O15  1  0.25000000  0.01473495  0.45354361  1
loop_
_geom_bond_atom_site_label_1
_geom_bond_atom_site_label_2
_geom_bond_distance
_geom_bond_site_symmetry_2
K0 O14 2.612821 1_555
K0 O9 2.880052 1_655
K0 O9 2.880052 1_555
K0 O11 2.937789 1_655
K0 O12 2.937789 1_555
K0 O2 2.938596 1_555
K0 O8 3.050262 1_555
K0 O6 3.091506 1_555
K0 O5 3.091506 1_555
K0 O10 3.197309 1_555
K0 O13 3.197309 1_555
K1 O15 2.612821 1_555
K1 O8 2.880052 1_455
K1 O8 2.880052 1_555
K1 O13 2.937789 1_455
K1 O10 2.937789 1_555
K1 O3 2.938596 1_555
K1 O9 3.050262 1_555
K1 O4 3.091506 1_555
K1 O7 3.091506 1_555
K1 O12 3.197309 1_555
K1 O11 3.197309 1_555
K2 O8 2.682475 1_555
K2 O0 2.692757 1_555
K2 O2 2.800530 1_554
K2 O12 2.879551 1_555
K2 O11 2.879551 1_655
K2 O3 2.966687 1_555
K2 O3 2.966687 1_655
K2 O7 2.975033 1_555
K2 O4 2.975033 1_655
K3 O9 2.682475 1_555
K3 O1 2.692757 1_555
K3 O3 2.800530 1_556
K3 O13 2.879551 1_455
K3 O10 2.879551 1_555
K3 O2 2.966687 1_455
K3 O2 2.966687 1_555
K3 O6 2.975033 1_455
K3 O5 2.975033 1_555
K4 O3 2.672952 1_555
K4 O12 2.775160 1_555
K4 O11 2.775160 1_555
K4 O5 2.801791 1_554
K4 O6 2.801791 1_454
K4 O0 2.822307 1_455
K4 O0 2.822307 1_555
K4 O7 3.003477 1_565
K4 O4 3.003477 1_565
K4 O1 3.101265 1_564
K5 O2 2.672952 1_555
K5 O10 2.775160 1_555
K5 O13 2.775160 1_555
K5 O7 2.801791 1_556
K5 O4 2.801791 1_656
K5 O1 2.822307 1_655
K5 O1 2.822307 1_555
K5 O5 3.003477 1_545
K5 O6 3.003477 1_545
K5 O0 3.101265 1_546
Gd0 O7 2.286445 1_565
Gd0 O4 2.286445 1_665
Gd0 O12 2.390241 1_555
Gd0 O11 2.390241 1_655
Gd0 O14 2.418461 1_555
Gd0 O0 2.442722 1_555
Gd0 O8 2.511490 1_565
Gd1 O5 2.286445 1_545
Gd1 O6 2.286445 1_445
Gd1 O13 2.390241 1_455
Gd1 O10 2.390241 1_555
Gd1 O15 2.418461 1_555
Gd1 O1 2.442722 1_555
Gd1 O9 2.511490 1_545
O0 P0 1.543987 1_554
O1 P1 1.543987 1_556
O2 P0 1.522201 1_555
O3 P1 1.522201 1_555
O4 P1 1.547506 1_555
O5 P0 1.547506 1_555
O6 P0 1.547506 1_555
O7 P1 1.547506 1_555
O8 P2 1.545743 1_555
O9 P3 1.545743 1_555
O10 P2 1.543598 1_555
O11 P3 1.543598 1_555
O12 P3 1.543598 1_555
O13 P2 1.543598 1_555
O14 P2 1.535332 1_565
O15 P3 1.535332 1_545
