# generated using pymatgen
data_MgHg5
_symmetry_space_group_name_H-M   'P 1'
_cell_length_a   5.38631110
_cell_length_b   5.38631323
_cell_length_c   6.50080564
_cell_angle_alpha   114.47398988
_cell_angle_beta   65.52600361
_cell_angle_gamma   119.99998750
_symmetry_Int_Tables_number   1
_chemical_formula_structural   MgHg5
_chemical_formula_sum   'Mg1 Hg5'
_cell_volume   143.43458370
_cell_formula_units_Z   1
loop_
 _symmetry_equiv_pos_site_id
 _symmetry_equiv_pos_as_xyz
  1  'x, y, z'
loop_
 _atom_site_type_symbol
 _atom_site_label
 _atom_site_symmetry_multiplicity
 _atom_site_fract_x
 _atom_site_fract_y
 _atom_site_fract_z
 _atom_site_occupancy
  Mg  Mg0  1  0.83333300  0.50000000  0.50000100  1
  Hg  Hg0  1  0.99617083  1.00000000  0.99999900  1
  Hg  Hg1  1  0.67049417  0.33715917  0.99999900  1
  Hg  Hg2  1  0.33333500  0.66283983  0.00000000  1
  Hg  Hg3  1  0.17024179  0.16309321  0.48927962  1
  Hg  Hg4  1  0.49642521  0.83690479  0.51072138  1
loop_
_geom_bond_atom_site_label_1
_geom_bond_atom_site_label_2
_geom_bond_distance
_geom_bond_site_symmetry_2
Hg0 Hg2 3.092072 1_556
Hg0 Hg1 3.092074 1_565
Hg0 Hg2 3.092092 1_666
Hg0 Hg1 3.092098 1_555
Hg0 Hg1 3.145505 1_665
Hg0 Hg2 3.145512 1_656
Hg0 Hg4 3.331640 1_655
Hg0 Hg3 3.331659 1_666
Hg0 Mg0 3.366653 1_555
Hg0 Mg0 3.366670 1_566
Hg0 Hg3 3.418695 1_665
Hg0 Hg4 3.418718 1_556
Hg1 Hg2 3.092089 1_556
Hg1 Hg2 3.092098 1_656
Hg1 Hg2 3.145489 1_546
Hg1 Hg4 3.331636 1_545
Hg1 Hg3 3.331643 1_556
Hg1 Mg0 3.366657 1_555
Hg1 Mg0 3.366673 1_556
Hg1 Hg3 3.418704 1_655
Hg1 Hg4 3.418714 1_556
Hg2 Hg4 3.331633 1_554
Hg2 Hg3 3.331642 1_565
Hg2 Mg0 3.366656 1_554
Hg2 Mg0 3.366673 1_455
Hg2 Hg4 3.418707 1_555
Hg2 Hg3 3.418707 1_554
Hg3 Mg0 3.110383 1_555
Hg3 Mg0 3.110394 1_445
Hg3 Mg0 3.110397 1_455
Hg3 Hg4 3.112187 1_555
Hg3 Hg4 3.112195 1_545
Hg3 Hg4 3.112209 1_445
Hg4 Mg0 3.110386 1_555
Hg4 Mg0 3.110386 1_455
Hg4 Mg0 3.110401 1_565
