# generated using pymatgen
data_YbPm3
_symmetry_space_group_name_H-M   'P 1'
_cell_length_a   7.37078703
_cell_length_b   7.37078703
_cell_length_c   5.74120723
_cell_angle_alpha   90.00000000
_cell_angle_beta   90.00000000
_cell_angle_gamma   120.00000014
_symmetry_Int_Tables_number   1
_chemical_formula_structural   YbPm3
_chemical_formula_sum   'Yb2 Pm6'
_cell_volume   270.12301002
_cell_formula_units_Z   2
loop_
 _symmetry_equiv_pos_site_id
 _symmetry_equiv_pos_as_xyz
  1  'x, y, z'
loop_
 _atom_site_type_symbol
 _atom_site_label
 _atom_site_symmetry_multiplicity
 _atom_site_fract_x
 _atom_site_fract_y
 _atom_site_fract_z
 _atom_site_occupancy
  Yb  Yb0  1  0.33333300  0.66666700  0.75000000  1
  Yb  Yb1  1  0.66666700  0.33333300  0.25000000  1
  Pm  Pm0  1  0.16856721  0.33713542  0.25000000  1
  Pm  Pm1  1  0.66286458  0.83143279  0.25000000  1
  Pm  Pm2  1  0.16856721  0.83143279  0.25000000  1
  Pm  Pm3  1  0.83143279  0.66286458  0.75000000  1
  Pm  Pm4  1  0.33713542  0.16856721  0.75000000  1
  Pm  Pm5  1  0.83143279  0.16856721  0.75000000  1
loop_
_geom_bond_atom_site_label_1
_geom_bond_atom_site_label_2
_geom_bond_distance
_geom_bond_site_symmetry_2
Pm0 Yb0 3.558800 1_554
Pm0 Yb0 3.558800 1_555
Pm0 Pm5 3.587699 1_455
Pm0 Pm5 3.587699 1_454
Pm0 Pm4 3.587706 1_555
Pm0 Pm4 3.587706 1_554
Pm0 Pm1 3.643361 1_555
Pm0 Pm2 3.643361 1_555
Pm0 Yb1 3.685466 1_455
Pm0 Yb1 3.685481 1_555
Pm0 Pm1 3.727426 1_445
Pm0 Pm2 3.727426 1_545
Pm1 Yb0 3.558800 1_555
Pm1 Yb0 3.558800 1_554
Pm1 Pm5 3.587699 1_565
Pm1 Pm5 3.587699 1_564
Pm1 Pm3 3.587706 1_554
Pm1 Pm3 3.587706 1_555
Pm1 Pm2 3.643361 1_555
Pm1 Yb1 3.685466 1_565
Pm1 Yb1 3.685481 1_555
Pm1 Pm2 3.727426 1_655
Pm2 Yb0 3.558800 1_555
Pm2 Yb0 3.558800 1_554
Pm2 Pm3 3.587699 1_455
Pm2 Pm3 3.587699 1_454
Pm2 Pm4 3.587699 1_564
Pm2 Pm4 3.587699 1_565
Pm2 Yb1 3.685473 1_455
Pm2 Yb1 3.685473 1_565
Pm3 Yb1 3.558800 1_556
Pm3 Yb1 3.558800 1_555
Pm3 Pm4 3.643361 1_555
Pm3 Pm5 3.643361 1_555
Pm3 Yb0 3.685466 1_655
Pm3 Yb0 3.685481 1_555
Pm3 Pm4 3.727426 1_665
Pm3 Pm5 3.727426 1_565
Pm4 Yb1 3.558800 1_556
Pm4 Yb1 3.558800 1_555
Pm4 Pm5 3.643361 1_555
Pm4 Yb0 3.685466 1_545
Pm4 Yb0 3.685481 1_555
Pm4 Pm5 3.727426 1_455
Pm5 Yb1 3.558800 1_556
Pm5 Yb1 3.558800 1_555
Pm5 Yb0 3.685473 1_545
Pm5 Yb0 3.685473 1_655
