# generated using pymatgen
data_K3Co
_symmetry_space_group_name_H-M   'P 1'
_cell_length_a   8.10597005
_cell_length_b   8.10597005
_cell_length_c   6.30001200
_cell_angle_alpha   90.00000000
_cell_angle_beta   90.00000000
_cell_angle_gamma   120.00000041
_symmetry_Int_Tables_number   1
_chemical_formula_structural   K3Co
_chemical_formula_sum   'K6 Co2'
_cell_volume   358.49408644
_cell_formula_units_Z   2
loop_
 _symmetry_equiv_pos_site_id
 _symmetry_equiv_pos_as_xyz
  1  'x, y, z'
loop_
 _atom_site_type_symbol
 _atom_site_label
 _atom_site_symmetry_multiplicity
 _atom_site_fract_x
 _atom_site_fract_y
 _atom_site_fract_z
 _atom_site_occupancy
  K  K0  1  0.17874000  0.35748000  0.25000000  1
  K  K1  1  0.64252000  0.82126000  0.25000000  1
  K  K2  1  0.17874000  0.82126000  0.25000000  1
  K  K3  1  0.82126000  0.64252000  0.75000000  1
  K  K4  1  0.35748000  0.17874000  0.75000000  1
  K  K5  1  0.82126000  0.17874000  0.75000000  1
  Co  Co0  1  0.33333300  0.66666700  0.75000000  1
  Co  Co1  1  0.66666700  0.33333300  0.25000000  1
loop_
_geom_bond_atom_site_label_1
_geom_bond_atom_site_label_2
_geom_bond_distance
_geom_bond_site_symmetry_2
K0 K1 3.759387 1_555
K0 K2 3.759387 1_555
K0 K5 4.027423 1_454
K0 K5 4.027423 1_455
K0 K4 4.027423 1_554
K0 K4 4.027423 1_555
K0 K1 4.346583 1_445
K0 K2 4.346583 1_545
K1 K2 3.759387 1_555
K1 K5 4.027423 1_564
K1 K5 4.027423 1_565
K1 K3 4.027423 1_555
K1 K3 4.027423 1_554
K1 K2 4.346583 1_655
K2 K4 4.027423 1_565
K2 K4 4.027423 1_564
K2 K3 4.027423 1_455
K2 K3 4.027423 1_454
K3 K4 3.759387 1_555
K3 K5 3.759387 1_555
K3 K4 4.346583 1_665
K3 K5 4.346583 1_565
K4 K5 3.759387 1_555
K4 K5 4.346583 1_455
Co0 K2 3.825378 1_556
Co0 K2 3.825378 1_555
Co0 K0 3.825382 1_555
Co0 K1 3.825382 1_555
Co0 K0 3.825382 1_556
Co0 K1 3.825382 1_556
Co0 K3 4.056524 1_455
Co0 K4 4.056524 1_565
Co0 K5 4.056528 1_565
Co0 K5 4.056528 1_455
Co0 K4 4.056532 1_555
Co0 K3 4.056532 1_555
Co1 K5 3.825378 1_555
Co1 K5 3.825378 1_554
Co1 K4 3.825382 1_555
Co1 K4 3.825382 1_554
Co1 K3 3.825382 1_554
Co1 K3 3.825382 1_555
Co1 K0 4.056524 1_655
Co1 K1 4.056524 1_545
Co1 K2 4.056528 1_545
Co1 K2 4.056528 1_655
Co1 K0 4.056532 1_555
Co1 K1 4.056532 1_555
