# generated using pymatgen
data_K3Ir
_symmetry_space_group_name_H-M   'P 1'
_cell_length_a   7.60246627
_cell_length_b   7.60246627
_cell_length_c   5.54153800
_cell_angle_alpha   90.00000000
_cell_angle_beta   90.00000000
_cell_angle_gamma   120.00000236
_symmetry_Int_Tables_number   1
_chemical_formula_structural   K3Ir
_chemical_formula_sum   'K6 Ir2'
_cell_volume   277.37667708
_cell_formula_units_Z   2
loop_
 _symmetry_equiv_pos_site_id
 _symmetry_equiv_pos_as_xyz
  1  'x, y, z'
loop_
 _atom_site_type_symbol
 _atom_site_label
 _atom_site_symmetry_multiplicity
 _atom_site_fract_x
 _atom_site_fract_y
 _atom_site_fract_z
 _atom_site_occupancy
  K  K0  1  0.18691700  0.37383500  0.25000000  1
  K  K1  1  0.62616500  0.81308300  0.25000000  1
  K  K2  1  0.18691700  0.81308300  0.25000000  1
  K  K3  1  0.81308300  0.62616500  0.75000000  1
  K  K4  1  0.37383500  0.18691700  0.75000000  1
  K  K5  1  0.81308300  0.18691700  0.75000000  1
  Ir  Ir0  1  0.33333300  0.66666700  0.75000000  1
  Ir  Ir1  1  0.66666700  0.33333300  0.25000000  1
loop_
_geom_bond_atom_site_label_1
_geom_bond_atom_site_label_2
_geom_bond_distance
_geom_bond_site_symmetry_2
K0 K1 3.339368 1_555
K0 K2 3.339368 1_555
K0 K5 3.706095 1_454
K0 K5 3.706095 1_455
K0 K4 3.706104 1_555
K0 K4 3.706104 1_554
K0 K1 4.263098 1_445
K0 K2 4.263098 1_545
K1 K2 3.339368 1_555
K1 K5 3.706095 1_565
K1 K5 3.706095 1_564
K1 K3 3.706104 1_555
K1 K3 3.706104 1_554
K1 K2 4.263098 1_655
K2 K3 3.706095 1_455
K2 K3 3.706095 1_454
K2 K4 3.706095 1_565
K2 K4 3.706095 1_564
K3 K4 3.339368 1_555
K3 K5 3.339368 1_555
K3 K4 4.263098 1_665
K3 K5 4.263098 1_565
K4 K5 3.339368 1_555
K4 K5 4.263098 1_455
Ir0 K0 3.375542 1_555
Ir0 K0 3.375542 1_556
Ir0 K1 3.375542 1_555
Ir0 K1 3.375542 1_556
Ir0 K2 3.375543 1_555
Ir0 K2 3.375543 1_556
Ir0 K3 3.810567 1_455
Ir0 K4 3.810567 1_565
Ir0 K5 3.810574 1_455
Ir0 K5 3.810574 1_565
Ir0 K4 3.810583 1_555
Ir0 K3 3.810583 1_555
Ir1 K3 3.375542 1_555
Ir1 K4 3.375542 1_555
Ir1 K3 3.375542 1_554
Ir1 K4 3.375542 1_554
Ir1 K5 3.375543 1_555
Ir1 K5 3.375543 1_554
Ir1 K0 3.810567 1_655
Ir1 K1 3.810567 1_545
Ir1 K2 3.810574 1_545
Ir1 K2 3.810574 1_655
Ir1 K0 3.810583 1_555
Ir1 K1 3.810583 1_555
