# generated using pymatgen
data_Mg3Hg
_symmetry_space_group_name_H-M   'P 1'
_cell_length_a   4.35484442
_cell_length_b   4.35484442
_cell_length_c   4.35484442
_cell_angle_alpha   90.00000000
_cell_angle_beta   90.00000000
_cell_angle_gamma   90.00000000
_symmetry_Int_Tables_number   1
_chemical_formula_structural   Mg3Hg
_chemical_formula_sum   'Mg3 Hg1'
_cell_volume   82.58818699
_cell_formula_units_Z   1
loop_
 _symmetry_equiv_pos_site_id
 _symmetry_equiv_pos_as_xyz
  1  'x, y, z'
loop_
 _atom_site_type_symbol
 _atom_site_label
 _atom_site_symmetry_multiplicity
 _atom_site_fract_x
 _atom_site_fract_y
 _atom_site_fract_z
 _atom_site_occupancy
  Mg  Mg0  1  0.49999900  0.49999900  0.00000000  1
  Mg  Mg1  1  0.49999900  0.00000000  0.49999900  1
  Mg  Mg2  1  0.00000000  0.49999900  0.49999900  1
  Hg  Hg0  1  0.00000000  0.00000000  0.00000000  1
loop_
_geom_bond_atom_site_label_1
_geom_bond_atom_site_label_2
_geom_bond_distance
_geom_bond_site_symmetry_2
Mg0 Mg2 3.079334 1_555
Mg0 Mg1 3.079334 1_555
Mg0 Mg1 3.079340 1_565
Mg0 Mg1 3.079340 1_554
Mg0 Mg2 3.079340 1_655
Mg0 Mg2 3.079340 1_554
Mg0 Mg2 3.079346 1_654
Mg0 Mg1 3.079346 1_564
Mg1 Mg2 3.079334 1_555
Mg1 Mg2 3.079340 1_545
Mg1 Mg2 3.079340 1_655
Mg1 Mg2 3.079346 1_645
Hg0 Mg2 3.079334 1_555
Hg0 Mg0 3.079334 1_555
Hg0 Mg1 3.079334 1_555
Hg0 Mg2 3.079340 1_554
Hg0 Mg0 3.079340 1_545
Hg0 Mg1 3.079340 1_455
Hg0 Mg0 3.079340 1_455
Hg0 Mg1 3.079340 1_554
Hg0 Mg2 3.079340 1_545
Hg0 Mg1 3.079346 1_454
Hg0 Mg0 3.079346 1_445
Hg0 Mg2 3.079346 1_544
