# generated using pymatgen
data_Lu2Ni12P7
_symmetry_space_group_name_H-M   'P 1'
_cell_length_a   8.93524332
_cell_length_b   8.93517015
_cell_length_c   3.63003947
_cell_angle_alpha   90.00001437
_cell_angle_beta   90.00000259
_cell_angle_gamma   119.99659741
_symmetry_Int_Tables_number   1
_chemical_formula_structural   Lu2Ni12P7
_chemical_formula_sum   'Lu2 Ni12 P7'
_cell_volume   250.99558308
_cell_formula_units_Z   1
loop_
 _symmetry_equiv_pos_site_id
 _symmetry_equiv_pos_as_xyz
  1  'x, y, z'
loop_
 _atom_site_type_symbol
 _atom_site_label
 _atom_site_symmetry_multiplicity
 _atom_site_fract_x
 _atom_site_fract_y
 _atom_site_fract_z
 _atom_site_occupancy
  Lu  Lu0  1  0.33335745  0.66666967  0.00000034  1
  Lu  Lu1  1  0.66677480  0.33340270  0.50000070  1
  Ni  Ni0  1  0.15292063  0.27544178  -0.00000030  1
  Ni  Ni1  1  0.72456474  0.87751984  -0.00000030  1
  Ni  Ni2  1  0.12241601  0.84698170  0.00000021  1
  Ni  Ni3  1  0.38178825  0.43329125  0.49999953  1
  Ni  Ni4  1  0.56682400  0.94852792  0.50000003  1
  Ni  Ni5  1  0.05140798  0.61819899  0.49999999  1
  Ni  Ni6  1  0.43469386  0.06284324  0.00000106  1
  Ni  Ni7  1  0.93710827  0.37179857  -0.00000009  1
  Ni  Ni8  1  0.62825488  0.56538634  0.00000071  1
  Ni  Ni9  1  0.21576265  0.09374670  0.49999960  1
  Ni  Ni10  1  0.90618479  0.12202336  0.49999838  1
  Ni  Ni11  1  0.87791362  0.78413715  0.50000065  1
  P  P0  1  0.11263902  0.40678951  0.49999961  1
  P  P1  1  0.59322605  0.70587859  0.50000016  1
  P  P2  1  0.29413851  0.88733030  0.50000047  1
  P  P3  1  0.40932143  0.29543671  -0.00000027  1
  P  P4  1  0.70461961  0.11389978  -0.00000020  1
  P  P5  1  0.88609614  0.59069125  -0.00000008  1
  P  P6  1  -0.00001369  0.00000266  -0.00000023  1
loop_
_geom_bond_atom_site_label_1
_geom_bond_atom_site_label_2
_geom_bond_distance
_geom_bond_site_symmetry_2
Lu0 P1 2.827590 1_555
Lu0 P1 2.827591 1_554
Lu0 P2 2.827599 1_555
Lu0 P2 2.827599 1_554
Lu0 P0 2.827847 1_555
Lu0 P0 2.827850 1_554
Lu0 Ni3 2.955033 1_555
Lu0 Ni3 2.955036 1_554
Lu0 Ni4 2.955582 1_555
Lu0 Ni4 2.955585 1_554
Lu0 Ni5 2.955959 1_555
Lu0 Ni5 2.955961 1_554
Lu0 Ni1 3.030395 1_555
Lu0 Ni0 3.030485 1_555
Lu0 Ni2 3.030605 1_555
Lu0 Ni6 3.185231 1_565
Lu0 Ni8 3.185355 1_555
Lu0 Ni7 3.185906 1_455
Lu1 P5 2.813359 1_556
Lu1 P5 2.813363 1_555
Lu1 P4 2.813977 1_556
Lu1 P4 2.813980 1_555
Lu1 P3 2.814418 1_556
Lu1 P3 2.814422 1_555
Lu1 Ni7 2.901378 1_556
Lu1 Ni7 2.901382 1_555
Lu1 Ni8 2.902184 1_556
Lu1 Ni8 2.902184 1_555
Lu1 Ni6 2.902785 1_555
Lu1 Ni6 2.902787 1_556
Lu1 Ni5 3.089067 1_655
Lu1 Ni4 3.090769 1_545
Lu1 Ni3 3.090853 1_555
Ni0 P6 2.135784 1_555
Ni0 P3 2.207114 1_555
Ni0 P0 2.285516 1_555
Ni0 P0 2.285517 1_554
Ni1 P6 2.135657 1_665
Ni1 P4 2.206598 1_565
Ni1 P1 2.285595 1_554
Ni1 P1 2.285598 1_555
Ni2 P6 2.135809 1_565
Ni2 P5 2.206318 1_455
Ni2 P2 2.285930 1_554
Ni2 P2 2.285932 1_555
Ni3 P1 2.213700 1_555
Ni3 P3 2.274870 1_555
Ni3 P3 2.274872 1_556
Ni3 P0 2.295706 1_555
Ni4 P2 2.214366 1_555
Ni4 P4 2.274751 1_566
Ni4 P4 2.274754 1_565
Ni4 P1 2.295167 1_555
Ni5 P0 2.213811 1_555
Ni5 P5 2.274538 1_456
Ni5 P5 2.274538 1_455
Ni5 P2 2.296018 1_555
Ni6 P3 2.200382 1_555
Ni6 P4 2.219229 1_555
Ni6 P2 2.315512 1_545
Ni6 P2 2.315514 1_544
Ni7 P4 2.199772 1_555
Ni7 P5 2.219116 1_555
Ni7 P0 2.315521 1_655
Ni7 P0 2.315523 1_654
Ni8 P5 2.199568 1_555
Ni8 P3 2.219631 1_555
Ni8 P1 2.315372 1_555
Ni8 P1 2.315376 1_554
Ni9 P2 2.276753 1_545
Ni9 P6 2.469486 1_555
Ni9 P6 2.469488 1_556
Ni9 P3 2.533116 1_556
Ni9 P3 2.533116 1_555
Ni10 P0 2.276807 1_655
Ni10 P6 2.469649 1_655
Ni10 P6 2.469657 1_656
Ni10 P4 2.532302 1_555
Ni10 P4 2.532310 1_556
Ni11 P1 2.276200 1_555
Ni11 P6 2.469950 1_666
Ni11 P6 2.469955 1_665
Ni11 P5 2.532511 1_556
Ni11 P5 2.532514 1_555
