# generated using pymatgen
data_H6PbCI3N
_symmetry_space_group_name_H-M   'P 1'
_cell_length_a   9.13663100
_cell_length_b   9.15090729
_cell_length_c   13.00602348
_cell_angle_alpha   90.04749842
_cell_angle_beta   90.06731781
_cell_angle_gamma   90.13471012
_symmetry_Int_Tables_number   1
_chemical_formula_structural   H6PbCI3N
_chemical_formula_sum   'H24 Pb4 C4 I12 N4'
_cell_volume   1087.40950354
_cell_formula_units_Z   4
loop_
 _symmetry_equiv_pos_site_id
 _symmetry_equiv_pos_as_xyz
  1  'x, y, z'
loop_
 _atom_site_type_symbol
 _atom_site_label
 _atom_site_symmetry_multiplicity
 _atom_site_fract_x
 _atom_site_fract_y
 _atom_site_fract_z
 _atom_site_occupancy
  H  H0  1  0.42156800  0.92488900  0.70845200  1
  H  H1  1  0.61372700  0.96468300  0.71264600  1
  H  H2  1  0.39945000  0.02864000  0.88097800  1
  H  H3  1  0.57434100  0.07629000  0.88243200  1
  H  H4  1  0.53221200  0.90014200  0.88279200  1
  H  H5  1  0.92563500  0.42098200  0.70778400  1
  H  H6  1  0.11513700  0.47063900  0.71186100  1
  H  H7  1  0.89685500  0.51920500  0.87919800  1
  H  H8  1  0.07091700  0.57949500  0.88339000  1
  H  H9  1  0.03198600  0.40044100  0.88038500  1
  H  H10  1  0.89173600  0.49072500  0.20808000  1
  H  H11  1  0.06502900  0.40133100  0.21190500  1
  H  H12  1  0.93602400  0.58466900  0.38080600  1
  H  H13  1  0.10411200  0.51032300  0.38247400  1
  H  H14  1  0.95725500  0.40389800  0.38043900  1
  H  H15  1  0.42604400  0.92120100  0.20837800  1
  H  H16  1  0.61463300  0.97611800  0.21188800  1
  H  H17  1  0.39700000  0.01596000  0.38089900  1
  H  H18  1  0.57003400  0.07952100  0.38465200  1
  H  H19  1  0.53421900  0.90009900  0.38106600  1
  H  H20  1  0.05579700  0.59836100  0.20940000  1
  H  H21  1  0.97588500  0.61004600  0.70935400  1
  H  H22  1  0.48108600  0.11058300  0.71001100  1
  H  H23  1  0.47163200  0.11115400  0.21126600  1
  Pb  Pb0  1  0.99865900  0.00022700  0.00136400  1
  Pb  Pb1  1  0.49783300  0.49973300  0.50126700  1
  Pb  Pb2  1  0.00258000  0.99956100  0.50120800  1
  Pb  Pb3  1  0.50037200  0.49894000  0.00120500  1
  C  C0  1  0.50385600  0.00252500  0.23768700  1
  C  C1  1  0.00490400  0.50107700  0.73673700  1
  C  C2  1  0.00392200  0.49798600  0.23693200  1
  C  C3  1  0.50491600  0.00019200  0.73757500  1
  I  I0  1  0.00030500  0.00013900  0.25032500  1
  I  I1  1  0.50058200  0.50006500  0.75029000  1
  I  I2  1  0.00009800  0.00021400  0.75029700  1
  I  I3  1  0.49966000  0.50024000  0.25029300  1
  I  I4  1  0.22184900  0.72260500  0.00666700  1
  I  I5  1  0.72353900  0.22343200  0.50618900  1
  I  I6  1  0.27585100  0.22058700  0.00604900  1
  I  I7  1  0.77766900  0.72282800  0.50582300  1
  I  I8  1  0.77626700  0.27691300  0.00574000  1
  I  I9  1  0.27784800  0.77767300  0.50676500  1
  I  I10  1  0.72024300  0.77603400  0.00637200  1
  I  I11  1  0.22194200  0.27849500  0.50638900  1
  N  N0  1  0.50098000  0.99952600  0.35212700  1
  N  N1  1  0.00092600  0.50018300  0.85107900  1
  N  N2  1  0.00039800  0.49952600  0.35127600  1
  N  N3  1  0.50182300  0.00068200  0.85196500  1
loop_
_geom_bond_atom_site_label_1
_geom_bond_atom_site_label_2
_geom_bond_distance
_geom_bond_site_symmetry_2
H2 N3 1.041396 1_555
H3 N3 1.035128 1_555
H4 N3 1.042042 1_565
H7 N1 1.034248 1_655
H8 N1 1.053076 1_555
H8 I4 2.483994 1_556
H9 N1 1.029771 1_555
H12 N2 1.050088 1_655
H12 I7 2.519174 1_555
H13 N2 1.034859 1_555
H14 N2 1.031646 1_655
H17 N0 1.032770 1_545
H18 N0 1.053356 1_545
H18 I5 2.486490 1_555
H19 N0 1.031170 1_555
C0 H23 1.092984 1_555
C0 H16 1.094167 1_545
C0 H15 1.095885 1_545
C0 N0 1.488947 1_545
C1 H21 1.092284 1_455
C1 H6 1.094788 1_555
C1 H5 1.095422 1_455
C1 N1 1.487650 1_555
C2 H10 1.092974 1_455
C2 H20 1.093363 1_555
C2 H11 1.096468 1_555
C2 N2 1.487603 1_555
C3 H0 1.093001 1_545
C3 H22 1.094457 1_555
C3 H1 1.095982 1_545
C3 N3 1.488064 1_555
I0 Pb0 3.238011 1_455
I0 Pb2 3.263041 1_545
I1 Pb1 3.238866 1_555
I1 Pb3 3.263434 1_556
I2 Pb2 3.239764 1_545
I2 Pb0 3.265425 1_456
I3 Pb3 3.239671 1_555
I3 Pb1 3.264243 1_555
I4 Pb0 3.262137 1_465
I4 Pb3 3.270271 1_555
I5 Pb1 3.267115 1_555
I5 Pb2 3.275012 1_645
I6 Pb0 3.234107 1_455
I6 Pb3 3.267447 1_555
I7 Pb2 3.258104 1_655
I7 Pb1 3.268522 1_555
I8 Pb3 3.241851 1_555
I8 Pb0 3.250661 1_555
I9 Pb2 3.236854 1_555
I9 Pb1 3.246209 1_555
I10 Pb3 3.231895 1_555
I10 Pb0 3.264979 1_565
I11 Pb1 3.230135 1_555
I11 Pb2 3.242232 1_545
