# generated using pymatgen
data_Hf3Tl
_symmetry_space_group_name_H-M   'P 1'
_cell_length_a   5.61266088
_cell_length_b   5.61266088
_cell_length_c   5.61266088
_cell_angle_alpha   134.91717637
_cell_angle_beta   134.91717637
_cell_angle_gamma   65.65891595
_symmetry_Int_Tables_number   1
_chemical_formula_structural   Hf3Tl
_chemical_formula_sum   'Hf3 Tl1'
_cell_volume   87.33492441
_cell_formula_units_Z   1
loop_
 _symmetry_equiv_pos_site_id
 _symmetry_equiv_pos_as_xyz
  1  'x, y, z'
loop_
 _atom_site_type_symbol
 _atom_site_label
 _atom_site_symmetry_multiplicity
 _atom_site_fract_x
 _atom_site_fract_y
 _atom_site_fract_z
 _atom_site_occupancy
  Hf  Hf0  1  0.75000000  0.25000000  0.50000000  1
  Hf  Hf1  1  0.25000000  0.75000000  0.50000000  1
  Hf  Hf2  1  0.50000000  0.50000000  -0.00000000  1
  Tl  Tl0  1  -0.00000000  0.00000000  -0.00000000  1
loop_
_geom_bond_atom_site_label_1
_geom_bond_atom_site_label_2
_geom_bond_distance
_geom_bond_site_symmetry_2
Hf0 Hf1 3.042850 1_645
Hf0 Hf1 3.042850 1_656
Hf0 Hf1 3.042850 1_544
Hf0 Hf1 3.042850 1_555
Hf0 Tl0 3.192213 1_555
Hf0 Hf2 3.192213 1_656
Hf0 Tl0 3.192213 1_655
Hf0 Hf2 3.192213 1_545
Hf0 Tl0 3.192213 1_656
Hf0 Hf2 3.192213 1_556
Hf0 Tl0 3.192213 1_666
Hf0 Hf2 3.192213 1_555
Hf1 Tl0 3.192213 1_666
Hf1 Hf2 3.192213 1_455
Hf1 Hf2 3.192213 1_566
Hf1 Tl0 3.192213 1_565
Hf1 Hf2 3.192213 1_556
Hf1 Tl0 3.192213 1_566
Hf1 Hf2 3.192213 1_555
Hf1 Tl0 3.192213 1_555
Hf2 Tl0 3.042850 1_655
Hf2 Tl0 3.042850 1_565
Hf2 Tl0 3.042850 1_666
Hf2 Tl0 3.042850 1_554
