# generated using pymatgen
data_YbOs3
_symmetry_space_group_name_H-M   'P 1'
_cell_length_a   4.94022458
_cell_length_b   4.94022458
_cell_length_c   4.94022458
_cell_angle_alpha   132.45729808
_cell_angle_beta   132.45729808
_cell_angle_gamma   69.50772617
_symmetry_Int_Tables_number   1
_chemical_formula_structural   YbOs3
_chemical_formula_sum   'Yb1 Os3'
_cell_volume   64.38195922
_cell_formula_units_Z   1
loop_
 _symmetry_equiv_pos_site_id
 _symmetry_equiv_pos_as_xyz
  1  'x, y, z'
loop_
 _atom_site_type_symbol
 _atom_site_label
 _atom_site_symmetry_multiplicity
 _atom_site_fract_x
 _atom_site_fract_y
 _atom_site_fract_z
 _atom_site_occupancy
  Yb  Yb0  1  0.00000000  0.00000000  0.00000000  1
  Os  Os0  1  0.75000000  0.25000000  0.50000000  1
  Os  Os1  1  0.25000000  0.75000000  0.50000000  1
  Os  Os2  1  0.50000000  0.50000000  0.00000000  1
loop_
_geom_bond_atom_site_label_1
_geom_bond_atom_site_label_2
_geom_bond_distance
_geom_bond_site_symmetry_2
Os0 Yb0 2.843269 1_555
Os0 Yb0 2.843269 1_655
Os0 Yb0 2.843269 1_666
Os0 Yb0 2.843269 1_656
Os1 Yb0 2.843269 1_666
Os1 Yb0 2.843269 1_565
Os1 Yb0 2.843269 1_566
Os1 Yb0 2.843269 1_555
Os2 Yb0 2.816186 1_554
Os2 Yb0 2.816186 1_666
Os2 Yb0 2.816186 1_655
Os2 Yb0 2.816186 1_565
