# generated using pymatgen
data_TmMg2
_symmetry_space_group_name_H-M   'P 1'
_cell_length_a   6.55152610
_cell_length_b   10.33147822
_cell_length_c   10.33194278
_cell_angle_alpha   119.99849314
_cell_angle_beta   90.02924456
_cell_angle_gamma   89.99999994
_symmetry_Int_Tables_number   1
_chemical_formula_structural   TmMg2
_chemical_formula_sum   'Tm8 Mg16'
_cell_volume   605.65329300
_cell_formula_units_Z   8
loop_
 _symmetry_equiv_pos_site_id
 _symmetry_equiv_pos_as_xyz
  1  'x, y, z'
loop_
 _atom_site_type_symbol
 _atom_site_label
 _atom_site_symmetry_multiplicity
 _atom_site_fract_x
 _atom_site_fract_y
 _atom_site_fract_z
 _atom_site_occupancy
  Tm  Tm0_0  1  0.33333300  0.20833350  0.33333350  1
  Tm  Tm0_1  1  0.33333300  0.20833350  0.83333350  1
  Tm  Tm0_2  1  0.33333300  0.70833350  0.33333350  1
  Tm  Tm0_3  1  0.33333300  0.70833350  0.83333350  1
  Tm  Tm0_4  1  0.83333300  0.20833350  0.33333350  1
  Tm  Tm0_5  1  0.83333300  0.20833350  0.83333350  1
  Tm  Tm0_6  1  0.83333300  0.70833350  0.33333350  1
  Tm  Tm0_7  1  0.83333300  0.70833350  0.83333350  1
  Mg  Mg0_0  1  0.08081112  0.04176164  0.00019129  1
  Mg  Mg0_1  1  0.08081111  0.04176164  0.50019129  1
  Mg  Mg0_2  1  0.08081112  0.54176165  0.00019129  1
  Mg  Mg0_3  1  0.08081111  0.54176165  0.50019129  1
  Mg  Mg0_4  1  0.58081112  0.04176165  0.00019129  1
  Mg  Mg0_5  1  0.58081112  0.04176164  0.50019129  1
  Mg  Mg0_6  1  0.58081112  0.54176165  0.00019129  1
  Mg  Mg0_7  1  0.58081112  0.54176165  0.50019129  1
  Mg  Mg1_0  1  0.08585488  0.37490436  0.16647620  1
  Mg  Mg1_1  1  0.08585488  0.37490436  0.66647620  1
  Mg  Mg1_2  1  0.08585488  0.87490436  0.16647620  1
  Mg  Mg1_3  1  0.08585489  0.87490436  0.66647620  1
  Mg  Mg1_4  1  0.58585489  0.37490436  0.16647620  1
  Mg  Mg1_5  1  0.58585489  0.37490436  0.66647620  1
  Mg  Mg1_6  1  0.58585489  0.87490436  0.16647620  1
  Mg  Mg1_7  1  0.58585489  0.87490436  0.66647620  1
loop_
_geom_bond_atom_site_label_1
_geom_bond_atom_site_label_2
_geom_bond_distance
_geom_bond_site_symmetry_2
Tm0_0 Tm0_4 3.275763 1_555
Tm0_0 Tm0_4 3.275763 1_455
Tm0_1 Tm0_5 3.275763 1_455
Tm0_1 Tm0_5 3.275763 1_555
Tm0_2 Tm0_6 3.275763 1_455
Tm0_2 Tm0_6 3.275763 1_555
Tm0_3 Tm0_7 3.275763 1_455
Tm0_3 Tm0_7 3.275763 1_555
Mg0_0 Mg1_2 2.980950 1_545
Mg0_0 Mg1_0 2.980955 1_555
Mg0_0 Mg1_3 2.986238 1_544
Mg0_0 Mg0_4 3.275763 1_455
Mg0_0 Mg0_4 3.275763 1_555
Mg0_0 Tm0_4 3.394161 1_455
Mg0_0 Tm0_7 3.395032 1_444
Mg0_0 Tm0_5 3.395043 1_454
Mg0_0 Tm0_0 3.408381 1_555
Mg0_0 Tm0_3 3.411781 1_544
Mg0_0 Tm0_1 3.411792 1_554
Mg0_1 Mg1_3 2.980950 1_545
Mg0_1 Mg1_1 2.980955 1_555
Mg0_1 Mg1_2 2.986238 1_545
Mg0_1 Mg0_5 3.275763 1_455
Mg0_1 Mg0_5 3.275763 1_555
Mg0_1 Tm0_5 3.394161 1_455
Mg0_1 Tm0_6 3.395032 1_445
Mg0_1 Tm0_4 3.395043 1_455
Mg0_1 Tm0_1 3.408381 1_555
Mg0_1 Tm0_2 3.411781 1_545
Mg0_1 Tm0_0 3.411792 1_555
Mg0_2 Mg1_0 2.980950 1_555
Mg0_2 Mg1_2 2.980955 1_555
Mg0_2 Mg1_1 2.986238 1_554
Mg0_2 Mg0_6 3.275763 1_455
Mg0_2 Mg0_6 3.275763 1_555
Mg0_2 Tm0_6 3.394161 1_455
Mg0_2 Tm0_5 3.395032 1_454
Mg0_2 Tm0_7 3.395043 1_454
Mg0_2 Tm0_2 3.408381 1_555
Mg0_2 Tm0_1 3.411781 1_554
Mg0_2 Tm0_3 3.411792 1_554
Mg0_3 Mg1_1 2.980950 1_555
Mg0_3 Mg1_3 2.980955 1_555
Mg0_3 Mg1_0 2.986238 1_555
Mg0_3 Mg0_7 3.275763 1_455
Mg0_3 Mg0_7 3.275763 1_555
Mg0_3 Tm0_7 3.394161 1_455
Mg0_3 Tm0_4 3.395032 1_455
Mg0_3 Tm0_6 3.395043 1_455
Mg0_3 Tm0_3 3.408381 1_555
Mg0_3 Tm0_0 3.411781 1_555
Mg0_3 Tm0_2 3.411792 1_555
Mg0_4 Mg1_6 2.980950 1_545
Mg0_4 Mg1_4 2.980955 1_555
Mg0_4 Mg1_7 2.986238 1_544
Mg0_4 Tm0_0 3.394161 1_555
Mg0_4 Tm0_3 3.395032 1_544
Mg0_4 Tm0_1 3.395043 1_554
Mg0_4 Tm0_4 3.408381 1_555
Mg0_4 Tm0_7 3.411781 1_544
Mg0_4 Tm0_5 3.411792 1_554
Mg0_5 Mg1_7 2.980950 1_545
Mg0_5 Mg1_5 2.980955 1_555
Mg0_5 Mg1_6 2.986238 1_545
Mg0_5 Tm0_1 3.394161 1_555
Mg0_5 Tm0_2 3.395032 1_545
Mg0_5 Tm0_0 3.395043 1_555
Mg0_5 Tm0_5 3.408381 1_555
Mg0_5 Tm0_6 3.411781 1_545
Mg0_5 Tm0_4 3.411792 1_555
Mg0_6 Mg1_4 2.980950 1_555
Mg0_6 Mg1_6 2.980955 1_555
Mg0_6 Mg1_5 2.986238 1_554
Mg0_6 Tm0_2 3.394161 1_555
Mg0_6 Tm0_1 3.395032 1_554
Mg0_6 Tm0_3 3.395043 1_554
Mg0_6 Tm0_6 3.408381 1_555
Mg0_6 Tm0_5 3.411781 1_554
Mg0_6 Tm0_7 3.411792 1_554
Mg0_7 Mg1_5 2.980950 1_555
Mg0_7 Mg1_7 2.980955 1_555
Mg0_7 Mg1_4 2.986238 1_555
Mg0_7 Tm0_3 3.394161 1_555
Mg0_7 Tm0_0 3.395032 1_555
Mg0_7 Tm0_2 3.395043 1_555
Mg0_7 Tm0_7 3.408381 1_555
Mg0_7 Tm0_4 3.411781 1_555
Mg0_7 Tm0_6 3.411792 1_555
Mg1_0 Mg1_4 3.275763 1_455
Mg1_0 Mg1_4 3.275763 1_555
Mg1_0 Tm0_1 3.394165 1_554
Mg1_0 Tm0_0 3.395031 1_555
Mg1_0 Tm0_2 3.395040 1_555
Mg1_0 Tm0_5 3.408385 1_454
Mg1_0 Tm0_4 3.411780 1_455
Mg1_0 Tm0_6 3.411789 1_455
Mg1_1 Mg1_5 3.275763 1_455
Mg1_1 Mg1_5 3.275763 1_555
Mg1_1 Tm0_0 3.394165 1_555
Mg1_1 Tm0_1 3.395031 1_555
Mg1_1 Tm0_3 3.395040 1_555
Mg1_1 Tm0_4 3.408385 1_455
Mg1_1 Tm0_5 3.411780 1_455
Mg1_1 Tm0_7 3.411789 1_455
Mg1_2 Mg1_6 3.275763 1_455
Mg1_2 Mg1_6 3.275763 1_555
Mg1_2 Tm0_3 3.394165 1_554
Mg1_2 Tm0_2 3.395031 1_555
Mg1_2 Tm0_0 3.395040 1_565
Mg1_2 Tm0_7 3.408385 1_454
Mg1_2 Tm0_6 3.411780 1_455
Mg1_2 Tm0_4 3.411789 1_465
Mg1_3 Mg1_7 3.275763 1_455
Mg1_3 Mg1_7 3.275763 1_555
Mg1_3 Tm0_2 3.394165 1_555
Mg1_3 Tm0_3 3.395031 1_555
Mg1_3 Tm0_1 3.395040 1_565
Mg1_3 Tm0_6 3.408385 1_455
Mg1_3 Tm0_7 3.411780 1_455
Mg1_3 Tm0_5 3.411789 1_465
Mg1_4 Tm0_5 3.394165 1_554
Mg1_4 Tm0_4 3.395031 1_555
Mg1_4 Tm0_6 3.395040 1_555
Mg1_4 Tm0_1 3.408385 1_554
Mg1_4 Tm0_0 3.411780 1_555
Mg1_4 Tm0_2 3.411789 1_555
Mg1_5 Tm0_4 3.394165 1_555
Mg1_5 Tm0_5 3.395031 1_555
Mg1_5 Tm0_7 3.395040 1_555
Mg1_5 Tm0_0 3.408385 1_555
Mg1_5 Tm0_1 3.411780 1_555
Mg1_5 Tm0_3 3.411789 1_555
Mg1_6 Tm0_7 3.394165 1_554
Mg1_6 Tm0_6 3.395031 1_555
Mg1_6 Tm0_4 3.395040 1_565
Mg1_6 Tm0_3 3.408385 1_554
Mg1_6 Tm0_2 3.411780 1_555
Mg1_6 Tm0_0 3.411789 1_565
Mg1_7 Tm0_6 3.394165 1_555
Mg1_7 Tm0_7 3.395031 1_555
Mg1_7 Tm0_5 3.395040 1_565
Mg1_7 Tm0_2 3.408385 1_555
Mg1_7 Tm0_3 3.411780 1_555
Mg1_7 Tm0_1 3.411789 1_565
