# generated using pymatgen
data_PrHo3
_symmetry_space_group_name_H-M   'P 1'
_cell_length_a   5.05870485
_cell_length_b   5.06006809
_cell_length_c   5.05810320
_cell_angle_alpha   89.99862942
_cell_angle_beta   89.99144083
_cell_angle_gamma   89.99413650
_symmetry_Int_Tables_number   1
_chemical_formula_structural   PrHo3
_chemical_formula_sum   'Pr1 Ho3'
_cell_volume   129.47424317
_cell_formula_units_Z   1
loop_
 _symmetry_equiv_pos_site_id
 _symmetry_equiv_pos_as_xyz
  1  'x, y, z'
loop_
 _atom_site_type_symbol
 _atom_site_label
 _atom_site_symmetry_multiplicity
 _atom_site_fract_x
 _atom_site_fract_y
 _atom_site_fract_z
 _atom_site_occupancy
  Pr  Pr0  1  0.00000236  0.00000526  0.00000465  1
  Ho  Ho0  1  0.99999946  0.49999976  0.49999582  1
  Ho  Ho1  1  0.49999865  0.99999762  0.49999643  1
  Ho  Ho2  1  0.49999653  0.49999535  0.00000110  1
loop_
_geom_bond_atom_site_label_1
_geom_bond_atom_site_label_2
_geom_bond_distance
_geom_bond_site_symmetry_2
Ho0 Ho2 3.576535 1_655
Ho0 Ho2 3.576594 1_556
Ho0 Ho2 3.577091 1_555
Ho0 Ho2 3.577107 1_656
Ho0 Pr0 3.577259 1_665
Ho0 Pr0 3.577283 1_656
Ho0 Pr0 3.577305 1_655
Ho0 Ho1 3.577339 1_555
Ho0 Ho1 3.577348 1_645
Ho0 Pr0 3.577408 1_666
Ho0 Ho1 3.577699 1_655
Ho0 Ho1 3.577720 1_545
Ho1 Pr0 3.576548 1_665
Ho1 Pr0 3.576581 1_566
Ho1 Pr0 3.577056 1_565
Ho1 Pr0 3.577142 1_666
Ho1 Ho2 3.577246 1_565
Ho1 Ho2 3.577296 1_556
Ho1 Ho2 3.577348 1_555
Ho1 Ho2 3.577365 1_566
Ho2 Pr0 3.577329 1_655
Ho2 Pr0 3.577358 1_565
Ho2 Pr0 3.577653 1_555
Ho2 Pr0 3.577766 1_665
