# generated using pymatgen
data_YbCuSb
_symmetry_space_group_name_H-M   'P 1'
_cell_length_a   4.45408856
_cell_length_b   4.45408856
_cell_length_c   7.98404800
_cell_angle_alpha   90.00000000
_cell_angle_beta   90.00000000
_cell_angle_gamma   120.00000825
_symmetry_Int_Tables_number   1
_chemical_formula_structural   YbCuSb
_chemical_formula_sum   'Yb2 Cu2 Sb2'
_cell_volume   137.17388209
_cell_formula_units_Z   2
loop_
 _symmetry_equiv_pos_site_id
 _symmetry_equiv_pos_as_xyz
  1  'x, y, z'
loop_
 _atom_site_type_symbol
 _atom_site_label
 _atom_site_symmetry_multiplicity
 _atom_site_fract_x
 _atom_site_fract_y
 _atom_site_fract_z
 _atom_site_occupancy
  Yb  Yb0  1  0.00000000  0.00000000  0.50000000  1
  Yb  Yb1  1  0.00000000  0.00000000  0.00000000  1
  Cu  Cu0  1  0.66666700  0.33333300  0.25000000  1
  Cu  Cu1  1  0.33333300  0.66666700  0.75000000  1
  Sb  Sb0  1  0.33333300  0.66666700  0.25000000  1
  Sb  Sb1  1  0.66666700  0.33333300  0.75000000  1
loop_
_geom_bond_atom_site_label_1
_geom_bond_atom_site_label_2
_geom_bond_distance
_geom_bond_site_symmetry_2
Cu0 Sb0 2.571566 1_545
Cu0 Sb0 2.571566 1_655
Cu0 Sb0 2.571574 1_555
Cu0 Yb1 3.255306 1_655
Cu0 Yb0 3.255306 1_655
Cu0 Yb1 3.255309 1_555
Cu0 Yb0 3.255309 1_665
Cu0 Yb1 3.255309 1_665
Cu0 Yb0 3.255309 1_555
Cu1 Sb1 2.571566 1_455
Cu1 Sb1 2.571566 1_565
Cu1 Sb1 2.571574 1_555
Cu1 Yb1 3.255306 1_566
Cu1 Yb0 3.255306 1_565
Cu1 Yb1 3.255309 1_556
Cu1 Yb0 3.255309 1_665
Cu1 Yb0 3.255309 1_555
Cu1 Yb1 3.255309 1_666
Sb0 Yb1 3.255306 1_565
Sb0 Yb0 3.255306 1_565
Sb0 Yb1 3.255309 1_555
Sb0 Yb0 3.255309 1_665
Sb0 Yb1 3.255309 1_665
Sb0 Yb0 3.255309 1_555
Sb1 Yb1 3.255306 1_656
Sb1 Yb0 3.255306 1_655
Sb1 Yb1 3.255309 1_556
Sb1 Yb0 3.255309 1_665
Sb1 Yb0 3.255309 1_555
Sb1 Yb1 3.255309 1_666
