# generated using pymatgen
data_Lu3Al
_symmetry_space_group_name_H-M   'P 1'
_cell_length_a   6.60912331
_cell_length_b   6.60912225
_cell_length_c   5.23367467
_cell_angle_alpha   90.00000000
_cell_angle_beta   90.00000000
_cell_angle_gamma   120.00000025
_symmetry_Int_Tables_number   1
_chemical_formula_structural   Lu3Al
_chemical_formula_sum   'Lu6 Al2'
_cell_volume   197.98167468
_cell_formula_units_Z   2
loop_
 _symmetry_equiv_pos_site_id
 _symmetry_equiv_pos_as_xyz
  1  'x, y, z'
loop_
 _atom_site_type_symbol
 _atom_site_label
 _atom_site_symmetry_multiplicity
 _atom_site_fract_x
 _atom_site_fract_y
 _atom_site_fract_z
 _atom_site_occupancy
  Lu  Lu0  1  0.82761332  0.17238568  0.75000100  1
  Lu  Lu1  1  0.34477335  0.17238568  0.75000100  1
  Lu  Lu2  1  0.82761332  0.65522665  0.75000100  1
  Lu  Lu3  1  0.17238568  0.82761332  0.25000100  1
  Lu  Lu4  1  0.65522665  0.82761332  0.25000100  1
  Lu  Lu5  1  0.17238568  0.34477235  0.25000100  1
  Al  Al0  1  0.66666700  0.33333200  0.25000100  1
  Al  Al1  1  0.33333300  0.66666700  0.75000100  1
loop_
_geom_bond_atom_site_label_1
_geom_bond_atom_site_label_2
_geom_bond_distance
_geom_bond_site_symmetry_2
Lu0 Lu1 3.191149 1_555
Lu0 Lu2 3.191155 1_555
Lu0 Lu4 3.277499 1_545
Lu0 Lu4 3.277499 1_546
Lu0 Lu5 3.277499 1_655
Lu0 Lu5 3.277499 1_656
Lu0 Lu2 3.417967 1_545
Lu0 Lu1 3.417974 1_655
Lu1 Lu2 3.191152 1_555
Lu1 Lu3 3.277499 1_545
Lu1 Lu3 3.277499 1_546
Lu1 Lu5 3.277506 1_555
Lu1 Lu5 3.277506 1_556
Lu1 Lu2 3.417971 1_445
Lu2 Lu3 3.277499 1_655
Lu2 Lu3 3.277499 1_656
Lu2 Lu4 3.277502 1_555
Lu2 Lu4 3.277502 1_556
Lu3 Lu5 3.191155 1_555
Lu3 Lu4 3.191156 1_555
Lu3 Lu5 3.417967 1_565
Lu3 Lu4 3.417968 1_455
Lu4 Lu5 3.191155 1_555
Lu4 Lu5 3.417968 1_665
Al0 Lu0 3.200359 1_555
Al0 Lu0 3.200359 1_554
Al0 Lu1 3.200363 1_555
Al0 Lu1 3.200363 1_554
Al0 Lu2 3.200366 1_555
Al0 Lu2 3.200366 1_554
Al0 Lu4 3.305200 1_545
Al0 Lu5 3.305200 1_655
Al0 Lu3 3.305210 1_545
Al0 Lu3 3.305210 1_655
Al0 Lu4 3.305220 1_555
Al0 Lu5 3.305220 1_555
Al1 Lu3 3.200363 1_555
Al1 Lu3 3.200363 1_556
Al1 Lu4 3.200363 1_555
Al1 Lu4 3.200363 1_556
Al1 Lu5 3.200366 1_555
Al1 Lu5 3.200366 1_556
Al1 Lu1 3.305200 1_565
Al1 Lu0 3.305207 1_565
Al1 Lu2 3.305207 1_455
Al1 Lu0 3.305213 1_455
Al1 Lu2 3.305214 1_555
Al1 Lu1 3.305220 1_555
