# generated using pymatgen
data_UCd(PbO3)2
_symmetry_space_group_name_H-M   'P 1'
_cell_length_a   6.14552200
_cell_length_b   5.96095900
_cell_length_c   10.40022188
_cell_angle_alpha   55.62898677
_cell_angle_beta   90.00000000
_cell_angle_gamma   90.00000000
_symmetry_Int_Tables_number   1
_chemical_formula_structural   UCd(PbO3)2
_chemical_formula_sum   'U2 Cd2 Pb4 O12'
_cell_volume   314.47170106
_cell_formula_units_Z   2
loop_
 _symmetry_equiv_pos_site_id
 _symmetry_equiv_pos_as_xyz
  1  'x, y, z'
loop_
 _atom_site_type_symbol
 _atom_site_label
 _atom_site_symmetry_multiplicity
 _atom_site_fract_x
 _atom_site_fract_y
 _atom_site_fract_z
 _atom_site_occupancy
  U  U0  1  0.00000000  0.50000000  0.00000000  1
  U  U1  1  0.50000000  0.50000000  0.50000000  1
  Cd  Cd0  1  0.00000000  0.00000000  0.50000000  1
  Cd  Cd1  1  0.50000000  0.00000000  0.00000000  1
  Pb  Pb0  1  0.04134100  0.75730100  0.24690300  1
  Pb  Pb1  1  0.54134100  0.24269900  0.25309700  1
  Pb  Pb2  1  0.95865900  0.24269900  0.75309700  1
  Pb  Pb3  1  0.45865900  0.75730100  0.74690300  1
  O  O0  1  0.21464700  0.27599700  0.55127100  1
  O  O1  1  0.71464700  0.72400300  0.94872900  1
  O  O2  1  0.78535300  0.72400300  0.44872900  1
  O  O3  1  0.28535300  0.27599700  0.05127100  1
  O  O4  1  0.32220700  0.83627300  0.45666200  1
  O  O5  1  0.82220700  0.16372700  0.04333800  1
  O  O6  1  0.67779300  0.16372700  0.54333800  1
  O  O7  1  0.17779300  0.83627300  0.95666200  1
  O  O8  1  0.46995700  0.63604800  0.26257500  1
  O  O9  1  0.96995700  0.36395200  0.23742500  1
  O  O10  1  0.53004300  0.36395200  0.73742500  1
  O  O11  1  0.03004300  0.63604800  0.76257500  1
loop_
_geom_bond_atom_site_label_1
_geom_bond_atom_site_label_2
_geom_bond_distance
_geom_bond_site_symmetry_2
Cd0 O11 2.347103 1_545
Cd0 O9 2.347103 1_455
Cd0 O4 2.360777 1_545
Cd0 O6 2.360777 1_455
Cd0 O0 2.391995 1_555
Cd0 O2 2.391995 1_445
Cd1 O8 2.347103 1_545
Cd1 O10 2.347103 1_554
Cd1 O7 2.360777 1_544
Cd1 O5 2.360777 1_555
Cd1 O3 2.391995 1_555
Cd1 O1 2.391995 1_544
O0 U1 2.082937 1_555
O0 Pb2 2.539650 1_455
O1 U0 2.082937 1_656
O1 Pb3 2.539650 1_555
O2 U1 2.082937 1_555
O2 Pb0 2.539650 1_655
O3 U0 2.082937 1_555
O3 Pb1 2.539650 1_555
O4 U1 2.096409 1_555
O4 Pb1 2.524661 1_565
O5 U0 2.096409 1_655
O5 Pb0 2.524661 1_645
O6 U1 2.096409 1_555
O6 Pb3 2.524661 1_545
O7 U0 2.096409 1_556
O7 Pb2 2.524661 1_465
O8 U1 2.127918 1_555
O8 Pb1 2.441501 1_555
O8 Pb0 2.711879 1_555
O9 U0 2.127918 1_655
O9 Pb0 2.441501 1_655
O9 Pb1 2.711879 1_555
O10 U1 2.127918 1_555
O10 Pb3 2.441501 1_555
O10 Pb2 2.711879 1_555
O11 U0 2.127918 1_556
O11 Pb2 2.441501 1_455
O11 Pb3 2.711879 1_555
