# generated using pymatgen
data_HoLuZn2
_symmetry_space_group_name_H-M   'P 1'
_cell_length_a   4.98409447
_cell_length_b   4.98409447
_cell_length_c   4.98409447
_cell_angle_alpha   60.00000000
_cell_angle_beta   60.00000000
_cell_angle_gamma   60.00000000
_symmetry_Int_Tables_number   1
_chemical_formula_structural   HoLuZn2
_chemical_formula_sum   'Ho1 Lu1 Zn2'
_cell_volume   87.54751018
_cell_formula_units_Z   1
loop_
 _symmetry_equiv_pos_site_id
 _symmetry_equiv_pos_as_xyz
  1  'x, y, z'
loop_
 _atom_site_type_symbol
 _atom_site_label
 _atom_site_symmetry_multiplicity
 _atom_site_fract_x
 _atom_site_fract_y
 _atom_site_fract_z
 _atom_site_occupancy
  Ho  Ho0  1  0.00000000  0.00000000  0.00000000  1
  Lu  Lu0  1  0.50000000  0.50000000  0.50000000  1
  Zn  Zn0  1  0.75000000  0.75000000  0.75000000  1
  Zn  Zn1  1  0.25000000  0.25000000  0.25000000  1
loop_
_geom_bond_atom_site_label_1
_geom_bond_atom_site_label_2
_geom_bond_distance
_geom_bond_site_symmetry_2
Ho0 Zn1 3.052122 1_455
Ho0 Zn1 3.052122 1_555
Ho0 Zn1 3.052122 1_545
Ho0 Zn0 3.052122 1_454
Ho0 Zn0 3.052122 1_445
Ho0 Zn0 3.052122 1_544
Ho0 Zn0 3.052122 1_444
Ho0 Zn1 3.052122 1_554
Lu0 Zn1 3.052122 1_565
Lu0 Zn0 3.052122 1_545
Lu0 Zn0 3.052122 1_554
Lu0 Zn1 3.052122 1_555
Lu0 Zn1 3.052122 1_556
Lu0 Zn0 3.052122 1_555
Lu0 Zn1 3.052122 1_655
Lu0 Zn0 3.052122 1_455
