# generated using pymatgen
data_Nd3Cr
_symmetry_space_group_name_H-M   'P 1'
_cell_length_a   6.14371441
_cell_length_b   6.14371441
_cell_length_c   6.14371441
_cell_angle_alpha   133.57403588
_cell_angle_beta   133.57403588
_cell_angle_gamma   67.75408581
_symmetry_Int_Tables_number   1
_chemical_formula_structural   Nd3Cr
_chemical_formula_sum   'Nd3 Cr1'
_cell_volume   119.64040061
_cell_formula_units_Z   1
loop_
 _symmetry_equiv_pos_site_id
 _symmetry_equiv_pos_as_xyz
  1  'x, y, z'
loop_
 _atom_site_type_symbol
 _atom_site_label
 _atom_site_symmetry_multiplicity
 _atom_site_fract_x
 _atom_site_fract_y
 _atom_site_fract_z
 _atom_site_occupancy
  Nd  Nd0  1  0.75000000  0.25000000  0.50000000  1
  Nd  Nd1  1  0.25000000  0.75000000  0.50000000  1
  Nd  Nd2  1  0.50000000  0.50000000  0.00000000  1
  Cr  Cr0  1  0.00000000  0.00000000  0.00000000  1
loop_
_geom_bond_atom_site_label_1
_geom_bond_atom_site_label_2
_geom_bond_distance
_geom_bond_site_symmetry_2
Nd0 Nd1 3.424583 1_645
Nd0 Nd1 3.424583 1_555
Nd0 Nd1 3.424583 1_544
Nd0 Nd1 3.424583 1_656
Nd0 Nd2 3.516852 1_555
Nd0 Nd2 3.516852 1_556
Nd0 Nd2 3.516852 1_545
Nd0 Nd2 3.516852 1_656
Nd1 Nd2 3.516852 1_555
Nd1 Nd2 3.516852 1_556
Nd1 Nd2 3.516852 1_455
Nd1 Nd2 3.516852 1_566
Cr0 Nd2 3.424583 1_444
Cr0 Nd2 3.424583 1_556
Cr0 Nd2 3.424583 1_545
Cr0 Nd2 3.424583 1_455
Cr0 Nd0 3.516852 1_455
Cr0 Nd0 3.516852 1_454
Cr0 Nd0 3.516852 1_555
Cr0 Nd0 3.516852 1_444
Cr0 Nd1 3.516852 1_444
Cr0 Nd1 3.516852 1_544
Cr0 Nd1 3.516852 1_555
Cr0 Nd1 3.516852 1_545
