# generated using pymatgen
data_NaTi5Se8
_symmetry_space_group_name_H-M   'P 1'
_cell_length_a   9.65639842
_cell_length_b   9.65639842
_cell_length_c   9.04082994
_cell_angle_alpha   75.34083829
_cell_angle_beta   75.34083829
_cell_angle_gamma   21.73102215
_symmetry_Int_Tables_number   1
_chemical_formula_structural   NaTi5Se8
_chemical_formula_sum   'Na1 Ti5 Se8'
_cell_volume   301.58735482
_cell_formula_units_Z   1
loop_
 _symmetry_equiv_pos_site_id
 _symmetry_equiv_pos_as_xyz
  1  'x, y, z'
loop_
 _atom_site_type_symbol
 _atom_site_label
 _atom_site_symmetry_multiplicity
 _atom_site_fract_x
 _atom_site_fract_y
 _atom_site_fract_z
 _atom_site_occupancy
  Na  Na0  1  0.50000000  0.50000000  0.50000000  1
  Ti  Ti0  1  -0.00000000  -0.00000000  -0.00000000  1
  Ti  Ti1  1  0.34968006  0.34968006  0.98385351  1
  Ti  Ti2  1  0.29036637  0.29036637  0.35132394  1
  Ti  Ti3  1  0.70963363  0.70963363  0.64867606  1
  Ti  Ti4  1  0.65031994  0.65031994  0.01614649  1
  Se  Se0  1  0.42548839  0.42548839  0.17129993  1
  Se  Se1  1  0.91792517  0.91792517  0.80616727  1
  Se  Se2  1  0.83972780  0.83972780  0.49617948  1
  Se  Se3  1  0.76138506  0.76138506  0.15563711  1
  Se  Se4  1  0.23861494  0.23861494  0.84436289  1
  Se  Se5  1  0.16027220  0.16027220  0.50382052  1
  Se  Se6  1  0.08207483  0.08207483  0.19383273  1
  Se  Se7  1  0.57451161  0.57451161  0.82870007  1
loop_
_geom_bond_atom_site_label_1
_geom_bond_atom_site_label_2
_geom_bond_distance
_geom_bond_site_symmetry_2
Na0 Se1 3.343321 1_545
Na0 Se1 3.343321 1_455
Na0 Se6 3.343321 1_655
Na0 Se6 3.343321 1_565
Se0 Ti1 2.488982 1_554
Se0 Ti0 2.565361 1_565
Se0 Ti0 2.565361 1_655
Se0 Ti2 2.658424 1_555
Se1 Ti1 2.549076 1_565
Se1 Ti1 2.549076 1_655
Se1 Ti0 2.626803 1_666
Se2 Ti3 2.497164 1_555
Se2 Ti2 2.556732 1_565
Se2 Ti2 2.556732 1_655
Se3 Ti1 2.681316 1_654
Se3 Ti1 2.681316 1_564
Se3 Ti2 2.691968 1_655
Se3 Ti2 2.691968 1_565
Se3 Ti4 2.719737 1_555
Se4 Ti4 2.681316 1_546
Se4 Ti4 2.681316 1_456
Se4 Ti3 2.691968 1_455
Se4 Ti3 2.691968 1_545
Se4 Ti1 2.719737 1_555
Se5 Ti2 2.497164 1_555
Se5 Ti3 2.556732 1_455
Se5 Ti3 2.556732 1_545
Se6 Ti4 2.549076 1_545
Se6 Ti4 2.549076 1_455
Se6 Ti0 2.626803 1_555
Se7 Ti4 2.488982 1_556
Se7 Ti0 2.565361 1_566
Se7 Ti0 2.565361 1_656
Se7 Ti3 2.658424 1_555
