# generated using pymatgen
data_Sm2Ge5Ir3
_symmetry_space_group_name_H-M   'P 1'
_cell_length_a   8.37914099
_cell_length_b   8.37723539
_cell_length_c   8.37625432
_cell_angle_alpha   137.62487966
_cell_angle_beta   104.96630398
_cell_angle_gamma   90.19221000
_symmetry_Int_Tables_number   1
_chemical_formula_structural   Sm2Ge5Ir3
_chemical_formula_sum   'Sm4 Ge10 Ir6'
_cell_volume   365.42105481
_cell_formula_units_Z   2
loop_
 _symmetry_equiv_pos_site_id
 _symmetry_equiv_pos_as_xyz
  1  'x, y, z'
loop_
 _atom_site_type_symbol
 _atom_site_label
 _atom_site_symmetry_multiplicity
 _atom_site_fract_x
 _atom_site_fract_y
 _atom_site_fract_z
 _atom_site_occupancy
  Sm  Sm0  1  0.85979223  0.63279747  0.22727943  1
  Sm  Sm1  1  0.14020745  0.36720326  0.77272116  1
  Sm  Sm2  1  0.59447670  0.86745806  0.72722835  1
  Sm  Sm3  1  0.40552383  0.13254318  0.27277291  1
  Ge  Ge0  1  0.49985911  0.74986498  0.24985767  1
  Ge  Ge1  1  0.50014170  0.25013595  0.75014352  1
  Ge  Ge2  1  0.22477783  0.97457080  0.74991858  1
  Ge  Ge3  1  0.77527370  0.52525604  0.75032061  1
  Ge  Ge4  1  0.77522160  0.02542981  0.25008093  1
  Ge  Ge5  1  0.22472586  0.47474431  0.24968006  1
  Ge  Ge6  1  0.05987300  0.89997604  0.15961271  1
  Ge  Ge7  1  0.94012688  0.10002320  0.84038659  1
  Ge  Ge8  1  0.25971125  0.59997560  0.65987362  1
  Ge  Ge9  1  0.74028846  0.40002448  0.34012627  1
  Ir  Ir0  1  0.53066819  0.64148424  0.88921600  1
  Ir  Ir1  1  0.46933135  0.35851619  0.11078423  1
  Ir  Ir2  1  0.00002317  0.74994116  0.74992923  1
  Ir  Ir3  1  0.99997723  0.25005667  0.25006948  1
  Ir  Ir4  1  0.24769097  0.85874749  0.38928707  1
  Ir  Ir5  1  0.75230950  0.14125308  0.61071259  1
loop_
_geom_bond_atom_site_label_1
_geom_bond_atom_site_label_2
_geom_bond_distance
_geom_bond_site_symmetry_2
Ge0 Ir1 2.523547 1_555
Ge0 Ir0 2.523569 1_554
Ge0 Ir5 2.523778 1_565
Ge0 Ir4 2.524698 1_555
Ge0 Sm1 3.180538 1_554
Ge0 Sm3 3.181969 1_565
Ge0 Sm2 3.181998 1_555
Ge0 Sm0 3.183362 1_555
Ge1 Ir0 2.523548 1_555
Ge1 Ir1 2.523568 1_556
Ge1 Ir4 2.523781 1_545
Ge1 Ir5 2.524701 1_555
Ge1 Sm0 3.180531 1_556
Ge1 Sm2 3.181967 1_545
Ge1 Sm3 3.181999 1_555
Ge1 Sm1 3.183370 1_555
Ge2 Ir1 2.464348 1_566
Ge2 Ir4 2.464446 1_555
Ge2 Ir2 2.657870 1_555
Ge2 Ge8 2.669312 1_555
Ge2 Ge7 2.672313 1_465
Ge2 Sm2 3.241630 1_555
Ge2 Sm1 3.242628 1_565
Ge2 Sm0 3.349978 1_455
Ge2 Sm3 3.350074 1_566
Ge3 Ir0 2.464487 1_555
Ge3 Ir5 2.464635 1_555
Ge3 Ir2 2.660420 1_655
Ge3 Ge6 2.668460 1_656
Ge3 Ge9 2.672798 1_555
Ge3 Sm0 3.238944 1_556
Ge3 Sm3 3.241873 1_555
Ge3 Sm1 3.352091 1_655
Ge3 Sm2 3.353725 1_555
Ge4 Ir0 2.464348 1_544
Ge4 Ir5 2.464444 1_555
Ge4 Ir3 2.657864 1_555
Ge4 Ge9 2.669305 1_555
Ge4 Ge6 2.672319 1_645
Ge4 Sm3 3.241624 1_555
Ge4 Sm0 3.242633 1_545
Ge4 Sm1 3.349983 1_655
Ge4 Sm2 3.350063 1_544
Ge5 Ir1 2.464488 1_555
Ge5 Ir4 2.464641 1_555
Ge5 Ir3 2.660418 1_455
Ge5 Ge7 2.668463 1_454
Ge5 Ge8 2.672793 1_555
Ge5 Sm1 3.238947 1_554
Ge5 Sm2 3.241880 1_555
Ge5 Sm0 3.352092 1_455
Ge5 Sm3 3.353725 1_555
Ge6 Ir4 2.391368 1_555
Ge6 Ir2 2.518233 1_554
Ge6 Ir3 2.519904 1_465
Ge6 Sm3 2.982993 1_565
Ge6 Sm0 3.237519 1_455
Ge6 Sm1 3.262630 1_565
Ge6 Sm1 3.263705 1_554
Ge7 Ir5 2.391371 1_555
Ge7 Ir3 2.518234 1_556
Ge7 Ir2 2.519913 1_645
Ge7 Sm2 2.982988 1_545
Ge7 Sm1 3.237519 1_655
Ge7 Sm0 3.262622 1_545
Ge7 Sm0 3.263714 1_556
Ge8 Ir0 2.391852 1_555
Ge8 Ir3 2.518719 1_455
Ge8 Ir2 2.519537 1_555
Ge8 Sm1 2.982904 1_555
Ge8 Sm2 3.237314 1_555
Ge8 Sm3 3.261297 1_566
Ge8 Sm3 3.264738 1_555
Ge9 Ir1 2.391853 1_555
Ge9 Ir2 2.518716 1_655
Ge9 Ir3 2.519549 1_555
Ge9 Sm0 2.982903 1_555
Ge9 Sm3 3.237310 1_555
Ge9 Sm2 3.261290 1_544
Ge9 Sm2 3.264741 1_555
Ir0 Sm2 3.142203 1_555
Ir0 Sm3 3.253561 1_555
Ir0 Sm3 3.253598 1_566
Ir0 Sm0 3.449858 1_556
Ir0 Sm1 3.453085 1_555
Ir1 Sm3 3.142203 1_555
Ir1 Sm2 3.253566 1_555
Ir1 Sm2 3.253598 1_544
Ir1 Sm1 3.449857 1_554
Ir1 Sm0 3.453086 1_555
Ir2 Sm0 3.535115 1_455
Ir2 Sm3 3.535427 1_566
Ir2 Sm1 3.536990 1_555
Ir2 Sm2 3.538066 1_455
Ir3 Sm1 3.535115 1_655
Ir3 Sm2 3.535420 1_544
Ir3 Sm0 3.537005 1_555
Ir3 Sm3 3.538058 1_655
Ir4 Sm0 3.142292 1_455
Ir4 Sm1 3.252162 1_565
Ir4 Sm1 3.254418 1_554
Ir4 Sm2 3.450590 1_555
Ir4 Sm3 3.451956 1_565
Ir5 Sm1 3.142284 1_655
Ir5 Sm0 3.252157 1_545
Ir5 Sm0 3.254424 1_556
Ir5 Sm3 3.450585 1_555
Ir5 Sm2 3.451962 1_545
