# generated using pymatgen
data_AlB2
_symmetry_space_group_name_H-M   'P 1'
_cell_length_a   2.99140227
_cell_length_b   2.99140199
_cell_length_c   3.26254100
_cell_angle_alpha   90.00000000
_cell_angle_beta   90.00000000
_cell_angle_gamma   119.99999216
_symmetry_Int_Tables_number   1
_chemical_formula_structural   AlB2
_chemical_formula_sum   'Al1 B2'
_cell_volume   25.28344457
_cell_formula_units_Z   1
loop_
 _symmetry_equiv_pos_site_id
 _symmetry_equiv_pos_as_xyz
  1  'x, y, z'
loop_
 _atom_site_type_symbol
 _atom_site_label
 _atom_site_symmetry_multiplicity
 _atom_site_fract_x
 _atom_site_fract_y
 _atom_site_fract_z
 _atom_site_occupancy
  Al  Al0  1  -0.00000000  -0.00000000  -0.00000000  1
  B  B0  1  0.66666700  0.33333300  0.50000000  1
  B  B1  1  0.33333300  0.66666700  0.50000000  1
loop_
_geom_bond_atom_site_label_1
_geom_bond_atom_site_label_2
_geom_bond_distance
_geom_bond_site_symmetry_2
Al0 B0 2.375682 1_455
Al0 B1 2.375682 1_544
Al0 B1 2.375682 1_545
Al0 B0 2.375682 1_454
Al0 B0 2.375684 1_444
Al0 B1 2.375684 1_554
Al0 B0 2.375684 1_445
Al0 B1 2.375684 1_555
Al0 B0 2.375684 1_555
Al0 B0 2.375684 1_554
Al0 B1 2.375684 1_445
Al0 B1 2.375684 1_444
B0 B1 1.727085 1_545
B0 B1 1.727085 1_655
B0 B1 1.727090 1_555
