# generated using pymatgen
data_Mg3Cu
_symmetry_space_group_name_H-M   'P 1'
_cell_length_a   11.15691314
_cell_length_b   11.15691314
_cell_length_c   11.15691314
_cell_angle_alpha   146.19988712
_cell_angle_beta   129.35857196
_cell_angle_gamma   62.27974672
_symmetry_Int_Tables_number   1
_chemical_formula_structural   Mg3Cu
_chemical_formula_sum   'Mg24 Cu8'
_cell_volume   591.14272825
_cell_formula_units_Z   8
loop_
 _symmetry_equiv_pos_site_id
 _symmetry_equiv_pos_as_xyz
  1  'x, y, z'
loop_
 _atom_site_type_symbol
 _atom_site_label
 _atom_site_symmetry_multiplicity
 _atom_site_fract_x
 _atom_site_fract_y
 _atom_site_fract_z
 _atom_site_occupancy
  Mg  Mg0_0  1  0.39625416  0.35900168  0.03725197  1
  Mg  Mg0_1  1  0.39625416  0.35900168  0.53725197  1
  Mg  Mg0_2  1  0.39625416  0.85900168  0.03725198  1
  Mg  Mg0_3  1  0.39625416  0.85900168  0.53725197  1
  Mg  Mg0_4  1  0.89625416  0.35900168  0.03725197  1
  Mg  Mg0_5  1  0.89625416  0.35900168  0.53725197  1
  Mg  Mg0_6  1  0.89625416  0.85900168  0.03725197  1
  Mg  Mg0_7  1  0.89625416  0.85900168  0.53725197  1
  Mg  Mg1_0  1  0.04330270  0.25000000  0.29330270  1
  Mg  Mg1_1  1  0.04330270  0.25000000  0.79330270  1
  Mg  Mg1_2  1  0.04330270  0.75000000  0.29330270  1
  Mg  Mg1_3  1  0.04330270  0.75000000  0.79330270  1
  Mg  Mg1_4  1  0.54330270  0.25000000  0.29330270  1
  Mg  Mg1_5  1  0.54330270  0.25000000  0.79330270  1
  Mg  Mg1_6  1  0.54330270  0.75000000  0.29330270  1
  Mg  Mg1_7  1  0.54330270  0.75000000  0.79330270  1
  Mg  Mg2_0  1  0.17825029  0.14099832  0.03725197  1
  Mg  Mg2_1  1  0.17825030  0.14099832  0.53725197  1
  Mg  Mg2_2  1  0.17825029  0.64099832  0.03725197  1
  Mg  Mg2_3  1  0.17825029  0.64099832  0.53725197  1
  Mg  Mg2_4  1  0.67825030  0.14099832  0.03725197  1
  Mg  Mg2_5  1  0.67825029  0.14099832  0.53725197  1
  Mg  Mg2_6  1  0.67825029  0.64099832  0.03725197  1
  Mg  Mg2_7  1  0.67825030  0.64099832  0.53725197  1
  Cu  Cu0_0  1  0.29885635  0.00000000  0.29885635  1
  Cu  Cu0_1  1  0.29885635  0.00000000  0.79885635  1
  Cu  Cu0_2  1  0.29885635  0.50000000  0.29885635  1
  Cu  Cu0_3  1  0.29885635  0.50000000  0.79885635  1
  Cu  Cu0_4  1  0.79885635  0.00000000  0.29885635  1
  Cu  Cu0_5  1  0.79885635  0.00000000  0.79885635  1
  Cu  Cu0_6  1  0.79885635  0.50000000  0.29885635  1
  Cu  Cu0_7  1  0.79885635  0.50000000  0.79885635  1
loop_
_geom_bond_atom_site_label_1
_geom_bond_atom_site_label_2
_geom_bond_distance
_geom_bond_site_symmetry_2
Mg0_0 Mg2_4 2.948792 1_555
Mg0_0 Mg2_7 2.948794 1_555
Mg0_0 Mg2_1 2.948796 1_554
Mg0_0 Mg2_2 2.948798 1_555
Mg0_0 Mg1_1 3.123102 1_554
Mg0_0 Mg1_5 3.143988 1_554
Mg0_0 Mg1_6 3.143990 1_555
Mg0_0 Mg1_4 3.210110 1_555
Mg0_0 Mg0_3 3.243350 1_544
Mg0_0 Mg0_3 3.243350 1_555
Mg0_1 Mg2_5 2.948792 1_555
Mg0_1 Mg2_6 2.948794 1_556
Mg0_1 Mg2_0 2.948796 1_555
Mg0_1 Mg2_3 2.948798 1_555
Mg0_1 Mg1_0 3.123102 1_555
Mg0_1 Mg1_4 3.143988 1_555
Mg0_1 Mg1_7 3.143990 1_555
Mg0_1 Mg1_5 3.210110 1_555
Mg0_1 Mg0_2 3.243350 1_545
Mg0_1 Mg0_2 3.243350 1_556
Mg0_2 Mg2_6 2.948792 1_555
Mg0_2 Mg2_5 2.948794 1_565
Mg0_2 Mg2_3 2.948796 1_554
Mg0_2 Mg2_0 2.948798 1_565
Mg0_2 Mg1_3 3.123102 1_554
Mg0_2 Mg1_7 3.143988 1_554
Mg0_2 Mg1_4 3.143990 1_565
Mg0_2 Mg1_6 3.210110 1_555
Mg0_3 Mg2_7 2.948792 1_555
Mg0_3 Mg2_4 2.948794 1_566
Mg0_3 Mg2_2 2.948796 1_555
Mg0_3 Mg2_1 2.948798 1_565
Mg0_3 Mg1_2 3.123102 1_555
Mg0_3 Mg1_6 3.143988 1_555
Mg0_3 Mg1_5 3.143990 1_565
Mg0_3 Mg1_7 3.210110 1_555
Mg0_4 Mg2_0 2.948792 1_655
Mg0_4 Mg2_3 2.948794 1_655
Mg0_4 Mg2_5 2.948796 1_554
Mg0_4 Mg2_6 2.948798 1_555
Mg0_4 Mg1_5 3.123102 1_554
Mg0_4 Mg1_1 3.143988 1_654
Mg0_4 Mg1_2 3.143990 1_655
Mg0_4 Mg1_0 3.210110 1_655
Mg0_4 Mg0_7 3.243350 1_544
Mg0_4 Mg0_7 3.243350 1_555
Mg0_5 Mg2_1 2.948792 1_655
Mg0_5 Mg2_2 2.948794 1_656
Mg0_5 Mg2_4 2.948796 1_555
Mg0_5 Mg2_7 2.948798 1_555
Mg0_5 Mg1_4 3.123102 1_555
Mg0_5 Mg1_0 3.143988 1_655
Mg0_5 Mg1_3 3.143990 1_655
Mg0_5 Mg1_1 3.210110 1_655
Mg0_5 Mg0_6 3.243350 1_545
Mg0_5 Mg0_6 3.243350 1_556
Mg0_6 Mg2_2 2.948792 1_655
Mg0_6 Mg2_1 2.948794 1_665
Mg0_6 Mg2_7 2.948796 1_554
Mg0_6 Mg2_4 2.948798 1_565
Mg0_6 Mg1_7 3.123102 1_554
Mg0_6 Mg1_3 3.143988 1_654
Mg0_6 Mg1_0 3.143990 1_665
Mg0_6 Mg1_2 3.210110 1_655
Mg0_7 Mg2_3 2.948792 1_655
Mg0_7 Mg2_0 2.948794 1_666
Mg0_7 Mg2_6 2.948796 1_555
Mg0_7 Mg2_5 2.948798 1_565
Mg0_7 Mg1_6 3.123102 1_555
Mg0_7 Mg1_2 3.143988 1_655
Mg0_7 Mg1_1 3.143990 1_665
Mg0_7 Mg1_3 3.210110 1_655
Mg1_0 Mg2_1 3.123097 1_555
Mg1_0 Mg2_0 3.143993 1_555
Mg1_0 Mg2_3 3.143993 1_555
Mg1_0 Mg2_4 3.210109 1_455
Mg1_0 Mg1_3 3.243350 1_544
Mg1_0 Mg1_3 3.243350 1_555
Mg1_1 Mg2_0 3.123097 1_556
Mg1_1 Mg2_1 3.143993 1_555
Mg1_1 Mg2_2 3.143993 1_556
Mg1_1 Mg2_5 3.210109 1_455
Mg1_1 Mg1_2 3.243350 1_545
Mg1_1 Mg1_2 3.243350 1_556
Mg1_2 Mg2_3 3.123097 1_555
Mg1_2 Mg2_2 3.143993 1_555
Mg1_2 Mg2_1 3.143993 1_565
Mg1_2 Mg2_6 3.210109 1_455
Mg1_3 Mg2_2 3.123097 1_556
Mg1_3 Mg2_3 3.143993 1_555
Mg1_3 Mg2_0 3.143993 1_566
Mg1_3 Mg2_7 3.210109 1_455
Mg1_4 Mg2_5 3.123097 1_555
Mg1_4 Mg2_4 3.143993 1_555
Mg1_4 Mg2_7 3.143993 1_555
Mg1_4 Mg2_0 3.210109 1_555
Mg1_4 Mg1_7 3.243350 1_544
Mg1_4 Mg1_7 3.243350 1_555
Mg1_5 Mg2_4 3.123097 1_556
Mg1_5 Mg2_5 3.143993 1_555
Mg1_5 Mg2_6 3.143993 1_556
Mg1_5 Mg2_1 3.210109 1_555
Mg1_5 Mg1_6 3.243350 1_556
Mg1_5 Mg1_6 3.243350 1_545
Mg1_6 Mg2_7 3.123097 1_555
Mg1_6 Mg2_6 3.143993 1_555
Mg1_6 Mg2_5 3.143993 1_565
Mg1_6 Mg2_2 3.210109 1_555
Mg1_7 Mg2_6 3.123097 1_556
Mg1_7 Mg2_7 3.143993 1_555
Mg1_7 Mg2_4 3.143993 1_566
Mg1_7 Mg2_3 3.210109 1_555
Mg2_0 Mg2_3 3.243350 1_555
Mg2_0 Mg2_3 3.243350 1_544
Mg2_1 Mg2_2 3.243350 1_556
Mg2_1 Mg2_2 3.243350 1_545
Mg2_4 Mg2_7 3.243350 1_544
Mg2_4 Mg2_7 3.243350 1_555
Mg2_5 Mg2_6 3.243350 1_545
Mg2_5 Mg2_6 3.243350 1_556
Cu0_0 Mg2_1 2.641190 1_555
Cu0_0 Mg2_2 2.641190 1_545
Cu0_0 Mg0_1 2.641193 1_555
Cu0_0 Mg0_2 2.641195 1_545
Cu0_0 Mg1_5 2.841105 1_555
Cu0_0 Mg1_6 2.841105 1_545
Cu0_0 Mg1_0 2.928767 1_555
Cu0_0 Mg1_3 2.928767 1_544
Cu0_1 Mg2_3 2.641190 1_545
Cu0_1 Mg2_0 2.641190 1_556
Cu0_1 Mg0_0 2.641193 1_556
Cu0_1 Mg0_3 2.641195 1_545
Cu0_1 Mg1_4 2.841105 1_556
Cu0_1 Mg1_7 2.841105 1_545
Cu0_1 Mg1_1 2.928767 1_555
Cu0_1 Mg1_2 2.928767 1_545
Cu0_2 Mg2_0 2.641190 1_555
Cu0_2 Mg2_3 2.641190 1_555
Cu0_2 Mg0_3 2.641193 1_555
Cu0_2 Mg0_0 2.641195 1_555
Cu0_2 Mg1_7 2.841105 1_555
Cu0_2 Mg1_4 2.841105 1_555
Cu0_2 Mg1_2 2.928767 1_555
Cu0_2 Mg1_1 2.928767 1_554
Cu0_3 Mg2_1 2.641190 1_555
Cu0_3 Mg2_2 2.641190 1_556
Cu0_3 Mg0_2 2.641193 1_556
Cu0_3 Mg0_1 2.641195 1_555
Cu0_3 Mg1_6 2.841105 1_556
Cu0_3 Mg1_5 2.841105 1_555
Cu0_3 Mg1_3 2.928767 1_555
Cu0_3 Mg1_0 2.928767 1_555
Cu0_4 Mg2_5 2.641190 1_555
Cu0_4 Mg2_6 2.641190 1_545
Cu0_4 Mg0_5 2.641193 1_555
Cu0_4 Mg0_6 2.641195 1_545
Cu0_4 Mg1_1 2.841105 1_655
Cu0_4 Mg1_2 2.841105 1_645
Cu0_4 Mg1_4 2.928767 1_555
Cu0_4 Mg1_7 2.928767 1_544
Cu0_5 Mg2_7 2.641190 1_545
Cu0_5 Mg2_4 2.641190 1_556
Cu0_5 Mg0_4 2.641193 1_556
Cu0_5 Mg0_7 2.641195 1_545
Cu0_5 Mg1_0 2.841105 1_656
Cu0_5 Mg1_3 2.841105 1_645
Cu0_5 Mg1_5 2.928767 1_555
Cu0_5 Mg1_6 2.928767 1_545
Cu0_6 Mg2_7 2.641190 1_555
Cu0_6 Mg2_4 2.641190 1_555
Cu0_6 Mg0_7 2.641193 1_555
Cu0_6 Mg0_4 2.641195 1_555
Cu0_6 Mg1_3 2.841105 1_655
Cu0_6 Mg1_0 2.841105 1_655
Cu0_6 Mg1_6 2.928767 1_555
Cu0_6 Mg1_5 2.928767 1_554
Cu0_7 Mg2_5 2.641190 1_555
Cu0_7 Mg2_6 2.641190 1_556
Cu0_7 Mg0_6 2.641193 1_556
Cu0_7 Mg0_5 2.641195 1_555
Cu0_7 Mg1_2 2.841105 1_656
Cu0_7 Mg1_1 2.841105 1_655
Cu0_7 Mg1_7 2.928767 1_555
Cu0_7 Mg1_4 2.928767 1_555
