# generated using pymatgen
data_Sm3Ho
_symmetry_space_group_name_H-M   'P 1'
_cell_length_a   5.09905811
_cell_length_b   5.09926251
_cell_length_c   5.09919047
_cell_angle_alpha   90.00067731
_cell_angle_beta   90.00118634
_cell_angle_gamma   90.00045529
_symmetry_Int_Tables_number   1
_chemical_formula_structural   Sm3Ho
_chemical_formula_sum   'Sm3 Ho1'
_cell_volume   132.58627391
_cell_formula_units_Z   1
loop_
 _symmetry_equiv_pos_site_id
 _symmetry_equiv_pos_as_xyz
  1  'x, y, z'
loop_
 _atom_site_type_symbol
 _atom_site_label
 _atom_site_symmetry_multiplicity
 _atom_site_fract_x
 _atom_site_fract_y
 _atom_site_fract_z
 _atom_site_occupancy
  Sm  Sm0  1  0.99999783  0.49998792  0.50000052  1
  Sm  Sm1  1  0.49999944  0.00000675  0.49999700  1
  Sm  Sm2  1  0.49999618  0.49999085  0.99999805  1
  Ho  Ho0  1  0.00000656  0.00001349  0.00000442  1
loop_
_geom_bond_atom_site_label_1
_geom_bond_atom_site_label_2
_geom_bond_distance
_geom_bond_site_symmetry_2
Sm0 Sm1 3.605563 1_555
Sm0 Sm2 3.605573 1_655
Sm0 Sm2 3.605603 1_554
Sm0 Sm1 3.605603 1_655
Sm0 Sm2 3.605660 1_555
Sm0 Sm2 3.605666 1_654
Sm0 Sm1 3.605710 1_665
Sm0 Sm1 3.605727 1_565
Sm1 Sm2 3.605623 1_555
Sm1 Sm2 3.605658 1_554
Sm1 Sm2 3.605730 1_544
Sm1 Sm2 3.605780 1_545
Ho0 Sm2 3.605517 1_554
Ho0 Sm1 3.605536 1_555
Ho0 Sm0 3.605570 1_455
Ho0 Sm2 3.605621 1_454
Ho0 Sm1 3.605640 1_454
Ho0 Sm0 3.605641 1_454
Ho0 Sm1 3.605662 1_455
Ho0 Sm1 3.605664 1_554
Ho0 Sm2 3.605709 1_544
Ho0 Sm2 3.605756 1_444
Ho0 Sm0 3.605783 1_444
Ho0 Sm0 3.605797 1_445
