# generated using pymatgen
data_AlFe2
_symmetry_space_group_name_H-M   'P 1'
_cell_length_a   8.26984488
_cell_length_b   8.26984488
_cell_length_c   5.10440400
_cell_angle_alpha   90.00000000
_cell_angle_beta   90.00000000
_cell_angle_gamma   120.00000700
_symmetry_Int_Tables_number   1
_chemical_formula_structural   AlFe2
_chemical_formula_sum   'Al8 Fe16'
_cell_volume   302.32242865
_cell_formula_units_Z   8
loop_
 _symmetry_equiv_pos_site_id
 _symmetry_equiv_pos_as_xyz
  1  'x, y, z'
loop_
 _atom_site_type_symbol
 _atom_site_label
 _atom_site_symmetry_multiplicity
 _atom_site_fract_x
 _atom_site_fract_y
 _atom_site_fract_z
 _atom_site_occupancy
  Al  Al0_0  1  0.00000000  0.00000000  0.00000000  1
  Al  Al0_1  1  0.00000000  0.00000000  0.50000000  1
  Al  Al0_2  1  0.00000000  0.50000000  0.00000000  1
  Al  Al0_3  1  0.00000000  0.50000000  0.50000000  1
  Al  Al0_4  1  0.50000000  0.00000000  0.00000000  1
  Al  Al0_5  1  0.50000000  0.00000000  0.50000000  1
  Al  Al0_6  1  0.50000000  0.50000000  0.00000000  1
  Al  Al0_7  1  0.50000000  0.50000000  0.50000000  1
  Fe  Fe0_0  1  0.33333350  0.16666650  0.25000000  1
  Fe  Fe0_1  1  0.33333350  0.16666650  0.75000000  1
  Fe  Fe0_2  1  0.33333350  0.66666650  0.25000000  1
  Fe  Fe0_3  1  0.33333350  0.66666650  0.75000000  1
  Fe  Fe0_4  1  0.83333350  0.16666650  0.25000000  1
  Fe  Fe0_5  1  0.83333350  0.16666650  0.75000000  1
  Fe  Fe0_6  1  0.83333350  0.66666650  0.25000000  1
  Fe  Fe0_7  1  0.83333350  0.66666650  0.75000000  1
  Fe  Fe1_0  1  0.16666650  0.33333350  0.25000000  1
  Fe  Fe1_1  1  0.16666650  0.33333350  0.75000000  1
  Fe  Fe1_2  1  0.16666650  0.83333350  0.25000000  1
  Fe  Fe1_3  1  0.16666650  0.83333350  0.75000000  1
  Fe  Fe1_4  1  0.66666650  0.33333350  0.25000000  1
  Fe  Fe1_5  1  0.66666650  0.33333350  0.75000000  1
  Fe  Fe1_6  1  0.66666650  0.83333350  0.25000000  1
  Fe  Fe1_7  1  0.66666650  0.83333350  0.75000000  1
loop_
_geom_bond_atom_site_label_1
_geom_bond_atom_site_label_2
_geom_bond_distance
_geom_bond_site_symmetry_2
Al0_0 Al0_1 2.552202 1_555
Al0_0 Al0_1 2.552202 1_554
Al0_0 Fe1_2 2.706957 1_545
Al0_0 Fe1_3 2.706957 1_544
Al0_0 Fe0_5 2.706957 1_454
Al0_0 Fe0_4 2.706957 1_455
Al0_0 Fe0_1 2.706960 1_554
Al0_0 Fe1_6 2.706960 1_445
Al0_0 Fe1_7 2.706960 1_444
Al0_0 Fe0_7 2.706960 1_444
Al0_0 Fe1_0 2.706960 1_555
Al0_0 Fe1_1 2.706960 1_554
Al0_0 Fe0_0 2.706960 1_555
Al0_0 Fe0_6 2.706960 1_445
Al0_1 Fe1_2 2.706957 1_545
Al0_1 Fe1_3 2.706957 1_545
Al0_1 Fe0_5 2.706957 1_455
Al0_1 Fe0_4 2.706957 1_455
Al0_1 Fe0_0 2.706960 1_555
Al0_1 Fe1_0 2.706960 1_555
Al0_1 Fe0_1 2.706960 1_555
Al0_1 Fe1_1 2.706960 1_555
Al0_1 Fe0_7 2.706960 1_445
Al0_1 Fe1_6 2.706960 1_445
Al0_1 Fe0_6 2.706960 1_445
Al0_1 Fe1_7 2.706960 1_445
Al0_2 Al0_3 2.552202 1_555
Al0_2 Al0_3 2.552202 1_554
Al0_2 Fe0_6 2.706957 1_455
Al0_2 Fe0_7 2.706957 1_454
Al0_2 Fe1_0 2.706957 1_555
Al0_2 Fe1_1 2.706957 1_554
Al0_2 Fe0_3 2.706960 1_554
Al0_2 Fe0_2 2.706960 1_555
Al0_2 Fe0_5 2.706960 1_454
Al0_2 Fe1_2 2.706960 1_555
Al0_2 Fe1_3 2.706960 1_554
Al0_2 Fe1_5 2.706960 1_454
Al0_2 Fe1_4 2.706960 1_455
Al0_2 Fe0_4 2.706960 1_455
Al0_3 Fe0_6 2.706957 1_455
Al0_3 Fe0_7 2.706957 1_455
Al0_3 Fe1_0 2.706957 1_555
Al0_3 Fe1_1 2.706957 1_555
Al0_3 Fe0_3 2.706960 1_555
Al0_3 Fe0_2 2.706960 1_555
Al0_3 Fe0_5 2.706960 1_455
Al0_3 Fe1_2 2.706960 1_555
Al0_3 Fe1_3 2.706960 1_555
Al0_3 Fe1_4 2.706960 1_455
Al0_3 Fe1_5 2.706960 1_455
Al0_3 Fe0_4 2.706960 1_455
Al0_4 Al0_5 2.552202 1_554
Al0_4 Al0_5 2.552202 1_555
Al0_4 Fe1_6 2.706957 1_545
Al0_4 Fe1_7 2.706957 1_544
Al0_4 Fe0_0 2.706957 1_555
Al0_4 Fe0_1 2.706957 1_554
Al0_4 Fe1_3 2.706960 1_544
Al0_4 Fe1_2 2.706960 1_545
Al0_4 Fe1_5 2.706960 1_554
Al0_4 Fe0_2 2.706960 1_545
Al0_4 Fe0_5 2.706960 1_554
Al0_4 Fe0_3 2.706960 1_544
Al0_4 Fe1_4 2.706960 1_555
Al0_4 Fe0_4 2.706960 1_555
Al0_5 Fe1_6 2.706957 1_545
Al0_5 Fe1_7 2.706957 1_545
Al0_5 Fe0_1 2.706957 1_555
Al0_5 Fe0_0 2.706957 1_555
Al0_5 Fe1_3 2.706960 1_545
Al0_5 Fe1_2 2.706960 1_545
Al0_5 Fe0_3 2.706960 1_545
Al0_5 Fe0_2 2.706960 1_545
Al0_5 Fe0_5 2.706960 1_555
Al0_5 Fe1_4 2.706960 1_555
Al0_5 Fe0_4 2.706960 1_555
Al0_5 Fe1_5 2.706960 1_555
Al0_6 Al0_7 2.552202 1_555
Al0_6 Al0_7 2.552202 1_554
Al0_6 Fe0_3 2.706957 1_554
Al0_6 Fe0_2 2.706957 1_555
Al0_6 Fe1_5 2.706957 1_554
Al0_6 Fe1_4 2.706957 1_555
Al0_6 Fe0_1 2.706960 1_554
Al0_6 Fe1_6 2.706960 1_555
Al0_6 Fe1_0 2.706960 1_555
Al0_6 Fe1_7 2.706960 1_554
Al0_6 Fe1_1 2.706960 1_554
Al0_6 Fe0_0 2.706960 1_555
Al0_6 Fe0_7 2.706960 1_554
Al0_6 Fe0_6 2.706960 1_555
Al0_7 Fe0_3 2.706957 1_555
Al0_7 Fe0_2 2.706957 1_555
Al0_7 Fe1_5 2.706957 1_555
Al0_7 Fe1_4 2.706957 1_555
Al0_7 Fe0_7 2.706960 1_555
Al0_7 Fe1_6 2.706960 1_555
Al0_7 Fe0_1 2.706960 1_555
Al0_7 Fe1_0 2.706960 1_555
Al0_7 Fe1_7 2.706960 1_555
Al0_7 Fe1_1 2.706960 1_555
Al0_7 Fe0_0 2.706960 1_555
Al0_7 Fe0_6 2.706960 1_555
Fe0_0 Fe1_2 2.387296 1_545
Fe0_0 Fe1_4 2.387296 1_555
Fe0_0 Fe1_0 2.387303 1_555
Fe0_0 Fe0_1 2.552202 1_554
Fe0_0 Fe0_1 2.552202 1_555
Fe0_1 Fe1_3 2.387296 1_545
Fe0_1 Fe1_5 2.387296 1_555
Fe0_1 Fe1_1 2.387303 1_555
Fe0_2 Fe1_0 2.387296 1_555
Fe0_2 Fe1_6 2.387296 1_555
Fe0_2 Fe1_2 2.387303 1_555
Fe0_2 Fe0_3 2.552202 1_555
Fe0_2 Fe0_3 2.552202 1_554
Fe0_3 Fe1_7 2.387296 1_555
Fe0_3 Fe1_1 2.387296 1_555
Fe0_3 Fe1_3 2.387303 1_555
Fe0_4 Fe1_6 2.387296 1_545
Fe0_4 Fe1_0 2.387296 1_655
Fe0_4 Fe1_4 2.387303 1_555
Fe0_4 Fe0_5 2.552202 1_555
Fe0_4 Fe0_5 2.552202 1_554
Fe0_5 Fe1_7 2.387296 1_545
Fe0_5 Fe1_1 2.387296 1_655
Fe0_5 Fe1_5 2.387303 1_555
Fe0_6 Fe1_4 2.387296 1_555
Fe0_6 Fe1_2 2.387296 1_655
Fe0_6 Fe1_6 2.387303 1_555
Fe0_6 Fe0_7 2.552202 1_555
Fe0_6 Fe0_7 2.552202 1_554
Fe0_7 Fe1_5 2.387296 1_555
Fe0_7 Fe1_3 2.387296 1_655
Fe0_7 Fe1_7 2.387303 1_555
Fe1_0 Fe1_1 2.552202 1_555
Fe1_0 Fe1_1 2.552202 1_554
Fe1_2 Fe1_3 2.552202 1_555
Fe1_2 Fe1_3 2.552202 1_554
Fe1_4 Fe1_5 2.552202 1_555
Fe1_4 Fe1_5 2.552202 1_554
Fe1_6 Fe1_7 2.552202 1_554
Fe1_6 Fe1_7 2.552202 1_555
