# generated using pymatgen
data_ScGa2Ru
_symmetry_space_group_name_H-M   'P 1'
_cell_length_a   4.42458360
_cell_length_b   4.42458360
_cell_length_c   4.42458360
_cell_angle_alpha   60.00000000
_cell_angle_beta   60.00000000
_cell_angle_gamma   60.00000000
_symmetry_Int_Tables_number   1
_chemical_formula_structural   ScGa2Ru
_chemical_formula_sum   'Sc1 Ga2 Ru1'
_cell_volume   61.24945364
_cell_formula_units_Z   1
loop_
 _symmetry_equiv_pos_site_id
 _symmetry_equiv_pos_as_xyz
  1  'x, y, z'
loop_
 _atom_site_type_symbol
 _atom_site_label
 _atom_site_symmetry_multiplicity
 _atom_site_fract_x
 _atom_site_fract_y
 _atom_site_fract_z
 _atom_site_occupancy
  Sc  Sc0  1  0.75000000  0.75000000  0.75000000  1
  Ga  Ga0  1  0.00000000  -0.00000000  -0.00000000  1
  Ga  Ga1  1  0.50000100  0.50000100  0.50000100  1
  Ru  Ru0  1  0.24999900  0.24999900  0.24999900  1
loop_
_geom_bond_atom_site_label_1
_geom_bond_atom_site_label_2
_geom_bond_distance
_geom_bond_site_symmetry_2
Ga0 Ru0 2.709482 1_555
Ga0 Sc0 2.709493 1_544
Ga0 Sc0 2.709493 1_454
Ga0 Sc0 2.709493 1_445
Ga0 Sc0 2.709493 1_444
Ga0 Ru0 2.709497 1_545
Ga0 Ru0 2.709497 1_554
Ga0 Ru0 2.709497 1_455
Ga1 Sc0 2.709482 1_555
Ga1 Ru0 2.709486 1_655
Ga1 Ru0 2.709486 1_565
Ga1 Ru0 2.709486 1_556
Ga1 Sc0 2.709497 1_554
Ga1 Sc0 2.709497 1_455
Ga1 Sc0 2.709497 1_545
Ga1 Ru0 2.709515 1_555
