# generated using pymatgen
data_TaAlPt
_symmetry_space_group_name_H-M   'P 1'
_cell_length_a   4.34207546
_cell_length_b   4.34207546
_cell_length_c   4.34207546
_cell_angle_alpha   60.00000000
_cell_angle_beta   60.00000000
_cell_angle_gamma   60.00000000
_symmetry_Int_Tables_number   1
_chemical_formula_structural   TaAlPt
_chemical_formula_sum   'Ta1 Al1 Pt1'
_cell_volume   57.88647465
_cell_formula_units_Z   1
loop_
 _symmetry_equiv_pos_site_id
 _symmetry_equiv_pos_as_xyz
  1  'x, y, z'
loop_
 _atom_site_type_symbol
 _atom_site_label
 _atom_site_symmetry_multiplicity
 _atom_site_fract_x
 _atom_site_fract_y
 _atom_site_fract_z
 _atom_site_occupancy
  Ta  Ta0  1  0.75000000  0.75000000  0.75000000  1
  Al  Al0  1  0.50000000  0.50000000  0.50000000  1
  Pt  Pt0  1  0.00000000  0.00000000  0.00000000  1
loop_
_geom_bond_atom_site_label_1
_geom_bond_atom_site_label_2
_geom_bond_distance
_geom_bond_site_symmetry_2
Al0 Ta0 2.658967 1_455
Al0 Ta0 2.658967 1_545
Al0 Ta0 2.658967 1_555
Al0 Ta0 2.658967 1_554
Al0 Pt0 3.070311 1_556
Al0 Pt0 3.070311 1_656
Al0 Pt0 3.070311 1_655
Al0 Pt0 3.070311 1_565
Al0 Pt0 3.070311 1_566
Al0 Pt0 3.070311 1_665
Pt0 Ta0 2.658967 1_544
Pt0 Ta0 2.658967 1_445
Pt0 Ta0 2.658967 1_454
Pt0 Ta0 2.658967 1_444
