# generated using pymatgen
data_PmDyIn2
_symmetry_space_group_name_H-M   'P 1'
_cell_length_a   5.35617048
_cell_length_b   5.35617048
_cell_length_c   5.35617048
_cell_angle_alpha   60.00820167
_cell_angle_beta   60.00820167
_cell_angle_gamma   60.00820167
_symmetry_Int_Tables_number   1
_chemical_formula_structural   PmDyIn2
_chemical_formula_sum   'Pm1 Dy1 In2'
_cell_volume   108.67481818
_cell_formula_units_Z   1
loop_
 _symmetry_equiv_pos_site_id
 _symmetry_equiv_pos_as_xyz
  1  'x, y, z'
loop_
 _atom_site_type_symbol
 _atom_site_label
 _atom_site_symmetry_multiplicity
 _atom_site_fract_x
 _atom_site_fract_y
 _atom_site_fract_z
 _atom_site_occupancy
  Pm  Pm0  1  0.74999920  0.74999920  0.74999920  1
  Dy  Dy0  1  0.24999919  0.24999919  0.24999919  1
  In  In0  1  0.00000201  0.00000201  0.00000201  1
  In  In1  1  0.49999861  0.49999861  0.49999861  1
loop_
_geom_bond_atom_site_label_1
_geom_bond_atom_site_label_2
_geom_bond_distance
_geom_bond_site_symmetry_2
Dy0 In0 3.279731 1_555
Dy0 In1 3.279760 1_555
Dy0 In1 3.280313 1_545
Dy0 In1 3.280313 1_455
Dy0 In1 3.280313 1_554
Dy0 In0 3.280322 1_655
Dy0 In0 3.280322 1_565
Dy0 In0 3.280322 1_556
In0 Pm0 3.279805 1_444
In0 Pm0 3.280298 1_544
In0 Pm0 3.280298 1_445
In0 Pm0 3.280298 1_454
In1 Pm0 3.279776 1_555
In1 Pm0 3.280307 1_545
In1 Pm0 3.280307 1_455
In1 Pm0 3.280307 1_554
