# generated using pymatgen
data_TmMg5
_symmetry_space_group_name_H-M   'P 1'
_cell_length_a   12.66252575
_cell_length_b   12.66252575
_cell_length_c   14.79057729
_cell_angle_alpha   74.30346218
_cell_angle_beta   74.30346218
_cell_angle_gamma   31.08574301
_symmetry_Int_Tables_number   1
_chemical_formula_structural   TmMg5
_chemical_formula_sum   'Tm8 Mg40'
_cell_volume   1175.19231205
_cell_formula_units_Z   8
loop_
 _symmetry_equiv_pos_site_id
 _symmetry_equiv_pos_as_xyz
  1  'x, y, z'
loop_
 _atom_site_type_symbol
 _atom_site_label
 _atom_site_symmetry_multiplicity
 _atom_site_fract_x
 _atom_site_fract_y
 _atom_site_fract_z
 _atom_site_occupancy
  Tm  Tm0_0  1  0.31051100  0.31051100  0.12883300  1
  Tm  Tm0_1  1  0.31051100  0.31051100  0.62883300  1
  Tm  Tm0_2  1  0.31051100  0.81051100  0.12883300  1
  Tm  Tm0_3  1  0.31051100  0.81051100  0.62883300  1
  Tm  Tm0_4  1  0.81051100  0.31051100  0.12883300  1
  Tm  Tm0_5  1  0.81051100  0.31051100  0.62883300  1
  Tm  Tm0_6  1  0.81051100  0.81051100  0.12883300  1
  Tm  Tm0_7  1  0.81051100  0.81051100  0.62883300  1
  Mg  Mg0_0  1  0.49304850  0.49304850  0.00486350  1
  Mg  Mg0_1  1  0.49304850  0.49304850  0.50486350  1
  Mg  Mg0_2  1  0.49304850  0.99304850  0.00486350  1
  Mg  Mg0_3  1  0.49304850  0.99304850  0.50486350  1
  Mg  Mg0_4  1  0.99304850  0.49304850  0.00486350  1
  Mg  Mg0_5  1  0.99304850  0.49304850  0.50486350  1
  Mg  Mg0_6  1  0.99304850  0.99304850  0.00486350  1
  Mg  Mg0_7  1  0.99304850  0.99304850  0.50486350  1
  Mg  Mg1_0  1  0.14432800  0.14432800  0.46222150  1
  Mg  Mg1_1  1  0.14432800  0.14432800  0.96222150  1
  Mg  Mg1_2  1  0.14432800  0.64432800  0.46222150  1
  Mg  Mg1_3  1  0.14432800  0.64432800  0.96222150  1
  Mg  Mg1_4  1  0.64432800  0.14432800  0.46222150  1
  Mg  Mg1_5  1  0.64432800  0.14432800  0.96222150  1
  Mg  Mg1_6  1  0.64432800  0.64432800  0.46222150  1
  Mg  Mg1_7  1  0.64432800  0.64432800  0.96222150  1
  Mg  Mg2_0  1  0.32902800  0.32902800  0.34288500  1
  Mg  Mg2_1  1  0.32902800  0.32902800  0.84288500  1
  Mg  Mg2_2  1  0.32902800  0.82902800  0.34288500  1
  Mg  Mg2_3  1  0.32902800  0.82902800  0.84288500  1
  Mg  Mg2_4  1  0.82902800  0.32902800  0.34288500  1
  Mg  Mg2_5  1  0.82902800  0.32902800  0.84288500  1
  Mg  Mg2_6  1  0.82902800  0.82902800  0.34288500  1
  Mg  Mg2_7  1  0.82902800  0.82902800  0.84288500  1
  Mg  Mg3_0  1  0.47363900  0.47363900  0.30228300  1
  Mg  Mg3_1  1  0.47363900  0.47363900  0.80228300  1
  Mg  Mg3_2  1  0.47363900  0.97363900  0.30228300  1
  Mg  Mg3_3  1  0.47363900  0.97363900  0.80228300  1
  Mg  Mg3_4  1  0.97363900  0.47363900  0.30228300  1
  Mg  Mg3_5  1  0.97363900  0.47363900  0.80228300  1
  Mg  Mg3_6  1  0.97363900  0.97363900  0.30228300  1
  Mg  Mg3_7  1  0.97363900  0.97363900  0.80228300  1
  Mg  Mg4_0  1  0.16611250  0.16611250  0.17558050  1
  Mg  Mg4_1  1  0.16611250  0.16611250  0.67558050  1
  Mg  Mg4_2  1  0.16611250  0.66611250  0.17558050  1
  Mg  Mg4_3  1  0.16611250  0.66611250  0.67558050  1
  Mg  Mg4_4  1  0.66611250  0.16611250  0.17558050  1
  Mg  Mg4_5  1  0.66611250  0.16611250  0.67558050  1
  Mg  Mg4_6  1  0.66611250  0.66611250  0.17558050  1
  Mg  Mg4_7  1  0.66611250  0.66611250  0.67558050  1
loop_
_geom_bond_atom_site_label_1
_geom_bond_atom_site_label_2
_geom_bond_distance
_geom_bond_site_symmetry_2
Tm0_0 Tm0_6 3.393042 1_455
Tm0_0 Tm0_6 3.393042 1_545
Tm0_1 Tm0_7 3.393042 1_455
Tm0_1 Tm0_7 3.393042 1_545
Tm0_2 Tm0_4 3.393042 1_555
Tm0_2 Tm0_4 3.393042 1_465
Tm0_3 Tm0_5 3.393042 1_555
Tm0_3 Tm0_5 3.393042 1_465
Mg0_0 Mg1_5 3.151327 1_554
Mg0_0 Mg1_3 3.151327 1_554
Mg0_0 Mg3_1 3.162103 1_554
Mg0_0 Mg4_2 3.180494 1_555
Mg0_0 Mg4_4 3.180494 1_555
Mg0_0 Mg2_5 3.193117 1_554
Mg0_0 Mg2_3 3.193117 1_554
Mg0_0 Tm0_4 3.262605 1_555
Mg0_0 Tm0_2 3.262605 1_555
Mg0_0 Mg0_6 3.393042 1_545
Mg0_0 Mg0_6 3.393042 1_455
Mg0_1 Mg1_4 3.151327 1_555
Mg0_1 Mg1_2 3.151327 1_555
Mg0_1 Mg3_0 3.162103 1_555
Mg0_1 Mg4_3 3.180494 1_555
Mg0_1 Mg4_5 3.180494 1_555
Mg0_1 Mg2_2 3.193117 1_555
Mg0_1 Mg2_4 3.193117 1_555
Mg0_1 Tm0_5 3.262605 1_555
Mg0_1 Tm0_3 3.262605 1_555
Mg0_1 Mg0_7 3.393042 1_545
Mg0_1 Mg0_7 3.393042 1_455
Mg0_2 Mg1_7 3.151327 1_554
Mg0_2 Mg1_1 3.151327 1_564
Mg0_2 Mg3_3 3.162103 1_554
Mg0_2 Mg4_0 3.180494 1_565
Mg0_2 Mg4_6 3.180494 1_555
Mg0_2 Mg2_7 3.193117 1_554
Mg0_2 Mg2_1 3.193117 1_564
Mg0_2 Tm0_0 3.262605 1_565
Mg0_2 Tm0_6 3.262605 1_555
Mg0_2 Mg0_4 3.393042 1_465
Mg0_2 Mg0_4 3.393042 1_555
Mg0_3 Mg1_6 3.151327 1_555
Mg0_3 Mg1_0 3.151327 1_565
Mg0_3 Mg3_2 3.162103 1_555
Mg0_3 Mg4_7 3.180494 1_555
Mg0_3 Mg4_1 3.180494 1_565
Mg0_3 Mg2_0 3.193117 1_565
Mg0_3 Mg2_6 3.193117 1_555
Mg0_3 Tm0_1 3.262605 1_565
Mg0_3 Tm0_7 3.262605 1_555
Mg0_3 Mg0_5 3.393042 1_555
Mg0_3 Mg0_5 3.393042 1_465
Mg0_4 Mg1_7 3.151327 1_554
Mg0_4 Mg1_1 3.151327 1_654
Mg0_4 Mg3_5 3.162103 1_554
Mg0_4 Mg4_0 3.180494 1_655
Mg0_4 Mg4_6 3.180494 1_555
Mg0_4 Mg2_7 3.193117 1_554
Mg0_4 Mg2_1 3.193117 1_654
Mg0_4 Tm0_0 3.262605 1_655
Mg0_4 Tm0_6 3.262605 1_555
Mg0_5 Mg1_6 3.151327 1_555
Mg0_5 Mg1_0 3.151327 1_655
Mg0_5 Mg3_4 3.162103 1_555
Mg0_5 Mg4_7 3.180494 1_555
Mg0_5 Mg4_1 3.180494 1_655
Mg0_5 Mg2_0 3.193117 1_655
Mg0_5 Mg2_6 3.193117 1_555
Mg0_5 Tm0_1 3.262605 1_655
Mg0_5 Tm0_7 3.262605 1_555
Mg0_6 Mg1_5 3.151327 1_564
Mg0_6 Mg1_3 3.151327 1_654
Mg0_6 Mg3_7 3.162103 1_554
Mg0_6 Mg4_2 3.180494 1_655
Mg0_6 Mg4_4 3.180494 1_565
Mg0_6 Mg2_5 3.193117 1_564
Mg0_6 Mg2_3 3.193117 1_654
Mg0_6 Tm0_4 3.262605 1_565
Mg0_6 Tm0_2 3.262605 1_655
Mg0_7 Mg1_4 3.151327 1_565
Mg0_7 Mg1_2 3.151327 1_655
Mg0_7 Mg3_6 3.162103 1_555
Mg0_7 Mg4_3 3.180494 1_655
Mg0_7 Mg4_5 3.180494 1_565
Mg0_7 Mg2_4 3.193117 1_565
Mg0_7 Mg2_2 3.193117 1_655
Mg0_7 Tm0_5 3.262605 1_565
Mg0_7 Tm0_3 3.262605 1_655
Mg1_0 Mg3_4 3.106103 1_455
Mg1_0 Mg3_2 3.106103 1_545
Mg1_0 Mg2_4 3.179848 1_455
Mg1_0 Mg2_2 3.179848 1_545
Mg1_0 Tm0_3 3.209787 1_545
Mg1_0 Tm0_5 3.209787 1_455
Mg1_0 Mg4_1 3.344098 1_555
Mg1_0 Mg1_6 3.393042 1_455
Mg1_0 Mg1_6 3.393042 1_545
Mg1_1 Mg3_5 3.106103 1_455
Mg1_1 Mg3_3 3.106103 1_545
Mg1_1 Mg2_3 3.179848 1_545
Mg1_1 Mg2_5 3.179848 1_455
Mg1_1 Tm0_2 3.209787 1_546
Mg1_1 Tm0_4 3.209787 1_456
Mg1_1 Mg4_0 3.344098 1_556
Mg1_1 Mg1_7 3.393042 1_545
Mg1_1 Mg1_7 3.393042 1_455
Mg1_2 Mg3_0 3.106103 1_555
Mg1_2 Mg3_6 3.106103 1_455
Mg1_2 Mg2_6 3.179848 1_455
Mg1_2 Mg2_0 3.179848 1_555
Mg1_2 Tm0_7 3.209787 1_455
Mg1_2 Tm0_1 3.209787 1_555
Mg1_2 Mg4_3 3.344098 1_555
Mg1_2 Mg1_4 3.393042 1_555
Mg1_2 Mg1_4 3.393042 1_465
Mg1_3 Mg3_1 3.106103 1_555
Mg1_3 Mg3_7 3.106103 1_455
Mg1_3 Mg2_1 3.179848 1_555
Mg1_3 Mg2_7 3.179848 1_455
Mg1_3 Tm0_6 3.209787 1_456
Mg1_3 Tm0_0 3.209787 1_556
Mg1_3 Mg4_2 3.344098 1_556
Mg1_3 Mg1_5 3.393042 1_465
Mg1_3 Mg1_5 3.393042 1_555
Mg1_4 Mg3_0 3.106103 1_555
Mg1_4 Mg3_6 3.106103 1_545
Mg1_4 Mg2_6 3.179848 1_545
Mg1_4 Mg2_0 3.179848 1_555
Mg1_4 Tm0_7 3.209787 1_545
Mg1_4 Tm0_1 3.209787 1_555
Mg1_4 Mg4_5 3.344098 1_555
Mg1_5 Mg3_1 3.106103 1_555
Mg1_5 Mg3_7 3.106103 1_545
Mg1_5 Mg2_1 3.179848 1_555
Mg1_5 Mg2_7 3.179848 1_545
Mg1_5 Tm0_6 3.209787 1_546
Mg1_5 Tm0_0 3.209787 1_556
Mg1_5 Mg4_4 3.344098 1_556
Mg1_6 Mg3_4 3.106103 1_555
Mg1_6 Mg3_2 3.106103 1_555
Mg1_6 Mg2_4 3.179848 1_555
Mg1_6 Mg2_2 3.179848 1_555
Mg1_6 Tm0_3 3.209787 1_555
Mg1_6 Tm0_5 3.209787 1_555
Mg1_6 Mg4_7 3.344098 1_555
Mg1_7 Mg3_5 3.106103 1_555
Mg1_7 Mg3_3 3.106103 1_555
Mg1_7 Mg2_3 3.179848 1_555
Mg1_7 Mg2_5 3.179848 1_555
Mg1_7 Tm0_2 3.209787 1_556
Mg1_7 Tm0_4 3.209787 1_556
Mg1_7 Mg4_6 3.344098 1_556
Mg2_0 Mg4_2 3.250111 1_555
Mg2_0 Mg4_4 3.250111 1_555
Mg2_0 Mg3_2 3.273843 1_545
Mg2_0 Mg3_4 3.273843 1_455
Mg2_0 Tm0_0 3.321250 1_555
Mg2_0 Mg2_6 3.393042 1_455
Mg2_0 Mg2_6 3.393042 1_545
Mg2_0 Mg3_0 3.408797 1_555
Mg2_1 Mg4_5 3.250111 1_555
Mg2_1 Mg4_3 3.250111 1_555
Mg2_1 Mg3_3 3.273843 1_545
Mg2_1 Mg3_5 3.273843 1_455
Mg2_1 Tm0_1 3.321250 1_555
Mg2_1 Mg2_7 3.393042 1_545
Mg2_1 Mg2_7 3.393042 1_455
Mg2_1 Mg3_1 3.408797 1_555
Mg2_2 Mg4_6 3.250111 1_555
Mg2_2 Mg4_0 3.250111 1_565
Mg2_2 Mg3_6 3.273843 1_455
Mg2_2 Mg3_0 3.273843 1_555
Mg2_2 Tm0_2 3.321250 1_555
Mg2_2 Mg2_4 3.393042 1_465
Mg2_2 Mg2_4 3.393042 1_555
Mg2_2 Mg3_2 3.408797 1_555
Mg2_3 Mg4_1 3.250111 1_565
Mg2_3 Mg4_7 3.250111 1_555
Mg2_3 Mg3_1 3.273843 1_555
Mg2_3 Mg3_7 3.273843 1_455
Mg2_3 Tm0_3 3.321250 1_555
Mg2_3 Mg2_5 3.393042 1_555
Mg2_3 Mg2_5 3.393042 1_465
Mg2_3 Mg3_3 3.408797 1_555
Mg2_4 Mg4_6 3.250111 1_555
Mg2_4 Mg4_0 3.250111 1_655
Mg2_4 Mg3_6 3.273843 1_545
Mg2_4 Mg3_0 3.273843 1_555
Mg2_4 Tm0_4 3.321250 1_555
Mg2_4 Mg3_4 3.408797 1_555
Mg2_5 Mg4_7 3.250111 1_555
Mg2_5 Mg4_1 3.250111 1_655
Mg2_5 Mg3_1 3.273843 1_555
Mg2_5 Mg3_7 3.273843 1_545
Mg2_5 Tm0_5 3.321250 1_555
Mg2_5 Mg3_5 3.408797 1_555
Mg2_6 Mg4_2 3.250111 1_655
Mg2_6 Mg4_4 3.250111 1_565
Mg2_6 Mg3_2 3.273843 1_555
Mg2_6 Mg3_4 3.273843 1_555
Mg2_6 Tm0_6 3.321250 1_555
Mg2_6 Mg3_6 3.408797 1_555
Mg2_7 Mg4_3 3.250111 1_655
Mg2_7 Mg4_5 3.250111 1_565
Mg2_7 Mg3_5 3.273843 1_555
Mg2_7 Mg3_3 3.273843 1_555
Mg2_7 Tm0_7 3.321250 1_555
Mg2_7 Mg3_7 3.408797 1_555
Mg3_0 Mg4_2 3.136458 1_555
Mg3_0 Mg4_4 3.136458 1_555
Mg3_0 Tm0_4 3.301261 1_555
Mg3_0 Tm0_2 3.301261 1_555
Mg3_0 Mg3_6 3.393042 1_455
Mg3_0 Mg3_6 3.393042 1_545
Mg3_1 Mg4_3 3.136458 1_555
Mg3_1 Mg4_5 3.136458 1_555
Mg3_1 Tm0_5 3.301261 1_555
Mg3_1 Tm0_3 3.301261 1_555
Mg3_1 Mg3_7 3.393042 1_455
Mg3_1 Mg3_7 3.393042 1_545
Mg3_2 Mg4_0 3.136458 1_565
Mg3_2 Mg4_6 3.136458 1_555
Mg3_2 Tm0_0 3.301261 1_565
Mg3_2 Tm0_6 3.301261 1_555
Mg3_2 Mg3_4 3.393042 1_465
Mg3_2 Mg3_4 3.393042 1_555
Mg3_3 Mg4_7 3.136458 1_555
Mg3_3 Mg4_1 3.136458 1_565
Mg3_3 Tm0_1 3.301261 1_565
Mg3_3 Tm0_7 3.301261 1_555
Mg3_3 Mg3_5 3.393042 1_555
Mg3_3 Mg3_5 3.393042 1_465
Mg3_4 Mg4_0 3.136458 1_655
Mg3_4 Mg4_6 3.136458 1_555
Mg3_4 Tm0_0 3.301261 1_655
Mg3_4 Tm0_6 3.301261 1_555
Mg3_5 Mg4_7 3.136458 1_555
Mg3_5 Mg4_1 3.136458 1_655
Mg3_5 Tm0_1 3.301261 1_655
Mg3_5 Tm0_7 3.301261 1_555
Mg3_6 Mg4_4 3.136458 1_565
Mg3_6 Mg4_2 3.136458 1_655
Mg3_6 Tm0_4 3.301261 1_565
Mg3_6 Tm0_2 3.301261 1_655
Mg3_7 Mg4_3 3.136458 1_655
Mg3_7 Mg4_5 3.136458 1_565
Mg3_7 Tm0_5 3.301261 1_565
Mg3_7 Tm0_3 3.301261 1_655
Mg4_0 Tm0_2 3.315939 1_545
Mg4_0 Tm0_4 3.315939 1_455
Mg4_0 Mg4_6 3.393042 1_455
Mg4_0 Mg4_6 3.393042 1_545
Mg4_0 Tm0_0 3.394505 1_555
Mg4_1 Tm0_3 3.315939 1_545
Mg4_1 Tm0_5 3.315939 1_455
Mg4_1 Mg4_7 3.393042 1_545
Mg4_1 Mg4_7 3.393042 1_455
Mg4_1 Tm0_1 3.394505 1_555
Mg4_2 Tm0_6 3.315939 1_455
Mg4_2 Tm0_0 3.315939 1_555
Mg4_2 Mg4_4 3.393042 1_555
Mg4_2 Mg4_4 3.393042 1_465
Mg4_2 Tm0_2 3.394505 1_555
Mg4_3 Tm0_7 3.315939 1_455
Mg4_3 Tm0_1 3.315939 1_555
Mg4_3 Mg4_5 3.393042 1_555
Mg4_3 Mg4_5 3.393042 1_465
Mg4_3 Tm0_3 3.394505 1_555
Mg4_4 Tm0_6 3.315939 1_545
Mg4_4 Tm0_0 3.315939 1_555
Mg4_4 Tm0_4 3.394505 1_555
Mg4_5 Tm0_7 3.315939 1_545
Mg4_5 Tm0_1 3.315939 1_555
Mg4_5 Tm0_5 3.394505 1_555
Mg4_6 Tm0_2 3.315939 1_555
Mg4_6 Tm0_4 3.315939 1_555
Mg4_6 Tm0_6 3.394505 1_555
Mg4_7 Tm0_3 3.315939 1_555
Mg4_7 Tm0_5 3.315939 1_555
Mg4_7 Tm0_7 3.394505 1_555
