# generated using pymatgen
data_Tb2ReC2
_symmetry_space_group_name_H-M   'P 1'
_cell_length_a   5.13895636
_cell_length_b   6.58218234
_cell_length_c   9.90118168
_cell_angle_alpha   90.00000000
_cell_angle_beta   90.00000000
_cell_angle_gamma   90.00000000
_symmetry_Int_Tables_number   1
_chemical_formula_structural   Tb2ReC2
_chemical_formula_sum   'Tb8 Re4 C8'
_cell_volume   334.91289418
_cell_formula_units_Z   4
loop_
 _symmetry_equiv_pos_site_id
 _symmetry_equiv_pos_as_xyz
  1  'x, y, z'
loop_
 _atom_site_type_symbol
 _atom_site_label
 _atom_site_symmetry_multiplicity
 _atom_site_fract_x
 _atom_site_fract_y
 _atom_site_fract_z
 _atom_site_occupancy
  Tb  Tb0  1  0.75000000  0.81899688  0.05555713  1
  Tb  Tb1  1  0.25000000  0.68100312  0.55555713  1
  Tb  Tb2  1  0.75000000  0.31899688  0.44444287  1
  Tb  Tb3  1  0.25000000  0.18100312  0.94444287  1
  Tb  Tb4  1  0.75000000  0.46827489  0.78525961  1
  Tb  Tb5  1  0.25000000  0.03172511  0.28525961  1
  Tb  Tb6  1  0.75000000  0.96827489  0.71474039  1
  Tb  Tb7  1  0.25000000  0.53172511  0.21474039  1
  Re  Re0  1  0.75000000  0.27707896  0.13594518  1
  Re  Re1  1  0.25000000  0.22292104  0.63594518  1
  Re  Re2  1  0.75000000  0.77707896  0.36405482  1
  Re  Re3  1  0.25000000  0.72292104  0.86405482  1
  C  C0  1  0.75000000  0.17996817  0.95348052  1
  C  C1  1  0.25000000  0.82003183  0.04651948  1
  C  C2  1  0.75000000  0.67996817  0.54651948  1
  C  C3  1  0.25000000  0.32003183  0.45348052  1
  C  C4  1  0.75000000  0.04389674  0.25890517  1
  C  C5  1  0.25000000  0.45610326  0.75890517  1
  C  C6  1  0.75000000  0.54389674  0.24109483  1
  C  C7  1  0.25000000  0.95610326  0.74109483  1
loop_
_geom_bond_atom_site_label_1
_geom_bond_atom_site_label_2
_geom_bond_distance
_geom_bond_site_symmetry_2
C0 Re0 1.916361 1_556
C0 Tb4 2.524954 1_555
C0 Tb3 2.571045 1_555
C0 Tb3 2.571045 1_655
C0 Tb0 2.582005 1_546
C0 Tb6 2.743933 1_545
C1 Re3 1.916361 1_554
C1 Tb7 2.524954 1_555
C1 Tb0 2.571045 1_555
C1 Tb0 2.571045 1_455
C1 Tb3 2.582005 1_564
C1 Tb5 2.743933 1_565
C2 Re2 1.916361 1_555
C2 Tb6 2.524954 1_555
C2 Tb1 2.571045 1_555
C2 Tb1 2.571045 1_655
C2 Tb2 2.582005 1_555
C2 Tb4 2.743933 1_555
C3 Re1 1.916361 1_555
C3 Tb5 2.524954 1_555
C3 Tb2 2.571045 1_455
C3 Tb2 2.571045 1_555
C3 Tb1 2.582005 1_555
C3 Tb7 2.743933 1_555
C4 Re0 1.959066 1_555
C4 Re2 2.041639 1_545
C4 Tb0 2.499021 1_545
C4 Tb2 2.579452 1_555
C4 Tb5 2.583936 1_555
C4 Tb5 2.583936 1_655
C5 Re1 1.959066 1_555
C5 Re3 2.041639 1_555
C5 Tb1 2.499021 1_555
C5 Tb3 2.579452 1_555
C5 Tb4 2.583936 1_455
C5 Tb4 2.583936 1_555
C6 Re2 1.959066 1_555
C6 Re0 2.041639 1_555
C6 Tb2 2.499021 1_555
C6 Tb0 2.579452 1_555
C6 Tb7 2.583936 1_555
C6 Tb7 2.583936 1_655
C7 Re3 1.959066 1_555
C7 Re1 2.041639 1_565
C7 Tb3 2.499021 1_565
C7 Tb1 2.579452 1_555
C7 Tb6 2.583936 1_555
C7 Tb6 2.583936 1_455
