# generated using pymatgen
data_CeDy3
_symmetry_space_group_name_H-M   'P 1'
_cell_length_a   6.11194955
_cell_length_b   6.11194955
_cell_length_c   6.11194955
_cell_angle_alpha   131.73663270
_cell_angle_beta   131.73663270
_cell_angle_gamma   70.64530631
_symmetry_Int_Tables_number   1
_chemical_formula_structural   CeDy3
_chemical_formula_sum   'Ce1 Dy3'
_cell_volume   124.54822689
_cell_formula_units_Z   1
loop_
 _symmetry_equiv_pos_site_id
 _symmetry_equiv_pos_as_xyz
  1  'x, y, z'
loop_
 _atom_site_type_symbol
 _atom_site_label
 _atom_site_symmetry_multiplicity
 _atom_site_fract_x
 _atom_site_fract_y
 _atom_site_fract_z
 _atom_site_occupancy
  Ce  Ce0  1  0.00000000  0.00000000  0.00000000  1
  Dy  Dy0  1  0.75000000  0.25000000  0.50000000  1
  Dy  Dy1  1  0.25000000  0.75000000  0.50000000  1
  Dy  Dy2  1  0.50000000  0.50000000  0.00000000  1
loop_
_geom_bond_atom_site_label_1
_geom_bond_atom_site_label_2
_geom_bond_distance
_geom_bond_site_symmetry_2
Ce0 Dy0 3.530005 1_455
Ce0 Dy0 3.530005 1_444
Ce0 Dy0 3.530005 1_454
Ce0 Dy0 3.530005 1_555
Ce0 Dy1 3.530005 1_444
Ce0 Dy1 3.530005 1_544
Ce0 Dy1 3.530005 1_555
Ce0 Dy1 3.530005 1_545
Ce0 Dy2 3.533809 1_455
Ce0 Dy2 3.533809 1_444
Ce0 Dy2 3.533809 1_545
Ce0 Dy2 3.533809 1_556
Dy0 Dy2 3.530005 1_656
Dy0 Dy2 3.530005 1_555
Dy0 Dy2 3.530005 1_545
Dy0 Dy2 3.530005 1_556
Dy0 Dy1 3.533809 1_544
Dy0 Dy1 3.533809 1_555
Dy0 Dy1 3.533809 1_645
Dy0 Dy1 3.533809 1_656
Dy1 Dy2 3.530005 1_566
Dy1 Dy2 3.530005 1_455
Dy1 Dy2 3.530005 1_555
Dy1 Dy2 3.530005 1_556
