# generated using pymatgen
data_Li3Be
_symmetry_space_group_name_H-M   'P 1'
_cell_length_a   5.50627696
_cell_length_b   5.50627696
_cell_length_c   4.52814700
_cell_angle_alpha   90.00000000
_cell_angle_beta   90.00000000
_cell_angle_gamma   120.00001149
_symmetry_Int_Tables_number   1
_chemical_formula_structural   Li3Be
_chemical_formula_sum   'Li6 Be2'
_cell_volume   118.89598859
_cell_formula_units_Z   2
loop_
 _symmetry_equiv_pos_site_id
 _symmetry_equiv_pos_as_xyz
  1  'x, y, z'
loop_
 _atom_site_type_symbol
 _atom_site_label
 _atom_site_symmetry_multiplicity
 _atom_site_fract_x
 _atom_site_fract_y
 _atom_site_fract_z
 _atom_site_occupancy
  Li  Li0  1  0.17390100  0.34780200  0.25000000  1
  Li  Li1  1  0.65219800  0.82609900  0.25000000  1
  Li  Li2  1  0.17390100  0.82609900  0.25000000  1
  Li  Li3  1  0.82609900  0.65219800  0.75000000  1
  Li  Li4  1  0.34780200  0.17390100  0.75000000  1
  Li  Li5  1  0.82609900  0.17390100  0.75000000  1
  Be  Be0  1  0.33333300  0.66666700  0.75000000  1
  Be  Be1  1  0.66666700  0.33333300  0.25000000  1
loop_
_geom_bond_atom_site_label_1
_geom_bond_atom_site_label_2
_geom_bond_distance
_geom_bond_site_symmetry_2
Li0 Li1 2.633635 1_555
Li0 Li2 2.633636 1_555
Li0 Li5 2.806549 1_455
Li0 Li5 2.806549 1_454
Li0 Li4 2.806549 1_554
Li0 Li4 2.806549 1_555
Li0 Li1 2.872641 1_445
Li0 Li2 2.872641 1_545
Li1 Li2 2.633636 1_555
Li1 Li5 2.806549 1_564
Li1 Li5 2.806549 1_565
Li1 Li3 2.806549 1_555
Li1 Li3 2.806549 1_554
Li1 Li2 2.872641 1_655
Li2 Li3 2.806549 1_455
Li2 Li3 2.806549 1_454
Li2 Li4 2.806549 1_564
Li2 Li4 2.806549 1_565
Li3 Li4 2.633635 1_555
Li3 Li5 2.633636 1_555
Li3 Li4 2.872641 1_665
Li3 Li5 2.872641 1_565
Li4 Li5 2.633636 1_555
Li4 Li5 2.872641 1_455
Be0 Li2 2.727276 1_556
Be0 Li2 2.727276 1_555
Be0 Li0 2.727278 1_556
Be0 Li1 2.727278 1_555
Be0 Li1 2.727278 1_556
Be0 Li0 2.727278 1_555
Be0 Li3 2.754000 1_455
Be0 Li4 2.754000 1_565
Be0 Li5 2.754002 1_455
Be0 Li5 2.754002 1_565
Be0 Li3 2.754006 1_555
Be0 Li4 2.754006 1_555
Be1 Li5 2.727276 1_554
Be1 Li5 2.727276 1_555
Be1 Li4 2.727278 1_554
Be1 Li3 2.727278 1_555
Be1 Li4 2.727278 1_555
Be1 Li3 2.727278 1_554
Be1 Li1 2.754000 1_545
Be1 Li0 2.754000 1_655
Be1 Li2 2.754002 1_545
Be1 Li2 2.754002 1_655
Be1 Li1 2.754006 1_555
Be1 Li0 2.754006 1_555
