# generated using pymatgen
data_KGd(CO3)2
_symmetry_space_group_name_H-M   'P 1'
_cell_length_a   6.49848283
_cell_length_b   6.49848283
_cell_length_c   7.12025637
_cell_angle_alpha   76.49698239
_cell_angle_beta   76.49698239
_cell_angle_gamma   97.43115542
_symmetry_Int_Tables_number   1
_chemical_formula_structural   KGd(CO3)2
_chemical_formula_sum   'K2 Gd2 C4 O12'
_cell_volume   278.86962896
_cell_formula_units_Z   2
loop_
 _symmetry_equiv_pos_site_id
 _symmetry_equiv_pos_as_xyz
  1  'x, y, z'
loop_
 _atom_site_type_symbol
 _atom_site_label
 _atom_site_symmetry_multiplicity
 _atom_site_fract_x
 _atom_site_fract_y
 _atom_site_fract_z
 _atom_site_occupancy
  K  K0  1  0.87803600  0.12196400  0.75000000  1
  K  K1  1  0.12196400  0.87803600  0.25000000  1
  Gd  Gd0  1  0.40479300  0.59520700  0.75000000  1
  Gd  Gd1  1  0.59520700  0.40479300  0.25000000  1
  C  C0  1  0.60728700  0.85591200  0.24649000  1
  C  C1  1  0.14408800  0.39271300  0.25351000  1
  C  C2  1  0.39271300  0.14408800  0.75351000  1
  C  C3  1  0.85591200  0.60728700  0.74649000  1
  O  O0  1  0.05438400  0.59556700  0.72566100  1
  O  O1  1  0.40443300  0.94561600  0.77433900  1
  O  O2  1  0.94561600  0.40443300  0.27433900  1
  O  O3  1  0.59556700  0.05438400  0.22566100  1
  O  O4  1  0.79273000  0.74743300  0.62172600  1
  O  O5  1  0.25256700  0.20727000  0.87827400  1
  O  O6  1  0.20727000  0.25256700  0.37827400  1
  O  O7  1  0.74743300  0.79273000  0.12172600  1
  O  O8  1  0.70265100  0.46949000  0.89450500  1
  O  O9  1  0.53051000  0.29734900  0.60549500  1
  O  O10  1  0.29734900  0.53051000  0.10549500  1
  O  O11  1  0.46949000  0.70265100  0.39450500  1
loop_
_geom_bond_atom_site_label_1
_geom_bond_atom_site_label_2
_geom_bond_distance
_geom_bond_site_symmetry_2
K0 O4 2.826809 1_545
K0 O5 2.826809 1_655
K0 O7 2.853083 1_546
K0 O6 2.853083 1_655
K0 O9 2.943010 1_555
K0 O8 2.943010 1_555
K0 O1 3.092155 1_545
K0 O0 3.092155 1_655
K1 O7 2.826809 1_455
K1 O6 2.826809 1_565
K1 O4 2.853083 1_455
K1 O5 2.853083 1_564
K1 O10 2.943010 1_555
K1 O11 2.943010 1_555
K1 O2 3.092155 1_455
K1 O3 3.092155 1_565
Gd0 O0 2.323967 1_555
Gd0 O1 2.323967 1_555
Gd0 O10 2.381823 1_556
Gd0 O11 2.381823 1_555
Gd0 O5 2.454780 1_555
Gd0 O4 2.454780 1_555
Gd0 O9 2.533634 1_555
Gd0 O8 2.533634 1_555
Gd1 O3 2.323967 1_555
Gd1 O2 2.323967 1_555
Gd1 O8 2.381823 1_554
Gd1 O9 2.381823 1_555
Gd1 O6 2.454780 1_555
Gd1 O7 2.454780 1_555
Gd1 O11 2.533634 1_555
Gd1 O10 2.533634 1_555
C0 O3 1.277752 1_565
C0 O7 1.294770 1_555
C0 O11 1.320201 1_555
C1 O2 1.277752 1_455
C1 O6 1.294770 1_555
C1 O10 1.320201 1_555
C2 O1 1.277752 1_545
C2 O5 1.294770 1_555
C2 O9 1.320201 1_555
C3 O0 1.277752 1_655
C3 O4 1.294770 1_555
C3 O8 1.320201 1_555
