# generated using pymatgen
data_K2O2
_symmetry_space_group_name_H-M   'P 1'
_cell_length_a   7.01496427
_cell_length_b   7.01496301
_cell_length_c   5.05309311
_cell_angle_alpha   90.00000000
_cell_angle_beta   90.00000000
_cell_angle_gamma   120.00000118
_symmetry_Int_Tables_number   1
_chemical_formula_structural   K2O2
_chemical_formula_sum   'K6 O6'
_cell_volume   215.34697516
_cell_formula_units_Z   3
loop_
 _symmetry_equiv_pos_site_id
 _symmetry_equiv_pos_as_xyz
  1  'x, y, z'
loop_
 _atom_site_type_symbol
 _atom_site_label
 _atom_site_symmetry_multiplicity
 _atom_site_fract_x
 _atom_site_fract_y
 _atom_site_fract_z
 _atom_site_occupancy
  K  K0  1  -0.00000000  0.70662751  0.50000000  1
  K  K1  1  0.29337249  0.29337249  0.50000000  1
  K  K2  1  0.70662751  0.00000000  0.50000000  1
  K  K3  1  -0.00000000  0.36821914  -0.00000000  1
  K  K4  1  0.63178086  0.63178086  -0.00000000  1
  K  K5  1  0.36821914  0.00000000  -0.00000000  1
  O  O0  1  0.66666700  0.33333300  0.34814418  1
  O  O1  1  0.66666700  0.33333300  0.65185582  1
  O  O2  1  0.33333300  0.66666700  0.65185582  1
  O  O3  1  0.33333300  0.66666700  0.34814418  1
  O  O4  1  0.00000000  -0.00000000  0.85003285  1
  O  O5  1  0.00000000  -0.00000000  0.14996715  1
loop_
_geom_bond_atom_site_label_1
_geom_bond_atom_site_label_2
_geom_bond_distance
_geom_bond_site_symmetry_2
K0 O2 2.605880 1_555
K0 O3 2.605880 1_555
K0 O0 2.605884 1_455
K0 O1 2.605884 1_455
K0 O4 2.713637 1_565
K0 O5 2.713637 1_565
K1 O2 2.605886 1_555
K1 O3 2.605886 1_555
K1 O1 2.605887 1_555
K1 O0 2.605887 1_555
K1 O4 2.713637 1_555
K1 O5 2.713637 1_555
K2 O0 2.605880 1_555
K2 O1 2.605880 1_555
K2 O2 2.605884 1_545
K2 O3 2.605884 1_545
K2 O4 2.713637 1_655
K2 O5 2.713637 1_655
K3 O5 2.691909 1_555
K3 O4 2.691909 1_554
K3 O0 2.837285 1_455
K3 O1 2.837285 1_454
K3 O2 2.837287 1_554
K3 O3 2.837287 1_555
K4 O4 2.691909 1_664
K4 O5 2.691909 1_665
K4 O0 2.837290 1_555
K4 O1 2.837290 1_554
K4 O3 2.837290 1_555
K4 O2 2.837290 1_554
K5 O4 2.691909 1_554
K5 O5 2.691909 1_555
K5 O2 2.837284 1_544
K5 O3 2.837284 1_545
K5 O0 2.837287 1_555
K5 O1 2.837287 1_554
O0 O1 1.534683 1_555
O2 O3 1.534683 1_555
O4 O5 1.515596 1_556
