# generated using pymatgen
data_SiAs3
_symmetry_space_group_name_H-M   'P 1'
_cell_length_a   5.94807161
_cell_length_b   5.94807161
_cell_length_c   5.17038900
_cell_angle_alpha   90.00000000
_cell_angle_beta   90.00000000
_cell_angle_gamma   119.99999561
_symmetry_Int_Tables_number   1
_chemical_formula_structural   SiAs3
_chemical_formula_sum   'Si2 As6'
_cell_volume   158.41862740
_cell_formula_units_Z   2
loop_
 _symmetry_equiv_pos_site_id
 _symmetry_equiv_pos_as_xyz
  1  'x, y, z'
loop_
 _atom_site_type_symbol
 _atom_site_label
 _atom_site_symmetry_multiplicity
 _atom_site_fract_x
 _atom_site_fract_y
 _atom_site_fract_z
 _atom_site_occupancy
  Si  Si0  1  0.33333300  0.66666700  0.75000000  1
  Si  Si1  1  0.66666700  0.33333300  0.25000000  1
  As  As0  1  0.18709400  0.37418700  0.25000000  1
  As  As1  1  0.62581300  0.81290600  0.25000000  1
  As  As2  1  0.18709400  0.81290600  0.25000000  1
  As  As3  1  0.81290600  0.62581300  0.75000000  1
  As  As4  1  0.37418700  0.18709400  0.75000000  1
  As  As5  1  0.81290600  0.18709400  0.75000000  1
loop_
_geom_bond_atom_site_label_1
_geom_bond_atom_site_label_2
_geom_bond_distance
_geom_bond_site_symmetry_2
As0 As2 2.609532 1_555
As0 As1 2.609532 1_555
As0 Si1 2.981472 1_555
As0 Si1 2.981472 1_455
As0 Si0 2.992178 1_554
As0 Si0 2.992178 1_555
As1 As2 2.609532 1_555
As1 Si1 2.981472 1_555
As1 Si1 2.981472 1_565
As1 Si0 2.992178 1_555
As1 Si0 2.992178 1_554
As2 Si1 2.981472 1_455
As2 Si1 2.981472 1_565
As2 Si0 2.992172 1_555
As2 Si0 2.992172 1_554
As3 As5 2.609532 1_555
As3 As4 2.609532 1_555
As3 Si0 2.981472 1_555
As3 Si0 2.981472 1_655
As3 Si1 2.992178 1_556
As3 Si1 2.992178 1_555
As4 As5 2.609532 1_555
As4 Si0 2.981472 1_555
As4 Si0 2.981472 1_545
As4 Si1 2.992178 1_556
As4 Si1 2.992178 1_555
As5 Si0 2.981472 1_545
As5 Si0 2.981472 1_655
As5 Si1 2.992172 1_556
As5 Si1 2.992172 1_555
