# generated using pymatgen
data_NbAgF6
_symmetry_space_group_name_H-M   'P 1'
_cell_length_a   5.00140957
_cell_length_b   5.00140957
_cell_length_c   9.35474974
_cell_angle_alpha   90.00000000
_cell_angle_beta   90.00000000
_cell_angle_gamma   90.00000000
_symmetry_Int_Tables_number   1
_chemical_formula_structural   NbAgF6
_chemical_formula_sum   'Nb2 Ag2 F12'
_cell_volume   234.00062383
_cell_formula_units_Z   2
loop_
 _symmetry_equiv_pos_site_id
 _symmetry_equiv_pos_as_xyz
  1  'x, y, z'
loop_
 _atom_site_type_symbol
 _atom_site_label
 _atom_site_symmetry_multiplicity
 _atom_site_fract_x
 _atom_site_fract_y
 _atom_site_fract_z
 _atom_site_occupancy
  Nb  Nb0  1  -0.00000000  -0.00000000  0.75000000  1
  Nb  Nb1  1  -0.00000000  -0.00000000  0.25000000  1
  Ag  Ag0  1  0.50000000  0.50000000  0.50000000  1
  Ag  Ag1  1  0.50000000  0.50000000  0.00000000  1
  F  F0  1  0.19493077  0.80560621  0.60537732  1
  F  F1  1  0.80506923  0.19439379  0.60537732  1
  F  F2  1  0.80560621  0.80506923  0.39462268  1
  F  F3  1  0.19439379  0.19493077  0.39462268  1
  F  F4  1  0.27363268  0.72636732  0.25000000  1
  F  F5  1  0.72636732  0.72636732  0.75000000  1
  F  F6  1  0.27363268  0.27363268  0.75000000  1
  F  F7  1  0.72636732  0.27363268  0.25000000  1
  F  F8  1  0.19493077  0.19439379  0.10537732  1
  F  F9  1  0.19439379  0.80506923  0.89462268  1
  F  F10  1  0.80560621  0.19493077  0.89462268  1
  F  F11  1  0.80506923  0.80560621  0.10537732  1
loop_
_geom_bond_atom_site_label_1
_geom_bond_atom_site_label_2
_geom_bond_distance
_geom_bond_site_symmetry_2
Ag0 F1 2.374015 1_555
Ag0 F2 2.374015 1_555
Ag0 F3 2.374015 1_555
Ag0 F0 2.374015 1_555
Ag1 F9 2.374015 1_554
Ag1 F11 2.374015 1_555
Ag1 F10 2.374015 1_554
Ag1 F8 2.374015 1_555
F0 Nb0 1.930312 1_565
F1 Nb0 1.930312 1_655
F2 Nb1 1.930312 1_665
F3 Nb1 1.930312 1_555
F4 Nb1 1.935421 1_565
F5 Nb0 1.935421 1_665
F6 Nb0 1.935421 1_555
F7 Nb1 1.935421 1_655
F8 Nb1 1.930312 1_555
F9 Nb0 1.930312 1_565
F10 Nb0 1.930312 1_655
F11 Nb1 1.930312 1_665
