# generated using pymatgen
data_V2MoRu
_symmetry_space_group_name_H-M   'P 1'
_cell_length_a   4.27500639
_cell_length_b   4.27500639
_cell_length_c   4.27500639
_cell_angle_alpha   60.00000000
_cell_angle_beta   60.00000000
_cell_angle_gamma   60.00000000
_symmetry_Int_Tables_number   1
_chemical_formula_structural   V2MoRu
_chemical_formula_sum   'V2 Mo1 Ru1'
_cell_volume   55.24529636
_cell_formula_units_Z   1
loop_
 _symmetry_equiv_pos_site_id
 _symmetry_equiv_pos_as_xyz
  1  'x, y, z'
loop_
 _atom_site_type_symbol
 _atom_site_label
 _atom_site_symmetry_multiplicity
 _atom_site_fract_x
 _atom_site_fract_y
 _atom_site_fract_z
 _atom_site_occupancy
  V  V0  1  -0.00000000  0.00000000  0.00000000  1
  V  V1  1  0.50000000  0.50000000  0.50000000  1
  Mo  Mo0  1  0.25000100  0.25000100  0.25000100  1
  Ru  Ru0  1  0.75000000  0.75000000  0.75000000  1
loop_
_geom_bond_atom_site_label_1
_geom_bond_atom_site_label_2
_geom_bond_distance
_geom_bond_site_symmetry_2
Mo0 V1 2.617886 1_555
Mo0 V0 2.617893 1_556
Mo0 V0 2.617893 1_655
Mo0 V0 2.617893 1_565
Mo0 V1 2.617900 1_554
Mo0 V1 2.617900 1_545
Mo0 V1 2.617900 1_455
Mo0 V0 2.617907 1_555
Ru0 V1 2.617896 1_655
Ru0 V0 2.617896 1_566
Ru0 V1 2.617896 1_565
Ru0 V0 2.617896 1_656
Ru0 V1 2.617896 1_556
Ru0 V0 2.617896 1_665
Ru0 V0 2.617896 1_666
Ru0 V1 2.617896 1_555
