# generated using pymatgen
data_SmOF
_symmetry_space_group_name_H-M   'P 1'
_cell_length_a   6.85072779
_cell_length_b   6.85072779
_cell_length_c   6.85072778
_cell_angle_alpha   33.06805663
_cell_angle_beta   33.06805663
_cell_angle_gamma   33.06804543
_symmetry_Int_Tables_number   1
_chemical_formula_structural   SmOF
_chemical_formula_sum   'Sm2 O2 F2'
_cell_volume   85.19420665
_cell_formula_units_Z   2
loop_
 _symmetry_equiv_pos_site_id
 _symmetry_equiv_pos_as_xyz
  1  'x, y, z'
loop_
 _atom_site_type_symbol
 _atom_site_label
 _atom_site_symmetry_multiplicity
 _atom_site_fract_x
 _atom_site_fract_y
 _atom_site_fract_z
 _atom_site_occupancy
  Sm  Sm0  1  0.75821910  0.75821910  0.75821910  1
  Sm  Sm1  1  0.24178090  0.24178090  0.24178090  1
  O  O0  1  0.87832229  0.87832229  0.87832229  1
  O  O1  1  0.12167771  0.12167771  0.12167771  1
  F  F0  1  0.36989293  0.36989293  0.36989293  1
  F  F1  1  0.63010707  0.63010707  0.63010707  1
loop_
_geom_bond_atom_site_label_1
_geom_bond_atom_site_label_2
_geom_bond_distance
_geom_bond_site_symmetry_2
O0 Sm1 2.325924 1_656
O0 Sm1 2.325924 1_566
O0 Sm1 2.325925 1_665
O0 Sm0 2.331303 1_555
O1 Sm0 2.325924 1_544
O1 Sm0 2.325924 1_454
O1 Sm0 2.325925 1_445
O1 Sm1 2.331303 1_555
F0 Sm1 2.486761 1_555
F0 Sm0 2.491475 1_455
F0 Sm0 2.491475 1_545
F0 Sm0 2.491476 1_554
F1 Sm0 2.486761 1_555
F1 Sm1 2.491475 1_565
F1 Sm1 2.491475 1_655
F1 Sm1 2.491476 1_556
