# generated using pymatgen
data_ScRu3
_symmetry_space_group_name_H-M   'P 1'
_cell_length_a   3.93843700
_cell_length_b   3.93843700
_cell_length_c   3.93843700
_cell_angle_alpha   90.00000000
_cell_angle_beta   90.00000000
_cell_angle_gamma   90.00000000
_symmetry_Int_Tables_number   1
_chemical_formula_structural   ScRu3
_chemical_formula_sum   'Sc1 Ru3'
_cell_volume   61.09022271
_cell_formula_units_Z   1
loop_
 _symmetry_equiv_pos_site_id
 _symmetry_equiv_pos_as_xyz
  1  'x, y, z'
loop_
 _atom_site_type_symbol
 _atom_site_label
 _atom_site_symmetry_multiplicity
 _atom_site_fract_x
 _atom_site_fract_y
 _atom_site_fract_z
 _atom_site_occupancy
  Sc  Sc0  1  0.00000000  0.00000000  0.00000000  1
  Ru  Ru0  1  0.00000000  0.50000000  0.50000000  1
  Ru  Ru1  1  0.50000000  0.00000000  0.50000000  1
  Ru  Ru2  1  0.50000000  0.50000000  0.00000000  1
loop_
_geom_bond_atom_site_label_1
_geom_bond_atom_site_label_2
_geom_bond_distance
_geom_bond_site_symmetry_2
Ru0 Sc0 2.784896 1_566
Ru0 Sc0 2.784896 1_555
Ru0 Sc0 2.784896 1_556
Ru0 Sc0 2.784896 1_565
Ru1 Sc0 2.784896 1_655
Ru1 Sc0 2.784896 1_555
Ru1 Sc0 2.784896 1_556
Ru1 Sc0 2.784896 1_656
Ru2 Sc0 2.784896 1_665
Ru2 Sc0 2.784896 1_655
Ru2 Sc0 2.784896 1_555
Ru2 Sc0 2.784896 1_565
