# generated using pymatgen
data_TiO2
_symmetry_space_group_name_H-M   'P 1'
_cell_length_a   2.96623767
_cell_length_b   4.88060049
_cell_length_c   9.45962772
_cell_angle_alpha   90.00000000
_cell_angle_beta   90.00000000
_cell_angle_gamma   90.00000000
_symmetry_Int_Tables_number   1
_chemical_formula_structural   TiO2
_chemical_formula_sum   'Ti4 O8'
_cell_volume   136.94722940
_cell_formula_units_Z   4
loop_
 _symmetry_equiv_pos_site_id
 _symmetry_equiv_pos_as_xyz
  1  'x, y, z'
loop_
 _atom_site_type_symbol
 _atom_site_label
 _atom_site_symmetry_multiplicity
 _atom_site_fract_x
 _atom_site_fract_y
 _atom_site_fract_z
 _atom_site_occupancy
  Ti  Ti0  1  0.25000000  0.57140664  0.63679105  1
  Ti  Ti1  1  0.75000000  0.42859336  0.36320895  1
  Ti  Ti2  1  0.75000000  0.07140664  0.86320895  1
  Ti  Ti3  1  0.25000000  0.92859336  0.13679105  1
  O  O0  1  0.25000000  0.29436994  0.47104498  1
  O  O1  1  0.75000000  0.70563006  0.52895502  1
  O  O2  1  0.75000000  0.79436994  0.02895502  1
  O  O3  1  0.25000000  0.20563006  0.97104498  1
  O  O4  1  0.25000000  0.63662486  0.26775868  1
  O  O5  1  0.75000000  0.36337514  0.73224132  1
  O  O6  1  0.75000000  0.13662486  0.23224132  1
  O  O7  1  0.25000000  0.86337514  0.76775868  1
loop_
_geom_bond_atom_site_label_1
_geom_bond_atom_site_label_2
_geom_bond_distance
_geom_bond_site_symmetry_2
O0 Ti1 1.915559 1_555
O0 Ti1 1.915559 1_455
O0 Ti0 2.070383 1_555
O1 Ti0 1.915559 1_655
O1 Ti0 1.915559 1_555
O1 Ti1 2.070383 1_555
O2 Ti3 1.915559 1_555
O2 Ti3 1.915559 1_655
O2 Ti2 2.070383 1_564
O3 Ti2 1.915559 1_455
O3 Ti2 1.915559 1_555
O3 Ti3 2.070383 1_546
O4 Ti3 1.888242 1_555
O4 Ti1 2.011414 1_455
O4 Ti1 2.011414 1_555
O5 Ti2 1.888242 1_555
O5 Ti0 2.011414 1_555
O5 Ti0 2.011414 1_655
O6 Ti1 1.888242 1_555
O6 Ti3 2.011414 1_645
O6 Ti3 2.011414 1_545
O7 Ti0 1.888242 1_555
O7 Ti2 2.011414 1_565
O7 Ti2 2.011414 1_465
