# generated using pymatgen
data_Sm(NiBi)2
_symmetry_space_group_name_H-M   'P 1'
_cell_length_a   4.64014100
_cell_length_b   4.64014100
_cell_length_c   10.15811400
_cell_angle_alpha   90.00000000
_cell_angle_beta   90.00000000
_cell_angle_gamma   90.00000000
_symmetry_Int_Tables_number   1
_chemical_formula_structural   Sm(NiBi)2
_chemical_formula_sum   'Sm2 Ni4 Bi4'
_cell_volume   218.71342307
_cell_formula_units_Z   2
loop_
 _symmetry_equiv_pos_site_id
 _symmetry_equiv_pos_as_xyz
  1  'x, y, z'
loop_
 _atom_site_type_symbol
 _atom_site_label
 _atom_site_symmetry_multiplicity
 _atom_site_fract_x
 _atom_site_fract_y
 _atom_site_fract_z
 _atom_site_occupancy
  Sm  Sm0  1  0.00000000  0.50000000  0.76986000  1
  Sm  Sm1  1  0.50000000  0.00000000  0.23014000  1
  Ni  Ni0  1  0.00000000  0.50000000  0.37490900  1
  Ni  Ni1  1  0.50000000  0.00000000  0.62509100  1
  Ni  Ni2  1  0.50000000  0.50000000  0.00000000  1
  Ni  Ni3  1  0.00000000  0.00000000  0.00000000  1
  Bi  Bi0  1  0.00000000  0.50000000  0.12548900  1
  Bi  Bi1  1  0.50000000  0.00000000  0.87451100  1
  Bi  Bi2  1  0.50000000  0.50000000  0.50000000  1
  Bi  Bi3  1  0.00000000  0.00000000  0.50000000  1
loop_
_geom_bond_atom_site_label_1
_geom_bond_atom_site_label_2
_geom_bond_distance
_geom_bond_site_symmetry_2
Ni0 Sm1 3.595561 1_555
Ni0 Sm1 3.595561 1_455
Ni0 Sm1 3.595561 1_465
Ni0 Sm1 3.595561 1_565
Ni1 Sm0 3.595561 1_645
Ni1 Sm0 3.595561 1_555
Ni1 Sm0 3.595561 1_655
Ni1 Sm0 3.595561 1_545
Ni2 Sm0 3.293627 1_554
Ni2 Sm1 3.293627 1_555
Ni2 Sm0 3.293627 1_654
Ni2 Sm1 3.293627 1_565
Ni3 Sm0 3.293627 1_554
Ni3 Sm1 3.293627 1_555
Ni3 Sm1 3.293627 1_455
Ni3 Sm0 3.293627 1_544
Bi0 Ni0 2.533637 1_555
Bi0 Ni2 2.647200 1_555
Bi0 Ni3 2.647200 1_555
Bi0 Ni2 2.647200 1_455
Bi0 Ni3 2.647200 1_565
Bi0 Sm1 3.448992 1_565
Bi0 Sm1 3.448992 1_465
Bi0 Sm1 3.448992 1_555
Bi0 Sm1 3.448992 1_455
Bi0 Sm0 3.612520 1_554
Bi1 Ni1 2.533637 1_555
Bi1 Ni2 2.647200 1_556
Bi1 Ni2 2.647200 1_546
Bi1 Ni3 2.647200 1_656
Bi1 Ni3 2.647200 1_556
Bi1 Sm0 3.448992 1_555
Bi1 Sm0 3.448992 1_545
Bi1 Sm0 3.448992 1_655
Bi1 Sm0 3.448992 1_645
Bi1 Sm1 3.612520 1_556
Bi2 Ni1 2.645256 1_565
Bi2 Ni1 2.645256 1_555
Bi2 Ni0 2.645256 1_555
Bi2 Ni0 2.645256 1_655
Bi2 Sm0 3.591278 1_655
Bi2 Sm1 3.591278 1_565
Bi2 Sm1 3.591278 1_555
Bi2 Sm0 3.591278 1_555
Bi3 Ni1 2.645256 1_555
Bi3 Ni1 2.645256 1_455
Bi3 Ni0 2.645256 1_555
Bi3 Ni0 2.645256 1_545
Bi3 Sm0 3.591278 1_545
Bi3 Sm1 3.591278 1_555
Bi3 Sm1 3.591278 1_455
Bi3 Sm0 3.591278 1_555
