# generated using pymatgen
data_LaF3
_symmetry_space_group_name_H-M   'P 1'
_cell_length_a   7.16720035
_cell_length_b   7.16720039
_cell_length_c   7.33175557
_cell_angle_alpha   90.00000000
_cell_angle_beta   90.00000000
_cell_angle_gamma   119.99999517
_symmetry_Int_Tables_number   1
_chemical_formula_structural   LaF3
_chemical_formula_sum   'La6 F18'
_cell_volume   326.16527508
_cell_formula_units_Z   6
loop_
 _symmetry_equiv_pos_site_id
 _symmetry_equiv_pos_as_xyz
  1  'x, y, z'
loop_
 _atom_site_type_symbol
 _atom_site_label
 _atom_site_symmetry_multiplicity
 _atom_site_fract_x
 _atom_site_fract_y
 _atom_site_fract_z
 _atom_site_occupancy
  La  La0  1  0.34180189  0.34180189  0.75000000  1
  La  La1  1  0.00000000  0.65819811  0.75000000  1
  La  La2  1  0.65819811  0.00000000  0.75000000  1
  La  La3  1  0.65819811  0.65819811  0.25000000  1
  La  La4  1  -0.00000000  0.34180189  0.25000000  1
  La  La5  1  0.34180189  -0.00000000  0.25000000  1
  F  F0  1  -0.00000000  -0.00000000  0.75000000  1
  F  F1  1  -0.00000000  -0.00000000  0.25000000  1
  F  F2  1  0.33333300  0.66666700  0.81773157  1
  F  F3  1  0.66666700  0.33333300  0.68226843  1
  F  F4  1  0.66666700  0.33333300  0.18226843  1
  F  F5  1  0.33333300  0.66666700  0.31773157  1
  F  F6  1  0.31185487  0.94404266  0.58139909  1
  F  F7  1  0.05595734  0.36781221  0.58139909  1
  F  F8  1  0.63218779  0.68814513  0.58139909  1
  F  F9  1  0.36781221  0.05595734  0.91860091  1
  F  F10  1  0.68814513  0.63218779  0.91860091  1
  F  F11  1  0.94404266  0.31185487  0.91860091  1
  F  F12  1  0.68814513  0.05595734  0.41860091  1
  F  F13  1  0.94404266  0.63218779  0.41860091  1
  F  F14  1  0.36781221  0.31185487  0.41860091  1
  F  F15  1  0.63218779  0.94404266  0.08139909  1
  F  F16  1  0.31185487  0.36781221  0.08139909  1
  F  F17  1  0.05595734  0.68814513  0.08139909  1
loop_
_geom_bond_atom_site_label_1
_geom_bond_atom_site_label_2
_geom_bond_distance
_geom_bond_site_symmetry_2
F0 La2 2.449763 1_455
F0 La1 2.449763 1_545
F0 La0 2.449763 1_555
F1 La5 2.449763 1_555
F1 La4 2.449763 1_555
F1 La3 2.449763 1_445
F2 La1 2.410996 1_555
F2 La2 2.411000 1_565
F2 La0 2.411003 1_555
F3 La2 2.410996 1_555
F3 La1 2.411000 1_655
F3 La0 2.411003 1_555
F4 La4 2.410996 1_655
F4 La5 2.411000 1_555
F4 La3 2.411003 1_555
F5 La5 2.410996 1_565
F5 La4 2.411000 1_555
F5 La3 2.411003 1_555
F6 La5 2.454477 1_565
F6 La1 2.478288 1_555
F6 La2 2.618246 1_565
F7 La4 2.454477 1_555
F7 La0 2.478288 1_555
F7 La1 2.618246 1_555
F8 La3 2.454477 1_555
F8 La2 2.478288 1_565
F8 La0 2.618246 1_555
F9 La5 2.454477 1_556
F9 La0 2.478288 1_555
F9 La2 2.618246 1_555
F10 La3 2.454477 1_556
F10 La1 2.478288 1_655
F10 La0 2.618246 1_555
F11 La4 2.454477 1_656
F11 La2 2.478288 1_555
F11 La1 2.618246 1_655
F12 La2 2.454477 1_555
F12 La4 2.478288 1_655
F12 La5 2.618246 1_555
F13 La1 2.454477 1_655
F13 La3 2.478288 1_555
F13 La4 2.618246 1_655
F14 La0 2.454477 1_555
F14 La5 2.478288 1_555
F14 La3 2.618246 1_555
F15 La2 2.454477 1_564
F15 La3 2.478288 1_555
F15 La5 2.618246 1_565
F16 La0 2.454477 1_554
F16 La4 2.478288 1_555
F16 La3 2.618246 1_555
F17 La1 2.454477 1_554
F17 La5 2.478288 1_565
F17 La4 2.618246 1_555
