# generated using pymatgen
data_Si3Ag
_symmetry_space_group_name_H-M   'P 1'
_cell_length_a   4.72100370
_cell_length_b   4.72100370
_cell_length_c   4.72100370
_cell_angle_alpha   127.67488881
_cell_angle_beta   127.67488881
_cell_angle_gamma   77.15229030
_symmetry_Int_Tables_number   1
_chemical_formula_structural   Si3Ag
_chemical_formula_sum   'Si3 Ag1'
_cell_volume   63.96847850
_cell_formula_units_Z   1
loop_
 _symmetry_equiv_pos_site_id
 _symmetry_equiv_pos_as_xyz
  1  'x, y, z'
loop_
 _atom_site_type_symbol
 _atom_site_label
 _atom_site_symmetry_multiplicity
 _atom_site_fract_x
 _atom_site_fract_y
 _atom_site_fract_z
 _atom_site_occupancy
  Si  Si0  1  0.75000000  0.25000000  0.50000000  1
  Si  Si1  1  0.25000000  0.75000000  0.50000000  1
  Si  Si2  1  0.50000000  0.50000000  0.00000000  1
  Ag  Ag0  1  0.00000000  0.00000000  0.00000000  1
loop_
_geom_bond_atom_site_label_1
_geom_bond_atom_site_label_2
_geom_bond_distance
_geom_bond_site_symmetry_2
Si0 Si2 2.781809 1_545
Si0 Si2 2.781809 1_556
Si0 Si2 2.781809 1_656
Si0 Si2 2.781809 1_555
Si1 Si2 2.781809 1_566
Si1 Si2 2.781809 1_556
Si1 Si2 2.781809 1_455
Si1 Si2 2.781809 1_555
Ag0 Si0 2.781809 1_555
Ag0 Si0 2.781809 1_454
Ag0 Si0 2.781809 1_455
Ag0 Si1 2.781809 1_444
Ag0 Si1 2.781809 1_544
Ag0 Si1 2.781809 1_545
Ag0 Si1 2.781809 1_555
Ag0 Si0 2.781809 1_444
Ag0 Si2 2.943801 1_545
Ag0 Si2 2.943801 1_556
Ag0 Si2 2.943801 1_455
Ag0 Si2 2.943801 1_444
