# generated using pymatgen
data_La3Er
_symmetry_space_group_name_H-M   'P 1'
_cell_length_a   6.41019179
_cell_length_b   6.41019179
_cell_length_c   6.41019179
_cell_angle_alpha   132.16119765
_cell_angle_beta   132.16119765
_cell_angle_gamma   69.97455157
_symmetry_Int_Tables_number   1
_chemical_formula_structural   La3Er
_chemical_formula_sum   'La3 Er1'
_cell_volume   141.89992247
_cell_formula_units_Z   1
loop_
 _symmetry_equiv_pos_site_id
 _symmetry_equiv_pos_as_xyz
  1  'x, y, z'
loop_
 _atom_site_type_symbol
 _atom_site_label
 _atom_site_symmetry_multiplicity
 _atom_site_fract_x
 _atom_site_fract_y
 _atom_site_fract_z
 _atom_site_occupancy
  La  La0  1  0.75000000  0.24999900  0.50000100  1
  La  La1  1  0.24999900  0.75000000  0.50000100  1
  La  La2  1  0.50000000  0.50000000  0.00000000  1
  Er  Er0  1  0.00000000  -0.00000000  0.00000000  1
loop_
_geom_bond_atom_site_label_1
_geom_bond_atom_site_label_2
_geom_bond_distance
_geom_bond_site_symmetry_2
La0 La1 3.675561 1_645
La0 La1 3.675569 1_656
La0 La1 3.675569 1_544
La0 La1 3.675576 1_555
La0 La2 3.694596 1_545
La0 La2 3.694596 1_556
La0 La2 3.694607 1_656
La0 La2 3.694614 1_555
La1 La2 3.694596 1_455
La1 La2 3.694596 1_556
La1 La2 3.694607 1_566
La1 La2 3.694614 1_555
Er0 La2 3.675569 1_556
Er0 La2 3.675569 1_545
Er0 La2 3.675569 1_444
Er0 La2 3.675569 1_455
Er0 La0 3.694592 1_454
Er0 La1 3.694592 1_544
Er0 La0 3.694599 1_555
Er0 La1 3.694599 1_555
Er0 La1 3.694610 1_545
Er0 La0 3.694610 1_455
Er0 La0 3.694610 1_444
Er0 La1 3.694610 1_444
