# generated using pymatgen
data_Tm5Sb3
_symmetry_space_group_name_H-M   'P 1'
_cell_length_a   8.82120290
_cell_length_b   8.82118243
_cell_length_c   6.20640502
_cell_angle_alpha   89.99905935
_cell_angle_beta   90.00040667
_cell_angle_gamma   120.00012847
_symmetry_Int_Tables_number   1
_chemical_formula_structural   Tm5Sb3
_chemical_formula_sum   'Tm10 Sb6'
_cell_volume   418.23926073
_cell_formula_units_Z   2
loop_
 _symmetry_equiv_pos_site_id
 _symmetry_equiv_pos_as_xyz
  1  'x, y, z'
loop_
 _atom_site_type_symbol
 _atom_site_label
 _atom_site_symmetry_multiplicity
 _atom_site_fract_x
 _atom_site_fract_y
 _atom_site_fract_z
 _atom_site_occupancy
  Tm  Tm0  1  0.33333612  0.66666630  -0.00000141  1
  Tm  Tm1  1  0.66667026  0.33333458  0.49999991  1
  Tm  Tm2  1  0.66666391  0.33333139  0.99999629  1
  Tm  Tm3  1  0.33332980  0.66666315  0.49999644  1
  Tm  Tm4  1  0.24688608  0.00000582  0.24999636  1
  Tm  Tm5  1  0.75312004  0.00000654  0.74999829  1
  Tm  Tm6  1  -0.00000404  0.24688086  0.24999751  1
  Tm  Tm7  1  0.75311882  0.75311431  0.24999662  1
  Tm  Tm8  1  0.24688621  0.24688068  0.74999806  1
  Tm  Tm9  1  -0.00000778  0.75311246  0.74999687  1
  Sb  Sb0  1  0.61177281  0.99999319  0.25001106  1
  Sb  Sb1  1  0.38821414  -0.00001395  0.74999297  1
  Sb  Sb2  1  0.00000919  0.61178580  0.24999238  1
  Sb  Sb3  1  0.38822224  0.38822341  0.25001093  1
  Sb  Sb4  1  0.61177454  0.61178290  0.74999309  1
  Sb  Sb5  1  0.00000467  0.38822255  0.75001164  1
loop_
_geom_bond_atom_site_label_1
_geom_bond_atom_site_label_2
_geom_bond_distance
_geom_bond_site_symmetry_2
Sb0 Tm6 3.002098 1_665
Sb0 Tm7 3.002100 1_555
Sb0 Tm3 3.140638 1_555
Sb0 Tm0 3.140719 1_555
Sb0 Tm1 3.140744 1_565
Sb0 Tm2 3.140773 1_564
Sb0 Tm4 3.218796 1_565
Sb0 Tm5 3.344221 1_565
Sb0 Tm5 3.344384 1_564
Sb1 Tm9 3.002070 1_545
Sb1 Tm8 3.002106 1_555
Sb1 Tm0 3.140641 1_546
Sb1 Tm3 3.140664 1_545
Sb1 Tm1 3.140787 1_555
Sb1 Tm2 3.140816 1_555
Sb1 Tm5 3.218819 1_555
Sb1 Tm4 3.344266 1_555
Sb1 Tm4 3.344322 1_556
Sb2 Tm4 3.002056 1_565
Sb2 Tm7 3.002077 1_455
Sb2 Tm3 3.140667 1_555
Sb2 Tm0 3.140687 1_555
Sb2 Tm1 3.140779 1_455
Sb2 Tm2 3.140802 1_454
Sb2 Tm6 3.218835 1_555
Sb2 Tm9 3.344239 1_554
Sb2 Tm9 3.344329 1_555
Sb3 Tm4 3.002046 1_555
Sb3 Tm6 3.002117 1_555
Sb3 Tm3 3.140680 1_555
Sb3 Tm1 3.140707 1_555
Sb3 Tm0 3.140713 1_555
Sb3 Tm2 3.140778 1_554
Sb3 Tm7 3.218792 1_555
Sb3 Tm8 3.344212 1_555
Sb3 Tm8 3.344382 1_554
Sb4 Tm9 3.002064 1_655
Sb4 Tm5 3.002084 1_565
Sb4 Tm3 3.140664 1_555
Sb4 Tm0 3.140683 1_556
Sb4 Tm2 3.140766 1_555
Sb4 Tm1 3.140785 1_555
Sb4 Tm8 3.218805 1_555
Sb4 Tm7 3.344261 1_555
Sb4 Tm7 3.344323 1_556
Sb5 Tm5 3.002039 1_455
Sb5 Tm8 3.002096 1_555
Sb5 Tm0 3.140678 1_556
Sb5 Tm3 3.140707 1_555
Sb5 Tm2 3.140735 1_455
Sb5 Tm1 3.140766 1_455
Sb5 Tm9 3.218815 1_555
Sb5 Tm6 3.344191 1_556
Sb5 Tm6 3.344391 1_555
