# generated using pymatgen
data_Ga3B
_symmetry_space_group_name_H-M   'P 1'
_cell_length_a   3.95994900
_cell_length_b   3.95994900
_cell_length_c   3.95994900
_cell_angle_alpha   90.00000000
_cell_angle_beta   90.00000000
_cell_angle_gamma   90.00000000
_symmetry_Int_Tables_number   1
_chemical_formula_structural   Ga3B
_chemical_formula_sum   'Ga3 B1'
_cell_volume   62.09673675
_cell_formula_units_Z   1
loop_
 _symmetry_equiv_pos_site_id
 _symmetry_equiv_pos_as_xyz
  1  'x, y, z'
loop_
 _atom_site_type_symbol
 _atom_site_label
 _atom_site_symmetry_multiplicity
 _atom_site_fract_x
 _atom_site_fract_y
 _atom_site_fract_z
 _atom_site_occupancy
  Ga  Ga0  1  0.00000000  0.50000000  0.50000000  1
  Ga  Ga1  1  0.50000000  0.00000000  0.50000000  1
  Ga  Ga2  1  0.50000000  0.50000000  0.00000000  1
  B  B0  1  0.00000000  0.00000000  0.00000000  1
loop_
_geom_bond_atom_site_label_1
_geom_bond_atom_site_label_2
_geom_bond_distance
_geom_bond_site_symmetry_2
Ga0 Ga1 2.800107 1_465
Ga0 Ga1 2.800107 1_455
Ga0 Ga2 2.800107 1_456
Ga0 Ga2 2.800107 1_555
Ga0 Ga1 2.800107 1_565
Ga0 Ga2 2.800107 1_556
Ga0 Ga2 2.800107 1_455
Ga0 Ga1 2.800107 1_555
Ga1 Ga2 2.800107 1_546
Ga1 Ga2 2.800107 1_545
Ga1 Ga2 2.800107 1_555
Ga1 Ga2 2.800107 1_556
B0 Ga0 2.800107 1_554
B0 Ga2 2.800107 1_545
B0 Ga1 2.800107 1_455
B0 Ga2 2.800107 1_445
B0 Ga0 2.800107 1_545
B0 Ga2 2.800107 1_555
B0 Ga1 2.800107 1_554
B0 Ga1 2.800107 1_454
B0 Ga0 2.800107 1_544
B0 Ga0 2.800107 1_555
B0 Ga2 2.800107 1_455
B0 Ga1 2.800107 1_555
