# generated using pymatgen
data_Sr(AuO2)2
_symmetry_space_group_name_H-M   'P 1'
_cell_length_a   6.21743169
_cell_length_b   6.21743081
_cell_length_c   6.73725229
_cell_angle_alpha   117.47890780
_cell_angle_beta   117.47890330
_cell_angle_gamma   89.99998936
_symmetry_Int_Tables_number   1
_chemical_formula_structural   Sr(AuO2)2
_chemical_formula_sum   'Sr2 Au4 O8'
_cell_volume   197.34614466
_cell_formula_units_Z   2
loop_
 _symmetry_equiv_pos_site_id
 _symmetry_equiv_pos_as_xyz
  1  'x, y, z'
loop_
 _atom_site_type_symbol
 _atom_site_label
 _atom_site_symmetry_multiplicity
 _atom_site_fract_x
 _atom_site_fract_y
 _atom_site_fract_z
 _atom_site_occupancy
  Sr  Sr0  1  0.12500000  0.37500000  0.25000000  1
  Sr  Sr1  1  0.87500000  0.62500000  0.75000000  1
  Au  Au0  1  0.50000000  0.00000000  0.50000000  1
  Au  Au1  1  0.50000000  0.50000000  0.00000000  1
  Au  Au2  1  -0.00000000  0.00000000  0.50000000  1
  Au  Au3  1  0.50000000  0.00000000  0.00000000  1
  O  O0  1  0.82453089  0.20431446  0.34598191  1
  O  O1  1  0.14166645  0.32453089  0.84598191  1
  O  O2  1  0.70431446  0.02145101  0.84598191  1
  O  O3  1  0.52145101  0.64166645  0.34598191  1
  O  O4  1  0.17546911  0.79568554  0.65401809  1
  O  O5  1  0.85833355  0.67546911  0.15401809  1
  O  O6  1  0.47854899  0.35833355  0.65401809  1
  O  O7  1  0.29568554  0.97854899  0.15401809  1
loop_
_geom_bond_atom_site_label_1
_geom_bond_atom_site_label_2
_geom_bond_distance
_geom_bond_site_symmetry_2
Au0 O7 2.011318 1_545
Au0 O2 2.011318 1_555
Au0 O6 2.013056 1_555
Au0 O3 2.013056 1_545
Au1 O3 2.011319 1_555
Au1 O6 2.011319 1_554
Au1 O1 2.013057 1_554
Au1 O5 2.013057 1_555
Au2 O1 2.011319 1_555
Au2 O5 2.011319 1_445
Au2 O4 2.013051 1_545
Au2 O0 2.013051 1_455
Au3 O0 2.011318 1_555
Au3 O4 2.011318 1_544
Au3 O7 2.013051 1_545
Au3 O2 2.013051 1_554
O0 Sr0 2.604317 1_655
O0 Sr1 2.643940 1_555
O1 Sr1 2.604313 1_455
O1 Sr0 2.643937 1_556
O2 Sr1 2.604316 1_545
O2 Sr0 2.643940 1_656
O3 Sr0 2.604314 1_555
O3 Sr1 2.643937 1_555
O4 Sr1 2.604317 1_455
O4 Sr0 2.643940 1_555
O5 Sr0 2.604313 1_655
O5 Sr1 2.643937 1_554
O6 Sr1 2.604314 1_555
O6 Sr0 2.643937 1_555
O7 Sr0 2.604316 1_565
O7 Sr1 2.643940 1_454
