# generated using pymatgen
data_Sr3(AlP2)2
_symmetry_space_group_name_H-M   'P 1'
_cell_length_a   6.68322625
_cell_length_b   8.33664027
_cell_length_c   8.33664020
_cell_angle_alpha   75.26538640
_cell_angle_beta   89.02841824
_cell_angle_gamma   89.02841797
_symmetry_Int_Tables_number   1
_chemical_formula_structural   Sr3(AlP2)2
_chemical_formula_sum   'Sr6 Al4 P8'
_cell_volume   449.10356802
_cell_formula_units_Z   2
loop_
 _symmetry_equiv_pos_site_id
 _symmetry_equiv_pos_as_xyz
  1  'x, y, z'
loop_
 _atom_site_type_symbol
 _atom_site_label
 _atom_site_symmetry_multiplicity
 _atom_site_fract_x
 _atom_site_fract_y
 _atom_site_fract_z
 _atom_site_occupancy
  Sr  Sr0  1  0.54369523  0.00793702  0.74694967  1
  Sr  Sr1  1  0.95630477  0.25305033  0.99206298  1
  Sr  Sr2  1  0.45630477  0.99206298  0.25305033  1
  Sr  Sr3  1  0.04369523  0.74694967  0.00793702  1
  Sr  Sr4  1  0.25000000  0.40160541  0.59839459  1
  Sr  Sr5  1  0.75000000  0.59839459  0.40160541  1
  Al  Al0  1  0.41948720  0.41804500  0.17180338  1
  Al  Al1  1  0.08051280  0.82819662  0.58195500  1
  Al  Al2  1  0.58051280  0.58195500  0.82819662  1
  Al  Al3  1  0.91948720  0.17180338  0.41804500  1
  P  P0  1  0.47594598  0.29664269  0.94118283  1
  P  P1  1  0.02405402  0.05881817  0.70335731  1
  P  P2  1  0.92097045  0.58229640  0.73980894  1
  P  P3  1  0.57902955  0.26019106  0.41770360  1
  P  P4  1  0.07902955  0.41770360  0.26019106  1
  P  P5  1  0.42097045  0.73980894  0.58229640  1
  P  P6  1  0.97594598  0.94118283  0.29664269  1
  P  P7  1  0.52405402  0.70335731  0.05881817  1
loop_
_geom_bond_atom_site_label_1
_geom_bond_atom_site_label_2
_geom_bond_distance
_geom_bond_site_symmetry_2
Al0 P4 2.379601 1_555
Al0 P3 2.392774 1_555
Al0 P0 2.411505 1_554
Al0 P7 2.434639 1_555
Al1 P5 2.379601 1_555
Al1 P2 2.392774 1_455
Al1 P1 2.411512 1_565
Al1 P6 2.434640 1_455
Al2 P2 2.379601 1_555
Al2 P5 2.392774 1_555
Al2 P7 2.411512 1_556
Al2 P0 2.434640 1_555
Al3 P3 2.379601 1_555
Al3 P4 2.392774 1_655
Al3 P6 2.411505 1_545
Al3 P1 2.434639 1_655
P0 Sr2 3.140989 1_546
P0 Sr4 3.168898 1_555
P0 Sr0 3.246615 1_555
P0 Sr1 3.247540 1_555
P0 Sr1 3.505327 1_455
P1 Sr3 3.140994 1_546
P1 Sr4 3.168891 1_555
P1 Sr1 3.246609 1_455
P1 Sr0 3.247541 1_455
P1 Sr0 3.505327 1_555
P2 Sr1 3.011771 1_555
P2 Sr5 3.030622 1_555
P2 Sr4 3.032751 1_655
P2 Sr3 3.035549 1_656
P3 Sr0 3.011771 1_555
P3 Sr5 3.030622 1_555
P3 Sr4 3.032751 1_555
P3 Sr2 3.035549 1_545
P4 Sr3 3.011771 1_555
P4 Sr4 3.030622 1_555
P4 Sr5 3.032751 1_455
P4 Sr1 3.035549 1_454
P5 Sr2 3.011771 1_555
P5 Sr4 3.030622 1_555
P5 Sr5 3.032751 1_555
P5 Sr0 3.035549 1_565
P6 Sr1 3.140989 1_564
P6 Sr5 3.168898 1_555
P6 Sr3 3.246615 1_655
P6 Sr2 3.247540 1_655
P6 Sr2 3.505327 1_555
P7 Sr0 3.140994 1_564
P7 Sr5 3.168891 1_555
P7 Sr2 3.246609 1_555
P7 Sr3 3.247541 1_555
P7 Sr3 3.505327 1_655
