# generated using pymatgen
data_Ba3NaRuO6
_symmetry_space_group_name_H-M   'P 1'
_cell_length_a   7.15853882
_cell_length_b   7.15853882
_cell_length_c   7.15853863
_cell_angle_alpha   91.51151631
_cell_angle_beta   91.51151631
_cell_angle_gamma   91.51151059
_symmetry_Int_Tables_number   1
_chemical_formula_structural   Ba3NaRuO6
_chemical_formula_sum   'Ba6 Na2 Ru2 O12'
_cell_volume   366.44720470
_cell_formula_units_Z   2
loop_
 _symmetry_equiv_pos_site_id
 _symmetry_equiv_pos_as_xyz
  1  'x, y, z'
loop_
 _atom_site_type_symbol
 _atom_site_label
 _atom_site_symmetry_multiplicity
 _atom_site_fract_x
 _atom_site_fract_y
 _atom_site_fract_z
 _atom_site_occupancy
  Ba  Ba0  1  0.10693000  0.75000000  0.39307000  1
  Ba  Ba1  1  0.39307000  0.10693000  0.75000000  1
  Ba  Ba2  1  0.89307000  0.25000000  0.60693000  1
  Ba  Ba3  1  0.60693000  0.89307000  0.25000000  1
  Ba  Ba4  1  0.75000000  0.39307000  0.10693000  1
  Ba  Ba5  1  0.25000000  0.60693000  0.89307000  1
  Na  Na0  1  0.25000000  0.25000000  0.25000000  1
  Na  Na1  1  0.75000000  0.75000000  0.75000000  1
  Ru  Ru0  1  0.00000000  0.00000000  0.00000000  1
  Ru  Ru1  1  0.50000000  0.50000000  0.50000000  1
  O  O0  1  0.44853500  0.76554000  0.58061200  1
  O  O1  1  0.58061200  0.44853500  0.76554000  1
  O  O2  1  0.76554000  0.58061200  0.44853500  1
  O  O3  1  0.05146500  0.91938800  0.73446000  1
  O  O4  1  0.73446000  0.05146500  0.91938800  1
  O  O5  1  0.91938800  0.73446000  0.05146500  1
  O  O6  1  0.55146500  0.23446000  0.41938800  1
  O  O7  1  0.41938800  0.55146500  0.23446000  1
  O  O8  1  0.23446000  0.41938800  0.55146500  1
  O  O9  1  0.94853500  0.08061200  0.26554000  1
  O  O10  1  0.08061200  0.26554000  0.94853500  1
  O  O11  1  0.26554000  0.94853500  0.08061200  1
loop_
_geom_bond_atom_site_label_1
_geom_bond_atom_site_label_2
_geom_bond_distance
_geom_bond_site_symmetry_2
Ba0 O3 2.742380 1_555
Ba0 O2 2.742381 1_455
Ba0 O5 2.756677 1_455
Ba0 O0 2.756677 1_555
Ba0 O9 2.814485 1_465
Ba0 O8 2.814485 1_555
Ba0 O7 2.920378 1_555
Ba0 O11 2.920378 1_555
Ba1 O0 2.742381 1_545
Ba1 O4 2.742381 1_555
Ba1 O3 2.756678 1_545
Ba1 O1 2.756678 1_555
Ba1 O11 2.814485 1_546
Ba1 O6 2.814485 1_555
Ba1 O8 2.920378 1_555
Ba1 O10 2.920378 1_555
Ba2 O9 2.742380 1_555
Ba2 O8 2.742381 1_655
Ba2 O10 2.756677 1_655
Ba2 O6 2.756677 1_555
Ba2 O3 2.814485 1_645
Ba2 O2 2.814485 1_555
Ba2 O1 2.920378 1_555
Ba2 O4 2.920378 1_555
Ba3 O6 2.742381 1_565
Ba3 O11 2.742381 1_555
Ba3 O9 2.756678 1_565
Ba3 O7 2.756678 1_555
Ba3 O0 2.814485 1_555
Ba3 O4 2.814485 1_564
Ba3 O5 2.920378 1_555
Ba3 O2 2.920378 1_555
Ba4 O1 2.742380 1_554
Ba4 O5 2.742381 1_555
Ba4 O2 2.756677 1_555
Ba4 O4 2.756677 1_554
Ba4 O7 2.814485 1_555
Ba4 O10 2.814485 1_654
Ba4 O9 2.920378 1_555
Ba4 O6 2.920378 1_555
Ba5 O7 2.742380 1_556
Ba5 O10 2.742381 1_555
Ba5 O8 2.756677 1_555
Ba5 O11 2.756677 1_556
Ba5 O1 2.814485 1_555
Ba5 O5 2.814485 1_456
Ba5 O3 2.920378 1_555
Ba5 O0 2.920378 1_555
Na0 O10 2.453897 1_554
Na0 O8 2.453897 1_555
Na0 O11 2.453897 1_545
Na0 O6 2.453897 1_555
Na0 O9 2.453897 1_455
Na0 O7 2.453897 1_555
Na1 O2 2.453897 1_555
Na1 O5 2.453897 1_556
Na1 O0 2.453897 1_555
Na1 O4 2.453897 1_565
Na1 O1 2.453897 1_555
Na1 O3 2.453897 1_655
O0 Ru1 2.018010 1_555
O1 Ru1 2.018010 1_555
O2 Ru1 2.018010 1_555
O3 Ru0 2.018010 1_566
O4 Ru0 2.018010 1_656
O5 Ru0 2.018010 1_665
O6 Ru1 2.018010 1_555
O7 Ru1 2.018010 1_555
O8 Ru1 2.018010 1_555
O9 Ru0 2.018010 1_655
O10 Ru0 2.018010 1_556
O11 Ru0 2.018010 1_565
