# generated using pymatgen
data_NbNiB
_symmetry_space_group_name_H-M   'P 1'
_cell_length_a   3.07139375
_cell_length_b   3.29028249
_cell_length_c   6.85003668
_cell_angle_alpha   103.89630218
_cell_angle_beta   90.00000000
_cell_angle_gamma   90.00000000
_symmetry_Int_Tables_number   1
_chemical_formula_structural   NbNiB
_chemical_formula_sum   'Nb2 Ni2 B2'
_cell_volume   67.19870737
_cell_formula_units_Z   2
loop_
 _symmetry_equiv_pos_site_id
 _symmetry_equiv_pos_as_xyz
  1  'x, y, z'
loop_
 _atom_site_type_symbol
 _atom_site_label
 _atom_site_symmetry_multiplicity
 _atom_site_fract_x
 _atom_site_fract_y
 _atom_site_fract_z
 _atom_site_occupancy
  Nb  Nb0  1  0.25000000  0.90092646  0.80185192  1
  Nb  Nb1  1  0.75000000  0.09907354  0.19814808  1
  Ni  Ni0  1  0.75000000  0.29467952  0.58935804  1
  Ni  Ni1  1  0.25000000  0.70532048  0.41064196  1
  B  B0  1  0.25000000  0.53458657  0.06917415  1
  B  B1  1  0.75000000  0.46541343  0.93082585  1
loop_
_geom_bond_atom_site_label_1
_geom_bond_atom_site_label_2
_geom_bond_distance
_geom_bond_site_symmetry_2
Nb0 Ni1 2.601370 1_555
Nb0 Ni0 2.657328 1_455
Nb0 Ni0 2.657328 1_555
Nb0 Ni0 2.657328 1_465
Nb0 Ni0 2.657328 1_565
Nb1 Ni0 2.601370 1_555
Nb1 Ni1 2.657328 1_655
Nb1 Ni1 2.657328 1_555
Nb1 Ni1 2.657328 1_545
Nb1 Ni1 2.657328 1_645
Ni0 Ni1 2.545014 1_555
Ni0 Ni1 2.545014 1_655
Ni0 Ni1 2.545018 1_645
Ni0 Ni1 2.545018 1_545
B0 B1 1.790162 1_454
B0 B1 1.790162 1_554
B0 Ni1 2.270607 1_555
B0 Nb1 2.408394 1_465
B0 Nb1 2.408394 1_565
B0 Nb1 2.408395 1_455
B0 Nb1 2.408395 1_555
B0 Nb0 2.422033 1_544
B0 Nb0 2.422037 1_554
B1 Ni0 2.270607 1_555
B1 Nb0 2.408394 1_645
B1 Nb0 2.408394 1_545
B1 Nb0 2.408395 1_555
B1 Nb0 2.408395 1_655
B1 Nb1 2.422033 1_566
B1 Nb1 2.422037 1_556
