# generated using pymatgen
data_UCoSi
_symmetry_space_group_name_H-M   'P 1'
_cell_length_a   4.09139314
_cell_length_b   4.09139314
_cell_length_c   7.02765400
_cell_angle_alpha   90.00000000
_cell_angle_beta   90.00000000
_cell_angle_gamma   121.76708553
_symmetry_Int_Tables_number   1
_chemical_formula_structural   UCoSi
_chemical_formula_sum   'U2 Co2 Si2'
_cell_volume   100.01646064
_cell_formula_units_Z   2
loop_
 _symmetry_equiv_pos_site_id
 _symmetry_equiv_pos_as_xyz
  1  'x, y, z'
loop_
 _atom_site_type_symbol
 _atom_site_label
 _atom_site_symmetry_multiplicity
 _atom_site_fract_x
 _atom_site_fract_y
 _atom_site_fract_z
 _atom_site_occupancy
  U  U0  1  0.00000000  0.00000000  0.50000000  1
  U  U1  1  0.00000000  0.00000000  0.00000000  1
  Co  Co0  1  0.65293600  0.34706400  0.25000000  1
  Co  Co1  1  0.34706400  0.65293600  0.75000000  1
  Si  Si0  1  0.67359400  0.32640600  0.75000000  1
  Si  Si1  1  0.32640600  0.67359400  0.25000000  1
loop_
_geom_bond_atom_site_label_1
_geom_bond_atom_site_label_2
_geom_bond_distance
_geom_bond_site_symmetry_2
Co0 Si1 2.334281 1_555
Co0 Si1 2.345459 1_655
Co0 Si1 2.345459 1_545
Co0 U0 2.871481 1_665
Co0 U1 2.871481 1_555
Co0 U1 2.871481 1_665
Co0 U0 2.871481 1_555
Co0 U1 3.040143 1_655
Co0 U0 3.040143 1_655
Co1 Si0 2.334281 1_555
Co1 Si0 2.345459 1_565
Co1 Si0 2.345459 1_455
Co1 U0 2.871481 1_665
Co1 U1 2.871481 1_666
Co1 U0 2.871481 1_555
Co1 U1 2.871481 1_556
Co1 U1 3.040143 1_566
Co1 U0 3.040143 1_565
Si0 U0 2.920869 1_655
Si0 U1 2.920869 1_656
Si0 U0 2.930891 1_555
Si0 U1 2.930891 1_556
Si0 U1 2.930891 1_666
Si0 U0 2.930891 1_665
Si1 U0 2.920869 1_565
Si1 U1 2.920869 1_565
Si1 U0 2.930891 1_555
Si1 U1 2.930891 1_555
Si1 U1 2.930891 1_665
Si1 U0 2.930891 1_665
