# generated using pymatgen
data_ZrNbTc2
_symmetry_space_group_name_H-M   'P 1'
_cell_length_a   4.56347717
_cell_length_b   4.56347717
_cell_length_c   4.56347717
_cell_angle_alpha   60.00000000
_cell_angle_beta   60.00000000
_cell_angle_gamma   60.00000000
_symmetry_Int_Tables_number   1
_chemical_formula_structural   ZrNbTc2
_chemical_formula_sum   'Zr1 Nb1 Tc2'
_cell_volume   67.20052217
_cell_formula_units_Z   1
loop_
 _symmetry_equiv_pos_site_id
 _symmetry_equiv_pos_as_xyz
  1  'x, y, z'
loop_
 _atom_site_type_symbol
 _atom_site_label
 _atom_site_symmetry_multiplicity
 _atom_site_fract_x
 _atom_site_fract_y
 _atom_site_fract_z
 _atom_site_occupancy
  Zr  Zr0  1  0.75000000  0.75000000  0.75000000  1
  Nb  Nb0  1  0.25000100  0.25000100  0.25000100  1
  Tc  Tc0  1  0.00000000  -0.00000000  0.00000000  1
  Tc  Tc1  1  0.50000000  0.50000000  0.50000000  1
loop_
_geom_bond_atom_site_label_1
_geom_bond_atom_site_label_2
_geom_bond_distance
_geom_bond_site_symmetry_2
Nb0 Tc1 2.794536 1_555
Nb0 Tc0 2.794544 1_565
Nb0 Tc0 2.794544 1_556
Nb0 Tc0 2.794544 1_655
Nb0 Tc1 2.794551 1_455
Nb0 Tc1 2.794551 1_554
Nb0 Tc1 2.794551 1_545
Nb0 Tc0 2.794559 1_555
Tc0 Zr0 2.794548 1_544
Tc0 Zr0 2.794548 1_444
Tc0 Zr0 2.794548 1_454
Tc0 Zr0 2.794548 1_445
Tc1 Zr0 2.794548 1_455
Tc1 Zr0 2.794548 1_555
Tc1 Zr0 2.794548 1_545
Tc1 Zr0 2.794548 1_554
