# generated using pymatgen
data_TiPtPb
_symmetry_space_group_name_H-M   'P 1'
_cell_length_a   4.50501407
_cell_length_b   4.50501407
_cell_length_c   4.50501407
_cell_angle_alpha   60.00000000
_cell_angle_beta   60.00000000
_cell_angle_gamma   60.00000000
_symmetry_Int_Tables_number   1
_chemical_formula_structural   TiPtPb
_chemical_formula_sum   'Ti1 Pt1 Pb1'
_cell_volume   64.65073371
_cell_formula_units_Z   1
loop_
 _symmetry_equiv_pos_site_id
 _symmetry_equiv_pos_as_xyz
  1  'x, y, z'
loop_
 _atom_site_type_symbol
 _atom_site_label
 _atom_site_symmetry_multiplicity
 _atom_site_fract_x
 _atom_site_fract_y
 _atom_site_fract_z
 _atom_site_occupancy
  Ti  Ti0  1  0.75000000  0.75000000  0.75000000  1
  Pt  Pt0  1  0.50000000  0.50000000  0.50000000  1
  Pb  Pb0  1  0.00000000  0.00000000  0.00000000  1
loop_
_geom_bond_atom_site_label_1
_geom_bond_atom_site_label_2
_geom_bond_distance
_geom_bond_site_symmetry_2
Pt0 Ti0 2.758746 1_545
Pt0 Ti0 2.758746 1_554
Pt0 Ti0 2.758746 1_455
Pt0 Ti0 2.758746 1_555
Pb0 Ti0 2.758746 1_445
Pb0 Ti0 2.758746 1_544
Pb0 Ti0 2.758746 1_444
Pb0 Ti0 2.758746 1_454
Pb0 Pt0 3.185526 1_445
Pb0 Pt0 3.185526 1_544
Pb0 Pt0 3.185526 1_545
Pb0 Pt0 3.185526 1_554
Pb0 Pt0 3.185526 1_455
Pb0 Pt0 3.185526 1_454
