# generated using pymatgen
data_Li(BH)5
_symmetry_space_group_name_H-M   'P 1'
_cell_length_a   7.08784267
_cell_length_b   7.08784267
_cell_length_c   14.98321400
_cell_angle_alpha   90.00000000
_cell_angle_beta   90.00000000
_cell_angle_gamma   120.00000622
_symmetry_Int_Tables_number   1
_chemical_formula_structural   Li(BH)5
_chemical_formula_sum   'Li6 B30 H30'
_cell_volume   651.87409715
_cell_formula_units_Z   6
loop_
 _symmetry_equiv_pos_site_id
 _symmetry_equiv_pos_as_xyz
  1  'x, y, z'
loop_
 _atom_site_type_symbol
 _atom_site_label
 _atom_site_symmetry_multiplicity
 _atom_site_fract_x
 _atom_site_fract_y
 _atom_site_fract_z
 _atom_site_occupancy
  Li  Li0  1  0.50000000  0.00000000  0.24086100  1
  Li  Li1  1  0.00000000  0.50000000  0.57419400  1
  Li  Li2  1  0.50000000  0.50000000  0.90752800  1
  Li  Li3  1  0.00000000  0.50000000  0.09247200  1
  Li  Li4  1  0.50000000  0.00000000  0.75913900  1
  Li  Li5  1  0.50000000  0.50000000  0.42580600  1
  B  B0  1  0.69756800  0.34878400  0.33333300  1
  B  B1  1  0.65121600  0.34878400  0.66666700  1
  B  B2  1  0.65121600  0.30243200  0.00000000  1
  B  B3  1  0.30243200  0.65121600  0.33333300  1
  B  B4  1  0.34878400  0.65121600  0.66666700  1
  B  B5  1  0.34878400  0.69756800  0.00000000  1
  B  B6  1  0.87611600  0.26980100  0.30047500  1
  B  B7  1  0.73019900  0.60631500  0.63380900  1
  B  B8  1  0.39368500  0.12388400  0.96714200  1
  B  B9  1  0.12388400  0.73019900  0.30047500  1
  B  B10  1  0.26980100  0.39368500  0.63380900  1
  B  B11  1  0.60631500  0.87611600  0.96714200  1
  B  B12  1  0.26980100  0.87611600  0.03285800  1
  B  B13  1  0.60631500  0.73019900  0.69952500  1
  B  B14  1  0.12388400  0.39368500  0.36619100  1
  B  B15  1  0.73019900  0.12388400  0.03285800  1
  B  B16  1  0.39368500  0.26980100  0.69952500  1
  B  B17  1  0.87611600  0.60631500  0.36619100  1
  B  B18  1  0.87942300  0.50971300  0.25334900  1
  B  B19  1  0.49028700  0.36971000  0.58668200  1
  B  B20  1  0.63029000  0.12057700  0.92001500  1
  B  B21  1  0.12057700  0.49028700  0.25334900  1
  B  B22  1  0.50971300  0.63029000  0.58668200  1
  B  B23  1  0.36971000  0.87942300  0.92001500  1
  B  B24  1  0.50971300  0.87942300  0.07998500  1
  B  B25  1  0.36971000  0.49028700  0.74665100  1
  B  B26  1  0.12057700  0.63029000  0.41331800  1
  B  B27  1  0.49028700  0.12057700  0.07998500  1
  B  B28  1  0.63029000  0.50971300  0.74665100  1
  B  B29  1  0.87942300  0.36971000  0.41331800  1
  H  H0  1  0.50096100  0.25048100  0.33333300  1
  H  H1  1  0.74951900  0.25048100  0.66666700  1
  H  H2  1  0.74951900  0.49903900  0.00000000  1
  H  H3  1  0.49903900  0.74951900  0.33333300  1
  H  H4  1  0.25048100  0.74951900  0.66666700  1
  H  H5  1  0.25048100  0.50096100  0.00000000  1
  H  H6  1  0.81837800  0.09086200  0.27090200  1
  H  H7  1  0.90913800  0.72751600  0.60423600  1
  H  H8  1  0.27248400  0.18162200  0.93756900  1
  H  H9  1  0.18162200  0.90913800  0.27090200  1
  H  H10  1  0.09086200  0.27248400  0.60423600  1
  H  H11  1  0.72751600  0.81837800  0.93756900  1
  H  H12  1  0.09086200  0.81837800  0.06243100  1
  H  H13  1  0.72751600  0.90913800  0.72909800  1
  H  H14  1  0.18162200  0.27248400  0.39576400  1
  H  H15  1  0.90913800  0.18162200  0.06243100  1
  H  H16  1  0.27248400  0.09086200  0.72909800  1
  H  H17  1  0.81837800  0.72751600  0.39576400  1
  H  H18  1  0.80764400  0.53744300  0.18496800  1
  H  H19  1  0.46255700  0.27020000  0.51830200  1
  H  H20  1  0.72980000  0.19235600  0.85163500  1
  H  H21  1  0.19235600  0.46255700  0.18496800  1
  H  H22  1  0.53744300  0.72980000  0.51830200  1
  H  H23  1  0.27020000  0.80764400  0.85163500  1
  H  H24  1  0.53744300  0.80764400  0.14836500  1
  H  H25  1  0.27020000  0.46255700  0.81503200  1
  H  H26  1  0.19235600  0.72980000  0.48169800  1
  H  H27  1  0.46255700  0.19235600  0.14836500  1
  H  H28  1  0.72980000  0.53744300  0.81503200  1
  H  H29  1  0.80764400  0.27020000  0.48169800  1
loop_
_geom_bond_atom_site_label_1
_geom_bond_atom_site_label_2
_geom_bond_distance
_geom_bond_site_symmetry_2
B0 H0 1.206823 1_555
B1 H1 1.206817 1_555
B2 H2 1.206823 1_555
B3 H3 1.206823 1_555
B4 H4 1.206817 1_555
B5 H5 1.206823 1_555
B6 H6 1.205546 1_555
B7 H7 1.205546 1_555
B8 H8 1.205547 1_555
B9 H9 1.205546 1_555
B10 H10 1.205546 1_555
B11 H11 1.205547 1_555
B12 H12 1.205546 1_555
B13 H13 1.205546 1_555
B14 H14 1.205547 1_555
B15 H15 1.205546 1_555
B16 H16 1.205546 1_555
B17 H17 1.205547 1_555
B18 H18 1.202995 1_555
B19 H19 1.202986 1_555
B20 H20 1.202985 1_555
B21 H21 1.202995 1_555
B22 H22 1.202986 1_555
B23 H23 1.202985 1_555
B24 H24 1.202982 1_555
B25 H25 1.202999 1_555
B26 H26 1.202985 1_555
B27 H27 1.202982 1_555
B28 H28 1.202999 1_555
B29 H29 1.202985 1_555
H0 Li0 2.249351 1_555
H0 Li5 2.249354 1_555
H1 Li4 2.249348 1_555
H1 Li1 2.249357 1_655
H2 Li2 2.249345 1_554
H2 Li3 2.249351 1_655
H3 Li0 2.249351 1_565
H3 Li5 2.249354 1_555
H4 Li4 2.249348 1_565
H4 Li1 2.249357 1_555
H5 Li2 2.249345 1_554
H5 Li3 2.249351 1_555
H6 Li0 2.063096 1_555
H7 Li1 2.063099 1_655
H8 Li2 2.063096 1_555
H9 Li0 2.063096 1_565
H10 Li1 2.063099 1_555
H11 Li2 2.063096 1_555
H12 Li3 2.063096 1_555
H13 Li4 2.063096 1_565
H14 Li5 2.063099 1_555
H15 Li3 2.063096 1_655
H16 Li4 2.063096 1_555
H17 Li5 2.063099 1_555
H18 Li3 2.052261 1_655
H19 Li5 2.052266 1_555
H20 Li4 2.052264 1_555
H21 Li3 2.052261 1_555
H22 Li5 2.052266 1_555
H23 Li4 2.052264 1_565
H24 Li0 2.052261 1_565
H25 Li2 2.052266 1_555
H26 Li1 2.052264 1_555
H27 Li0 2.052261 1_555
H28 Li2 2.052266 1_555
H29 Li1 2.052264 1_655
