# generated using pymatgen
data_La3Ir3O11
_symmetry_space_group_name_H-M   'P 1'
_cell_length_a   9.57647900
_cell_length_b   9.57647900
_cell_length_c   9.57647900
_cell_angle_alpha   90.00000000
_cell_angle_beta   90.00000000
_cell_angle_gamma   90.00000000
_symmetry_Int_Tables_number   1
_chemical_formula_structural   La3Ir3O11
_chemical_formula_sum   'La12 Ir12 O44'
_cell_volume   878.24883415
_cell_formula_units_Z   4
loop_
 _symmetry_equiv_pos_site_id
 _symmetry_equiv_pos_as_xyz
  1  'x, y, z'
loop_
 _atom_site_type_symbol
 _atom_site_label
 _atom_site_symmetry_multiplicity
 _atom_site_fract_x
 _atom_site_fract_y
 _atom_site_fract_z
 _atom_site_occupancy
  La  La0  1  0.75000000  0.75000000  0.75000000  1
  La  La1  1  0.25000000  0.25000000  0.75000000  1
  La  La2  1  0.75000000  0.25000000  0.25000000  1
  La  La3  1  0.25000000  0.75000000  0.25000000  1
  La  La4  1  0.13525700  0.13525700  0.13525700  1
  La  La5  1  0.86474300  0.86474300  0.13525700  1
  La  La6  1  0.13525700  0.86474300  0.86474300  1
  La  La7  1  0.86474300  0.13525700  0.86474300  1
  La  La8  1  0.36474300  0.36474300  0.36474300  1
  La  La9  1  0.63525700  0.63525700  0.36474300  1
  La  La10  1  0.36474300  0.63525700  0.63525700  1
  La  La11  1  0.63525700  0.36474300  0.63525700  1
  Ir  Ir0  1  0.15779300  0.50000000  0.00000000  1
  Ir  Ir1  1  0.00000000  0.15779300  0.50000000  1
  Ir  Ir2  1  0.50000000  0.00000000  0.15779300  1
  Ir  Ir3  1  0.00000000  0.84220700  0.50000000  1
  Ir  Ir4  1  0.50000000  0.00000000  0.84220700  1
  Ir  Ir5  1  0.84220700  0.50000000  0.00000000  1
  Ir  Ir6  1  0.34220700  0.00000000  0.50000000  1
  Ir  Ir7  1  0.50000000  0.34220700  0.00000000  1
  Ir  Ir8  1  0.00000000  0.50000000  0.34220700  1
  Ir  Ir9  1  0.50000000  0.65779300  0.00000000  1
  Ir  Ir10  1  0.00000000  0.50000000  0.65779300  1
  Ir  Ir11  1  0.65779300  0.00000000  0.50000000  1
  O  O0  1  0.83434700  0.50245400  0.20866800  1
  O  O1  1  0.83434700  0.49754600  0.79133200  1
  O  O2  1  0.16565300  0.50245400  0.79133200  1
  O  O3  1  0.49754600  0.79133200  0.83434700  1
  O  O4  1  0.79133200  0.16565300  0.50245400  1
  O  O5  1  0.79133200  0.83434700  0.49754600  1
  O  O6  1  0.50245400  0.20866800  0.83434700  1
  O  O7  1  0.20866800  0.83434700  0.50245400  1
  O  O8  1  0.50245400  0.79133200  0.16565300  1
  O  O9  1  0.49754600  0.20866800  0.16565300  1
  O  O10  1  0.20866800  0.16565300  0.49754600  1
  O  O11  1  0.16565300  0.49754600  0.20866800  1
  O  O12  1  0.66565300  0.99754600  0.29133200  1
  O  O13  1  0.66565300  0.00245400  0.70866800  1
  O  O14  1  0.33434700  0.99754600  0.70866800  1
  O  O15  1  0.00245400  0.70866800  0.66565300  1
  O  O16  1  0.39456700  0.60543300  0.39456700  1
  O  O17  1  0.70866800  0.33434700  0.99754600  1
  O  O18  1  0.99754600  0.29133200  0.66565300  1
  O  O19  1  0.29133200  0.66565300  0.99754600  1
  O  O20  1  0.99754600  0.70866800  0.33434700  1
  O  O21  1  0.00245400  0.29133200  0.33434700  1
  O  O22  1  0.29133200  0.33434700  0.00245400  1
  O  O23  1  0.33434700  0.00245400  0.29133200  1
  O  O24  1  0.36331700  0.00000000  0.00000000  1
  O  O25  1  0.00000000  0.36331700  0.00000000  1
  O  O26  1  0.00000000  0.00000000  0.36331700  1
  O  O27  1  0.00000000  0.63668300  0.00000000  1
  O  O28  1  0.00000000  0.00000000  0.63668300  1
  O  O29  1  0.63668300  0.00000000  0.00000000  1
  O  O30  1  0.13668300  0.50000000  0.50000000  1
  O  O31  1  0.50000000  0.13668300  0.50000000  1
  O  O32  1  0.50000000  0.50000000  0.13668300  1
  O  O33  1  0.50000000  0.86331700  0.50000000  1
  O  O34  1  0.50000000  0.50000000  0.86331700  1
  O  O35  1  0.86331700  0.50000000  0.50000000  1
  O  O36  1  0.89456700  0.89456700  0.89456700  1
  O  O37  1  0.10543300  0.10543300  0.89456700  1
  O  O38  1  0.89456700  0.10543300  0.10543300  1
  O  O39  1  0.10543300  0.89456700  0.10543300  1
  O  O40  1  0.60543300  0.60543300  0.60543300  1
  O  O41  1  0.39456700  0.39456700  0.60543300  1
  O  O42  1  0.60543300  0.39456700  0.39456700  1
  O  O43  1  0.70866800  0.66565300  0.00245400  1
loop_
_geom_bond_atom_site_label_1
_geom_bond_atom_site_label_2
_geom_bond_distance
_geom_bond_site_symmetry_2
La0 O36 2.397925 1_555
La0 O40 2.397925 1_555
La0 O43 2.579538 1_556
La0 O13 2.579538 1_565
La0 O1 2.579538 1_555
La0 O5 2.579538 1_555
La0 O15 2.579538 1_655
La0 O3 2.579538 1_555
La1 O37 2.397925 1_555
La1 O41 2.397925 1_555
La1 O6 2.579538 1_555
La1 O18 2.579538 1_455
La1 O22 2.579538 1_556
La1 O2 2.579538 1_555
La1 O14 2.579538 1_545
La1 O10 2.579538 1_555
La2 O38 2.397925 1_555
La2 O42 2.397925 1_555
La2 O12 2.579538 1_545
La2 O0 2.579538 1_555
La2 O4 2.579538 1_555
La2 O9 2.579538 1_555
La2 O21 2.579538 1_655
La2 O17 2.579538 1_554
La3 O16 2.397925 1_555
La3 O39 2.397925 1_555
La3 O7 2.579538 1_555
La3 O23 2.579538 1_565
La3 O19 2.579538 1_554
La3 O11 2.579538 1_555
La3 O8 2.579538 1_555
La3 O20 2.579538 1_455
La4 O37 2.340085 1_554
La4 O39 2.340085 1_545
La4 O38 2.340085 1_455
La4 O21 2.736141 1_555
La4 O23 2.736141 1_555
La4 O22 2.736141 1_555
La4 O25 2.850515 1_555
La4 O26 2.850515 1_555
La4 O24 2.850515 1_555
La5 O36 2.340085 1_554
La5 O38 2.340085 1_565
La5 O39 2.340085 1_655
La5 O12 2.736141 1_555
La5 O43 2.736141 1_555
La5 O20 2.736141 1_555
La5 O26 2.850515 1_665
La5 O29 2.850515 1_565
La5 O27 2.850515 1_655
La6 O36 2.340085 1_455
La6 O37 2.340085 1_565
La6 O39 2.340085 1_556
La6 O19 2.736141 1_555
La6 O15 2.736141 1_555
La6 O14 2.736141 1_555
La6 O28 2.850515 1_565
La6 O27 2.850515 1_556
La6 O24 2.850515 1_566
La7 O38 2.340085 1_556
La7 O36 2.340085 1_545
La7 O37 2.340085 1_655
La7 O18 2.736141 1_555
La7 O13 2.736141 1_555
La7 O17 2.736141 1_555
La7 O28 2.850515 1_655
La7 O29 2.850515 1_556
La7 O25 2.850515 1_656
La8 O16 2.340085 1_555
La8 O41 2.340085 1_555
La8 O42 2.340085 1_555
La8 O10 2.736141 1_555
La8 O9 2.736141 1_555
La8 O11 2.736141 1_555
La8 O32 2.850515 1_555
La8 O30 2.850515 1_555
La8 O31 2.850515 1_555
La9 O40 2.340085 1_555
La9 O42 2.340085 1_555
La9 O16 2.340085 1_555
La9 O5 2.736141 1_555
La9 O0 2.736141 1_555
La9 O8 2.736141 1_555
La9 O32 2.850515 1_555
La9 O35 2.850515 1_555
La9 O33 2.850515 1_555
La10 O16 2.340085 1_555
La10 O41 2.340085 1_555
La10 O40 2.340085 1_555
La10 O7 2.736141 1_555
La10 O2 2.736141 1_555
La10 O3 2.736141 1_555
La10 O30 2.850515 1_555
La10 O33 2.850515 1_555
La10 O34 2.850515 1_555
La11 O42 2.340085 1_555
La11 O41 2.340085 1_555
La11 O40 2.340085 1_555
La11 O1 2.736141 1_555
La11 O6 2.736141 1_555
La11 O4 2.736141 1_555
La11 O31 2.850515 1_555
La11 O35 2.850515 1_555
La11 O34 2.850515 1_555
Ir0 O25 1.999189 1_555
Ir0 O27 1.999189 1_555
Ir0 O2 1.999860 1_554
Ir0 O11 1.999860 1_555
Ir0 O22 2.037779 1_555
Ir0 O19 2.037779 1_554
Ir1 O28 1.999189 1_555
Ir1 O26 1.999189 1_555
Ir1 O4 1.999860 1_455
Ir1 O10 1.999860 1_555
Ir1 O21 2.037779 1_555
Ir1 O18 2.037779 1_455
Ir2 O29 1.999189 1_555
Ir2 O24 1.999189 1_555
Ir2 O8 1.999860 1_545
Ir2 O9 1.999860 1_555
Ir2 O23 2.037779 1_555
Ir2 O12 2.037779 1_545
Ir3 O28 1.999189 1_565
Ir3 O26 1.999189 1_565
Ir3 O5 1.999860 1_455
Ir3 O7 1.999860 1_555
Ir3 O20 2.037779 1_455
Ir3 O15 2.037779 1_555
Ir4 O29 1.999189 1_556
Ir4 O24 1.999189 1_556
Ir4 O3 1.999860 1_545
Ir4 O6 1.999860 1_555
Ir4 O14 2.037779 1_545
Ir4 O13 2.037779 1_555
Ir5 O25 1.999189 1_655
Ir5 O27 1.999189 1_655
Ir5 O1 1.999860 1_554
Ir5 O0 1.999860 1_555
Ir5 O17 2.037779 1_554
Ir5 O43 2.037779 1_555
Ir6 O31 1.999189 1_555
Ir6 O33 1.999189 1_545
Ir6 O14 1.999860 1_545
Ir6 O23 1.999860 1_555
Ir6 O10 2.037779 1_555
Ir6 O7 2.037779 1_545
Ir7 O34 1.999189 1_554
Ir7 O32 1.999189 1_555
Ir7 O17 1.999860 1_554
Ir7 O22 1.999860 1_555
Ir7 O9 2.037779 1_555
Ir7 O6 2.037779 1_554
Ir8 O30 1.999189 1_555
Ir8 O35 1.999189 1_455
Ir8 O20 1.999860 1_455
Ir8 O21 1.999860 1_555
Ir8 O11 2.037779 1_555
Ir8 O0 2.037779 1_455
Ir9 O32 1.999189 1_555
Ir9 O34 1.999189 1_554
Ir9 O43 1.999860 1_555
Ir9 O19 1.999860 1_554
Ir9 O8 2.037779 1_555
Ir9 O3 2.037779 1_554
Ir10 O30 1.999189 1_555
Ir10 O35 1.999189 1_455
Ir10 O15 1.999860 1_555
Ir10 O18 1.999860 1_455
Ir10 O2 2.037779 1_555
Ir10 O1 2.037779 1_455
Ir11 O33 1.999189 1_545
Ir11 O31 1.999189 1_555
Ir11 O13 1.999860 1_555
Ir11 O12 1.999860 1_545
Ir11 O4 2.037779 1_555
Ir11 O5 2.037779 1_545
