# generated using pymatgen
data_SmAl
_symmetry_space_group_name_H-M   'P 1'
_cell_length_a   5.90328411
_cell_length_b   11.64204767
_cell_length_c   5.69352338
_cell_angle_alpha   89.99985229
_cell_angle_beta   89.99964194
_cell_angle_gamma   89.99693841
_symmetry_Int_Tables_number   1
_chemical_formula_structural   SmAl
_chemical_formula_sum   'Sm8 Al8'
_cell_volume   391.29488109
_cell_formula_units_Z   8
loop_
 _symmetry_equiv_pos_site_id
 _symmetry_equiv_pos_as_xyz
  1  'x, y, z'
loop_
 _atom_site_type_symbol
 _atom_site_label
 _atom_site_symmetry_multiplicity
 _atom_site_fract_x
 _atom_site_fract_y
 _atom_site_fract_z
 _atom_site_occupancy
  Sm  Sm0  1  0.16509741  0.01153542  0.25000125  1
  Sm  Sm1  1  0.40702768  0.33405158  0.25000097  1
  Sm  Sm2  1  0.83492309  0.51154334  0.25000079  1
  Sm  Sm3  1  0.59297431  0.83402929  0.25000094  1
  Sm  Sm4  1  0.40702187  0.16596039  0.75000130  1
  Sm  Sm5  1  0.16507476  0.48847208  0.74999928  1
  Sm  Sm6  1  0.59296873  0.66595691  0.74999955  1
  Sm  Sm7  1  0.83489483  0.98844623  0.75000171  1
  Al  Al0  1  0.93089850  0.25000589  -0.00000496  1
  Al  Al1  1  0.06912969  0.75000169  0.99999797  1
  Al  Al2  1  0.66790877  0.10090580  0.25000257  1
  Al  Al3  1  0.33209968  0.60090961  0.24999621  1
  Al  Al4  1  0.93089868  0.25000573  0.50000868  1
  Al  Al5  1  0.06909667  0.74999186  0.49999287  1
  Al  Al6  1  0.66790098  0.39909262  0.75000176  1
  Al  Al7  1  0.33208437  0.89908956  0.75000111  1
loop_
_geom_bond_atom_site_label_1
_geom_bond_atom_site_label_2
_geom_bond_distance
_geom_bond_site_symmetry_2
Sm0 Sm3 3.263445 1_545
Sm0 Sm7 3.460635 1_445
Sm0 Sm7 3.460652 1_444
Sm0 Sm4 3.657325 1_554
Sm0 Sm4 3.657346 1_555
Sm0 Sm3 3.959568 1_445
Sm0 Sm1 4.017265 1_555
Sm1 Sm2 3.263594 1_555
Sm1 Sm4 3.454503 1_555
Sm1 Sm4 3.454508 1_554
Sm1 Sm5 3.657290 1_555
Sm1 Sm5 3.657311 1_554
Sm1 Sm2 3.959199 1_455
Sm2 Sm5 3.460440 1_654
Sm2 Sm5 3.460445 1_655
Sm2 Sm6 3.657255 1_555
Sm2 Sm6 3.657273 1_554
Sm2 Sm3 4.016832 1_555
Sm3 Sm6 3.454371 1_555
Sm3 Sm6 3.454392 1_554
Sm3 Sm7 3.657266 1_554
Sm3 Sm7 3.657294 1_555
Sm4 Sm7 3.263486 1_545
Sm4 Sm7 3.959637 1_445
Sm4 Sm5 4.017109 1_555
Sm5 Sm6 3.263537 1_555
Sm5 Sm6 3.959164 1_455
Sm6 Sm7 4.016964 1_555
Al0 Al6 2.729214 1_554
Al0 Al2 2.729424 1_555
Al0 Al4 2.846684 1_554
Al0 Al4 2.846839 1_555
Al0 Sm4 3.298931 1_654
Al0 Sm1 3.299096 1_655
Al0 Sm2 3.408509 1_555
Al0 Sm7 3.408795 1_544
Al0 Sm5 3.412454 1_654
Al0 Sm0 3.412461 1_655
Al0 Sm1 3.542181 1_555
Al0 Sm4 3.542289 1_554
Al1 Al3 2.729175 1_556
Al1 Al7 2.729184 1_555
Al1 Al5 2.846733 1_556
Al1 Al5 2.846791 1_555
Al1 Sm3 3.299053 1_456
Al1 Sm6 3.299234 1_455
Al1 Sm5 3.408381 1_555
Al1 Sm0 3.408514 1_566
Al1 Sm7 3.412277 1_455
Al1 Sm2 3.412469 1_456
Al1 Sm6 3.541997 1_555
Al1 Sm3 3.542088 1_556
Al2 Al4 2.729434 1_555
Al2 Sm0 3.113954 1_655
Al2 Sm1 3.120692 1_555
Al2 Sm3 3.138345 1_545
Al2 Sm0 3.145364 1_555
Al2 Sm7 3.284783 1_545
Al2 Sm7 3.284786 1_544
Al2 Sm4 3.324053 1_555
Al2 Sm4 3.324078 1_554
Al3 Al5 2.729203 1_555
Al3 Sm2 3.113976 1_455
Al3 Sm3 3.120552 1_555
Al3 Sm1 3.138080 1_555
Al3 Sm2 3.145310 1_555
Al3 Sm5 3.284786 1_554
Al3 Sm5 3.284800 1_555
Al3 Sm6 3.324008 1_554
Al3 Sm6 3.324061 1_555
Al4 Al6 2.729209 1_555
Al4 Sm4 3.298940 1_655
Al4 Sm1 3.299082 1_655
Al4 Sm2 3.408512 1_555
Al4 Sm7 3.408784 1_545
Al4 Sm5 3.412456 1_655
Al4 Sm0 3.412460 1_655
Al4 Sm1 3.542200 1_555
Al4 Sm4 3.542270 1_555
Al5 Al7 2.729416 1_555
Al5 Sm3 3.298907 1_455
Al5 Sm6 3.299037 1_455
Al5 Sm5 3.408326 1_555
Al5 Sm0 3.408611 1_565
Al5 Sm2 3.412285 1_455
Al5 Sm7 3.412320 1_455
Al5 Sm6 3.542168 1_555
Al5 Sm3 3.542247 1_555
Al6 Sm5 3.114012 1_655
Al6 Sm4 3.120692 1_555
Al6 Sm6 3.138156 1_555
Al6 Sm5 3.145377 1_555
Al6 Sm2 3.284846 1_555
Al6 Sm2 3.284853 1_556
Al6 Sm1 3.324016 1_556
Al6 Sm1 3.324043 1_555
Al7 Sm7 3.113906 1_455
Al7 Sm6 3.120568 1_555
Al7 Sm4 3.138282 1_565
Al7 Sm7 3.145306 1_555
Al7 Sm0 3.284721 1_566
Al7 Sm0 3.284724 1_565
Al7 Sm3 3.324083 1_555
Al7 Sm3 3.324094 1_556
