# generated using pymatgen
data_Lu2AgPt
_symmetry_space_group_name_H-M   'P 1'
_cell_length_a   4.87663234
_cell_length_b   4.87663154
_cell_length_c   4.87663216
_cell_angle_alpha   59.99996422
_cell_angle_beta   59.99995933
_cell_angle_gamma   59.99996652
_symmetry_Int_Tables_number   1
_chemical_formula_structural   Lu2AgPt
_chemical_formula_sum   'Lu2 Ag1 Pt1'
_cell_volume   82.00580526
_cell_formula_units_Z   1
loop_
 _symmetry_equiv_pos_site_id
 _symmetry_equiv_pos_as_xyz
  1  'x, y, z'
loop_
 _atom_site_type_symbol
 _atom_site_label
 _atom_site_symmetry_multiplicity
 _atom_site_fract_x
 _atom_site_fract_y
 _atom_site_fract_z
 _atom_site_occupancy
  Lu  Lu0  1  -0.00000029  -0.00000004  0.00000014  1
  Lu  Lu1  1  0.49999941  0.49999914  0.49999917  1
  Ag  Ag0  1  0.25000092  0.25000087  0.25000081  1
  Pt  Pt0  1  0.74999995  0.75000003  0.74999988  1
loop_
_geom_bond_atom_site_label_1
_geom_bond_atom_site_label_2
_geom_bond_distance
_geom_bond_site_symmetry_2
Lu0 Pt0 2.986313 1_445
Lu0 Pt0 2.986314 1_454
Lu0 Pt0 2.986315 1_544
Lu0 Pt0 2.986316 1_444
Lu1 Pt0 2.986310 1_545
Lu1 Pt0 2.986311 1_554
Lu1 Pt0 2.986312 1_455
Lu1 Pt0 2.986324 1_555
Ag0 Lu1 2.986296 1_555
Ag0 Lu0 2.986309 1_655
Ag0 Lu0 2.986310 1_565
Ag0 Lu0 2.986311 1_556
Ag0 Lu1 2.986320 1_455
Ag0 Lu1 2.986320 1_554
Ag0 Lu1 2.986320 1_545
Ag0 Lu0 2.986327 1_555
