# generated using pymatgen
data_YErHg2
_symmetry_space_group_name_H-M   'P 1'
_cell_length_a   5.20402756
_cell_length_b   5.20402756
_cell_length_c   5.20402756
_cell_angle_alpha   60.00000000
_cell_angle_beta   60.00000000
_cell_angle_gamma   60.00000000
_symmetry_Int_Tables_number   1
_chemical_formula_structural   YErHg2
_chemical_formula_sum   'Y1 Er1 Hg2'
_cell_volume   99.65607236
_cell_formula_units_Z   1
loop_
 _symmetry_equiv_pos_site_id
 _symmetry_equiv_pos_as_xyz
  1  'x, y, z'
loop_
 _atom_site_type_symbol
 _atom_site_label
 _atom_site_symmetry_multiplicity
 _atom_site_fract_x
 _atom_site_fract_y
 _atom_site_fract_z
 _atom_site_occupancy
  Y  Y0  1  0.74999900  0.74999900  0.74999900  1
  Er  Er0  1  0.24999900  0.24999900  0.24999900  1
  Hg  Hg0  1  0.00000000  0.00000000  0.00000000  1
  Hg  Hg1  1  0.50000000  0.50000000  0.50000000  1
loop_
_geom_bond_atom_site_label_1
_geom_bond_atom_site_label_2
_geom_bond_distance
_geom_bond_site_symmetry_2
Er0 Hg0 3.186790 1_555
Er0 Hg1 3.186799 1_554
Er0 Hg1 3.186799 1_545
Er0 Hg1 3.186799 1_455
Er0 Hg0 3.186807 1_655
Er0 Hg0 3.186807 1_556
Er0 Hg0 3.186807 1_565
Er0 Hg1 3.186816 1_555
Hg0 Y0 3.186799 1_544
Hg0 Y0 3.186799 1_454
Hg0 Y0 3.186799 1_445
Hg0 Y0 3.186816 1_444
Hg1 Y0 3.186790 1_555
Hg1 Y0 3.186807 1_554
Hg1 Y0 3.186807 1_455
Hg1 Y0 3.186807 1_545
