# generated using pymatgen
data_Ca3Tl
_symmetry_space_group_name_H-M   'P 1'
_cell_length_a   7.37583855
_cell_length_b   7.37584117
_cell_length_c   5.56869796
_cell_angle_alpha   90.00000000
_cell_angle_beta   90.00000000
_cell_angle_gamma   120.00001027
_symmetry_Int_Tables_number   1
_chemical_formula_structural   Ca3Tl
_chemical_formula_sum   'Ca6 Tl2'
_cell_volume   262.36579060
_cell_formula_units_Z   2
loop_
 _symmetry_equiv_pos_site_id
 _symmetry_equiv_pos_as_xyz
  1  'x, y, z'
loop_
 _atom_site_type_symbol
 _atom_site_label
 _atom_site_symmetry_multiplicity
 _atom_site_fract_x
 _atom_site_fract_y
 _atom_site_fract_z
 _atom_site_occupancy
  Ca  Ca0  1  0.17632886  0.35265571  0.25000000  1
  Ca  Ca1  1  0.64734529  0.82367114  0.25000000  1
  Ca  Ca2  1  0.17632786  0.82367114  0.25000000  1
  Ca  Ca3  1  0.82367114  0.64734429  0.74999900  1
  Ca  Ca4  1  0.35265471  0.17632886  0.74999900  1
  Ca  Ca5  1  0.82367214  0.17632786  0.74999900  1
  Tl  Tl0  1  0.33333300  0.66666700  0.74999900  1
  Tl  Tl1  1  0.66666700  0.33333300  0.25000000  1
loop_
_geom_bond_atom_site_label_1
_geom_bond_atom_site_label_2
_geom_bond_distance
_geom_bond_site_symmetry_2
Ca0 Tl0 3.431588 1_555
Ca0 Tl0 3.431597 1_554
Ca0 Ca1 3.474138 1_555
Ca0 Ca2 3.474139 1_555
Ca0 Ca4 3.581466 1_555
Ca0 Ca4 3.581475 1_554
Ca0 Ca5 3.581482 1_455
Ca0 Ca5 3.581490 1_454
Ca0 Tl1 3.689980 1_555
Ca0 Tl1 3.689988 1_455
Ca0 Ca1 3.901701 1_445
Ca0 Ca2 3.901702 1_545
Ca1 Tl0 3.431592 1_555
Ca1 Tl0 3.431601 1_554
Ca1 Ca2 3.474149 1_555
Ca1 Ca3 3.581466 1_555
Ca1 Ca3 3.581475 1_554
Ca1 Ca5 3.581482 1_565
Ca1 Ca5 3.581491 1_564
Ca1 Tl1 3.689978 1_555
Ca1 Tl1 3.689993 1_565
Ca1 Ca2 3.901690 1_655
Ca2 Tl0 3.431581 1_555
Ca2 Tl0 3.431590 1_554
Ca2 Ca3 3.581482 1_455
Ca2 Ca4 3.581486 1_565
Ca2 Ca3 3.581490 1_454
Ca2 Ca4 3.581495 1_564
Ca2 Tl1 3.689980 1_455
Ca2 Tl1 3.689988 1_565
Ca3 Tl1 3.431588 1_555
Ca3 Tl1 3.431597 1_556
Ca3 Ca4 3.474138 1_555
Ca3 Ca5 3.474146 1_555
Ca3 Tl0 3.689980 1_555
Ca3 Tl0 3.689988 1_655
Ca3 Ca5 3.901695 1_565
Ca3 Ca4 3.901701 1_665
Ca4 Tl1 3.431592 1_555
Ca4 Tl1 3.431601 1_556
Ca4 Ca5 3.474152 1_555
Ca4 Tl0 3.689978 1_555
Ca4 Tl0 3.689993 1_545
Ca4 Ca5 3.901686 1_455
Ca5 Tl1 3.431584 1_555
Ca5 Tl1 3.431593 1_556
Ca5 Tl0 3.689984 1_655
Ca5 Tl0 3.689984 1_545
