# generated using pymatgen
data_FeSbPt
_symmetry_space_group_name_H-M   'P 1'
_cell_length_a   5.04569000
_cell_length_b   7.13568400
_cell_length_c   7.13568347
_cell_angle_alpha   120.00000248
_cell_angle_beta   90.00000000
_cell_angle_gamma   90.00000000
_symmetry_Int_Tables_number   1
_chemical_formula_structural   FeSbPt
_chemical_formula_sum   'Fe4 Sb4 Pt4'
_cell_volume   222.49608389
_cell_formula_units_Z   4
loop_
 _symmetry_equiv_pos_site_id
 _symmetry_equiv_pos_as_xyz
  1  'x, y, z'
loop_
 _atom_site_type_symbol
 _atom_site_label
 _atom_site_symmetry_multiplicity
 _atom_site_fract_x
 _atom_site_fract_y
 _atom_site_fract_z
 _atom_site_occupancy
  Fe  Fe0  1  0.38359100  0.61640900  0.00000000  1
  Fe  Fe1  1  0.62083200  0.12496800  0.24845800  1
  Fe  Fe2  1  0.87503200  0.87651000  0.49734200  1
  Fe  Fe3  1  0.12349000  0.37916800  0.25420000  1
  Sb  Sb0  1  0.87588700  0.62455100  0.75140100  1
  Sb  Sb1  1  0.37544900  0.87315000  0.74903700  1
  Sb  Sb2  1  0.61276600  0.38723400  0.00000000  1
  Sb  Sb3  1  0.12685000  0.12411300  0.49956200  1
  Pt  Pt0  1  0.52107900  0.97169300  0.44869700  1
  Pt  Pt1  1  0.02830700  0.52299500  0.04407400  1
  Pt  Pt2  1  0.97921400  0.02078600  0.00000000  1
  Pt  Pt3  1  0.47700500  0.47892100  0.50722800  1
loop_
_geom_bond_atom_site_label_1
_geom_bond_atom_site_label_2
_geom_bond_distance
_geom_bond_site_symmetry_2
Fe0 Pt1 1.991600 1_555
Fe0 Sb2 2.002850 1_555
Fe0 Pt0 3.007099 1_555
Fe1 Pt0 2.248090 1_545
Fe1 Pt2 2.376507 1_555
Fe1 Pt3 2.377322 1_555
Fe2 Pt0 2.001781 1_555
Fe2 Sb3 2.169866 1_665
Fe2 Pt1 3.043637 1_655
Fe3 Pt1 2.251880 1_555
Fe3 Pt3 2.379726 1_555
Fe3 Pt2 2.391917 1_455
Pt0 Sb3 2.208313 1_565
Pt0 Sb1 2.671027 1_555
Pt1 Sb2 2.264691 1_455
Pt1 Sb0 2.644151 1_454
Pt2 Sb0 2.529278 1_544
Pt2 Sb1 2.535214 1_644
Pt3 Sb1 2.509862 1_555
Pt3 Sb0 2.521059 1_555
