# generated using pymatgen
data_LiTaIr2
_symmetry_space_group_name_H-M   'P 1'
_cell_length_a   4.33006788
_cell_length_b   4.33006788
_cell_length_c   4.33006788
_cell_angle_alpha   60.00000000
_cell_angle_beta   60.00000000
_cell_angle_gamma   60.00000000
_symmetry_Int_Tables_number   1
_chemical_formula_structural   LiTaIr2
_chemical_formula_sum   'Li1 Ta1 Ir2'
_cell_volume   57.40756359
_cell_formula_units_Z   1
loop_
 _symmetry_equiv_pos_site_id
 _symmetry_equiv_pos_as_xyz
  1  'x, y, z'
loop_
 _atom_site_type_symbol
 _atom_site_label
 _atom_site_symmetry_multiplicity
 _atom_site_fract_x
 _atom_site_fract_y
 _atom_site_fract_z
 _atom_site_occupancy
  Li  Li0  1  0.24999900  0.24999900  0.24999900  1
  Ta  Ta0  1  0.75000000  0.75000000  0.75000000  1
  Ir  Ir0  1  -0.00000000  0.00000000  -0.00000000  1
  Ir  Ir1  1  0.50000000  0.50000000  0.50000000  1
loop_
_geom_bond_atom_site_label_1
_geom_bond_atom_site_label_2
_geom_bond_distance
_geom_bond_site_symmetry_2
Ir0 Li0 2.651604 1_555
Ir0 Ta0 2.651614 1_454
Ir0 Ta0 2.651614 1_544
Ir0 Ta0 2.651614 1_444
Ir0 Ta0 2.651614 1_445
Ir0 Li0 2.651618 1_554
Ir0 Li0 2.651618 1_545
Ir0 Li0 2.651618 1_455
Ir1 Li0 2.651611 1_556
Ir1 Li0 2.651611 1_565
Ir1 Li0 2.651611 1_655
Ir1 Ta0 2.651614 1_455
Ir1 Ta0 2.651614 1_545
Ir1 Ta0 2.651614 1_555
Ir1 Ta0 2.651614 1_554
Ir1 Li0 2.651625 1_555
