# generated using pymatgen
data_LiLa2Al
_symmetry_space_group_name_H-M   'P 1'
_cell_length_a   5.43322423
_cell_length_b   5.43322423
_cell_length_c   5.43322423
_cell_angle_alpha   60.00000000
_cell_angle_beta   60.00000000
_cell_angle_gamma   60.00000000
_symmetry_Int_Tables_number   1
_chemical_formula_structural   LiLa2Al
_chemical_formula_sum   'Li1 La2 Al1'
_cell_volume   113.41170765
_cell_formula_units_Z   1
loop_
 _symmetry_equiv_pos_site_id
 _symmetry_equiv_pos_as_xyz
  1  'x, y, z'
loop_
 _atom_site_type_symbol
 _atom_site_label
 _atom_site_symmetry_multiplicity
 _atom_site_fract_x
 _atom_site_fract_y
 _atom_site_fract_z
 _atom_site_occupancy
  Li  Li0  1  0.75000000  0.75000000  0.75000000  1
  La  La0  1  -0.00000000  -0.00000000  -0.00000000  1
  La  La1  1  0.50000000  0.50000000  0.50000000  1
  Al  Al0  1  0.25000000  0.25000000  0.25000000  1
loop_
_geom_bond_atom_site_label_1
_geom_bond_atom_site_label_2
_geom_bond_distance
_geom_bond_site_symmetry_2
La0 Li0 3.327157 1_544
La0 Li0 3.327157 1_444
La0 Li0 3.327157 1_445
La0 Li0 3.327157 1_454
La1 Li0 3.327157 1_555
La1 Li0 3.327157 1_554
La1 Li0 3.327157 1_455
La1 Li0 3.327157 1_545
Al0 La0 3.327157 1_565
Al0 La0 3.327157 1_555
Al0 La0 3.327157 1_655
Al0 La1 3.327157 1_455
Al0 La1 3.327157 1_555
Al0 La1 3.327157 1_545
Al0 La0 3.327157 1_556
Al0 La1 3.327157 1_554
