# generated using pymatgen
data_YHo3
_symmetry_space_group_name_H-M   'P 1'
_cell_length_a   5.02215689
_cell_length_b   5.02208810
_cell_length_c   5.02220887
_cell_angle_alpha   90.01508884
_cell_angle_beta   89.99065975
_cell_angle_gamma   89.99194349
_symmetry_Int_Tables_number   1
_chemical_formula_structural   YHo3
_chemical_formula_sum   'Y1 Ho3'
_cell_volume   126.66871026
_cell_formula_units_Z   1
loop_
 _symmetry_equiv_pos_site_id
 _symmetry_equiv_pos_as_xyz
  1  'x, y, z'
loop_
 _atom_site_type_symbol
 _atom_site_label
 _atom_site_symmetry_multiplicity
 _atom_site_fract_x
 _atom_site_fract_y
 _atom_site_fract_z
 _atom_site_occupancy
  Y  Y0  1  0.00024120  0.99975096  0.00009169  1
  Ho  Ho0  1  0.00051541  0.50035401  0.49985856  1
  Ho  Ho1  1  0.49961826  0.99951387  0.49987044  1
  Ho  Ho2  1  0.49962613  0.50038417  0.00018131  1
loop_
_geom_bond_atom_site_label_1
_geom_bond_atom_site_label_2
_geom_bond_distance
_geom_bond_site_symmetry_2
Ho0 Ho1 3.545257 1_555
Ho0 Ho2 3.546627 1_555
Ho0 Y0 3.548694 1_555
Ho0 Y0 3.549415 1_556
Ho0 Ho2 3.549500 1_556
Ho0 Ho1 3.550730 1_545
Ho0 Ho1 3.551135 1_455
Ho0 Y0 3.552043 1_545
Ho0 Ho2 3.553524 1_455
Ho0 Y0 3.554633 1_546
Ho0 Ho2 3.555234 1_456
Ho0 Ho1 3.557596 1_445
Ho1 Ho2 3.546534 1_555
Ho1 Y0 3.548511 1_555
Ho1 Y0 3.549505 1_556
Ho1 Ho2 3.549678 1_556
Ho1 Y0 3.552358 1_655
Ho1 Ho2 3.553652 1_565
Ho1 Y0 3.554508 1_656
Ho1 Ho2 3.554922 1_566
Ho2 Y0 3.546495 1_555
Ho2 Y0 3.551365 1_655
Ho2 Y0 3.551494 1_545
Ho2 Y0 3.555360 1_645
