# generated using pymatgen
data_MgRh5
_symmetry_space_group_name_H-M   'P 1'
_cell_length_a   5.46568516
_cell_length_b   10.17106431
_cell_length_c   13.05562677
_cell_angle_alpha   76.02469250
_cell_angle_beta   90.00000000
_cell_angle_gamma   105.58620213
_symmetry_Int_Tables_number   1
_chemical_formula_structural   MgRh5
_chemical_formula_sum   'Mg8 Rh40'
_cell_volume   676.76709162
_cell_formula_units_Z   8
loop_
 _symmetry_equiv_pos_site_id
 _symmetry_equiv_pos_as_xyz
  1  'x, y, z'
loop_
 _atom_site_type_symbol
 _atom_site_label
 _atom_site_symmetry_multiplicity
 _atom_site_fract_x
 _atom_site_fract_y
 _atom_site_fract_z
 _atom_site_occupancy
  Mg  Mg0_0  1  0.19267935  0.38535870  0.36096668  1
  Mg  Mg0_1  1  0.19267935  0.38535870  0.86096668  1
  Mg  Mg0_2  1  0.19267935  0.88535869  0.36096668  1
  Mg  Mg0_3  1  0.19267935  0.88535870  0.86096668  1
  Mg  Mg0_4  1  0.69267935  0.38535870  0.36096668  1
  Mg  Mg0_5  1  0.69267935  0.38535870  0.86096668  1
  Mg  Mg0_6  1  0.69267935  0.88535869  0.36096668  1
  Mg  Mg0_7  1  0.69267935  0.88535870  0.86096668  1
  Rh  Rh0_0  1  0.00283675  0.00567350  0.00097496  1
  Rh  Rh0_1  1  0.00283675  0.00567351  0.50097496  1
  Rh  Rh0_2  1  0.00283675  0.50567350  0.00097496  1
  Rh  Rh0_3  1  0.00283675  0.50567350  0.50097496  1
  Rh  Rh0_4  1  0.50283676  0.00567350  0.00097496  1
  Rh  Rh0_5  1  0.50283676  0.00567351  0.50097496  1
  Rh  Rh0_6  1  0.50283676  0.50567350  0.00097496  1
  Rh  Rh0_7  1  0.50283676  0.50567350  0.50097496  1
  Rh  Rh1_0  1  0.36245026  0.22490052  0.02776095  1
  Rh  Rh1_1  1  0.36245026  0.22490052  0.52776095  1
  Rh  Rh1_2  1  0.36245026  0.72490052  0.02776095  1
  Rh  Rh1_3  1  0.36245026  0.72490053  0.52776095  1
  Rh  Rh1_4  1  0.86245026  0.22490052  0.02776095  1
  Rh  Rh1_5  1  0.86245026  0.22490052  0.52776095  1
  Rh  Rh1_6  1  0.86245026  0.72490052  0.02776095  1
  Rh  Rh1_7  1  0.86245026  0.72490053  0.52776095  1
  Rh  Rh2_0  1  0.16648166  0.33296382  0.16484810  1
  Rh  Rh2_1  1  0.16648166  0.33296382  0.66484810  1
  Rh  Rh2_2  1  0.16648166  0.83296382  0.16484810  1
  Rh  Rh2_3  1  0.16648167  0.83296383  0.66484811  1
  Rh  Rh2_4  1  0.66648166  0.33296382  0.16484810  1
  Rh  Rh2_5  1  0.66648166  0.33296382  0.66484810  1
  Rh  Rh2_6  1  0.66648166  0.83296382  0.16484810  1
  Rh  Rh2_7  1  0.66648167  0.83296383  0.66484811  1
  Rh  Rh3_0  1  0.02882237  0.05764424  0.19378217  1
  Rh  Rh3_1  1  0.02882238  0.05764425  0.69378217  1
  Rh  Rh3_2  1  0.02882237  0.55764424  0.19378217  1
  Rh  Rh3_3  1  0.02882238  0.55764424  0.69378217  1
  Rh  Rh3_4  1  0.52882237  0.05764424  0.19378217  1
  Rh  Rh3_5  1  0.52882237  0.05764425  0.69378217  1
  Rh  Rh3_6  1  0.52882237  0.55764424  0.19378217  1
  Rh  Rh3_7  1  0.52882237  0.55764424  0.69378217  1
  Rh  Rh4_0  1  0.33006310  0.16012620  0.33500013  1
  Rh  Rh4_1  1  0.33006310  0.16012620  0.83500014  1
  Rh  Rh4_2  1  0.33006310  0.66012620  0.33500013  1
  Rh  Rh4_3  1  0.33006310  0.66012620  0.83500013  1
  Rh  Rh4_4  1  0.83006310  0.16012620  0.33500013  1
  Rh  Rh4_5  1  0.83006310  0.16012620  0.83500014  1
  Rh  Rh4_6  1  0.83006310  0.66012620  0.33500013  1
  Rh  Rh4_7  1  0.83006310  0.66012620  0.83500013  1
loop_
_geom_bond_atom_site_label_1
_geom_bond_atom_site_label_2
_geom_bond_distance
_geom_bond_site_symmetry_2
Mg0_0 Rh4_2 2.627488 1_555
Mg0_0 Rh4_0 2.688176 1_555
Mg0_0 Rh4_4 2.688176 1_455
Mg0_0 Rh1_1 2.713620 1_555
Mg0_0 Rh1_5 2.713620 1_455
Mg0_0 Mg0_4 2.732843 1_555
Mg0_0 Mg0_4 2.732843 1_455
Mg0_0 Rh2_0 2.734678 1_555
Mg0_0 Rh3_2 2.762759 1_555
Mg0_0 Rh3_6 2.762761 1_555
Mg0_0 Rh0_3 2.770944 1_555
Mg0_0 Rh0_7 2.770944 1_555
Mg0_1 Rh4_3 2.627488 1_555
Mg0_1 Rh4_1 2.688176 1_555
Mg0_1 Rh4_5 2.688176 1_455
Mg0_1 Rh1_0 2.713620 1_556
Mg0_1 Rh1_4 2.713620 1_456
Mg0_1 Mg0_5 2.732843 1_555
Mg0_1 Mg0_5 2.732843 1_455
Mg0_1 Rh2_1 2.734678 1_555
Mg0_1 Rh3_3 2.762759 1_555
Mg0_1 Rh3_7 2.762761 1_555
Mg0_1 Rh0_2 2.770944 1_556
Mg0_1 Rh0_6 2.770944 1_556
Mg0_2 Rh4_0 2.627488 1_565
Mg0_2 Rh4_2 2.688176 1_555
Mg0_2 Rh4_6 2.688176 1_455
Mg0_2 Rh1_3 2.713620 1_555
Mg0_2 Rh1_7 2.713620 1_455
Mg0_2 Mg0_6 2.732843 1_455
Mg0_2 Mg0_6 2.732843 1_555
Mg0_2 Rh2_2 2.734678 1_555
Mg0_2 Rh3_0 2.762759 1_565
Mg0_2 Rh3_4 2.762761 1_565
Mg0_2 Rh0_1 2.770944 1_565
Mg0_2 Rh0_5 2.770944 1_565
Mg0_3 Rh4_1 2.627488 1_565
Mg0_3 Rh4_3 2.688176 1_555
Mg0_3 Rh4_7 2.688176 1_455
Mg0_3 Rh1_2 2.713620 1_556
Mg0_3 Rh1_6 2.713620 1_456
Mg0_3 Mg0_7 2.732843 1_455
Mg0_3 Mg0_7 2.732843 1_555
Mg0_3 Rh2_3 2.734678 1_555
Mg0_3 Rh3_1 2.762759 1_565
Mg0_3 Rh3_5 2.762761 1_565
Mg0_3 Rh0_0 2.770944 1_566
Mg0_3 Rh0_4 2.770944 1_566
Mg0_4 Rh4_6 2.627488 1_555
Mg0_4 Rh4_4 2.688176 1_555
Mg0_4 Rh4_0 2.688176 1_555
Mg0_4 Rh1_5 2.713620 1_555
Mg0_4 Rh1_1 2.713620 1_555
Mg0_4 Rh2_4 2.734678 1_555
Mg0_4 Rh3_6 2.762759 1_555
Mg0_4 Rh3_2 2.762761 1_655
Mg0_4 Rh0_7 2.770944 1_555
Mg0_4 Rh0_3 2.770944 1_655
Mg0_5 Rh4_7 2.627488 1_555
Mg0_5 Rh4_5 2.688176 1_555
Mg0_5 Rh4_1 2.688176 1_555
Mg0_5 Rh1_4 2.713620 1_556
Mg0_5 Rh1_0 2.713620 1_556
Mg0_5 Rh2_5 2.734678 1_555
Mg0_5 Rh3_7 2.762759 1_555
Mg0_5 Rh3_3 2.762761 1_655
Mg0_5 Rh0_6 2.770944 1_556
Mg0_5 Rh0_2 2.770944 1_656
Mg0_6 Rh4_4 2.627488 1_565
Mg0_6 Rh4_6 2.688176 1_555
Mg0_6 Rh4_2 2.688176 1_555
Mg0_6 Rh1_7 2.713620 1_555
Mg0_6 Rh1_3 2.713620 1_555
Mg0_6 Rh2_6 2.734678 1_555
Mg0_6 Rh3_4 2.762759 1_565
Mg0_6 Rh3_0 2.762761 1_665
Mg0_6 Rh0_5 2.770944 1_565
Mg0_6 Rh0_1 2.770944 1_665
Mg0_7 Rh4_5 2.627488 1_565
Mg0_7 Rh4_7 2.688176 1_555
Mg0_7 Rh4_3 2.688176 1_555
Mg0_7 Rh1_6 2.713620 1_556
Mg0_7 Rh1_2 2.713620 1_556
Mg0_7 Rh2_7 2.734678 1_555
Mg0_7 Rh3_5 2.762759 1_565
Mg0_7 Rh3_1 2.762761 1_665
Mg0_7 Rh0_4 2.770944 1_566
Mg0_7 Rh0_0 2.770944 1_666
Rh0_0 Rh1_4 2.641777 1_455
Rh0_0 Rh1_0 2.641777 1_555
Rh0_0 Rh1_6 2.684498 1_445
Rh0_0 Rh4_5 2.684790 1_454
Rh0_0 Rh4_1 2.684790 1_554
Rh0_0 Rh3_0 2.690413 1_555
Rh0_0 Rh0_4 2.732843 1_555
Rh0_0 Rh0_4 2.732843 1_455
Rh0_0 Rh2_2 2.737181 1_545
Rh0_0 Rh2_6 2.737183 1_445
Rh0_1 Rh1_5 2.641777 1_455
Rh0_1 Rh1_1 2.641777 1_555
Rh0_1 Rh1_7 2.684498 1_445
Rh0_1 Rh4_4 2.684790 1_455
Rh0_1 Rh4_0 2.684790 1_555
Rh0_1 Rh3_1 2.690413 1_555
Rh0_1 Rh0_5 2.732843 1_455
Rh0_1 Rh0_5 2.732843 1_555
Rh0_1 Rh2_3 2.737181 1_545
Rh0_1 Rh2_7 2.737183 1_445
Rh0_2 Rh1_6 2.641777 1_455
Rh0_2 Rh1_2 2.641777 1_555
Rh0_2 Rh1_4 2.684498 1_455
Rh0_2 Rh4_7 2.684790 1_454
Rh0_2 Rh4_3 2.684790 1_554
Rh0_2 Rh3_2 2.690413 1_555
Rh0_2 Rh0_6 2.732843 1_455
Rh0_2 Rh0_6 2.732843 1_555
Rh0_2 Rh2_0 2.737181 1_555
Rh0_2 Rh2_4 2.737183 1_455
Rh0_3 Rh1_7 2.641777 1_455
Rh0_3 Rh1_3 2.641777 1_555
Rh0_3 Rh1_5 2.684498 1_455
Rh0_3 Rh4_6 2.684790 1_455
Rh0_3 Rh4_2 2.684790 1_555
Rh0_3 Rh3_3 2.690413 1_555
Rh0_3 Rh0_7 2.732843 1_455
Rh0_3 Rh0_7 2.732843 1_555
Rh0_3 Rh2_1 2.737181 1_555
Rh0_3 Rh2_5 2.737183 1_455
Rh0_4 Rh1_0 2.641777 1_555
Rh0_4 Rh1_4 2.641777 1_555
Rh0_4 Rh1_2 2.684498 1_545
Rh0_4 Rh4_1 2.684790 1_554
Rh0_4 Rh4_5 2.684790 1_554
Rh0_4 Rh3_4 2.690413 1_555
Rh0_4 Rh2_6 2.737181 1_545
Rh0_4 Rh2_2 2.737183 1_545
Rh0_5 Rh1_1 2.641777 1_555
Rh0_5 Rh1_5 2.641777 1_555
Rh0_5 Rh1_3 2.684498 1_545
Rh0_5 Rh4_0 2.684790 1_555
Rh0_5 Rh4_4 2.684790 1_555
Rh0_5 Rh3_5 2.690413 1_555
Rh0_5 Rh2_7 2.737181 1_545
Rh0_5 Rh2_3 2.737183 1_545
Rh0_6 Rh1_2 2.641777 1_555
Rh0_6 Rh1_6 2.641777 1_555
Rh0_6 Rh1_0 2.684498 1_555
Rh0_6 Rh4_3 2.684790 1_554
Rh0_6 Rh4_7 2.684790 1_554
Rh0_6 Rh3_6 2.690413 1_555
Rh0_6 Rh2_4 2.737181 1_555
Rh0_6 Rh2_0 2.737183 1_555
Rh0_7 Rh1_3 2.641777 1_555
Rh0_7 Rh1_7 2.641777 1_555
Rh0_7 Rh1_1 2.684498 1_555
Rh0_7 Rh4_2 2.684790 1_555
Rh0_7 Rh4_6 2.684790 1_555
Rh0_7 Rh3_7 2.690413 1_555
Rh0_7 Rh2_5 2.737181 1_555
Rh0_7 Rh2_1 2.737183 1_555
Rh1_0 Rh2_4 2.672329 1_555
Rh1_0 Rh2_0 2.672330 1_555
Rh1_0 Rh1_4 2.732843 1_455
Rh1_0 Rh1_4 2.732843 1_555
Rh1_0 Rh3_0 2.732998 1_555
Rh1_0 Rh3_4 2.732999 1_555
Rh1_0 Rh4_1 2.745339 1_554
Rh1_1 Rh2_5 2.672329 1_555
Rh1_1 Rh2_1 2.672330 1_555
Rh1_1 Rh1_5 2.732843 1_455
Rh1_1 Rh1_5 2.732843 1_555
Rh1_1 Rh3_1 2.732998 1_555
Rh1_1 Rh3_5 2.732999 1_555
Rh1_1 Rh4_0 2.745339 1_555
Rh1_2 Rh2_6 2.672329 1_555
Rh1_2 Rh2_2 2.672330 1_555
Rh1_2 Rh1_6 2.732843 1_555
Rh1_2 Rh1_6 2.732843 1_455
Rh1_2 Rh3_2 2.732998 1_555
Rh1_2 Rh3_6 2.732999 1_555
Rh1_2 Rh4_3 2.745339 1_554
Rh1_3 Rh2_7 2.672329 1_555
Rh1_3 Rh2_3 2.672330 1_555
Rh1_3 Rh1_7 2.732843 1_455
Rh1_3 Rh1_7 2.732843 1_555
Rh1_3 Rh3_3 2.732998 1_555
Rh1_3 Rh3_7 2.732999 1_555
Rh1_3 Rh4_2 2.745339 1_555
Rh1_4 Rh2_0 2.672329 1_655
Rh1_4 Rh2_4 2.672330 1_555
Rh1_4 Rh3_4 2.732998 1_555
Rh1_4 Rh3_0 2.732999 1_655
Rh1_4 Rh4_5 2.745339 1_554
Rh1_5 Rh2_1 2.672329 1_655
Rh1_5 Rh2_5 2.672330 1_555
Rh1_5 Rh3_5 2.732998 1_555
Rh1_5 Rh3_1 2.732999 1_655
Rh1_5 Rh4_4 2.745339 1_555
Rh1_6 Rh2_2 2.672329 1_655
Rh1_6 Rh2_6 2.672330 1_555
Rh1_6 Rh3_6 2.732998 1_555
Rh1_6 Rh3_2 2.732999 1_655
Rh1_6 Rh4_7 2.745339 1_554
Rh1_7 Rh2_3 2.672329 1_655
Rh1_7 Rh2_7 2.672330 1_555
Rh1_7 Rh3_7 2.732998 1_555
Rh1_7 Rh3_3 2.732999 1_655
Rh1_7 Rh4_6 2.745339 1_555
Rh2_0 Rh3_0 2.628173 1_555
Rh2_0 Rh3_2 2.696675 1_555
Rh2_0 Rh3_6 2.696678 1_555
Rh2_0 Rh2_4 2.732843 1_455
Rh2_0 Rh2_4 2.732843 1_555
Rh2_0 Rh4_4 2.789792 1_455
Rh2_0 Rh4_0 2.789793 1_555
Rh2_1 Rh3_1 2.628173 1_555
Rh2_1 Rh3_3 2.696675 1_555
Rh2_1 Rh3_7 2.696678 1_555
Rh2_1 Rh2_5 2.732843 1_455
Rh2_1 Rh2_5 2.732843 1_555
Rh2_1 Rh4_5 2.789792 1_455
Rh2_1 Rh4_1 2.789793 1_555
Rh2_2 Rh3_2 2.628173 1_555
Rh2_2 Rh3_0 2.696675 1_565
Rh2_2 Rh3_4 2.696678 1_565
Rh2_2 Rh2_6 2.732843 1_555
Rh2_2 Rh2_6 2.732843 1_455
Rh2_2 Rh4_6 2.789792 1_455
Rh2_2 Rh4_2 2.789793 1_555
Rh2_3 Rh3_3 2.628173 1_555
Rh2_3 Rh3_1 2.696675 1_565
Rh2_3 Rh3_5 2.696678 1_565
Rh2_3 Rh2_7 2.732843 1_455
Rh2_3 Rh2_7 2.732843 1_555
Rh2_3 Rh4_7 2.789792 1_455
Rh2_3 Rh4_3 2.789793 1_555
Rh2_4 Rh3_4 2.628173 1_555
Rh2_4 Rh3_6 2.696675 1_555
Rh2_4 Rh3_2 2.696678 1_655
Rh2_4 Rh4_0 2.789792 1_555
Rh2_4 Rh4_4 2.789793 1_555
Rh2_5 Rh3_5 2.628173 1_555
Rh2_5 Rh3_7 2.696675 1_555
Rh2_5 Rh3_3 2.696678 1_655
Rh2_5 Rh4_1 2.789792 1_555
Rh2_5 Rh4_5 2.789793 1_555
Rh2_6 Rh3_6 2.628173 1_555
Rh2_6 Rh3_4 2.696675 1_565
Rh2_6 Rh3_0 2.696678 1_665
Rh2_6 Rh4_2 2.789792 1_555
Rh2_6 Rh4_6 2.789793 1_555
Rh2_7 Rh3_7 2.628173 1_555
Rh2_7 Rh3_5 2.696675 1_565
Rh2_7 Rh3_1 2.696678 1_665
Rh2_7 Rh4_3 2.789792 1_555
Rh2_7 Rh4_7 2.789793 1_555
Rh3_0 Rh4_0 2.683762 1_555
Rh3_0 Rh4_4 2.683763 1_455
Rh3_0 Rh3_4 2.732843 1_555
Rh3_0 Rh3_4 2.732843 1_455
Rh3_1 Rh4_1 2.683762 1_555
Rh3_1 Rh4_5 2.683763 1_455
Rh3_1 Rh3_5 2.732843 1_555
Rh3_1 Rh3_5 2.732843 1_455
Rh3_2 Rh4_2 2.683762 1_555
Rh3_2 Rh4_6 2.683763 1_455
Rh3_2 Rh3_6 2.732843 1_455
Rh3_2 Rh3_6 2.732843 1_555
Rh3_3 Rh4_3 2.683762 1_555
Rh3_3 Rh4_7 2.683763 1_455
Rh3_3 Rh3_7 2.732843 1_555
Rh3_3 Rh3_7 2.732843 1_455
Rh3_4 Rh4_4 2.683762 1_555
Rh3_4 Rh4_0 2.683763 1_555
Rh3_5 Rh4_5 2.683762 1_555
Rh3_5 Rh4_1 2.683763 1_555
Rh3_6 Rh4_6 2.683762 1_555
Rh3_6 Rh4_2 2.683763 1_555
Rh3_7 Rh4_7 2.683762 1_555
Rh3_7 Rh4_3 2.683763 1_555
Rh4_0 Rh4_4 2.732843 1_455
Rh4_0 Rh4_4 2.732843 1_555
Rh4_1 Rh4_5 2.732843 1_455
Rh4_1 Rh4_5 2.732843 1_555
Rh4_2 Rh4_6 2.732843 1_555
Rh4_2 Rh4_6 2.732843 1_455
Rh4_3 Rh4_7 2.732843 1_555
Rh4_3 Rh4_7 2.732843 1_455
