# generated using pymatgen
data_LuAlB4
_symmetry_space_group_name_H-M   'P 1'
_cell_length_a   3.48712399
_cell_length_b   5.88162239
_cell_length_c   5.88162239
_cell_angle_alpha   103.74119244
_cell_angle_beta   90.00000000
_cell_angle_gamma   90.00000000
_symmetry_Int_Tables_number   1
_chemical_formula_structural   LuAlB4
_chemical_formula_sum   'Lu2 Al2 B8'
_cell_volume   117.17911035
_cell_formula_units_Z   2
loop_
 _symmetry_equiv_pos_site_id
 _symmetry_equiv_pos_as_xyz
  1  'x, y, z'
loop_
 _atom_site_type_symbol
 _atom_site_label
 _atom_site_symmetry_multiplicity
 _atom_site_fract_x
 _atom_site_fract_y
 _atom_site_fract_z
 _atom_site_occupancy
  Lu  Lu0  1  0.00000000  0.69984886  0.30015014  1
  Lu  Lu1  1  -0.00000000  0.30015014  0.69984886  1
  Al  Al0  1  -0.00000000  0.18029135  0.18029135  1
  Al  Al1  1  -0.00000000  0.81970965  0.81970965  1
  B  B0  1  0.49999900  0.38270726  0.06287657  1
  B  B1  1  0.49999900  0.90698580  0.09301320  1
  B  B2  1  0.49999900  0.37918595  0.37918595  1
  B  B3  1  0.49999900  0.06287657  0.38270726  1
  B  B4  1  0.49999900  0.93712443  0.61729274  1
  B  B5  1  0.49999900  0.62081505  0.62081505  1
  B  B6  1  0.49999900  0.09301320  0.90698580  1
  B  B7  1  0.49999900  0.61729274  0.93712443  1
loop_
_geom_bond_atom_site_label_1
_geom_bond_atom_site_label_2
_geom_bond_distance
_geom_bond_site_symmetry_2
Al0 B2 2.264252 1_555
Al0 B2 2.264257 1_455
Al0 B3 2.307568 1_555
Al0 B0 2.307568 1_555
Al0 B0 2.307574 1_455
Al0 B3 2.307574 1_455
Al0 B1 2.344245 1_545
Al0 B6 2.344245 1_554
Al0 B1 2.344250 1_445
Al0 B6 2.344250 1_454
Al1 B5 2.264252 1_555
Al1 B5 2.264257 1_455
Al1 B4 2.307572 1_555
Al1 B7 2.307572 1_555
Al1 B7 2.307577 1_455
Al1 B4 2.307577 1_455
Al1 B6 2.344237 1_565
Al1 B1 2.344237 1_556
Al1 B6 2.344242 1_465
Al1 B1 2.344242 1_456
B0 B7 1.713344 1_554
B0 B6 1.732534 1_554
B0 B2 1.865440 1_555
B0 Lu0 2.688914 1_555
B0 Lu0 2.688918 1_655
B0 Lu1 2.709662 1_554
B0 Lu1 2.709667 1_654
B1 B6 1.721346 1_564
B1 B7 1.732526 1_554
B1 B3 1.732534 1_565
B1 Lu0 2.591070 1_555
B1 Lu0 2.591075 1_655
B2 B5 1.754975 1_555
B2 B3 1.865440 1_555
B2 Lu1 2.688804 1_555
B2 Lu0 2.688804 1_555
B2 Lu0 2.688808 1_655
B2 Lu1 2.688808 1_655
B3 B4 1.713344 1_545
B3 Lu1 2.688914 1_555
B3 Lu1 2.688918 1_655
B3 Lu0 2.709662 1_545
B3 Lu0 2.709667 1_645
B4 B6 1.732526 1_565
B4 B5 1.865442 1_555
B4 Lu0 2.688921 1_555
B4 Lu0 2.688926 1_655
B4 Lu1 2.709654 1_565
B4 Lu1 2.709658 1_665
B5 B7 1.865442 1_555
B5 Lu1 2.688809 1_555
B5 Lu0 2.688809 1_555
B5 Lu0 2.688813 1_655
B5 Lu1 2.688813 1_655
B6 Lu1 2.591070 1_555
B6 Lu1 2.591075 1_655
B7 Lu1 2.688921 1_555
B7 Lu1 2.688926 1_655
B7 Lu0 2.709654 1_556
B7 Lu0 2.709658 1_656
