# generated using pymatgen
data_YTmIr2
_symmetry_space_group_name_H-M   'P 1'
_cell_length_a   4.79017997
_cell_length_b   4.79020250
_cell_length_c   4.79115274
_cell_angle_alpha   59.99270950
_cell_angle_beta   59.99296758
_cell_angle_gamma   60.01366914
_symmetry_Int_Tables_number   1
_chemical_formula_structural   YTmIr2
_chemical_formula_sum   'Y1 Tm1 Ir2'
_cell_volume   77.73713611
_cell_formula_units_Z   1
loop_
 _symmetry_equiv_pos_site_id
 _symmetry_equiv_pos_as_xyz
  1  'x, y, z'
loop_
 _atom_site_type_symbol
 _atom_site_label
 _atom_site_symmetry_multiplicity
 _atom_site_fract_x
 _atom_site_fract_y
 _atom_site_fract_z
 _atom_site_occupancy
  Y  Y0  1  0.74999680  0.75000145  0.75000147  1
  Tm  Tm0  1  0.24999828  0.25000150  0.25000076  1
  Ir  Ir0  1  0.99999816  0.00000175  0.00000080  1
  Ir  Ir1  1  0.50000576  0.49999231  0.49999497  1
loop_
_geom_bond_atom_site_label_1
_geom_bond_atom_site_label_2
_geom_bond_distance
_geom_bond_site_symmetry_2
Ir0 Tm0 2.933552 1_654
Ir0 Y0 2.933554 1_545
Ir0 Y0 2.933570 1_644
Ir0 Tm0 2.933575 1_555
Ir0 Y0 2.933580 1_554
Ir0 Tm0 2.933582 1_655
Ir0 Tm0 2.933582 1_645
Ir0 Y0 2.933586 1_544
Ir1 Y0 2.933526 1_554
Ir1 Y0 2.933546 1_545
Ir1 Tm0 2.933546 1_655
Ir1 Tm0 2.933553 1_555
Ir1 Tm0 2.933574 1_556
Ir1 Y0 2.933608 1_555
Ir1 Y0 2.933610 1_455
Ir1 Tm0 2.933617 1_565
