# generated using pymatgen
data_ZnIn3
_symmetry_space_group_name_H-M   'P 1'
_cell_length_a   7.06381027
_cell_length_b   7.06381027
_cell_length_c   5.05886700
_cell_angle_alpha   90.00000000
_cell_angle_beta   90.00000000
_cell_angle_gamma   127.40303693
_symmetry_Int_Tables_number   1
_chemical_formula_structural   ZnIn3
_chemical_formula_sum   'Zn2 In6'
_cell_volume   200.52149848
_cell_formula_units_Z   2
loop_
 _symmetry_equiv_pos_site_id
 _symmetry_equiv_pos_as_xyz
  1  'x, y, z'
loop_
 _atom_site_type_symbol
 _atom_site_label
 _atom_site_symmetry_multiplicity
 _atom_site_fract_x
 _atom_site_fract_y
 _atom_site_fract_z
 _atom_site_occupancy
  Zn  Zn0  1  0.83082700  0.16917300  0.75000000  1
  Zn  Zn1  1  0.16917300  0.83082700  0.25000000  1
  In  In0  1  0.16824700  0.32837900  0.25000000  1
  In  In1  1  0.68665800  0.31334200  0.25000000  1
  In  In2  1  0.67162100  0.83175300  0.25000000  1
  In  In3  1  0.83175300  0.67162100  0.75000000  1
  In  In4  1  0.31334200  0.68665800  0.75000000  1
  In  In5  1  0.32837900  0.16824700  0.75000000  1
loop_
_geom_bond_atom_site_label_1
_geom_bond_atom_site_label_2
_geom_bond_distance
_geom_bond_site_symmetry_2
In0 In2 3.108484 1_445
In0 In2 3.150722 1_555
In0 Zn0 3.176064 1_455
In0 Zn0 3.176064 1_454
In0 In5 3.242123 1_555
In0 In5 3.242123 1_554
In0 In4 3.271448 1_554
In0 In4 3.271448 1_555
In0 In1 3.338401 1_455
In1 Zn0 3.119639 1_555
In1 Zn0 3.119639 1_554
In1 Zn1 3.137428 1_545
In1 Zn1 3.137428 1_655
In1 In5 3.271448 1_554
In1 In3 3.271448 1_555
In1 In5 3.271448 1_555
In1 In3 3.271448 1_554
In1 In2 3.338401 1_545
In2 Zn0 3.176064 1_564
In2 Zn0 3.176064 1_565
In2 In3 3.242123 1_555
In2 In3 3.242123 1_554
In2 In4 3.271448 1_554
In2 In4 3.271448 1_555
In3 In5 3.108484 1_665
In3 In5 3.150722 1_555
In3 Zn1 3.176064 1_656
In3 Zn1 3.176064 1_655
In3 In4 3.338401 1_655
In4 Zn1 3.119639 1_555
In4 Zn1 3.119639 1_556
In4 Zn0 3.137428 1_565
In4 Zn0 3.137428 1_455
In4 In5 3.338401 1_565
In5 Zn1 3.176064 1_545
In5 Zn1 3.176064 1_546
