# generated using pymatgen
data_Rb3Tm
_symmetry_space_group_name_H-M   'P 1'
_cell_length_a   7.20066069
_cell_length_b   7.20066069
_cell_length_c   7.20066069
_cell_angle_alpha   60.00000000
_cell_angle_beta   60.00000000
_cell_angle_gamma   60.00000000
_symmetry_Int_Tables_number   1
_chemical_formula_structural   Rb3Tm
_chemical_formula_sum   'Rb3 Tm1'
_cell_volume   263.99885366
_cell_formula_units_Z   1
loop_
 _symmetry_equiv_pos_site_id
 _symmetry_equiv_pos_as_xyz
  1  'x, y, z'
loop_
 _atom_site_type_symbol
 _atom_site_label
 _atom_site_symmetry_multiplicity
 _atom_site_fract_x
 _atom_site_fract_y
 _atom_site_fract_z
 _atom_site_occupancy
  Rb  Rb0  1  0.25000000  0.25000000  0.25000000  1
  Rb  Rb1  1  0.75000000  0.75000000  0.75000000  1
  Rb  Rb2  1  0.50000000  0.50000000  0.50000000  1
  Tm  Tm0  1  0.00000000  0.00000000  0.00000000  1
loop_
_geom_bond_atom_site_label_1
_geom_bond_atom_site_label_2
_geom_bond_distance
_geom_bond_site_symmetry_2
Rb0 Rb2 4.409486 1_545
Rb0 Tm0 4.409486 1_565
Rb0 Tm0 4.409486 1_655
Rb0 Rb2 4.409486 1_455
Rb0 Tm0 4.409486 1_556
Rb0 Rb2 4.409486 1_555
Rb0 Tm0 4.409486 1_555
Rb0 Rb2 4.409486 1_554
Rb1 Rb2 4.409486 1_565
Rb1 Rb2 4.409486 1_655
Rb1 Tm0 4.409486 1_656
Rb1 Tm0 4.409486 1_566
Rb1 Rb2 4.409486 1_555
Rb1 Tm0 4.409486 1_665
Rb1 Rb2 4.409486 1_556
Rb1 Tm0 4.409486 1_666
