# generated using pymatgen
data_TbTlTe2
_symmetry_space_group_name_H-M   'P 1'
_cell_length_a   4.46425164
_cell_length_b   4.46425104
_cell_length_c   8.53295118
_cell_angle_alpha   74.83563944
_cell_angle_beta   74.83563131
_cell_angle_gamma   60.00001226
_symmetry_Int_Tables_number   1
_chemical_formula_structural   TbTlTe2
_chemical_formula_sum   'Tb1 Tl1 Te2'
_cell_volume   140.39518459
_cell_formula_units_Z   1
loop_
 _symmetry_equiv_pos_site_id
 _symmetry_equiv_pos_as_xyz
  1  'x, y, z'
loop_
 _atom_site_type_symbol
 _atom_site_label
 _atom_site_symmetry_multiplicity
 _atom_site_fract_x
 _atom_site_fract_y
 _atom_site_fract_z
 _atom_site_occupancy
  Tb  Tb0  1  -0.00000000  0.00000000  0.00000000  1
  Tl  Tl0  1  0.50000000  0.50000000  0.50000000  1
  Te  Te0  1  0.73807510  0.73807510  0.78577270  1
  Te  Te1  1  0.26192490  0.26192490  0.21422730  1
loop_
_geom_bond_atom_site_label_1
_geom_bond_atom_site_label_2
_geom_bond_distance
_geom_bond_site_symmetry_2
Tb0 Te0 3.111244 1_544
Tb0 Te1 3.111244 1_455
Tb0 Te0 3.111244 1_454
Tb0 Te1 3.111244 1_545
Tb0 Te1 3.111251 1_555
Tb0 Te0 3.111251 1_444
Te0 Tl0 3.470855 1_555
Te0 Tl0 3.470861 1_655
Te0 Tl0 3.470862 1_565
Te1 Tl0 3.470855 1_555
Te1 Tl0 3.470861 1_455
Te1 Tl0 3.470862 1_545
