# generated using pymatgen
data_Na6Cd16Au7
_symmetry_space_group_name_H-M   'P 1'
_cell_length_a   9.65375123
_cell_length_b   9.65386431
_cell_length_c   9.65387428
_cell_angle_alpha   60.00066757
_cell_angle_beta   60.00046218
_cell_angle_gamma   60.00123884
_symmetry_Int_Tables_number   1
_chemical_formula_structural   Na6Cd16Au7
_chemical_formula_sum   'Na6 Cd16 Au7'
_cell_volume   636.19713380
_cell_formula_units_Z   1
loop_
 _symmetry_equiv_pos_site_id
 _symmetry_equiv_pos_as_xyz
  1  'x, y, z'
loop_
 _atom_site_type_symbol
 _atom_site_label
 _atom_site_symmetry_multiplicity
 _atom_site_fract_x
 _atom_site_fract_y
 _atom_site_fract_z
 _atom_site_occupancy
  Na  Na0  1  0.28896477  0.71102288  0.71102710  1
  Na  Na1  1  0.71103512  0.28897431  0.28897729  1
  Na  Na2  1  0.71102550  0.28896414  0.71102273  1
  Na  Na3  1  0.71102782  0.71102342  0.28896272  1
  Na  Na4  1  0.28897668  0.71103425  0.28897394  1
  Na  Na5  1  0.28897811  0.28897234  0.71103622  1
  Cd  Cd0  1  0.35735595  0.88088288  0.88090238  1
  Cd  Cd1  1  0.88086749  0.35736894  0.88088992  1
  Cd  Cd2  1  0.88089315  0.88085360  0.88091508  1
  Cd  Cd3  1  0.88091491  0.88087845  0.35735348  1
  Cd  Cd4  1  0.11911414  0.64264539  0.11910071  1
  Cd  Cd5  1  0.64263695  0.11909526  0.11913465  1
  Cd  Cd6  1  0.11914354  0.11910318  0.11908724  1
  Cd  Cd7  1  0.11913278  0.11909955  0.64263911  1
  Cd  Cd8  1  0.66323506  0.66324770  0.01027613  1
  Cd  Cd9  1  0.66322647  0.66327648  0.66322628  1
  Cd  Cd10  1  0.66325332  0.01027153  0.66325346  1
  Cd  Cd11  1  0.01028063  0.66326254  0.66322693  1
  Cd  Cd12  1  0.33674958  0.33676892  0.98972088  1
  Cd  Cd13  1  0.33672156  0.33680061  0.33674569  1
  Cd  Cd14  1  0.98972419  0.33675775  0.33675914  1
  Cd  Cd15  1  0.33672476  0.98971839  0.33676637  1
  Au  Au0  1  0.00000383  0.99999866  -0.00000082  1
  Au  Au1  1  0.49999734  0.49999722  0.00000284  1
  Au  Au2  1  0.00000096  -0.00000158  0.50000012  1
  Au  Au3  1  0.00000615  0.49999431  0.49999653  1
  Au  Au4  1  0.50000508  -0.00000751  0.50000278  1
  Au  Au5  1  0.50000099  -0.00000425  -0.00000167  1
  Au  Au6  1  0.00000216  0.50000067  0.00000178  1
loop_
_geom_bond_atom_site_label_1
_geom_bond_atom_site_label_2
_geom_bond_distance
_geom_bond_site_symmetry_2
Cd0 Cd8 3.090922 1_556
Cd0 Cd9 3.091072 1_555
Cd0 Cd10 3.091105 1_565
Cd0 Cd6 3.252118 1_566
Cd0 Cd4 3.252575 1_556
Cd0 Cd7 3.252664 1_565
Cd0 Na4 3.265925 1_556
Cd0 Na5 3.266084 1_565
Cd0 Na0 3.266315 1_555
Cd1 Cd8 3.091006 1_556
Cd1 Cd11 3.091228 1_655
Cd1 Cd9 3.091294 1_555
Cd1 Cd6 3.252574 1_656
Cd1 Cd5 3.252745 1_556
Cd1 Cd7 3.252903 1_655
Cd1 Na1 3.266028 1_556
Cd1 Na2 3.266183 1_555
Cd1 Na5 3.266184 1_655
Cd2 Cd8 3.091000 1_556
Cd2 Cd4 3.252119 1_656
Cd2 Cd5 3.252501 1_566
Cd2 Cd7 3.252618 1_665
Cd2 Na3 3.265761 1_556
Cd2 Na0 3.265950 1_655
Cd2 Na2 3.266312 1_565
Cd3 Cd9 3.091086 1_555
Cd3 Cd6 3.252398 1_665
Cd3 Cd4 3.252668 1_655
Cd3 Cd5 3.252734 1_565
Cd3 Na4 3.265819 1_655
Cd3 Na1 3.266148 1_565
Cd3 Na3 3.266353 1_555
Cd4 Na0 3.265939 1_554
Cd4 Na3 3.266010 1_455
Cd4 Na4 3.266294 1_555
Cd5 Na3 3.265920 1_545
Cd5 Na2 3.266244 1_554
Cd5 Na1 3.266251 1_555
Cd6 Na5 3.265796 1_554
Cd6 Na4 3.265971 1_545
Cd6 Na1 3.266261 1_455
Cd7 Na0 3.265973 1_545
Cd7 Na2 3.266189 1_455
Cd7 Na5 3.266198 1_555
Cd8 Na3 3.218507 1_555
Cd8 Na4 3.218575 1_555
Cd8 Na1 3.218715 1_555
Cd8 Cd9 3.350278 1_554
Cd9 Na0 3.218621 1_555
Cd9 Na3 3.218677 1_555
Cd9 Na2 3.218983 1_555
Cd10 Cd2 3.091173 1_545
Cd10 Cd3 3.091198 1_545
Cd10 Na2 3.218393 1_555
Cd10 Na5 3.218716 1_555
Cd10 Na1 3.218728 1_555
Cd10 Cd9 3.350104 1_545
Cd10 Cd11 3.350109 1_645
Cd10 Cd8 3.350151 1_546
Cd11 Cd3 3.090847 1_455
Cd11 Cd2 3.091096 1_455
Cd11 Na0 3.218403 1_555
Cd11 Na4 3.218545 1_555
Cd11 Na5 3.218815 1_555
Cd11 Cd9 3.350310 1_455
Cd11 Cd8 3.350354 1_456
Cd12 Cd4 3.090955 1_556
Cd12 Cd6 3.091048 1_556
Cd12 Cd5 3.091196 1_556
Cd12 Na5 3.218487 1_555
Cd12 Na0 3.218572 1_555
Cd12 Na2 3.218683 1_555
Cd12 Cd13 3.350152 1_556
Cd12 Cd14 3.350204 1_456
Cd12 Cd15 3.350390 1_546
Cd13 Cd4 3.090853 1_555
Cd13 Cd7 3.091138 1_555
Cd13 Cd5 3.091369 1_555
Cd13 Na4 3.218503 1_555
Cd13 Na5 3.218854 1_555
Cd13 Na1 3.218952 1_555
Cd13 Cd14 3.349968 1_455
Cd13 Cd15 3.350569 1_545
Cd14 Cd4 3.091059 1_655
Cd14 Cd7 3.091123 1_655
Cd14 Cd6 3.091384 1_655
Cd14 Na1 3.218479 1_555
Cd14 Na2 3.218619 1_555
Cd14 Na3 3.218662 1_555
Cd14 Cd15 3.350127 1_645
Cd15 Cd7 3.090920 1_565
Cd15 Cd6 3.090937 1_565
Cd15 Cd5 3.091161 1_565
Cd15 Na4 3.218307 1_555
Cd15 Na0 3.218610 1_555
Cd15 Na3 3.218867 1_555
Au0 Cd6 2.816590 1_565
Au0 Cd2 2.816650 1_454
Au0 Cd0 2.816772 1_554
Au0 Cd3 2.816809 1_455
Au0 Cd4 2.816820 1_555
Au0 Cd7 2.816854 1_564
Au0 Cd5 2.816888 1_465
Au0 Cd1 2.816954 1_464
Au1 Cd13 2.787901 1_555
Au1 Cd12 2.787953 1_554
Au1 Cd8 2.788004 1_555
Au1 Cd9 2.788189 1_554
Au1 Cd1 3.005010 1_554
Au1 Cd4 3.005118 1_555
Au1 Cd0 3.005175 1_554
Au1 Cd5 3.005301 1_555
Au1 Na0 3.454455 1_554
Au1 Na4 3.454463 1_555
Au1 Na1 3.454483 1_555
Au1 Na2 3.454499 1_554
Au2 Cd15 2.787687 1_545
Au2 Cd11 2.787828 1_545
Au2 Cd10 2.787904 1_455
Au2 Cd14 2.788032 1_455
Au2 Cd3 3.004853 1_445
Au2 Cd7 3.004999 1_555
Au2 Cd6 3.005373 1_555
Au2 Cd2 3.005388 1_445
Au2 Na1 3.454338 1_455
Au2 Na2 3.454345 1_455
Au2 Na0 3.454348 1_545
Au2 Na4 3.454355 1_545
Au3 Cd13 2.787675 1_555
Au3 Cd14 2.787959 1_455
Au3 Cd11 2.788122 1_555
Au3 Cd9 2.788220 1_455
Au3 Cd3 3.005162 1_455
Au3 Cd1 3.005208 1_455
Au3 Cd4 3.005236 1_555
Au3 Cd7 3.005244 1_555
Au3 Na4 3.454420 1_555
Au3 Na2 3.454429 1_455
Au3 Na5 3.454471 1_555
Au3 Na3 3.454473 1_455
Au4 Cd9 2.787706 1_545
Au4 Cd10 2.788138 1_555
Au4 Cd15 2.788259 1_545
Au4 Cd13 2.788485 1_555
Au4 Cd5 3.005013 1_555
Au4 Cd7 3.005026 1_555
Au4 Cd0 3.005263 1_545
Au4 Cd3 3.005322 1_545
Au4 Na0 3.454425 1_545
Au4 Na1 3.454449 1_555
Au4 Na3 3.454470 1_545
Au4 Na5 3.454505 1_555
Au5 Cd10 2.787909 1_554
Au5 Cd8 2.787949 1_545
Au5 Cd15 2.788098 1_545
Au5 Cd12 2.788160 1_554
Au5 Cd0 3.004858 1_544
Au5 Cd6 3.004917 1_555
Au5 Cd5 3.004993 1_555
Au5 Cd2 3.005189 1_544
Au5 Na4 3.454281 1_545
Au5 Na5 3.454318 1_554
Au5 Na2 3.454328 1_554
Au5 Na3 3.454352 1_545
Au6 Cd12 2.787903 1_554
Au6 Cd14 2.788013 1_455
Au6 Cd8 2.788084 1_455
Au6 Cd11 2.788158 1_554
Au6 Cd4 3.004874 1_555
Au6 Cd2 3.004923 1_454
Au6 Cd1 3.005044 1_454
Au6 Cd6 3.005274 1_555
Au6 Na0 3.454265 1_554
Au6 Na3 3.454306 1_455
Au6 Na1 3.454319 1_455
Au6 Na5 3.454370 1_554
