# generated using pymatgen
data_Ba3Zr2S7
_symmetry_space_group_name_H-M   'P 1'
_cell_length_a   13.38193530
_cell_length_b   13.38193530
_cell_length_c   7.09534891
_cell_angle_alpha   90.00000000
_cell_angle_beta   90.00000000
_cell_angle_gamma   149.24911767
_symmetry_Int_Tables_number   1
_chemical_formula_structural   Ba3Zr2S7
_chemical_formula_sum   'Ba6 Zr4 S14'
_cell_volume   649.66993524
_cell_formula_units_Z   2
loop_
 _symmetry_equiv_pos_site_id
 _symmetry_equiv_pos_as_xyz
  1  'x, y, z'
loop_
 _atom_site_type_symbol
 _atom_site_label
 _atom_site_symmetry_multiplicity
 _atom_site_fract_x
 _atom_site_fract_y
 _atom_site_fract_z
 _atom_site_occupancy
  Ba  Ba0  1  0.81871359  0.68103251  0.00000000  1
  Ba  Ba1  1  0.18128641  0.31896749  0.00000000  1
  Ba  Ba2  1  0.31896749  0.18128641  0.50000000  1
  Ba  Ba3  1  0.68103251  0.81871359  0.50000000  1
  Ba  Ba4  1  0.50000000  -0.00000000  0.50000000  1
  Ba  Ba5  1  0.00000000  0.50000000  0.00000000  1
  Zr  Zr0  1  0.59998567  0.90022254  0.00000000  1
  Zr  Zr1  1  0.90022254  0.59998567  0.50000000  1
  Zr  Zr2  1  0.40001433  0.09977746  -0.00000000  1
  Zr  Zr3  1  0.09977746  0.40001433  0.50000000  1
  S  S0  1  0.65399007  0.34600993  0.75000000  1
  S  S1  1  0.65399007  0.34600993  0.25000000  1
  S  S2  1  0.50000000  -0.00000000  0.00000000  1
  S  S3  1  0.15409190  0.84590810  0.75000000  1
  S  S4  1  0.69802203  0.80258755  -0.00000000  1
  S  S5  1  0.34600993  0.65399007  0.25000000  1
  S  S6  1  0.84590810  0.15409190  0.25000000  1
  S  S7  1  0.19741245  0.30197797  0.50000000  1
  S  S8  1  0.00000000  0.50000000  0.50000000  1
  S  S9  1  0.34600993  0.65399007  0.75000000  1
  S  S10  1  0.30197797  0.19741245  0.00000000  1
  S  S11  1  0.15409190  0.84590810  0.25000000  1
  S  S12  1  0.84590810  0.15409190  0.75000000  1
  S  S13  1  0.80258755  0.69802203  0.50000000  1
loop_
_geom_bond_atom_site_label_1
_geom_bond_atom_site_label_2
_geom_bond_distance
_geom_bond_site_symmetry_2
Ba0 S4 3.125706 1_555
Ba0 S1 3.334519 1_555
Ba0 S0 3.334519 1_554
Ba0 S3 3.337209 1_654
Ba0 S11 3.337209 1_655
Ba0 S10 3.572507 1_665
Ba0 S13 3.573315 1_555
Ba0 S13 3.573315 1_554
Ba0 S10 3.575013 1_555
Ba1 S10 3.125706 1_555
Ba1 S5 3.334519 1_555
Ba1 S9 3.334519 1_554
Ba1 S12 3.337209 1_454
Ba1 S6 3.337209 1_455
Ba1 S4 3.572507 1_445
Ba1 S7 3.573315 1_554
Ba1 S7 3.573315 1_555
Ba1 S4 3.575013 1_555
Ba2 S7 3.125706 1_555
Ba2 S0 3.334519 1_555
Ba2 S1 3.334519 1_555
Ba2 S3 3.337209 1_545
Ba2 S11 3.337209 1_545
Ba2 S13 3.572507 1_445
Ba2 S10 3.573315 1_556
Ba2 S10 3.573315 1_555
Ba2 S13 3.575013 1_555
Ba3 S13 3.125706 1_555
Ba3 S5 3.334519 1_555
Ba3 S9 3.334519 1_555
Ba3 S6 3.337209 1_565
Ba3 S12 3.337209 1_565
Ba3 S7 3.572507 1_665
Ba3 S4 3.573315 1_555
Ba3 S4 3.573315 1_556
Ba3 S7 3.575013 1_555
Ba4 S6 3.524121 1_555
Ba4 S12 3.524121 1_555
Ba4 S11 3.524121 1_545
Ba4 S3 3.524121 1_545
Ba4 S0 3.525967 1_555
Ba4 S5 3.525967 1_545
Ba4 S1 3.525967 1_555
Ba4 S9 3.525967 1_545
Ba4 S2 3.547674 1_555
Ba4 S2 3.547674 1_556
Ba4 S8 3.548124 1_655
Ba4 S8 3.548124 1_545
Ba5 S11 3.524121 1_555
Ba5 S3 3.524121 1_554
Ba5 S12 3.524121 1_454
Ba5 S6 3.524121 1_455
Ba5 S5 3.525967 1_555
Ba5 S9 3.525967 1_554
Ba5 S0 3.525967 1_454
Ba5 S1 3.525967 1_455
Ba5 S8 3.547674 1_554
Ba5 S8 3.547674 1_555
Ba5 S2 3.548124 1_455
Ba5 S2 3.548124 1_565
S0 Zr2 2.511255 1_556
S0 Zr1 2.511255 1_555
S1 Zr2 2.511255 1_555
S1 Zr1 2.511255 1_555
S2 Zr2 2.577541 1_555
S2 Zr0 2.577541 1_545
S3 Zr1 2.510317 1_455
S3 Zr2 2.510317 1_566
S4 Zr0 2.524745 1_555
S5 Zr3 2.511255 1_555
S5 Zr0 2.511255 1_555
S6 Zr0 2.510317 1_545
S6 Zr3 2.510317 1_655
S7 Zr3 2.524745 1_555
S8 Zr3 2.577541 1_555
S8 Zr1 2.577541 1_455
S9 Zr3 2.511255 1_555
S9 Zr0 2.511255 1_556
S10 Zr2 2.524745 1_555
S11 Zr1 2.510317 1_455
S11 Zr2 2.510317 1_565
S12 Zr0 2.510317 1_546
S12 Zr3 2.510317 1_655
S13 Zr1 2.524745 1_555
