# generated using pymatgen
data_TaPd
_symmetry_space_group_name_H-M   'P 1'
_cell_length_a   3.28743175
_cell_length_b   3.28743175
_cell_length_c   6.08338802
_cell_angle_alpha   90.00000000
_cell_angle_beta   90.00000000
_cell_angle_gamma   90.00000000
_symmetry_Int_Tables_number   1
_chemical_formula_structural   TaPd
_chemical_formula_sum   'Ta2 Pd2'
_cell_volume   65.74443670
_cell_formula_units_Z   2
loop_
 _symmetry_equiv_pos_site_id
 _symmetry_equiv_pos_as_xyz
  1  'x, y, z'
loop_
 _atom_site_type_symbol
 _atom_site_label
 _atom_site_symmetry_multiplicity
 _atom_site_fract_x
 _atom_site_fract_y
 _atom_site_fract_z
 _atom_site_occupancy
  Ta  Ta0  1  0.75000000  0.75000000  0.85481607  1
  Ta  Ta1  1  0.25000000  0.25000000  0.14518393  1
  Pd  Pd0  1  0.75000000  0.75000000  0.36906127  1
  Pd  Pd1  1  0.25000000  0.25000000  0.63093873  1
loop_
_geom_bond_atom_site_label_1
_geom_bond_atom_site_label_2
_geom_bond_distance
_geom_bond_site_symmetry_2
Pd0 Ta1 2.694154 1_565
Pd0 Ta1 2.694154 1_655
Pd0 Ta1 2.694154 1_555
Pd0 Ta1 2.694154 1_665
Pd1 Ta0 2.694154 1_555
Pd1 Ta0 2.694154 1_445
Pd1 Ta0 2.694154 1_455
Pd1 Ta0 2.694154 1_545
