# generated using pymatgen
data_NaTmS2
_symmetry_space_group_name_H-M   'P 1'
_cell_length_a   6.97407876
_cell_length_b   6.97407876
_cell_length_c   6.97407958
_cell_angle_alpha   32.56747401
_cell_angle_beta   32.56747401
_cell_angle_gamma   32.56747490
_symmetry_Int_Tables_number   1
_chemical_formula_structural   NaTmS2
_chemical_formula_sum   'Na1 Tm1 S2'
_cell_volume   87.40629991
_cell_formula_units_Z   1
loop_
 _symmetry_equiv_pos_site_id
 _symmetry_equiv_pos_as_xyz
  1  'x, y, z'
loop_
 _atom_site_type_symbol
 _atom_site_label
 _atom_site_symmetry_multiplicity
 _atom_site_fract_x
 _atom_site_fract_y
 _atom_site_fract_z
 _atom_site_occupancy
  Na  Na0  1  0.50000000  0.50000000  0.50000000  1
  Tm  Tm0  1  0.00000000  0.00000000  -0.00000000  1
  S  S0  1  0.25820272  0.25820272  0.25820272  1
  S  S1  1  0.74179728  0.74179728  0.74179728  1
loop_
_geom_bond_atom_site_label_1
_geom_bond_atom_site_label_2
_geom_bond_distance
_geom_bond_site_symmetry_2
Na0 S0 2.895146 1_565
Na0 S0 2.895146 1_655
Na0 S1 2.895146 1_545
Na0 S1 2.895146 1_455
Na0 S0 2.895147 1_556
Na0 S1 2.895147 1_554
S0 Tm0 2.703785 1_565
S0 Tm0 2.703785 1_655
S0 Tm0 2.703785 1_556
S1 Tm0 2.703785 1_656
S1 Tm0 2.703785 1_566
S1 Tm0 2.703785 1_665
