# generated using pymatgen
data_Sr(MgSb)2
_symmetry_space_group_name_H-M   'P 1'
_cell_length_a   4.72855219
_cell_length_b   4.72855221
_cell_length_c   7.84881873
_cell_angle_alpha   90.00000000
_cell_angle_beta   90.00000000
_cell_angle_gamma   119.99999982
_symmetry_Int_Tables_number   1
_chemical_formula_structural   Sr(MgSb)2
_chemical_formula_sum   'Sr1 Mg2 Sb2'
_cell_volume   151.98170297
_cell_formula_units_Z   1
loop_
 _symmetry_equiv_pos_site_id
 _symmetry_equiv_pos_as_xyz
  1  'x, y, z'
loop_
 _atom_site_type_symbol
 _atom_site_label
 _atom_site_symmetry_multiplicity
 _atom_site_fract_x
 _atom_site_fract_y
 _atom_site_fract_z
 _atom_site_occupancy
  Sr  Sr0  1  -0.00000000  0.00000000  0.00000000  1
  Mg  Mg0  1  0.66666700  0.33333300  0.37173647  1
  Mg  Mg1  1  0.33333300  0.66666700  0.62826353  1
  Sb  Sb0  1  0.33333300  0.66666700  0.25784015  1
  Sb  Sb1  1  0.66666700  0.33333300  0.74215985  1
loop_
_geom_bond_atom_site_label_1
_geom_bond_atom_site_label_2
_geom_bond_distance
_geom_bond_site_symmetry_2
Mg0 Sb0 2.872665 1_655
Mg0 Sb0 2.872665 1_545
Mg0 Sb0 2.872673 1_555
Mg0 Sb1 2.907386 1_555
Mg1 Sb1 2.872665 1_455
Mg1 Sb1 2.872665 1_565
Mg1 Sb1 2.872673 1_555
Mg1 Sb0 2.907386 1_555
Sb0 Sr0 3.398320 1_565
Sb0 Sr0 3.398323 1_665
Sb0 Sr0 3.398323 1_555
Sb1 Sr0 3.398320 1_656
Sb1 Sr0 3.398323 1_556
Sb1 Sr0 3.398323 1_666
