# generated using pymatgen
data_HoLuRh2
_symmetry_space_group_name_H-M   'P 1'
_cell_length_a   4.74560915
_cell_length_b   4.74560915
_cell_length_c   4.74560915
_cell_angle_alpha   60.00000000
_cell_angle_beta   60.00000000
_cell_angle_gamma   60.00000000
_symmetry_Int_Tables_number   1
_chemical_formula_structural   HoLuRh2
_chemical_formula_sum   'Ho1 Lu1 Rh2'
_cell_volume   75.57199758
_cell_formula_units_Z   1
loop_
 _symmetry_equiv_pos_site_id
 _symmetry_equiv_pos_as_xyz
  1  'x, y, z'
loop_
 _atom_site_type_symbol
 _atom_site_label
 _atom_site_symmetry_multiplicity
 _atom_site_fract_x
 _atom_site_fract_y
 _atom_site_fract_z
 _atom_site_occupancy
  Ho  Ho0  1  0.24999900  0.24999900  0.24999900  1
  Lu  Lu0  1  0.74999900  0.74999900  0.74999900  1
  Rh  Rh0  1  -0.00000000  0.00000000  0.00000000  1
  Rh  Rh1  1  0.50000000  0.50000000  0.50000000  1
loop_
_geom_bond_atom_site_label_1
_geom_bond_atom_site_label_2
_geom_bond_distance
_geom_bond_site_symmetry_2
Ho0 Rh0 2.906069 1_555
Ho0 Rh1 2.906076 1_554
Ho0 Rh1 2.906076 1_545
Ho0 Rh1 2.906076 1_455
Ho0 Rh0 2.906084 1_655
Ho0 Rh0 2.906084 1_556
Ho0 Rh0 2.906084 1_565
Ho0 Rh1 2.906092 1_555
Lu0 Rh1 2.906069 1_555
Lu0 Rh0 2.906076 1_656
Lu0 Rh0 2.906076 1_665
Lu0 Rh0 2.906076 1_566
Lu0 Rh1 2.906084 1_556
Lu0 Rh1 2.906084 1_655
Lu0 Rh1 2.906084 1_565
Lu0 Rh0 2.906092 1_666
