# generated using pymatgen
data_ScSiPt
_symmetry_space_group_name_H-M   'P 1'
_cell_length_a   4.14813211
_cell_length_b   6.60800520
_cell_length_c   7.26775537
_cell_angle_alpha   90.00000000
_cell_angle_beta   90.00000000
_cell_angle_gamma   90.00000000
_symmetry_Int_Tables_number   1
_chemical_formula_structural   ScSiPt
_chemical_formula_sum   'Sc4 Si4 Pt4'
_cell_volume   199.21555980
_cell_formula_units_Z   4
loop_
 _symmetry_equiv_pos_site_id
 _symmetry_equiv_pos_as_xyz
  1  'x, y, z'
loop_
 _atom_site_type_symbol
 _atom_site_label
 _atom_site_symmetry_multiplicity
 _atom_site_fract_x
 _atom_site_fract_y
 _atom_site_fract_z
 _atom_site_occupancy
  Sc  Sc0  1  0.75000000  0.50193861  0.20178447  1
  Sc  Sc1  1  0.25000000  0.99806139  0.70178447  1
  Sc  Sc2  1  0.75000000  0.00193861  0.29821553  1
  Sc  Sc3  1  0.25000000  0.49806139  0.79821553  1
  Si  Si0  1  0.25000000  0.80749167  0.09251718  1
  Si  Si1  1  0.25000000  0.30749167  0.40748282  1
  Si  Si2  1  0.75000000  0.19250833  0.90748282  1
  Si  Si3  1  0.75000000  0.69250833  0.59251718  1
  Pt  Pt0  1  0.25000000  0.69960683  0.41649968  1
  Pt  Pt1  1  0.25000000  0.19960683  0.08350032  1
  Pt  Pt2  1  0.75000000  0.80039317  0.91649968  1
  Pt  Pt3  1  0.75000000  0.30039317  0.58350032  1
loop_
_geom_bond_atom_site_label_1
_geom_bond_atom_site_label_2
_geom_bond_distance
_geom_bond_site_symmetry_2
Sc0 Si1 2.861408 1_555
Sc0 Si1 2.861408 1_655
Sc0 Si2 2.959022 1_554
Sc0 Si0 3.001523 1_555
Sc0 Si0 3.001523 1_655
Sc0 Si3 3.106442 1_555
Sc1 Si2 2.861408 1_565
Sc1 Si2 2.861408 1_465
Sc1 Si1 2.959022 1_565
Sc1 Si3 3.001523 1_455
Sc1 Si3 3.001523 1_555
Sc1 Si0 3.106442 1_556
Sc2 Si0 2.861408 1_545
Sc2 Si0 2.861408 1_645
Sc2 Si3 2.959022 1_545
Sc2 Si1 3.001523 1_555
Sc2 Si1 3.001523 1_655
Sc2 Si2 3.106442 1_554
Sc3 Si3 2.861408 1_555
Sc3 Si3 2.861408 1_455
Sc3 Si0 2.959022 1_556
Sc3 Si2 3.001523 1_455
Sc3 Si2 3.001523 1_555
Sc3 Si1 3.106442 1_555
Pt0 Si3 2.437301 1_555
Pt0 Si3 2.437301 1_455
Pt0 Si0 2.460182 1_555
Pt0 Si1 2.591928 1_555
Pt0 Sc1 2.861544 1_555
Pt0 Sc0 2.905691 1_555
Pt0 Sc0 2.905691 1_455
Pt0 Sc2 3.005330 1_465
Pt0 Sc2 3.005330 1_565
Pt0 Sc3 3.077338 1_555
Pt1 Si2 2.437301 1_454
Pt1 Si2 2.437301 1_554
Pt1 Si1 2.460182 1_555
Pt1 Si0 2.591928 1_545
Pt1 Sc3 2.861544 1_554
Pt1 Sc2 2.905691 1_455
Pt1 Sc2 2.905691 1_555
Pt1 Sc0 3.005330 1_555
Pt1 Sc0 3.005330 1_455
Pt1 Sc1 3.077338 1_544
Pt2 Si0 2.437301 1_656
Pt2 Si0 2.437301 1_556
Pt2 Si3 2.460182 1_555
Pt2 Si2 2.591928 1_565
Pt2 Sc0 2.861544 1_556
Pt2 Sc1 2.905691 1_555
Pt2 Sc1 2.905691 1_655
Pt2 Sc3 3.005330 1_555
Pt2 Sc3 3.005330 1_655
Pt2 Sc2 3.077338 1_566
Pt3 Si1 2.437301 1_555
Pt3 Si1 2.437301 1_655
Pt3 Si2 2.460182 1_555
Pt3 Si3 2.591928 1_555
Pt3 Sc2 2.861544 1_555
Pt3 Sc3 2.905691 1_555
Pt3 Sc3 2.905691 1_655
Pt3 Sc1 3.005330 1_645
Pt3 Sc1 3.005330 1_545
Pt3 Sc0 3.077338 1_555
