# generated using pymatgen
data_Na2LiGaAs2
_symmetry_space_group_name_H-M   'P 1'
_cell_length_a   9.33521195
_cell_length_b   9.33521195
_cell_length_c   5.92218900
_cell_angle_alpha   90.00000000
_cell_angle_beta   90.00000000
_cell_angle_gamma   98.66958523
_symmetry_Int_Tables_number   1
_chemical_formula_structural   Na2LiGaAs2
_chemical_formula_sum   'Na8 Li4 Ga4 As8'
_cell_volume   510.19926800
_cell_formula_units_Z   4
loop_
 _symmetry_equiv_pos_site_id
 _symmetry_equiv_pos_as_xyz
  1  'x, y, z'
loop_
 _atom_site_type_symbol
 _atom_site_label
 _atom_site_symmetry_multiplicity
 _atom_site_fract_x
 _atom_site_fract_y
 _atom_site_fract_z
 _atom_site_occupancy
  Na  Na0  1  0.42781300  0.07218700  0.25000000  1
  Na  Na1  1  0.07218700  0.42781300  0.75000000  1
  Na  Na2  1  0.57218700  0.92781300  0.75000000  1
  Na  Na3  1  0.32409200  0.67590800  0.27939700  1
  Na  Na4  1  0.82409200  0.17590800  0.22060300  1
  Na  Na5  1  0.67590800  0.32409200  0.72060300  1
  Na  Na6  1  0.17590800  0.82409200  0.77939700  1
  Na  Na7  1  0.92781300  0.57218700  0.25000000  1
  Li  Li0  1  0.38059500  0.38059500  0.50000000  1
  Li  Li1  1  0.11940500  0.11940500  0.00000000  1
  Li  Li2  1  0.61940500  0.61940500  0.50000000  1
  Li  Li3  1  0.88059500  0.88059500  0.00000000  1
  Ga  Ga0  1  0.86862200  0.86862200  0.50000000  1
  Ga  Ga1  1  0.13137800  0.13137800  0.50000000  1
  Ga  Ga2  1  0.63137800  0.63137800  0.00000000  1
  Ga  Ga3  1  0.36862200  0.36862200  0.00000000  1
  As  As0  1  0.10688500  0.89311500  0.28135200  1
  As  As1  1  0.60688500  0.39311500  0.21864800  1
  As  As2  1  0.89311500  0.10688500  0.71864800  1
  As  As3  1  0.39311500  0.60688500  0.78135200  1
  As  As4  1  0.14281000  0.35719000  0.25000000  1
  As  As5  1  0.35719000  0.14281000  0.75000000  1
  As  As6  1  0.85719000  0.64281000  0.75000000  1
  As  As7  1  0.64281000  0.85719000  0.25000000  1
loop_
_geom_bond_atom_site_label_1
_geom_bond_atom_site_label_2
_geom_bond_distance
_geom_bond_site_symmetry_2
Ga0 Li3 2.964675 1_556
Ga0 Li3 2.964675 1_555
Ga0 Li2 3.032063 1_555
Ga0 Na7 3.258248 1_555
Ga0 Na2 3.258248 1_555
Ga0 Na6 3.391001 1_655
Ga0 Na4 3.391001 1_565
Ga1 Li1 2.964675 1_555
Ga1 Li1 2.964675 1_556
Ga1 Li0 3.032063 1_555
Ga1 Na1 3.258248 1_555
Ga1 Na0 3.258248 1_555
Ga1 Na6 3.391001 1_545
Ga1 Na4 3.391001 1_455
Ga2 Li2 2.964675 1_555
Ga2 Li2 2.964675 1_554
Ga2 Li3 3.032063 1_555
Ga2 Na2 3.258248 1_554
Ga2 Na7 3.258248 1_555
Ga2 Na5 3.391001 1_554
Ga2 Na3 3.391001 1_555
Ga3 Li0 2.964675 1_554
Ga3 Li0 2.964675 1_555
Ga3 Li1 3.032063 1_555
Ga3 Na0 3.258248 1_555
Ga3 Na1 3.258248 1_554
Ga3 Na3 3.391001 1_555
Ga3 Na5 3.391001 1_554
As0 Ga1 2.553994 1_565
As0 Ga0 2.553994 1_455
As0 Li1 2.679184 1_565
As0 Li3 2.679184 1_455
As0 Na3 3.076125 1_555
As0 Na6 3.107277 1_555
As0 Na6 3.129266 1_554
As0 Na7 3.208541 1_455
As0 Na0 3.208541 1_565
As1 Ga2 2.553994 1_555
As1 Ga3 2.553994 1_555
As1 Li2 2.679184 1_555
As1 Li0 2.679184 1_555
As1 Na4 3.076125 1_555
As1 Na5 3.107277 1_554
As1 Na5 3.129266 1_555
As1 Na0 3.208541 1_555
As1 Na7 3.208541 1_555
As2 Ga0 2.553994 1_545
As2 Ga1 2.553994 1_655
As2 Li1 2.679184 1_656
As2 Li3 2.679184 1_546
As2 Na5 3.076125 1_555
As2 Na4 3.107277 1_555
As2 Na4 3.129266 1_556
As2 Na1 3.208541 1_655
As2 Na2 3.208541 1_545
As3 Ga3 2.553994 1_556
As3 Ga2 2.553994 1_556
As3 Li2 2.679184 1_555
As3 Li0 2.679184 1_555
As3 Na6 3.076125 1_555
As3 Na3 3.107277 1_556
As3 Na3 3.129266 1_555
As3 Na1 3.208541 1_555
As3 Na2 3.208541 1_555
As4 Ga3 2.565008 1_555
As4 Ga1 2.565008 1_555
As4 Li0 2.649705 1_555
As4 Li1 2.649705 1_555
As4 Na7 3.044805 1_455
As4 Na1 3.125447 1_555
As4 Na1 3.125447 1_554
As4 Na3 3.198229 1_555
As4 Na4 3.198229 1_455
As5 Ga3 2.565008 1_556
As5 Ga1 2.565008 1_555
As5 Li0 2.649705 1_555
As5 Li1 2.649705 1_556
As5 Na2 3.044805 1_545
As5 Na0 3.125447 1_555
As5 Na0 3.125447 1_556
As5 Na5 3.198229 1_555
As5 Na6 3.198229 1_545
As6 Ga0 2.565008 1_555
As6 Ga2 2.565008 1_556
As6 Li3 2.649705 1_556
As6 Li2 2.649705 1_555
As6 Na1 3.044805 1_655
As6 Na7 3.125447 1_556
As6 Na7 3.125447 1_555
As6 Na6 3.198229 1_655
As6 Na5 3.198229 1_555
As7 Ga0 2.565008 1_555
As7 Ga2 2.565008 1_555
As7 Li3 2.649705 1_555
As7 Li2 2.649705 1_555
As7 Na0 3.044805 1_565
As7 Na2 3.125447 1_555
As7 Na2 3.125447 1_554
As7 Na4 3.198229 1_565
As7 Na3 3.198229 1_555
