# generated using pymatgen
data_CsSrI3
_symmetry_space_group_name_H-M   'P 1'
_cell_length_a   6.47227285
_cell_length_b   6.47227285
_cell_length_c   6.46480866
_cell_angle_alpha   89.90800579
_cell_angle_beta   89.90800579
_cell_angle_gamma   89.98905811
_symmetry_Int_Tables_number   1
_chemical_formula_structural   CsSrI3
_chemical_formula_sum   'Cs1 Sr1 I3'
_cell_volume   270.81217369
_cell_formula_units_Z   1
loop_
 _symmetry_equiv_pos_site_id
 _symmetry_equiv_pos_as_xyz
  1  'x, y, z'
loop_
 _atom_site_type_symbol
 _atom_site_label
 _atom_site_symmetry_multiplicity
 _atom_site_fract_x
 _atom_site_fract_y
 _atom_site_fract_z
 _atom_site_occupancy
  Cs  Cs0  1  0.00175800  0.00175800  0.99958500  1
  Sr  Sr0  1  0.50573100  0.50573100  0.51770800  1
  I  I0  1  0.00237400  0.49911100  0.51351000  1
  I  I1  1  0.48775400  0.48775400  0.01678000  1
  I  I2  1  0.49911100  0.00237400  0.51351000  1
loop_
_geom_bond_atom_site_label_1
_geom_bond_atom_site_label_2
_geom_bond_distance
_geom_bond_site_symmetry_2
Cs0 I1 4.450473 1_556
Cs0 I0 4.494892 1_555
Cs0 I2 4.494892 1_555
Cs0 I0 4.526712 1_545
Cs0 I2 4.526712 1_455
I0 Sr0 3.214758 1_455
I0 Sr0 3.258311 1_555
I1 Sr0 3.230226 1_554
I1 Sr0 3.242955 1_555
I2 Sr0 3.214758 1_545
I2 Sr0 3.258311 1_555
