# generated using pymatgen
data_Sr3As
_symmetry_space_group_name_H-M   'P 1'
_cell_length_a   7.56626861
_cell_length_b   7.56626861
_cell_length_c   5.78807200
_cell_angle_alpha   90.00000000
_cell_angle_beta   90.00000000
_cell_angle_gamma   120.00000530
_symmetry_Int_Tables_number   1
_chemical_formula_structural   Sr3As
_chemical_formula_sum   'Sr6 As2'
_cell_volume   286.96441349
_cell_formula_units_Z   2
loop_
 _symmetry_equiv_pos_site_id
 _symmetry_equiv_pos_as_xyz
  1  'x, y, z'
loop_
 _atom_site_type_symbol
 _atom_site_label
 _atom_site_symmetry_multiplicity
 _atom_site_fract_x
 _atom_site_fract_y
 _atom_site_fract_z
 _atom_site_occupancy
  Sr  Sr0  1  0.17562300  0.35124600  0.25000000  1
  Sr  Sr1  1  0.64875400  0.82437700  0.25000000  1
  Sr  Sr2  1  0.17562300  0.82437700  0.25000000  1
  Sr  Sr3  1  0.82437700  0.64875400  0.75000000  1
  Sr  Sr4  1  0.35124600  0.17562300  0.75000000  1
  Sr  Sr5  1  0.82437700  0.17562300  0.75000000  1
  As  As0  1  0.33333300  0.66666700  0.75000000  1
  As  As1  1  0.66666700  0.33333300  0.25000000  1
loop_
_geom_bond_atom_site_label_1
_geom_bond_atom_site_label_2
_geom_bond_distance
_geom_bond_site_symmetry_2
As0 Sr2 3.556286 1_556
As0 Sr2 3.556286 1_555
As0 Sr0 3.556290 1_555
As0 Sr0 3.556290 1_556
As0 Sr1 3.556290 1_555
As0 Sr1 3.556290 1_556
As0 Sr3 3.784951 1_455
As0 Sr4 3.784951 1_565
As0 Sr5 3.784954 1_455
As0 Sr5 3.784954 1_565
As0 Sr4 3.784959 1_555
As0 Sr3 3.784959 1_555
As1 Sr5 3.556286 1_555
As1 Sr5 3.556286 1_554
As1 Sr3 3.556290 1_554
As1 Sr3 3.556290 1_555
As1 Sr4 3.556290 1_555
As1 Sr4 3.556290 1_554
As1 Sr1 3.784951 1_545
As1 Sr0 3.784951 1_655
As1 Sr2 3.784954 1_545
As1 Sr2 3.784954 1_655
As1 Sr0 3.784959 1_555
As1 Sr1 3.784959 1_555
