# generated using pymatgen
data_Ba3NaIrO6
_symmetry_space_group_name_H-M   'P 1'
_cell_length_a   7.15828540
_cell_length_b   7.15828540
_cell_length_c   7.15828531
_cell_angle_alpha   91.48784637
_cell_angle_beta   91.48784637
_cell_angle_gamma   91.48784764
_symmetry_Int_Tables_number   1
_chemical_formula_structural   Ba3NaIrO6
_chemical_formula_sum   'Ba6 Na2 Ir2 O12'
_cell_volume   366.42050933
_cell_formula_units_Z   2
loop_
 _symmetry_equiv_pos_site_id
 _symmetry_equiv_pos_as_xyz
  1  'x, y, z'
loop_
 _atom_site_type_symbol
 _atom_site_label
 _atom_site_symmetry_multiplicity
 _atom_site_fract_x
 _atom_site_fract_y
 _atom_site_fract_z
 _atom_site_occupancy
  Ba  Ba0  1  0.75000000  0.39381500  0.10618500  1
  Ba  Ba1  1  0.10618500  0.75000000  0.39381500  1
  Ba  Ba2  1  0.39381500  0.10618500  0.75000000  1
  Ba  Ba3  1  0.25000000  0.60618500  0.89381500  1
  Ba  Ba4  1  0.89381500  0.25000000  0.60618500  1
  Ba  Ba5  1  0.60618500  0.89381500  0.25000000  1
  Na  Na0  1  0.25000000  0.25000000  0.25000000  1
  Na  Na1  1  0.75000000  0.75000000  0.75000000  1
  Ir  Ir0  1  0.00000000  0.00000000  0.00000000  1
  Ir  Ir1  1  0.50000000  0.50000000  0.50000000  1
  O  O0  1  0.44876700  0.76639300  0.58178700  1
  O  O1  1  0.58178700  0.44876700  0.76639300  1
  O  O2  1  0.76639300  0.58178700  0.44876700  1
  O  O3  1  0.05123300  0.91821300  0.73360700  1
  O  O4  1  0.73360700  0.05123300  0.91821300  1
  O  O5  1  0.91821300  0.73360700  0.05123300  1
  O  O6  1  0.55123300  0.23360700  0.41821300  1
  O  O7  1  0.41821300  0.55123300  0.23360700  1
  O  O8  1  0.23360700  0.41821300  0.55123300  1
  O  O9  1  0.94876700  0.08178700  0.26639300  1
  O  O10  1  0.08178700  0.26639300  0.94876700  1
  O  O11  1  0.26639300  0.94876700  0.08178700  1
loop_
_geom_bond_atom_site_label_1
_geom_bond_atom_site_label_2
_geom_bond_distance
_geom_bond_site_symmetry_2
Ba0 O5 2.728194 1_555
Ba0 O1 2.728194 1_554
Ba0 O2 2.764701 1_555
Ba0 O4 2.764701 1_554
Ba0 O10 2.817906 1_654
Ba0 O7 2.817906 1_555
Ba0 O6 2.922645 1_555
Ba0 O9 2.922645 1_555
Ba1 O2 2.728194 1_455
Ba1 O3 2.728194 1_555
Ba1 O5 2.764701 1_455
Ba1 O0 2.764701 1_555
Ba1 O8 2.817906 1_555
Ba1 O9 2.817906 1_465
Ba1 O11 2.922645 1_555
Ba1 O7 2.922645 1_555
Ba2 O0 2.728194 1_545
Ba2 O4 2.728194 1_555
Ba2 O1 2.764701 1_555
Ba2 O3 2.764701 1_545
Ba2 O6 2.817906 1_555
Ba2 O11 2.817906 1_546
Ba2 O8 2.922645 1_555
Ba2 O10 2.922645 1_555
Ba3 O10 2.728194 1_555
Ba3 O7 2.728194 1_556
Ba3 O8 2.764701 1_555
Ba3 O11 2.764701 1_556
Ba3 O5 2.817906 1_456
Ba3 O1 2.817906 1_555
Ba3 O0 2.922645 1_555
Ba3 O3 2.922645 1_555
Ba4 O8 2.728194 1_655
Ba4 O9 2.728194 1_555
Ba4 O10 2.764701 1_655
Ba4 O6 2.764701 1_555
Ba4 O2 2.817906 1_555
Ba4 O3 2.817906 1_645
Ba4 O4 2.922645 1_555
Ba4 O1 2.922645 1_555
Ba5 O11 2.728194 1_555
Ba5 O6 2.728194 1_565
Ba5 O7 2.764701 1_555
Ba5 O9 2.764701 1_565
Ba5 O4 2.817906 1_564
Ba5 O0 2.817906 1_555
Ba5 O5 2.922645 1_555
Ba5 O2 2.922645 1_555
Na0 O9 2.449284 1_455
Na0 O7 2.449284 1_555
Na0 O8 2.449284 1_555
Na0 O10 2.449284 1_554
Na0 O11 2.449284 1_545
Na0 O6 2.449284 1_555
Na1 O1 2.449284 1_555
Na1 O3 2.449284 1_655
Na1 O2 2.449284 1_555
Na1 O5 2.449284 1_556
Na1 O0 2.449284 1_555
Na1 O4 2.449284 1_565
Ir0 O3 2.025606 1_544
Ir0 O9 2.025606 1_455
Ir0 O10 2.025606 1_554
Ir0 O5 2.025606 1_445
Ir0 O11 2.025606 1_545
Ir0 O4 2.025606 1_454
Ir1 O1 2.025606 1_555
Ir1 O7 2.025606 1_555
Ir1 O2 2.025606 1_555
Ir1 O8 2.025606 1_555
Ir1 O6 2.025606 1_555
Ir1 O0 2.025606 1_555
