# generated using pymatgen
data_Cr3Cu
_symmetry_space_group_name_H-M   'P 1'
_cell_length_a   3.60191800
_cell_length_b   3.60191800
_cell_length_c   3.60191800
_cell_angle_alpha   90.00000000
_cell_angle_beta   90.00000000
_cell_angle_gamma   90.00000000
_symmetry_Int_Tables_number   1
_chemical_formula_structural   Cr3Cu
_chemical_formula_sum   'Cr3 Cu1'
_cell_volume   46.73061158
_cell_formula_units_Z   1
loop_
 _symmetry_equiv_pos_site_id
 _symmetry_equiv_pos_as_xyz
  1  'x, y, z'
loop_
 _atom_site_type_symbol
 _atom_site_label
 _atom_site_symmetry_multiplicity
 _atom_site_fract_x
 _atom_site_fract_y
 _atom_site_fract_z
 _atom_site_occupancy
  Cr  Cr0  1  0.00000000  0.50000000  0.50000000  1
  Cr  Cr1  1  0.50000000  0.00000000  0.50000000  1
  Cr  Cr2  1  0.50000000  0.50000000  0.00000000  1
  Cu  Cu0  1  0.00000000  0.00000000  0.00000000  1
loop_
_geom_bond_atom_site_label_1
_geom_bond_atom_site_label_2
_geom_bond_distance
_geom_bond_site_symmetry_2
Cr0 Cr1 2.546941 1_565
Cr0 Cr2 2.546941 1_555
Cr0 Cr2 2.546941 1_556
Cr0 Cu0 2.546941 1_565
Cr0 Cu0 2.546941 1_556
Cr0 Cr1 2.546941 1_455
Cr0 Cu0 2.546941 1_555
Cr0 Cr1 2.546941 1_465
Cr0 Cr1 2.546941 1_555
Cr0 Cu0 2.546941 1_566
Cr0 Cr2 2.546941 1_455
Cr0 Cr2 2.546941 1_456
Cr1 Cr2 2.546941 1_555
Cr1 Cu0 2.546941 1_556
Cr1 Cu0 2.546941 1_656
Cr1 Cu0 2.546941 1_655
Cr1 Cr2 2.546941 1_545
Cr1 Cu0 2.546941 1_555
Cr1 Cr2 2.546941 1_546
Cr1 Cr2 2.546941 1_556
Cr2 Cu0 2.546941 1_565
Cr2 Cu0 2.546941 1_655
Cr2 Cu0 2.546941 1_555
Cr2 Cu0 2.546941 1_665
