# generated using pymatgen
data_PbAuO2
_symmetry_space_group_name_H-M   'P 1'
_cell_length_a   3.75104452
_cell_length_b   3.75104452
_cell_length_c   12.48695200
_cell_angle_alpha   90.00000000
_cell_angle_beta   90.00000000
_cell_angle_gamma   120.00000925
_symmetry_Int_Tables_number   1
_chemical_formula_structural   PbAuO2
_chemical_formula_sum   'Pb2 Au2 O4'
_cell_volume   152.15683707
_cell_formula_units_Z   2
loop_
 _symmetry_equiv_pos_site_id
 _symmetry_equiv_pos_as_xyz
  1  'x, y, z'
loop_
 _atom_site_type_symbol
 _atom_site_label
 _atom_site_symmetry_multiplicity
 _atom_site_fract_x
 _atom_site_fract_y
 _atom_site_fract_z
 _atom_site_occupancy
  Pb  Pb0  1  0.00000000  0.00000000  0.00000000  1
  Pb  Pb1  1  0.00000000  0.00000000  0.50000000  1
  Au  Au0  1  0.66666700  0.33333300  0.75000000  1
  Au  Au1  1  0.33333300  0.66666700  0.25000000  1
  O  O0  1  0.66666700  0.33333300  0.58917700  1
  O  O1  1  0.33333300  0.66666700  0.08917700  1
  O  O2  1  0.33333300  0.66666700  0.41082300  1
  O  O3  1  0.66666700  0.33333300  0.91082300  1
loop_
_geom_bond_atom_site_label_1
_geom_bond_atom_site_label_2
_geom_bond_distance
_geom_bond_site_symmetry_2
Au0 O3 2.008189 1_555
Au0 O0 2.008189 1_555
Au1 O2 2.008189 1_555
Au1 O1 2.008189 1_555
O0 Pb1 2.435178 1_655
O0 Pb1 2.435181 1_665
O0 Pb1 2.435181 1_555
O1 Pb0 2.435178 1_565
O1 Pb0 2.435181 1_555
O1 Pb0 2.435181 1_665
O2 Pb1 2.435178 1_565
O2 Pb1 2.435181 1_665
O2 Pb1 2.435181 1_555
O3 Pb0 2.435178 1_656
O3 Pb0 2.435181 1_666
O3 Pb0 2.435181 1_556
