# generated using pymatgen
data_Lu3Ga5Ni
_symmetry_space_group_name_H-M   'P 1'
_cell_length_a   6.71393231
_cell_length_b   6.71393329
_cell_length_c   4.12862609
_cell_angle_alpha   90.00000000
_cell_angle_beta   90.00000000
_cell_angle_gamma   120.01089926
_symmetry_Int_Tables_number   1
_chemical_formula_structural   Lu3Ga5Ni
_chemical_formula_sum   'Lu3 Ga5 Ni1'
_cell_volume   161.15450718
_cell_formula_units_Z   1
loop_
 _symmetry_equiv_pos_site_id
 _symmetry_equiv_pos_as_xyz
  1  'x, y, z'
loop_
 _atom_site_type_symbol
 _atom_site_label
 _atom_site_symmetry_multiplicity
 _atom_site_fract_x
 _atom_site_fract_y
 _atom_site_fract_z
 _atom_site_occupancy
  Lu  Lu0  1  0.59306809  0.99996860  0.50000100  1
  Lu  Lu1  1  0.40699622  0.40699622  0.50000100  1
  Lu  Lu2  1  0.99996860  0.59306909  0.50000100  1
  Ga  Ga0  1  0.23647981  0.99995386  -0.00000000  1
  Ga  Ga1  1  0.99995486  0.23647981  -0.00000000  1
  Ga  Ga2  1  0.66669693  0.33333289  -0.00000000  1
  Ga  Ga3  1  0.33333389  0.66669693  -0.00000000  1
  Ga  Ga4  1  0.76359383  0.76359383  0.00000000  1
  Ni  Ni0  1  0.00000677  0.00000577  0.50000100  1
loop_
_geom_bond_atom_site_label_1
_geom_bond_atom_site_label_2
_geom_bond_distance
_geom_bond_site_symmetry_2
Lu0 Ni0 2.732034 1_665
Lu1 Ni0 2.732053 1_555
Lu2 Ni0 2.732018 1_665
Ga0 Ni0 2.604343 1_564
Ga0 Ni0 2.604349 1_565
Ga0 Ga3 2.623841 1_555
Ga0 Ga2 2.624072 1_565
Ga0 Ga4 2.749263 1_455
Ga0 Ga1 2.750675 1_465
Ga0 Lu2 3.147423 1_454
Ga0 Lu2 3.147429 1_455
Ga0 Lu1 3.148145 1_564
Ga0 Lu1 3.148150 1_565
Ga0 Lu0 3.161154 1_554
Ga0 Lu0 3.161159 1_555
Ga1 Ni0 2.604347 1_654
Ga1 Ni0 2.604354 1_655
Ga1 Ga2 2.623843 1_555
Ga1 Ga3 2.624072 1_655
Ga1 Ga4 2.749264 1_545
Ga1 Lu0 3.147431 1_544
Ga1 Lu0 3.147437 1_545
Ga1 Lu1 3.148140 1_654
Ga1 Lu1 3.148146 1_655
Ga1 Lu2 3.161162 1_554
Ga1 Lu2 3.161167 1_555
Ga2 Ga4 2.624528 1_555
Ga2 Lu2 2.899278 1_554
Ga2 Lu2 2.899284 1_555
Ga2 Lu0 2.899729 1_544
Ga2 Lu0 2.899735 1_545
Ga2 Lu1 2.899790 1_554
Ga2 Lu1 2.899796 1_555
Ga3 Ga4 2.624521 1_555
Ga3 Lu0 2.899276 1_554
Ga3 Lu0 2.899282 1_555
Ga3 Lu2 2.899735 1_454
Ga3 Lu2 2.899741 1_455
Ga3 Lu1 2.899787 1_554
Ga3 Lu1 2.899793 1_555
Ga4 Ni0 2.603829 1_664
Ga4 Ni0 2.603836 1_665
Ga4 Lu2 3.147742 1_554
Ga4 Lu0 3.147746 1_554
Ga4 Lu2 3.147747 1_555
Ga4 Lu0 3.147751 1_555
Ga4 Lu1 3.160940 1_554
Ga4 Lu1 3.160946 1_555
