# generated using pymatgen
data_Fe5O7F3
_symmetry_space_group_name_H-M   'P 1'
_cell_length_a   15.21782300
_cell_length_b   4.65692900
_cell_length_c   4.65788118
_cell_angle_alpha   89.95927197
_cell_angle_beta   90.00000000
_cell_angle_gamma   90.00000000
_symmetry_Int_Tables_number   1
_chemical_formula_structural   Fe5O7F3
_chemical_formula_sum   'Fe10 O14 F6'
_cell_volume   330.09613616
_cell_formula_units_Z   2
loop_
 _symmetry_equiv_pos_site_id
 _symmetry_equiv_pos_as_xyz
  1  'x, y, z'
loop_
 _atom_site_type_symbol
 _atom_site_label
 _atom_site_symmetry_multiplicity
 _atom_site_fract_x
 _atom_site_fract_y
 _atom_site_fract_z
 _atom_site_occupancy
  Fe  Fe0  1  0.19264700  0.01432800  0.96251100  1
  Fe  Fe1  1  0.00000000  0.97144700  0.01905600  1
  Fe  Fe2  1  0.80735300  0.01432800  0.96251100  1
  Fe  Fe3  1  0.60091900  0.98022800  0.98934200  1
  Fe  Fe4  1  0.39908100  0.98022800  0.98934200  1
  Fe  Fe5  1  0.09998600  0.49280300  0.49216900  1
  Fe  Fe6  1  0.69391800  0.51061600  0.52938600  1
  Fe  Fe7  1  0.90001400  0.49280300  0.49216900  1
  Fe  Fe8  1  0.50000000  0.51359700  0.51782200  1
  Fe  Fe9  1  0.30608200  0.51061600  0.52938600  1
  O  O0  1  0.09481600  0.79175600  0.80332800  1
  O  O1  1  0.90518400  0.79175600  0.80332800  1
  O  O2  1  0.70376400  0.82032900  0.80893900  1
  O  O3  1  0.50000000  0.80449300  0.81754700  1
  O  O4  1  0.29623600  0.82032900  0.80893900  1
  O  O5  1  0.19929400  0.32006400  0.67909200  1
  O  O6  1  0.80070600  0.32006400  0.67909200  1
  O  O7  1  0.59592700  0.30410300  0.70353400  1
  O  O8  1  0.40407300  0.30410300  0.70353400  1
  O  O9  1  0.00000000  0.67148300  0.31512100  1
  O  O10  1  0.59762000  0.69639000  0.31245300  1
  O  O11  1  0.40238000  0.69639000  0.31245300  1
  O  O12  1  0.09633700  0.18455900  0.19283500  1
  O  O13  1  0.90366300  0.18455900  0.19283500  1
  F  F0  1  0.00000000  0.28707500  0.69731400  1
  F  F1  1  0.20184200  0.70665800  0.29558600  1
  F  F2  1  0.79815800  0.70665800  0.29558600  1
  F  F3  1  0.70192000  0.20649900  0.19613400  1
  F  F4  1  0.29808000  0.20649900  0.19613400  1
  F  F5  1  0.50000000  0.19524000  0.20252000  1
loop_
_geom_bond_atom_site_label_1
_geom_bond_atom_site_label_2
_geom_bond_distance
_geom_bond_site_symmetry_2
Fe0 O5 1.943576 1_555
Fe0 O4 1.952905 1_545
Fe0 O0 1.960009 1_545
Fe0 O12 1.982090 1_556
Fe1 O12 1.946937 1_565
Fe1 O13 1.946937 1_465
Fe1 O0 1.947583 1_554
Fe1 O1 1.947583 1_454
Fe1 O9 1.962234 1_555
Fe2 O6 1.943576 1_555
Fe2 O2 1.952905 1_545
Fe2 O1 1.960009 1_545
Fe2 O13 1.982090 1_556
Fe3 O3 1.915617 1_555
Fe3 O2 1.926380 1_555
Fe3 O10 2.002984 1_556
Fe3 O7 2.012468 1_565
Fe4 O3 1.915617 1_555
Fe4 O4 1.926380 1_555
Fe4 O11 2.002984 1_556
Fe4 O8 2.012468 1_565
Fe5 O9 1.920069 1_555
Fe5 O5 1.920431 1_555
Fe5 O12 2.002616 1_555
Fe5 O0 2.011934 1_555
Fe6 O2 1.949593 1_555
Fe6 O7 1.950763 1_555
Fe6 O6 1.978310 1_555
Fe6 O10 1.978827 1_555
Fe7 O9 1.920069 1_655
Fe7 O6 1.920431 1_555
Fe7 O13 2.002616 1_555
Fe7 O1 2.011934 1_555
Fe8 O3 1.945996 1_555
Fe8 O7 1.957007 1_555
Fe8 O8 1.957007 1_555
Fe8 O11 1.960977 1_555
Fe8 O10 1.960977 1_555
Fe9 O4 1.949593 1_555
Fe9 O8 1.950763 1_555
Fe9 O5 1.978310 1_555
Fe9 O11 1.978827 1_555
F0 Fe5 2.035881 1_555
F0 Fe7 2.035881 1_455
F0 Fe1 2.098394 1_546
F1 Fe5 2.057074 1_555
F1 Fe0 2.115713 1_564
F1 Fe9 2.129410 1_555
F2 Fe7 2.057074 1_555
F2 Fe2 2.115713 1_564
F2 Fe6 2.129410 1_555
F3 Fe3 2.098090 1_544
F3 Fe6 2.105516 1_555
F3 Fe2 2.135586 1_554
F4 Fe4 2.098090 1_544
F4 Fe9 2.105516 1_555
F4 Fe0 2.135586 1_554
F5 Fe3 2.085319 1_544
F5 Fe4 2.085319 1_544
F5 Fe8 2.087582 1_555
