# generated using pymatgen
data_YAgSe2
_symmetry_space_group_name_H-M   'P 1'
_cell_length_a   7.35836738
_cell_length_b   7.35836738
_cell_length_c   7.35836738
_cell_angle_alpha   134.30305203
_cell_angle_beta   134.30305203
_cell_angle_gamma   66.61504954
_symmetry_Int_Tables_number   1
_chemical_formula_structural   YAgSe2
_chemical_formula_sum   'Y2 Ag2 Se4'
_cell_volume   200.81564361
_cell_formula_units_Z   2
loop_
 _symmetry_equiv_pos_site_id
 _symmetry_equiv_pos_as_xyz
  1  'x, y, z'
loop_
 _atom_site_type_symbol
 _atom_site_label
 _atom_site_symmetry_multiplicity
 _atom_site_fract_x
 _atom_site_fract_y
 _atom_site_fract_z
 _atom_site_occupancy
  Y  Y0  1  0.00000000  0.00000000  0.00000000  1
  Y  Y1  1  0.75000000  0.25000000  0.50000000  1
  Ag  Ag0  1  0.50000000  0.50000000  0.00000000  1
  Ag  Ag1  1  0.25000000  0.75000000  0.50000000  1
  Se  Se0  1  0.76602400  0.76602400  0.00000000  1
  Se  Se1  1  0.23397600  0.23397600  0.00000000  1
  Se  Se2  1  0.98397600  0.48397600  0.50000000  1
  Se  Se3  1  0.51602400  0.01602400  0.50000000  1
loop_
_geom_bond_atom_site_label_1
_geom_bond_atom_site_label_2
_geom_bond_distance
_geom_bond_site_symmetry_2
Ag0 Se3 2.864009 1_554
Ag0 Se2 2.864009 1_454
Ag0 Se3 2.864009 1_565
Ag0 Se2 2.864009 1_555
Ag0 Se0 3.271907 1_555
Ag0 Se1 3.271907 1_555
Ag1 Se0 2.864009 1_455
Ag1 Se0 2.864009 1_556
Ag1 Se1 2.864009 1_555
Ag1 Se1 2.864009 1_566
Ag1 Se3 3.271907 1_565
Ag1 Se2 3.271907 1_455
Se0 Y1 2.864009 1_554
Se0 Y1 2.864009 1_565
Se0 Y0 2.877740 1_665
Se1 Y1 2.864009 1_454
Se1 Y1 2.864009 1_555
Se1 Y0 2.877740 1_555
Se2 Y0 2.864009 1_655
Se2 Y0 2.864009 1_666
Se2 Y1 2.877740 1_555
Se3 Y0 2.864009 1_555
Se3 Y0 2.864009 1_656
Se3 Y1 2.877740 1_555
