# generated using pymatgen
data_K(WO3)3
_symmetry_space_group_name_H-M   'P 1'
_cell_length_a   3.88268600
_cell_length_b   7.52727188
_cell_length_c   32.78131749
_cell_angle_alpha   83.43064728
_cell_angle_beta   89.95257645
_cell_angle_gamma   89.94989178
_symmetry_Int_Tables_number   1
_chemical_formula_structural   K(WO3)3
_chemical_formula_sum   'K5 W15 O45'
_cell_volume   951.77667712
_cell_formula_units_Z   5
loop_
 _symmetry_equiv_pos_site_id
 _symmetry_equiv_pos_as_xyz
  1  'x, y, z'
loop_
 _atom_site_type_symbol
 _atom_site_label
 _atom_site_symmetry_multiplicity
 _atom_site_fract_x
 _atom_site_fract_y
 _atom_site_fract_z
 _atom_site_occupancy
  K  K0  1  0.88936400  0.20280400  0.10049000  1
  K  K1  1  0.90744000  0.59541000  0.29910900  1
  K  K2  1  0.90467000  0.99401800  0.50085700  1
  K  K3  1  0.90043300  0.39411900  0.70056000  1
  K  K4  1  0.09042800  0.80339100  0.90064000  1
  W  W0  1  0.49135000  0.70313800  0.09985800  1
  W  W1  1  0.49872100  0.40007000  0.19996100  1
  W  W2  1  0.49917700  0.09958600  0.29971700  1
  W  W3  1  0.49946600  0.89935500  0.19993300  1
  W  W4  1  0.50342800  0.30161400  0.39975200  1
  W  W5  1  0.49999300  0.80182600  0.40030000  1
  W  W6  1  0.50196100  0.50059300  0.50017800  1
  W  W7  1  0.49922600  0.19967900  0.59982400  1
  W  W8  1  0.50377900  0.69823100  0.60024000  1
  W  W9  1  0.50297000  0.89877200  0.69995900  1
  W  W10  1  0.49682200  0.09862900  0.80051600  1
  W  W11  1  0.50379600  0.59887500  0.80002700  1
  W  W12  1  0.50554200  0.29987800  0.90002900  1
  W  W13  1  0.50039600  0.50090300  0.99987800  1
  W  W14  1  0.49690100  0.00169600  0.99993200  1
  O  O0  1  0.49877500  0.24044200  0.01654700  1
  O  O1  1  0.49780700  0.53762200  0.05804600  1
  O  O2  1  0.49592000  0.90537800  0.05868500  1
  O  O3  1  0.99551200  0.69965300  0.09982200  1
  O  O4  1  0.49744000  0.49552800  0.14175900  1
  O  O5  1  0.50143700  0.15550400  0.18386900  1
  O  O6  1  0.99896200  0.40237400  0.19912800  1
  O  O7  1  0.49697300  0.86413500  0.14127100  1
  O  O8  1  0.49850700  0.64496100  0.21665400  1
  O  O9  1  0.49881100  0.30825100  0.25728700  1
  O  O10  1  0.00028400  0.10323800  0.30054100  1
  O  O11  1  0.99961900  0.89868000  0.19985100  1
  O  O12  1  0.50105000  0.93858500  0.25885100  1
  O  O13  1  0.50018000  0.26798300  0.34202100  1
  O  O14  1  0.50309400  0.04472600  0.41570500  1
  O  O15  1  0.00323600  0.30165800  0.39950800  1
  O  O16  1  0.50170500  0.89358900  0.34276300  1
  O  O17  1  0.50367700  0.55916300  0.38459800  1
  O  O18  1  0.00197300  0.80224600  0.40018100  1
  O  O19  1  0.50565500  0.33547300  0.45749000  1
  O  O20  1  0.50329600  0.70971800  0.45771300  1
  O  O21  1  0.00308900  0.49799800  0.49925900  1
  O  O22  1  0.50072600  0.29215400  0.54274400  1
  O  O23  1  0.00041500  0.19805800  0.60053800  1
  O  O24  1  0.50390200  0.66187300  0.54126200  1
  O  O25  1  0.50005700  0.10668800  0.65842200  1
  O  O26  1  0.50466900  0.44364500  0.61660900  1
  O  O27  1  0.00381700  0.69921700  0.59996800  1
  O  O28  1  0.50228500  0.95416600  0.58430300  1
  O  O29  1  0.50432700  0.06320400  0.74223600  1
  O  O30  1  0.50606900  0.73665900  0.65892600  1
  O  O31  1  0.99901800  0.09837300  0.80016500  1
  O  O32  1  0.00396400  0.90334200  0.69986300  1
  O  O33  1  0.50220300  0.35739000  0.78416000  1
  O  O34  1  0.50577500  0.69607300  0.74136600  1
  O  O35  1  0.00297400  0.59956200  0.79995900  1
  O  O36  1  0.49887500  0.13342500  0.85769900  1
  O  O37  1  0.50405700  0.50433800  0.85846700  1
  O  O38  1  0.49723200  0.84057100  0.81599700  1
  O  O39  1  0.00350700  0.29966000  0.90023300  1
  O  O40  1  0.49979700  0.09497600  0.94131200  1
  O  O41  1  0.50359700  0.46523700  0.94259400  1
  O  O42  1  0.00015700  0.50063400  0.00005800  1
  O  O43  1  0.49896000  0.76156900  0.98426100  1
  O  O44  1  0.99785400  0.00149500  0.00016500  1
loop_
_geom_bond_atom_site_label_1
_geom_bond_atom_site_label_2
_geom_bond_distance
_geom_bond_site_symmetry_2
K0 O5 3.104454 1_555
K0 O4 3.110250 1_555
K0 O0 3.127317 1_555
K0 O1 3.129439 1_555
K0 O7 3.135388 1_545
K0 O2 3.152047 1_545
K1 O8 3.121154 1_555
K1 O9 3.123566 1_555
K1 O13 3.124657 1_555
K1 O12 3.181261 1_555
K1 O17 3.194414 1_555
K1 O16 3.208152 1_555
K2 O24 3.110000 1_555
K2 O20 3.116177 1_555
K2 O28 3.133633 1_555
K2 O22 3.174404 1_565
K2 O14 3.182928 1_565
K2 O19 3.191846 1_565
K3 O29 3.108196 1_555
K3 O25 3.114319 1_555
K3 O33 3.130173 1_555
K3 O26 3.137689 1_555
K3 O34 3.160639 1_555
K3 O30 3.169659 1_555
K4 O40 3.130576 1_565
K4 O36 3.141826 1_565
K4 O43 3.152495 1_555
K4 O38 3.176156 1_555
K4 O41 3.184243 1_555
K4 O37 3.203091 1_555
O0 W14 1.936567 1_554
O0 W13 1.974161 1_554
O1 W0 1.955036 1_555
O1 W13 1.957812 1_554
O2 W0 1.915551 1_555
O2 W14 1.978793 1_564
O3 W0 1.925388 1_655
O3 W0 1.957657 1_555
O4 W0 1.959142 1_555
O4 W1 1.960325 1_555
O5 W3 1.939754 1_545
O5 W1 1.972184 1_555
O6 W1 1.940656 1_655
O6 W1 1.942513 1_555
O7 W0 1.920583 1_555
O7 W3 1.971056 1_555
O8 W3 1.930576 1_555
O8 W1 1.981977 1_555
O9 W1 1.926649 1_555
O9 W2 1.975294 1_555
O10 W2 1.937426 1_555
O10 W2 1.946113 1_455
O11 W3 1.940765 1_655
O11 W3 1.941940 1_555
O12 W2 1.906524 1_565
O12 W3 1.986983 1_555
O13 W4 1.937901 1_555
O13 W2 1.982963 1_555
O14 W4 1.944524 1_555
O14 W5 1.951777 1_545
O15 W4 1.940608 1_455
O15 W4 1.942111 1_555
O16 W5 1.933017 1_555
O16 W2 1.973576 1_565
O17 W4 1.945444 1_555
O17 W5 1.953627 1_555
O18 W5 1.933662 1_555
O18 W5 1.949036 1_455
O19 W4 1.938519 1_555
O19 W6 1.975133 1_555
O20 W5 1.929900 1_555
O20 W6 1.978480 1_555
O21 W6 1.937373 1_555
O21 W6 1.946046 1_455
O22 W7 1.920355 1_555
O22 W6 1.976824 1_555
O23 W7 1.936881 1_555
O23 W7 1.946130 1_455
O24 W6 1.913590 1_555
O24 W8 1.983409 1_555
O25 W9 1.953440 1_545
O25 W7 1.967803 1_555
O26 W8 1.930027 1_555
O26 W7 1.976576 1_555
O27 W8 1.941227 1_555
O27 W8 1.941520 1_455
O28 W8 1.937534 1_555
O28 W7 1.972151 1_565
O29 W10 1.959185 1_555
O29 W9 1.960922 1_545
O30 W9 1.916783 1_555
O30 W8 1.977911 1_555
O31 W10 1.932864 1_655
O31 W10 1.949894 1_555
O32 W9 1.937758 1_555
O32 W9 1.945530 1_455
O33 W11 1.947065 1_555
O33 W10 1.960306 1_555
O34 W9 1.922675 1_555
O34 W11 1.977697 1_555
O35 W11 1.938162 1_455
O35 W11 1.944539 1_555
O36 W10 1.922216 1_555
O36 W12 1.973317 1_555
O37 W12 1.935235 1_555
O37 W11 1.965838 1_555
O38 W11 1.949985 1_555
O38 W10 1.950688 1_565
O39 W12 1.933457 1_455
O39 W12 1.949252 1_555
O40 W12 1.932153 1_555
O40 W14 1.969032 1_555
O41 W13 1.927133 1_555
O41 W12 1.973238 1_555
O42 W13 1.940427 1_454
O42 W13 1.942277 1_554
O43 W14 1.934802 1_565
O43 W13 1.970309 1_555
O44 W14 1.937653 1_654
O44 W14 1.945063 1_554
