# generated using pymatgen
data_LiNdSn2
_symmetry_space_group_name_H-M   'P 1'
_cell_length_a   4.51024400
_cell_length_b   4.55409900
_cell_length_c   9.84641441
_cell_angle_alpha   90.00000000
_cell_angle_beta   103.23995682
_cell_angle_gamma   90.00000000
_symmetry_Int_Tables_number   1
_chemical_formula_structural   LiNdSn2
_chemical_formula_sum   'Li2 Nd2 Sn4'
_cell_volume   196.87048947
_cell_formula_units_Z   2
loop_
 _symmetry_equiv_pos_site_id
 _symmetry_equiv_pos_as_xyz
  1  'x, y, z'
loop_
 _atom_site_type_symbol
 _atom_site_label
 _atom_site_symmetry_multiplicity
 _atom_site_fract_x
 _atom_site_fract_y
 _atom_site_fract_z
 _atom_site_occupancy
  Li  Li0  1  0.67582200  0.75000000  0.35164400  1
  Li  Li1  1  0.32417800  0.25000000  0.64835600  1
  Nd  Nd0  1  0.89362900  0.75000000  0.78725800  1
  Nd  Nd1  1  0.10637100  0.25000000  0.21274200  1
  Sn  Sn0  1  0.25048400  0.75000000  0.50096800  1
  Sn  Sn1  1  0.74951600  0.25000000  0.49903200  1
  Sn  Sn2  1  0.54387900  0.75000000  0.08775800  1
  Sn  Sn3  1  0.45612100  0.25000000  0.91224200  1
loop_
_geom_bond_atom_site_label_1
_geom_bond_atom_site_label_2
_geom_bond_distance
_geom_bond_site_symmetry_2
Li0 Sn2 2.529266 1_555
Li0 Sn0 2.670951 1_655
Li0 Sn0 2.670951 1_555
Li0 Sn1 2.679662 1_555
Li0 Sn1 2.679662 1_565
Li0 Nd1 3.470299 1_655
Li0 Nd1 3.470299 1_665
Li0 Nd1 3.470299 1_555
Li0 Nd1 3.470299 1_565
Li1 Sn3 2.529266 1_555
Li1 Sn1 2.670951 1_555
Li1 Sn1 2.670951 1_455
Li1 Sn0 2.679662 1_555
Li1 Sn0 2.679662 1_545
Li1 Nd0 3.470299 1_555
Li1 Nd0 3.470299 1_545
Li1 Nd0 3.470299 1_445
Li1 Nd0 3.470299 1_455
Nd0 Sn3 3.421341 1_665
Nd0 Sn3 3.421341 1_565
Nd0 Sn3 3.421341 1_555
Nd0 Sn3 3.421341 1_655
Nd0 Sn0 3.551777 1_655
Nd0 Sn0 3.551777 1_555
Nd0 Sn1 3.580039 1_555
Nd0 Sn1 3.580039 1_565
Nd0 Sn2 3.658022 1_656
Nd0 Sn2 3.658022 1_556
Nd1 Sn2 3.421341 1_455
Nd1 Sn2 3.421341 1_445
Nd1 Sn2 3.421341 1_555
Nd1 Sn2 3.421341 1_545
Nd1 Sn1 3.551777 1_455
Nd1 Sn1 3.551777 1_555
Nd1 Sn0 3.580039 1_555
Nd1 Sn0 3.580039 1_545
Nd1 Sn3 3.658022 1_454
Nd1 Sn3 3.658022 1_554
