# generated using pymatgen
data_Na3Cd2IrO6
_symmetry_space_group_name_H-M   'P 1'
_cell_length_a   5.77697810
_cell_length_b   5.77697810
_cell_length_c   5.73982229
_cell_angle_alpha   79.96665444
_cell_angle_beta   79.96665444
_cell_angle_gamma   119.79767390
_symmetry_Int_Tables_number   1
_chemical_formula_structural   Na3Cd2IrO6
_chemical_formula_sum   'Na3 Cd2 Ir1 O6'
_cell_volume   155.87894058
_cell_formula_units_Z   1
loop_
 _symmetry_equiv_pos_site_id
 _symmetry_equiv_pos_as_xyz
  1  'x, y, z'
loop_
 _atom_site_type_symbol
 _atom_site_label
 _atom_site_symmetry_multiplicity
 _atom_site_fract_x
 _atom_site_fract_y
 _atom_site_fract_z
 _atom_site_occupancy
  Na  Na0  1  0.50000000  0.50000000  0.50000000  1
  Na  Na1  1  0.16442000  0.83558000  0.50000000  1
  Na  Na2  1  0.83558000  0.16442000  0.50000000  1
  Cd  Cd0  1  0.33260000  0.66740000  0.00000000  1
  Cd  Cd1  1  0.66740000  0.33260000  0.00000000  1
  Ir  Ir0  1  0.00000000  0.00000000  0.00000000  1
  O  O0  1  0.21870700  0.21870700  0.20477900  1
  O  O1  1  0.78129300  0.78129300  0.79522100  1
  O  O2  1  0.64093500  0.92975400  0.21466900  1
  O  O3  1  0.07024600  0.35906500  0.78533100  1
  O  O4  1  0.92975400  0.64093500  0.21466900  1
  O  O5  1  0.35906500  0.07024600  0.78533100  1
loop_
_geom_bond_atom_site_label_1
_geom_bond_atom_site_label_2
_geom_bond_distance
_geom_bond_site_symmetry_2
Na0 O3 2.370327 1_555
Na0 O4 2.370327 1_555
Na0 O5 2.370327 1_555
Na0 O2 2.370327 1_555
Na0 O1 2.728959 1_555
Na0 O0 2.728959 1_555
Na1 O4 2.384262 1_455
Na1 O5 2.384262 1_565
Na1 O1 2.384664 1_455
Na1 O0 2.384664 1_565
Na1 O3 2.680734 1_555
Na1 O2 2.680734 1_555
Na2 O2 2.384262 1_545
Na2 O3 2.384262 1_655
Na2 O0 2.384664 1_655
Na2 O1 2.384664 1_545
Na2 O5 2.680734 1_555
Na2 O4 2.680734 1_555
Cd0 O1 2.346756 1_554
Cd0 O0 2.346756 1_555
Cd0 O5 2.353545 1_564
Cd0 O4 2.353545 1_455
Cd0 O3 2.391747 1_554
Cd0 O2 2.391747 1_555
Cd1 O1 2.346756 1_554
Cd1 O0 2.346756 1_555
Cd1 O3 2.353545 1_654
Cd1 O2 2.353545 1_545
Cd1 O4 2.391747 1_555
Cd1 O5 2.391747 1_554
Ir0 O0 2.005641 1_555
Ir0 O1 2.005641 1_444
Ir0 O4 2.020950 1_445
Ir0 O2 2.020950 1_445
Ir0 O3 2.020950 1_554
Ir0 O5 2.020950 1_554
