# generated using pymatgen
data_YLuCu2
_symmetry_space_group_name_H-M   'P 1'
_cell_length_a   4.82182487
_cell_length_b   4.82182487
_cell_length_c   4.82182487
_cell_angle_alpha   60.00000000
_cell_angle_beta   60.00000000
_cell_angle_gamma   60.00000000
_symmetry_Int_Tables_number   1
_chemical_formula_structural   YLuCu2
_chemical_formula_sum   'Y1 Lu1 Cu2'
_cell_volume   79.27190571
_cell_formula_units_Z   1
loop_
 _symmetry_equiv_pos_site_id
 _symmetry_equiv_pos_as_xyz
  1  'x, y, z'
loop_
 _atom_site_type_symbol
 _atom_site_label
 _atom_site_symmetry_multiplicity
 _atom_site_fract_x
 _atom_site_fract_y
 _atom_site_fract_z
 _atom_site_occupancy
  Y  Y0  1  0.75000000  0.75000000  0.75000000  1
  Lu  Lu0  1  0.24999900  0.24999900  0.24999900  1
  Cu  Cu0  1  0.00000000  0.00000000  0.00000000  1
  Cu  Cu1  1  0.50000100  0.50000100  0.50000100  1
loop_
_geom_bond_atom_site_label_1
_geom_bond_atom_site_label_2
_geom_bond_distance
_geom_bond_site_symmetry_2
Cu0 Lu0 2.952741 1_555
Cu0 Y0 2.952753 1_445
Cu0 Y0 2.952753 1_454
Cu0 Y0 2.952753 1_444
Cu0 Y0 2.952753 1_544
Cu0 Lu0 2.952757 1_455
Cu0 Lu0 2.952757 1_545
Cu0 Lu0 2.952757 1_554
Cu1 Y0 2.952741 1_555
Cu1 Lu0 2.952745 1_565
Cu1 Lu0 2.952745 1_655
Cu1 Lu0 2.952745 1_556
Cu1 Y0 2.952757 1_545
Cu1 Y0 2.952757 1_554
Cu1 Y0 2.952757 1_455
Cu1 Lu0 2.952776 1_555
