# generated using pymatgen
data_PrW3
_symmetry_space_group_name_H-M   'P 1'
_cell_length_a   4.73990363
_cell_length_b   4.73990363
_cell_length_c   4.73990363
_cell_angle_alpha   60.00000000
_cell_angle_beta   60.00000000
_cell_angle_gamma   60.00000000
_symmetry_Int_Tables_number   1
_chemical_formula_structural   PrW3
_chemical_formula_sum   'Pr1 W3'
_cell_volume   75.29975066
_cell_formula_units_Z   1
loop_
 _symmetry_equiv_pos_site_id
 _symmetry_equiv_pos_as_xyz
  1  'x, y, z'
loop_
 _atom_site_type_symbol
 _atom_site_label
 _atom_site_symmetry_multiplicity
 _atom_site_fract_x
 _atom_site_fract_y
 _atom_site_fract_z
 _atom_site_occupancy
  Pr  Pr0  1  0.00000000  0.00000000  0.00000000  1
  W  W0  1  0.25000000  0.25000000  0.25000000  1
  W  W1  1  0.75000000  0.75000000  0.75000000  1
  W  W2  1  0.50000000  0.50000000  0.50000000  1
loop_
_geom_bond_atom_site_label_1
_geom_bond_atom_site_label_2
_geom_bond_distance
_geom_bond_site_symmetry_2
Pr0 W1 2.902586 1_544
Pr0 W1 2.902586 1_444
Pr0 W0 2.902586 1_554
Pr0 W0 2.902586 1_455
Pr0 W1 2.902586 1_454
Pr0 W0 2.902586 1_555
Pr0 W1 2.902586 1_445
Pr0 W0 2.902586 1_545
W0 W2 2.902586 1_545
W0 W2 2.902586 1_555
W0 W2 2.902586 1_455
W0 W2 2.902586 1_554
W1 W2 2.902586 1_555
W1 W2 2.902586 1_655
W1 W2 2.902586 1_565
W1 W2 2.902586 1_556
