# generated using pymatgen
data_La11In9Ni4
_symmetry_space_group_name_H-M   'P 1'
_cell_length_a   27.11914470
_cell_length_b   27.11914470
_cell_length_c   7.70109986
_cell_angle_alpha   90.00000000
_cell_angle_beta   90.00000000
_cell_angle_gamma   112.42077425
_symmetry_Int_Tables_number   1
_chemical_formula_structural   La11In9Ni4
_chemical_formula_sum   'La88 In72 Ni32'
_cell_volume   5235.62261914
_cell_formula_units_Z   8
loop_
 _symmetry_equiv_pos_site_id
 _symmetry_equiv_pos_as_xyz
  1  'x, y, z'
loop_
 _atom_site_type_symbol
 _atom_site_label
 _atom_site_symmetry_multiplicity
 _atom_site_fract_x
 _atom_site_fract_y
 _atom_site_fract_z
 _atom_site_occupancy
  La  La0_0  1  0.15685160  0.15685160  0.00000000  1
  La  La0_1  1  0.15685160  0.15685160  0.50000000  1
  La  La0_2  1  0.15685159  0.65685159  0.00000000  1
  La  La0_3  1  0.15685159  0.65685159  0.50000000  1
  La  La0_4  1  0.65685159  0.15685159  0.00000000  1
  La  La0_5  1  0.65685159  0.15685159  0.50000000  1
  La  La0_6  1  0.65685160  0.65685160  0.00000000  1
  La  La0_7  1  0.65685160  0.65685160  0.50000000  1
  La  La1_0  1  0.34314840  0.34314840  0.00000000  1
  La  La1_1  1  0.34314840  0.34314840  0.50000000  1
  La  La1_2  1  0.34314840  0.84314840  0.00000000  1
  La  La1_3  1  0.34314840  0.84314840  0.50000000  1
  La  La1_4  1  0.84314840  0.34314840  0.00000000  1
  La  La1_5  1  0.84314840  0.34314840  0.50000000  1
  La  La1_6  1  0.84314840  0.84314840  0.00000000  1
  La  La1_7  1  0.84314840  0.84314840  0.50000000  1
  La  La2_0  1  0.00000000  0.00000000  0.00000000  1
  La  La2_1  1  0.00000000  0.00000000  0.50000000  1
  La  La2_2  1  0.00000000  0.50000000  0.00000000  1
  La  La2_3  1  0.00000000  0.50000000  0.50000000  1
  La  La2_4  1  0.50000000  0.00000000  0.00000000  1
  La  La2_5  1  0.50000000  0.00000000  0.50000000  1
  La  La2_6  1  0.50000000  0.50000000  0.00000000  1
  La  La2_7  1  0.50000000  0.50000000  0.50000000  1
  La  La3_0  1  0.03917733  0.20866032  0.00000000  1
  La  La3_1  1  0.03917733  0.20866032  0.50000000  1
  La  La3_2  1  0.03917734  0.70866032  0.00000000  1
  La  La3_3  1  0.03917734  0.70866032  0.50000000  1
  La  La3_4  1  0.53917733  0.20866032  0.00000000  1
  La  La3_5  1  0.53917733  0.20866032  0.50000000  1
  La  La3_6  1  0.53917733  0.70866032  0.00000000  1
  La  La3_7  1  0.53917733  0.70866032  0.50000000  1
  La  La4_0  1  0.46082267  0.29133968  0.00000000  1
  La  La4_1  1  0.46082267  0.29133968  0.50000000  1
  La  La4_2  1  0.46082266  0.79133968  0.00000000  1
  La  La4_3  1  0.46082266  0.79133968  0.50000000  1
  La  La4_4  1  0.96082266  0.29133968  0.00000000  1
  La  La4_5  1  0.96082266  0.29133968  0.50000000  1
  La  La4_6  1  0.96082267  0.79133968  0.00000000  1
  La  La4_7  1  0.96082267  0.79133968  0.50000000  1
  La  La5_0  1  0.20866032  0.03917734  0.00000000  1
  La  La5_1  1  0.20866032  0.03917734  0.50000000  1
  La  La5_2  1  0.20866032  0.53917733  0.00000000  1
  La  La5_3  1  0.20866032  0.53917733  0.50000000  1
  La  La5_4  1  0.70866032  0.03917734  0.00000000  1
  La  La5_5  1  0.70866032  0.03917734  0.50000000  1
  La  La5_6  1  0.70866032  0.53917733  0.00000000  1
  La  La5_7  1  0.70866032  0.53917733  0.50000000  1
  La  La6_0  1  0.29133968  0.46082267  0.00000000  1
  La  La6_1  1  0.29133968  0.46082267  0.50000000  1
  La  La6_2  1  0.29133968  0.96082266  0.00000000  1
  La  La6_3  1  0.29133968  0.96082266  0.50000000  1
  La  La6_4  1  0.79133968  0.46082266  0.00000000  1
  La  La6_5  1  0.79133968  0.46082266  0.50000000  1
  La  La6_6  1  0.79133968  0.96082267  0.00000000  1
  La  La6_7  1  0.79133968  0.96082267  0.50000000  1
  La  La7_0  1  0.41925767  0.08074234  0.00000000  1
  La  La7_1  1  0.41925767  0.08074234  0.50000000  1
  La  La7_2  1  0.41925767  0.58074234  0.00000000  1
  La  La7_3  1  0.41925767  0.58074234  0.50000000  1
  La  La7_4  1  0.91925766  0.08074234  0.00000000  1
  La  La7_5  1  0.91925766  0.08074234  0.50000000  1
  La  La7_6  1  0.91925766  0.58074234  0.00000000  1
  La  La7_7  1  0.91925766  0.58074234  0.50000000  1
  La  La8_0  1  0.08074233  0.41925767  0.00000000  1
  La  La8_1  1  0.08074233  0.41925767  0.50000000  1
  La  La8_2  1  0.08074233  0.91925767  0.00000000  1
  La  La8_3  1  0.08074233  0.91925767  0.50000000  1
  La  La8_4  1  0.58074233  0.41925767  0.00000000  1
  La  La8_5  1  0.58074233  0.41925767  0.50000000  1
  La  La8_6  1  0.58074233  0.91925767  0.00000000  1
  La  La8_7  1  0.58074233  0.91925767  0.50000000  1
  La  La9_0  1  0.31238360  0.18761640  0.00000000  1
  La  La9_1  1  0.31238360  0.18761640  0.50000000  1
  La  La9_2  1  0.31238360  0.68761640  0.00000000  1
  La  La9_3  1  0.31238360  0.68761640  0.50000000  1
  La  La9_4  1  0.81238360  0.18761640  0.00000000  1
  La  La9_5  1  0.81238360  0.18761640  0.50000000  1
  La  La9_6  1  0.81238360  0.68761640  0.00000000  1
  La  La9_7  1  0.81238360  0.68761640  0.50000000  1
  La  La10_0  1  0.18761640  0.31238360  0.00000000  1
  La  La10_1  1  0.18761640  0.31238360  0.50000000  1
  La  La10_2  1  0.18761640  0.81238360  0.00000000  1
  La  La10_3  1  0.18761640  0.81238360  0.50000000  1
  La  La10_4  1  0.68761640  0.31238360  0.00000000  1
  La  La10_5  1  0.68761640  0.31238360  0.50000000  1
  La  La10_6  1  0.68761640  0.81238360  0.00000000  1
  La  La10_7  1  0.68761640  0.81238360  0.50000000  1
  In  In0_0  1  0.41728450  0.18305632  0.25000000  1
  In  In0_1  1  0.41728450  0.18305632  0.75000000  1
  In  In0_2  1  0.41728449  0.68305632  0.25000000  1
  In  In0_3  1  0.41728449  0.68305632  0.75000000  1
  In  In0_4  1  0.91728449  0.18305632  0.25000000  1
  In  In0_5  1  0.91728449  0.18305632  0.75000000  1
  In  In0_6  1  0.91728450  0.68305632  0.25000000  1
  In  In0_7  1  0.91728450  0.68305632  0.75000000  1
  In  In1_0  1  0.08271551  0.31694368  0.25000000  1
  In  In1_1  1  0.08271551  0.31694368  0.75000000  1
  In  In1_2  1  0.08271551  0.81694368  0.25000000  1
  In  In1_3  1  0.08271551  0.81694368  0.75000000  1
  In  In1_4  1  0.58271551  0.31694368  0.25000000  1
  In  In1_5  1  0.58271551  0.31694368  0.75000000  1
  In  In1_6  1  0.58271551  0.81694368  0.25000000  1
  In  In1_7  1  0.58271551  0.81694368  0.75000000  1
  In  In2_0  1  0.18305632  0.41728450  0.25000000  1
  In  In2_1  1  0.18305632  0.41728450  0.75000000  1
  In  In2_2  1  0.18305632  0.91728450  0.25000000  1
  In  In2_3  1  0.18305632  0.91728450  0.75000000  1
  In  In2_4  1  0.68305632  0.41728450  0.25000000  1
  In  In2_5  1  0.68305632  0.41728450  0.75000000  1
  In  In2_6  1  0.68305632  0.91728449  0.25000000  1
  In  In2_7  1  0.68305632  0.91728449  0.75000000  1
  In  In3_0  1  0.31694368  0.08271551  0.25000000  1
  In  In3_1  1  0.31694368  0.08271551  0.75000000  1
  In  In3_2  1  0.31694368  0.58271551  0.25000000  1
  In  In3_3  1  0.31694368  0.58271551  0.75000000  1
  In  In3_4  1  0.81694368  0.08271551  0.25000000  1
  In  In3_5  1  0.81694368  0.08271551  0.75000000  1
  In  In3_6  1  0.81694368  0.58271551  0.25000000  1
  In  In3_7  1  0.81694368  0.58271551  0.75000000  1
  In  In4_0  1  0.04185681  0.11054949  0.25000000  1
  In  In4_1  1  0.04185681  0.11054949  0.75000000  1
  In  In4_2  1  0.04185681  0.61054949  0.25000000  1
  In  In4_3  1  0.04185681  0.61054949  0.75000000  1
  In  In4_4  1  0.54185681  0.11054949  0.25000000  1
  In  In4_5  1  0.54185681  0.11054949  0.75000000  1
  In  In4_6  1  0.54185681  0.61054949  0.25000000  1
  In  In4_7  1  0.54185681  0.61054949  0.75000000  1
  In  In5_0  1  0.45814319  0.38945051  0.25000000  1
  In  In5_1  1  0.45814319  0.38945051  0.75000000  1
  In  In5_2  1  0.45814319  0.88945051  0.25000000  1
  In  In5_3  1  0.45814319  0.88945051  0.75000000  1
  In  In5_4  1  0.95814318  0.38945051  0.25000000  1
  In  In5_5  1  0.95814318  0.38945051  0.75000000  1
  In  In5_6  1  0.95814319  0.88945051  0.25000000  1
  In  In5_7  1  0.95814319  0.88945051  0.75000000  1
  In  In6_0  1  0.11054949  0.04185681  0.25000000  1
  In  In6_1  1  0.11054949  0.04185681  0.75000000  1
  In  In6_2  1  0.11054949  0.54185681  0.25000000  1
  In  In6_3  1  0.11054949  0.54185681  0.75000000  1
  In  In6_4  1  0.61054949  0.04185681  0.25000000  1
  In  In6_5  1  0.61054949  0.04185681  0.75000000  1
  In  In6_6  1  0.61054949  0.54185681  0.25000000  1
  In  In6_7  1  0.61054949  0.54185681  0.75000000  1
  In  In7_0  1  0.38945051  0.45814319  0.25000000  1
  In  In7_1  1  0.38945051  0.45814319  0.75000000  1
  In  In7_2  1  0.38945051  0.95814318  0.25000000  1
  In  In7_3  1  0.38945051  0.95814318  0.75000000  1
  In  In7_4  1  0.88945051  0.45814319  0.25000000  1
  In  In7_5  1  0.88945051  0.45814319  0.75000000  1
  In  In7_6  1  0.88945051  0.95814318  0.25000000  1
  In  In7_7  1  0.88945051  0.95814318  0.75000000  1
  In  In8_0  1  0.25000000  0.25000000  0.25000000  1
  In  In8_1  1  0.25000000  0.25000000  0.75000000  1
  In  In8_2  1  0.25000000  0.75000000  0.25000000  1
  In  In8_3  1  0.25000000  0.75000000  0.75000000  1
  In  In8_4  1  0.75000000  0.25000000  0.25000000  1
  In  In8_5  1  0.75000000  0.25000000  0.75000000  1
  In  In8_6  1  0.75000000  0.75000000  0.25000000  1
  In  In8_7  1  0.75000000  0.75000000  0.75000000  1
  Ni  Ni0_0  1  0.12079265  0.22343181  0.25000000  1
  Ni  Ni0_1  1  0.12079265  0.22343181  0.75000000  1
  Ni  Ni0_2  1  0.12079265  0.72343181  0.25000000  1
  Ni  Ni0_3  1  0.12079265  0.72343181  0.75000000  1
  Ni  Ni0_4  1  0.62079265  0.22343181  0.25000000  1
  Ni  Ni0_5  1  0.62079265  0.22343181  0.75000000  1
  Ni  Ni0_6  1  0.62079265  0.72343181  0.25000000  1
  Ni  Ni0_7  1  0.62079265  0.72343181  0.75000000  1
  Ni  Ni1_0  1  0.37920735  0.27656819  0.25000000  1
  Ni  Ni1_1  1  0.37920735  0.27656819  0.75000000  1
  Ni  Ni1_2  1  0.37920735  0.77656819  0.25000000  1
  Ni  Ni1_3  1  0.37920735  0.77656819  0.75000000  1
  Ni  Ni1_4  1  0.87920735  0.27656819  0.25000000  1
  Ni  Ni1_5  1  0.87920735  0.27656819  0.75000000  1
  Ni  Ni1_6  1  0.87920735  0.77656819  0.25000000  1
  Ni  Ni1_7  1  0.87920735  0.77656819  0.75000000  1
  Ni  Ni2_0  1  0.22343181  0.12079265  0.25000000  1
  Ni  Ni2_1  1  0.22343181  0.12079265  0.75000000  1
  Ni  Ni2_2  1  0.22343181  0.62079265  0.25000000  1
  Ni  Ni2_3  1  0.22343181  0.62079265  0.75000000  1
  Ni  Ni2_4  1  0.72343181  0.12079265  0.25000000  1
  Ni  Ni2_5  1  0.72343181  0.12079265  0.75000000  1
  Ni  Ni2_6  1  0.72343181  0.62079265  0.25000000  1
  Ni  Ni2_7  1  0.72343181  0.62079265  0.75000000  1
  Ni  Ni3_0  1  0.27656819  0.37920735  0.25000000  1
  Ni  Ni3_1  1  0.27656819  0.37920735  0.75000000  1
  Ni  Ni3_2  1  0.27656819  0.87920735  0.25000000  1
  Ni  Ni3_3  1  0.27656819  0.87920735  0.75000000  1
  Ni  Ni3_4  1  0.77656819  0.37920735  0.25000000  1
  Ni  Ni3_5  1  0.77656819  0.37920735  0.75000000  1
  Ni  Ni3_6  1  0.77656819  0.87920735  0.25000000  1
  Ni  Ni3_7  1  0.77656819  0.87920735  0.75000000  1
loop_
_geom_bond_atom_site_label_1
_geom_bond_atom_site_label_2
_geom_bond_distance
_geom_bond_site_symmetry_2
La0_0 Ni2_0 3.044669 1_555
La0_0 Ni0_1 3.044669 1_554
La0_0 Ni0_0 3.044669 1_555
La0_0 Ni2_1 3.044669 1_554
La0_1 Ni2_0 3.044669 1_555
La0_1 Ni0_0 3.044669 1_555
La0_1 Ni0_1 3.044669 1_555
La0_1 Ni2_1 3.044669 1_555
La0_2 Ni2_3 3.044669 1_554
La0_2 Ni2_2 3.044669 1_555
La0_2 Ni0_3 3.044669 1_554
La0_2 Ni0_2 3.044669 1_555
La0_3 Ni2_3 3.044669 1_555
La0_3 Ni2_2 3.044669 1_555
La0_3 Ni0_3 3.044669 1_555
La0_3 Ni0_2 3.044669 1_555
La0_4 Ni0_4 3.044669 1_555
La0_4 Ni0_5 3.044669 1_554
La0_4 Ni2_4 3.044669 1_555
La0_4 Ni2_5 3.044669 1_554
La0_5 Ni0_5 3.044669 1_555
La0_5 Ni0_4 3.044669 1_555
La0_5 Ni2_4 3.044669 1_555
La0_5 Ni2_5 3.044669 1_555
La0_6 Ni2_6 3.044669 1_555
La0_6 Ni0_6 3.044669 1_555
La0_6 Ni2_7 3.044669 1_554
La0_6 Ni0_7 3.044669 1_554
La0_7 Ni2_6 3.044669 1_555
La0_7 Ni0_6 3.044669 1_555
La0_7 Ni2_7 3.044669 1_555
La0_7 Ni0_7 3.044669 1_555
La1_0 Ni3_0 3.044669 1_555
La1_0 Ni1_1 3.044669 1_554
La1_0 Ni1_0 3.044669 1_555
La1_0 Ni3_1 3.044669 1_554
La1_1 Ni3_0 3.044669 1_555
La1_1 Ni1_1 3.044669 1_555
La1_1 Ni1_0 3.044669 1_555
La1_1 Ni3_1 3.044669 1_555
La1_2 Ni3_2 3.044669 1_555
La1_2 Ni3_3 3.044669 1_554
La1_2 Ni1_2 3.044669 1_555
La1_2 Ni1_3 3.044669 1_554
La1_3 Ni3_3 3.044669 1_555
La1_3 Ni3_2 3.044669 1_555
La1_3 Ni1_2 3.044669 1_555
La1_3 Ni1_3 3.044669 1_555
La1_4 Ni1_5 3.044669 1_554
La1_4 Ni1_4 3.044669 1_555
La1_4 Ni3_4 3.044669 1_555
La1_4 Ni3_5 3.044669 1_554
La1_5 Ni1_5 3.044669 1_555
La1_5 Ni1_4 3.044669 1_555
La1_5 Ni3_4 3.044669 1_555
La1_5 Ni3_5 3.044669 1_555
La1_6 Ni3_6 3.044669 1_555
La1_6 Ni3_7 3.044669 1_554
La1_6 Ni1_6 3.044669 1_555
La1_6 Ni1_7 3.044669 1_554
La1_7 Ni3_7 3.044669 1_555
La1_7 Ni3_6 3.044669 1_555
La1_7 Ni1_6 3.044669 1_555
La1_7 Ni1_7 3.044669 1_555
La2_0 La8_2 3.639594 1_545
La2_0 La7_4 3.639594 1_455
La2_0 La2_1 3.850550 1_554
La2_0 La2_1 3.850550 1_555
La2_1 La8_3 3.639594 1_545
La2_1 La7_5 3.639594 1_455
La2_2 La8_0 3.639594 1_555
La2_2 La7_6 3.639594 1_455
La2_2 La2_3 3.850550 1_554
La2_2 La2_3 3.850550 1_555
La2_3 La8_1 3.639594 1_555
La2_3 La7_7 3.639594 1_455
La2_4 La8_6 3.639594 1_545
La2_4 La7_0 3.639594 1_555
La2_4 La2_5 3.850550 1_554
La2_4 La2_5 3.850550 1_555
La2_5 La8_7 3.639594 1_545
La2_5 La7_1 3.639594 1_555
La2_6 La8_4 3.639594 1_555
La2_6 La7_2 3.639594 1_555
La2_6 La2_7 3.850550 1_554
La2_6 La2_7 3.850550 1_555
La2_7 La8_5 3.639594 1_555
La2_7 La7_3 3.639594 1_555
La3_0 Ni0_1 2.844236 1_554
La3_0 Ni0_0 2.844236 1_555
La3_0 La7_4 3.742275 1_455
La3_1 Ni0_1 2.844236 1_555
La3_1 Ni0_0 2.844236 1_555
La3_1 La7_5 3.742275 1_455
La3_2 Ni0_2 2.844236 1_555
La3_2 Ni0_3 2.844236 1_554
La3_2 La7_6 3.742275 1_455
La3_3 Ni0_2 2.844236 1_555
La3_3 Ni0_3 2.844236 1_555
La3_3 La7_7 3.742275 1_455
La3_4 Ni0_4 2.844236 1_555
La3_4 Ni0_5 2.844236 1_554
La3_4 La7_0 3.742275 1_555
La3_5 Ni0_4 2.844236 1_555
La3_5 Ni0_5 2.844236 1_555
La3_5 La7_1 3.742275 1_555
La3_6 Ni0_6 2.844236 1_555
La3_6 Ni0_7 2.844236 1_554
La3_6 La7_2 3.742275 1_555
La3_7 Ni0_6 2.844236 1_555
La3_7 Ni0_7 2.844236 1_555
La3_7 La7_3 3.742275 1_555
La4_0 Ni1_0 2.844236 1_555
La4_0 Ni1_1 2.844236 1_554
La4_0 La8_4 3.742275 1_555
La4_1 Ni1_0 2.844236 1_555
La4_1 Ni1_1 2.844236 1_555
La4_1 La8_5 3.742275 1_555
La4_2 Ni1_3 2.844236 1_554
La4_2 Ni1_2 2.844236 1_555
La4_2 La8_6 3.742275 1_555
La4_3 Ni1_2 2.844236 1_555
La4_3 Ni1_3 2.844236 1_555
La4_3 La8_7 3.742275 1_555
La4_4 Ni1_5 2.844236 1_554
La4_4 Ni1_4 2.844236 1_555
La4_4 La8_0 3.742275 1_655
La4_5 Ni1_4 2.844236 1_555
La4_5 Ni1_5 2.844236 1_555
La4_5 La8_1 3.742275 1_655
La4_6 Ni1_7 2.844236 1_554
La4_6 Ni1_6 2.844236 1_555
La4_6 La8_2 3.742275 1_655
La4_7 Ni1_7 2.844236 1_555
La4_7 Ni1_6 2.844236 1_555
La4_7 La8_3 3.742275 1_655
La5_0 Ni2_0 2.844236 1_555
La5_0 Ni2_1 2.844236 1_554
La5_0 La8_2 3.742275 1_545
La5_1 Ni2_0 2.844236 1_555
La5_1 Ni2_1 2.844236 1_555
La5_1 La8_3 3.742275 1_545
La5_2 Ni2_2 2.844236 1_555
La5_2 Ni2_3 2.844236 1_554
La5_2 La8_0 3.742275 1_555
La5_3 Ni2_2 2.844236 1_555
La5_3 Ni2_3 2.844236 1_555
La5_3 La8_1 3.742275 1_555
La5_4 Ni2_5 2.844236 1_554
La5_4 Ni2_4 2.844236 1_555
La5_4 La8_6 3.742275 1_545
La5_5 Ni2_5 2.844236 1_555
La5_5 Ni2_4 2.844236 1_555
La5_5 La8_7 3.742275 1_545
La5_6 Ni2_6 2.844236 1_555
La5_6 Ni2_7 2.844236 1_554
La5_6 La8_4 3.742275 1_555
La5_7 Ni2_6 2.844236 1_555
La5_7 Ni2_7 2.844236 1_555
La5_7 La8_5 3.742275 1_555
La6_0 Ni3_1 2.844236 1_554
La6_0 Ni3_0 2.844236 1_555
La6_0 La7_2 3.742275 1_555
La6_1 Ni3_1 2.844236 1_555
La6_1 Ni3_0 2.844236 1_555
La6_1 La7_3 3.742275 1_555
La6_2 Ni3_2 2.844236 1_555
La6_2 Ni3_3 2.844236 1_554
La6_2 La7_0 3.742275 1_565
La6_3 Ni3_3 2.844236 1_555
La6_3 Ni3_2 2.844236 1_555
La6_3 La7_1 3.742275 1_565
La6_4 Ni3_4 2.844236 1_555
La6_4 Ni3_5 2.844236 1_554
La6_4 La7_6 3.742275 1_555
La6_5 Ni3_4 2.844236 1_555
La6_5 Ni3_5 2.844236 1_555
La6_5 La7_7 3.742275 1_555
La6_6 Ni3_6 2.844236 1_555
La6_6 Ni3_7 2.844236 1_554
La6_6 La7_4 3.742275 1_565
La6_7 Ni3_7 2.844236 1_555
La6_7 Ni3_6 2.844236 1_555
La6_7 La7_5 3.742275 1_565
La7_0 La7_1 3.850550 1_554
La7_0 La7_1 3.850550 1_555
La7_2 La7_3 3.850550 1_555
La7_2 La7_3 3.850550 1_554
La7_4 La7_5 3.850550 1_554
La7_4 La7_5 3.850550 1_555
La7_6 La7_7 3.850550 1_554
La7_6 La7_7 3.850550 1_555
La8_0 La8_1 3.850550 1_555
La8_0 La8_1 3.850550 1_554
La8_2 La8_3 3.850550 1_554
La8_2 La8_3 3.850550 1_555
La8_4 La8_5 3.850550 1_554
La8_4 La8_5 3.850550 1_555
La8_6 La8_7 3.850550 1_555
La8_6 La8_7 3.850550 1_554
La9_0 Ni2_0 3.078190 1_555
La9_0 Ni2_1 3.078190 1_554
La9_0 Ni1_0 3.078190 1_555
La9_0 Ni1_1 3.078190 1_554
La9_1 Ni2_0 3.078190 1_555
La9_1 Ni2_1 3.078190 1_555
La9_1 Ni1_0 3.078190 1_555
La9_1 Ni1_1 3.078190 1_555
La9_2 Ni2_2 3.078190 1_555
La9_2 Ni2_3 3.078190 1_554
La9_2 Ni1_2 3.078190 1_555
La9_2 Ni1_3 3.078190 1_554
La9_3 Ni2_2 3.078190 1_555
La9_3 Ni2_3 3.078190 1_555
La9_3 Ni1_2 3.078190 1_555
La9_3 Ni1_3 3.078190 1_555
La9_4 Ni2_4 3.078190 1_555
La9_4 Ni2_5 3.078190 1_554
La9_4 Ni1_4 3.078190 1_555
La9_4 Ni1_5 3.078190 1_554
La9_5 Ni2_4 3.078190 1_555
La9_5 Ni2_5 3.078190 1_555
La9_5 Ni1_4 3.078190 1_555
La9_5 Ni1_5 3.078190 1_555
La9_6 Ni2_7 3.078190 1_554
La9_6 Ni2_6 3.078190 1_555
La9_6 Ni1_6 3.078190 1_555
La9_6 Ni1_7 3.078190 1_554
La9_7 Ni2_7 3.078190 1_555
La9_7 Ni2_6 3.078190 1_555
La9_7 Ni1_6 3.078190 1_555
La9_7 Ni1_7 3.078190 1_555
La10_0 Ni0_1 3.078190 1_554
La10_0 Ni0_0 3.078190 1_555
La10_0 Ni3_1 3.078190 1_554
La10_0 Ni3_0 3.078190 1_555
La10_1 Ni0_1 3.078190 1_555
La10_1 Ni0_0 3.078190 1_555
La10_1 Ni3_1 3.078190 1_555
La10_1 Ni3_0 3.078190 1_555
La10_2 Ni0_3 3.078190 1_554
La10_2 Ni0_2 3.078190 1_555
La10_2 Ni3_2 3.078190 1_555
La10_2 Ni3_3 3.078190 1_554
La10_3 Ni0_3 3.078190 1_555
La10_3 Ni0_2 3.078190 1_555
La10_3 Ni3_2 3.078190 1_555
La10_3 Ni3_3 3.078190 1_555
La10_4 Ni0_4 3.078190 1_555
La10_4 Ni0_5 3.078190 1_554
La10_4 Ni3_5 3.078190 1_554
La10_4 Ni3_4 3.078190 1_555
La10_5 Ni0_4 3.078190 1_555
La10_5 Ni0_5 3.078190 1_555
La10_5 Ni3_5 3.078190 1_555
La10_5 Ni3_4 3.078190 1_555
La10_6 Ni0_6 3.078190 1_555
La10_6 Ni0_7 3.078190 1_554
La10_6 Ni3_7 3.078190 1_554
La10_6 Ni3_6 3.078190 1_555
La10_7 Ni0_6 3.078190 1_555
La10_7 Ni0_7 3.078190 1_555
La10_7 Ni3_6 3.078190 1_555
La10_7 Ni3_7 3.078190 1_555
In0_0 In3_0 3.026716 1_555
In0_0 Ni1_0 3.081391 1_555
In0_0 La4_0 3.328553 1_555
In0_0 La4_1 3.328553 1_555
In0_0 La7_1 3.394346 1_555
In0_0 La7_0 3.394346 1_555
In0_0 La9_0 3.476112 1_555
In0_0 La9_1 3.476112 1_555
In0_0 La3_4 3.655835 1_555
In0_0 La3_5 3.655835 1_555
In0_1 In3_1 3.026716 1_555
In0_1 Ni1_1 3.081391 1_555
In0_1 La4_0 3.328553 1_556
In0_1 La4_1 3.328553 1_555
In0_1 La7_0 3.394346 1_556
In0_1 La7_1 3.394346 1_555
In0_1 La9_0 3.476112 1_556
In0_1 La9_1 3.476112 1_555
In0_1 La3_4 3.655835 1_556
In0_1 La3_5 3.655835 1_555
In0_2 In3_2 3.026716 1_555
In0_2 Ni1_2 3.081391 1_555
In0_2 La4_2 3.328553 1_555
In0_2 La4_3 3.328553 1_555
In0_2 La7_3 3.394346 1_555
In0_2 La7_2 3.394346 1_555
In0_2 La9_3 3.476112 1_555
In0_2 La9_2 3.476112 1_555
In0_2 La3_7 3.655835 1_555
In0_2 La3_6 3.655835 1_555
In0_3 In3_3 3.026716 1_555
In0_3 Ni1_3 3.081391 1_555
In0_3 La4_3 3.328553 1_555
In0_3 La4_2 3.328553 1_556
In0_3 La7_3 3.394346 1_555
In0_3 La7_2 3.394346 1_556
In0_3 La9_3 3.476112 1_555
In0_3 La9_2 3.476112 1_556
In0_3 La3_7 3.655835 1_555
In0_3 La3_6 3.655835 1_556
In0_4 In3_4 3.026716 1_555
In0_4 Ni1_4 3.081391 1_555
In0_4 La4_4 3.328553 1_555
In0_4 La4_5 3.328553 1_555
In0_4 La7_4 3.394346 1_555
In0_4 La7_5 3.394346 1_555
In0_4 La9_4 3.476112 1_555
In0_4 La9_5 3.476112 1_555
In0_4 La3_0 3.655835 1_655
In0_4 La3_1 3.655835 1_655
In0_5 In3_5 3.026716 1_555
In0_5 Ni1_5 3.081391 1_555
In0_5 La4_4 3.328553 1_556
In0_5 La4_5 3.328553 1_555
In0_5 La7_4 3.394346 1_556
In0_5 La7_5 3.394346 1_555
In0_5 La9_5 3.476112 1_555
In0_5 La9_4 3.476112 1_556
In0_5 La3_0 3.655835 1_656
In0_5 La3_1 3.655835 1_655
In0_6 In3_6 3.026716 1_555
In0_6 Ni1_6 3.081391 1_555
In0_6 La4_6 3.328553 1_555
In0_6 La4_7 3.328553 1_555
In0_6 La7_6 3.394346 1_555
In0_6 La7_7 3.394346 1_555
In0_6 La9_6 3.476112 1_555
In0_6 La9_7 3.476112 1_555
In0_6 La3_2 3.655835 1_655
In0_6 La3_3 3.655835 1_655
In0_7 In3_7 3.026716 1_555
In0_7 Ni1_7 3.081391 1_555
In0_7 La4_7 3.328553 1_555
In0_7 La4_6 3.328553 1_556
In0_7 La7_6 3.394346 1_556
In0_7 La7_7 3.394346 1_555
In0_7 La9_6 3.476112 1_556
In0_7 La9_7 3.476112 1_555
In0_7 La3_2 3.655835 1_656
In0_7 La3_3 3.655835 1_655
In1_0 In2_0 3.026716 1_555
In1_0 Ni0_0 3.081391 1_555
In1_0 La3_0 3.328553 1_555
In1_0 La3_1 3.328553 1_555
In1_0 La8_1 3.394346 1_555
In1_0 La8_0 3.394346 1_555
In1_0 La10_0 3.476112 1_555
In1_0 La10_1 3.476112 1_555
In1_0 La4_4 3.655835 1_455
In1_0 La4_5 3.655835 1_455
In1_1 In2_1 3.026716 1_555
In1_1 Ni0_1 3.081391 1_555
In1_1 La3_0 3.328553 1_556
In1_1 La3_1 3.328553 1_555
In1_1 La8_1 3.394346 1_555
In1_1 La8_0 3.394346 1_556
In1_1 La10_0 3.476112 1_556
In1_1 La10_1 3.476112 1_555
In1_1 La4_5 3.655835 1_455
In1_1 La4_4 3.655835 1_456
In1_2 In2_2 3.026716 1_555
In1_2 Ni0_2 3.081391 1_555
In1_2 La3_3 3.328553 1_555
In1_2 La3_2 3.328553 1_555
In1_2 La8_2 3.394346 1_555
In1_2 La8_3 3.394346 1_555
In1_2 La10_2 3.476112 1_555
In1_2 La10_3 3.476112 1_555
In1_2 La4_6 3.655835 1_455
In1_2 La4_7 3.655835 1_455
In1_3 In2_3 3.026716 1_555
In1_3 Ni0_3 3.081391 1_555
In1_3 La3_3 3.328553 1_555
In1_3 La3_2 3.328553 1_556
In1_3 La8_3 3.394346 1_555
In1_3 La8_2 3.394346 1_556
In1_3 La10_2 3.476112 1_556
In1_3 La10_3 3.476112 1_555
In1_3 La4_7 3.655835 1_455
In1_3 La4_6 3.655835 1_456
In1_4 In2_4 3.026716 1_555
In1_4 Ni0_4 3.081391 1_555
In1_4 La3_4 3.328553 1_555
In1_4 La3_5 3.328553 1_555
In1_4 La8_5 3.394346 1_555
In1_4 La8_4 3.394346 1_555
In1_4 La10_4 3.476112 1_555
In1_4 La10_5 3.476112 1_555
In1_4 La4_0 3.655835 1_555
In1_4 La4_1 3.655835 1_555
In1_5 In2_5 3.026716 1_555
In1_5 Ni0_5 3.081391 1_555
In1_5 La3_4 3.328553 1_556
In1_5 La3_5 3.328553 1_555
In1_5 La8_4 3.394346 1_556
In1_5 La8_5 3.394346 1_555
In1_5 La10_4 3.476112 1_556
In1_5 La10_5 3.476112 1_555
In1_5 La4_0 3.655835 1_556
In1_5 La4_1 3.655835 1_555
In1_6 In2_6 3.026716 1_555
In1_6 Ni0_6 3.081391 1_555
In1_6 La3_7 3.328553 1_555
In1_6 La3_6 3.328553 1_555
In1_6 La8_7 3.394346 1_555
In1_6 La8_6 3.394346 1_555
In1_6 La10_6 3.476112 1_555
In1_6 La10_7 3.476112 1_555
In1_6 La4_2 3.655835 1_555
In1_6 La4_3 3.655835 1_555
In1_7 In2_7 3.026716 1_555
In1_7 Ni0_7 3.081391 1_555
In1_7 La3_7 3.328553 1_555
In1_7 La3_6 3.328553 1_556
In1_7 La8_7 3.394346 1_555
In1_7 La8_6 3.394346 1_556
In1_7 La10_6 3.476112 1_556
In1_7 La10_7 3.476112 1_555
In1_7 La4_2 3.655835 1_556
In1_7 La4_3 3.655835 1_555
In2_0 Ni3_0 3.081391 1_555
In2_0 La6_1 3.328553 1_555
In2_0 La6_0 3.328553 1_555
In2_0 La8_1 3.394346 1_555
In2_0 La8_0 3.394346 1_555
In2_0 La10_1 3.476112 1_555
In2_0 La10_0 3.476112 1_555
In2_0 La5_2 3.655835 1_555
In2_0 La5_3 3.655835 1_555
In2_1 Ni3_1 3.081391 1_555
In2_1 La6_1 3.328553 1_555
In2_1 La6_0 3.328553 1_556
In2_1 La8_1 3.394346 1_555
In2_1 La8_0 3.394346 1_556
In2_1 La10_1 3.476112 1_555
In2_1 La10_0 3.476112 1_556
In2_1 La5_2 3.655835 1_556
In2_1 La5_3 3.655835 1_555
In2_2 Ni3_2 3.081391 1_555
In2_2 La6_3 3.328553 1_555
In2_2 La6_2 3.328553 1_555
In2_2 La8_3 3.394346 1_555
In2_2 La8_2 3.394346 1_555
In2_2 La10_2 3.476112 1_555
In2_2 La10_3 3.476112 1_555
In2_2 La5_0 3.655835 1_565
In2_2 La5_1 3.655835 1_565
In2_3 Ni3_3 3.081391 1_555
In2_3 La6_2 3.328553 1_556
In2_3 La6_3 3.328553 1_555
In2_3 La8_3 3.394346 1_555
In2_3 La8_2 3.394346 1_556
In2_3 La10_2 3.476112 1_556
In2_3 La10_3 3.476112 1_555
In2_3 La5_0 3.655835 1_566
In2_3 La5_1 3.655835 1_565
In2_4 Ni3_4 3.081391 1_555
In2_4 La6_5 3.328553 1_555
In2_4 La6_4 3.328553 1_555
In2_4 La8_5 3.394346 1_555
In2_4 La8_4 3.394346 1_555
In2_4 La10_5 3.476112 1_555
In2_4 La10_4 3.476112 1_555
In2_4 La5_7 3.655835 1_555
In2_4 La5_6 3.655835 1_555
In2_5 Ni3_5 3.081391 1_555
In2_5 La6_5 3.328553 1_555
In2_5 La6_4 3.328553 1_556
In2_5 La8_5 3.394346 1_555
In2_5 La8_4 3.394346 1_556
In2_5 La10_4 3.476112 1_556
In2_5 La10_5 3.476112 1_555
In2_5 La5_7 3.655835 1_555
In2_5 La5_6 3.655835 1_556
In2_6 Ni3_6 3.081391 1_555
In2_6 La6_6 3.328553 1_555
In2_6 La6_7 3.328553 1_555
In2_6 La8_7 3.394346 1_555
In2_6 La8_6 3.394346 1_555
In2_6 La10_6 3.476112 1_555
In2_6 La10_7 3.476112 1_555
In2_6 La5_5 3.655835 1_565
In2_6 La5_4 3.655835 1_565
In2_7 Ni3_7 3.081391 1_555
In2_7 La6_7 3.328553 1_555
In2_7 La6_6 3.328553 1_556
In2_7 La8_7 3.394346 1_555
In2_7 La8_6 3.394346 1_556
In2_7 La10_6 3.476112 1_556
In2_7 La10_7 3.476112 1_555
In2_7 La5_5 3.655835 1_565
In2_7 La5_4 3.655835 1_566
In3_0 Ni2_0 3.081391 1_555
In3_0 La5_1 3.328553 1_555
In3_0 La5_0 3.328553 1_555
In3_0 La7_0 3.394346 1_555
In3_0 La7_1 3.394346 1_555
In3_0 La9_0 3.476112 1_555
In3_0 La9_1 3.476112 1_555
In3_0 La6_2 3.655835 1_545
In3_0 La6_3 3.655835 1_545
In3_1 Ni2_1 3.081391 1_555
In3_1 La5_1 3.328553 1_555
In3_1 La5_0 3.328553 1_556
In3_1 La7_0 3.394346 1_556
In3_1 La7_1 3.394346 1_555
In3_1 La9_0 3.476112 1_556
In3_1 La9_1 3.476112 1_555
In3_1 La6_2 3.655835 1_546
In3_1 La6_3 3.655835 1_545
In3_2 Ni2_2 3.081391 1_555
In3_2 La5_2 3.328553 1_555
In3_2 La5_3 3.328553 1_555
In3_2 La7_2 3.394346 1_555
In3_2 La7_3 3.394346 1_555
In3_2 La9_3 3.476112 1_555
In3_2 La9_2 3.476112 1_555
In3_2 La6_0 3.655835 1_555
In3_2 La6_1 3.655835 1_555
In3_3 Ni2_3 3.081391 1_555
In3_3 La5_2 3.328553 1_556
In3_3 La5_3 3.328553 1_555
In3_3 La7_3 3.394346 1_555
In3_3 La7_2 3.394346 1_556
In3_3 La9_3 3.476112 1_555
In3_3 La9_2 3.476112 1_556
In3_3 La6_0 3.655835 1_556
In3_3 La6_1 3.655835 1_555
In3_4 Ni2_4 3.081391 1_555
In3_4 La5_4 3.328553 1_555
In3_4 La5_5 3.328553 1_555
In3_4 La7_4 3.394346 1_555
In3_4 La7_5 3.394346 1_555
In3_4 La9_5 3.476112 1_555
In3_4 La9_4 3.476112 1_555
In3_4 La6_6 3.655835 1_545
In3_4 La6_7 3.655835 1_545
In3_5 Ni2_5 3.081391 1_555
In3_5 La5_4 3.328553 1_556
In3_5 La5_5 3.328553 1_555
In3_5 La7_4 3.394346 1_556
In3_5 La7_5 3.394346 1_555
In3_5 La9_5 3.476112 1_555
In3_5 La9_4 3.476112 1_556
In3_5 La6_6 3.655835 1_546
In3_5 La6_7 3.655835 1_545
In3_6 Ni2_6 3.081391 1_555
In3_6 La5_6 3.328553 1_555
In3_6 La5_7 3.328553 1_555
In3_6 La7_6 3.394346 1_555
In3_6 La7_7 3.394346 1_555
In3_6 La9_7 3.476112 1_555
In3_6 La9_6 3.476112 1_555
In3_6 La6_4 3.655835 1_555
In3_6 La6_5 3.655835 1_555
In3_7 Ni2_7 3.081391 1_555
In3_7 La5_7 3.328553 1_555
In3_7 La5_6 3.328553 1_556
In3_7 La7_7 3.394346 1_555
In3_7 La7_6 3.394346 1_556
In3_7 La9_7 3.476112 1_555
In3_7 La9_6 3.476112 1_556
In3_7 La6_4 3.655835 1_556
In3_7 La6_5 3.655835 1_555
In4_0 Ni0_0 2.992495 1_555
In4_0 In6_0 3.096435 1_555
In4_0 La3_1 3.307366 1_555
In4_0 La3_0 3.307366 1_555
In4_0 La2_0 3.374509 1_555
In4_0 La2_1 3.374509 1_555
In4_0 La0_0 3.467237 1_555
In4_0 La0_1 3.467237 1_555
In4_0 La7_5 3.655706 1_455
In4_0 La7_4 3.655706 1_455
In4_1 Ni0_1 2.992495 1_555
In4_1 In6_1 3.096435 1_555
In4_1 La3_0 3.307366 1_556
In4_1 La3_1 3.307366 1_555
In4_1 La2_0 3.374509 1_556
In4_1 La2_1 3.374509 1_555
In4_1 La0_0 3.467237 1_556
In4_1 La0_1 3.467237 1_555
In4_1 La7_5 3.655706 1_455
In4_1 La7_4 3.655706 1_456
In4_2 Ni0_2 2.992495 1_555
In4_2 In6_2 3.096435 1_555
In4_2 La3_2 3.307366 1_555
In4_2 La3_3 3.307366 1_555
In4_2 La2_3 3.374509 1_555
In4_2 La2_2 3.374509 1_555
In4_2 La0_3 3.467237 1_555
In4_2 La0_2 3.467237 1_555
In4_2 La7_6 3.655706 1_455
In4_2 La7_7 3.655706 1_455
In4_3 Ni0_3 2.992495 1_555
In4_3 In6_3 3.096435 1_555
In4_3 La3_3 3.307366 1_555
In4_3 La3_2 3.307366 1_556
In4_3 La2_3 3.374509 1_555
In4_3 La2_2 3.374509 1_556
In4_3 La0_3 3.467237 1_555
In4_3 La0_2 3.467237 1_556
In4_3 La7_6 3.655706 1_456
In4_3 La7_7 3.655706 1_455
In4_4 Ni0_4 2.992495 1_555
In4_4 In6_4 3.096435 1_555
In4_4 La3_4 3.307366 1_555
In4_4 La3_5 3.307366 1_555
In4_4 La2_5 3.374509 1_555
In4_4 La2_4 3.374509 1_555
In4_4 La0_4 3.467237 1_555
In4_4 La0_5 3.467237 1_555
In4_4 La7_0 3.655706 1_555
In4_4 La7_1 3.655706 1_555
In4_5 Ni0_5 2.992495 1_555
In4_5 In6_5 3.096435 1_555
In4_5 La3_4 3.307366 1_556
In4_5 La3_5 3.307366 1_555
In4_5 La2_4 3.374509 1_556
In4_5 La2_5 3.374509 1_555
In4_5 La0_4 3.467237 1_556
In4_5 La0_5 3.467237 1_555
In4_5 La7_1 3.655706 1_555
In4_5 La7_0 3.655706 1_556
In4_6 Ni0_6 2.992495 1_555
In4_6 In6_6 3.096435 1_555
In4_6 La3_7 3.307366 1_555
In4_6 La3_6 3.307366 1_555
In4_6 La2_7 3.374509 1_555
In4_6 La2_6 3.374509 1_555
In4_6 La0_7 3.467237 1_555
In4_6 La0_6 3.467237 1_555
In4_6 La7_2 3.655706 1_555
In4_6 La7_3 3.655706 1_555
In4_7 Ni0_7 2.992495 1_555
In4_7 In6_7 3.096435 1_555
In4_7 La3_7 3.307366 1_555
In4_7 La3_6 3.307366 1_556
In4_7 La2_7 3.374509 1_555
In4_7 La2_6 3.374509 1_556
In4_7 La0_7 3.467237 1_555
In4_7 La0_6 3.467237 1_556
In4_7 La7_2 3.655706 1_556
In4_7 La7_3 3.655706 1_555
In5_0 Ni1_0 2.992495 1_555
In5_0 In7_0 3.096435 1_555
In5_0 La4_0 3.307366 1_555
In5_0 La4_1 3.307366 1_555
In5_0 La2_7 3.374509 1_555
In5_0 La2_6 3.374509 1_555
In5_0 La1_1 3.467237 1_555
In5_0 La1_0 3.467237 1_555
In5_0 La8_5 3.655706 1_555
In5_0 La8_4 3.655706 1_555
In5_1 Ni1_1 2.992495 1_555
In5_1 In7_1 3.096435 1_555
In5_1 La4_0 3.307366 1_556
In5_1 La4_1 3.307366 1_555
In5_1 La2_7 3.374509 1_555
In5_1 La2_6 3.374509 1_556
In5_1 La1_1 3.467237 1_555
In5_1 La1_0 3.467237 1_556
In5_1 La8_4 3.655706 1_556
In5_1 La8_5 3.655706 1_555
In5_2 Ni1_2 2.992495 1_555
In5_2 In7_2 3.096435 1_555
In5_2 La4_3 3.307366 1_555
In5_2 La4_2 3.307366 1_555
In5_2 La2_5 3.374509 1_565
In5_2 La2_4 3.374509 1_565
In5_2 La1_2 3.467237 1_555
In5_2 La1_3 3.467237 1_555
In5_2 La8_6 3.655706 1_555
In5_2 La8_7 3.655706 1_555
In5_3 Ni1_3 2.992495 1_555
In5_3 In7_3 3.096435 1_555
In5_3 La4_3 3.307366 1_555
In5_3 La4_2 3.307366 1_556
In5_3 La2_5 3.374509 1_565
In5_3 La2_4 3.374509 1_566
In5_3 La1_2 3.467237 1_556
In5_3 La1_3 3.467237 1_555
In5_3 La8_7 3.655706 1_555
In5_3 La8_6 3.655706 1_556
In5_4 Ni1_4 2.992495 1_555
In5_4 In7_4 3.096435 1_555
In5_4 La4_4 3.307366 1_555
In5_4 La4_5 3.307366 1_555
In5_4 La2_2 3.374509 1_655
In5_4 La2_3 3.374509 1_655
In5_4 La1_5 3.467237 1_555
In5_4 La1_4 3.467237 1_555
In5_4 La8_1 3.655706 1_655
In5_4 La8_0 3.655706 1_655
In5_5 Ni1_5 2.992495 1_555
In5_5 In7_5 3.096435 1_555
In5_5 La4_4 3.307366 1_556
In5_5 La4_5 3.307366 1_555
In5_5 La2_2 3.374509 1_656
In5_5 La2_3 3.374509 1_655
In5_5 La1_5 3.467237 1_555
In5_5 La1_4 3.467237 1_556
In5_5 La8_0 3.655706 1_656
In5_5 La8_1 3.655706 1_655
In5_6 Ni1_6 2.992495 1_555
In5_6 In7_6 3.096435 1_555
In5_6 La4_6 3.307366 1_555
In5_6 La4_7 3.307366 1_555
In5_6 La2_0 3.374509 1_665
In5_6 La2_1 3.374509 1_665
In5_6 La1_6 3.467237 1_555
In5_6 La1_7 3.467237 1_555
In5_6 La8_3 3.655706 1_655
In5_6 La8_2 3.655706 1_655
In5_7 Ni1_7 2.992495 1_555
In5_7 In7_7 3.096435 1_555
In5_7 La4_7 3.307366 1_555
In5_7 La4_6 3.307366 1_556
In5_7 La2_0 3.374509 1_666
In5_7 La2_1 3.374509 1_665
In5_7 La1_6 3.467237 1_556
In5_7 La1_7 3.467237 1_555
In5_7 La8_3 3.655706 1_655
In5_7 La8_2 3.655706 1_656
In6_0 Ni2_0 2.992495 1_555
In6_0 La5_0 3.307366 1_555
In6_0 La5_1 3.307366 1_555
In6_0 La2_0 3.374509 1_555
In6_0 La2_1 3.374509 1_555
In6_0 La0_1 3.467237 1_555
In6_0 La0_0 3.467237 1_555
In6_0 La8_3 3.655706 1_545
In6_0 La8_2 3.655706 1_545
In6_1 Ni2_1 2.992495 1_555
In6_1 La5_1 3.307366 1_555
In6_1 La5_0 3.307366 1_556
In6_1 La2_0 3.374509 1_556
In6_1 La2_1 3.374509 1_555
In6_1 La0_1 3.467237 1_555
In6_1 La0_0 3.467237 1_556
In6_1 La8_2 3.655706 1_546
In6_1 La8_3 3.655706 1_545
In6_2 Ni2_2 2.992495 1_555
In6_2 La5_2 3.307366 1_555
In6_2 La5_3 3.307366 1_555
In6_2 La2_2 3.374509 1_555
In6_2 La2_3 3.374509 1_555
In6_2 La0_2 3.467237 1_555
In6_2 La0_3 3.467237 1_555
In6_2 La8_0 3.655706 1_555
In6_2 La8_1 3.655706 1_555
In6_3 Ni2_3 2.992495 1_555
In6_3 La5_2 3.307366 1_556
In6_3 La5_3 3.307366 1_555
In6_3 La2_3 3.374509 1_555
In6_3 La2_2 3.374509 1_556
In6_3 La0_2 3.467237 1_556
In6_3 La0_3 3.467237 1_555
In6_3 La8_0 3.655706 1_556
In6_3 La8_1 3.655706 1_555
In6_4 Ni2_4 2.992495 1_555
In6_4 La5_5 3.307366 1_555
In6_4 La5_4 3.307366 1_555
In6_4 La2_4 3.374509 1_555
In6_4 La2_5 3.374509 1_555
In6_4 La0_4 3.467237 1_555
In6_4 La0_5 3.467237 1_555
In6_4 La8_7 3.655706 1_545
In6_4 La8_6 3.655706 1_545
In6_5 Ni2_5 2.992495 1_555
In6_5 La5_5 3.307366 1_555
In6_5 La5_4 3.307366 1_556
In6_5 La2_5 3.374509 1_555
In6_5 La2_4 3.374509 1_556
In6_5 La0_4 3.467237 1_556
In6_5 La0_5 3.467237 1_555
In6_5 La8_6 3.655706 1_546
In6_5 La8_7 3.655706 1_545
In6_6 Ni2_6 2.992495 1_555
In6_6 La5_7 3.307366 1_555
In6_6 La5_6 3.307366 1_555
In6_6 La2_7 3.374509 1_555
In6_6 La2_6 3.374509 1_555
In6_6 La0_7 3.467237 1_555
In6_6 La0_6 3.467237 1_555
In6_6 La8_4 3.655706 1_555
In6_6 La8_5 3.655706 1_555
In6_7 Ni2_7 2.992495 1_555
In6_7 La5_7 3.307366 1_555
In6_7 La5_6 3.307366 1_556
In6_7 La2_7 3.374509 1_555
In6_7 La2_6 3.374509 1_556
In6_7 La0_7 3.467237 1_555
In6_7 La0_6 3.467237 1_556
In6_7 La8_4 3.655706 1_556
In6_7 La8_5 3.655706 1_555
In7_0 Ni3_0 2.992495 1_555
In7_0 La6_0 3.307366 1_555
In7_0 La6_1 3.307366 1_555
In7_0 La2_7 3.374509 1_555
In7_0 La2_6 3.374509 1_555
In7_0 La1_0 3.467237 1_555
In7_0 La1_1 3.467237 1_555
In7_0 La7_3 3.655706 1_555
In7_0 La7_2 3.655706 1_555
In7_1 Ni3_1 2.992495 1_555
In7_1 La6_1 3.307366 1_555
In7_1 La6_0 3.307366 1_556
In7_1 La2_7 3.374509 1_555
In7_1 La2_6 3.374509 1_556
In7_1 La1_0 3.467237 1_556
In7_1 La1_1 3.467237 1_555
In7_1 La7_3 3.655706 1_555
In7_1 La7_2 3.655706 1_556
In7_2 Ni3_2 2.992495 1_555
In7_2 La6_3 3.307366 1_555
In7_2 La6_2 3.307366 1_555
In7_2 La2_4 3.374509 1_565
In7_2 La2_5 3.374509 1_565
In7_2 La1_3 3.467237 1_555
In7_2 La1_2 3.467237 1_555
In7_2 La7_0 3.655706 1_565
In7_2 La7_1 3.655706 1_565
In7_3 Ni3_3 2.992495 1_555
In7_3 La6_2 3.307366 1_556
In7_3 La6_3 3.307366 1_555
In7_3 La2_4 3.374509 1_566
In7_3 La2_5 3.374509 1_565
In7_3 La1_3 3.467237 1_555
In7_3 La1_2 3.467237 1_556
In7_3 La7_0 3.655706 1_566
In7_3 La7_1 3.655706 1_565
In7_4 Ni3_4 2.992495 1_555
In7_4 La6_4 3.307366 1_555
In7_4 La6_5 3.307366 1_555
In7_4 La2_2 3.374509 1_655
In7_4 La2_3 3.374509 1_655
In7_4 La1_4 3.467237 1_555
In7_4 La1_5 3.467237 1_555
In7_4 La7_6 3.655706 1_555
In7_4 La7_7 3.655706 1_555
In7_5 Ni3_5 2.992495 1_555
In7_5 La6_4 3.307366 1_556
In7_5 La6_5 3.307366 1_555
In7_5 La2_3 3.374509 1_655
In7_5 La2_2 3.374509 1_656
In7_5 La1_5 3.467237 1_555
In7_5 La1_4 3.467237 1_556
In7_5 La7_7 3.655706 1_555
In7_5 La7_6 3.655706 1_556
In7_6 Ni3_6 2.992495 1_555
In7_6 La6_6 3.307366 1_555
In7_6 La6_7 3.307366 1_555
In7_6 La2_0 3.374509 1_665
In7_6 La2_1 3.374509 1_665
In7_6 La1_6 3.467237 1_555
In7_6 La1_7 3.467237 1_555
In7_6 La7_5 3.655706 1_565
In7_6 La7_4 3.655706 1_565
In7_7 Ni3_7 2.992495 1_555
In7_7 La6_7 3.307366 1_555
In7_7 La6_6 3.307366 1_556
In7_7 La2_0 3.374509 1_666
In7_7 La2_1 3.374509 1_665
In7_7 La1_6 3.467237 1_556
In7_7 La1_7 3.467237 1_555
In7_7 La7_4 3.655706 1_566
In7_7 La7_5 3.655706 1_565
In8_0 Ni0_0 3.297160 1_555
In8_0 Ni2_0 3.297160 1_555
In8_0 Ni3_0 3.297160 1_555
In8_0 Ni1_0 3.297160 1_555
In8_0 La0_1 3.406089 1_555
In8_0 La1_0 3.406089 1_555
In8_0 La1_1 3.406089 1_555
In8_0 La0_0 3.406089 1_555
In8_0 La9_1 3.407972 1_555
In8_0 La9_0 3.407972 1_555
In8_0 La10_0 3.407972 1_555
In8_0 La10_1 3.407972 1_555
In8_1 Ni3_1 3.297160 1_555
In8_1 Ni0_1 3.297160 1_555
In8_1 Ni2_1 3.297160 1_555
In8_1 Ni1_1 3.297160 1_555
In8_1 La0_1 3.406089 1_555
In8_1 La1_0 3.406089 1_556
In8_1 La1_1 3.406089 1_555
In8_1 La0_0 3.406089 1_556
In8_1 La9_1 3.407972 1_555
In8_1 La9_0 3.407972 1_556
In8_1 La10_1 3.407972 1_555
In8_1 La10_0 3.407972 1_556
In8_2 Ni0_2 3.297160 1_555
In8_2 Ni3_2 3.297160 1_555
In8_2 Ni1_2 3.297160 1_555
In8_2 Ni2_2 3.297160 1_555
In8_2 La1_2 3.406089 1_555
In8_2 La1_3 3.406089 1_555
In8_2 La0_3 3.406089 1_555
In8_2 La0_2 3.406089 1_555
In8_2 La9_3 3.407972 1_555
In8_2 La9_2 3.407972 1_555
In8_2 La10_2 3.407972 1_555
In8_2 La10_3 3.407972 1_555
In8_3 Ni0_3 3.297160 1_555
In8_3 Ni3_3 3.297160 1_555
In8_3 Ni2_3 3.297160 1_555
In8_3 Ni1_3 3.297160 1_555
In8_3 La1_2 3.406089 1_556
In8_3 La1_3 3.406089 1_555
In8_3 La0_2 3.406089 1_556
In8_3 La0_3 3.406089 1_555
In8_3 La9_3 3.407972 1_555
In8_3 La9_2 3.407972 1_556
In8_3 La10_2 3.407972 1_556
In8_3 La10_3 3.407972 1_555
In8_4 Ni2_4 3.297160 1_555
In8_4 Ni0_4 3.297160 1_555
In8_4 Ni1_4 3.297160 1_555
In8_4 Ni3_4 3.297160 1_555
In8_4 La1_5 3.406089 1_555
In8_4 La1_4 3.406089 1_555
In8_4 La0_5 3.406089 1_555
In8_4 La0_4 3.406089 1_555
In8_4 La9_4 3.407972 1_555
In8_4 La9_5 3.407972 1_555
In8_4 La10_4 3.407972 1_555
In8_4 La10_5 3.407972 1_555
In8_5 Ni2_5 3.297160 1_555
In8_5 Ni0_5 3.297160 1_555
In8_5 Ni1_5 3.297160 1_555
In8_5 Ni3_5 3.297160 1_555
In8_5 La1_5 3.406089 1_555
In8_5 La1_4 3.406089 1_556
In8_5 La0_5 3.406089 1_555
In8_5 La0_4 3.406089 1_556
In8_5 La9_5 3.407972 1_555
In8_5 La9_4 3.407972 1_556
In8_5 La10_4 3.407972 1_556
In8_5 La10_5 3.407972 1_555
In8_6 Ni0_6 3.297160 1_555
In8_6 Ni1_6 3.297160 1_555
In8_6 Ni3_6 3.297160 1_555
In8_6 Ni2_6 3.297160 1_555
In8_6 La0_7 3.406089 1_555
In8_6 La0_6 3.406089 1_555
In8_6 La1_6 3.406089 1_555
In8_6 La1_7 3.406089 1_555
In8_6 La9_6 3.407972 1_555
In8_6 La9_7 3.407972 1_555
In8_6 La10_6 3.407972 1_555
In8_6 La10_7 3.407972 1_555
In8_7 Ni1_7 3.297160 1_555
In8_7 Ni0_7 3.297160 1_555
In8_7 Ni2_7 3.297160 1_555
In8_7 Ni3_7 3.297160 1_555
In8_7 La0_7 3.406089 1_555
In8_7 La0_6 3.406089 1_556
In8_7 La1_6 3.406089 1_556
In8_7 La1_7 3.406089 1_555
In8_7 La9_6 3.407972 1_556
In8_7 La9_7 3.407972 1_555
In8_7 La10_6 3.407972 1_556
In8_7 La10_7 3.407972 1_555
