# generated using pymatgen
data_Nd2Cd2O5
_symmetry_space_group_name_H-M   'P 1'
_cell_length_a   4.27541600
_cell_length_b   4.27541600
_cell_length_c   7.41124700
_cell_angle_alpha   90.00000000
_cell_angle_beta   90.00000000
_cell_angle_gamma   90.00000000
_symmetry_Int_Tables_number   1
_chemical_formula_structural   Nd2Cd2O5
_chemical_formula_sum   'Nd2 Cd2 O5'
_cell_volume   135.47153256
_cell_formula_units_Z   1
loop_
 _symmetry_equiv_pos_site_id
 _symmetry_equiv_pos_as_xyz
  1  'x, y, z'
loop_
 _atom_site_type_symbol
 _atom_site_label
 _atom_site_symmetry_multiplicity
 _atom_site_fract_x
 _atom_site_fract_y
 _atom_site_fract_z
 _atom_site_occupancy
  Nd  Nd0  1  0.00000000  0.00000000  0.00000000  1
  Nd  Nd1  1  0.00000000  0.00000000  0.50000000  1
  Cd  Cd0  1  0.50000000  0.50000000  0.20877000  1
  Cd  Cd1  1  0.50000000  0.50000000  0.79123000  1
  O  O0  1  0.50000000  0.00000000  0.20235400  1
  O  O1  1  0.50000000  0.00000000  0.79764600  1
  O  O2  1  0.50000000  0.50000000  0.50000000  1
  O  O3  1  0.00000000  0.50000000  0.20235400  1
  O  O4  1  0.00000000  0.50000000  0.79764600  1
loop_
_geom_bond_atom_site_label_1
_geom_bond_atom_site_label_2
_geom_bond_distance
_geom_bond_site_symmetry_2
Nd0 O3 2.611299 1_545
Nd0 O0 2.611299 1_455
Nd0 O3 2.611299 1_555
Nd0 O0 2.611299 1_555
Nd0 O4 2.611299 1_554
Nd0 O1 2.611299 1_554
Nd0 O1 2.611299 1_454
Nd0 O4 2.611299 1_544
Nd1 O2 3.023176 1_545
Nd1 O2 3.023176 1_555
Nd1 O2 3.023176 1_445
Nd1 O2 3.023176 1_455
Nd1 O4 3.071793 1_545
Nd1 O4 3.071793 1_555
Nd1 O1 3.071793 1_555
Nd1 O1 3.071793 1_455
Nd1 O0 3.071793 1_455
Nd1 O3 3.071793 1_555
Nd1 O0 3.071793 1_555
Nd1 O3 3.071793 1_545
Cd0 O0 2.138237 1_565
Cd0 O3 2.138237 1_655
Cd0 O0 2.138237 1_555
Cd0 O3 2.138237 1_555
Cd0 O2 2.158377 1_555
Cd1 O4 2.138237 1_555
Cd1 O1 2.138237 1_555
Cd1 O4 2.138237 1_655
Cd1 O1 2.138237 1_565
Cd1 O2 2.158377 1_555
