# generated using pymatgen
data_Tl3Ir
_symmetry_space_group_name_H-M   'P 1'
_cell_length_a   5.13677863
_cell_length_b   5.13677863
_cell_length_c   5.13677863
_cell_angle_alpha   60.00000000
_cell_angle_beta   60.00000000
_cell_angle_gamma   60.00000000
_symmetry_Int_Tables_number   1
_chemical_formula_structural   Tl3Ir
_chemical_formula_sum   'Tl3 Ir1'
_cell_volume   95.84237159
_cell_formula_units_Z   1
loop_
 _symmetry_equiv_pos_site_id
 _symmetry_equiv_pos_as_xyz
  1  'x, y, z'
loop_
 _atom_site_type_symbol
 _atom_site_label
 _atom_site_symmetry_multiplicity
 _atom_site_fract_x
 _atom_site_fract_y
 _atom_site_fract_z
 _atom_site_occupancy
  Tl  Tl0  1  0.25000000  0.25000000  0.25000000  1
  Tl  Tl1  1  0.75000000  0.75000000  0.75000000  1
  Tl  Tl2  1  0.50000000  0.50000000  0.50000000  1
  Ir  Ir0  1  0.00000000  0.00000000  0.00000000  1
loop_
_geom_bond_atom_site_label_1
_geom_bond_atom_site_label_2
_geom_bond_distance
_geom_bond_site_symmetry_2
Tl0 Tl2 3.145622 1_554
Tl0 Tl2 3.145622 1_455
Tl0 Tl2 3.145622 1_545
Tl0 Tl2 3.145622 1_555
Tl1 Tl2 3.145622 1_556
Tl1 Tl2 3.145622 1_555
Tl1 Tl2 3.145622 1_565
Tl1 Tl2 3.145622 1_655
Ir0 Tl1 3.145622 1_454
Ir0 Tl0 3.145622 1_455
Ir0 Tl0 3.145622 1_554
Ir0 Tl1 3.145622 1_444
Ir0 Tl1 3.145622 1_445
Ir0 Tl1 3.145622 1_544
Ir0 Tl0 3.145622 1_555
Ir0 Tl0 3.145622 1_545
