# generated using pymatgen
data_Pm5Mg
_symmetry_space_group_name_H-M   'P 1'
_cell_length_a   18.67092150
_cell_length_b   18.67092150
_cell_length_c   11.64526600
_cell_angle_alpha   90.00000000
_cell_angle_beta   90.00000000
_cell_angle_gamma   157.10467950
_symmetry_Int_Tables_number   1
_chemical_formula_structural   Pm5Mg
_chemical_formula_sum   'Pm40 Mg8'
_cell_volume   1579.37370162
_cell_formula_units_Z   8
loop_
 _symmetry_equiv_pos_site_id
 _symmetry_equiv_pos_as_xyz
  1  'x, y, z'
loop_
 _atom_site_type_symbol
 _atom_site_label
 _atom_site_symmetry_multiplicity
 _atom_site_fract_x
 _atom_site_fract_y
 _atom_site_fract_z
 _atom_site_occupancy
  Pm  Pm0_0  1  0.00286800  0.49713200  0.00000000  1
  Pm  Pm0_1  1  0.00286800  0.49713200  0.50000000  1
  Pm  Pm0_2  1  0.00286800  0.99713200  0.00000000  1
  Pm  Pm0_3  1  0.00286800  0.99713200  0.50000000  1
  Pm  Pm0_4  1  0.50286800  0.49713200  0.00000000  1
  Pm  Pm0_5  1  0.50286800  0.49713200  0.50000000  1
  Pm  Pm0_6  1  0.50286800  0.99713200  0.00000000  1
  Pm  Pm0_7  1  0.50286800  0.99713200  0.50000000  1
  Pm  Pm1_0  1  0.33734150  0.16265850  0.00000000  1
  Pm  Pm1_1  1  0.33734150  0.16265850  0.50000000  1
  Pm  Pm1_2  1  0.33734150  0.66265850  0.00000000  1
  Pm  Pm1_3  1  0.33734150  0.66265850  0.50000000  1
  Pm  Pm1_4  1  0.83734150  0.16265850  0.00000000  1
  Pm  Pm1_5  1  0.83734150  0.16265850  0.50000000  1
  Pm  Pm1_6  1  0.83734150  0.66265850  0.00000000  1
  Pm  Pm1_7  1  0.83734150  0.66265850  0.50000000  1
  Pm  Pm2_0  1  0.16735200  0.33264800  0.00000000  1
  Pm  Pm2_1  1  0.16735200  0.33264800  0.50000000  1
  Pm  Pm2_2  1  0.16735200  0.83264800  0.00000000  1
  Pm  Pm2_3  1  0.16735200  0.83264800  0.50000000  1
  Pm  Pm2_4  1  0.66735200  0.33264800  0.00000000  1
  Pm  Pm2_5  1  0.66735200  0.33264800  0.50000000  1
  Pm  Pm2_6  1  0.66735200  0.83264800  0.00000000  1
  Pm  Pm2_7  1  0.66735200  0.83264800  0.50000000  1
  Pm  Pm3_0  1  0.27726650  0.22273350  0.25000000  1
  Pm  Pm3_1  1  0.27726650  0.22273350  0.75000000  1
  Pm  Pm3_2  1  0.27726650  0.72273350  0.25000000  1
  Pm  Pm3_3  1  0.27726650  0.72273350  0.75000000  1
  Pm  Pm3_4  1  0.77726650  0.22273350  0.25000000  1
  Pm  Pm3_5  1  0.77726650  0.22273350  0.75000000  1
  Pm  Pm3_6  1  0.77726650  0.72273350  0.25000000  1
  Pm  Pm3_7  1  0.77726650  0.72273350  0.75000000  1
  Pm  Pm4_0  1  0.43928850  0.06071150  0.25000000  1
  Pm  Pm4_1  1  0.43928850  0.06071150  0.75000000  1
  Pm  Pm4_2  1  0.43928850  0.56071150  0.25000000  1
  Pm  Pm4_3  1  0.43928850  0.56071150  0.75000000  1
  Pm  Pm4_4  1  0.93928850  0.06071150  0.25000000  1
  Pm  Pm4_5  1  0.93928850  0.06071150  0.75000000  1
  Pm  Pm4_6  1  0.93928850  0.56071150  0.25000000  1
  Pm  Pm4_7  1  0.93928850  0.56071150  0.75000000  1
  Mg  Mg0_0  1  0.10921650  0.39078350  0.25000000  1
  Mg  Mg0_1  1  0.10921650  0.39078350  0.75000000  1
  Mg  Mg0_2  1  0.10921650  0.89078350  0.25000000  1
  Mg  Mg0_3  1  0.10921650  0.89078350  0.75000000  1
  Mg  Mg0_4  1  0.60921650  0.39078350  0.25000000  1
  Mg  Mg0_5  1  0.60921650  0.39078350  0.75000000  1
  Mg  Mg0_6  1  0.60921650  0.89078350  0.25000000  1
  Mg  Mg0_7  1  0.60921650  0.89078350  0.75000000  1
loop_
_geom_bond_atom_site_label_1
_geom_bond_atom_site_label_2
_geom_bond_distance
_geom_bond_site_symmetry_2
Pm0_0 Pm3_5 3.564567 1_454
Pm0_0 Pm3_4 3.564567 1_455
Pm0_0 Pm3_2 3.564567 1_555
Pm0_0 Pm3_3 3.564567 1_554
Pm0_0 Pm1_2 3.604339 1_555
Pm0_0 Pm1_4 3.604339 1_455
Pm0_0 Pm2_4 3.637119 1_455
Pm0_0 Pm2_2 3.637119 1_555
Pm0_0 Pm0_6 3.705668 1_445
Pm0_0 Pm0_6 3.705668 1_555
Pm0_0 Pm4_6 3.726988 1_455
Pm0_0 Pm4_7 3.726988 1_454
Pm0_1 Pm3_4 3.564567 1_455
Pm0_1 Pm3_5 3.564567 1_455
Pm0_1 Pm3_3 3.564567 1_555
Pm0_1 Pm3_2 3.564567 1_555
Pm0_1 Pm1_3 3.604339 1_555
Pm0_1 Pm1_5 3.604339 1_455
Pm0_1 Pm2_3 3.637119 1_555
Pm0_1 Pm2_5 3.637119 1_455
Pm0_1 Pm0_7 3.705668 1_445
Pm0_1 Pm0_7 3.705668 1_555
Pm0_1 Pm4_7 3.726988 1_455
Pm0_1 Pm4_6 3.726988 1_455
Pm0_2 Pm3_6 3.564567 1_455
Pm0_2 Pm3_7 3.564567 1_454
Pm0_2 Pm3_1 3.564567 1_564
Pm0_2 Pm3_0 3.564567 1_565
Pm0_2 Pm1_6 3.604339 1_455
Pm0_2 Pm1_0 3.604339 1_565
Pm0_2 Pm2_6 3.637119 1_455
Pm0_2 Pm2_0 3.637119 1_565
Pm0_2 Pm0_4 3.705668 1_455
Pm0_2 Pm0_4 3.705668 1_565
Pm0_2 Pm4_4 3.726988 1_465
Pm0_2 Pm4_5 3.726988 1_464
Pm0_3 Pm3_6 3.564567 1_455
Pm0_3 Pm3_7 3.564567 1_455
Pm0_3 Pm3_1 3.564567 1_565
Pm0_3 Pm3_0 3.564567 1_565
Pm0_3 Pm1_7 3.604339 1_455
Pm0_3 Pm1_1 3.604339 1_565
Pm0_3 Pm2_7 3.637119 1_455
Pm0_3 Pm2_1 3.637119 1_565
Pm0_3 Pm0_5 3.705668 1_455
Pm0_3 Pm0_5 3.705668 1_565
Pm0_3 Pm4_4 3.726988 1_465
Pm0_3 Pm4_5 3.726988 1_465
Pm0_4 Pm3_0 3.564567 1_555
Pm0_4 Pm3_1 3.564567 1_554
Pm0_4 Pm3_6 3.564567 1_555
Pm0_4 Pm3_7 3.564567 1_554
Pm0_4 Pm1_6 3.604339 1_555
Pm0_4 Pm1_0 3.604339 1_555
Pm0_4 Pm2_6 3.637119 1_555
Pm0_4 Pm2_0 3.637119 1_555
Pm0_4 Pm4_3 3.726988 1_554
Pm0_4 Pm4_2 3.726988 1_555
Pm0_5 Pm3_0 3.564567 1_555
Pm0_5 Pm3_1 3.564567 1_555
Pm0_5 Pm3_7 3.564567 1_555
Pm0_5 Pm3_6 3.564567 1_555
Pm0_5 Pm1_7 3.604339 1_555
Pm0_5 Pm1_1 3.604339 1_555
Pm0_5 Pm2_7 3.637119 1_555
Pm0_5 Pm2_1 3.637119 1_555
Pm0_5 Pm4_2 3.726988 1_555
Pm0_5 Pm4_3 3.726988 1_555
Pm0_6 Pm3_4 3.564567 1_565
Pm0_6 Pm3_5 3.564567 1_564
Pm0_6 Pm3_3 3.564567 1_554
Pm0_6 Pm3_2 3.564567 1_555
Pm0_6 Pm1_2 3.604339 1_555
Pm0_6 Pm1_4 3.604339 1_565
Pm0_6 Pm2_2 3.637119 1_555
Pm0_6 Pm2_4 3.637119 1_565
Pm0_6 Pm4_0 3.726988 1_565
Pm0_6 Pm4_1 3.726988 1_564
Pm0_7 Pm3_4 3.564567 1_565
Pm0_7 Pm3_5 3.564567 1_565
Pm0_7 Pm3_3 3.564567 1_555
Pm0_7 Pm3_2 3.564567 1_555
Pm0_7 Pm1_3 3.604339 1_555
Pm0_7 Pm1_5 3.604339 1_565
Pm0_7 Pm2_3 3.637119 1_555
Pm0_7 Pm2_5 3.637119 1_565
Pm0_7 Pm4_0 3.726988 1_565
Pm0_7 Pm4_1 3.726988 1_565
Pm1_0 Pm2_4 3.465249 1_555
Pm1_0 Pm2_2 3.465249 1_545
Pm1_0 Pm3_0 3.648284 1_555
Pm1_0 Pm3_1 3.648284 1_554
Pm1_0 Pm1_6 3.705668 1_445
Pm1_0 Pm1_6 3.705668 1_555
Pm1_1 Pm2_5 3.465249 1_555
Pm1_1 Pm2_3 3.465249 1_545
Pm1_1 Pm3_0 3.648284 1_555
Pm1_1 Pm3_1 3.648284 1_555
Pm1_1 Pm1_7 3.705668 1_445
Pm1_1 Pm1_7 3.705668 1_555
Pm1_2 Pm2_0 3.465249 1_555
Pm1_2 Pm2_6 3.465249 1_555
Pm1_2 Pm3_2 3.648284 1_555
Pm1_2 Pm3_3 3.648284 1_554
Pm1_2 Pm1_4 3.705668 1_455
Pm1_2 Pm1_4 3.705668 1_565
Pm1_3 Pm2_1 3.465249 1_555
Pm1_3 Pm2_7 3.465249 1_555
Pm1_3 Pm3_2 3.648284 1_555
Pm1_3 Pm3_3 3.648284 1_555
Pm1_3 Pm1_5 3.705668 1_455
Pm1_3 Pm1_5 3.705668 1_565
Pm1_4 Pm2_0 3.465249 1_655
Pm1_4 Pm2_6 3.465249 1_545
Pm1_4 Pm3_4 3.648284 1_555
Pm1_4 Pm3_5 3.648284 1_554
Pm1_5 Pm2_1 3.465249 1_655
Pm1_5 Pm2_7 3.465249 1_545
Pm1_5 Pm3_5 3.648284 1_555
Pm1_5 Pm3_4 3.648284 1_555
Pm1_6 Pm2_4 3.465249 1_555
Pm1_6 Pm2_2 3.465249 1_655
Pm1_6 Pm3_7 3.648284 1_554
Pm1_6 Pm3_6 3.648284 1_555
Pm1_7 Pm2_5 3.465249 1_555
Pm1_7 Pm2_3 3.465249 1_655
Pm1_7 Pm3_7 3.648284 1_555
Pm1_7 Pm3_6 3.648284 1_555
Pm2_0 Pm4_2 3.543068 1_555
Pm2_0 Pm4_4 3.543068 1_455
Pm2_0 Pm4_5 3.543068 1_454
Pm2_0 Pm4_3 3.543068 1_554
Pm2_0 Pm2_6 3.705668 1_445
Pm2_0 Pm2_6 3.705668 1_555
Pm2_1 Pm4_2 3.543068 1_555
Pm2_1 Pm4_4 3.543068 1_455
Pm2_1 Pm4_3 3.543068 1_555
Pm2_1 Pm4_5 3.543068 1_455
Pm2_1 Pm2_7 3.705668 1_445
Pm2_1 Pm2_7 3.705668 1_555
Pm2_2 Pm4_6 3.543068 1_455
Pm2_2 Pm4_7 3.543068 1_454
Pm2_2 Pm4_0 3.543068 1_565
Pm2_2 Pm4_1 3.543068 1_564
Pm2_2 Pm2_4 3.705668 1_455
Pm2_2 Pm2_4 3.705668 1_565
Pm2_3 Pm4_6 3.543068 1_455
Pm2_3 Pm4_7 3.543068 1_455
Pm2_3 Pm4_1 3.543068 1_565
Pm2_3 Pm4_0 3.543068 1_565
Pm2_3 Pm2_5 3.705668 1_455
Pm2_3 Pm2_5 3.705668 1_565
Pm2_4 Pm4_1 3.543068 1_554
Pm2_4 Pm4_6 3.543068 1_555
Pm2_4 Pm4_0 3.543068 1_555
Pm2_4 Pm4_7 3.543068 1_554
Pm2_5 Pm4_1 3.543068 1_555
Pm2_5 Pm4_6 3.543068 1_555
Pm2_5 Pm4_7 3.543068 1_555
Pm2_5 Pm4_0 3.543068 1_555
Pm2_6 Pm4_5 3.543068 1_564
Pm2_6 Pm4_4 3.543068 1_565
Pm2_6 Pm4_3 3.543068 1_554
Pm2_6 Pm4_2 3.543068 1_555
Pm2_7 Pm4_5 3.543068 1_565
Pm2_7 Pm4_4 3.543068 1_565
Pm2_7 Pm4_2 3.543068 1_555
Pm2_7 Pm4_3 3.543068 1_555
Pm3_0 Pm3_6 3.705668 1_445
Pm3_0 Pm3_6 3.705668 1_555
Pm3_0 Pm4_2 3.714940 1_555
Pm3_0 Pm4_4 3.714940 1_455
Pm3_1 Pm3_7 3.705668 1_445
Pm3_1 Pm3_7 3.705668 1_555
Pm3_1 Pm4_3 3.714940 1_555
Pm3_1 Pm4_5 3.714940 1_455
Pm3_2 Pm3_4 3.705668 1_455
Pm3_2 Pm3_4 3.705668 1_565
Pm3_2 Pm4_6 3.714940 1_455
Pm3_2 Pm4_0 3.714940 1_565
Pm3_3 Pm3_5 3.705668 1_455
Pm3_3 Pm3_5 3.705668 1_565
Pm3_3 Pm4_7 3.714940 1_455
Pm3_3 Pm4_1 3.714940 1_565
Pm3_4 Pm4_0 3.714940 1_555
Pm3_4 Pm4_6 3.714940 1_555
Pm3_5 Pm4_1 3.714940 1_555
Pm3_5 Pm4_7 3.714940 1_555
Pm3_6 Pm4_2 3.714940 1_555
Pm3_6 Pm4_4 3.714940 1_565
Pm3_7 Pm4_3 3.714940 1_555
Pm3_7 Pm4_5 3.714940 1_565
Pm4_0 Pm4_6 3.705668 1_445
Pm4_0 Pm4_6 3.705668 1_555
Pm4_1 Pm4_7 3.705668 1_445
Pm4_1 Pm4_7 3.705668 1_555
Pm4_2 Pm4_4 3.705668 1_455
Pm4_2 Pm4_4 3.705668 1_565
Pm4_3 Pm4_5 3.705668 1_455
Pm4_3 Pm4_5 3.705668 1_565
Mg0_0 Pm4_2 3.467151 1_555
Mg0_0 Pm4_4 3.467151 1_455
Mg0_0 Pm3_2 3.525438 1_555
Mg0_0 Pm3_4 3.525438 1_455
Mg0_0 Pm1_5 3.542559 1_455
Mg0_0 Pm1_4 3.542559 1_455
Mg0_0 Pm1_2 3.542559 1_555
Mg0_0 Pm1_3 3.542559 1_555
Mg0_0 Pm2_1 3.605949 1_555
Mg0_0 Pm2_0 3.605949 1_555
Mg0_1 Pm4_3 3.467151 1_555
Mg0_1 Pm4_5 3.467151 1_455
Mg0_1 Pm3_3 3.525438 1_555
Mg0_1 Pm3_5 3.525438 1_455
Mg0_1 Pm1_4 3.542559 1_456
Mg0_1 Pm1_5 3.542559 1_455
Mg0_1 Pm1_2 3.542559 1_556
Mg0_1 Pm1_3 3.542559 1_555
Mg0_1 Pm2_0 3.605949 1_556
Mg0_1 Pm2_1 3.605949 1_555
Mg0_2 Pm4_6 3.467151 1_455
Mg0_2 Pm4_0 3.467151 1_565
Mg0_2 Pm3_0 3.525438 1_565
Mg0_2 Pm3_6 3.525438 1_455
Mg0_2 Pm1_7 3.542559 1_455
Mg0_2 Pm1_6 3.542559 1_455
Mg0_2 Pm1_1 3.542559 1_565
Mg0_2 Pm1_0 3.542559 1_565
Mg0_2 Pm2_2 3.605949 1_555
Mg0_2 Pm2_3 3.605949 1_555
Mg0_3 Pm4_7 3.467151 1_455
Mg0_3 Pm4_1 3.467151 1_565
Mg0_3 Pm3_1 3.525438 1_565
Mg0_3 Pm3_7 3.525438 1_455
Mg0_3 Pm1_7 3.542559 1_455
Mg0_3 Pm1_6 3.542559 1_456
Mg0_3 Pm1_1 3.542559 1_565
Mg0_3 Pm1_0 3.542559 1_566
Mg0_3 Pm2_3 3.605949 1_555
Mg0_3 Pm2_2 3.605949 1_556
Mg0_4 Pm4_6 3.467151 1_555
Mg0_4 Pm4_0 3.467151 1_555
Mg0_4 Pm3_0 3.525438 1_555
Mg0_4 Pm3_6 3.525438 1_555
Mg0_4 Pm1_0 3.542559 1_555
Mg0_4 Pm1_1 3.542559 1_555
Mg0_4 Pm1_7 3.542559 1_555
Mg0_4 Pm1_6 3.542559 1_555
Mg0_4 Pm2_5 3.605949 1_555
Mg0_4 Pm2_4 3.605949 1_555
Mg0_5 Pm4_7 3.467151 1_555
Mg0_5 Pm4_1 3.467151 1_555
Mg0_5 Pm3_1 3.525438 1_555
Mg0_5 Pm3_7 3.525438 1_555
Mg0_5 Pm1_1 3.542559 1_555
Mg0_5 Pm1_0 3.542559 1_556
Mg0_5 Pm1_7 3.542559 1_555
Mg0_5 Pm1_6 3.542559 1_556
Mg0_5 Pm2_5 3.605949 1_555
Mg0_5 Pm2_4 3.605949 1_556
Mg0_6 Pm4_4 3.467151 1_565
Mg0_6 Pm4_2 3.467151 1_555
Mg0_6 Pm3_4 3.525438 1_565
Mg0_6 Pm3_2 3.525438 1_555
Mg0_6 Pm1_4 3.542559 1_565
Mg0_6 Pm1_5 3.542559 1_565
Mg0_6 Pm1_3 3.542559 1_555
Mg0_6 Pm1_2 3.542559 1_555
Mg0_6 Pm2_6 3.605949 1_555
Mg0_6 Pm2_7 3.605949 1_555
Mg0_7 Pm4_5 3.467151 1_565
Mg0_7 Pm4_3 3.467151 1_555
Mg0_7 Pm3_5 3.525438 1_565
Mg0_7 Pm3_3 3.525438 1_555
Mg0_7 Pm1_5 3.542559 1_565
Mg0_7 Pm1_4 3.542559 1_566
Mg0_7 Pm1_2 3.542559 1_556
Mg0_7 Pm1_3 3.542559 1_555
Mg0_7 Pm2_6 3.605949 1_556
Mg0_7 Pm2_7 3.605949 1_555
