# generated using pymatgen
data_Y2Au
_symmetry_space_group_name_H-M   'P 1'
_cell_length_a   7.15751362
_cell_length_b   4.97662218
_cell_length_c   8.91180287
_cell_angle_alpha   90.00007597
_cell_angle_beta   89.99978497
_cell_angle_gamma   89.99992234
_symmetry_Int_Tables_number   1
_chemical_formula_structural   Y2Au
_chemical_formula_sum   'Y8 Au4'
_cell_volume   317.44056628
_cell_formula_units_Z   4
loop_
 _symmetry_equiv_pos_site_id
 _symmetry_equiv_pos_as_xyz
  1  'x, y, z'
loop_
 _atom_site_type_symbol
 _atom_site_label
 _atom_site_symmetry_multiplicity
 _atom_site_fract_x
 _atom_site_fract_y
 _atom_site_fract_z
 _atom_site_occupancy
  Y  Y0  1  0.14578845  0.25000000  0.08354157  1
  Y  Y1  1  0.48727243  0.75000000  0.17392770  1
  Y  Y2  1  0.98727343  0.75000000  0.32607230  1
  Y  Y3  1  0.64578945  0.25000100  0.41645843  1
  Y  Y4  1  0.35421055  0.75000100  0.58354057  1
  Y  Y5  1  0.01272657  0.25000100  0.67392670  1
  Y  Y6  1  0.51272657  0.25000100  0.82607230  1
  Y  Y7  1  0.85421155  0.75000100  0.91645943  1
  Au  Au0  1  0.74291206  0.25000100  0.09603921  1
  Au  Au1  1  0.24291206  0.25000000  0.40396079  1
  Au  Au2  1  0.75708794  0.75000000  0.59603921  1
  Au  Au3  1  0.25708694  0.75000000  0.90396279  1
loop_
_geom_bond_atom_site_label_1
_geom_bond_atom_site_label_2
_geom_bond_distance
_geom_bond_site_symmetry_2
Y0 Y2 3.485756 1_455
Y0 Y2 3.485763 1_445
Y0 Y6 3.487484 1_554
Y0 Y7 3.572709 1_444
Y0 Y7 3.572715 1_454
Y0 Y1 3.579739 1_545
Y0 Y1 3.579742 1_555
Y0 Y5 3.772605 1_554
Y1 Y3 3.485767 1_555
Y1 Y3 3.485772 1_565
Y1 Y7 3.487484 1_554
Y1 Y4 3.772581 1_555
Y2 Y4 3.487486 1_655
Y2 Y3 3.579736 1_555
Y2 Y3 3.579737 1_565
Y2 Y7 3.772588 1_554
Y3 Y5 3.487486 1_655
Y3 Y4 3.572711 1_555
Y3 Y4 3.572717 1_545
Y3 Y6 3.772591 1_555
Y4 Y6 3.485772 1_565
Y4 Y6 3.485774 1_555
Y4 Y5 3.579733 1_565
Y4 Y5 3.579739 1_555
Y5 Y7 3.485768 1_455
Y5 Y7 3.485774 1_445
Y6 Y7 3.579746 1_545
Y6 Y7 3.579749 1_555
Au0 Y0 2.885743 1_655
Au0 Y6 2.915954 1_554
Au0 Y3 2.938908 1_555
Au0 Y7 3.063902 1_544
Au0 Y7 3.063907 1_554
Au0 Y1 3.165662 1_555
Au0 Y1 3.165675 1_545
Au1 Y3 2.885751 1_555
Au1 Y5 2.915936 1_555
Au1 Y0 2.938915 1_555
Au1 Y4 3.063903 1_545
Au1 Y4 3.063909 1_555
Au1 Y2 3.165666 1_455
Au1 Y2 3.165669 1_445
Au2 Y4 2.885751 1_555
Au2 Y2 2.915943 1_555
Au2 Y7 2.938924 1_555
Au2 Y3 3.063906 1_555
Au2 Y3 3.063916 1_565
Au2 Y5 3.165660 1_655
Au2 Y5 3.165671 1_665
Au3 Y7 2.885735 1_455
Au3 Y1 2.915939 1_556
Au3 Y4 2.938936 1_555
Au3 Y0 3.063896 1_566
Au3 Y0 3.063901 1_556
Au3 Y6 3.165666 1_555
Au3 Y6 3.165679 1_565
