# generated using pymatgen
data_UCoSi
_symmetry_space_group_name_H-M   'P 1'
_cell_length_a   3.98163200
_cell_length_b   7.02765400
_cell_length_c   7.14874800
_cell_angle_alpha   90.00000000
_cell_angle_beta   90.00000000
_cell_angle_gamma   90.00000000
_symmetry_Int_Tables_number   1
_chemical_formula_structural   UCoSi
_chemical_formula_sum   'U4 Co4 Si4'
_cell_volume   200.03292129
_cell_formula_units_Z   4
loop_
 _symmetry_equiv_pos_site_id
 _symmetry_equiv_pos_as_xyz
  1  'x, y, z'
loop_
 _atom_site_type_symbol
 _atom_site_label
 _atom_site_symmetry_multiplicity
 _atom_site_fract_x
 _atom_site_fract_y
 _atom_site_fract_z
 _atom_site_occupancy
  U  U0  1  0.25000000  0.49919100  0.25275900  1
  U  U1  1  0.75000000  0.50080900  0.74724100  1
  U  U2  1  0.25000000  0.99919100  0.24724100  1
  U  U3  1  0.75000000  0.00080900  0.75275900  1
  Co  Co0  1  0.75000000  0.75306800  0.40293600  1
  Co  Co1  1  0.25000000  0.24693200  0.59706400  1
  Co  Co2  1  0.75000000  0.25306800  0.09706400  1
  Co  Co3  1  0.25000000  0.74693200  0.90293600  1
  Si  Si0  1  0.25000000  0.25374200  0.92359400  1
  Si  Si1  1  0.75000000  0.74625800  0.07640600  1
  Si  Si2  1  0.25000000  0.75374200  0.57640600  1
  Si  Si3  1  0.75000000  0.24625800  0.42359400  1
loop_
_geom_bond_atom_site_label_1
_geom_bond_atom_site_label_2
_geom_bond_distance
_geom_bond_site_symmetry_2
Co0 Si1 2.334771 1_555
Co0 Si2 2.345464 1_555
Co0 Si2 2.345464 1_655
Co0 U2 2.862502 1_655
Co0 U2 2.862502 1_555
Co0 U0 2.880823 1_555
Co0 U0 2.880823 1_655
Co0 U1 3.033319 1_555
Co0 U3 3.047162 1_565
Co1 Si0 2.334771 1_555
Co1 Si3 2.345464 1_455
Co1 Si3 2.345464 1_555
Co1 U3 2.862502 1_455
Co1 U3 2.862502 1_555
Co1 U1 2.880823 1_555
Co1 U1 2.880823 1_455
Co1 U0 3.033319 1_555
Co1 U2 3.047162 1_545
Co2 Si3 2.334771 1_555
Co2 Si0 2.345464 1_654
Co2 Si0 2.345464 1_554
Co2 U0 2.862502 1_655
Co2 U0 2.862502 1_555
Co2 U2 2.880823 1_645
Co2 U2 2.880823 1_545
Co2 U3 3.033319 1_554
Co2 U1 3.047162 1_554
Co3 Si2 2.334771 1_555
Co3 Si1 2.345464 1_456
Co3 Si1 2.345464 1_556
Co3 U1 2.862502 1_555
Co3 U1 2.862502 1_455
Co3 U3 2.880823 1_465
Co3 U3 2.880823 1_565
Co3 U2 3.033319 1_556
Co3 U0 3.047162 1_556
Si0 U0 2.917627 1_556
Si0 U2 2.924589 1_546
Si0 U1 2.927023 1_555
Si0 U1 2.927023 1_455
Si0 U3 2.935032 1_455
Si0 U3 2.935032 1_555
Si1 U1 2.917627 1_554
Si1 U3 2.924589 1_564
Si1 U0 2.927023 1_655
Si1 U0 2.927023 1_555
Si1 U2 2.935032 1_555
Si1 U2 2.935032 1_655
Si2 U2 2.917627 1_555
Si2 U0 2.924589 1_555
Si2 U3 2.927023 1_565
Si2 U3 2.927023 1_465
Si2 U1 2.935032 1_455
Si2 U1 2.935032 1_555
Si3 U3 2.917627 1_555
Si3 U1 2.924589 1_555
Si3 U2 2.927023 1_545
Si3 U2 2.927023 1_645
Si3 U0 2.935032 1_555
Si3 U0 2.935032 1_655
