# generated using pymatgen
data_ErCuGe
_symmetry_space_group_name_H-M   'P 1'
_cell_length_a   4.21118428
_cell_length_b   4.21118428
_cell_length_c   7.08986756
_cell_angle_alpha   90.00000000
_cell_angle_beta   90.00000000
_cell_angle_gamma   120.00000541
_symmetry_Int_Tables_number   1
_chemical_formula_structural   ErCuGe
_chemical_formula_sum   'Er2 Cu2 Ge2'
_cell_volume   108.88729882
_cell_formula_units_Z   2
loop_
 _symmetry_equiv_pos_site_id
 _symmetry_equiv_pos_as_xyz
  1  'x, y, z'
loop_
 _atom_site_type_symbol
 _atom_site_label
 _atom_site_symmetry_multiplicity
 _atom_site_fract_x
 _atom_site_fract_y
 _atom_site_fract_z
 _atom_site_occupancy
  Er  Er0  1  -0.00000000  0.00000000  0.73765089  1
  Er  Er1  1  -0.00000000  0.00000000  0.23765089  1
  Cu  Cu0  1  0.66666700  0.33333300  0.52810182  1
  Cu  Cu1  1  0.33333300  0.66666700  0.02810182  1
  Ge  Ge0  1  0.33333300  0.66666700  0.46064629  1
  Ge  Ge1  1  0.66666700  0.33333300  0.96064629  1
loop_
_geom_bond_atom_site_label_1
_geom_bond_atom_site_label_2
_geom_bond_distance
_geom_bond_site_symmetry_2
Er0 Ge1 2.900161 1_455
Er0 Ge1 2.900164 1_555
Er0 Ge1 2.900164 1_445
Er0 Ge0 3.125436 1_545
Er0 Ge0 3.125439 1_445
Er0 Ge0 3.125439 1_555
Er1 Ge0 2.900161 1_545
Er1 Ge0 2.900164 1_445
Er1 Ge0 2.900164 1_555
Er1 Ge1 3.125436 1_454
Er1 Ge1 3.125439 1_444
Er1 Ge1 3.125439 1_554
Cu0 Ge0 2.477916 1_545
Cu0 Ge0 2.477916 1_655
Cu0 Ge0 2.477924 1_555
Cu0 Er0 2.849312 1_655
Cu0 Er0 2.849315 1_665
Cu0 Er0 2.849315 1_555
Cu0 Ge1 3.066683 1_555
Cu0 Er1 3.186203 1_655
Cu0 Er1 3.186206 1_665
Cu0 Er1 3.186206 1_555
Cu1 Ge1 2.477916 1_454
Cu1 Ge1 2.477916 1_564
Cu1 Ge1 2.477924 1_554
Cu1 Er1 2.849312 1_565
Cu1 Er1 2.849315 1_665
Cu1 Er1 2.849315 1_555
Cu1 Ge0 3.066683 1_555
Cu1 Er0 3.186203 1_564
Cu1 Er0 3.186206 1_664
Cu1 Er0 3.186206 1_554
