# generated using pymatgen
data_RbAc3
_symmetry_space_group_name_H-M   'P 1'
_cell_length_a   5.81189400
_cell_length_b   5.81189400
_cell_length_c   5.81189400
_cell_angle_alpha   90.00000000
_cell_angle_beta   90.00000000
_cell_angle_gamma   90.00000000
_symmetry_Int_Tables_number   1
_chemical_formula_structural   RbAc3
_chemical_formula_sum   'Rb1 Ac3'
_cell_volume   196.31480569
_cell_formula_units_Z   1
loop_
 _symmetry_equiv_pos_site_id
 _symmetry_equiv_pos_as_xyz
  1  'x, y, z'
loop_
 _atom_site_type_symbol
 _atom_site_label
 _atom_site_symmetry_multiplicity
 _atom_site_fract_x
 _atom_site_fract_y
 _atom_site_fract_z
 _atom_site_occupancy
  Rb  Rb0  1  0.00000000  0.00000000  0.00000000  1
  Ac  Ac0  1  0.00000000  0.50000000  0.50000000  1
  Ac  Ac1  1  0.50000000  0.00000000  0.50000000  1
  Ac  Ac2  1  0.50000000  0.50000000  0.00000000  1
loop_
_geom_bond_atom_site_label_1
_geom_bond_atom_site_label_2
_geom_bond_distance
_geom_bond_site_symmetry_2
Ac0 Ac1 4.109630 1_565
Ac0 Rb0 4.109630 1_555
Ac0 Rb0 4.109630 1_556
Ac0 Ac2 4.109630 1_456
Ac0 Ac2 4.109630 1_455
Ac0 Rb0 4.109630 1_565
Ac0 Ac1 4.109630 1_555
Ac0 Ac1 4.109630 1_465
Ac0 Ac2 4.109630 1_556
Ac0 Ac2 4.109630 1_555
Ac0 Ac1 4.109630 1_455
Ac0 Rb0 4.109630 1_566
Ac1 Rb0 4.109630 1_555
Ac1 Rb0 4.109630 1_556
Ac1 Ac2 4.109630 1_546
Ac1 Rb0 4.109630 1_656
Ac1 Rb0 4.109630 1_655
Ac1 Ac2 4.109630 1_556
Ac1 Ac2 4.109630 1_555
Ac1 Ac2 4.109630 1_545
Ac2 Rb0 4.109630 1_555
Ac2 Rb0 4.109630 1_565
Ac2 Rb0 4.109630 1_655
Ac2 Rb0 4.109630 1_665
