# generated using pymatgen
data_TlPt2S3
_symmetry_space_group_name_H-M   'P 1'
_cell_length_a   7.14374897
_cell_length_b   7.14374897
_cell_length_c   6.08520538
_cell_angle_alpha   90.00000000
_cell_angle_beta   90.00000000
_cell_angle_gamma   120.00000470
_symmetry_Int_Tables_number   1
_chemical_formula_structural   TlPt2S3
_chemical_formula_sum   'Tl2 Pt4 S6'
_cell_volume   268.94174703
_cell_formula_units_Z   2
loop_
 _symmetry_equiv_pos_site_id
 _symmetry_equiv_pos_as_xyz
  1  'x, y, z'
loop_
 _atom_site_type_symbol
 _atom_site_label
 _atom_site_symmetry_multiplicity
 _atom_site_fract_x
 _atom_site_fract_y
 _atom_site_fract_z
 _atom_site_occupancy
  Tl  Tl0  1  0.66666700  0.33333300  0.62634094  1
  Tl  Tl1  1  0.33333300  0.66666700  0.37365906  1
  Pt  Pt0  1  0.00000000  -0.00000000  -0.00000000  1
  Pt  Pt1  1  0.00000000  0.50000000  -0.00000000  1
  Pt  Pt2  1  0.50000000  -0.00000000  -0.00000000  1
  Pt  Pt3  1  0.50000000  0.50000000  -0.00000000  1
  S  S0  1  0.83015156  0.16984844  0.19169458  1
  S  S1  1  0.83015156  0.66030311  0.19169458  1
  S  S2  1  0.33969689  0.16984844  0.19169458  1
  S  S3  1  0.66030311  0.83015156  0.80830542  1
  S  S4  1  0.16984844  0.83015156  0.80830542  1
  S  S5  1  0.16984844  0.33969689  0.80830542  1
loop_
_geom_bond_atom_site_label_1
_geom_bond_atom_site_label_2
_geom_bond_distance
_geom_bond_site_symmetry_2
Pt0 S5 2.403625 1_554
Pt0 S1 2.403625 1_445
Pt0 S2 2.403625 1_555
Pt0 S3 2.403625 1_444
Pt0 S4 2.403625 1_544
Pt0 S0 2.403625 1_455
Pt1 S4 2.352413 1_554
Pt1 S0 2.352413 1_455
Pt1 S5 2.352413 1_554
Pt1 S1 2.352413 1_455
Pt1 Tl1 3.069672 1_555
Pt1 Tl0 3.069672 1_454
Pt2 S4 2.352413 1_544
Pt2 S0 2.352413 1_555
Pt2 S3 2.352413 1_544
Pt2 S2 2.352413 1_555
Pt2 Tl1 3.069672 1_545
Pt2 Tl0 3.069672 1_554
Pt3 S3 2.352413 1_554
Pt3 S2 2.352413 1_555
Pt3 S5 2.352413 1_554
Pt3 S1 2.352413 1_555
Pt3 Tl1 3.069676 1_555
Pt3 Tl0 3.069676 1_554
