# generated using pymatgen
data_LaNiSb
_symmetry_space_group_name_H-M   'P 1'
_cell_length_a   4.40040688
_cell_length_b   4.40040647
_cell_length_c   8.50996476
_cell_angle_alpha   90.00000000
_cell_angle_beta   90.00000000
_cell_angle_gamma   119.99999526
_symmetry_Int_Tables_number   1
_chemical_formula_structural   LaNiSb
_chemical_formula_sum   'La2 Ni2 Sb2'
_cell_volume   142.70659503
_cell_formula_units_Z   2
loop_
 _symmetry_equiv_pos_site_id
 _symmetry_equiv_pos_as_xyz
  1  'x, y, z'
loop_
 _atom_site_type_symbol
 _atom_site_label
 _atom_site_symmetry_multiplicity
 _atom_site_fract_x
 _atom_site_fract_y
 _atom_site_fract_z
 _atom_site_occupancy
  La  La0  1  -0.00000000  0.00000000  0.50000000  1
  La  La1  1  -0.00000000  0.00000000  0.00000000  1
  Ni  Ni0  1  0.66666700  0.33333300  0.75000000  1
  Ni  Ni1  1  0.33333300  0.66666700  0.25000000  1
  Sb  Sb0  1  0.33333300  0.66666700  0.75000000  1
  Sb  Sb1  1  0.66666700  0.33333300  0.25000000  1
loop_
_geom_bond_atom_site_label_1
_geom_bond_atom_site_label_2
_geom_bond_distance
_geom_bond_site_symmetry_2
La0 Sb1 3.313719 1_455
La0 Ni0 3.313719 1_455
La0 Sb0 3.313719 1_545
La0 Ni1 3.313719 1_545
La0 Ni0 3.313722 1_445
La0 Ni1 3.313722 1_555
La0 Sb0 3.313722 1_555
La0 Sb1 3.313722 1_445
La0 Ni0 3.313722 1_555
La0 Sb0 3.313722 1_445
La0 Sb1 3.313722 1_555
La0 Ni1 3.313722 1_445
La1 Sb1 3.313719 1_455
La1 Ni0 3.313719 1_454
La1 Sb0 3.313719 1_544
La1 Ni1 3.313719 1_545
La1 Ni0 3.313722 1_444
La1 Ni1 3.313722 1_555
La1 Sb0 3.313722 1_554
La1 Sb1 3.313722 1_445
La1 Sb0 3.313722 1_444
La1 Sb1 3.313722 1_555
La1 Ni1 3.313722 1_445
La1 Ni0 3.313722 1_554
Ni0 Sb0 2.540573 1_545
Ni0 Sb0 2.540574 1_655
Ni0 Sb0 2.540581 1_555
Ni1 Sb1 2.540573 1_565
Ni1 Sb1 2.540574 1_455
Ni1 Sb1 2.540581 1_555
