# generated using pymatgen
data_BaWN3
_symmetry_space_group_name_H-M   'P 1'
_cell_length_a   5.75731796
_cell_length_b   7.64487734
_cell_length_c   10.27788765
_cell_angle_alpha   48.75827415
_cell_angle_beta   90.00000000
_cell_angle_gamma   90.00000000
_symmetry_Int_Tables_number   1
_chemical_formula_structural   BaWN3
_chemical_formula_sum   'Ba4 W4 N12'
_cell_volume   340.15347524
_cell_formula_units_Z   4
loop_
 _symmetry_equiv_pos_site_id
 _symmetry_equiv_pos_as_xyz
  1  'x, y, z'
loop_
 _atom_site_type_symbol
 _atom_site_label
 _atom_site_symmetry_multiplicity
 _atom_site_fract_x
 _atom_site_fract_y
 _atom_site_fract_z
 _atom_site_occupancy
  Ba  Ba0  1  0.26204684  0.71047880  0.63031634  1
  Ba  Ba1  1  0.73795316  0.28952120  0.36968366  1
  Ba  Ba2  1  0.76204684  0.28952120  0.86968366  1
  Ba  Ba3  1  0.23795316  0.71047880  0.13031634  1
  W  W0  1  0.23607868  0.15840680  0.63790383  1
  W  W1  1  0.26392132  0.15840680  0.13790383  1
  W  W2  1  0.73607868  0.84159320  0.86209617  1
  W  W3  1  0.76392132  0.84159320  0.36209617  1
  N  N0  1  0.44160628  0.87568262  0.29269112  1
  N  N1  1  0.55839372  0.12431738  0.70730888  1
  N  N2  1  0.93515260  0.58231038  0.42943233  1
  N  N3  1  0.56484740  0.58231038  0.92943233  1
  N  N4  1  0.94160628  0.12431738  0.20730888  1
  N  N5  1  0.24707178  0.20619437  0.94368184  1
  N  N6  1  0.43515260  0.41768962  0.07056767  1
  N  N7  1  0.75292822  0.79380563  0.05631816  1
  N  N8  1  0.25292822  0.20619437  0.44368184  1
  N  N9  1  0.06484740  0.41768962  0.57056767  1
  N  N10  1  0.74707178  0.79380563  0.55631816  1
  N  N11  1  0.05839372  0.87568262  0.79269112  1
loop_
_geom_bond_atom_site_label_1
_geom_bond_atom_site_label_2
_geom_bond_distance
_geom_bond_site_symmetry_2
Ba0 N10 2.853626 1_555
Ba0 N8 2.908516 1_565
Ba0 N9 2.913512 1_555
Ba0 N11 2.921288 1_555
Ba0 N5 2.978619 1_555
Ba0 N0 2.987788 1_555
Ba0 N10 3.022570 1_455
Ba0 N3 3.078769 1_555
Ba1 N8 2.853626 1_555
Ba1 N10 2.908516 1_545
Ba1 N2 2.913512 1_555
Ba1 N4 2.921288 1_555
Ba1 N7 2.978619 1_555
Ba1 N1 2.987788 1_555
Ba1 N8 3.022570 1_655
Ba1 N6 3.078769 1_555
Ba2 N5 2.853626 1_655
Ba2 N7 2.908516 1_546
Ba2 N3 2.913512 1_555
Ba2 N1 2.921288 1_555
Ba2 N10 2.978619 1_555
Ba2 N4 2.987788 1_556
Ba2 N5 3.022570 1_555
Ba2 N9 3.078769 1_655
Ba3 N7 2.853626 1_455
Ba3 N5 2.908516 1_564
Ba3 N6 2.913512 1_555
Ba3 N0 2.921288 1_555
Ba3 N8 2.978619 1_555
Ba3 N11 2.987788 1_554
Ba3 N7 3.022570 1_555
Ba3 N2 3.078769 1_455
N0 W1 1.927544 1_565
N0 W3 1.942980 1_555
N1 W2 1.927544 1_545
N1 W0 1.942980 1_555
N2 N9 1.355951 1_655
N2 W3 1.889758 1_555
N3 N6 1.355951 1_556
N3 W2 1.889758 1_555
N4 W3 1.927544 1_545
N4 W1 1.942980 1_655
N5 W1 1.779364 1_556
N6 W1 1.889758 1_555
N7 W2 1.779364 1_554
N8 W0 1.779364 1_555
N9 W0 1.889758 1_555
N10 W3 1.779364 1_555
N11 W0 1.927544 1_565
N11 W2 1.942980 1_455
