# generated using pymatgen
data_Tb3ReB7
_symmetry_space_group_name_H-M   'P 1'
_cell_length_a   8.12543626
_cell_length_b   8.12543628
_cell_length_c   9.37276679
_cell_angle_alpha   89.99999920
_cell_angle_beta   89.99999560
_cell_angle_gamma   154.73066024
_symmetry_Int_Tables_number   1
_chemical_formula_structural   Tb3ReB7
_chemical_formula_sum   'Tb6 Re2 B14'
_cell_volume   264.15625518
_cell_formula_units_Z   2
loop_
 _symmetry_equiv_pos_site_id
 _symmetry_equiv_pos_as_xyz
  1  'x, y, z'
loop_
 _atom_site_type_symbol
 _atom_site_label
 _atom_site_symmetry_multiplicity
 _atom_site_fract_x
 _atom_site_fract_y
 _atom_site_fract_z
 _atom_site_occupancy
  Tb  Tb0  1  0.89542164  0.10457831  0.06009828  1
  Tb  Tb1  1  0.10458055  0.89541951  0.56006147  1
  Tb  Tb2  1  0.10458144  0.89541868  0.93993833  1
  Tb  Tb3  1  0.89542261  0.10457751  0.43990152  1
  Tb  Tb4  1  0.24165556  0.75834433  0.24999905  1
  Tb  Tb5  1  0.75833783  0.24166210  0.75000064  1
  Re  Re0  1  0.05371604  0.94628365  0.25000104  1
  Re  Re1  1  0.94628523  0.05371531  0.74999902  1
  B  B0  1  0.45872746  0.54127258  0.25000037  1
  B  B1  1  0.54127762  0.45872237  0.74999924  1
  B  B2  1  0.72676023  0.27323914  0.03365273  1
  B  B3  1  0.27323769  0.72676219  0.53364195  1
  B  B4  1  0.27323825  0.72676269  0.96635777  1
  B  B5  1  0.72676012  0.27323991  0.46634697  1
  B  B6  1  0.63169569  0.36830446  0.34911566  1
  B  B7  1  0.36830072  0.63169941  0.84912571  1
  B  B8  1  0.36830085  0.63169900  0.65087371  1
  B  B9  1  0.63169596  0.36830419  0.15088485  1
  B  B10  1  0.52122070  0.47877954  0.40359141  1
  B  B11  1  0.47878154  0.52121805  0.90360743  1
  B  B12  1  0.47878168  0.52121788  0.59639137  1
  B  B13  1  0.52122059  0.47877919  0.09640948  1
loop_
_geom_bond_atom_site_label_1
_geom_bond_atom_site_label_2
_geom_bond_distance
_geom_bond_site_symmetry_2
Re0 Tb4 2.980221 1_555
Re0 Tb1 3.015977 1_555
Re0 Tb2 3.016001 1_554
Re0 Tb3 3.077127 1_465
Re0 Tb0 3.077151 1_465
Re1 Tb5 2.980343 1_555
Re1 Tb3 3.016304 1_555
Re1 Tb0 3.016323 1_556
Re1 Tb1 3.077353 1_645
Re1 Tb2 3.077373 1_645
B0 B13 1.747685 1_555
B0 B10 1.747685 1_555
B0 Re0 2.329735 1_655
B0 Re0 2.329736 1_545
B0 Tb3 2.708241 1_455
B0 Tb3 2.708242 1_565
B0 Tb0 2.708252 1_565
B0 Tb0 2.708253 1_455
B1 B12 1.747838 1_555
B1 B11 1.747842 1_555
B1 Re1 2.329775 1_455
B1 Re1 2.329777 1_565
B1 Tb1 2.708455 1_655
B1 Tb1 2.708455 1_545
B1 Tb2 2.708468 1_545
B1 Tb2 2.708469 1_655
B2 B9 1.865426 1_555
B2 B4 2.024802 1_544
B2 B4 2.024806 1_654
B2 Tb0 2.685980 1_555
B2 Tb5 2.705349 1_554
B2 Tb4 2.706738 1_545
B2 Tb4 2.706740 1_655
B2 Tb2 2.772004 1_544
B2 Tb2 2.772005 1_654
B3 B8 1.865405 1_555
B3 B5 2.024806 1_455
B3 B5 2.024806 1_565
B3 Tb1 2.685896 1_555
B3 Tb4 2.705278 1_555
B3 Tb5 2.706832 1_455
B3 Tb5 2.706833 1_565
B3 Tb3 2.772144 1_455
B3 Tb3 2.772144 1_565
B4 B7 1.865403 1_555
B4 Tb2 2.685883 1_555
B4 Tb4 2.705264 1_556
B4 Tb5 2.706820 1_565
B4 Tb5 2.706823 1_455
B4 Tb0 2.772133 1_566
B4 Tb0 2.772135 1_456
B5 B6 1.865420 1_555
B5 Tb3 2.686001 1_555
B5 Tb5 2.705365 1_555
B5 Tb4 2.706750 1_655
B5 Tb4 2.706751 1_545
B5 Tb1 2.772009 1_545
B5 Tb1 2.772009 1_655
B6 B9 1.857971 1_555
B6 Re0 2.356028 1_655
B6 Re0 2.356029 1_545
B6 Tb4 2.657490 1_655
B6 Tb4 2.657491 1_545
B6 Tb1 2.693103 1_545
B6 Tb1 2.693103 1_655
B7 B8 1.858170 1_555
B7 Re1 2.356113 1_455
B7 Re1 2.356114 1_565
B7 Tb5 2.657547 1_565
B7 Tb5 2.657548 1_455
B7 Tb0 2.693302 1_456
B7 Tb0 2.693302 1_566
B8 Re1 2.356105 1_455
B8 Re1 2.356107 1_565
B8 Tb5 2.657556 1_455
B8 Tb5 2.657556 1_565
B8 Tb3 2.693301 1_455
B8 Tb3 2.693301 1_565
B9 Re0 2.356036 1_655
B9 Re0 2.356037 1_545
B9 Tb4 2.657480 1_655
B9 Tb4 2.657480 1_545
B9 Tb2 2.693106 1_654
B9 Tb2 2.693107 1_544
B10 B6 1.824733 1_555
B10 B12 1.928310 1_555
B10 Re0 2.344503 1_655
B10 Re0 2.344505 1_545
B10 Tb1 2.656491 1_655
B10 Tb1 2.656491 1_545
B10 Tb3 2.693318 1_565
B10 Tb3 2.693318 1_455
B11 B7 1.824840 1_555
B11 B13 1.928330 1_556
B11 Re1 2.344611 1_455
B11 Re1 2.344613 1_565
B11 Tb0 2.656599 1_456
B11 Tb0 2.656600 1_566
B11 Tb2 2.693361 1_545
B11 Tb2 2.693362 1_655
B12 B8 1.824840 1_555
B12 Re1 2.344607 1_455
B12 Re1 2.344610 1_565
B12 Tb3 2.656588 1_455
B12 Tb3 2.656589 1_565
B12 Tb1 2.693348 1_545
B12 Tb1 2.693349 1_655
B13 B9 1.824734 1_555
B13 Re0 2.344511 1_545
B13 Re0 2.344511 1_655
B13 Tb2 2.656502 1_544
B13 Tb2 2.656503 1_654
B13 Tb0 2.693331 1_455
B13 Tb0 2.693331 1_565
