# generated using pymatgen
data_Y(Mg4Al3)4
_symmetry_space_group_name_H-M   'P 1'
_cell_length_a   9.12389459
_cell_length_b   9.12389459
_cell_length_c   9.12389459
_cell_angle_alpha   109.47122063
_cell_angle_beta   109.47122063
_cell_angle_gamma   109.47122063
_symmetry_Int_Tables_number   1
_chemical_formula_structural   Y(Mg4Al3)4
_chemical_formula_sum   'Y1 Mg16 Al12'
_cell_volume   584.68087374
_cell_formula_units_Z   1
loop_
 _symmetry_equiv_pos_site_id
 _symmetry_equiv_pos_as_xyz
  1  'x, y, z'
loop_
 _atom_site_type_symbol
 _atom_site_label
 _atom_site_symmetry_multiplicity
 _atom_site_fract_x
 _atom_site_fract_y
 _atom_site_fract_z
 _atom_site_occupancy
  Y  Y0  1  0.00000000  0.00000000  0.00000000  1
  Mg  Mg0  1  0.31920000  0.60272600  0.00000000  1
  Mg  Mg1  1  0.35785400  0.00000000  0.00000000  1
  Mg  Mg2  1  0.00000000  0.35785400  0.00000000  1
  Mg  Mg3  1  0.60272600  0.31920000  0.00000000  1
  Mg  Mg4  1  0.39727400  0.39727400  0.71647400  1
  Mg  Mg5  1  0.68080000  0.28352600  0.68080000  1
  Mg  Mg6  1  0.28352600  0.68080000  0.68080000  1
  Mg  Mg7  1  0.64214600  0.64214600  0.64214600  1
  Mg  Mg8  1  0.00000000  0.31920000  0.60272600  1
  Mg  Mg9  1  0.31920000  0.00000000  0.60272600  1
  Mg  Mg10  1  0.71647400  0.39727400  0.39727400  1
  Mg  Mg11  1  0.39727400  0.71647400  0.39727400  1
  Mg  Mg12  1  0.00000000  0.00000000  0.35785400  1
  Mg  Mg13  1  0.00000000  0.60272600  0.31920000  1
  Mg  Mg14  1  0.60272600  0.00000000  0.31920000  1
  Mg  Mg15  1  0.68080000  0.68080000  0.28352600  1
  Al  Al0  1  0.63162500  0.81313600  0.00000000  1
  Al  Al1  1  0.81313600  0.63162500  0.00000000  1
  Al  Al2  1  0.18686400  0.18686400  0.81848900  1
  Al  Al3  1  0.00000000  0.63162500  0.81313600  1
  Al  Al4  1  0.63162500  0.00000000  0.81313600  1
  Al  Al5  1  0.81313600  0.00000000  0.63162500  1
  Al  Al6  1  0.00000000  0.81313600  0.63162500  1
  Al  Al7  1  0.36837500  0.18151100  0.36837500  1
  Al  Al8  1  0.18151100  0.36837500  0.36837500  1
  Al  Al9  1  0.81848900  0.18686400  0.18686400  1
  Al  Al10  1  0.18686400  0.81848900  0.18686400  1
  Al  Al11  1  0.36837500  0.36837500  0.18151100  1
loop_
_geom_bond_atom_site_label_1
_geom_bond_atom_site_label_2
_geom_bond_distance
_geom_bond_site_symmetry_2
Mg0 Mg2 3.022505 1_555
Mg0 Mg15 3.098231 1_555
Mg0 Mg4 3.098231 1_554
Mg0 Mg11 3.162405 1_555
Mg0 Mg8 3.162405 1_554
Mg0 Mg6 3.162405 1_554
Mg0 Mg14 3.162405 1_565
Mg1 Mg6 3.022505 1_544
Mg1 Mg14 3.022505 1_555
Mg1 Mg3 3.022505 1_555
Mg1 Y0 3.265022 1_555
Mg2 Mg5 3.022505 1_454
Mg2 Y0 3.265022 1_555
Mg3 Mg4 3.098231 1_554
Mg3 Mg5 3.162405 1_554
Mg3 Mg9 3.162405 1_554
Mg4 Mg7 3.022505 1_555
Mg4 Mg9 3.162405 1_555
Mg4 Mg8 3.162405 1_555
Mg4 Mg6 3.162405 1_555
Mg4 Mg5 3.162405 1_555
Mg5 Mg9 3.098231 1_555
Mg5 Mg8 3.162405 1_655
Mg6 Mg8 3.098231 1_555
Mg6 Mg9 3.162405 1_565
Mg7 Y0 3.265022 1_666
Mg10 Mg7 3.022505 1_555
Mg10 Mg13 3.098231 1_655
Mg10 Mg8 3.098231 1_655
Mg10 Mg3 3.162405 1_555
Mg10 Mg14 3.162405 1_555
Mg10 Mg5 3.162405 1_555
Mg10 Mg15 3.162405 1_555
Mg11 Mg7 3.022505 1_555
Mg11 Mg14 3.098231 1_565
Mg11 Mg9 3.098231 1_565
Mg11 Mg13 3.162405 1_555
Mg11 Mg15 3.162405 1_555
Mg11 Mg6 3.162405 1_555
Mg12 Mg15 3.022505 1_445
Mg12 Mg9 3.022505 1_555
Mg12 Mg8 3.022505 1_555
Mg12 Y0 3.265022 1_555
Mg13 Mg2 3.022505 1_555
Mg13 Mg6 3.098231 1_555
Mg13 Mg9 3.162405 1_565
Mg13 Mg15 3.162405 1_455
Mg13 Mg3 3.162405 1_455
Mg14 Mg5 3.098231 1_555
Mg14 Mg8 3.162405 1_655
Mg14 Mg15 3.162405 1_545
Mg15 Mg3 3.098231 1_555
Al0 Al1 2.704379 1_555
Al0 Al9 2.784135 1_565
Al0 Al4 2.784135 1_564
Al0 Mg0 2.857059 1_555
Al0 Mg6 2.993237 1_554
Al0 Mg14 2.993237 1_565
Al0 Mg7 3.164875 1_554
Al0 Mg12 3.164875 1_665
Al0 Mg15 3.165548 1_555
Al0 Mg4 3.165548 1_554
Al0 Y0 3.222267 1_665
Al1 Al10 2.784135 1_655
Al1 Al3 2.784135 1_654
Al1 Mg3 2.857059 1_555
Al1 Mg5 2.993237 1_554
Al1 Mg13 2.993237 1_655
Al1 Mg12 3.164875 1_665
Al1 Mg7 3.164875 1_554
Al1 Mg15 3.165548 1_555
Al1 Mg4 3.165548 1_554
Al1 Y0 3.222267 1_665
Al2 Al6 2.784135 1_545
Al2 Al5 2.784135 1_455
Al2 Mg4 2.857059 1_555
Al2 Mg8 2.993237 1_555
Al2 Mg9 2.993237 1_555
Al2 Mg1 3.164875 1_556
Al2 Mg2 3.164875 1_556
Al2 Mg3 3.165548 1_556
Al2 Mg0 3.165548 1_556
Al2 Y0 3.222267 1_556
Al3 Al6 2.704379 1_555
Al3 Mg8 2.857059 1_555
Al3 Mg5 2.993237 1_455
Al3 Mg0 2.993237 1_556
Al3 Mg7 3.164875 1_455
Al3 Mg1 3.164875 1_566
Al3 Mg6 3.165548 1_555
Al3 Mg10 3.165548 1_455
Al3 Y0 3.222267 1_566
Al4 Al5 2.704379 1_555
Al4 Al9 2.784135 1_556
Al4 Mg9 2.857059 1_555
Al4 Mg6 2.993237 1_545
Al4 Mg3 2.993237 1_556
Al4 Mg2 3.164875 1_656
Al4 Mg7 3.164875 1_545
Al4 Mg5 3.165548 1_555
Al4 Mg11 3.165548 1_545
Al4 Y0 3.222267 1_656
Al5 Al6 2.784135 1_645
Al5 Mg14 2.857059 1_555
Al5 Mg15 2.993237 1_545
Al5 Mg8 2.993237 1_655
Al5 Mg7 3.164875 1_545
Al5 Mg2 3.164875 1_656
Al5 Mg5 3.165548 1_555
Al5 Mg11 3.165548 1_545
Al5 Y0 3.222267 1_656
Al6 Mg13 2.857059 1_555
Al6 Mg15 2.993237 1_455
Al6 Mg9 2.993237 1_565
Al6 Mg1 3.164875 1_566
Al6 Mg7 3.164875 1_455
Al6 Mg6 3.165548 1_555
Al6 Mg10 3.165548 1_455
Al6 Y0 3.222267 1_566
Al7 Al8 2.784135 1_555
Al7 Mg5 2.857059 1_555
Al7 Mg4 2.993237 1_555
Al7 Mg10 2.993237 1_555
Al7 Mg12 3.164875 1_555
Al7 Mg1 3.164875 1_555
Al7 Mg9 3.165548 1_555
Al7 Mg14 3.165548 1_555
Al7 Y0 3.222267 1_555
Al8 Al9 2.704379 1_455
Al8 Mg6 2.857059 1_555
Al8 Mg4 2.993237 1_555
Al8 Mg11 2.993237 1_555
Al8 Mg12 3.164875 1_555
Al8 Mg2 3.164875 1_555
Al8 Mg13 3.165548 1_555
Al8 Mg8 3.165548 1_555
Al8 Y0 3.222267 1_555
Al9 Mg10 2.857059 1_555
Al9 Mg14 2.993237 1_555
Al9 Mg3 2.993237 1_555
Al9 Mg2 3.164875 1_655
Al9 Mg12 3.164875 1_655
Al9 Mg8 3.165548 1_655
Al9 Mg13 3.165548 1_655
Al9 Y0 3.222267 1_655
Al10 Al7 2.704379 1_565
Al10 Al3 2.784135 1_554
Al10 Mg11 2.857059 1_555
Al10 Mg13 2.993237 1_555
Al10 Mg0 2.993237 1_555
Al10 Mg1 3.164875 1_565
Al10 Mg12 3.164875 1_565
Al10 Mg14 3.165548 1_565
Al10 Mg9 3.165548 1_565
Al10 Y0 3.222267 1_565
Al11 Al2 2.704379 1_554
Al11 Al7 2.784135 1_555
Al11 Al8 2.784135 1_555
Al11 Mg15 2.857059 1_555
Al11 Mg10 2.993237 1_555
Al11 Mg11 2.993237 1_555
Al11 Mg2 3.164875 1_555
Al11 Mg1 3.164875 1_555
Al11 Mg3 3.165548 1_555
Al11 Mg0 3.165548 1_555
Al11 Y0 3.222267 1_555
