# generated using pymatgen
data_NaLaMgTeO6
_symmetry_space_group_name_H-M   'P 1'
_cell_length_a   5.59985700
_cell_length_b   5.62565000
_cell_length_c   7.94611012
_cell_angle_alpha   89.73635994
_cell_angle_beta   90.00000000
_cell_angle_gamma   90.00000000
_symmetry_Int_Tables_number   1
_chemical_formula_structural   NaLaMgTeO6
_chemical_formula_sum   'Na2 La2 Mg2 Te2 O12'
_cell_volume   250.32235021
_cell_formula_units_Z   2
loop_
 _symmetry_equiv_pos_site_id
 _symmetry_equiv_pos_as_xyz
  1  'x, y, z'
loop_
 _atom_site_type_symbol
 _atom_site_label
 _atom_site_symmetry_multiplicity
 _atom_site_fract_x
 _atom_site_fract_y
 _atom_site_fract_z
 _atom_site_occupancy
  Na  Na0  1  0.25000000  0.76539900  0.49917000  1
  Na  Na1  1  0.75000000  0.23460100  0.50083000  1
  La  La0  1  0.25000000  0.75456600  0.00182900  1
  La  La1  1  0.75000000  0.24543400  0.99817100  1
  Mg  Mg0  1  0.75000000  0.74813100  0.73140100  1
  Mg  Mg1  1  0.25000000  0.25186900  0.26859900  1
  Te  Te0  1  0.25000000  0.25560300  0.74415000  1
  Te  Te1  1  0.75000000  0.74439700  0.25585000  1
  O  O0  1  0.25000000  0.18761600  0.99354000  1
  O  O1  1  0.75000000  0.81238400  0.00646000  1
  O  O2  1  0.25000000  0.33519700  0.51380600  1
  O  O3  1  0.75000000  0.66480300  0.48619400  1
  O  O4  1  0.49607600  0.01677100  0.73237700  1
  O  O5  1  0.99607600  0.98322900  0.26762300  1
  O  O6  1  0.50392400  0.98322900  0.26762300  1
  O  O7  1  0.00392400  0.01677100  0.73237700  1
  O  O8  1  0.50879100  0.50406300  0.19679900  1
  O  O9  1  0.00879100  0.49593700  0.80320100  1
  O  O10  1  0.49120900  0.49593700  0.80320100  1
  O  O11  1  0.99120900  0.50406300  0.19679900  1
loop_
_geom_bond_atom_site_label_1
_geom_bond_atom_site_label_2
_geom_bond_distance
_geom_bond_site_symmetry_2
Na0 O2 2.422424 1_555
Na0 O6 2.624514 1_555
Na0 O5 2.624514 1_455
Na0 O7 2.712319 1_565
Na0 O4 2.712319 1_565
Na0 O3 2.858502 1_555
Na0 O3 2.858502 1_455
Na1 O3 2.422424 1_555
Na1 O4 2.624514 1_555
Na1 O7 2.624514 1_655
Na1 O5 2.712319 1_545
Na1 O6 2.712319 1_545
Na1 O2 2.858502 1_655
Na1 O2 2.858502 1_555
La0 O0 2.436775 1_564
La0 O9 2.540396 1_554
La0 O10 2.540396 1_554
La0 O11 2.542875 1_455
La0 O8 2.542875 1_555
La0 O1 2.819018 1_455
La0 O1 2.819018 1_555
La0 O5 2.856981 1_455
La0 O6 2.856981 1_555
La0 O7 2.937673 1_564
La0 O4 2.937673 1_564
La1 O1 2.436775 1_546
La1 O11 2.540396 1_556
La1 O8 2.540396 1_556
La1 O9 2.542875 1_655
La1 O10 2.542875 1_555
La1 O0 2.819018 1_655
La1 O0 2.819018 1_555
La1 O7 2.856981 1_655
La1 O4 2.856981 1_555
La1 O6 2.937673 1_546
La1 O5 2.937673 1_546
Mg0 O3 2.006136 1_555
Mg0 O4 2.075097 1_565
Mg0 O7 2.075097 1_665
Mg0 O10 2.105013 1_555
Mg0 O9 2.105013 1_655
Mg0 O1 2.216978 1_556
Mg1 O2 2.006136 1_555
Mg1 O6 2.075097 1_545
Mg1 O5 2.075097 1_445
Mg1 O11 2.105013 1_455
Mg1 O8 2.105013 1_555
Mg1 O0 2.216978 1_554
O0 Te0 2.016523 1_555
O1 Te1 2.016523 1_555
O2 Te0 1.882311 1_555
O3 Te1 1.882311 1_555
O4 Te0 1.927171 1_555
O5 Te1 1.927171 1_555
O6 Te1 1.927171 1_555
O7 Te0 1.927171 1_555
O8 Te1 1.969390 1_555
O9 Te0 1.969390 1_555
O10 Te0 1.969390 1_555
O11 Te1 1.969390 1_555
