# generated using pymatgen
data_MgCd
_symmetry_space_group_name_H-M   'P 1'
_cell_length_a   6.48522910
_cell_length_b   16.14999912
_cell_length_c   9.84528846
_cell_angle_alpha   90.00000000
_cell_angle_beta   90.00000000
_cell_angle_gamma   78.41736453
_symmetry_Int_Tables_number   1
_chemical_formula_structural   MgCd
_chemical_formula_sum   'Mg24 Cd24'
_cell_volume   1010.16210299
_cell_formula_units_Z   24
loop_
 _symmetry_equiv_pos_site_id
 _symmetry_equiv_pos_as_xyz
  1  'x, y, z'
loop_
 _atom_site_type_symbol
 _atom_site_label
 _atom_site_symmetry_multiplicity
 _atom_site_fract_x
 _atom_site_fract_y
 _atom_site_fract_z
 _atom_site_occupancy
  Mg  Mg0_0  1  0.49715804  0.00568492  0.00000000  1
  Mg  Mg0_1  1  0.49715804  0.00568492  0.50000000  1
  Mg  Mg0_2  1  0.49715804  0.50568492  0.00000000  1
  Mg  Mg0_3  1  0.49715804  0.50568492  0.50000000  1
  Mg  Mg0_4  1  0.99715804  0.00568492  0.00000000  1
  Mg  Mg0_5  1  0.99715804  0.00568492  0.50000000  1
  Mg  Mg0_6  1  0.99715804  0.50568492  0.00000000  1
  Mg  Mg0_7  1  0.99715804  0.50568492  0.50000000  1
  Mg  Mg1_0  1  0.33276563  0.33447024  0.00000000  1
  Mg  Mg1_1  1  0.33276563  0.33447024  0.50000000  1
  Mg  Mg1_2  1  0.33276563  0.83447023  0.00000000  1
  Mg  Mg1_3  1  0.33276563  0.83447023  0.50000000  1
  Mg  Mg1_4  1  0.83276563  0.33447024  0.00000000  1
  Mg  Mg1_5  1  0.83276563  0.33447024  0.50000000  1
  Mg  Mg1_6  1  0.83276563  0.83447023  0.00000000  1
  Mg  Mg1_7  1  0.83276563  0.83447023  0.50000000  1
  Mg  Mg2_0  1  0.39123624  0.21752853  0.25000000  1
  Mg  Mg2_1  1  0.39123624  0.21752853  0.75000000  1
  Mg  Mg2_2  1  0.39123624  0.71752852  0.25000000  1
  Mg  Mg2_3  1  0.39123624  0.71752852  0.75000000  1
  Mg  Mg2_4  1  0.89123624  0.21752853  0.25000000  1
  Mg  Mg2_5  1  0.89123624  0.21752853  0.75000000  1
  Mg  Mg2_6  1  0.89123624  0.71752852  0.25000000  1
  Mg  Mg2_7  1  0.89123624  0.71752852  0.75000000  1
  Cd  Cd0_0  1  0.16543436  0.16913180  0.00000000  1
  Cd  Cd0_1  1  0.16543436  0.16913180  0.50000000  1
  Cd  Cd0_2  1  0.16543436  0.66913179  0.00000000  1
  Cd  Cd0_3  1  0.16543436  0.66913179  0.50000000  1
  Cd  Cd0_4  1  0.66543436  0.16913180  0.00000000  1
  Cd  Cd0_5  1  0.66543436  0.16913180  0.50000000  1
  Cd  Cd0_6  1  0.66543436  0.66913179  0.00000000  1
  Cd  Cd0_7  1  0.66543436  0.66913179  0.50000000  1
  Cd  Cd1_0  1  0.22333491  0.05333020  0.25000000  1
  Cd  Cd1_1  1  0.22333491  0.05333020  0.75000000  1
  Cd  Cd1_2  1  0.22333491  0.55333020  0.25000000  1
  Cd  Cd1_3  1  0.22333491  0.55333020  0.75000000  1
  Cd  Cd1_4  1  0.72333490  0.05333020  0.25000000  1
  Cd  Cd1_5  1  0.72333490  0.05333020  0.75000000  1
  Cd  Cd1_6  1  0.72333491  0.55333020  0.25000000  1
  Cd  Cd1_7  1  0.72333491  0.55333020  0.75000000  1
  Cd  Cd2_0  1  0.05673984  0.38652083  0.25000000  1
  Cd  Cd2_1  1  0.05673984  0.38652083  0.75000000  1
  Cd  Cd2_2  1  0.05673983  0.88652083  0.25000000  1
  Cd  Cd2_3  1  0.05673983  0.88652083  0.75000000  1
  Cd  Cd2_4  1  0.55673984  0.38652083  0.25000000  1
  Cd  Cd2_5  1  0.55673984  0.38652083  0.75000000  1
  Cd  Cd2_6  1  0.55673984  0.88652083  0.25000000  1
  Cd  Cd2_7  1  0.55673984  0.88652083  0.75000000  1
loop_
_geom_bond_atom_site_label_1
_geom_bond_atom_site_label_2
_geom_bond_distance
_geom_bond_site_symmetry_2
Mg0_0 Mg1_2 3.156941 1_545
Mg0_0 Mg1_6 3.156943 1_545
Mg0_1 Mg1_3 3.156941 1_545
Mg0_1 Mg1_7 3.156943 1_545
Mg0_2 Mg1_0 3.156941 1_555
Mg0_2 Mg1_4 3.156943 1_555
Mg0_3 Mg1_1 3.156941 1_555
Mg0_3 Mg1_5 3.156943 1_555
Mg0_4 Mg1_6 3.156941 1_545
Mg0_4 Mg1_2 3.156943 1_645
Mg0_5 Mg1_7 3.156941 1_545
Mg0_5 Mg1_3 3.156943 1_645
Mg0_6 Mg1_4 3.156941 1_555
Mg0_6 Mg1_0 3.156943 1_655
Mg0_7 Mg1_5 3.156941 1_555
Mg0_7 Mg1_1 3.156943 1_655
Mg1_0 Mg2_1 3.079149 1_554
Mg1_0 Mg2_0 3.079149 1_555
Mg1_0 Mg1_4 3.242615 1_455
Mg1_0 Mg1_4 3.242615 1_555
Mg1_1 Mg2_0 3.079149 1_555
Mg1_1 Mg2_1 3.079149 1_555
Mg1_1 Mg1_5 3.242615 1_455
Mg1_1 Mg1_5 3.242615 1_555
Mg1_2 Mg2_3 3.079149 1_554
Mg1_2 Mg2_2 3.079149 1_555
Mg1_2 Mg1_6 3.242615 1_555
Mg1_2 Mg1_6 3.242615 1_455
Mg1_3 Mg2_2 3.079149 1_555
Mg1_3 Mg2_3 3.079149 1_555
Mg1_3 Mg1_7 3.242615 1_555
Mg1_3 Mg1_7 3.242615 1_455
Mg1_4 Mg2_5 3.079149 1_554
Mg1_4 Mg2_4 3.079149 1_555
Mg1_5 Mg2_4 3.079149 1_555
Mg1_5 Mg2_5 3.079149 1_555
Mg1_6 Mg2_7 3.079149 1_554
Mg1_6 Mg2_6 3.079149 1_555
Mg1_7 Mg2_6 3.079149 1_555
Mg1_7 Mg2_7 3.079149 1_555
Mg2_0 Mg2_4 3.242615 1_455
Mg2_0 Mg2_4 3.242615 1_555
Mg2_1 Mg2_5 3.242615 1_455
Mg2_1 Mg2_5 3.242615 1_555
Mg2_2 Mg2_6 3.242615 1_455
Mg2_2 Mg2_6 3.242615 1_555
Mg2_3 Mg2_7 3.242615 1_455
Mg2_3 Mg2_7 3.242615 1_555
Cd0_0 Mg2_5 3.045164 1_454
Cd0_0 Mg2_4 3.045164 1_455
Cd0_0 Mg2_1 3.045165 1_554
Cd0_0 Mg2_0 3.045165 1_555
Cd0_0 Mg0_4 3.052143 1_455
Cd0_0 Mg0_0 3.052145 1_555
Cd0_0 Mg1_4 3.077539 1_455
Cd0_0 Mg1_0 3.077542 1_555
Cd0_1 Mg2_4 3.045164 1_455
Cd0_1 Mg2_5 3.045164 1_455
Cd0_1 Mg2_0 3.045165 1_555
Cd0_1 Mg2_1 3.045165 1_555
Cd0_1 Mg0_5 3.052143 1_455
Cd0_1 Mg0_1 3.052145 1_555
Cd0_1 Mg1_5 3.077539 1_455
Cd0_1 Mg1_1 3.077542 1_555
Cd0_2 Mg2_7 3.045164 1_454
Cd0_2 Mg2_6 3.045164 1_455
Cd0_2 Mg2_3 3.045165 1_554
Cd0_2 Mg2_2 3.045165 1_555
Cd0_2 Mg0_6 3.052143 1_455
Cd0_2 Mg0_2 3.052145 1_555
Cd0_2 Mg1_6 3.077539 1_455
Cd0_2 Mg1_2 3.077542 1_555
Cd0_3 Mg2_6 3.045164 1_455
Cd0_3 Mg2_7 3.045164 1_455
Cd0_3 Mg2_2 3.045165 1_555
Cd0_3 Mg2_3 3.045165 1_555
Cd0_3 Mg0_7 3.052143 1_455
Cd0_3 Mg0_3 3.052145 1_555
Cd0_3 Mg1_7 3.077539 1_455
Cd0_3 Mg1_3 3.077542 1_555
Cd0_4 Mg2_1 3.045164 1_554
Cd0_4 Mg2_0 3.045164 1_555
Cd0_4 Mg2_5 3.045165 1_554
Cd0_4 Mg2_4 3.045165 1_555
Cd0_4 Mg0_0 3.052143 1_555
Cd0_4 Mg0_4 3.052145 1_555
Cd0_4 Mg1_0 3.077539 1_555
Cd0_4 Mg1_4 3.077542 1_555
Cd0_5 Mg2_0 3.045164 1_555
Cd0_5 Mg2_1 3.045164 1_555
Cd0_5 Mg2_4 3.045165 1_555
Cd0_5 Mg2_5 3.045165 1_555
Cd0_5 Mg0_1 3.052143 1_555
Cd0_5 Mg0_5 3.052145 1_555
Cd0_5 Mg1_1 3.077539 1_555
Cd0_5 Mg1_5 3.077542 1_555
Cd0_6 Mg2_3 3.045164 1_554
Cd0_6 Mg2_2 3.045164 1_555
Cd0_6 Mg2_7 3.045165 1_554
Cd0_6 Mg2_6 3.045165 1_555
Cd0_6 Mg0_2 3.052143 1_555
Cd0_6 Mg0_6 3.052145 1_555
Cd0_6 Mg1_2 3.077539 1_555
Cd0_6 Mg1_6 3.077542 1_555
Cd0_7 Mg2_2 3.045164 1_555
Cd0_7 Mg2_3 3.045164 1_555
Cd0_7 Mg2_6 3.045165 1_555
Cd0_7 Mg2_7 3.045165 1_555
Cd0_7 Mg0_3 3.052143 1_555
Cd0_7 Mg0_7 3.052145 1_555
Cd0_7 Mg1_3 3.077539 1_555
Cd0_7 Mg1_7 3.077542 1_555
Cd1_0 Mg0_5 3.042195 1_455
Cd1_0 Mg0_4 3.042195 1_455
Cd1_0 Mg0_0 3.042198 1_555
Cd1_0 Mg0_1 3.042198 1_555
Cd1_0 Mg2_4 3.062222 1_455
Cd1_0 Mg2_0 3.062225 1_555
Cd1_0 Cd2_2 3.097344 1_545
Cd1_0 Cd2_6 3.097346 1_545
Cd1_1 Mg0_4 3.042195 1_456
Cd1_1 Mg0_5 3.042195 1_455
Cd1_1 Mg0_0 3.042198 1_556
Cd1_1 Mg0_1 3.042198 1_555
Cd1_1 Mg2_5 3.062222 1_455
Cd1_1 Mg2_1 3.062225 1_555
Cd1_1 Cd2_3 3.097344 1_545
Cd1_1 Cd2_7 3.097346 1_545
Cd1_2 Mg0_6 3.042195 1_455
Cd1_2 Mg0_7 3.042195 1_455
Cd1_2 Mg0_3 3.042198 1_555
Cd1_2 Mg0_2 3.042198 1_555
Cd1_2 Mg2_6 3.062222 1_455
Cd1_2 Mg2_2 3.062225 1_555
Cd1_2 Cd2_0 3.097344 1_555
Cd1_2 Cd2_4 3.097346 1_555
Cd1_3 Mg0_6 3.042195 1_456
Cd1_3 Mg0_7 3.042195 1_455
Cd1_3 Mg0_2 3.042198 1_556
Cd1_3 Mg0_3 3.042198 1_555
Cd1_3 Mg2_7 3.062222 1_455
Cd1_3 Mg2_3 3.062225 1_555
Cd1_3 Cd2_1 3.097344 1_555
Cd1_3 Cd2_5 3.097346 1_555
Cd1_4 Mg0_0 3.042195 1_555
Cd1_4 Mg0_1 3.042195 1_555
Cd1_4 Mg0_4 3.042198 1_555
Cd1_4 Mg0_5 3.042198 1_555
Cd1_4 Mg2_0 3.062222 1_555
Cd1_4 Mg2_4 3.062225 1_555
Cd1_4 Cd2_6 3.097344 1_545
Cd1_4 Cd2_2 3.097346 1_645
Cd1_5 Mg0_0 3.042195 1_556
Cd1_5 Mg0_1 3.042195 1_555
Cd1_5 Mg0_4 3.042198 1_556
Cd1_5 Mg0_5 3.042198 1_555
Cd1_5 Mg2_1 3.062222 1_555
Cd1_5 Mg2_5 3.062225 1_555
Cd1_5 Cd2_7 3.097344 1_545
Cd1_5 Cd2_3 3.097346 1_645
Cd1_6 Mg0_2 3.042195 1_555
Cd1_6 Mg0_3 3.042195 1_555
Cd1_6 Mg0_7 3.042198 1_555
Cd1_6 Mg0_6 3.042198 1_555
Cd1_6 Mg2_2 3.062222 1_555
Cd1_6 Mg2_6 3.062225 1_555
Cd1_6 Cd2_4 3.097344 1_555
Cd1_6 Cd2_0 3.097346 1_655
Cd1_7 Mg0_2 3.042195 1_556
Cd1_7 Mg0_3 3.042195 1_555
Cd1_7 Mg0_6 3.042198 1_556
Cd1_7 Mg0_7 3.042198 1_555
Cd1_7 Mg2_3 3.062222 1_555
Cd1_7 Mg2_7 3.062225 1_555
Cd1_7 Cd2_5 3.097344 1_555
Cd1_7 Cd2_1 3.097346 1_655
Cd2_0 Mg1_4 3.060210 1_455
Cd2_0 Mg1_5 3.060210 1_455
Cd2_0 Mg1_0 3.060213 1_555
Cd2_0 Mg1_1 3.060213 1_555
Cd2_0 Mg0_6 3.100403 1_455
Cd2_0 Mg0_7 3.100403 1_455
Cd2_0 Mg2_4 3.126823 1_455
Cd2_0 Mg2_0 3.126825 1_555
Cd2_0 Cd2_4 3.242615 1_455
Cd2_0 Cd2_4 3.242615 1_555
Cd2_1 Mg1_4 3.060210 1_456
Cd2_1 Mg1_5 3.060210 1_455
Cd2_1 Mg1_0 3.060213 1_556
Cd2_1 Mg1_1 3.060213 1_555
Cd2_1 Mg0_6 3.100403 1_456
Cd2_1 Mg0_7 3.100403 1_455
Cd2_1 Mg2_5 3.126823 1_455
Cd2_1 Mg2_1 3.126825 1_555
Cd2_1 Cd2_5 3.242615 1_455
Cd2_1 Cd2_5 3.242615 1_555
Cd2_2 Mg1_6 3.060210 1_455
Cd2_2 Mg1_7 3.060210 1_455
Cd2_2 Mg1_2 3.060213 1_555
Cd2_2 Mg1_3 3.060213 1_555
Cd2_2 Mg0_4 3.100403 1_465
Cd2_2 Mg0_5 3.100403 1_465
Cd2_2 Mg2_6 3.126823 1_455
Cd2_2 Mg2_2 3.126825 1_555
Cd2_2 Cd2_6 3.242615 1_455
Cd2_2 Cd2_6 3.242615 1_555
Cd2_3 Mg1_6 3.060210 1_456
Cd2_3 Mg1_7 3.060210 1_455
Cd2_3 Mg1_2 3.060213 1_556
Cd2_3 Mg1_3 3.060213 1_555
Cd2_3 Mg0_4 3.100403 1_466
Cd2_3 Mg0_5 3.100403 1_465
Cd2_3 Mg2_7 3.126823 1_455
Cd2_3 Mg2_3 3.126825 1_555
Cd2_3 Cd2_7 3.242615 1_455
Cd2_3 Cd2_7 3.242615 1_555
Cd2_4 Mg1_1 3.060210 1_555
Cd2_4 Mg1_0 3.060210 1_555
Cd2_4 Mg1_5 3.060213 1_555
Cd2_4 Mg1_4 3.060213 1_555
Cd2_4 Mg0_3 3.100403 1_555
Cd2_4 Mg0_2 3.100403 1_555
Cd2_4 Mg2_0 3.126823 1_555
Cd2_4 Mg2_4 3.126825 1_555
Cd2_5 Mg1_0 3.060210 1_556
Cd2_5 Mg1_1 3.060210 1_555
Cd2_5 Mg1_4 3.060213 1_556
Cd2_5 Mg1_5 3.060213 1_555
Cd2_5 Mg0_2 3.100403 1_556
Cd2_5 Mg0_3 3.100403 1_555
Cd2_5 Mg2_1 3.126823 1_555
Cd2_5 Mg2_5 3.126825 1_555
Cd2_6 Mg1_3 3.060210 1_555
Cd2_6 Mg1_2 3.060210 1_555
Cd2_6 Mg1_6 3.060213 1_555
Cd2_6 Mg1_7 3.060213 1_555
Cd2_6 Mg0_1 3.100403 1_565
Cd2_6 Mg0_0 3.100403 1_565
Cd2_6 Mg2_2 3.126823 1_555
Cd2_6 Mg2_6 3.126825 1_555
Cd2_7 Mg1_2 3.060210 1_556
Cd2_7 Mg1_3 3.060210 1_555
Cd2_7 Mg1_6 3.060213 1_556
Cd2_7 Mg1_7 3.060213 1_555
Cd2_7 Mg0_0 3.100403 1_566
Cd2_7 Mg0_1 3.100403 1_565
Cd2_7 Mg2_3 3.126823 1_555
Cd2_7 Mg2_7 3.126825 1_555
