# generated using pymatgen
data_V2ReTc
_symmetry_space_group_name_H-M   'P 1'
_cell_length_a   4.26920337
_cell_length_b   4.26920337
_cell_length_c   4.26920337
_cell_angle_alpha   60.00000000
_cell_angle_beta   60.00000000
_cell_angle_gamma   60.00000000
_symmetry_Int_Tables_number   1
_chemical_formula_structural   V2ReTc
_chemical_formula_sum   'V2 Re1 Tc1'
_cell_volume   55.02062654
_cell_formula_units_Z   1
loop_
 _symmetry_equiv_pos_site_id
 _symmetry_equiv_pos_as_xyz
  1  'x, y, z'
loop_
 _atom_site_type_symbol
 _atom_site_label
 _atom_site_symmetry_multiplicity
 _atom_site_fract_x
 _atom_site_fract_y
 _atom_site_fract_z
 _atom_site_occupancy
  V  V0  1  -0.00000000  -0.00000000  0.00000000  1
  V  V1  1  0.50000000  0.50000000  0.50000000  1
  Re  Re0  1  0.25000100  0.25000100  0.25000100  1
  Tc  Tc0  1  0.75000000  0.75000000  0.75000000  1
loop_
_geom_bond_atom_site_label_1
_geom_bond_atom_site_label_2
_geom_bond_distance
_geom_bond_site_symmetry_2
Re0 V1 2.614332 1_555
Re0 V0 2.614339 1_655
Re0 V0 2.614339 1_565
Re0 V0 2.614339 1_556
Re0 V1 2.614346 1_554
Re0 V1 2.614346 1_545
Re0 V1 2.614346 1_455
Re0 V0 2.614353 1_555
Tc0 V0 2.614342 1_566
Tc0 V0 2.614342 1_665
Tc0 V1 2.614342 1_565
Tc0 V1 2.614342 1_655
Tc0 V0 2.614342 1_666
Tc0 V1 2.614342 1_555
Tc0 V1 2.614342 1_556
Tc0 V0 2.614342 1_656
