# generated using pymatgen
data_NdDy3
_symmetry_space_group_name_H-M   'P 1'
_cell_length_a   7.29185185
_cell_length_b   7.29185469
_cell_length_c   5.82853347
_cell_angle_alpha   90.00000000
_cell_angle_beta   90.00000000
_cell_angle_gamma   120.00000732
_symmetry_Int_Tables_number   1
_chemical_formula_structural   NdDy3
_chemical_formula_sum   'Nd2 Dy6'
_cell_volume   268.38963289
_cell_formula_units_Z   2
loop_
 _symmetry_equiv_pos_site_id
 _symmetry_equiv_pos_as_xyz
  1  'x, y, z'
loop_
 _atom_site_type_symbol
 _atom_site_label
 _atom_site_symmetry_multiplicity
 _atom_site_fract_x
 _atom_site_fract_y
 _atom_site_fract_z
 _atom_site_occupancy
  Nd  Nd0  1  0.66666064  0.33333153  0.25000000  1
  Nd  Nd1  1  0.33332718  0.66666645  0.75000000  1
  Dy  Dy0  1  0.83536132  0.16464441  0.75000000  1
  Dy  Dy1  1  0.32928128  0.16463953  0.75000000  1
  Dy  Dy2  1  0.83536277  0.67071691  0.75000000  1
  Dy  Dy3  1  0.16463365  0.83537299  0.25000000  1
  Dy  Dy4  1  0.67073716  0.83536689  0.25000000  1
  Dy  Dy5  1  0.16463601  0.32926230  0.25000000  1
loop_
_geom_bond_atom_site_label_1
_geom_bond_atom_site_label_2
_geom_bond_distance
_geom_bond_site_symmetry_2
Dy0 Dy5 3.580032 1_656
Dy0 Dy5 3.580032 1_655
Dy0 Dy4 3.580043 1_545
Dy0 Dy4 3.580043 1_546
Dy0 Dy1 3.601609 1_655
Dy0 Dy2 3.601653 1_545
Dy0 Nd0 3.610031 1_555
Dy0 Nd0 3.610031 1_556
Dy0 Nd1 3.645972 1_655
Dy0 Nd1 3.646060 1_545
Dy0 Dy2 3.690202 1_555
Dy0 Dy1 3.690243 1_555
Dy1 Dy3 3.580003 1_546
Dy1 Dy3 3.580003 1_545
Dy1 Dy5 3.580008 1_555
Dy1 Dy5 3.580008 1_556
Dy1 Dy2 3.601596 1_445
Dy1 Nd0 3.609999 1_555
Dy1 Nd0 3.609999 1_556
Dy1 Nd1 3.645988 1_545
Dy1 Nd1 3.646046 1_555
Dy1 Dy2 3.690257 1_555
Dy2 Dy3 3.580018 1_656
Dy2 Dy3 3.580018 1_655
Dy2 Dy4 3.580036 1_555
Dy2 Dy4 3.580036 1_556
Dy2 Nd0 3.610022 1_555
Dy2 Nd0 3.610022 1_556
Dy2 Nd1 3.645940 1_655
Dy2 Nd1 3.646091 1_555
Dy3 Dy5 3.601360 1_565
Dy3 Dy4 3.601398 1_455
Dy3 Nd1 3.610077 1_555
Dy3 Nd1 3.610077 1_554
Dy3 Nd0 3.645964 1_565
Dy3 Nd0 3.646070 1_455
Dy3 Dy4 3.690454 1_555
Dy3 Dy5 3.690494 1_555
Dy4 Dy5 3.601425 1_665
Dy4 Nd1 3.610113 1_554
Dy4 Nd1 3.610113 1_555
Dy4 Nd0 3.645997 1_555
Dy4 Nd0 3.646039 1_565
Dy4 Dy5 3.690427 1_555
Dy5 Nd1 3.610092 1_555
Dy5 Nd1 3.610092 1_554
Dy5 Nd0 3.645944 1_555
Dy5 Nd0 3.646089 1_455
