# generated using pymatgen
data_TcAs3
_symmetry_space_group_name_H-M   'P 1'
_cell_length_a   4.62946705
_cell_length_b   4.62946705
_cell_length_c   4.62946705
_cell_angle_alpha   123.24435981
_cell_angle_beta   123.24435981
_cell_angle_gamma   84.46684100
_symmetry_Int_Tables_number   1
_chemical_formula_structural   TcAs3
_chemical_formula_sum   'Tc1 As3'
_cell_volume   66.37928470
_cell_formula_units_Z   1
loop_
 _symmetry_equiv_pos_site_id
 _symmetry_equiv_pos_as_xyz
  1  'x, y, z'
loop_
 _atom_site_type_symbol
 _atom_site_label
 _atom_site_symmetry_multiplicity
 _atom_site_fract_x
 _atom_site_fract_y
 _atom_site_fract_z
 _atom_site_occupancy
  Tc  Tc0  1  0.00000000  0.00000000  0.00000000  1
  As  As0  1  0.75000000  0.25000000  0.50000000  1
  As  As1  1  0.25000000  0.75000000  0.50000000  1
  As  As2  1  0.50000000  0.50000000  0.00000000  1
loop_
_geom_bond_atom_site_label_1
_geom_bond_atom_site_label_2
_geom_bond_distance
_geom_bond_site_symmetry_2
As0 Tc0 2.789027 1_555
As0 Tc0 2.789027 1_655
As0 Tc0 2.789027 1_656
As0 Tc0 2.789027 1_666
As0 As2 2.789027 1_555
As0 As2 2.789027 1_545
As0 As2 2.789027 1_556
As0 As2 2.789027 1_656
As1 Tc0 2.789027 1_555
As1 Tc0 2.789027 1_566
As1 Tc0 2.789027 1_565
As1 As2 2.789027 1_566
As1 Tc0 2.789027 1_666
As1 As2 2.789027 1_455
As1 As2 2.789027 1_555
As1 As2 2.789027 1_556
As2 Tc0 3.111708 1_565
As2 Tc0 3.111708 1_655
As2 Tc0 3.111708 1_666
As2 Tc0 3.111708 1_554
