# generated using pymatgen
data_Tb2Co12P7
_symmetry_space_group_name_H-M   'P 1'
_cell_length_a   8.93124035
_cell_length_b   8.93098261
_cell_length_c   3.59359542
_cell_angle_alpha   90.00004956
_cell_angle_beta   89.99994254
_cell_angle_gamma   120.00120335
_symmetry_Int_Tables_number   1
_chemical_formula_structural   Tb2Co12P7
_chemical_formula_sum   'Tb2 Co12 P7'
_cell_volume   248.23645890
_cell_formula_units_Z   1
loop_
 _symmetry_equiv_pos_site_id
 _symmetry_equiv_pos_as_xyz
  1  'x, y, z'
loop_
 _atom_site_type_symbol
 _atom_site_label
 _atom_site_symmetry_multiplicity
 _atom_site_fract_x
 _atom_site_fract_y
 _atom_site_fract_z
 _atom_site_occupancy
  Tb  Tb0  1  0.00000427  -0.00001827  0.00000032  1
  Tb  Tb1  1  0.33329765  0.66661116  0.50000056  1
  Co  Co0  1  0.09849013  0.39245664  -0.00000001  1
  Co  Co1  1  0.60754617  0.70595628  -0.00000468  1
  Co  Co2  1  0.29396297  0.90153654  0.00000012  1
  Co  Co3  1  0.04830975  0.76556253  0.50000015  1
  Co  Co4  1  0.23441005  0.28271885  0.50000027  1
  Co  Co5  1  0.71729903  0.95172144  0.50000037  1
  Co  Co6  1  0.81967084  0.60582433  0.00000036  1
  Co  Co7  1  0.39415255  0.21382468  0.00000009  1
  Co  Co8  1  0.78618389  0.18040538  0.00000007  1
  Co  Co9  1  0.89223592  0.43220267  0.50000008  1
  Co  Co10  1  0.56778470  0.45994690  0.50000030  1
  Co  Co11  1  0.53997078  0.10786092  0.50000013  1
  P  P0  1  0.77677583  0.73587396  0.50000059  1
  P  P1  1  0.26410432  0.04090112  0.50000010  1
  P  P2  1  0.95912081  0.22320837  0.50000000  1
  P  P3  1  0.66664790  0.33333559  0.00000006  1
  P  P4  1  0.07445547  0.63032962  0.00000026  1
  P  P5  1  0.36968677  0.44412981  0.00000042  1
  P  P6  1  0.55588919  0.92561149  0.00000045  1
loop_
_geom_bond_atom_site_label_1
_geom_bond_atom_site_label_2
_geom_bond_distance
_geom_bond_site_symmetry_2
Co0 P5 2.227514 1_555
Co0 P4 2.239502 1_555
Co0 P2 2.276202 1_454
Co0 P2 2.276202 1_455
Co0 Tb1 2.913155 1_554
Co0 Tb1 2.913158 1_555
Co0 Tb0 3.158600 1_555
Co1 P6 2.228535 1_555
Co1 P5 2.239016 1_555
Co1 P0 2.276041 1_554
Co1 P0 2.276073 1_555
Co1 Tb1 2.913870 1_554
Co1 Tb1 2.913890 1_555
Co1 Tb0 3.158628 1_665
Co2 P4 2.227447 1_555
Co2 P6 2.239570 1_555
Co2 P1 2.276117 1_565
Co2 P1 2.276119 1_564
Co2 Tb1 2.913946 1_554
Co2 Tb1 2.913950 1_555
Co2 Tb0 3.158196 1_565
Co3 P1 2.240963 1_565
Co3 P4 2.241369 1_555
Co3 P4 2.241372 1_556
Co3 P0 2.304027 1_455
Co3 Tb0 2.949747 1_566
Co3 Tb0 2.949749 1_565
Co4 P2 2.240705 1_455
Co4 P5 2.241552 1_555
Co4 P5 2.241552 1_556
Co4 P1 2.303755 1_555
Co4 Tb0 2.949743 1_555
Co4 Tb0 2.949743 1_556
Co5 P0 2.241064 1_555
Co5 P6 2.241621 1_556
Co5 P6 2.241622 1_555
Co5 P2 2.303615 1_565
Co5 Tb0 2.949763 1_665
Co5 Tb0 2.949766 1_666
Co6 P3 2.112847 1_555
Co6 P4 2.174387 1_655
Co6 P0 2.273598 1_555
Co6 P0 2.273599 1_554
Co6 Tb0 3.052224 1_665
Co7 P3 2.112939 1_555
Co7 P5 2.174360 1_555
Co7 P1 2.273499 1_554
Co7 P1 2.273500 1_555
Co7 Tb0 3.052245 1_555
Co8 P3 2.112686 1_555
Co8 P6 2.174417 1_545
Co8 P2 2.273711 1_554
Co8 P2 2.273712 1_555
Co8 Tb0 3.052976 1_655
Co9 P2 2.226162 1_555
Co9 P4 2.475532 1_655
Co9 P4 2.475533 1_656
Co9 P3 2.507668 1_556
Co9 P3 2.507669 1_555
Co10 P0 2.226404 1_555
Co10 P5 2.475636 1_556
Co10 P5 2.475638 1_555
Co10 P3 2.507032 1_555
Co10 P3 2.507033 1_556
Co11 P1 2.225897 1_555
Co11 P6 2.475762 1_545
Co11 P6 2.475766 1_546
Co11 P3 2.507025 1_556
Co11 P3 2.507026 1_555
P0 Tb0 2.839753 1_666
P0 Tb0 2.839754 1_665
P1 Tb0 2.839658 1_556
P1 Tb0 2.839659 1_555
P2 Tb0 2.839780 1_655
P2 Tb0 2.839785 1_656
P4 Tb1 2.815793 1_554
P4 Tb1 2.815796 1_555
P5 Tb1 2.815665 1_555
P5 Tb1 2.815667 1_554
P6 Tb1 2.816478 1_554
P6 Tb1 2.816479 1_555
