# generated using pymatgen
data_PrGe5
_symmetry_space_group_name_H-M   'P 1'
_cell_length_a   4.03005600
_cell_length_b   6.22652971
_cell_length_c   6.22652971
_cell_angle_alpha   60.62905017
_cell_angle_beta   71.11802597
_cell_angle_gamma   71.11802597
_symmetry_Int_Tables_number   1
_chemical_formula_structural   PrGe5
_chemical_formula_sum   'Pr1 Ge5'
_cell_volume   126.23113831
_cell_formula_units_Z   1
loop_
 _symmetry_equiv_pos_site_id
 _symmetry_equiv_pos_as_xyz
  1  'x, y, z'
loop_
 _atom_site_type_symbol
 _atom_site_label
 _atom_site_symmetry_multiplicity
 _atom_site_fract_x
 _atom_site_fract_y
 _atom_site_fract_z
 _atom_site_occupancy
  Pr  Pr0  1  0.00000000  0.00000000  0.00000000  1
  Ge  Ge0  1  0.67029800  0.53365300  0.12575200  1
  Ge  Ge1  1  0.67029700  0.12575200  0.53365400  1
  Ge  Ge2  1  0.32970200  0.46634700  0.87424800  1
  Ge  Ge3  1  0.32970300  0.87424800  0.46634600  1
  Ge  Ge4  1  0.00000000  0.50000000  0.50000000  1
loop_
_geom_bond_atom_site_label_1
_geom_bond_atom_site_label_2
_geom_bond_distance
_geom_bond_site_symmetry_2
Ge0 Ge1 2.563921 1_555
Ge0 Ge2 2.630470 1_654
Ge0 Ge2 2.630476 1_554
Ge0 Ge4 2.929912 1_655
Ge0 Ge4 2.929915 1_555
Ge0 Pr0 3.225487 1_665
Ge0 Pr0 3.225490 1_565
Ge0 Pr0 3.527145 1_655
Ge1 Ge3 2.630477 1_545
Ge1 Ge3 2.630477 1_645
Ge1 Ge4 2.929912 1_555
Ge1 Ge4 2.929912 1_655
Ge1 Pr0 3.225484 1_656
Ge1 Pr0 3.225484 1_556
Ge1 Pr0 3.527151 1_655
Ge2 Ge3 2.563921 1_555
Ge2 Ge4 2.929912 1_555
Ge2 Ge4 2.929915 1_655
Ge2 Pr0 3.225487 1_556
Ge2 Pr0 3.225490 1_656
Ge2 Pr0 3.527145 1_566
Ge3 Ge4 2.929912 1_555
Ge3 Ge4 2.929912 1_655
Ge3 Pr0 3.225484 1_665
Ge3 Pr0 3.225484 1_565
Ge3 Pr0 3.527151 1_566
Ge4 Pr0 3.142819 1_565
Ge4 Pr0 3.142819 1_556
