# generated using pymatgen
data_LaPt2
_symmetry_space_group_name_H-M   'P 1'
_cell_length_a   5.53241176
_cell_length_b   5.53241169
_cell_length_c   5.53241225
_cell_angle_alpha   60.00000285
_cell_angle_beta   60.00000331
_cell_angle_gamma   60.00001241
_symmetry_Int_Tables_number   1
_chemical_formula_structural   LaPt2
_chemical_formula_sum   'La2 Pt4'
_cell_volume   119.73705806
_cell_formula_units_Z   2
loop_
 _symmetry_equiv_pos_site_id
 _symmetry_equiv_pos_as_xyz
  1  'x, y, z'
loop_
 _atom_site_type_symbol
 _atom_site_label
 _atom_site_symmetry_multiplicity
 _atom_site_fract_x
 _atom_site_fract_y
 _atom_site_fract_z
 _atom_site_occupancy
  La  La0  1  0.87500000  0.87500000  0.87500000  1
  La  La1  1  0.12500000  0.12500000  0.12500000  1
  Pt  Pt0  1  0.50000000  0.50000000  0.50000000  1
  Pt  Pt1  1  0.50000000  0.50000000  0.00000000  1
  Pt  Pt2  1  0.00000000  0.50000000  0.50000000  1
  Pt  Pt3  1  0.50000000  0.00000000  0.50000000  1
loop_
_geom_bond_atom_site_label_1
_geom_bond_atom_site_label_2
_geom_bond_distance
_geom_bond_site_symmetry_2
La0 Pt1 3.243664 1_556
La0 Pt2 3.243664 1_665
La0 Pt3 3.243664 1_665
La0 Pt0 3.243664 1_556
La0 Pt2 3.243664 1_655
La0 Pt3 3.243664 1_565
La0 Pt1 3.243664 1_566
La0 Pt2 3.243664 1_656
La0 Pt3 3.243664 1_566
La0 Pt1 3.243664 1_656
La0 Pt0 3.243664 1_565
La0 Pt0 3.243664 1_655
La1 Pt1 3.243664 1_555
La1 Pt2 3.243664 1_545
La1 Pt3 3.243664 1_455
La1 Pt0 3.243664 1_554
La1 Pt2 3.243664 1_555
La1 Pt3 3.243664 1_555
La1 Pt1 3.243664 1_545
La1 Pt2 3.243664 1_554
La1 Pt3 3.243664 1_554
La1 Pt1 3.243664 1_455
La1 Pt0 3.243664 1_545
La1 Pt0 3.243664 1_455
Pt0 Pt3 2.766206 1_555
Pt0 Pt3 2.766206 1_565
Pt0 Pt2 2.766206 1_555
Pt0 Pt2 2.766206 1_655
Pt0 Pt1 2.766206 1_555
Pt0 Pt1 2.766206 1_556
Pt1 Pt3 2.766206 1_564
Pt1 Pt3 2.766206 1_555
Pt1 Pt2 2.766206 1_654
Pt1 Pt2 2.766206 1_555
Pt2 Pt3 2.766206 1_465
Pt2 Pt3 2.766206 1_555
