# generated using pymatgen
data_VCu3Te4
_symmetry_space_group_name_H-M   'P 1'
_cell_length_a   5.89521396
_cell_length_b   5.89521396
_cell_length_c   5.89521396
_cell_angle_alpha   90.00000000
_cell_angle_beta   90.00000000
_cell_angle_gamma   90.00000000
_symmetry_Int_Tables_number   1
_chemical_formula_structural   VCu3Te4
_chemical_formula_sum   'V1 Cu3 Te4'
_cell_volume   204.87959917
_cell_formula_units_Z   1
loop_
 _symmetry_equiv_pos_site_id
 _symmetry_equiv_pos_as_xyz
  1  'x, y, z'
loop_
 _atom_site_type_symbol
 _atom_site_label
 _atom_site_symmetry_multiplicity
 _atom_site_fract_x
 _atom_site_fract_y
 _atom_site_fract_z
 _atom_site_occupancy
  V  V0  1  -0.00000000  -0.00000000  -0.00000000  1
  Cu  Cu0  1  -0.00000000  -0.00000000  0.50000000  1
  Cu  Cu1  1  -0.00000000  0.50000000  -0.00000000  1
  Cu  Cu2  1  0.50000000  -0.00000000  -0.00000000  1
  Te  Te0  1  0.74904731  0.74904731  0.25095269  1
  Te  Te1  1  0.74904731  0.25095269  0.74904731  1
  Te  Te2  1  0.25095269  0.74904731  0.74904731  1
  Te  Te3  1  0.25095269  0.25095269  0.25095269  1
loop_
_geom_bond_atom_site_label_1
_geom_bond_atom_site_label_2
_geom_bond_distance
_geom_bond_site_symmetry_2
Cu0 Te0 2.555962 1_445
Cu0 Te2 2.555962 1_545
Cu0 Te1 2.555962 1_455
Cu0 Te3 2.555962 1_555
Cu0 V0 2.947607 1_555
Cu0 V0 2.947607 1_556
Cu1 Te0 2.555962 1_455
Cu1 Te3 2.555962 1_555
Cu1 Te2 2.555962 1_554
Cu1 Te1 2.555962 1_454
Cu1 V0 2.947607 1_565
Cu1 V0 2.947607 1_555
Cu2 Te2 2.555962 1_544
Cu2 Te1 2.555962 1_554
Cu2 Te3 2.555962 1_555
Cu2 Te0 2.555962 1_545
Cu2 V0 2.947607 1_655
Cu2 V0 2.947607 1_555
Te0 V0 2.562430 1_665
Te1 V0 2.562430 1_656
Te2 V0 2.562430 1_566
Te3 V0 2.562430 1_555
