# generated using pymatgen
data_NiBiO3
_symmetry_space_group_name_H-M   'P 1'
_cell_length_a   5.45192340
_cell_length_b   5.45222202
_cell_length_c   5.41812975
_cell_angle_alpha   120.20476013
_cell_angle_beta   59.79557502
_cell_angle_gamma   119.99865708
_symmetry_Int_Tables_number   1
_chemical_formula_structural   NiBiO3
_chemical_formula_sum   'Ni2 Bi2 O6'
_cell_volume   113.53038156
_cell_formula_units_Z   2
loop_
 _symmetry_equiv_pos_site_id
 _symmetry_equiv_pos_as_xyz
  1  'x, y, z'
loop_
 _atom_site_type_symbol
 _atom_site_label
 _atom_site_symmetry_multiplicity
 _atom_site_fract_x
 _atom_site_fract_y
 _atom_site_fract_z
 _atom_site_occupancy
  Ni  Ni0  1  0.49491232  0.50512656  0.51533527  1
  Ni  Ni1  1  0.98964125  0.01037733  0.03110331  1
  Bi  Bi0  1  0.72110575  0.27889313  0.83674092  1
  Bi  Bi1  1  0.21914978  0.78081736  0.34254521  1
  O  O0  1  0.76260121  0.68629986  0.73705129  1
  O  O1  1  0.18663591  0.23747678  0.73715993  1
  O  O2  1  0.31370524  0.81340109  0.73712747  1
  O  O3  1  0.80532408  0.72327295  0.24461680  1
  O  O4  1  0.27663633  0.32668991  0.24468378  1
  O  O5  1  0.67328613  0.19464102  0.24463502  1
loop_
_geom_bond_atom_site_label_1
_geom_bond_atom_site_label_2
_geom_bond_distance
_geom_bond_site_symmetry_2
Ni0 O3 1.917051 1_555
Ni0 O5 1.917139 1_555
Ni0 O4 1.917219 1_555
Ni0 O0 1.917609 1_555
Ni0 O1 1.917945 1_555
Ni0 O2 1.918000 1_555
Ni1 O4 1.969017 1_655
Ni1 O3 1.969234 1_545
Ni1 O5 1.969265 1_555
Ni1 O1 2.038731 1_654
Ni1 O2 2.038769 1_644
Ni1 O0 2.038938 1_544
Bi0 O5 2.342045 1_556
Bi0 O3 2.342205 1_556
Bi0 O4 2.342666 1_556
Bi0 O1 2.419998 1_655
Bi0 O2 2.420115 1_545
Bi0 O0 2.420480 1_555
Bi1 O0 2.345711 1_455
Bi1 O2 2.345868 1_555
Bi1 O1 2.346403 1_565
Bi1 O4 2.407857 1_555
Bi1 O5 2.408105 1_565
Bi1 O3 2.408175 1_455
