# generated using pymatgen
data_Nd2O5
_symmetry_space_group_name_H-M   'P 1'
_cell_length_a   5.61044308
_cell_length_b   6.00724369
_cell_length_c   7.36842419
_cell_angle_alpha   118.07308369
_cell_angle_beta   112.37758724
_cell_angle_gamma   89.99999328
_symmetry_Int_Tables_number   1
_chemical_formula_structural   Nd2O5
_chemical_formula_sum   'Nd4 O10'
_cell_volume   197.67614918
_cell_formula_units_Z   2
loop_
 _symmetry_equiv_pos_site_id
 _symmetry_equiv_pos_as_xyz
  1  'x, y, z'
loop_
 _atom_site_type_symbol
 _atom_site_label
 _atom_site_symmetry_multiplicity
 _atom_site_fract_x
 _atom_site_fract_y
 _atom_site_fract_z
 _atom_site_occupancy
  Nd  Nd0  1  0.67990387  0.83888308  0.78098022  1
  Nd  Nd1  1  0.89892465  0.66111692  0.21901978  1
  Nd  Nd2  1  0.32009613  0.16111692  0.21901978  1
  Nd  Nd3  1  0.10107535  0.33888308  0.78098022  1
  O  O0  1  0.38274673  0.65253199  0.37720294  1
  O  O1  1  0.00554279  0.84746801  0.62279706  1
  O  O2  1  0.61725327  0.34746801  0.62279706  1
  O  O3  1  0.99445721  0.15253199  0.37720294  1
  O  O4  1  0.94385885  0.25000000  0.00000000  1
  O  O5  1  0.05614115  0.75000000  -0.00000000  1
  O  O6  1  0.47503741  0.51857484  0.19623061  1
  O  O7  1  0.27880580  0.98142516  0.80376939  1
  O  O8  1  0.52496259  0.48142516  0.80376939  1
  O  O9  1  0.72119420  0.01857484  0.19623061  1
loop_
_geom_bond_atom_site_label_1
_geom_bond_atom_site_label_2
_geom_bond_distance
_geom_bond_site_symmetry_2
Nd0 O4 2.307779 1_566
Nd0 O5 2.358488 1_656
Nd0 O8 2.417734 1_555
Nd0 O0 2.443966 1_555
Nd0 O7 2.444960 1_555
Nd0 O1 2.525276 1_655
Nd0 O2 2.578038 1_555
Nd0 O9 2.632979 1_566
Nd1 O4 2.307777 1_555
Nd1 O5 2.358485 1_655
Nd1 O9 2.417734 1_565
Nd1 O1 2.443969 1_655
Nd1 O6 2.444961 1_555
Nd1 O0 2.525276 1_655
Nd1 O3 2.578038 1_565
Nd1 O8 2.632982 1_554
Nd2 O5 2.307779 1_545
Nd2 O4 2.358488 1_455
Nd2 O6 2.417734 1_555
Nd2 O2 2.443966 1_555
Nd2 O9 2.444960 1_555
Nd2 O3 2.525276 1_455
Nd2 O0 2.578038 1_555
Nd2 O7 2.632979 1_544
Nd3 O5 2.307777 1_556
Nd3 O4 2.358485 1_456
Nd3 O7 2.417734 1_545
Nd3 O3 2.443969 1_455
Nd3 O8 2.444961 1_555
Nd3 O2 2.525276 1_455
Nd3 O1 2.578038 1_545
Nd3 O6 2.632982 1_556
O0 O6 1.486475 1_555
O1 O7 1.486475 1_555
O2 O8 1.486475 1_555
O3 O9 1.486475 1_555
