# generated using pymatgen
data_UGePt
_symmetry_space_group_name_H-M   'P 1'
_cell_length_a   4.39725344
_cell_length_b   7.19282923
_cell_length_c   7.61258787
_cell_angle_alpha   90.00000000
_cell_angle_beta   90.00000000
_cell_angle_gamma   90.00000000
_symmetry_Int_Tables_number   1
_chemical_formula_structural   UGePt
_chemical_formula_sum   'U4 Ge4 Pt4'
_cell_volume   240.77620525
_cell_formula_units_Z   4
loop_
 _symmetry_equiv_pos_site_id
 _symmetry_equiv_pos_as_xyz
  1  'x, y, z'
loop_
 _atom_site_type_symbol
 _atom_site_label
 _atom_site_symmetry_multiplicity
 _atom_site_fract_x
 _atom_site_fract_y
 _atom_site_fract_z
 _atom_site_occupancy
  U  U0  1  0.75000000  0.99039831  0.21838814  1
  U  U1  1  0.75000000  0.49039831  0.28161186  1
  U  U2  1  0.25000000  0.50960169  0.71838814  1
  U  U3  1  0.25000000  0.00960169  0.78161186  1
  Ge  Ge0  1  0.25000000  0.69545410  0.09051922  1
  Ge  Ge1  1  0.25000000  0.19545410  0.40948078  1
  Ge  Ge2  1  0.75000000  0.80454590  0.59051922  1
  Ge  Ge3  1  0.75000000  0.30454590  0.90948078  1
  Pt  Pt0  1  0.25000000  0.27983989  0.08164980  1
  Pt  Pt1  1  0.25000000  0.77983989  0.41835020  1
  Pt  Pt2  1  0.75000000  0.22016011  0.58164980  1
  Pt  Pt3  1  0.75000000  0.72016011  0.91835020  1
loop_
_geom_bond_atom_site_label_1
_geom_bond_atom_site_label_2
_geom_bond_distance
_geom_bond_site_symmetry_2
Ge0 Pt3 2.565803 1_454
Ge0 Pt3 2.565803 1_554
Ge0 Pt1 2.568394 1_555
Ge0 Pt0 2.990204 1_555
Ge0 U1 3.020854 1_455
Ge0 U1 3.020854 1_555
Ge0 U2 3.132453 1_554
Ge0 U0 3.206585 1_555
Ge0 U0 3.206585 1_455
Ge0 U3 3.261255 1_564
Ge1 Pt2 2.565803 1_555
Ge1 Pt2 2.565803 1_455
Ge1 Pt0 2.568394 1_555
Ge1 Pt1 2.990204 1_545
Ge1 U0 3.020854 1_545
Ge1 U0 3.020854 1_445
Ge1 U3 3.132453 1_555
Ge1 U1 3.206585 1_455
Ge1 U1 3.206585 1_555
Ge1 U2 3.261255 1_555
Ge2 Pt1 2.565803 1_655
Ge2 Pt1 2.565803 1_555
Ge2 Pt3 2.568394 1_555
Ge2 Pt2 2.990204 1_565
Ge2 U3 3.020854 1_565
Ge2 U3 3.020854 1_665
Ge2 U0 3.132453 1_555
Ge2 U2 3.206585 1_555
Ge2 U2 3.206585 1_655
Ge2 U1 3.261255 1_555
Ge3 Pt0 2.565803 1_556
Ge3 Pt0 2.565803 1_656
Ge3 Pt2 2.568394 1_555
Ge3 Pt3 2.990204 1_555
Ge3 U2 3.020854 1_555
Ge3 U2 3.020854 1_655
Ge3 U1 3.132453 1_556
Ge3 U3 3.206585 1_655
Ge3 U3 3.206585 1_555
Ge3 U0 3.261255 1_546
Pt0 U3 2.999204 1_554
Pt0 U1 3.073253 1_555
Pt0 U1 3.073253 1_455
Pt0 U0 3.201847 1_545
Pt0 U0 3.201847 1_445
Pt0 U2 3.221558 1_554
Pt1 U2 2.999204 1_555
Pt1 U0 3.073253 1_555
Pt1 U0 3.073253 1_455
Pt1 U1 3.201847 1_555
Pt1 U1 3.201847 1_455
Pt1 U3 3.221558 1_565
Pt2 U1 2.999204 1_555
Pt2 U3 3.073253 1_555
Pt2 U3 3.073253 1_655
Pt2 U2 3.201847 1_555
Pt2 U2 3.201847 1_655
Pt2 U0 3.221558 1_545
Pt3 U0 2.999204 1_556
Pt3 U2 3.073253 1_555
Pt3 U2 3.073253 1_655
Pt3 U3 3.201847 1_565
Pt3 U3 3.201847 1_665
Pt3 U1 3.221558 1_556
