# generated using pymatgen
data_Lu3Sn
_symmetry_space_group_name_H-M   'P 1'
_cell_length_a   6.05747760
_cell_length_b   6.05747760
_cell_length_c   6.05747760
_cell_angle_alpha   135.68053340
_cell_angle_beta   135.68053340
_cell_angle_gamma   64.47462413
_symmetry_Int_Tables_number   1
_chemical_formula_structural   Lu3Sn
_chemical_formula_sum   'Lu3 Sn1'
_cell_volume   106.99095760
_cell_formula_units_Z   1
loop_
 _symmetry_equiv_pos_site_id
 _symmetry_equiv_pos_as_xyz
  1  'x, y, z'
loop_
 _atom_site_type_symbol
 _atom_site_label
 _atom_site_symmetry_multiplicity
 _atom_site_fract_x
 _atom_site_fract_y
 _atom_site_fract_z
 _atom_site_occupancy
  Lu  Lu0  1  0.75000000  0.25000000  0.50000000  1
  Lu  Lu1  1  0.25000000  0.75000000  0.50000000  1
  Lu  Lu2  1  0.50000000  0.50000000  0.00000000  1
  Sn  Sn0  1  0.00000000  0.00000000  0.00000000  1
loop_
_geom_bond_atom_site_label_1
_geom_bond_atom_site_label_2
_geom_bond_distance
_geom_bond_site_symmetry_2
Lu0 Lu1 3.231223 1_544
Lu0 Lu1 3.231223 1_555
Lu0 Lu1 3.231223 1_656
Lu0 Lu1 3.231223 1_645
Lu0 Lu2 3.432704 1_656
Lu0 Sn0 3.432704 1_655
Lu0 Lu2 3.432704 1_556
Lu0 Sn0 3.432704 1_656
Lu0 Sn0 3.432704 1_666
Lu0 Lu2 3.432704 1_555
Lu0 Lu2 3.432704 1_545
Lu0 Sn0 3.432704 1_555
Lu1 Lu2 3.432704 1_455
Lu1 Sn0 3.432704 1_565
Lu1 Lu2 3.432704 1_556
Lu1 Sn0 3.432704 1_666
Lu1 Lu2 3.432704 1_555
Lu1 Lu2 3.432704 1_566
Lu1 Sn0 3.432704 1_555
Lu1 Sn0 3.432704 1_566
Lu2 Sn0 3.231223 1_554
Lu2 Sn0 3.231223 1_565
Lu2 Sn0 3.231223 1_666
Lu2 Sn0 3.231223 1_655
