# generated using pymatgen
data_U2N3
_symmetry_space_group_name_H-M   'P 1'
_cell_length_a   3.70998015
_cell_length_b   3.70998015
_cell_length_c   5.74102568
_cell_angle_alpha   90.00000000
_cell_angle_beta   90.00000000
_cell_angle_gamma   120.00002163
_symmetry_Int_Tables_number   1
_chemical_formula_structural   U2N3
_chemical_formula_sum   'U2 N3'
_cell_volume   68.43262496
_cell_formula_units_Z   1
loop_
 _symmetry_equiv_pos_site_id
 _symmetry_equiv_pos_as_xyz
  1  'x, y, z'
loop_
 _atom_site_type_symbol
 _atom_site_label
 _atom_site_symmetry_multiplicity
 _atom_site_fract_x
 _atom_site_fract_y
 _atom_site_fract_z
 _atom_site_occupancy
  U  U0  1  0.33333300  0.66666700  0.24128464  1
  U  U1  1  0.66666700  0.33333300  0.75871536  1
  N  N0  1  -0.00000000  0.00000000  0.00000000  1
  N  N1  1  0.33333300  0.66666700  0.64758232  1
  N  N2  1  0.66666700  0.33333300  0.35241768  1
loop_
_geom_bond_atom_site_label_1
_geom_bond_atom_site_label_2
_geom_bond_distance
_geom_bond_site_symmetry_2
N0 U1 2.550846 1_454
N0 U0 2.550846 1_545
N0 U1 2.550848 1_554
N0 U0 2.550848 1_555
N0 U0 2.550848 1_445
N0 U1 2.550848 1_444
N1 U1 2.234959 1_455
N1 U1 2.234959 1_565
N1 U1 2.234965 1_555
N1 U0 2.332565 1_555
N2 U0 2.234959 1_545
N2 U0 2.234959 1_655
N2 U0 2.234965 1_555
N2 U1 2.332565 1_555
