# generated using pymatgen
data_CdAgO2
_symmetry_space_group_name_H-M   'P 1'
_cell_length_a   3.47567000
_cell_length_b   4.53513000
_cell_length_c   6.90167000
_cell_angle_alpha   90.00000000
_cell_angle_beta   90.00000000
_cell_angle_gamma   90.00000000
_symmetry_Int_Tables_number   1
_chemical_formula_structural   CdAgO2
_chemical_formula_sum   'Cd2 Ag2 O4'
_cell_volume   108.78836905
_cell_formula_units_Z   2
loop_
 _symmetry_equiv_pos_site_id
 _symmetry_equiv_pos_as_xyz
  1  'x, y, z'
loop_
 _atom_site_type_symbol
 _atom_site_label
 _atom_site_symmetry_multiplicity
 _atom_site_fract_x
 _atom_site_fract_y
 _atom_site_fract_z
 _atom_site_occupancy
  Cd  Cd0  1  0.48956000  0.50000000  0.75000000  1
  Cd  Cd1  1  0.51044000  0.50000000  0.25000000  1
  Ag  Ag0  1  0.00000000  0.00000000  0.00000000  1
  Ag  Ag1  1  0.00000000  0.00000000  0.50000000  1
  O  O0  1  0.36612000  0.00000000  0.25000000  1
  O  O1  1  0.63388000  0.00000000  0.75000000  1
  O  O2  1  0.00000000  0.50000000  0.50000000  1
  O  O3  1  0.00000000  0.50000000  0.00000000  1
loop_
_geom_bond_atom_site_label_1
_geom_bond_atom_site_label_2
_geom_bond_distance
_geom_bond_site_symmetry_2
Cd0 O1 2.322383 1_565
Cd0 O1 2.322383 1_555
Cd0 O2 2.423290 1_555
Cd0 O3 2.423290 1_556
Cd0 O3 2.474787 1_656
Cd0 O2 2.474787 1_655
Cd1 O0 2.322383 1_565
Cd1 O0 2.322383 1_555
Cd1 O3 2.423290 1_655
Cd1 O2 2.423290 1_655
Cd1 O3 2.474787 1_555
Cd1 O2 2.474787 1_555
Ag0 O0 2.143911 1_555
Ag0 O1 2.143911 1_454
Ag0 O3 2.267565 1_555
Ag0 O3 2.267565 1_545
Ag1 O0 2.143911 1_555
Ag1 O1 2.143911 1_455
Ag1 O2 2.267565 1_545
Ag1 O2 2.267565 1_555
