# generated using pymatgen
data_MnSiNi2
_symmetry_space_group_name_H-M   'P 1'
_cell_length_a   4.02001802
_cell_length_b   4.02001802
_cell_length_c   4.02001802
_cell_angle_alpha   60.00000000
_cell_angle_beta   60.00000000
_cell_angle_gamma   60.00000000
_symmetry_Int_Tables_number   1
_chemical_formula_structural   MnSiNi2
_chemical_formula_sum   'Mn1 Si1 Ni2'
_cell_volume   45.93767391
_cell_formula_units_Z   1
loop_
 _symmetry_equiv_pos_site_id
 _symmetry_equiv_pos_as_xyz
  1  'x, y, z'
loop_
 _atom_site_type_symbol
 _atom_site_label
 _atom_site_symmetry_multiplicity
 _atom_site_fract_x
 _atom_site_fract_y
 _atom_site_fract_z
 _atom_site_occupancy
  Mn  Mn0  1  0.00000000  0.00000000  0.00000000  1
  Si  Si0  1  0.50000000  0.50000000  0.50000000  1
  Ni  Ni0  1  0.75000000  0.75000000  0.75000000  1
  Ni  Ni1  1  0.25000000  0.25000000  0.25000000  1
loop_
_geom_bond_atom_site_label_1
_geom_bond_atom_site_label_2
_geom_bond_distance
_geom_bond_site_symmetry_2
Mn0 Ni0 2.461748 1_444
Mn0 Ni0 2.461748 1_445
Mn0 Ni1 2.461748 1_455
Mn0 Ni1 2.461748 1_545
Mn0 Ni1 2.461748 1_555
Mn0 Ni1 2.461748 1_554
Mn0 Ni0 2.461748 1_454
Mn0 Ni0 2.461748 1_544
Mn0 Si0 2.842582 1_544
Mn0 Si0 2.842582 1_455
Mn0 Si0 2.842582 1_454
Mn0 Si0 2.842582 1_545
Mn0 Si0 2.842582 1_445
Mn0 Si0 2.842582 1_554
Ni0 Si0 2.461748 1_565
Ni0 Si0 2.461748 1_556
Ni0 Si0 2.461748 1_655
Ni0 Si0 2.461748 1_555
Ni1 Si0 2.461748 1_554
Ni1 Si0 2.461748 1_455
Ni1 Si0 2.461748 1_545
Ni1 Si0 2.461748 1_555
