# generated using pymatgen
data_Te
_symmetry_space_group_name_H-M   'P 1'
_cell_length_a   6.14061155
_cell_length_b   10.22317725
_cell_length_c   10.22317544
_cell_angle_alpha   70.71049550
_cell_angle_beta   72.52269838
_cell_angle_gamma   72.52270331
_symmetry_Int_Tables_number   1
_chemical_formula_structural   Te
_chemical_formula_sum   Te16
_cell_volume   563.18241342
_cell_formula_units_Z   16
loop_
 _symmetry_equiv_pos_site_id
 _symmetry_equiv_pos_as_xyz
  1  'x, y, z'
loop_
 _atom_site_type_symbol
 _atom_site_label
 _atom_site_symmetry_multiplicity
 _atom_site_fract_x
 _atom_site_fract_y
 _atom_site_fract_z
 _atom_site_occupancy
  Te  Te0_0  1  0.25046451  0.12500000  0.12500000  1
  Te  Te0_1  1  0.25046451  0.12500000  0.62500000  1
  Te  Te0_2  1  0.25046451  0.62500000  0.12500000  1
  Te  Te0_3  1  0.25046451  0.62500000  0.62500000  1
  Te  Te0_4  1  0.75046451  0.12500000  0.12500000  1
  Te  Te0_5  1  0.75046451  0.12500000  0.62500000  1
  Te  Te0_6  1  0.75046451  0.62500000  0.12500000  1
  Te  Te0_7  1  0.75046451  0.62500000  0.62500000  1
  Te  Te1_0  1  0.24953549  0.37500000  0.37500000  1
  Te  Te1_1  1  0.24953549  0.37500000  0.87500000  1
  Te  Te1_2  1  0.24953549  0.87500000  0.37500000  1
  Te  Te1_3  1  0.24953549  0.87500000  0.87500000  1
  Te  Te1_4  1  0.74953549  0.37500000  0.37500000  1
  Te  Te1_5  1  0.74953549  0.37500000  0.87500000  1
  Te  Te1_6  1  0.74953549  0.87500000  0.37500000  1
  Te  Te1_7  1  0.74953549  0.87500000  0.87500000  1
loop_
_geom_bond_atom_site_label_1
_geom_bond_atom_site_label_2
_geom_bond_distance
_geom_bond_site_symmetry_2
Te0_0 Te1_2 2.957797 1_545
Te0_0 Te1_1 2.957797 1_554
Te0_0 Te0_4 3.070306 1_555
Te0_0 Te0_4 3.070306 1_455
Te0_1 Te1_3 2.957797 1_545
Te0_1 Te1_0 2.957797 1_555
Te0_1 Te0_5 3.070306 1_555
Te0_1 Te0_5 3.070306 1_455
Te0_2 Te1_0 2.957797 1_555
Te0_2 Te1_3 2.957797 1_554
Te0_2 Te0_6 3.070306 1_555
Te0_2 Te0_6 3.070306 1_455
Te0_3 Te1_1 2.957797 1_555
Te0_3 Te1_2 2.957797 1_555
Te0_3 Te0_7 3.070306 1_555
Te0_3 Te0_7 3.070306 1_455
Te0_4 Te1_6 2.957797 1_545
Te0_4 Te1_5 2.957797 1_554
Te0_5 Te1_7 2.957797 1_545
Te0_5 Te1_4 2.957797 1_555
Te0_6 Te1_4 2.957797 1_555
Te0_6 Te1_7 2.957797 1_554
Te0_7 Te1_5 2.957797 1_555
Te0_7 Te1_6 2.957797 1_555
Te1_0 Te1_4 3.070306 1_455
Te1_0 Te1_4 3.070306 1_555
Te1_1 Te1_5 3.070306 1_455
Te1_1 Te1_5 3.070306 1_555
Te1_2 Te1_6 3.070306 1_455
Te1_2 Te1_6 3.070306 1_555
Te1_3 Te1_7 3.070306 1_555
Te1_3 Te1_7 3.070306 1_455
