# generated using pymatgen
data_LiAl3
_symmetry_space_group_name_H-M   'P 1'
_cell_length_a   4.88817397
_cell_length_b   4.88817397
_cell_length_c   4.88817397
_cell_angle_alpha   131.65465922
_cell_angle_beta   131.65465922
_cell_angle_gamma   70.77500501
_symmetry_Int_Tables_number   1
_chemical_formula_structural   LiAl3
_chemical_formula_sum   'Li1 Al3'
_cell_volume   63.86679705
_cell_formula_units_Z   1
loop_
 _symmetry_equiv_pos_site_id
 _symmetry_equiv_pos_as_xyz
  1  'x, y, z'
loop_
 _atom_site_type_symbol
 _atom_site_label
 _atom_site_symmetry_multiplicity
 _atom_site_fract_x
 _atom_site_fract_y
 _atom_site_fract_z
 _atom_site_occupancy
  Li  Li0  1  -0.00000000  -0.00000000  0.00000000  1
  Al  Al0  1  0.74999800  0.24999900  0.49999900  1
  Al  Al1  1  0.24999900  0.74999800  0.49999900  1
  Al  Al2  1  0.50000100  0.50000100  0.00000000  1
loop_
_geom_bond_atom_site_label_1
_geom_bond_atom_site_label_2
_geom_bond_distance
_geom_bond_site_symmetry_2
Al0 Al2 2.824322 1_556
Al0 Al2 2.824322 1_545
Al0 Li0 2.824325 1_555
Al0 Li0 2.824331 1_656
Al0 Li0 2.824339 1_655
Al0 Li0 2.824339 1_666
Al0 Al2 2.824342 1_555
Al0 Al2 2.824347 1_656
Al0 Al1 2.830752 1_555
Al0 Al1 2.830758 1_544
Al0 Al1 2.830758 1_656
Al0 Al1 2.830764 1_645
Al1 Al2 2.824322 1_556
Al1 Al2 2.824322 1_455
Al1 Li0 2.824325 1_555
Al1 Li0 2.824331 1_566
Al1 Li0 2.824339 1_565
Al1 Li0 2.824339 1_666
Al1 Al2 2.824342 1_555
Al1 Al2 2.824347 1_566
Al2 Li0 2.830758 1_565
Al2 Li0 2.830758 1_666
Al2 Li0 2.830758 1_655
Al2 Li0 2.830758 1_554
