# generated using pymatgen
data_Ti2AlV
_symmetry_space_group_name_H-M   'P 1'
_cell_length_a   4.48093567
_cell_length_b   4.48093567
_cell_length_c   4.48093567
_cell_angle_alpha   60.00000000
_cell_angle_beta   60.00000000
_cell_angle_gamma   60.00000000
_symmetry_Int_Tables_number   1
_chemical_formula_structural   Ti2AlV
_chemical_formula_sum   'Ti2 Al1 V1'
_cell_volume   63.61962869
_cell_formula_units_Z   1
loop_
 _symmetry_equiv_pos_site_id
 _symmetry_equiv_pos_as_xyz
  1  'x, y, z'
loop_
 _atom_site_type_symbol
 _atom_site_label
 _atom_site_symmetry_multiplicity
 _atom_site_fract_x
 _atom_site_fract_y
 _atom_site_fract_z
 _atom_site_occupancy
  Ti  Ti0  1  0.00000000  0.00000000  0.00000000  1
  Ti  Ti1  1  0.75000000  0.75000000  0.75000000  1
  Al  Al0  1  0.25000000  0.25000000  0.25000000  1
  V  V0  1  0.50000000  0.50000000  0.50000000  1
loop_
_geom_bond_atom_site_label_1
_geom_bond_atom_site_label_2
_geom_bond_distance
_geom_bond_site_symmetry_2
Ti0 Ti1 2.744001 1_444
Ti0 Ti1 2.744001 1_454
Ti0 Ti1 2.744001 1_445
Ti0 Ti1 2.744001 1_544
Ti0 V0 3.168500 1_454
Ti0 V0 3.168500 1_554
Ti0 V0 3.168500 1_544
Ti0 V0 3.168500 1_545
Ti0 V0 3.168500 1_445
Ti0 V0 3.168500 1_455
Ti1 V0 2.744001 1_555
Ti1 V0 2.744001 1_556
Ti1 V0 2.744001 1_565
Ti1 V0 2.744001 1_655
Al0 V0 2.744001 1_545
Al0 V0 2.744001 1_455
Al0 V0 2.744001 1_555
Al0 Ti0 2.744001 1_556
Al0 Ti0 2.744001 1_555
Al0 V0 2.744001 1_554
Al0 Ti0 2.744001 1_565
Al0 Ti0 2.744001 1_655
Al0 Ti1 3.168500 1_545
Al0 Ti1 3.168500 1_455
Al0 Ti1 3.168500 1_454
Al0 Ti1 3.168500 1_445
Al0 Ti1 3.168500 1_544
Al0 Ti1 3.168500 1_554
