# generated using pymatgen
data_ZnRh3
_symmetry_space_group_name_H-M   'P 1'
_cell_length_a   4.64286542
_cell_length_b   4.64286542
_cell_length_c   4.64286542
_cell_angle_alpha   131.73730046
_cell_angle_beta   131.73730046
_cell_angle_gamma   70.64425003
_symmetry_Int_Tables_number   1
_chemical_formula_structural   ZnRh3
_chemical_formula_sum   'Zn1 Rh3'
_cell_volume   54.59439892
_cell_formula_units_Z   1
loop_
 _symmetry_equiv_pos_site_id
 _symmetry_equiv_pos_as_xyz
  1  'x, y, z'
loop_
 _atom_site_type_symbol
 _atom_site_label
 _atom_site_symmetry_multiplicity
 _atom_site_fract_x
 _atom_site_fract_y
 _atom_site_fract_z
 _atom_site_occupancy
  Zn  Zn0  1  -0.00000000  0.00000000  -0.00000000  1
  Rh  Rh0  1  0.74999900  0.25000000  0.49999900  1
  Rh  Rh1  1  0.25000000  0.74999900  0.49999900  1
  Rh  Rh2  1  0.50000000  0.50000000  -0.00000000  1
loop_
_geom_bond_atom_site_label_1
_geom_bond_atom_site_label_2
_geom_bond_distance
_geom_bond_site_symmetry_2
Rh0 Zn0 2.681512 1_555
Rh0 Rh2 2.681512 1_555
Rh0 Rh2 2.681515 1_556
Rh0 Zn0 2.681515 1_666
Rh0 Rh2 2.681515 1_545
Rh0 Zn0 2.681515 1_655
Rh0 Zn0 2.681517 1_656
Rh0 Rh2 2.681517 1_656
Rh0 Rh1 2.684373 1_555
Rh0 Rh1 2.684378 1_656
Rh0 Rh1 2.684378 1_544
Rh0 Rh1 2.684384 1_645
Rh1 Zn0 2.681512 1_555
Rh1 Rh2 2.681512 1_555
Rh1 Rh2 2.681515 1_455
Rh1 Rh2 2.681515 1_556
Rh1 Zn0 2.681515 1_666
Rh1 Zn0 2.681515 1_565
Rh1 Zn0 2.681517 1_566
Rh1 Rh2 2.681517 1_566
Rh2 Zn0 2.684378 1_666
Rh2 Zn0 2.684378 1_565
Rh2 Zn0 2.684378 1_655
Rh2 Zn0 2.684378 1_554
