# generated using pymatgen
data_Tb2S2O
_symmetry_space_group_name_H-M   'P 1'
_cell_length_a   6.92013675
_cell_length_b   6.87918437
_cell_length_c   8.29433293
_cell_angle_alpha   80.64374235
_cell_angle_beta   90.00000000
_cell_angle_gamma   90.00000000
_symmetry_Int_Tables_number   1
_chemical_formula_structural   Tb2S2O
_chemical_formula_sum   'Tb8 S8 O4'
_cell_volume   389.59798859
_cell_formula_units_Z   4
loop_
 _symmetry_equiv_pos_site_id
 _symmetry_equiv_pos_as_xyz
  1  'x, y, z'
loop_
 _atom_site_type_symbol
 _atom_site_label
 _atom_site_symmetry_multiplicity
 _atom_site_fract_x
 _atom_site_fract_y
 _atom_site_fract_z
 _atom_site_occupancy
  Tb  Tb0  1  0.35756046  0.17947542  0.57654888  1
  Tb  Tb1  1  0.85756046  0.32052458  0.42345112  1
  Tb  Tb2  1  0.64243954  0.82052458  0.42345112  1
  Tb  Tb3  1  0.14243954  0.67947542  0.57654888  1
  Tb  Tb4  1  0.44652023  0.24925343  0.13841430  1
  Tb  Tb5  1  0.94652023  0.25074657  0.86158570  1
  Tb  Tb6  1  0.55347977  0.75074657  0.86158570  1
  Tb  Tb7  1  0.05347977  0.74925343  0.13841430  1
  S  S0  1  0.72302928  0.96981232  0.07671004  1
  S  S1  1  0.22302928  0.53018768  0.92328996  1
  S  S2  1  0.27697072  0.03018768  0.92328996  1
  S  S3  1  0.77697072  0.46981232  0.07671004  1
  S  S4  1  0.86438952  0.92578066  0.67984808  1
  S  S5  1  0.36438952  0.57421934  0.32015192  1
  S  S6  1  0.13561048  0.07421934  0.32015192  1
  S  S7  1  0.63561048  0.42578066  0.67984808  1
  O  O0  1  0.91271998  0.64939446  0.38327922  1
  O  O1  1  0.41271998  0.85060554  0.61672078  1
  O  O2  1  0.08728002  0.35060554  0.61672078  1
  O  O3  1  0.58728002  0.14939446  0.38327922  1
loop_
_geom_bond_atom_site_label_1
_geom_bond_atom_site_label_2
_geom_bond_distance
_geom_bond_site_symmetry_2
S0 Tb7 2.746057 1_655
S0 Tb6 2.775923 1_554
S0 Tb4 2.817547 1_565
S0 Tb5 2.861717 1_564
S0 Tb2 2.945617 1_555
S1 Tb6 2.746057 1_555
S1 Tb7 2.775923 1_556
S1 Tb5 2.817547 1_455
S1 Tb4 2.861717 1_556
S1 Tb3 2.945617 1_555
S2 Tb5 2.746057 1_455
S2 Tb4 2.775923 1_556
S2 Tb6 2.817547 1_545
S2 Tb7 2.861717 1_546
S2 Tb0 2.945617 1_555
S3 Tb4 2.746057 1_555
S3 Tb5 2.775923 1_554
S3 Tb7 2.817547 1_655
S3 Tb6 2.861717 1_554
S3 Tb1 2.945617 1_555
S4 Tb6 2.785863 1_555
S4 Tb3 2.789154 1_655
S4 Tb2 2.811873 1_555
S4 Tb5 2.947607 1_565
S4 Tb1 3.165624 1_565
S5 Tb7 2.785863 1_555
S5 Tb2 2.789154 1_555
S5 Tb3 2.811873 1_555
S5 Tb4 2.947607 1_555
S5 Tb0 3.165624 1_555
S6 Tb4 2.785863 1_555
S6 Tb1 2.789154 1_455
S6 Tb0 2.811873 1_555
S6 Tb7 2.947607 1_545
S6 Tb3 3.165624 1_545
S7 Tb5 2.785863 1_555
S7 Tb0 2.789154 1_555
S7 Tb1 2.811873 1_555
S7 Tb6 2.947607 1_555
S7 Tb2 3.165624 1_555
O0 Tb7 2.256548 1_655
O0 Tb2 2.263351 1_555
O0 Tb1 2.264924 1_555
O0 Tb3 2.290751 1_655
O1 Tb6 2.256548 1_555
O1 Tb3 2.263351 1_555
O1 Tb0 2.264924 1_565
O1 Tb2 2.290751 1_555
O2 Tb5 2.256548 1_455
O2 Tb0 2.263351 1_555
O2 Tb3 2.264924 1_555
O2 Tb1 2.290751 1_455
O3 Tb4 2.256548 1_555
O3 Tb1 2.263351 1_555
O3 Tb2 2.264924 1_545
O3 Tb0 2.290751 1_555
