# generated using pymatgen
data_Re3Tc
_symmetry_space_group_name_H-M   'P 1'
_cell_length_a   5.51397454
_cell_length_b   5.51397504
_cell_length_c   4.45877085
_cell_angle_alpha   90.00000000
_cell_angle_beta   90.00000000
_cell_angle_gamma   119.99999703
_symmetry_Int_Tables_number   1
_chemical_formula_structural   Re3Tc
_chemical_formula_sum   'Re6 Tc2'
_cell_volume   117.40196067
_cell_formula_units_Z   2
loop_
 _symmetry_equiv_pos_site_id
 _symmetry_equiv_pos_as_xyz
  1  'x, y, z'
loop_
 _atom_site_type_symbol
 _atom_site_label
 _atom_site_symmetry_multiplicity
 _atom_site_fract_x
 _atom_site_fract_y
 _atom_site_fract_z
 _atom_site_occupancy
  Re  Re0  1  0.16651956  0.33304012  0.25000000  1
  Re  Re1  1  0.66695888  0.83347944  0.25000000  1
  Re  Re2  1  0.16652056  0.83347944  0.25000000  1
  Re  Re3  1  0.83348144  0.66695888  0.75000100  1
  Re  Re4  1  0.33304212  0.16651956  0.75000100  1
  Re  Re5  1  0.83348044  0.16651956  0.75000100  1
  Tc  Tc0  1  0.33333300  0.66666600  0.75000100  1
  Tc  Tc1  1  0.66666800  0.33333300  0.25000000  1
loop_
_geom_bond_atom_site_label_1
_geom_bond_atom_site_label_2
_geom_bond_distance
_geom_bond_site_symmetry_2
Re0 Re5 2.738490 1_454
Re0 Re5 2.738497 1_455
Re0 Re4 2.738501 1_554
Re0 Re4 2.738509 1_555
Re0 Tc0 2.740118 1_554
Re0 Tc0 2.740126 1_555
Re0 Re1 2.754565 1_445
Re0 Re2 2.754568 1_545
Re0 Tc1 2.756977 1_455
Re0 Tc1 2.756999 1_555
Re0 Re2 2.759407 1_555
Re0 Re1 2.759410 1_555
Re1 Re5 2.738493 1_564
Re1 Re5 2.738500 1_565
Re1 Re3 2.738501 1_554
Re1 Re3 2.738509 1_555
Re1 Tc0 2.740118 1_554
Re1 Tc0 2.740126 1_555
Re1 Re2 2.754570 1_655
Re1 Tc1 2.756982 1_565
Re1 Tc1 2.756993 1_555
Re1 Re2 2.759404 1_555
Re2 Re3 2.738490 1_454
Re2 Re4 2.738493 1_564
Re2 Re3 2.738497 1_455
Re2 Re4 2.738500 1_565
Re2 Tc0 2.740118 1_554
Re2 Tc0 2.740126 1_555
Re2 Tc1 2.756985 1_455
Re2 Tc1 2.756991 1_565
Re3 Tc1 2.740118 1_556
Re3 Tc1 2.740126 1_555
Re3 Re4 2.754565 1_665
Re3 Re5 2.754568 1_565
Re3 Tc0 2.756977 1_655
Re3 Tc0 2.756999 1_555
Re3 Re5 2.759407 1_555
Re3 Re4 2.759410 1_555
Re4 Tc1 2.740118 1_556
Re4 Tc1 2.740126 1_555
Re4 Re5 2.754570 1_455
Re4 Tc0 2.756982 1_545
Re4 Tc0 2.756993 1_555
Re4 Re5 2.759404 1_555
Re5 Tc1 2.740118 1_556
Re5 Tc1 2.740126 1_555
Re5 Tc0 2.756985 1_655
Re5 Tc0 2.756991 1_545
