# generated using pymatgen
data_Li2Mg
_symmetry_space_group_name_H-M   'P 1'
_cell_length_a   5.92747255
_cell_length_b   5.92747255
_cell_length_c   5.92747196
_cell_angle_alpha   53.10053943
_cell_angle_beta   53.10053943
_cell_angle_gamma   53.10054862
_symmetry_Int_Tables_number   1
_chemical_formula_structural   Li2Mg
_chemical_formula_sum   'Li4 Mg2'
_cell_volume   123.45626207
_cell_formula_units_Z   2
loop_
 _symmetry_equiv_pos_site_id
 _symmetry_equiv_pos_as_xyz
  1  'x, y, z'
loop_
 _atom_site_type_symbol
 _atom_site_label
 _atom_site_symmetry_multiplicity
 _atom_site_fract_x
 _atom_site_fract_y
 _atom_site_fract_z
 _atom_site_occupancy
  Li  Li0  1  0.33198635  0.00000000  0.66801365  1
  Li  Li1  1  0.66801365  0.33198635  -0.00000000  1
  Li  Li2  1  -0.00000000  0.66801365  0.33198635  1
  Li  Li3  1  0.50000000  0.50000000  0.50000000  1
  Mg  Mg0  1  0.83287199  0.83287199  0.83287199  1
  Mg  Mg1  1  0.16712801  0.16712801  0.16712801  1
loop_
_geom_bond_atom_site_label_1
_geom_bond_atom_site_label_2
_geom_bond_distance
_geom_bond_site_symmetry_2
Li0 Li2 3.046991 1_546
Li0 Li1 3.046992 1_456
Li0 Li1 3.065554 1_555
Li0 Li2 3.065555 1_555
Li0 Li2 3.065555 1_645
Li0 Li1 3.065555 1_546
Li0 Mg1 3.088808 1_555
Li0 Mg0 3.088808 1_545
Li0 Mg1 3.094230 1_556
Li0 Mg0 3.094231 1_445
Li0 Li3 3.094570 1_555
Li0 Li3 3.094570 1_545
Li1 Li2 3.046992 1_645
Li1 Li2 3.065554 1_654
Li1 Li2 3.065555 1_555
Li1 Mg0 3.088808 1_554
Li1 Mg1 3.088808 1_555
Li1 Mg1 3.094231 1_655
Li1 Mg0 3.094231 1_544
Li1 Li3 3.094569 1_555
Li1 Li3 3.094569 1_554
Li2 Mg0 3.088808 1_455
Li2 Mg1 3.088808 1_555
Li2 Mg0 3.094230 1_454
Li2 Mg1 3.094231 1_565
Li2 Li3 3.094570 1_455
Li2 Li3 3.094570 1_555
Li3 Mg1 3.059362 1_556
Li3 Mg0 3.059362 1_554
Li3 Mg1 3.059363 1_565
Li3 Mg1 3.059363 1_655
Li3 Mg0 3.059363 1_545
Li3 Mg0 3.059363 1_455
Mg0 Mg1 3.059386 1_665
Mg0 Mg1 3.059387 1_656
Mg0 Mg1 3.059387 1_566
