# generated using pymatgen
data_MgPd5
_symmetry_space_group_name_H-M   'P 1'
_cell_length_a   4.51070153
_cell_length_b   4.82767038
_cell_length_c   4.82738660
_cell_angle_alpha   59.97970021
_cell_angle_beta   90.00000000
_cell_angle_gamma   90.00000000
_symmetry_Int_Tables_number   1
_chemical_formula_structural   MgPd5
_chemical_formula_sum   'Mg1 Pd5'
_cell_volume   91.01972943
_cell_formula_units_Z   1
loop_
 _symmetry_equiv_pos_site_id
 _symmetry_equiv_pos_as_xyz
  1  'x, y, z'
loop_
 _atom_site_type_symbol
 _atom_site_label
 _atom_site_symmetry_multiplicity
 _atom_site_fract_x
 _atom_site_fract_y
 _atom_site_fract_z
 _atom_site_occupancy
  Mg  Mg0  1  0.50000000  0.66649680  0.33349421  1
  Pd  Pd0  1  -0.00000000  0.33140229  0.33325409  1
  Pd  Pd1  1  0.50000000  0.99991321  0.66675355  1
  Pd  Pd2  1  -0.00000000  0.66677533  0.66862798  1
  Pd  Pd3  1  0.00000000  0.00220822  0.99781799  1
  Pd  Pd4  1  0.50000000  0.33320415  0.00005218  1
loop_
_geom_bond_atom_site_label_1
_geom_bond_atom_site_label_2
_geom_bond_distance
_geom_bond_site_symmetry_2
Mg0 Pd0 2.775882 1_655
Mg0 Pd0 2.775882 1_555
Mg0 Pd2 2.775991 1_655
Mg0 Pd2 2.775991 1_555
Mg0 Pd3 2.776913 1_564
Mg0 Pd3 2.776913 1_664
Mg0 Pd4 2.786068 1_556
Mg0 Pd1 2.786339 1_545
Mg0 Pd1 2.786832 1_554
Mg0 Pd4 2.786857 1_565
Mg0 Pd1 2.787498 1_555
Mg0 Pd4 2.787744 1_555
Pd0 Pd4 2.767659 1_455
Pd0 Pd4 2.767659 1_555
Pd0 Pd1 2.767946 1_445
Pd0 Pd1 2.767946 1_545
Pd0 Pd3 2.777778 1_555
Pd0 Pd2 2.778028 1_554
Pd0 Pd2 2.778194 1_545
Pd0 Pd3 2.778985 1_554
Pd0 Pd3 2.803989 1_564
Pd0 Pd2 2.804520 1_555
Pd1 Pd3 2.767420 1_665
Pd1 Pd3 2.767420 1_565
Pd1 Pd2 2.767434 1_555
Pd1 Pd2 2.767434 1_655
Pd1 Pd4 2.786668 1_565
Pd1 Pd4 2.786864 1_556
Pd1 Pd4 2.787138 1_566
Pd2 Pd4 2.767958 1_456
Pd2 Pd4 2.767958 1_556
Pd2 Pd3 2.777956 1_555
Pd2 Pd3 2.778956 1_565
Pd2 Pd3 2.803841 1_564
Pd3 Pd4 2.767197 1_556
Pd3 Pd4 2.767197 1_456
