# generated using pymatgen
data_K3Sm
_symmetry_space_group_name_H-M   'P 1'
_cell_length_a   7.80453053
_cell_length_b   7.80453053
_cell_length_c   7.80453053
_cell_angle_alpha   135.53197497
_cell_angle_beta   135.53197497
_cell_angle_gamma   64.70474517
_symmetry_Int_Tables_number   1
_chemical_formula_structural   K3Sm
_chemical_formula_sum   'K3 Sm1'
_cell_volume   229.99610557
_cell_formula_units_Z   1
loop_
 _symmetry_equiv_pos_site_id
 _symmetry_equiv_pos_as_xyz
  1  'x, y, z'
loop_
 _atom_site_type_symbol
 _atom_site_label
 _atom_site_symmetry_multiplicity
 _atom_site_fract_x
 _atom_site_fract_y
 _atom_site_fract_z
 _atom_site_occupancy
  K  K0  1  0.75000000  0.25000000  0.50000000  1
  K  K1  1  0.25000000  0.75000000  0.50000000  1
  K  K2  1  0.50000000  0.50000000  0.00000000  1
  Sm  Sm0  1  0.00000000  0.00000000  0.00000000  1
loop_
_geom_bond_atom_site_label_1
_geom_bond_atom_site_label_2
_geom_bond_distance
_geom_bond_site_symmetry_2
K0 K1 4.176398 1_555
K0 K1 4.176398 1_544
K0 K1 4.176398 1_656
K0 K1 4.176398 1_645
K0 K2 4.425861 1_656
K0 Sm0 4.425861 1_555
K0 Sm0 4.425861 1_656
K0 K2 4.425861 1_555
K0 Sm0 4.425861 1_655
K0 K2 4.425861 1_556
K0 Sm0 4.425861 1_666
K0 K2 4.425861 1_545
K1 K2 4.425861 1_566
K1 Sm0 4.425861 1_555
K1 K2 4.425861 1_455
K1 Sm0 4.425861 1_565
K1 Sm0 4.425861 1_566
K1 K2 4.425861 1_556
K1 Sm0 4.425861 1_666
K1 K2 4.425861 1_555
K2 Sm0 4.176398 1_565
K2 Sm0 4.176398 1_655
K2 Sm0 4.176398 1_666
K2 Sm0 4.176398 1_554
