# generated using pymatgen
data_Dy5Ni2Sb
_symmetry_space_group_name_H-M   'P 1'
_cell_length_a   7.62805259
_cell_length_b   7.62805302
_cell_length_c   8.51989807
_cell_angle_alpha   116.58110116
_cell_angle_beta   116.58109939
_cell_angle_gamma   90.01403391
_symmetry_Int_Tables_number   1
_chemical_formula_structural   Dy5Ni2Sb
_chemical_formula_sum   'Dy10 Ni4 Sb2'
_cell_volume   383.83057058
_cell_formula_units_Z   2
loop_
 _symmetry_equiv_pos_site_id
 _symmetry_equiv_pos_as_xyz
  1  'x, y, z'
loop_
 _atom_site_type_symbol
 _atom_site_label
 _atom_site_symmetry_multiplicity
 _atom_site_fract_x
 _atom_site_fract_y
 _atom_site_fract_z
 _atom_site_occupancy
  Dy  Dy0  1  0.20762094  0.02006360  0.72770081  1
  Dy  Dy1  1  0.02003793  0.52003793  0.72770272  1
  Dy  Dy2  1  0.70763219  0.20763219  0.72768000  1
  Dy  Dy3  1  0.97996207  0.47996207  0.27229728  1
  Dy  Dy4  1  0.52006360  0.70762094  0.72770081  1
  Dy  Dy5  1  0.79237906  0.97993640  0.27229919  1
  Dy  Dy6  1  0.47993640  0.29237906  0.27229919  1
  Dy  Dy7  1  0.29236781  0.79236781  0.27232000  1
  Dy  Dy8  1  0.50000000  0.50000000  -0.00000000  1
  Dy  Dy9  1  0.00000000  0.00000000  -0.00000000  1
  Ni  Ni0  1  0.36992758  0.86992758  0.00009061  1
  Ni  Ni1  1  0.13010900  0.36989100  0.00000000  1
  Ni  Ni2  1  0.63007242  0.13007242  0.99990939  1
  Ni  Ni3  1  0.86989100  0.63010900  -0.00000000  1
  Sb  Sb0  1  0.25000975  0.24999025  0.50000000  1
  Sb  Sb1  1  0.74999025  0.75000975  0.50000000  1
loop_
_geom_bond_atom_site_label_1
_geom_bond_atom_site_label_2
_geom_bond_distance
_geom_bond_site_symmetry_2
Dy0 Ni2 2.834771 1_555
Dy0 Ni0 2.835158 1_546
Dy0 Ni1 2.922453 1_556
Dy0 Sb0 3.248132 1_555
Dy0 Sb1 3.248449 1_445
Dy1 Ni3 2.834442 1_456
Dy1 Ni1 2.834442 1_556
Dy1 Ni0 2.922815 1_556
Dy1 Sb0 3.248897 1_555
Dy1 Sb1 3.248897 1_455
Dy2 Ni1 2.835013 1_656
Dy2 Ni3 2.835013 1_556
Dy2 Ni2 2.921540 1_555
Dy2 Sb0 3.248731 1_555
Dy2 Sb1 3.248731 1_545
Dy3 Ni1 2.834442 1_655
Dy3 Ni3 2.834442 1_555
Dy3 Ni2 2.922815 1_554
Dy3 Sb1 3.248897 1_555
Dy3 Sb0 3.248897 1_655
Dy4 Ni2 2.834771 1_565
Dy4 Ni0 2.835158 1_556
Dy4 Ni3 2.922453 1_556
Dy4 Sb1 3.248132 1_555
Dy4 Sb0 3.248449 1_555
Dy5 Ni0 2.834771 1_555
Dy5 Ni2 2.835158 1_564
Dy5 Ni3 2.922453 1_555
Dy5 Sb1 3.248132 1_555
Dy5 Sb0 3.248449 1_665
Dy6 Ni0 2.834771 1_545
Dy6 Ni2 2.835158 1_554
Dy6 Ni1 2.922453 1_555
Dy6 Sb0 3.248132 1_555
Dy6 Sb1 3.248449 1_555
Dy7 Ni3 2.835013 1_455
Dy7 Ni1 2.835013 1_555
Dy7 Ni0 2.921540 1_555
Dy7 Sb1 3.248731 1_555
Dy7 Sb0 3.248731 1_565
Dy8 Ni3 2.990782 1_555
Dy8 Ni1 2.990782 1_555
Dy8 Ni0 2.991200 1_555
Dy8 Ni2 2.991200 1_554
Dy8 Sb1 3.298240 1_555
Dy8 Sb0 3.298240 1_554
Dy9 Ni1 2.990782 1_555
Dy9 Ni3 2.990782 1_445
Dy9 Ni2 2.991200 1_454
Dy9 Ni0 2.991200 1_545
Dy9 Sb0 3.298240 1_555
Dy9 Sb1 3.298240 1_444
