# generated using pymatgen
data_Sm3Er
_symmetry_space_group_name_H-M   'P 1'
_cell_length_a   7.33801769
_cell_length_b   7.33802474
_cell_length_c   5.84689317
_cell_angle_alpha   90.00000000
_cell_angle_beta   90.00000000
_cell_angle_gamma   120.00003846
_symmetry_Int_Tables_number   1
_chemical_formula_structural   Sm3Er
_chemical_formula_sum   'Sm6 Er2'
_cell_volume   272.65505164
_cell_formula_units_Z   2
loop_
 _symmetry_equiv_pos_site_id
 _symmetry_equiv_pos_as_xyz
  1  'x, y, z'
loop_
 _atom_site_type_symbol
 _atom_site_label
 _atom_site_symmetry_multiplicity
 _atom_site_fract_x
 _atom_site_fract_y
 _atom_site_fract_z
 _atom_site_occupancy
  Sm  Sm0  1  0.16918150  0.33834932  0.25000000  1
  Sm  Sm1  1  0.66165081  0.83081908  0.25000000  1
  Sm  Sm2  1  0.16917221  0.83082904  0.25000000  1
  Sm  Sm3  1  0.83083730  0.66165735  0.75000000  1
  Sm  Sm4  1  0.33834083  0.16916263  0.75000000  1
  Sm  Sm5  1  0.83082677  0.16917510  0.75000000  1
  Er  Er0  1  0.33332928  0.66666976  0.75000000  1
  Er  Er1  1  0.66666332  0.33333473  0.25000000  1
loop_
_geom_bond_atom_site_label_1
_geom_bond_atom_site_label_2
_geom_bond_distance
_geom_bond_site_symmetry_2
Sm0 Sm1 3.613750 1_555
Sm0 Sm2 3.613862 1_555
Sm0 Sm4 3.629012 1_555
Sm0 Sm4 3.629012 1_554
Sm0 Sm5 3.629043 1_455
Sm0 Sm5 3.629043 1_454
Sm0 Sm2 3.724162 1_545
Sm0 Sm1 3.724267 1_445
Sm1 Sm2 3.613853 1_555
Sm1 Sm3 3.629020 1_554
Sm1 Sm3 3.629020 1_555
Sm1 Sm5 3.629049 1_565
Sm1 Sm5 3.629049 1_564
Sm1 Sm2 3.724164 1_655
Sm2 Sm4 3.628965 1_565
Sm2 Sm4 3.628965 1_564
Sm2 Sm3 3.628969 1_454
Sm2 Sm3 3.628969 1_455
Sm3 Sm5 3.613808 1_555
Sm3 Sm4 3.613941 1_555
Sm3 Sm4 3.724076 1_665
Sm3 Sm5 3.724216 1_565
Sm4 Sm5 3.613825 1_555
Sm4 Sm5 3.724193 1_455
Er0 Sm2 3.591615 1_555
Er0 Sm2 3.591615 1_556
Er0 Sm0 3.591630 1_556
Er0 Sm0 3.591630 1_555
Er0 Sm1 3.591633 1_555
Er0 Sm1 3.591633 1_556
Er0 Sm3 3.669043 1_455
Er0 Sm4 3.669056 1_565
Er0 Sm5 3.669136 1_455
Er0 Sm5 3.669157 1_565
Er0 Sm4 3.669245 1_555
Er0 Sm3 3.669252 1_555
Er1 Sm4 3.591636 1_555
Er1 Sm4 3.591636 1_554
Er1 Sm3 3.591638 1_554
Er1 Sm3 3.591638 1_555
Er1 Sm5 3.591640 1_555
Er1 Sm5 3.591640 1_554
Er1 Sm0 3.669067 1_555
Er1 Sm1 3.669082 1_555
Er1 Sm2 3.669135 1_545
Er1 Sm2 3.669159 1_655
Er1 Sm1 3.669220 1_545
Er1 Sm0 3.669227 1_655
