# generated using pymatgen
data_Ba2ZnCd
_symmetry_space_group_name_H-M   'P 1'
_cell_length_a   5.90577965
_cell_length_b   5.90577965
_cell_length_c   5.90577965
_cell_angle_alpha   60.00000000
_cell_angle_beta   60.00000000
_cell_angle_gamma   60.00000000
_symmetry_Int_Tables_number   1
_chemical_formula_structural   Ba2ZnCd
_chemical_formula_sum   'Ba2 Zn1 Cd1'
_cell_volume   145.65208959
_cell_formula_units_Z   1
loop_
 _symmetry_equiv_pos_site_id
 _symmetry_equiv_pos_as_xyz
  1  'x, y, z'
loop_
 _atom_site_type_symbol
 _atom_site_label
 _atom_site_symmetry_multiplicity
 _atom_site_fract_x
 _atom_site_fract_y
 _atom_site_fract_z
 _atom_site_occupancy
  Ba  Ba0  1  0.00000000  0.00000000  0.00000000  1
  Ba  Ba1  1  0.50000100  0.50000100  0.50000100  1
  Zn  Zn0  1  0.75000000  0.75000000  0.75000000  1
  Cd  Cd0  1  0.25000000  0.25000000  0.25000000  1
loop_
_geom_bond_atom_site_label_1
_geom_bond_atom_site_label_2
_geom_bond_distance
_geom_bond_site_symmetry_2
Ba0 Cd0 3.616537 1_555
Ba0 Cd0 3.616537 1_554
Ba0 Zn0 3.616537 1_445
Ba0 Zn0 3.616537 1_444
Ba0 Cd0 3.616537 1_545
Ba0 Cd0 3.616537 1_455
Ba0 Zn0 3.616537 1_454
Ba0 Zn0 3.616537 1_544
Ba1 Zn0 3.616522 1_555
Ba1 Cd0 3.616532 1_556
Ba1 Cd0 3.616532 1_655
Ba1 Cd0 3.616532 1_565
Ba1 Zn0 3.616541 1_545
Ba1 Zn0 3.616541 1_455
Ba1 Zn0 3.616541 1_554
Ba1 Cd0 3.616551 1_555
