# generated using pymatgen
data_SmSiAg
_symmetry_space_group_name_H-M   'P 1'
_cell_length_a   7.14126651
_cell_length_b   7.14127639
_cell_length_c   4.26795956
_cell_angle_alpha   90.00005593
_cell_angle_beta   89.99997783
_cell_angle_gamma   120.00011534
_symmetry_Int_Tables_number   1
_chemical_formula_structural   SmSiAg
_chemical_formula_sum   'Sm3 Si3 Ag3'
_cell_volume   188.49572542
_cell_formula_units_Z   3
loop_
 _symmetry_equiv_pos_site_id
 _symmetry_equiv_pos_as_xyz
  1  'x, y, z'
loop_
 _atom_site_type_symbol
 _atom_site_label
 _atom_site_symmetry_multiplicity
 _atom_site_fract_x
 _atom_site_fract_y
 _atom_site_fract_z
 _atom_site_occupancy
  Sm  Sm0  1  0.58258148  0.00001208  0.50000000  1
  Sm  Sm1  1  0.41743880  0.41743880  0.50000100  1
  Sm  Sm2  1  0.00001208  0.58258148  0.50000100  1
  Si  Si0  1  0.66667678  0.33334270  0.00000100  1
  Si  Si1  1  0.33334370  0.66667678  -0.00000000  1
  Si  Si2  1  0.00000993  0.00000893  0.50000100  1
  Ag  Ag0  1  0.24773214  0.00001306  0.00000000  1
  Ag  Ag1  1  0.00001306  0.24773114  -0.00000000  1
  Ag  Ag2  1  0.75229202  0.75229102  0.00000000  1
loop_
_geom_bond_atom_site_label_1
_geom_bond_atom_site_label_2
_geom_bond_distance
_geom_bond_site_symmetry_2
Si0 Sm0 3.025112 1_555
Si0 Sm0 3.025115 1_554
Si0 Sm1 3.025128 1_555
Si0 Sm1 3.025129 1_554
Si0 Sm2 3.025130 1_655
Si0 Sm2 3.025131 1_654
Si1 Sm2 3.025113 1_554
Si1 Sm2 3.025118 1_555
Si1 Sm1 3.025122 1_554
Si1 Sm0 3.025130 1_565
Si1 Sm1 3.025131 1_555
Si1 Sm0 3.025132 1_564
Si2 Sm1 2.980971 1_555
Si2 Sm2 2.980972 1_545
Si2 Sm0 2.980979 1_455
Ag0 Si0 2.737781 1_555
Ag0 Si1 2.737819 1_545
Ag0 Si2 2.771884 1_554
Ag0 Si2 2.771890 1_555
Ag0 Ag1 3.064044 1_555
Ag0 Ag2 3.064055 1_445
Ag0 Sm0 3.204989 1_554
Ag0 Sm0 3.204990 1_555
Ag0 Sm1 3.360952 1_554
Ag0 Sm1 3.360955 1_555
Ag0 Sm2 3.360975 1_544
Ag0 Sm2 3.360983 1_545
Ag1 Si1 2.737790 1_555
Ag1 Si0 2.737817 1_455
Ag1 Si2 2.771886 1_554
Ag1 Si2 2.771895 1_555
Ag1 Ag2 3.064059 1_445
Ag1 Sm2 3.204996 1_554
Ag1 Sm2 3.204998 1_555
Ag1 Sm1 3.360947 1_554
Ag1 Sm1 3.360953 1_555
Ag1 Sm0 3.360976 1_454
Ag1 Sm0 3.360976 1_455
Ag2 Si1 2.737811 1_555
Ag2 Si0 2.737813 1_555
Ag2 Si2 2.771873 1_664
Ag2 Si2 2.771878 1_665
Ag2 Sm1 3.204999 1_554
Ag2 Sm1 3.205006 1_555
Ag2 Sm2 3.360969 1_654
Ag2 Sm2 3.360976 1_655
Ag2 Sm0 3.360981 1_565
Ag2 Sm0 3.360984 1_564
