# generated using pymatgen
data_SnBrF
_symmetry_space_group_name_H-M   'P 1'
_cell_length_a   4.10625700
_cell_length_b   4.10625700
_cell_length_c   7.89828600
_cell_angle_alpha   90.00000000
_cell_angle_beta   90.00000000
_cell_angle_gamma   90.00000000
_symmetry_Int_Tables_number   1
_chemical_formula_structural   SnBrF
_chemical_formula_sum   'Sn2 Br2 F2'
_cell_volume   133.17573740
_cell_formula_units_Z   2
loop_
 _symmetry_equiv_pos_site_id
 _symmetry_equiv_pos_as_xyz
  1  'x, y, z'
loop_
 _atom_site_type_symbol
 _atom_site_label
 _atom_site_symmetry_multiplicity
 _atom_site_fract_x
 _atom_site_fract_y
 _atom_site_fract_z
 _atom_site_occupancy
  Sn  Sn0  1  0.00000000  0.50000000  0.81165500  1
  Sn  Sn1  1  0.50000000  0.00000000  0.18834500  1
  Br  Br0  1  0.50000000  0.00000000  0.65311300  1
  Br  Br1  1  0.00000000  0.50000000  0.34688700  1
  F  F0  1  0.50000000  0.50000000  0.00000000  1
  F  F1  1  0.00000000  0.00000000  0.00000000  1
loop_
_geom_bond_atom_site_label_1
_geom_bond_atom_site_label_2
_geom_bond_distance
_geom_bond_site_symmetry_2
Br0 Sn0 3.162073 1_655
Br0 Sn0 3.162073 1_545
Br0 Sn0 3.162073 1_555
Br0 Sn0 3.162073 1_645
Br1 Sn1 3.162073 1_455
Br1 Sn1 3.162073 1_555
Br1 Sn1 3.162073 1_465
Br1 Sn1 3.162073 1_565
F0 Sn1 2.535409 1_555
F0 Sn1 2.535409 1_565
F0 Sn0 2.535409 1_654
F0 Sn0 2.535409 1_554
F1 Sn1 2.535409 1_455
F1 Sn1 2.535409 1_555
F1 Sn0 2.535409 1_544
F1 Sn0 2.535409 1_554
