# generated using pymatgen
data_Tm(Mg4Al3)4
_symmetry_space_group_name_H-M   'P 1'
_cell_length_a   9.11846461
_cell_length_b   9.11846461
_cell_length_c   9.11846461
_cell_angle_alpha   109.47122063
_cell_angle_beta   109.47122063
_cell_angle_gamma   109.47122063
_symmetry_Int_Tables_number   1
_chemical_formula_structural   Tm(Mg4Al3)4
_chemical_formula_sum   'Tm1 Mg16 Al12'
_cell_volume   583.63759691
_cell_formula_units_Z   1
loop_
 _symmetry_equiv_pos_site_id
 _symmetry_equiv_pos_as_xyz
  1  'x, y, z'
loop_
 _atom_site_type_symbol
 _atom_site_label
 _atom_site_symmetry_multiplicity
 _atom_site_fract_x
 _atom_site_fract_y
 _atom_site_fract_z
 _atom_site_occupancy
  Tm  Tm0  1  0.00000000  0.00000000  0.00000000  1
  Mg  Mg0  1  0.31901400  0.60315100  0.00000000  1
  Mg  Mg1  1  0.60315100  0.31901400  0.00000000  1
  Mg  Mg2  1  0.35605400  0.00000000  0.00000000  1
  Mg  Mg3  1  0.00000000  0.35605400  0.00000000  1
  Mg  Mg4  1  0.39684900  0.39684900  0.71586200  1
  Mg  Mg5  1  0.28413800  0.68098600  0.68098600  1
  Mg  Mg6  1  0.68098600  0.28413800  0.68098600  1
  Mg  Mg7  1  0.64394600  0.64394600  0.64394600  1
  Mg  Mg8  1  0.31901400  0.00000000  0.60315100  1
  Mg  Mg9  1  0.00000000  0.31901400  0.60315100  1
  Mg  Mg10  1  0.71586200  0.39684900  0.39684900  1
  Mg  Mg11  1  0.39684900  0.71586200  0.39684900  1
  Mg  Mg12  1  0.00000000  0.00000000  0.35605400  1
  Mg  Mg13  1  0.60315100  0.00000000  0.31901400  1
  Mg  Mg14  1  0.00000000  0.60315100  0.31901400  1
  Mg  Mg15  1  0.68098600  0.68098600  0.28413800  1
  Al  Al0  1  0.81377900  0.63289900  0.00000000  1
  Al  Al1  1  0.63289900  0.81377900  0.00000000  1
  Al  Al2  1  0.18622100  0.18622100  0.81912000  1
  Al  Al3  1  0.63289900  0.00000000  0.81377900  1
  Al  Al4  1  0.00000000  0.63289900  0.81377900  1
  Al  Al5  1  0.00000000  0.81377900  0.63289900  1
  Al  Al6  1  0.81377900  0.00000000  0.63289900  1
  Al  Al7  1  0.18088000  0.36710100  0.36710100  1
  Al  Al8  1  0.36710100  0.18088000  0.36710100  1
  Al  Al9  1  0.18622100  0.81912000  0.18622100  1
  Al  Al10  1  0.81912000  0.18622100  0.18622100  1
  Al  Al11  1  0.36710100  0.36710100  0.18088000  1
loop_
_geom_bond_atom_site_label_1
_geom_bond_atom_site_label_2
_geom_bond_distance
_geom_bond_site_symmetry_2
Mg0 Mg3 3.028034 1_555
Mg0 Mg15 3.101928 1_555
Mg0 Mg4 3.101931 1_554
Mg0 Mg9 3.158604 1_554
Mg0 Mg13 3.158604 1_565
Mg0 Mg11 3.158605 1_555
Mg0 Mg5 3.158605 1_554
Mg1 Mg2 3.028034 1_555
Mg1 Mg15 3.101928 1_555
Mg1 Mg4 3.101931 1_554
Mg1 Mg14 3.158604 1_655
Mg1 Mg8 3.158604 1_554
Mg1 Mg10 3.158605 1_555
Mg1 Mg6 3.158605 1_554
Mg2 Mg5 3.028038 1_544
Mg2 Tm0 3.246666 1_555
Mg3 Mg6 3.028038 1_454
Mg3 Tm0 3.246666 1_555
Mg4 Mg7 3.028028 1_555
Mg4 Mg6 3.158597 1_555
Mg4 Mg5 3.158597 1_555
Mg4 Mg9 3.158605 1_555
Mg4 Mg8 3.158605 1_555
Mg5 Mg9 3.101928 1_555
Mg5 Mg8 3.158605 1_565
Mg6 Mg8 3.101928 1_555
Mg6 Mg9 3.158605 1_655
Mg7 Tm0 3.246666 1_666
Mg10 Mg7 3.028028 1_555
Mg10 Mg9 3.101931 1_655
Mg10 Mg14 3.101931 1_655
Mg10 Mg15 3.158597 1_555
Mg10 Mg6 3.158597 1_555
Mg10 Mg13 3.158605 1_555
Mg11 Mg7 3.028028 1_555
Mg11 Mg8 3.101931 1_565
Mg11 Mg13 3.101931 1_565
Mg11 Mg5 3.158597 1_555
Mg11 Mg15 3.158597 1_555
Mg11 Mg14 3.158605 1_555
Mg12 Mg8 3.028034 1_555
Mg12 Mg9 3.028034 1_555
Mg12 Mg15 3.028038 1_445
Mg12 Tm0 3.246666 1_555
Mg13 Mg2 3.028034 1_555
Mg13 Mg6 3.101928 1_555
Mg13 Mg9 3.158604 1_655
Mg13 Mg15 3.158605 1_545
Mg14 Mg3 3.028034 1_555
Mg14 Mg5 3.101928 1_555
Mg14 Mg8 3.158604 1_565
Mg14 Mg15 3.158605 1_455
Al0 Al1 2.693374 1_555
Al0 Al9 2.772903 1_655
Al0 Al4 2.772903 1_654
Al0 Mg1 2.866342 1_555
Al0 Mg6 2.993133 1_554
Al0 Mg14 2.993138 1_655
Al0 Mg7 3.149497 1_554
Al0 Mg12 3.149497 1_665
Al0 Mg4 3.171637 1_554
Al0 Mg15 3.171644 1_555
Al0 Tm0 3.209218 1_665
Al1 Al10 2.772903 1_565
Al1 Al3 2.772903 1_564
Al1 Mg0 2.866342 1_555
Al1 Mg5 2.993133 1_554
Al1 Mg13 2.993138 1_565
Al1 Mg7 3.149497 1_554
Al1 Mg12 3.149497 1_665
Al1 Mg4 3.171637 1_554
Al1 Mg15 3.171644 1_555
Al1 Tm0 3.209218 1_665
Al2 Al5 2.772903 1_545
Al2 Al6 2.772903 1_455
Al2 Mg4 2.866349 1_555
Al2 Mg8 2.993138 1_555
Al2 Mg9 2.993138 1_555
Al2 Mg2 3.149497 1_556
Al2 Mg3 3.149497 1_556
Al2 Mg0 3.171636 1_556
Al2 Mg1 3.171636 1_556
Al2 Tm0 3.209218 1_556
Al3 Al6 2.693374 1_555
Al3 Mg8 2.866342 1_555
Al3 Mg5 2.993133 1_545
Al3 Mg1 2.993138 1_556
Al3 Mg3 3.149497 1_656
Al3 Mg7 3.149497 1_545
Al3 Mg11 3.171637 1_545
Al3 Mg6 3.171644 1_555
Al3 Tm0 3.209218 1_656
Al4 Al5 2.693374 1_555
Al4 Al9 2.772903 1_556
Al4 Mg9 2.866342 1_555
Al4 Mg6 2.993133 1_455
Al4 Mg0 2.993138 1_556
Al4 Mg2 3.149497 1_566
Al4 Mg7 3.149497 1_455
Al4 Mg10 3.171637 1_455
Al4 Mg5 3.171644 1_555
Al4 Tm0 3.209218 1_566
Al5 Al6 2.772903 1_465
Al5 Mg14 2.866342 1_555
Al5 Mg15 2.993133 1_455
Al5 Mg8 2.993138 1_565
Al5 Mg2 3.149497 1_566
Al5 Mg7 3.149497 1_455
Al5 Mg10 3.171637 1_455
Al5 Mg5 3.171644 1_555
Al5 Tm0 3.209218 1_566
Al6 Mg13 2.866342 1_555
Al6 Mg15 2.993133 1_545
Al6 Mg9 2.993138 1_655
Al6 Mg7 3.149497 1_545
Al6 Mg3 3.149497 1_656
Al6 Mg11 3.171637 1_545
Al6 Mg6 3.171644 1_555
Al6 Tm0 3.209218 1_656
Al7 Al8 2.772903 1_555
Al7 Mg5 2.866339 1_555
Al7 Mg11 2.993131 1_555
Al7 Mg4 2.993131 1_555
Al7 Mg3 3.149497 1_555
Al7 Mg12 3.149497 1_555
Al7 Mg9 3.171636 1_555
Al7 Mg14 3.171636 1_555
Al7 Tm0 3.209218 1_555
Al8 Al9 2.693374 1_545
Al8 Mg6 2.866339 1_555
Al8 Mg10 2.993131 1_555
Al8 Mg4 2.993131 1_555
Al8 Mg2 3.149497 1_555
Al8 Mg12 3.149497 1_555
Al8 Mg8 3.171636 1_555
Al8 Mg13 3.171636 1_555
Al8 Tm0 3.209218 1_555
Al9 Mg11 2.866349 1_555
Al9 Mg0 2.993138 1_555
Al9 Mg14 2.993138 1_555
Al9 Mg12 3.149497 1_565
Al9 Mg2 3.149497 1_565
Al9 Mg8 3.171636 1_565
Al9 Mg13 3.171636 1_565
Al9 Tm0 3.209218 1_565
Al10 Al7 2.693374 1_655
Al10 Al3 2.772903 1_554
Al10 Mg10 2.866349 1_555
Al10 Mg1 2.993138 1_555
Al10 Mg13 2.993138 1_555
Al10 Mg12 3.149497 1_655
Al10 Mg3 3.149497 1_655
Al10 Mg9 3.171636 1_655
Al10 Mg14 3.171636 1_655
Al10 Tm0 3.209218 1_655
Al11 Al2 2.693374 1_554
Al11 Al8 2.772903 1_555
Al11 Al7 2.772903 1_555
Al11 Mg15 2.866339 1_555
Al11 Mg10 2.993131 1_555
Al11 Mg11 2.993131 1_555
Al11 Mg2 3.149497 1_555
Al11 Mg3 3.149497 1_555
Al11 Mg1 3.171636 1_555
Al11 Mg0 3.171636 1_555
Al11 Tm0 3.209218 1_555
