# generated using pymatgen
data_NpSb3
_symmetry_space_group_name_H-M   'P 1'
_cell_length_a   6.46561402
_cell_length_b   6.46561402
_cell_length_c   5.83423900
_cell_angle_alpha   90.00000000
_cell_angle_beta   90.00000000
_cell_angle_gamma   120.00000022
_symmetry_Int_Tables_number   1
_chemical_formula_structural   NpSb3
_chemical_formula_sum   'Np2 Sb6'
_cell_volume   211.21968793
_cell_formula_units_Z   2
loop_
 _symmetry_equiv_pos_site_id
 _symmetry_equiv_pos_as_xyz
  1  'x, y, z'
loop_
 _atom_site_type_symbol
 _atom_site_label
 _atom_site_symmetry_multiplicity
 _atom_site_fract_x
 _atom_site_fract_y
 _atom_site_fract_z
 _atom_site_occupancy
  Np  Np0  1  0.33333300  0.66666700  0.75000000  1
  Np  Np1  1  0.66666700  0.33333300  0.25000000  1
  Sb  Sb0  1  0.17295200  0.34590400  0.25000000  1
  Sb  Sb1  1  0.65409600  0.82704800  0.25000000  1
  Sb  Sb2  1  0.17295200  0.82704800  0.25000000  1
  Sb  Sb3  1  0.82704800  0.65409600  0.75000000  1
  Sb  Sb4  1  0.34590400  0.17295200  0.75000000  1
  Sb  Sb5  1  0.82704800  0.17295200  0.75000000  1
loop_
_geom_bond_atom_site_label_1
_geom_bond_atom_site_label_2
_geom_bond_distance
_geom_bond_site_symmetry_2
Np0 Sb4 3.233570 1_565
Np0 Sb3 3.233570 1_455
Np0 Sb5 3.233573 1_565
Np0 Sb5 3.233573 1_455
Np0 Sb3 3.233576 1_555
Np0 Sb4 3.233576 1_555
Np0 Sb2 3.425705 1_555
Np0 Sb2 3.425705 1_556
Np0 Sb0 3.425708 1_555
Np0 Sb0 3.425708 1_556
Np0 Sb1 3.425708 1_555
Np0 Sb1 3.425708 1_556
Np1 Sb1 3.233570 1_545
Np1 Sb0 3.233570 1_655
Np1 Sb2 3.233573 1_655
Np1 Sb2 3.233573 1_545
Np1 Sb0 3.233576 1_555
Np1 Sb1 3.233576 1_555
Np1 Sb5 3.425705 1_555
Np1 Sb5 3.425705 1_554
Np1 Sb4 3.425708 1_555
Np1 Sb4 3.425708 1_554
Np1 Sb3 3.425708 1_555
Np1 Sb3 3.425708 1_554
