# generated using pymatgen
data_SmZnIn
_symmetry_space_group_name_H-M   'P 1'
_cell_length_a   4.65816477
_cell_length_b   4.65816495
_cell_length_c   7.55821853
_cell_angle_alpha   90.00000000
_cell_angle_beta   90.00000000
_cell_angle_gamma   119.99408341
_symmetry_Int_Tables_number   1
_chemical_formula_structural   SmZnIn
_chemical_formula_sum   'Sm2 Zn2 In2'
_cell_volume   142.03836833
_cell_formula_units_Z   2
loop_
 _symmetry_equiv_pos_site_id
 _symmetry_equiv_pos_as_xyz
  1  'x, y, z'
loop_
 _atom_site_type_symbol
 _atom_site_label
 _atom_site_symmetry_multiplicity
 _atom_site_fract_x
 _atom_site_fract_y
 _atom_site_fract_z
 _atom_site_occupancy
  Sm  Sm0  1  -0.00000000  0.00000000  -0.00000000  1
  Sm  Sm1  1  -0.00000000  0.00000000  0.49999900  1
  Zn  Zn0  1  0.33335309  0.66664791  0.74999900  1
  Zn  Zn1  1  0.66664791  0.33335309  0.25000000  1
  In  In0  1  0.33337963  0.66661937  0.25000000  1
  In  In1  1  0.66662337  0.33338063  0.74999900  1
loop_
_geom_bond_atom_site_label_1
_geom_bond_atom_site_label_2
_geom_bond_distance
_geom_bond_site_symmetry_2
Sm0 Zn1 3.286891 1_455
Sm0 Zn0 3.286896 1_544
Sm0 Zn1 3.286896 1_445
Sm0 Zn1 3.286899 1_555
Sm0 Zn0 3.286900 1_444
Sm0 Zn0 3.286903 1_554
Sm1 Zn1 3.286887 1_455
Sm1 Zn0 3.286891 1_545
Sm1 Zn1 3.286891 1_445
Sm1 Zn1 3.286895 1_555
Sm1 Zn0 3.286896 1_445
Sm1 Zn0 3.286899 1_555
In0 Zn1 2.688780 1_555
In0 Zn1 2.689815 1_455
In0 Zn1 2.689824 1_565
In0 Sm1 3.286801 1_555
In0 Sm1 3.286804 1_665
In0 Sm0 3.286805 1_555
In0 Sm0 3.286808 1_665
In0 Sm1 3.287069 1_565
In0 Sm0 3.287073 1_565
In1 Zn0 2.688792 1_555
In1 Zn0 2.689807 1_655
In1 Zn0 2.689820 1_545
In1 Sm1 3.286805 1_665
In1 Sm0 3.286809 1_666
In1 Sm1 3.286818 1_555
In1 Sm0 3.286822 1_556
In1 Sm1 3.287063 1_655
In1 Sm0 3.287068 1_656
