# generated using pymatgen
data_CdAuO2
_symmetry_space_group_name_H-M   'P 1'
_cell_length_a   4.07632466
_cell_length_b   5.50110820
_cell_length_c   6.00284801
_cell_angle_alpha   64.26961821
_cell_angle_beta   73.97851352
_cell_angle_gamma   86.64418701
_symmetry_Int_Tables_number   1
_chemical_formula_structural   CdAuO2
_chemical_formula_sum   'Cd2 Au2 O4'
_cell_volume   116.26035595
_cell_formula_units_Z   2
loop_
 _symmetry_equiv_pos_site_id
 _symmetry_equiv_pos_as_xyz
  1  'x, y, z'
loop_
 _atom_site_type_symbol
 _atom_site_label
 _atom_site_symmetry_multiplicity
 _atom_site_fract_x
 _atom_site_fract_y
 _atom_site_fract_z
 _atom_site_occupancy
  Cd  Cd0  1  0.72699344  0.73065468  0.53046992  1
  Cd  Cd1  1  0.27300656  0.26934532  0.46953008  1
  Au  Au0  1  0.50000000  0.00000000  -0.00000000  1
  Au  Au1  1  0.00000000  0.50000000  -0.00000000  1
  O  O0  1  0.31897865  0.83780681  0.80940303  1
  O  O1  1  0.68102135  0.16219319  0.19059697  1
  O  O2  1  0.28150590  0.72044769  0.35905968  1
  O  O3  1  0.71849410  0.27955231  0.64094032  1
loop_
_geom_bond_atom_site_label_1
_geom_bond_atom_site_label_2
_geom_bond_distance
_geom_bond_site_symmetry_2
Cd0 O2 2.218703 1_655
Cd0 O0 2.263240 1_555
Cd0 O3 2.273245 1_555
Cd0 O2 2.335185 1_555
Cd0 O1 2.405572 1_565
Cd1 O3 2.218703 1_455
Cd1 O1 2.263240 1_555
Cd1 O2 2.273245 1_555
Cd1 O3 2.335185 1_555
Cd1 O0 2.405572 1_545
Au0 O3 2.006632 1_554
Au0 O2 2.006632 1_545
Au0 O1 2.019674 1_555
Au0 O0 2.019674 1_544
Au1 O0 2.017090 1_554
Au1 O1 2.017090 1_455
