# generated using pymatgen
data_LiTi2O4
_symmetry_space_group_name_H-M   'P 1'
_cell_length_a   3.85105100
_cell_length_b   8.24631700
_cell_length_c   9.05297884
_cell_angle_alpha   89.96343137
_cell_angle_beta   90.00000000
_cell_angle_gamma   90.00000000
_symmetry_Int_Tables_number   1
_chemical_formula_structural   LiTi2O4
_chemical_formula_sum   'Li4 Ti8 O16'
_cell_volume   287.49527588
_cell_formula_units_Z   4
loop_
 _symmetry_equiv_pos_site_id
 _symmetry_equiv_pos_as_xyz
  1  'x, y, z'
loop_
 _atom_site_type_symbol
 _atom_site_label
 _atom_site_symmetry_multiplicity
 _atom_site_fract_x
 _atom_site_fract_y
 _atom_site_fract_z
 _atom_site_occupancy
  Li  Li0  1  0.25000000  0.49674000  0.90179500  1
  Li  Li1  1  0.75000000  0.50326000  0.09820500  1
  Li  Li2  1  0.75000000  0.75071600  0.40781400  1
  Li  Li3  1  0.25000000  0.24928400  0.59218600  1
  Ti  Ti0  1  0.25000000  0.77566000  0.13024300  1
  Ti  Ti1  1  0.25000000  0.23818200  0.14185500  1
  Ti  Ti2  1  0.25000000  0.48705600  0.35986600  1
  Ti  Ti3  1  0.25000000  0.00989000  0.36297100  1
  Ti  Ti4  1  0.75000000  0.99011000  0.63702900  1
  Ti  Ti5  1  0.75000000  0.51294400  0.64013400  1
  Ti  Ti6  1  0.75000000  0.76181800  0.85814500  1
  Ti  Ti7  1  0.75000000  0.22434000  0.86975700  1
  O  O0  1  0.25000000  0.74148600  0.89966800  1
  O  O1  1  0.25000000  0.25346600  0.90361100  1
  O  O2  1  0.75000000  0.74653400  0.09638900  1
  O  O3  1  0.75000000  0.25851400  0.10033200  1
  O  O4  1  0.25000000  0.00240100  0.14083500  1
  O  O5  1  0.25000000  0.50107800  0.14501300  1
  O  O6  1  0.25000000  0.74897400  0.34240000  1
  O  O7  1  0.25000000  0.25158000  0.36436500  1
  O  O8  1  0.75000000  0.50750900  0.39953000  1
  O  O9  1  0.75000000  0.99224100  0.40181000  1
  O  O10  1  0.25000000  0.00775900  0.59819000  1
  O  O11  1  0.25000000  0.49249100  0.60047000  1
  O  O12  1  0.75000000  0.74842000  0.63563500  1
  O  O13  1  0.75000000  0.25102600  0.65760000  1
  O  O14  1  0.75000000  0.49892200  0.85498700  1
  O  O15  1  0.75000000  0.99759900  0.85916500  1
loop_
_geom_bond_atom_site_label_1
_geom_bond_atom_site_label_2
_geom_bond_distance
_geom_bond_site_symmetry_2
Li0 O14 1.971682 1_555
Li0 O14 1.971682 1_455
Li0 O1 2.006171 1_555
Li0 O0 2.018333 1_555
Li0 O5 2.202161 1_556
Li1 O5 1.971682 1_655
Li1 O5 1.971682 1_555
Li1 O2 2.006171 1_555
Li1 O3 2.018333 1_555
Li1 O14 2.202161 1_554
Li2 O9 1.992399 1_555
Li2 O8 2.007012 1_555
Li2 O6 2.014586 1_655
Li2 O6 2.014586 1_555
Li2 O12 2.062534 1_555
Li3 O10 1.992399 1_555
Li3 O11 2.007012 1_555
Li3 O13 2.014586 1_455
Li3 O13 2.014586 1_555
Li3 O7 2.062534 1_555
O0 Ti6 1.969006 1_555
O0 Ti6 1.969006 1_455
O0 Ti0 2.106506 1_556
O1 Ti7 1.964525 1_455
O1 Ti7 1.964525 1_555
O1 Ti1 2.160417 1_556
O2 Ti0 1.964525 1_555
O2 Ti0 1.964525 1_655
O2 Ti6 2.160417 1_554
O3 Ti1 1.969006 1_555
O3 Ti1 1.969006 1_655
O3 Ti7 2.106506 1_554
O4 Ti0 1.872296 1_545
O4 Ti1 1.944353 1_555
O4 Ti3 2.011980 1_555
O5 Ti2 1.948420 1_555
O5 Ti1 2.168131 1_555
O5 Ti0 2.268150 1_555
O6 Ti0 1.933079 1_555
O6 Ti3 2.159759 1_565
O6 Ti2 2.165538 1_555
O7 Ti2 1.942211 1_555
O7 Ti3 1.993100 1_555
O7 Ti1 2.017476 1_555
O8 Ti2 1.965988 1_555
O8 Ti2 1.965988 1_655
O8 Ti5 2.178673 1_555
O9 Ti3 1.962751 1_565
O9 Ti3 1.962751 1_665
O9 Ti4 2.129494 1_555
O10 Ti4 1.962751 1_445
O10 Ti4 1.962751 1_545
O10 Ti3 2.129494 1_555
O11 Ti5 1.965988 1_455
O11 Ti5 1.965988 1_555
O11 Ti2 2.178673 1_555
O12 Ti5 1.942211 1_555
O12 Ti4 1.993100 1_555
O12 Ti6 2.017476 1_555
O13 Ti7 1.933079 1_555
O13 Ti4 2.159759 1_545
O13 Ti5 2.165538 1_555
O14 Ti5 1.948420 1_555
O14 Ti6 2.168131 1_555
O14 Ti7 2.268150 1_555
O15 Ti7 1.872296 1_565
O15 Ti6 1.944353 1_555
O15 Ti4 2.011980 1_555
