# generated using pymatgen
data_LuFeGe2
_symmetry_space_group_name_H-M   'P 1'
_cell_length_a   8.64627552
_cell_length_b   8.64627552
_cell_length_c   4.14074400
_cell_angle_alpha   90.00000000
_cell_angle_beta   90.00000000
_cell_angle_gamma   153.02003460
_symmetry_Int_Tables_number   1
_chemical_formula_structural   LuFeGe2
_chemical_formula_sum   'Lu2 Fe2 Ge4'
_cell_volume   140.43815541
_cell_formula_units_Z   2
loop_
 _symmetry_equiv_pos_site_id
 _symmetry_equiv_pos_as_xyz
  1  'x, y, z'
loop_
 _atom_site_type_symbol
 _atom_site_label
 _atom_site_symmetry_multiplicity
 _atom_site_fract_x
 _atom_site_fract_y
 _atom_site_fract_z
 _atom_site_occupancy
  Lu  Lu0  1  0.11034500  0.88965500  0.25000000  1
  Lu  Lu1  1  0.88965500  0.11034500  0.75000000  1
  Fe  Fe0  1  0.32211000  0.67789000  0.25000000  1
  Fe  Fe1  1  0.67789000  0.32211000  0.75000000  1
  Ge  Ge0  1  0.74748800  0.25251200  0.25000000  1
  Ge  Ge1  1  0.25251200  0.74748800  0.75000000  1
  Ge  Ge2  1  0.45586600  0.54413400  0.25000000  1
  Ge  Ge3  1  0.54413400  0.45586600  0.75000000  1
loop_
_geom_bond_atom_site_label_1
_geom_bond_atom_site_label_2
_geom_bond_distance
_geom_bond_site_symmetry_2
Fe0 Ge2 2.249169 1_555
Fe0 Ge0 2.375431 1_455
Fe0 Ge0 2.375431 1_565
Fe0 Ge1 2.378255 1_555
Fe0 Ge1 2.378255 1_554
Fe0 Lu1 3.105579 1_455
Fe0 Lu1 3.105579 1_454
Fe0 Lu1 3.105579 1_564
Fe0 Lu1 3.105579 1_565
Fe1 Ge3 2.249169 1_555
Fe1 Ge1 2.375431 1_545
Fe1 Ge1 2.375431 1_655
Fe1 Ge0 2.378255 1_555
Fe1 Ge0 2.378255 1_556
Fe1 Lu0 3.105579 1_545
Fe1 Lu0 3.105579 1_546
Fe1 Lu0 3.105579 1_655
Fe1 Lu0 3.105579 1_656
Ge0 Lu0 3.063714 1_655
Ge0 Lu0 3.063714 1_545
Ge0 Lu1 3.162503 1_555
Ge0 Lu1 3.162503 1_554
Ge1 Lu1 3.063714 1_455
Ge1 Lu1 3.063714 1_565
Ge1 Lu0 3.162503 1_556
Ge1 Lu0 3.162503 1_555
Ge2 Ge3 2.547448 1_555
Ge2 Ge3 2.547448 1_554
Ge2 Lu1 3.097446 1_564
Ge2 Lu1 3.097446 1_565
Ge2 Lu1 3.097446 1_455
Ge2 Lu1 3.097446 1_454
Ge2 Lu0 3.288746 1_655
Ge2 Lu0 3.288746 1_545
Ge3 Lu0 3.097446 1_656
Ge3 Lu0 3.097446 1_655
Ge3 Lu0 3.097446 1_545
Ge3 Lu0 3.097446 1_546
Ge3 Lu1 3.288746 1_565
Ge3 Lu1 3.288746 1_455
