# generated using pymatgen
data_TiAu
_symmetry_space_group_name_H-M   'P 1'
_cell_length_a   4.61507137
_cell_length_b   2.95519440
_cell_length_c   4.94751300
_cell_angle_alpha   90.00000000
_cell_angle_beta   90.00000000
_cell_angle_gamma   90.00000000
_symmetry_Int_Tables_number   1
_chemical_formula_structural   TiAu
_chemical_formula_sum   'Ti2 Au2'
_cell_volume   67.47632490
_cell_formula_units_Z   2
loop_
 _symmetry_equiv_pos_site_id
 _symmetry_equiv_pos_as_xyz
  1  'x, y, z'
loop_
 _atom_site_type_symbol
 _atom_site_label
 _atom_site_symmetry_multiplicity
 _atom_site_fract_x
 _atom_site_fract_y
 _atom_site_fract_z
 _atom_site_occupancy
  Ti  Ti0  1  0.25000000  -0.00000000  0.32019001  1
  Ti  Ti1  1  0.75000000  -0.00000000  0.67980899  1
  Au  Au0  1  0.25000000  0.50000000  0.82410998  1
  Au  Au1  1  0.75000000  0.50000000  0.17589002  1
loop_
_geom_bond_atom_site_label_1
_geom_bond_atom_site_label_2
_geom_bond_distance
_geom_bond_site_symmetry_2
Au0 Ti1 2.831556 1_555
Au0 Ti1 2.831556 1_565
Au0 Ti1 2.831556 1_465
Au0 Ti1 2.831556 1_455
Au0 Ti0 2.864819 1_556
Au0 Ti0 2.864819 1_566
Au0 Ti0 2.898119 1_555
Au0 Ti0 2.898119 1_565
Au1 Ti0 2.831555 1_555
Au1 Ti0 2.831555 1_565
Au1 Ti0 2.831555 1_655
Au1 Ti0 2.831555 1_665
Au1 Ti1 2.864823 1_554
Au1 Ti1 2.864823 1_564
Au1 Ti1 2.898115 1_555
Au1 Ti1 2.898115 1_565
