# generated using pymatgen
data_PrTmTl2
_symmetry_space_group_name_H-M   'P 1'
_cell_length_a   5.40959744
_cell_length_b   5.40959744
_cell_length_c   5.40959744
_cell_angle_alpha   60.00000000
_cell_angle_beta   60.00000000
_cell_angle_gamma   60.00000000
_symmetry_Int_Tables_number   1
_chemical_formula_structural   PrTmTl2
_chemical_formula_sum   'Pr1 Tm1 Tl2'
_cell_volume   111.93859324
_cell_formula_units_Z   1
loop_
 _symmetry_equiv_pos_site_id
 _symmetry_equiv_pos_as_xyz
  1  'x, y, z'
loop_
 _atom_site_type_symbol
 _atom_site_label
 _atom_site_symmetry_multiplicity
 _atom_site_fract_x
 _atom_site_fract_y
 _atom_site_fract_z
 _atom_site_occupancy
  Pr  Pr0  1  0.25000100  0.25000100  0.25000100  1
  Tm  Tm0  1  0.75000000  0.75000000  0.75000000  1
  Tl  Tl0  1  0.50000000  0.50000000  0.50000000  1
  Tl  Tl1  1  0.00000000  0.00000000  -0.00000000  1
loop_
_geom_bond_atom_site_label_1
_geom_bond_atom_site_label_2
_geom_bond_distance
_geom_bond_site_symmetry_2
Pr0 Tl0 3.312675 1_555
Pr0 Tl1 3.312684 1_556
Pr0 Tl1 3.312684 1_565
Pr0 Tl1 3.312684 1_655
Pr0 Tl0 3.312693 1_554
Pr0 Tl0 3.312693 1_455
Pr0 Tl0 3.312693 1_545
Pr0 Tl1 3.312702 1_555
Tl0 Tm0 3.312688 1_455
Tl0 Tm0 3.312688 1_545
Tl0 Tm0 3.312688 1_555
Tl0 Tm0 3.312688 1_554
Tl1 Tm0 3.312688 1_454
Tl1 Tm0 3.312688 1_544
Tl1 Tm0 3.312688 1_444
Tl1 Tm0 3.312688 1_445
