# generated using pymatgen
data_PaAl3
_symmetry_space_group_name_H-M   'P 1'
_cell_length_a   4.28510373
_cell_length_b   4.28510373
_cell_length_c   4.28510373
_cell_angle_alpha   90.00000000
_cell_angle_beta   90.00000000
_cell_angle_gamma   90.00000000
_symmetry_Int_Tables_number   1
_chemical_formula_structural   PaAl3
_chemical_formula_sum   'Pa1 Al3'
_cell_volume   78.68356309
_cell_formula_units_Z   1
loop_
 _symmetry_equiv_pos_site_id
 _symmetry_equiv_pos_as_xyz
  1  'x, y, z'
loop_
 _atom_site_type_symbol
 _atom_site_label
 _atom_site_symmetry_multiplicity
 _atom_site_fract_x
 _atom_site_fract_y
 _atom_site_fract_z
 _atom_site_occupancy
  Pa  Pa0  1  -0.00000000  -0.00000000  -0.00000000  1
  Al  Al0  1  -0.00000000  0.50000000  0.50000000  1
  Al  Al1  1  0.50000000  0.00000000  0.50000000  1
  Al  Al2  1  0.50000000  0.50000000  -0.00000000  1
loop_
_geom_bond_atom_site_label_1
_geom_bond_atom_site_label_2
_geom_bond_distance
_geom_bond_site_symmetry_2
Al0 Al1 3.030026 1_555
Al0 Al2 3.030026 1_556
Al0 Al1 3.030026 1_465
Al0 Al1 3.030026 1_455
Al0 Al2 3.030026 1_555
Al0 Al2 3.030026 1_456
Al0 Pa0 3.030026 1_555
Al0 Pa0 3.030026 1_556
Al0 Al1 3.030026 1_565
Al0 Al2 3.030026 1_455
Al0 Pa0 3.030026 1_566
Al0 Pa0 3.030026 1_565
Al1 Pa0 3.030026 1_656
Al1 Pa0 3.030026 1_655
Al1 Al2 3.030026 1_556
Al1 Al2 3.030026 1_555
Al1 Al2 3.030026 1_545
Al1 Pa0 3.030026 1_555
Al1 Pa0 3.030026 1_556
Al1 Al2 3.030026 1_546
Al2 Pa0 3.030026 1_655
Al2 Pa0 3.030026 1_665
Al2 Pa0 3.030026 1_555
Al2 Pa0 3.030026 1_565
