# generated using pymatgen
data_Hg3C
_symmetry_space_group_name_H-M   'P 1'
_cell_length_a   5.24669554
_cell_length_b   5.24669554
_cell_length_c   5.24669554
_cell_angle_alpha   131.59857180
_cell_angle_beta   131.59857180
_cell_angle_gamma   70.86378281
_symmetry_Int_Tables_number   1
_chemical_formula_structural   Hg3C
_chemical_formula_sum   'Hg3 C1'
_cell_volume   79.10430613
_cell_formula_units_Z   1
loop_
 _symmetry_equiv_pos_site_id
 _symmetry_equiv_pos_as_xyz
  1  'x, y, z'
loop_
 _atom_site_type_symbol
 _atom_site_label
 _atom_site_symmetry_multiplicity
 _atom_site_fract_x
 _atom_site_fract_y
 _atom_site_fract_z
 _atom_site_occupancy
  Hg  Hg0  1  0.75000000  0.25000000  0.50000000  1
  Hg  Hg1  1  0.25000000  0.75000000  0.50000000  1
  Hg  Hg2  1  0.50000000  0.50000000  0.00000000  1
  C  C0  1  0.00000000  0.00000000  0.00000000  1
loop_
_geom_bond_atom_site_label_1
_geom_bond_atom_site_label_2
_geom_bond_distance
_geom_bond_site_symmetry_2
Hg0 Hg2 3.032314 1_545
Hg0 Hg2 3.032314 1_556
Hg0 Hg2 3.032314 1_555
Hg0 Hg2 3.032314 1_656
Hg0 Hg1 3.041692 1_544
Hg0 Hg1 3.041692 1_656
Hg0 Hg1 3.041692 1_645
Hg0 Hg1 3.041692 1_555
Hg1 Hg2 3.032314 1_566
Hg1 Hg2 3.032314 1_556
Hg1 Hg2 3.032314 1_555
Hg1 Hg2 3.032314 1_455
