# generated using pymatgen
data_MgIn3
_symmetry_space_group_name_H-M   'P 1'
_cell_length_a   5.69126696
_cell_length_b   5.69126696
_cell_length_c   5.69126696
_cell_angle_alpha   132.77856075
_cell_angle_beta   132.77856075
_cell_angle_gamma   69.00211966
_symmetry_Int_Tables_number   1
_chemical_formula_structural   MgIn3
_chemical_formula_sum   'Mg1 In3'
_cell_volume   97.48201393
_cell_formula_units_Z   1
loop_
 _symmetry_equiv_pos_site_id
 _symmetry_equiv_pos_as_xyz
  1  'x, y, z'
loop_
 _atom_site_type_symbol
 _atom_site_label
 _atom_site_symmetry_multiplicity
 _atom_site_fract_x
 _atom_site_fract_y
 _atom_site_fract_z
 _atom_site_occupancy
  Mg  Mg0  1  0.00000000  -0.00000000  0.00000000  1
  In  In0  1  0.50000000  0.50000000  0.00000000  1
  In  In1  1  0.75000000  0.25000000  0.50000000  1
  In  In2  1  0.25000000  0.75000000  0.50000000  1
loop_
_geom_bond_atom_site_label_1
_geom_bond_atom_site_label_2
_geom_bond_distance
_geom_bond_site_symmetry_2
In0 Mg0 3.223656 1_554
In0 Mg0 3.223656 1_565
In0 Mg0 3.223656 1_666
In0 Mg0 3.223656 1_655
In0 In2 3.270416 1_555
In0 In1 3.270416 1_565
In0 In2 3.270416 1_655
In0 In2 3.270416 1_554
In0 In1 3.270416 1_454
In0 In1 3.270416 1_554
In0 In1 3.270416 1_555
In0 In2 3.270416 1_544
In1 In2 3.223656 1_656
In1 In2 3.223656 1_544
In1 In2 3.223656 1_555
In1 In2 3.223656 1_645
In1 Mg0 3.270416 1_666
In1 Mg0 3.270416 1_655
In1 Mg0 3.270416 1_555
In1 Mg0 3.270416 1_656
In2 Mg0 3.270416 1_566
In2 Mg0 3.270416 1_666
In2 Mg0 3.270416 1_555
In2 Mg0 3.270416 1_565
