# generated using pymatgen
data_H6PbCI3N
_symmetry_space_group_name_H-M   'P 1'
_cell_length_a   6.43839300
_cell_length_b   6.43672400
_cell_length_c   6.49206998
_cell_angle_alpha   89.58053777
_cell_angle_beta   90.00000000
_cell_angle_gamma   90.00000000
_symmetry_Int_Tables_number   1
_chemical_formula_structural   H6PbCI3N
_chemical_formula_sum   'H6 Pb1 C1 I3 N1'
_cell_volume   269.03818458
_cell_formula_units_Z   1
loop_
 _symmetry_equiv_pos_site_id
 _symmetry_equiv_pos_as_xyz
  1  'x, y, z'
loop_
 _atom_site_type_symbol
 _atom_site_label
 _atom_site_symmetry_multiplicity
 _atom_site_fract_x
 _atom_site_fract_y
 _atom_site_fract_z
 _atom_site_occupancy
  H  H0  1  0.86105600  0.15909300  0.06887700  1
  H  H1  1  0.00000000  0.13236300  0.83177200  1
  H  H2  1  0.13042900  0.79600300  0.96098500  1
  H  H3  1  0.00000000  0.82118600  0.17980900  1
  H  H4  1  0.86957100  0.79600300  0.96098500  1
  H  H5  1  0.13894400  0.15909300  0.06887700  1
  Pb  Pb0  1  0.50000000  0.52476100  0.47577900  1
  C  C0  1  0.00000000  0.09538700  0.99651500  1
  I  I0  1  0.50000000  0.57176100  0.97243600  1
  I  I1  1  0.50000000  0.03836300  0.44899400  1
  I  I2  1  0.00000000  0.56285300  0.50578400  1
  N  N0  1  0.00000000  0.86512800  0.02488800  1
loop_
_geom_bond_atom_site_label_1
_geom_bond_atom_site_label_2
_geom_bond_distance
_geom_bond_site_symmetry_2
H2 N0 1.038253 1_556
H3 N0 1.042777 1_555
H4 N0 1.038253 1_656
C0 H5 1.091754 1_556
C0 H0 1.091754 1_456
C0 H1 1.093983 1_555
C0 N0 1.492177 1_546
I0 Pb0 3.240698 1_555
I0 Pb0 3.279506 1_556
I1 Pb0 3.136906 1_555
I1 Pb0 3.309213 1_545
I2 Pb0 3.234500 1_455
I2 Pb0 3.234500 1_555
