# generated using pymatgen
data_NaFeO2
_symmetry_space_group_name_H-M   'P 1'
_cell_length_a   2.95777946
_cell_length_b   2.95777946
_cell_length_c   10.68272000
_cell_angle_alpha   90.00000000
_cell_angle_beta   90.00000000
_cell_angle_gamma   119.99998801
_symmetry_Int_Tables_number   1
_chemical_formula_structural   NaFeO2
_chemical_formula_sum   'Na2 Fe2 O4'
_cell_volume   80.93644191
_cell_formula_units_Z   2
loop_
 _symmetry_equiv_pos_site_id
 _symmetry_equiv_pos_as_xyz
  1  'x, y, z'
loop_
 _atom_site_type_symbol
 _atom_site_label
 _atom_site_symmetry_multiplicity
 _atom_site_fract_x
 _atom_site_fract_y
 _atom_site_fract_z
 _atom_site_occupancy
  Na  Na0  1  0.66666700  0.33333300  0.25000000  1
  Na  Na1  1  0.33333300  0.66666700  0.75000000  1
  Fe  Fe0  1  0.00000000  0.00000000  0.50000000  1
  Fe  Fe1  1  0.00000000  0.00000000  0.00000000  1
  O  O0  1  0.33333300  0.66666700  0.40400100  1
  O  O1  1  0.66666700  0.33333300  0.59599900  1
  O  O2  1  0.66666700  0.33333300  0.90400100  1
  O  O3  1  0.33333300  0.66666700  0.09599900  1
loop_
_geom_bond_atom_site_label_1
_geom_bond_atom_site_label_2
_geom_bond_distance
_geom_bond_site_symmetry_2
Na0 O3 2.371216 1_545
Na0 O0 2.371216 1_545
Na0 O0 2.371216 1_655
Na0 O3 2.371216 1_655
Na0 O3 2.371219 1_555
Na0 O0 2.371219 1_555
Na1 O1 2.371216 1_565
Na1 O2 2.371216 1_565
Na1 O1 2.371216 1_455
Na1 O2 2.371216 1_455
Na1 O1 2.371219 1_555
Na1 O2 2.371219 1_555
Fe0 O1 1.991949 1_455
Fe0 O0 1.991949 1_545
Fe0 O1 1.991951 1_555
Fe0 O1 1.991951 1_445
Fe0 O0 1.991951 1_445
Fe0 O0 1.991951 1_555
Fe1 O2 1.991949 1_454
Fe1 O3 1.991949 1_545
Fe1 O2 1.991951 1_554
Fe1 O2 1.991951 1_444
Fe1 O3 1.991951 1_445
Fe1 O3 1.991951 1_555
