# generated using pymatgen
data_EuMgF4
_symmetry_space_group_name_H-M   'P 1'
_cell_length_a   7.75317499
_cell_length_b   7.75317499
_cell_length_c   5.60793300
_cell_angle_alpha   90.00000000
_cell_angle_beta   90.00000000
_cell_angle_gamma   149.45177229
_symmetry_Int_Tables_number   1
_chemical_formula_structural   EuMgF4
_chemical_formula_sum   'Eu2 Mg2 F8'
_cell_volume   171.33688356
_cell_formula_units_Z   2
loop_
 _symmetry_equiv_pos_site_id
 _symmetry_equiv_pos_as_xyz
  1  'x, y, z'
loop_
 _atom_site_type_symbol
 _atom_site_label
 _atom_site_symmetry_multiplicity
 _atom_site_fract_x
 _atom_site_fract_y
 _atom_site_fract_z
 _atom_site_occupancy
  Eu  Eu0  1  0.66700800  0.33299200  0.75000000  1
  Eu  Eu1  1  0.33299200  0.66700800  0.25000000  1
  Mg  Mg0  1  0.08861500  0.91138500  0.25000000  1
  Mg  Mg1  1  0.91138500  0.08861500  0.75000000  1
  F  F0  1  0.00000000  0.00000000  0.00000000  1
  F  F1  1  0.00000000  0.00000000  0.50000000  1
  F  F2  1  0.18699500  0.81300500  0.49663500  1
  F  F3  1  0.81300500  0.18699500  0.50336500  1
  F  F4  1  0.39924400  0.60075600  0.75000000  1
  F  F5  1  0.60075600  0.39924400  0.25000000  1
  F  F6  1  0.18699500  0.81300500  0.00336500  1
  F  F7  1  0.81300500  0.18699500  0.99663500  1
loop_
_geom_bond_atom_site_label_1
_geom_bond_atom_site_label_2
_geom_bond_distance
_geom_bond_site_symmetry_2
Eu0 F2 2.505976 1_545
Eu0 F6 2.505976 1_656
Eu0 F2 2.505976 1_655
Eu0 F6 2.505976 1_546
Eu0 F7 2.585048 1_555
Eu0 F3 2.585048 1_555
Eu0 F5 2.973951 1_556
Eu0 F5 2.973951 1_555
Eu1 F3 2.505976 1_565
Eu1 F7 2.505976 1_454
Eu1 F7 2.505976 1_564
Eu1 F3 2.505976 1_455
Eu1 F2 2.585048 1_555
Eu1 F6 2.585048 1_555
Eu1 F4 2.973951 1_554
Eu1 F4 2.973951 1_555
F0 Mg1 1.929419 1_454
F0 Mg0 1.929419 1_545
F1 Mg1 1.929419 1_455
F1 Mg0 1.929419 1_545
F2 Mg0 2.019577 1_555
F3 Mg1 2.019577 1_555
F4 Mg1 2.050533 1_565
F4 Mg1 2.050533 1_455
F5 Mg0 2.050533 1_655
F5 Mg0 2.050533 1_545
F6 Mg0 2.019577 1_555
F7 Mg1 2.019577 1_555
