# generated using pymatgen
data_Rb6AlSb3
_symmetry_space_group_name_H-M   'P 1'
_cell_length_a   6.27222851
_cell_length_b   10.76567841
_cell_length_c   12.43737561
_cell_angle_alpha   100.74365052
_cell_angle_beta   90.00000000
_cell_angle_gamma   90.00000000
_symmetry_Int_Tables_number   1
_chemical_formula_structural   Rb6AlSb3
_chemical_formula_sum   'Rb12 Al2 Sb6'
_cell_volume   825.10988926
_cell_formula_units_Z   2
loop_
 _symmetry_equiv_pos_site_id
 _symmetry_equiv_pos_as_xyz
  1  'x, y, z'
loop_
 _atom_site_type_symbol
 _atom_site_label
 _atom_site_symmetry_multiplicity
 _atom_site_fract_x
 _atom_site_fract_y
 _atom_site_fract_z
 _atom_site_occupancy
  Rb  Rb0  1  0.75000000  0.87882895  0.32418895  1
  Rb  Rb1  1  0.25000000  0.12117105  0.67581105  1
  Rb  Rb2  1  0.75000000  0.86449052  0.97625820  1
  Rb  Rb3  1  0.25000000  0.13550948  0.02374180  1
  Rb  Rb4  1  0.75000000  0.55890048  0.45834831  1
  Rb  Rb5  1  0.25000000  0.44109952  0.54165169  1
  Rb  Rb6  1  0.75000000  0.54235498  0.07687839  1
  Rb  Rb7  1  0.25000000  0.45764502  0.92312161  1
  Rb  Rb8  1  0.75000000  0.25830698  0.22234156  1
  Rb  Rb9  1  0.25000000  0.74169302  0.77765844  1
  Rb  Rb10  1  0.75000000  0.91279108  0.63150647  1
  Rb  Rb11  1  0.25000000  0.08720892  0.36849353  1
  Al  Al0  1  0.75000000  0.32061375  0.72002869  1
  Al  Al1  1  0.25000000  0.67938625  0.27997131  1
  Sb  Sb0  1  0.75000000  0.56734416  0.77194661  1
  Sb  Sb1  1  0.25000000  0.43265584  0.22805339  1
  Sb  Sb2  1  0.75000000  0.21184340  0.51202260  1
  Sb  Sb3  1  0.25000000  0.78815660  0.48797740  1
  Sb  Sb4  1  0.75000000  0.17973583  0.87654859  1
  Sb  Sb5  1  0.25000000  0.82026417  0.12345141  1
loop_
_geom_bond_atom_site_label_1
_geom_bond_atom_site_label_2
_geom_bond_distance
_geom_bond_site_symmetry_2
Rb0 Sb2 3.897198 1_565
Rb0 Sb3 3.959701 1_555
Rb0 Sb3 3.959701 1_655
Rb0 Sb5 3.984860 1_555
Rb0 Sb5 3.984860 1_655
Rb1 Sb3 3.897198 1_545
Rb1 Sb2 3.959701 1_555
Rb1 Sb2 3.959701 1_455
Rb1 Sb4 3.984860 1_455
Rb1 Sb4 3.984860 1_555
Rb2 Sb0 3.695939 1_555
Rb2 Sb5 3.706526 1_556
Rb2 Sb5 3.706526 1_656
Rb2 Sb4 3.824284 1_565
Rb3 Sb1 3.695939 1_555
Rb3 Sb4 3.706526 1_454
Rb3 Sb4 3.706526 1_554
Rb3 Sb5 3.824284 1_545
Rb4 Sb0 3.884421 1_555
Rb4 Sb2 3.916063 1_555
Rb4 Sb3 3.965277 1_655
Rb4 Sb3 3.965277 1_555
Rb5 Sb1 3.884421 1_555
Rb5 Sb3 3.916063 1_555
Rb5 Sb2 3.965277 1_555
Rb5 Sb2 3.965277 1_455
Rb6 Sb0 3.851781 1_554
Rb6 Sb1 3.948803 1_555
Rb6 Sb1 3.948803 1_655
Rb7 Sb1 3.851781 1_556
Rb7 Sb0 3.948803 1_455
Rb7 Sb0 3.948803 1_555
Rb8 Sb1 3.648782 1_555
Rb8 Sb1 3.648782 1_655
Rb8 Sb2 3.728648 1_555
Rb9 Sb0 3.648782 1_455
Rb9 Sb0 3.648782 1_555
Rb9 Sb3 3.728648 1_555
Rb10 Sb3 3.732188 1_555
Rb10 Sb3 3.732188 1_655
Rb10 Sb4 3.779136 1_565
Rb10 Sb2 3.789109 1_565
Rb11 Sb2 3.732188 1_555
Rb11 Sb2 3.732188 1_455
Rb11 Sb5 3.779136 1_545
Rb11 Sb3 3.789109 1_545
Al0 Sb0 2.613999 1_555
Al0 Sb2 2.633360 1_555
Al0 Sb4 2.681531 1_555
Al0 Rb1 3.782540 1_655
Al0 Rb1 3.782540 1_555
Al1 Sb1 2.613999 1_555
Al1 Sb3 2.633360 1_555
Al1 Sb5 2.681531 1_555
Al1 Rb0 3.782540 1_455
Al1 Rb0 3.782540 1_555
