# generated using pymatgen
data_Nb4Co4Si7
_symmetry_space_group_name_H-M   'P 1'
_cell_length_a   9.18709910
_cell_length_b   9.18709954
_cell_length_c   9.18591180
_cell_angle_alpha   94.17235413
_cell_angle_beta   94.17231131
_cell_angle_gamma   148.70359952
_symmetry_Int_Tables_number   1
_chemical_formula_structural   Nb4Co4Si7
_chemical_formula_sum   'Nb8 Co8 Si14'
_cell_volume   387.82167221
_cell_formula_units_Z   2
loop_
 _symmetry_equiv_pos_site_id
 _symmetry_equiv_pos_as_xyz
  1  'x, y, z'
loop_
 _atom_site_type_symbol
 _atom_site_label
 _atom_site_symmetry_multiplicity
 _atom_site_fract_x
 _atom_site_fract_y
 _atom_site_fract_z
 _atom_site_occupancy
  Nb  Nb0  1  0.30817273  0.49997529  0.80821425  1
  Nb  Nb1  1  0.69182825  0.50001347  0.19177927  1
  Nb  Nb2  1  0.50001271  0.69182143  0.19176674  1
  Nb  Nb3  1  0.49997345  0.30816587  0.80820430  1
  Nb  Nb4  1  0.13413925  0.13412642  0.26834530  1
  Nb  Nb5  1  0.86587390  0.86585905  0.73165423  1
  Nb  Nb6  1  0.13414744  0.86583870  -0.00001529  1
  Nb  Nb7  1  0.86583552  0.13414869  -0.00001483  1
  Co  Co0  1  0.39854654  0.89854075  0.79707205  1
  Co  Co1  1  0.10145329  0.60144723  0.20291486  1
  Co  Co2  1  0.89855911  0.10146242  0.50002430  1
  Co  Co3  1  0.60149411  0.39852808  0.50002234  1
  Co  Co4  1  0.60143377  0.10146138  0.20291477  1
  Co  Co5  1  0.89853223  0.39855996  0.79707226  1
  Co  Co6  1  0.10146739  0.89855463  0.50002393  1
  Co  Co7  1  0.39853320  0.60148896  0.50002231  1
  Si  Si0  1  0.29056622  0.29055451  0.58101125  1
  Si  Si1  1  0.70945777  0.70944665  0.41901647  1
  Si  Si2  1  0.29047181  0.70951657  -0.00001152  1
  Si  Si3  1  0.70950950  0.29048032  -0.00001109  1
  Si  Si4  1  0.09450960  0.50000971  0.59452032  1
  Si  Si5  1  0.90548973  0.50000744  0.40549586  1
  Si  Si6  1  0.49999643  0.90549732  0.40549246  1
  Si  Si7  1  0.49999804  0.09451659  0.59451670  1
  Si  Si8  1  0.24942341  0.24941473  0.00002589  1
  Si  Si9  1  0.75057070  0.75056228  0.99993285  1
  Si  Si10  1  0.29975899  0.99995449  0.29978614  1
  Si  Si11  1  0.70025394  0.00005120  0.70023380  1
  Si  Si12  1  0.00004321  0.70024588  0.70021773  1
  Si  Si13  1  0.99994676  0.29975098  0.29977036  1
loop_
_geom_bond_atom_site_label_1
_geom_bond_atom_site_label_2
_geom_bond_distance
_geom_bond_site_symmetry_2
Nb0 Si0 2.630284 1_555
Nb0 Si2 2.630379 1_556
Nb0 Si4 2.673364 1_555
Nb0 Si9 2.701535 1_555
Nb0 Si8 2.701846 1_556
Nb0 Si11 2.822081 1_455
Nb0 Si11 2.822634 1_565
Nb1 Si3 2.630283 1_555
Nb1 Si1 2.630455 1_555
Nb1 Si5 2.673318 1_555
Nb1 Si8 2.701683 1_555
Nb1 Si9 2.702031 1_554
Nb1 Si10 2.822151 1_655
Nb1 Si10 2.822693 1_545
Nb2 Si2 2.630361 1_555
Nb2 Si1 2.630633 1_555
Nb2 Si6 2.673529 1_555
Nb2 Si8 2.701681 1_555
Nb2 Si9 2.702014 1_554
Nb2 Si13 2.822147 1_565
Nb2 Si13 2.822711 1_455
Nb3 Si0 2.630113 1_555
Nb3 Si3 2.630300 1_556
Nb3 Si7 2.673176 1_555
Nb3 Si9 2.701523 1_555
Nb3 Si8 2.701833 1_556
Nb3 Si12 2.822087 1_545
Nb3 Si12 2.822635 1_655
Nb4 Si10 2.666675 1_545
Nb4 Si13 2.666884 1_455
Nb4 Si8 2.676047 1_555
Nb4 Si9 2.676641 1_444
Nb4 Si0 2.765663 1_555
Nb4 Si1 2.813657 1_555
Nb4 Si1 2.813735 1_445
Nb5 Si12 2.666590 1_655
Nb5 Si11 2.666836 1_565
Nb5 Si9 2.675712 1_555
Nb5 Si8 2.676336 1_666
Nb5 Si1 2.765413 1_555
Nb5 Si0 2.813543 1_555
Nb5 Si0 2.813613 1_665
Nb6 Si12 2.666158 1_554
Nb6 Si10 2.666468 1_555
Nb6 Si9 2.676101 1_454
Nb6 Si8 2.676110 1_565
Nb6 Si2 2.765855 1_555
Nb6 Si3 2.813985 1_565
Nb6 Si3 2.813987 1_455
Nb7 Si11 2.666017 1_554
Nb7 Si13 2.666321 1_555
Nb7 Si9 2.676266 1_544
Nb7 Si8 2.676284 1_655
Nb7 Si3 2.765954 1_555
Nb7 Si2 2.814031 1_545
Nb7 Si2 2.814035 1_655
Co0 Si2 2.295556 1_556
Co0 Si3 2.295647 1_566
Co0 Si11 2.325043 1_565
Co0 Si12 2.325050 1_555
Co0 Si4 2.333287 1_555
Co0 Si7 2.333312 1_565
Co0 Co5 2.478025 1_455
Co0 Co5 2.478048 1_565
Co0 Nb7 2.992907 1_566
Co0 Nb6 2.992991 1_556
Co0 Nb3 2.996363 1_565
Co0 Nb0 2.996477 1_555
Co1 Si2 2.295622 1_555
Co1 Si3 2.295709 1_455
Co1 Si13 2.325054 1_455
Co1 Si10 2.325056 1_555
Co1 Si6 2.333459 1_555
Co1 Si5 2.333486 1_455
Co1 Co4 2.478023 1_565
Co1 Co4 2.478049 1_455
Co1 Nb7 2.992995 1_455
Co1 Nb6 2.993088 1_555
Co1 Nb1 2.996312 1_455
Co1 Nb2 2.996427 1_555
Co2 Si0 2.295972 1_655
Co2 Si1 2.296021 1_545
Co2 Si11 2.324988 1_555
Co2 Si13 2.325316 1_555
Co2 Si4 2.333708 1_655
Co2 Si6 2.333820 1_545
Co2 Co7 2.478030 1_545
Co2 Co7 2.478043 1_655
Co2 Nb5 2.992471 1_545
Co2 Nb4 2.992761 1_655
Co2 Nb0 2.996008 1_655
Co2 Nb2 2.996544 1_545
Co3 Si0 2.295931 1_555
Co3 Si1 2.295979 1_555
Co3 Si12 2.324933 1_655
Co3 Si10 2.325232 1_545
Co3 Si7 2.333127 1_555
Co3 Si5 2.333233 1_555
Co3 Co6 2.478032 1_655
Co3 Co6 2.478041 1_545
Co3 Nb5 2.992868 1_555
Co3 Nb4 2.993153 1_555
Co3 Nb3 2.996031 1_555
Co3 Nb1 2.996518 1_555
Co4 Si3 2.295611 1_555
Co4 Si2 2.295722 1_545
Co4 Si10 2.324951 1_545
Co4 Si13 2.325159 1_555
Co4 Si6 2.333467 1_545
Co4 Si5 2.333480 1_555
Co4 Nb6 2.992886 1_545
Co4 Nb7 2.993191 1_555
Co4 Nb1 2.996202 1_555
Co4 Nb2 2.996528 1_545
Co5 Si3 2.295544 1_556
Co5 Si2 2.295652 1_656
Co5 Si12 2.324942 1_655
Co5 Si11 2.325153 1_555
Co5 Si4 2.333294 1_655
Co5 Si7 2.333311 1_555
Co5 Nb6 2.992794 1_656
Co5 Nb7 2.993106 1_556
Co5 Nb3 2.996260 1_555
Co5 Nb0 2.996577 1_655
Co6 Si0 2.295875 1_565
Co6 Si1 2.295933 1_455
Co6 Si12 2.324853 1_555
Co6 Si10 2.325176 1_555
Co6 Si7 2.333505 1_565
Co6 Si5 2.333618 1_455
Co6 Nb5 2.992365 1_455
Co6 Nb4 2.992673 1_565
Co6 Nb3 2.995933 1_565
Co6 Nb1 2.996447 1_455
Co7 Si0 2.296022 1_555
Co7 Si1 2.296061 1_555
Co7 Si11 2.325074 1_565
Co7 Si13 2.325371 1_455
Co7 Si4 2.333333 1_555
Co7 Si6 2.333441 1_555
Co7 Nb5 2.992972 1_555
Co7 Nb4 2.993234 1_555
Co7 Nb0 2.996111 1_555
Co7 Nb2 2.996622 1_555
Si4 Si5 2.364680 1_455
Si6 Si7 2.364678 1_565
Si8 Si9 2.472119 1_444
Si8 Si9 2.483954 1_554
