# generated using pymatgen
data_Th2ZnTc
_symmetry_space_group_name_H-M   'P 1'
_cell_length_a   5.11930743
_cell_length_b   5.11930743
_cell_length_c   5.11930743
_cell_angle_alpha   60.00000000
_cell_angle_beta   60.00000000
_cell_angle_gamma   60.00000000
_symmetry_Int_Tables_number   1
_chemical_formula_structural   Th2ZnTc
_chemical_formula_sum   'Th2 Zn1 Tc1'
_cell_volume   94.86775771
_cell_formula_units_Z   1
loop_
 _symmetry_equiv_pos_site_id
 _symmetry_equiv_pos_as_xyz
  1  'x, y, z'
loop_
 _atom_site_type_symbol
 _atom_site_label
 _atom_site_symmetry_multiplicity
 _atom_site_fract_x
 _atom_site_fract_y
 _atom_site_fract_z
 _atom_site_occupancy
  Th  Th0  1  0.25000000  0.25000000  0.25000000  1
  Th  Th1  1  0.75000000  0.75000000  0.75000000  1
  Zn  Zn0  1  0.00000000  0.00000000  0.00000000  1
  Tc  Tc0  1  0.50000000  0.50000000  0.50000000  1
loop_
_geom_bond_atom_site_label_1
_geom_bond_atom_site_label_2
_geom_bond_distance
_geom_bond_site_symmetry_2
Th0 Zn0 3.134923 1_655
Th0 Zn0 3.134923 1_555
Th0 Zn0 3.134923 1_556
Th0 Zn0 3.134923 1_565
Th1 Zn0 3.134923 1_656
Th1 Zn0 3.134923 1_566
Th1 Zn0 3.134923 1_665
Th1 Zn0 3.134923 1_666
Tc0 Th0 3.134923 1_556
Tc0 Th0 3.134923 1_655
Tc0 Th1 3.134923 1_555
Tc0 Th1 3.134923 1_545
Tc0 Th1 3.134923 1_455
Tc0 Th0 3.134923 1_565
Tc0 Th1 3.134923 1_554
Tc0 Th0 3.134923 1_555
