# generated using pymatgen
data_MnZn3
_symmetry_space_group_name_H-M   'P 1'
_cell_length_a   5.47263531
_cell_length_b   5.47263531
_cell_length_c   4.35060700
_cell_angle_alpha   90.00000000
_cell_angle_beta   90.00000000
_cell_angle_gamma   119.99999161
_symmetry_Int_Tables_number   1
_chemical_formula_structural   MnZn3
_chemical_formula_sum   'Mn2 Zn6'
_cell_volume   112.84271805
_cell_formula_units_Z   2
loop_
 _symmetry_equiv_pos_site_id
 _symmetry_equiv_pos_as_xyz
  1  'x, y, z'
loop_
 _atom_site_type_symbol
 _atom_site_label
 _atom_site_symmetry_multiplicity
 _atom_site_fract_x
 _atom_site_fract_y
 _atom_site_fract_z
 _atom_site_occupancy
  Mn  Mn0  1  0.66666700  0.33333300  0.25000000  1
  Mn  Mn1  1  0.33333300  0.66666700  0.75000000  1
  Zn  Zn0  1  0.83160800  0.16839200  0.75000000  1
  Zn  Zn1  1  0.33678400  0.16839200  0.75000000  1
  Zn  Zn2  1  0.83160800  0.66321600  0.75000000  1
  Zn  Zn3  1  0.16839200  0.83160800  0.25000000  1
  Zn  Zn4  1  0.66321600  0.83160800  0.25000000  1
  Zn  Zn5  1  0.16839200  0.33678400  0.25000000  1
loop_
_geom_bond_atom_site_label_1
_geom_bond_atom_site_label_2
_geom_bond_distance
_geom_bond_site_symmetry_2
Mn0 Zn0 2.678869 1_554
Mn0 Zn0 2.678869 1_555
Mn0 Zn2 2.678872 1_555
Mn0 Zn2 2.678872 1_554
Mn0 Zn1 2.678872 1_555
Mn0 Zn1 2.678872 1_554
Mn0 Zn4 2.736364 1_545
Mn0 Zn5 2.736364 1_655
Mn0 Zn3 2.736367 1_655
Mn0 Zn3 2.736367 1_545
Mn0 Zn5 2.736369 1_555
Mn0 Zn4 2.736369 1_555
Mn1 Zn3 2.678869 1_556
Mn1 Zn3 2.678869 1_555
Mn1 Zn4 2.678872 1_555
Mn1 Zn4 2.678872 1_556
Mn1 Zn5 2.678872 1_556
Mn1 Zn5 2.678872 1_555
Mn1 Zn2 2.736364 1_455
Mn1 Zn1 2.736364 1_565
Mn1 Zn0 2.736367 1_565
Mn1 Zn0 2.736367 1_455
Mn1 Zn1 2.736369 1_555
Mn1 Zn2 2.736369 1_555
Zn0 Zn4 2.698092 1_546
Zn0 Zn5 2.698092 1_655
Zn0 Zn4 2.698092 1_545
Zn0 Zn5 2.698092 1_656
Zn0 Zn2 2.707991 1_555
Zn0 Zn1 2.707991 1_555
Zn0 Zn1 2.764644 1_655
Zn0 Zn2 2.764644 1_545
Zn1 Zn5 2.698091 1_556
Zn1 Zn5 2.698091 1_555
Zn1 Zn3 2.698092 1_545
Zn1 Zn3 2.698092 1_546
Zn1 Zn2 2.707992 1_555
Zn1 Zn2 2.764644 1_445
Zn2 Zn4 2.698091 1_555
Zn2 Zn4 2.698091 1_556
Zn2 Zn3 2.698092 1_655
Zn2 Zn3 2.698092 1_656
Zn3 Zn4 2.707991 1_555
Zn3 Zn5 2.707991 1_555
Zn3 Zn5 2.764644 1_565
Zn3 Zn4 2.764644 1_455
Zn4 Zn5 2.707992 1_555
Zn4 Zn5 2.764644 1_665
