# generated using pymatgen
data_K3Cr11S18
_symmetry_space_group_name_H-M   'P 1'
_cell_length_a   21.75910287
_cell_length_b   21.75910287
_cell_length_c   32.94358123
_cell_angle_alpha   80.17276715
_cell_angle_beta   80.17276715
_cell_angle_gamma   18.62003268
_symmetry_Int_Tables_number   1
_chemical_formula_structural   K3Cr11S18
_chemical_formula_sum   'K24 Cr88 S144'
_cell_volume   4905.05812737
_cell_formula_units_Z   8
loop_
 _symmetry_equiv_pos_site_id
 _symmetry_equiv_pos_as_xyz
  1  'x, y, z'
loop_
 _atom_site_type_symbol
 _atom_site_label
 _atom_site_symmetry_multiplicity
 _atom_site_fract_x
 _atom_site_fract_y
 _atom_site_fract_z
 _atom_site_occupancy
  K  K0_0  1  0.09696750  0.09696750  0.45566900  1
  K  K0_1  1  0.09696750  0.09696750  0.95566900  1
  K  K0_2  1  0.09696750  0.59696750  0.45566900  1
  K  K0_3  1  0.09696750  0.59696750  0.95566900  1
  K  K0_4  1  0.59696750  0.09696750  0.45566900  1
  K  K0_5  1  0.59696750  0.09696750  0.95566900  1
  K  K0_6  1  0.59696750  0.59696750  0.45566900  1
  K  K0_7  1  0.59696750  0.59696750  0.95566900  1
  K  K1_0  1  0.40303250  0.40303250  0.04433100  1
  K  K1_1  1  0.40303250  0.40303250  0.54433100  1
  K  K1_2  1  0.40303250  0.90303250  0.04433100  1
  K  K1_3  1  0.40303250  0.90303250  0.54433100  1
  K  K1_4  1  0.90303250  0.40303250  0.04433100  1
  K  K1_5  1  0.90303250  0.40303250  0.54433100  1
  K  K1_6  1  0.90303250  0.90303250  0.04433100  1
  K  K1_7  1  0.90303250  0.90303250  0.54433100  1
  K  K2_0  1  0.24861300  0.24861300  0.25016850  1
  K  K2_1  1  0.24861300  0.24861300  0.75016850  1
  K  K2_2  1  0.24861300  0.74861300  0.25016850  1
  K  K2_3  1  0.24861300  0.74861300  0.75016850  1
  K  K2_4  1  0.74861300  0.24861300  0.25016850  1
  K  K2_5  1  0.74861300  0.24861300  0.75016850  1
  K  K2_6  1  0.74861300  0.74861300  0.25016850  1
  K  K2_7  1  0.74861300  0.74861300  0.75016850  1
  Cr  Cr0_0  1  0.07563800  0.07563800  0.13917150  1
  Cr  Cr0_1  1  0.07563800  0.07563800  0.63917150  1
  Cr  Cr0_2  1  0.07563800  0.57563800  0.13917150  1
  Cr  Cr0_3  1  0.07563800  0.57563800  0.63917150  1
  Cr  Cr0_4  1  0.57563800  0.07563800  0.13917150  1
  Cr  Cr0_5  1  0.57563800  0.07563800  0.63917150  1
  Cr  Cr0_6  1  0.57563800  0.57563800  0.13917150  1
  Cr  Cr0_7  1  0.57563800  0.57563800  0.63917150  1
  Cr  Cr1_0  1  0.42436200  0.42436200  0.36082850  1
  Cr  Cr1_1  1  0.42436200  0.42436200  0.86082850  1
  Cr  Cr1_2  1  0.42436200  0.92436200  0.36082850  1
  Cr  Cr1_3  1  0.42436200  0.92436200  0.86082850  1
  Cr  Cr1_4  1  0.92436200  0.42436200  0.36082850  1
  Cr  Cr1_5  1  0.92436200  0.42436200  0.86082850  1
  Cr  Cr1_6  1  0.92436200  0.92436200  0.36082850  1
  Cr  Cr1_7  1  0.92436200  0.92436200  0.86082850  1
  Cr  Cr2_0  1  0.35269950  0.35269950  0.21487250  1
  Cr  Cr2_1  1  0.35269950  0.35269950  0.71487250  1
  Cr  Cr2_2  1  0.35269950  0.85269950  0.21487250  1
  Cr  Cr2_3  1  0.35269950  0.85269950  0.71487250  1
  Cr  Cr2_4  1  0.85269950  0.35269950  0.21487250  1
  Cr  Cr2_5  1  0.85269950  0.35269950  0.71487250  1
  Cr  Cr2_6  1  0.85269950  0.85269950  0.21487250  1
  Cr  Cr2_7  1  0.85269950  0.85269950  0.71487250  1
  Cr  Cr3_0  1  0.20430050  0.20430050  0.43389850  1
  Cr  Cr3_1  1  0.20430050  0.20430050  0.93389850  1
  Cr  Cr3_2  1  0.20430050  0.70430050  0.43389850  1
  Cr  Cr3_3  1  0.20430050  0.70430050  0.93389850  1
  Cr  Cr3_4  1  0.70430050  0.20430050  0.43389850  1
  Cr  Cr3_5  1  0.70430050  0.20430050  0.93389850  1
  Cr  Cr3_6  1  0.70430050  0.70430050  0.43389850  1
  Cr  Cr3_7  1  0.70430050  0.70430050  0.93389850  1
  Cr  Cr4_0  1  0.26482950  0.26482950  0.37160400  1
  Cr  Cr4_1  1  0.26482950  0.26482950  0.87160400  1
  Cr  Cr4_2  1  0.26482950  0.76482950  0.37160400  1
  Cr  Cr4_3  1  0.26482950  0.76482950  0.87160400  1
  Cr  Cr4_4  1  0.76482950  0.26482950  0.37160400  1
  Cr  Cr4_5  1  0.76482950  0.26482950  0.87160400  1
  Cr  Cr4_6  1  0.76482950  0.76482950  0.37160400  1
  Cr  Cr4_7  1  0.76482950  0.76482950  0.87160400  1
  Cr  Cr5_0  1  0.23517050  0.23517050  0.12839600  1
  Cr  Cr5_1  1  0.23517050  0.23517050  0.62839600  1
  Cr  Cr5_2  1  0.23517050  0.73517050  0.12839600  1
  Cr  Cr5_3  1  0.23517050  0.73517050  0.62839600  1
  Cr  Cr5_4  1  0.73517050  0.23517050  0.12839600  1
  Cr  Cr5_5  1  0.73517050  0.23517050  0.62839600  1
  Cr  Cr5_6  1  0.73517050  0.73517050  0.12839600  1
  Cr  Cr5_7  1  0.73517050  0.73517050  0.62839600  1
  Cr  Cr6_0  1  0.14730050  0.14730050  0.28512750  1
  Cr  Cr6_1  1  0.14730050  0.14730050  0.78512750  1
  Cr  Cr6_2  1  0.14730050  0.64730050  0.28512750  1
  Cr  Cr6_3  1  0.14730050  0.64730050  0.78512750  1
  Cr  Cr6_4  1  0.64730050  0.14730050  0.28512750  1
  Cr  Cr6_5  1  0.64730050  0.14730050  0.78512750  1
  Cr  Cr6_6  1  0.64730050  0.64730050  0.28512750  1
  Cr  Cr6_7  1  0.64730050  0.64730050  0.78512750  1
  Cr  Cr7_0  1  0.29569950  0.29569950  0.06610150  1
  Cr  Cr7_1  1  0.29569950  0.29569950  0.56610150  1
  Cr  Cr7_2  1  0.29569950  0.79569950  0.06610150  1
  Cr  Cr7_3  1  0.29569950  0.79569950  0.56610150  1
  Cr  Cr7_4  1  0.79569950  0.29569950  0.06610150  1
  Cr  Cr7_5  1  0.79569950  0.29569950  0.56610150  1
  Cr  Cr7_6  1  0.79569950  0.79569950  0.06610150  1
  Cr  Cr7_7  1  0.79569950  0.79569950  0.56610150  1
  Cr  Cr8_0  1  0.08238600  0.08238600  0.33978400  1
  Cr  Cr8_1  1  0.08238600  0.08238600  0.83978400  1
  Cr  Cr8_2  1  0.08238600  0.58238600  0.33978400  1
  Cr  Cr8_3  1  0.08238600  0.58238600  0.83978400  1
  Cr  Cr8_4  1  0.58238600  0.08238600  0.33978400  1
  Cr  Cr8_5  1  0.58238600  0.08238600  0.83978400  1
  Cr  Cr8_6  1  0.58238600  0.58238600  0.33978400  1
  Cr  Cr8_7  1  0.58238600  0.58238600  0.83978400  1
  Cr  Cr9_0  1  0.41761400  0.41761400  0.16021600  1
  Cr  Cr9_1  1  0.41761400  0.41761400  0.66021600  1
  Cr  Cr9_2  1  0.41761400  0.91761400  0.16021600  1
  Cr  Cr9_3  1  0.41761400  0.91761400  0.66021600  1
  Cr  Cr9_4  1  0.91761400  0.41761400  0.16021600  1
  Cr  Cr9_5  1  0.91761400  0.41761400  0.66021600  1
  Cr  Cr9_6  1  0.91761400  0.91761400  0.16021600  1
  Cr  Cr9_7  1  0.91761400  0.91761400  0.66021600  1
  Cr  Cr10_0  1  0.00000000  0.00000000  0.00000000  1
  Cr  Cr10_1  1  0.00000000  0.00000000  0.50000000  1
  Cr  Cr10_2  1  0.00000000  0.50000000  0.00000000  1
  Cr  Cr10_3  1  0.00000000  0.50000000  0.50000000  1
  Cr  Cr10_4  1  0.50000000  0.00000000  0.00000000  1
  Cr  Cr10_5  1  0.50000000  0.00000000  0.50000000  1
  Cr  Cr10_6  1  0.50000000  0.50000000  0.00000000  1
  Cr  Cr10_7  1  0.50000000  0.50000000  0.50000000  1
  S  S0_0  1  0.18214750  0.18214750  0.11339850  1
  S  S0_1  1  0.18214750  0.18214750  0.61339850  1
  S  S0_2  1  0.18214750  0.68214750  0.11339850  1
  S  S0_3  1  0.18214750  0.68214750  0.61339850  1
  S  S0_4  1  0.68214750  0.18214750  0.11339850  1
  S  S0_5  1  0.68214750  0.18214750  0.61339850  1
  S  S0_6  1  0.68214750  0.68214750  0.11339850  1
  S  S0_7  1  0.68214750  0.68214750  0.61339850  1
  S  S1_0  1  0.28834200  0.28834200  0.49581150  1
  S  S1_1  1  0.28834200  0.28834200  0.99581150  1
  S  S1_2  1  0.28834200  0.78834200  0.49581150  1
  S  S1_3  1  0.28834200  0.78834200  0.99581150  1
  S  S1_4  1  0.78834200  0.28834200  0.49581150  1
  S  S1_5  1  0.78834200  0.28834200  0.99581150  1
  S  S1_6  1  0.78834200  0.78834200  0.49581150  1
  S  S1_7  1  0.78834200  0.78834200  0.99581150  1
  S  S2_0  1  0.08243550  0.08243550  0.06307600  1
  S  S2_1  1  0.08243550  0.08243550  0.56307600  1
  S  S2_2  1  0.08243550  0.58243550  0.06307600  1
  S  S2_3  1  0.08243550  0.58243550  0.56307600  1
  S  S2_4  1  0.58243550  0.08243550  0.06307600  1
  S  S2_5  1  0.58243550  0.08243550  0.56307600  1
  S  S2_6  1  0.58243550  0.58243550  0.06307600  1
  S  S2_7  1  0.58243550  0.58243550  0.56307600  1
  S  S3_0  1  0.13519700  0.13519700  0.35929000  1
  S  S3_1  1  0.13519700  0.13519700  0.85929000  1
  S  S3_2  1  0.13519700  0.63519700  0.35929000  1
  S  S3_3  1  0.13519700  0.63519700  0.85929000  1
  S  S3_4  1  0.63519700  0.13519700  0.35929000  1
  S  S3_5  1  0.63519700  0.13519700  0.85929000  1
  S  S3_6  1  0.63519700  0.63519700  0.35929000  1
  S  S3_7  1  0.63519700  0.63519700  0.85929000  1
  S  S4_0  1  0.35277500  0.35277500  0.28798400  1
  S  S4_1  1  0.35277500  0.35277500  0.78798400  1
  S  S4_2  1  0.35277500  0.85277500  0.28798400  1
  S  S4_3  1  0.35277500  0.85277500  0.78798400  1
  S  S4_4  1  0.85277500  0.35277500  0.28798400  1
  S  S4_5  1  0.85277500  0.35277500  0.78798400  1
  S  S4_6  1  0.85277500  0.85277500  0.28798400  1
  S  S4_7  1  0.85277500  0.85277500  0.78798400  1
  S  S5_0  1  0.21085450  0.21085450  0.35940750  1
  S  S5_1  1  0.21085450  0.21085450  0.85940750  1
  S  S5_2  1  0.21085450  0.71085450  0.35940750  1
  S  S5_3  1  0.21085450  0.71085450  0.85940750  1
  S  S5_4  1  0.71085450  0.21085450  0.35940750  1
  S  S5_5  1  0.71085450  0.21085450  0.85940750  1
  S  S5_6  1  0.71085450  0.71085450  0.35940750  1
  S  S5_7  1  0.71085450  0.71085450  0.85940750  1
  S  S6_0  1  0.31785250  0.31785250  0.38660150  1
  S  S6_1  1  0.31785250  0.31785250  0.88660150  1
  S  S6_2  1  0.31785250  0.81785250  0.38660150  1
  S  S6_3  1  0.31785250  0.81785250  0.88660150  1
  S  S6_4  1  0.81785250  0.31785250  0.38660150  1
  S  S6_5  1  0.81785250  0.31785250  0.88660150  1
  S  S6_6  1  0.81785250  0.81785250  0.38660150  1
  S  S6_7  1  0.81785250  0.81785250  0.88660150  1
  S  S7_0  1  0.03061500  0.03061500  0.32400700  1
  S  S7_1  1  0.03061500  0.03061500  0.82400700  1
  S  S7_2  1  0.03061500  0.53061500  0.32400700  1
  S  S7_3  1  0.03061500  0.53061500  0.82400700  1
  S  S7_4  1  0.53061500  0.03061500  0.32400700  1
  S  S7_5  1  0.53061500  0.03061500  0.82400700  1
  S  S7_6  1  0.53061500  0.53061500  0.32400700  1
  S  S7_7  1  0.53061500  0.53061500  0.82400700  1
  S  S8_0  1  0.41756450  0.41756450  0.43692400  1
  S  S8_1  1  0.41756450  0.41756450  0.93692400  1
  S  S8_2  1  0.41756450  0.91756450  0.43692400  1
  S  S8_3  1  0.41756450  0.91756450  0.93692400  1
  S  S8_4  1  0.91756450  0.41756450  0.43692400  1
  S  S8_5  1  0.91756450  0.41756450  0.93692400  1
  S  S8_6  1  0.91756450  0.91756450  0.43692400  1
  S  S8_7  1  0.91756450  0.91756450  0.93692400  1
  S  S9_0  1  0.43187350  0.43187350  0.28698450  1
  S  S9_1  1  0.43187350  0.43187350  0.78698450  1
  S  S9_2  1  0.43187350  0.93187350  0.28698450  1
  S  S9_3  1  0.43187350  0.93187350  0.78698450  1
  S  S9_4  1  0.93187350  0.43187350  0.28698450  1
  S  S9_5  1  0.93187350  0.43187350  0.78698450  1
  S  S9_6  1  0.93187350  0.93187350  0.28698450  1
  S  S9_7  1  0.93187350  0.93187350  0.78698450  1
  S  S10_0  1  0.46938500  0.46938500  0.17599300  1
  S  S10_1  1  0.46938500  0.46938500  0.67599300  1
  S  S10_2  1  0.46938500  0.96938500  0.17599300  1
  S  S10_3  1  0.46938500  0.96938500  0.67599300  1
  S  S10_4  1  0.96938500  0.46938500  0.17599300  1
  S  S10_5  1  0.96938500  0.46938500  0.67599300  1
  S  S10_6  1  0.96938500  0.96938500  0.17599300  1
  S  S10_7  1  0.96938500  0.96938500  0.67599300  1
  S  S11_0  1  0.28914550  0.28914550  0.14059250  1
  S  S11_1  1  0.28914550  0.28914550  0.64059250  1
  S  S11_2  1  0.28914550  0.78914550  0.14059250  1
  S  S11_3  1  0.28914550  0.78914550  0.64059250  1
  S  S11_4  1  0.78914550  0.28914550  0.14059250  1
  S  S11_5  1  0.78914550  0.28914550  0.64059250  1
  S  S11_6  1  0.78914550  0.78914550  0.14059250  1
  S  S11_7  1  0.78914550  0.78914550  0.64059250  1
  S  S12_0  1  0.06812650  0.06812650  0.21301550  1
  S  S12_1  1  0.06812650  0.06812650  0.71301550  1
  S  S12_2  1  0.06812650  0.56812650  0.21301550  1
  S  S12_3  1  0.06812650  0.56812650  0.71301550  1
  S  S12_4  1  0.56812650  0.06812650  0.21301550  1
  S  S12_5  1  0.56812650  0.06812650  0.71301550  1
  S  S12_6  1  0.56812650  0.56812650  0.21301550  1
  S  S12_7  1  0.56812650  0.56812650  0.71301550  1
  S  S13_0  1  0.21165800  0.21165800  0.00418850  1
  S  S13_1  1  0.21165800  0.21165800  0.50418850  1
  S  S13_2  1  0.21165800  0.71165800  0.00418850  1
  S  S13_3  1  0.21165800  0.71165800  0.50418850  1
  S  S13_4  1  0.71165800  0.21165800  0.00418850  1
  S  S13_5  1  0.71165800  0.21165800  0.50418850  1
  S  S13_6  1  0.71165800  0.71165800  0.00418850  1
  S  S13_7  1  0.71165800  0.71165800  0.50418850  1
  S  S14_0  1  0.00162700  0.00162700  0.07382100  1
  S  S14_1  1  0.00162700  0.00162700  0.57382100  1
  S  S14_2  1  0.00162700  0.50162700  0.07382100  1
  S  S14_3  1  0.00162700  0.50162700  0.57382100  1
  S  S14_4  1  0.50162700  0.00162700  0.07382100  1
  S  S14_5  1  0.50162700  0.00162700  0.57382100  1
  S  S14_6  1  0.50162700  0.50162700  0.07382100  1
  S  S14_7  1  0.50162700  0.50162700  0.57382100  1
  S  S15_0  1  0.36480300  0.36480300  0.14071000  1
  S  S15_1  1  0.36480300  0.36480300  0.64071000  1
  S  S15_2  1  0.36480300  0.86480300  0.14071000  1
  S  S15_3  1  0.36480300  0.86480300  0.64071000  1
  S  S15_4  1  0.86480300  0.36480300  0.14071000  1
  S  S15_5  1  0.86480300  0.36480300  0.64071000  1
  S  S15_6  1  0.86480300  0.86480300  0.14071000  1
  S  S15_7  1  0.86480300  0.86480300  0.64071000  1
  S  S16_0  1  0.49837300  0.49837300  0.42617900  1
  S  S16_1  1  0.49837300  0.49837300  0.92617900  1
  S  S16_2  1  0.49837300  0.99837300  0.42617900  1
  S  S16_3  1  0.49837300  0.99837300  0.92617900  1
  S  S16_4  1  0.99837300  0.49837300  0.42617900  1
  S  S16_5  1  0.99837300  0.49837300  0.92617900  1
  S  S16_6  1  0.99837300  0.99837300  0.42617900  1
  S  S16_7  1  0.99837300  0.99837300  0.92617900  1
  S  S17_0  1  0.14722500  0.14722500  0.21201600  1
  S  S17_1  1  0.14722500  0.14722500  0.71201600  1
  S  S17_2  1  0.14722500  0.64722500  0.21201600  1
  S  S17_3  1  0.14722500  0.64722500  0.71201600  1
  S  S17_4  1  0.64722500  0.14722500  0.21201600  1
  S  S17_5  1  0.64722500  0.14722500  0.71201600  1
  S  S17_6  1  0.64722500  0.64722500  0.21201600  1
  S  S17_7  1  0.64722500  0.64722500  0.71201600  1
loop_
_geom_bond_atom_site_label_1
_geom_bond_atom_site_label_2
_geom_bond_distance
_geom_bond_site_symmetry_2
K0_0 S1_2 3.167584 1_545
K0_0 S1_4 3.167584 1_455
K0_0 S6_2 3.289738 1_545
K0_0 S6_4 3.289738 1_455
K0_0 S3_0 3.312599 1_555
K0_0 S8_2 3.467453 1_545
K0_0 S8_4 3.467453 1_455
K0_0 S2_1 3.485067 1_555
K0_1 S1_3 3.167584 1_545
K0_1 S1_5 3.167584 1_455
K0_1 S6_5 3.289738 1_455
K0_1 S6_3 3.289738 1_545
K0_1 S3_1 3.312599 1_555
K0_1 S8_3 3.467453 1_545
K0_1 S8_5 3.467453 1_455
K0_1 S2_0 3.485067 1_556
K0_2 S1_0 3.167584 1_555
K0_2 S1_6 3.167584 1_455
K0_2 S6_6 3.289738 1_455
K0_2 S6_0 3.289738 1_555
K0_2 S3_2 3.312599 1_555
K0_2 S8_0 3.467453 1_555
K0_2 S8_6 3.467453 1_455
K0_2 S2_3 3.485067 1_555
K0_3 S1_7 3.167584 1_455
K0_3 S1_1 3.167584 1_555
K0_3 S6_7 3.289738 1_455
K0_3 S6_1 3.289738 1_555
K0_3 S3_3 3.312599 1_555
K0_3 S8_7 3.467453 1_455
K0_3 S8_1 3.467453 1_555
K0_3 S2_2 3.485067 1_556
K0_4 S1_0 3.167584 1_555
K0_4 S1_6 3.167584 1_545
K0_4 S6_6 3.289738 1_545
K0_4 S6_0 3.289738 1_555
K0_4 S3_4 3.312599 1_555
K0_4 S8_0 3.467453 1_555
K0_4 S8_6 3.467453 1_545
K0_4 S2_5 3.485067 1_555
K0_5 S1_7 3.167584 1_545
K0_5 S1_1 3.167584 1_555
K0_5 S6_7 3.289738 1_545
K0_5 S6_1 3.289738 1_555
K0_5 S3_5 3.312599 1_555
K0_5 S8_7 3.467453 1_545
K0_5 S8_1 3.467453 1_555
K0_5 S2_4 3.485067 1_556
K0_6 S1_2 3.167584 1_555
K0_6 S1_4 3.167584 1_555
K0_6 S6_4 3.289738 1_555
K0_6 S6_2 3.289738 1_555
K0_6 S3_6 3.312599 1_555
K0_6 S8_4 3.467453 1_555
K0_6 S8_2 3.467453 1_555
K0_6 S2_7 3.485067 1_555
K0_7 S1_5 3.167584 1_555
K0_7 S1_3 3.167584 1_555
K0_7 S6_5 3.289738 1_555
K0_7 S6_3 3.289738 1_555
K0_7 S3_7 3.312599 1_555
K0_7 S8_5 3.467453 1_555
K0_7 S8_3 3.467453 1_555
K0_7 S2_6 3.485067 1_556
K1_0 S13_4 3.167584 1_555
K1_0 S13_2 3.167584 1_555
K1_0 S0_4 3.289738 1_555
K1_0 S0_2 3.289738 1_555
K1_0 S15_0 3.312599 1_555
K1_0 S2_4 3.467453 1_555
K1_0 S2_2 3.467453 1_555
K1_0 S8_1 3.485067 1_554
K1_1 S13_3 3.167584 1_555
K1_1 S13_5 3.167584 1_555
K1_1 S0_3 3.289738 1_555
K1_1 S0_5 3.289738 1_555
K1_1 S15_1 3.312599 1_555
K1_1 S2_5 3.467453 1_555
K1_1 S2_3 3.467453 1_555
K1_1 S8_0 3.485067 1_555
K1_2 S13_0 3.167584 1_565
K1_2 S13_6 3.167584 1_555
K1_2 S0_0 3.289738 1_565
K1_2 S0_6 3.289738 1_555
K1_2 S15_2 3.312599 1_555
K1_2 S2_6 3.467453 1_555
K1_2 S2_0 3.467453 1_565
K1_2 S8_3 3.485067 1_554
K1_3 S13_1 3.167584 1_565
K1_3 S13_7 3.167584 1_555
K1_3 S0_1 3.289738 1_565
K1_3 S0_7 3.289738 1_555
K1_3 S15_3 3.312599 1_555
K1_3 S2_7 3.467453 1_555
K1_3 S2_1 3.467453 1_565
K1_3 S8_2 3.485067 1_555
K1_4 S13_0 3.167584 1_655
K1_4 S13_6 3.167584 1_555
K1_4 S0_0 3.289738 1_655
K1_4 S0_6 3.289738 1_555
K1_4 S15_4 3.312599 1_555
K1_4 S2_0 3.467453 1_655
K1_4 S2_6 3.467453 1_555
K1_4 S8_5 3.485067 1_554
K1_5 S13_1 3.167584 1_655
K1_5 S13_7 3.167584 1_555
K1_5 S0_7 3.289738 1_555
K1_5 S0_1 3.289738 1_655
K1_5 S15_5 3.312599 1_555
K1_5 S2_7 3.467453 1_555
K1_5 S2_1 3.467453 1_655
K1_5 S8_4 3.485067 1_555
K1_6 S13_4 3.167584 1_565
K1_6 S13_2 3.167584 1_655
K1_6 S0_4 3.289738 1_565
K1_6 S0_2 3.289738 1_655
K1_6 S15_6 3.312599 1_555
K1_6 S2_4 3.467453 1_565
K1_6 S2_2 3.467453 1_655
K1_6 S8_7 3.485067 1_554
K1_7 S13_5 3.167584 1_565
K1_7 S13_3 3.167584 1_655
K1_7 S0_3 3.289738 1_655
K1_7 S0_5 3.289738 1_565
K1_7 S15_7 3.312599 1_555
K1_7 S2_5 3.467453 1_565
K1_7 S2_3 3.467453 1_655
K1_7 S8_6 3.485067 1_555
K2_0 S9_2 3.403089 1_545
K2_0 S9_4 3.403089 1_455
K2_0 S10_2 3.421330 1_545
K2_0 S10_4 3.421330 1_455
K2_0 S7_4 3.472757 1_555
K2_0 S7_2 3.472757 1_555
K2_0 S12_2 3.499099 1_555
K2_0 S12_4 3.499099 1_555
K2_0 K2_6 3.520108 1_455
K2_0 K2_6 3.520108 1_545
K2_0 S5_0 3.682613 1_555
K2_0 S11_0 3.726556 1_555
K2_1 S9_3 3.403089 1_545
K2_1 S9_5 3.403089 1_455
K2_1 S10_3 3.421330 1_545
K2_1 S10_5 3.421330 1_455
K2_1 S7_5 3.472757 1_555
K2_1 S7_3 3.472757 1_555
K2_1 S12_5 3.499099 1_555
K2_1 S12_3 3.499099 1_555
K2_1 K2_7 3.520108 1_545
K2_1 K2_7 3.520108 1_455
K2_1 S5_1 3.682613 1_555
K2_1 S11_1 3.726556 1_555
K2_2 S9_0 3.403089 1_555
K2_2 S9_6 3.403089 1_455
K2_2 S10_6 3.421330 1_455
K2_2 S10_0 3.421330 1_555
K2_2 S7_0 3.472757 1_565
K2_2 S7_6 3.472757 1_555
K2_2 S12_0 3.499099 1_565
K2_2 S12_6 3.499099 1_555
K2_2 K2_4 3.520108 1_555
K2_2 K2_4 3.520108 1_465
K2_2 S5_2 3.682613 1_555
K2_2 S11_2 3.726556 1_555
K2_3 S9_7 3.403089 1_455
K2_3 S9_1 3.403089 1_555
K2_3 S10_7 3.421330 1_455
K2_3 S10_1 3.421330 1_555
K2_3 S7_1 3.472757 1_565
K2_3 S7_7 3.472757 1_555
K2_3 S12_7 3.499099 1_555
K2_3 S12_1 3.499099 1_565
K2_3 K2_5 3.520108 1_555
K2_3 K2_5 3.520108 1_465
K2_3 S5_3 3.682613 1_555
K2_3 S11_3 3.726556 1_555
K2_4 S9_0 3.403089 1_555
K2_4 S9_6 3.403089 1_545
K2_4 S10_6 3.421330 1_545
K2_4 S10_0 3.421330 1_555
K2_4 S7_0 3.472757 1_655
K2_4 S7_6 3.472757 1_555
K2_4 S12_0 3.499099 1_655
K2_4 S12_6 3.499099 1_555
K2_4 S5_4 3.682613 1_555
K2_4 S11_4 3.726556 1_555
K2_5 S9_7 3.403089 1_545
K2_5 S9_1 3.403089 1_555
K2_5 S10_7 3.421330 1_545
K2_5 S10_1 3.421330 1_555
K2_5 S7_1 3.472757 1_655
K2_5 S7_7 3.472757 1_555
K2_5 S12_1 3.499099 1_655
K2_5 S12_7 3.499099 1_555
K2_5 S5_5 3.682613 1_555
K2_5 S11_5 3.726556 1_555
K2_6 S9_2 3.403089 1_555
K2_6 S9_4 3.403089 1_555
K2_6 S10_2 3.421330 1_555
K2_6 S10_4 3.421330 1_555
K2_6 S7_4 3.472757 1_565
K2_6 S7_2 3.472757 1_655
K2_6 S12_4 3.499099 1_565
K2_6 S12_2 3.499099 1_655
K2_6 S5_6 3.682613 1_555
K2_6 S11_6 3.726556 1_555
K2_7 S9_3 3.403089 1_555
K2_7 S9_5 3.403089 1_555
K2_7 S10_5 3.421330 1_555
K2_7 S10_3 3.421330 1_555
K2_7 S7_3 3.472757 1_655
K2_7 S7_5 3.472757 1_565
K2_7 S12_3 3.499099 1_655
K2_7 S12_5 3.499099 1_565
K2_7 S5_7 3.682613 1_555
K2_7 S11_7 3.726556 1_555
Cr0_0 S11_2 2.351728 1_545
Cr0_0 S11_4 2.351728 1_455
Cr0_0 S12_0 2.398034 1_555
Cr0_0 S15_4 2.441059 1_455
Cr0_0 S15_2 2.441059 1_545
Cr0_0 S2_0 2.473139 1_555
Cr0_1 S11_3 2.351728 1_545
Cr0_1 S11_5 2.351728 1_455
Cr0_1 S12_1 2.398034 1_555
Cr0_1 S15_5 2.441059 1_455
Cr0_1 S15_3 2.441059 1_545
Cr0_1 S2_1 2.473139 1_555
Cr0_2 S11_6 2.351728 1_455
Cr0_2 S11_0 2.351728 1_555
Cr0_2 S12_2 2.398034 1_555
Cr0_2 S15_6 2.441059 1_455
Cr0_2 S15_0 2.441059 1_555
Cr0_2 S2_2 2.473139 1_555
Cr0_3 S11_7 2.351728 1_455
Cr0_3 S11_1 2.351728 1_555
Cr0_3 S12_3 2.398034 1_555
Cr0_3 S15_1 2.441059 1_555
Cr0_3 S15_7 2.441059 1_455
Cr0_3 S2_3 2.473139 1_555
Cr0_4 S11_6 2.351728 1_545
Cr0_4 S11_0 2.351728 1_555
Cr0_4 S12_4 2.398034 1_555
Cr0_4 S15_6 2.441059 1_545
Cr0_4 S15_0 2.441059 1_555
Cr0_4 S2_4 2.473139 1_555
Cr0_5 S11_7 2.351728 1_545
Cr0_5 S11_1 2.351728 1_555
Cr0_5 S12_5 2.398034 1_555
Cr0_5 S15_1 2.441059 1_555
Cr0_5 S15_7 2.441059 1_545
Cr0_5 S2_5 2.473139 1_555
Cr0_6 S11_2 2.351728 1_555
Cr0_6 S11_4 2.351728 1_555
Cr0_6 S12_6 2.398034 1_555
Cr0_6 S15_2 2.441059 1_555
Cr0_6 S15_4 2.441059 1_555
Cr0_6 S2_6 2.473139 1_555
Cr0_7 S11_3 2.351728 1_555
Cr0_7 S11_5 2.351728 1_555
Cr0_7 S12_7 2.398034 1_555
Cr0_7 S15_3 2.441059 1_555
Cr0_7 S15_5 2.441059 1_555
Cr0_7 S2_7 2.473139 1_555
Cr1_0 S5_4 2.351728 1_555
Cr1_0 S5_2 2.351728 1_555
Cr1_0 S9_0 2.398034 1_555
Cr1_0 S3_4 2.441059 1_555
Cr1_0 S3_2 2.441059 1_555
Cr1_0 S8_0 2.473139 1_555
Cr1_1 S5_3 2.351728 1_555
Cr1_1 S5_5 2.351728 1_555
Cr1_1 S9_1 2.398034 1_555
Cr1_1 S3_3 2.441059 1_555
Cr1_1 S3_5 2.441059 1_555
Cr1_1 S8_1 2.473139 1_555
Cr1_2 S5_6 2.351728 1_555
Cr1_2 S5_0 2.351728 1_565
Cr1_2 S9_2 2.398034 1_555
Cr1_2 S3_6 2.441059 1_555
Cr1_2 S3_0 2.441059 1_565
Cr1_2 S8_2 2.473139 1_555
Cr1_3 S5_1 2.351728 1_565
Cr1_3 S5_7 2.351728 1_555
Cr1_3 S9_3 2.398034 1_555
Cr1_3 S3_7 2.441059 1_555
Cr1_3 S3_1 2.441059 1_565
Cr1_3 S8_3 2.473139 1_555
Cr1_4 S5_6 2.351728 1_555
Cr1_4 S5_0 2.351728 1_655
Cr1_4 S9_4 2.398034 1_555
Cr1_4 S3_6 2.441059 1_555
Cr1_4 S3_0 2.441059 1_655
Cr1_4 S8_4 2.473139 1_555
Cr1_5 S5_1 2.351728 1_655
Cr1_5 S5_7 2.351728 1_555
Cr1_5 S9_5 2.398034 1_555
Cr1_5 S3_7 2.441059 1_555
Cr1_5 S3_1 2.441059 1_655
Cr1_5 S8_5 2.473139 1_555
Cr1_6 S5_2 2.351728 1_655
Cr1_6 S5_4 2.351728 1_565
Cr1_6 S9_6 2.398034 1_555
Cr1_6 S3_2 2.441059 1_655
Cr1_6 S3_4 2.441059 1_565
Cr1_6 S8_6 2.473139 1_555
Cr1_7 S5_5 2.351728 1_565
Cr1_7 S5_3 2.351728 1_655
Cr1_7 S9_7 2.398034 1_555
Cr1_7 S3_5 2.441059 1_565
Cr1_7 S3_3 2.441059 1_655
Cr1_7 S8_7 2.473139 1_555
Cr2_0 S12_4 2.310280 1_555
Cr2_0 S12_2 2.310280 1_555
Cr2_0 S15_0 2.408322 1_555
Cr2_0 S4_0 2.409118 1_555
Cr2_0 S17_4 2.588572 1_555
Cr2_0 S17_2 2.588572 1_555
Cr2_1 S12_3 2.310280 1_555
Cr2_1 S12_5 2.310280 1_555
Cr2_1 S15_1 2.408322 1_555
Cr2_1 S4_1 2.409118 1_555
Cr2_1 S17_3 2.588572 1_555
Cr2_1 S17_5 2.588572 1_555
Cr2_2 S12_6 2.310280 1_555
Cr2_2 S12_0 2.310280 1_565
Cr2_2 S15_2 2.408322 1_555
Cr2_2 S4_2 2.409118 1_555
Cr2_2 S17_0 2.588572 1_565
Cr2_2 S17_6 2.588572 1_555
Cr2_3 S12_7 2.310280 1_555
Cr2_3 S12_1 2.310280 1_565
Cr2_3 S15_3 2.408322 1_555
Cr2_3 S4_3 2.409118 1_555
Cr2_3 S17_1 2.588572 1_565
Cr2_3 S17_7 2.588572 1_555
Cr2_4 S12_6 2.310280 1_555
Cr2_4 S12_0 2.310280 1_655
Cr2_4 S15_4 2.408322 1_555
Cr2_4 S4_4 2.409118 1_555
Cr2_4 S17_6 2.588572 1_555
Cr2_4 S17_0 2.588572 1_655
Cr2_5 S12_7 2.310280 1_555
Cr2_5 S12_1 2.310280 1_655
Cr2_5 S15_5 2.408322 1_555
Cr2_5 S4_5 2.409118 1_555
Cr2_5 S17_1 2.588572 1_655
Cr2_5 S17_7 2.588572 1_555
Cr2_6 S12_2 2.310280 1_655
Cr2_6 S12_4 2.310280 1_565
Cr2_6 S15_6 2.408322 1_555
Cr2_6 S4_6 2.409118 1_555
Cr2_6 S17_2 2.588572 1_655
Cr2_6 S17_4 2.588572 1_565
Cr2_7 S12_3 2.310280 1_655
Cr2_7 S12_5 2.310280 1_565
Cr2_7 S15_7 2.408322 1_555
Cr2_7 S4_7 2.409118 1_555
Cr2_7 S17_3 2.588572 1_655
Cr2_7 S17_5 2.588572 1_565
Cr3_0 S8_2 2.354195 1_545
Cr3_0 S8_4 2.354195 1_455
Cr3_0 S13_1 2.390596 1_555
Cr3_0 S5_0 2.421242 1_555
Cr3_0 S16_2 2.564810 1_545
Cr3_0 S16_4 2.564810 1_455
Cr3_1 S8_5 2.354195 1_455
Cr3_1 S8_3 2.354195 1_545
Cr3_1 S13_0 2.390596 1_556
Cr3_1 S5_1 2.421242 1_555
Cr3_1 S16_5 2.564810 1_455
Cr3_1 S16_3 2.564810 1_545
Cr3_2 S8_6 2.354195 1_455
Cr3_2 S8_0 2.354195 1_555
Cr3_2 S13_3 2.390596 1_555
Cr3_2 S5_2 2.421242 1_555
Cr3_2 S16_6 2.564810 1_455
Cr3_2 S16_0 2.564810 1_555
Cr3_3 S8_1 2.354195 1_555
Cr3_3 S8_7 2.354195 1_455
Cr3_3 S13_2 2.390596 1_556
Cr3_3 S5_3 2.421242 1_555
Cr3_3 S16_7 2.564810 1_455
Cr3_3 S16_1 2.564810 1_555
Cr3_4 S8_6 2.354195 1_545
Cr3_4 S8_0 2.354195 1_555
Cr3_4 S13_5 2.390596 1_555
Cr3_4 S5_4 2.421242 1_555
Cr3_4 S16_6 2.564810 1_545
Cr3_4 S16_0 2.564810 1_555
Cr3_5 S8_1 2.354195 1_555
Cr3_5 S8_7 2.354195 1_545
Cr3_5 S13_4 2.390596 1_556
Cr3_5 S5_5 2.421242 1_555
Cr3_5 S16_7 2.564810 1_545
Cr3_5 S16_1 2.564810 1_555
Cr3_6 S8_2 2.354195 1_555
Cr3_6 S8_4 2.354195 1_555
Cr3_6 S13_7 2.390596 1_555
Cr3_6 S5_6 2.421242 1_555
Cr3_6 S16_2 2.564810 1_555
Cr3_6 S16_4 2.564810 1_555
Cr3_7 S8_5 2.354195 1_555
Cr3_7 S8_3 2.354195 1_555
Cr3_7 S13_6 2.390596 1_556
Cr3_7 S5_7 2.421242 1_555
Cr3_7 S16_3 2.564810 1_555
Cr3_7 S16_5 2.564810 1_555
Cr4_0 S7_2 2.376621 1_555
Cr4_0 S7_4 2.376621 1_555
Cr4_0 S6_0 2.412120 1_555
Cr4_0 S5_0 2.420024 1_555
Cr4_0 S16_2 2.527876 1_545
Cr4_0 S16_4 2.527876 1_455
Cr4_1 S7_3 2.376621 1_555
Cr4_1 S7_5 2.376621 1_555
Cr4_1 S6_1 2.412120 1_555
Cr4_1 S5_1 2.420024 1_555
Cr4_1 S16_3 2.527876 1_545
Cr4_1 S16_5 2.527876 1_455
Cr4_2 S7_0 2.376621 1_565
Cr4_2 S7_6 2.376621 1_555
Cr4_2 S6_2 2.412120 1_555
Cr4_2 S5_2 2.420024 1_555
Cr4_2 S16_0 2.527876 1_555
Cr4_2 S16_6 2.527876 1_455
Cr4_3 S7_7 2.376621 1_555
Cr4_3 S7_1 2.376621 1_565
Cr4_3 S6_3 2.412120 1_555
Cr4_3 S5_3 2.420024 1_555
Cr4_3 S16_1 2.527876 1_555
Cr4_3 S16_7 2.527876 1_455
Cr4_4 S7_0 2.376621 1_655
Cr4_4 S7_6 2.376621 1_555
Cr4_4 S6_4 2.412120 1_555
Cr4_4 S5_4 2.420024 1_555
Cr4_4 S16_0 2.527876 1_555
Cr4_4 S16_6 2.527876 1_545
Cr4_5 S7_1 2.376621 1_655
Cr4_5 S7_7 2.376621 1_555
Cr4_5 S6_5 2.412120 1_555
Cr4_5 S5_5 2.420024 1_555
Cr4_5 S16_1 2.527876 1_555
Cr4_5 S16_7 2.527876 1_545
Cr4_6 S7_2 2.376621 1_655
Cr4_6 S7_4 2.376621 1_565
Cr4_6 S6_6 2.412120 1_555
Cr4_6 S5_6 2.420024 1_555
Cr4_6 S16_4 2.527876 1_555
Cr4_6 S16_2 2.527876 1_555
Cr4_7 S7_3 2.376621 1_655
Cr4_7 S7_5 2.376621 1_565
Cr4_7 S6_7 2.412120 1_555
Cr4_7 S5_7 2.420024 1_555
Cr4_7 S16_3 2.527876 1_555
Cr4_7 S16_5 2.527876 1_555
Cr5_0 S10_4 2.376621 1_455
Cr5_0 S10_2 2.376621 1_545
Cr5_0 S0_0 2.412120 1_555
Cr5_0 S11_0 2.420024 1_555
Cr5_0 S14_2 2.527876 1_555
Cr5_0 S14_4 2.527876 1_555
Cr5_1 S10_3 2.376621 1_545
Cr5_1 S10_5 2.376621 1_455
Cr5_1 S0_1 2.412120 1_555
Cr5_1 S11_1 2.420024 1_555
Cr5_1 S14_3 2.527876 1_555
Cr5_1 S14_5 2.527876 1_555
Cr5_2 S10_6 2.376621 1_455
Cr5_2 S10_0 2.376621 1_555
Cr5_2 S0_2 2.412120 1_555
Cr5_2 S11_2 2.420024 1_555
Cr5_2 S14_6 2.527876 1_555
Cr5_2 S14_0 2.527876 1_565
Cr5_3 S10_7 2.376621 1_455
Cr5_3 S10_1 2.376621 1_555
Cr5_3 S0_3 2.412120 1_555
Cr5_3 S11_3 2.420024 1_555
Cr5_3 S14_1 2.527876 1_565
Cr5_3 S14_7 2.527876 1_555
Cr5_4 S10_6 2.376621 1_545
Cr5_4 S10_0 2.376621 1_555
Cr5_4 S0_4 2.412120 1_555
Cr5_4 S11_4 2.420024 1_555
Cr5_4 S14_6 2.527876 1_555
Cr5_4 S14_0 2.527876 1_655
Cr5_5 S10_7 2.376621 1_545
Cr5_5 S10_1 2.376621 1_555
Cr5_5 S0_5 2.412120 1_555
Cr5_5 S11_5 2.420024 1_555
Cr5_5 S14_1 2.527876 1_655
Cr5_5 S14_7 2.527876 1_555
Cr5_6 S10_4 2.376621 1_555
Cr5_6 S10_2 2.376621 1_555
Cr5_6 S0_6 2.412120 1_555
Cr5_6 S11_6 2.420024 1_555
Cr5_6 S14_2 2.527876 1_655
Cr5_6 S14_4 2.527876 1_565
Cr5_7 S10_5 2.376621 1_555
Cr5_7 S10_3 2.376621 1_555
Cr5_7 S0_7 2.412120 1_555
Cr5_7 S11_7 2.420024 1_555
Cr5_7 S14_5 2.527876 1_565
Cr5_7 S14_3 2.527876 1_655
Cr6_0 S9_2 2.310280 1_545
Cr6_0 S9_4 2.310280 1_455
Cr6_0 S3_0 2.408322 1_555
Cr6_0 S17_0 2.409118 1_555
Cr6_0 S4_4 2.588572 1_455
Cr6_0 S4_2 2.588572 1_545
Cr6_1 S9_3 2.310280 1_545
Cr6_1 S9_5 2.310280 1_455
Cr6_1 S3_1 2.408322 1_555
Cr6_1 S17_1 2.409118 1_555
Cr6_1 S4_3 2.588572 1_545
Cr6_1 S4_5 2.588572 1_455
Cr6_2 S9_6 2.310280 1_455
Cr6_2 S9_0 2.310280 1_555
Cr6_2 S3_2 2.408322 1_555
Cr6_2 S17_2 2.409118 1_555
Cr6_2 S4_6 2.588572 1_455
Cr6_2 S4_0 2.588572 1_555
Cr6_3 S9_1 2.310280 1_555
Cr6_3 S9_7 2.310280 1_455
Cr6_3 S3_3 2.408322 1_555
Cr6_3 S17_3 2.409118 1_555
Cr6_3 S4_1 2.588572 1_555
Cr6_3 S4_7 2.588572 1_455
Cr6_4 S9_6 2.310280 1_545
Cr6_4 S9_0 2.310280 1_555
Cr6_4 S3_4 2.408322 1_555
Cr6_4 S17_4 2.409118 1_555
Cr6_4 S4_6 2.588572 1_545
Cr6_4 S4_0 2.588572 1_555
Cr6_5 S9_1 2.310280 1_555
Cr6_5 S9_7 2.310280 1_545
Cr6_5 S3_5 2.408322 1_555
Cr6_5 S17_5 2.409118 1_555
Cr6_5 S4_1 2.588572 1_555
Cr6_5 S4_7 2.588572 1_545
Cr6_6 S9_2 2.310280 1_555
Cr6_6 S9_4 2.310280 1_555
Cr6_6 S3_6 2.408322 1_555
Cr6_6 S17_6 2.409118 1_555
Cr6_6 S4_2 2.588572 1_555
Cr6_6 S4_4 2.588572 1_555
Cr6_7 S9_3 2.310280 1_555
Cr6_7 S9_5 2.310280 1_555
Cr6_7 S3_7 2.408322 1_555
Cr6_7 S17_7 2.409118 1_555
Cr6_7 S4_5 2.588572 1_555
Cr6_7 S4_3 2.588572 1_555
Cr7_0 S2_2 2.354195 1_555
Cr7_0 S2_4 2.354195 1_555
Cr7_0 S1_1 2.390596 1_554
Cr7_0 S11_0 2.421242 1_555
Cr7_0 S14_2 2.564810 1_555
Cr7_0 S14_4 2.564810 1_555
Cr7_1 S2_3 2.354195 1_555
Cr7_1 S2_5 2.354195 1_555
Cr7_1 S1_0 2.390596 1_555
Cr7_1 S11_1 2.421242 1_555
Cr7_1 S14_3 2.564810 1_555
Cr7_1 S14_5 2.564810 1_555
Cr7_2 S2_0 2.354195 1_565
Cr7_2 S2_6 2.354195 1_555
Cr7_2 S1_3 2.390596 1_554
Cr7_2 S11_2 2.421242 1_555
Cr7_2 S14_0 2.564810 1_565
Cr7_2 S14_6 2.564810 1_555
Cr7_3 S2_1 2.354195 1_565
Cr7_3 S2_7 2.354195 1_555
Cr7_3 S1_2 2.390596 1_555
Cr7_3 S11_3 2.421242 1_555
Cr7_3 S14_7 2.564810 1_555
Cr7_3 S14_1 2.564810 1_565
Cr7_4 S2_6 2.354195 1_555
Cr7_4 S2_0 2.354195 1_655
Cr7_4 S1_5 2.390596 1_554
Cr7_4 S11_4 2.421242 1_555
Cr7_4 S14_0 2.564810 1_655
Cr7_4 S14_6 2.564810 1_555
Cr7_5 S2_1 2.354195 1_655
Cr7_5 S2_7 2.354195 1_555
Cr7_5 S1_4 2.390596 1_555
Cr7_5 S11_5 2.421242 1_555
Cr7_5 S14_7 2.564810 1_555
Cr7_5 S14_1 2.564810 1_655
Cr7_6 S2_4 2.354195 1_565
Cr7_6 S2_2 2.354195 1_655
Cr7_6 S1_7 2.390596 1_554
Cr7_6 S11_6 2.421242 1_555
Cr7_6 S14_4 2.564810 1_565
Cr7_6 S14_2 2.564810 1_655
Cr7_7 S2_5 2.354195 1_565
Cr7_7 S2_3 2.354195 1_655
Cr7_7 S1_6 2.390596 1_555
Cr7_7 S11_7 2.421242 1_555
Cr7_7 S14_5 2.564810 1_565
Cr7_7 S14_3 2.564810 1_655
Cr8_0 S6_4 2.352266 1_455
Cr8_0 S6_2 2.352266 1_545
Cr8_0 S7_0 2.369165 1_555
Cr8_0 S3_0 2.461855 1_555
Cr8_0 S4_4 2.501935 1_455
Cr8_0 S4_2 2.501935 1_545
Cr8_1 S6_5 2.352266 1_455
Cr8_1 S6_3 2.352266 1_545
Cr8_1 S7_1 2.369165 1_555
Cr8_1 S3_1 2.461855 1_555
Cr8_1 S4_5 2.501935 1_455
Cr8_1 S4_3 2.501935 1_545
Cr8_2 S6_6 2.352266 1_455
Cr8_2 S6_0 2.352266 1_555
Cr8_2 S7_2 2.369165 1_555
Cr8_2 S3_2 2.461855 1_555
Cr8_2 S4_0 2.501935 1_555
Cr8_2 S4_6 2.501935 1_455
Cr8_3 S6_7 2.352266 1_455
Cr8_3 S6_1 2.352266 1_555
Cr8_3 S7_3 2.369165 1_555
Cr8_3 S3_3 2.461855 1_555
Cr8_3 S4_7 2.501935 1_455
Cr8_3 S4_1 2.501935 1_555
Cr8_4 S6_6 2.352266 1_545
Cr8_4 S6_0 2.352266 1_555
Cr8_4 S7_4 2.369165 1_555
Cr8_4 S3_4 2.461855 1_555
Cr8_4 S4_0 2.501935 1_555
Cr8_4 S4_6 2.501935 1_545
Cr8_5 S6_7 2.352266 1_545
Cr8_5 S6_1 2.352266 1_555
Cr8_5 S7_5 2.369165 1_555
Cr8_5 S3_5 2.461855 1_555
Cr8_5 S4_7 2.501935 1_545
Cr8_5 S4_1 2.501935 1_555
Cr8_6 S6_2 2.352266 1_555
Cr8_6 S6_4 2.352266 1_555
Cr8_6 S7_6 2.369165 1_555
Cr8_6 S3_6 2.461855 1_555
Cr8_6 S4_4 2.501935 1_555
Cr8_6 S4_2 2.501935 1_555
Cr8_7 S6_3 2.352266 1_555
Cr8_7 S6_5 2.352266 1_555
Cr8_7 S7_7 2.369165 1_555
Cr8_7 S3_7 2.461855 1_555
Cr8_7 S4_3 2.501935 1_555
Cr8_7 S4_5 2.501935 1_555
Cr9_0 S0_4 2.352266 1_555
Cr9_0 S0_2 2.352266 1_555
Cr9_0 S10_0 2.369165 1_555
Cr9_0 S15_0 2.461855 1_555
Cr9_0 S17_4 2.501935 1_555
Cr9_0 S17_2 2.501935 1_555
Cr9_1 S0_3 2.352266 1_555
Cr9_1 S0_5 2.352266 1_555
Cr9_1 S10_1 2.369165 1_555
Cr9_1 S15_1 2.461855 1_555
Cr9_1 S17_3 2.501935 1_555
Cr9_1 S17_5 2.501935 1_555
Cr9_2 S0_0 2.352266 1_565
Cr9_2 S0_6 2.352266 1_555
Cr9_2 S10_2 2.369165 1_555
Cr9_2 S15_2 2.461855 1_555
Cr9_2 S17_6 2.501935 1_555
Cr9_2 S17_0 2.501935 1_565
Cr9_3 S0_7 2.352266 1_555
Cr9_3 S0_1 2.352266 1_565
Cr9_3 S10_3 2.369165 1_555
Cr9_3 S15_3 2.461855 1_555
Cr9_3 S17_7 2.501935 1_555
Cr9_3 S17_1 2.501935 1_565
Cr9_4 S0_0 2.352266 1_655
Cr9_4 S0_6 2.352266 1_555
Cr9_4 S10_4 2.369165 1_555
Cr9_4 S15_4 2.461855 1_555
Cr9_4 S17_0 2.501935 1_655
Cr9_4 S17_6 2.501935 1_555
Cr9_5 S0_1 2.352266 1_655
Cr9_5 S0_7 2.352266 1_555
Cr9_5 S10_5 2.369165 1_555
Cr9_5 S15_5 2.461855 1_555
Cr9_5 S17_7 2.501935 1_555
Cr9_5 S17_1 2.501935 1_655
Cr9_6 S0_2 2.352266 1_655
Cr9_6 S0_4 2.352266 1_565
Cr9_6 S10_6 2.369165 1_555
Cr9_6 S15_6 2.461855 1_555
Cr9_6 S17_4 2.501935 1_565
Cr9_6 S17_2 2.501935 1_655
Cr9_7 S0_5 2.352266 1_565
Cr9_7 S0_3 2.352266 1_655
Cr9_7 S10_7 2.369165 1_555
Cr9_7 S15_7 2.461855 1_555
Cr9_7 S17_3 2.501935 1_655
Cr9_7 S17_5 2.501935 1_565
Cr10_0 S1_5 2.397814 1_454
Cr10_0 S1_3 2.397814 1_544
Cr10_0 S13_2 2.397814 1_545
Cr10_0 S13_4 2.397814 1_455
Cr10_0 S14_0 2.444982 1_555
Cr10_0 S16_7 2.444982 1_444
Cr10_1 S1_4 2.397814 1_455
Cr10_1 S1_2 2.397814 1_545
Cr10_1 S13_3 2.397814 1_545
Cr10_1 S13_5 2.397814 1_455
Cr10_1 S14_1 2.444982 1_555
Cr10_1 S16_6 2.444982 1_445
Cr10_2 S1_1 2.397814 1_554
Cr10_2 S1_7 2.397814 1_454
Cr10_2 S13_0 2.397814 1_555
Cr10_2 S13_6 2.397814 1_455
Cr10_2 S14_2 2.444982 1_555
Cr10_2 S16_5 2.444982 1_454
Cr10_3 S1_6 2.397814 1_455
Cr10_3 S1_0 2.397814 1_555
Cr10_3 S13_7 2.397814 1_455
Cr10_3 S13_1 2.397814 1_555
Cr10_3 S14_3 2.444982 1_555
Cr10_3 S16_4 2.444982 1_455
Cr10_4 S1_1 2.397814 1_554
Cr10_4 S1_7 2.397814 1_544
Cr10_4 S13_0 2.397814 1_555
Cr10_4 S13_6 2.397814 1_545
Cr10_4 S14_4 2.444982 1_555
Cr10_4 S16_3 2.444982 1_544
Cr10_5 S1_6 2.397814 1_545
Cr10_5 S1_0 2.397814 1_555
Cr10_5 S13_7 2.397814 1_545
Cr10_5 S13_1 2.397814 1_555
Cr10_5 S14_5 2.444982 1_555
Cr10_5 S16_2 2.444982 1_545
Cr10_6 S1_5 2.397814 1_554
Cr10_6 S1_3 2.397814 1_554
Cr10_6 S13_4 2.397814 1_555
Cr10_6 S13_2 2.397814 1_555
Cr10_6 S14_6 2.444982 1_555
Cr10_6 S16_1 2.444982 1_554
Cr10_7 S1_2 2.397814 1_555
Cr10_7 S1_4 2.397814 1_555
Cr10_7 S13_3 2.397814 1_555
Cr10_7 S13_5 2.397814 1_555
Cr10_7 S14_7 2.444982 1_555
Cr10_7 S16_0 2.444982 1_555
