# generated using pymatgen
data_B2(CN2)3
_symmetry_space_group_name_H-M   'P 1'
_cell_length_a   4.87134800
_cell_length_b   6.71425991
_cell_length_c   8.71649795
_cell_angle_alpha   91.00049257
_cell_angle_beta   90.22678453
_cell_angle_gamma   101.40209138
_symmetry_Int_Tables_number   1
_chemical_formula_structural   B2(CN2)3
_chemical_formula_sum   'B8 C12 N24'
_cell_volume   279.41759148
_cell_formula_units_Z   4
loop_
 _symmetry_equiv_pos_site_id
 _symmetry_equiv_pos_as_xyz
  1  'x, y, z'
loop_
 _atom_site_type_symbol
 _atom_site_label
 _atom_site_symmetry_multiplicity
 _atom_site_fract_x
 _atom_site_fract_y
 _atom_site_fract_z
 _atom_site_occupancy
  B  B0  1  0.21405500  0.89148800  0.41710200  1
  B  B1  1  0.12682600  0.94834500  0.91159500  1
  B  B2  1  0.78594500  0.10851200  0.58289800  1
  B  B3  1  0.87317400  0.05165500  0.08840500  1
  B  B4  1  0.71023500  0.39339600  0.16076100  1
  B  B5  1  0.28976500  0.60660400  0.83923900  1
  B  B6  1  0.34029400  0.57775700  0.32955400  1
  B  B7  1  0.65970600  0.42224300  0.67044600  1
  C  C0  1  0.39265800  0.06598200  0.18372100  1
  C  C1  1  0.05656300  0.72471500  0.65822700  1
  C  C2  1  0.95857100  0.27917900  0.84018700  1
  C  C3  1  0.55612100  0.73026800  0.58618300  1
  C  C4  1  0.21458900  0.38460100  0.08805000  1
  C  C5  1  0.94343700  0.27528500  0.34177300  1
  C  C6  1  0.04142900  0.72082100  0.15981300  1
  C  C7  1  0.73977500  0.90172700  0.32679000  1
  C  C8  1  0.60734200  0.93401800  0.81627900  1
  C  C9  1  0.44387900  0.26973200  0.41381700  1
  C  C10  1  0.78541100  0.61539900  0.91195000  1
  C  C11  1  0.26022500  0.09827300  0.67321000  1
  N  N0  1  0.73759900  0.40627100  0.82740700  1
  N  N1  1  0.36977700  0.04627400  0.82272000  1
  N  N2  1  0.51410200  0.23633700  0.58344600  1
  N  N3  1  0.22330600  0.38690800  0.39837100  1
  N  N4  1  0.18434900  0.40737700  0.92293200  1
  N  N5  1  0.26240100  0.59372900  0.17259300  1
  N  N6  1  0.66771000  0.91948100  0.65916500  1
  N  N7  1  0.48589800  0.76366300  0.41655400  1
  N  N8  1  0.81565100  0.59262300  0.07706800  1
  N  N9  1  0.29044700  0.61475800  0.65863300  1
  N  N10  1  0.63022300  0.95372600  0.17728000  1
  N  N11  1  0.03548500  0.21860700  0.68553000  1
  N  N12  1  0.44187900  0.26728100  0.11051300  1
  N  N13  1  0.77669400  0.61309200  0.60162900  1
  N  N14  1  0.86367000  0.06579600  0.90955700  1
  N  N15  1  0.04021800  0.73555400  0.84373600  1
  N  N16  1  0.33229000  0.08051900  0.34083500  1
  N  N17  1  0.84497900  0.08626600  0.41683100  1
  N  N18  1  0.13633000  0.93420400  0.09044300  1
  N  N19  1  0.95978200  0.26444600  0.15626400  1
  N  N20  1  0.70955300  0.38524200  0.34136700  1
  N  N21  1  0.15502100  0.91373400  0.58316900  1
  N  N22  1  0.96451500  0.78139300  0.31447000  1
  N  N23  1  0.55812100  0.73271900  0.88948700  1
loop_
_geom_bond_atom_site_label_1
_geom_bond_atom_site_label_2
_geom_bond_distance
_geom_bond_site_symmetry_2
B0 N16 1.458769 1_565
B0 N21 1.487636 1_555
B0 N22 1.561220 1_455
B0 N7 1.714499 1_555
B1 N1 1.466457 1_565
B1 N15 1.516352 1_555
B1 N18 1.564529 1_556
B1 N14 1.632649 1_465
B2 N6 1.458769 1_545
B2 N17 1.487636 1_555
B2 N11 1.561220 1_655
B2 N2 1.714499 1_555
B3 N10 1.466457 1_545
B3 N19 1.516352 1_555
B3 N14 1.564529 1_554
B3 N18 1.632649 1_645
B4 N12 1.470582 1_555
B4 N8 1.533190 1_555
B4 N20 1.576152 1_555
B4 N19 1.626113 1_555
B5 N23 1.470582 1_555
B5 N4 1.533190 1_555
B5 N9 1.576152 1_555
B5 N15 1.626113 1_555
B6 N5 1.429831 1_555
B6 N3 1.437849 1_555
B6 N7 1.499616 1_555
B7 N0 1.429831 1_555
B7 N13 1.437849 1_555
B7 N2 1.499616 1_555
C0 N16 1.407608 1_555
C0 N12 1.481430 1_555
C0 N10 1.501468 1_545
C0 N18 1.591569 1_545
C1 N21 1.435114 1_555
C1 N9 1.475052 1_555
C1 N13 1.497178 1_455
C1 N15 1.620336 1_555
C2 N4 1.438221 1_655
C2 N11 1.472471 1_655
C2 N0 1.504937 1_555
C2 N14 1.550025 1_555
C3 N6 1.417795 1_555
C3 N13 1.458911 1_555
C3 N9 1.517217 1_555
C3 N7 1.546405 1_555
C4 N4 1.459946 1_554
C4 N19 1.473687 1_455
C4 N12 1.494409 1_555
C4 N5 1.549873 1_555
C5 N17 1.435114 1_555
C5 N20 1.475052 1_555
C5 N3 1.497178 1_655
C5 N19 1.620336 1_555
C6 N8 1.438221 1_455
C6 N22 1.472471 1_455
C6 N5 1.504937 1_555
C6 N18 1.550025 1_555
C7 N17 1.457956 1_565
C7 N10 1.479556 1_555
C7 N22 1.486780 1_555
C7 N7 1.606457 1_555
C8 N6 1.407608 1_555
C8 N23 1.481430 1_555
C8 N1 1.501468 1_565
C8 N14 1.591569 1_565
C9 N16 1.417795 1_555
C9 N3 1.458911 1_555
C9 N20 1.517217 1_555
C9 N2 1.546405 1_555
C10 N8 1.459946 1_556
C10 N15 1.473687 1_655
C10 N23 1.494409 1_555
C10 N0 1.549873 1_555
C11 N21 1.457956 1_545
C11 N1 1.479556 1_555
C11 N11 1.486780 1_555
C11 N2 1.606457 1_555
