# generated using pymatgen
data_Ge3P
_symmetry_space_group_name_H-M   'P 1'
_cell_length_a   5.90530152
_cell_length_b   5.90530152
_cell_length_c   4.85463800
_cell_angle_alpha   90.00000000
_cell_angle_beta   90.00000000
_cell_angle_gamma   119.99999467
_symmetry_Int_Tables_number   1
_chemical_formula_structural   Ge3P
_chemical_formula_sum   'Ge6 P2'
_cell_volume   146.61272345
_cell_formula_units_Z   2
loop_
 _symmetry_equiv_pos_site_id
 _symmetry_equiv_pos_as_xyz
  1  'x, y, z'
loop_
 _atom_site_type_symbol
 _atom_site_label
 _atom_site_symmetry_multiplicity
 _atom_site_fract_x
 _atom_site_fract_y
 _atom_site_fract_z
 _atom_site_occupancy
  Ge  Ge0  1  0.83010400  0.16989600  0.75000000  1
  Ge  Ge1  1  0.33979100  0.16989600  0.75000000  1
  Ge  Ge2  1  0.83010400  0.66020900  0.75000000  1
  Ge  Ge3  1  0.16989600  0.83010400  0.25000000  1
  Ge  Ge4  1  0.66020900  0.83010400  0.25000000  1
  Ge  Ge5  1  0.16989600  0.33979100  0.25000000  1
  P  P0  1  0.66666700  0.33333300  0.25000000  1
  P  P1  1  0.33333300  0.66666700  0.75000000  1
loop_
_geom_bond_atom_site_label_1
_geom_bond_atom_site_label_2
_geom_bond_distance
_geom_bond_site_symmetry_2
Ge0 Ge2 2.895446 1_555
Ge0 Ge1 2.895446 1_555
Ge0 P0 2.947268 1_556
Ge0 P0 2.947268 1_555
Ge0 P1 2.952836 1_545
Ge0 P1 2.952836 1_655
Ge0 Ge5 2.985236 1_655
Ge0 Ge4 2.985236 1_546
Ge0 Ge4 2.985236 1_545
Ge0 Ge5 2.985236 1_656
Ge0 Ge1 3.009855 1_655
Ge0 Ge2 3.009855 1_545
Ge1 Ge2 2.895446 1_555
Ge1 P0 2.947274 1_555
Ge1 P0 2.947274 1_556
Ge1 P1 2.952835 1_555
Ge1 P1 2.952835 1_545
Ge1 Ge5 2.985230 1_555
Ge1 Ge5 2.985230 1_556
Ge1 Ge3 2.985236 1_546
Ge1 Ge3 2.985236 1_545
Ge1 Ge2 3.009856 1_445
Ge2 P0 2.947274 1_555
Ge2 P0 2.947274 1_556
Ge2 P1 2.952835 1_555
Ge2 P1 2.952835 1_655
Ge2 Ge4 2.985230 1_555
Ge2 Ge4 2.985230 1_556
Ge2 Ge3 2.985236 1_656
Ge2 Ge3 2.985236 1_655
Ge3 Ge4 2.895446 1_555
Ge3 Ge5 2.895446 1_555
Ge3 P1 2.947268 1_554
Ge3 P1 2.947268 1_555
Ge3 P0 2.952836 1_455
Ge3 P0 2.952836 1_565
Ge3 Ge5 3.009855 1_565
Ge3 Ge4 3.009855 1_455
Ge4 Ge5 2.895446 1_555
Ge4 P1 2.947274 1_555
Ge4 P1 2.947274 1_554
Ge4 P0 2.952835 1_555
Ge4 P0 2.952835 1_565
Ge4 Ge5 3.009856 1_665
Ge5 P1 2.947274 1_554
Ge5 P1 2.947274 1_555
Ge5 P0 2.952835 1_555
Ge5 P0 2.952835 1_455
