# generated using pymatgen
data_GdAgGe
_symmetry_space_group_name_H-M   'P 1'
_cell_length_a   7.18282105
_cell_length_b   7.18282364
_cell_length_c   4.24482386
_cell_angle_alpha   90.00000000
_cell_angle_beta   90.00000000
_cell_angle_gamma   120.00001086
_symmetry_Int_Tables_number   1
_chemical_formula_structural   GdAgGe
_chemical_formula_sum   'Gd3 Ag3 Ge3'
_cell_volume   189.66207945
_cell_formula_units_Z   3
loop_
 _symmetry_equiv_pos_site_id
 _symmetry_equiv_pos_as_xyz
  1  'x, y, z'
loop_
 _atom_site_type_symbol
 _atom_site_label
 _atom_site_symmetry_multiplicity
 _atom_site_fract_x
 _atom_site_fract_y
 _atom_site_fract_z
 _atom_site_occupancy
  Gd  Gd0  1  -0.00000000  0.41629797  0.00000000  1
  Gd  Gd1  1  0.58370103  0.58370103  -0.00000000  1
  Gd  Gd2  1  0.41629897  0.00000000  -0.00000000  1
  Ag  Ag0  1  0.75097566  -0.00000000  0.50000000  1
  Ag  Ag1  1  0.24902434  0.24902434  0.50000000  1
  Ag  Ag2  1  0.00000000  0.75097666  0.50000000  1
  Ge  Ge0  1  0.00000000  0.99999900  -0.00000000  1
  Ge  Ge1  1  0.33333400  0.66666800  0.50000000  1
  Ge  Ge2  1  0.66666600  0.33333300  0.50000000  1
loop_
_geom_bond_atom_site_label_1
_geom_bond_atom_site_label_2
_geom_bond_distance
_geom_bond_site_symmetry_2
Gd0 Ge0 2.990202 1_545
Gd0 Ge2 3.027461 1_455
Gd0 Ge2 3.027461 1_454
Gd0 Ge1 3.027462 1_555
Gd0 Ge1 3.027462 1_554
Gd1 Ge0 2.990197 1_655
Gd1 Ge2 3.027457 1_555
Gd1 Ge2 3.027457 1_554
Gd1 Ge1 3.027458 1_555
Gd1 Ge1 3.027458 1_554
Gd2 Ge0 2.990197 1_545
Gd2 Ge1 3.027452 1_544
Gd2 Ge1 3.027452 1_545
Gd2 Ge2 3.027455 1_555
Gd2 Ge2 3.027455 1_554
Ag0 Ge1 2.747572 1_545
Ag0 Ge2 2.747580 1_555
Ag0 Ge0 2.775623 1_645
Ag0 Ge0 2.775623 1_646
Ag0 Ag2 3.098109 1_645
Ag0 Ag1 3.098114 1_655
Ag0 Gd2 3.206786 1_555
Ag0 Gd2 3.206786 1_556
Ag0 Gd0 3.361068 1_655
Ag0 Gd0 3.361068 1_656
Ag0 Gd1 3.361073 1_545
Ag0 Gd1 3.361073 1_546
Ag1 Ge2 2.747574 1_555
Ag1 Ge1 2.747587 1_555
Ag1 Ge0 2.775623 1_545
Ag1 Ge0 2.775623 1_546
Ag1 Ag2 3.098109 1_545
Ag1 Gd1 3.206786 1_555
Ag1 Gd1 3.206786 1_556
Ag1 Gd0 3.361068 1_555
Ag1 Gd0 3.361068 1_556
Ag1 Gd2 3.361073 1_555
Ag1 Gd2 3.361073 1_556
Ag2 Ge1 2.747581 1_555
Ag2 Ge2 2.747586 1_455
Ag2 Ge0 2.775612 1_556
Ag2 Ge0 2.775612 1_555
Ag2 Gd0 3.206798 1_556
Ag2 Gd0 3.206798 1_555
Ag2 Gd1 3.361072 1_456
Ag2 Gd1 3.361072 1_455
Ag2 Gd2 3.361072 1_566
Ag2 Gd2 3.361072 1_565
