# generated using pymatgen
data_LiGaPdF6
_symmetry_space_group_name_H-M   'P 1'
_cell_length_a   5.16362935
_cell_length_b   5.16362935
_cell_length_c   9.35780200
_cell_angle_alpha   90.00000000
_cell_angle_beta   90.00000000
_cell_angle_gamma   119.99999161
_symmetry_Int_Tables_number   1
_chemical_formula_structural   LiGaPdF6
_chemical_formula_sum   'Li2 Ga2 Pd2 F12'
_cell_volume   216.08003462
_cell_formula_units_Z   2
loop_
 _symmetry_equiv_pos_site_id
 _symmetry_equiv_pos_as_xyz
  1  'x, y, z'
loop_
 _atom_site_type_symbol
 _atom_site_label
 _atom_site_symmetry_multiplicity
 _atom_site_fract_x
 _atom_site_fract_y
 _atom_site_fract_z
 _atom_site_occupancy
  Li  Li0  1  0.66666700  0.33333300  0.25000000  1
  Li  Li1  1  0.33333300  0.66666700  0.75000000  1
  Ga  Ga0  1  0.33333300  0.66666700  0.25000000  1
  Ga  Ga1  1  0.66666700  0.33333300  0.75000000  1
  Pd  Pd0  1  0.00000000  0.00000000  0.00000000  1
  Pd  Pd1  1  0.00000000  0.00000000  0.50000000  1
  F  F0  1  0.01668500  0.36154800  0.36369300  1
  F  F1  1  0.98331500  0.34486300  0.86369300  1
  F  F2  1  0.65513700  0.63845200  0.86369300  1
  F  F3  1  0.36154800  0.01668500  0.86369300  1
  F  F4  1  0.63845200  0.98331500  0.13630700  1
  F  F5  1  0.63845200  0.65513700  0.36369300  1
  F  F6  1  0.34486300  0.98331500  0.36369300  1
  F  F7  1  0.34486300  0.36154800  0.13630700  1
  F  F8  1  0.36154800  0.34486300  0.63630700  1
  F  F9  1  0.01668500  0.65513700  0.13630700  1
  F  F10  1  0.98331500  0.63845200  0.63630700  1
  F  F11  1  0.65513700  0.01668500  0.63630700  1
loop_
_geom_bond_atom_site_label_1
_geom_bond_atom_site_label_2
_geom_bond_distance
_geom_bond_site_symmetry_2
F0 Ga0 1.926532 1_555
F0 Li0 2.038722 1_455
F0 Pd1 2.226855 1_555
F1 Ga1 1.926529 1_555
F1 Li1 2.038724 1_655
F1 Pd0 2.226855 1_656
F2 Ga1 1.926534 1_555
F2 Li1 2.038727 1_555
F2 Pd0 2.226855 1_666
F3 Ga1 1.926532 1_555
F3 Li1 2.038722 1_545
F3 Pd0 2.226855 1_556
F4 Ga0 1.926532 1_555
F4 Li0 2.038722 1_565
F4 Pd0 2.226855 1_665
F5 Ga0 1.926534 1_555
F5 Li0 2.038727 1_555
F5 Pd1 2.226855 1_665
F6 Ga0 1.926529 1_555
F6 Li0 2.038724 1_565
F6 Pd1 2.226855 1_565
F7 Ga0 1.926534 1_555
F7 Li0 2.038727 1_555
F7 Pd0 2.226855 1_555
F8 Ga1 1.926534 1_555
F8 Li1 2.038727 1_555
F8 Pd1 2.226855 1_555
F9 Ga0 1.926529 1_555
F9 Li0 2.038724 1_455
F9 Pd0 2.226855 1_565
F10 Ga1 1.926532 1_555
F10 Li1 2.038722 1_655
F10 Pd1 2.226855 1_665
F11 Ga1 1.926529 1_555
F11 Li1 2.038724 1_545
F11 Pd1 2.226855 1_655
