# generated using pymatgen
data_TcN
_symmetry_space_group_name_H-M   'P 1'
_cell_length_a   2.71413900
_cell_length_b   2.71413900
_cell_length_c   6.14097700
_cell_angle_alpha   90.00000000
_cell_angle_beta   90.00000000
_cell_angle_gamma   90.00000000
_symmetry_Int_Tables_number   1
_chemical_formula_structural   TcN
_chemical_formula_sum   'Tc2 N2'
_cell_volume   45.23781726
_cell_formula_units_Z   2
loop_
 _symmetry_equiv_pos_site_id
 _symmetry_equiv_pos_as_xyz
  1  'x, y, z'
loop_
 _atom_site_type_symbol
 _atom_site_label
 _atom_site_symmetry_multiplicity
 _atom_site_fract_x
 _atom_site_fract_y
 _atom_site_fract_z
 _atom_site_occupancy
  Tc  Tc0  1  0.50000000  0.00000000  0.50000000  1
  Tc  Tc1  1  0.00000000  0.50000000  0.00000000  1
  N  N0  1  0.00000000  0.00000000  0.75000000  1
  N  N1  1  0.00000000  0.00000000  0.25000000  1
loop_
_geom_bond_atom_site_label_1
_geom_bond_atom_site_label_2
_geom_bond_distance
_geom_bond_site_symmetry_2
N0 Tc1 2.049052 1_556
N0 Tc0 2.049052 1_555
N0 Tc0 2.049052 1_455
N0 Tc1 2.049052 1_546
N1 Tc1 2.049052 1_545
N1 Tc0 2.049052 1_555
N1 Tc0 2.049052 1_455
N1 Tc1 2.049052 1_555
