# generated using pymatgen
data_Sc6ReO12
_symmetry_space_group_name_H-M   'P 1'
_cell_length_a   5.39411200
_cell_length_b   7.62842700
_cell_length_c   7.62842625
_cell_angle_alpha   119.99999890
_cell_angle_beta   90.00000000
_cell_angle_gamma   90.00000000
_symmetry_Int_Tables_number   1
_chemical_formula_structural   Sc6ReO12
_chemical_formula_sum   'Sc6 Re1 O12'
_cell_volume   271.84449511
_cell_formula_units_Z   1
loop_
 _symmetry_equiv_pos_site_id
 _symmetry_equiv_pos_as_xyz
  1  'x, y, z'
loop_
 _atom_site_type_symbol
 _atom_site_label
 _atom_site_symmetry_multiplicity
 _atom_site_fract_x
 _atom_site_fract_y
 _atom_site_fract_z
 _atom_site_occupancy
  Sc  Sc0  1  0.60826300  0.85573900  0.18459300  1
  Sc  Sc1  1  0.14426100  0.67114500  0.27940900  1
  Sc  Sc2  1  0.32885500  0.39173700  0.53599800  1
  Sc  Sc3  1  0.39173700  0.14426100  0.81540700  1
  Sc  Sc4  1  0.85573900  0.32885500  0.72059100  1
  Sc  Sc5  1  0.67114500  0.60826300  0.46400200  1
  Re  Re0  1  0.00000000  0.00000000  0.00000000  1
  O  O0  1  0.82221800  0.58681200  0.16880200  1
  O  O1  1  0.41318800  0.41801000  0.24022900  1
  O  O2  1  0.58199000  0.17778200  0.59096900  1
  O  O3  1  0.17778200  0.41318800  0.83119800  1
  O  O4  1  0.58681200  0.58199000  0.75977100  1
  O  O5  1  0.41801000  0.82221800  0.40903100  1
  O  O6  1  0.30398900  0.04452500  0.14251000  1
  O  O7  1  0.90201600  0.30398900  0.34851400  1
  O  O8  1  0.04452500  0.09798400  0.79399600  1
  O  O9  1  0.69601100  0.95547500  0.85749000  1
  O  O10  1  0.09798400  0.69601100  0.65148600  1
  O  O11  1  0.95547500  0.90201600  0.20600400  1
loop_
_geom_bond_atom_site_label_1
_geom_bond_atom_site_label_2
_geom_bond_distance
_geom_bond_site_symmetry_2
O0 Sc1 1.897532 1_655
O0 Sc0 2.303896 1_555
O0 Sc5 2.322381 1_555
O1 Sc5 2.116362 1_555
O1 Sc1 2.311998 1_555
O1 Sc2 2.406238 1_555
O1 Sc3 2.847639 1_554
O2 Sc4 1.829420 1_555
O2 Sc3 2.118418 1_555
O2 Sc2 2.321331 1_555
O3 Sc4 1.897532 1_455
O3 Sc3 2.303896 1_555
O3 Sc2 2.322381 1_555
O4 Sc2 2.116362 1_555
O4 Sc4 2.311998 1_555
O4 Sc5 2.406238 1_555
O4 Sc0 2.847639 1_556
O5 Sc1 1.829420 1_555
O5 Sc0 2.118418 1_555
O5 Sc5 2.321331 1_555
O6 Re0 1.901774 1_555
O6 Sc0 2.309375 1_545
O6 Sc2 2.844845 1_555
O7 Sc5 2.381131 1_555
O7 Re0 2.561236 1_655
O7 Sc2 2.614830 1_655
O7 Sc4 2.759744 1_555
O8 Sc3 1.897735 1_555
O8 Re0 2.064118 1_556
O8 Sc4 2.332065 1_455
O9 Re0 1.901774 1_666
O9 Sc3 2.309375 1_565
O9 Sc5 2.844845 1_555
O10 Sc2 2.381131 1_555
O10 Re0 2.561236 1_566
O10 Sc5 2.614830 1_455
O10 Sc1 2.759744 1_555
O11 Sc0 1.897735 1_555
O11 Re0 2.064118 1_665
O11 Sc1 2.332065 1_655
