# generated using pymatgen
data_CsReF6
_symmetry_space_group_name_H-M   'P 1'
_cell_length_a   5.22849386
_cell_length_b   5.22849386
_cell_length_c   5.22849327
_cell_angle_alpha   96.71049951
_cell_angle_beta   96.71048871
_cell_angle_gamma   96.71048840
_symmetry_Int_Tables_number   1
_chemical_formula_structural   CsReF6
_chemical_formula_sum   'Cs1 Re1 F6'
_cell_volume   139.74090630
_cell_formula_units_Z   1
loop_
 _symmetry_equiv_pos_site_id
 _symmetry_equiv_pos_as_xyz
  1  'x, y, z'
loop_
 _atom_site_type_symbol
 _atom_site_label
 _atom_site_symmetry_multiplicity
 _atom_site_fract_x
 _atom_site_fract_y
 _atom_site_fract_z
 _atom_site_occupancy
  Cs  Cs0  1  0.50000000  0.50000000  0.50000000  1
  Re  Re0  1  -0.00000000  0.00000000  0.00000000  1
  F  F0  1  0.18440041  0.92091423  0.31145032  1
  F  F1  1  0.92091423  0.31145032  0.18440041  1
  F  F2  1  0.68854968  0.81559959  0.07908577  1
  F  F3  1  0.07908577  0.68854968  0.81559959  1
  F  F4  1  0.81559959  0.07908577  0.68854968  1
  F  F5  1  0.31145032  0.18440041  0.92091423  1
loop_
_geom_bond_atom_site_label_1
_geom_bond_atom_site_label_2
_geom_bond_distance
_geom_bond_site_symmetry_2
Cs0 F3 3.084408 1_555
Cs0 F1 3.084408 1_555
Cs0 F2 3.084408 1_555
Cs0 F5 3.084408 1_555
Cs0 F0 3.084408 1_555
Cs0 F4 3.084408 1_555
Cs0 F5 3.258313 1_554
Cs0 F2 3.258313 1_556
Cs0 F0 3.258314 1_545
Cs0 F4 3.258314 1_565
Cs0 F1 3.258314 1_455
Cs0 F3 3.258314 1_655
F0 Re0 1.906802 1_565
F1 Re0 1.906802 1_655
F2 Re0 1.906802 1_665
F3 Re0 1.906802 1_566
F4 Re0 1.906802 1_656
F5 Re0 1.906802 1_556
