# generated using pymatgen
data_SrMg3
_symmetry_space_group_name_H-M   'P 1'
_cell_length_a   5.43349597
_cell_length_b   5.43349597
_cell_length_c   5.43349597
_cell_angle_alpha   119.88542897
_cell_angle_beta   119.88542897
_cell_angle_gamma   90.19855765
_symmetry_Int_Tables_number   1
_chemical_formula_structural   SrMg3
_chemical_formula_sum   'Sr1 Mg3'
_cell_volume   113.62441515
_cell_formula_units_Z   1
loop_
 _symmetry_equiv_pos_site_id
 _symmetry_equiv_pos_as_xyz
  1  'x, y, z'
loop_
 _atom_site_type_symbol
 _atom_site_label
 _atom_site_symmetry_multiplicity
 _atom_site_fract_x
 _atom_site_fract_y
 _atom_site_fract_z
 _atom_site_occupancy
  Sr  Sr0  1  0.00000000  -0.00000000  -0.00000000  1
  Mg  Mg0  1  0.49999900  0.49999900  0.00000000  1
  Mg  Mg1  1  0.75000100  0.25000000  0.50000100  1
  Mg  Mg2  1  0.25000000  0.75000100  0.50000100  1
loop_
_geom_bond_atom_site_label_1
_geom_bond_atom_site_label_2
_geom_bond_distance
_geom_bond_site_symmetry_2
Mg0 Mg1 3.329236 1_454
Mg0 Mg2 3.329236 1_544
Mg0 Mg2 3.329244 1_555
Mg0 Mg1 3.329244 1_555
Mg0 Mg1 3.329249 1_554
Mg0 Mg2 3.329249 1_554
Mg0 Mg2 3.329249 1_655
Mg0 Mg1 3.329249 1_565
Mg1 Sr0 3.329240 1_656
Mg1 Sr0 3.329244 1_666
Mg1 Sr0 3.329244 1_655
Mg1 Sr0 3.329249 1_555
Mg2 Sr0 3.329240 1_566
Mg2 Sr0 3.329244 1_666
Mg2 Sr0 3.329244 1_565
Mg2 Sr0 3.329249 1_555
