# generated using pymatgen
data_KAg3Se2
_symmetry_space_group_name_H-M   'P 1'
_cell_length_a   4.36629334
_cell_length_b   8.55728862
_cell_length_c   8.89543501
_cell_angle_alpha   114.24879385
_cell_angle_beta   90.00000000
_cell_angle_gamma   104.78077690
_symmetry_Int_Tables_number   1
_chemical_formula_structural   KAg3Se2
_chemical_formula_sum   'K2 Ag6 Se4'
_cell_volume   290.93660899
_cell_formula_units_Z   2
loop_
 _symmetry_equiv_pos_site_id
 _symmetry_equiv_pos_as_xyz
  1  'x, y, z'
loop_
 _atom_site_type_symbol
 _atom_site_label
 _atom_site_symmetry_multiplicity
 _atom_site_fract_x
 _atom_site_fract_y
 _atom_site_fract_z
 _atom_site_occupancy
  K  K0  1  0.86406220  0.72812440  0.94898452  1
  K  K1  1  0.13593780  0.27187560  0.05101548  1
  Ag  Ag0  1  0.94360843  0.88721586  0.59707194  1
  Ag  Ag1  1  0.05639157  0.11278414  0.40292806  1
  Ag  Ag2  1  0.31243087  0.62486274  0.56348780  1
  Ag  Ag3  1  0.68756913  0.37513726  0.43651220  1
  Ag  Ag4  1  0.40801280  0.81602661  0.35473355  1
  Ag  Ag5  1  0.59198720  0.18397339  0.64526645  1
  Se  Se0  1  0.51523284  0.03046468  0.20887182  1
  Se  Se1  1  0.48476716  0.96953532  0.79112818  1
  Se  Se2  1  0.79724742  0.59449584  0.29385484  1
  Se  Se3  1  0.20275258  0.40550416  0.70614516  1
loop_
_geom_bond_atom_site_label_1
_geom_bond_atom_site_label_2
_geom_bond_distance
_geom_bond_site_symmetry_2
K0 Se0 3.384624 1_566
K0 Se0 3.384627 1_666
K0 Se3 3.414608 1_555
K0 Se3 3.414611 1_655
K0 Se1 3.620842 1_655
K0 Se1 3.620845 1_555
K0 Se2 3.676298 1_556
K1 Se1 3.384624 1_544
K1 Se1 3.384627 1_444
K1 Se2 3.414608 1_555
K1 Se2 3.414611 1_455
K1 Se0 3.620842 1_455
K1 Se0 3.620845 1_555
K1 Se3 3.676298 1_554
Ag0 Se1 2.685336 1_655
Ag0 Se1 2.685344 1_555
Ag0 Se2 2.755287 1_555
Ag1 Se0 2.685336 1_455
Ag1 Se0 2.685344 1_555
Ag1 Se3 2.755287 1_555
Ag2 Se3 2.619389 1_555
Ag2 Se1 2.706979 1_555
Ag2 Se2 3.173345 1_455
Ag2 Se2 3.173345 1_555
Ag3 Se2 2.619389 1_555
Ag3 Se0 2.706979 1_555
Ag3 Se3 3.173345 1_655
Ag3 Se3 3.173345 1_555
Ag4 Se0 2.605245 1_565
Ag4 Se2 2.752441 1_455
Ag4 Se2 2.752441 1_555
Ag5 Se1 2.605245 1_545
Ag5 Se3 2.752441 1_655
Ag5 Se3 2.752441 1_555
