# generated using pymatgen
data_Pa2SbTe
_symmetry_space_group_name_H-M   'P 1'
_cell_length_a   5.36969940
_cell_length_b   5.36969940
_cell_length_c   5.36969940
_cell_angle_alpha   60.00000000
_cell_angle_beta   60.00000000
_cell_angle_gamma   60.00000000
_symmetry_Int_Tables_number   1
_chemical_formula_structural   Pa2SbTe
_chemical_formula_sum   'Pa2 Sb1 Te1'
_cell_volume   109.48003443
_cell_formula_units_Z   1
loop_
 _symmetry_equiv_pos_site_id
 _symmetry_equiv_pos_as_xyz
  1  'x, y, z'
loop_
 _atom_site_type_symbol
 _atom_site_label
 _atom_site_symmetry_multiplicity
 _atom_site_fract_x
 _atom_site_fract_y
 _atom_site_fract_z
 _atom_site_occupancy
  Pa  Pa0  1  0.00000000  0.00000000  0.00000000  1
  Pa  Pa1  1  0.50000000  0.50000000  0.50000000  1
  Sb  Sb0  1  0.25000100  0.25000100  0.25000100  1
  Te  Te0  1  0.75000000  0.75000000  0.75000000  1
loop_
_geom_bond_atom_site_label_1
_geom_bond_atom_site_label_2
_geom_bond_distance
_geom_bond_site_symmetry_2
Pa0 Sb0 3.288252 1_455
Pa0 Sb0 3.288252 1_545
Pa0 Sb0 3.288252 1_554
Pa0 Te0 3.288256 1_444
Pa0 Te0 3.288256 1_445
Pa0 Te0 3.288256 1_454
Pa0 Te0 3.288256 1_544
Pa0 Sb0 3.288269 1_555
Pa1 Sb0 3.288243 1_555
Pa1 Te0 3.288256 1_545
Pa1 Te0 3.288256 1_554
Pa1 Te0 3.288256 1_555
Pa1 Te0 3.288256 1_455
Pa1 Sb0 3.288260 1_556
Pa1 Sb0 3.288260 1_565
Pa1 Sb0 3.288260 1_655
