# generated using pymatgen
data_Zr3Pt
_symmetry_space_group_name_H-M   'P 1'
_cell_length_a   4.35129800
_cell_length_b   4.35129800
_cell_length_c   4.35129800
_cell_angle_alpha   90.00000000
_cell_angle_beta   90.00000000
_cell_angle_gamma   90.00000000
_symmetry_Int_Tables_number   1
_chemical_formula_structural   Zr3Pt
_chemical_formula_sum   'Zr3 Pt1'
_cell_volume   82.38658120
_cell_formula_units_Z   1
loop_
 _symmetry_equiv_pos_site_id
 _symmetry_equiv_pos_as_xyz
  1  'x, y, z'
loop_
 _atom_site_type_symbol
 _atom_site_label
 _atom_site_symmetry_multiplicity
 _atom_site_fract_x
 _atom_site_fract_y
 _atom_site_fract_z
 _atom_site_occupancy
  Zr  Zr0  1  0.00000000  0.50000000  0.50000000  1
  Zr  Zr1  1  0.50000000  0.00000000  0.50000000  1
  Zr  Zr2  1  0.50000000  0.50000000  0.00000000  1
  Pt  Pt0  1  0.00000000  0.00000000  0.00000000  1
loop_
_geom_bond_atom_site_label_1
_geom_bond_atom_site_label_2
_geom_bond_distance
_geom_bond_site_symmetry_2
Zr0 Zr2 3.076832 1_555
Zr0 Zr1 3.076832 1_465
Zr0 Zr1 3.076832 1_555
Zr0 Zr1 3.076832 1_455
Zr0 Zr2 3.076832 1_455
Zr0 Zr2 3.076832 1_456
Zr0 Zr2 3.076832 1_556
Zr0 Zr1 3.076832 1_565
Zr1 Zr2 3.076832 1_555
Zr1 Zr2 3.076832 1_545
Zr1 Zr2 3.076832 1_546
Zr1 Zr2 3.076832 1_556
Pt0 Zr2 3.076832 1_555
Pt0 Zr2 3.076832 1_445
Pt0 Zr2 3.076832 1_545
Pt0 Zr0 3.076832 1_555
Pt0 Zr0 3.076832 1_554
Pt0 Zr1 3.076832 1_555
Pt0 Zr1 3.076832 1_455
Pt0 Zr1 3.076832 1_454
Pt0 Zr1 3.076832 1_554
Pt0 Zr0 3.076832 1_544
Pt0 Zr2 3.076832 1_455
Pt0 Zr0 3.076832 1_545
