# generated using pymatgen
data_TePdO3
_symmetry_space_group_name_H-M   'P 1'
_cell_length_a   4.06524200
_cell_length_b   4.06524200
_cell_length_c   4.06524200
_cell_angle_alpha   90.00000000
_cell_angle_beta   90.00000000
_cell_angle_gamma   90.00000000
_symmetry_Int_Tables_number   1
_chemical_formula_structural   TePdO3
_chemical_formula_sum   'Te1 Pd1 O3'
_cell_volume   67.18297193
_cell_formula_units_Z   1
loop_
 _symmetry_equiv_pos_site_id
 _symmetry_equiv_pos_as_xyz
  1  'x, y, z'
loop_
 _atom_site_type_symbol
 _atom_site_label
 _atom_site_symmetry_multiplicity
 _atom_site_fract_x
 _atom_site_fract_y
 _atom_site_fract_z
 _atom_site_occupancy
  Te  Te0  1  0.50000000  0.50000000  0.50000000  1
  Pd  Pd0  1  0.00000000  0.00000000  0.00000000  1
  O  O0  1  0.50000000  0.50000000  0.00000000  1
  O  O1  1  0.50000000  0.00000000  0.50000000  1
  O  O2  1  0.00000000  0.50000000  0.50000000  1
loop_
_geom_bond_atom_site_label_1
_geom_bond_atom_site_label_2
_geom_bond_distance
_geom_bond_site_symmetry_2
O0 Te0 2.032621 1_554
O0 Te0 2.032621 1_555
O1 Te0 2.032621 1_555
O1 Te0 2.032621 1_545
O2 Te0 2.032621 1_555
O2 Te0 2.032621 1_455
