# generated using pymatgen
data_MnAgO2
_symmetry_space_group_name_H-M   'P 1'
_cell_length_a   3.12808965
_cell_length_b   3.12808965
_cell_length_c   12.47410300
_cell_angle_alpha   90.00000000
_cell_angle_beta   90.00000000
_cell_angle_gamma   119.99999258
_symmetry_Int_Tables_number   1
_chemical_formula_structural   MnAgO2
_chemical_formula_sum   'Mn2 Ag2 O4'
_cell_volume   105.70569166
_cell_formula_units_Z   2
loop_
 _symmetry_equiv_pos_site_id
 _symmetry_equiv_pos_as_xyz
  1  'x, y, z'
loop_
 _atom_site_type_symbol
 _atom_site_label
 _atom_site_symmetry_multiplicity
 _atom_site_fract_x
 _atom_site_fract_y
 _atom_site_fract_z
 _atom_site_occupancy
  Mn  Mn0  1  0.00000000  0.00000000  0.50000000  1
  Mn  Mn1  1  0.00000000  0.00000000  0.00000000  1
  Ag  Ag0  1  0.33333300  0.66666700  0.25000000  1
  Ag  Ag1  1  0.66666700  0.33333300  0.75000000  1
  O  O0  1  0.33333300  0.66666700  0.08074800  1
  O  O1  1  0.66666700  0.33333300  0.91925200  1
  O  O2  1  0.66666700  0.33333300  0.58074800  1
  O  O3  1  0.33333300  0.66666700  0.41925200  1
loop_
_geom_bond_atom_site_label_1
_geom_bond_atom_site_label_2
_geom_bond_distance
_geom_bond_site_symmetry_2
Mn0 O2 2.067900 1_455
Mn0 O3 2.067900 1_545
Mn0 O2 2.067903 1_555
Mn0 O2 2.067903 1_445
Mn0 O3 2.067903 1_445
Mn0 O3 2.067903 1_555
Mn1 O0 2.067900 1_545
Mn1 O1 2.067900 1_454
Mn1 O0 2.067903 1_555
Mn1 O0 2.067903 1_445
Mn1 O1 2.067903 1_554
Mn1 O1 2.067903 1_444
Ag0 O3 2.111267 1_555
Ag0 O0 2.111267 1_555
Ag1 O1 2.111267 1_555
Ag1 O2 2.111267 1_555
