# generated using pymatgen
data_RbSnCl3
_symmetry_space_group_name_H-M   'P 1'
_cell_length_a   7.84638503
_cell_length_b   7.84638503
_cell_length_c   7.84638508
_cell_angle_alpha   61.22915159
_cell_angle_beta   61.22915159
_cell_angle_gamma   61.22915282
_symmetry_Int_Tables_number   1
_chemical_formula_structural   RbSnCl3
_chemical_formula_sum   'Rb2 Sn2 Cl6'
_cell_volume   351.02352356
_cell_formula_units_Z   2
loop_
 _symmetry_equiv_pos_site_id
 _symmetry_equiv_pos_as_xyz
  1  'x, y, z'
loop_
 _atom_site_type_symbol
 _atom_site_label
 _atom_site_symmetry_multiplicity
 _atom_site_fract_x
 _atom_site_fract_y
 _atom_site_fract_z
 _atom_site_occupancy
  Rb  Rb0  1  0.27222100  0.27222100  0.27222100  1
  Rb  Rb1  1  0.77222100  0.77222100  0.77222100  1
  Sn  Sn0  1  0.00052300  0.00052300  0.00052300  1
  Sn  Sn1  1  0.50052300  0.50052300  0.50052300  1
  Cl  Cl0  1  0.84912000  0.21989400  0.68674300  1
  Cl  Cl1  1  0.68674300  0.84912000  0.21989400  1
  Cl  Cl2  1  0.21989400  0.68674300  0.84912000  1
  Cl  Cl3  1  0.34912000  0.18674300  0.71989400  1
  Cl  Cl4  1  0.18674300  0.71989400  0.34912000  1
  Cl  Cl5  1  0.71989400  0.34912000  0.18674300  1
loop_
_geom_bond_atom_site_label_1
_geom_bond_atom_site_label_2
_geom_bond_distance
_geom_bond_site_symmetry_2
Cl0 Sn0 2.683910 1_656
Cl0 Sn1 3.068779 1_555
Cl0 Rb0 3.376546 1_655
Cl0 Rb1 3.540508 1_545
Cl1 Sn0 2.683910 1_665
Cl1 Sn1 3.068779 1_555
Cl1 Rb0 3.376547 1_565
Cl1 Rb1 3.540508 1_554
Cl2 Sn0 2.683910 1_566
Cl2 Sn1 3.068779 1_555
Cl2 Rb0 3.376547 1_556
Cl2 Rb1 3.540508 1_455
Cl3 Sn1 2.683910 1_555
Cl3 Sn0 3.068779 1_556
Cl3 Rb1 3.376547 1_545
Cl3 Rb0 3.540508 1_555
Cl4 Sn1 2.683910 1_555
Cl4 Sn0 3.068779 1_565
Cl4 Rb1 3.376547 1_455
Cl4 Rb0 3.540508 1_555
Cl5 Sn1 2.683910 1_555
Cl5 Sn0 3.068779 1_655
Cl5 Rb1 3.376546 1_554
Cl5 Rb0 3.540508 1_555
