# generated using pymatgen
data_CrSbS3
_symmetry_space_group_name_H-M   'P 1'
_cell_length_a   3.64237683
_cell_length_b   8.85576533
_cell_length_c   12.90915925
_cell_angle_alpha   90.00000000
_cell_angle_beta   90.00000000
_cell_angle_gamma   90.00000000
_symmetry_Int_Tables_number   1
_chemical_formula_structural   CrSbS3
_chemical_formula_sum   'Cr4 Sb4 S12'
_cell_volume   416.39828549
_cell_formula_units_Z   4
loop_
 _symmetry_equiv_pos_site_id
 _symmetry_equiv_pos_as_xyz
  1  'x, y, z'
loop_
 _atom_site_type_symbol
 _atom_site_label
 _atom_site_symmetry_multiplicity
 _atom_site_fract_x
 _atom_site_fract_y
 _atom_site_fract_z
 _atom_site_occupancy
  Cr  Cr0  1  0.75000000  0.34495795  0.45518057  1
  Cr  Cr1  1  0.25000000  0.65504205  0.54481943  1
  Cr  Cr2  1  0.75000000  0.84495795  0.04481943  1
  Cr  Cr3  1  0.25000000  0.15504205  0.95518057  1
  Sb  Sb0  1  0.75000000  0.96975796  0.65960186  1
  Sb  Sb1  1  0.25000000  0.03024204  0.34039814  1
  Sb  Sb2  1  0.75000000  0.46975796  0.84039814  1
  Sb  Sb3  1  0.25000000  0.53024204  0.15960186  1
  S  S0  1  0.75000000  0.21277285  0.28986311  1
  S  S1  1  0.25000000  0.17333254  0.51116635  1
  S  S2  1  0.75000000  0.32666746  0.01116635  1
  S  S3  1  0.25000000  0.67333254  0.98883365  1
  S  S4  1  0.25000000  0.49995798  0.39477999  1
  S  S5  1  0.75000000  0.50004202  0.60522001  1
  S  S6  1  0.25000000  -0.00004202  0.10522001  1
  S  S7  1  0.25000000  0.78722715  0.71013689  1
  S  S8  1  0.75000000  0.71277285  0.21013689  1
  S  S9  1  0.25000000  0.28722715  0.78986311  1
  S  S10  1  0.75000000  0.00004202  0.89477999  1
  S  S11  1  0.75000000  0.82666746  0.48883365  1
loop_
_geom_bond_atom_site_label_1
_geom_bond_atom_site_label_2
_geom_bond_distance
_geom_bond_site_symmetry_2
Cr0 S5 2.374386 1_555
Cr0 S4 2.410154 1_655
Cr0 S4 2.410154 1_555
Cr0 S0 2.434076 1_555
Cr0 S1 2.479734 1_655
Cr0 S1 2.479734 1_555
Cr1 S4 2.374386 1_555
Cr1 S5 2.410154 1_455
Cr1 S5 2.410154 1_555
Cr1 S7 2.434076 1_555
Cr1 S11 2.479734 1_455
Cr1 S11 2.479734 1_555
Cr2 S10 2.374386 1_564
Cr2 S6 2.410154 1_565
Cr2 S6 2.410154 1_665
Cr2 S8 2.434076 1_555
Cr2 S3 2.479734 1_554
Cr2 S3 2.479734 1_654
Cr3 S6 2.374386 1_556
Cr3 S10 2.410154 1_555
Cr3 S10 2.410154 1_455
Cr3 S9 2.434076 1_555
Cr3 S2 2.479734 1_456
Cr3 S2 2.479734 1_556
S0 Sb1 2.520956 1_655
S0 Sb1 2.520956 1_555
S1 Sb1 2.542723 1_555
S2 Sb2 2.542723 1_554
S3 Sb3 2.542723 1_556
S7 Sb0 2.520956 1_455
S7 Sb0 2.520956 1_555
S8 Sb3 2.520956 1_555
S8 Sb3 2.520956 1_655
S9 Sb2 2.520956 1_455
S9 Sb2 2.520956 1_555
S11 Sb0 2.542723 1_555
