# generated using pymatgen
data_CdSeO3
_symmetry_space_group_name_H-M   'P 1'
_cell_length_a   5.32817807
_cell_length_b   6.31758539
_cell_length_c   8.12471485
_cell_angle_alpha   90.00000000
_cell_angle_beta   90.00000000
_cell_angle_gamma   90.00000000
_symmetry_Int_Tables_number   1
_chemical_formula_structural   CdSeO3
_chemical_formula_sum   'Cd4 Se4 O12'
_cell_volume   273.48781344
_cell_formula_units_Z   4
loop_
 _symmetry_equiv_pos_site_id
 _symmetry_equiv_pos_as_xyz
  1  'x, y, z'
loop_
 _atom_site_type_symbol
 _atom_site_label
 _atom_site_symmetry_multiplicity
 _atom_site_fract_x
 _atom_site_fract_y
 _atom_site_fract_z
 _atom_site_occupancy
  Cd  Cd0  1  0.00000000  0.00000000  0.50000000  1
  Cd  Cd1  1  0.50000000  0.50000000  0.50000000  1
  Cd  Cd2  1  0.50000000  0.50000000  -0.00000000  1
  Cd  Cd3  1  0.00000000  0.00000000  -0.00000000  1
  Se  Se0  1  0.48300460  0.97207665  0.75000000  1
  Se  Se1  1  0.98300460  0.52792335  0.25000000  1
  Se  Se2  1  0.01699540  0.47207665  0.75000000  1
  Se  Se3  1  0.51699540  0.02792335  0.25000000  1
  O  O0  1  0.63192899  0.17417344  0.41289868  1
  O  O1  1  0.13192899  0.32582656  0.58710132  1
  O  O2  1  0.86807101  0.67417344  0.08710132  1
  O  O3  1  0.36807101  0.82582656  0.91289868  1
  O  O4  1  0.36807101  0.82582656  0.58710132  1
  O  O5  1  0.86807101  0.67417344  0.41289868  1
  O  O6  1  0.13192899  0.32582656  0.91289868  1
  O  O7  1  0.63192899  0.17417344  0.08710132  1
  O  O8  1  0.20401636  0.09088296  0.25000000  1
  O  O9  1  0.70401636  0.40911704  0.75000000  1
  O  O10  1  0.29598364  0.59088296  0.25000000  1
  O  O11  1  0.79598364  0.90911704  0.75000000  1
loop_
_geom_bond_atom_site_label_1
_geom_bond_atom_site_label_2
_geom_bond_distance
_geom_bond_site_symmetry_2
Cd0 O5 2.287376 1_445
Cd0 O1 2.287376 1_555
Cd0 O0 2.357474 1_455
Cd0 O4 2.357474 1_545
Cd0 O8 2.374235 1_555
Cd0 O11 2.374235 1_445
Cd1 O0 2.287376 1_555
Cd1 O4 2.287376 1_555
Cd1 O5 2.357474 1_555
Cd1 O1 2.357474 1_555
Cd1 O9 2.374235 1_555
Cd1 O10 2.374235 1_555
Cd2 O3 2.287376 1_554
Cd2 O7 2.287376 1_555
Cd2 O6 2.357474 1_554
Cd2 O2 2.357474 1_555
Cd2 O9 2.374235 1_554
Cd2 O10 2.374235 1_555
Cd3 O6 2.287376 1_554
Cd3 O2 2.287376 1_445
Cd3 O7 2.357474 1_455
Cd3 O3 2.357474 1_544
Cd3 O8 2.374235 1_555
Cd3 O11 2.374235 1_444
O0 Se3 1.726373 1_555
O1 Se2 1.726373 1_555
O2 Se1 1.726373 1_555
O3 Se0 1.726373 1_555
O4 Se0 1.726373 1_555
O5 Se1 1.726373 1_555
O6 Se2 1.726373 1_555
O7 Se3 1.726373 1_555
O8 Se3 1.714387 1_555
O9 Se2 1.714387 1_655
O10 Se1 1.714387 1_455
O11 Se0 1.714387 1_555
