# generated using pymatgen
data_LiCaBO3
_symmetry_space_group_name_H-M   'P 1'
_cell_length_a   7.98795225
_cell_length_b   7.98795225
_cell_length_c   7.98795225
_cell_angle_alpha   135.04881397
_cell_angle_beta   134.62523726
_cell_angle_gamma   65.78413583
_symmetry_Int_Tables_number   1
_chemical_formula_structural   LiCaBO3
_chemical_formula_sum   'Li4 Ca4 B4 O12'
_cell_volume   252.42570624
_cell_formula_units_Z   4
loop_
 _symmetry_equiv_pos_site_id
 _symmetry_equiv_pos_as_xyz
  1  'x, y, z'
loop_
 _atom_site_type_symbol
 _atom_site_label
 _atom_site_symmetry_multiplicity
 _atom_site_fract_x
 _atom_site_fract_y
 _atom_site_fract_z
 _atom_site_occupancy
  Li  Li0  1  0.01944600  0.25000000  0.26944600  1
  Li  Li1  1  0.48055400  0.75000000  0.23055400  1
  Li  Li2  1  0.98055400  0.75000000  0.73055400  1
  Li  Li3  1  0.51944600  0.25000000  0.76944600  1
  Ca  Ca0  1  0.06898200  0.31898200  0.75000000  1
  Ca  Ca1  1  0.43101800  0.18101800  0.25000000  1
  Ca  Ca2  1  0.93101800  0.68101800  0.25000000  1
  Ca  Ca3  1  0.56898200  0.81898200  0.75000000  1
  B  B0  1  0.35085500  0.60085500  0.75000000  1
  B  B1  1  0.14914500  0.89914500  0.25000000  1
  B  B2  1  0.64914500  0.39914500  0.25000000  1
  B  B3  1  0.85085500  0.10085500  0.75000000  1
  O  O0  1  0.45852700  0.20612500  0.97247000  1
  O  O1  1  0.04147300  0.01394200  0.74759800  1
  O  O2  1  0.73365600  0.48605800  0.52753000  1
  O  O3  1  0.76634400  0.29387500  0.75240200  1
  O  O4  1  0.54147300  0.79387500  0.02753000  1
  O  O5  1  0.95852700  0.98605800  0.25240200  1
  O  O6  1  0.26634400  0.51394200  0.47247000  1
  O  O7  1  0.23365600  0.70612500  0.24759800  1
  O  O8  1  0.24827900  0.49827900  0.75000000  1
  O  O9  1  0.25172100  0.00172100  0.25000000  1
  O  O10  1  0.75172100  0.50172100  0.25000000  1
  O  O11  1  0.74827900  0.99827900  0.75000000  1
loop_
_geom_bond_atom_site_label_1
_geom_bond_atom_site_label_2
_geom_bond_distance
_geom_bond_site_symmetry_2
Li0 O8 2.085691 1_555
Li0 O9 2.085691 1_555
Li0 O6 2.245609 1_555
Li0 O5 2.245614 1_445
Li0 O11 2.255762 1_444
Li0 O10 2.255762 1_455
Li1 O9 2.085691 1_565
Li1 O8 2.085691 1_554
Li1 O7 2.245614 1_555
Li1 O4 2.245622 1_555
Li1 O10 2.255762 1_555
Li1 O11 2.255762 1_555
Li2 O10 2.085691 1_555
Li2 O11 2.085691 1_555
Li2 O2 2.245609 1_555
Li2 O1 2.245614 1_665
Li2 O9 2.255762 1_666
Li2 O8 2.255762 1_655
Li3 O10 2.085691 1_556
Li3 O11 2.085691 1_545
Li3 O3 2.245614 1_555
Li3 O0 2.245622 1_555
Li3 O8 2.255762 1_555
Li3 O9 2.255762 1_555
Ca0 O7 2.384504 1_556
Ca0 O5 2.384504 1_445
Ca0 O8 2.405249 1_555
Ca0 O0 2.418817 1_555
Ca0 O2 2.418819 1_455
Ca0 O1 2.520523 1_555
Ca0 O3 2.520523 1_455
Ca1 O4 2.384504 1_545
Ca1 O6 2.384507 1_555
Ca1 O9 2.405249 1_555
Ca1 O3 2.418817 1_555
Ca1 O1 2.418817 1_554
Ca1 O0 2.520515 1_554
Ca1 O2 2.520527 1_555
Ca2 O3 2.384504 1_554
Ca2 O1 2.384504 1_665
Ca2 O10 2.405249 1_555
Ca2 O4 2.418817 1_555
Ca2 O6 2.418819 1_655
Ca2 O5 2.520523 1_555
Ca2 O7 2.520523 1_655
Ca3 O0 2.384504 1_565
Ca3 O2 2.384507 1_555
Ca3 O11 2.405249 1_555
Ca3 O5 2.418817 1_556
Ca3 O7 2.418817 1_555
Ca3 O4 2.520515 1_556
Ca3 O6 2.520527 1_555
B0 O8 1.376046 1_555
B0 O6 1.398494 1_555
B0 O4 1.398501 1_556
B1 O9 1.376046 1_565
B1 O7 1.398502 1_555
B1 O5 1.398502 1_455
B2 O10 1.376046 1_555
B2 O2 1.398494 1_555
B2 O0 1.398501 1_554
B3 O11 1.376046 1_545
B3 O1 1.398502 1_655
B3 O3 1.398502 1_555
