# generated using pymatgen
data_TmGePd
_symmetry_space_group_name_H-M   'P 1'
_cell_length_a   11.18647979
_cell_length_b   11.18845656
_cell_length_c   11.18744591
_cell_angle_alpha   157.66598512
_cell_angle_beta   140.56832049
_cell_angle_gamma   45.78521843
_symmetry_Int_Tables_number   1
_chemical_formula_structural   TmGePd
_chemical_formula_sum   'Tm6 Ge6 Pd6'
_cell_volume   337.11201097
_cell_formula_units_Z   6
loop_
 _symmetry_equiv_pos_site_id
 _symmetry_equiv_pos_as_xyz
  1  'x, y, z'
loop_
 _atom_site_type_symbol
 _atom_site_label
 _atom_site_symmetry_multiplicity
 _atom_site_fract_x
 _atom_site_fract_y
 _atom_site_fract_z
 _atom_site_occupancy
  Tm  Tm0  1  0.46705949  0.99993492  0.46688780  1
  Tm  Tm1  1  0.13263664  0.66705708  0.46552516  1
  Tm  Tm2  1  0.79833926  0.33287872  0.46548505  1
  Tm  Tm3  1  0.04918246  0.50004131  0.54922229  1
  Tm  Tm4  1  0.37478117  0.83331834  0.54158648  1
  Tm  Tm5  1  0.70801917  0.16692467  0.54139329  1
  Ge  Ge0  1  0.43867162  0.59296514  0.84602659  1
  Ge  Ge1  1  0.25321908  0.40712906  0.84575314  1
  Ge  Ge2  1  0.92341809  0.76335741  0.16041151  1
  Ge  Ge3  1  0.39675966  0.23651604  0.15978316  1
  Ge  Ge4  1  0.78300863  0.93493814  0.84823614  1
  Ge  Ge5  1  0.91312602  0.06492557  0.84787804  1
  Pd  Pd0  1  0.75053472  0.57244697  0.17772794  1
  Pd  Pd1  1  0.60515732  0.42744406  0.17798515  1
  Pd  Pd2  1  0.56399080  0.73175606  0.83159805  1
  Pd  Pd3  1  0.10002766  0.26849898  0.83222441  1
  Pd  Pd4  1  0.06819967  0.89473855  0.17298381  1
  Pd  Pd5  1  0.27786654  0.10513000  0.17329398  1
loop_
_geom_bond_atom_site_label_1
_geom_bond_atom_site_label_2
_geom_bond_distance
_geom_bond_site_symmetry_2
Ge0 Pd0 2.540583 1_556
Ge0 Pd5 2.540804 1_555
Ge0 Pd5 2.542033 1_566
Ge0 Pd2 2.872649 1_555
Ge0 Tm3 2.944944 1_555
Ge0 Tm0 3.029727 1_556
Ge0 Tm5 3.032030 1_555
Ge0 Tm5 3.032173 1_566
Ge0 Tm0 3.032180 1_545
Ge0 Tm1 3.253614 1_555
Ge1 Pd1 2.539039 1_556
Ge1 Pd4 2.541172 1_556
Ge1 Pd4 2.541519 1_545
Ge1 Pd3 2.870109 1_555
Ge1 Tm3 2.944383 1_555
Ge1 Tm0 3.030327 1_545
Ge1 Tm0 3.031056 1_556
Ge1 Tm4 3.033548 1_545
Ge1 Tm4 3.034267 1_556
Ge1 Tm2 3.255541 1_455
Ge2 Pd3 2.526076 1_654
Ge2 Pd3 2.527133 1_665
Ge2 Pd2 2.559656 1_554
Ge2 Pd4 2.718392 1_655
Ge2 Tm2 2.986441 1_565
Ge2 Tm2 2.986778 1_554
Ge2 Tm1 3.039071 1_655
Ge2 Tm5 3.073768 1_565
Ge2 Tm5 3.074366 1_554
Ge2 Tm4 3.219875 1_655
Ge3 Pd2 2.526921 1_555
Ge3 Pd2 2.527873 1_544
Ge3 Pd3 2.560068 1_554
Ge3 Pd5 2.720484 1_555
Ge3 Tm1 2.984487 1_544
Ge3 Tm1 2.985578 1_555
Ge3 Tm2 3.039701 1_555
Ge3 Tm4 3.073269 1_544
Ge3 Tm4 3.075790 1_555
Ge3 Tm5 3.218949 1_555
Ge4 Pd1 2.523861 1_555
Ge4 Pd1 2.524460 1_566
Ge4 Pd4 2.587768 1_656
Ge4 Ge5 2.684408 1_565
Ge4 Tm3 2.966374 1_666
Ge4 Tm3 2.966492 1_655
Ge4 Tm4 3.121009 1_555
Ge4 Tm2 3.145697 1_566
Ge4 Tm2 3.146870 1_555
Ge4 Tm0 3.175501 1_555
Ge5 Pd0 2.523425 1_545
Ge5 Pd0 2.523602 1_556
Ge5 Pd5 2.586103 1_656
Ge5 Tm3 2.966242 1_645
Ge5 Tm3 2.966846 1_656
Ge5 Tm5 3.123692 1_555
Ge5 Tm1 3.145989 1_645
Ge5 Tm1 3.147253 1_656
Ge5 Tm0 3.172888 1_545
Pd0 Tm1 2.916039 1_655
Pd0 Pd1 2.995396 1_555
Pd0 Tm0 3.076583 1_544
Pd0 Tm0 3.076781 1_555
Pd0 Tm5 3.084997 1_554
Pd0 Tm5 3.087744 1_565
Pd0 Tm3 3.177367 1_655
Pd1 Tm2 2.916179 1_555
Pd1 Tm0 3.078006 1_555
Pd1 Tm0 3.078850 1_544
Pd1 Tm4 3.083622 1_555
Pd1 Tm4 3.084474 1_544
Pd1 Tm3 3.177971 1_655
Pd2 Tm5 2.999480 1_555
Pd2 Tm5 3.001730 1_566
Pd2 Tm4 3.025825 1_555
Pd2 Tm1 3.072501 1_555
Pd2 Tm2 3.165310 1_555
Pd2 Tm2 3.167705 1_566
Pd3 Tm4 2.999033 1_556
Pd3 Tm4 3.000686 1_545
Pd3 Tm5 3.029400 1_455
Pd3 Tm2 3.070700 1_455
Pd3 Tm1 3.169239 1_556
Pd3 Tm1 3.172221 1_545
Pd4 Tm2 2.964428 1_454
Pd4 Tm2 2.965895 1_465
Pd4 Tm4 3.057407 1_555
Pd4 Tm0 3.099465 1_555
Pd4 Tm3 3.201688 1_554
Pd4 Tm3 3.204090 1_565
Pd5 Tm1 2.964692 1_555
Pd5 Tm1 2.965966 1_544
Pd5 Tm5 3.058269 1_555
Pd5 Tm0 3.097090 1_545
Pd5 Tm3 3.198884 1_555
Pd5 Tm3 3.200747 1_544
