# generated using pymatgen
data_YbPrRh2
_symmetry_space_group_name_H-M   'P 1'
_cell_length_a   4.89977058
_cell_length_b   4.89977058
_cell_length_c   4.89977058
_cell_angle_alpha   60.00000000
_cell_angle_beta   60.00000000
_cell_angle_gamma   60.00000000
_symmetry_Int_Tables_number   1
_chemical_formula_structural   YbPrRh2
_chemical_formula_sum   'Yb1 Pr1 Rh2'
_cell_volume   83.17872098
_cell_formula_units_Z   1
loop_
 _symmetry_equiv_pos_site_id
 _symmetry_equiv_pos_as_xyz
  1  'x, y, z'
loop_
 _atom_site_type_symbol
 _atom_site_label
 _atom_site_symmetry_multiplicity
 _atom_site_fract_x
 _atom_site_fract_y
 _atom_site_fract_z
 _atom_site_occupancy
  Yb  Yb0  1  0.00000000  0.00000000  0.00000000  1
  Pr  Pr0  1  0.50000000  0.50000000  0.50000000  1
  Rh  Rh0  1  0.25000000  0.25000000  0.25000000  1
  Rh  Rh1  1  0.75000000  0.75000000  0.75000000  1
loop_
_geom_bond_atom_site_label_1
_geom_bond_atom_site_label_2
_geom_bond_distance
_geom_bond_site_symmetry_2
Pr0 Rh1 3.000484 1_545
Pr0 Rh0 3.000484 1_555
Pr0 Rh0 3.000484 1_556
Pr0 Rh0 3.000484 1_565
Pr0 Rh1 3.000484 1_554
Pr0 Rh1 3.000484 1_555
Pr0 Rh1 3.000484 1_455
Pr0 Rh0 3.000484 1_655
Rh0 Yb0 3.000484 1_565
Rh0 Yb0 3.000484 1_555
Rh0 Yb0 3.000484 1_556
Rh0 Yb0 3.000484 1_655
Rh1 Yb0 3.000484 1_666
Rh1 Yb0 3.000484 1_656
Rh1 Yb0 3.000484 1_665
Rh1 Yb0 3.000484 1_566
