# generated using pymatgen
data_SmNiB4
_symmetry_space_group_name_H-M   'P 1'
_cell_length_a   6.87679350
_cell_length_b   6.87679458
_cell_length_c   6.87678703
_cell_angle_alpha   112.89858488
_cell_angle_beta   112.89896459
_cell_angle_gamma   102.81357070
_symmetry_Int_Tables_number   1
_chemical_formula_structural   SmNiB4
_chemical_formula_sum   'Sm4 Ni4 B16'
_cell_volume   247.85121704
_cell_formula_units_Z   4
loop_
 _symmetry_equiv_pos_site_id
 _symmetry_equiv_pos_as_xyz
  1  'x, y, z'
loop_
 _atom_site_type_symbol
 _atom_site_label
 _atom_site_symmetry_multiplicity
 _atom_site_fract_x
 _atom_site_fract_y
 _atom_site_fract_z
 _atom_site_occupancy
  Sm  Sm0  1  0.75000755  0.25000732  0.49999943  1
  Sm  Sm1  1  0.24999194  0.74999231  0.49999957  1
  Sm  Sm2  1  0.20496083  0.20496095  -0.00000089  1
  Sm  Sm3  1  0.79503840  0.79503855  -0.00000040  1
  Ni  Ni0  1  0.50000366  0.27313307  0.77313716  1
  Ni  Ni1  1  0.50000351  0.72686756  0.22687063  1
  Ni  Ni2  1  0.72685601  0.50000055  0.22685639  1
  Ni  Ni3  1  0.27314415  0.50000109  0.77314512  1
  B  B0  1  0.41781187  0.41781418  0.53208334  1
  B  B1  1  0.88573265  0.88573079  0.46791763  1
  B  B2  1  0.58218731  0.11427009  0.00000166  1
  B  B3  1  0.11426757  0.58218532  -0.00000266  1
  B  B4  1  0.58218729  0.58218541  0.46791640  1
  B  B5  1  0.11426754  0.11426989  0.53208205  1
  B  B6  1  0.88573169  0.41781437  0.00000160  1
  B  B7  1  0.41781199  0.88572992  -0.00000275  1
  B  B8  1  0.11241445  0.27669184  0.38910562  1
  B  B9  1  0.88758469  0.72330827  0.61089394  1
  B  B10  1  0.88758406  0.27669111  0.16427595  1
  B  B11  1  0.11241486  0.72330914  0.83572333  1
  B  B12  1  0.72331875  0.88758810  0.61090761  1
  B  B13  1  0.27668052  0.11241221  0.38909181  1
  B  B14  1  0.72331922  0.11241240  0.83573089  1
  B  B15  1  0.27667950  0.88758758  0.16426759  1
loop_
_geom_bond_atom_site_label_1
_geom_bond_atom_site_label_2
_geom_bond_distance
_geom_bond_site_symmetry_2
Ni0 Sm0 2.985118 1_555
Ni0 Sm1 2.985141 1_545
Ni0 Sm2 3.062812 1_556
Ni0 Sm3 3.062843 1_556
Ni1 Sm1 2.985112 1_555
Ni1 Sm0 2.985136 1_565
Ni1 Sm3 3.062817 1_555
Ni1 Sm2 3.062848 1_555
Ni2 Sm0 2.985069 1_555
Ni2 Sm1 2.985095 1_655
Ni2 Sm3 3.062765 1_555
Ni2 Sm2 3.062794 1_555
Ni3 Sm1 2.985072 1_555
Ni3 Sm0 2.985099 1_455
Ni3 Sm2 3.062763 1_556
Ni3 Sm3 3.062789 1_556
B0 B4 1.720385 1_555
B0 B8 1.750900 1_555
B0 B13 1.750924 1_555
B0 Ni3 2.204754 1_555
B0 Ni0 2.204778 1_555
B0 Sm3 2.799307 1_556
B0 Sm1 2.821711 1_555
B0 Sm0 2.821775 1_555
B0 Sm2 2.896077 1_555
B1 B5 1.720374 1_665
B1 B9 1.750896 1_555
B1 B12 1.750922 1_555
B1 Ni1 2.204761 1_555
B1 Ni2 2.204778 1_555
B1 Sm3 2.799281 1_555
B1 Sm1 2.821706 1_655
B1 Sm0 2.821767 1_565
B1 Sm2 2.896073 1_666
B2 B7 1.720376 1_545
B2 Ni0 2.204732 1_554
B2 Ni2 2.204778 1_555
B2 Sm2 2.799275 1_555
B2 Sm0 2.821720 1_555
B2 Sm1 2.821804 1_544
B2 Sm3 2.896049 1_545
B3 B6 1.720376 1_455
B3 Ni3 2.204749 1_554
B3 Ni1 2.204802 1_555
B3 Sm2 2.799276 1_555
B3 Sm0 2.821741 1_454
B3 Sm1 2.821783 1_555
B3 Sm3 2.896047 1_455
B4 B9 1.750900 1_555
B4 Ni1 2.204734 1_555
B4 Ni2 2.204749 1_555
B4 Sm2 2.799310 1_555
B4 Sm0 2.821711 1_555
B4 Sm1 2.821772 1_555
B4 Sm3 2.896071 1_556
B5 B8 1.750893 1_555
B5 Ni3 2.204784 1_555
B5 Ni0 2.204805 1_555
B5 Sm2 2.799278 1_556
B5 Sm0 2.821706 1_455
B5 Sm1 2.821771 1_545
B5 Sm3 2.896078 1_445
B6 Ni0 2.204753 1_554
B6 Ni2 2.204759 1_555
B6 Sm3 2.799275 1_555
B6 Sm1 2.821741 1_655
B6 Sm0 2.821783 1_554
B6 Sm2 2.896048 1_655
B7 Ni3 2.204768 1_554
B7 Ni1 2.204782 1_555
B7 Sm3 2.799276 1_555
B7 Sm1 2.821719 1_554
B7 Sm0 2.821804 1_565
B7 Sm2 2.896046 1_565
B8 Ni3 2.091405 1_555
B8 Sm0 2.865544 1_455
B8 Sm1 2.865554 1_555
B8 Sm2 2.871518 1_555
B8 Sm3 2.871553 1_445
B9 Ni2 2.091394 1_555
B9 Sm1 2.865549 1_655
B9 Sm0 2.865556 1_555
B9 Sm3 2.871513 1_556
B9 Sm2 2.871550 1_666
B10 B8 1.708980 1_655
B10 B6 1.750888 1_555
B10 B2 1.750900 1_555
B10 B14 1.765900 1_554
B10 Ni2 2.091377 1_555
B10 Sm0 2.865539 1_555
B10 Sm1 2.865581 1_655
B10 Sm2 2.871521 1_655
B10 Sm3 2.871531 1_545
B11 B9 1.708977 1_455
B11 B3 1.750889 1_556
B11 B7 1.750902 1_556
B11 B15 1.765896 1_556
B11 Ni3 2.091375 1_555
B11 Sm1 2.865542 1_555
B11 Sm0 2.865583 1_455
B11 Sm3 2.871516 1_456
B11 Sm2 2.871526 1_566
B12 B14 1.708942 1_565
B12 B4 1.750929 1_555
B12 B9 1.765889 1_555
B12 Ni1 2.091401 1_555
B12 Sm0 2.865683 1_565
B12 Sm1 2.865691 1_555
B12 Sm3 2.871441 1_556
B12 Sm2 2.871477 1_666
B13 B15 1.708944 1_545
B13 B5 1.750918 1_555
B13 B8 1.765888 1_555
B13 Ni0 2.091452 1_555
B13 Sm1 2.865686 1_545
B13 Sm0 2.865693 1_555
B13 Sm2 2.871442 1_555
B13 Sm3 2.871479 1_445
B14 B2 1.750915 1_556
B14 B6 1.750928 1_556
B14 Ni0 2.091379 1_555
B14 Sm0 2.865677 1_555
B14 Sm1 2.865717 1_545
B14 Sm3 2.871447 1_546
B14 Sm2 2.871457 1_656
B15 B7 1.750915 1_555
B15 B3 1.750929 1_555
B15 Ni1 2.091428 1_555
B15 Sm1 2.865680 1_555
B15 Sm0 2.865720 1_565
B15 Sm2 2.871442 1_565
B15 Sm3 2.871453 1_455
