# generated using pymatgen
data_La(ErS2)3
_symmetry_space_group_name_H-M   'P 1'
_cell_length_a   3.98012505
_cell_length_b   11.03532296
_cell_length_c   11.28485466
_cell_angle_alpha   71.14761632
_cell_angle_beta   90.00000000
_cell_angle_gamma   90.00000000
_symmetry_Int_Tables_number   1
_chemical_formula_structural   La(ErS2)3
_chemical_formula_sum   'La2 Er6 S12'
_cell_volume   469.06330735
_cell_formula_units_Z   2
loop_
 _symmetry_equiv_pos_site_id
 _symmetry_equiv_pos_as_xyz
  1  'x, y, z'
loop_
 _atom_site_type_symbol
 _atom_site_label
 _atom_site_symmetry_multiplicity
 _atom_site_fract_x
 _atom_site_fract_y
 _atom_site_fract_z
 _atom_site_occupancy
  La  La0  1  0.75000000  0.55078885  0.80439076  1
  La  La1  1  0.25000000  0.44921115  0.19560924  1
  Er  Er0  1  0.25000000  0.82187375  0.00104917  1
  Er  Er1  1  0.75000000  0.94469010  0.66636501  1
  Er  Er2  1  0.25000000  0.05530990  0.33363499  1
  Er  Er3  1  0.75000000  0.66164884  0.41150482  1
  Er  Er4  1  0.25000000  0.33835116  0.58849518  1
  Er  Er5  1  0.75000000  0.17812625  0.99895083  1
  S  S0  1  0.75000000  0.89306539  0.44313593  1
  S  S1  1  0.25000000  0.10693461  0.55686407  1
  S  S2  1  0.75000000  0.30088205  0.74881533  1
  S  S3  1  0.25000000  0.69911795  0.25118467  1
  S  S4  1  0.75000000  0.97773290  0.88877985  1
  S  S5  1  0.25000000  0.02226710  0.11122015  1
  S  S6  1  0.75000000  0.62212228  0.03658824  1
  S  S7  1  0.25000000  0.37787772  0.96341176  1
  S  S8  1  0.75000000  0.22925547  0.23013105  1
  S  S9  1  0.25000000  0.77074453  0.76986895  1
  S  S10  1  0.75000000  0.41827487  0.40908757  1
  S  S11  1  0.25000000  0.58172513  0.59091243  1
loop_
_geom_bond_atom_site_label_1
_geom_bond_atom_site_label_2
_geom_bond_distance
_geom_bond_site_symmetry_2
La0 S7 2.934061 1_555
La0 S7 2.934061 1_655
La0 S6 2.969637 1_556
La0 S2 3.019366 1_555
La0 S11 3.057616 1_555
La0 S11 3.057616 1_655
La0 S9 3.064752 1_655
La0 S9 3.064752 1_555
La1 S6 2.934061 1_555
La1 S6 2.934061 1_455
La1 S7 2.969637 1_554
La1 S3 3.019366 1_555
La1 S10 3.057616 1_555
La1 S10 3.057616 1_455
La1 S8 3.064752 1_455
La1 S8 3.064752 1_555
Er0 S4 2.667486 1_454
Er0 S4 2.667486 1_554
Er0 S3 2.707722 1_555
Er0 S9 2.841770 1_554
Er0 S5 2.865803 1_565
Er0 S6 2.899810 1_455
Er0 S6 2.899810 1_555
Er1 S4 2.650306 1_555
Er1 S1 2.695015 1_565
Er1 S1 2.695015 1_665
Er1 S9 2.749603 1_555
Er1 S9 2.749603 1_655
Er1 S0 2.756433 1_555
Er2 S5 2.650306 1_555
Er2 S0 2.695015 1_545
Er2 S0 2.695015 1_445
Er2 S8 2.749603 1_555
Er2 S8 2.749603 1_455
Er2 S1 2.756433 1_555
Er3 S3 2.630786 1_655
Er3 S3 2.630786 1_555
Er3 S0 2.690390 1_555
Er3 S10 2.694648 1_555
Er3 S11 2.771859 1_655
Er3 S11 2.771859 1_555
Er4 S2 2.630786 1_455
Er4 S2 2.630786 1_555
Er4 S1 2.690390 1_555
Er4 S11 2.694648 1_555
Er4 S10 2.771859 1_455
Er4 S10 2.771859 1_555
Er5 S5 2.667486 1_656
Er5 S5 2.667486 1_556
Er5 S2 2.707722 1_555
Er5 S8 2.841770 1_556
Er5 S4 2.865803 1_545
Er5 S7 2.899810 1_655
Er5 S7 2.899810 1_555
