# generated using pymatgen
data_Cd2TeCl2O3
_symmetry_space_group_name_H-M   'P 1'
_cell_length_a   8.37079300
_cell_length_b   11.47085300
_cell_length_c   16.05811200
_cell_angle_alpha   90.00000000
_cell_angle_beta   90.00000000
_cell_angle_gamma   90.00000000
_symmetry_Int_Tables_number   1
_chemical_formula_structural   Cd2TeCl2O3
_chemical_formula_sum   'Cd16 Te8 Cl16 O24'
_cell_volume   1541.90209809
_cell_formula_units_Z   8
loop_
 _symmetry_equiv_pos_site_id
 _symmetry_equiv_pos_as_xyz
  1  'x, y, z'
loop_
 _atom_site_type_symbol
 _atom_site_label
 _atom_site_symmetry_multiplicity
 _atom_site_fract_x
 _atom_site_fract_y
 _atom_site_fract_z
 _atom_site_occupancy
  Cd  Cd0  1  0.89533000  0.23129900  0.47267400  1
  Cd  Cd1  1  0.65399200  0.99520300  0.38335700  1
  Cd  Cd2  1  0.60467000  0.76870100  0.97267400  1
  Cd  Cd3  1  0.89533000  0.26870100  0.02732600  1
  Cd  Cd4  1  0.84600800  0.00479700  0.88335700  1
  Cd  Cd5  1  0.34600800  0.00479700  0.61664300  1
  Cd  Cd6  1  0.10467000  0.73129900  0.97267400  1
  Cd  Cd7  1  0.65399200  0.50479700  0.11664300  1
  Cd  Cd8  1  0.39533000  0.26870100  0.47267400  1
  Cd  Cd9  1  0.84600800  0.49520300  0.61664300  1
  Cd  Cd10  1  0.15399200  0.50479700  0.38335700  1
  Cd  Cd11  1  0.10467000  0.76870100  0.52732600  1
  Cd  Cd12  1  0.39533000  0.23129900  0.02732600  1
  Cd  Cd13  1  0.60467000  0.73129900  0.52732600  1
  Cd  Cd14  1  0.34600800  0.49520300  0.88335700  1
  Cd  Cd15  1  0.15399200  0.99520300  0.11664300  1
  Te  Te0  1  0.28626900  0.96650400  0.90159600  1
  Te  Te1  1  0.78626900  0.53349600  0.90159600  1
  Te  Te2  1  0.71373100  0.46650400  0.40159600  1
  Te  Te3  1  0.21373100  0.03349600  0.40159600  1
  Te  Te4  1  0.71373100  0.03349600  0.09840400  1
  Te  Te5  1  0.28626900  0.53349600  0.59840400  1
  Te  Te6  1  0.21373100  0.46650400  0.09840400  1
  Te  Te7  1  0.78626900  0.96650400  0.59840400  1
  Cl  Cl0  1  0.34672500  0.08543900  0.21135900  1
  Cl  Cl1  1  0.42847000  0.21271600  0.62939400  1
  Cl  Cl2  1  0.15327500  0.91456100  0.71135900  1
  Cl  Cl3  1  0.42847000  0.28728400  0.87060600  1
  Cl  Cl4  1  0.84672500  0.41456100  0.21135900  1
  Cl  Cl5  1  0.65327500  0.58543900  0.71135900  1
  Cl  Cl6  1  0.34672500  0.41456100  0.28864100  1
  Cl  Cl7  1  0.07153000  0.78728400  0.12939400  1
  Cl  Cl8  1  0.65327500  0.91456100  0.78864100  1
  Cl  Cl9  1  0.15327500  0.58543900  0.78864100  1
  Cl  Cl10  1  0.57153000  0.78728400  0.37060600  1
  Cl  Cl11  1  0.07153000  0.71271600  0.37060600  1
  Cl  Cl12  1  0.84672500  0.08543900  0.28864100  1
  Cl  Cl13  1  0.92847000  0.28728400  0.62939400  1
  Cl  Cl14  1  0.92847000  0.21271600  0.87060600  1
  Cl  Cl15  1  0.57153000  0.71271600  0.12939400  1
  O  O0  1  0.19741400  0.54954600  0.99524600  1
  O  O1  1  0.92826900  0.41726900  0.41822600  1
  O  O2  1  0.14712200  0.31761100  0.06003400  1
  O  O3  1  0.30258600  0.45045400  0.49524600  1
  O  O4  1  0.85287800  0.68238900  0.93996600  1
  O  O5  1  0.85287800  0.81761100  0.56003400  1
  O  O6  1  0.57173100  0.58273100  0.91822600  1
  O  O7  1  0.80258600  0.04954600  0.49524600  1
  O  O8  1  0.14712200  0.18238900  0.43996600  1
  O  O9  1  0.35287800  0.81761100  0.93996600  1
  O  O10  1  0.07173100  0.91726900  0.91822600  1
  O  O11  1  0.92826900  0.08273100  0.08177400  1
  O  O12  1  0.69741400  0.54954600  0.50475400  1
  O  O13  1  0.35287800  0.68238900  0.56003400  1
  O  O14  1  0.07173100  0.58273100  0.58177400  1
  O  O15  1  0.30258600  0.04954600  0.00475400  1
  O  O16  1  0.64712200  0.31761100  0.43996600  1
  O  O17  1  0.64712200  0.18238900  0.06003400  1
  O  O18  1  0.80258600  0.45045400  0.00475400  1
  O  O19  1  0.69741400  0.95045400  0.99524600  1
  O  O20  1  0.19741400  0.95045400  0.50475400  1
  O  O21  1  0.42826900  0.08273100  0.41822600  1
  O  O22  1  0.57173100  0.91726900  0.58177400  1
  O  O23  1  0.42826900  0.41726900  0.08177400  1
loop_
_geom_bond_atom_site_label_1
_geom_bond_atom_site_label_2
_geom_bond_distance
_geom_bond_site_symmetry_2
Cd0 O8 2.243440 1_655
Cd0 O7 2.254048 1_555
Cd0 O1 2.321889 1_555
Cd0 O16 2.360707 1_555
Cd0 Cl13 2.612046 1_555
Cd1 O21 2.211722 1_565
Cd1 O7 2.272436 1_565
Cd1 Cl12 2.446946 1_565
Cd1 Cl10 2.491318 1_555
Cd2 O9 2.243440 1_555
Cd2 O19 2.254048 1_555
Cd2 O6 2.321889 1_555
Cd2 O4 2.360707 1_555
Cd2 Cl15 2.612046 1_556
Cd3 O2 2.243440 1_655
Cd3 O18 2.254048 1_555
Cd3 O11 2.321889 1_555
Cd3 O17 2.360707 1_555
Cd3 Cl14 2.612046 1_554
Cd4 O10 2.211722 1_645
Cd4 O19 2.272436 1_545
Cd4 Cl8 2.446946 1_545
Cd4 Cl14 2.491318 1_555
Cd5 O22 2.211722 1_545
Cd5 O20 2.272436 1_545
Cd5 Cl2 2.446946 1_545
Cd5 Cl1 2.491318 1_555
Cd6 O4 2.243440 1_455
Cd6 O0 2.254048 1_555
Cd6 O10 2.321889 1_555
Cd6 O9 2.360707 1_555
Cd6 Cl7 2.612046 1_556
Cd7 O23 2.211722 1_555
Cd7 O18 2.272436 1_555
Cd7 Cl4 2.446946 1_555
Cd7 Cl15 2.491318 1_555
Cd8 O16 2.243440 1_555
Cd8 O3 2.254048 1_555
Cd8 O21 2.321889 1_555
Cd8 O8 2.360707 1_555
Cd8 Cl1 2.612046 1_555
Cd9 O14 2.211722 1_655
Cd9 O12 2.272436 1_555
Cd9 Cl5 2.446946 1_555
Cd9 Cl13 2.491318 1_555
Cd10 O1 2.211722 1_455
Cd10 O3 2.272436 1_555
Cd10 Cl6 2.446946 1_555
Cd10 Cl11 2.491318 1_555
Cd11 O5 2.243440 1_455
Cd11 O20 2.254048 1_555
Cd11 O14 2.321889 1_555
Cd11 O13 2.360707 1_555
Cd11 Cl11 2.612046 1_555
Cd12 O17 2.243440 1_555
Cd12 O15 2.254048 1_555
Cd12 O23 2.321889 1_555
Cd12 O2 2.360707 1_555
Cd12 Cl3 2.612046 1_554
Cd13 O13 2.243440 1_555
Cd13 O12 2.254048 1_555
Cd13 O22 2.321889 1_555
Cd13 O5 2.360707 1_555
Cd13 Cl10 2.612046 1_555
Cd14 O6 2.211722 1_555
Cd14 O0 2.272436 1_555
Cd14 Cl9 2.446946 1_555
Cd14 Cl3 2.491318 1_555
Cd15 O11 2.211722 1_465
Cd15 O15 2.272436 1_565
Cd15 Cl0 2.446946 1_565
Cd15 Cl7 2.491318 1_555
O0 Te6 1.915750 1_556
O1 Te2 1.901411 1_555
O2 Te6 1.899355 1_555
O3 Te5 1.915750 1_555
O4 Te1 1.899355 1_555
O5 Te7 1.899355 1_555
O6 Te1 1.901411 1_555
O7 Te7 1.915750 1_545
O8 Te3 1.899355 1_555
O9 Te0 1.899355 1_555
O10 Te0 1.901411 1_555
O11 Te4 1.901411 1_555
O12 Te2 1.915750 1_555
O13 Te5 1.899355 1_555
O14 Te5 1.901411 1_555
O15 Te0 1.915750 1_544
O16 Te2 1.899355 1_555
O17 Te4 1.899355 1_555
O18 Te1 1.915750 1_554
O19 Te4 1.915750 1_566
O20 Te3 1.915750 1_565
O21 Te3 1.901411 1_555
O22 Te7 1.901411 1_555
O23 Te6 1.901411 1_555
