# generated using pymatgen
data_Zn6HO6
_symmetry_space_group_name_H-M   'P 1'
_cell_length_a   6.65865850
_cell_length_b   5.77060523
_cell_length_c   41.60345415
_cell_angle_alpha   89.92720420
_cell_angle_beta   89.95884414
_cell_angle_gamma   89.99547632
_symmetry_Int_Tables_number   1
_chemical_formula_structural   Zn6HO6
_chemical_formula_sum   'Zn24 H4 O24'
_cell_volume   1598.58978201
_cell_formula_units_Z   4
loop_
 _symmetry_equiv_pos_site_id
 _symmetry_equiv_pos_as_xyz
  1  'x, y, z'
loop_
 _atom_site_type_symbol
 _atom_site_label
 _atom_site_symmetry_multiplicity
 _atom_site_fract_x
 _atom_site_fract_y
 _atom_site_fract_z
 _atom_site_occupancy
  Zn  Zn0  1  0.00148173  0.33307082  0.14263381  1
  Zn  Zn1  1  0.50150072  0.33302607  0.14262752  1
  Zn  Zn2  1  0.25148001  0.83329738  0.14243179  1
  Zn  Zn3  1  0.75146249  0.83330839  0.14242890  1
  Zn  Zn4  1  0.25135793  0.16654432  0.20656604  1
  Zn  Zn5  1  0.75150185  0.16653136  0.20656605  1
  Zn  Zn6  1  0.00147268  0.66662940  0.20653369  1
  Zn  Zn7  1  0.50148207  0.66676357  0.20656495  1
  Zn  Zn8  1  0.00138591  0.33314190  0.26987860  1
  Zn  Zn9  1  0.50137170  0.33252252  0.26966066  1
  Zn  Zn10  1  0.25085828  0.83326640  0.26960805  1
  Zn  Zn11  1  0.75181872  0.83327338  0.26961043  1
  Zn  Zn12  1  0.25084791  0.16382440  0.33268903  1
  Zn  Zn13  1  0.75018128  0.16380800  0.33269146  1
  Zn  Zn14  1  0.00052359  0.66510866  0.33277887  1
  Zn  Zn15  1  0.50053623  0.66493424  0.33180991  1
  Zn  Zn16  1  0.00014331  0.33028843  0.39422891  1
  Zn  Zn17  1  0.50014333  0.33813356  0.39494906  1
  Zn  Zn18  1  0.25380477  0.82883381  0.39542729  1
  Zn  Zn19  1  0.74653762  0.82879554  0.39543368  1
  Zn  Zn20  1  0.25429783  0.16346794  0.45246506  1
  Zn  Zn21  1  0.74576714  0.16347132  0.45247064  1
  Zn  Zn22  1  0.00006492  0.66374593  0.45290465  1
  Zn  Zn23  1  0.50001014  0.66661194  0.46216758  1
  H  H0  1  0.25142781  0.16900571  0.09962577  1
  H  H1  1  0.75170277  0.16900398  0.09961781  1
  H  H2  1  0.00157196  0.66433833  0.09961380  1
  H  H3  1  0.50153670  0.66436921  0.09961033  1
  O  O0  1  0.25154906  0.16733848  0.12337068  1
  O  O1  1  0.75164576  0.16733287  0.12336846  1
  O  O2  1  0.00156424  0.66592053  0.12335671  1
  O  O3  1  0.50155608  0.66592412  0.12335514  1
  O  O4  1  0.00152412  0.33352935  0.18956984  1
  O  O5  1  0.50153162  0.33353604  0.18957956  1
  O  O6  1  0.25155274  0.83361846  0.18943585  1
  O  O7  1  0.75156700  0.83361964  0.18943310  1
  O  O8  1  0.25115151  0.16659367  0.25443196  1
  O  O9  1  0.75181038  0.16658913  0.25443182  1
  O  O10  1  0.50144744  0.66637028  0.25447103  1
  O  O11  1  0.00144092  0.66586765  0.25439347  1
  O  O12  1  0.00058972  0.33162034  0.31866745  1
  O  O13  1  0.50060073  0.33035177  0.31832197  1
  O  O14  1  0.24960325  0.83184621  0.31823072  1
  O  O15  1  0.75160790  0.83184679  0.31823084  1
  O  O16  1  0.25155630  0.16391688  0.38230143  1
  O  O17  1  0.74887204  0.16389824  0.38230484  1
  O  O18  1  0.00023838  0.66549959  0.38239659  1
  O  O19  1  0.50024400  0.66629885  0.38077848  1
  O  O20  1  0.00004970  0.32804228  0.44607266  1
  O  O21  1  0.50005056  0.34114357  0.44603323  1
  O  O22  1  0.25340911  0.82804781  0.44658772  1
  O  O23  1  0.74673302  0.82804494  0.44659509  1
loop_
_geom_bond_atom_site_label_1
_geom_bond_atom_site_label_2
_geom_bond_distance
_geom_bond_site_symmetry_2
H0 O0 0.987906 1_555
H1 O1 0.988144 1_555
H2 O2 0.987841 1_555
H3 O3 0.987918 1_555
O0 Zn0 2.080696 1_555
O0 Zn1 2.080902 1_555
O0 Zn2 2.083433 1_545
O1 Zn0 2.080556 1_655
O1 Zn1 2.080941 1_555
O1 Zn3 2.083334 1_545
O2 Zn0 2.080514 1_555
O2 Zn3 2.082252 1_455
O2 Zn2 2.082311 1_555
O3 Zn1 2.080696 1_555
O3 Zn2 2.082147 1_555
O3 Zn3 2.082260 1_555
O4 Zn0 1.952706 1_555
O4 Zn4 2.048330 1_555
O4 Zn6 2.048499 1_555
O4 Zn5 2.048683 1_455
O5 Zn1 1.953373 1_555
O5 Zn5 2.048982 1_555
O5 Zn4 2.049346 1_555
O5 Zn7 2.049499 1_555
O6 Zn2 1.955535 1_555
O6 Zn4 2.049959 1_565
O6 Zn7 2.050409 1_555
O6 Zn6 2.050430 1_555
O7 Zn3 1.955541 1_555
O7 Zn5 2.049922 1_565
O7 Zn6 2.050236 1_655
O7 Zn7 2.050585 1_555
O8 Zn4 1.991387 1_555
O8 Zn10 2.023711 1_545
O8 Zn9 2.024237 1_555
O8 Zn8 2.025427 1_555
O9 Zn5 1.991384 1_555
O9 Zn11 2.023680 1_545
O9 Zn9 2.024575 1_555
O9 Zn8 2.025285 1_655
O10 Zn7 1.993057 1_555
O10 Zn11 2.026570 1_555
O10 Zn9 2.026739 1_555
O10 Zn10 2.026844 1_555
O11 Zn6 1.991131 1_555
O11 Zn10 2.023692 1_555
O11 Zn11 2.023990 1_455
O11 Zn8 2.024452 1_555
O12 Zn14 2.012701 1_555
O12 Zn12 2.013556 1_555
O12 Zn13 2.013892 1_455
O12 Zn8 2.029796 1_555
O13 Zn13 2.010611 1_555
O13 Zn12 2.010899 1_555
O13 Zn15 2.011320 1_555
O13 Zn9 2.024504 1_555
O14 Zn12 2.008679 1_565
O14 Zn15 2.009584 1_555
O14 Zn14 2.010022 1_555
O14 Zn10 2.022888 1_555
O15 Zn13 2.008615 1_565
O15 Zn14 2.009713 1_655
O15 Zn15 2.009804 1_555
O15 Zn11 2.022783 1_555
O16 Zn16 1.992548 1_555
O16 Zn17 2.007561 1_555
O16 Zn18 2.008653 1_545
O16 Zn12 2.064057 1_555
O17 Zn16 1.992498 1_655
O17 Zn17 2.007602 1_555
O17 Zn19 2.008796 1_545
O17 Zn13 2.064101 1_555
O18 Zn16 1.995419 1_555
O18 Zn19 2.008889 1_455
O18 Zn18 2.008948 1_555
O18 Zn14 2.064272 1_555
O19 Zn17 1.982643 1_555
O19 Zn18 1.985857 1_555
O19 Zn19 1.985879 1_555
O19 Zn15 2.037286 1_555
O20 Zn22 1.958311 1_555
O20 Zn20 1.959204 1_555
O20 Zn21 1.959223 1_455
O20 Zn16 2.156901 1_555
O21 Zn20 1.949237 1_555
O21 Zn21 1.949243 1_555
O21 Zn23 1.995299 1_555
O21 Zn17 2.125371 1_555
O22 Zn20 1.951279 1_565
O22 Zn22 1.952620 1_555
O22 Zn23 1.995996 1_555
O22 Zn18 2.128449 1_555
O23 Zn21 1.951305 1_565
O23 Zn22 1.952697 1_655
O23 Zn23 1.995912 1_555
O23 Zn19 2.128492 1_555
