# generated using pymatgen
data_NiBiO3
_symmetry_space_group_name_H-M   'P 1'
_cell_length_a   3.91821464
_cell_length_b   3.91821464
_cell_length_c   3.87091793
_cell_angle_alpha   89.27844767
_cell_angle_beta   89.27844767
_cell_angle_gamma   88.36897960
_symmetry_Int_Tables_number   1
_chemical_formula_structural   NiBiO3
_chemical_formula_sum   'Ni1 Bi1 O3'
_cell_volume   59.39466570
_cell_formula_units_Z   1
loop_
 _symmetry_equiv_pos_site_id
 _symmetry_equiv_pos_as_xyz
  1  'x, y, z'
loop_
 _atom_site_type_symbol
 _atom_site_label
 _atom_site_symmetry_multiplicity
 _atom_site_fract_x
 _atom_site_fract_y
 _atom_site_fract_z
 _atom_site_occupancy
  Ni  Ni0  1  0.50880800  0.50880800  0.50745100  1
  Bi  Bi0  1  0.93659600  0.93659600  0.96894900  1
  O  O0  1  0.01780800  0.55101500  0.52171800  1
  O  O1  1  0.55101500  0.01780800  0.52171800  1
  O  O2  1  0.53917700  0.53917700  0.00998900  1
loop_
_geom_bond_atom_site_label_1
_geom_bond_atom_site_label_2
_geom_bond_distance
_geom_bond_site_symmetry_2
Ni0 O1 1.926400 1_555
Ni0 O0 1.926400 1_555
Ni0 O2 1.930194 1_555
Ni0 O2 1.955738 1_556
Ni0 O0 2.007410 1_655
Ni0 O1 2.007410 1_565
Bi0 O2 2.236154 1_556
Bi0 O1 2.324953 1_565
Bi0 O0 2.324953 1_655
Bi0 O0 2.621167 1_656
Bi0 O1 2.621167 1_566
Bi0 O2 2.796153 1_656
Bi0 O2 2.796153 1_566
