# generated using pymatgen
data_Ho3Sb
_symmetry_space_group_name_H-M   'P 1'
_cell_length_a   6.14575666
_cell_length_b   6.14575666
_cell_length_c   6.14575666
_cell_angle_alpha   135.89192782
_cell_angle_beta   135.89192782
_cell_angle_gamma   64.14746081
_symmetry_Int_Tables_number   1
_chemical_formula_structural   Ho3Sb
_chemical_formula_sum   'Ho3 Sb1'
_cell_volume   110.92576850
_cell_formula_units_Z   1
loop_
 _symmetry_equiv_pos_site_id
 _symmetry_equiv_pos_as_xyz
  1  'x, y, z'
loop_
 _atom_site_type_symbol
 _atom_site_label
 _atom_site_symmetry_multiplicity
 _atom_site_fract_x
 _atom_site_fract_y
 _atom_site_fract_z
 _atom_site_occupancy
  Ho  Ho0  1  0.75000000  0.25000000  0.50000000  1
  Ho  Ho1  1  0.25000000  0.75000000  0.50000000  1
  Ho  Ho2  1  0.50000000  0.50000000  0.00000000  1
  Sb  Sb0  1  0.00000000  0.00000000  0.00000000  1
loop_
_geom_bond_atom_site_label_1
_geom_bond_atom_site_label_2
_geom_bond_distance
_geom_bond_site_symmetry_2
Ho0 Ho1 3.263459 1_645
Ho0 Ho1 3.263459 1_544
Ho0 Ho1 3.263459 1_656
Ho0 Ho1 3.263459 1_555
Ho0 Sb0 3.479242 1_555
Ho0 Sb0 3.479242 1_656
Ho0 Ho2 3.479242 1_556
Ho0 Sb0 3.479242 1_655
Ho0 Sb0 3.479242 1_666
Ho0 Ho2 3.479242 1_555
Ho0 Ho2 3.479242 1_656
Ho0 Ho2 3.479242 1_545
Ho1 Sb0 3.479242 1_555
Ho1 Ho2 3.479242 1_455
Ho1 Ho2 3.479242 1_566
Ho1 Sb0 3.479242 1_566
Ho1 Ho2 3.479242 1_556
Ho1 Sb0 3.479242 1_666
Ho1 Ho2 3.479242 1_555
Ho1 Sb0 3.479242 1_565
Ho2 Sb0 3.263459 1_565
Ho2 Sb0 3.263459 1_655
Ho2 Sb0 3.263459 1_554
Ho2 Sb0 3.263459 1_666
