# generated using pymatgen
data_Rb2Sr2(CO3)3
_symmetry_space_group_name_H-M   'P 1'
_cell_length_a   8.61223813
_cell_length_b   8.61223813
_cell_length_c   8.61223813
_cell_angle_alpha   109.47122063
_cell_angle_beta   109.47122063
_cell_angle_gamma   109.47122063
_symmetry_Int_Tables_number   1
_chemical_formula_structural   Rb2Sr2(CO3)3
_chemical_formula_sum   'Rb4 Sr4 C6 O18'
_cell_volume   491.72942534
_cell_formula_units_Z   2
loop_
 _symmetry_equiv_pos_site_id
 _symmetry_equiv_pos_as_xyz
  1  'x, y, z'
loop_
 _atom_site_type_symbol
 _atom_site_label
 _atom_site_symmetry_multiplicity
 _atom_site_fract_x
 _atom_site_fract_y
 _atom_site_fract_z
 _atom_site_occupancy
  Rb  Rb0  1  0.86956900  0.86956900  0.86956900  1
  Rb  Rb1  1  0.50000000  0.00000000  0.63043100  1
  Rb  Rb2  1  0.63043100  0.50000000  0.00000000  1
  Rb  Rb3  1  0.00000000  0.63043100  0.50000000  1
  Sr  Sr0  1  0.42377200  0.42377200  0.42377200  1
  Sr  Sr1  1  0.50000000  0.00000000  0.07622800  1
  Sr  Sr2  1  0.07622800  0.50000000  0.00000000  1
  Sr  Sr3  1  0.00000000  0.07622800  0.50000000  1
  C  C0  1  0.58351300  0.75000000  0.33351300  1
  C  C1  1  0.91648700  0.25000000  0.16648700  1
  C  C2  1  0.33351300  0.58351300  0.75000000  1
  C  C3  1  0.75000000  0.33351300  0.58351300  1
  C  C4  1  0.25000000  0.16648700  0.91648700  1
  C  C5  1  0.16648700  0.91648700  0.25000000  1
  O  O0  1  0.71583100  0.75000000  0.46583100  1
  O  O1  1  0.78416900  0.25000000  0.03416900  1
  O  O2  1  0.46583100  0.71583100  0.75000000  1
  O  O3  1  0.75000000  0.46583100  0.71583100  1
  O  O4  1  0.25000000  0.03416900  0.78416900  1
  O  O5  1  0.03416900  0.78416900  0.25000000  1
  O  O6  1  0.41055900  0.67075200  0.30104900  1
  O  O7  1  0.86970300  0.10951000  0.19895100  1
  O  O8  1  0.08944100  0.39049000  0.26019200  1
  O  O9  1  0.63029700  0.82924800  0.23980800  1
  O  O10  1  0.30104900  0.41055900  0.67075200  1
  O  O11  1  0.67075200  0.30104900  0.41055900  1
  O  O12  1  0.23980800  0.63029700  0.82924800  1
  O  O13  1  0.10951000  0.19895100  0.86970300  1
  O  O14  1  0.19895100  0.86970300  0.10951000  1
  O  O15  1  0.39049000  0.26019200  0.08944100  1
  O  O16  1  0.26019200  0.08944100  0.39049000  1
  O  O17  1  0.82924800  0.23980800  0.63029700  1
loop_
_geom_bond_atom_site_label_1
_geom_bond_atom_site_label_2
_geom_bond_distance
_geom_bond_site_symmetry_2
C0 O9 1.296167 1_555
C0 O6 1.296175 1_555
C0 O0 1.315844 1_555
C1 O7 1.296175 1_555
C1 O8 1.296176 1_655
C1 O1 1.315844 1_555
C2 O12 1.296167 1_555
C2 O10 1.296175 1_555
C2 O2 1.315844 1_555
C3 O17 1.296167 1_555
C3 O11 1.296175 1_555
C3 O3 1.315844 1_555
C4 O13 1.296175 1_555
C4 O15 1.296176 1_556
C4 O4 1.315844 1_555
C5 O14 1.296175 1_555
C5 O16 1.296176 1_565
C5 O5 1.315844 1_555
O0 Sr3 2.890394 1_665
O0 Sr0 2.890394 1_555
O0 Rb0 2.922059 1_555
O0 Rb3 2.922059 1_655
O1 Sr1 2.890394 1_555
O1 Sr2 2.890394 1_655
O1 Rb2 2.922059 1_555
O1 Rb1 2.922059 1_554
O2 Sr1 2.890394 1_566
O2 Sr0 2.890394 1_555
O2 Rb0 2.922059 1_555
O2 Rb1 2.922059 1_565
O3 Sr2 2.890394 1_656
O3 Sr0 2.890394 1_555
O3 Rb0 2.922059 1_555
O3 Rb2 2.922059 1_556
O4 Sr3 2.890394 1_555
O4 Sr1 2.890394 1_556
O4 Rb3 2.922059 1_545
O4 Rb1 2.922059 1_555
O5 Sr3 2.890394 1_565
O5 Sr2 2.890394 1_555
O5 Rb2 2.922059 1_455
O5 Rb3 2.922059 1_555
O6 Sr2 2.614147 1_555
O6 Sr0 2.689666 1_555
O6 Rb1 2.899207 1_565
O7 Sr3 2.614147 1_655
O7 Sr1 2.689666 1_555
O7 Rb0 2.899207 1_544
O8 Sr0 2.614148 1_555
O8 Sr2 2.689658 1_555
O8 Rb3 2.899212 1_555
O9 Sr1 2.614152 1_565
O9 Sr3 2.689664 1_665
O9 Rb2 2.899210 1_555
O10 Sr3 2.614147 1_555
O10 Sr0 2.689666 1_555
O10 Rb2 2.899207 1_556
O11 Sr1 2.614147 1_555
O11 Sr0 2.689666 1_555
O11 Rb3 2.899207 1_655
O12 Sr2 2.614152 1_556
O12 Sr1 2.689664 1_566
O12 Rb3 2.899210 1_555
O13 Sr2 2.614147 1_556
O13 Sr3 2.689666 1_555
O13 Rb0 2.899207 1_445
O14 Sr1 2.614147 1_565
O14 Sr2 2.689666 1_555
O14 Rb0 2.899207 1_454
O15 Sr0 2.614148 1_555
O15 Sr1 2.689658 1_555
O15 Rb2 2.899212 1_555
O16 Sr0 2.614148 1_555
O16 Sr3 2.689658 1_555
O16 Rb1 2.899212 1_555
O17 Sr3 2.614152 1_655
O17 Sr2 2.689664 1_656
O17 Rb1 2.899210 1_555
