# generated using pymatgen
data_LiLuPd2
_symmetry_space_group_name_H-M   'P 1'
_cell_length_a   4.57544942
_cell_length_b   4.57320726
_cell_length_c   4.58628820
_cell_angle_alpha   60.03428850
_cell_angle_beta   60.03548176
_cell_angle_gamma   59.99537248
_symmetry_Int_Tables_number   1
_chemical_formula_structural   LiLuPd2
_chemical_formula_sum   'Li1 Lu1 Pd2'
_cell_volume   67.89137075
_cell_formula_units_Z   1
loop_
 _symmetry_equiv_pos_site_id
 _symmetry_equiv_pos_as_xyz
  1  'x, y, z'
loop_
 _atom_site_type_symbol
 _atom_site_label
 _atom_site_symmetry_multiplicity
 _atom_site_fract_x
 _atom_site_fract_y
 _atom_site_fract_z
 _atom_site_occupancy
  Li  Li0  1  0.24981918  0.24971401  0.25021456  1
  Lu  Lu0  1  0.75025211  0.75014537  0.74995161  1
  Pd  Pd0  1  0.99992741  -0.00007352  0.00016512  1
  Pd  Pd1  1  0.50000130  0.50021314  0.49966870  1
loop_
_geom_bond_atom_site_label_1
_geom_bond_atom_site_label_2
_geom_bond_distance
_geom_bond_site_symmetry_2
Li0 Pd1 2.799021 1_545
Li0 Pd1 2.801611 1_455
Li0 Pd0 2.801680 1_465
Li0 Pd0 2.802162 1_455
Li0 Pd0 2.802698 1_555
Li0 Pd1 2.803674 1_555
Li0 Pd0 2.809847 1_456
Li0 Pd1 2.812075 1_554
Lu0 Pd1 2.801143 1_565
Lu0 Pd1 2.801359 1_655
Lu0 Pd0 2.801705 1_556
Lu0 Pd0 2.801944 1_566
Lu0 Pd0 2.803507 1_466
Lu0 Pd1 2.804917 1_555
Lu0 Pd1 2.808970 1_556
Lu0 Pd0 2.809233 1_565
