# generated using pymatgen
data_YbAgGe
_symmetry_space_group_name_H-M   'P 1'
_cell_length_a   7.08662228
_cell_length_b   7.08662228
_cell_length_c   4.41290900
_cell_angle_alpha   90.00000000
_cell_angle_beta   90.00000000
_cell_angle_gamma   120.00000260
_symmetry_Int_Tables_number   1
_chemical_formula_structural   YbAgGe
_chemical_formula_sum   'Yb3 Ag3 Ge3'
_cell_volume   191.92615485
_cell_formula_units_Z   3
loop_
 _symmetry_equiv_pos_site_id
 _symmetry_equiv_pos_as_xyz
  1  'x, y, z'
loop_
 _atom_site_type_symbol
 _atom_site_label
 _atom_site_symmetry_multiplicity
 _atom_site_fract_x
 _atom_site_fract_y
 _atom_site_fract_z
 _atom_site_occupancy
  Yb  Yb0  1  0.00000000  0.57379700  0.00000000  1
  Yb  Yb1  1  0.42620300  0.42620300  0.00000000  1
  Yb  Yb2  1  0.57379700  0.00000000  0.00000000  1
  Ag  Ag0  1  0.24345800  0.00000000  0.50000000  1
  Ag  Ag1  1  0.75654200  0.75654200  0.50000000  1
  Ag  Ag2  1  0.00000000  0.24345800  0.50000000  1
  Ge  Ge0  1  0.00000000  0.00000000  0.00000000  1
  Ge  Ge1  1  0.66666700  0.33333300  0.50000000  1
  Ge  Ge2  1  0.33333300  0.66666700  0.50000000  1
loop_
_geom_bond_atom_site_label_1
_geom_bond_atom_site_label_2
_geom_bond_distance
_geom_bond_site_symmetry_2
Ag0 Ge2 2.736819 1_545
Ag0 Ge1 2.736824 1_555
Ag0 Ge0 2.800908 1_555
Ag0 Ge0 2.800908 1_556
Ag0 Ag1 2.988298 1_445
Ag0 Ag2 2.988298 1_555
Ag0 Yb2 3.216934 1_556
Ag0 Yb2 3.216934 1_555
Ag0 Yb0 3.428784 1_545
Ag0 Yb0 3.428784 1_546
Ag0 Yb1 3.428784 1_556
Ag0 Yb1 3.428784 1_555
Ag1 Ge1 2.736826 1_555
Ag1 Ge2 2.736826 1_555
Ag1 Ge0 2.800908 1_666
Ag1 Ge0 2.800908 1_665
Ag1 Ag2 2.988298 1_665
Ag1 Yb1 3.216934 1_555
Ag1 Yb1 3.216934 1_556
Ag1 Yb0 3.428784 1_656
Ag1 Yb0 3.428784 1_655
Ag1 Yb2 3.428784 1_566
Ag1 Yb2 3.428784 1_565
Ag2 Ge1 2.736819 1_455
Ag2 Ge2 2.736824 1_555
Ag2 Ge0 2.800908 1_555
Ag2 Ge0 2.800908 1_556
Ag2 Yb0 3.216934 1_555
Ag2 Yb0 3.216934 1_556
Ag2 Yb2 3.428784 1_455
Ag2 Yb2 3.428784 1_456
Ag2 Yb1 3.428784 1_556
Ag2 Yb1 3.428784 1_555
Ge0 Yb1 3.020340 1_555
Ge0 Yb2 3.020340 1_455
Ge0 Yb0 3.020340 1_545
Ge1 Yb2 3.054005 1_556
Ge1 Yb2 3.054005 1_555
Ge1 Yb0 3.054006 1_655
Ge1 Yb0 3.054006 1_656
Ge1 Yb1 3.054010 1_556
Ge1 Yb1 3.054010 1_555
Ge2 Yb0 3.054005 1_555
Ge2 Yb0 3.054005 1_556
Ge2 Yb2 3.054006 1_566
Ge2 Yb2 3.054006 1_565
Ge2 Yb1 3.054010 1_556
Ge2 Yb1 3.054010 1_555
