# generated using pymatgen
data_SmAs2Au
_symmetry_space_group_name_H-M   'P 1'
_cell_length_a   4.09064300
_cell_length_b   4.10786400
_cell_length_c   20.60196600
_cell_angle_alpha   90.00000000
_cell_angle_beta   90.00000000
_cell_angle_gamma   90.00000000
_symmetry_Int_Tables_number   1
_chemical_formula_structural   SmAs2Au
_chemical_formula_sum   'Sm4 As8 Au4'
_cell_volume   346.19142168
_cell_formula_units_Z   4
loop_
 _symmetry_equiv_pos_site_id
 _symmetry_equiv_pos_as_xyz
  1  'x, y, z'
loop_
 _atom_site_type_symbol
 _atom_site_label
 _atom_site_symmetry_multiplicity
 _atom_site_fract_x
 _atom_site_fract_y
 _atom_site_fract_z
 _atom_site_occupancy
  Sm  Sm0  1  0.75000000  0.72773700  0.61746000  1
  Sm  Sm1  1  0.25000000  0.22773700  0.88254000  1
  Sm  Sm2  1  0.75000000  0.77226300  0.11746000  1
  Sm  Sm3  1  0.25000000  0.27226300  0.38254000  1
  As  As0  1  0.75000000  0.20457500  0.50157700  1
  As  As1  1  0.25000000  0.22721800  0.65599000  1
  As  As2  1  0.75000000  0.72721800  0.84401000  1
  As  As3  1  0.25000000  0.70457500  0.99842300  1
  As  As4  1  0.75000000  0.29542500  0.00157700  1
  As  As5  1  0.25000000  0.27278200  0.15599000  1
  As  As6  1  0.75000000  0.77278200  0.34401000  1
  As  As7  1  0.25000000  0.79542500  0.49842300  1
  Au  Au0  1  0.75000000  0.22341800  0.74973400  1
  Au  Au1  1  0.25000000  0.72341800  0.75026600  1
  Au  Au2  1  0.75000000  0.27658200  0.24973400  1
  Au  Au3  1  0.25000000  0.77658200  0.25026600  1
loop_
_geom_bond_atom_site_label_1
_geom_bond_atom_site_label_2
_geom_bond_distance
_geom_bond_site_symmetry_2
As0 As7 2.648098 1_645
As0 As7 2.648098 1_545
As0 Sm0 3.088139 1_545
As0 Sm3 3.205449 1_555
As0 Sm3 3.205449 1_655
As0 Sm0 3.212211 1_555
As1 Au0 2.813102 1_455
As1 Au0 2.813102 1_555
As1 Au1 2.815524 1_555
As1 Au1 2.838207 1_545
As1 Sm0 3.003886 1_445
As1 Sm0 3.003886 1_545
As1 Sm0 3.006800 1_555
As1 Sm0 3.006800 1_455
As2 Au1 2.813102 1_555
As2 Au1 2.813102 1_655
As2 Au0 2.815524 1_565
As2 Au0 2.838207 1_555
As2 Sm1 3.003886 1_655
As2 Sm1 3.003886 1_555
As2 Sm1 3.006800 1_565
As2 Sm1 3.006800 1_665
As3 As4 2.648098 1_456
As3 As4 2.648098 1_556
As3 Sm1 3.088139 1_555
As3 Sm2 3.205449 1_556
As3 Sm2 3.205449 1_456
As3 Sm1 3.212211 1_565
As4 Sm2 3.088139 1_555
As4 Sm1 3.205449 1_554
As4 Sm1 3.205449 1_654
As4 Sm2 3.212211 1_545
As5 Au2 2.813102 1_555
As5 Au2 2.813102 1_455
As5 Au3 2.815524 1_545
As5 Au3 2.838207 1_555
As5 Sm2 3.003886 1_455
As5 Sm2 3.003886 1_555
As5 Sm2 3.006800 1_445
As5 Sm2 3.006800 1_545
As6 Au3 2.813102 1_555
As6 Au3 2.813102 1_655
As6 Au2 2.815524 1_555
As6 Au2 2.838207 1_565
As6 Sm3 3.003886 1_565
As6 Sm3 3.003886 1_665
As6 Sm3 3.006800 1_555
As6 Sm3 3.006800 1_655
As7 Sm3 3.088139 1_565
As7 Sm0 3.205449 1_455
As7 Sm0 3.205449 1_555
As7 Sm3 3.212211 1_555
Au0 Au1 2.898637 1_555
Au0 Au1 2.898637 1_545
Au0 Au1 2.898637 1_645
Au0 Au1 2.898637 1_655
Au0 Sm0 3.401803 1_545
Au0 Sm1 3.416095 1_655
Au0 Sm1 3.416095 1_555
Au0 Sm0 3.423160 1_555
Au1 Sm1 3.401803 1_555
Au1 Sm0 3.416095 1_455
Au1 Sm0 3.416095 1_555
Au1 Sm1 3.423160 1_565
Au2 Au3 2.898637 1_655
Au2 Au3 2.898637 1_555
Au2 Au3 2.898637 1_645
Au2 Au3 2.898637 1_545
Au2 Sm2 3.401803 1_555
Au2 Sm3 3.416095 1_555
Au2 Sm3 3.416095 1_655
Au2 Sm2 3.423160 1_545
Au3 Sm3 3.401803 1_565
Au3 Sm2 3.416095 1_555
Au3 Sm2 3.416095 1_455
Au3 Sm3 3.423160 1_555
