# generated using pymatgen
data_ZnCuPt2
_symmetry_space_group_name_H-M   'P 1'
_cell_length_a   4.26765474
_cell_length_b   4.26765475
_cell_length_c   4.26765472
_cell_angle_alpha   60.00100921
_cell_angle_beta   60.00100894
_cell_angle_gamma   60.00100932
_symmetry_Int_Tables_number   1
_chemical_formula_structural   ZnCuPt2
_chemical_formula_sum   'Zn1 Cu1 Pt2'
_cell_volume   54.96203048
_cell_formula_units_Z   1
loop_
 _symmetry_equiv_pos_site_id
 _symmetry_equiv_pos_as_xyz
  1  'x, y, z'
loop_
 _atom_site_type_symbol
 _atom_site_label
 _atom_site_symmetry_multiplicity
 _atom_site_fract_x
 _atom_site_fract_y
 _atom_site_fract_z
 _atom_site_occupancy
  Zn  Zn0  1  0.74999924  0.74999924  0.74999924  1
  Cu  Cu0  1  0.25000083  0.25000083  0.25000083  1
  Pt  Pt0  1  -0.00000024  -0.00000024  -0.00000024  1
  Pt  Pt1  1  0.50000117  0.50000116  0.50000117  1
loop_
_geom_bond_atom_site_label_1
_geom_bond_atom_site_label_2
_geom_bond_distance
_geom_bond_site_symmetry_2
Cu0 Pt1 2.613378 1_555
Cu0 Pt0 2.613385 1_555
Cu0 Pt0 2.613424 1_556
Cu0 Pt0 2.613424 1_655
Cu0 Pt0 2.613424 1_565
Cu0 Pt1 2.613426 1_554
Cu0 Pt1 2.613426 1_455
Cu0 Pt1 2.613426 1_545
Pt0 Zn0 2.613380 1_444
Pt0 Zn0 2.613426 1_445
Pt0 Zn0 2.613426 1_544
Pt0 Zn0 2.613426 1_454
Pt1 Zn0 2.613354 1_555
Pt1 Zn0 2.613434 1_545
Pt1 Zn0 2.613434 1_554
Pt1 Zn0 2.613434 1_455
