# generated using pymatgen
data_NdErTl2
_symmetry_space_group_name_H-M   'P 1'
_cell_length_a   5.39559634
_cell_length_b   5.39559634
_cell_length_c   5.39559634
_cell_angle_alpha   60.00000000
_cell_angle_beta   60.00000000
_cell_angle_gamma   60.00000000
_symmetry_Int_Tables_number   1
_chemical_formula_structural   NdErTl2
_chemical_formula_sum   'Nd1 Er1 Tl2'
_cell_volume   111.07168394
_cell_formula_units_Z   1
loop_
 _symmetry_equiv_pos_site_id
 _symmetry_equiv_pos_as_xyz
  1  'x, y, z'
loop_
 _atom_site_type_symbol
 _atom_site_label
 _atom_site_symmetry_multiplicity
 _atom_site_fract_x
 _atom_site_fract_y
 _atom_site_fract_z
 _atom_site_occupancy
  Nd  Nd0  1  0.74999900  0.74999900  0.74999900  1
  Er  Er0  1  0.25000000  0.25000000  0.25000000  1
  Tl  Tl0  1  0.00000000  0.00000000  0.00000000  1
  Tl  Tl1  1  0.50000000  0.50000000  0.50000000  1
loop_
_geom_bond_atom_site_label_1
_geom_bond_atom_site_label_2
_geom_bond_distance
_geom_bond_site_symmetry_2
Nd0 Tl1 3.304101 1_555
Nd0 Tl0 3.304110 1_656
Nd0 Tl0 3.304110 1_566
Nd0 Tl0 3.304110 1_665
Nd0 Tl1 3.304119 1_565
Nd0 Tl1 3.304119 1_655
Nd0 Tl1 3.304119 1_556
Nd0 Tl0 3.304128 1_666
Er0 Tl0 3.304114 1_555
Er0 Tl0 3.304114 1_565
Er0 Tl1 3.304114 1_455
Er0 Tl1 3.304114 1_555
Er0 Tl1 3.304114 1_545
Er0 Tl1 3.304114 1_554
Er0 Tl0 3.304114 1_655
Er0 Tl0 3.304114 1_556
