# generated using pymatgen
data_Zr6FeTe2
_symmetry_space_group_name_H-M   'P 1'
_cell_length_a   7.81437289
_cell_length_b   7.81437363
_cell_length_c   3.62729083
_cell_angle_alpha   90.00000000
_cell_angle_beta   90.00000000
_cell_angle_gamma   119.99999684
_symmetry_Int_Tables_number   1
_chemical_formula_structural   Zr6FeTe2
_chemical_formula_sum   'Zr6 Fe1 Te2'
_cell_volume   191.82328625
_cell_formula_units_Z   1
loop_
 _symmetry_equiv_pos_site_id
 _symmetry_equiv_pos_as_xyz
  1  'x, y, z'
loop_
 _atom_site_type_symbol
 _atom_site_label
 _atom_site_symmetry_multiplicity
 _atom_site_fract_x
 _atom_site_fract_y
 _atom_site_fract_z
 _atom_site_occupancy
  Zr  Zr0  1  0.75835180  0.75835180  0.50000000  1
  Zr  Zr1  1  0.00000000  0.59622763  -0.00000000  1
  Zr  Zr2  1  0.24164820  0.00000000  0.50000000  1
  Zr  Zr3  1  0.00000000  0.24164820  0.50000000  1
  Zr  Zr4  1  0.59622763  0.00000000  0.00000000  1
  Zr  Zr5  1  0.40377237  0.40377237  0.00000000  1
  Fe  Fe0  1  0.00000000  0.00000000  -0.00000000  1
  Te  Te0  1  0.66666700  0.33333300  0.50000000  1
  Te  Te1  1  0.33333300  0.66666700  0.50000000  1
loop_
_geom_bond_atom_site_label_1
_geom_bond_atom_site_label_2
_geom_bond_distance
_geom_bond_site_symmetry_2
Fe0 Zr2 2.618224 1_554
Fe0 Zr2 2.618224 1_555
Fe0 Zr3 2.618224 1_554
Fe0 Zr3 2.618224 1_555
Fe0 Zr0 2.618224 1_444
Fe0 Zr0 2.618224 1_445
Fe0 Zr4 3.155228 1_455
Fe0 Zr1 3.155228 1_545
Fe0 Zr5 3.155228 1_555
Te0 Zr4 2.990558 1_555
Te0 Zr4 2.990558 1_556
Te0 Zr1 2.990560 1_656
Te0 Zr1 2.990560 1_655
Te0 Zr5 2.990564 1_556
Te0 Zr5 2.990564 1_555
Te0 Zr3 3.027286 1_655
Te0 Zr2 3.027291 1_555
Te0 Zr0 3.027294 1_555
Te1 Zr1 2.990558 1_556
Te1 Zr1 2.990558 1_555
Te1 Zr4 2.990560 1_565
Te1 Zr4 2.990560 1_566
Te1 Zr5 2.990564 1_555
Te1 Zr5 2.990564 1_556
Te1 Zr2 3.027286 1_565
Te1 Zr3 3.027292 1_555
Te1 Zr0 3.027294 1_555
