# generated using pymatgen
data_HoP5
_symmetry_space_group_name_H-M   'P 1'
_cell_length_a   4.94683677
_cell_length_b   5.33561641
_cell_length_c   9.36738091
_cell_angle_alpha   90.00000000
_cell_angle_beta   90.00000000
_cell_angle_gamma   102.30230547
_symmetry_Int_Tables_number   1
_chemical_formula_structural   HoP5
_chemical_formula_sum   'Ho2 P10'
_cell_volume   241.56909479
_cell_formula_units_Z   2
loop_
 _symmetry_equiv_pos_site_id
 _symmetry_equiv_pos_as_xyz
  1  'x, y, z'
loop_
 _atom_site_type_symbol
 _atom_site_label
 _atom_site_symmetry_multiplicity
 _atom_site_fract_x
 _atom_site_fract_y
 _atom_site_fract_z
 _atom_site_occupancy
  Ho  Ho0  1  0.00176275  0.34741168  0.25000000  1
  Ho  Ho1  1  0.99823725  0.65258832  0.75000000  1
  P  P0  1  0.27906412  0.89308289  0.25000000  1
  P  P1  1  0.72093588  0.10691711  0.75000000  1
  P  P2  1  0.61500979  0.95484384  0.40768387  1
  P  P3  1  0.38499021  0.04515616  0.90768387  1
  P  P4  1  0.38499021  0.04515616  0.59231613  1
  P  P5  1  0.61500979  0.95484384  0.09231613  1
  P  P6  1  0.71257466  0.59654873  0.47135747  1
  P  P7  1  0.28742534  0.40345127  0.97135747  1
  P  P8  1  0.28742534  0.40345127  0.52864253  1
  P  P9  1  0.71257466  0.59654873  0.02864253  1
loop_
_geom_bond_atom_site_label_1
_geom_bond_atom_site_label_2
_geom_bond_distance
_geom_bond_site_symmetry_2
Ho0 P2 2.919202 1_445
Ho0 P5 2.919202 1_445
Ho0 P0 2.942206 1_555
Ho0 P7 2.952822 1_554
Ho0 P8 2.952822 1_555
Ho0 P9 2.987222 1_455
Ho0 P6 2.987222 1_455
Ho0 P0 3.029054 1_545
Ho1 P4 2.919202 1_665
Ho1 P3 2.919202 1_665
Ho1 P1 2.942206 1_555
Ho1 P9 2.952822 1_556
Ho1 P6 2.952822 1_555
Ho1 P8 2.987222 1_655
Ho1 P7 2.987222 1_655
Ho1 P1 3.029054 1_565
P0 P5 2.195178 1_555
P0 P2 2.195178 1_555
P1 P4 2.195178 1_555
P1 P3 2.195178 1_555
P2 P6 2.153271 1_555
P2 P4 2.179873 1_565
P3 P7 2.153271 1_555
P3 P5 2.179873 1_546
P4 P8 2.153271 1_555
P5 P9 2.153271 1_555
P6 P8 2.202110 1_555
P7 P9 2.202110 1_556
