# generated using pymatgen
data_H2O
_symmetry_space_group_name_H-M   'P 1'
_cell_length_a   6.53664095
_cell_length_b   6.53664095
_cell_length_c   6.53664095
_cell_angle_alpha   127.15593043
_cell_angle_beta   104.72906450
_cell_angle_gamma   98.15000037
_symmetry_Int_Tables_number   1
_chemical_formula_structural   H2O
_chemical_formula_sum   'H16 O8'
_cell_volume   198.85390627
_cell_formula_units_Z   8
loop_
 _symmetry_equiv_pos_site_id
 _symmetry_equiv_pos_as_xyz
  1  'x, y, z'
loop_
 _atom_site_type_symbol
 _atom_site_label
 _atom_site_symmetry_multiplicity
 _atom_site_fract_x
 _atom_site_fract_y
 _atom_site_fract_z
 _atom_site_occupancy
  H  H0  1  0.60126400  0.85126400  0.75000000  1
  H  H1  1  0.89873600  0.14873600  0.75000000  1
  H  H2  1  0.39873600  0.14873600  0.25000000  1
  H  H3  1  0.10126400  0.85126400  0.25000000  1
  H  H4  1  0.75000000  0.75000200  0.50000200  1
  H  H5  1  0.75000000  0.24999800  0.99999800  1
  H  H6  1  0.25000000  0.24999800  0.49999800  1
  H  H7  1  0.25000000  0.75000200  0.00000200  1
  H  H8  1  0.50000000  0.50000000  0.00000000  1
  H  H9  1  0.00000000  0.50000000  0.50000000  1
  H  H10  1  0.75000000  0.00000000  0.75000000  1
  H  H11  1  0.25000000  0.00000000  0.25000000  1
  H  H12  1  0.50000000  0.50000000  0.50000000  1
  H  H13  1  0.00000000  0.50000000  0.00000000  1
  H  H14  1  0.00000000  0.00000000  0.50000000  1
  H  H15  1  0.50000000  0.00000000  0.00000000  1
  O  O0  1  0.56434100  0.68195900  0.49890200  1
  O  O1  1  0.81694400  0.31804100  0.88238300  1
  O  O2  1  0.93565900  0.93456100  0.61761700  1
  O  O3  1  0.68305600  0.06543900  0.00109800  1
  O  O4  1  0.43565900  0.31804100  0.50109800  1
  O  O5  1  0.18305600  0.68195900  0.11761700  1
  O  O6  1  0.06434100  0.06543900  0.38238300  1
  O  O7  1  0.31694400  0.93456100  0.99890200  1
loop_
_geom_bond_atom_site_label_1
_geom_bond_atom_site_label_2
_geom_bond_distance
_geom_bond_site_symmetry_2
H0 O0 1.227033 1_555
H0 O3 1.227033 1_566
H0 H10 1.273764 1_565
H1 O1 1.227030 1_555
H1 O2 1.227033 1_545
H1 H10 1.273764 1_555
H2 O4 1.227033 1_555
H2 O7 1.227033 1_544
H3 O5 1.227030 1_555
H3 O6 1.227033 1_565
H4 O0 1.228546 1_555
H4 O2 1.228547 1_555
H5 O1 1.228543 1_555
H5 O3 1.228547 1_556
H6 O4 1.228546 1_555
H6 O6 1.228547 1_555
H7 O5 1.228543 1_555
H7 O7 1.228547 1_554
H10 O1 1.624382 1_555
H10 O0 1.624384 1_545
H10 O2 1.624388 1_545
H10 O3 1.624388 1_556
H11 H2 1.273764 1_555
H11 H3 1.273764 1_545
H11 O5 1.624382 1_545
H11 O4 1.624384 1_555
H11 O7 1.624388 1_544
H11 O6 1.624388 1_555
H12 O4 1.208977 1_555
H12 O0 1.208977 1_555
H13 O5 1.208973 1_555
H13 O1 1.208973 1_454
H14 O6 1.208970 1_555
H14 O2 1.208970 1_445
H15 O7 1.208970 1_544
H15 O3 1.208970 1_555
