# generated using pymatgen
data_ZrGeSb
_symmetry_space_group_name_H-M   'P 1'
_cell_length_a   3.82162883
_cell_length_b   3.82162883
_cell_length_c   8.71515093
_cell_angle_alpha   90.00000000
_cell_angle_beta   90.00000000
_cell_angle_gamma   90.00000000
_symmetry_Int_Tables_number   1
_chemical_formula_structural   ZrGeSb
_chemical_formula_sum   'Zr2 Ge2 Sb2'
_cell_volume   127.28344517
_cell_formula_units_Z   2
loop_
 _symmetry_equiv_pos_site_id
 _symmetry_equiv_pos_as_xyz
  1  'x, y, z'
loop_
 _atom_site_type_symbol
 _atom_site_label
 _atom_site_symmetry_multiplicity
 _atom_site_fract_x
 _atom_site_fract_y
 _atom_site_fract_z
 _atom_site_occupancy
  Zr  Zr0  1  0.25000000  0.25000000  0.24941071  1
  Zr  Zr1  1  0.75000000  0.75000000  0.75058929  1
  Ge  Ge0  1  0.25000000  0.75000000  -0.00000000  1
  Ge  Ge1  1  0.75000000  0.25000000  -0.00000000  1
  Sb  Sb0  1  0.25000000  0.25000000  0.61167466  1
  Sb  Sb1  1  0.75000000  0.75000000  0.38832534  1
loop_
_geom_bond_atom_site_label_1
_geom_bond_atom_site_label_2
_geom_bond_distance
_geom_bond_site_symmetry_2
Ge0 Ge1 2.702300 1_465
Ge0 Ge1 2.702300 1_455
Ge0 Ge1 2.702300 1_565
Ge0 Ge1 2.702300 1_555
Ge0 Zr0 2.894128 1_565
Ge0 Zr0 2.894128 1_555
Ge0 Zr1 2.894128 1_454
Ge0 Zr1 2.894128 1_554
Ge1 Zr0 2.894128 1_655
Ge1 Zr0 2.894128 1_555
Ge1 Zr1 2.894128 1_554
Ge1 Zr1 2.894128 1_544
Sb0 Zr1 2.961102 1_555
Sb0 Zr1 2.961102 1_455
Sb0 Zr1 2.961102 1_545
Sb0 Zr1 2.961102 1_445
Sb0 Zr0 3.157185 1_555
Sb1 Zr0 2.961102 1_555
Sb1 Zr0 2.961102 1_665
Sb1 Zr0 2.961102 1_655
Sb1 Zr0 2.961102 1_565
Sb1 Zr1 3.157185 1_555
