# generated using pymatgen
data_U2Si4Mo3
_symmetry_space_group_name_H-M   'P 1'
_cell_length_a   6.93132736
_cell_length_b   6.72562997
_cell_length_c   6.89994075
_cell_angle_alpha   70.58239875
_cell_angle_beta   90.00000000
_cell_angle_gamma   90.00000000
_symmetry_Int_Tables_number   1
_chemical_formula_structural   U2Si4Mo3
_chemical_formula_sum   'U4 Si8 Mo6'
_cell_volume   303.36254571
_cell_formula_units_Z   2
loop_
 _symmetry_equiv_pos_site_id
 _symmetry_equiv_pos_as_xyz
  1  'x, y, z'
loop_
 _atom_site_type_symbol
 _atom_site_label
 _atom_site_symmetry_multiplicity
 _atom_site_fract_x
 _atom_site_fract_y
 _atom_site_fract_z
 _atom_site_occupancy
  U  U0  1  0.66555459  0.44129474  0.18839405  1
  U  U1  1  0.16555459  0.05870526  0.81160595  1
  U  U2  1  0.33444541  0.55870526  0.81160595  1
  U  U3  1  0.83444541  0.94129474  0.18839405  1
  Si  Si0  1  0.86667105  0.13123576  0.50322422  1
  Si  Si1  1  0.36667105  0.36876424  0.49677578  1
  Si  Si2  1  0.13332895  0.86876424  0.49677578  1
  Si  Si3  1  0.63332895  0.63123576  0.50322422  1
  Si  Si4  1  0.54335332  0.87363201  0.90787148  1
  Si  Si5  1  0.04335332  0.62636799  0.09212852  1
  Si  Si6  1  0.95664668  0.37363201  0.90787148  1
  Si  Si7  1  0.45664668  0.12636799  0.09212852  1
  Mo  Mo0  1  0.66488982  0.25374914  0.75730229  1
  Mo  Mo1  1  0.16488982  0.24625086  0.24269771  1
  Mo  Mo2  1  0.50000000  -0.00000000  0.50000000  1
  Mo  Mo3  1  0.00000000  0.50000000  0.50000000  1
  Mo  Mo4  1  0.33511018  0.74625086  0.24269771  1
  Mo  Mo5  1  0.83511018  0.75374914  0.75730229  1
loop_
_geom_bond_atom_site_label_1
_geom_bond_atom_site_label_2
_geom_bond_distance
_geom_bond_site_symmetry_2
Si0 Si2 2.566443 1_645
Si0 U0 2.828218 1_555
Si0 U3 2.871568 1_545
Si0 U1 2.892608 1_655
Si1 Si3 2.566443 1_555
Si1 U1 2.828218 1_555
Si1 U2 2.871568 1_555
Si1 U0 2.892608 1_555
Si2 U2 2.828218 1_555
Si2 U1 2.871568 1_565
Si2 U3 2.892608 1_455
Si3 U3 2.828218 1_555
Si3 U0 2.871568 1_555
Si3 U2 2.892608 1_555
Si4 Si7 2.510738 1_566
Si4 U2 2.821282 1_555
Si4 U1 2.880649 1_565
Si4 U3 2.934314 1_556
Si4 U0 3.029307 1_556
Si5 Si6 2.510738 1_454
Si5 U3 2.821282 1_455
Si5 U0 2.880649 1_455
Si5 U2 2.934314 1_554
Si5 U1 3.029307 1_564
Si6 U1 2.821282 1_655
Si6 U2 2.880649 1_655
Si6 U0 2.934314 1_556
Si6 U3 3.029307 1_546
Si7 U0 2.821282 1_555
Si7 U3 2.880649 1_545
Si7 U1 2.934314 1_554
Si7 U2 3.029307 1_554
Mo0 Si6 2.525067 1_555
Mo0 Si4 2.561024 1_545
Mo0 Si3 2.570521 1_555
Mo0 Si0 2.582436 1_555
Mo0 Si7 2.615102 1_556
Mo0 Si1 2.679167 1_555
Mo1 Si7 2.525067 1_555
Mo1 Si5 2.561024 1_555
Mo1 Si2 2.570521 1_545
Mo1 Si1 2.582436 1_555
Mo1 Si6 2.615102 1_454
Mo1 Si0 2.679167 1_455
Mo2 Si3 2.639907 1_545
Mo2 Si1 2.639907 1_555
Mo2 Si4 2.672545 1_545
Mo2 Si7 2.672545 1_555
Mo2 Si2 2.692939 1_545
Mo2 Si0 2.692939 1_555
Mo3 Si0 2.639907 1_455
Mo3 Si2 2.639907 1_555
Mo3 Si6 2.672545 1_455
Mo3 Si5 2.672545 1_555
Mo3 Si3 2.692939 1_455
Mo3 Si1 2.692939 1_555
Mo4 Si5 2.525067 1_555
Mo4 Si7 2.561024 1_565
Mo4 Si1 2.570521 1_555
Mo4 Si2 2.582436 1_555
Mo4 Si4 2.615102 1_554
Mo4 Si3 2.679167 1_555
Mo5 Si4 2.525067 1_555
Mo5 Si6 2.561024 1_555
Mo5 Si0 2.570521 1_565
Mo5 Si3 2.582436 1_555
Mo5 Si5 2.615102 1_656
Mo5 Si2 2.679167 1_655
