# generated using pymatgen
data_H5PbCI3N2
_symmetry_space_group_name_H-M   'P 1'
_cell_length_a   6.35237200
_cell_length_b   6.48843000
_cell_length_c   6.50298000
_cell_angle_alpha   90.00000000
_cell_angle_beta   90.00000000
_cell_angle_gamma   90.00000000
_symmetry_Int_Tables_number   1
_chemical_formula_structural   H5PbCI3N2
_chemical_formula_sum   'H5 Pb1 C1 I3 N2'
_cell_volume   268.03281329
_cell_formula_units_Z   1
loop_
 _symmetry_equiv_pos_site_id
 _symmetry_equiv_pos_as_xyz
  1  'x, y, z'
loop_
 _atom_site_type_symbol
 _atom_site_label
 _atom_site_symmetry_multiplicity
 _atom_site_fract_x
 _atom_site_fract_y
 _atom_site_fract_z
 _atom_site_occupancy
  H  H0  1  0.26700300  0.50000000  0.70135300  1
  H  H1  1  0.26700300  0.50000000  0.29864700  1
  H  H2  1  0.69240400  0.50000000  0.50000000  1
  H  H3  1  0.51844900  0.50000000  0.19124900  1
  H  H4  1  0.51844900  0.50000000  0.80875100  1
  Pb  Pb0  1  0.96487400  0.00000000  0.00000000  1
  C  C0  1  0.51983100  0.50000000  0.50000000  1
  I  I0  1  0.98377200  0.00000000  0.50000000  1
  I  I1  1  0.46273000  0.00000000  0.00000000  1
  I  I2  1  0.92058300  0.50000000  0.00000000  1
  N  N0  1  0.42670800  0.50000000  0.31982800  1
  N  N1  1  0.42670800  0.50000000  0.68017200  1
loop_
_geom_bond_atom_site_label_1
_geom_bond_atom_site_label_2
_geom_bond_distance
_geom_bond_site_symmetry_2
H0 N1 1.023813 1_555
H1 N0 1.023813 1_555
H3 N0 1.019198 1_555
H4 N1 1.019198 1_555
C0 H2 1.096248 1_555
C0 N0 1.312520 1_555
C0 N1 1.312520 1_555
I0 Pb0 3.253705 1_555
I0 Pb0 3.253705 1_556
I1 Pb0 3.162567 1_455
I1 Pb0 3.189805 1_555
I2 Pb0 3.256392 1_555
I2 Pb0 3.256392 1_565
