# generated using pymatgen
data_NaDy3
_symmetry_space_group_name_H-M   'P 1'
_cell_length_a   7.18738835
_cell_length_b   7.18738835
_cell_length_c   5.77606800
_cell_angle_alpha   90.00000000
_cell_angle_beta   90.00000000
_cell_angle_gamma   120.00000323
_symmetry_Int_Tables_number   1
_chemical_formula_structural   NaDy3
_chemical_formula_sum   'Na2 Dy6'
_cell_volume   258.40751389
_cell_formula_units_Z   2
loop_
 _symmetry_equiv_pos_site_id
 _symmetry_equiv_pos_as_xyz
  1  'x, y, z'
loop_
 _atom_site_type_symbol
 _atom_site_label
 _atom_site_symmetry_multiplicity
 _atom_site_fract_x
 _atom_site_fract_y
 _atom_site_fract_z
 _atom_site_occupancy
  Na  Na0  1  0.33333300  0.66666700  0.75000000  1
  Na  Na1  1  0.66666700  0.33333300  0.25000000  1
  Dy  Dy0  1  0.16442400  0.83557600  0.25000000  1
  Dy  Dy1  1  0.83557600  0.67115200  0.75000000  1
  Dy  Dy2  1  0.32884800  0.16442400  0.75000000  1
  Dy  Dy3  1  0.83557600  0.16442400  0.75000000  1
  Dy  Dy4  1  0.16442400  0.32884800  0.25000000  1
  Dy  Dy5  1  0.67115200  0.83557600  0.25000000  1
loop_
_geom_bond_atom_site_label_1
_geom_bond_atom_site_label_2
_geom_bond_distance
_geom_bond_site_symmetry_2
Dy0 Dy2 3.539851 1_565
Dy0 Dy1 3.539851 1_454
Dy0 Dy2 3.539851 1_564
Dy0 Dy1 3.539851 1_455
Dy0 Dy5 3.545337 1_455
Dy0 Dy4 3.545337 1_565
Dy0 Na0 3.572427 1_554
Dy0 Na0 3.572427 1_555
Dy0 Na1 3.593802 1_455
Dy0 Na1 3.593802 1_565
Dy0 Dy5 3.642051 1_555
Dy0 Dy4 3.642051 1_555
Dy1 Dy5 3.539851 1_555
Dy1 Dy5 3.539851 1_556
Dy1 Dy2 3.545337 1_665
Dy1 Dy3 3.545337 1_565
Dy1 Na1 3.572431 1_556
Dy1 Na1 3.572431 1_555
Dy1 Na0 3.593799 1_655
Dy1 Na0 3.593806 1_555
Dy1 Dy2 3.642051 1_555
Dy1 Dy3 3.642051 1_555
Dy2 Dy4 3.539851 1_556
Dy2 Dy4 3.539851 1_555
Dy2 Dy3 3.545337 1_455
Dy2 Na1 3.572431 1_556
Dy2 Na1 3.572431 1_555
Dy2 Na0 3.593799 1_545
Dy2 Na0 3.593806 1_555
Dy2 Dy3 3.642051 1_555
Dy3 Dy4 3.539851 1_656
Dy3 Dy4 3.539851 1_655
Dy3 Dy5 3.539851 1_546
Dy3 Dy5 3.539851 1_545
Dy3 Na1 3.572427 1_555
Dy3 Na1 3.572427 1_556
Dy3 Na0 3.593802 1_545
Dy3 Na0 3.593802 1_655
Dy4 Dy5 3.545337 1_445
Dy4 Na0 3.572431 1_555
Dy4 Na0 3.572431 1_554
Dy4 Na1 3.593799 1_455
Dy4 Na1 3.593806 1_555
Dy4 Dy5 3.642051 1_555
Dy5 Na0 3.572431 1_555
Dy5 Na0 3.572431 1_554
Dy5 Na1 3.593799 1_565
Dy5 Na1 3.593806 1_555
