# generated using pymatgen
data_CaMoN3
_symmetry_space_group_name_H-M   'P 1'
_cell_length_a   3.53527100
_cell_length_b   4.29575700
_cell_length_c   8.84143300
_cell_angle_alpha   90.00000000
_cell_angle_beta   90.00000000
_cell_angle_gamma   90.00000000
_symmetry_Int_Tables_number   1
_chemical_formula_structural   CaMoN3
_chemical_formula_sum   'Ca2 Mo2 N6'
_cell_volume   134.27188237
_cell_formula_units_Z   2
loop_
 _symmetry_equiv_pos_site_id
 _symmetry_equiv_pos_as_xyz
  1  'x, y, z'
loop_
 _atom_site_type_symbol
 _atom_site_label
 _atom_site_symmetry_multiplicity
 _atom_site_fract_x
 _atom_site_fract_y
 _atom_site_fract_z
 _atom_site_occupancy
  Ca  Ca0  1  0.50000000  0.50000000  0.81560700  1
  Ca  Ca1  1  0.50000000  0.00000000  0.19103800  1
  Mo  Mo0  1  0.00000000  0.00000000  0.61205100  1
  Mo  Mo1  1  0.00000000  0.50000000  0.40453400  1
  N  N0  1  0.00000000  0.00000000  0.39092300  1
  N  N1  1  0.50000000  0.50000000  0.31468100  1
  N  N2  1  0.00000000  0.64312700  0.02431800  1
  N  N3  1  0.00000000  0.50000000  0.62417400  1
  N  N4  1  0.50000000  0.00000000  0.70308700  1
  N  N5  1  0.00000000  0.35687300  0.02431800  1
loop_
_geom_bond_atom_site_label_1
_geom_bond_atom_site_label_2
_geom_bond_distance
_geom_bond_site_symmetry_2
Ca0 N4 2.367084 1_565
Ca0 N4 2.367084 1_555
Ca0 N3 2.447291 1_655
Ca0 N3 2.447291 1_555
Ca0 N2 2.628252 1_656
Ca0 N5 2.628252 1_656
Ca0 N5 2.628252 1_556
Ca0 N2 2.628252 1_556
Ca1 N1 2.410068 1_545
Ca1 N1 2.410068 1_555
Ca1 N0 2.499556 1_655
Ca1 N0 2.499556 1_555
Ca1 N2 2.765421 1_645
Ca1 N5 2.765421 1_555
Ca1 N5 2.765421 1_655
Ca1 N2 2.765421 1_545
Mo0 N4 1.942262 1_555
Mo0 N4 1.942262 1_455
Mo0 N0 1.955088 1_555
Mo0 N3 2.150551 1_555
Mo0 N3 2.150551 1_545
Mo1 N1 1.937951 1_555
Mo1 N1 1.937951 1_455
Mo1 N3 1.941932 1_555
Mo1 N0 2.151247 1_565
Mo1 N0 2.151247 1_555
N2 N5 1.229678 1_555
