# generated using pymatgen
data_Ho3(In2Co)2
_symmetry_space_group_name_H-M   'P 1'
_cell_length_a   16.23336707
_cell_length_b   16.23336707
_cell_length_c   7.06721600
_cell_angle_alpha   90.00000000
_cell_angle_beta   90.00000000
_cell_angle_gamma   119.99999620
_symmetry_Int_Tables_number   1
_chemical_formula_structural   Ho3(In2Co)2
_chemical_formula_sum   'Ho24 In32 Co16'
_cell_volume   1612.85836669
_cell_formula_units_Z   8
loop_
 _symmetry_equiv_pos_site_id
 _symmetry_equiv_pos_as_xyz
  1  'x, y, z'
loop_
 _atom_site_type_symbol
 _atom_site_label
 _atom_site_symmetry_multiplicity
 _atom_site_fract_x
 _atom_site_fract_y
 _atom_site_fract_z
 _atom_site_occupancy
  Ho  Ho0_0  1  0.12929800  0.00182000  0.25000000  1
  Ho  Ho0_1  1  0.12929800  0.00182000  0.75000000  1
  Ho  Ho0_2  1  0.12929800  0.50182000  0.25000000  1
  Ho  Ho0_3  1  0.12929800  0.50182000  0.75000000  1
  Ho  Ho0_4  1  0.62929800  0.00182000  0.25000000  1
  Ho  Ho0_5  1  0.62929800  0.00182000  0.75000000  1
  Ho  Ho0_6  1  0.62929800  0.50182000  0.25000000  1
  Ho  Ho0_7  1  0.62929800  0.50182000  0.75000000  1
  Ho  Ho1_0  1  0.49818000  0.12747800  0.25000000  1
  Ho  Ho1_1  1  0.49818000  0.12747800  0.75000000  1
  Ho  Ho1_2  1  0.49818000  0.62747800  0.25000000  1
  Ho  Ho1_3  1  0.49818000  0.62747800  0.75000000  1
  Ho  Ho1_4  1  0.99818000  0.12747800  0.25000000  1
  Ho  Ho1_5  1  0.99818000  0.12747800  0.75000000  1
  Ho  Ho1_6  1  0.99818000  0.62747800  0.25000000  1
  Ho  Ho1_7  1  0.99818000  0.62747800  0.75000000  1
  Ho  Ho2_0  1  0.37252200  0.37070200  0.25000000  1
  Ho  Ho2_1  1  0.37252200  0.37070200  0.75000000  1
  Ho  Ho2_2  1  0.37252200  0.87070200  0.25000000  1
  Ho  Ho2_3  1  0.37252200  0.87070200  0.75000000  1
  Ho  Ho2_4  1  0.87252200  0.37070200  0.25000000  1
  Ho  Ho2_5  1  0.87252200  0.37070200  0.75000000  1
  Ho  Ho2_6  1  0.87252200  0.87070200  0.25000000  1
  Ho  Ho2_7  1  0.87252200  0.87070200  0.75000000  1
  In  In0_0  1  0.33333350  0.16666650  0.25000000  1
  In  In0_1  1  0.33333350  0.16666650  0.75000000  1
  In  In0_2  1  0.33333350  0.66666650  0.25000000  1
  In  In0_3  1  0.33333350  0.66666650  0.75000000  1
  In  In0_4  1  0.83333350  0.16666650  0.25000000  1
  In  In0_5  1  0.83333350  0.16666650  0.75000000  1
  In  In0_6  1  0.83333350  0.66666650  0.25000000  1
  In  In0_7  1  0.83333350  0.66666650  0.75000000  1
  In  In1_0  1  0.02193650  0.31441850  0.00000000  1
  In  In1_1  1  0.02193650  0.31441850  0.50000000  1
  In  In1_2  1  0.02193650  0.81441850  0.00000000  1
  In  In1_3  1  0.02193650  0.81441850  0.50000000  1
  In  In1_4  1  0.52193650  0.31441850  0.00000000  1
  In  In1_5  1  0.52193650  0.31441850  0.50000000  1
  In  In1_6  1  0.52193650  0.81441850  0.00000000  1
  In  In1_7  1  0.52193650  0.81441850  0.50000000  1
  In  In2_0  1  0.18558150  0.20751800  0.00000000  1
  In  In2_1  1  0.18558150  0.20751800  0.50000000  1
  In  In2_2  1  0.18558150  0.70751800  0.00000000  1
  In  In2_3  1  0.18558150  0.70751800  0.50000000  1
  In  In2_4  1  0.68558150  0.20751800  0.00000000  1
  In  In2_5  1  0.68558150  0.20751800  0.50000000  1
  In  In2_6  1  0.68558150  0.70751800  0.00000000  1
  In  In2_7  1  0.68558150  0.70751800  0.50000000  1
  In  In3_0  1  0.29248200  0.47806350  0.00000000  1
  In  In3_1  1  0.29248200  0.47806350  0.50000000  1
  In  In3_2  1  0.29248200  0.97806350  0.00000000  1
  In  In3_3  1  0.29248200  0.97806350  0.50000000  1
  In  In3_4  1  0.79248200  0.47806350  0.00000000  1
  In  In3_5  1  0.79248200  0.47806350  0.50000000  1
  In  In3_6  1  0.79248200  0.97806350  0.00000000  1
  In  In3_7  1  0.79248200  0.97806350  0.50000000  1
  Co  Co0_0  1  0.00000000  0.00000000  0.00000000  1
  Co  Co0_1  1  0.00000000  0.00000000  0.50000000  1
  Co  Co0_2  1  0.00000000  0.50000000  0.00000000  1
  Co  Co0_3  1  0.00000000  0.50000000  0.50000000  1
  Co  Co0_4  1  0.50000000  0.00000000  0.00000000  1
  Co  Co0_5  1  0.50000000  0.00000000  0.50000000  1
  Co  Co0_6  1  0.50000000  0.50000000  0.00000000  1
  Co  Co0_7  1  0.50000000  0.50000000  0.50000000  1
  Co  Co1_0  1  0.16666650  0.33333350  0.25000000  1
  Co  Co1_1  1  0.16666650  0.33333350  0.75000000  1
  Co  Co1_2  1  0.16666650  0.83333350  0.25000000  1
  Co  Co1_3  1  0.16666650  0.83333350  0.75000000  1
  Co  Co1_4  1  0.66666650  0.33333350  0.25000000  1
  Co  Co1_5  1  0.66666650  0.33333350  0.75000000  1
  Co  Co1_6  1  0.66666650  0.83333350  0.25000000  1
  Co  Co1_7  1  0.66666650  0.83333350  0.75000000  1
loop_
_geom_bond_atom_site_label_1
_geom_bond_atom_site_label_2
_geom_bond_distance
_geom_bond_site_symmetry_2
Ho0_0 In0_0 3.044365 1_555
Ho0_0 In1_2 3.179908 1_545
Ho0_0 In1_3 3.179908 1_545
Ho0_0 In3_3 3.362923 1_545
Ho0_0 In3_2 3.362923 1_545
Ho0_0 In2_0 3.472111 1_555
Ho0_0 In2_1 3.472111 1_555
Ho0_0 Ho0_1 3.533608 1_554
Ho0_0 Ho0_1 3.533608 1_555
Ho0_1 In0_1 3.044365 1_555
Ho0_1 In1_2 3.179908 1_546
Ho0_1 In1_3 3.179908 1_545
Ho0_1 In3_3 3.362923 1_545
Ho0_1 In3_2 3.362923 1_546
Ho0_1 In2_1 3.472111 1_555
Ho0_1 In2_0 3.472111 1_556
Ho0_2 In0_2 3.044365 1_555
Ho0_2 In1_1 3.179908 1_555
Ho0_2 In1_0 3.179908 1_555
Ho0_2 In3_0 3.362923 1_555
Ho0_2 In3_1 3.362923 1_555
Ho0_2 In2_2 3.472111 1_555
Ho0_2 In2_3 3.472111 1_555
Ho0_2 Ho0_3 3.533608 1_555
Ho0_2 Ho0_3 3.533608 1_554
Ho0_3 In0_3 3.044365 1_555
Ho0_3 In1_1 3.179908 1_555
Ho0_3 In1_0 3.179908 1_556
Ho0_3 In3_0 3.362923 1_556
Ho0_3 In3_1 3.362923 1_555
Ho0_3 In2_3 3.472111 1_555
Ho0_3 In2_2 3.472111 1_556
Ho0_4 In0_4 3.044365 1_555
Ho0_4 In1_6 3.179908 1_545
Ho0_4 In1_7 3.179908 1_545
Ho0_4 In3_6 3.362923 1_545
Ho0_4 In3_7 3.362923 1_545
Ho0_4 In2_4 3.472111 1_555
Ho0_4 In2_5 3.472111 1_555
Ho0_4 Ho0_5 3.533608 1_554
Ho0_4 Ho0_5 3.533608 1_555
Ho0_5 In0_5 3.044365 1_555
Ho0_5 In1_6 3.179908 1_546
Ho0_5 In1_7 3.179908 1_545
Ho0_5 In3_6 3.362923 1_546
Ho0_5 In3_7 3.362923 1_545
Ho0_5 In2_4 3.472111 1_556
Ho0_5 In2_5 3.472111 1_555
Ho0_6 In0_6 3.044365 1_555
Ho0_6 In1_5 3.179908 1_555
Ho0_6 In1_4 3.179908 1_555
Ho0_6 In3_4 3.362923 1_555
Ho0_6 In3_5 3.362923 1_555
Ho0_6 In2_6 3.472111 1_555
Ho0_6 In2_7 3.472111 1_555
Ho0_6 Ho0_7 3.533608 1_554
Ho0_6 Ho0_7 3.533608 1_555
Ho0_7 In0_7 3.044365 1_555
Ho0_7 In1_4 3.179908 1_556
Ho0_7 In1_5 3.179908 1_555
Ho0_7 In3_4 3.362923 1_556
Ho0_7 In3_5 3.362923 1_555
Ho0_7 In2_7 3.472111 1_555
Ho0_7 In2_6 3.472111 1_556
Ho1_0 In0_0 3.044360 1_555
Ho1_0 In2_5 3.179908 1_555
Ho1_0 In2_4 3.179908 1_555
Ho1_0 In1_5 3.362923 1_555
Ho1_0 In1_4 3.362923 1_555
Ho1_0 In3_2 3.472111 1_545
Ho1_0 In3_3 3.472111 1_545
Ho1_0 Ho1_1 3.533608 1_555
Ho1_0 Ho1_1 3.533608 1_554
Ho1_1 In0_1 3.044360 1_555
Ho1_1 In2_5 3.179908 1_555
Ho1_1 In2_4 3.179908 1_556
Ho1_1 In1_4 3.362923 1_556
Ho1_1 In1_5 3.362923 1_555
Ho1_1 In3_2 3.472111 1_546
Ho1_1 In3_3 3.472111 1_545
Ho1_2 In0_2 3.044360 1_555
Ho1_2 In2_6 3.179908 1_555
Ho1_2 In2_7 3.179908 1_555
Ho1_2 In1_6 3.362923 1_555
Ho1_2 In1_7 3.362923 1_555
Ho1_2 In3_0 3.472111 1_555
Ho1_2 In3_1 3.472111 1_555
Ho1_2 Ho1_3 3.533608 1_554
Ho1_2 Ho1_3 3.533608 1_555
Ho1_3 In0_3 3.044360 1_555
Ho1_3 In2_7 3.179908 1_555
Ho1_3 In2_6 3.179908 1_556
Ho1_3 In1_6 3.362923 1_556
Ho1_3 In1_7 3.362923 1_555
Ho1_3 In3_0 3.472111 1_556
Ho1_3 In3_1 3.472111 1_555
Ho1_4 In0_4 3.044360 1_555
Ho1_4 In2_0 3.179908 1_655
Ho1_4 In2_1 3.179908 1_655
Ho1_4 In1_0 3.362923 1_655
Ho1_4 In1_1 3.362923 1_655
Ho1_4 In3_6 3.472111 1_545
Ho1_4 In3_7 3.472111 1_545
Ho1_4 Ho1_5 3.533608 1_555
Ho1_4 Ho1_5 3.533608 1_554
Ho1_5 In0_5 3.044360 1_555
Ho1_5 In2_0 3.179908 1_656
Ho1_5 In2_1 3.179908 1_655
Ho1_5 In1_1 3.362923 1_655
Ho1_5 In1_0 3.362923 1_656
Ho1_5 In3_6 3.472111 1_546
Ho1_5 In3_7 3.472111 1_545
Ho1_6 In0_6 3.044360 1_555
Ho1_6 In2_3 3.179908 1_655
Ho1_6 In2_2 3.179908 1_655
Ho1_6 In1_3 3.362923 1_655
Ho1_6 In1_2 3.362923 1_655
Ho1_6 In3_4 3.472111 1_555
Ho1_6 In3_5 3.472111 1_555
Ho1_6 Ho1_7 3.533608 1_554
Ho1_6 Ho1_7 3.533608 1_555
Ho1_7 In0_7 3.044360 1_555
Ho1_7 In2_3 3.179908 1_655
Ho1_7 In2_2 3.179908 1_656
Ho1_7 In1_3 3.362923 1_655
Ho1_7 In1_2 3.362923 1_656
Ho1_7 In3_4 3.472111 1_556
Ho1_7 In3_5 3.472111 1_555
Ho2_0 In0_0 3.044368 1_555
Ho2_0 In3_0 3.179908 1_555
Ho2_0 In3_1 3.179908 1_555
Ho2_0 In2_0 3.362923 1_555
Ho2_0 In2_1 3.362923 1_555
Ho2_0 In1_5 3.472110 1_555
Ho2_0 In1_4 3.472110 1_555
Ho2_0 Ho2_1 3.533608 1_555
Ho2_0 Ho2_1 3.533608 1_554
Ho2_1 In0_1 3.044368 1_555
Ho2_1 In3_0 3.179908 1_556
Ho2_1 In3_1 3.179908 1_555
Ho2_1 In2_0 3.362923 1_556
Ho2_1 In2_1 3.362923 1_555
Ho2_1 In1_4 3.472110 1_556
Ho2_1 In1_5 3.472110 1_555
Ho2_2 In0_2 3.044368 1_555
Ho2_2 In3_2 3.179908 1_555
Ho2_2 In3_3 3.179908 1_555
Ho2_2 In2_2 3.362923 1_555
Ho2_2 In2_3 3.362923 1_555
Ho2_2 In1_6 3.472110 1_555
Ho2_2 In1_7 3.472110 1_555
Ho2_2 Ho2_3 3.533608 1_555
Ho2_2 Ho2_3 3.533608 1_554
Ho2_3 In0_3 3.044368 1_555
Ho2_3 In3_3 3.179908 1_555
Ho2_3 In3_2 3.179908 1_556
Ho2_3 In2_2 3.362923 1_556
Ho2_3 In2_3 3.362923 1_555
Ho2_3 In1_6 3.472110 1_556
Ho2_3 In1_7 3.472110 1_555
Ho2_4 In0_4 3.044368 1_555
Ho2_4 In3_4 3.179908 1_555
Ho2_4 In3_5 3.179908 1_555
Ho2_4 In2_4 3.362923 1_555
Ho2_4 In2_5 3.362923 1_555
Ho2_4 In1_0 3.472110 1_655
Ho2_4 In1_1 3.472110 1_655
Ho2_4 Ho2_5 3.533608 1_554
Ho2_4 Ho2_5 3.533608 1_555
Ho2_5 In0_5 3.044368 1_555
Ho2_5 In3_4 3.179908 1_556
Ho2_5 In3_5 3.179908 1_555
Ho2_5 In2_5 3.362923 1_555
Ho2_5 In2_4 3.362923 1_556
Ho2_5 In1_0 3.472110 1_656
Ho2_5 In1_1 3.472110 1_655
Ho2_6 In0_6 3.044368 1_555
Ho2_6 In3_7 3.179908 1_555
Ho2_6 In3_6 3.179908 1_555
Ho2_6 In2_6 3.362923 1_555
Ho2_6 In2_7 3.362923 1_555
Ho2_6 In1_2 3.472110 1_655
Ho2_6 In1_3 3.472110 1_655
Ho2_6 Ho2_7 3.533608 1_555
Ho2_6 Ho2_7 3.533608 1_554
Ho2_7 In0_7 3.044368 1_555
Ho2_7 In3_7 3.179908 1_555
Ho2_7 In3_6 3.179908 1_556
Ho2_7 In2_7 3.362923 1_555
Ho2_7 In2_6 3.362923 1_556
Ho2_7 In1_3 3.472110 1_655
Ho2_7 In1_2 3.472110 1_656
In0_0 In3_3 3.302239 1_545
In0_0 In3_2 3.302239 1_545
In0_0 In1_4 3.302241 1_555
In0_0 In1_5 3.302241 1_555
In0_0 In2_0 3.302246 1_555
In0_0 In2_1 3.302246 1_555
In0_0 In0_1 3.533608 1_555
In0_0 In0_1 3.533608 1_554
In0_1 In3_3 3.302239 1_545
In0_1 In3_2 3.302239 1_546
In0_1 In1_4 3.302241 1_556
In0_1 In1_5 3.302241 1_555
In0_1 In2_1 3.302246 1_555
In0_1 In2_0 3.302246 1_556
In0_2 In3_1 3.302239 1_555
In0_2 In3_0 3.302239 1_555
In0_2 In1_7 3.302241 1_555
In0_2 In1_6 3.302241 1_555
In0_2 In2_3 3.302246 1_555
In0_2 In2_2 3.302246 1_555
In0_2 In0_3 3.533608 1_554
In0_2 In0_3 3.533608 1_555
In0_3 In3_1 3.302239 1_555
In0_3 In3_0 3.302239 1_556
In0_3 In1_7 3.302241 1_555
In0_3 In1_6 3.302241 1_556
In0_3 In2_3 3.302246 1_555
In0_3 In2_2 3.302246 1_556
In0_4 In3_7 3.302239 1_545
In0_4 In3_6 3.302239 1_545
In0_4 In1_0 3.302241 1_655
In0_4 In1_1 3.302241 1_655
In0_4 In2_4 3.302246 1_555
In0_4 In2_5 3.302246 1_555
In0_4 In0_5 3.533608 1_554
In0_4 In0_5 3.533608 1_555
In0_5 In3_7 3.302239 1_545
In0_5 In3_6 3.302239 1_546
In0_5 In1_0 3.302241 1_656
In0_5 In1_1 3.302241 1_655
In0_5 In2_4 3.302246 1_556
In0_5 In2_5 3.302246 1_555
In0_6 In3_5 3.302239 1_555
In0_6 In3_4 3.302239 1_555
In0_6 In1_2 3.302241 1_655
In0_6 In1_3 3.302241 1_655
In0_6 In2_7 3.302246 1_555
In0_6 In2_6 3.302246 1_555
In0_6 In0_7 3.533608 1_555
In0_6 In0_7 3.533608 1_554
In0_7 In3_4 3.302239 1_556
In0_7 In3_5 3.302239 1_555
In0_7 In1_3 3.302241 1_655
In0_7 In1_2 3.302241 1_656
In0_7 In2_7 3.302246 1_555
In0_7 In2_6 3.302246 1_556
Co0_0 Ho1_5 2.732401 1_454
Co0_0 Ho1_4 2.732401 1_455
Co0_0 Ho0_0 2.732401 1_555
Co0_0 Ho0_1 2.732401 1_554
Co0_0 Ho2_7 2.732401 1_444
Co0_0 Ho2_6 2.732401 1_445
Co0_0 In1_2 3.205534 1_545
Co0_0 In3_6 3.205534 1_445
Co0_0 In2_0 3.205534 1_555
Co0_1 Ho1_4 2.732401 1_455
Co0_1 Ho1_5 2.732401 1_455
Co0_1 Ho0_0 2.732401 1_555
Co0_1 Ho0_1 2.732401 1_555
Co0_1 Ho2_7 2.732401 1_445
Co0_1 Ho2_6 2.732401 1_445
Co0_1 In1_3 3.205534 1_545
Co0_1 In3_7 3.205534 1_445
Co0_1 In2_1 3.205534 1_555
Co0_2 Ho1_6 2.732401 1_455
Co0_2 Ho1_7 2.732401 1_454
Co0_2 Ho0_2 2.732401 1_555
Co0_2 Ho0_3 2.732401 1_554
Co0_2 Ho2_4 2.732401 1_455
Co0_2 Ho2_5 2.732401 1_454
Co0_2 In1_0 3.205534 1_555
Co0_2 In3_4 3.205534 1_455
Co0_2 In2_2 3.205534 1_555
Co0_3 Ho1_7 2.732401 1_455
Co0_3 Ho1_6 2.732401 1_455
Co0_3 Ho0_3 2.732401 1_555
Co0_3 Ho0_2 2.732401 1_555
Co0_3 Ho2_4 2.732401 1_455
Co0_3 Ho2_5 2.732401 1_455
Co0_3 In1_1 3.205534 1_555
Co0_3 In3_5 3.205534 1_455
Co0_3 In2_3 3.205534 1_555
Co0_4 Ho1_1 2.732401 1_554
Co0_4 Ho1_0 2.732401 1_555
Co0_4 Ho0_4 2.732401 1_555
Co0_4 Ho0_5 2.732401 1_554
Co0_4 Ho2_3 2.732401 1_544
Co0_4 Ho2_2 2.732401 1_545
Co0_4 In1_6 3.205534 1_545
Co0_4 In3_2 3.205534 1_545
Co0_4 In2_4 3.205534 1_555
Co0_5 Ho1_1 2.732401 1_555
Co0_5 Ho1_0 2.732401 1_555
Co0_5 Ho0_4 2.732401 1_555
Co0_5 Ho0_5 2.732401 1_555
Co0_5 Ho2_3 2.732401 1_545
Co0_5 Ho2_2 2.732401 1_545
Co0_5 In1_7 3.205534 1_545
Co0_5 In3_3 3.205534 1_545
Co0_5 In2_5 3.205534 1_555
Co0_6 Ho1_2 2.732401 1_555
Co0_6 Ho1_3 2.732401 1_554
Co0_6 Ho0_7 2.732401 1_554
Co0_6 Ho0_6 2.732401 1_555
Co0_6 Ho2_0 2.732401 1_555
Co0_6 Ho2_1 2.732401 1_554
Co0_6 In1_4 3.205534 1_555
Co0_6 In3_0 3.205534 1_555
Co0_6 In2_6 3.205534 1_555
Co0_7 Ho1_2 2.732401 1_555
Co0_7 Ho1_3 2.732401 1_555
Co0_7 Ho0_7 2.732401 1_555
Co0_7 Ho0_6 2.732401 1_555
Co0_7 Ho2_1 2.732401 1_555
Co0_7 Ho2_0 2.732401 1_555
Co0_7 In1_5 3.205534 1_555
Co0_7 In3_1 3.205534 1_555
Co0_7 In2_7 3.205534 1_555
Co1_0 In1_1 2.830973 1_555
Co1_0 In1_0 2.830973 1_555
Co1_0 In3_0 2.830976 1_555
Co1_0 In3_1 2.830976 1_555
Co1_0 In2_1 2.830979 1_555
Co1_0 In2_0 2.830979 1_555
Co1_0 Ho0_2 3.083493 1_555
Co1_0 Ho1_4 3.083499 1_455
Co1_0 Ho2_0 3.083502 1_555
Co1_1 In1_1 2.830973 1_555
Co1_1 In1_0 2.830973 1_556
Co1_1 In3_0 2.830976 1_556
Co1_1 In3_1 2.830976 1_555
Co1_1 In2_1 2.830979 1_555
Co1_1 In2_0 2.830979 1_556
Co1_1 Ho0_3 3.083493 1_555
Co1_1 Ho1_5 3.083499 1_455
Co1_1 Ho2_1 3.083502 1_555
Co1_2 In1_3 2.830973 1_555
Co1_2 In1_2 2.830973 1_555
Co1_2 In3_3 2.830976 1_555
Co1_2 In3_2 2.830976 1_555
Co1_2 In2_2 2.830979 1_555
Co1_2 In2_3 2.830979 1_555
Co1_2 Ho0_0 3.083493 1_565
Co1_2 Ho1_6 3.083499 1_455
Co1_2 Ho2_2 3.083502 1_555
Co1_3 In1_3 2.830973 1_555
Co1_3 In1_2 2.830973 1_556
Co1_3 In3_3 2.830976 1_555
Co1_3 In3_2 2.830976 1_556
Co1_3 In2_3 2.830979 1_555
Co1_3 In2_2 2.830979 1_556
Co1_3 Ho0_1 3.083493 1_565
Co1_3 Ho1_7 3.083499 1_455
Co1_3 Ho2_3 3.083502 1_555
Co1_4 In1_5 2.830973 1_555
Co1_4 In1_4 2.830973 1_555
Co1_4 In3_4 2.830976 1_555
Co1_4 In3_5 2.830976 1_555
Co1_4 In2_4 2.830979 1_555
Co1_4 In2_5 2.830979 1_555
Co1_4 Ho0_6 3.083493 1_555
Co1_4 Ho1_0 3.083499 1_555
Co1_4 Ho2_4 3.083502 1_555
Co1_5 In1_5 2.830973 1_555
Co1_5 In1_4 2.830973 1_556
Co1_5 In3_4 2.830976 1_556
Co1_5 In3_5 2.830976 1_555
Co1_5 In2_4 2.830979 1_556
Co1_5 In2_5 2.830979 1_555
Co1_5 Ho0_7 3.083493 1_555
Co1_5 Ho1_1 3.083499 1_555
Co1_5 Ho2_5 3.083502 1_555
Co1_6 In1_6 2.830973 1_555
Co1_6 In1_7 2.830973 1_555
Co1_6 In3_7 2.830976 1_555
Co1_6 In3_6 2.830976 1_555
Co1_6 In2_6 2.830979 1_555
Co1_6 In2_7 2.830979 1_555
Co1_6 Ho0_4 3.083493 1_565
Co1_6 Ho1_2 3.083499 1_555
Co1_6 Ho2_6 3.083502 1_555
Co1_7 In1_6 2.830973 1_556
Co1_7 In1_7 2.830973 1_555
Co1_7 In3_6 2.830976 1_556
Co1_7 In3_7 2.830976 1_555
Co1_7 In2_7 2.830979 1_555
Co1_7 In2_6 2.830979 1_556
Co1_7 Ho0_5 3.083493 1_565
Co1_7 Ho1_3 3.083499 1_555
Co1_7 Ho2_7 3.083502 1_555
