# generated using pymatgen
data_Li2La2Ti3O10
_symmetry_space_group_name_H-M   'P 1'
_cell_length_a   13.65683590
_cell_length_b   13.65683590
_cell_length_c   13.65683590
_cell_angle_alpha   163.67981075
_cell_angle_beta   163.67981075
_cell_angle_gamma   23.15963146
_symmetry_Int_Tables_number   1
_chemical_formula_structural   Li2La2Ti3O10
_chemical_formula_sum   'Li2 La2 Ti3 O10'
_cell_volume   201.08803448
_cell_formula_units_Z   1
loop_
 _symmetry_equiv_pos_site_id
 _symmetry_equiv_pos_as_xyz
  1  'x, y, z'
loop_
 _atom_site_type_symbol
 _atom_site_label
 _atom_site_symmetry_multiplicity
 _atom_site_fract_x
 _atom_site_fract_y
 _atom_site_fract_z
 _atom_site_occupancy
  Li  Li0  1  0.25000000  0.75000000  0.50000000  1
  Li  Li1  1  0.75000000  0.25000000  0.50000000  1
  La  La0  1  0.41883700  0.41883700  0.00000000  1
  La  La1  1  0.58116300  0.58116300  0.00000000  1
  Ti  Ti0  1  0.15771700  0.15771700  0.00000000  1
  Ti  Ti1  1  0.84228300  0.84228300  0.00000000  1
  Ti  Ti2  1  0.00000000  0.00000000  0.00000000  1
  O  O0  1  0.35747600  0.85747600  0.50000000  1
  O  O1  1  0.77545400  0.77545400  0.00000000  1
  O  O2  1  0.22454600  0.22454600  0.00000000  1
  O  O3  1  0.50000000  0.00000000  0.50000000  1
  O  O4  1  0.85747600  0.35747600  0.50000000  1
  O  O5  1  0.00000000  0.50000000  0.50000000  1
  O  O6  1  0.92736700  0.92736700  0.00000000  1
  O  O7  1  0.07263300  0.07263300  0.00000000  1
  O  O8  1  0.14252400  0.64252400  0.50000000  1
  O  O9  1  0.64252400  0.14252400  0.50000000  1
loop_
_geom_bond_atom_site_label_1
_geom_bond_atom_site_label_2
_geom_bond_distance
_geom_bond_site_symmetry_2
Li0 O1 2.054618 1_455
Li0 O1 2.054618 1_556
Li0 O2 2.054618 1_555
Li0 O2 2.054618 1_566
Li1 O1 2.054618 1_545
Li1 O2 2.054618 1_555
Li1 O1 2.054618 1_556
Li1 O2 2.054618 1_656
La0 O0 2.540343 1_544
La0 O4 2.540343 1_454
La0 O4 2.540343 1_555
La0 O0 2.540343 1_555
La0 O6 2.750860 1_444
La0 O6 2.750860 1_545
La0 O6 2.750860 1_455
La0 O6 2.750860 1_556
La0 O5 2.911016 1_554
La0 O3 2.911016 1_565
La0 O3 2.911016 1_554
La0 O5 2.911016 1_655
La1 O9 2.540343 1_565
La1 O8 2.540343 1_655
La1 O8 2.540343 1_554
La1 O9 2.540343 1_554
La1 O7 2.750860 1_565
La1 O7 2.750860 1_655
La1 O7 2.750860 1_554
La1 O7 2.750860 1_666
La1 O5 2.911016 1_655
La1 O3 2.911016 1_565
La1 O5 2.911016 1_554
La1 O3 2.911016 1_554
O0 Ti1 1.980615 1_455
O0 Ti1 1.980615 1_556
O1 Ti1 1.788192 1_555
O2 Ti0 1.788192 1_555
O3 Ti2 1.938445 1_656
O3 Ti2 1.938445 1_555
O4 Ti1 1.980615 1_545
O4 Ti1 1.980615 1_556
O5 Ti2 1.938445 1_555
O5 Ti2 1.938445 1_566
O6 Ti2 1.943494 1_665
O6 Ti1 2.276655 1_555
O7 Ti2 1.943494 1_555
O7 Ti0 2.276655 1_555
O8 Ti0 1.980615 1_566
O8 Ti0 1.980615 1_555
O9 Ti0 1.980615 1_656
O9 Ti0 1.980615 1_555
