# generated using pymatgen
data_CsInI3
_symmetry_space_group_name_H-M   'P 1'
_cell_length_a   6.09660249
_cell_length_b   6.13069460
_cell_length_c   6.12351000
_cell_angle_alpha   89.98627588
_cell_angle_beta   90.00000000
_cell_angle_gamma   90.00000000
_symmetry_Int_Tables_number   1
_chemical_formula_structural   CsInI3
_chemical_formula_sum   'Cs1 In1 I3'
_cell_volume   228.87480142
_cell_formula_units_Z   1
loop_
 _symmetry_equiv_pos_site_id
 _symmetry_equiv_pos_as_xyz
  1  'x, y, z'
loop_
 _atom_site_type_symbol
 _atom_site_label
 _atom_site_symmetry_multiplicity
 _atom_site_fract_x
 _atom_site_fract_y
 _atom_site_fract_z
 _atom_site_occupancy
  Cs  Cs0  1  0.50000000  0.99327816  0.00050986  1
  In  In0  1  0.00000000  0.48510191  0.49588639  1
  I  I0  1  0.50000000  0.48709304  0.49463009  1
  I  I1  1  0.00000000  0.98703131  0.50274375  1
  I  I2  1  0.00000000  0.48749358  0.99623191  1
loop_
_geom_bond_atom_site_label_1
_geom_bond_atom_site_label_2
_geom_bond_distance
_geom_bond_site_symmetry_2
Cs0 I0 4.280756 1_565
Cs0 I2 4.298021 1_664
Cs0 I2 4.298021 1_564
Cs0 I1 4.310966 1_554
Cs0 I1 4.310966 1_654
Cs0 I1 4.330340 1_655
Cs0 I1 4.330340 1_555
Cs0 I0 4.330929 1_564
Cs0 I0 4.333697 1_555
Cs0 I2 4.348321 1_554
Cs0 I2 4.348321 1_654
Cs0 I0 4.385315 1_554
I0 In0 3.048335 1_555
I0 In0 3.048335 1_655
I1 In0 3.053797 1_565
I1 In0 3.077472 1_555
I2 In0 3.059671 1_556
I2 In0 3.063909 1_555
