# generated using pymatgen
data_LaNdHg2
_symmetry_space_group_name_H-M   'P 1'
_cell_length_a   5.45079184
_cell_length_b   5.45079184
_cell_length_c   5.45079184
_cell_angle_alpha   60.00000000
_cell_angle_beta   60.00000000
_cell_angle_gamma   60.00000000
_symmetry_Int_Tables_number   1
_chemical_formula_structural   LaNdHg2
_chemical_formula_sum   'La1 Nd1 Hg2'
_cell_volume   114.51537312
_cell_formula_units_Z   1
loop_
 _symmetry_equiv_pos_site_id
 _symmetry_equiv_pos_as_xyz
  1  'x, y, z'
loop_
 _atom_site_type_symbol
 _atom_site_label
 _atom_site_symmetry_multiplicity
 _atom_site_fract_x
 _atom_site_fract_y
 _atom_site_fract_z
 _atom_site_occupancy
  La  La0  1  0.25000000  0.25000000  0.25000000  1
  Nd  Nd0  1  0.74999900  0.74999900  0.74999900  1
  Hg  Hg0  1  0.00000000  0.00000000  -0.00000000  1
  Hg  Hg1  1  0.49999900  0.49999900  0.49999900  1
loop_
_geom_bond_atom_site_label_1
_geom_bond_atom_site_label_2
_geom_bond_distance
_geom_bond_site_symmetry_2
Hg0 Nd0 3.337910 1_454
Hg0 Nd0 3.337910 1_544
Hg0 Nd0 3.337910 1_445
Hg0 La0 3.337915 1_455
Hg0 La0 3.337915 1_545
Hg0 La0 3.337915 1_554
Hg0 La0 3.337915 1_555
Hg0 Nd0 3.337928 1_444
Hg1 La0 3.337901 1_555
Hg1 Nd0 3.337915 1_545
Hg1 Nd0 3.337915 1_455
Hg1 Nd0 3.337915 1_554
Hg1 Nd0 3.337915 1_555
Hg1 La0 3.337919 1_556
Hg1 La0 3.337919 1_565
Hg1 La0 3.337919 1_655
