# generated using pymatgen
data_MgTa
_symmetry_space_group_name_H-M   'P 1'
_cell_length_a   5.72490800
_cell_length_b   9.74765200
_cell_length_c   11.07061200
_cell_angle_alpha   90.00000000
_cell_angle_beta   90.00000000
_cell_angle_gamma   90.00000000
_symmetry_Int_Tables_number   1
_chemical_formula_structural   MgTa
_chemical_formula_sum   'Mg16 Ta16'
_cell_volume   617.78898114
_cell_formula_units_Z   16
loop_
 _symmetry_equiv_pos_site_id
 _symmetry_equiv_pos_as_xyz
  1  'x, y, z'
loop_
 _atom_site_type_symbol
 _atom_site_label
 _atom_site_symmetry_multiplicity
 _atom_site_fract_x
 _atom_site_fract_y
 _atom_site_fract_z
 _atom_site_occupancy
  Mg  Mg0_0  1  0.00000000  0.37500000  0.07124950  1
  Mg  Mg0_1  1  0.00000000  0.37500000  0.57124950  1
  Mg  Mg0_2  1  0.00000000  0.87500000  0.07124950  1
  Mg  Mg0_3  1  0.00000000  0.87500000  0.57124950  1
  Mg  Mg0_4  1  0.50000000  0.37500000  0.07124950  1
  Mg  Mg0_5  1  0.50000000  0.37500000  0.57124950  1
  Mg  Mg0_6  1  0.50000000  0.87500000  0.07124950  1
  Mg  Mg0_7  1  0.50000000  0.87500000  0.57124950  1
  Mg  Mg1_0  1  0.00000000  0.12500000  0.42875050  1
  Mg  Mg1_1  1  0.00000000  0.12500000  0.92875050  1
  Mg  Mg1_2  1  0.00000000  0.62500000  0.42875050  1
  Mg  Mg1_3  1  0.00000000  0.62500000  0.92875050  1
  Mg  Mg1_4  1  0.50000000  0.12500000  0.42875050  1
  Mg  Mg1_5  1  0.50000000  0.12500000  0.92875050  1
  Mg  Mg1_6  1  0.50000000  0.62500000  0.42875050  1
  Mg  Mg1_7  1  0.50000000  0.62500000  0.92875050  1
  Ta  Ta0_0  1  0.25000000  0.12500000  0.18967900  1
  Ta  Ta0_1  1  0.25000000  0.12500000  0.68967900  1
  Ta  Ta0_2  1  0.25000000  0.62500000  0.18967900  1
  Ta  Ta0_3  1  0.25000000  0.62500000  0.68967900  1
  Ta  Ta0_4  1  0.75000000  0.12500000  0.18967900  1
  Ta  Ta0_5  1  0.75000000  0.12500000  0.68967900  1
  Ta  Ta0_6  1  0.75000000  0.62500000  0.18967900  1
  Ta  Ta0_7  1  0.75000000  0.62500000  0.68967900  1
  Ta  Ta1_0  1  0.25000000  0.37500000  0.31032100  1
  Ta  Ta1_1  1  0.25000000  0.37500000  0.81032100  1
  Ta  Ta1_2  1  0.25000000  0.87500000  0.31032100  1
  Ta  Ta1_3  1  0.25000000  0.87500000  0.81032100  1
  Ta  Ta1_4  1  0.75000000  0.37500000  0.31032100  1
  Ta  Ta1_5  1  0.75000000  0.37500000  0.81032100  1
  Ta  Ta1_6  1  0.75000000  0.87500000  0.31032100  1
  Ta  Ta1_7  1  0.75000000  0.87500000  0.81032100  1
loop_
_geom_bond_atom_site_label_1
_geom_bond_atom_site_label_2
_geom_bond_distance
_geom_bond_site_symmetry_2
Mg0_0 Mg0_4 2.862454 1_555
Mg0_0 Mg0_4 2.862454 1_455
Mg0_0 Mg1_1 2.902966 1_554
Mg0_0 Mg1_3 2.902966 1_554
Mg0_0 Ta1_0 3.008864 1_555
Mg0_0 Ta1_4 3.008864 1_455
Mg0_0 Ta0_0 3.115430 1_555
Mg0_0 Ta0_4 3.115430 1_455
Mg0_0 Ta0_6 3.115430 1_455
Mg0_0 Ta0_2 3.115430 1_555
Mg0_0 Ta1_1 3.223762 1_554
Mg0_0 Ta1_5 3.223762 1_454
Mg0_1 Mg0_5 2.862454 1_455
Mg0_1 Mg0_5 2.862454 1_555
Mg0_1 Mg1_0 2.902966 1_555
Mg0_1 Mg1_2 2.902966 1_555
Mg0_1 Ta1_1 3.008864 1_555
Mg0_1 Ta1_5 3.008864 1_455
Mg0_1 Ta0_1 3.115430 1_555
Mg0_1 Ta0_5 3.115430 1_455
Mg0_1 Ta0_7 3.115430 1_455
Mg0_1 Ta0_3 3.115430 1_555
Mg0_1 Ta1_0 3.223762 1_555
Mg0_1 Ta1_4 3.223762 1_455
Mg0_2 Mg0_6 2.862454 1_455
Mg0_2 Mg0_6 2.862454 1_555
Mg0_2 Mg1_3 2.902966 1_554
Mg0_2 Mg1_1 2.902966 1_564
Mg0_2 Ta1_6 3.008864 1_455
Mg0_2 Ta1_2 3.008864 1_555
Mg0_2 Ta0_6 3.115430 1_455
Mg0_2 Ta0_2 3.115430 1_555
Mg0_2 Ta0_4 3.115430 1_465
Mg0_2 Ta0_0 3.115430 1_565
Mg0_2 Ta1_7 3.223762 1_454
Mg0_2 Ta1_3 3.223762 1_554
Mg0_3 Mg0_7 2.862454 1_455
Mg0_3 Mg0_7 2.862454 1_555
Mg0_3 Mg1_2 2.902966 1_555
Mg0_3 Mg1_0 2.902966 1_565
Mg0_3 Ta1_3 3.008864 1_555
Mg0_3 Ta1_7 3.008864 1_455
Mg0_3 Ta0_3 3.115430 1_555
Mg0_3 Ta0_7 3.115430 1_455
Mg0_3 Ta0_1 3.115430 1_565
Mg0_3 Ta0_5 3.115430 1_465
Mg0_3 Ta1_2 3.223762 1_555
Mg0_3 Ta1_6 3.223762 1_455
Mg0_4 Mg1_5 2.902966 1_554
Mg0_4 Mg1_7 2.902966 1_554
Mg0_4 Ta1_4 3.008864 1_555
Mg0_4 Ta1_0 3.008864 1_555
Mg0_4 Ta0_0 3.115430 1_555
Mg0_4 Ta0_4 3.115430 1_555
Mg0_4 Ta0_6 3.115430 1_555
Mg0_4 Ta0_2 3.115430 1_555
Mg0_4 Ta1_5 3.223762 1_554
Mg0_4 Ta1_1 3.223762 1_554
Mg0_5 Mg1_4 2.902966 1_555
Mg0_5 Mg1_6 2.902966 1_555
Mg0_5 Ta1_1 3.008864 1_555
Mg0_5 Ta1_5 3.008864 1_555
Mg0_5 Ta0_5 3.115430 1_555
Mg0_5 Ta0_1 3.115430 1_555
Mg0_5 Ta0_3 3.115430 1_555
Mg0_5 Ta0_7 3.115430 1_555
Mg0_5 Ta1_0 3.223762 1_555
Mg0_5 Ta1_4 3.223762 1_555
Mg0_6 Mg1_7 2.902966 1_554
Mg0_6 Mg1_5 2.902966 1_564
Mg0_6 Ta1_6 3.008864 1_555
Mg0_6 Ta1_2 3.008864 1_555
Mg0_6 Ta0_6 3.115430 1_555
Mg0_6 Ta0_2 3.115430 1_555
Mg0_6 Ta0_0 3.115430 1_565
Mg0_6 Ta0_4 3.115430 1_565
Mg0_6 Ta1_3 3.223762 1_554
Mg0_6 Ta1_7 3.223762 1_554
Mg0_7 Mg1_6 2.902966 1_555
Mg0_7 Mg1_4 2.902966 1_565
Mg0_7 Ta1_3 3.008864 1_555
Mg0_7 Ta1_7 3.008864 1_555
Mg0_7 Ta0_3 3.115430 1_555
Mg0_7 Ta0_7 3.115430 1_555
Mg0_7 Ta0_1 3.115430 1_565
Mg0_7 Ta0_5 3.115430 1_565
Mg0_7 Ta1_2 3.223762 1_555
Mg0_7 Ta1_6 3.223762 1_555
Mg1_0 Mg1_4 2.862454 1_455
Mg1_0 Mg1_4 2.862454 1_555
Mg1_0 Ta0_4 3.008864 1_455
Mg1_0 Ta0_0 3.008864 1_555
Mg1_0 Ta1_4 3.115430 1_455
Mg1_0 Ta1_0 3.115430 1_555
Mg1_0 Ta1_6 3.115430 1_445
Mg1_0 Ta1_2 3.115430 1_545
Mg1_0 Ta0_1 3.223762 1_555
Mg1_0 Ta0_5 3.223762 1_455
Mg1_1 Mg1_5 2.862454 1_455
Mg1_1 Mg1_5 2.862454 1_555
Mg1_1 Ta0_1 3.008864 1_555
Mg1_1 Ta0_5 3.008864 1_455
Mg1_1 Ta1_1 3.115430 1_555
Mg1_1 Ta1_5 3.115430 1_455
Mg1_1 Ta1_3 3.115430 1_545
Mg1_1 Ta1_7 3.115430 1_445
Mg1_1 Ta0_4 3.223762 1_456
Mg1_1 Ta0_0 3.223762 1_556
Mg1_2 Mg1_6 2.862454 1_455
Mg1_2 Mg1_6 2.862454 1_555
Mg1_2 Ta0_6 3.008864 1_455
Mg1_2 Ta0_2 3.008864 1_555
Mg1_2 Ta1_2 3.115430 1_555
Mg1_2 Ta1_6 3.115430 1_455
Mg1_2 Ta1_4 3.115430 1_455
Mg1_2 Ta1_0 3.115430 1_555
Mg1_2 Ta0_3 3.223762 1_555
Mg1_2 Ta0_7 3.223762 1_455
Mg1_3 Mg1_7 2.862454 1_455
Mg1_3 Mg1_7 2.862454 1_555
Mg1_3 Ta0_7 3.008864 1_455
Mg1_3 Ta0_3 3.008864 1_555
Mg1_3 Ta1_7 3.115430 1_455
Mg1_3 Ta1_3 3.115430 1_555
Mg1_3 Ta1_1 3.115430 1_555
Mg1_3 Ta1_5 3.115430 1_455
Mg1_3 Ta0_6 3.223762 1_456
Mg1_3 Ta0_2 3.223762 1_556
Mg1_4 Ta0_0 3.008864 1_555
Mg1_4 Ta0_4 3.008864 1_555
Mg1_4 Ta1_4 3.115430 1_555
Mg1_4 Ta1_0 3.115430 1_555
Mg1_4 Ta1_6 3.115430 1_545
Mg1_4 Ta1_2 3.115430 1_545
Mg1_4 Ta0_1 3.223762 1_555
Mg1_4 Ta0_5 3.223762 1_555
Mg1_5 Ta0_5 3.008864 1_555
Mg1_5 Ta0_1 3.008864 1_555
Mg1_5 Ta1_1 3.115430 1_555
Mg1_5 Ta1_5 3.115430 1_555
Mg1_5 Ta1_3 3.115430 1_545
Mg1_5 Ta1_7 3.115430 1_545
Mg1_5 Ta0_4 3.223762 1_556
Mg1_5 Ta0_0 3.223762 1_556
Mg1_6 Ta0_6 3.008864 1_555
Mg1_6 Ta0_2 3.008864 1_555
Mg1_6 Ta1_2 3.115430 1_555
Mg1_6 Ta1_6 3.115430 1_555
Mg1_6 Ta1_4 3.115430 1_555
Mg1_6 Ta1_0 3.115430 1_555
Mg1_6 Ta0_3 3.223762 1_555
Mg1_6 Ta0_7 3.223762 1_555
Mg1_7 Ta0_3 3.008864 1_555
Mg1_7 Ta0_7 3.008864 1_555
Mg1_7 Ta1_7 3.115430 1_555
Mg1_7 Ta1_3 3.115430 1_555
Mg1_7 Ta1_1 3.115430 1_555
Mg1_7 Ta1_5 3.115430 1_555
Mg1_7 Ta0_6 3.223762 1_556
Mg1_7 Ta0_2 3.223762 1_556
Ta0_0 Ta1_0 2.778906 1_555
Ta0_0 Ta1_2 2.778906 1_545
Ta0_0 Ta0_4 2.862454 1_455
Ta0_0 Ta0_4 2.862454 1_555
Ta0_1 Ta1_1 2.778906 1_555
Ta0_1 Ta1_3 2.778906 1_545
Ta0_1 Ta0_5 2.862454 1_455
Ta0_1 Ta0_5 2.862454 1_555
Ta0_2 Ta1_2 2.778906 1_555
Ta0_2 Ta1_0 2.778906 1_555
Ta0_2 Ta0_6 2.862454 1_555
Ta0_2 Ta0_6 2.862454 1_455
Ta0_3 Ta1_3 2.778906 1_555
Ta0_3 Ta1_1 2.778906 1_555
Ta0_3 Ta0_7 2.862454 1_455
Ta0_3 Ta0_7 2.862454 1_555
Ta0_4 Ta1_4 2.778906 1_555
Ta0_4 Ta1_6 2.778906 1_545
Ta0_5 Ta1_5 2.778906 1_555
Ta0_5 Ta1_7 2.778906 1_545
Ta0_6 Ta1_6 2.778906 1_555
Ta0_6 Ta1_4 2.778906 1_555
Ta0_7 Ta1_7 2.778906 1_555
Ta0_7 Ta1_5 2.778906 1_555
Ta1_0 Ta1_4 2.862454 1_455
Ta1_0 Ta1_4 2.862454 1_555
Ta1_1 Ta1_5 2.862454 1_455
Ta1_1 Ta1_5 2.862454 1_555
Ta1_2 Ta1_6 2.862454 1_455
Ta1_2 Ta1_6 2.862454 1_555
Ta1_3 Ta1_7 2.862454 1_455
Ta1_3 Ta1_7 2.862454 1_555
