# generated using pymatgen
data_LiMnHSO5
_symmetry_space_group_name_H-M   'P 1'
_cell_length_a   5.59186000
_cell_length_b   7.67760400
_cell_length_c   9.97789140
_cell_angle_alpha   69.02643679
_cell_angle_beta   90.00000000
_cell_angle_gamma   90.00000000
_symmetry_Int_Tables_number   1
_chemical_formula_structural   LiMnHSO5
_chemical_formula_sum   'Li4 Mn4 H4 S4 O20'
_cell_volume   399.99022352
_cell_formula_units_Z   4
loop_
 _symmetry_equiv_pos_site_id
 _symmetry_equiv_pos_as_xyz
  1  'x, y, z'
loop_
 _atom_site_type_symbol
 _atom_site_label
 _atom_site_symmetry_multiplicity
 _atom_site_fract_x
 _atom_site_fract_y
 _atom_site_fract_z
 _atom_site_occupancy
  Li  Li0  1  0.43894400  0.68816900  0.08572000  1
  Li  Li1  1  0.93894400  0.81183100  0.91428000  1
  Li  Li2  1  0.56105600  0.31183100  0.91428000  1
  Li  Li3  1  0.06105600  0.18816900  0.08572000  1
  Mn  Mn0  1  0.76598300  0.87564000  0.55594900  1
  Mn  Mn1  1  0.26598300  0.62436000  0.44405100  1
  Mn  Mn2  1  0.23401700  0.12436000  0.44405100  1
  Mn  Mn3  1  0.73401700  0.37564000  0.55594900  1
  H  H0  1  0.49928000  0.40289200  0.33071100  1
  H  H1  1  0.99928000  0.09710800  0.66928900  1
  H  H2  1  0.50072000  0.59710800  0.66928900  1
  H  H3  1  0.00072000  0.90289200  0.33071100  1
  S  S0  1  0.06121400  0.50744900  0.79135500  1
  S  S1  1  0.56121400  0.99255100  0.20864500  1
  S  S2  1  0.93878600  0.49255100  0.20864500  1
  S  S3  1  0.43878600  0.00744900  0.79135500  1
  O  O0  1  0.92934700  0.12787100  0.57295200  1
  O  O1  1  0.42934700  0.37212900  0.42704800  1
  O  O2  1  0.07065300  0.87212900  0.42704800  1
  O  O3  1  0.57065300  0.62787100  0.57295200  1
  O  O4  1  0.44563500  0.96622100  0.65457700  1
  O  O5  1  0.94563500  0.53377900  0.34542300  1
  O  O6  1  0.55436500  0.03377900  0.34542300  1
  O  O7  1  0.05436500  0.46622100  0.65457700  1
  O  O8  1  0.54809500  0.19512600  0.76304900  1
  O  O9  1  0.04809500  0.30487400  0.23695100  1
  O  O10  1  0.45190500  0.80487400  0.23695100  1
  O  O11  1  0.95190500  0.69512600  0.76304900  1
  O  O12  1  0.68682300  0.49294100  0.16202900  1
  O  O13  1  0.18682300  0.00705900  0.83797100  1
  O  O14  1  0.31317700  0.50705900  0.83797100  1
  O  O15  1  0.81317700  0.99294100  0.16202900  1
  O  O16  1  0.41984600  0.13635000  0.09577400  1
  O  O17  1  0.91984600  0.36365000  0.90422600  1
  O  O18  1  0.58015400  0.86365000  0.90422600  1
  O  O19  1  0.08015400  0.63635000  0.09577400  1
loop_
_geom_bond_atom_site_label_1
_geom_bond_atom_site_label_2
_geom_bond_distance
_geom_bond_site_symmetry_2
Li0 O12 1.982594 1_555
Li0 O18 1.992866 1_554
Li0 O10 2.013201 1_555
Li0 O19 2.040840 1_555
Li1 O13 1.982594 1_665
Li1 O19 1.992866 1_656
Li1 O11 2.013201 1_555
Li1 O18 2.040840 1_555
Li2 O14 1.982594 1_555
Li2 O16 1.992866 1_556
Li2 O8 2.013201 1_555
Li2 O17 2.040840 1_555
Li3 O15 1.982594 1_445
Li3 O17 1.992866 1_454
Li3 O9 2.013201 1_555
Li3 O16 2.040840 1_555
Mn0 O2 2.140620 1_655
Mn0 O3 2.146955 1_555
Mn0 O0 2.201959 1_565
Mn0 O4 2.269567 1_555
Mn0 O11 2.285071 1_555
Mn0 O6 2.336915 1_565
Mn1 O3 2.140620 1_555
Mn1 O2 2.146955 1_555
Mn1 O1 2.201959 1_555
Mn1 O5 2.269567 1_455
Mn1 O10 2.285071 1_555
Mn1 O7 2.336915 1_555
Mn2 O0 2.140620 1_455
Mn2 O1 2.146955 1_555
Mn2 O2 2.201959 1_545
Mn2 O6 2.269567 1_555
Mn2 O9 2.285071 1_555
Mn2 O4 2.336915 1_545
Mn3 O1 2.140620 1_555
Mn3 O0 2.146955 1_555
Mn3 O3 2.201959 1_555
Mn3 O7 2.269567 1_655
Mn3 O8 2.285071 1_555
Mn3 O5 2.336915 1_555
H0 O1 0.984969 1_555
H1 O0 0.984969 1_555
H2 O3 0.984969 1_555
H3 O2 0.984969 1_555
O4 S3 1.507803 1_565
O5 S2 1.507803 1_555
O6 S1 1.507803 1_545
O7 S0 1.507803 1_555
O8 S3 1.496085 1_555
O9 S2 1.496085 1_455
O10 S1 1.496085 1_555
O11 S0 1.496085 1_655
O12 S2 1.483400 1_555
O13 S3 1.483400 1_555
O14 S0 1.483400 1_555
O15 S1 1.483400 1_555
O16 S1 1.490654 1_545
O17 S0 1.490654 1_655
O18 S3 1.490654 1_565
O19 S2 1.490654 1_455
