# generated using pymatgen
data_Sr2SmSbO6
_symmetry_space_group_name_H-M   'P 1'
_cell_length_a   6.00564100
_cell_length_b   5.89046300
_cell_length_c   10.23237339
_cell_angle_alpha   55.16646608
_cell_angle_beta   90.00000000
_cell_angle_gamma   90.00000000
_symmetry_Int_Tables_number   1
_chemical_formula_structural   Sr2SmSbO6
_chemical_formula_sum   'Sr4 Sm2 Sb2 O12'
_cell_volume   297.11904238
_cell_formula_units_Z   2
loop_
 _symmetry_equiv_pos_site_id
 _symmetry_equiv_pos_as_xyz
  1  'x, y, z'
loop_
 _atom_site_type_symbol
 _atom_site_label
 _atom_site_symmetry_multiplicity
 _atom_site_fract_x
 _atom_site_fract_y
 _atom_site_fract_z
 _atom_site_occupancy
  Sr  Sr0  1  0.04259300  0.23863600  0.75053200  1
  Sr  Sr1  1  0.54259300  0.76136400  0.74946800  1
  Sr  Sr2  1  0.95740700  0.76136400  0.24946800  1
  Sr  Sr3  1  0.45740700  0.23863600  0.25053200  1
  Sm  Sm0  1  0.00000000  0.50000000  0.00000000  1
  Sm  Sm1  1  0.50000000  0.50000000  0.50000000  1
  Sb  Sb0  1  0.50000000  0.00000000  0.00000000  1
  Sb  Sb1  1  0.00000000  0.00000000  0.50000000  1
  O  O0  1  0.47121000  0.32033700  0.76796700  1
  O  O1  1  0.97121000  0.67966300  0.73203300  1
  O  O2  1  0.52879000  0.67966300  0.23203300  1
  O  O3  1  0.02879000  0.32033700  0.26796700  1
  O  O4  1  0.27583300  0.13884800  0.54875900  1
  O  O5  1  0.77583300  0.86115200  0.95124100  1
  O  O6  1  0.72416700  0.86115200  0.45124100  1
  O  O7  1  0.22416700  0.13884800  0.04875900  1
  O  O8  1  0.30754500  0.77037400  0.95478700  1
  O  O9  1  0.80754500  0.22962600  0.54521300  1
  O  O10  1  0.69245500  0.22962600  0.04521300  1
  O  O11  1  0.19245500  0.77037400  0.45478700  1
loop_
_geom_bond_atom_site_label_1
_geom_bond_atom_site_label_2
_geom_bond_distance
_geom_bond_site_symmetry_2
O0 Sb0 2.027194 1_556
O0 Sm1 2.313687 1_555
O0 Sr1 2.531145 1_555
O0 Sr0 2.643409 1_555
O1 Sb1 2.027194 1_665
O1 Sm0 2.313687 1_656
O1 Sr0 2.531145 1_655
O1 Sr1 2.643409 1_555
O2 Sb0 2.027194 1_565
O2 Sm1 2.313687 1_555
O2 Sr3 2.531145 1_555
O2 Sr2 2.643409 1_555
O3 Sb1 2.027194 1_555
O3 Sm0 2.313687 1_555
O3 Sr2 2.531145 1_455
O3 Sr3 2.643409 1_555
O4 Sb1 2.031792 1_555
O4 Sm1 2.318292 1_555
O4 Sr1 2.551824 1_545
O4 Sr0 2.820752 1_555
O4 Sr3 2.966075 1_555
O5 Sb0 2.031792 1_566
O5 Sm0 2.318292 1_656
O5 Sr0 2.551824 1_665
O5 Sr1 2.820752 1_555
O5 Sr2 2.966075 1_556
O6 Sb1 2.031792 1_665
O6 Sm1 2.318292 1_555
O6 Sr3 2.551824 1_565
O6 Sr2 2.820752 1_555
O6 Sr1 2.966075 1_555
O7 Sb0 2.031792 1_555
O7 Sm0 2.318292 1_555
O7 Sr2 2.551824 1_445
O7 Sr3 2.820752 1_555
O7 Sr0 2.966075 1_554
O8 Sb0 2.023448 1_566
O8 Sm0 2.306557 1_556
O8 Sr1 2.556684 1_555
O8 Sr0 2.814696 1_565
O8 Sr3 2.991683 1_556
O9 Sb1 2.023448 1_655
O9 Sm1 2.306557 1_555
O9 Sr0 2.556684 1_655
O9 Sr1 2.814696 1_545
O9 Sr2 2.991683 1_555
O10 Sb0 2.023448 1_555
O10 Sm0 2.306557 1_655
O10 Sr3 2.556684 1_555
O10 Sr2 2.814696 1_545
O10 Sr1 2.991683 1_554
O11 Sb1 2.023448 1_565
O11 Sm1 2.306557 1_555
O11 Sr2 2.556684 1_455
O11 Sr3 2.814696 1_565
O11 Sr0 2.991683 1_555
