# generated using pymatgen
data_HAuO2
_symmetry_space_group_name_H-M   'P 1'
_cell_length_a   3.10278000
_cell_length_b   4.57645000
_cell_length_c   7.35293000
_cell_angle_alpha   90.00000000
_cell_angle_beta   90.00000000
_cell_angle_gamma   90.00000000
_symmetry_Int_Tables_number   1
_chemical_formula_structural   HAuO2
_chemical_formula_sum   'H2 Au2 O4'
_cell_volume   104.40952903
_cell_formula_units_Z   2
loop_
 _symmetry_equiv_pos_site_id
 _symmetry_equiv_pos_as_xyz
  1  'x, y, z'
loop_
 _atom_site_type_symbol
 _atom_site_label
 _atom_site_symmetry_multiplicity
 _atom_site_fract_x
 _atom_site_fract_y
 _atom_site_fract_z
 _atom_site_occupancy
  H  H0  1  0.00000000  0.32114000  0.74521000  1
  H  H1  1  0.50000000  0.82114000  0.25479000  1
  Au  Au0  1  0.50000000  0.78933000  0.75691000  1
  Au  Au1  1  0.00000000  0.28933000  0.24309000  1
  O  O0  1  0.50000000  0.54762000  0.16751000  1
  O  O1  1  0.50000000  0.02829000  0.32567000  1
  O  O2  1  0.00000000  0.52829000  0.67433000  1
  O  O3  1  0.00000000  0.04762000  0.83249000  1
loop_
_geom_bond_atom_site_label_1
_geom_bond_atom_site_label_2
_geom_bond_distance
_geom_bond_site_symmetry_2
H0 O2 1.081827 1_555
H0 O3 1.406677 1_555
H1 O1 1.081827 1_565
H1 O0 1.406677 1_555
Au0 O3 2.028028 1_565
Au0 O3 2.028028 1_665
Au0 O2 2.050040 1_555
Au0 O2 2.050040 1_655
Au1 O0 2.028028 1_555
Au1 O0 2.028028 1_455
Au1 O1 2.050040 1_455
Au1 O1 2.050040 1_555
