# generated using pymatgen
data_CrGeRh
_symmetry_space_group_name_H-M   'P 1'
_cell_length_a   4.11270557
_cell_length_b   4.11270557
_cell_length_c   4.11270557
_cell_angle_alpha   60.00000000
_cell_angle_beta   60.00000000
_cell_angle_gamma   60.00000000
_symmetry_Int_Tables_number   1
_chemical_formula_structural   CrGeRh
_chemical_formula_sum   'Cr1 Ge1 Rh1'
_cell_volume   49.18898502
_cell_formula_units_Z   1
loop_
 _symmetry_equiv_pos_site_id
 _symmetry_equiv_pos_as_xyz
  1  'x, y, z'
loop_
 _atom_site_type_symbol
 _atom_site_label
 _atom_site_symmetry_multiplicity
 _atom_site_fract_x
 _atom_site_fract_y
 _atom_site_fract_z
 _atom_site_occupancy
  Cr  Cr0  1  0.50000000  0.50000000  0.50000000  1
  Ge  Ge0  1  0.25000000  0.25000000  0.25000000  1
  Rh  Rh0  1  0.00000000  0.00000000  0.00000000  1
loop_
_geom_bond_atom_site_label_1
_geom_bond_atom_site_label_2
_geom_bond_distance
_geom_bond_site_symmetry_2
Cr0 Ge0 2.518508 1_655
Cr0 Ge0 2.518508 1_555
Cr0 Ge0 2.518508 1_556
Cr0 Ge0 2.518508 1_565
Cr0 Rh0 2.908122 1_566
Cr0 Rh0 2.908122 1_556
Cr0 Rh0 2.908122 1_565
Cr0 Rh0 2.908122 1_656
Cr0 Rh0 2.908122 1_655
Cr0 Rh0 2.908122 1_665
Ge0 Rh0 2.518508 1_555
Ge0 Rh0 2.518508 1_556
Ge0 Rh0 2.518508 1_565
Ge0 Rh0 2.518508 1_655
