# generated using pymatgen
data_Sm2MgIrO6
_symmetry_space_group_name_H-M   'P 1'
_cell_length_a   5.76019400
_cell_length_b   5.42801400
_cell_length_c   9.48535488
_cell_angle_alpha   55.32603660
_cell_angle_beta   90.00000000
_cell_angle_gamma   90.00000000
_symmetry_Int_Tables_number   1
_chemical_formula_structural   Sm2MgIrO6
_chemical_formula_sum   'Sm4 Mg2 Ir2 O12'
_cell_volume   243.90244573
_cell_formula_units_Z   2
loop_
 _symmetry_equiv_pos_site_id
 _symmetry_equiv_pos_as_xyz
  1  'x, y, z'
loop_
 _atom_site_type_symbol
 _atom_site_label
 _atom_site_symmetry_multiplicity
 _atom_site_fract_x
 _atom_site_fract_y
 _atom_site_fract_z
 _atom_site_occupancy
  Sm  Sm0  1  0.93190900  0.73117100  0.74909800  1
  Sm  Sm1  1  0.43190900  0.26882900  0.75090200  1
  Sm  Sm2  1  0.56809100  0.73117100  0.24909800  1
  Sm  Sm3  1  0.06809100  0.26882900  0.25090200  1
  Mg  Mg0  1  0.50000000  0.00000000  0.50000000  1
  Mg  Mg1  1  0.00000000  0.00000000  0.00000000  1
  Ir  Ir0  1  0.00000000  0.50000000  0.50000000  1
  Ir  Ir1  1  0.50000000  0.50000000  0.00000000  1
  O  O0  1  0.19833100  0.75072000  0.55443900  1
  O  O1  1  0.70083400  0.63415300  0.55485500  1
  O  O2  1  0.03406900  0.14628400  0.74782700  1
  O  O3  1  0.53406900  0.85371600  0.75217300  1
  O  O4  1  0.20083400  0.36584700  0.94514500  1
  O  O5  1  0.69833100  0.24928000  0.94556100  1
  O  O6  1  0.30166900  0.75072000  0.05443900  1
  O  O7  1  0.79916600  0.63415300  0.05485500  1
  O  O8  1  0.46593100  0.14628400  0.24782700  1
  O  O9  1  0.96593100  0.85371600  0.25217300  1
  O  O10  1  0.29916600  0.36584700  0.44514500  1
  O  O11  1  0.80166900  0.24928000  0.44556100  1
loop_
_geom_bond_atom_site_label_1
_geom_bond_atom_site_label_2
_geom_bond_distance
_geom_bond_site_symmetry_2
Mg0 O3 2.056550 1_545
Mg0 O8 2.056550 1_555
Mg0 O11 2.078947 1_555
Mg0 O0 2.078947 1_545
Mg0 O10 2.092093 1_555
Mg0 O1 2.092093 1_545
Mg1 O9 2.056550 1_445
Mg1 O2 2.056550 1_554
Mg1 O6 2.078947 1_545
Mg1 O5 2.078947 1_454
Mg1 O4 2.092093 1_554
Mg1 O7 2.092093 1_445
Ir0 O9 2.028646 1_455
Ir0 O2 2.028646 1_555
Ir0 O1 2.049803 1_455
Ir0 O10 2.049803 1_555
Ir0 O0 2.055101 1_555
Ir0 O11 2.055101 1_455
Ir1 O3 2.028646 1_554
Ir1 O8 2.028646 1_555
Ir1 O7 2.049803 1_555
Ir1 O4 2.049803 1_554
Ir1 O5 2.055101 1_554
Ir1 O6 2.055101 1_555
O0 Sm0 2.356414 1_455
O0 Sm1 2.564901 1_555
O0 Sm3 2.747448 1_565
O1 Sm1 2.365194 1_555
O1 Sm0 2.558835 1_555
O1 Sm2 2.745075 1_555
O2 Sm0 2.322200 1_445
O2 Sm1 2.391020 1_555
O3 Sm1 2.322200 1_565
O3 Sm0 2.391020 1_555
O4 Sm0 2.365194 1_455
O4 Sm1 2.558835 1_555
O4 Sm3 2.745075 1_556
O5 Sm1 2.356414 1_555
O5 Sm0 2.564901 1_555
O5 Sm2 2.747448 1_546
O6 Sm2 2.356414 1_555
O6 Sm3 2.564901 1_555
O6 Sm1 2.747448 1_564
O7 Sm3 2.365194 1_655
O7 Sm2 2.558835 1_555
O7 Sm0 2.745075 1_554
O8 Sm2 2.322200 1_545
O8 Sm3 2.391020 1_555
O9 Sm3 2.322200 1_665
O9 Sm2 2.391020 1_555
O10 Sm2 2.365194 1_555
O10 Sm3 2.558835 1_555
O10 Sm1 2.745075 1_555
O11 Sm3 2.356414 1_655
O11 Sm2 2.564901 1_555
O11 Sm0 2.747448 1_545
