# generated using pymatgen
data_B4PbO7
_symmetry_space_group_name_H-M   'P 1'
_cell_length_a   4.24907948
_cell_length_b   4.46129392
_cell_length_c   10.85992099
_cell_angle_alpha   90.00000000
_cell_angle_beta   90.00000000
_cell_angle_gamma   90.00000000
_symmetry_Int_Tables_number   1
_chemical_formula_structural   B4PbO7
_chemical_formula_sum   'B8 Pb2 O14'
_cell_volume   205.86492426
_cell_formula_units_Z   2
loop_
 _symmetry_equiv_pos_site_id
 _symmetry_equiv_pos_as_xyz
  1  'x, y, z'
loop_
 _atom_site_type_symbol
 _atom_site_label
 _atom_site_symmetry_multiplicity
 _atom_site_fract_x
 _atom_site_fract_y
 _atom_site_fract_z
 _atom_site_occupancy
  B  B0  1  0.99765351  0.17674263  0.24843930  1
  B  B1  1  0.49765351  0.82325737  0.25156070  1
  B  B2  1  0.02380568  0.67418914  0.37795142  1
  B  B3  1  0.52380568  0.32581086  0.12204858  1
  B  B4  1  0.52380568  0.32581086  0.87795142  1
  B  B5  1  0.02380568  0.67418914  0.62204858  1
  B  B6  1  0.49765351  0.82325737  0.74843930  1
  B  B7  1  0.99765351  0.17674263  0.75156070  1
  Pb  Pb0  1  0.52913232  0.19656962  0.50000000  1
  Pb  Pb1  1  0.02913232  0.80343038  -0.00000000  1
  O  O0  1  0.45057082  0.63928256  0.14458638  1
  O  O1  1  0.35626734  0.73047731  0.36343555  1
  O  O2  1  0.85626734  0.26952269  0.13656445  1
  O  O3  1  0.85626734  0.26952269  0.86343555  1
  O  O4  1  0.85176810  0.87175664  0.71955848  1
  O  O5  1  0.35176810  0.12824336  0.78044152  1
  O  O6  1  0.35176810  0.12824336  0.21955848  1
  O  O7  1  0.85176810  0.87175664  0.28044152  1
  O  O8  1  0.95057082  0.36071744  0.64458638  1
  O  O9  1  0.45057082  0.63928256  0.85541362  1
  O  O10  1  0.91653680  0.76428949  0.50000000  1
  O  O11  1  0.41653680  0.23571051  -0.00000000  1
  O  O12  1  0.35626734  0.73047731  0.63656445  1
  O  O13  1  0.95057082  0.36071744  0.35541362  1
loop_
_geom_bond_atom_site_label_1
_geom_bond_atom_site_label_2
_geom_bond_distance
_geom_bond_site_symmetry_2
B0 O2 1.417163 1_555
B0 O13 1.436420 1_555
B0 O7 1.535042 1_545
B0 O6 1.552157 1_655
B1 O1 1.417163 1_555
B1 O0 1.436420 1_555
B1 O6 1.535042 1_565
B1 O7 1.552157 1_555
B2 O1 1.443436 1_555
B2 O13 1.453449 1_455
B2 O10 1.458118 1_455
B2 O7 1.559684 1_455
B3 O2 1.443436 1_555
B3 O0 1.453449 1_555
B3 O11 1.458118 1_555
B3 O6 1.559684 1_555
B4 O3 1.443436 1_555
B4 O9 1.453449 1_555
B4 O11 1.458118 1_556
B4 O5 1.559684 1_555
B5 O12 1.443436 1_555
B5 O8 1.453449 1_455
B5 O10 1.458118 1_455
B5 O4 1.559684 1_455
B6 O12 1.417163 1_555
B6 O9 1.436420 1_555
B6 O5 1.535042 1_565
B6 O4 1.552157 1_555
B7 O3 1.417163 1_555
B7 O8 1.436420 1_555
B7 O4 1.535042 1_545
B7 O5 1.552157 1_655
O0 Pb1 2.491685 1_555
O1 Pb0 2.657600 1_565
O2 Pb1 2.657600 1_645
O3 Pb1 2.657600 1_646
O8 Pb0 2.491685 1_555
O9 Pb1 2.491685 1_556
O10 Pb0 2.535529 1_565
O11 Pb1 2.535529 1_545
O12 Pb0 2.657600 1_565
O13 Pb0 2.491685 1_555
