# generated using pymatgen
data_KLi6TaO6
_symmetry_space_group_name_H-M   'P 1'
_cell_length_a   5.38152356
_cell_length_b   5.38152356
_cell_length_c   5.38152375
_cell_angle_alpha   101.19522748
_cell_angle_beta   101.19522748
_cell_angle_gamma   101.19523860
_symmetry_Int_Tables_number   1
_chemical_formula_structural   KLi6TaO6
_chemical_formula_sum   'K1 Li6 Ta1 O6'
_cell_volume   145.56029947
_cell_formula_units_Z   1
loop_
 _symmetry_equiv_pos_site_id
 _symmetry_equiv_pos_as_xyz
  1  'x, y, z'
loop_
 _atom_site_type_symbol
 _atom_site_label
 _atom_site_symmetry_multiplicity
 _atom_site_fract_x
 _atom_site_fract_y
 _atom_site_fract_z
 _atom_site_occupancy
  K  K0  1  0.50000000  0.50000000  0.50000000  1
  Li  Li0  1  0.00000000  0.34348300  0.65651700  1
  Li  Li1  1  0.65651700  0.00000000  0.34348300  1
  Li  Li2  1  0.65651700  0.34348300  0.00000000  1
  Li  Li3  1  0.34348300  0.00000000  0.65651700  1
  Li  Li4  1  0.00000000  0.65651700  0.34348300  1
  Li  Li5  1  0.34348300  0.65651700  0.00000000  1
  Ta  Ta0  1  0.00000000  0.00000000  0.00000000  1
  O  O0  1  0.91712100  0.27103700  0.27103700  1
  O  O1  1  0.27103700  0.27103700  0.91712100  1
  O  O2  1  0.08287900  0.72896300  0.72896300  1
  O  O3  1  0.72896300  0.72896300  0.08287900  1
  O  O4  1  0.72896300  0.08287900  0.72896300  1
  O  O5  1  0.27103700  0.91712100  0.27103700  1
loop_
_geom_bond_atom_site_label_1
_geom_bond_atom_site_label_2
_geom_bond_distance
_geom_bond_site_symmetry_2
K0 Li1 2.989085 1_565
K0 Li0 2.989085 1_555
K0 Li3 2.989085 1_555
K0 Li4 2.989085 1_655
K0 Li5 2.989085 1_555
K0 Li5 2.989085 1_556
K0 Li2 2.989085 1_555
K0 Li2 2.989085 1_556
K0 Li4 2.989085 1_555
K0 Li0 2.989085 1_655
K0 Li3 2.989085 1_565
K0 Li1 2.989085 1_555
K0 O2 3.047077 1_655
K0 O4 3.047077 1_565
K0 O5 3.047077 1_545
K0 O0 3.047077 1_455
K0 O3 3.047077 1_556
K0 O1 3.047077 1_554
K0 O1 3.103847 1_555
K0 O3 3.103847 1_555
K0 O5 3.103847 1_555
K0 O2 3.103847 1_555
K0 O4 3.103847 1_555
K0 O0 3.103847 1_555
Li0 O4 1.971080 1_455
Li0 O1 1.971080 1_555
Li0 O2 1.978257 1_555
Li0 O0 1.978258 1_455
Li1 O0 1.971080 1_555
Li1 O3 1.971080 1_545
Li1 O5 1.978257 1_545
Li1 O4 1.978258 1_555
Li2 O0 1.971080 1_555
Li2 O4 1.971080 1_554
Li2 O1 1.978257 1_554
Li2 O3 1.978257 1_555
Li3 O2 1.971080 1_545
Li3 O1 1.971080 1_555
Li3 O4 1.978257 1_555
Li3 O5 1.978258 1_545
Li4 O5 1.971080 1_555
Li4 O3 1.971080 1_455
Li4 O0 1.978257 1_455
Li4 O2 1.978258 1_555
Li5 O5 1.971080 1_555
Li5 O2 1.971080 1_554
Li5 O1 1.978257 1_554
Li5 O3 1.978257 1_555
O0 Ta0 2.032984 1_655
O1 Ta0 2.032983 1_556
O2 Ta0 2.032984 1_566
O3 Ta0 2.032983 1_665
O4 Ta0 2.032984 1_656
O5 Ta0 2.032984 1_565
