# generated using pymatgen
data_SrCdSi
_symmetry_space_group_name_H-M   'P 1'
_cell_length_a   5.15850943
_cell_length_b   5.15850943
_cell_length_c   5.15850943
_cell_angle_alpha   60.00000000
_cell_angle_beta   60.00000000
_cell_angle_gamma   60.00000000
_symmetry_Int_Tables_number   1
_chemical_formula_structural   SrCdSi
_chemical_formula_sum   'Sr1 Cd1 Si1'
_cell_volume   97.06388923
_cell_formula_units_Z   1
loop_
 _symmetry_equiv_pos_site_id
 _symmetry_equiv_pos_as_xyz
  1  'x, y, z'
loop_
 _atom_site_type_symbol
 _atom_site_label
 _atom_site_symmetry_multiplicity
 _atom_site_fract_x
 _atom_site_fract_y
 _atom_site_fract_z
 _atom_site_occupancy
  Sr  Sr0  1  0.75000000  0.75000000  0.75000000  1
  Cd  Cd0  1  0.00000000  0.00000000  0.00000000  1
  Si  Si0  1  0.50000000  0.50000000  0.50000000  1
loop_
_geom_bond_atom_site_label_1
_geom_bond_atom_site_label_2
_geom_bond_distance
_geom_bond_site_symmetry_2
Cd0 Sr0 3.158929 1_544
Cd0 Sr0 3.158929 1_444
Cd0 Sr0 3.158929 1_445
Cd0 Sr0 3.158929 1_454
Si0 Sr0 3.158929 1_455
Si0 Sr0 3.158929 1_545
Si0 Sr0 3.158929 1_554
Si0 Sr0 3.158929 1_555
