# generated using pymatgen
data_Nb3Fe
_symmetry_space_group_name_H-M   'P 1'
_cell_length_a   4.51087599
_cell_length_b   4.51087599
_cell_length_c   4.51087599
_cell_angle_alpha   60.00000000
_cell_angle_beta   60.00000000
_cell_angle_gamma   60.00000000
_symmetry_Int_Tables_number   1
_chemical_formula_structural   Nb3Fe
_chemical_formula_sum   'Nb3 Fe1'
_cell_volume   64.90343245
_cell_formula_units_Z   1
loop_
 _symmetry_equiv_pos_site_id
 _symmetry_equiv_pos_as_xyz
  1  'x, y, z'
loop_
 _atom_site_type_symbol
 _atom_site_label
 _atom_site_symmetry_multiplicity
 _atom_site_fract_x
 _atom_site_fract_y
 _atom_site_fract_z
 _atom_site_occupancy
  Nb  Nb0  1  0.50000000  0.50000000  0.50000000  1
  Nb  Nb1  1  0.75000000  0.75000000  0.75000000  1
  Nb  Nb2  1  0.25000000  0.25000000  0.25000000  1
  Fe  Fe0  1  0.00000000  0.00000000  0.00000000  1
loop_
_geom_bond_atom_site_label_1
_geom_bond_atom_site_label_2
_geom_bond_distance
_geom_bond_site_symmetry_2
Nb0 Nb2 2.762336 1_655
Nb0 Nb1 2.762336 1_455
Nb0 Nb1 2.762336 1_555
Nb0 Nb1 2.762336 1_554
Nb0 Nb2 2.762336 1_555
Nb0 Nb2 2.762336 1_556
Nb0 Nb2 2.762336 1_565
Nb0 Nb1 2.762336 1_545
Fe0 Nb2 2.762336 1_455
Fe0 Nb1 2.762336 1_544
Fe0 Nb2 2.762336 1_555
Fe0 Nb2 2.762336 1_554
Fe0 Nb1 2.762336 1_444
Fe0 Nb2 2.762336 1_545
Fe0 Nb1 2.762336 1_445
Fe0 Nb1 2.762336 1_454
