# generated using pymatgen
data_VIr
_symmetry_space_group_name_H-M   'P 1'
_cell_length_a   4.04054030
_cell_length_b   5.22686214
_cell_length_c   5.22686214
_cell_angle_alpha   84.14006413
_cell_angle_beta   90.00000000
_cell_angle_gamma   90.00000000
_symmetry_Int_Tables_number   1
_chemical_formula_structural   VIr
_chemical_formula_sum   'V4 Ir4'
_cell_volume   109.81107851
_cell_formula_units_Z   4
loop_
 _symmetry_equiv_pos_site_id
 _symmetry_equiv_pos_as_xyz
  1  'x, y, z'
loop_
 _atom_site_type_symbol
 _atom_site_label
 _atom_site_symmetry_multiplicity
 _atom_site_fract_x
 _atom_site_fract_y
 _atom_site_fract_z
 _atom_site_occupancy
  V  V0  1  -0.00000000  0.02594572  0.02594572  1
  V  V1  1  -0.00000000  0.45342513  0.45342513  1
  V  V2  1  0.50000000  0.21153611  0.21153611  1
  V  V3  1  0.50000000  0.78409685  0.78409685  1
  Ir  Ir0  1  -0.00000000  0.96317569  0.52321220  1
  Ir  Ir1  1  -0.00000000  0.52321220  0.96317569  1
  Ir  Ir2  1  0.50000000  0.27429571  0.71431458  1
  Ir  Ir3  1  0.50000000  0.71431458  0.27429571  1
loop_
_geom_bond_atom_site_label_1
_geom_bond_atom_site_label_2
_geom_bond_distance
_geom_bond_site_symmetry_2
V0 V2 2.481059 1_455
V0 V2 2.481059 1_555
V0 V3 2.757488 1_444
V0 V3 2.757488 1_544
V1 V2 2.757700 1_455
V1 V2 2.757700 1_555
Ir0 V1 2.551162 1_565
Ir0 V3 2.560552 1_455
Ir0 V3 2.560552 1_555
Ir0 V0 2.586322 1_565
Ir0 V0 2.681155 1_566
Ir0 V1 2.725897 1_555
Ir0 V2 2.826442 1_465
Ir0 V2 2.826442 1_565
Ir1 V1 2.551162 1_556
Ir1 V3 2.560552 1_455
Ir1 V3 2.560552 1_555
Ir1 V0 2.586322 1_556
Ir1 V0 2.681155 1_566
Ir1 V1 2.725897 1_555
Ir1 V2 2.826442 1_456
Ir1 V2 2.826442 1_556
Ir2 V3 2.550899 1_545
Ir2 V1 2.560647 1_655
Ir2 V1 2.560647 1_555
Ir2 V2 2.586088 1_556
Ir2 V2 2.681376 1_555
Ir2 V3 2.726153 1_555
Ir2 V0 2.826296 1_556
Ir2 V0 2.826296 1_656
Ir3 V3 2.550899 1_554
Ir3 V1 2.560647 1_655
Ir3 V1 2.560647 1_555
Ir3 V2 2.586088 1_565
Ir3 V2 2.681376 1_555
Ir3 V3 2.726153 1_555
Ir3 V0 2.826296 1_565
Ir3 V0 2.826296 1_665
