# generated using pymatgen
data_Te6RhCl3
_symmetry_space_group_name_H-M   'P 1'
_cell_length_a   9.06854533
_cell_length_b   9.06854533
_cell_length_c   9.06854382
_cell_angle_alpha   107.83015835
_cell_angle_beta   107.83015835
_cell_angle_gamma   107.83015594
_symmetry_Int_Tables_number   1
_chemical_formula_structural   Te6RhCl3
_chemical_formula_sum   'Te12 Rh2 Cl6'
_cell_volume   606.48100190
_cell_formula_units_Z   2
loop_
 _symmetry_equiv_pos_site_id
 _symmetry_equiv_pos_as_xyz
  1  'x, y, z'
loop_
 _atom_site_type_symbol
 _atom_site_label
 _atom_site_symmetry_multiplicity
 _atom_site_fract_x
 _atom_site_fract_y
 _atom_site_fract_z
 _atom_site_occupancy
  Te  Te0  1  0.81093346  0.82700055  0.07978957  1
  Te  Te1  1  0.07978957  0.81093346  0.82700055  1
  Te  Te2  1  0.82700055  0.07978957  0.81093346  1
  Te  Te3  1  0.67299845  0.68906554  0.42020943  1
  Te  Te4  1  0.68906654  0.42020943  0.67299845  1
  Te  Te5  1  0.42020943  0.67299945  0.68906554  1
  Te  Te6  1  0.18906654  0.17299945  0.92020943  1
  Te  Te7  1  0.92021043  0.18906654  0.17299945  1
  Te  Te8  1  0.17299945  0.92021043  0.18906554  1
  Te  Te9  1  0.32700055  0.31093346  0.57978957  1
  Te  Te10  1  0.31093346  0.57978957  0.32700155  1
  Te  Te11  1  0.57978957  0.32700055  0.31093446  1
  Rh  Rh0  1  0.75000000  0.75000000  0.75000000  1
  Rh  Rh1  1  0.25000000  0.25000000  0.25000000  1
  Cl  Cl0  1  0.01434335  0.75000000  0.48565465  1
  Cl  Cl1  1  0.75000000  0.48565565  0.01434335  1
  Cl  Cl2  1  0.48565465  0.01434335  0.75000000  1
  Cl  Cl3  1  0.98565665  0.25000000  0.51434435  1
  Cl  Cl4  1  0.25000000  0.51434435  0.98565665  1
  Cl  Cl5  1  0.51434435  0.98565665  0.24999900  1
loop_
_geom_bond_atom_site_label_1
_geom_bond_atom_site_label_2
_geom_bond_distance
_geom_bond_site_symmetry_2
Te0 Te7 2.876130 1_565
Te0 Te8 2.876130 1_655
Te1 Te8 2.876120 1_556
Te1 Te6 2.876131 1_565
Te2 Te7 2.876129 1_556
Te2 Te6 2.876130 1_655
Te4 Te9 2.876132 1_555
Te5 Te9 2.876132 1_555
Te10 Te5 2.876113 1_555
Te10 Te3 2.876125 1_555
Te11 Te4 2.876113 1_555
Te11 Te3 2.876124 1_555
Rh0 Te0 2.685156 1_556
Rh0 Te1 2.685156 1_655
Rh0 Te2 2.685156 1_565
Rh0 Te3 2.685161 1_555
Rh0 Te5 2.685163 1_555
Rh0 Te4 2.685164 1_555
Rh1 Te8 2.685154 1_545
Rh1 Te11 2.685154 1_555
Rh1 Te10 2.685155 1_555
Rh1 Te9 2.685156 1_555
Rh1 Te7 2.685156 1_455
Rh1 Te6 2.685164 1_554
Cl0 Te3 2.804692 1_455
Cl0 Te1 2.804701 1_555
Cl1 Te4 2.804692 1_554
Cl1 Te0 2.804692 1_555
Cl2 Te5 2.804683 1_545
Cl2 Te2 2.804701 1_555
Cl3 Te9 2.804685 1_655
Cl3 Te7 2.804692 1_555
Cl4 Te6 2.804691 1_555
Cl4 Te10 2.804693 1_556
Cl5 Te11 2.804681 1_565
Cl5 Te8 2.804692 1_555
