# generated using pymatgen
data_Fe3H
_symmetry_space_group_name_H-M   'P 1'
_cell_length_a   5.15272547
_cell_length_b   5.15272547
_cell_length_c   3.61308800
_cell_angle_alpha   90.00000000
_cell_angle_beta   90.00000000
_cell_angle_gamma   119.99999316
_symmetry_Int_Tables_number   1
_chemical_formula_structural   Fe3H
_chemical_formula_sum   'Fe6 H2'
_cell_volume   83.07745990
_cell_formula_units_Z   2
loop_
 _symmetry_equiv_pos_site_id
 _symmetry_equiv_pos_as_xyz
  1  'x, y, z'
loop_
 _atom_site_type_symbol
 _atom_site_label
 _atom_site_symmetry_multiplicity
 _atom_site_fract_x
 _atom_site_fract_y
 _atom_site_fract_z
 _atom_site_occupancy
  Fe  Fe0  1  0.17272700  0.34545500  0.25000000  1
  Fe  Fe1  1  0.65454500  0.82727300  0.25000000  1
  Fe  Fe2  1  0.17272700  0.82727300  0.25000000  1
  Fe  Fe3  1  0.82727300  0.65454500  0.75000000  1
  Fe  Fe4  1  0.34545500  0.17272700  0.75000000  1
  Fe  Fe5  1  0.82727300  0.17272700  0.75000000  1
  H  H0  1  0.33333300  0.66666700  0.75000000  1
  H  H1  1  0.66666700  0.33333300  0.25000000  1
loop_
_geom_bond_atom_site_label_1
_geom_bond_atom_site_label_2
_geom_bond_distance
_geom_bond_site_symmetry_2
Fe0 H0 2.306114 1_555
Fe0 H0 2.306114 1_554
Fe1 H0 2.306114 1_555
Fe1 H0 2.306114 1_554
Fe2 H0 2.306114 1_555
Fe2 H0 2.306114 1_554
Fe3 H1 2.306114 1_555
Fe3 H1 2.306114 1_556
Fe4 H1 2.306114 1_555
Fe4 H1 2.306114 1_556
Fe5 H1 2.306114 1_555
Fe5 H1 2.306114 1_556
