# generated using pymatgen
data_FeSbAs
_symmetry_space_group_name_H-M   'P 1'
_cell_length_a   3.05096300
_cell_length_b   5.56334200
_cell_length_c   6.26730600
_cell_angle_alpha   90.00000000
_cell_angle_beta   90.00000000
_cell_angle_gamma   90.00000000
_symmetry_Int_Tables_number   1
_chemical_formula_structural   FeSbAs
_chemical_formula_sum   'Fe2 Sb2 As2'
_cell_volume   106.37843551
_cell_formula_units_Z   2
loop_
 _symmetry_equiv_pos_site_id
 _symmetry_equiv_pos_as_xyz
  1  'x, y, z'
loop_
 _atom_site_type_symbol
 _atom_site_label
 _atom_site_symmetry_multiplicity
 _atom_site_fract_x
 _atom_site_fract_y
 _atom_site_fract_z
 _atom_site_occupancy
  Fe  Fe0  1  0.00000000  0.27337900  0.69205000  1
  Fe  Fe1  1  0.50000000  0.72662100  0.19205000  1
  Sb  Sb0  1  0.00000000  0.07066100  0.05740800  1
  Sb  Sb1  1  0.50000000  0.92933900  0.55740800  1
  As  As0  1  0.00000000  0.44183100  0.34294200  1
  As  As1  1  0.50000000  0.55816900  0.84294200  1
loop_
_geom_bond_atom_site_label_1
_geom_bond_atom_site_label_2
_geom_bond_distance
_geom_bond_site_symmetry_2
Fe0 Sb0 2.552477 1_556
Fe0 Sb1 2.588939 1_445
Fe0 Sb1 2.588939 1_545
Fe1 Sb1 2.552477 1_555
Fe1 Sb0 2.588939 1_565
Fe1 Sb0 2.588939 1_665
As0 Fe0 2.380223 1_555
As0 Fe1 2.394095 1_555
As0 Fe1 2.394095 1_455
As0 Sb0 2.732474 1_555
As1 Fe1 2.380223 1_556
As1 Fe0 2.394095 1_655
As1 Fe0 2.394095 1_555
As1 Sb1 2.732474 1_555
