# generated using pymatgen
data_ZnN
_symmetry_space_group_name_H-M   'P 1'
_cell_length_a   3.16231167
_cell_length_b   3.16231167
_cell_length_c   5.38236809
_cell_angle_alpha   90.00000000
_cell_angle_beta   90.00000000
_cell_angle_gamma   120.00002693
_symmetry_Int_Tables_number   1
_chemical_formula_structural   ZnN
_chemical_formula_sum   'Zn2 N2'
_cell_volume   46.61366488
_cell_formula_units_Z   2
loop_
 _symmetry_equiv_pos_site_id
 _symmetry_equiv_pos_as_xyz
  1  'x, y, z'
loop_
 _atom_site_type_symbol
 _atom_site_label
 _atom_site_symmetry_multiplicity
 _atom_site_fract_x
 _atom_site_fract_y
 _atom_site_fract_z
 _atom_site_occupancy
  Zn  Zn0  1  0.00000000  -0.00000000  0.36866666  1
  Zn  Zn1  1  0.33333300  0.66666800  0.86868747  1
  N  N0  1  -0.00000000  -0.00000000  0.00628203  1
  N  N1  1  0.33333300  0.66666800  0.50636384  1
loop_
_geom_bond_atom_site_label_1
_geom_bond_atom_site_label_2
_geom_bond_distance
_geom_bond_site_symmetry_2
N0 Zn0 1.950487 1_555
N0 Zn1 1.970242 1_544
N0 Zn1 1.970247 1_444
N0 Zn1 1.970249 1_554
N1 Zn1 1.950159 1_555
N1 Zn0 1.970450 1_565
N1 Zn0 1.970454 1_665
N1 Zn0 1.970457 1_555
