# generated using pymatgen
data_TbTlS2
_symmetry_space_group_name_H-M   'P 1'
_cell_length_a   4.03173826
_cell_length_b   4.03173881
_cell_length_c   7.84591885
_cell_angle_alpha   75.11189499
_cell_angle_beta   75.11189437
_cell_angle_gamma   60.00000406
_symmetry_Int_Tables_number   1
_chemical_formula_structural   TbTlS2
_chemical_formula_sum   'Tb1 Tl1 S2'
_cell_volume   105.47562561
_cell_formula_units_Z   1
loop_
 _symmetry_equiv_pos_site_id
 _symmetry_equiv_pos_as_xyz
  1  'x, y, z'
loop_
 _atom_site_type_symbol
 _atom_site_label
 _atom_site_symmetry_multiplicity
 _atom_site_fract_x
 _atom_site_fract_y
 _atom_site_fract_z
 _atom_site_occupancy
  Tb  Tb0  1  0.00000000  -0.00000000  -0.00000000  1
  Tl  Tl0  1  0.50000000  0.50000000  0.50000000  1
  S  S0  1  0.73305137  0.73305137  0.80084588  1
  S  S1  1  0.26694863  0.26694863  0.19915412  1
loop_
_geom_bond_atom_site_label_1
_geom_bond_atom_site_label_2
_geom_bond_distance
_geom_bond_site_symmetry_2
S0 Tb0 2.764951 1_666
S0 Tb0 2.764951 1_566
S0 Tb0 2.764952 1_656
S0 Tl0 3.240285 1_555
S0 Tl0 3.240286 1_655
S0 Tl0 3.240286 1_565
S1 Tb0 2.764951 1_555
S1 Tb0 2.764951 1_655
S1 Tb0 2.764952 1_565
S1 Tl0 3.240285 1_555
S1 Tl0 3.240286 1_455
S1 Tl0 3.240286 1_545
