# generated using pymatgen
data_Ti6Al16Pt7
_symmetry_space_group_name_H-M   'P 1'
_cell_length_a   8.59348492
_cell_length_b   8.59351247
_cell_length_c   8.59354344
_cell_angle_alpha   60.00009331
_cell_angle_beta   60.00001078
_cell_angle_gamma   60.00035298
_symmetry_Int_Tables_number   1
_chemical_formula_structural   Ti6Al16Pt7
_chemical_formula_sum   'Ti6 Al16 Pt7'
_cell_volume   448.74415976
_cell_formula_units_Z   1
loop_
 _symmetry_equiv_pos_site_id
 _symmetry_equiv_pos_as_xyz
  1  'x, y, z'
loop_
 _atom_site_type_symbol
 _atom_site_label
 _atom_site_symmetry_multiplicity
 _atom_site_fract_x
 _atom_site_fract_y
 _atom_site_fract_z
 _atom_site_occupancy
  Ti  Ti0  1  0.17323383  0.82676273  0.82676695  1
  Ti  Ti1  1  0.82676472  0.17323360  0.17323788  1
  Ti  Ti2  1  0.82675863  0.17323969  0.82675965  1
  Ti  Ti3  1  0.82676033  0.82676031  0.17323955  1
  Ti  Ti4  1  0.17323974  0.82676123  0.17323978  1
  Ti  Ti5  1  0.17323909  0.17323788  0.82676380  1
  Al  Al0  1  0.83883492  0.83883574  0.83883556  1
  Al  Al1  1  0.83883446  0.83883625  0.48349267  1
  Al  Al2  1  0.48349238  0.83883668  0.83883189  1
  Al  Al3  1  0.83883468  0.48349174  0.83883869  1
  Al  Al4  1  0.16116048  0.16116806  0.16116562  1
  Al  Al5  1  0.16116491  0.16116155  0.51650870  1
  Al  Al6  1  0.16116249  0.51650755  0.16116411  1
  Al  Al7  1  0.51650733  0.16116531  0.16116336  1
  Al  Al8  1  0.62014449  0.62014189  0.62014479  1
  Al  Al9  1  0.62014515  0.62014136  0.13957235  1
  Al  Al10  1  0.13957075  0.62014205  0.62014625  1
  Al  Al11  1  0.62014513  0.13956916  0.62014417  1
  Al  Al12  1  0.37985952  0.37985419  0.37985733  1
  Al  Al13  1  0.37985844  0.37985588  0.86043125  1
  Al  Al14  1  0.37985937  0.86042843  0.37985842  1
  Al  Al15  1  0.86042669  0.37985627  0.37985931  1
  Pt  Pt0  1  0.00001773  0.50000929  0.49999122  1
  Pt  Pt1  1  0.49999723  0.00000264  -0.00000125  1
  Pt  Pt2  1  0.50000288  -0.00000072  0.49999516  1
  Pt  Pt3  1  0.49999391  0.50000413  0.00000143  1
  Pt  Pt4  1  -0.00000532  0.50000291  0.00000399  1
  Pt  Pt5  1  0.00000375  -0.00000648  0.49998894  1
  Pt  Pt6  1  0.49999128  0.50000066  0.49999943  1
loop_
_geom_bond_atom_site_label_1
_geom_bond_atom_site_label_2
_geom_bond_distance
_geom_bond_site_symmetry_2
Ti0 Ti3 2.977422 1_456
Ti0 Ti5 2.977448 1_565
Ti0 Ti4 2.977448 1_556
Ti0 Ti2 2.977458 1_465
Ti1 Ti5 2.977432 1_654
Ti1 Ti3 2.977434 1_545
Ti1 Ti4 2.977437 1_645
Ti1 Ti2 2.977476 1_554
Ti2 Ti5 2.977485 1_655
Ti2 Ti3 2.977487 1_546
Ti3 Ti4 2.977471 1_655
Ti4 Ti5 2.977458 1_564
Al0 Pt4 2.483431 1_656
Al0 Pt1 2.483453 1_566
Al0 Pt5 2.483493 1_665
Al0 Ti0 2.773804 1_655
Al0 Ti2 2.773814 1_565
Al0 Ti3 2.773833 1_556
Al1 Pt5 2.483356 1_665
Al1 Pt0 2.483398 1_655
Al1 Pt2 2.483415 1_565
Al1 Ti1 2.773804 1_565
Al1 Ti4 2.773825 1_655
Al1 Ti3 2.773825 1_555
Al2 Pt3 2.483428 1_556
Al2 Pt2 2.483447 1_565
Al2 Pt1 2.483458 1_566
Al2 Ti0 2.773802 1_555
Al2 Ti5 2.773818 1_565
Al2 Ti4 2.773837 1_556
Al3 Pt4 2.483433 1_656
Al3 Pt3 2.483455 1_556
Al3 Pt0 2.483510 1_655
Al3 Ti1 2.773826 1_556
Al3 Ti2 2.773829 1_555
Al3 Ti5 2.773834 1_655
Al4 Pt5 2.483380 1_555
Al4 Pt4 2.483440 1_555
Al4 Pt1 2.483453 1_555
Al4 Ti1 2.773792 1_455
Al4 Ti5 2.773821 1_554
Al4 Ti4 2.773834 1_545
Al5 Pt2 2.483439 1_555
Al5 Pt5 2.483499 1_555
Al5 Pt0 2.483512 1_555
Al5 Ti2 2.773822 1_455
Al5 Ti0 2.773825 1_545
Al5 Ti5 2.773844 1_555
Al6 Pt0 2.483400 1_555
Al6 Pt3 2.483405 1_555
Al6 Pt4 2.483418 1_555
Al6 Ti0 2.773805 1_554
Al6 Ti3 2.773819 1_455
Al6 Ti4 2.773833 1_555
Al7 Pt2 2.483424 1_555
Al7 Pt1 2.483444 1_555
Al7 Pt3 2.483449 1_555
Al7 Ti1 2.773810 1_555
Al7 Ti2 2.773812 1_554
Al7 Ti3 2.773834 1_545
Al8 Pt6 2.529050 1_555
Al8 Pt3 2.667044 1_556
Al8 Pt2 2.667047 1_565
Al8 Pt0 2.667151 1_655
Al8 Ti2 3.251013 1_555
Al8 Ti3 3.251031 1_555
Al8 Ti0 3.251076 1_555
Al9 Pt6 2.528972 1_555
Al9 Pt4 2.666983 1_655
Al9 Pt3 2.667052 1_555
Al9 Pt1 2.667076 1_565
Al9 Ti3 3.250994 1_555
Al9 Ti4 3.251034 1_555
Al9 Ti1 3.251066 1_555
Al10 Pt6 2.528915 1_555
Al10 Pt0 2.666917 1_555
Al10 Pt5 2.667007 1_565
Al10 Pt4 2.667052 1_556
Al10 Ti5 3.251028 1_555
Al10 Ti0 3.251038 1_555
Al10 Ti4 3.251053 1_555
Al11 Pt6 2.529003 1_555
Al11 Pt1 2.667028 1_556
Al11 Pt5 2.667048 1_655
Al11 Pt2 2.667063 1_555
Al11 Ti2 3.250983 1_555
Al11 Ti5 3.251027 1_555
Al11 Ti1 3.251058 1_555
Al12 Pt6 2.528913 1_555
Al12 Pt0 2.666924 1_555
Al12 Pt2 2.667032 1_555
Al12 Pt3 2.667039 1_555
Al12 Ti1 3.251040 1_555
Al12 Ti5 3.251042 1_555
Al12 Ti4 3.251055 1_555
Al13 Pt6 2.529005 1_555
Al13 Pt3 2.667013 1_556
Al13 Pt1 2.667019 1_556
Al13 Pt4 2.667082 1_556
Al13 Ti2 3.250987 1_555
Al13 Ti5 3.251019 1_555
Al13 Ti0 3.251062 1_555
Al14 Pt6 2.528976 1_555
Al14 Pt2 2.666993 1_565
Al14 Pt5 2.667025 1_565
Al14 Pt1 2.667066 1_565
Al14 Ti3 3.250990 1_555
Al14 Ti4 3.251034 1_555
Al14 Ti0 3.251072 1_555
Al15 Pt6 2.529020 1_555
Al15 Pt4 2.667033 1_655
Al15 Pt5 2.667088 1_655
Al15 Pt0 2.667170 1_655
Al15 Ti2 3.251009 1_555
Al15 Ti3 3.251030 1_555
Al15 Ti1 3.251052 1_555
Pt0 Ti4 3.178117 1_555
Pt0 Ti3 3.178275 1_455
Pt0 Ti5 3.178288 1_555
Pt0 Ti2 3.178399 1_455
Pt1 Ti5 3.178223 1_554
Pt1 Ti4 3.178227 1_545
Pt1 Ti2 3.178235 1_554
Pt1 Ti3 3.178282 1_545
Pt2 Ti1 3.178229 1_555
Pt2 Ti3 3.178231 1_545
Pt2 Ti0 3.178305 1_545
Pt2 Ti5 3.178316 1_555
Pt3 Ti4 3.178233 1_555
Pt3 Ti0 3.178242 1_554
Pt3 Ti2 3.178308 1_554
Pt3 Ti1 3.178333 1_555
Pt4 Ti3 3.178229 1_455
Pt4 Ti0 3.178244 1_554
Pt4 Ti1 3.178268 1_455
Pt4 Ti5 3.178296 1_554
Pt5 Ti4 3.178147 1_545
Pt5 Ti1 3.178192 1_455
Pt5 Ti0 3.178361 1_545
Pt5 Ti2 3.178375 1_455
