# generated using pymatgen
data_Pm2ZnOs
_symmetry_space_group_name_H-M   'P 1'
_cell_length_a   5.01473198
_cell_length_b   5.01473198
_cell_length_c   5.01473198
_cell_angle_alpha   60.00000000
_cell_angle_beta   60.00000000
_cell_angle_gamma   60.00000000
_symmetry_Int_Tables_number   1
_chemical_formula_structural   Pm2ZnOs
_chemical_formula_sum   'Pm2 Zn1 Os1'
_cell_volume   89.17193318
_cell_formula_units_Z   1
loop_
 _symmetry_equiv_pos_site_id
 _symmetry_equiv_pos_as_xyz
  1  'x, y, z'
loop_
 _atom_site_type_symbol
 _atom_site_label
 _atom_site_symmetry_multiplicity
 _atom_site_fract_x
 _atom_site_fract_y
 _atom_site_fract_z
 _atom_site_occupancy
  Pm  Pm0  1  0.00000000  0.00000000  0.00000000  1
  Pm  Pm1  1  0.50000100  0.50000100  0.50000100  1
  Zn  Zn0  1  0.75000000  0.75000000  0.75000000  1
  Os  Os0  1  0.25000000  0.25000000  0.25000000  1
loop_
_geom_bond_atom_site_label_1
_geom_bond_atom_site_label_2
_geom_bond_distance
_geom_bond_site_symmetry_2
Pm0 Zn0 3.070884 1_445
Pm0 Zn0 3.070884 1_444
Pm0 Zn0 3.070884 1_454
Pm0 Zn0 3.070884 1_544
Pm1 Zn0 3.070871 1_555
Pm1 Zn0 3.070888 1_554
Pm1 Zn0 3.070888 1_455
Pm1 Zn0 3.070888 1_545
Os0 Pm1 3.070880 1_455
Os0 Pm1 3.070880 1_545
Os0 Pm1 3.070880 1_554
Os0 Pm0 3.070884 1_555
Os0 Pm0 3.070884 1_556
Os0 Pm0 3.070884 1_565
Os0 Pm0 3.070884 1_655
Os0 Pm1 3.070896 1_555
