# generated using pymatgen
data_ZrFeSb
_symmetry_space_group_name_H-M   'P 1'
_cell_length_a   4.37008396
_cell_length_b   4.37008396
_cell_length_c   4.37008396
_cell_angle_alpha   60.00000000
_cell_angle_beta   60.00000000
_cell_angle_gamma   60.00000000
_symmetry_Int_Tables_number   1
_chemical_formula_structural   ZrFeSb
_chemical_formula_sum   'Zr1 Fe1 Sb1'
_cell_volume   59.01390373
_cell_formula_units_Z   1
loop_
 _symmetry_equiv_pos_site_id
 _symmetry_equiv_pos_as_xyz
  1  'x, y, z'
loop_
 _atom_site_type_symbol
 _atom_site_label
 _atom_site_symmetry_multiplicity
 _atom_site_fract_x
 _atom_site_fract_y
 _atom_site_fract_z
 _atom_site_occupancy
  Zr  Zr0  1  0.50000000  0.50000000  0.50000000  1
  Fe  Fe0  1  0.75000000  0.75000000  0.75000000  1
  Sb  Sb0  1  0.00000000  0.00000000  0.00000000  1
loop_
_geom_bond_atom_site_label_1
_geom_bond_atom_site_label_2
_geom_bond_distance
_geom_bond_site_symmetry_2
Fe0 Sb0 2.676119 1_566
Fe0 Zr0 2.676119 1_555
Fe0 Zr0 2.676119 1_556
Fe0 Sb0 2.676119 1_656
Fe0 Sb0 2.676119 1_665
Fe0 Sb0 2.676119 1_666
Fe0 Zr0 2.676119 1_655
Fe0 Zr0 2.676119 1_565
Sb0 Zr0 3.090116 1_454
Sb0 Zr0 3.090116 1_445
Sb0 Zr0 3.090116 1_545
Sb0 Zr0 3.090116 1_455
Sb0 Zr0 3.090116 1_554
Sb0 Zr0 3.090116 1_544
