# generated using pymatgen
data_Cs2LiInBr6
_symmetry_space_group_name_H-M   'P 1'
_cell_length_a   7.84378845
_cell_length_b   7.84378845
_cell_length_c   7.84378845
_cell_angle_alpha   60.00000000
_cell_angle_beta   60.00000000
_cell_angle_gamma   60.00000000
_symmetry_Int_Tables_number   1
_chemical_formula_structural   Cs2LiInBr6
_chemical_formula_sum   'Cs2 Li1 In1 Br6'
_cell_volume   341.24210917
_cell_formula_units_Z   1
loop_
 _symmetry_equiv_pos_site_id
 _symmetry_equiv_pos_as_xyz
  1  'x, y, z'
loop_
 _atom_site_type_symbol
 _atom_site_label
 _atom_site_symmetry_multiplicity
 _atom_site_fract_x
 _atom_site_fract_y
 _atom_site_fract_z
 _atom_site_occupancy
  Cs  Cs0  1  0.75000000  0.75000000  0.75000000  1
  Cs  Cs1  1  0.25000000  0.25000000  0.25000000  1
  Li  Li0  1  0.00000000  0.00000000  0.00000000  1
  In  In0  1  0.50000000  0.50000000  0.50000000  1
  Br  Br0  1  0.25407400  0.25407400  0.74592600  1
  Br  Br1  1  0.74592600  0.25407400  0.74592600  1
  Br  Br2  1  0.25407400  0.74592600  0.25407400  1
  Br  Br3  1  0.74592600  0.25407400  0.25407400  1
  Br  Br4  1  0.25407400  0.74592600  0.74592600  1
  Br  Br5  1  0.74592600  0.74592600  0.25407400  1
loop_
_geom_bond_atom_site_label_1
_geom_bond_atom_site_label_2
_geom_bond_distance
_geom_bond_site_symmetry_2
Br0 In0 2.728006 1_555
Br0 Li0 2.818390 1_556
Br0 Cs1 3.922155 1_555
Br0 Cs0 3.922155 1_455
Br0 Cs0 3.922155 1_545
Br0 Cs1 3.922155 1_556
Br1 In0 2.728006 1_555
Br1 Li0 2.818390 1_656
Br1 Cs0 3.922155 1_545
Br1 Cs1 3.922155 1_556
Br1 Cs1 3.922155 1_655
Br1 Cs0 3.922155 1_555
Br2 In0 2.728006 1_555
Br2 Li0 2.818390 1_565
Br2 Cs1 3.922155 1_555
Br2 Cs0 3.922155 1_455
Br2 Cs0 3.922155 1_554
Br2 Cs1 3.922155 1_565
Br3 In0 2.728006 1_555
Br3 Li0 2.818390 1_655
Br3 Cs1 3.922155 1_555
Br3 Cs0 3.922155 1_545
Br3 Cs0 3.922155 1_554
Br3 Cs1 3.922155 1_655
Br4 In0 2.728006 1_555
Br4 Li0 2.818390 1_566
Br4 Cs0 3.922155 1_455
Br4 Cs1 3.922155 1_556
Br4 Cs1 3.922155 1_565
Br4 Cs0 3.922155 1_555
Br5 In0 2.728006 1_555
Br5 Li0 2.818390 1_665
Br5 Cs0 3.922155 1_554
Br5 Cs1 3.922155 1_565
Br5 Cs1 3.922155 1_655
Br5 Cs0 3.922155 1_555
