# generated using pymatgen
data_As3W
_symmetry_space_group_name_H-M   'P 1'
_cell_length_a   6.06181630
_cell_length_b   6.06181630
_cell_length_c   4.61278600
_cell_angle_alpha   90.00000000
_cell_angle_beta   90.00000000
_cell_angle_gamma   120.00000332
_symmetry_Int_Tables_number   1
_chemical_formula_structural   As3W
_chemical_formula_sum   'As6 W2'
_cell_volume   146.79101283
_cell_formula_units_Z   2
loop_
 _symmetry_equiv_pos_site_id
 _symmetry_equiv_pos_as_xyz
  1  'x, y, z'
loop_
 _atom_site_type_symbol
 _atom_site_label
 _atom_site_symmetry_multiplicity
 _atom_site_fract_x
 _atom_site_fract_y
 _atom_site_fract_z
 _atom_site_occupancy
  As  As0  1  0.18707100  0.37414200  0.25000000  1
  As  As1  1  0.62585800  0.81292900  0.25000000  1
  As  As2  1  0.18707100  0.81292900  0.25000000  1
  As  As3  1  0.81292900  0.62585800  0.75000000  1
  As  As4  1  0.37414200  0.18707100  0.75000000  1
  As  As5  1  0.81292900  0.18707100  0.75000000  1
  W  W0  1  0.33333300  0.66666700  0.75000000  1
  W  W1  1  0.66666700  0.33333300  0.25000000  1
loop_
_geom_bond_atom_site_label_1
_geom_bond_atom_site_label_2
_geom_bond_distance
_geom_bond_site_symmetry_2
As0 As1 2.659846 1_555
As0 As2 2.659846 1_555
As0 W0 2.770869 1_555
As0 W0 2.770869 1_554
As0 As5 3.029397 1_455
As0 As5 3.029397 1_454
As0 As4 3.029397 1_555
As0 As4 3.029397 1_554
As0 W1 3.038467 1_455
As0 W1 3.038473 1_555
As1 As2 2.659846 1_555
As1 W0 2.770869 1_555
As1 W0 2.770869 1_554
As1 As5 3.029397 1_565
As1 As5 3.029397 1_564
As1 As3 3.029397 1_554
As1 As3 3.029397 1_555
As1 W1 3.038467 1_565
As1 W1 3.038473 1_555
As2 W0 2.770866 1_555
As2 W0 2.770866 1_554
As2 As3 3.029397 1_454
As2 As4 3.029397 1_564
As2 As4 3.029397 1_565
As2 As3 3.029397 1_455
As2 W1 3.038470 1_455
As2 W1 3.038470 1_565
As3 As4 2.659846 1_555
As3 As5 2.659846 1_555
As3 W1 2.770869 1_555
As3 W1 2.770869 1_556
As3 W0 3.038467 1_655
As3 W0 3.038473 1_555
As4 As5 2.659846 1_555
As4 W1 2.770869 1_555
As4 W1 2.770869 1_556
As4 W0 3.038467 1_545
As4 W0 3.038473 1_555
As5 W1 2.770866 1_555
As5 W1 2.770866 1_556
As5 W0 3.038470 1_545
As5 W0 3.038470 1_655
