# generated using pymatgen
data_CsTlF3
_symmetry_space_group_name_H-M   'P 1'
_cell_length_a   4.78204979
_cell_length_b   4.78204979
_cell_length_c   4.78204949
_cell_angle_alpha   90.08065736
_cell_angle_beta   90.08065736
_cell_angle_gamma   90.08065486
_symmetry_Int_Tables_number   1
_chemical_formula_structural   CsTlF3
_chemical_formula_sum   'Cs1 Tl1 F3'
_cell_volume   109.35558350
_cell_formula_units_Z   1
loop_
 _symmetry_equiv_pos_site_id
 _symmetry_equiv_pos_as_xyz
  1  'x, y, z'
loop_
 _atom_site_type_symbol
 _atom_site_label
 _atom_site_symmetry_multiplicity
 _atom_site_fract_x
 _atom_site_fract_y
 _atom_site_fract_z
 _atom_site_occupancy
  Cs  Cs0  1  0.05393200  0.05393200  0.05393200  1
  Tl  Tl0  1  0.54721100  0.54721100  0.54721100  1
  F  F0  1  0.04650400  0.54317900  0.54317900  1
  F  F1  1  0.54317900  0.54317900  0.04650400  1
  F  F2  1  0.54317900  0.04650400  0.54317900  1
loop_
_geom_bond_atom_site_label_1
_geom_bond_atom_site_label_2
_geom_bond_distance
_geom_bond_site_symmetry_2
Cs0 F0 3.306631 1_555
Cs0 F2 3.306631 1_555
Cs0 F1 3.306631 1_555
Cs0 F2 3.384764 1_554
Cs0 F0 3.384764 1_554
Cs0 F2 3.384764 1_455
Cs0 F0 3.384764 1_545
Cs0 F1 3.384764 1_545
Cs0 F1 3.384764 1_455
Cs0 F2 3.451820 1_454
Cs0 F0 3.451820 1_544
Cs0 F1 3.451821 1_445
F0 Tl0 2.387854 1_455
F0 Tl0 2.394507 1_555
F1 Tl0 2.387854 1_554
F1 Tl0 2.394506 1_555
F2 Tl0 2.387854 1_545
F2 Tl0 2.394507 1_555
