# generated using pymatgen
data_Fe(MoS2)2
_symmetry_space_group_name_H-M   'P 1'
_cell_length_a   6.75677096
_cell_length_b   6.75677096
_cell_length_c   12.72456590
_cell_angle_alpha   67.99655463
_cell_angle_beta   67.99655463
_cell_angle_gamma   56.75080649
_symmetry_Int_Tables_number   1
_chemical_formula_structural   Fe(MoS2)2
_chemical_formula_sum   'Fe4 Mo8 S16'
_cell_volume   439.57782248
_cell_formula_units_Z   4
loop_
 _symmetry_equiv_pos_site_id
 _symmetry_equiv_pos_as_xyz
  1  'x, y, z'
loop_
 _atom_site_type_symbol
 _atom_site_label
 _atom_site_symmetry_multiplicity
 _atom_site_fract_x
 _atom_site_fract_y
 _atom_site_fract_z
 _atom_site_occupancy
  Fe  Fe0  1  0.62955200  0.87330300  0.74989700  1
  Fe  Fe1  1  0.87330300  0.62955200  0.24989700  1
  Fe  Fe2  1  0.37044800  0.12669700  0.25010300  1
  Fe  Fe3  1  0.12669700  0.37044800  0.75010300  1
  Mo  Mo0  1  0.99163800  0.20301100  0.01039400  1
  Mo  Mo1  1  0.20301100  0.99163800  0.51039400  1
  Mo  Mo2  1  0.03316900  0.78556900  0.99137600  1
  Mo  Mo3  1  0.79698900  0.00836200  0.48960600  1
  Mo  Mo4  1  0.55558900  0.27204300  0.99007600  1
  Mo  Mo5  1  0.27204300  0.55558900  0.49007600  1
  Mo  Mo6  1  0.46540200  0.72321300  0.01102300  1
  Mo  Mo7  1  0.72795700  0.44441100  0.50992400  1
  S  S0  1  0.92705800  0.15702300  0.85027300  1
  S  S1  1  0.15702300  0.92705800  0.35027300  1
  S  S2  1  0.09581000  0.83333000  0.15166300  1
  S  S3  1  0.84297700  0.07294200  0.64972700  1
  S  S4  1  0.12756000  0.35900800  0.11295200  1
  S  S5  1  0.35900800  0.12756000  0.61295200  1
  S  S6  1  0.89410600  0.63221300  0.88879700  1
  S  S7  1  0.64099200  0.87244000  0.38704800  1
  S  S8  1  0.61896900  0.86116800  0.11554800  1
  S  S9  1  0.86116800  0.61896900  0.61554800  1
  S  S10  1  0.40259300  0.13240400  0.88602500  1
  S  S11  1  0.13883200  0.38103100  0.38445200  1
  S  S12  1  0.41607600  0.65432000  0.85436600  1
  S  S13  1  0.65432000  0.41607600  0.35436600  1
  S  S14  1  0.60675000  0.33952300  0.14628400  1
  S  S15  1  0.34568000  0.58392400  0.64563400  1
loop_
_geom_bond_atom_site_label_1
_geom_bond_atom_site_label_2
_geom_bond_distance
_geom_bond_site_symmetry_2
Fe0 S3 2.234090 1_565
Fe0 S12 2.338075 1_555
Fe0 S9 2.360589 1_555
Fe0 S10 2.398940 1_565
Fe0 S6 2.447376 1_555
Fe0 S5 2.455508 1_565
Fe1 S2 2.300145 1_655
Fe1 S13 2.338075 1_555
Fe1 S7 2.339133 1_555
Fe1 S8 2.360589 1_555
Fe1 S11 2.411200 1_655
Fe1 S4 2.455508 1_655
Fe2 S1 2.234090 1_545
Fe2 S4 2.339133 1_555
Fe2 S11 2.360589 1_555
Fe2 S8 2.411200 1_545
Fe2 S14 2.424052 1_555
Fe2 S7 2.455508 1_545
Fe3 S0 2.234090 1_455
Fe3 S15 2.338075 1_555
Fe3 S5 2.339133 1_555
Fe3 S9 2.411200 1_455
Fe3 S6 2.434199 1_455
Fe3 S10 2.469215 1_555
Mo0 S2 2.370996 1_645
Mo0 S0 2.393222 1_554
Mo0 S14 2.408114 1_555
Mo0 S10 2.502523 1_654
Mo0 S6 2.558227 1_554
Mo0 S4 2.578325 1_655
Mo1 S3 2.322835 1_465
Mo1 S1 2.393222 1_555
Mo1 S11 2.405990 1_565
Mo1 S15 2.501684 1_555
Mo1 S5 2.578325 1_565
Mo1 S7 2.592864 1_555
Mo2 S0 2.377327 1_465
Mo2 S2 2.394372 1_556
Mo2 S12 2.404633 1_555
Mo2 S8 2.512682 1_456
Mo2 S4 2.547450 1_556
Mo2 S6 2.580782 1_455
Mo3 S1 2.322835 1_645
Mo3 S3 2.393222 1_555
Mo3 S9 2.405990 1_545
Mo3 S13 2.501684 1_555
Mo3 S7 2.578325 1_545
Mo3 S5 2.592864 1_555
Mo4 S0 2.370565 1_555
Mo4 S14 2.375931 1_556
Mo4 S12 2.397879 1_555
Mo4 S8 2.515355 1_546
Mo4 S4 2.567237 1_556
Mo4 S10 2.596740 1_555
Mo5 S15 2.308389 1_555
Mo5 S1 2.370565 1_555
Mo5 S13 2.397879 1_555
Mo5 S9 2.515355 1_455
Mo5 S5 2.567237 1_555
Mo5 S11 2.695558 1_555
Mo6 S2 2.367270 1_555
Mo6 S12 2.380049 1_554
Mo6 S14 2.401802 1_555
Mo6 S10 2.505607 1_564
Mo6 S6 2.564234 1_554
Mo6 S8 2.595805 1_555
Mo7 S13 2.308389 1_555
Mo7 S3 2.370565 1_555
Mo7 S15 2.397879 1_555
Mo7 S11 2.515355 1_655
Mo7 S7 2.567237 1_555
Mo7 S9 2.695558 1_555
