# generated using pymatgen
data_AuF3
_symmetry_space_group_name_H-M   'P 1'
_cell_length_a   5.05649033
_cell_length_b   5.05649015
_cell_length_c   16.52603266
_cell_angle_alpha   90.00000000
_cell_angle_beta   90.00000000
_cell_angle_gamma   119.99998841
_symmetry_Int_Tables_number   1
_chemical_formula_structural   AuF3
_chemical_formula_sum   'Au6 F18'
_cell_volume   365.92967985
_cell_formula_units_Z   6
loop_
 _symmetry_equiv_pos_site_id
 _symmetry_equiv_pos_as_xyz
  1  'x, y, z'
loop_
 _atom_site_type_symbol
 _atom_site_label
 _atom_site_symmetry_multiplicity
 _atom_site_fract_x
 _atom_site_fract_y
 _atom_site_fract_z
 _atom_site_occupancy
  Au  Au0  1  0.76031704  0.52063507  0.75000000  1
  Au  Au1  1  0.23968296  0.76031704  0.91666700  1
  Au  Au2  1  0.52063507  0.76031704  0.58333300  1
  Au  Au3  1  0.47936493  0.23968296  0.08333300  1
  Au  Au4  1  0.76031704  0.23968296  0.41666700  1
  Au  Au5  1  0.23968296  0.47936493  0.25000000  1
  F  F0  1  0.78460014  0.46544520  0.16268757  1
  F  F1  1  0.53455480  0.31915394  0.49602157  1
  F  F2  1  0.68084606  0.21539986  0.82935457  1
  F  F3  1  0.31915394  0.78460014  0.32935457  1
  F  F4  1  0.21539986  0.68084606  0.50397843  1
  F  F5  1  0.21539986  0.53455480  0.66268757  1
  F  F6  1  0.15494538  -0.00000000  -0.00000000  1
  F  F7  1  0.15494538  0.15494538  0.16666700  1
  F  F8  1  0.00000000  0.84505462  0.83333300  1
  F  F9  1  -0.00000000  0.15494538  0.33333300  1
  F  F10  1  0.84505462  0.84505462  0.66666700  1
  F  F11  1  0.84505462  0.00000000  0.50000000  1
  F  F12  1  0.78460014  0.31915394  0.00397843  1
  F  F13  1  0.46544520  0.78460014  0.17064543  1
  F  F14  1  0.31915394  0.53455480  0.83731243  1
  F  F15  1  0.68084606  0.46544520  0.33731243  1
  F  F16  1  0.53455480  0.21539986  0.67064543  1
  F  F17  1  0.46544520  0.68084606  0.99602157  1
loop_
_geom_bond_atom_site_label_1
_geom_bond_atom_site_label_2
_geom_bond_distance
_geom_bond_site_symmetry_2
Au0 F16 1.908720 1_555
Au0 F2 1.908722 1_555
Au0 F10 2.016998 1_555
Au0 F8 2.017000 1_655
Au1 F14 1.908715 1_555
Au1 F17 1.908715 1_555
Au1 F6 2.017002 1_566
Au1 F8 2.017013 1_555
Au2 F5 1.908720 1_555
Au2 F4 1.908722 1_555
Au2 F11 2.017000 1_565
Au2 F10 2.017010 1_555
Au3 F0 1.908720 1_555
Au3 F12 1.908722 1_555
Au3 F6 2.017000 1_555
Au3 F7 2.017010 1_555
Au4 F15 1.908715 1_555
Au4 F1 1.908715 1_555
Au4 F11 2.017002 1_555
Au4 F9 2.017013 1_655
Au5 F13 1.908720 1_555
Au5 F3 1.908722 1_555
Au5 F7 2.016998 1_555
Au5 F9 2.017000 1_555
