# generated using pymatgen
data_Nd3Zr
_symmetry_space_group_name_H-M   'P 1'
_cell_length_a   7.14648203
_cell_length_b   7.14648203
_cell_length_c   5.76478600
_cell_angle_alpha   90.00000000
_cell_angle_beta   90.00000000
_cell_angle_gamma   120.00000032
_symmetry_Int_Tables_number   1
_chemical_formula_structural   Nd3Zr
_chemical_formula_sum   'Nd6 Zr2'
_cell_volume   254.97548877
_cell_formula_units_Z   2
loop_
 _symmetry_equiv_pos_site_id
 _symmetry_equiv_pos_as_xyz
  1  'x, y, z'
loop_
 _atom_site_type_symbol
 _atom_site_label
 _atom_site_symmetry_multiplicity
 _atom_site_fract_x
 _atom_site_fract_y
 _atom_site_fract_z
 _atom_site_occupancy
  Nd  Nd0  1  0.17158300  0.34316500  0.25000000  1
  Nd  Nd1  1  0.65683500  0.82841700  0.25000000  1
  Nd  Nd2  1  0.17158300  0.82841700  0.25000000  1
  Nd  Nd3  1  0.82841700  0.65683500  0.75000000  1
  Nd  Nd4  1  0.34316500  0.17158300  0.75000000  1
  Nd  Nd5  1  0.82841700  0.17158300  0.75000000  1
  Zr  Zr0  1  0.33333300  0.66666700  0.75000000  1
  Zr  Zr1  1  0.66666700  0.33333300  0.25000000  1
loop_
_geom_bond_atom_site_label_1
_geom_bond_atom_site_label_2
_geom_bond_distance
_geom_bond_site_symmetry_2
Nd0 Nd1 3.467845 1_555
Nd0 Nd2 3.467845 1_555
Nd0 Zr0 3.509538 1_554
Nd0 Zr0 3.509538 1_555
Nd0 Zr1 3.573759 1_455
Nd0 Zr1 3.573759 1_555
Nd0 Nd4 3.580355 1_555
Nd0 Nd4 3.580355 1_554
Nd0 Nd5 3.580363 1_455
Nd0 Nd5 3.580363 1_454
Nd0 Nd1 3.678637 1_445
Nd0 Nd2 3.678637 1_545
Nd1 Nd2 3.467845 1_555
Nd1 Zr0 3.509538 1_555
Nd1 Zr0 3.509538 1_554
Nd1 Zr1 3.573759 1_565
Nd1 Zr1 3.573759 1_555
Nd1 Nd3 3.580355 1_554
Nd1 Nd3 3.580355 1_555
Nd1 Nd5 3.580363 1_565
Nd1 Nd5 3.580363 1_564
Nd1 Nd2 3.678637 1_655
Nd2 Zr0 3.509531 1_555
Nd2 Zr0 3.509531 1_554
Nd2 Zr1 3.573759 1_455
Nd2 Zr1 3.573759 1_565
Nd2 Nd4 3.580363 1_564
Nd2 Nd4 3.580363 1_565
Nd2 Nd3 3.580363 1_454
Nd2 Nd3 3.580363 1_455
Nd3 Nd4 3.467845 1_555
Nd3 Nd5 3.467845 1_555
Nd3 Zr1 3.509538 1_555
Nd3 Zr1 3.509538 1_556
Nd3 Zr0 3.573759 1_655
Nd3 Zr0 3.573759 1_555
Nd3 Nd4 3.678637 1_665
Nd3 Nd5 3.678637 1_565
Nd4 Nd5 3.467845 1_555
Nd4 Zr1 3.509538 1_555
Nd4 Zr1 3.509538 1_556
Nd4 Zr0 3.573759 1_545
Nd4 Zr0 3.573759 1_555
Nd4 Nd5 3.678637 1_455
Nd5 Zr1 3.509531 1_555
Nd5 Zr1 3.509531 1_556
Nd5 Zr0 3.573759 1_545
Nd5 Zr0 3.573759 1_655
