# generated using pymatgen
data_Ti3Se4
_symmetry_space_group_name_H-M   'P 1'
_cell_length_a   9.90115543
_cell_length_b   9.90115565
_cell_length_c   3.57632180
_cell_angle_alpha   90.00000000
_cell_angle_beta   90.00000000
_cell_angle_gamma   120.00000379
_symmetry_Int_Tables_number   1
_chemical_formula_structural   Ti3Se4
_chemical_formula_sum   'Ti6 Se8'
_cell_volume   303.62600890
_cell_formula_units_Z   2
loop_
 _symmetry_equiv_pos_site_id
 _symmetry_equiv_pos_as_xyz
  1  'x, y, z'
loop_
 _atom_site_type_symbol
 _atom_site_label
 _atom_site_symmetry_multiplicity
 _atom_site_fract_x
 _atom_site_fract_y
 _atom_site_fract_z
 _atom_site_occupancy
  Ti  Ti0  1  0.51099701  0.64221136  0.75000000  1
  Ti  Ti1  1  0.86878564  0.51099701  0.25000000  1
  Ti  Ti2  1  0.64221136  0.13121436  0.25000000  1
  Ti  Ti3  1  0.35778864  0.86878564  0.75000000  1
  Ti  Ti4  1  0.13121436  0.48900299  0.75000000  1
  Ti  Ti5  1  0.48900299  0.35778864  0.25000000  1
  Se  Se0  1  0.64809691  0.95119671  0.75000000  1
  Se  Se1  1  0.69689920  0.64809691  0.25000000  1
  Se  Se2  1  0.95119671  0.30310080  0.25000000  1
  Se  Se3  1  0.04880329  0.69689920  0.75000000  1
  Se  Se4  1  0.30310080  0.35190309  0.75000000  1
  Se  Se5  1  0.35190309  0.04880329  0.25000000  1
  Se  Se6  1  0.33333300  0.66666700  0.25000000  1
  Se  Se7  1  0.66666700  0.33333300  0.75000000  1
loop_
_geom_bond_atom_site_label_1
_geom_bond_atom_site_label_2
_geom_bond_distance
_geom_bond_site_symmetry_2
Se0 Ti2 2.545912 1_565
Se0 Ti2 2.545912 1_566
Se0 Ti3 2.565639 1_555
Se0 Ti0 2.655033 1_555
Se1 Ti0 2.545905 1_554
Se1 Ti0 2.545905 1_555
Se1 Ti5 2.565636 1_555
Se1 Ti1 2.655041 1_555
Se2 Ti4 2.545909 1_655
Se2 Ti4 2.545909 1_654
Se2 Ti1 2.565629 1_555
Se2 Ti2 2.655033 1_555
Se3 Ti1 2.545909 1_456
Se3 Ti1 2.545909 1_455
Se3 Ti4 2.565629 1_555
Se3 Ti3 2.655033 1_555
Se4 Ti5 2.545905 1_555
Se4 Ti5 2.545905 1_556
Se4 Ti0 2.565636 1_555
Se4 Ti4 2.655041 1_555
Se5 Ti3 2.545912 1_545
Se5 Ti3 2.545912 1_544
Se5 Ti2 2.565639 1_555
Se5 Ti5 2.655033 1_555
Se6 Ti3 2.603155 1_555
Se6 Ti3 2.603155 1_554
Se6 Ti4 2.603157 1_555
Se6 Ti4 2.603157 1_554
Se6 Ti0 2.603162 1_555
Se6 Ti0 2.603162 1_554
Se7 Ti2 2.603155 1_555
Se7 Ti2 2.603155 1_556
Se7 Ti1 2.603157 1_555
Se7 Ti1 2.603157 1_556
Se7 Ti5 2.603162 1_555
Se7 Ti5 2.603162 1_556
