# generated using pymatgen
data_AgPbO2
_symmetry_space_group_name_H-M   'P 1'
_cell_length_a   6.75842155
_cell_length_b   6.75842155
_cell_length_c   6.50055942
_cell_angle_alpha   81.88709522
_cell_angle_beta   81.88709522
_cell_angle_gamma   30.54550510
_symmetry_Int_Tables_number   1
_chemical_formula_structural   AgPbO2
_chemical_formula_sum   'Ag2 Pb2 O4'
_cell_volume   149.27860811
_cell_formula_units_Z   2
loop_
 _symmetry_equiv_pos_site_id
 _symmetry_equiv_pos_as_xyz
  1  'x, y, z'
loop_
 _atom_site_type_symbol
 _atom_site_label
 _atom_site_symmetry_multiplicity
 _atom_site_fract_x
 _atom_site_fract_y
 _atom_site_fract_z
 _atom_site_occupancy
  Ag  Ag0  1  0.74968000  0.74968000  0.19532700  1
  Ag  Ag1  1  0.25032000  0.25032000  0.80467300  1
  Pb  Pb0  1  0.50000000  0.50000000  0.00000000  1
  Pb  Pb1  1  0.00000000  0.00000000  0.50000000  1
  O  O0  1  0.91236000  0.91236000  0.17037900  1
  O  O1  1  0.41239600  0.41239600  0.73793700  1
  O  O2  1  0.58760400  0.58760400  0.26206300  1
  O  O3  1  0.08764000  0.08764000  0.82962100  1
loop_
_geom_bond_atom_site_label_1
_geom_bond_atom_site_label_2
_geom_bond_distance
_geom_bond_site_symmetry_2
Ag0 O2 2.094361 1_555
Ag0 O0 2.103662 1_555
Ag1 O1 2.094361 1_555
Ag1 O3 2.103662 1_555
O0 Pb0 2.309038 1_565
O0 Pb0 2.309038 1_655
O0 Pb1 2.571697 1_665
O1 Pb0 2.185483 1_556
O1 Pb1 2.519846 1_565
O1 Pb1 2.519846 1_655
O2 Pb0 2.185483 1_555
O2 Pb1 2.519846 1_565
O2 Pb1 2.519846 1_655
O3 Pb0 2.309038 1_546
O3 Pb0 2.309038 1_456
O3 Pb1 2.571697 1_555
