# generated using pymatgen
data_Sm3Ho
_symmetry_space_group_name_H-M   'P 1'
_cell_length_a   7.35519580
_cell_length_b   7.35520058
_cell_length_c   5.85962154
_cell_angle_alpha   90.00000000
_cell_angle_beta   90.00000000
_cell_angle_gamma   119.99996396
_symmetry_Int_Tables_number   1
_chemical_formula_structural   Sm3Ho
_chemical_formula_sum   'Sm6 Ho2'
_cell_volume   274.52956100
_cell_formula_units_Z   2
loop_
 _symmetry_equiv_pos_site_id
 _symmetry_equiv_pos_as_xyz
  1  'x, y, z'
loop_
 _atom_site_type_symbol
 _atom_site_label
 _atom_site_symmetry_multiplicity
 _atom_site_fract_x
 _atom_site_fract_y
 _atom_site_fract_z
 _atom_site_occupancy
  Sm  Sm0  1  0.16913617  0.33827234  0.25000000  1
  Sm  Sm1  1  0.66172966  0.83086583  0.25000000  1
  Sm  Sm2  1  0.16913517  0.83086583  0.25000000  1
  Sm  Sm3  1  0.83086383  0.66172766  0.75000000  1
  Sm  Sm4  1  0.33827134  0.16913517  0.75000000  1
  Sm  Sm5  1  0.83086483  0.16913517  0.75000000  1
  Ho  Ho0  1  0.33333400  0.66666800  0.75000000  1
  Ho  Ho1  1  0.66666600  0.33333300  0.25000000  1
loop_
_geom_bond_atom_site_label_1
_geom_bond_atom_site_label_2
_geom_bond_distance
_geom_bond_site_symmetry_2
Sm0 Sm1 3.623125 1_555
Sm0 Sm2 3.623128 1_555
Sm0 Sm5 3.636839 1_454
Sm0 Sm5 3.636839 1_455
Sm0 Sm4 3.636842 1_555
Sm0 Sm4 3.636842 1_554
Sm0 Sm2 3.732073 1_545
Sm0 Sm1 3.732077 1_445
Sm1 Sm2 3.623129 1_555
Sm1 Sm5 3.636832 1_564
Sm1 Sm5 3.636832 1_565
Sm1 Sm3 3.636842 1_554
Sm1 Sm3 3.636842 1_555
Sm1 Sm2 3.732067 1_655
Sm2 Sm4 3.636832 1_564
Sm2 Sm4 3.636832 1_565
Sm2 Sm3 3.636839 1_454
Sm2 Sm3 3.636839 1_455
Sm3 Sm4 3.623117 1_555
Sm3 Sm5 3.623120 1_555
Sm3 Sm5 3.732080 1_565
Sm3 Sm4 3.732085 1_665
Sm4 Sm5 3.623122 1_555
Sm4 Sm5 3.732074 1_455
Ho0 Sm1 3.599926 1_555
Ho0 Sm1 3.599926 1_556
Ho0 Sm0 3.599926 1_556
Ho0 Sm0 3.599926 1_555
Ho0 Sm2 3.599929 1_556
Ho0 Sm2 3.599929 1_555
Ho0 Sm4 3.677724 1_565
Ho0 Sm5 3.677728 1_565
Ho0 Sm3 3.677733 1_555
Ho0 Sm3 3.677733 1_455
Ho0 Sm5 3.677743 1_455
Ho0 Sm4 3.677746 1_555
Ho1 Sm4 3.599922 1_555
Ho1 Sm4 3.599922 1_554
Ho1 Sm3 3.599923 1_554
Ho1 Sm3 3.599923 1_555
Ho1 Sm5 3.599929 1_554
Ho1 Sm5 3.599929 1_555
Ho1 Sm1 3.677727 1_545
Ho1 Sm2 3.677728 1_545
Ho1 Sm0 3.677729 1_555
Ho1 Sm0 3.677736 1_655
Ho1 Sm1 3.677742 1_555
Ho1 Sm2 3.677743 1_655
