# generated using pymatgen
data_CaTlF3
_symmetry_space_group_name_H-M   'P 1'
_cell_length_a   4.47046042
_cell_length_b   4.47046042
_cell_length_c   4.45005966
_cell_angle_alpha   90.00000000
_cell_angle_beta   90.00000000
_cell_angle_gamma   90.34013458
_symmetry_Int_Tables_number   1
_chemical_formula_structural   CaTlF3
_chemical_formula_sum   'Ca1 Tl1 F3'
_cell_volume   88.93294789
_cell_formula_units_Z   1
loop_
 _symmetry_equiv_pos_site_id
 _symmetry_equiv_pos_as_xyz
  1  'x, y, z'
loop_
 _atom_site_type_symbol
 _atom_site_label
 _atom_site_symmetry_multiplicity
 _atom_site_fract_x
 _atom_site_fract_y
 _atom_site_fract_z
 _atom_site_occupancy
  Ca  Ca0  1  0.50896713  0.49103287  0.00000000  1
  Tl  Tl0  1  0.05213452  0.94786548  0.50000000  1
  F  F0  1  0.47113141  0.99491728  -0.00000000  1
  F  F1  1  0.47552622  0.52447378  0.50000000  1
  F  F2  1  0.00508272  0.52886859  0.00000000  1
loop_
_geom_bond_atom_site_label_1
_geom_bond_atom_site_label_2
_geom_bond_distance
_geom_bond_site_symmetry_2
Ca0 F0 2.223304 1_545
Ca0 F2 2.223304 1_655
Ca0 F1 2.235111 1_555
Ca0 F1 2.235111 1_554
Ca0 F0 2.259938 1_555
Ca0 F2 2.259938 1_555
F1 Tl0 2.684694 1_555
