# generated using pymatgen
data_Ba2Si3Ag
_symmetry_space_group_name_H-M   'P 1'
_cell_length_a   12.47996987
_cell_length_b   10.88585391
_cell_length_c   8.62572817
_cell_angle_alpha   78.59026895
_cell_angle_beta   58.76362738
_cell_angle_gamma   42.64833660
_symmetry_Int_Tables_number   1
_chemical_formula_structural   Ba2Si3Ag
_chemical_formula_sum   'Ba8 Si12 Ag4'
_cell_volume   643.83643303
_cell_formula_units_Z   4
loop_
 _symmetry_equiv_pos_site_id
 _symmetry_equiv_pos_as_xyz
  1  'x, y, z'
loop_
 _atom_site_type_symbol
 _atom_site_label
 _atom_site_symmetry_multiplicity
 _atom_site_fract_x
 _atom_site_fract_y
 _atom_site_fract_z
 _atom_site_occupancy
  Ba  Ba0  1  0.12561336  0.12560712  0.37439744  1
  Ba  Ba1  1  0.87561137  0.87560970  0.12439740  1
  Ba  Ba2  1  0.12438646  0.12439256  0.87560259  1
  Ba  Ba3  1  0.37438847  0.37439100  0.12560266  1
  Ba  Ba4  1  0.62448813  0.62449776  0.37550146  1
  Ba  Ba5  1  0.37550733  0.37550969  0.62450377  1
  Ba  Ba6  1  0.62551162  0.62550271  0.87449847  1
  Ba  Ba7  1  0.87449248  0.87449036  0.62549628  1
  Si  Si0  1  0.33768020  0.65662406  0.82191515  1
  Si  Si1  1  0.18379806  0.82192902  0.65662427  1
  Si  Si2  1  0.82188301  0.18382690  0.33770494  1
  Si  Si3  1  0.65656708  0.33771647  0.18384463  1
  Si  Si4  1  0.91231967  0.59337599  0.42808479  1
  Si  Si5  1  0.06620178  0.42807103  0.59337583  1
  Si  Si6  1  0.42811675  0.06617331  0.91229508  1
  Si  Si7  1  0.90987470  0.59010246  0.90986982  1
  Si  Si8  1  0.65987111  0.34012245  0.65987886  1
  Si  Si9  1  0.34012526  0.65989754  0.34013043  1
  Si  Si10  1  0.59012844  0.90987736  0.59012130  1
  Si  Si11  1  0.59343332  0.91228425  0.06615490  1
  Ag  Ag0  1  0.08298037  0.41699002  0.08302595  1
  Ag  Ag1  1  0.16702026  0.83301010  0.16697405  1
  Ag  Ag2  1  0.41700786  0.08298108  0.41698337  1
  Ag  Ag3  1  0.83299192  0.16701907  0.83301657  1
loop_
_geom_bond_atom_site_label_1
_geom_bond_atom_site_label_2
_geom_bond_distance
_geom_bond_site_symmetry_2
Ba0 Si5 3.517867 1_555
Ba0 Si6 3.518427 1_554
Ba0 Si1 3.535540 1_545
Ba0 Si2 3.535676 1_455
Ba0 Si9 3.572491 1_545
Ba0 Si8 3.572837 1_455
Ba0 Si4 3.597819 1_455
Ba0 Si11 3.598247 1_545
Ba1 Si0 3.518256 1_654
Ba1 Si3 3.518328 1_565
Ba1 Si11 3.535618 1_555
Ba1 Si4 3.535682 1_555
Ba1 Si10 3.572735 1_555
Ba1 Si7 3.573012 1_554
Ba1 Si2 3.598026 1_565
Ba1 Si1 3.598077 1_654
Ba2 Si1 3.517863 1_545
Ba2 Si2 3.518425 1_456
Ba2 Si5 3.535542 1_555
Ba2 Si6 3.535679 1_555
Ba2 Si7 3.572494 1_455
Ba2 Si10 3.572835 1_545
Ba2 Si0 3.597816 1_545
Ba2 Si3 3.598236 1_456
Ba3 Si4 3.518259 1_455
Ba3 Si11 3.518326 1_545
Ba3 Si3 3.535622 1_555
Ba3 Si0 3.535678 1_554
Ba3 Si8 3.572730 1_554
Ba3 Si9 3.573008 1_555
Ba3 Si6 3.598031 1_554
Ba3 Si5 3.598080 1_555
Ba4 Si2 3.404206 1_555
Ba4 Si1 3.404272 1_555
Ba4 Si9 3.449715 1_555
Ba4 Si8 3.450117 1_555
Ba4 Si3 3.486581 1_555
Ba4 Si0 3.486861 1_555
Ba4 Si7 3.571265 1_554
Ba4 Si10 3.571335 1_555
Ba4 Si4 3.614231 1_555
Ba4 Si11 3.614386 1_555
Ba5 Si3 3.404191 1_555
Ba5 Si0 3.404393 1_555
Ba5 Si8 3.449838 1_555
Ba5 Si9 3.450188 1_555
Ba5 Si2 3.486675 1_555
Ba5 Si1 3.486934 1_555
Ba5 Si10 3.571263 1_545
Ba5 Si7 3.571440 1_455
Ba5 Si6 3.614343 1_555
Ba5 Si5 3.614572 1_555
Ba6 Si6 3.404203 1_565
Ba6 Si5 3.404271 1_655
Ba6 Si7 3.449716 1_555
Ba6 Si10 3.450111 1_555
Ba6 Si11 3.486588 1_556
Ba6 Si4 3.486859 1_555
Ba6 Si9 3.571268 1_556
Ba6 Si8 3.571342 1_555
Ba6 Si0 3.614233 1_555
Ba6 Si3 3.614381 1_556
Ba7 Si11 3.404182 1_556
Ba7 Si4 3.404393 1_555
Ba7 Si10 3.449843 1_555
Ba7 Si7 3.450190 1_555
Ba7 Si6 3.486675 1_565
Ba7 Si5 3.486934 1_655
Ba7 Si8 3.571259 1_565
Ba7 Si9 3.571441 1_655
Ba7 Si2 3.614344 1_565
Ba7 Si1 3.614572 1_655
Si0 Si8 2.385205 1_555
Si0 Si1 2.387476 1_555
Si1 Si9 2.385230 1_555
Si2 Si8 2.385011 1_555
Si2 Si3 2.387498 1_555
Si3 Si9 2.384956 1_555
Si4 Si5 2.387477 1_655
Si5 Si7 2.385232 1_455
Si10 Si6 2.385012 1_565
Si10 Si4 2.385205 1_555
Si11 Si7 2.384957 1_554
Si11 Si6 2.387500 1_564
Ag0 Si7 2.587140 1_454
Ag0 Si4 2.598550 1_455
Ag0 Si6 2.598923 1_554
Ag0 Ba0 3.522942 1_555
Ag0 Ba3 3.523200 1_555
Ag0 Ba4 3.532337 1_455
Ag0 Ba5 3.532819 1_554
Ag0 Ba2 3.533852 1_554
Ag0 Ba1 3.534152 1_455
Ag1 Si9 2.587136 1_555
Ag1 Si0 2.598553 1_554
Ag1 Si2 2.598926 1_465
Ag1 Ba2 3.522937 1_564
Ag1 Ba1 3.523206 1_455
Ag1 Ba6 3.532330 1_554
Ag1 Ba7 3.532823 1_455
Ag1 Ba0 3.533840 1_565
Ag1 Ba3 3.534150 1_555
Ag2 Si10 2.587115 1_545
Ag2 Si5 2.598720 1_555
Ag2 Si11 2.598872 1_545
Ag2 Ba0 3.522891 1_555
Ag2 Ba3 3.523205 1_555
Ag2 Ba4 3.532327 1_545
Ag2 Ba5 3.532773 1_555
Ag2 Ba1 3.534030 1_545
Ag2 Ba2 3.534060 1_555
Ag3 Si8 2.587115 1_555
Ag3 Si1 2.598720 1_645
Ag3 Si3 2.598873 1_556
Ag3 Ba2 3.522888 1_655
Ag3 Ba1 3.523202 1_546
Ag3 Ba6 3.532330 1_555
Ag3 Ba7 3.532773 1_545
Ag3 Ba3 3.534027 1_556
Ag3 Ba0 3.534057 1_655
