# generated using pymatgen
data_VPd3
_symmetry_space_group_name_H-M   'P 1'
_cell_length_a   5.48472592
_cell_length_b   5.48505795
_cell_length_c   4.46348176
_cell_angle_alpha   90.00000000
_cell_angle_beta   90.00000000
_cell_angle_gamma   120.11981051
_symmetry_Int_Tables_number   1
_chemical_formula_structural   VPd3
_chemical_formula_sum   'V2 Pd6'
_cell_volume   116.14886225
_cell_formula_units_Z   2
loop_
 _symmetry_equiv_pos_site_id
 _symmetry_equiv_pos_as_xyz
  1  'x, y, z'
loop_
 _atom_site_type_symbol
 _atom_site_label
 _atom_site_symmetry_multiplicity
 _atom_site_fract_x
 _atom_site_fract_y
 _atom_site_fract_z
 _atom_site_occupancy
  V  V0  1  0.33312567  0.66655610  0.74999900  1
  V  V1  1  0.66686241  0.33364540  0.25000100  1
  Pd  Pd0  1  0.16903532  0.33799699  0.25000100  1
  Pd  Pd1  1  0.66190271  0.83091162  0.25000100  1
  Pd  Pd2  1  0.16919466  0.83084627  0.25000100  1
  Pd  Pd3  1  0.83097820  0.66195424  0.74999900  1
  Pd  Pd4  1  0.33808625  0.16901047  0.74999900  1
  Pd  Pd5  1  0.83081978  0.16908491  0.74999900  1
loop_
_geom_bond_atom_site_label_1
_geom_bond_atom_site_label_2
_geom_bond_distance
_geom_bond_site_symmetry_2
Pd0 Pd1 2.698557 1_555
Pd0 Pd2 2.702868 1_555
Pd0 V0 2.722243 1_555
Pd0 V0 2.722258 1_554
Pd0 V1 2.742381 1_455
Pd0 V1 2.742500 1_555
Pd0 Pd5 2.748678 1_455
Pd0 Pd5 2.748692 1_454
Pd0 Pd4 2.749909 1_555
Pd0 Pd4 2.749924 1_554
Pd0 Pd1 2.776399 1_445
Pd0 Pd2 2.782190 1_545
Pd1 Pd2 2.702189 1_555
Pd1 V0 2.722780 1_555
Pd1 V0 2.722795 1_554
Pd1 V1 2.741286 1_555
Pd1 V1 2.743974 1_565
Pd1 Pd5 2.748618 1_565
Pd1 Pd5 2.748632 1_564
Pd1 Pd3 2.749896 1_555
Pd1 Pd3 2.749911 1_554
Pd1 Pd2 2.782537 1_655
Pd2 V0 2.722913 1_555
Pd2 V0 2.722928 1_554
Pd2 V1 2.736307 1_455
Pd2 V1 2.738866 1_565
Pd2 Pd4 2.748593 1_565
Pd2 Pd4 2.748607 1_564
Pd2 Pd3 2.748681 1_455
Pd2 Pd3 2.748695 1_454
Pd3 Pd4 2.698704 1_555
Pd3 Pd5 2.702981 1_555
Pd3 V1 2.721562 1_555
Pd3 V1 2.721577 1_556
Pd3 V0 2.741562 1_655
Pd3 V0 2.743338 1_555
Pd3 Pd4 2.776252 1_665
Pd3 Pd5 2.782077 1_565
Pd4 Pd5 2.702303 1_555
Pd4 V1 2.722776 1_555
Pd4 V1 2.722791 1_556
Pd4 V0 2.742439 1_545
Pd4 V0 2.742821 1_555
Pd4 Pd5 2.782422 1_455
Pd5 V1 2.723722 1_555
Pd5 V1 2.723736 1_556
Pd5 V0 2.736963 1_655
Pd5 V0 2.738186 1_545
