# generated using pymatgen
data_Nb2AlC
_symmetry_space_group_name_H-M   'P 1'
_cell_length_a   3.12256925
_cell_length_b   3.12256978
_cell_length_c   13.93806553
_cell_angle_alpha   90.00000000
_cell_angle_beta   90.00000000
_cell_angle_gamma   120.00001584
_symmetry_Int_Tables_number   1
_chemical_formula_structural   Nb2AlC
_chemical_formula_sum   'Nb4 Al2 C2'
_cell_volume   117.69480554
_cell_formula_units_Z   2
loop_
 _symmetry_equiv_pos_site_id
 _symmetry_equiv_pos_as_xyz
  1  'x, y, z'
loop_
 _atom_site_type_symbol
 _atom_site_label
 _atom_site_symmetry_multiplicity
 _atom_site_fract_x
 _atom_site_fract_y
 _atom_site_fract_z
 _atom_site_occupancy
  Nb  Nb0  1  0.33333300  0.66666700  0.08974860  1
  Nb  Nb1  1  0.66666700  0.33333300  0.58974860  1
  Nb  Nb2  1  0.66666700  0.33333300  0.91025140  1
  Nb  Nb3  1  0.33333300  0.66666700  0.41025140  1
  Al  Al0  1  0.33333300  0.66666700  0.75000000  1
  Al  Al1  1  0.66666700  0.33333300  0.25000000  1
  C  C0  1  -0.00000000  0.00000000  0.00000000  1
  C  C1  1  -0.00000000  0.00000000  0.50000000  1
loop_
_geom_bond_atom_site_label_1
_geom_bond_atom_site_label_2
_geom_bond_distance
_geom_bond_site_symmetry_2
Al0 Nb2 2.870380 1_455
Al0 Nb1 2.870380 1_455
Al0 Nb2 2.870381 1_565
Al0 Nb1 2.870381 1_565
Al0 Nb2 2.870384 1_555
Al0 Nb1 2.870384 1_555
Al1 Nb3 2.870380 1_655
Al1 Nb0 2.870380 1_655
Al1 Nb0 2.870381 1_545
Al1 Nb3 2.870381 1_545
Al1 Nb3 2.870384 1_555
Al1 Nb0 2.870384 1_555
C0 Nb0 2.194299 1_545
C0 Nb2 2.194299 1_454
C0 Nb0 2.194300 1_445
C0 Nb2 2.194300 1_554
C0 Nb0 2.194301 1_555
C0 Nb2 2.194301 1_444
C1 Nb1 2.194299 1_455
C1 Nb3 2.194299 1_545
C1 Nb1 2.194300 1_555
C1 Nb3 2.194300 1_445
C1 Nb1 2.194301 1_445
C1 Nb3 2.194301 1_555
