# generated using pymatgen
data_NaCd3
_symmetry_space_group_name_H-M   'P 1'
_cell_length_a   6.37745327
_cell_length_b   6.37745267
_cell_length_c   5.10765316
_cell_angle_alpha   90.00000000
_cell_angle_beta   90.00000000
_cell_angle_gamma   119.96921467
_symmetry_Int_Tables_number   1
_chemical_formula_structural   NaCd3
_chemical_formula_sum   'Na2 Cd6'
_cell_volume   179.96216111
_cell_formula_units_Z   2
loop_
 _symmetry_equiv_pos_site_id
 _symmetry_equiv_pos_as_xyz
  1  'x, y, z'
loop_
 _atom_site_type_symbol
 _atom_site_label
 _atom_site_symmetry_multiplicity
 _atom_site_fract_x
 _atom_site_fract_y
 _atom_site_fract_z
 _atom_site_occupancy
  Na  Na0  1  0.33365748  0.66633952  0.75000000  1
  Na  Na1  1  0.66634152  0.33365848  0.25000100  1
  Cd  Cd0  1  0.16433877  0.32944992  0.25000100  1
  Cd  Cd1  1  0.67054908  0.83566023  0.25000100  1
  Cd  Cd2  1  0.16483116  0.83516884  0.25000100  1
  Cd  Cd3  1  0.83566223  0.67055108  0.75000000  1
  Cd  Cd4  1  0.32945092  0.16433877  0.75000000  1
  Cd  Cd5  1  0.83516784  0.16483216  0.75000000  1
loop_
_geom_bond_atom_site_label_1
_geom_bond_atom_site_label_2
_geom_bond_distance
_geom_bond_site_symmetry_2
Cd0 Na0 3.160099 1_555
Cd0 Na0 3.160107 1_554
Cd0 Na1 3.188176 1_555
Cd0 Na1 3.189446 1_455
Cd1 Na0 3.160106 1_555
Cd1 Na0 3.160114 1_554
Cd1 Na1 3.188173 1_555
Cd1 Na1 3.189449 1_565
Cd2 Na0 3.162075 1_555
Cd2 Na0 3.162083 1_554
Cd2 Na1 3.190254 1_455
Cd2 Na1 3.190254 1_565
Cd3 Na1 3.160109 1_555
Cd3 Na1 3.160117 1_556
Cd3 Na0 3.188180 1_555
Cd3 Na0 3.189443 1_655
Cd4 Na1 3.160102 1_555
Cd4 Na1 3.160111 1_556
Cd4 Na0 3.188170 1_555
Cd4 Na0 3.189452 1_545
Cd5 Na1 3.162065 1_555
Cd5 Na1 3.162074 1_556
Cd5 Na0 3.190244 1_655
Cd5 Na0 3.190263 1_545
