# generated using pymatgen
data_CsV5S8
_symmetry_space_group_name_H-M   'P 1'
_cell_length_a   9.00081555
_cell_length_b   9.00081555
_cell_length_c   8.96788203
_cell_angle_alpha   76.78435987
_cell_angle_beta   76.78435987
_cell_angle_gamma   21.55057403
_symmetry_Int_Tables_number   1
_chemical_formula_structural   CsV5S8
_chemical_formula_sum   'Cs1 V5 S8'
_cell_volume   259.54348288
_cell_formula_units_Z   1
loop_
 _symmetry_equiv_pos_site_id
 _symmetry_equiv_pos_as_xyz
  1  'x, y, z'
loop_
 _atom_site_type_symbol
 _atom_site_label
 _atom_site_symmetry_multiplicity
 _atom_site_fract_x
 _atom_site_fract_y
 _atom_site_fract_z
 _atom_site_occupancy
  Cs  Cs0  1  0.50000000  0.50000000  0.50000000  1
  V  V0  1  0.00000000  0.00000000  0.00000000  1
  V  V1  1  0.35126100  0.35126100  0.99397300  1
  V  V2  1  0.29449100  0.29449100  0.33104900  1
  V  V3  1  0.70550900  0.70550900  0.66895100  1
  V  V4  1  0.64873900  0.64873900  0.00602700  1
  S  S0  1  0.42798200  0.42798200  0.16767600  1
  S  S1  1  0.91102200  0.91102200  0.83001300  1
  S  S2  1  0.82969300  0.82969300  0.49176900  1
  S  S3  1  0.76052300  0.76052300  0.15071700  1
  S  S4  1  0.23947700  0.23947700  0.84928300  1
  S  S5  1  0.17030700  0.17030700  0.50823100  1
  S  S6  1  0.08897800  0.08897800  0.16998700  1
  S  S7  1  0.57201800  0.57201800  0.83232400  1
loop_
_geom_bond_atom_site_label_1
_geom_bond_atom_site_label_2
_geom_bond_distance
_geom_bond_site_symmetry_2
Cs0 S1 3.449481 1_455
Cs0 S6 3.449481 1_565
Cs0 S6 3.449481 1_655
Cs0 S1 3.449481 1_545
Cs0 S2 3.465727 1_545
Cs0 S5 3.465727 1_565
Cs0 S5 3.465727 1_655
Cs0 S2 3.465727 1_455
Cs0 S7 3.502924 1_555
Cs0 S0 3.502924 1_555
S0 V1 2.291517 1_554
S0 V0 2.413190 1_565
S0 V0 2.413190 1_655
S0 V2 2.471757 1_555
S1 V1 2.321064 1_655
S1 V1 2.321064 1_565
S1 V0 2.432332 1_666
S2 V2 2.390452 1_655
S2 V2 2.390452 1_565
S2 V3 2.392374 1_555
S3 V2 2.502005 1_565
S3 V2 2.502005 1_655
S3 V1 2.516468 1_654
S3 V1 2.516468 1_564
S3 V4 2.604867 1_555
S4 V3 2.502005 1_545
S4 V3 2.502005 1_455
S4 V4 2.516468 1_546
S4 V4 2.516468 1_456
S4 V1 2.604867 1_555
S5 V3 2.390452 1_545
S5 V3 2.390452 1_455
S5 V2 2.392374 1_555
S6 V4 2.321064 1_455
S6 V4 2.321064 1_545
S6 V0 2.432332 1_555
S7 V4 2.291517 1_556
S7 V0 2.413190 1_656
S7 V0 2.413190 1_566
S7 V3 2.471757 1_555
