# generated using pymatgen
data_BaNd
_symmetry_space_group_name_H-M   'P 1'
_cell_length_a   7.92663588
_cell_length_b   7.92663588
_cell_length_c   13.16784600
_cell_angle_alpha   90.00000000
_cell_angle_beta   90.00000000
_cell_angle_gamma   119.99999897
_symmetry_Int_Tables_number   1
_chemical_formula_structural   BaNd
_chemical_formula_sum   'Ba8 Nd8'
_cell_volume   716.51154446
_cell_formula_units_Z   8
loop_
 _symmetry_equiv_pos_site_id
 _symmetry_equiv_pos_as_xyz
  1  'x, y, z'
loop_
 _atom_site_type_symbol
 _atom_site_label
 _atom_site_symmetry_multiplicity
 _atom_site_fract_x
 _atom_site_fract_y
 _atom_site_fract_z
 _atom_site_occupancy
  Ba  Ba0_0  1  0.16666650  0.33333350  0.25000000  1
  Ba  Ba0_1  1  0.16666650  0.33333350  0.75000000  1
  Ba  Ba0_2  1  0.16666650  0.83333350  0.25000000  1
  Ba  Ba0_3  1  0.16666650  0.83333350  0.75000000  1
  Ba  Ba0_4  1  0.66666650  0.33333350  0.25000000  1
  Ba  Ba0_5  1  0.66666650  0.33333350  0.75000000  1
  Ba  Ba0_6  1  0.66666650  0.83333350  0.25000000  1
  Ba  Ba0_7  1  0.66666650  0.83333350  0.75000000  1
  Nd  Nd0_0  1  0.00000000  0.00000000  0.00000000  1
  Nd  Nd0_1  1  0.00000000  0.00000000  0.50000000  1
  Nd  Nd0_2  1  0.00000000  0.50000000  0.00000000  1
  Nd  Nd0_3  1  0.00000000  0.50000000  0.50000000  1
  Nd  Nd0_4  1  0.50000000  0.00000000  0.00000000  1
  Nd  Nd0_5  1  0.50000000  0.00000000  0.50000000  1
  Nd  Nd0_6  1  0.50000000  0.50000000  0.00000000  1
  Nd  Nd0_7  1  0.50000000  0.50000000  0.50000000  1
loop_
_geom_bond_atom_site_label_1
_geom_bond_atom_site_label_2
_geom_bond_distance
_geom_bond_site_symmetry_2
Ba0_0 Ba0_4 3.963318 1_455
Ba0_0 Ba0_2 3.963318 1_555
Ba0_0 Ba0_2 3.963318 1_545
Ba0_0 Ba0_4 3.963318 1_555
Ba0_0 Ba0_6 3.963318 1_555
Ba0_0 Ba0_6 3.963318 1_445
Ba0_0 Nd0_2 4.009110 1_555
Ba0_0 Nd0_3 4.009110 1_555
Ba0_0 Nd0_6 4.009112 1_555
Ba0_0 Nd0_0 4.009112 1_555
Ba0_0 Nd0_1 4.009112 1_555
Ba0_0 Nd0_7 4.009112 1_555
Ba0_1 Ba0_5 3.963318 1_455
Ba0_1 Ba0_3 3.963318 1_555
Ba0_1 Ba0_5 3.963318 1_555
Ba0_1 Ba0_3 3.963318 1_545
Ba0_1 Ba0_7 3.963318 1_555
Ba0_1 Ba0_7 3.963318 1_445
Ba0_1 Nd0_2 4.009110 1_556
Ba0_1 Nd0_3 4.009110 1_555
Ba0_1 Nd0_6 4.009112 1_556
Ba0_1 Nd0_0 4.009112 1_556
Ba0_1 Nd0_1 4.009112 1_555
Ba0_1 Nd0_7 4.009112 1_555
Ba0_2 Ba0_6 3.963318 1_555
Ba0_2 Ba0_6 3.963318 1_455
Ba0_2 Ba0_4 3.963318 1_565
Ba0_2 Ba0_4 3.963318 1_455
Ba0_2 Nd0_0 4.009110 1_565
Ba0_2 Nd0_1 4.009110 1_565
Ba0_2 Nd0_2 4.009112 1_555
Ba0_2 Nd0_3 4.009112 1_555
Ba0_2 Nd0_4 4.009112 1_565
Ba0_2 Nd0_5 4.009112 1_565
Ba0_3 Ba0_7 3.963318 1_555
Ba0_3 Ba0_7 3.963318 1_455
Ba0_3 Ba0_5 3.963318 1_455
Ba0_3 Ba0_5 3.963318 1_565
Ba0_3 Nd0_0 4.009110 1_566
Ba0_3 Nd0_1 4.009110 1_565
Ba0_3 Nd0_2 4.009112 1_556
Ba0_3 Nd0_4 4.009112 1_566
Ba0_3 Nd0_3 4.009112 1_555
Ba0_3 Nd0_5 4.009112 1_565
Ba0_4 Ba0_6 3.963318 1_555
Ba0_4 Ba0_6 3.963318 1_545
Ba0_4 Nd0_7 4.009110 1_555
Ba0_4 Nd0_6 4.009110 1_555
Ba0_4 Nd0_3 4.009112 1_655
Ba0_4 Nd0_2 4.009112 1_655
Ba0_4 Nd0_5 4.009112 1_555
Ba0_4 Nd0_4 4.009112 1_555
Ba0_5 Ba0_7 3.963318 1_555
Ba0_5 Ba0_7 3.963318 1_545
Ba0_5 Nd0_6 4.009110 1_556
Ba0_5 Nd0_7 4.009110 1_555
Ba0_5 Nd0_2 4.009112 1_656
Ba0_5 Nd0_4 4.009112 1_556
Ba0_5 Nd0_3 4.009112 1_655
Ba0_5 Nd0_5 4.009112 1_555
Ba0_6 Nd0_5 4.009110 1_565
Ba0_6 Nd0_4 4.009110 1_565
Ba0_6 Nd0_6 4.009112 1_555
Ba0_6 Nd0_7 4.009112 1_555
Ba0_6 Nd0_1 4.009112 1_665
Ba0_6 Nd0_0 4.009112 1_665
Ba0_7 Nd0_4 4.009110 1_566
Ba0_7 Nd0_5 4.009110 1_565
Ba0_7 Nd0_6 4.009112 1_556
Ba0_7 Nd0_0 4.009112 1_666
Ba0_7 Nd0_7 4.009112 1_555
Ba0_7 Nd0_1 4.009112 1_665
Nd0_0 Nd0_4 3.963318 1_455
Nd0_0 Nd0_4 3.963318 1_555
Nd0_0 Nd0_2 3.963318 1_545
Nd0_0 Nd0_2 3.963318 1_555
Nd0_0 Nd0_6 3.963318 1_445
Nd0_0 Nd0_6 3.963318 1_555
Nd0_1 Nd0_5 3.963318 1_455
Nd0_1 Nd0_5 3.963318 1_555
Nd0_1 Nd0_3 3.963318 1_555
Nd0_1 Nd0_3 3.963318 1_545
Nd0_1 Nd0_7 3.963318 1_445
Nd0_1 Nd0_7 3.963318 1_555
Nd0_2 Nd0_6 3.963318 1_455
Nd0_2 Nd0_6 3.963318 1_555
Nd0_2 Nd0_4 3.963318 1_455
Nd0_2 Nd0_4 3.963318 1_565
Nd0_3 Nd0_7 3.963318 1_555
Nd0_3 Nd0_7 3.963318 1_455
Nd0_3 Nd0_5 3.963318 1_455
Nd0_3 Nd0_5 3.963318 1_565
Nd0_4 Nd0_6 3.963318 1_545
Nd0_4 Nd0_6 3.963318 1_555
Nd0_5 Nd0_7 3.963318 1_545
Nd0_5 Nd0_7 3.963318 1_555
