# generated using pymatgen
data_Er2MnC4
_symmetry_space_group_name_H-M   'P 1'
_cell_length_a   6.54403630
_cell_length_b   6.54403630
_cell_length_c   6.54403630
_cell_angle_alpha   134.99748436
_cell_angle_beta   109.57190384
_cell_angle_gamma   87.58912412
_symmetry_Int_Tables_number   1
_chemical_formula_structural   Er2MnC4
_chemical_formula_sum   'Er4 Mn2 C8'
_cell_volume   178.56299803
_cell_formula_units_Z   2
loop_
 _symmetry_equiv_pos_site_id
 _symmetry_equiv_pos_as_xyz
  1  'x, y, z'
loop_
 _atom_site_type_symbol
 _atom_site_label
 _atom_site_symmetry_multiplicity
 _atom_site_fract_x
 _atom_site_fract_y
 _atom_site_fract_z
 _atom_site_occupancy
  Er  Er0  1  0.50955400  0.85484800  0.65470500  1
  Er  Er1  1  0.49044600  0.14515200  0.34529500  1
  Er  Er2  1  0.79985700  0.64515200  0.15470500  1
  Er  Er3  1  0.20014300  0.35484800  0.84529500  1
  Mn  Mn0  1  0.00000000  0.25000000  0.25000000  1
  Mn  Mn1  1  0.00000000  0.75000000  0.75000000  1
  C  C0  1  0.25109200  0.57929400  0.67179900  1
  C  C1  1  0.74890800  0.42070600  0.32820100  1
  C  C2  1  0.09250500  0.92070600  0.17179900  1
  C  C3  1  0.90749500  0.07929400  0.82820100  1
  C  C4  1  0.47226300  0.62918200  0.84308000  1
  C  C5  1  0.52773700  0.37081800  0.15692000  1
  C  C6  1  0.78610200  0.12918200  0.65692000  1
  C  C7  1  0.21389800  0.87081800  0.34308000  1
loop_
_geom_bond_atom_site_label_1
_geom_bond_atom_site_label_2
_geom_bond_distance
_geom_bond_site_symmetry_2
C0 C4 1.375910 1_555
C0 Mn1 1.951994 1_555
C0 Mn0 1.951997 1_555
C0 Er3 2.492107 1_555
C0 Er0 2.606448 1_555
C1 C5 1.375910 1_555
C1 Mn0 1.951994 1_655
C1 Mn1 1.951997 1_655
C1 Er2 2.492107 1_555
C1 Er1 2.606448 1_555
C2 C7 1.375899 1_555
C2 Mn1 1.952000 1_554
C2 Mn0 1.952000 1_565
C2 Er1 2.492103 1_565
C2 Er2 2.606439 1_455
C3 C6 1.375899 1_555
C3 Mn1 1.952000 1_645
C3 Mn0 1.952000 1_656
C3 Er0 2.492103 1_545
C3 Er3 2.606439 1_655
C4 Er2 2.356667 1_556
C4 Er1 2.509017 1_555
C4 Er1 2.509027 1_566
C4 Er0 2.562478 1_555
C4 Er3 2.591777 1_555
C5 Er3 2.356667 1_554
C5 Er0 2.509017 1_555
C5 Er0 2.509027 1_544
C5 Er1 2.562478 1_555
C5 Er2 2.591777 1_555
C6 Er1 2.356675 1_555
C6 Er2 2.509023 1_556
C6 Er2 2.509023 1_545
C6 Er3 2.562478 1_655
C6 Er0 2.591768 1_545
C7 Er0 2.356675 1_555
C7 Er3 2.509023 1_565
C7 Er3 2.509023 1_554
C7 Er2 2.562478 1_455
C7 Er1 2.591768 1_565
