# generated using pymatgen
data_MgTi3
_symmetry_space_group_name_H-M   'P 1'
_cell_length_a   5.91200653
_cell_length_b   5.91200653
_cell_length_c   4.76477600
_cell_angle_alpha   90.00000000
_cell_angle_beta   90.00000000
_cell_angle_gamma   120.00000598
_symmetry_Int_Tables_number   1
_chemical_formula_structural   MgTi3
_chemical_formula_sum   'Mg2 Ti6'
_cell_volume   144.22578281
_cell_formula_units_Z   2
loop_
 _symmetry_equiv_pos_site_id
 _symmetry_equiv_pos_as_xyz
  1  'x, y, z'
loop_
 _atom_site_type_symbol
 _atom_site_label
 _atom_site_symmetry_multiplicity
 _atom_site_fract_x
 _atom_site_fract_y
 _atom_site_fract_z
 _atom_site_occupancy
  Mg  Mg0  1  0.66666700  0.33333300  0.25000000  1
  Mg  Mg1  1  0.33333300  0.66666700  0.75000000  1
  Ti  Ti0  1  0.16524000  0.33048000  0.25000000  1
  Ti  Ti1  1  0.66952000  0.83476000  0.25000000  1
  Ti  Ti2  1  0.16524000  0.83476000  0.25000000  1
  Ti  Ti3  1  0.83476000  0.16524000  0.75000000  1
  Ti  Ti4  1  0.33048000  0.16524000  0.75000000  1
  Ti  Ti5  1  0.83476000  0.66952000  0.75000000  1
loop_
_geom_bond_atom_site_label_1
_geom_bond_atom_site_label_2
_geom_bond_distance
_geom_bond_site_symmetry_2
Mg0 Ti3 2.939131 1_555
Mg0 Ti3 2.939131 1_554
Mg0 Ti5 2.939134 1_555
Mg0 Ti4 2.939134 1_555
Mg0 Ti4 2.939134 1_554
Mg0 Ti5 2.939134 1_554
Mg0 Ti1 2.956036 1_545
Mg0 Ti0 2.956036 1_655
Mg0 Ti2 2.956039 1_545
Mg0 Ti2 2.956039 1_655
Mg0 Ti0 2.956042 1_555
Mg0 Ti1 2.956042 1_555
Mg1 Ti2 2.939131 1_556
Mg1 Ti2 2.939131 1_555
Mg1 Ti1 2.939134 1_556
Mg1 Ti1 2.939134 1_555
Mg1 Ti0 2.939134 1_555
Mg1 Ti0 2.939134 1_556
Mg1 Ti5 2.956036 1_455
Mg1 Ti4 2.956036 1_565
Mg1 Ti3 2.956039 1_455
Mg1 Ti3 2.956039 1_565
Mg1 Ti4 2.956042 1_555
Mg1 Ti5 2.956042 1_555
Ti0 Ti3 2.922118 1_454
Ti0 Ti3 2.922118 1_455
Ti0 Ti4 2.922118 1_555
Ti0 Ti4 2.922118 1_554
Ti0 Ti1 2.930700 1_445
Ti0 Ti2 2.930700 1_545
Ti0 Ti1 2.981306 1_555
Ti0 Ti2 2.981307 1_555
Ti1 Ti3 2.922118 1_564
Ti1 Ti3 2.922118 1_565
Ti1 Ti5 2.922118 1_555
Ti1 Ti5 2.922118 1_554
Ti1 Ti2 2.930700 1_655
Ti1 Ti2 2.981307 1_555
Ti2 Ti5 2.922118 1_454
Ti2 Ti4 2.922118 1_564
Ti2 Ti4 2.922118 1_565
Ti2 Ti5 2.922118 1_455
Ti3 Ti4 2.930700 1_655
Ti3 Ti5 2.930700 1_545
Ti3 Ti5 2.981307 1_555
Ti3 Ti4 2.981307 1_555
Ti4 Ti5 2.930700 1_445
Ti4 Ti5 2.981306 1_555
