# generated using pymatgen
data_Hf5Sc
_symmetry_space_group_name_H-M   'P 1'
_cell_length_a   5.56149251
_cell_length_b   5.56145328
_cell_length_c   5.02450013
_cell_angle_alpha   90.00000000
_cell_angle_beta   90.00000000
_cell_angle_gamma   120.00022094
_symmetry_Int_Tables_number   1
_chemical_formula_structural   Hf5Sc
_chemical_formula_sum   'Hf5 Sc1'
_cell_volume   134.58670990
_cell_formula_units_Z   1
loop_
 _symmetry_equiv_pos_site_id
 _symmetry_equiv_pos_as_xyz
  1  'x, y, z'
loop_
 _atom_site_type_symbol
 _atom_site_label
 _atom_site_symmetry_multiplicity
 _atom_site_fract_x
 _atom_site_fract_y
 _atom_site_fract_z
 _atom_site_occupancy
  Hf  Hf0  1  0.66051404  0.00000000  0.00000000  1
  Hf  Hf1  1  0.99998200  0.66052904  0.00000000  1
  Hf  Hf2  1  0.33945296  0.33947096  -0.00000000  1
  Hf  Hf3  1  0.33331600  0.66666600  0.50000000  1
  Hf  Hf4  1  0.66664900  0.33333600  0.50000000  1
  Sc  Sc0  1  0.99998100  -0.00000000  0.50000000  1
loop_
_geom_bond_atom_site_label_1
_geom_bond_atom_site_label_2
_geom_bond_distance
_geom_bond_site_symmetry_2
Hf0 Hf3 3.112227 1_545
Hf0 Hf3 3.112227 1_544
Hf0 Hf4 3.112235 1_555
Hf0 Hf4 3.112235 1_554
Hf0 Sc0 3.142567 1_555
Hf0 Sc0 3.142567 1_554
Hf0 Hf2 3.181750 1_545
Hf0 Hf1 3.181750 1_555
Hf0 Hf2 3.181786 1_555
Hf0 Hf1 3.181787 1_445
Hf0 Hf1 3.270029 1_545
Hf0 Hf2 3.270030 1_655
Hf1 Hf4 3.112218 1_555
Hf1 Hf4 3.112218 1_554
Hf1 Hf3 3.112233 1_655
Hf1 Hf3 3.112233 1_654
Hf1 Sc0 3.142574 1_564
Hf1 Sc0 3.142574 1_565
Hf1 Hf2 3.181773 1_655
Hf1 Hf2 3.181773 1_555
Hf1 Hf2 3.270021 1_665
Hf2 Hf3 3.112219 1_554
Hf2 Hf3 3.112219 1_555
Hf2 Hf4 3.112226 1_555
Hf2 Hf4 3.112226 1_554
Hf2 Sc0 3.142575 1_455
Hf2 Sc0 3.142575 1_454
Hf3 Sc0 3.210896 1_455
Hf3 Hf4 3.210904 1_555
Hf3 Sc0 3.210914 1_565
Hf3 Hf4 3.210915 1_565
Hf3 Hf4 3.210924 1_455
Hf3 Sc0 3.210933 1_465
Hf4 Sc0 3.210887 1_565
Hf4 Sc0 3.210928 1_555
Hf4 Sc0 3.210928 1_455
