# generated using pymatgen
data_SrPd
_symmetry_space_group_name_H-M   'P 1'
_cell_length_a   4.25232893
_cell_length_b   4.52183715
_cell_length_c   6.05523753
_cell_angle_alpha   90.00000000
_cell_angle_beta   69.44366547
_cell_angle_gamma   90.00000000
_symmetry_Int_Tables_number   1
_chemical_formula_structural   SrPd
_chemical_formula_sum   'Sr2 Pd2'
_cell_volume   109.01862173
_cell_formula_units_Z   2
loop_
 _symmetry_equiv_pos_site_id
 _symmetry_equiv_pos_as_xyz
  1  'x, y, z'
loop_
 _atom_site_type_symbol
 _atom_site_label
 _atom_site_symmetry_multiplicity
 _atom_site_fract_x
 _atom_site_fract_y
 _atom_site_fract_z
 _atom_site_occupancy
  Sr  Sr0  1  0.13931345  0.75000000  0.72137309  1
  Sr  Sr1  1  0.86068655  0.25000000  0.27862691  1
  Pd  Pd0  1  0.42940829  0.75000000  0.14118343  1
  Pd  Pd1  1  0.57059171  0.25000000  0.85881657  1
loop_
_geom_bond_atom_site_label_1
_geom_bond_atom_site_label_2
_geom_bond_distance
_geom_bond_site_symmetry_2
Pd0 Pd1 2.770331 1_564
Pd0 Pd1 2.770331 1_554
Pd0 Sr0 3.191534 1_654
Pd0 Sr0 3.191534 1_554
Pd0 Sr1 3.199934 1_455
Pd0 Sr1 3.199934 1_465
Pd0 Sr1 3.199934 1_565
Pd0 Sr1 3.199934 1_555
Pd0 Sr0 3.289493 1_555
Pd1 Sr1 3.191534 1_456
Pd1 Sr1 3.191534 1_556
Pd1 Sr0 3.199934 1_655
Pd1 Sr0 3.199934 1_645
Pd1 Sr0 3.199934 1_545
Pd1 Sr0 3.199934 1_555
Pd1 Sr1 3.289493 1_555
