# generated using pymatgen
data_KZrCuS3
_symmetry_space_group_name_H-M   'P 1'
_cell_length_a   7.29990430
_cell_length_b   7.29990430
_cell_length_c   9.80710794
_cell_angle_alpha   90.00000000
_cell_angle_beta   90.00000000
_cell_angle_gamma   150.20569736
_symmetry_Int_Tables_number   1
_chemical_formula_structural   KZrCuS3
_chemical_formula_sum   'K2 Zr2 Cu2 S6'
_cell_volume   259.67701384
_cell_formula_units_Z   2
loop_
 _symmetry_equiv_pos_site_id
 _symmetry_equiv_pos_as_xyz
  1  'x, y, z'
loop_
 _atom_site_type_symbol
 _atom_site_label
 _atom_site_symmetry_multiplicity
 _atom_site_fract_x
 _atom_site_fract_y
 _atom_site_fract_z
 _atom_site_occupancy
  K  K0  1  0.74502969  0.25497031  0.25000000  1
  K  K1  1  0.25497031  0.74502969  0.75000000  1
  Zr  Zr0  1  0.00000000  -0.00000000  -0.00000000  1
  Zr  Zr1  1  0.00000000  -0.00000000  0.50000000  1
  Cu  Cu0  1  0.46651415  0.53348585  0.25000000  1
  Cu  Cu1  1  0.53348585  0.46651415  0.75000000  1
  S  S0  1  0.06357907  0.93642093  0.25000000  1
  S  S1  1  0.93642093  0.06357907  0.75000000  1
  S  S2  1  0.62085748  0.37914252  0.55493024  1
  S  S3  1  0.62085748  0.37914252  0.94506976  1
  S  S4  1  0.37914252  0.62085748  0.05493024  1
  S  S5  1  0.37914252  0.62085748  0.44506976  1
loop_
_geom_bond_atom_site_label_1
_geom_bond_atom_site_label_2
_geom_bond_distance
_geom_bond_site_symmetry_2
K0 S0 3.174289 1_655
K0 S0 3.174289 1_545
K0 S4 3.280591 1_655
K0 S5 3.280591 1_655
K0 S4 3.280591 1_545
K0 S5 3.280591 1_545
K0 S2 3.465883 1_555
K0 S3 3.465883 1_554
K1 S1 3.174289 1_565
K1 S1 3.174289 1_455
K1 S2 3.280591 1_455
K1 S3 3.280591 1_455
K1 S3 3.280591 1_565
K1 S2 3.280591 1_565
K1 S4 3.465883 1_556
K1 S5 3.465883 1_555
Cu0 S5 2.275845 1_555
Cu0 S4 2.275845 1_555
Cu0 S0 2.323253 1_545
Cu0 S0 2.323253 1_655
Cu1 S2 2.275845 1_555
Cu1 S3 2.275845 1_555
Cu1 S1 2.323253 1_455
Cu1 S1 2.323253 1_565
S0 Zr0 2.610727 1_565
S0 Zr1 2.610727 1_565
S1 Zr0 2.610727 1_656
S1 Zr1 2.610727 1_655
S2 Zr1 2.592269 1_665
S2 Zr1 2.592269 1_555
S3 Zr0 2.592269 1_666
S3 Zr0 2.592269 1_556
S4 Zr0 2.592269 1_665
S4 Zr0 2.592269 1_555
S5 Zr1 2.592269 1_665
S5 Zr1 2.592269 1_555
