# generated using pymatgen
data_Sr6Sn2NO
_symmetry_space_group_name_H-M   'P 1'
_cell_length_a   7.37933808
_cell_length_b   7.37933808
_cell_length_c   7.37933808
_cell_angle_alpha   60.00000000
_cell_angle_beta   60.00000000
_cell_angle_gamma   60.00000000
_symmetry_Int_Tables_number   1
_chemical_formula_structural   Sr6Sn2NO
_chemical_formula_sum   'Sr6 Sn2 N1 O1'
_cell_volume   284.14317317
_cell_formula_units_Z   1
loop_
 _symmetry_equiv_pos_site_id
 _symmetry_equiv_pos_as_xyz
  1  'x, y, z'
loop_
 _atom_site_type_symbol
 _atom_site_label
 _atom_site_symmetry_multiplicity
 _atom_site_fract_x
 _atom_site_fract_y
 _atom_site_fract_z
 _atom_site_occupancy
  Sr  Sr0  1  0.24796400  0.75203600  0.75203600  1
  Sr  Sr1  1  0.24796400  0.75203600  0.24796400  1
  Sr  Sr2  1  0.75203600  0.24796400  0.75203600  1
  Sr  Sr3  1  0.75203600  0.75203600  0.24796400  1
  Sr  Sr4  1  0.24796400  0.24796400  0.75203600  1
  Sr  Sr5  1  0.75203600  0.24796400  0.24796400  1
  Sn  Sn0  1  0.25000000  0.25000000  0.25000000  1
  Sn  Sn1  1  0.75000000  0.75000000  0.75000000  1
  N  N0  1  0.00000000  0.00000000  0.00000000  1
  O  O0  1  0.50000000  0.50000000  0.50000000  1
loop_
_geom_bond_atom_site_label_1
_geom_bond_atom_site_label_2
_geom_bond_distance
_geom_bond_site_symmetry_2
Sn0 Sr4 3.689730 1_555
Sn0 Sr4 3.689730 1_554
Sn0 Sr2 3.689730 1_455
Sn0 Sr5 3.689730 1_455
Sn0 Sr3 3.689730 1_545
Sn0 Sr1 3.689730 1_555
Sn0 Sr0 3.689730 1_545
Sn0 Sr5 3.689730 1_555
Sn0 Sr2 3.689730 1_554
Sn0 Sr3 3.689730 1_455
Sn0 Sr1 3.689730 1_545
Sn0 Sr0 3.689730 1_554
Sn1 Sr4 3.689730 1_565
Sn1 Sr4 3.689730 1_655
Sn1 Sr1 3.689730 1_556
Sn1 Sr2 3.689730 1_555
Sn1 Sr5 3.689730 1_556
Sn1 Sr5 3.689730 1_565
Sn1 Sr3 3.689730 1_555
Sn1 Sr0 3.689730 1_555
Sn1 Sr3 3.689730 1_556
Sn1 Sr1 3.689730 1_655
Sn1 Sr0 3.689730 1_655
Sn1 Sr2 3.689730 1_565
N0 Sr2 2.587742 1_454
N0 Sr3 2.587742 1_445
N0 Sr0 2.587742 1_544
N0 Sr4 2.587742 1_554
N0 Sr5 2.587742 1_455
N0 Sr1 2.587742 1_545
O0 Sr3 2.630238 1_555
O0 Sr0 2.630238 1_555
O0 Sr4 2.630238 1_555
O0 Sr1 2.630238 1_555
O0 Sr5 2.630238 1_555
O0 Sr2 2.630238 1_555
