# generated using pymatgen
data_Hf5ZnSb3
_symmetry_space_group_name_H-M   'P 1'
_cell_length_a   8.55114291
_cell_length_b   8.55114425
_cell_length_c   5.74022500
_cell_angle_alpha   90.00000000
_cell_angle_beta   90.00000000
_cell_angle_gamma   120.00000275
_symmetry_Int_Tables_number   1
_chemical_formula_structural   Hf5ZnSb3
_chemical_formula_sum   'Hf10 Zn2 Sb6'
_cell_volume   363.50294405
_cell_formula_units_Z   2
loop_
 _symmetry_equiv_pos_site_id
 _symmetry_equiv_pos_as_xyz
  1  'x, y, z'
loop_
 _atom_site_type_symbol
 _atom_site_label
 _atom_site_symmetry_multiplicity
 _atom_site_fract_x
 _atom_site_fract_y
 _atom_site_fract_z
 _atom_site_occupancy
  Hf  Hf0  1  0.73222749  0.73222749  0.25000000  1
  Hf  Hf1  1  0.73222749  -0.00000000  0.75000000  1
  Hf  Hf2  1  -0.00000000  0.26777251  0.25000000  1
  Hf  Hf3  1  0.00000000  0.73222749  0.75000000  1
  Hf  Hf4  1  0.26777251  0.26777251  0.75000000  1
  Hf  Hf5  1  0.26777251  0.00000000  0.25000000  1
  Hf  Hf6  1  0.33333300  0.66666700  0.50000000  1
  Hf  Hf7  1  0.66666700  0.33333300  0.00000000  1
  Hf  Hf8  1  0.66666700  0.33333300  0.50000000  1
  Hf  Hf9  1  0.33333300  0.66666700  0.00000000  1
  Zn  Zn0  1  -0.00000000  -0.00000000  0.00000000  1
  Zn  Zn1  1  -0.00000000  -0.00000000  0.50000000  1
  Sb  Sb0  1  0.38669434  0.00000000  0.75000000  1
  Sb  Sb1  1  0.38669434  0.38669434  0.25000000  1
  Sb  Sb2  1  0.00000000  0.61330566  0.25000000  1
  Sb  Sb3  1  -0.00000000  0.38669434  0.75000000  1
  Sb  Sb4  1  0.61330566  0.61330566  0.75000000  1
  Sb  Sb5  1  0.61330566  -0.00000000  0.25000000  1
loop_
_geom_bond_atom_site_label_1
_geom_bond_atom_site_label_2
_geom_bond_distance
_geom_bond_site_symmetry_2
Hf0 Zn0 2.702294 1_665
Hf0 Zn1 2.702294 1_665
Hf0 Sb2 2.933535 1_655
Hf0 Sb5 2.933535 1_565
Hf0 Sb1 2.954703 1_555
Hf0 Sb4 3.044941 1_555
Hf0 Sb4 3.044941 1_554
Hf1 Zn1 2.702294 1_655
Hf1 Zn0 2.702294 1_656
Hf1 Sb3 2.933535 1_655
Hf1 Sb4 2.933535 1_545
Hf1 Sb0 2.954703 1_555
Hf1 Sb5 3.044941 1_556
Hf1 Sb5 3.044941 1_555
Hf2 Zn1 2.702294 1_555
Hf2 Zn0 2.702294 1_555
Hf2 Sb1 2.933534 1_555
Hf2 Sb5 2.933535 1_455
Hf2 Sb2 2.954704 1_555
Hf2 Sb3 3.044941 1_555
Hf2 Sb3 3.044941 1_554
Hf3 Zn0 2.702294 1_566
Hf3 Zn1 2.702294 1_565
Hf3 Sb4 2.933534 1_455
Hf3 Sb0 2.933535 1_565
Hf3 Sb3 2.954704 1_555
Hf3 Sb2 3.044941 1_556
Hf3 Sb2 3.044941 1_555
Hf4 Zn0 2.702294 1_556
Hf4 Zn1 2.702294 1_555
Hf4 Sb3 2.933535 1_555
Hf4 Sb0 2.933535 1_555
Hf4 Sb4 2.954703 1_555
Hf4 Sb1 3.044941 1_556
Hf4 Sb1 3.044941 1_555
Hf5 Zn0 2.702294 1_555
Hf5 Zn1 2.702294 1_555
Hf5 Sb2 2.933535 1_545
Hf5 Sb1 2.933535 1_555
Hf5 Sb5 2.954703 1_555
Hf5 Sb0 3.044941 1_554
Hf5 Sb0 3.044941 1_555
Hf6 Sb2 3.015232 1_555
Hf6 Sb0 3.015232 1_565
Hf6 Sb3 3.015235 1_555
Hf6 Sb5 3.015235 1_565
Hf6 Sb4 3.015239 1_555
Hf6 Sb1 3.015240 1_555
Hf7 Sb3 3.015232 1_654
Hf7 Sb5 3.015232 1_555
Hf7 Sb2 3.015235 1_655
Hf7 Sb0 3.015235 1_554
Hf7 Sb1 3.015239 1_555
Hf7 Sb4 3.015240 1_554
Hf8 Sb3 3.015232 1_655
Hf8 Sb5 3.015232 1_555
Hf8 Sb2 3.015235 1_655
Hf8 Sb0 3.015235 1_555
Hf8 Sb1 3.015239 1_555
Hf8 Sb4 3.015240 1_555
Hf9 Sb2 3.015232 1_555
Hf9 Sb0 3.015232 1_564
Hf9 Sb3 3.015235 1_554
Hf9 Sb5 3.015235 1_565
Hf9 Sb4 3.015239 1_554
Hf9 Sb1 3.015240 1_555
