# generated using pymatgen
data_La(PO3)3
_symmetry_space_group_name_H-M   'P 1'
_cell_length_a   7.11788668
_cell_length_b   7.11788668
_cell_length_c   7.39707867
_cell_angle_alpha   90.00000000
_cell_angle_beta   90.00000000
_cell_angle_gamma   105.02338542
_symmetry_Int_Tables_number   1
_chemical_formula_structural   La(PO3)3
_chemical_formula_sum   'La2 P6 O18'
_cell_volume   361.95836695
_cell_formula_units_Z   2
loop_
 _symmetry_equiv_pos_site_id
 _symmetry_equiv_pos_as_xyz
  1  'x, y, z'
loop_
 _atom_site_type_symbol
 _atom_site_label
 _atom_site_symmetry_multiplicity
 _atom_site_fract_x
 _atom_site_fract_y
 _atom_site_fract_z
 _atom_site_occupancy
  La  La0  1  0.87306322  0.87306322  0.00000000  1
  La  La1  1  0.12693678  0.12693678  0.50000000  1
  P  P0  1  0.33303477  0.68148122  0.04803846  1
  P  P1  1  0.66696523  0.31851878  0.54803846  1
  P  P2  1  0.68148122  0.33303477  0.95196154  1
  P  P3  1  0.31851878  0.66696523  0.45196154  1
  P  P4  1  0.25239794  0.25239794  0.00000000  1
  P  P5  1  0.74760206  0.74760206  0.50000000  1
  O  O0  1  0.25305293  0.46963815  0.96089884  1
  O  O1  1  0.74694707  0.53036185  0.46089884  1
  O  O2  1  0.46963815  0.25305293  0.03910116  1
  O  O3  1  0.53036185  0.74694707  0.53910116  1
  O  O4  1  0.77666267  0.52225419  0.03611236  1
  O  O5  1  0.22333733  0.47774581  0.53611236  1
  O  O6  1  0.52225419  0.77666267  0.96388764  1
  O  O7  1  0.47774581  0.22333733  0.46388764  1
  O  O8  1  0.37468552  0.62531448  0.25000000  1
  O  O9  1  0.62531448  0.37468552  0.75000000  1
  O  O10  1  0.82468545  0.86226186  0.33376741  1
  O  O11  1  0.17531455  0.13773814  0.83376741  1
  O  O12  1  0.86226186  0.82468545  0.66623259  1
  O  O13  1  0.13773814  0.17531455  0.16623259  1
  O  O14  1  0.22049417  0.82588259  0.45910206  1
  O  O15  1  0.77950583  0.17411741  0.95910206  1
  O  O16  1  0.82588259  0.22049417  0.54089794  1
  O  O17  1  0.17411741  0.77950583  0.04089794  1
loop_
_geom_bond_atom_site_label_1
_geom_bond_atom_site_label_2
_geom_bond_distance
_geom_bond_site_symmetry_2
La0 O17 2.422121 1_655
La0 O15 2.422121 1_564
La0 O6 2.426732 1_554
La0 O4 2.426732 1_555
La0 O10 2.491234 1_555
La0 O12 2.491234 1_554
La0 O11 2.754714 1_664
La0 O13 2.754714 1_665
La1 O16 2.422121 1_455
La1 O14 2.422121 1_545
La1 O5 2.426732 1_555
La1 O7 2.426732 1_555
La1 O11 2.491234 1_555
La1 O13 2.491234 1_555
La1 O10 2.754714 1_445
La1 O12 2.754714 1_445
O0 P4 1.571928 1_556
O0 P0 1.602572 1_556
O1 P5 1.571928 1_555
O1 P1 1.602572 1_555
O2 P4 1.571928 1_555
O2 P2 1.602572 1_554
O3 P5 1.571928 1_555
O3 P3 1.602572 1_555
O4 P2 1.478985 1_554
O5 P3 1.478985 1_555
O6 P0 1.478985 1_556
O7 P1 1.478985 1_555
O8 P0 1.594046 1_555
O8 P3 1.594046 1_555
O9 P2 1.594046 1_555
O9 P1 1.594046 1_555
O10 P5 1.498991 1_555
O11 P4 1.498991 1_556
O12 P5 1.498991 1_555
O13 P4 1.498991 1_555
O14 P3 1.475903 1_555
O15 P2 1.475903 1_555
O16 P1 1.475903 1_555
O17 P0 1.475903 1_555
