# generated using pymatgen
data_Ho11Ge10
_symmetry_space_group_name_H-M   'P 1'
_cell_length_a   10.82122725
_cell_length_b   10.82122665
_cell_length_c   11.18539148
_cell_angle_alpha   118.92879459
_cell_angle_beta   118.92880144
_cell_angle_gamma   89.99997404
_symmetry_Int_Tables_number   1
_chemical_formula_structural   Ho11Ge10
_chemical_formula_sum   'Ho22 Ge20'
_cell_volume   955.36749637
_cell_formula_units_Z   2
loop_
 _symmetry_equiv_pos_site_id
 _symmetry_equiv_pos_as_xyz
  1  'x, y, z'
loop_
 _atom_site_type_symbol
 _atom_site_label
 _atom_site_symmetry_multiplicity
 _atom_site_fract_x
 _atom_site_fract_y
 _atom_site_fract_z
 _atom_site_occupancy
  Ho  Ho0  1  0.27770047  0.60134476  0.20268953  1
  Ho  Ho1  1  0.39865524  0.07500994  0.79730947  1
  Ho  Ho2  1  0.92499006  0.60134476  0.20269053  1
  Ho  Ho3  1  0.60134476  0.92499006  0.20269053  1
  Ho  Ho4  1  0.60134476  0.27770047  0.20269053  1
  Ho  Ho5  1  0.72229953  0.39865524  0.79731047  1
  Ho  Ho6  1  0.07500994  0.39865524  0.79730947  1
  Ho  Ho7  1  0.39865524  0.72229953  0.79731047  1
  Ho  Ho8  1  0.66011611  0.66011611  0.32023323  1
  Ho  Ho9  1  0.33988389  0.33988389  0.67976677  1
  Ho  Ho10  1  0.82349847  0.82349847  -0.00000000  1
  Ho  Ho11  1  0.17650053  0.82349847  0.00000000  1
  Ho  Ho12  1  0.82349947  0.17650153  -0.00000000  1
  Ho  Ho13  1  0.17650053  0.17650153  0.00000000  1
  Ho  Ho14  1  0.19022775  0.93750806  0.38045651  1
  Ho  Ho15  1  0.55705256  0.80977225  0.61954449  1
  Ho  Ho16  1  0.06249194  0.80977225  0.61954349  1
  Ho  Ho17  1  0.80977225  0.06249194  0.61954349  1
  Ho  Ho18  1  0.80977225  0.55705256  0.61954449  1
  Ho  Ho19  1  0.44294744  0.19022775  0.38045551  1
  Ho  Ho20  1  0.93750806  0.19022775  0.38045651  1
  Ho  Ho21  1  0.19022775  0.44294744  0.38045551  1
  Ge  Ge0  1  0.10916536  0.10916536  0.63556485  1
  Ge  Ge1  1  0.47360051  0.47360051  0.36443515  1
  Ge  Ge2  1  0.89083464  0.89083464  0.36443515  1
  Ge  Ge3  1  0.47360051  0.89083464  0.36443515  1
  Ge  Ge4  1  0.89083464  0.47360051  0.36443515  1
  Ge  Ge5  1  0.52639949  0.10916536  0.63556485  1
  Ge  Ge6  1  0.10916536  0.52639949  0.63556485  1
  Ge  Ge7  1  0.52639949  0.52639949  0.63556485  1
  Ge  Ge8  1  0.75000000  0.25000000  0.50000000  1
  Ge  Ge9  1  0.25000000  0.75000000  0.50000000  1
  Ge  Ge10  1  0.61969441  0.61969441  -0.00000000  1
  Ge  Ge11  1  0.38030559  0.61969441  0.00000000  1
  Ge  Ge12  1  0.61969441  0.38030559  -0.00000000  1
  Ge  Ge13  1  0.38030559  0.38030559  0.00000000  1
  Ge  Ge14  1  0.88394845  0.88394845  0.76789691  1
  Ge  Ge15  1  0.11605155  0.11605155  0.23210309  1
  Ge  Ge16  1  0.64250413  0.00000000  -0.00000000  1
  Ge  Ge17  1  0.00000000  0.64250413  -0.00000000  1
  Ge  Ge18  1  -0.00000000  0.35749587  0.00000000  1
  Ge  Ge19  1  0.35749587  -0.00000000  0.00000000  1
loop_
_geom_bond_atom_site_label_1
_geom_bond_atom_site_label_2
_geom_bond_distance
_geom_bond_site_symmetry_2
Ge0 Ge2 2.549009 1_445
Ge0 Ho1 2.896042 1_555
Ge0 Ho6 2.896042 1_555
Ge0 Ho20 3.107407 1_455
Ge0 Ho14 3.107407 1_545
Ge0 Ho16 3.183436 1_545
Ge0 Ho17 3.183436 1_455
Ge0 Ho9 3.212888 1_555
Ge0 Ho13 3.454185 1_556
Ge1 Ge7 2.549012 1_555
Ge1 Ho4 2.896034 1_555
Ge1 Ho0 2.896039 1_555
Ge1 Ho18 3.107413 1_555
Ge1 Ho15 3.107414 1_555
Ge1 Ho19 3.183442 1_555
Ge1 Ho21 3.183442 1_555
Ge1 Ho8 3.212874 1_555
Ge1 Ho13 3.454181 1_555
Ge2 Ho3 2.896042 1_555
Ge2 Ho2 2.896042 1_555
Ge2 Ho16 3.107407 1_655
Ge2 Ho17 3.107407 1_565
Ge2 Ho20 3.183436 1_565
Ge2 Ho14 3.183436 1_655
Ge2 Ho8 3.212888 1_555
Ge2 Ho10 3.454181 1_555
Ge3 Ge5 2.549011 1_565
Ge3 Ho3 2.896036 1_555
Ge3 Ho0 2.896039 1_555
Ge3 Ho17 3.107413 1_565
Ge3 Ho15 3.107417 1_555
Ge3 Ho19 3.183441 1_565
Ge3 Ho14 3.183447 1_555
Ge3 Ho8 3.212879 1_555
Ge3 Ho11 3.454183 1_555
Ge4 Ge6 2.549011 1_655
Ge4 Ho2 2.896036 1_555
Ge4 Ho4 2.896041 1_555
Ge4 Ho16 3.107413 1_655
Ge4 Ho18 3.107417 1_555
Ge4 Ho21 3.183441 1_655
Ge4 Ho20 3.183446 1_555
Ge4 Ho8 3.212879 1_555
Ge4 Ho12 3.454183 1_555
Ge5 Ho1 2.896036 1_555
Ge5 Ho5 2.896039 1_555
Ge5 Ho14 3.107413 1_545
Ge5 Ho19 3.107417 1_555
Ge5 Ho15 3.183441 1_545
Ge5 Ho17 3.183447 1_555
Ge5 Ho9 3.212879 1_555
Ge5 Ho12 3.454183 1_556
Ge6 Ho6 2.896036 1_555
Ge6 Ho7 2.896039 1_555
Ge6 Ho20 3.107413 1_455
Ge6 Ho21 3.107417 1_555
Ge6 Ho18 3.183441 1_455
Ge6 Ho16 3.183446 1_555
Ge6 Ho9 3.212879 1_555
Ge6 Ho11 3.454183 1_556
Ge7 Ho5 2.896039 1_555
Ge7 Ho7 2.896040 1_555
Ge7 Ho21 3.107413 1_555
Ge7 Ho19 3.107414 1_555
Ge7 Ho15 3.183442 1_555
Ge7 Ho18 3.183442 1_555
Ge7 Ho9 3.212874 1_555
Ge7 Ho10 3.454177 1_556
Ge8 Ho17 2.848073 1_555
Ge8 Ho20 2.848074 1_555
Ge8 Ho18 2.848080 1_555
Ge8 Ho19 2.848080 1_555
Ge8 Ho6 3.086362 1_655
Ge8 Ho3 3.086362 1_545
Ge8 Ho4 3.086365 1_555
Ge8 Ho5 3.086375 1_555
Ge9 Ho14 2.848073 1_555
Ge9 Ho16 2.848074 1_555
Ge9 Ho21 2.848080 1_555
Ge9 Ho15 2.848080 1_555
Ge9 Ho2 3.086362 1_455
Ge9 Ho1 3.086362 1_565
Ge9 Ho7 3.086374 1_555
Ge9 Ho0 3.086375 1_555
Ge10 Ge12 2.590481 1_555
Ge10 Ge11 2.590481 1_555
Ge10 Ho7 3.046813 1_554
Ge10 Ho5 3.046813 1_554
Ge10 Ho2 3.046822 1_555
Ge10 Ho3 3.046822 1_555
Ge10 Ho10 3.118921 1_555
Ge10 Ho9 3.190811 1_554
Ge10 Ho8 3.190824 1_555
Ge11 Ge13 2.590481 1_555
Ge11 Ho7 3.046815 1_554
Ge11 Ho0 3.046815 1_555
Ge11 Ho3 3.046817 1_555
Ge11 Ho6 3.046817 1_554
Ge11 Ho11 3.118928 1_555
Ge11 Ho8 3.190817 1_555
Ge11 Ho9 3.190818 1_554
Ge12 Ge13 2.590481 1_555
Ge12 Ho5 3.046815 1_554
Ge12 Ho1 3.046817 1_554
Ge12 Ho2 3.046817 1_555
Ge12 Ho4 3.046825 1_555
Ge12 Ho12 3.118928 1_555
Ge12 Ho9 3.190817 1_554
Ge12 Ho8 3.190818 1_555
Ge13 Ho0 3.046813 1_555
Ge13 Ho4 3.046819 1_555
Ge13 Ho6 3.046822 1_554
Ge13 Ho1 3.046822 1_554
Ge13 Ho13 3.118929 1_555
Ge13 Ho8 3.190811 1_555
Ge13 Ho9 3.190824 1_554
Ge14 Ho18 2.990608 1_555
Ge14 Ho15 2.990608 1_555
Ge14 Ho17 2.990618 1_565
Ge14 Ho16 2.990618 1_655
Ge14 Ho13 3.298750 1_666
Ge14 Ho11 3.298751 1_656
Ge14 Ho12 3.298752 1_566
Ge14 Ho10 3.298761 1_556
Ge14 Ho8 3.652324 1_555
Ge15 Ho21 2.990608 1_555
Ge15 Ho19 2.990608 1_555
Ge15 Ho14 2.990618 1_545
Ge15 Ho20 2.990618 1_455
Ge15 Ho12 3.298751 1_455
Ge15 Ho11 3.298752 1_545
Ge15 Ho13 3.298755 1_555
Ge15 Ho10 3.298757 1_445
Ge15 Ho9 3.652324 1_555
Ge16 Ho10 2.735689 1_545
Ge16 Ho12 2.735698 1_555
Ge16 Ho1 2.958804 1_554
Ge16 Ho7 2.958805 1_544
Ge16 Ho4 2.958810 1_555
Ge16 Ho3 2.958813 1_545
Ge16 Ho15 3.304591 1_544
Ge16 Ho20 3.304595 1_555
Ge17 Ho11 2.735683 1_555
Ge17 Ho10 2.735689 1_455
Ge17 Ho6 2.958805 1_554
Ge17 Ho5 2.958805 1_454
Ge17 Ho0 2.958806 1_555
Ge17 Ho2 2.958813 1_455
Ge17 Ho18 3.304591 1_454
Ge17 Ho14 3.304595 1_555
Ge18 Ho13 2.735681 1_555
Ge18 Ho12 2.735683 1_455
Ge18 Ho2 2.958805 1_455
Ge18 Ho0 2.958805 1_555
Ge18 Ho5 2.958806 1_454
Ge18 Ho6 2.958813 1_554
Ge18 Ho21 3.304591 1_555
Ge18 Ho17 3.304595 1_454
Ge19 Ho13 2.735697 1_555
Ge19 Ho11 2.735698 1_545
Ge19 Ho4 2.958803 1_555
Ge19 Ho3 2.958804 1_545
Ge19 Ho7 2.958806 1_544
Ge19 Ho1 2.958813 1_554
Ge19 Ho19 3.304591 1_555
Ge19 Ho16 3.304595 1_544
