# generated using pymatgen
data_H2CO
_symmetry_space_group_name_H-M   'P 1'
_cell_length_a   7.54646562
_cell_length_b   7.54646562
_cell_length_c   7.54646562
_cell_angle_alpha   100.63655345
_cell_angle_beta   100.63655345
_cell_angle_gamma   129.11235909
_symmetry_Int_Tables_number   1
_chemical_formula_structural   H2CO
_chemical_formula_sum   'H16 C8 O8'
_cell_volume   301.11572921
_cell_formula_units_Z   8
loop_
 _symmetry_equiv_pos_site_id
 _symmetry_equiv_pos_as_xyz
  1  'x, y, z'
loop_
 _atom_site_type_symbol
 _atom_site_label
 _atom_site_symmetry_multiplicity
 _atom_site_fract_x
 _atom_site_fract_y
 _atom_site_fract_z
 _atom_site_occupancy
  H  H0  1  0.23733700  0.33430000  0.34145500  1
  H  H1  1  0.99284500  0.89588200  0.65854500  1
  H  H2  1  0.58430000  0.74284500  0.59696300  1
  H  H3  1  0.14588200  0.98733700  0.40303700  1
  H  H4  1  0.01266300  0.41570000  0.15854500  1
  H  H5  1  0.25715500  0.85411800  0.84145500  1
  H  H6  1  0.66570000  0.00715500  0.90303700  1
  H  H7  1  0.10411800  0.76266300  0.09696300  1
  H  H8  1  0.33652400  0.23550300  0.17840400  1
  H  H9  1  0.05709900  0.15812000  0.82159600  1
  H  H10  1  0.48550300  0.80709900  0.39897900  1
  H  H11  1  0.40812000  0.08652400  0.60102100  1
  H  H12  1  0.91347600  0.51449700  0.32159600  1
  H  H13  1  0.19290100  0.59188000  0.67840400  1
  H  H14  1  0.76449700  0.94290100  0.10102100  1
  H  H15  1  0.84188000  0.66347600  0.89897900  1
  C  C0  1  0.39595500  0.36589400  0.32236400  1
  C  C1  1  0.04353000  0.07359100  0.67763600  1
  C  C2  1  0.61589400  0.79353000  0.46993900  1
  C  C3  1  0.32359100  0.14595500  0.53006100  1
  C  C4  1  0.85404500  0.38410600  0.17763600  1
  C  C5  1  0.20647000  0.67640900  0.82236400  1
  C  C6  1  0.63410600  0.95647000  0.03006100  1
  C  C7  1  0.92640900  0.60404500  0.96993900  1
  O  O0  1  0.57962200  0.60346900  0.33009400  1
  O  O1  1  0.27337500  0.24952800  0.66990600  1
  O  O2  1  0.85346900  0.02337500  0.52384700  1
  O  O3  1  0.49952800  0.32962200  0.47615300  1
  O  O4  1  0.67037800  0.14653100  0.16990600  1
  O  O5  1  0.97662500  0.50047200  0.83009400  1
  O  O6  1  0.39653100  0.72662500  0.97615300  1
  O  O7  1  0.75047200  0.42037800  0.02384700  1
loop_
_geom_bond_atom_site_label_1
_geom_bond_atom_site_label_2
_geom_bond_distance
_geom_bond_site_symmetry_2
C0 H8 1.103781 1_555
C0 H0 1.107560 1_555
C0 O0 1.391087 1_555
C0 O3 1.443983 1_555
C1 H9 1.103781 1_555
C1 H1 1.107560 1_445
C1 O1 1.391087 1_555
C1 O2 1.443983 1_455
C2 H10 1.103781 1_555
C2 H2 1.107560 1_555
C2 O2 1.391087 1_565
C2 O0 1.443983 1_555
C3 H11 1.103781 1_555
C3 H3 1.107560 1_545
C3 O3 1.391087 1_555
C3 O1 1.443983 1_555
C4 H12 1.103781 1_555
C4 H4 1.107560 1_655
C4 O4 1.391087 1_555
C4 O7 1.443983 1_555
C5 H13 1.103781 1_555
C5 H5 1.107560 1_555
C5 O5 1.391087 1_455
C5 O6 1.443983 1_555
C6 H14 1.103781 1_555
C6 H6 1.107560 1_564
C6 O6 1.391087 1_554
C6 O4 1.443983 1_565
C7 H15 1.103781 1_555
C7 H7 1.107560 1_656
C7 O7 1.391087 1_556
C7 O5 1.443983 1_555
