# generated using pymatgen
data_Sc2MnSn
_symmetry_space_group_name_H-M   'P 1'
_cell_length_a   4.76969828
_cell_length_b   4.76969828
_cell_length_c   4.76969828
_cell_angle_alpha   60.00000000
_cell_angle_beta   60.00000000
_cell_angle_gamma   60.00000000
_symmetry_Int_Tables_number   1
_chemical_formula_structural   Sc2MnSn
_chemical_formula_sum   'Sc2 Mn1 Sn1'
_cell_volume   76.72867972
_cell_formula_units_Z   1
loop_
 _symmetry_equiv_pos_site_id
 _symmetry_equiv_pos_as_xyz
  1  'x, y, z'
loop_
 _atom_site_type_symbol
 _atom_site_label
 _atom_site_symmetry_multiplicity
 _atom_site_fract_x
 _atom_site_fract_y
 _atom_site_fract_z
 _atom_site_occupancy
  Sc  Sc0  1  0.00000000  0.00000000  0.00000000  1
  Sc  Sc1  1  0.25000000  0.25000000  0.25000000  1
  Mn  Mn0  1  0.50000000  0.50000000  0.50000000  1
  Sn  Sn0  1  0.75000000  0.75000000  0.75000000  1
loop_
_geom_bond_atom_site_label_1
_geom_bond_atom_site_label_2
_geom_bond_distance
_geom_bond_site_symmetry_2
Sc0 Sn0 2.920832 1_445
Sc0 Sc1 2.920832 1_545
Sc0 Sn0 2.920832 1_454
Sc0 Sc1 2.920832 1_554
Sc0 Sc1 2.920832 1_455
Sc0 Sn0 2.920832 1_544
Sc0 Sc1 2.920832 1_555
Sc0 Sn0 2.920832 1_444
Sc1 Sn0 3.372686 1_544
Sc1 Sn0 3.372686 1_545
Sc1 Sn0 3.372686 1_445
Sc1 Sn0 3.372686 1_455
Sc1 Sn0 3.372686 1_554
Sc1 Sn0 3.372686 1_454
Mn0 Sc1 2.920832 1_565
Mn0 Sn0 2.920832 1_554
Mn0 Sn0 2.920832 1_455
Mn0 Sc1 2.920832 1_655
Mn0 Sc1 2.920832 1_555
Mn0 Sn0 2.920832 1_555
Mn0 Sc1 2.920832 1_556
Mn0 Sn0 2.920832 1_545
