# generated using pymatgen
data_NpAs3
_symmetry_space_group_name_H-M   'P 1'
_cell_length_a   5.63828229
_cell_length_b   5.63828229
_cell_length_c   5.63828229
_cell_angle_alpha   138.01183518
_cell_angle_beta   138.01183518
_cell_angle_gamma   60.88487293
_symmetry_Int_Tables_number   1
_chemical_formula_structural   NpAs3
_chemical_formula_sum   'Np1 As3'
_cell_volume   79.34181544
_cell_formula_units_Z   1
loop_
 _symmetry_equiv_pos_site_id
 _symmetry_equiv_pos_as_xyz
  1  'x, y, z'
loop_
 _atom_site_type_symbol
 _atom_site_label
 _atom_site_symmetry_multiplicity
 _atom_site_fract_x
 _atom_site_fract_y
 _atom_site_fract_z
 _atom_site_occupancy
  Np  Np0  1  0.00000000  0.00000000  0.00000000  1
  As  As0  1  0.75000000  0.25000000  0.50000000  1
  As  As1  1  0.25000000  0.75000000  0.50000000  1
  As  As2  1  0.50000000  0.50000000  0.00000000  1
loop_
_geom_bond_atom_site_label_1
_geom_bond_atom_site_label_2
_geom_bond_distance
_geom_bond_site_symmetry_2
As0 As1 2.856762 1_645
As0 As1 2.856762 1_555
As0 As1 2.856762 1_656
As0 As1 2.856762 1_544
As0 Np0 3.160353 1_555
As0 Np0 3.160353 1_655
As0 Np0 3.160353 1_666
As0 Np0 3.160353 1_656
As1 Np0 3.160353 1_566
As1 Np0 3.160353 1_555
As1 Np0 3.160353 1_666
As1 Np0 3.160353 1_565
As2 Np0 2.856762 1_565
As2 Np0 2.856762 1_554
As2 Np0 2.856762 1_655
As2 Np0 2.856762 1_666
