# generated using pymatgen
data_MgPb5
_symmetry_space_group_name_H-M   'P 1'
_cell_length_a   17.92899571
_cell_length_b   17.92899571
_cell_length_c   11.52198816
_cell_angle_alpha   90.00000000
_cell_angle_beta   90.00000000
_cell_angle_gamma   157.44071942
_symmetry_Int_Tables_number   1
_chemical_formula_structural   MgPb5
_chemical_formula_sum   'Mg8 Pb40'
_cell_volume   1420.89578970
_cell_formula_units_Z   8
loop_
 _symmetry_equiv_pos_site_id
 _symmetry_equiv_pos_as_xyz
  1  'x, y, z'
loop_
 _atom_site_type_symbol
 _atom_site_label
 _atom_site_symmetry_multiplicity
 _atom_site_fract_x
 _atom_site_fract_y
 _atom_site_fract_z
 _atom_site_occupancy
  Mg  Mg0_0  1  0.38921487  0.11078514  0.00000000  1
  Mg  Mg0_1  1  0.38921487  0.11078514  0.50000000  1
  Mg  Mg0_2  1  0.38921487  0.61078513  0.00000000  1
  Mg  Mg0_3  1  0.38921487  0.61078513  0.50000000  1
  Mg  Mg0_4  1  0.88921487  0.11078513  0.00000000  1
  Mg  Mg0_5  1  0.88921487  0.11078513  0.50000000  1
  Mg  Mg0_6  1  0.88921487  0.61078513  0.00000000  1
  Mg  Mg0_7  1  0.88921487  0.61078513  0.50000000  1
  Pb  Pb0_0  1  0.99967528  0.00032472  0.25000000  1
  Pb  Pb0_1  1  0.99967528  0.00032472  0.75000000  1
  Pb  Pb0_2  1  0.99967528  0.50032472  0.25000000  1
  Pb  Pb0_3  1  0.99967528  0.50032472  0.75000000  1
  Pb  Pb0_4  1  0.49967528  0.00032472  0.25000000  1
  Pb  Pb0_5  1  0.49967528  0.00032472  0.75000000  1
  Pb  Pb0_6  1  0.49967528  0.50032472  0.25000000  1
  Pb  Pb0_7  1  0.49967528  0.50032472  0.75000000  1
  Pb  Pb1_0  1  0.16476122  0.33523877  0.25000000  1
  Pb  Pb1_1  1  0.16476122  0.33523877  0.75000000  1
  Pb  Pb1_2  1  0.16476122  0.83523877  0.25000000  1
  Pb  Pb1_3  1  0.16476122  0.83523877  0.75000000  1
  Pb  Pb1_4  1  0.66476123  0.33523877  0.25000000  1
  Pb  Pb1_5  1  0.66476123  0.33523877  0.75000000  1
  Pb  Pb1_6  1  0.66476123  0.83523877  0.25000000  1
  Pb  Pb1_7  1  0.66476123  0.83523877  0.75000000  1
  Pb  Pb2_0  1  0.33291434  0.16708566  0.25000000  1
  Pb  Pb2_1  1  0.33291434  0.16708566  0.75000000  1
  Pb  Pb2_2  1  0.33291434  0.66708566  0.25000000  1
  Pb  Pb2_3  1  0.33291434  0.66708566  0.75000000  1
  Pb  Pb2_4  1  0.83291434  0.16708566  0.25000000  1
  Pb  Pb2_5  1  0.83291434  0.16708566  0.75000000  1
  Pb  Pb2_6  1  0.83291434  0.66708566  0.25000000  1
  Pb  Pb2_7  1  0.83291434  0.66708566  0.75000000  1
  Pb  Pb3_0  1  0.21756976  0.28243025  0.00000000  1
  Pb  Pb3_1  1  0.21756976  0.28243025  0.50000000  1
  Pb  Pb3_2  1  0.21756975  0.78243025  0.00000000  1
  Pb  Pb3_3  1  0.21756975  0.78243025  0.50000000  1
  Pb  Pb3_4  1  0.71756975  0.28243025  0.00000000  1
  Pb  Pb3_5  1  0.71756975  0.28243025  0.50000000  1
  Pb  Pb3_6  1  0.71756975  0.78243025  0.00000000  1
  Pb  Pb3_7  1  0.71756975  0.78243025  0.50000000  1
  Pb  Pb4_0  1  0.06252654  0.43747346  0.00000000  1
  Pb  Pb4_1  1  0.06252654  0.43747346  0.50000000  1
  Pb  Pb4_2  1  0.06252654  0.93747346  0.00000000  1
  Pb  Pb4_3  1  0.06252654  0.93747346  0.50000000  1
  Pb  Pb4_4  1  0.56252654  0.43747346  0.00000000  1
  Pb  Pb4_5  1  0.56252654  0.43747346  0.50000000  1
  Pb  Pb4_6  1  0.56252654  0.93747346  0.00000000  1
  Pb  Pb4_7  1  0.56252654  0.93747346  0.50000000  1
loop_
_geom_bond_atom_site_label_1
_geom_bond_atom_site_label_2
_geom_bond_distance
_geom_bond_site_symmetry_2
Mg0_0 Pb4_4 3.216694 1_555
Mg0_0 Pb4_2 3.216694 1_545
Mg0_0 Pb3_4 3.265983 1_555
Mg0_0 Pb3_2 3.265983 1_545
Mg0_0 Pb1_5 3.489817 1_554
Mg0_0 Pb1_4 3.489817 1_555
Mg0_0 Pb1_2 3.489817 1_545
Mg0_0 Pb1_3 3.489817 1_544
Mg0_0 Pb2_1 3.495280 1_554
Mg0_0 Pb2_0 3.495280 1_555
Mg0_1 Pb4_5 3.216694 1_555
Mg0_1 Pb4_3 3.216694 1_545
Mg0_1 Pb3_5 3.265983 1_555
Mg0_1 Pb3_3 3.265983 1_545
Mg0_1 Pb1_5 3.489817 1_555
Mg0_1 Pb1_4 3.489817 1_555
Mg0_1 Pb1_3 3.489817 1_545
Mg0_1 Pb1_2 3.489817 1_545
Mg0_1 Pb2_0 3.495280 1_555
Mg0_1 Pb2_1 3.495280 1_555
Mg0_2 Pb4_0 3.216694 1_555
Mg0_2 Pb4_6 3.216694 1_555
Mg0_2 Pb3_6 3.265983 1_555
Mg0_2 Pb3_0 3.265983 1_555
Mg0_2 Pb1_1 3.489817 1_554
Mg0_2 Pb1_0 3.489817 1_555
Mg0_2 Pb1_6 3.489817 1_555
Mg0_2 Pb1_7 3.489817 1_554
Mg0_2 Pb2_2 3.495280 1_555
Mg0_2 Pb2_3 3.495280 1_554
Mg0_3 Pb4_1 3.216694 1_555
Mg0_3 Pb4_7 3.216694 1_555
Mg0_3 Pb3_7 3.265983 1_555
Mg0_3 Pb3_1 3.265983 1_555
Mg0_3 Pb1_0 3.489817 1_555
Mg0_3 Pb1_1 3.489817 1_555
Mg0_3 Pb1_6 3.489817 1_555
Mg0_3 Pb1_7 3.489817 1_555
Mg0_3 Pb2_3 3.495280 1_555
Mg0_3 Pb2_2 3.495280 1_555
Mg0_4 Pb4_6 3.216694 1_545
Mg0_4 Pb4_0 3.216694 1_655
Mg0_4 Pb3_0 3.265983 1_655
Mg0_4 Pb3_6 3.265983 1_545
Mg0_4 Pb1_1 3.489817 1_654
Mg0_4 Pb1_0 3.489817 1_655
Mg0_4 Pb1_6 3.489817 1_545
Mg0_4 Pb1_7 3.489817 1_544
Mg0_4 Pb2_5 3.495280 1_554
Mg0_4 Pb2_4 3.495280 1_555
Mg0_5 Pb4_7 3.216694 1_545
Mg0_5 Pb4_1 3.216694 1_655
Mg0_5 Pb3_1 3.265983 1_655
Mg0_5 Pb3_7 3.265983 1_545
Mg0_5 Pb1_0 3.489817 1_655
Mg0_5 Pb1_1 3.489817 1_655
Mg0_5 Pb1_6 3.489817 1_545
Mg0_5 Pb1_7 3.489817 1_545
Mg0_5 Pb2_5 3.495280 1_555
Mg0_5 Pb2_4 3.495280 1_555
Mg0_6 Pb4_4 3.216694 1_555
Mg0_6 Pb4_2 3.216694 1_655
Mg0_6 Pb3_4 3.265983 1_555
Mg0_6 Pb3_2 3.265983 1_655
Mg0_6 Pb1_3 3.489817 1_654
Mg0_6 Pb1_2 3.489817 1_655
Mg0_6 Pb1_5 3.489817 1_554
Mg0_6 Pb1_4 3.489817 1_555
Mg0_6 Pb2_7 3.495280 1_554
Mg0_6 Pb2_6 3.495280 1_555
Mg0_7 Pb4_5 3.216694 1_555
Mg0_7 Pb4_3 3.216694 1_655
Mg0_7 Pb3_5 3.265983 1_555
Mg0_7 Pb3_3 3.265983 1_655
Mg0_7 Pb1_2 3.489817 1_655
Mg0_7 Pb1_3 3.489817 1_655
Mg0_7 Pb1_5 3.489817 1_555
Mg0_7 Pb1_4 3.489817 1_555
Mg0_7 Pb2_7 3.495280 1_555
Mg0_7 Pb2_6 3.495280 1_555
Pb0_0 Pb2_0 3.412131 1_655
Pb0_0 Pb2_6 3.412131 1_545
Pb0_0 Pb1_6 3.462793 1_545
Pb0_0 Pb1_0 3.462793 1_655
Pb0_0 Pb0_6 3.506870 1_655
Pb0_0 Pb0_6 3.506870 1_545
Pb0_0 Pb3_7 3.556184 1_545
Pb0_0 Pb3_0 3.556184 1_655
Pb0_0 Pb3_6 3.556184 1_545
Pb0_0 Pb3_1 3.556184 1_655
Pb0_0 Pb4_3 3.630729 1_645
Pb0_0 Pb4_2 3.630729 1_645
Pb0_1 Pb2_1 3.412131 1_655
Pb0_1 Pb2_7 3.412131 1_545
Pb0_1 Pb1_7 3.462793 1_545
Pb0_1 Pb1_1 3.462793 1_655
Pb0_1 Pb0_7 3.506870 1_655
Pb0_1 Pb0_7 3.506870 1_545
Pb0_1 Pb3_7 3.556184 1_545
Pb0_1 Pb3_0 3.556184 1_656
Pb0_1 Pb3_6 3.556184 1_546
Pb0_1 Pb3_1 3.556184 1_655
Pb0_1 Pb4_2 3.630729 1_646
Pb0_1 Pb4_3 3.630729 1_645
Pb0_2 Pb2_2 3.412131 1_655
Pb0_2 Pb2_4 3.412131 1_555
Pb0_2 Pb1_4 3.462793 1_555
Pb0_2 Pb1_2 3.462793 1_655
Pb0_2 Pb0_4 3.506870 1_555
Pb0_2 Pb0_4 3.506870 1_665
Pb0_2 Pb3_5 3.556184 1_555
Pb0_2 Pb3_3 3.556184 1_655
Pb0_2 Pb3_4 3.556184 1_555
Pb0_2 Pb3_2 3.556184 1_655
Pb0_2 Pb4_1 3.630729 1_655
Pb0_2 Pb4_0 3.630729 1_655
Pb0_3 Pb2_3 3.412131 1_655
Pb0_3 Pb2_5 3.412131 1_555
Pb0_3 Pb1_5 3.462793 1_555
Pb0_3 Pb1_3 3.462793 1_655
Pb0_3 Pb0_5 3.506870 1_665
Pb0_3 Pb0_5 3.506870 1_555
Pb0_3 Pb3_4 3.556184 1_556
Pb0_3 Pb3_5 3.556184 1_555
Pb0_3 Pb3_3 3.556184 1_655
Pb0_3 Pb3_2 3.556184 1_656
Pb0_3 Pb4_0 3.630729 1_656
Pb0_3 Pb4_1 3.630729 1_655
Pb0_4 Pb2_2 3.412131 1_545
Pb0_4 Pb2_4 3.412131 1_555
Pb0_4 Pb1_4 3.462793 1_555
Pb0_4 Pb1_2 3.462793 1_545
Pb0_4 Pb3_5 3.556184 1_555
Pb0_4 Pb3_2 3.556184 1_545
Pb0_4 Pb3_4 3.556184 1_555
Pb0_4 Pb3_3 3.556184 1_545
Pb0_4 Pb4_6 3.630729 1_545
Pb0_4 Pb4_7 3.630729 1_545
Pb0_5 Pb2_5 3.412131 1_555
Pb0_5 Pb2_3 3.412131 1_545
Pb0_5 Pb1_5 3.462793 1_555
Pb0_5 Pb1_3 3.462793 1_545
Pb0_5 Pb3_5 3.556184 1_555
Pb0_5 Pb3_2 3.556184 1_546
Pb0_5 Pb3_4 3.556184 1_556
Pb0_5 Pb3_3 3.556184 1_545
Pb0_5 Pb4_6 3.630729 1_546
Pb0_5 Pb4_7 3.630729 1_545
Pb0_6 Pb2_0 3.412131 1_555
Pb0_6 Pb2_6 3.412131 1_555
Pb0_6 Pb1_6 3.462793 1_555
Pb0_6 Pb1_0 3.462793 1_555
Pb0_6 Pb3_1 3.556184 1_555
Pb0_6 Pb3_0 3.556184 1_555
Pb0_6 Pb3_7 3.556184 1_555
Pb0_6 Pb3_6 3.556184 1_555
Pb0_6 Pb4_5 3.630729 1_555
Pb0_6 Pb4_4 3.630729 1_555
Pb0_7 Pb2_1 3.412131 1_555
Pb0_7 Pb2_7 3.412131 1_555
Pb0_7 Pb1_7 3.462793 1_555
Pb0_7 Pb1_1 3.462793 1_555
Pb0_7 Pb3_1 3.556184 1_555
Pb0_7 Pb3_0 3.556184 1_556
Pb0_7 Pb3_6 3.556184 1_556
Pb0_7 Pb3_7 3.556184 1_555
Pb0_7 Pb4_4 3.630729 1_556
Pb0_7 Pb4_5 3.630729 1_555
Pb1_0 Pb2_2 3.370227 1_555
Pb1_0 Pb2_4 3.370227 1_455
Pb1_0 Pb3_0 3.427219 1_555
Pb1_0 Pb3_1 3.427219 1_555
Pb1_0 Pb1_6 3.506870 1_445
Pb1_0 Pb1_6 3.506870 1_555
Pb1_1 Pb2_3 3.370227 1_555
Pb1_1 Pb2_5 3.370227 1_455
Pb1_1 Pb3_1 3.427219 1_555
Pb1_1 Pb3_0 3.427219 1_556
Pb1_1 Pb1_7 3.506870 1_445
Pb1_1 Pb1_7 3.506870 1_555
Pb1_2 Pb2_6 3.370227 1_455
Pb1_2 Pb2_0 3.370227 1_565
Pb1_2 Pb3_3 3.427219 1_555
Pb1_2 Pb3_2 3.427219 1_555
Pb1_2 Pb1_4 3.506870 1_455
Pb1_2 Pb1_4 3.506870 1_565
Pb1_3 Pb2_7 3.370227 1_455
Pb1_3 Pb2_1 3.370227 1_565
Pb1_3 Pb3_3 3.427219 1_555
Pb1_3 Pb3_2 3.427219 1_556
Pb1_3 Pb1_5 3.506870 1_455
Pb1_3 Pb1_5 3.506870 1_565
Pb1_4 Pb2_6 3.370227 1_555
Pb1_4 Pb2_0 3.370227 1_555
Pb1_4 Pb3_4 3.427219 1_555
Pb1_4 Pb3_5 3.427219 1_555
Pb1_5 Pb2_7 3.370227 1_555
Pb1_5 Pb2_1 3.370227 1_555
Pb1_5 Pb3_4 3.427219 1_556
Pb1_5 Pb3_5 3.427219 1_555
Pb1_6 Pb2_2 3.370227 1_555
Pb1_6 Pb2_4 3.370227 1_565
Pb1_6 Pb3_6 3.427219 1_555
Pb1_6 Pb3_7 3.427219 1_555
Pb1_7 Pb2_3 3.370227 1_555
Pb1_7 Pb2_5 3.370227 1_565
Pb1_7 Pb3_6 3.427219 1_556
Pb1_7 Pb3_7 3.427219 1_555
Pb2_0 Pb4_2 3.447580 1_545
Pb2_0 Pb4_5 3.447580 1_555
Pb2_0 Pb4_3 3.447580 1_545
Pb2_0 Pb4_4 3.447580 1_555
Pb2_0 Pb2_6 3.506870 1_445
Pb2_0 Pb2_6 3.506870 1_555
Pb2_1 Pb4_5 3.447580 1_555
Pb2_1 Pb4_3 3.447580 1_545
Pb2_1 Pb4_4 3.447580 1_556
Pb2_1 Pb4_2 3.447580 1_546
Pb2_1 Pb2_7 3.506870 1_445
Pb2_1 Pb2_7 3.506870 1_555
Pb2_2 Pb4_6 3.447580 1_555
Pb2_2 Pb4_1 3.447580 1_555
Pb2_2 Pb4_7 3.447580 1_555
Pb2_2 Pb4_0 3.447580 1_555
Pb2_2 Pb2_4 3.506870 1_455
Pb2_2 Pb2_4 3.506870 1_565
Pb2_3 Pb4_7 3.447580 1_555
Pb2_3 Pb4_0 3.447580 1_556
Pb2_3 Pb4_1 3.447580 1_555
Pb2_3 Pb4_6 3.447580 1_556
Pb2_3 Pb2_5 3.506870 1_455
Pb2_3 Pb2_5 3.506870 1_565
Pb2_4 Pb4_7 3.447580 1_545
Pb2_4 Pb4_6 3.447580 1_545
Pb2_4 Pb4_1 3.447580 1_655
Pb2_4 Pb4_0 3.447580 1_655
Pb2_5 Pb4_7 3.447580 1_545
Pb2_5 Pb4_6 3.447580 1_546
Pb2_5 Pb4_0 3.447580 1_656
Pb2_5 Pb4_1 3.447580 1_655
Pb2_6 Pb4_5 3.447580 1_555
Pb2_6 Pb4_4 3.447580 1_555
Pb2_6 Pb4_3 3.447580 1_655
Pb2_6 Pb4_2 3.447580 1_655
Pb2_7 Pb4_5 3.447580 1_555
Pb2_7 Pb4_4 3.447580 1_556
Pb2_7 Pb4_2 3.447580 1_656
Pb2_7 Pb4_3 3.447580 1_655
