# generated using pymatgen
data_Ca2YbF7
_symmetry_space_group_name_H-M   'P 1'
_cell_length_a   8.87600800
_cell_length_b   8.91202614
_cell_length_c   10.16614681
_cell_angle_alpha   115.87593301
_cell_angle_beta   115.49933803
_cell_angle_gamma   90.38109706
_symmetry_Int_Tables_number   1
_chemical_formula_structural   Ca2YbF7
_chemical_formula_sum   'Ca10 Yb5 F35'
_cell_volume   634.05496172
_cell_formula_units_Z   5
loop_
 _symmetry_equiv_pos_site_id
 _symmetry_equiv_pos_as_xyz
  1  'x, y, z'
loop_
 _atom_site_type_symbol
 _atom_site_label
 _atom_site_symmetry_multiplicity
 _atom_site_fract_x
 _atom_site_fract_y
 _atom_site_fract_z
 _atom_site_occupancy
  Yb  Yb0  1  0.80996700  0.56931800  0.62081400  1
  Yb  Yb1  1  0.10110600  0.68492700  0.99869000  1
  Yb  Yb2  1  0.31032800  0.10040200  0.99944300  1
  Yb  Yb3  1  0.19113500  0.43108900  0.37907100  1
  Yb  Yb4  1  0.89913400  0.31421800  0.00109400  1
  Ca  Ca0  1  0.33758300  0.89242500  0.31698000  1
  Ca  Ca1  1  0.52461600  0.34992600  0.31495100  1
  Ca  Ca2  1  0.79037700  0.69978400  0.31881600  1
  Ca  Ca3  1  0.02029400  0.84727700  0.68214600  1
  Ca  Ca4  1  0.98120200  0.15489600  0.31788000  1
  Ca  Ca5  1  0.21099400  0.29509100  0.68233400  1
  Ca  Ca6  1  0.49903400  0.50121300  0.00020700  1
  Ca  Ca7  1  0.47421900  0.65091100  0.68373600  1
  Ca  Ca8  1  0.68803800  0.89910900  0.00075800  1
  Ca  Ca9  1  0.66211200  0.10794100  0.68292400  1
  F  F0  1  0.34544900  0.69253400  0.26007100  1
  F  F1  1  0.52878100  0.90371300  0.46274700  1
  F  F2  1  0.37109400  0.33643100  0.15780900  1
  F  F3  1  0.63467800  0.60837800  0.46104400  1
  F  F4  1  0.78785200  0.59427600  0.74484600  1
  F  F5  1  0.50324400  0.05875300  0.15549400  1
  F  F6  1  0.00791800  0.00594300  0.99892700  1
  F  F7  1  0.91535800  0.75276100  0.83074400  1
  F  F8  1  0.75206600  0.25123100  0.50063900  1
  F  F9  1  0.58363300  0.74780100  0.16922800  1
  F  F10  1  0.95773900  0.17990400  0.73899100  1
  F  F11  1  0.82592100  0.00703700  0.46371200  1
  F  F12  1  0.65520100  0.45813100  0.16324600  1
  F  F13  1  0.15095000  0.28473900  0.00388500  1
  F  F14  1  0.07944900  0.48619300  0.73772000  1
  F  F15  1  0.92932900  0.71617100  0.45966100  1
  F  F16  1  0.78549100  0.19022200  0.15637300  1
  F  F17  1  0.29039800  0.84627900  0.00300100  1
  F  F18  1  0.21412700  0.80886400  0.84382100  1
  F  F19  1  0.07002700  0.28745700  0.53819900  1
  F  F20  1  0.92144100  0.50999200  0.26589800  1
  F  F21  1  0.34534400  0.52919300  0.84361200  1
  F  F22  1  0.17958800  0.98471000  0.54170700  1
  F  F23  1  0.04190000  0.82300900  0.25887700  1
  F  F24  1  0.40901500  0.25716300  0.82971200  1
  F  F25  1  0.24811500  0.74818100  0.49935200  1
  F  F26  1  0.08516300  0.24632500  0.16903800  1
  F  F27  1  0.49099700  0.94523100  0.84040200  1
  F  F28  1  0.21233700  0.40121200  0.25731100  1
  F  F29  1  0.36566200  0.40020700  0.53294200  1
  F  F30  1  0.62869500  0.66150100  0.84324500  1
  F  F31  1  0.70753800  0.15738200  0.99680000  1
  F  F32  1  0.47277300  0.09410000  0.53944400  1
  F  F33  1  0.65212100  0.31362500  0.73544500  1
  F  F34  1  0.85046600  0.71282400  0.99620900  1
loop_
_geom_bond_atom_site_label_1
_geom_bond_atom_site_label_2
_geom_bond_distance
_geom_bond_site_symmetry_2
Ca0 F0 1.627863 1_555
Ca0 F1 1.669872 1_555
Ca0 F32 1.967701 1_565
Ca0 F23 2.438078 1_555
Ca0 F17 2.869498 1_555
Ca1 F2 1.542473 1_555
Ca1 F3 2.049490 1_555
Ca1 F5 2.335497 1_555
Ca1 F8 2.569924 1_555
Ca2 F15 1.373769 1_555
Ca2 F12 1.984385 1_555
Ca2 F9 2.009708 1_555
Ca2 F20 2.067476 1_555
Ca2 F11 2.415591 1_565
Ca2 F23 2.878234 1_655
Ca3 F15 1.800357 1_455
Ca3 F18 1.960330 1_555
Ca3 F7 2.484128 1_455
Ca3 F10 2.869267 1_465
Ca4 F19 1.786483 1_655
Ca4 F16 1.953280 1_555
Ca4 F26 2.464425 1_655
Ca4 F23 2.854717 1_645
Ca5 F19 1.431980 1_555
Ca5 F24 1.905497 1_555
Ca5 F21 1.939264 1_555
Ca5 F14 2.082394 1_555
Ca5 F22 2.442928 1_545
Ca5 F10 2.835271 1_455
Ca6 F21 1.714249 1_554
Ca6 F12 1.844026 1_555
Ca6 F24 1.966515 1_554
Ca6 F9 1.979134 1_555
Ca7 F30 1.571241 1_555
Ca7 F29 1.995106 1_555
Ca7 F27 2.362853 1_555
Ca7 F25 2.548578 1_555
Ca8 F30 1.903929 1_554
Ca8 F27 2.006220 1_554
Ca8 F34 2.204335 1_554
Ca8 F16 2.278453 1_565
Ca8 F31 2.326177 1_564
Ca8 F5 2.736462 1_565
Ca9 F32 1.642179 1_555
Ca9 F33 1.685736 1_555
Ca9 F1 1.964200 1_545
Ca9 F10 2.447919 1_555
Ca9 F31 2.863792 1_555
F0 Yb1 2.578376 1_554
F2 Yb2 1.894442 1_554
F3 Yb0 1.872149 1_555
F4 Yb0 1.283288 1_555
F4 F7 1.445541 1_555
F5 Yb2 1.941683 1_554
F6 Yb2 2.804915 1_555
F7 Yb0 1.821493 1_555
F7 Yb1 2.118796 1_655
F8 Yb0 2.491961 1_555
F10 Yb4 2.687211 1_556
F13 Yb2 2.173305 1_554
F13 Yb4 2.241719 1_455
F14 Yb1 2.380651 1_555
F14 Yb0 2.455003 1_455
F16 F31 1.346303 1_554
F17 F18 1.330781 1_554
F17 Yb1 2.177629 1_554
F17 Yb2 2.287658 1_564
F18 Yb2 2.280827 1_565
F20 Yb4 2.401495 1_555
F20 Yb3 2.430172 1_655
F23 Yb1 2.674199 1_554
F24 Yb2 3.014240 1_555
F25 Yb3 2.483801 1_555
F26 F28 1.418015 1_555
F26 Yb3 1.826635 1_555
F26 Yb4 2.120203 1_455
F27 Yb2 2.721841 1_565
F28 Yb3 1.245828 1_555
F29 Yb3 1.793733 1_555
F31 Yb4 2.167675 1_556
F33 Yb4 2.643812 1_556
F34 Yb1 2.230735 1_655
