# generated using pymatgen
data_Si3Os
_symmetry_space_group_name_H-M   'P 1'
_cell_length_a   4.30588777
_cell_length_b   4.30588777
_cell_length_c   4.30588777
_cell_angle_alpha   122.19233041
_cell_angle_beta   122.19233041
_cell_angle_gamma   86.24294486
_symmetry_Int_Tables_number   1
_chemical_formula_structural   Si3Os
_chemical_formula_sum   'Si3 Os1'
_cell_volume   54.45306975
_cell_formula_units_Z   1
loop_
 _symmetry_equiv_pos_site_id
 _symmetry_equiv_pos_as_xyz
  1  'x, y, z'
loop_
 _atom_site_type_symbol
 _atom_site_label
 _atom_site_symmetry_multiplicity
 _atom_site_fract_x
 _atom_site_fract_y
 _atom_site_fract_z
 _atom_site_occupancy
  Si  Si0  1  0.75000000  0.25000000  0.50000000  1
  Si  Si1  1  0.25000000  0.75000000  0.50000000  1
  Si  Si2  1  0.50000000  0.50000000  0.00000000  1
  Os  Os0  1  0.00000000  0.00000000  0.00000000  1
loop_
_geom_bond_atom_site_label_1
_geom_bond_atom_site_label_2
_geom_bond_distance
_geom_bond_site_symmetry_2
Si0 Si2 2.607851 1_656
Si0 Si2 2.607851 1_555
Si0 Si2 2.607851 1_545
Si0 Si2 2.607851 1_556
Si1 Si2 2.607851 1_455
Si1 Si2 2.607851 1_555
Si1 Si2 2.607851 1_566
Si1 Si2 2.607851 1_556
Os0 Si1 2.607851 1_544
Os0 Si0 2.607851 1_454
Os0 Si1 2.607851 1_545
Os0 Si1 2.607851 1_555
Os0 Si0 2.607851 1_444
Os0 Si0 2.607851 1_455
Os0 Si0 2.607851 1_555
Os0 Si1 2.607851 1_444
Os0 Si2 2.943278 1_556
Os0 Si2 2.943278 1_455
Os0 Si2 2.943278 1_444
Os0 Si2 2.943278 1_545
Os0 Si2 3.142894 1_445
Os0 Si2 3.142894 1_555
