# generated using pymatgen
data_Cu
_symmetry_space_group_name_H-M   'P 1'
_cell_length_a   5.06819212
_cell_length_b   5.06819456
_cell_length_c   8.22514200
_cell_angle_alpha   90.00000000
_cell_angle_beta   90.00000000
_cell_angle_gamma   120.00002373
_symmetry_Int_Tables_number   1
_chemical_formula_structural   Cu
_chemical_formula_sum   Cu16
_cell_volume   182.97016509
_cell_formula_units_Z   16
loop_
 _symmetry_equiv_pos_site_id
 _symmetry_equiv_pos_as_xyz
  1  'x, y, z'
loop_
 _atom_site_type_symbol
 _atom_site_label
 _atom_site_symmetry_multiplicity
 _atom_site_fract_x
 _atom_site_fract_y
 _atom_site_fract_z
 _atom_site_occupancy
  Cu  Cu0_0  1  0.16666750  0.33333450  0.12500000  1
  Cu  Cu0_1  1  0.16666750  0.33333450  0.62500000  1
  Cu  Cu0_2  1  0.16666750  0.83333450  0.12500000  1
  Cu  Cu0_3  1  0.16666750  0.83333450  0.62500000  1
  Cu  Cu0_4  1  0.66666750  0.33333450  0.12500000  1
  Cu  Cu0_5  1  0.66666750  0.33333450  0.62500000  1
  Cu  Cu0_6  1  0.66666750  0.83333450  0.12500000  1
  Cu  Cu0_7  1  0.66666750  0.83333450  0.62500000  1
  Cu  Cu1_0  1  0.33333350  0.16666700  0.37500050  1
  Cu  Cu1_1  1  0.33333350  0.16666700  0.87500050  1
  Cu  Cu1_2  1  0.33333350  0.66666700  0.37500050  1
  Cu  Cu1_3  1  0.33333350  0.66666700  0.87500050  1
  Cu  Cu1_4  1  0.83333350  0.16666700  0.37500050  1
  Cu  Cu1_5  1  0.83333350  0.16666700  0.87500050  1
  Cu  Cu1_6  1  0.83333350  0.66666700  0.37500050  1
  Cu  Cu1_7  1  0.83333350  0.66666700  0.87500050  1
loop_
_geom_bond_atom_site_label_1
_geom_bond_atom_site_label_2
_geom_bond_distance
_geom_bond_site_symmetry_2
Cu0_0 Cu1_3 2.523654 1_554
Cu0_0 Cu1_1 2.523657 1_554
Cu0_0 Cu1_5 2.523658 1_454
Cu0_0 Cu1_2 2.523661 1_555
Cu0_0 Cu1_0 2.523664 1_555
Cu0_0 Cu1_4 2.523664 1_455
Cu0_0 Cu0_6 2.534096 1_445
Cu0_0 Cu0_6 2.534096 1_555
Cu0_0 Cu0_4 2.534096 1_455
Cu0_0 Cu0_4 2.534096 1_555
Cu0_0 Cu0_2 2.534097 1_545
Cu0_0 Cu0_2 2.534097 1_555
Cu0_1 Cu1_2 2.523654 1_555
Cu0_1 Cu1_0 2.523657 1_555
Cu0_1 Cu1_4 2.523658 1_455
Cu0_1 Cu1_3 2.523661 1_555
Cu0_1 Cu1_1 2.523664 1_555
Cu0_1 Cu1_5 2.523664 1_455
Cu0_1 Cu0_7 2.534096 1_445
Cu0_1 Cu0_7 2.534096 1_555
Cu0_1 Cu0_5 2.534096 1_555
Cu0_1 Cu0_5 2.534096 1_455
Cu0_1 Cu0_3 2.534097 1_545
Cu0_1 Cu0_3 2.534097 1_555
Cu0_2 Cu1_1 2.523654 1_564
Cu0_2 Cu1_3 2.523657 1_554
Cu0_2 Cu1_7 2.523658 1_454
Cu0_2 Cu1_0 2.523661 1_565
Cu0_2 Cu1_2 2.523664 1_555
Cu0_2 Cu1_6 2.523664 1_455
Cu0_2 Cu0_4 2.534096 1_565
Cu0_2 Cu0_4 2.534096 1_455
Cu0_2 Cu0_6 2.534096 1_555
Cu0_2 Cu0_6 2.534096 1_455
Cu0_3 Cu1_0 2.523654 1_565
Cu0_3 Cu1_2 2.523657 1_555
Cu0_3 Cu1_6 2.523658 1_455
Cu0_3 Cu1_1 2.523661 1_565
Cu0_3 Cu1_3 2.523664 1_555
Cu0_3 Cu1_7 2.523664 1_455
Cu0_3 Cu0_5 2.534096 1_565
Cu0_3 Cu0_5 2.534096 1_455
Cu0_3 Cu0_7 2.534096 1_455
Cu0_3 Cu0_7 2.534096 1_555
Cu0_4 Cu1_7 2.523654 1_554
Cu0_4 Cu1_5 2.523657 1_554
Cu0_4 Cu1_1 2.523658 1_554
Cu0_4 Cu1_6 2.523661 1_555
Cu0_4 Cu1_4 2.523664 1_555
Cu0_4 Cu1_0 2.523664 1_555
Cu0_4 Cu0_6 2.534097 1_545
Cu0_4 Cu0_6 2.534097 1_555
Cu0_5 Cu1_6 2.523654 1_555
Cu0_5 Cu1_4 2.523657 1_555
Cu0_5 Cu1_0 2.523658 1_555
Cu0_5 Cu1_7 2.523661 1_555
Cu0_5 Cu1_5 2.523664 1_555
Cu0_5 Cu1_1 2.523664 1_555
Cu0_5 Cu0_7 2.534097 1_555
Cu0_5 Cu0_7 2.534097 1_545
Cu0_6 Cu1_5 2.523654 1_564
Cu0_6 Cu1_7 2.523657 1_554
Cu0_6 Cu1_3 2.523658 1_554
Cu0_6 Cu1_4 2.523661 1_565
Cu0_6 Cu1_6 2.523664 1_555
Cu0_6 Cu1_2 2.523664 1_555
Cu0_7 Cu1_4 2.523654 1_565
Cu0_7 Cu1_6 2.523657 1_555
Cu0_7 Cu1_2 2.523658 1_555
Cu0_7 Cu1_5 2.523661 1_565
Cu0_7 Cu1_7 2.523664 1_555
Cu0_7 Cu1_3 2.523664 1_555
Cu1_0 Cu1_6 2.534096 1_445
Cu1_0 Cu1_6 2.534096 1_555
Cu1_0 Cu1_4 2.534096 1_555
Cu1_0 Cu1_4 2.534096 1_455
Cu1_0 Cu1_2 2.534097 1_555
Cu1_0 Cu1_2 2.534097 1_545
Cu1_1 Cu1_7 2.534096 1_445
Cu1_1 Cu1_7 2.534096 1_555
Cu1_1 Cu1_5 2.534096 1_555
Cu1_1 Cu1_5 2.534096 1_455
Cu1_1 Cu1_3 2.534097 1_545
Cu1_1 Cu1_3 2.534097 1_555
Cu1_2 Cu1_4 2.534096 1_565
Cu1_2 Cu1_4 2.534096 1_455
Cu1_2 Cu1_6 2.534096 1_555
Cu1_2 Cu1_6 2.534096 1_455
Cu1_3 Cu1_5 2.534096 1_565
Cu1_3 Cu1_5 2.534096 1_455
Cu1_3 Cu1_7 2.534096 1_555
Cu1_3 Cu1_7 2.534096 1_455
Cu1_4 Cu1_6 2.534097 1_555
Cu1_4 Cu1_6 2.534097 1_545
Cu1_5 Cu1_7 2.534097 1_555
Cu1_5 Cu1_7 2.534097 1_545
