# generated using pymatgen
data_Pr(BRu)2
_symmetry_space_group_name_H-M   'P 1'
_cell_length_a   5.61700052
_cell_length_b   5.61700052
_cell_length_c   5.98080264
_cell_angle_alpha   108.36596359
_cell_angle_beta   108.36596359
_cell_angle_gamma   109.20896916
_symmetry_Int_Tables_number   1
_chemical_formula_structural   Pr(BRu)2
_chemical_formula_sum   'Pr2 B4 Ru4'
_cell_volume   149.52061775
_cell_formula_units_Z   2
loop_
 _symmetry_equiv_pos_site_id
 _symmetry_equiv_pos_as_xyz
  1  'x, y, z'
loop_
 _atom_site_type_symbol
 _atom_site_label
 _atom_site_symmetry_multiplicity
 _atom_site_fract_x
 _atom_site_fract_y
 _atom_site_fract_z
 _atom_site_occupancy
  Pr  Pr0  1  -0.00000000  0.00000000  0.00000000  1
  Pr  Pr1  1  0.25000000  0.75000000  0.49999900  1
  B  B0  1  0.68064108  0.31935892  0.00000000  1
  B  B1  1  0.31935892  0.68064108  0.00000000  1
  B  B2  1  0.93063676  0.06936424  0.49999900  1
  B  B3  1  0.56936424  0.43063676  0.49999900  1
  Ru  Ru0  1  0.61346544  0.11346544  0.22692888  1
  Ru  Ru1  1  0.63653584  0.63653584  0.27307267  1
  Ru  Ru2  1  0.36346316  0.36346316  0.72692633  1
  Ru  Ru3  1  0.88653456  0.38653556  0.77307012  1
loop_
_geom_bond_atom_site_label_1
_geom_bond_atom_site_label_2
_geom_bond_distance
_geom_bond_site_symmetry_2
Pr0 Ru0 3.030610 1_455
Pr0 Ru3 3.030612 1_444
Pr0 Ru0 3.030617 1_555
Pr0 Ru3 3.030619 1_454
Pr1 Ru1 3.030605 1_555
Pr1 Ru2 3.030609 1_565
Pr1 Ru1 3.030612 1_455
Pr1 Ru2 3.030612 1_555
B0 Ru0 2.084854 1_555
B0 Ru3 2.084860 1_554
B0 Ru1 2.148150 1_555
B0 Ru2 2.148153 1_554
B0 Pr0 2.924579 1_655
B0 Pr1 3.057110 1_655
B0 Pr1 3.057115 1_544
B1 Ru3 2.084863 1_454
B1 Ru0 2.084864 1_565
B1 Ru1 2.148150 1_555
B1 Ru2 2.148153 1_554
B1 Pr0 2.924579 1_565
B1 Pr1 3.057106 1_555
B1 Pr1 3.057118 1_554
B2 Ru2 2.084863 1_655
B2 Ru1 2.084873 1_545
B2 Ru0 2.148108 1_555
B2 Ru3 2.148115 1_555
B2 Pr1 2.924623 1_645
B2 Pr0 3.057114 1_655
B2 Pr0 3.057129 1_656
B3 Ru1 2.084857 1_555
B3 Ru2 2.084873 1_555
B3 Ru3 2.148108 1_555
B3 Ru0 2.148108 1_555
B3 Pr1 2.924623 1_555
B3 Pr0 3.057121 1_555
B3 Pr0 3.057122 1_666
