# generated using pymatgen
data_LiNiSO4F
_symmetry_space_group_name_H-M   'P 1'
_cell_length_a   5.43208501
_cell_length_b   7.27077051
_cell_length_c   10.28229749
_cell_angle_alpha   76.29967681
_cell_angle_beta   79.11946760
_cell_angle_gamma   107.39114130
_symmetry_Int_Tables_number   1
_chemical_formula_structural   LiNiSO4F
_chemical_formula_sum   'Li4 Ni4 S4 O16 F4'
_cell_volume   361.45794268
_cell_formula_units_Z   4
loop_
 _symmetry_equiv_pos_site_id
 _symmetry_equiv_pos_as_xyz
  1  'x, y, z'
loop_
 _atom_site_type_symbol
 _atom_site_label
 _atom_site_symmetry_multiplicity
 _atom_site_fract_x
 _atom_site_fract_y
 _atom_site_fract_z
 _atom_site_occupancy
  Li  Li0  1  0.49591600  0.65341700  0.13385100  1
  Li  Li1  1  0.99573400  0.15360900  0.63342600  1
  Li  Li2  1  0.00426400  0.84635800  0.36614500  1
  Li  Li3  1  0.50452500  0.34623100  0.86656700  1
  Ni  Ni0  1  0.49999900  0.00005800  0.49994400  1
  Ni  Ni1  1  0.00013400  0.00006900  0.99949200  1
  Ni  Ni2  1  0.99994100  0.50000400  0.99999900  1
  Ni  Ni3  1  0.50036700  0.50014200  0.50043500  1
  S  S0  1  0.47564000  0.08544100  0.16323100  1
  S  S1  1  0.97570900  0.58554700  0.66347500  1
  S  S2  1  0.02429700  0.41454500  0.33679300  1
  S  S3  1  0.52420000  0.91437700  0.83654500  1
  O  O0  1  0.45096100  0.10579300  0.30424700  1
  O  O1  1  0.95158100  0.60634900  0.80433400  1
  O  O2  1  0.04867600  0.39411700  0.19579000  1
  O  O3  1  0.54796400  0.89346000  0.69576200  1
  O  O4  1  0.60285400  0.28890000  0.05402300  1
  O  O5  1  0.10257900  0.78877000  0.55404800  1
  O  O6  1  0.89723600  0.21105300  0.44602500  1
  O  O7  1  0.39755900  0.71121600  0.94595400  1
  O  O8  1  0.19423800  0.98493800  0.15886200  1
  O  O9  1  0.69407900  0.48475900  0.65948900  1
  O  O10  1  0.30562400  0.51528200  0.34114400  1
  O  O11  1  0.80570900  0.01538800  0.84047700  1
  O  O12  1  0.63387000  0.95488900  0.13754400  1
  O  O13  1  0.13363000  0.45478400  0.63790600  1
  O  O14  1  0.86591900  0.54507300  0.36248900  1
  O  O15  1  0.36622000  0.04511100  0.86210700  1
  F  F0  1  0.85489700  0.69752400  0.05818300  1
  F  F1  1  0.35489300  0.19753600  0.55835000  1
  F  F2  1  0.64536700  0.80265900  0.44170700  1
  F  F3  1  0.14541800  0.30260100  0.94165700  1
loop_
_geom_bond_atom_site_label_1
_geom_bond_atom_site_label_2
_geom_bond_distance
_geom_bond_site_symmetry_2
Li0 O10 2.038105 1_555
Li0 O7 2.081840 1_554
Li0 O12 2.106142 1_555
Li0 O2 2.443627 1_555
Li1 O11 2.035855 1_555
Li1 O6 2.077330 1_555
Li1 O13 2.106799 1_655
Li1 O3 2.447786 1_545
Li2 O8 2.038046 1_555
Li2 O5 2.081696 1_555
Li2 O14 2.104844 1_455
Li2 O0 2.441972 1_565
Li3 O9 2.035886 1_555
Li3 O4 2.077356 1_556
Li3 O15 2.106465 1_555
Li3 O1 2.445043 1_555
Ni0 O3 2.074167 1_545
Ni0 O0 2.074365 1_555
Ni0 O6 2.117464 1_555
Ni0 O5 2.118781 1_545
Ni1 O15 2.094845 1_555
Ni1 O12 2.098456 1_446
Ni1 O11 2.106454 1_455
Ni1 O8 2.108407 1_546
Ni2 O1 2.073312 1_555
Ni2 O2 2.074745 1_656
Ni2 O4 2.117024 1_556
Ni2 O7 2.119455 1_655
Ni3 O14 2.095482 1_555
Ni3 O13 2.097333 1_555
Ni3 O9 2.104238 1_555
Ni3 O10 2.110012 1_555
O0 S0 1.477290 1_555
O1 S1 1.477069 1_555
O2 S2 1.477463 1_555
O3 S3 1.476730 1_555
O4 S0 1.495295 1_555
O5 S1 1.495065 1_455
O6 S2 1.495542 1_655
O7 S3 1.494653 1_555
O8 S0 1.498784 1_565
O9 S1 1.498941 1_555
O10 S2 1.498687 1_555
O11 S3 1.498486 1_545
O12 S0 1.493421 1_565
O13 S1 1.493231 1_455
O14 S2 1.493882 1_655
O15 S3 1.493271 1_545
F0 Li0 1.856329 1_555
F0 Ni2 1.986599 1_554
F0 Ni1 1.994857 1_664
F1 Li1 1.856448 1_455
F1 Ni0 1.987415 1_555
F1 Ni3 1.995557 1_555
F2 Li2 1.856428 1_655
F2 Ni0 1.986991 1_565
F2 Ni3 1.994648 1_555
F3 Li3 1.856734 1_555
F3 Ni2 1.987776 1_455
F3 Ni1 1.995086 1_555
