# generated using pymatgen
data_NaAsSe2
_symmetry_space_group_name_H-M   'P 1'
_cell_length_a   5.99104537
_cell_length_b   11.76289826
_cell_length_c   11.98190987
_cell_angle_alpha   89.01692269
_cell_angle_beta   90.00000000
_cell_angle_gamma   90.00000000
_symmetry_Int_Tables_number   1
_chemical_formula_structural   NaAsSe2
_chemical_formula_sum   'Na8 As8 Se16'
_cell_volume   844.26554778
_cell_formula_units_Z   8
loop_
 _symmetry_equiv_pos_site_id
 _symmetry_equiv_pos_as_xyz
  1  'x, y, z'
loop_
 _atom_site_type_symbol
 _atom_site_label
 _atom_site_symmetry_multiplicity
 _atom_site_fract_x
 _atom_site_fract_y
 _atom_site_fract_z
 _atom_site_occupancy
  Na  Na0  1  0.01382548  0.76222896  0.24523332  1
  Na  Na1  1  0.98617452  0.76222896  0.74523332  1
  Na  Na2  1  0.49995465  0.51924730  0.74140873  1
  Na  Na3  1  0.50004535  0.51924730  0.24140873  1
  Na  Na4  1  0.52269985  0.02034428  0.76407133  1
  Na  Na5  1  0.47730015  0.02034428  0.26407133  1
  Na  Na6  1  0.46979820  0.26000637  0.50025053  1
  Na  Na7  1  0.53020180  0.26000637  0.00025053  1
  As  As0  1  0.45545861  0.74932960  0.96255111  1
  As  As1  1  0.54454139  0.74932960  0.46255111  1
  As  As2  1  0.09497544  0.99760425  0.99675544  1
  As  As3  1  0.90502456  0.99760425  0.49675544  1
  As  As4  1  0.07512591  0.25189022  0.77553583  1
  As  As5  1  0.92487409  0.25189022  0.27553583  1
  As  As6  1  0.01751617  0.49933094  0.94991365  1
  As  As7  1  0.98248383  0.49933094  0.44991365  1
  Se  Se0  1  0.00139535  0.51077945  0.25580113  1
  Se  Se1  1  0.99860465  0.51077945  0.75580113  1
  Se  Se2  1  0.41253184  0.53595724  0.99044756  1
  Se  Se3  1  0.58746816  0.53595724  0.49044756  1
  Se  Se4  1  0.48449073  0.77009752  0.76857959  1
  Se  Se5  1  0.51550927  0.77009752  0.26857959  1
  Se  Se6  1  0.02585155  0.03779725  0.79813666  1
  Se  Se7  1  0.97414845  0.03779725  0.29813666  1
  Se  Se8  1  0.03062599  0.28821807  0.97676907  1
  Se  Se9  1  0.96937401  0.28821807  0.47676907  1
  Se  Se10  1  0.46129781  0.26910687  0.75049344  1
  Se  Se11  1  0.53870219  0.26910687  0.25049344  1
  Se  Se12  1  0.05415376  0.78632832  0.99420314  1
  Se  Se13  1  0.94584624  0.78632832  0.49420314  1
  Se  Se14  1  0.51866349  0.00924336  0.51348046  1
  Se  Se15  1  0.48133651  0.00924336  0.01348046  1
loop_
_geom_bond_atom_site_label_1
_geom_bond_atom_site_label_2
_geom_bond_distance
_geom_bond_site_symmetry_2
Na0 Se0 2.959250 1_555
Na0 Se5 3.000088 1_455
Na0 Se5 3.020165 1_555
Na0 Se12 3.025965 1_554
Na0 Se13 3.028916 1_455
Na0 Se7 3.322051 1_465
Na1 Se1 2.959250 1_555
Na1 Se4 3.000088 1_655
Na1 Se4 3.020165 1_555
Na1 Se13 3.025965 1_555
Na1 Se12 3.028916 1_655
Na1 Se6 3.322051 1_665
Na2 Se10 2.951622 1_555
Na2 Se4 2.975620 1_555
Na2 Se1 2.993967 1_555
Na2 Se1 3.010107 1_455
Na2 Se2 3.039260 1_555
Na2 Se3 3.055365 1_555
Na3 Se11 2.951622 1_555
Na3 Se5 2.975620 1_555
Na3 Se0 2.993967 1_555
Na3 Se0 3.010107 1_655
Na3 Se3 3.039260 1_555
Na3 Se2 3.055365 1_554
Na4 Se10 2.950919 1_555
Na4 Se4 2.952085 1_545
Na4 Se15 2.999265 1_556
Na4 Se14 3.007730 1_555
Na4 Se6 3.011978 1_555
Na4 Se6 3.049305 1_655
Na5 Se11 2.950919 1_555
Na5 Se5 2.952085 1_545
Na5 Se14 2.999265 1_555
Na5 Se15 3.007730 1_555
Na5 Se7 3.011978 1_555
Na5 Se7 3.049305 1_455
Na6 Se14 2.965724 1_555
Na6 Se10 3.002565 1_555
Na6 Se11 3.020982 1_555
Na6 Se9 3.023908 1_555
Na6 Se9 3.028939 1_455
Na6 Se3 3.321760 1_555
Na7 Se15 2.965724 1_555
Na7 Se11 3.002565 1_555
Na7 Se10 3.020982 1_554
Na7 Se8 3.023908 1_554
Na7 Se8 3.028939 1_654
Na7 Se2 3.321760 1_554
As0 Se4 2.339256 1_555
As0 Se12 2.473713 1_555
As0 Se2 2.539402 1_555
As1 Se5 2.339256 1_555
As1 Se13 2.473713 1_555
As1 Se3 2.539402 1_555
As2 Se15 2.327598 1_566
As2 Se6 2.453573 1_565
As2 Se12 2.497931 1_555
As3 Se14 2.327598 1_565
As3 Se7 2.453573 1_565
As3 Se13 2.497931 1_555
As4 Se10 2.341278 1_555
As4 Se8 2.470368 1_555
As4 Se6 2.545424 1_555
As5 Se11 2.341278 1_555
As5 Se9 2.470368 1_555
As5 Se7 2.545424 1_555
As6 Se1 2.330182 1_455
As6 Se2 2.455456 1_555
As6 Se8 2.499813 1_555
As7 Se0 2.330182 1_655
As7 Se3 2.455456 1_555
As7 Se9 2.499813 1_555
