# generated using pymatgen
data_Ho3In
_symmetry_space_group_name_H-M   'P 1'
_cell_length_a   6.79114003
_cell_length_b   6.79101655
_cell_length_c   5.59471631
_cell_angle_alpha   90.00000000
_cell_angle_beta   90.00000000
_cell_angle_gamma   119.99867602
_symmetry_Int_Tables_number   1
_chemical_formula_structural   Ho3In
_chemical_formula_sum   'Ho6 In2'
_cell_volume   223.45597403
_cell_formula_units_Z   2
loop_
 _symmetry_equiv_pos_site_id
 _symmetry_equiv_pos_as_xyz
  1  'x, y, z'
loop_
 _atom_site_type_symbol
 _atom_site_label
 _atom_site_symmetry_multiplicity
 _atom_site_fract_x
 _atom_site_fract_y
 _atom_site_fract_z
 _atom_site_occupancy
  Ho  Ho0  1  0.82889620  0.17112397  0.75000000  1
  Ho  Ho1  1  0.34229084  0.17114422  0.75000000  1
  Ho  Ho2  1  0.82886942  0.65773568  0.75000000  1
  Ho  Ho3  1  0.17110380  0.82887603  0.25000100  1
  Ho  Ho4  1  0.65770916  0.82885478  0.25000100  1
  Ho  Ho5  1  0.17113058  0.34226432  0.25000100  1
  In  In0  1  0.66667412  0.33332765  0.25000100  1
  In  In1  1  0.33332588  0.66667235  0.75000000  1
loop_
_geom_bond_atom_site_label_1
_geom_bond_atom_site_label_2
_geom_bond_distance
_geom_bond_site_symmetry_2
Ho0 Ho1 3.304674 1_555
Ho0 Ho2 3.304679 1_555
Ho0 In0 3.386104 1_555
Ho0 In0 3.386114 1_556
Ho0 In1 3.395935 1_655
Ho0 In1 3.396082 1_545
Ho0 Ho5 3.446242 1_655
Ho0 Ho5 3.446251 1_656
Ho0 Ho4 3.446340 1_545
Ho0 Ho4 3.446349 1_546
Ho0 Ho2 3.486337 1_545
Ho0 Ho1 3.486466 1_655
Ho1 Ho2 3.304503 1_555
Ho1 In0 3.385995 1_555
Ho1 In0 3.386004 1_556
Ho1 In1 3.395846 1_545
Ho1 In1 3.395989 1_555
Ho1 Ho3 3.446337 1_545
Ho1 Ho3 3.446346 1_546
Ho1 Ho5 3.446366 1_555
Ho1 Ho5 3.446375 1_556
Ho1 Ho2 3.486711 1_445
Ho2 In0 3.386057 1_555
Ho2 In0 3.386067 1_556
Ho2 In1 3.395898 1_655
Ho2 In1 3.396056 1_555
Ho2 Ho3 3.446242 1_655
Ho2 Ho3 3.446251 1_656
Ho2 Ho4 3.446362 1_555
Ho2 Ho4 3.446372 1_556
Ho3 Ho4 3.304677 1_555
Ho3 Ho5 3.304679 1_555
Ho3 In1 3.386104 1_555
Ho3 In1 3.386114 1_554
Ho3 In0 3.395935 1_455
Ho3 In0 3.396082 1_565
Ho3 Ho5 3.486337 1_565
Ho3 Ho4 3.486463 1_455
Ho4 Ho5 3.304500 1_555
Ho4 In1 3.385995 1_555
Ho4 In1 3.386004 1_554
Ho4 In0 3.395853 1_565
Ho4 In0 3.395982 1_555
Ho4 Ho5 3.486714 1_665
Ho5 In1 3.386057 1_555
Ho5 In1 3.386067 1_554
Ho5 In0 3.395898 1_455
Ho5 In0 3.396056 1_555
