# generated using pymatgen
data_LuTe2
_symmetry_space_group_name_H-M   'P 1'
_cell_length_a   4.41589800
_cell_length_b   4.41589800
_cell_length_c   8.71554800
_cell_angle_alpha   90.00000000
_cell_angle_beta   90.00000000
_cell_angle_gamma   90.00000000
_symmetry_Int_Tables_number   1
_chemical_formula_structural   LuTe2
_chemical_formula_sum   'Lu2 Te4'
_cell_volume   169.95453819
_cell_formula_units_Z   2
loop_
 _symmetry_equiv_pos_site_id
 _symmetry_equiv_pos_as_xyz
  1  'x, y, z'
loop_
 _atom_site_type_symbol
 _atom_site_label
 _atom_site_symmetry_multiplicity
 _atom_site_fract_x
 _atom_site_fract_y
 _atom_site_fract_z
 _atom_site_occupancy
  Lu  Lu0  1  0.00000000  0.50000000  0.27084400  1
  Lu  Lu1  1  0.50000000  0.00000000  0.72915600  1
  Te  Te0  1  0.50000000  0.50000000  0.00000000  1
  Te  Te1  1  0.00000000  0.00000000  0.00000000  1
  Te  Te2  1  0.00000000  0.50000000  0.62760800  1
  Te  Te3  1  0.50000000  0.00000000  0.37239200  1
loop_
_geom_bond_atom_site_label_1
_geom_bond_atom_site_label_2
_geom_bond_distance
_geom_bond_site_symmetry_2
Lu0 Te2 3.109394 1_555
Lu0 Te1 3.232221 1_555
Lu0 Te1 3.232221 1_565
Lu0 Te0 3.232221 1_555
Lu0 Te0 3.232221 1_455
Lu0 Te3 3.245518 1_555
Lu0 Te3 3.245518 1_565
Lu0 Te3 3.245518 1_465
Lu0 Te3 3.245518 1_455
Lu1 Te3 3.109394 1_555
Lu1 Te0 3.232221 1_546
Lu1 Te0 3.232221 1_556
Lu1 Te1 3.232221 1_656
Lu1 Te1 3.232221 1_556
Lu1 Te2 3.245518 1_545
Lu1 Te2 3.245518 1_655
Lu1 Te2 3.245518 1_645
Lu1 Te2 3.245518 1_555
Te0 Te1 3.122511 1_665
Te0 Te1 3.122511 1_555
Te0 Te1 3.122511 1_565
Te0 Te1 3.122511 1_655
