# generated using pymatgen
data_BaZrSe3
_symmetry_space_group_name_H-M   'P 1'
_cell_length_a   5.28738300
_cell_length_b   5.29639321
_cell_length_c   5.30947747
_cell_angle_alpha   89.89144703
_cell_angle_beta   89.91420971
_cell_angle_gamma   89.96131524
_symmetry_Int_Tables_number   1
_chemical_formula_structural   BaZrSe3
_chemical_formula_sum   'Ba1 Zr1 Se3'
_cell_volume   148.68645537
_cell_formula_units_Z   1
loop_
 _symmetry_equiv_pos_site_id
 _symmetry_equiv_pos_as_xyz
  1  'x, y, z'
loop_
 _atom_site_type_symbol
 _atom_site_label
 _atom_site_symmetry_multiplicity
 _atom_site_fract_x
 _atom_site_fract_y
 _atom_site_fract_z
 _atom_site_occupancy
  Ba  Ba0  1  0.99864300  0.99847800  0.99867300  1
  Zr  Zr0  1  0.47657800  0.49006900  0.47672700  1
  Se  Se0  1  0.48831700  0.99850600  0.50269300  1
  Se  Se1  1  0.98384500  0.51163600  0.51854000  1
  Se  Se2  1  0.49261400  0.50131000  0.99337000  1
loop_
_geom_bond_atom_site_label_1
_geom_bond_atom_site_label_2
_geom_bond_distance
_geom_bond_site_symmetry_2
Ba0 Se1 3.630330 1_555
Ba0 Se0 3.690224 1_655
Ba0 Se2 3.707677 1_655
Ba0 Se1 3.723679 1_565
Ba0 Se0 3.726336 1_656
Ba0 Se2 3.731470 1_665
Ba0 Se2 3.755424 1_555
Ba0 Se0 3.773169 1_555
Ba0 Se2 3.773910 1_565
Ba0 Se1 3.774427 1_556
Ba0 Se0 3.797441 1_556
Ba0 Se1 3.878060 1_566
Se0 Zr0 2.607600 1_565
Se0 Zr0 2.697431 1_555
Se1 Zr0 2.616815 1_655
Se1 Zr0 2.694136 1_555
Se2 Zr0 2.568225 1_556
Se2 Zr0 2.745301 1_555
