# generated using pymatgen
data_HoTmCu2
_symmetry_space_group_name_H-M   'P 1'
_cell_length_a   4.81496922
_cell_length_b   4.81496922
_cell_length_c   4.81496922
_cell_angle_alpha   60.00000000
_cell_angle_beta   60.00000000
_cell_angle_gamma   60.00000000
_symmetry_Int_Tables_number   1
_chemical_formula_structural   HoTmCu2
_chemical_formula_sum   'Ho1 Tm1 Cu2'
_cell_volume   78.93426131
_cell_formula_units_Z   1
loop_
 _symmetry_equiv_pos_site_id
 _symmetry_equiv_pos_as_xyz
  1  'x, y, z'
loop_
 _atom_site_type_symbol
 _atom_site_label
 _atom_site_symmetry_multiplicity
 _atom_site_fract_x
 _atom_site_fract_y
 _atom_site_fract_z
 _atom_site_occupancy
  Ho  Ho0  1  0.25000100  0.25000100  0.25000100  1
  Tm  Tm0  1  0.75000000  0.75000000  0.75000000  1
  Cu  Cu0  1  0.00000000  -0.00000000  0.00000000  1
  Cu  Cu1  1  0.50000000  0.50000000  0.50000000  1
loop_
_geom_bond_atom_site_label_1
_geom_bond_atom_site_label_2
_geom_bond_distance
_geom_bond_site_symmetry_2
Cu0 Ho0 2.948551 1_455
Cu0 Ho0 2.948551 1_545
Cu0 Ho0 2.948551 1_554
Cu0 Tm0 2.948554 1_544
Cu0 Tm0 2.948554 1_444
Cu0 Tm0 2.948554 1_445
Cu0 Tm0 2.948554 1_454
Cu0 Ho0 2.948566 1_555
Cu1 Ho0 2.948543 1_555
Cu1 Tm0 2.948554 1_554
Cu1 Tm0 2.948554 1_455
Cu1 Tm0 2.948554 1_555
Cu1 Tm0 2.948554 1_545
Cu1 Ho0 2.948558 1_556
Cu1 Ho0 2.948558 1_565
Cu1 Ho0 2.948558 1_655
