# generated using pymatgen
data_HoTa3
_symmetry_space_group_name_H-M   'P 1'
_cell_length_a   4.85560044
_cell_length_b   4.85560044
_cell_length_c   4.85560044
_cell_angle_alpha   60.00000000
_cell_angle_beta   60.00000000
_cell_angle_gamma   60.00000000
_symmetry_Int_Tables_number   1
_chemical_formula_structural   HoTa3
_chemical_formula_sum   'Ho1 Ta3'
_cell_volume   80.94943638
_cell_formula_units_Z   1
loop_
 _symmetry_equiv_pos_site_id
 _symmetry_equiv_pos_as_xyz
  1  'x, y, z'
loop_
 _atom_site_type_symbol
 _atom_site_label
 _atom_site_symmetry_multiplicity
 _atom_site_fract_x
 _atom_site_fract_y
 _atom_site_fract_z
 _atom_site_occupancy
  Ho  Ho0  1  0.00000000  0.00000000  0.00000000  1
  Ta  Ta0  1  0.25000000  0.25000000  0.25000000  1
  Ta  Ta1  1  0.75000000  0.75000000  0.75000000  1
  Ta  Ta2  1  0.50000000  0.50000000  0.50000000  1
loop_
_geom_bond_atom_site_label_1
_geom_bond_atom_site_label_2
_geom_bond_distance
_geom_bond_site_symmetry_2
Ho0 Ta1 2.973436 1_445
Ho0 Ta0 2.973436 1_554
Ho0 Ta0 2.973436 1_555
Ho0 Ta1 2.973436 1_444
Ho0 Ta1 2.973436 1_454
Ho0 Ta1 2.973436 1_544
Ho0 Ta0 2.973436 1_455
Ho0 Ta0 2.973436 1_545
Ho0 Ta2 3.433428 1_545
Ho0 Ta2 3.433428 1_455
Ho0 Ta2 3.433428 1_454
Ho0 Ta2 3.433428 1_544
Ho0 Ta2 3.433428 1_445
Ho0 Ta2 3.433428 1_554
Ta0 Ta2 2.973436 1_555
Ta0 Ta2 2.973436 1_554
Ta0 Ta2 2.973436 1_455
Ta0 Ta2 2.973436 1_545
Ta1 Ta2 2.973436 1_555
Ta1 Ta2 2.973436 1_556
Ta1 Ta2 2.973436 1_565
Ta1 Ta2 2.973436 1_655
