# generated using pymatgen
data_PrAs3
_symmetry_space_group_name_H-M   'P 1'
_cell_length_a   4.46861400
_cell_length_b   4.46861400
_cell_length_c   4.46861400
_cell_angle_alpha   90.00000000
_cell_angle_beta   90.00000000
_cell_angle_gamma   90.00000000
_symmetry_Int_Tables_number   1
_chemical_formula_structural   PrAs3
_chemical_formula_sum   'Pr1 As3'
_cell_volume   89.23156818
_cell_formula_units_Z   1
loop_
 _symmetry_equiv_pos_site_id
 _symmetry_equiv_pos_as_xyz
  1  'x, y, z'
loop_
 _atom_site_type_symbol
 _atom_site_label
 _atom_site_symmetry_multiplicity
 _atom_site_fract_x
 _atom_site_fract_y
 _atom_site_fract_z
 _atom_site_occupancy
  Pr  Pr0  1  0.00000000  0.00000000  0.00000000  1
  As  As0  1  0.00000000  0.50000000  0.50000000  1
  As  As1  1  0.50000000  0.00000000  0.50000000  1
  As  As2  1  0.50000000  0.50000000  0.00000000  1
loop_
_geom_bond_atom_site_label_1
_geom_bond_atom_site_label_2
_geom_bond_distance
_geom_bond_site_symmetry_2
As0 Pr0 3.159787 1_566
As0 Pr0 3.159787 1_555
As0 Pr0 3.159787 1_565
As0 Pr0 3.159787 1_556
As1 Pr0 3.159787 1_555
As1 Pr0 3.159787 1_656
As1 Pr0 3.159787 1_655
As1 Pr0 3.159787 1_556
As2 Pr0 3.159787 1_565
As2 Pr0 3.159787 1_665
As2 Pr0 3.159787 1_555
As2 Pr0 3.159787 1_655
