# generated using pymatgen
data_USn
_symmetry_space_group_name_H-M   'P 1'
_cell_length_a   6.22209050
_cell_length_b   6.22209050
_cell_length_c   10.96172800
_cell_angle_alpha   90.00000000
_cell_angle_beta   90.00000000
_cell_angle_gamma   119.99998401
_symmetry_Int_Tables_number   1
_chemical_formula_structural   USn
_chemical_formula_sum   'U8 Sn8'
_cell_volume   367.52117793
_cell_formula_units_Z   8
loop_
 _symmetry_equiv_pos_site_id
 _symmetry_equiv_pos_as_xyz
  1  'x, y, z'
loop_
 _atom_site_type_symbol
 _atom_site_label
 _atom_site_symmetry_multiplicity
 _atom_site_fract_x
 _atom_site_fract_y
 _atom_site_fract_z
 _atom_site_occupancy
  U  U0_0  1  0.00000000  0.00000000  0.00000000  1
  U  U0_1  1  0.00000000  0.00000000  0.50000000  1
  U  U0_2  1  1.00000000  0.50000000  0.00000000  1
  U  U0_3  1  1.00000000  0.50000000  0.50000000  1
  U  U0_4  1  0.50000000  0.00000000  0.00000000  1
  U  U0_5  1  0.50000000  0.00000000  0.50000000  1
  U  U0_6  1  0.50000000  0.50000000  0.00000000  1
  U  U0_7  1  0.50000000  0.50000000  0.50000000  1
  Sn  Sn0_0  1  0.16666650  0.33333350  0.25000000  1
  Sn  Sn0_1  1  0.16666650  0.33333350  0.75000000  1
  Sn  Sn0_2  1  0.16666650  0.83333350  0.25000000  1
  Sn  Sn0_3  1  0.16666650  0.83333350  0.75000000  1
  Sn  Sn0_4  1  0.66666650  0.33333350  0.25000000  1
  Sn  Sn0_5  1  0.66666650  0.33333350  0.75000000  1
  Sn  Sn0_6  1  0.66666650  0.83333350  0.25000000  1
  Sn  Sn0_7  1  0.66666650  0.83333350  0.75000000  1
loop_
_geom_bond_atom_site_label_1
_geom_bond_atom_site_label_2
_geom_bond_distance
_geom_bond_site_symmetry_2
U0_0 U0_4 3.111045 1_555
U0_0 U0_4 3.111045 1_455
U0_0 U0_2 3.111045 1_445
U0_0 U0_2 3.111045 1_455
U0_0 U0_6 3.111046 1_555
U0_0 U0_6 3.111046 1_445
U0_1 U0_5 3.111045 1_555
U0_1 U0_5 3.111045 1_455
U0_1 U0_3 3.111045 1_445
U0_1 U0_3 3.111045 1_455
U0_1 U0_7 3.111046 1_555
U0_1 U0_7 3.111046 1_445
U0_2 U0_6 3.111045 1_555
U0_2 U0_6 3.111045 1_655
U0_2 U0_4 3.111046 1_555
U0_2 U0_4 3.111046 1_665
U0_3 U0_7 3.111045 1_555
U0_3 U0_7 3.111045 1_655
U0_3 U0_5 3.111046 1_555
U0_3 U0_5 3.111046 1_665
U0_4 U0_6 3.111045 1_545
U0_4 U0_6 3.111045 1_555
U0_5 U0_7 3.111045 1_545
U0_5 U0_7 3.111045 1_555
Sn0_0 Sn0_2 3.111045 1_545
Sn0_0 Sn0_4 3.111045 1_555
Sn0_0 Sn0_2 3.111045 1_555
Sn0_0 Sn0_4 3.111045 1_455
Sn0_0 Sn0_6 3.111046 1_555
Sn0_0 Sn0_6 3.111046 1_445
Sn0_0 U0_3 3.276608 1_455
Sn0_0 U0_2 3.276608 1_455
Sn0_0 U0_7 3.276610 1_555
Sn0_0 U0_6 3.276610 1_555
Sn0_0 U0_0 3.276610 1_555
Sn0_0 U0_1 3.276610 1_555
Sn0_1 Sn0_3 3.111045 1_545
Sn0_1 Sn0_3 3.111045 1_555
Sn0_1 Sn0_5 3.111045 1_555
Sn0_1 Sn0_5 3.111045 1_455
Sn0_1 Sn0_7 3.111046 1_555
Sn0_1 Sn0_7 3.111046 1_445
Sn0_1 U0_2 3.276608 1_456
Sn0_1 U0_3 3.276608 1_455
Sn0_1 U0_6 3.276610 1_556
Sn0_1 U0_7 3.276610 1_555
Sn0_1 U0_1 3.276610 1_555
Sn0_1 U0_0 3.276610 1_556
Sn0_2 Sn0_6 3.111045 1_555
Sn0_2 Sn0_6 3.111045 1_455
Sn0_2 Sn0_4 3.111046 1_565
Sn0_2 Sn0_4 3.111046 1_455
Sn0_2 U0_0 3.276608 1_565
Sn0_2 U0_1 3.276608 1_565
Sn0_2 U0_2 3.276610 1_455
Sn0_2 U0_4 3.276610 1_565
Sn0_2 U0_3 3.276610 1_455
Sn0_2 U0_5 3.276610 1_565
Sn0_3 Sn0_7 3.111045 1_555
Sn0_3 Sn0_7 3.111045 1_455
Sn0_3 Sn0_5 3.111046 1_565
Sn0_3 Sn0_5 3.111046 1_455
Sn0_3 U0_0 3.276608 1_566
Sn0_3 U0_1 3.276608 1_565
Sn0_3 U0_2 3.276610 1_456
Sn0_3 U0_4 3.276610 1_566
Sn0_3 U0_3 3.276610 1_455
Sn0_3 U0_5 3.276610 1_565
Sn0_4 Sn0_6 3.111045 1_545
Sn0_4 Sn0_6 3.111045 1_555
Sn0_4 U0_7 3.276608 1_555
Sn0_4 U0_6 3.276608 1_555
Sn0_4 U0_4 3.276610 1_555
Sn0_4 U0_5 3.276610 1_555
Sn0_4 U0_2 3.276610 1_555
Sn0_4 U0_3 3.276610 1_555
Sn0_5 Sn0_7 3.111045 1_545
Sn0_5 Sn0_7 3.111045 1_555
Sn0_5 U0_6 3.276608 1_556
Sn0_5 U0_7 3.276608 1_555
Sn0_5 U0_5 3.276610 1_555
Sn0_5 U0_2 3.276610 1_556
Sn0_5 U0_3 3.276610 1_555
Sn0_5 U0_4 3.276610 1_556
Sn0_6 U0_4 3.276608 1_565
Sn0_6 U0_5 3.276608 1_565
Sn0_6 U0_7 3.276610 1_555
Sn0_6 U0_6 3.276610 1_555
Sn0_6 U0_1 3.276610 1_665
Sn0_6 U0_0 3.276610 1_665
Sn0_7 U0_4 3.276608 1_566
Sn0_7 U0_5 3.276608 1_565
Sn0_7 U0_7 3.276610 1_555
Sn0_7 U0_6 3.276610 1_556
Sn0_7 U0_0 3.276610 1_666
Sn0_7 U0_1 3.276610 1_665
