# generated using pymatgen
data_Ca6Sn2NF
_symmetry_space_group_name_H-M   'P 1'
_cell_length_a   6.96057813
_cell_length_b   6.96057813
_cell_length_c   6.96057813
_cell_angle_alpha   60.00000000
_cell_angle_beta   60.00000000
_cell_angle_gamma   60.00000000
_symmetry_Int_Tables_number   1
_chemical_formula_structural   Ca6Sn2NF
_chemical_formula_sum   'Ca6 Sn2 N1 F1'
_cell_volume   238.46296575
_cell_formula_units_Z   1
loop_
 _symmetry_equiv_pos_site_id
 _symmetry_equiv_pos_as_xyz
  1  'x, y, z'
loop_
 _atom_site_type_symbol
 _atom_site_label
 _atom_site_symmetry_multiplicity
 _atom_site_fract_x
 _atom_site_fract_y
 _atom_site_fract_z
 _atom_site_occupancy
  Ca  Ca0  1  0.24071600  0.75928400  0.75928400  1
  Ca  Ca1  1  0.24071600  0.75928400  0.24071600  1
  Ca  Ca2  1  0.75928400  0.24071600  0.75928400  1
  Ca  Ca3  1  0.75928400  0.75928400  0.24071600  1
  Ca  Ca4  1  0.24071600  0.24071600  0.75928400  1
  Ca  Ca5  1  0.75928400  0.24071600  0.24071600  1
  Sn  Sn0  1  0.25000000  0.25000000  0.25000000  1
  Sn  Sn1  1  0.75000000  0.75000000  0.75000000  1
  N  N0  1  0.00000000  0.00000000  0.00000000  1
  F  F0  1  0.50000000  0.50000000  0.50000000  1
loop_
_geom_bond_atom_site_label_1
_geom_bond_atom_site_label_2
_geom_bond_distance
_geom_bond_site_symmetry_2
Ca0 N0 2.369547 1_566
Ca0 F0 2.552325 1_555
Ca0 Sn1 3.481489 1_455
Ca0 Sn0 3.481489 1_565
Ca0 Sn0 3.481489 1_556
Ca0 Sn1 3.481489 1_555
Ca1 N0 2.369547 1_565
Ca1 F0 2.552325 1_555
Ca1 Sn0 3.481489 1_555
Ca1 Sn1 3.481489 1_554
Ca1 Sn1 3.481489 1_455
Ca1 Sn0 3.481489 1_565
Ca2 N0 2.369547 1_656
Ca2 F0 2.552325 1_555
Ca2 Sn1 3.481489 1_545
Ca2 Sn0 3.481489 1_556
Ca2 Sn0 3.481489 1_655
Ca2 Sn1 3.481489 1_555
Ca3 N0 2.369547 1_665
Ca3 F0 2.552325 1_555
Ca3 Sn1 3.481489 1_554
Ca3 Sn0 3.481489 1_565
Ca3 Sn0 3.481489 1_655
Ca3 Sn1 3.481489 1_555
Ca4 N0 2.369547 1_556
Ca4 F0 2.552325 1_555
Ca4 Sn0 3.481489 1_555
Ca4 Sn1 3.481489 1_545
Ca4 Sn1 3.481489 1_455
Ca4 Sn0 3.481489 1_556
Ca5 N0 2.369547 1_655
Ca5 F0 2.552325 1_555
Ca5 Sn0 3.481489 1_555
Ca5 Sn1 3.481489 1_545
Ca5 Sn1 3.481489 1_554
Ca5 Sn0 3.481489 1_655
