# generated using pymatgen
data_CsSrSiHO4
_symmetry_space_group_name_H-M   'P 1'
_cell_length_a   8.00937200
_cell_length_b   5.99999800
_cell_length_c   6.06102623
_cell_angle_alpha   60.07306493
_cell_angle_beta   90.00000000
_cell_angle_gamma   90.00000000
_symmetry_Int_Tables_number   1
_chemical_formula_structural   CsSrSiHO4
_chemical_formula_sum   'Cs2 Sr2 Si2 H2 O8'
_cell_volume   252.43271885
_cell_formula_units_Z   2
loop_
 _symmetry_equiv_pos_site_id
 _symmetry_equiv_pos_as_xyz
  1  'x, y, z'
loop_
 _atom_site_type_symbol
 _atom_site_label
 _atom_site_symmetry_multiplicity
 _atom_site_fract_x
 _atom_site_fract_y
 _atom_site_fract_z
 _atom_site_occupancy
  Cs  Cs0  1  0.22891500  0.62453200  0.65056800  1
  Cs  Cs1  1  0.72891500  0.37546800  0.34943200  1
  Sr  Sr0  1  0.48352400  0.00361400  0.98611800  1
  Sr  Sr1  1  0.98352400  0.99638600  0.01388200  1
  Si  Si0  1  0.24650100  0.29735400  0.32215900  1
  Si  Si1  1  0.74650100  0.70264600  0.67784100  1
  H  H0  1  0.00646000  0.04871300  0.49204200  1
  H  H1  1  0.50646000  0.95128700  0.50795800  1
  O  O0  1  0.24104900  0.61282700  0.15690600  1
  O  O1  1  0.74104900  0.38717300  0.84309400  1
  O  O2  1  0.24141100  0.16363800  0.14088000  1
  O  O3  1  0.74141100  0.83636200  0.85912000  1
  O  O4  1  0.39846100  0.17659100  0.53355200  1
  O  O5  1  0.89846100  0.82340900  0.46644800  1
  O  O6  1  0.07067900  0.18214500  0.51530500  1
  O  O7  1  0.57067900  0.81785500  0.48469500  1
loop_
_geom_bond_atom_site_label_1
_geom_bond_atom_site_label_2
_geom_bond_distance
_geom_bond_site_symmetry_2
Cs0 H1 2.800266 1_555
Cs0 H0 2.852228 1_565
Cs0 O2 2.879041 1_556
Cs0 O5 2.888896 1_455
Cs0 O7 2.947121 1_555
Cs0 O0 3.029307 1_555
Cs0 O0 3.036057 1_556
Cs0 O2 3.169507 1_565
Cs0 O4 3.387103 1_555
Cs0 O6 3.390437 1_555
Cs1 H0 2.800266 1_655
Cs1 H1 2.852228 1_545
Cs1 O3 2.879041 1_554
Cs1 O4 2.888896 1_555
Cs1 O6 2.947121 1_655
Cs1 O1 3.029307 1_555
Cs1 O1 3.036057 1_554
Cs1 O3 3.169507 1_545
Cs1 O5 3.387103 1_555
Cs1 O7 3.390437 1_555
H0 O6 1.018832 1_555
H1 O7 1.018832 1_555
O0 Si0 1.642031 1_555
O0 Sr0 2.814094 1_564
O0 Sr1 2.882967 1_455
O1 Si1 1.642031 1_555
O1 Sr1 2.814094 1_546
O1 Sr0 2.882967 1_555
O2 Si0 1.652915 1_555
O2 Sr0 2.541807 1_554
O2 Sr1 2.576162 1_445
O3 Si1 1.652915 1_555
O3 Sr1 2.541807 1_556
O3 Sr0 2.576162 1_565
O4 Si0 1.649745 1_555
O4 Sr0 2.494970 1_555
O5 Si1 1.649745 1_555
O5 Sr1 2.494970 1_555
O6 Si0 1.738948 1_555
O6 Sr1 2.738742 1_446
O7 Si1 1.738948 1_555
O7 Sr0 2.738742 1_564
