# generated using pymatgen
data_Li3Mg
_symmetry_space_group_name_H-M   'P 1'
_cell_length_a   6.10251046
_cell_length_b   10.11053424
_cell_length_c   10.55388620
_cell_angle_alpha   90.00000000
_cell_angle_beta   90.00000000
_cell_angle_gamma   90.00000000
_symmetry_Int_Tables_number   1
_chemical_formula_structural   Li3Mg
_chemical_formula_sum   'Li24 Mg8'
_cell_volume   651.17098923
_cell_formula_units_Z   8
loop_
 _symmetry_equiv_pos_site_id
 _symmetry_equiv_pos_as_xyz
  1  'x, y, z'
loop_
 _atom_site_type_symbol
 _atom_site_label
 _atom_site_symmetry_multiplicity
 _atom_site_fract_x
 _atom_site_fract_y
 _atom_site_fract_z
 _atom_site_occupancy
  Li  Li0_0  1  0.00000000  0.00000000  0.49726275  1
  Li  Li0_1  1  0.00000000  0.00000000  0.99726275  1
  Li  Li0_2  1  0.00000000  0.50000000  0.49726275  1
  Li  Li0_3  1  0.00000000  0.50000000  0.99726275  1
  Li  Li0_4  1  0.50000000  0.00000000  0.49726275  1
  Li  Li0_5  1  0.50000000  0.00000000  0.99726275  1
  Li  Li0_6  1  0.50000000  0.50000000  0.49726275  1
  Li  Li0_7  1  0.50000000  0.50000000  0.99726275  1
  Li  Li1_0  1  0.25000000  0.00000000  0.24670180  1
  Li  Li1_1  1  0.25000000  0.00000000  0.74670180  1
  Li  Li1_2  1  0.25000000  0.50000000  0.24670180  1
  Li  Li1_3  1  0.25000000  0.50000000  0.74670180  1
  Li  Li1_4  1  0.75000000  0.00000000  0.24670180  1
  Li  Li1_5  1  0.75000000  0.00000000  0.74670180  1
  Li  Li1_6  1  0.75000000  0.50000000  0.24670180  1
  Li  Li1_7  1  0.75000000  0.50000000  0.74670180  1
  Li  Li2_0  1  0.25000000  0.25000000  0.41800350  1
  Li  Li2_1  1  0.25000000  0.25000000  0.91800350  1
  Li  Li2_2  1  0.25000000  0.75000000  0.41800350  1
  Li  Li2_3  1  0.25000000  0.75000000  0.91800350  1
  Li  Li2_4  1  0.75000000  0.25000000  0.41800350  1
  Li  Li2_5  1  0.75000000  0.25000000  0.91800350  1
  Li  Li2_6  1  0.75000000  0.75000000  0.41800350  1
  Li  Li2_7  1  0.75000000  0.75000000  0.91800350  1
  Mg  Mg0_0  1  0.00000000  0.25000000  0.17136545  1
  Mg  Mg0_1  1  0.00000000  0.25000000  0.67136545  1
  Mg  Mg0_2  1  0.00000000  0.75000000  0.17136545  1
  Mg  Mg0_3  1  0.00000000  0.75000000  0.67136545  1
  Mg  Mg0_4  1  0.50000000  0.25000000  0.17136545  1
  Mg  Mg0_5  1  0.50000000  0.25000000  0.67136545  1
  Mg  Mg0_6  1  0.50000000  0.75000000  0.17136545  1
  Mg  Mg0_7  1  0.50000000  0.75000000  0.67136545  1
loop_
_geom_bond_atom_site_label_1
_geom_bond_atom_site_label_2
_geom_bond_distance
_geom_bond_site_symmetry_2
Li0_0 Li1_1 3.042674 1_555
Li0_0 Li1_5 3.042674 1_455
Li0_0 Li0_4 3.051255 1_455
Li0_0 Li0_4 3.051255 1_555
Li0_0 Li1_0 3.052924 1_555
Li0_0 Li1_4 3.052924 1_455
Li0_0 Li2_4 3.068581 1_455
Li0_0 Li2_2 3.068581 1_545
Li0_0 Li2_6 3.068581 1_445
Li0_0 Li2_0 3.068581 1_555
Li0_0 Mg0_1 3.124931 1_555
Li0_0 Mg0_3 3.124931 1_545
Li0_1 Li1_0 3.042674 1_556
Li0_1 Li1_4 3.042674 1_456
Li0_1 Li0_5 3.051255 1_555
Li0_1 Li0_5 3.051255 1_455
Li0_1 Li1_1 3.052924 1_555
Li0_1 Li1_5 3.052924 1_455
Li0_1 Li2_7 3.068581 1_445
Li0_1 Li2_1 3.068581 1_555
Li0_1 Li2_3 3.068581 1_545
Li0_1 Li2_5 3.068581 1_455
Li0_1 Mg0_0 3.124931 1_556
Li0_1 Mg0_2 3.124931 1_546
Li0_2 Li1_7 3.042674 1_455
Li0_2 Li1_3 3.042674 1_555
Li0_2 Li0_6 3.051255 1_555
Li0_2 Li0_6 3.051255 1_455
Li0_2 Li1_2 3.052924 1_555
Li0_2 Li1_6 3.052924 1_455
Li0_2 Li2_4 3.068581 1_455
Li0_2 Li2_6 3.068581 1_455
Li0_2 Li2_2 3.068581 1_555
Li0_2 Li2_0 3.068581 1_555
Li0_2 Mg0_1 3.124931 1_555
Li0_2 Mg0_3 3.124931 1_555
Li0_3 Li1_2 3.042674 1_556
Li0_3 Li1_6 3.042674 1_456
Li0_3 Li0_7 3.051255 1_455
Li0_3 Li0_7 3.051255 1_555
Li0_3 Li1_7 3.052924 1_455
Li0_3 Li1_3 3.052924 1_555
Li0_3 Li2_1 3.068581 1_555
Li0_3 Li2_3 3.068581 1_555
Li0_3 Li2_7 3.068581 1_455
Li0_3 Li2_5 3.068581 1_455
Li0_3 Mg0_0 3.124931 1_556
Li0_3 Mg0_2 3.124931 1_556
Li0_4 Li1_1 3.042674 1_555
Li0_4 Li1_5 3.042674 1_555
Li0_4 Li1_4 3.052924 1_555
Li0_4 Li1_0 3.052924 1_555
Li0_4 Li2_6 3.068581 1_545
Li0_4 Li2_2 3.068581 1_545
Li0_4 Li2_4 3.068581 1_555
Li0_4 Li2_0 3.068581 1_555
Li0_4 Mg0_5 3.124931 1_555
Li0_4 Mg0_7 3.124931 1_545
Li0_5 Li1_0 3.042674 1_556
Li0_5 Li1_4 3.042674 1_556
Li0_5 Li1_1 3.052924 1_555
Li0_5 Li1_5 3.052924 1_555
Li0_5 Li2_7 3.068581 1_545
Li0_5 Li2_5 3.068581 1_555
Li0_5 Li2_3 3.068581 1_545
Li0_5 Li2_1 3.068581 1_555
Li0_5 Mg0_4 3.124931 1_556
Li0_5 Mg0_6 3.124931 1_546
Li0_6 Li1_3 3.042674 1_555
Li0_6 Li1_7 3.042674 1_555
Li0_6 Li1_2 3.052924 1_555
Li0_6 Li1_6 3.052924 1_555
Li0_6 Li2_6 3.068581 1_555
Li0_6 Li2_4 3.068581 1_555
Li0_6 Li2_2 3.068581 1_555
Li0_6 Li2_0 3.068581 1_555
Li0_6 Mg0_7 3.124931 1_555
Li0_6 Mg0_5 3.124931 1_555
Li0_7 Li1_2 3.042674 1_556
Li0_7 Li1_6 3.042674 1_556
Li0_7 Li1_3 3.052924 1_555
Li0_7 Li1_7 3.052924 1_555
Li0_7 Li2_7 3.068581 1_555
Li0_7 Li2_5 3.068581 1_555
Li0_7 Li2_3 3.068581 1_555
Li0_7 Li2_1 3.068581 1_555
Li0_7 Mg0_4 3.124931 1_556
Li0_7 Mg0_6 3.124931 1_556
Li1_0 Li1_4 3.051255 1_455
Li1_0 Li1_4 3.051255 1_555
Li1_0 Mg0_2 3.057555 1_545
Li1_0 Mg0_0 3.057555 1_555
Li1_0 Mg0_4 3.057555 1_555
Li1_0 Mg0_6 3.057555 1_545
Li1_0 Li2_2 3.107640 1_545
Li1_0 Li2_0 3.107640 1_555
Li1_1 Li1_5 3.051255 1_455
Li1_1 Li1_5 3.051255 1_555
Li1_1 Mg0_7 3.057555 1_545
Li1_1 Mg0_1 3.057555 1_555
Li1_1 Mg0_5 3.057555 1_555
Li1_1 Mg0_3 3.057555 1_545
Li1_1 Li2_3 3.107640 1_545
Li1_1 Li2_1 3.107640 1_555
Li1_2 Li1_6 3.051255 1_455
Li1_2 Li1_6 3.051255 1_555
Li1_2 Mg0_2 3.057555 1_555
Li1_2 Mg0_6 3.057555 1_555
Li1_2 Mg0_0 3.057555 1_555
Li1_2 Mg0_4 3.057555 1_555
Li1_2 Li2_2 3.107640 1_555
Li1_2 Li2_0 3.107640 1_555
Li1_3 Li1_7 3.051255 1_555
Li1_3 Li1_7 3.051255 1_455
Li1_3 Mg0_7 3.057555 1_555
Li1_3 Mg0_1 3.057555 1_555
Li1_3 Mg0_5 3.057555 1_555
Li1_3 Mg0_3 3.057555 1_555
Li1_3 Li2_3 3.107640 1_555
Li1_3 Li2_1 3.107640 1_555
Li1_4 Mg0_0 3.057555 1_655
Li1_4 Mg0_2 3.057555 1_645
Li1_4 Mg0_4 3.057555 1_555
Li1_4 Mg0_6 3.057555 1_545
Li1_4 Li2_4 3.107640 1_555
Li1_4 Li2_6 3.107640 1_545
Li1_5 Mg0_7 3.057555 1_545
Li1_5 Mg0_1 3.057555 1_655
Li1_5 Mg0_3 3.057555 1_645
Li1_5 Mg0_5 3.057555 1_555
Li1_5 Li2_7 3.107640 1_545
Li1_5 Li2_5 3.107640 1_555
Li1_6 Mg0_0 3.057555 1_655
Li1_6 Mg0_2 3.057555 1_655
Li1_6 Mg0_6 3.057555 1_555
Li1_6 Mg0_4 3.057555 1_555
Li1_6 Li2_4 3.107640 1_555
Li1_6 Li2_6 3.107640 1_555
Li1_7 Mg0_7 3.057555 1_555
Li1_7 Mg0_1 3.057555 1_655
Li1_7 Mg0_5 3.057555 1_555
Li1_7 Mg0_3 3.057555 1_655
Li1_7 Li2_5 3.107640 1_555
Li1_7 Li2_7 3.107640 1_555
Li2_0 Mg0_0 3.017134 1_555
Li2_0 Mg0_4 3.017134 1_555
Li2_0 Li2_4 3.051255 1_555
Li2_0 Li2_4 3.051255 1_455
Li2_0 Mg0_1 3.078566 1_555
Li2_0 Mg0_5 3.078566 1_555
Li2_1 Mg0_1 3.017134 1_555
Li2_1 Mg0_5 3.017134 1_555
Li2_1 Li2_5 3.051255 1_555
Li2_1 Li2_5 3.051255 1_455
Li2_1 Mg0_0 3.078566 1_556
Li2_1 Mg0_4 3.078566 1_556
Li2_2 Mg0_2 3.017134 1_555
Li2_2 Mg0_6 3.017134 1_555
Li2_2 Li2_6 3.051255 1_555
Li2_2 Li2_6 3.051255 1_455
Li2_2 Mg0_7 3.078566 1_555
Li2_2 Mg0_3 3.078566 1_555
Li2_3 Mg0_7 3.017134 1_555
Li2_3 Mg0_3 3.017134 1_555
Li2_3 Li2_7 3.051255 1_555
Li2_3 Li2_7 3.051255 1_455
Li2_3 Mg0_6 3.078566 1_556
Li2_3 Mg0_2 3.078566 1_556
Li2_4 Mg0_0 3.017134 1_655
Li2_4 Mg0_4 3.017134 1_555
Li2_4 Mg0_1 3.078566 1_655
Li2_4 Mg0_5 3.078566 1_555
Li2_5 Mg0_1 3.017134 1_655
Li2_5 Mg0_5 3.017134 1_555
Li2_5 Mg0_4 3.078566 1_556
Li2_5 Mg0_0 3.078566 1_656
Li2_6 Mg0_2 3.017134 1_655
Li2_6 Mg0_6 3.017134 1_555
Li2_6 Mg0_7 3.078566 1_555
Li2_6 Mg0_3 3.078566 1_655
Li2_7 Mg0_7 3.017134 1_555
Li2_7 Mg0_3 3.017134 1_655
Li2_7 Mg0_2 3.078566 1_656
Li2_7 Mg0_6 3.078566 1_556
Mg0_0 Mg0_4 3.051255 1_555
Mg0_0 Mg0_4 3.051255 1_455
Mg0_1 Mg0_5 3.051255 1_455
Mg0_1 Mg0_5 3.051255 1_555
Mg0_2 Mg0_6 3.051255 1_455
Mg0_2 Mg0_6 3.051255 1_555
Mg0_3 Mg0_7 3.051255 1_555
Mg0_3 Mg0_7 3.051255 1_455
