# generated using pymatgen
data_Rh3F
_symmetry_space_group_name_H-M   'P 1'
_cell_length_a   4.33568182
_cell_length_b   4.33568182
_cell_length_c   4.33568182
_cell_angle_alpha   123.46841821
_cell_angle_beta   123.46841821
_cell_angle_gamma   84.09066972
_symmetry_Int_Tables_number   1
_chemical_formula_structural   Rh3F
_chemical_formula_sum   'Rh3 F1'
_cell_volume   54.29383001
_cell_formula_units_Z   1
loop_
 _symmetry_equiv_pos_site_id
 _symmetry_equiv_pos_as_xyz
  1  'x, y, z'
loop_
 _atom_site_type_symbol
 _atom_site_label
 _atom_site_symmetry_multiplicity
 _atom_site_fract_x
 _atom_site_fract_y
 _atom_site_fract_z
 _atom_site_occupancy
  Rh  Rh0  1  0.75000000  0.25000000  0.50000000  1
  Rh  Rh1  1  0.25000000  0.75000000  0.50000000  1
  Rh  Rh2  1  0.50000000  0.50000000  0.00000000  1
  F  F0  1  0.00000000  0.00000000  0.00000000  1
loop_
_geom_bond_atom_site_label_1
_geom_bond_atom_site_label_2
_geom_bond_distance
_geom_bond_site_symmetry_2
Rh0 Rh2 2.609096 1_556
Rh0 Rh2 2.609096 1_656
Rh0 Rh2 2.609096 1_545
Rh0 Rh2 2.609096 1_555
Rh1 Rh2 2.609096 1_556
Rh1 Rh2 2.609096 1_455
Rh1 Rh2 2.609096 1_566
Rh1 Rh2 2.609096 1_555
F0 Rh1 2.609096 1_555
F0 Rh1 2.609096 1_444
F0 Rh1 2.609096 1_545
F0 Rh0 2.609096 1_455
F0 Rh1 2.609096 1_544
F0 Rh0 2.609096 1_444
F0 Rh0 2.609096 1_555
F0 Rh0 2.609096 1_454
