# generated using pymatgen
data_TbAgHg2
_symmetry_space_group_name_H-M   'P 1'
_cell_length_a   4.98357027
_cell_length_b   4.98357026
_cell_length_c   4.98357025
_cell_angle_alpha   60.00005069
_cell_angle_beta   60.00005069
_cell_angle_gamma   60.00005069
_symmetry_Int_Tables_number   1
_chemical_formula_structural   TbAgHg2
_chemical_formula_sum   'Tb1 Ag1 Hg2'
_cell_volume   87.51998964
_cell_formula_units_Z   1
loop_
 _symmetry_equiv_pos_site_id
 _symmetry_equiv_pos_as_xyz
  1  'x, y, z'
loop_
 _atom_site_type_symbol
 _atom_site_label
 _atom_site_symmetry_multiplicity
 _atom_site_fract_x
 _atom_site_fract_y
 _atom_site_fract_z
 _atom_site_occupancy
  Tb  Tb0  1  0.75000073  0.75000073  0.75000073  1
  Ag  Ag0  1  0.24999998  0.24999999  0.24999999  1
  Hg  Hg0  1  0.00000007  0.00000007  0.00000007  1
  Hg  Hg1  1  0.49999922  0.49999922  0.49999922  1
loop_
_geom_bond_atom_site_label_1
_geom_bond_atom_site_label_2
_geom_bond_distance
_geom_bond_site_symmetry_2
Ag0 Hg1 3.051791 1_555
Ag0 Hg0 3.051799 1_555
Ag0 Hg0 3.051803 1_556
Ag0 Hg0 3.051803 1_565
Ag0 Hg0 3.051803 1_655
Ag0 Hg1 3.051806 1_455
Ag0 Hg1 3.051806 1_554
Ag0 Hg1 3.051806 1_545
Ag0 Tb0 3.523912 1_454
Ag0 Tb0 3.523912 1_445
Ag0 Tb0 3.523912 1_544
Ag0 Tb0 3.523923 1_455
Ag0 Tb0 3.523923 1_545
Ag0 Tb0 3.523923 1_554
Hg0 Tb0 3.051792 1_444
Hg0 Tb0 3.051806 1_445
Hg0 Tb0 3.051806 1_454
Hg0 Tb0 3.051806 1_544
Hg1 Tb0 3.051797 1_554
Hg1 Tb0 3.051797 1_545
Hg1 Tb0 3.051797 1_455
Hg1 Tb0 3.051818 1_555
