# generated using pymatgen
data_Dy(Al2Cu)4
_symmetry_space_group_name_H-M   'P 1'
_cell_length_a   5.09087479
_cell_length_b   6.67313778
_cell_length_c   6.67859285
_cell_angle_alpha   98.40720384
_cell_angle_beta   67.46184935
_cell_angle_gamma   112.42323528
_symmetry_Int_Tables_number   1
_chemical_formula_structural   Dy(Al2Cu)4
_chemical_formula_sum   'Dy1 Al8 Cu4'
_cell_volume   193.71302992
_cell_formula_units_Z   1
loop_
 _symmetry_equiv_pos_site_id
 _symmetry_equiv_pos_as_xyz
  1  'x, y, z'
loop_
 _atom_site_type_symbol
 _atom_site_label
 _atom_site_symmetry_multiplicity
 _atom_site_fract_x
 _atom_site_fract_y
 _atom_site_fract_z
 _atom_site_occupancy
  Dy  Dy0  1  -0.00000000  -0.00000000  -0.00000000  1
  Al  Al0  1  0.28137900  0.78127191  0.21873248  1
  Al  Al1  1  0.50010708  0.21872909  0.21873348  1
  Al  Al2  1  0.99988445  0.34828950  0.34830195  1
  Al  Al3  1  0.65159496  0.65170950  0.34830195  1
  Al  Al4  1  0.34840504  0.34828950  0.65169705  1
  Al  Al5  1  0.00011555  0.65170950  0.65169705  1
  Al  Al6  1  0.49989292  0.78127191  0.78126752  1
  Al  Al7  1  0.71862100  0.21872809  0.78126752  1
  Cu  Cu0  1  0.00000100  0.50000000  -0.00000000  1
  Cu  Cu1  1  0.49999900  0.50000000  -0.00000000  1
  Cu  Cu2  1  -0.00000000  -0.00000000  0.50000000  1
  Cu  Cu3  1  0.49999900  -0.00000000  0.50000000  1
loop_
_geom_bond_atom_site_label_1
_geom_bond_atom_site_label_2
_geom_bond_distance
_geom_bond_site_symmetry_2
Al0 Cu1 2.537959 1_555
Al0 Cu2 2.538027 1_565
Al0 Cu3 2.541543 1_565
Al0 Cu0 2.541686 1_555
Al0 Al1 2.698495 1_565
Al0 Al6 2.698518 1_554
Al0 Al3 2.784406 1_455
Al0 Al3 2.785801 1_555
Al0 Al5 2.787773 1_555
Al0 Al2 2.787914 1_455
Al0 Dy0 3.178251 1_665
Al0 Dy0 3.184202 1_565
Al1 Cu0 2.537964 1_655
Al1 Cu2 2.538026 1_555
Al1 Cu3 2.541542 1_555
Al1 Cu1 2.541690 1_555
Al1 Al7 2.698524 1_554
Al1 Al2 2.784403 1_455
Al1 Al2 2.785793 1_555
Al1 Al4 2.787764 1_555
Al1 Al3 2.787900 1_555
Al1 Dy0 3.178256 1_655
Al1 Dy0 3.184207 1_555
Al2 Al5 2.646827 1_655
Al2 Cu1 2.664637 1_655
Al2 Cu3 2.665394 1_555
Al2 Cu2 2.668016 1_655
Al2 Cu0 2.668912 1_655
Al2 Al7 2.787777 1_555
Al2 Dy0 3.038413 1_655
Al3 Al4 2.646827 1_555
Al3 Cu0 2.664638 1_655
Al3 Cu3 2.665400 1_565
Al3 Cu2 2.668020 1_665
Al3 Cu1 2.668916 1_555
Al3 Al6 2.787779 1_555
Al3 Dy0 3.038417 1_665
Al4 Cu0 2.664640 1_556
Al4 Cu3 2.665388 1_555
Al4 Cu2 2.668013 1_555
Al4 Cu1 2.668918 1_556
Al4 Al7 2.784406 1_455
Al4 Al7 2.785801 1_555
Al4 Al6 2.787916 1_555
Al4 Dy0 3.038417 1_556
Al5 Cu1 2.664644 1_456
Al5 Cu3 2.665392 1_565
Al5 Cu2 2.668019 1_565
Al5 Cu0 2.668919 1_556
Al5 Al6 2.784410 1_455
Al5 Al6 2.785800 1_555
Al5 Al7 2.787910 1_455
Al5 Dy0 3.038422 1_566
Al6 Cu0 2.537960 1_556
Al6 Cu2 2.538027 1_665
Al6 Cu3 2.541548 1_565
Al6 Cu1 2.541686 1_556
Al6 Al7 2.698488 1_565
Al6 Dy0 3.178251 1_566
Al6 Dy0 3.184202 1_666
Al7 Cu1 2.537964 1_556
Al7 Cu2 2.538027 1_655
Al7 Cu3 2.541548 1_555
Al7 Cu0 2.541691 1_656
Al7 Dy0 3.178251 1_556
Al7 Dy0 3.184202 1_656
Cu0 Cu1 2.545427 1_555
Cu0 Cu1 2.545448 1_455
Cu0 Dy0 3.336567 1_555
Cu0 Dy0 3.336571 1_565
Cu1 Dy0 3.336567 1_555
Cu1 Dy0 3.336571 1_665
Cu2 Cu3 2.545432 1_555
Cu2 Cu3 2.545442 1_455
Cu2 Dy0 3.339296 1_555
Cu2 Dy0 3.339296 1_556
Cu3 Dy0 3.333780 1_556
Cu3 Dy0 3.333784 1_655
