# generated using pymatgen
data_NaLu3
_symmetry_space_group_name_H-M   'P 1'
_cell_length_a   6.23762324
_cell_length_b   6.23762324
_cell_length_c   6.23762362
_cell_angle_alpha   134.62992988
_cell_angle_beta   134.62993983
_cell_angle_gamma   66.10573869
_symmetry_Int_Tables_number   1
_chemical_formula_structural   NaLu3
_chemical_formula_sum   'Na1 Lu3'
_cell_volume   121.02326353
_cell_formula_units_Z   1
loop_
 _symmetry_equiv_pos_site_id
 _symmetry_equiv_pos_as_xyz
  1  'x, y, z'
loop_
 _atom_site_type_symbol
 _atom_site_label
 _atom_site_symmetry_multiplicity
 _atom_site_fract_x
 _atom_site_fract_y
 _atom_site_fract_z
 _atom_site_occupancy
  Na  Na0  1  0.00000000  0.00000000  0.00000000  1
  Lu  Lu0  1  0.75000000  0.25000000  0.50000000  1
  Lu  Lu1  1  0.25000000  0.75000000  0.50000000  1
  Lu  Lu2  1  0.50000000  0.50000000  0.00000000  1
loop_
_geom_bond_atom_site_label_1
_geom_bond_atom_site_label_2
_geom_bond_distance
_geom_bond_site_symmetry_2
Lu0 Lu1 3.402079 1_555
Lu0 Lu1 3.402079 1_645
Lu0 Lu1 3.402080 1_656
Lu0 Lu1 3.402080 1_544
Lu0 Na0 3.552537 1_555
Lu0 Na0 3.552537 1_656
Lu0 Lu2 3.552537 1_555
Lu0 Lu2 3.552537 1_656
Lu0 Lu2 3.552538 1_545
Lu0 Na0 3.552538 1_655
Lu0 Na0 3.552538 1_666
Lu0 Lu2 3.552538 1_556
Lu1 Na0 3.552537 1_565
Lu1 Na0 3.552537 1_666
Lu1 Lu2 3.552537 1_556
Lu1 Lu2 3.552537 1_455
Lu1 Na0 3.552538 1_555
Lu1 Lu2 3.552538 1_555
Lu1 Na0 3.552538 1_566
Lu1 Lu2 3.552538 1_566
Lu2 Na0 3.402079 1_565
Lu2 Na0 3.402079 1_655
Lu2 Na0 3.402080 1_554
Lu2 Na0 3.402080 1_666
