# generated using pymatgen
data_PrHo3
_symmetry_space_group_name_H-M   'P 1'
_cell_length_a   7.28780835
_cell_length_b   7.28780881
_cell_length_c   5.81252748
_cell_angle_alpha   90.00000000
_cell_angle_beta   90.00000000
_cell_angle_gamma   120.00001590
_symmetry_Int_Tables_number   1
_chemical_formula_structural   PrHo3
_chemical_formula_sum   'Pr2 Ho6'
_cell_volume   267.35572949
_cell_formula_units_Z   2
loop_
 _symmetry_equiv_pos_site_id
 _symmetry_equiv_pos_as_xyz
  1  'x, y, z'
loop_
 _atom_site_type_symbol
 _atom_site_label
 _atom_site_symmetry_multiplicity
 _atom_site_fract_x
 _atom_site_fract_y
 _atom_site_fract_z
 _atom_site_occupancy
  Pr  Pr0  1  0.66666600  0.33333200  0.25000100  1
  Pr  Pr1  1  0.33333400  0.66666800  0.75000100  1
  Ho  Ho0  1  0.83605444  0.67210987  0.75000100  1
  Ho  Ho1  1  0.83605344  0.16394656  0.75000100  1
  Ho  Ho2  1  0.32789113  0.16394656  0.75000100  1
  Ho  Ho3  1  0.67210887  0.83605444  0.25000100  1
  Ho  Ho4  1  0.16394556  0.83605444  0.25000100  1
  Ho  Ho5  1  0.16394556  0.32789013  0.25000100  1
loop_
_geom_bond_atom_site_label_1
_geom_bond_atom_site_label_2
_geom_bond_distance
_geom_bond_site_symmetry_2
Ho0 Ho3 3.567774 1_556
Ho0 Ho3 3.567774 1_555
Ho0 Ho4 3.567777 1_655
Ho0 Ho4 3.567777 1_656
Ho0 Ho2 3.584411 1_665
Ho0 Ho1 3.584415 1_565
Ho0 Pr0 3.608067 1_556
Ho0 Pr0 3.608067 1_555
Ho0 Pr1 3.644062 1_555
Ho0 Pr1 3.644070 1_655
Ho0 Ho1 3.703393 1_555
Ho0 Ho2 3.703396 1_555
Ho1 Ho5 3.567781 1_656
Ho1 Ho5 3.567781 1_655
Ho1 Ho3 3.567781 1_545
Ho1 Ho3 3.567781 1_546
Ho1 Ho2 3.584419 1_655
Ho1 Pr0 3.608049 1_556
Ho1 Pr0 3.608049 1_555
Ho1 Pr1 3.644058 1_545
Ho1 Pr1 3.644073 1_655
Ho1 Ho2 3.703390 1_555
Ho2 Ho5 3.567771 1_556
Ho2 Ho5 3.567771 1_555
Ho2 Ho4 3.567781 1_545
Ho2 Ho4 3.567781 1_546
Ho2 Pr0 3.608056 1_555
Ho2 Pr0 3.608056 1_556
Ho2 Pr1 3.644066 1_545
Ho2 Pr1 3.644066 1_555
Ho3 Ho5 3.584407 1_665
Ho3 Ho4 3.584412 1_655
Ho3 Pr1 3.608056 1_555
Ho3 Pr1 3.608056 1_554
Ho3 Pr0 3.644059 1_565
Ho3 Pr0 3.644074 1_555
Ho3 Ho4 3.703397 1_555
Ho3 Ho5 3.703400 1_555
Ho4 Ho5 3.584404 1_565
Ho4 Pr1 3.608056 1_554
Ho4 Pr1 3.608056 1_555
Ho4 Pr0 3.644058 1_565
Ho4 Pr0 3.644073 1_455
Ho4 Ho5 3.703404 1_555
Ho5 Pr1 3.608067 1_555
Ho5 Pr1 3.608067 1_554
Ho5 Pr0 3.644062 1_555
Ho5 Pr0 3.644070 1_455
