# generated using pymatgen
data_SbPd3
_symmetry_space_group_name_H-M   'P 1'
_cell_length_a   4.51682720
_cell_length_b   4.51682721
_cell_length_c   4.51682720
_cell_angle_alpha   59.99995981
_cell_angle_beta   59.99995971
_cell_angle_gamma   59.99995971
_symmetry_Int_Tables_number   1
_chemical_formula_structural   SbPd3
_chemical_formula_sum   'Sb1 Pd3'
_cell_volume   65.16059396
_cell_formula_units_Z   1
loop_
 _symmetry_equiv_pos_site_id
 _symmetry_equiv_pos_as_xyz
  1  'x, y, z'
loop_
 _atom_site_type_symbol
 _atom_site_label
 _atom_site_symmetry_multiplicity
 _atom_site_fract_x
 _atom_site_fract_y
 _atom_site_fract_z
 _atom_site_occupancy
  Sb  Sb0  1  0.75000094  0.75000094  0.75000094  1
  Pd  Pd0  1  0.00000010  0.00000010  0.00000011  1
  Pd  Pd1  1  0.49999917  0.49999916  0.49999916  1
  Pd  Pd2  1  0.25000079  0.25000080  0.25000080  1
loop_
_geom_bond_atom_site_label_1
_geom_bond_atom_site_label_2
_geom_bond_distance
_geom_bond_site_symmetry_2
Pd0 Sb0 2.765972 1_444
Pd0 Pd2 2.765976 1_545
Pd0 Pd2 2.765977 1_455
Pd0 Pd2 2.765977 1_554
Pd0 Sb0 2.765982 1_445
Pd0 Sb0 2.765982 1_544
Pd0 Sb0 2.765982 1_454
Pd0 Pd2 2.765989 1_555
Pd1 Pd2 2.765963 1_555
Pd1 Sb0 2.765973 1_554
Pd1 Sb0 2.765973 1_545
Pd1 Sb0 2.765973 1_455
Pd1 Pd2 2.765985 1_655
Pd1 Pd2 2.765985 1_556
Pd1 Pd2 2.765985 1_565
Pd1 Sb0 2.766001 1_555
Pd2 Sb0 3.193877 1_454
Pd2 Sb0 3.193877 1_445
Pd2 Sb0 3.193877 1_544
Pd2 Sb0 3.193879 1_455
Pd2 Sb0 3.193879 1_545
Pd2 Sb0 3.193879 1_554
