# generated using pymatgen
data_SrCeN2
_symmetry_space_group_name_H-M   'P 1'
_cell_length_a   6.34408753
_cell_length_b   6.34408753
_cell_length_c   5.21310578
_cell_angle_alpha   65.85485960
_cell_angle_beta   65.85485960
_cell_angle_gamma   48.58134917
_symmetry_Int_Tables_number   1
_chemical_formula_structural   SrCeN2
_chemical_formula_sum   'Sr2 Ce2 N4'
_cell_volume   140.60459101
_cell_formula_units_Z   2
loop_
 _symmetry_equiv_pos_site_id
 _symmetry_equiv_pos_as_xyz
  1  'x, y, z'
loop_
 _atom_site_type_symbol
 _atom_site_label
 _atom_site_symmetry_multiplicity
 _atom_site_fract_x
 _atom_site_fract_y
 _atom_site_fract_z
 _atom_site_occupancy
  Sr  Sr0  1  0.00116700  0.24795900  0.62582100  1
  Sr  Sr1  1  0.75204100  0.99883300  0.37417900  1
  Ce  Ce0  1  0.25116000  0.49747500  0.87844400  1
  Ce  Ce1  1  0.50252500  0.74884000  0.12155600  1
  N  N0  1  0.71435600  0.97395600  0.90483800  1
  N  N1  1  0.46808400  0.71944900  0.66664200  1
  N  N2  1  0.28055100  0.53191600  0.33335800  1
  N  N3  1  0.02604400  0.28564400  0.09516200  1
loop_
_geom_bond_atom_site_label_1
_geom_bond_atom_site_label_2
_geom_bond_distance
_geom_bond_site_symmetry_2
Ce0 N3 2.258167 1_556
Ce0 N1 2.268284 1_555
Ce0 N2 2.558547 1_556
Ce0 N0 2.593939 1_545
Ce0 N0 2.662788 1_455
Ce0 N2 2.696229 1_555
Ce1 N0 2.258167 1_554
Ce1 N2 2.268284 1_555
Ce1 N1 2.558547 1_554
Ce1 N3 2.593939 1_655
Ce1 N3 2.662788 1_565
Ce1 N1 2.696229 1_555
N0 Sr1 2.624234 1_555
N0 Sr1 2.629241 1_556
N0 Sr0 2.898165 1_665
N1 Sr0 2.617768 1_565
N1 Sr0 2.641457 1_655
N1 Sr1 2.911731 1_555
N2 Sr1 2.617768 1_455
N2 Sr1 2.641457 1_545
N2 Sr0 2.911731 1_555
N3 Sr0 2.624234 1_555
N3 Sr0 2.629241 1_554
N3 Sr1 2.898165 1_445
