# generated using pymatgen
data_Hg3Au
_symmetry_space_group_name_H-M   'P 1'
_cell_length_a   4.51379200
_cell_length_b   4.51379200
_cell_length_c   4.51379200
_cell_angle_alpha   90.00000000
_cell_angle_beta   90.00000000
_cell_angle_gamma   90.00000000
_symmetry_Int_Tables_number   1
_chemical_formula_structural   Hg3Au
_chemical_formula_sum   'Hg3 Au1'
_cell_volume   91.96543458
_cell_formula_units_Z   1
loop_
 _symmetry_equiv_pos_site_id
 _symmetry_equiv_pos_as_xyz
  1  'x, y, z'
loop_
 _atom_site_type_symbol
 _atom_site_label
 _atom_site_symmetry_multiplicity
 _atom_site_fract_x
 _atom_site_fract_y
 _atom_site_fract_z
 _atom_site_occupancy
  Hg  Hg0  1  0.00000000  0.50000000  0.50000000  1
  Hg  Hg1  1  0.50000000  0.00000000  0.50000000  1
  Hg  Hg2  1  0.50000000  0.50000000  0.00000000  1
  Au  Au0  1  0.00000000  0.00000000  0.00000000  1
loop_
_geom_bond_atom_site_label_1
_geom_bond_atom_site_label_2
_geom_bond_distance
_geom_bond_site_symmetry_2
Hg0 Hg2 3.191733 1_556
Hg0 Hg2 3.191733 1_555
Hg0 Hg2 3.191733 1_455
Hg0 Hg1 3.191733 1_565
Hg0 Hg1 3.191733 1_465
Hg0 Hg1 3.191733 1_455
Hg0 Hg2 3.191733 1_456
Hg0 Hg1 3.191733 1_555
Hg1 Hg2 3.191733 1_556
Hg1 Hg2 3.191733 1_555
Hg1 Hg2 3.191733 1_545
Hg1 Hg2 3.191733 1_546
Au0 Hg2 3.191733 1_555
Au0 Hg0 3.191733 1_545
Au0 Hg2 3.191733 1_545
Au0 Hg2 3.191733 1_455
Au0 Hg0 3.191733 1_554
Au0 Hg0 3.191733 1_555
Au0 Hg2 3.191733 1_445
Au0 Hg1 3.191733 1_455
Au0 Hg0 3.191733 1_544
Au0 Hg1 3.191733 1_554
Au0 Hg1 3.191733 1_555
Au0 Hg1 3.191733 1_454
