# generated using pymatgen
data_PrGaO3
_symmetry_space_group_name_H-M   'P 1'
_cell_length_a   4.60317700
_cell_length_b   4.60317700
_cell_length_c   4.60317700
_cell_angle_alpha   90.00000000
_cell_angle_beta   90.00000000
_cell_angle_gamma   90.00000000
_symmetry_Int_Tables_number   1
_chemical_formula_structural   PrGaO3
_chemical_formula_sum   'Pr1 Ga1 O3'
_cell_volume   97.53781528
_cell_formula_units_Z   1
loop_
 _symmetry_equiv_pos_site_id
 _symmetry_equiv_pos_as_xyz
  1  'x, y, z'
loop_
 _atom_site_type_symbol
 _atom_site_label
 _atom_site_symmetry_multiplicity
 _atom_site_fract_x
 _atom_site_fract_y
 _atom_site_fract_z
 _atom_site_occupancy
  Pr  Pr0  1  0.50000000  0.50000000  0.50000000  1
  Ga  Ga0  1  0.00000000  0.00000000  0.00000000  1
  O  O0  1  0.00000000  0.50000000  0.50000000  1
  O  O1  1  0.50000000  0.00000000  0.50000000  1
  O  O2  1  0.50000000  0.50000000  0.00000000  1
loop_
_geom_bond_atom_site_label_1
_geom_bond_atom_site_label_2
_geom_bond_distance
_geom_bond_site_symmetry_2
O0 Pr0 2.301588 1_455
O0 Pr0 2.301588 1_555
O1 Pr0 2.301588 1_555
O1 Pr0 2.301588 1_545
O2 Pr0 2.301588 1_554
O2 Pr0 2.301588 1_555
