# generated using pymatgen
data_K4Hf5O12
_symmetry_space_group_name_H-M   'P 1'
_cell_length_a   5.76573678
_cell_length_b   5.76573611
_cell_length_c   10.32435657
_cell_angle_alpha   90.00001730
_cell_angle_beta   90.00001129
_cell_angle_gamma   120.00000741
_symmetry_Int_Tables_number   1
_chemical_formula_structural   K4Hf5O12
_chemical_formula_sum   'K4 Hf5 O12'
_cell_volume   297.23720439
_cell_formula_units_Z   1
loop_
 _symmetry_equiv_pos_site_id
 _symmetry_equiv_pos_as_xyz
  1  'x, y, z'
loop_
 _atom_site_type_symbol
 _atom_site_label
 _atom_site_symmetry_multiplicity
 _atom_site_fract_x
 _atom_site_fract_y
 _atom_site_fract_z
 _atom_site_occupancy
  K  K0  1  0.00000121  0.00000142  0.32301861  1
  K  K1  1  0.99999894  -0.00000064  0.67698161  1
  K  K2  1  0.33333377  0.66666598  0.11314974  1
  K  K3  1  0.66666624  0.33333254  0.88685793  1
  Hf  Hf0  1  0.33333354  0.66666659  0.47645360  1
  Hf  Hf1  1  0.66666688  0.33333322  0.52354660  1
  Hf  Hf2  1  -0.00000190  -0.00000082  -0.00000064  1
  Hf  Hf3  1  0.33333395  0.66666758  0.78353917  1
  Hf  Hf4  1  0.66666596  0.33333317  0.21645994  1
  O  O0  1  0.83496329  0.16503622  0.12121320  1
  O  O1  1  0.83496324  0.66992809  0.12121364  1
  O  O2  1  0.33007364  0.16503708  0.12121424  1
  O  O3  1  0.66992895  0.83496473  0.87878468  1
  O  O4  1  0.16503743  0.33007386  0.87878551  1
  O  O5  1  0.16503721  0.83496380  0.87878486  1
  O  O6  1  0.50969567  0.49030406  0.37736446  1
  O  O7  1  0.50969492  0.01939120  0.37736415  1
  O  O8  1  0.98060808  0.49030363  0.37736429  1
  O  O9  1  0.01939166  0.50969554  0.62263510  1
  O  O10  1  0.49030451  0.98060804  0.62263525  1
  O  O11  1  0.49030381  0.50969572  0.62263505  1
loop_
_geom_bond_atom_site_label_1
_geom_bond_atom_site_label_2
_geom_bond_distance
_geom_bond_site_symmetry_2
K0 O2 2.656567 1_555
K0 O1 2.656573 1_445
K0 O0 2.656576 1_455
K0 O6 2.938549 1_555
K0 O7 2.938550 1_555
K0 O8 2.938551 1_455
K0 O7 2.938564 1_455
K0 O8 2.938565 1_445
K0 O6 2.938566 1_445
K1 O3 2.656549 1_545
K1 O5 2.656562 1_645
K1 O4 2.656568 1_655
K1 O10 2.938552 1_545
K1 O11 2.938555 1_545
K1 O9 2.938558 1_655
K1 O9 2.938560 1_645
K1 O11 2.938563 1_655
K1 O10 2.938566 1_645
K2 O1 2.884107 1_555
K2 O2 2.884109 1_555
K2 O0 2.884115 1_565
K2 O0 2.884116 1_455
K2 O2 2.884123 1_565
K2 O1 2.884125 1_455
K2 O4 2.946098 1_554
K2 O5 2.946110 1_554
K2 O3 2.946115 1_554
K2 O6 3.247020 1_555
K2 O7 3.247020 1_565
K2 O8 3.247024 1_455
K3 O5 2.884112 1_545
K3 O3 2.884114 1_545
K3 O4 2.884116 1_555
K3 O4 2.884122 1_655
K3 O3 2.884124 1_555
K3 O5 2.884125 1_655
K3 O0 2.946026 1_556
K3 O2 2.946033 1_556
K3 O1 2.946035 1_556
K3 O10 3.247090 1_545
K3 O9 3.247095 1_655
K3 O11 3.247096 1_555
Hf0 O6 2.036811 1_555
Hf0 O7 2.036812 1_565
Hf0 O8 2.036815 1_455
Hf0 O11 2.176034 1_555
Hf0 O10 2.176036 1_555
Hf0 O9 2.176038 1_555
Hf1 O9 2.036808 1_655
Hf1 O10 2.036811 1_545
Hf1 O11 2.036811 1_555
Hf1 O8 2.176041 1_555
Hf1 O6 2.176043 1_555
Hf1 O7 2.176044 1_555
Hf2 O3 2.069415 1_444
Hf2 O0 2.069421 1_455
Hf2 O1 2.069421 1_445
Hf2 O4 2.069432 1_554
Hf2 O5 2.069435 1_544
Hf2 O2 2.069442 1_555
Hf3 O5 1.947237 1_555
Hf3 O4 1.947244 1_555
Hf3 O3 1.947245 1_555
Hf3 O10 2.284081 1_555
Hf3 O11 2.284086 1_555
Hf3 O9 2.284088 1_555
Hf4 O2 1.947234 1_555
Hf4 O0 1.947249 1_555
Hf4 O1 1.947249 1_555
Hf4 O6 2.284088 1_555
Hf4 O7 2.284088 1_555
Hf4 O8 2.284089 1_555
