# generated using pymatgen
data_YbTm3
_symmetry_space_group_name_H-M   'P 1'
_cell_length_a   6.15544517
_cell_length_b   6.15544517
_cell_length_c   6.15544517
_cell_angle_alpha   132.09704458
_cell_angle_beta   132.09704458
_cell_angle_gamma   70.07579864
_symmetry_Int_Tables_number   1
_chemical_formula_structural   YbTm3
_chemical_formula_sum   'Yb1 Tm3'
_cell_volume   125.88505783
_cell_formula_units_Z   1
loop_
 _symmetry_equiv_pos_site_id
 _symmetry_equiv_pos_as_xyz
  1  'x, y, z'
loop_
 _atom_site_type_symbol
 _atom_site_label
 _atom_site_symmetry_multiplicity
 _atom_site_fract_x
 _atom_site_fract_y
 _atom_site_fract_z
 _atom_site_occupancy
  Yb  Yb0  1  0.00000000  0.00000000  0.00000000  1
  Tm  Tm0  1  0.75000000  0.25000000  0.50000000  1
  Tm  Tm1  1  0.25000000  0.75000000  0.50000000  1
  Tm  Tm2  1  0.50000000  0.50000000  0.00000000  1
loop_
_geom_bond_atom_site_label_1
_geom_bond_atom_site_label_2
_geom_bond_distance
_geom_bond_site_symmetry_2
Tm0 Tm1 3.533953 1_645
Tm0 Tm1 3.533953 1_656
Tm0 Tm1 3.533953 1_555
Tm0 Tm1 3.533953 1_544
Tm0 Yb0 3.548885 1_655
Tm0 Yb0 3.548885 1_656
Tm0 Yb0 3.548885 1_666
Tm0 Tm2 3.548885 1_556
Tm0 Tm2 3.548885 1_656
Tm0 Yb0 3.548885 1_555
Tm0 Tm2 3.548885 1_545
Tm0 Tm2 3.548885 1_555
Tm1 Yb0 3.548885 1_566
Tm1 Yb0 3.548885 1_666
Tm1 Tm2 3.548885 1_455
Tm1 Tm2 3.548885 1_556
Tm1 Yb0 3.548885 1_565
Tm1 Yb0 3.548885 1_555
Tm1 Tm2 3.548885 1_566
Tm1 Tm2 3.548885 1_555
Tm2 Yb0 3.533953 1_554
Tm2 Yb0 3.533953 1_666
Tm2 Yb0 3.533953 1_655
Tm2 Yb0 3.533953 1_565
