# generated using pymatgen
data_Rb
_symmetry_space_group_name_H-M   'P 1'
_cell_length_a   10.17641604
_cell_length_b   10.17641186
_cell_length_c   16.88411596
_cell_angle_alpha   90.00000000
_cell_angle_beta   90.00000000
_cell_angle_gamma   120.00000646
_symmetry_Int_Tables_number   1
_chemical_formula_structural   Rb
_chemical_formula_sum   Rb16
_cell_volume   1514.25305697
_cell_formula_units_Z   16
loop_
 _symmetry_equiv_pos_site_id
 _symmetry_equiv_pos_as_xyz
  1  'x, y, z'
loop_
 _atom_site_type_symbol
 _atom_site_label
 _atom_site_symmetry_multiplicity
 _atom_site_fract_x
 _atom_site_fract_y
 _atom_site_fract_z
 _atom_site_occupancy
  Rb  Rb0_0  1  0.16666700  0.33333350  0.12500050  1
  Rb  Rb0_1  1  0.16666700  0.33333350  0.62500050  1
  Rb  Rb0_2  1  0.16666700  0.83333350  0.12500050  1
  Rb  Rb0_3  1  0.16666700  0.83333350  0.62500050  1
  Rb  Rb0_4  1  0.66666700  0.33333350  0.12500050  1
  Rb  Rb0_5  1  0.66666700  0.33333350  0.62500050  1
  Rb  Rb0_6  1  0.66666700  0.83333350  0.12500050  1
  Rb  Rb0_7  1  0.66666700  0.83333350  0.62500050  1
  Rb  Rb1_0  1  0.33333350  0.16666600  0.37500050  1
  Rb  Rb1_1  1  0.33333350  0.16666600  0.87500050  1
  Rb  Rb1_2  1  0.33333350  0.66666600  0.37500050  1
  Rb  Rb1_3  1  0.33333350  0.66666600  0.87500050  1
  Rb  Rb1_4  1  0.83333350  0.16666600  0.37500050  1
  Rb  Rb1_5  1  0.83333350  0.16666600  0.87500050  1
  Rb  Rb1_6  1  0.83333350  0.66666600  0.37500050  1
  Rb  Rb1_7  1  0.83333350  0.66666600  0.87500050  1
loop_
_geom_bond_atom_site_label_1
_geom_bond_atom_site_label_2
_geom_bond_distance
_geom_bond_site_symmetry_2
Rb0_0 Rb0_2 5.088206 1_555
Rb0_0 Rb0_2 5.088206 1_545
Rb0_0 Rb0_6 5.088206 1_445
Rb0_0 Rb0_6 5.088206 1_555
Rb0_0 Rb0_4 5.088208 1_455
Rb0_0 Rb0_4 5.088208 1_555
Rb0_0 Rb1_2 5.142664 1_555
Rb0_0 Rb1_3 5.142664 1_554
Rb0_0 Rb1_5 5.142669 1_454
Rb0_0 Rb1_4 5.142669 1_455
Rb0_0 Rb1_0 5.142672 1_555
Rb0_0 Rb1_1 5.142672 1_554
Rb0_1 Rb0_3 5.088206 1_555
Rb0_1 Rb0_3 5.088206 1_545
Rb0_1 Rb0_7 5.088206 1_445
Rb0_1 Rb0_7 5.088206 1_555
Rb0_1 Rb0_5 5.088208 1_455
Rb0_1 Rb0_5 5.088208 1_555
Rb0_1 Rb1_2 5.142664 1_555
Rb0_1 Rb1_3 5.142664 1_555
Rb0_1 Rb1_4 5.142669 1_455
Rb0_1 Rb1_5 5.142669 1_455
Rb0_1 Rb1_0 5.142672 1_555
Rb0_1 Rb1_1 5.142672 1_555
Rb0_2 Rb0_4 5.088206 1_565
Rb0_2 Rb0_4 5.088206 1_455
Rb0_2 Rb0_6 5.088208 1_455
Rb0_2 Rb0_6 5.088208 1_555
Rb0_2 Rb1_0 5.142664 1_565
Rb0_2 Rb1_1 5.142664 1_564
Rb0_2 Rb1_7 5.142669 1_454
Rb0_2 Rb1_6 5.142669 1_455
Rb0_2 Rb1_3 5.142672 1_554
Rb0_2 Rb1_2 5.142672 1_555
Rb0_3 Rb0_5 5.088206 1_455
Rb0_3 Rb0_5 5.088206 1_565
Rb0_3 Rb0_7 5.088208 1_555
Rb0_3 Rb0_7 5.088208 1_455
Rb0_3 Rb1_0 5.142664 1_565
Rb0_3 Rb1_1 5.142664 1_565
Rb0_3 Rb1_6 5.142669 1_455
Rb0_3 Rb1_7 5.142669 1_455
Rb0_3 Rb1_3 5.142672 1_555
Rb0_3 Rb1_2 5.142672 1_555
Rb0_4 Rb0_6 5.088206 1_555
Rb0_4 Rb0_6 5.088206 1_545
Rb0_4 Rb1_7 5.142664 1_554
Rb0_4 Rb1_6 5.142664 1_555
Rb0_4 Rb1_0 5.142669 1_555
Rb0_4 Rb1_1 5.142669 1_554
Rb0_4 Rb1_5 5.142672 1_554
Rb0_4 Rb1_4 5.142672 1_555
Rb0_5 Rb0_7 5.088206 1_555
Rb0_5 Rb0_7 5.088206 1_545
Rb0_5 Rb1_6 5.142664 1_555
Rb0_5 Rb1_7 5.142664 1_555
Rb0_5 Rb1_0 5.142669 1_555
Rb0_5 Rb1_1 5.142669 1_555
Rb0_5 Rb1_4 5.142672 1_555
Rb0_5 Rb1_5 5.142672 1_555
Rb0_6 Rb1_5 5.142664 1_564
Rb0_6 Rb1_4 5.142664 1_565
Rb0_6 Rb1_3 5.142669 1_554
Rb0_6 Rb1_2 5.142669 1_555
Rb0_6 Rb1_7 5.142672 1_554
Rb0_6 Rb1_6 5.142672 1_555
Rb0_7 Rb1_5 5.142664 1_565
Rb0_7 Rb1_4 5.142664 1_565
Rb0_7 Rb1_2 5.142669 1_555
Rb0_7 Rb1_3 5.142669 1_555
Rb0_7 Rb1_7 5.142672 1_555
Rb0_7 Rb1_6 5.142672 1_555
Rb1_0 Rb1_2 5.088206 1_555
Rb1_0 Rb1_2 5.088206 1_545
Rb1_0 Rb1_6 5.088206 1_555
Rb1_0 Rb1_6 5.088206 1_445
Rb1_0 Rb1_4 5.088208 1_455
Rb1_0 Rb1_4 5.088208 1_555
Rb1_1 Rb1_3 5.088206 1_545
Rb1_1 Rb1_3 5.088206 1_555
Rb1_1 Rb1_7 5.088206 1_555
Rb1_1 Rb1_7 5.088206 1_445
Rb1_1 Rb1_5 5.088208 1_455
Rb1_1 Rb1_5 5.088208 1_555
Rb1_2 Rb1_4 5.088206 1_455
Rb1_2 Rb1_4 5.088206 1_565
Rb1_2 Rb1_6 5.088208 1_555
Rb1_2 Rb1_6 5.088208 1_455
Rb1_3 Rb1_5 5.088206 1_455
Rb1_3 Rb1_5 5.088206 1_565
Rb1_3 Rb1_7 5.088208 1_555
Rb1_3 Rb1_7 5.088208 1_455
Rb1_4 Rb1_6 5.088206 1_545
Rb1_4 Rb1_6 5.088206 1_555
Rb1_5 Rb1_7 5.088206 1_545
Rb1_5 Rb1_7 5.088206 1_555
