# generated using pymatgen
data_Sc6Ga16Ru7
_symmetry_space_group_name_H-M   'P 1'
_cell_length_a   8.72359347
_cell_length_b   8.72365539
_cell_length_c   8.72361811
_cell_angle_alpha   59.99775621
_cell_angle_beta   59.99731732
_cell_angle_gamma   59.99772301
_symmetry_Int_Tables_number   1
_chemical_formula_structural   Sc6Ga16Ru7
_chemical_formula_sum   'Sc6 Ga16 Ru7'
_cell_volume   469.40955298
_cell_formula_units_Z   1
loop_
 _symmetry_equiv_pos_site_id
 _symmetry_equiv_pos_as_xyz
  1  'x, y, z'
loop_
 _atom_site_type_symbol
 _atom_site_label
 _atom_site_symmetry_multiplicity
 _atom_site_fract_x
 _atom_site_fract_y
 _atom_site_fract_z
 _atom_site_occupancy
  Sc  Sc0  1  0.72545611  0.27454765  0.27453886  1
  Sc  Sc1  1  0.27454187  0.72545184  0.72546039  1
  Sc  Sc2  1  0.27454478  0.72544969  0.27454684  1
  Sc  Sc3  1  0.27453821  0.27454887  0.72545964  1
  Sc  Sc4  1  0.72545784  0.27454776  0.72545606  1
  Sc  Sc5  1  0.72546448  0.72545086  0.27454192  1
  Ga  Ga0  1  0.34500115  0.34502805  0.96494945  1
  Ga  Ga1  1  0.34501345  0.34503844  0.34500768  1
  Ga  Ga2  1  0.96495036  0.34502996  0.34500539  1
  Ga  Ga3  1  0.34501192  0.96494607  0.34501414  1
  Ga  Ga4  1  0.65498735  0.65496220  0.65499121  1
  Ga  Ga5  1  0.65499303  0.65496522  0.03505089  1
  Ga  Ga6  1  0.65498814  0.03505480  0.65498829  1
  Ga  Ga7  1  0.03504973  0.65497201  0.65499901  1
  Ga  Ga8  1  0.12480635  0.12481749  0.12480537  1
  Ga  Ga9  1  0.12480447  0.12481667  0.62557143  1
  Ga  Ga10  1  0.62557309  0.12481702  0.12480558  1
  Ga  Ga11  1  0.12481071  0.62556602  0.12481067  1
  Ga  Ga12  1  0.87519423  0.87518380  0.87519231  1
  Ga  Ga13  1  0.87519193  0.87518460  0.37442772  1
  Ga  Ga14  1  0.87518508  0.37443449  0.87518810  1
  Ga  Ga15  1  0.37442793  0.87518317  0.87519260  1
  Ru  Ru0  1  0.50000019  0.00000406  -0.00000329  1
  Ru  Ru1  1  -0.00000070  0.49999811  0.50000080  1
  Ru  Ru2  1  0.00000402  0.49999923  -0.00000203  1
  Ru  Ru3  1  -0.00000230  -0.00000067  0.50000312  1
  Ru  Ru4  1  0.50000110  -0.00000158  0.49999991  1
  Ru  Ru5  1  0.50000373  0.50000068  -0.00000102  1
  Ru  Ru6  1  0.00000075  0.00000151  0.99999795  1
loop_
_geom_bond_atom_site_label_1
_geom_bond_atom_site_label_2
_geom_bond_distance
_geom_bond_site_symmetry_2
Ga0 Ru2 2.530420 1_556
Ga0 Ru0 2.530646 1_556
Ga0 Ru5 2.530737 1_556
Ga0 Ga11 2.767092 1_556
Ga0 Ga8 2.767167 1_556
Ga0 Ga10 2.767301 1_556
Ga0 Sc1 2.840182 1_555
Ga0 Sc3 2.840351 1_555
Ga0 Sc4 2.840355 1_555
Ga1 Ru5 2.530471 1_555
Ga1 Ru1 2.530496 1_555
Ga1 Ru4 2.530721 1_555
Ga1 Ga11 2.767062 1_555
Ga1 Ga10 2.767225 1_555
Ga1 Ga9 2.767269 1_555
Ga1 Sc2 2.840140 1_555
Ga1 Sc0 2.840303 1_555
Ga1 Sc3 2.840378 1_555
Ga2 Ru2 2.530497 1_655
Ga2 Ru1 2.530648 1_655
Ga2 Ru3 2.530697 1_655
Ga2 Ga8 2.767220 1_655
Ga2 Ga9 2.767253 1_655
Ga2 Sc5 2.840155 1_555
Ga2 Sc4 2.840323 1_555
Ga2 Sc0 2.840425 1_555
Ga3 Ru3 2.530532 1_565
Ga3 Ru0 2.530555 1_565
Ga3 Ru4 2.530750 1_565
Ga3 Ga8 2.767210 1_565
Ga3 Ga9 2.767265 1_565
Ga3 Sc1 2.840315 1_555
Ga3 Sc5 2.840347 1_555
Ga3 Sc2 2.840364 1_555
Ga4 Ru5 2.530452 1_556
Ga4 Ru1 2.530487 1_655
Ga4 Ru4 2.530695 1_565
Ga4 Sc4 2.840153 1_555
Ga4 Sc1 2.840328 1_555
Ga4 Sc5 2.840354 1_555
Ga5 Ru2 2.530516 1_655
Ga5 Ru5 2.530589 1_555
Ga5 Ru0 2.530745 1_565
Ga5 Sc0 2.840142 1_555
Ga5 Sc2 2.840310 1_555
Ga5 Sc5 2.840452 1_555
Ga6 Ru3 2.530493 1_655
Ga6 Ru0 2.530501 1_556
Ga6 Ru4 2.530777 1_555
Ga6 Sc3 2.840329 1_555
Ga6 Sc0 2.840331 1_555
Ga6 Sc4 2.840354 1_555
Ga7 Ru2 2.530447 1_556
Ga7 Ru3 2.530664 1_565
Ga7 Ru1 2.530721 1_555
Ga7 Sc3 2.840175 1_555
Ga7 Sc2 2.840337 1_555
Ga7 Sc1 2.840361 1_555
Ga8 Ru6 2.667034 1_554
Ga8 Ru2 2.672287 1_555
Ga8 Ru0 2.672343 1_555
Ga8 Ru3 2.672379 1_555
Ga8 Sc3 2.855422 1_554
Ga8 Sc0 2.855444 1_455
Ga8 Sc2 2.855605 1_545
Ga9 Ru6 2.666883 1_555
Ga9 Ru1 2.672285 1_555
Ga9 Ru4 2.672362 1_555
Ga9 Ru3 2.672475 1_555
Ga9 Sc4 2.855433 1_455
Ga9 Sc1 2.855594 1_545
Ga9 Sc3 2.855630 1_555
Ga10 Ru6 2.666883 1_654
Ga10 Ru5 2.672301 1_555
Ga10 Ru4 2.672354 1_555
Ga10 Ru0 2.672491 1_555
Ga10 Ga3 2.767289 1_545
Ga10 Sc4 2.855463 1_554
Ga10 Sc0 2.855582 1_555
Ga10 Sc5 2.855602 1_545
Ga11 Ru6 2.666969 1_564
Ga11 Ru1 2.672324 1_555
Ga11 Ru5 2.672337 1_555
Ga11 Ru2 2.672430 1_555
Ga11 Ga2 2.767074 1_455
Ga11 Sc5 2.855426 1_455
Ga11 Sc1 2.855464 1_554
Ga11 Sc2 2.855631 1_555
Ga12 Ru6 2.667040 1_665
Ga12 Ru2 2.672307 1_656
Ga12 Ru3 2.672318 1_665
Ga12 Ru0 2.672344 1_566
Ga12 Ga7 2.767170 1_655
Ga12 Ga6 2.767181 1_565
Ga12 Ga5 2.767262 1_556
Ga12 Sc1 2.855427 1_655
Ga12 Sc5 2.855448 1_556
Ga12 Sc4 2.855574 1_565
Ga13 Ru6 2.666906 1_664
Ga13 Ru1 2.672321 1_655
Ga13 Ru4 2.672321 1_565
Ga13 Ru3 2.672500 1_665
Ga13 Ga4 2.767249 1_555
Ga13 Ga6 2.767286 1_565
Ga13 Ga7 2.767308 1_655
Ga13 Sc2 2.855481 1_655
Ga13 Sc5 2.855579 1_555
Ga13 Sc0 2.855581 1_565
Ga14 Ru6 2.666951 1_655
Ga14 Ru5 2.672253 1_556
Ga14 Ru1 2.672304 1_655
Ga14 Ru2 2.672483 1_656
Ga14 Ga4 2.767036 1_555
Ga14 Ga5 2.767051 1_556
Ga14 Ga7 2.767106 1_655
Ga14 Sc0 2.855467 1_556
Ga14 Sc3 2.855476 1_655
Ga14 Sc4 2.855571 1_555
Ga15 Ru6 2.666879 1_565
Ga15 Ru5 2.672292 1_556
Ga15 Ru4 2.672343 1_565
Ga15 Ru0 2.672509 1_566
Ga15 Ga4 2.767218 1_555
Ga15 Ga5 2.767265 1_556
Ga15 Ga6 2.767286 1_565
Ga15 Sc2 2.855499 1_556
Ga15 Sc1 2.855599 1_555
Ga15 Sc3 2.855600 1_565
