# generated using pymatgen
data_La(Mg4Al3)4
_symmetry_space_group_name_H-M   'P 1'
_cell_length_a   9.17015248
_cell_length_b   9.17015248
_cell_length_c   9.17015248
_cell_angle_alpha   109.47122063
_cell_angle_beta   109.47122063
_cell_angle_gamma   109.47122063
_symmetry_Int_Tables_number   1
_chemical_formula_structural   La(Mg4Al3)4
_chemical_formula_sum   'La1 Mg16 Al12'
_cell_volume   593.61898212
_cell_formula_units_Z   1
loop_
 _symmetry_equiv_pos_site_id
 _symmetry_equiv_pos_as_xyz
  1  'x, y, z'
loop_
 _atom_site_type_symbol
 _atom_site_label
 _atom_site_symmetry_multiplicity
 _atom_site_fract_x
 _atom_site_fract_y
 _atom_site_fract_z
 _atom_site_occupancy
  La  La0  1  0.00000000  0.00000000  0.00000000  1
  Mg  Mg0  1  0.71773900  0.31981500  0.31981500  1
  Mg  Mg1  1  0.63546700  0.00000000  0.00000000  1
  Mg  Mg2  1  0.28226100  0.60207600  0.60207600  1
  Mg  Mg3  1  0.36453300  0.36453300  0.36453300  1
  Mg  Mg4  1  0.00000000  0.68018500  0.39792400  1
  Mg  Mg5  1  0.60207600  0.60207600  0.28226100  1
  Mg  Mg6  1  0.39792400  0.00000000  0.68018500  1
  Mg  Mg7  1  0.00000000  0.00000000  0.63546700  1
  Mg  Mg8  1  0.68018500  0.39792400  0.00000000  1
  Mg  Mg9  1  0.31981500  0.71773900  0.31981500  1
  Mg  Mg10  1  0.68018500  0.00000000  0.39792400  1
  Mg  Mg11  1  0.31981500  0.31981500  0.71773900  1
  Mg  Mg12  1  0.00000000  0.63546700  0.00000000  1
  Mg  Mg13  1  0.39792400  0.68018500  0.00000000  1
  Mg  Mg14  1  0.60207600  0.28226100  0.60207600  1
  Mg  Mg15  1  0.00000000  0.39792400  0.68018500  1
  Al  Al0  1  0.81642500  0.62850300  0.62850300  1
  Al  Al1  1  0.18357500  0.81207800  0.81207800  1
  Al  Al2  1  0.00000000  0.37149700  0.18792200  1
  Al  Al3  1  0.62850300  0.81642500  0.62850300  1
  Al  Al4  1  0.37149700  0.18792200  0.00000000  1
  Al  Al5  1  0.81207800  0.18357500  0.81207800  1
  Al  Al6  1  0.18792200  0.37149700  0.00000000  1
  Al  Al7  1  0.18792200  0.00000000  0.37149700  1
  Al  Al8  1  0.81207800  0.81207800  0.18357500  1
  Al  Al9  1  0.37149700  0.00000000  0.18792200  1
  Al  Al10  1  0.62850300  0.62850300  0.81642500  1
  Al  Al11  1  0.00000000  0.18792200  0.37149700  1
loop_
_geom_bond_atom_site_label_1
_geom_bond_atom_site_label_2
_geom_bond_distance
_geom_bond_site_symmetry_2
La0 Mg7 3.342823 1_554
La0 Mg3 3.342823 1_555
La0 Mg1 3.342823 1_455
La0 Mg12 3.342823 1_545
Mg0 Mg1 3.014481 1_555
Mg0 Mg15 3.101126 1_655
Mg0 Mg4 3.101126 1_655
Mg0 Mg14 3.181861 1_555
Mg0 Mg5 3.181861 1_555
Mg0 Mg8 3.181861 1_555
Mg0 Mg10 3.181861 1_555
Mg1 Mg6 3.014481 1_554
Mg1 Mg13 3.014481 1_545
Mg2 Mg3 3.014481 1_555
Mg2 Mg4 3.101126 1_555
Mg2 Mg9 3.181861 1_555
Mg2 Mg6 3.181861 1_565
Mg3 Mg5 3.014481 1_555
Mg4 Mg7 3.014481 1_565
Mg4 Mg9 3.181861 1_555
Mg4 Mg6 3.181861 1_565
Mg4 Mg8 3.181861 1_455
Mg4 Mg5 3.181861 1_455
Mg5 Mg8 3.101126 1_555
Mg5 Mg9 3.181861 1_555
Mg6 Mg9 3.101126 1_545
Mg6 Mg8 3.181861 1_556
Mg10 Mg7 3.014481 1_655
Mg10 Mg9 3.101126 1_545
Mg10 Mg14 3.101126 1_555
Mg10 Mg13 3.181861 1_545
Mg10 Mg5 3.181861 1_545
Mg10 Mg15 3.181861 1_655
Mg11 Mg7 3.014481 1_555
Mg11 Mg8 3.101126 1_556
Mg11 Mg13 3.101126 1_556
Mg11 Mg14 3.181861 1_555
Mg11 Mg15 3.181861 1_555
Mg11 Mg2 3.181861 1_555
Mg11 Mg6 3.181861 1_555
Mg12 Mg8 3.014481 1_455
Mg12 Mg9 3.014481 1_555
Mg12 Mg15 3.014481 1_554
Mg13 Mg5 3.101126 1_555
Mg13 Mg15 3.181861 1_554
Mg13 Mg9 3.181861 1_555
Mg13 Mg2 3.181861 1_554
Mg14 Mg3 3.014481 1_555
Mg14 Mg6 3.101126 1_555
Mg14 Mg8 3.181861 1_556
Mg14 Mg15 3.181861 1_655
Mg15 Mg2 3.101126 1_555
Al0 Al1 2.748998 1_655
Al0 Al10 2.814094 1_555
Al0 Al3 2.814094 1_555
Al0 Mg0 2.843818 1_555
Al0 Mg5 3.002061 1_555
Al0 Mg14 3.002061 1_555
Al0 Mg15 3.168364 1_655
Al0 Mg4 3.168364 1_655
Al0 Mg7 3.225447 1_665
Al0 Mg12 3.225447 1_656
Al0 La0 3.265180 1_666
Al1 Al4 2.814094 1_566
Al1 Al9 2.814094 1_566
Al1 Mg2 2.843818 1_555
Al1 Mg13 3.002061 1_556
Al1 Mg6 3.002061 1_565
Al1 Mg15 3.168364 1_555
Al1 Mg4 3.168364 1_555
Al1 Mg12 3.225447 1_556
Al1 Mg7 3.225447 1_565
Al1 La0 3.265180 1_566
Al2 Al6 2.814094 1_555
Al2 Al5 2.814094 1_454
Al2 Mg4 2.843818 1_555
Al2 Mg8 3.002061 1_455
Al2 Mg9 3.002061 1_555
Al2 Mg2 3.168364 1_555
Al2 Mg0 3.168364 1_455
Al2 Mg3 3.225447 1_555
Al2 Mg1 3.225447 1_455
Al2 La0 3.265180 1_555
Al3 Al5 2.748998 1_565
Al3 Mg9 2.843818 1_555
Al3 Mg5 3.002061 1_555
Al3 Mg2 3.002061 1_555
Al3 Mg6 3.168364 1_565
Al3 Mg10 3.168364 1_565
Al3 Mg1 3.225447 1_566
Al3 Mg7 3.225447 1_665
Al3 La0 3.265180 1_666
Al4 Al6 2.748998 1_555
Al4 Al9 2.814094 1_555
Al4 Mg8 2.843818 1_555
Al4 Mg0 3.002061 1_555
Al4 Mg6 3.002061 1_554
Al4 Mg5 3.168364 1_555
Al4 Mg11 3.168364 1_554
Al4 Mg3 3.225447 1_555
Al4 Mg7 3.225447 1_554
Al4 La0 3.265180 1_555
Al5 Al6 2.814094 1_656
Al5 Mg14 2.843818 1_555
Al5 Mg15 3.002061 1_655
Al5 Mg8 3.002061 1_556
Al5 Mg6 3.168364 1_555
Al5 Mg10 3.168364 1_555
Al5 Mg7 3.225447 1_655
Al5 Mg1 3.225447 1_556
Al5 La0 3.265180 1_656
Al6 Mg13 2.843818 1_555
Al6 Mg15 3.002061 1_554
Al6 Mg9 3.002061 1_555
Al6 Mg5 3.168364 1_555
Al6 Mg11 3.168364 1_554
Al6 Mg7 3.225447 1_554
Al6 Mg3 3.225447 1_555
Al6 La0 3.265180 1_555
Al7 Al9 2.748998 1_555
Al7 Al8 2.814094 1_445
Al7 Mg6 2.843818 1_555
Al7 Mg4 3.002061 1_545
Al7 Mg11 3.002061 1_555
Al7 Mg14 3.168364 1_555
Al7 Mg9 3.168364 1_545
Al7 Mg12 3.225447 1_545
Al7 Mg3 3.225447 1_555
Al7 La0 3.265180 1_555
Al8 Mg5 2.843818 1_555
Al8 Mg4 3.002061 1_655
Al8 Mg10 3.002061 1_565
Al8 Mg13 3.168364 1_555
Al8 Mg8 3.168364 1_555
Al8 Mg12 3.225447 1_655
Al8 Mg1 3.225447 1_565
Al8 La0 3.265180 1_665
Al9 Mg10 2.843818 1_555
Al9 Mg0 3.002061 1_555
Al9 Mg13 3.002061 1_545
Al9 Mg14 3.168364 1_555
Al9 Mg9 3.168364 1_545
Al9 Mg3 3.225447 1_555
Al9 Mg12 3.225447 1_545
Al9 La0 3.265180 1_555
Al10 Al8 2.748998 1_556
Al10 Al3 2.814094 1_555
Al10 Mg11 2.843818 1_555
Al10 Mg2 3.002061 1_555
Al10 Mg14 3.002061 1_555
Al10 Mg8 3.168364 1_556
Al10 Mg13 3.168364 1_556
Al10 Mg1 3.225447 1_566
Al10 Mg12 3.225447 1_656
Al10 La0 3.265180 1_666
Al11 Al2 2.748998 1_555
Al11 Al7 2.814094 1_555
Al11 Al8 2.814094 1_445
Al11 Mg15 2.843818 1_555
Al11 Mg10 3.002061 1_455
Al11 Mg11 3.002061 1_555
Al11 Mg2 3.168364 1_555
Al11 Mg0 3.168364 1_455
Al11 Mg3 3.225447 1_555
Al11 Mg1 3.225447 1_455
Al11 La0 3.265180 1_555
