# generated using pymatgen
data_Sr2Cu(BO3)2
_symmetry_space_group_name_H-M   'P 1'
_cell_length_a   8.83873700
_cell_length_b   5.87410000
_cell_length_c   6.12421904
_cell_angle_alpha   62.56980812
_cell_angle_beta   90.00000000
_cell_angle_gamma   90.00000000
_symmetry_Int_Tables_number   1
_chemical_formula_structural   Sr2Cu(BO3)2
_chemical_formula_sum   'Sr4 Cu2 B4 O12'
_cell_volume   282.21898648
_cell_formula_units_Z   2
loop_
 _symmetry_equiv_pos_site_id
 _symmetry_equiv_pos_as_xyz
  1  'x, y, z'
loop_
 _atom_site_type_symbol
 _atom_site_label
 _atom_site_symmetry_multiplicity
 _atom_site_fract_x
 _atom_site_fract_y
 _atom_site_fract_z
 _atom_site_occupancy
  Sr  Sr0  1  0.60552100  0.33370800  0.83773600  1
  Sr  Sr1  1  0.10552100  0.66629200  0.66226400  1
  Sr  Sr2  1  0.39447900  0.66629200  0.16226400  1
  Sr  Sr3  1  0.89447900  0.33370800  0.33773600  1
  Cu  Cu0  1  0.50000000  0.00000000  0.50000000  1
  Cu  Cu1  1  0.00000000  0.00000000  0.00000000  1
  B  B0  1  0.24945000  0.19634000  0.15949000  1
  B  B1  1  0.75055000  0.80366000  0.84051000  1
  B  B2  1  0.25055000  0.19634000  0.65949000  1
  B  B3  1  0.74945000  0.80366000  0.34051000  1
  O  O0  1  0.69081300  0.03431700  0.31652600  1
  O  O1  1  0.19081300  0.96568300  0.18347400  1
  O  O2  1  0.66225600  0.59392700  0.38579100  1
  O  O3  1  0.83774400  0.59392700  0.88579100  1
  O  O4  1  0.16225600  0.40607300  0.11420900  1
  O  O5  1  0.33774400  0.40607300  0.61420900  1
  O  O6  1  0.59209500  0.78893500  0.81994000  1
  O  O7  1  0.09209500  0.21106500  0.68006000  1
  O  O8  1  0.40790500  0.21106500  0.18006000  1
  O  O9  1  0.90790500  0.78893500  0.31994000  1
  O  O10  1  0.80918700  0.03431700  0.81652600  1
  O  O11  1  0.30918700  0.96568300  0.68347400  1
loop_
_geom_bond_atom_site_label_1
_geom_bond_atom_site_label_2
_geom_bond_distance
_geom_bond_site_symmetry_2
Cu0 O6 1.949551 1_545
Cu0 O8 1.949551 1_555
Cu0 O11 1.984677 1_545
Cu0 O0 1.984677 1_555
Cu1 O7 1.949551 1_554
Cu1 O9 1.949551 1_445
Cu1 O1 1.984677 1_545
Cu1 O10 1.984677 1_454
B0 O4 1.368902 1_555
B0 O1 1.393768 1_545
B0 O8 1.412412 1_555
B1 O3 1.368902 1_555
B1 O10 1.393768 1_565
B1 O6 1.412412 1_555
B2 O5 1.368902 1_555
B2 O11 1.393768 1_545
B2 O7 1.412412 1_555
B3 O2 1.368902 1_555
B3 O0 1.393768 1_565
B3 O9 1.412412 1_555
O0 Sr3 2.561395 1_555
O0 Sr0 2.740069 1_554
O1 Sr2 2.561395 1_555
O1 Sr1 2.740069 1_555
O2 Sr0 2.520076 1_555
O2 Sr3 2.655286 1_555
O2 Sr2 2.668393 1_555
O3 Sr3 2.520076 1_556
O3 Sr0 2.655286 1_555
O3 Sr1 2.668393 1_655
O4 Sr1 2.520076 1_554
O4 Sr2 2.655286 1_555
O4 Sr3 2.668393 1_455
O5 Sr2 2.520076 1_555
O5 Sr1 2.655286 1_555
O5 Sr0 2.668393 1_555
O6 Sr2 2.563890 1_556
O6 Sr0 2.628305 1_555
O7 Sr3 2.563890 1_455
O7 Sr1 2.628305 1_555
O8 Sr0 2.563890 1_554
O8 Sr2 2.628305 1_555
O9 Sr1 2.563890 1_655
O9 Sr3 2.628305 1_555
O10 Sr0 2.561395 1_555
O10 Sr3 2.740069 1_555
O11 Sr1 2.561395 1_555
O11 Sr2 2.740069 1_556
