# generated using pymatgen
data_NdTm3
_symmetry_space_group_name_H-M   'P 1'
_cell_length_a   5.01021699
_cell_length_b   5.01021699
_cell_length_c   5.01021699
_cell_angle_alpha   90.00000000
_cell_angle_beta   90.00000000
_cell_angle_gamma   90.00000000
_symmetry_Int_Tables_number   1
_chemical_formula_structural   NdTm3
_chemical_formula_sum   'Nd1 Tm3'
_cell_volume   125.76784112
_cell_formula_units_Z   1
loop_
 _symmetry_equiv_pos_site_id
 _symmetry_equiv_pos_as_xyz
  1  'x, y, z'
loop_
 _atom_site_type_symbol
 _atom_site_label
 _atom_site_symmetry_multiplicity
 _atom_site_fract_x
 _atom_site_fract_y
 _atom_site_fract_z
 _atom_site_occupancy
  Nd  Nd0  1  0.00000000  -0.00000000  0.00000000  1
  Tm  Tm0  1  0.00000000  0.50000000  0.50000000  1
  Tm  Tm1  1  0.50000000  -0.00000000  0.50000000  1
  Tm  Tm2  1  0.50000000  0.50000000  0.00000000  1
loop_
_geom_bond_atom_site_label_1
_geom_bond_atom_site_label_2
_geom_bond_distance
_geom_bond_site_symmetry_2
Nd0 Tm0 3.542758 1_554
Nd0 Tm2 3.542758 1_545
Nd0 Tm2 3.542758 1_555
Nd0 Tm1 3.542758 1_455
Nd0 Tm1 3.542758 1_554
Nd0 Tm0 3.542758 1_544
Nd0 Tm0 3.542758 1_555
Nd0 Tm0 3.542758 1_545
Nd0 Tm2 3.542758 1_455
Nd0 Tm1 3.542758 1_555
Nd0 Tm1 3.542758 1_454
Nd0 Tm2 3.542758 1_445
Tm0 Tm1 3.542758 1_465
Tm0 Tm2 3.542758 1_555
Tm0 Tm1 3.542758 1_455
Tm0 Tm1 3.542758 1_565
Tm0 Tm2 3.542758 1_456
Tm0 Tm2 3.542758 1_455
Tm0 Tm2 3.542758 1_556
Tm0 Tm1 3.542758 1_555
Tm1 Tm2 3.542758 1_545
Tm1 Tm2 3.542758 1_546
Tm1 Tm2 3.542758 1_555
Tm1 Tm2 3.542758 1_556
