# generated using pymatgen
data_NbCu3Te4
_symmetry_space_group_name_H-M   'P 1'
_cell_length_a   5.97188355
_cell_length_b   5.97188355
_cell_length_c   5.97188355
_cell_angle_alpha   90.00000000
_cell_angle_beta   90.00000000
_cell_angle_gamma   90.00000000
_symmetry_Int_Tables_number   1
_chemical_formula_structural   NbCu3Te4
_chemical_formula_sum   'Nb1 Cu3 Te4'
_cell_volume   212.97763080
_cell_formula_units_Z   1
loop_
 _symmetry_equiv_pos_site_id
 _symmetry_equiv_pos_as_xyz
  1  'x, y, z'
loop_
 _atom_site_type_symbol
 _atom_site_label
 _atom_site_symmetry_multiplicity
 _atom_site_fract_x
 _atom_site_fract_y
 _atom_site_fract_z
 _atom_site_occupancy
  Nb  Nb0  1  0.00000000  -0.00000000  -0.00000000  1
  Cu  Cu0  1  0.00000000  -0.00000000  0.50000000  1
  Cu  Cu1  1  0.00000000  0.50000000  -0.00000000  1
  Cu  Cu2  1  0.50000000  -0.00000000  -0.00000000  1
  Te  Te0  1  0.74351228  0.74351228  0.25648772  1
  Te  Te1  1  0.74351228  0.25648772  0.74351228  1
  Te  Te2  1  0.25648772  0.74351228  0.74351228  1
  Te  Te3  1  0.25648772  0.25648772  0.25648772  1
loop_
_geom_bond_atom_site_label_1
_geom_bond_atom_site_label_2
_geom_bond_distance
_geom_bond_site_symmetry_2
Nb0 Te2 2.653008 1_544
Nb0 Te0 2.653008 1_445
Nb0 Te3 2.653008 1_555
Nb0 Te1 2.653008 1_454
Cu0 Te3 2.609037 1_555
Cu0 Te0 2.609037 1_445
Cu0 Te2 2.609037 1_545
Cu0 Te1 2.609037 1_455
Cu0 Nb0 2.985942 1_555
Cu0 Nb0 2.985942 1_556
Cu1 Te3 2.609037 1_555
Cu1 Te2 2.609037 1_554
Cu1 Te1 2.609037 1_454
Cu1 Te0 2.609037 1_455
Cu1 Nb0 2.985942 1_555
Cu1 Nb0 2.985942 1_565
Cu2 Te3 2.609037 1_555
Cu2 Te0 2.609037 1_545
Cu2 Te2 2.609037 1_544
Cu2 Te1 2.609037 1_554
Cu2 Nb0 2.985942 1_555
Cu2 Nb0 2.985942 1_655
