# generated using pymatgen
data_SmZn2Cd
_symmetry_space_group_name_H-M   'P 1'
_cell_length_a   4.83157813
_cell_length_b   4.83157813
_cell_length_c   4.83157813
_cell_angle_alpha   60.00000000
_cell_angle_beta   60.00000000
_cell_angle_gamma   60.00000000
_symmetry_Int_Tables_number   1
_chemical_formula_structural   SmZn2Cd
_chemical_formula_sum   'Sm1 Zn2 Cd1'
_cell_volume   79.75391712
_cell_formula_units_Z   1
loop_
 _symmetry_equiv_pos_site_id
 _symmetry_equiv_pos_as_xyz
  1  'x, y, z'
loop_
 _atom_site_type_symbol
 _atom_site_label
 _atom_site_symmetry_multiplicity
 _atom_site_fract_x
 _atom_site_fract_y
 _atom_site_fract_z
 _atom_site_occupancy
  Sm  Sm0  1  0.75000000  0.75000000  0.75000000  1
  Zn  Zn0  1  0.00000000  0.00000000  0.00000000  1
  Zn  Zn1  1  0.50000000  0.50000000  0.50000000  1
  Cd  Cd0  1  0.25000000  0.25000000  0.25000000  1
loop_
_geom_bond_atom_site_label_1
_geom_bond_atom_site_label_2
_geom_bond_distance
_geom_bond_site_symmetry_2
Sm0 Zn1 2.958725 1_565
Sm0 Zn1 2.958725 1_655
Sm0 Zn0 2.958725 1_656
Sm0 Zn0 2.958725 1_566
Sm0 Zn0 2.958725 1_665
Sm0 Zn1 2.958725 1_555
Sm0 Zn1 2.958725 1_556
Sm0 Zn0 2.958725 1_666
Cd0 Zn1 2.958725 1_545
Cd0 Zn0 2.958725 1_565
Cd0 Zn0 2.958725 1_655
Cd0 Zn1 2.958725 1_455
Cd0 Zn0 2.958725 1_555
Cd0 Zn0 2.958725 1_556
Cd0 Zn1 2.958725 1_555
Cd0 Zn1 2.958725 1_554
Cd0 Sm0 3.416442 1_554
Cd0 Sm0 3.416442 1_455
Cd0 Sm0 3.416442 1_544
Cd0 Sm0 3.416442 1_454
Cd0 Sm0 3.416442 1_445
Cd0 Sm0 3.416442 1_545
