# generated using pymatgen
data_YAs3
_symmetry_space_group_name_H-M   'P 1'
_cell_length_a   6.02554385
_cell_length_b   6.02554385
_cell_length_c   5.56636800
_cell_angle_alpha   90.00000000
_cell_angle_beta   90.00000000
_cell_angle_gamma   119.99999833
_symmetry_Int_Tables_number   1
_chemical_formula_structural   YAs3
_chemical_formula_sum   'Y2 As6'
_cell_volume   175.02297277
_cell_formula_units_Z   2
loop_
 _symmetry_equiv_pos_site_id
 _symmetry_equiv_pos_as_xyz
  1  'x, y, z'
loop_
 _atom_site_type_symbol
 _atom_site_label
 _atom_site_symmetry_multiplicity
 _atom_site_fract_x
 _atom_site_fract_y
 _atom_site_fract_z
 _atom_site_occupancy
  Y  Y0  1  0.33333300  0.66666700  0.75000000  1
  Y  Y1  1  0.66666700  0.33333300  0.25000000  1
  As  As0  1  0.18609700  0.37219500  0.25000000  1
  As  As1  1  0.62780500  0.81390300  0.25000000  1
  As  As2  1  0.18609700  0.81390300  0.25000000  1
  As  As3  1  0.81390300  0.62780500  0.75000000  1
  As  As4  1  0.37219500  0.18609700  0.75000000  1
  As  As5  1  0.81390300  0.18609700  0.75000000  1
loop_
_geom_bond_atom_site_label_1
_geom_bond_atom_site_label_2
_geom_bond_distance
_geom_bond_site_symmetry_2
As0 As2 2.661531 1_555
As0 As1 2.661531 1_555
As0 Y1 3.019583 1_455
As0 Y1 3.019595 1_555
As0 Y0 3.179208 1_555
As0 Y0 3.179208 1_554
As1 As2 2.661531 1_555
As1 Y1 3.019583 1_565
As1 Y1 3.019595 1_555
As1 Y0 3.179208 1_554
As1 Y0 3.179208 1_555
As2 Y1 3.019589 1_565
As2 Y1 3.019589 1_455
As2 Y0 3.179208 1_555
As2 Y0 3.179208 1_554
As3 As5 2.661531 1_555
As3 As4 2.661531 1_555
As3 Y0 3.019583 1_655
As3 Y0 3.019595 1_555
As3 Y1 3.179208 1_556
As3 Y1 3.179208 1_555
As4 As5 2.661531 1_555
As4 Y0 3.019583 1_545
As4 Y0 3.019595 1_555
As4 Y1 3.179208 1_556
As4 Y1 3.179208 1_555
As5 Y0 3.019589 1_655
As5 Y0 3.019589 1_545
As5 Y1 3.179208 1_556
As5 Y1 3.179208 1_555
