# generated using pymatgen
data_ZnSb3
_symmetry_space_group_name_H-M   'P 1'
_cell_length_a   5.19139725
_cell_length_b   5.19139725
_cell_length_c   5.19139725
_cell_angle_alpha   60.00000000
_cell_angle_beta   60.00000000
_cell_angle_gamma   60.00000000
_symmetry_Int_Tables_number   1
_chemical_formula_structural   ZnSb3
_chemical_formula_sum   'Zn1 Sb3'
_cell_volume   98.93222820
_cell_formula_units_Z   1
loop_
 _symmetry_equiv_pos_site_id
 _symmetry_equiv_pos_as_xyz
  1  'x, y, z'
loop_
 _atom_site_type_symbol
 _atom_site_label
 _atom_site_symmetry_multiplicity
 _atom_site_fract_x
 _atom_site_fract_y
 _atom_site_fract_z
 _atom_site_occupancy
  Zn  Zn0  1  0.75000000  0.75000000  0.75000000  1
  Sb  Sb0  1  0.25000000  0.25000000  0.25000000  1
  Sb  Sb1  1  -0.00000000  0.00000000  0.00000000  1
  Sb  Sb2  1  0.49999900  0.49999900  0.49999900  1
loop_
_geom_bond_atom_site_label_1
_geom_bond_atom_site_label_2
_geom_bond_distance
_geom_bond_site_symmetry_2
Sb0 Sb2 3.179056 1_555
Sb0 Sb1 3.179069 1_556
Sb0 Sb1 3.179069 1_565
Sb0 Sb1 3.179069 1_655
Sb0 Sb1 3.179069 1_555
Sb0 Sb2 3.179073 1_545
Sb0 Sb2 3.179073 1_455
Sb0 Sb2 3.179073 1_554
Sb1 Zn0 3.179069 1_444
Sb1 Zn0 3.179069 1_445
Sb1 Zn0 3.179069 1_544
Sb1 Zn0 3.179069 1_454
Sb2 Zn0 3.179064 1_545
Sb2 Zn0 3.179064 1_455
Sb2 Zn0 3.179064 1_554
Sb2 Zn0 3.179081 1_555
