# generated using pymatgen
data_PaBi3
_symmetry_space_group_name_H-M   'P 1'
_cell_length_a   6.70116557
_cell_length_b   6.70117131
_cell_length_c   6.07807023
_cell_angle_alpha   90.00000000
_cell_angle_beta   90.00000000
_cell_angle_gamma   119.99992233
_symmetry_Int_Tables_number   1
_chemical_formula_structural   PaBi3
_chemical_formula_sum   'Pa2 Bi6'
_cell_volume   236.37293854
_cell_formula_units_Z   2
loop_
 _symmetry_equiv_pos_site_id
 _symmetry_equiv_pos_as_xyz
  1  'x, y, z'
loop_
 _atom_site_type_symbol
 _atom_site_label
 _atom_site_symmetry_multiplicity
 _atom_site_fract_x
 _atom_site_fract_y
 _atom_site_fract_z
 _atom_site_occupancy
  Pa  Pa0  1  0.33333300  0.66666700  0.74999900  1
  Pa  Pa1  1  0.66666700  0.33333300  0.25000000  1
  Bi  Bi0  1  0.17263070  0.34525940  0.25000000  1
  Bi  Bi1  1  0.65474060  0.82737030  0.25000000  1
  Bi  Bi2  1  0.17262970  0.82737030  0.25000000  1
  Bi  Bi3  1  0.82735955  0.65471910  0.74999900  1
  Bi  Bi4  1  0.34528090  0.17264145  0.74999900  1
  Bi  Bi5  1  0.82735955  0.17264145  0.74999900  1
loop_
_geom_bond_atom_site_label_1
_geom_bond_atom_site_label_2
_geom_bond_distance
_geom_bond_site_symmetry_2
Bi0 Bi1 3.230707 1_555
Bi0 Bi2 3.230711 1_555
Bi0 Pa1 3.351294 1_555
Bi0 Pa1 3.351301 1_455
Bi0 Bi2 3.470460 1_545
Bi0 Bi1 3.470470 1_445
Bi0 Pa0 3.565791 1_555
Bi0 Pa0 3.565802 1_554
Bi0 Bi4 3.640137 1_555
Bi0 Bi4 3.640148 1_554
Bi0 Bi5 3.640148 1_455
Bi0 Bi5 3.640158 1_454
Bi1 Bi2 3.230705 1_555
Bi1 Pa1 3.351297 1_565
Bi1 Pa1 3.351304 1_555
Bi1 Bi2 3.470461 1_655
Bi1 Pa0 3.565790 1_555
Bi1 Pa0 3.565801 1_554
Bi1 Bi3 3.640144 1_555
Bi1 Bi5 3.640149 1_565
Bi1 Bi3 3.640154 1_554
Bi1 Bi5 3.640159 1_564
Bi2 Pa1 3.351303 1_455
Bi2 Pa1 3.351303 1_565
Bi2 Pa0 3.565787 1_555
Bi2 Pa0 3.565797 1_554
Bi2 Bi3 3.640145 1_455
Bi2 Bi4 3.640149 1_565
Bi2 Bi3 3.640155 1_454
Bi2 Bi4 3.640159 1_564
Bi3 Bi5 3.230485 1_555
Bi3 Bi4 3.230491 1_555
Bi3 Pa0 3.351297 1_655
Bi3 Pa0 3.351303 1_555
Bi3 Bi4 3.470686 1_665
Bi3 Bi5 3.470686 1_565
Bi3 Pa1 3.565726 1_555
Bi3 Pa1 3.565736 1_556
Bi4 Bi5 3.230489 1_555
Bi4 Pa0 3.351300 1_555
Bi4 Pa0 3.351307 1_545
Bi4 Bi5 3.470677 1_455
Bi4 Pa1 3.565725 1_555
Bi4 Pa1 3.565736 1_556
Bi5 Pa0 3.351302 1_655
Bi5 Pa0 3.351309 1_545
Bi5 Pa1 3.565718 1_555
Bi5 Pa1 3.565729 1_556
