# generated using pymatgen
data_Li3C
_symmetry_space_group_name_H-M   'P 1'
_cell_length_a   3.73344602
_cell_length_b   3.73344602
_cell_length_c   3.73344602
_cell_angle_alpha   60.00000000
_cell_angle_beta   60.00000000
_cell_angle_gamma   60.00000000
_symmetry_Int_Tables_number   1
_chemical_formula_structural   Li3C
_chemical_formula_sum   'Li3 C1'
_cell_volume   36.79718808
_cell_formula_units_Z   1
loop_
 _symmetry_equiv_pos_site_id
 _symmetry_equiv_pos_as_xyz
  1  'x, y, z'
loop_
 _atom_site_type_symbol
 _atom_site_label
 _atom_site_symmetry_multiplicity
 _atom_site_fract_x
 _atom_site_fract_y
 _atom_site_fract_z
 _atom_site_occupancy
  Li  Li0  1  0.75000000  0.75000000  0.75000000  1
  Li  Li1  1  0.25000000  0.25000000  0.25000000  1
  Li  Li2  1  0.50000000  0.50000000  0.50000000  1
  C  C0  1  0.00000000  0.00000000  0.00000000  1
loop_
_geom_bond_atom_site_label_1
_geom_bond_atom_site_label_2
_geom_bond_distance
_geom_bond_site_symmetry_2
Li0 Li2 2.286259 1_555
Li0 Li2 2.286259 1_565
Li0 Li2 2.286259 1_655
Li0 Li2 2.286259 1_556
Li1 Li2 2.286259 1_555
Li1 Li2 2.286259 1_545
Li1 Li2 2.286259 1_455
Li1 Li2 2.286259 1_554
C0 Li1 2.286259 1_455
C0 Li1 2.286259 1_554
C0 Li1 2.286259 1_555
C0 Li0 2.286259 1_444
C0 Li0 2.286259 1_445
C0 Li1 2.286259 1_545
C0 Li0 2.286259 1_544
C0 Li0 2.286259 1_454
C0 Li2 2.639945 1_545
C0 Li2 2.639945 1_455
C0 Li2 2.639945 1_554
C0 Li2 2.639945 1_454
C0 Li2 2.639945 1_445
C0 Li2 2.639945 1_544
