# generated using pymatgen
data_V5Te4
_symmetry_space_group_name_H-M   'P 1'
_cell_length_a   7.13819421
_cell_length_b   7.13819421
_cell_length_c   7.13819421
_cell_angle_alpha   94.44967689
_cell_angle_beta   94.44967689
_cell_angle_gamma   147.65405423
_symmetry_Int_Tables_number   1
_chemical_formula_structural   V5Te4
_chemical_formula_sum   'V5 Te4'
_cell_volume   186.89890155
_cell_formula_units_Z   1
loop_
 _symmetry_equiv_pos_site_id
 _symmetry_equiv_pos_as_xyz
  1  'x, y, z'
loop_
 _atom_site_type_symbol
 _atom_site_label
 _atom_site_symmetry_multiplicity
 _atom_site_fract_x
 _atom_site_fract_y
 _atom_site_fract_z
 _atom_site_occupancy
  V  V0  1  0.00000000  0.00000000  0.00000000  1
  V  V1  1  0.66029100  0.41048800  0.07077900  1
  V  V2  1  0.41048800  0.33970900  0.75019700  1
  V  V3  1  0.58951200  0.66029100  0.24980300  1
  V  V4  1  0.33970900  0.58951200  0.92922100  1
  Te  Te0  1  0.92609600  0.27601200  0.20210900  1
  Te  Te1  1  0.27601200  0.07390400  0.34991600  1
  Te  Te2  1  0.72398800  0.92609600  0.65008400  1
  Te  Te3  1  0.07390400  0.72398800  0.79789100  1
loop_
_geom_bond_atom_site_label_1
_geom_bond_atom_site_label_2
_geom_bond_distance
_geom_bond_site_symmetry_2
V0 V1 2.668622 1_555
V0 V3 2.668622 1_445
V0 V2 2.668622 1_554
V0 V4 2.668622 1_444
V0 V2 2.668622 1_444
V0 V3 2.668622 1_555
V0 V4 2.668622 1_554
V0 V1 2.668622 1_445
V1 V2 2.517288 1_554
V1 V3 2.517288 1_555
V2 V4 2.517288 1_555
V3 V4 2.517288 1_554
Te0 V0 2.770325 1_655
Te0 V3 2.778894 1_545
Te0 V3 2.778897 1_655
Te0 V4 2.815008 1_544
Te0 V4 2.815011 1_654
Te0 V1 2.888134 1_555
Te1 V0 2.770321 1_555
Te1 V1 2.778896 1_445
Te1 V1 2.778896 1_555
Te1 V3 2.815005 1_445
Te1 V3 2.815005 1_555
Te1 V2 2.888132 1_555
Te2 V0 2.770321 1_666
Te2 V4 2.778896 1_555
Te2 V4 2.778896 1_665
Te2 V2 2.815005 1_665
Te2 V2 2.815005 1_555
Te2 V3 2.888132 1_555
Te3 V0 2.770325 1_566
Te3 V2 2.778894 1_565
Te3 V2 2.778897 1_455
Te3 V1 2.815008 1_566
Te3 V1 2.815011 1_456
Te3 V4 2.888134 1_555
