# generated using pymatgen
data_SiHg3
_symmetry_space_group_name_H-M   'P 1'
_cell_length_a   6.99804993
_cell_length_b   6.99804993
_cell_length_c   4.50899800
_cell_angle_alpha   90.00000000
_cell_angle_beta   90.00000000
_cell_angle_gamma   119.99999937
_symmetry_Int_Tables_number   1
_chemical_formula_structural   SiHg3
_chemical_formula_sum   'Si2 Hg6'
_cell_volume   191.23384233
_cell_formula_units_Z   2
loop_
 _symmetry_equiv_pos_site_id
 _symmetry_equiv_pos_as_xyz
  1  'x, y, z'
loop_
 _atom_site_type_symbol
 _atom_site_label
 _atom_site_symmetry_multiplicity
 _atom_site_fract_x
 _atom_site_fract_y
 _atom_site_fract_z
 _atom_site_occupancy
  Si  Si0  1  0.33333300  0.66666700  0.75000000  1
  Si  Si1  1  0.66666700  0.33333300  0.25000000  1
  Hg  Hg0  1  0.17625700  0.35251300  0.25000000  1
  Hg  Hg1  1  0.64748700  0.82374300  0.25000000  1
  Hg  Hg2  1  0.17625700  0.82374300  0.25000000  1
  Hg  Hg3  1  0.82374300  0.64748700  0.75000000  1
  Hg  Hg4  1  0.35251300  0.17625700  0.75000000  1
  Hg  Hg5  1  0.82374300  0.17625700  0.75000000  1
loop_
_geom_bond_atom_site_label_1
_geom_bond_atom_site_label_2
_geom_bond_distance
_geom_bond_site_symmetry_2
Hg0 Si0 2.950882 1_554
Hg0 Si0 2.950882 1_555
Hg0 Hg4 3.105954 1_555
Hg0 Hg4 3.105954 1_554
Hg0 Hg5 3.105962 1_454
Hg0 Hg5 3.105962 1_455
Hg0 Hg2 3.297691 1_555
Hg0 Hg1 3.297691 1_555
Hg1 Si0 2.950882 1_554
Hg1 Si0 2.950882 1_555
Hg1 Hg3 3.105954 1_555
Hg1 Hg3 3.105954 1_554
Hg1 Hg5 3.105962 1_564
Hg1 Hg5 3.105962 1_565
Hg1 Hg2 3.297691 1_555
Hg2 Si0 2.950874 1_555
Hg2 Si0 2.950874 1_554
Hg2 Hg3 3.105962 1_454
Hg2 Hg3 3.105962 1_455
Hg2 Hg4 3.105962 1_564
Hg2 Hg4 3.105962 1_565
Hg3 Si1 2.950882 1_556
Hg3 Si1 2.950882 1_555
Hg3 Hg5 3.297691 1_555
Hg3 Hg4 3.297691 1_555
Hg4 Si1 2.950882 1_556
Hg4 Si1 2.950882 1_555
Hg4 Hg5 3.297691 1_555
Hg5 Si1 2.950874 1_556
Hg5 Si1 2.950874 1_555
