# generated using pymatgen
data_NdDyTl2
_symmetry_space_group_name_H-M   'P 1'
_cell_length_a   5.41619245
_cell_length_b   5.41619245
_cell_length_c   5.41619245
_cell_angle_alpha   60.00000000
_cell_angle_beta   60.00000000
_cell_angle_gamma   60.00000000
_symmetry_Int_Tables_number   1
_chemical_formula_structural   NdDyTl2
_chemical_formula_sum   'Nd1 Dy1 Tl2'
_cell_volume   112.34849645
_cell_formula_units_Z   1
loop_
 _symmetry_equiv_pos_site_id
 _symmetry_equiv_pos_as_xyz
  1  'x, y, z'
loop_
 _atom_site_type_symbol
 _atom_site_label
 _atom_site_symmetry_multiplicity
 _atom_site_fract_x
 _atom_site_fract_y
 _atom_site_fract_z
 _atom_site_occupancy
  Nd  Nd0  1  0.74999900  0.74999900  0.74999900  1
  Dy  Dy0  1  0.25000100  0.25000100  0.25000100  1
  Tl  Tl0  1  -0.00000000  -0.00000000  0.00000000  1
  Tl  Tl1  1  0.50000000  0.50000000  0.50000000  1
loop_
_geom_bond_atom_site_label_1
_geom_bond_atom_site_label_2
_geom_bond_distance
_geom_bond_site_symmetry_2
Nd0 Tl1 3.316714 1_555
Nd0 Tl0 3.316723 1_665
Nd0 Tl0 3.316723 1_656
Nd0 Tl0 3.316723 1_566
Nd0 Tl1 3.316731 1_655
Nd0 Tl1 3.316731 1_565
Nd0 Tl1 3.316731 1_556
Nd0 Tl0 3.316740 1_666
Dy0 Tl1 3.316714 1_555
Dy0 Tl0 3.316723 1_556
Dy0 Tl0 3.316723 1_565
Dy0 Tl0 3.316723 1_655
Dy0 Tl1 3.316731 1_455
Dy0 Tl1 3.316731 1_545
Dy0 Tl1 3.316731 1_554
Dy0 Tl0 3.316740 1_555
