# generated using pymatgen
data_Zn3Os
_symmetry_space_group_name_H-M   'P 1'
_cell_length_a   4.90669379
_cell_length_b   4.90669379
_cell_length_c   4.90669379
_cell_angle_alpha   135.80950896
_cell_angle_beta   135.80950896
_cell_angle_gamma   64.27497519
_symmetry_Int_Tables_number   1
_chemical_formula_structural   Zn3Os
_chemical_formula_sum   'Zn3 Os1'
_cell_volume   56.61225815
_cell_formula_units_Z   1
loop_
 _symmetry_equiv_pos_site_id
 _symmetry_equiv_pos_as_xyz
  1  'x, y, z'
loop_
 _atom_site_type_symbol
 _atom_site_label
 _atom_site_symmetry_multiplicity
 _atom_site_fract_x
 _atom_site_fract_y
 _atom_site_fract_z
 _atom_site_occupancy
  Zn  Zn0  1  0.75000000  0.25000000  0.50000000  1
  Zn  Zn1  1  0.25000000  0.75000000  0.50000000  1
  Zn  Zn2  1  0.50000000  0.50000000  0.00000000  1
  Os  Os0  1  0.00000000  0.00000000  0.00000000  1
loop_
_geom_bond_atom_site_label_1
_geom_bond_atom_site_label_2
_geom_bond_distance
_geom_bond_site_symmetry_2
Zn0 Zn1 2.610129 1_555
Zn0 Zn1 2.610129 1_645
Zn0 Zn1 2.610129 1_544
Zn0 Zn1 2.610129 1_656
Zn0 Zn2 2.778867 1_656
Zn0 Zn2 2.778867 1_555
Zn0 Zn2 2.778867 1_545
Zn0 Zn2 2.778867 1_556
Zn1 Zn2 2.778867 1_555
Zn1 Zn2 2.778867 1_455
Zn1 Zn2 2.778867 1_566
Zn1 Zn2 2.778867 1_556
Os0 Zn2 2.610129 1_444
Os0 Zn2 2.610129 1_455
Os0 Zn2 2.610129 1_556
Os0 Zn2 2.610129 1_545
Os0 Zn1 2.778867 1_544
Os0 Zn1 2.778867 1_555
Os0 Zn1 2.778867 1_444
Os0 Zn0 2.778867 1_455
Os0 Zn1 2.778867 1_545
Os0 Zn0 2.778867 1_444
Os0 Zn0 2.778867 1_454
Os0 Zn0 2.778867 1_555
