# generated using pymatgen
data_Be3Fe
_symmetry_space_group_name_H-M   'P 1'
_cell_length_a   3.23900485
_cell_length_b   3.23900179
_cell_length_c   3.23899668
_cell_angle_alpha   90.00003609
_cell_angle_beta   90.00000000
_cell_angle_gamma   90.00003609
_symmetry_Int_Tables_number   1
_chemical_formula_structural   Be3Fe
_chemical_formula_sum   'Be3 Fe1'
_cell_volume   33.98077575
_cell_formula_units_Z   1
loop_
 _symmetry_equiv_pos_site_id
 _symmetry_equiv_pos_as_xyz
  1  'x, y, z'
loop_
 _atom_site_type_symbol
 _atom_site_label
 _atom_site_symmetry_multiplicity
 _atom_site_fract_x
 _atom_site_fract_y
 _atom_site_fract_z
 _atom_site_occupancy
  Be  Be0  1  -0.00000000  0.50000000  0.49999900  1
  Be  Be1  1  0.50000000  0.99999900  0.49999800  1
  Be  Be2  1  0.49999800  0.49999900  0.00000000  1
  Fe  Fe0  1  0.00000000  0.99999900  -0.00000000  1
loop_
_geom_bond_atom_site_label_1
_geom_bond_atom_site_label_2
_geom_bond_distance
_geom_bond_site_symmetry_2
Be0 Be2 2.290313 1_555
Be0 Fe0 2.290314 1_555
Be0 Be2 2.290317 1_556
Be0 Fe0 2.290318 1_556
Be0 Fe0 2.290318 1_545
Be0 Be1 2.290318 1_555
Be0 Be1 2.290320 1_455
Be0 Be2 2.290322 1_455
Be0 Be1 2.290323 1_445
Be0 Fe0 2.290324 1_546
Be0 Be1 2.290324 1_545
Be0 Be2 2.290326 1_456
Be1 Be2 2.290313 1_555
Be1 Be2 2.290314 1_565
Be1 Fe0 2.290315 1_655
Be1 Fe0 2.290315 1_555
Be1 Be2 2.290322 1_566
Be1 Be2 2.290324 1_556
Be1 Fe0 2.290324 1_556
Be1 Fe0 2.290324 1_656
Be2 Fe0 2.290316 1_545
Be2 Fe0 2.290317 1_555
Be2 Fe0 2.290325 1_655
Be2 Fe0 2.290327 1_645
