# generated using pymatgen
data_Sm2TlZn
_symmetry_space_group_name_H-M   'P 1'
_cell_length_a   5.30550782
_cell_length_b   5.30550782
_cell_length_c   5.30550782
_cell_angle_alpha   60.00000000
_cell_angle_beta   60.00000000
_cell_angle_gamma   60.00000000
_symmetry_Int_Tables_number   1
_chemical_formula_structural   Sm2TlZn
_chemical_formula_sum   'Sm2 Tl1 Zn1'
_cell_volume   105.60047705
_cell_formula_units_Z   1
loop_
 _symmetry_equiv_pos_site_id
 _symmetry_equiv_pos_as_xyz
  1  'x, y, z'
loop_
 _atom_site_type_symbol
 _atom_site_label
 _atom_site_symmetry_multiplicity
 _atom_site_fract_x
 _atom_site_fract_y
 _atom_site_fract_z
 _atom_site_occupancy
  Sm  Sm0  1  -0.00000000  0.00000000  0.00000000  1
  Sm  Sm1  1  0.50000000  0.50000000  0.50000000  1
  Tl  Tl0  1  0.25000100  0.25000100  0.25000100  1
  Zn  Zn0  1  0.75000100  0.75000100  0.75000100  1
loop_
_geom_bond_atom_site_label_1
_geom_bond_atom_site_label_2
_geom_bond_distance
_geom_bond_site_symmetry_2
Sm0 Zn0 3.248934 1_444
Sm0 Tl0 3.248942 1_455
Sm0 Tl0 3.248942 1_545
Sm0 Tl0 3.248942 1_554
Sm0 Zn0 3.248951 1_445
Sm0 Zn0 3.248951 1_454
Sm0 Zn0 3.248951 1_544
Sm0 Tl0 3.248960 1_555
Sm1 Tl0 3.248934 1_555
Sm1 Zn0 3.248942 1_554
Sm1 Zn0 3.248942 1_455
Sm1 Zn0 3.248942 1_545
Sm1 Tl0 3.248951 1_565
Sm1 Tl0 3.248951 1_655
Sm1 Tl0 3.248951 1_556
Sm1 Zn0 3.248960 1_555
