# generated using pymatgen
data_CeRh2
_symmetry_space_group_name_H-M   'P 1'
_cell_length_a   5.35205345
_cell_length_b   5.35201259
_cell_length_c   5.35210898
_cell_angle_alpha   59.99958112
_cell_angle_beta   59.99988338
_cell_angle_gamma   59.99918052
_symmetry_Int_Tables_number   1
_chemical_formula_structural   CeRh2
_chemical_formula_sum   'Ce2 Rh4'
_cell_volume   108.40344171
_cell_formula_units_Z   2
loop_
 _symmetry_equiv_pos_site_id
 _symmetry_equiv_pos_as_xyz
  1  'x, y, z'
loop_
 _atom_site_type_symbol
 _atom_site_label
 _atom_site_symmetry_multiplicity
 _atom_site_fract_x
 _atom_site_fract_y
 _atom_site_fract_z
 _atom_site_occupancy
  Ce  Ce0  1  0.12499277  0.12498871  0.12501320  1
  Ce  Ce1  1  0.87500723  0.87501129  0.87498680  1
  Rh  Rh0  1  0.50000000  -0.00000000  0.50000000  1
  Rh  Rh1  1  0.00000000  0.50000000  0.50000000  1
  Rh  Rh2  1  0.50000000  0.50000000  0.50000000  1
  Rh  Rh3  1  0.50000000  0.50000000  -0.00000000  1
loop_
_geom_bond_atom_site_label_1
_geom_bond_atom_site_label_2
_geom_bond_distance
_geom_bond_site_symmetry_2
Ce0 Rh1 3.137824 1_545
Ce0 Rh2 3.137840 1_545
Ce0 Rh3 3.137857 1_545
Ce0 Rh0 3.137861 1_455
Ce0 Rh2 3.137879 1_455
Ce0 Rh3 3.137892 1_455
Ce0 Rh0 3.137932 1_555
Ce0 Rh1 3.137934 1_555
Ce0 Rh3 3.137970 1_555
Ce0 Rh1 3.137975 1_554
Ce0 Rh0 3.137977 1_554
Ce0 Rh2 3.137999 1_554
Ce1 Rh1 3.137824 1_665
Ce1 Rh2 3.137840 1_565
Ce1 Rh3 3.137857 1_566
Ce1 Rh0 3.137861 1_665
Ce1 Rh2 3.137879 1_655
Ce1 Rh3 3.137892 1_656
Ce1 Rh0 3.137932 1_565
Ce1 Rh1 3.137934 1_655
Ce1 Rh3 3.137970 1_556
Ce1 Rh1 3.137975 1_656
Ce1 Rh0 3.137977 1_566
Ce1 Rh2 3.137999 1_556
Rh0 Rh1 2.675983 1_555
Rh0 Rh1 2.675983 1_645
Rh0 Rh2 2.676006 1_555
Rh0 Rh2 2.676006 1_545
Rh0 Rh3 2.676013 1_546
Rh0 Rh3 2.676013 1_555
Rh1 Rh2 2.676027 1_555
Rh1 Rh2 2.676027 1_455
Rh1 Rh3 2.676036 1_456
Rh1 Rh3 2.676036 1_555
Rh2 Rh3 2.676054 1_556
Rh2 Rh3 2.676054 1_555
