# generated using pymatgen
data_Tm2ZnRh
_symmetry_space_group_name_H-M   'P 1'
_cell_length_a   4.82995153
_cell_length_b   4.82995153
_cell_length_c   4.82995153
_cell_angle_alpha   60.00000000
_cell_angle_beta   60.00000000
_cell_angle_gamma   60.00000000
_symmetry_Int_Tables_number   1
_chemical_formula_structural   Tm2ZnRh
_chemical_formula_sum   'Tm2 Zn1 Rh1'
_cell_volume   79.67339432
_cell_formula_units_Z   1
loop_
 _symmetry_equiv_pos_site_id
 _symmetry_equiv_pos_as_xyz
  1  'x, y, z'
loop_
 _atom_site_type_symbol
 _atom_site_label
 _atom_site_symmetry_multiplicity
 _atom_site_fract_x
 _atom_site_fract_y
 _atom_site_fract_z
 _atom_site_occupancy
  Tm  Tm0  1  0.00000000  -0.00000000  0.00000000  1
  Tm  Tm1  1  0.50000100  0.50000100  0.50000100  1
  Zn  Zn0  1  0.75000000  0.75000000  0.75000000  1
  Rh  Rh0  1  0.24999900  0.24999900  0.24999900  1
loop_
_geom_bond_atom_site_label_1
_geom_bond_atom_site_label_2
_geom_bond_distance
_geom_bond_site_symmetry_2
Tm0 Zn0 2.957729 1_454
Tm0 Zn0 2.957729 1_544
Tm0 Zn0 2.957729 1_444
Tm0 Zn0 2.957729 1_445
Tm1 Zn0 2.957717 1_555
Tm1 Zn0 2.957733 1_545
Tm1 Zn0 2.957733 1_554
Tm1 Zn0 2.957733 1_455
Rh0 Tm0 2.957717 1_555
Rh0 Tm1 2.957721 1_545
Rh0 Tm1 2.957721 1_455
Rh0 Tm1 2.957721 1_554
Rh0 Tm0 2.957733 1_655
Rh0 Tm0 2.957733 1_556
Rh0 Tm0 2.957733 1_565
Rh0 Tm1 2.957753 1_555
