# generated using pymatgen
data_Tm6GaCo2
_symmetry_space_group_name_H-M   'P 1'
_cell_length_a   8.09430126
_cell_length_b   8.09429778
_cell_length_c   8.09429997
_cell_angle_alpha   111.91392288
_cell_angle_beta   109.30201990
_cell_angle_gamma   107.23161668
_symmetry_Int_Tables_number   1
_chemical_formula_structural   Tm6GaCo2
_chemical_formula_sum   'Tm12 Ga2 Co4'
_cell_volume   407.55512779
_cell_formula_units_Z   2
loop_
 _symmetry_equiv_pos_site_id
 _symmetry_equiv_pos_as_xyz
  1  'x, y, z'
loop_
 _atom_site_type_symbol
 _atom_site_label
 _atom_site_symmetry_multiplicity
 _atom_site_fract_x
 _atom_site_fract_y
 _atom_site_fract_z
 _atom_site_occupancy
  Tm  Tm0  1  0.56403393  0.26200105  0.30203343  1
  Tm  Tm1  1  0.18087858  0.21903458  0.39991369  1
  Tm  Tm2  1  0.18087774  0.78096482  0.96184372  1
  Tm  Tm3  1  0.67305046  0.48487912  0.81182899  1
  Tm  Tm4  1  0.67304971  0.86122152  0.18817144  1
  Tm  Tm5  1  0.95996746  0.26200012  0.69796719  1
  Tm  Tm6  1  0.04002841  0.73799560  0.30203342  1
  Tm  Tm7  1  0.32695242  0.13877783  0.81182587  1
  Tm  Tm8  1  0.32695235  0.51512619  0.18817428  1
  Tm  Tm9  1  0.81912126  0.21903483  0.03815710  1
  Tm  Tm10  1  0.81912064  0.78096473  0.60008659  1
  Tm  Tm11  1  0.43596235  0.73799601  0.69796623  1
  Ga  Ga0  1  0.99999869  0.49999866  0.50000053  1
  Ga  Ga1  1  0.49999926  0.99999888  0.49999972  1
  Co  Co0  1  0.88529738  0.88529615  0.00000213  1
  Co  Co1  1  0.33873691  0.49999723  0.83873740  1
  Co  Co2  1  0.66125862  0.49999764  0.16125909  1
  Co  Co3  1  0.11471283  0.11471505  0.99999918  1
loop_
_geom_bond_atom_site_label_1
_geom_bond_atom_site_label_2
_geom_bond_distance
_geom_bond_site_symmetry_2
Ga0 Tm6 2.943017 1_655
Ga0 Tm11 2.943025 1_655
Ga0 Tm5 2.943026 1_555
Ga0 Tm0 2.943031 1_555
Ga0 Tm1 3.058356 1_655
Ga0 Tm10 3.058356 1_555
Ga0 Tm2 3.058361 1_655
Ga0 Tm9 3.058361 1_555
Ga1 Tm0 3.125407 1_565
Ga1 Tm5 3.125413 1_565
Ga1 Tm11 3.125415 1_555
Ga1 Tm6 3.125434 1_555
Ga1 Tm7 3.278343 1_565
Ga1 Tm8 3.278349 1_555
Ga1 Tm4 3.278378 1_555
Ga1 Tm3 3.278396 1_565
Ga1 Tm10 3.588001 1_555
Ga1 Tm1 3.588005 1_565
Ga1 Tm2 3.588015 1_554
Ga1 Tm9 3.588022 1_566
Co0 Co3 2.203113 1_664
Co0 Tm4 2.657514 1_555
Co0 Tm3 2.657521 1_554
Co0 Tm2 2.832594 1_654
Co0 Tm1 2.832605 1_665
Co0 Tm9 2.832611 1_565
Co0 Tm10 2.832618 1_554
Co0 Tm6 3.162772 1_655
Co0 Tm11 3.162810 1_554
Co1 Tm11 2.638532 1_555
Co1 Tm5 2.638539 1_455
Co1 Tm7 2.819732 1_555
Co1 Tm8 2.819743 1_556
Co1 Tm3 2.819747 1_555
Co1 Tm4 2.819769 1_556
Co1 Tm1 2.944406 1_555
Co1 Tm2 2.944421 1_555
Co2 Tm6 2.638535 1_655
Co2 Tm0 2.638537 1_555
Co2 Tm8 2.819734 1_555
Co2 Tm7 2.819736 1_554
Co2 Tm3 2.819738 1_554
Co2 Tm4 2.819750 1_555
Co2 Tm9 2.944406 1_555
Co2 Tm10 2.944431 1_555
Co3 Tm8 2.657475 1_556
Co3 Tm7 2.657478 1_555
Co3 Tm9 2.832633 1_456
Co3 Tm10 2.832652 1_445
Co3 Tm1 2.832653 1_556
Co3 Tm2 2.832655 1_545
Co3 Tm5 3.162708 1_455
Co3 Tm0 3.162747 1_556
