# generated using pymatgen
data_Th3Mg
_symmetry_space_group_name_H-M   'P 1'
_cell_length_a   4.96419300
_cell_length_b   4.96419300
_cell_length_c   4.96419300
_cell_angle_alpha   90.00000000
_cell_angle_beta   90.00000000
_cell_angle_gamma   90.00000000
_symmetry_Int_Tables_number   1
_chemical_formula_structural   Th3Mg
_chemical_formula_sum   'Th3 Mg1'
_cell_volume   122.33366121
_cell_formula_units_Z   1
loop_
 _symmetry_equiv_pos_site_id
 _symmetry_equiv_pos_as_xyz
  1  'x, y, z'
loop_
 _atom_site_type_symbol
 _atom_site_label
 _atom_site_symmetry_multiplicity
 _atom_site_fract_x
 _atom_site_fract_y
 _atom_site_fract_z
 _atom_site_occupancy
  Th  Th0  1  0.50000000  0.50000000  0.00000000  1
  Th  Th1  1  0.50000000  0.00000000  0.50000000  1
  Th  Th2  1  0.00000000  0.50000000  0.50000000  1
  Mg  Mg0  1  0.00000000  0.00000000  0.00000000  1
loop_
_geom_bond_atom_site_label_1
_geom_bond_atom_site_label_2
_geom_bond_distance
_geom_bond_site_symmetry_2
Th0 Th2 3.510215 1_554
Th0 Th1 3.510215 1_554
Th0 Th2 3.510215 1_654
Th0 Th1 3.510215 1_565
Th0 Th2 3.510215 1_655
Th0 Th1 3.510215 1_555
Th0 Th1 3.510215 1_564
Th0 Th2 3.510215 1_555
Th1 Th2 3.510215 1_645
Th1 Th2 3.510215 1_655
Th1 Th2 3.510215 1_555
Th1 Th2 3.510215 1_545
Mg0 Th2 3.510215 1_544
Mg0 Th1 3.510215 1_455
Mg0 Th2 3.510215 1_554
Mg0 Th0 3.510215 1_445
Mg0 Th1 3.510215 1_454
Mg0 Th1 3.510215 1_554
Mg0 Th0 3.510215 1_555
Mg0 Th0 3.510215 1_545
Mg0 Th1 3.510215 1_555
Mg0 Th0 3.510215 1_455
Mg0 Th2 3.510215 1_555
Mg0 Th2 3.510215 1_545
