# generated using pymatgen
data_Yb2Cr2C3
_symmetry_space_group_name_H-M   'P 1'
_cell_length_a   5.39741959
_cell_length_b   5.39741959
_cell_length_c   5.54121561
_cell_angle_alpha   75.31400248
_cell_angle_beta   75.31400248
_cell_angle_gamma   38.42584818
_symmetry_Int_Tables_number   1
_chemical_formula_structural   Yb2Cr2C3
_chemical_formula_sum   'Yb2 Cr2 C3'
_cell_volume   96.64401643
_cell_formula_units_Z   1
loop_
 _symmetry_equiv_pos_site_id
 _symmetry_equiv_pos_as_xyz
  1  'x, y, z'
loop_
 _atom_site_type_symbol
 _atom_site_label
 _atom_site_symmetry_multiplicity
 _atom_site_fract_x
 _atom_site_fract_y
 _atom_site_fract_z
 _atom_site_occupancy
  Yb  Yb0  1  0.59921400  0.59921400  0.18497900  1
  Yb  Yb1  1  0.40078600  0.40078600  0.81502100  1
  Cr  Cr0  1  0.84175100  0.84175100  0.40255800  1
  Cr  Cr1  1  0.15824900  0.15824900  0.59744200  1
  C  C0  1  0.00000000  0.00000000  0.50000000  1
  C  C1  1  0.31088800  0.31088800  0.29329900  1
  C  C2  1  0.68911200  0.68911200  0.70670100  1
loop_
_geom_bond_atom_site_label_1
_geom_bond_atom_site_label_2
_geom_bond_distance
_geom_bond_site_symmetry_2
C0 Cr0 1.833412 1_445
C0 Cr1 1.833412 1_555
C0 Yb0 2.505359 1_455
C0 Yb0 2.505359 1_545
C0 Yb1 2.505359 1_455
C0 Yb1 2.505359 1_545
C1 Cr0 1.929407 1_545
C1 Cr0 1.929407 1_455
C1 Cr1 1.962966 1_555
C1 Yb1 2.561149 1_554
C2 Cr1 1.929407 1_565
C2 Cr1 1.929407 1_655
C2 Cr0 1.962966 1_555
C2 Yb0 2.561149 1_556
