# generated using pymatgen
data_BeIn3
_symmetry_space_group_name_H-M   'P 1'
_cell_length_a   5.65893994
_cell_length_b   5.65893994
_cell_length_c   5.65893994
_cell_angle_alpha   134.09378474
_cell_angle_beta   134.09378474
_cell_angle_gamma   66.94156174
_symmetry_Int_Tables_number   1
_chemical_formula_structural   BeIn3
_chemical_formula_sum   'Be1 In3'
_cell_volume   91.95974183
_cell_formula_units_Z   1
loop_
 _symmetry_equiv_pos_site_id
 _symmetry_equiv_pos_as_xyz
  1  'x, y, z'
loop_
 _atom_site_type_symbol
 _atom_site_label
 _atom_site_symmetry_multiplicity
 _atom_site_fract_x
 _atom_site_fract_y
 _atom_site_fract_z
 _atom_site_occupancy
  Be  Be0  1  0.00000000  0.00000000  0.00000000  1
  In  In0  1  0.75000000  0.25000000  0.50000000  1
  In  In1  1  0.25000000  0.75000000  0.50000000  1
  In  In2  1  0.50000000  0.50000000  0.00000000  1
loop_
_geom_bond_atom_site_label_1
_geom_bond_atom_site_label_2
_geom_bond_distance
_geom_bond_site_symmetry_2
Be0 In2 3.120971 1_444
Be0 In2 3.120971 1_455
Be0 In2 3.120971 1_545
Be0 In2 3.120971 1_556
In0 In1 3.120971 1_645
In0 In1 3.120971 1_544
In0 In1 3.120971 1_555
In0 In1 3.120971 1_656
In0 In2 3.231256 1_545
In0 In2 3.231256 1_656
In0 In2 3.231256 1_555
In0 In2 3.231256 1_556
In1 In2 3.231256 1_455
In1 In2 3.231256 1_555
In1 In2 3.231256 1_556
In1 In2 3.231256 1_566
