# generated using pymatgen
data_LiZn3
_symmetry_space_group_name_H-M   'P 1'
_cell_length_a   5.41706095
_cell_length_b   5.41706050
_cell_length_c   4.33682962
_cell_angle_alpha   90.00000000
_cell_angle_beta   90.00000000
_cell_angle_gamma   119.99999035
_symmetry_Int_Tables_number   1
_chemical_formula_structural   LiZn3
_chemical_formula_sum   'Li2 Zn6'
_cell_volume   110.21239566
_cell_formula_units_Z   2
loop_
 _symmetry_equiv_pos_site_id
 _symmetry_equiv_pos_as_xyz
  1  'x, y, z'
loop_
 _atom_site_type_symbol
 _atom_site_label
 _atom_site_symmetry_multiplicity
 _atom_site_fract_x
 _atom_site_fract_y
 _atom_site_fract_z
 _atom_site_occupancy
  Li  Li0  1  0.66666700  0.33333300  0.25000100  1
  Li  Li1  1  0.33333400  0.66666800  0.75000200  1
  Zn  Zn0  1  0.66507462  0.83253781  0.25000100  1
  Zn  Zn1  1  0.16746219  0.33492338  0.25000100  1
  Zn  Zn2  1  0.83253581  0.16746319  0.75000200  1
  Zn  Zn3  1  0.33492538  0.16746319  0.75000200  1
  Zn  Zn4  1  0.83253681  0.66507562  0.75000200  1
  Zn  Zn5  1  0.16746319  0.83253781  0.25000100  1
loop_
_geom_bond_atom_site_label_1
_geom_bond_atom_site_label_2
_geom_bond_distance
_geom_bond_site_symmetry_2
Li0 Zn2 2.669090 1_554
Li0 Zn2 2.669097 1_555
Li0 Zn3 2.669098 1_554
Li0 Zn4 2.669101 1_554
Li0 Zn3 2.669105 1_555
Li0 Zn4 2.669108 1_555
Li0 Zn0 2.708535 1_545
Li0 Zn5 2.708538 1_545
Li0 Zn1 2.708541 1_555
Li0 Zn1 2.708541 1_655
Li0 Zn5 2.708544 1_655
Li0 Zn0 2.708546 1_555
Li1 Zn5 2.669095 1_556
Li1 Zn0 2.669095 1_556
Li1 Zn5 2.669102 1_555
Li1 Zn0 2.669103 1_555
Li1 Zn1 2.669106 1_556
Li1 Zn1 2.669113 1_555
Li1 Zn2 2.708533 1_565
Li1 Zn4 2.708535 1_555
Li1 Zn3 2.708538 1_565
Li1 Zn3 2.708543 1_555
Li1 Zn4 2.708546 1_455
Li1 Zn2 2.708549 1_455
Zn0 Zn4 2.677832 1_554
Zn0 Zn2 2.677835 1_564
Zn0 Zn4 2.677839 1_555
Zn0 Zn2 2.677842 1_565
Zn0 Zn5 2.695591 1_555
Zn0 Zn1 2.695603 1_555
Zn0 Zn1 2.721459 1_665
Zn0 Zn5 2.721470 1_655
Zn1 Zn3 2.677829 1_554
Zn1 Zn3 2.677836 1_555
Zn1 Zn2 2.677837 1_454
Zn1 Zn2 2.677844 1_455
Zn1 Zn5 2.695605 1_555
Zn1 Zn5 2.721456 1_545
Zn2 Zn3 2.695586 1_555
Zn2 Zn4 2.695594 1_555
Zn2 Zn4 2.721467 1_545
Zn2 Zn3 2.721475 1_655
Zn3 Zn5 2.677835 1_546
Zn3 Zn5 2.677842 1_545
Zn3 Zn4 2.695594 1_555
Zn3 Zn4 2.721467 1_445
Zn4 Zn5 2.677837 1_656
Zn4 Zn5 2.677844 1_655
