# generated using pymatgen
data_RbInBr3
_symmetry_space_group_name_H-M   'P 1'
_cell_length_a   8.08291859
_cell_length_b   8.08291859
_cell_length_c   8.08291917
_cell_angle_alpha   60.07849157
_cell_angle_beta   60.07849157
_cell_angle_gamma   60.07848940
_symmetry_Int_Tables_number   1
_chemical_formula_structural   RbInBr3
_chemical_formula_sum   'Rb2 In2 Br6'
_cell_volume   374.07737427
_cell_formula_units_Z   2
loop_
 _symmetry_equiv_pos_site_id
 _symmetry_equiv_pos_as_xyz
  1  'x, y, z'
loop_
 _atom_site_type_symbol
 _atom_site_label
 _atom_site_symmetry_multiplicity
 _atom_site_fract_x
 _atom_site_fract_y
 _atom_site_fract_z
 _atom_site_occupancy
  Rb  Rb0  1  0.73047400  0.73047400  0.73047400  1
  Rb  Rb1  1  0.23047400  0.23047400  0.23047300  1
  In  In0  1  0.99579900  0.99579900  0.99579900  1
  In  In1  1  0.49579900  0.49579900  0.49579900  1
  Br  Br0  1  0.75092400  0.18454500  0.30975900  1
  Br  Br1  1  0.18454500  0.30975900  0.75092400  1
  Br  Br2  1  0.30975900  0.75092400  0.18454500  1
  Br  Br3  1  0.80975900  0.68454500  0.25092400  1
  Br  Br4  1  0.25092400  0.80975900  0.68454500  1
  Br  Br5  1  0.68454500  0.25092400  0.80975900  1
loop_
_geom_bond_atom_site_label_1
_geom_bond_atom_site_label_2
_geom_bond_distance
_geom_bond_site_symmetry_2
Br0 In1 2.889301 1_555
Br0 In0 2.919599 1_544
Br0 Rb0 3.557396 1_545
Br0 Rb1 3.780635 1_655
Br1 In1 2.889301 1_555
Br1 In0 2.919599 1_445
Br1 Rb0 3.557396 1_455
Br1 Rb1 3.780630 1_556
Br2 In1 2.889301 1_555
Br2 In0 2.919599 1_454
Br2 Rb0 3.557396 1_554
Br2 Rb1 3.780634 1_565
Br3 In0 2.889301 1_554
Br3 In1 2.919599 1_555
Br3 Rb1 3.557397 1_655
Br3 Rb0 3.780638 1_555
Br4 In0 2.889301 1_455
Br4 In1 2.919599 1_555
Br4 Rb1 3.557401 1_565
Br4 Rb0 3.780638 1_555
Br5 In0 2.889301 1_545
Br5 In1 2.919599 1_555
Br5 Rb1 3.557393 1_556
Br5 Rb0 3.780638 1_555
