# generated using pymatgen
data_Rb
_symmetry_space_group_name_H-M   'P 1'
_cell_length_a   10.23677010
_cell_length_b   10.23677010
_cell_length_c   16.89600560
_cell_angle_alpha   90.00000000
_cell_angle_beta   90.00000000
_cell_angle_gamma   120.54256656
_symmetry_Int_Tables_number   1
_chemical_formula_structural   Rb
_chemical_formula_sum   Rb16
_cell_volume   1524.89562073
_cell_formula_units_Z   16
loop_
 _symmetry_equiv_pos_site_id
 _symmetry_equiv_pos_as_xyz
  1  'x, y, z'
loop_
 _atom_site_type_symbol
 _atom_site_label
 _atom_site_symmetry_multiplicity
 _atom_site_fract_x
 _atom_site_fract_y
 _atom_site_fract_z
 _atom_site_occupancy
  Rb  Rb0_0  1  0.41985563  0.08014437  0.12500000  1
  Rb  Rb0_1  1  0.41985563  0.08014437  0.62500000  1
  Rb  Rb0_2  1  0.41985563  0.58014437  0.12500000  1
  Rb  Rb0_3  1  0.41985563  0.58014437  0.62500000  1
  Rb  Rb0_4  1  0.91985563  0.08014437  0.12500000  1
  Rb  Rb0_5  1  0.91985563  0.08014437  0.62500000  1
  Rb  Rb0_6  1  0.91985563  0.58014437  0.12500000  1
  Rb  Rb0_7  1  0.91985563  0.58014437  0.62500000  1
  Rb  Rb1_0  1  0.08014437  0.41985563  0.37500000  1
  Rb  Rb1_1  1  0.08014437  0.41985563  0.87500000  1
  Rb  Rb1_2  1  0.08014437  0.91985563  0.37500000  1
  Rb  Rb1_3  1  0.08014437  0.91985563  0.87500000  1
  Rb  Rb1_4  1  0.58014437  0.41985563  0.37500000  1
  Rb  Rb1_5  1  0.58014437  0.41985563  0.87500000  1
  Rb  Rb1_6  1  0.58014437  0.91985563  0.37500000  1
  Rb  Rb1_7  1  0.58014437  0.91985563  0.87500000  1
loop_
_geom_bond_atom_site_label_1
_geom_bond_atom_site_label_2
_geom_bond_distance
_geom_bond_site_symmetry_2
Rb0_0 Rb0_6 5.076353 1_445
Rb0_0 Rb0_6 5.076353 1_555
Rb0_0 Rb1_7 5.095418 1_544
Rb0_0 Rb1_6 5.095418 1_545
Rb0_0 Rb0_2 5.118385 1_545
Rb0_0 Rb0_2 5.118385 1_555
Rb0_0 Rb0_4 5.118385 1_455
Rb0_0 Rb0_4 5.118385 1_555
Rb0_0 Rb1_4 5.179618 1_555
Rb0_0 Rb1_5 5.179618 1_554
Rb0_0 Rb1_2 5.179618 1_545
Rb0_0 Rb1_3 5.179618 1_544
Rb0_1 Rb0_7 5.076353 1_445
Rb0_1 Rb0_7 5.076353 1_555
Rb0_1 Rb1_7 5.095418 1_545
Rb0_1 Rb1_6 5.095418 1_545
Rb0_1 Rb0_3 5.118385 1_545
Rb0_1 Rb0_3 5.118385 1_555
Rb0_1 Rb0_5 5.118385 1_455
Rb0_1 Rb0_5 5.118385 1_555
Rb0_1 Rb1_5 5.179618 1_555
Rb0_1 Rb1_4 5.179618 1_555
Rb0_1 Rb1_2 5.179618 1_545
Rb0_1 Rb1_3 5.179618 1_545
Rb0_2 Rb0_4 5.076353 1_565
Rb0_2 Rb0_4 5.076353 1_455
Rb0_2 Rb1_5 5.095418 1_554
Rb0_2 Rb1_4 5.095418 1_555
Rb0_2 Rb0_6 5.118385 1_555
Rb0_2 Rb0_6 5.118385 1_455
Rb0_2 Rb1_0 5.179618 1_555
Rb0_2 Rb1_7 5.179618 1_554
Rb0_2 Rb1_6 5.179618 1_555
Rb0_2 Rb1_1 5.179618 1_554
Rb0_3 Rb0_5 5.076353 1_565
Rb0_3 Rb0_5 5.076353 1_455
Rb0_3 Rb1_4 5.095418 1_555
Rb0_3 Rb1_5 5.095418 1_555
Rb0_3 Rb0_7 5.118385 1_555
Rb0_3 Rb0_7 5.118385 1_455
Rb0_3 Rb1_0 5.179618 1_555
Rb0_3 Rb1_7 5.179618 1_555
Rb0_3 Rb1_6 5.179618 1_555
Rb0_3 Rb1_1 5.179618 1_555
Rb0_4 Rb1_3 5.095418 1_644
Rb0_4 Rb1_2 5.095418 1_645
Rb0_4 Rb0_6 5.118385 1_545
Rb0_4 Rb0_6 5.118385 1_555
Rb0_4 Rb1_1 5.179618 1_654
Rb0_4 Rb1_0 5.179618 1_655
Rb0_4 Rb1_7 5.179618 1_544
Rb0_4 Rb1_6 5.179618 1_545
Rb0_5 Rb1_3 5.095418 1_645
Rb0_5 Rb1_2 5.095418 1_645
Rb0_5 Rb0_7 5.118385 1_545
Rb0_5 Rb0_7 5.118385 1_555
Rb0_5 Rb1_1 5.179618 1_655
Rb0_5 Rb1_0 5.179618 1_655
Rb0_5 Rb1_6 5.179618 1_545
Rb0_5 Rb1_7 5.179618 1_545
Rb0_6 Rb1_0 5.095418 1_655
Rb0_6 Rb1_1 5.095418 1_654
Rb0_6 Rb1_2 5.179618 1_655
Rb0_6 Rb1_3 5.179618 1_654
Rb0_6 Rb1_5 5.179618 1_554
Rb0_6 Rb1_4 5.179618 1_555
Rb0_7 Rb1_0 5.095418 1_655
Rb0_7 Rb1_1 5.095418 1_655
Rb0_7 Rb1_2 5.179618 1_655
Rb0_7 Rb1_3 5.179618 1_655
Rb0_7 Rb1_4 5.179618 1_555
Rb0_7 Rb1_5 5.179618 1_555
Rb1_0 Rb1_6 5.076353 1_555
Rb1_0 Rb1_6 5.076353 1_445
Rb1_0 Rb1_2 5.118385 1_555
Rb1_0 Rb1_4 5.118385 1_555
Rb1_0 Rb1_4 5.118385 1_455
Rb1_0 Rb1_2 5.118385 1_545
Rb1_1 Rb1_7 5.076353 1_555
Rb1_1 Rb1_7 5.076353 1_445
Rb1_1 Rb1_3 5.118385 1_555
Rb1_1 Rb1_5 5.118385 1_555
Rb1_1 Rb1_3 5.118385 1_545
Rb1_1 Rb1_5 5.118385 1_455
Rb1_2 Rb1_4 5.076353 1_455
Rb1_2 Rb1_4 5.076353 1_565
Rb1_2 Rb1_6 5.118385 1_555
Rb1_2 Rb1_6 5.118385 1_455
Rb1_3 Rb1_5 5.076353 1_455
Rb1_3 Rb1_5 5.076353 1_565
Rb1_3 Rb1_7 5.118385 1_555
Rb1_3 Rb1_7 5.118385 1_455
Rb1_4 Rb1_6 5.118385 1_555
Rb1_4 Rb1_6 5.118385 1_545
Rb1_5 Rb1_7 5.118385 1_545
Rb1_5 Rb1_7 5.118385 1_555
