# generated using pymatgen
data_TaPd
_symmetry_space_group_name_H-M   'P 1'
_cell_length_a   6.57486350
_cell_length_b   6.57486350
_cell_length_c   12.16677604
_cell_angle_alpha   90.00000000
_cell_angle_beta   90.00000000
_cell_angle_gamma   90.00000000
_symmetry_Int_Tables_number   1
_chemical_formula_structural   TaPd
_chemical_formula_sum   'Ta16 Pd16'
_cell_volume   525.95549361
_cell_formula_units_Z   16
loop_
 _symmetry_equiv_pos_site_id
 _symmetry_equiv_pos_as_xyz
  1  'x, y, z'
loop_
 _atom_site_type_symbol
 _atom_site_label
 _atom_site_symmetry_multiplicity
 _atom_site_fract_x
 _atom_site_fract_y
 _atom_site_fract_z
 _atom_site_occupancy
  Ta  Ta0_0  1  0.37500000  0.37500000  0.42740804  1
  Ta  Ta0_1  1  0.37500000  0.37500000  0.92740804  1
  Ta  Ta0_2  1  0.37500000  0.87500000  0.42740804  1
  Ta  Ta0_3  1  0.37500000  0.87500000  0.92740804  1
  Ta  Ta0_4  1  0.87500000  0.37500000  0.42740804  1
  Ta  Ta0_5  1  0.87500000  0.37500000  0.92740804  1
  Ta  Ta0_6  1  0.87500000  0.87500000  0.42740804  1
  Ta  Ta0_7  1  0.87500000  0.87500000  0.92740804  1
  Ta  Ta1_0  1  0.12500000  0.12500000  0.07259197  1
  Ta  Ta1_1  1  0.12500000  0.12500000  0.57259196  1
  Ta  Ta1_2  1  0.12500000  0.62500000  0.07259197  1
  Ta  Ta1_3  1  0.12500000  0.62500000  0.57259196  1
  Ta  Ta1_4  1  0.62500000  0.12500000  0.07259197  1
  Ta  Ta1_5  1  0.62500000  0.12500000  0.57259196  1
  Ta  Ta1_6  1  0.62500000  0.62500000  0.07259197  1
  Ta  Ta1_7  1  0.62500000  0.62500000  0.57259196  1
  Pd  Pd0_0  1  0.37500000  0.37500000  0.18453063  1
  Pd  Pd0_1  1  0.37500000  0.37500000  0.68453063  1
  Pd  Pd0_2  1  0.37500000  0.87500000  0.18453063  1
  Pd  Pd0_3  1  0.37500000  0.87500000  0.68453063  1
  Pd  Pd0_4  1  0.87500000  0.37500000  0.18453063  1
  Pd  Pd0_5  1  0.87500000  0.37500000  0.68453063  1
  Pd  Pd0_6  1  0.87500000  0.87500000  0.18453063  1
  Pd  Pd0_7  1  0.87500000  0.87500000  0.68453063  1
  Pd  Pd1_0  1  0.12500000  0.12500000  0.31546937  1
  Pd  Pd1_1  1  0.12500000  0.12500000  0.81546936  1
  Pd  Pd1_2  1  0.12500000  0.62500000  0.31546937  1
  Pd  Pd1_3  1  0.12500000  0.62500000  0.81546936  1
  Pd  Pd1_4  1  0.62500000  0.12500000  0.31546937  1
  Pd  Pd1_5  1  0.62500000  0.12500000  0.81546936  1
  Pd  Pd1_6  1  0.62500000  0.62500000  0.31546937  1
  Pd  Pd1_7  1  0.62500000  0.62500000  0.81546936  1
loop_
_geom_bond_atom_site_label_1
_geom_bond_atom_site_label_2
_geom_bond_distance
_geom_bond_site_symmetry_2
Ta0_0 Ta1_1 2.919562 1_555
Ta0_0 Ta1_3 2.919562 1_555
Ta0_0 Ta1_5 2.919562 1_555
Ta0_0 Ta1_7 2.919562 1_555
Ta0_0 Ta0_4 3.287432 1_455
Ta0_0 Ta0_2 3.287432 1_545
Ta0_0 Ta0_4 3.287432 1_555
Ta0_0 Ta0_2 3.287432 1_555
Ta0_1 Ta1_0 2.919562 1_556
Ta0_1 Ta1_4 2.919562 1_556
Ta0_1 Ta1_2 2.919562 1_556
Ta0_1 Ta1_6 2.919562 1_556
Ta0_1 Ta0_3 3.287432 1_545
Ta0_1 Ta0_3 3.287432 1_555
Ta0_1 Ta0_5 3.287432 1_455
Ta0_1 Ta0_5 3.287432 1_555
Ta0_2 Ta1_1 2.919562 1_565
Ta0_2 Ta1_3 2.919562 1_555
Ta0_2 Ta1_7 2.919562 1_555
Ta0_2 Ta1_5 2.919562 1_565
Ta0_2 Ta0_6 3.287432 1_455
Ta0_2 Ta0_6 3.287432 1_555
Ta0_3 Ta1_2 2.919562 1_556
Ta0_3 Ta1_6 2.919562 1_556
Ta0_3 Ta1_0 2.919562 1_566
Ta0_3 Ta1_4 2.919562 1_566
Ta0_3 Ta0_7 3.287432 1_555
Ta0_3 Ta0_7 3.287432 1_455
Ta0_4 Ta1_1 2.919562 1_655
Ta0_4 Ta1_5 2.919562 1_555
Ta0_4 Ta1_7 2.919562 1_555
Ta0_4 Ta1_3 2.919562 1_655
Ta0_4 Ta0_6 3.287432 1_555
Ta0_4 Ta0_6 3.287432 1_545
Ta0_5 Ta1_6 2.919562 1_556
Ta0_5 Ta1_0 2.919562 1_656
Ta0_5 Ta1_4 2.919562 1_556
Ta0_5 Ta1_2 2.919562 1_656
Ta0_5 Ta0_7 3.287432 1_545
Ta0_5 Ta0_7 3.287432 1_555
Ta0_6 Ta1_7 2.919562 1_555
Ta0_6 Ta1_5 2.919562 1_565
Ta0_6 Ta1_1 2.919562 1_665
Ta0_6 Ta1_3 2.919562 1_655
Ta0_7 Ta1_6 2.919562 1_556
Ta0_7 Ta1_4 2.919562 1_566
Ta0_7 Ta1_0 2.919562 1_666
Ta0_7 Ta1_2 2.919562 1_656
Ta1_0 Ta1_2 3.287432 1_545
Ta1_0 Ta1_4 3.287432 1_455
Ta1_0 Ta1_4 3.287432 1_555
Ta1_0 Ta1_2 3.287432 1_555
Ta1_1 Ta1_3 3.287432 1_545
Ta1_1 Ta1_5 3.287432 1_455
Ta1_1 Ta1_5 3.287432 1_555
Ta1_1 Ta1_3 3.287432 1_555
Ta1_2 Ta1_6 3.287432 1_455
Ta1_2 Ta1_6 3.287432 1_555
Ta1_3 Ta1_7 3.287432 1_455
Ta1_3 Ta1_7 3.287432 1_555
Ta1_4 Ta1_6 3.287432 1_545
Ta1_4 Ta1_6 3.287432 1_555
Ta1_5 Ta1_7 3.287432 1_545
Ta1_5 Ta1_7 3.287432 1_555
Pd0_0 Ta1_0 2.694154 1_555
Pd0_0 Ta1_4 2.694154 1_555
Pd0_0 Ta1_2 2.694154 1_555
Pd0_0 Ta1_6 2.694154 1_555
Pd0_0 Pd1_0 2.818081 1_555
Pd0_0 Pd1_2 2.818081 1_555
Pd0_0 Pd1_4 2.818081 1_555
Pd0_0 Pd1_6 2.818081 1_555
Pd0_0 Ta0_0 2.955035 1_555
Pd0_0 Ta0_1 3.128353 1_554
Pd0_0 Pd0_2 3.287432 1_545
Pd0_0 Pd0_4 3.287432 1_455
Pd0_0 Pd0_4 3.287432 1_555
Pd0_0 Pd0_2 3.287432 1_555
Pd0_1 Ta1_1 2.694154 1_555
Pd0_1 Ta1_5 2.694154 1_555
Pd0_1 Ta1_3 2.694154 1_555
Pd0_1 Ta1_7 2.694154 1_555
Pd0_1 Pd1_1 2.818081 1_555
Pd0_1 Pd1_7 2.818081 1_555
Pd0_1 Pd1_3 2.818081 1_555
Pd0_1 Pd1_5 2.818081 1_555
Pd0_1 Ta0_1 2.955035 1_555
Pd0_1 Ta0_0 3.128353 1_555
Pd0_1 Pd0_3 3.287432 1_555
Pd0_1 Pd0_5 3.287432 1_455
Pd0_1 Pd0_3 3.287432 1_545
Pd0_1 Pd0_5 3.287432 1_555
Pd0_2 Ta1_2 2.694154 1_555
Pd0_2 Ta1_6 2.694154 1_555
Pd0_2 Ta1_0 2.694154 1_565
Pd0_2 Ta1_4 2.694154 1_565
Pd0_2 Pd1_2 2.818081 1_555
Pd0_2 Pd1_6 2.818081 1_555
Pd0_2 Pd1_0 2.818081 1_565
Pd0_2 Pd1_4 2.818081 1_565
Pd0_2 Ta0_2 2.955035 1_555
Pd0_2 Ta0_3 3.128353 1_554
Pd0_2 Pd0_6 3.287432 1_455
Pd0_2 Pd0_6 3.287432 1_555
Pd0_3 Ta1_3 2.694154 1_555
Pd0_3 Ta1_1 2.694154 1_565
Pd0_3 Ta1_7 2.694154 1_555
Pd0_3 Ta1_5 2.694154 1_565
Pd0_3 Pd1_7 2.818081 1_555
Pd0_3 Pd1_3 2.818081 1_555
Pd0_3 Pd1_1 2.818081 1_565
Pd0_3 Pd1_5 2.818081 1_565
Pd0_3 Ta0_3 2.955035 1_555
Pd0_3 Ta0_2 3.128353 1_555
Pd0_3 Pd0_7 3.287432 1_455
Pd0_3 Pd0_7 3.287432 1_555
Pd0_4 Ta1_4 2.694154 1_555
Pd0_4 Ta1_6 2.694154 1_555
Pd0_4 Ta1_0 2.694154 1_655
Pd0_4 Ta1_2 2.694154 1_655
Pd0_4 Pd1_4 2.818081 1_555
Pd0_4 Pd1_6 2.818081 1_555
Pd0_4 Pd1_0 2.818081 1_655
Pd0_4 Pd1_2 2.818081 1_655
Pd0_4 Ta0_4 2.955035 1_555
Pd0_4 Ta0_5 3.128353 1_554
Pd0_4 Pd0_6 3.287432 1_555
Pd0_4 Pd0_6 3.287432 1_545
Pd0_5 Ta1_5 2.694154 1_555
Pd0_5 Ta1_7 2.694154 1_555
Pd0_5 Ta1_1 2.694154 1_655
Pd0_5 Ta1_3 2.694154 1_655
Pd0_5 Pd1_7 2.818081 1_555
Pd0_5 Pd1_5 2.818081 1_555
Pd0_5 Pd1_1 2.818081 1_655
Pd0_5 Pd1_3 2.818081 1_655
Pd0_5 Ta0_5 2.955035 1_555
Pd0_5 Ta0_4 3.128353 1_555
Pd0_5 Pd0_7 3.287432 1_545
Pd0_5 Pd0_7 3.287432 1_555
Pd0_6 Ta1_6 2.694154 1_555
Pd0_6 Ta1_4 2.694154 1_565
Pd0_6 Ta1_2 2.694154 1_655
Pd0_6 Ta1_0 2.694154 1_665
Pd0_6 Pd1_6 2.818081 1_555
Pd0_6 Pd1_2 2.818081 1_655
Pd0_6 Pd1_4 2.818081 1_565
Pd0_6 Pd1_0 2.818081 1_665
Pd0_6 Ta0_6 2.955035 1_555
Pd0_6 Ta0_7 3.128353 1_554
Pd0_7 Ta1_7 2.694154 1_555
Pd0_7 Ta1_3 2.694154 1_655
Pd0_7 Ta1_5 2.694154 1_565
Pd0_7 Ta1_1 2.694154 1_665
Pd0_7 Pd1_7 2.818081 1_555
Pd0_7 Pd1_1 2.818081 1_665
Pd0_7 Pd1_3 2.818081 1_655
Pd0_7 Pd1_5 2.818081 1_565
Pd0_7 Ta0_7 2.955035 1_555
Pd0_7 Ta0_6 3.128353 1_555
Pd1_0 Ta0_6 2.694154 1_445
Pd1_0 Ta0_2 2.694154 1_545
Pd1_0 Ta0_0 2.694154 1_555
Pd1_0 Ta0_4 2.694154 1_455
Pd1_0 Ta1_0 2.955035 1_555
Pd1_0 Ta1_1 3.128353 1_555
Pd1_0 Pd1_2 3.287432 1_545
Pd1_0 Pd1_4 3.287432 1_455
Pd1_0 Pd1_4 3.287432 1_555
Pd1_0 Pd1_2 3.287432 1_555
Pd1_1 Ta0_5 2.694154 1_455
Pd1_1 Ta0_7 2.694154 1_445
Pd1_1 Ta0_3 2.694154 1_545
Pd1_1 Ta0_1 2.694154 1_555
Pd1_1 Ta1_1 2.955035 1_555
Pd1_1 Ta1_0 3.128353 1_556
Pd1_1 Pd1_3 3.287432 1_545
Pd1_1 Pd1_5 3.287432 1_455
Pd1_1 Pd1_3 3.287432 1_555
Pd1_1 Pd1_5 3.287432 1_555
Pd1_2 Ta0_6 2.694154 1_455
Pd1_2 Ta0_2 2.694154 1_555
Pd1_2 Ta0_0 2.694154 1_555
Pd1_2 Ta0_4 2.694154 1_455
Pd1_2 Ta1_2 2.955035 1_555
Pd1_2 Ta1_3 3.128353 1_555
Pd1_2 Pd1_6 3.287432 1_455
Pd1_2 Pd1_6 3.287432 1_555
Pd1_3 Ta0_3 2.694154 1_555
Pd1_3 Ta0_7 2.694154 1_455
Pd1_3 Ta0_1 2.694154 1_555
Pd1_3 Ta0_5 2.694154 1_455
Pd1_3 Ta1_3 2.955035 1_555
Pd1_3 Ta1_2 3.128353 1_556
Pd1_3 Pd1_7 3.287432 1_455
Pd1_3 Pd1_7 3.287432 1_555
Pd1_4 Ta0_6 2.694154 1_545
Pd1_4 Ta0_4 2.694154 1_555
Pd1_4 Ta0_2 2.694154 1_545
Pd1_4 Ta0_0 2.694154 1_555
Pd1_4 Ta1_4 2.955035 1_555
Pd1_4 Ta1_5 3.128353 1_555
Pd1_4 Pd1_6 3.287432 1_545
Pd1_4 Pd1_6 3.287432 1_555
Pd1_5 Ta0_7 2.694154 1_545
Pd1_5 Ta0_5 2.694154 1_555
Pd1_5 Ta0_1 2.694154 1_555
Pd1_5 Ta0_3 2.694154 1_545
Pd1_5 Ta1_5 2.955035 1_555
Pd1_5 Ta1_4 3.128353 1_556
Pd1_5 Pd1_7 3.287432 1_545
Pd1_5 Pd1_7 3.287432 1_555
Pd1_6 Ta0_6 2.694154 1_555
Pd1_6 Ta0_4 2.694154 1_555
Pd1_6 Ta0_2 2.694154 1_555
Pd1_6 Ta0_0 2.694154 1_555
Pd1_6 Ta1_6 2.955035 1_555
Pd1_6 Ta1_7 3.128353 1_555
Pd1_7 Ta0_7 2.694154 1_555
Pd1_7 Ta0_5 2.694154 1_555
Pd1_7 Ta0_3 2.694154 1_555
Pd1_7 Ta0_1 2.694154 1_555
Pd1_7 Ta1_7 2.955035 1_555
Pd1_7 Ta1_6 3.128353 1_556
