# generated using pymatgen
data_LiCoHSO5
_symmetry_space_group_name_H-M   'P 1'
_cell_length_a   5.45958000
_cell_length_b   7.43205600
_cell_length_c   9.84356784
_cell_angle_alpha   69.81340990
_cell_angle_beta   90.00000000
_cell_angle_gamma   90.00000000
_symmetry_Int_Tables_number   1
_chemical_formula_structural   LiCoHSO5
_chemical_formula_sum   'Li4 Co4 H4 S4 O20'
_cell_volume   374.87733084
_cell_formula_units_Z   4
loop_
 _symmetry_equiv_pos_site_id
 _symmetry_equiv_pos_as_xyz
  1  'x, y, z'
loop_
 _atom_site_type_symbol
 _atom_site_label
 _atom_site_symmetry_multiplicity
 _atom_site_fract_x
 _atom_site_fract_y
 _atom_site_fract_z
 _atom_site_occupancy
  Li  Li0  1  0.44001700  0.68548600  0.08560000  1
  Li  Li1  1  0.94001700  0.81451400  0.91440000  1
  Li  Li2  1  0.55998300  0.31451400  0.91440000  1
  Li  Li3  1  0.05998300  0.18548600  0.08560000  1
  Co  Co0  1  0.76859400  0.88002500  0.55061300  1
  Co  Co1  1  0.26859400  0.61997500  0.44938700  1
  Co  Co2  1  0.23140600  0.11997500  0.44938700  1
  Co  Co3  1  0.73140600  0.38002500  0.55061300  1
  H  H0  1  0.49119300  0.39835200  0.33485300  1
  H  H1  1  0.99119300  0.10164800  0.66514700  1
  H  H2  1  0.50880700  0.60164800  0.66514700  1
  H  H3  1  0.00880700  0.89835200  0.33485300  1
  S  S0  1  0.05872400  0.51059700  0.78522300  1
  S  S1  1  0.55872400  0.98940300  0.21477700  1
  S  S2  1  0.94127600  0.48940300  0.21477700  1
  S  S3  1  0.44127600  0.01059700  0.78522300  1
  O  O0  1  0.92780500  0.13326700  0.56571000  1
  O  O1  1  0.42780500  0.36673300  0.43429000  1
  O  O2  1  0.07219500  0.86673300  0.43429000  1
  O  O3  1  0.57219500  0.63326700  0.56571000  1
  O  O4  1  0.44773100  0.96029600  0.64894100  1
  O  O5  1  0.94773100  0.53970400  0.35105900  1
  O  O6  1  0.55226900  0.03970400  0.35105900  1
  O  O7  1  0.05226900  0.46029600  0.64894100  1
  O  O8  1  0.55718400  0.20281900  0.75448300  1
  O  O9  1  0.05718400  0.29718100  0.24551700  1
  O  O10  1  0.44281600  0.79718100  0.24551700  1
  O  O11  1  0.94281600  0.70281900  0.75448300  1
  O  O12  1  0.68421900  0.48436200  0.16904900  1
  O  O13  1  0.18421900  0.01563800  0.83095100  1
  O  O14  1  0.31578100  0.51563800  0.83095100  1
  O  O15  1  0.81578100  0.98436200  0.16904900  1
  O  O16  1  0.41833500  0.13442900  0.09827500  1
  O  O17  1  0.91833500  0.36557100  0.90172500  1
  O  O18  1  0.58166500  0.86557100  0.90172500  1
  O  O19  1  0.08166500  0.63442900  0.09827500  1
loop_
_geom_bond_atom_site_label_1
_geom_bond_atom_site_label_2
_geom_bond_distance
_geom_bond_site_symmetry_2
Li0 O12 1.959387 1_555
Li0 O19 1.988613 1_555
Li0 O18 1.998380 1_554
Li0 O10 2.017215 1_555
Li1 O13 1.959387 1_665
Li1 O18 1.988613 1_555
Li1 O19 1.998380 1_656
Li1 O11 2.017215 1_555
Li2 O14 1.959387 1_555
Li2 O17 1.988613 1_555
Li2 O16 1.998380 1_556
Li2 O8 2.017215 1_555
Li3 O15 1.959387 1_445
Li3 O16 1.988613 1_555
Li3 O17 1.998380 1_454
Li3 O9 2.017215 1_555
Co0 O2 2.036258 1_655
Co0 O3 2.084942 1_555
Co0 O0 2.124383 1_565
Co0 O4 2.181736 1_555
Co0 O11 2.200558 1_555
Co0 O6 2.247873 1_565
Co1 O3 2.036258 1_555
Co1 O2 2.084942 1_555
Co1 O1 2.124383 1_555
Co1 O5 2.181736 1_455
Co1 O10 2.200558 1_555
Co1 O7 2.247873 1_555
Co2 O0 2.036258 1_455
Co2 O1 2.084942 1_555
Co2 O2 2.124383 1_545
Co2 O6 2.181736 1_555
Co2 O9 2.200558 1_555
Co2 O4 2.247873 1_545
Co3 O1 2.036258 1_555
Co3 O0 2.084942 1_555
Co3 O3 2.124383 1_555
Co3 O7 2.181736 1_655
Co3 O8 2.200558 1_555
Co3 O5 2.247873 1_555
H0 O1 0.987076 1_555
H1 O0 0.987076 1_555
H2 O3 0.987076 1_555
H3 O2 0.987076 1_555
O4 S3 1.512198 1_565
O5 S2 1.512198 1_555
O6 S1 1.512198 1_545
O7 S0 1.512198 1_555
O8 S3 1.494850 1_555
O9 S2 1.494850 1_455
O10 S1 1.494850 1_555
O11 S0 1.494850 1_655
O12 S2 1.478260 1_555
O13 S3 1.478260 1_555
O14 S0 1.478260 1_555
O15 S1 1.478260 1_555
O16 S1 1.487035 1_545
O17 S0 1.487035 1_655
O18 S3 1.487035 1_565
O19 S2 1.487035 1_455
