# generated using pymatgen
data_Te3As2
_symmetry_space_group_name_H-M   'P 1'
_cell_length_a   7.03519028
_cell_length_b   10.49585363
_cell_length_c   16.27246178
_cell_angle_alpha   90.00000000
_cell_angle_beta   90.00000000
_cell_angle_gamma   102.73435970
_symmetry_Int_Tables_number   1
_chemical_formula_structural   Te3As2
_chemical_formula_sum   'Te24 As16'
_cell_volume   1172.00847140
_cell_formula_units_Z   8
loop_
 _symmetry_equiv_pos_site_id
 _symmetry_equiv_pos_as_xyz
  1  'x, y, z'
loop_
 _atom_site_type_symbol
 _atom_site_label
 _atom_site_symmetry_multiplicity
 _atom_site_fract_x
 _atom_site_fract_y
 _atom_site_fract_z
 _atom_site_occupancy
  Te  Te0  1  -0.00000000  0.00000000  0.50000000  1
  Te  Te1  1  -0.00000000  0.00000000  -0.00000000  1
  Te  Te2  1  -0.00005042  0.00017827  0.75000000  1
  Te  Te3  1  0.00005042  -0.00017827  0.25000000  1
  Te  Te4  1  0.50036022  0.00041438  0.62486716  1
  Te  Te5  1  0.49963978  -0.00041438  0.12486716  1
  Te  Te6  1  0.49963978  -0.00041438  0.37513284  1
  Te  Te7  1  0.50036022  0.00041438  0.87513284  1
  Te  Te8  1  0.77746390  0.33641094  0.49994876  1
  Te  Te9  1  0.22253610  0.66358906  -0.00005124  1
  Te  Te10  1  0.22253610  0.66358906  0.50005124  1
  Te  Te11  1  0.77746390  0.33641094  0.00005124  1
  Te  Te12  1  0.77771809  0.33630018  0.75000000  1
  Te  Te13  1  0.22228191  0.66369982  0.25000000  1
  Te  Te14  1  0.77703730  0.33669947  0.25000000  1
  Te  Te15  1  0.22296270  0.66330053  0.75000000  1
  Te  Te16  1  0.27762700  0.33597271  0.62489335  1
  Te  Te17  1  0.72237300  0.66402729  0.12489335  1
  Te  Te18  1  0.72237300  0.66402729  0.37510665  1
  Te  Te19  1  0.27762700  0.33597271  0.87510665  1
  Te  Te20  1  0.27702936  0.33587701  0.12509830  1
  Te  Te21  1  0.72297064  0.66412299  0.62509830  1
  Te  Te22  1  0.72297064  0.66412299  0.87490170  1
  Te  Te23  1  0.27702936  0.33587701  0.37490170  1
  As  As0  1  0.60795419  0.81845814  0.75000000  1
  As  As1  1  0.39204581  0.18154186  0.25000000  1
  As  As2  1  0.60593130  0.81821851  0.25000000  1
  As  As3  1  0.39406870  0.18178149  0.75000000  1
  As  As4  1  0.60613936  0.81940786  0.49977377  1
  As  As5  1  0.39386064  0.18059214  -0.00022623  1
  As  As6  1  0.39386064  0.18059214  0.50022623  1
  As  As7  1  0.60613936  0.81940786  0.00022623  1
  As  As8  1  0.89286047  0.18098608  0.62497350  1
  As  As9  1  0.10713953  0.81901392  0.12497350  1
  As  As10  1  0.10713953  0.81901392  0.37502650  1
  As  As11  1  0.89286047  0.18098608  0.87502650  1
  As  As12  1  0.89296946  0.18169726  0.12502499  1
  As  As13  1  0.10703054  0.81830274  0.62502499  1
  As  As14  1  0.10703054  0.81830274  0.87497501  1
  As  As15  1  0.89296946  0.18169726  0.37497501  1
loop_
_geom_bond_atom_site_label_1
_geom_bond_atom_site_label_2
_geom_bond_distance
_geom_bond_site_symmetry_2
As0 Te21 2.826216 1_555
As0 Te22 2.826216 1_555
As0 Te15 2.836089 1_555
As0 Te2 2.987337 1_665
As0 Te7 3.000625 1_565
As0 Te4 3.000625 1_565
As1 Te23 2.826216 1_555
As1 Te20 2.826216 1_555
As1 Te14 2.836089 1_555
As1 Te3 2.987337 1_555
As1 Te5 3.000625 1_555
As1 Te6 3.000625 1_555
As2 Te13 2.825828 1_555
As2 Te18 2.831804 1_555
As2 Te17 2.831804 1_555
As2 Te5 2.992762 1_565
As2 Te6 2.992762 1_565
As2 Te3 2.998511 1_665
As3 Te12 2.825828 1_555
As3 Te19 2.831804 1_555
As3 Te16 2.831804 1_555
As3 Te4 2.992762 1_555
As3 Te7 2.992762 1_555
As3 Te2 2.998511 1_555
As4 Te10 2.830551 1_555
As4 Te18 2.834019 1_555
As4 Te21 2.842791 1_555
As4 Te6 2.979265 1_565
As4 Te4 2.988306 1_565
As4 Te0 2.992516 1_665
As5 Te11 2.830551 1_555
As5 Te19 2.834019 1_554
As5 Te20 2.842791 1_555
As5 Te7 2.979265 1_554
As5 Te5 2.988306 1_555
As5 Te1 2.992516 1_555
As6 Te8 2.830551 1_555
As6 Te16 2.834019 1_555
As6 Te23 2.842791 1_555
As6 Te4 2.979265 1_555
As6 Te6 2.988306 1_555
As6 Te0 2.992516 1_555
As7 Te9 2.830551 1_555
As7 Te17 2.834019 1_555
As7 Te22 2.842791 1_554
As7 Te5 2.979265 1_565
As7 Te7 2.988306 1_564
As7 Te1 2.992516 1_665
As8 Te16 2.834126 1_655
As8 Te12 2.834588 1_555
As8 Te8 2.836047 1_555
As8 Te4 2.984902 1_555
As8 Te2 2.989724 1_655
As8 Te0 2.990569 1_655
As9 Te17 2.834126 1_455
As9 Te13 2.834588 1_555
As9 Te9 2.836047 1_555
As9 Te5 2.984902 1_565
As9 Te3 2.989724 1_565
As9 Te1 2.990569 1_565
As10 Te18 2.834126 1_455
As10 Te13 2.834588 1_555
As10 Te10 2.836047 1_555
As10 Te6 2.984902 1_565
As10 Te3 2.989724 1_565
As10 Te0 2.990569 1_565
As11 Te19 2.834126 1_655
As11 Te12 2.834588 1_555
As11 Te11 2.836047 1_556
As11 Te7 2.984902 1_555
As11 Te2 2.989724 1_655
As11 Te1 2.990569 1_656
As12 Te20 2.826933 1_655
As12 Te11 2.831009 1_555
As12 Te14 2.834196 1_555
As12 Te1 2.995998 1_655
As12 Te5 2.996471 1_555
As12 Te3 2.996880 1_655
As13 Te21 2.826933 1_455
As13 Te10 2.831009 1_555
As13 Te15 2.834196 1_555
As13 Te0 2.995998 1_565
As13 Te4 2.996471 1_565
As13 Te2 2.996880 1_565
As14 Te22 2.826933 1_455
As14 Te9 2.831009 1_556
As14 Te15 2.834196 1_555
As14 Te1 2.995998 1_566
As14 Te7 2.996471 1_565
As14 Te2 2.996880 1_565
As15 Te23 2.826933 1_655
As15 Te8 2.831009 1_555
As15 Te14 2.834196 1_555
As15 Te0 2.995998 1_655
As15 Te6 2.996471 1_555
As15 Te3 2.996880 1_655
