# generated using pymatgen
data_Ti2GeC
_symmetry_space_group_name_H-M   'P 1'
_cell_length_a   3.08729383
_cell_length_b   3.08729291
_cell_length_c   12.91561085
_cell_angle_alpha   90.00000000
_cell_angle_beta   90.00000000
_cell_angle_gamma   120.00000997
_symmetry_Int_Tables_number   1
_chemical_formula_structural   Ti2GeC
_chemical_formula_sum   'Ti4 Ge2 C2'
_cell_volume   106.61083373
_cell_formula_units_Z   2
loop_
 _symmetry_equiv_pos_site_id
 _symmetry_equiv_pos_as_xyz
  1  'x, y, z'
loop_
 _atom_site_type_symbol
 _atom_site_label
 _atom_site_symmetry_multiplicity
 _atom_site_fract_x
 _atom_site_fract_y
 _atom_site_fract_z
 _atom_site_occupancy
  Ti  Ti0  1  0.66666700  0.33333300  0.58934092  1
  Ti  Ti1  1  0.33333300  0.66666700  0.41065908  1
  Ti  Ti2  1  0.33333300  0.66666700  0.08934092  1
  Ti  Ti3  1  0.66666700  0.33333300  0.91065908  1
  Ge  Ge0  1  0.66666700  0.33333300  0.25000000  1
  Ge  Ge1  1  0.33333300  0.66666700  0.75000000  1
  C  C0  1  0.00000000  0.00000000  0.50000000  1
  C  C1  1  0.00000000  -0.00000000  -0.00000000  1
loop_
_geom_bond_atom_site_label_1
_geom_bond_atom_site_label_2
_geom_bond_distance
_geom_bond_site_symmetry_2
Ge0 Ti2 2.735468 1_545
Ge0 Ti1 2.735468 1_545
Ge0 Ti1 2.735468 1_655
Ge0 Ti2 2.735468 1_655
Ge0 Ti2 2.735472 1_555
Ge0 Ti1 2.735472 1_555
Ge1 Ti0 2.735468 1_565
Ge1 Ti3 2.735468 1_565
Ge1 Ti0 2.735468 1_455
Ge1 Ti3 2.735468 1_455
Ge1 Ti0 2.735472 1_555
Ge1 Ti3 2.735472 1_555
C0 Ti0 2.123344 1_455
C0 Ti1 2.123344 1_545
C0 Ti1 2.123346 1_555
C0 Ti0 2.123346 1_445
C0 Ti1 2.123346 1_445
C0 Ti0 2.123346 1_555
C1 Ti3 2.123344 1_454
C1 Ti2 2.123344 1_545
C1 Ti2 2.123346 1_555
C1 Ti3 2.123346 1_444
C1 Ti3 2.123346 1_554
C1 Ti2 2.123346 1_445
