# generated using pymatgen
data_RbAu3Se2
_symmetry_space_group_name_H-M   'P 1'
_cell_length_a   6.22708500
_cell_length_b   6.22708549
_cell_length_c   5.30382783
_cell_angle_alpha   90.00000000
_cell_angle_beta   90.00000000
_cell_angle_gamma   119.99999738
_symmetry_Int_Tables_number   1
_chemical_formula_structural   RbAu3Se2
_chemical_formula_sum   'Rb1 Au3 Se2'
_cell_volume   178.11056572
_cell_formula_units_Z   1
loop_
 _symmetry_equiv_pos_site_id
 _symmetry_equiv_pos_as_xyz
  1  'x, y, z'
loop_
 _atom_site_type_symbol
 _atom_site_label
 _atom_site_symmetry_multiplicity
 _atom_site_fract_x
 _atom_site_fract_y
 _atom_site_fract_z
 _atom_site_occupancy
  Rb  Rb0  1  -0.00000000  0.00000000  0.50000000  1
  Au  Au0  1  -0.00000000  0.50000000  -0.00000000  1
  Au  Au1  1  0.50000000  0.00000000  -0.00000000  1
  Au  Au2  1  0.50000000  0.50000000  -0.00000000  1
  Se  Se0  1  0.33333300  0.66666700  0.68368423  1
  Se  Se1  1  0.66666700  0.33333300  0.31631577  1
loop_
_geom_bond_atom_site_label_1
_geom_bond_atom_site_label_2
_geom_bond_distance
_geom_bond_site_symmetry_2
Rb0 Se1 3.724866 1_455
Rb0 Se0 3.724866 1_545
Rb0 Se1 3.724871 1_555
Rb0 Se0 3.724871 1_445
Rb0 Se1 3.724872 1_445
Rb0 Se0 3.724872 1_555
Au0 Se1 2.458862 1_455
Au0 Se0 2.458862 1_554
Au0 Rb0 4.089841 1_565
Au0 Rb0 4.089841 1_564
Au0 Rb0 4.089841 1_554
Au0 Rb0 4.089841 1_555
Au1 Se0 2.458862 1_544
Au1 Se1 2.458862 1_555
Au1 Rb0 4.089840 1_654
Au1 Rb0 4.089840 1_655
Au1 Rb0 4.089840 1_555
Au1 Rb0 4.089840 1_554
Au2 Se0 2.458866 1_554
Au2 Se1 2.458866 1_555
Au2 Rb0 4.089841 1_664
Au2 Rb0 4.089841 1_665
Au2 Rb0 4.089841 1_554
Au2 Rb0 4.089841 1_555
