# generated using pymatgen
data_Sm3Pd
_symmetry_space_group_name_H-M   'P 1'
_cell_length_a   4.79142400
_cell_length_b   4.79142400
_cell_length_c   4.79142400
_cell_angle_alpha   90.00000000
_cell_angle_beta   90.00000000
_cell_angle_gamma   90.00000000
_symmetry_Int_Tables_number   1
_chemical_formula_structural   Sm3Pd
_chemical_formula_sum   'Sm3 Pd1'
_cell_volume   110.00028534
_cell_formula_units_Z   1
loop_
 _symmetry_equiv_pos_site_id
 _symmetry_equiv_pos_as_xyz
  1  'x, y, z'
loop_
 _atom_site_type_symbol
 _atom_site_label
 _atom_site_symmetry_multiplicity
 _atom_site_fract_x
 _atom_site_fract_y
 _atom_site_fract_z
 _atom_site_occupancy
  Sm  Sm0  1  0.00000000  0.50000000  0.50000000  1
  Sm  Sm1  1  0.50000000  0.00000000  0.50000000  1
  Sm  Sm2  1  0.50000000  0.50000000  0.00000000  1
  Pd  Pd0  1  0.00000000  0.00000000  0.00000000  1
loop_
_geom_bond_atom_site_label_1
_geom_bond_atom_site_label_2
_geom_bond_distance
_geom_bond_site_symmetry_2
Sm0 Sm1 3.388048 1_565
Sm0 Sm2 3.388048 1_455
Sm0 Sm2 3.388048 1_555
Sm0 Sm2 3.388048 1_556
Sm0 Sm1 3.388048 1_465
Sm0 Sm1 3.388048 1_455
Sm0 Sm1 3.388048 1_555
Sm0 Sm2 3.388048 1_456
Sm1 Sm2 3.388048 1_555
Sm1 Sm2 3.388048 1_556
Sm1 Sm2 3.388048 1_546
Sm1 Sm2 3.388048 1_545
Pd0 Sm0 3.388048 1_544
Pd0 Sm2 3.388048 1_555
Pd0 Sm2 3.388048 1_455
Pd0 Sm0 3.388048 1_554
Pd0 Sm1 3.388048 1_555
Pd0 Sm1 3.388048 1_455
Pd0 Sm1 3.388048 1_454
Pd0 Sm2 3.388048 1_445
Pd0 Sm2 3.388048 1_545
Pd0 Sm0 3.388048 1_555
Pd0 Sm0 3.388048 1_545
Pd0 Sm1 3.388048 1_554
