# generated using pymatgen
data_CuMoF6
_symmetry_space_group_name_H-M   'P 1'
_cell_length_a   5.11856600
_cell_length_b   5.27667772
_cell_length_c   5.49952229
_cell_angle_alpha   117.20251781
_cell_angle_beta   89.26170620
_cell_angle_gamma   117.91010203
_symmetry_Int_Tables_number   1
_chemical_formula_structural   CuMoF6
_chemical_formula_sum   'Cu1 Mo1 F6'
_cell_volume   112.85565258
_cell_formula_units_Z   1
loop_
 _symmetry_equiv_pos_site_id
 _symmetry_equiv_pos_as_xyz
  1  'x, y, z'
loop_
 _atom_site_type_symbol
 _atom_site_label
 _atom_site_symmetry_multiplicity
 _atom_site_fract_x
 _atom_site_fract_y
 _atom_site_fract_z
 _atom_site_occupancy
  Cu  Cu0  1  0.00000000  0.00000000  0.00000000  1
  Mo  Mo0  1  0.50000000  0.00000000  0.50000000  1
  F  F0  1  0.24226500  0.35621500  0.75729000  1
  F  F1  1  0.75773500  0.64378500  0.24271000  1
  F  F2  1  0.40153200  0.00532100  0.26756300  1
  F  F3  1  0.59846800  0.99467900  0.73243700  1
  F  F4  1  0.86817200  0.62937000  0.74126900  1
  F  F5  1  0.13182800  0.37063000  0.25873100  1
loop_
_geom_bond_atom_site_label_1
_geom_bond_atom_site_label_2
_geom_bond_distance
_geom_bond_site_symmetry_2
Cu0 F4 1.596817 1_444
Cu0 F5 1.596817 1_555
Cu0 F0 2.630877 1_554
Cu0 F1 2.630877 1_445
F0 Mo0 2.667809 1_555
F1 Mo0 2.667809 1_565
F2 Mo0 1.396967 1_555
F3 Mo0 1.396967 1_565
