# generated using pymatgen
data_NaNd3
_symmetry_space_group_name_H-M   'P 1'
_cell_length_a   5.18024900
_cell_length_b   5.18024900
_cell_length_c   5.18024900
_cell_angle_alpha   90.00000000
_cell_angle_beta   90.00000000
_cell_angle_gamma   90.00000000
_symmetry_Int_Tables_number   1
_chemical_formula_structural   NaNd3
_chemical_formula_sum   'Na1 Nd3'
_cell_volume   139.01187677
_cell_formula_units_Z   1
loop_
 _symmetry_equiv_pos_site_id
 _symmetry_equiv_pos_as_xyz
  1  'x, y, z'
loop_
 _atom_site_type_symbol
 _atom_site_label
 _atom_site_symmetry_multiplicity
 _atom_site_fract_x
 _atom_site_fract_y
 _atom_site_fract_z
 _atom_site_occupancy
  Na  Na0  1  0.50000000  0.50000000  0.50000000  1
  Nd  Nd0  1  0.50000000  0.00000000  0.00000000  1
  Nd  Nd1  1  0.00000000  0.50000000  0.00000000  1
  Nd  Nd2  1  0.00000000  0.00000000  0.50000000  1
loop_
_geom_bond_atom_site_label_1
_geom_bond_atom_site_label_2
_geom_bond_distance
_geom_bond_site_symmetry_2
Na0 Nd1 3.662989 1_555
Na0 Nd1 3.662989 1_655
Na0 Nd2 3.662989 1_665
Na0 Nd1 3.662989 1_556
Na0 Nd0 3.662989 1_566
Na0 Nd0 3.662989 1_565
Na0 Nd2 3.662989 1_555
Na0 Nd2 3.662989 1_565
Na0 Nd1 3.662989 1_656
Na0 Nd0 3.662989 1_555
Na0 Nd0 3.662989 1_556
Na0 Nd2 3.662989 1_655
Nd0 Nd1 3.662989 1_555
Nd0 Nd1 3.662989 1_655
Nd0 Nd2 3.662989 1_555
Nd0 Nd1 3.662989 1_545
Nd0 Nd1 3.662989 1_645
Nd0 Nd2 3.662989 1_554
Nd0 Nd2 3.662989 1_655
Nd0 Nd2 3.662989 1_654
Nd1 Nd2 3.662989 1_555
Nd1 Nd2 3.662989 1_565
Nd1 Nd2 3.662989 1_564
Nd1 Nd2 3.662989 1_554
