# generated using pymatgen
data_Ca3TiNiO6
_symmetry_space_group_name_H-M   'P 1'
_cell_length_a   6.46695079
_cell_length_b   6.46695079
_cell_length_c   6.46695084
_cell_angle_alpha   92.58198931
_cell_angle_beta   92.58198931
_cell_angle_gamma   92.58199783
_symmetry_Int_Tables_number   1
_chemical_formula_structural   Ca3TiNiO6
_chemical_formula_sum   'Ca6 Ti2 Ni2 O12'
_cell_volume   269.60791377
_cell_formula_units_Z   2
loop_
 _symmetry_equiv_pos_site_id
 _symmetry_equiv_pos_as_xyz
  1  'x, y, z'
loop_
 _atom_site_type_symbol
 _atom_site_label
 _atom_site_symmetry_multiplicity
 _atom_site_fract_x
 _atom_site_fract_y
 _atom_site_fract_z
 _atom_site_occupancy
  Ca  Ca0  1  0.89326200  0.60673800  0.25000000  1
  Ca  Ca1  1  0.75000000  0.10673800  0.39326200  1
  Ca  Ca2  1  0.39326200  0.75000000  0.10673800  1
  Ca  Ca3  1  0.10673800  0.39326200  0.75000000  1
  Ca  Ca4  1  0.25000000  0.89326200  0.60673800  1
  Ca  Ca5  1  0.60673800  0.25000000  0.89326200  1
  Ti  Ti0  1  0.50000000  0.50000000  0.50000000  1
  Ti  Ti1  1  0.00000000  0.00000000  0.00000000  1
  Ni  Ni0  1  0.75000000  0.75000000  0.75000000  1
  Ni  Ni1  1  0.25000000  0.25000000  0.25000000  1
  O  O0  1  0.41997100  0.20713500  0.54197200  1
  O  O1  1  0.58002900  0.79286500  0.45802800  1
  O  O2  1  0.45802800  0.58002900  0.79286500  1
  O  O3  1  0.79286500  0.45802800  0.58002900  1
  O  O4  1  0.91997100  0.04197200  0.70713500  1
  O  O5  1  0.70713500  0.91997100  0.04197200  1
  O  O6  1  0.95802800  0.29286500  0.08002900  1
  O  O7  1  0.29286500  0.08002900  0.95802800  1
  O  O8  1  0.08002900  0.95802800  0.29286500  1
  O  O9  1  0.20713500  0.54197200  0.41997100  1
  O  O10  1  0.54197200  0.41997100  0.20713500  1
  O  O11  1  0.04197200  0.70713500  0.91997100  1
loop_
_geom_bond_atom_site_label_1
_geom_bond_atom_site_label_2
_geom_bond_distance
_geom_bond_site_symmetry_2
Ca0 O9 2.328262 1_655
Ca0 O6 2.328262 1_555
Ca0 O11 2.480945 1_654
Ca0 O3 2.480945 1_555
Ca0 O8 2.522398 1_655
Ca0 O10 2.522398 1_555
Ca0 O1 2.771516 1_555
Ca0 O5 2.771516 1_555
Ca1 O1 2.328261 1_545
Ca1 O4 2.328262 1_555
Ca1 O0 2.480945 1_555
Ca1 O8 2.480945 1_645
Ca1 O3 2.522399 1_555
Ca1 O5 2.522399 1_545
Ca1 O6 2.771516 1_555
Ca1 O10 2.771517 1_555
Ca2 O5 2.328261 1_555
Ca2 O2 2.328262 1_554
Ca2 O7 2.480945 1_564
Ca2 O10 2.480945 1_555
Ca2 O11 2.522399 1_554
Ca2 O1 2.522399 1_555
Ca2 O9 2.771516 1_555
Ca2 O8 2.771517 1_555
Ca3 O11 2.328262 1_555
Ca3 O3 2.328262 1_455
Ca3 O9 2.480945 1_555
Ca3 O6 2.480945 1_456
Ca3 O2 2.522398 1_555
Ca3 O4 2.522398 1_455
Ca3 O7 2.771516 1_555
Ca3 O0 2.771516 1_555
Ca4 O0 2.328261 1_565
Ca4 O8 2.328262 1_555
Ca4 O1 2.480945 1_555
Ca4 O4 2.480945 1_465
Ca4 O9 2.522399 1_555
Ca4 O7 2.522399 1_565
Ca4 O11 2.771516 1_555
Ca4 O2 2.771517 1_555
Ca5 O7 2.328261 1_555
Ca5 O10 2.328262 1_556
Ca5 O5 2.480945 1_546
Ca5 O2 2.480945 1_555
Ca5 O6 2.522399 1_556
Ca5 O0 2.522399 1_555
Ca5 O3 2.771516 1_555
Ca5 O4 2.771517 1_555
Ni0 O4 2.176664 1_565
Ni0 O2 2.176664 1_555
Ni0 O5 2.176664 1_556
Ni0 O1 2.176664 1_555
Ni0 O11 2.176664 1_655
Ni0 O3 2.176664 1_555
Ni1 O8 2.176664 1_545
Ni1 O10 2.176664 1_555
Ni1 O7 2.176664 1_554
Ni1 O0 2.176664 1_555
Ni1 O6 2.176664 1_455
Ni1 O9 2.176664 1_555
O0 Ti0 1.974641 1_555
O1 Ti0 1.974641 1_555
O2 Ti0 1.974641 1_555
O3 Ti0 1.974641 1_555
O4 Ti1 1.974641 1_656
O5 Ti1 1.974641 1_665
O6 Ti1 1.974641 1_655
O7 Ti1 1.974641 1_556
O8 Ti1 1.974641 1_565
O9 Ti0 1.974641 1_555
O10 Ti0 1.974641 1_555
O11 Ti1 1.974641 1_566
