# generated using pymatgen
data_MoPt2
_symmetry_space_group_name_H-M   'P 1'
_cell_length_a   5.51500801
_cell_length_b   7.92827742
_cell_length_c   9.61372140
_cell_angle_alpha   114.35202784
_cell_angle_beta   106.66824856
_cell_angle_gamma   89.99999148
_symmetry_Int_Tables_number   1
_chemical_formula_structural   MoPt2
_chemical_formula_sum   'Mo8 Pt16'
_cell_volume   363.48047227
_cell_formula_units_Z   8
loop_
 _symmetry_equiv_pos_site_id
 _symmetry_equiv_pos_as_xyz
  1  'x, y, z'
loop_
 _atom_site_type_symbol
 _atom_site_label
 _atom_site_symmetry_multiplicity
 _atom_site_fract_x
 _atom_site_fract_y
 _atom_site_fract_z
 _atom_site_occupancy
  Mo  Mo0_0  1  0.00000000  0.00000000  0.00000000  1
  Mo  Mo0_1  1  0.00000000  0.00000000  0.50000000  1
  Mo  Mo0_2  1  0.00000000  0.50000000  0.00000000  1
  Mo  Mo0_3  1  0.00000000  0.50000000  0.50000000  1
  Mo  Mo0_4  1  0.50000000  0.00000000  0.00000000  1
  Mo  Mo0_5  1  0.50000000  0.00000000  0.50000000  1
  Mo  Mo0_6  1  0.50000000  0.50000000  0.00000000  1
  Mo  Mo0_7  1  0.50000000  0.50000000  0.50000000  1
  Pt  Pt0_0  1  0.33167079  0.33167078  0.16334207  1
  Pt  Pt0_1  1  0.33167079  0.33167079  0.66334207  1
  Pt  Pt0_2  1  0.33167079  0.83167079  0.16334208  1
  Pt  Pt0_3  1  0.33167078  0.83167078  0.66334207  1
  Pt  Pt0_4  1  0.83167078  0.33167078  0.16334207  1
  Pt  Pt0_5  1  0.83167078  0.33167079  0.66334207  1
  Pt  Pt0_6  1  0.83167078  0.83167078  0.16334207  1
  Pt  Pt0_7  1  0.83167078  0.83167078  0.66334207  1
  Pt  Pt1_0  1  0.16832922  0.16832921  0.33665793  1
  Pt  Pt1_1  1  0.16832921  0.16832921  0.83665793  1
  Pt  Pt1_2  1  0.16832922  0.66832921  0.33665793  1
  Pt  Pt1_3  1  0.16832921  0.66832921  0.83665792  1
  Pt  Pt1_4  1  0.66832921  0.16832921  0.33665793  1
  Pt  Pt1_5  1  0.66832921  0.16832921  0.83665793  1
  Pt  Pt1_6  1  0.66832921  0.66832921  0.33665792  1
  Pt  Pt1_7  1  0.66832921  0.66832921  0.83665793  1
loop_
_geom_bond_atom_site_label_1
_geom_bond_atom_site_label_2
_geom_bond_distance
_geom_bond_site_symmetry_2
Mo0_0 Mo0_4 2.757504 1_455
Mo0_0 Mo0_4 2.757504 1_555
Mo0_0 Pt0_0 2.770076 1_555
Mo0_0 Pt1_7 2.770076 1_444
Mo0_0 Pt0_4 2.770077 1_455
Mo0_0 Pt1_3 2.770077 1_544
Mo0_0 Pt1_5 2.770079 1_454
Mo0_0 Pt0_2 2.770079 1_545
Mo0_0 Pt1_1 2.770080 1_554
Mo0_0 Pt0_6 2.770080 1_445
Mo0_0 Pt0_7 2.798626 1_444
Mo0_0 Pt1_0 2.798626 1_555
Mo0_1 Mo0_5 2.757504 1_555
Mo0_1 Mo0_5 2.757504 1_455
Mo0_1 Pt0_1 2.770076 1_555
Mo0_1 Pt1_6 2.770076 1_445
Mo0_1 Pt1_2 2.770077 1_545
Mo0_1 Pt0_5 2.770077 1_455
Mo0_1 Pt1_4 2.770079 1_455
Mo0_1 Pt0_3 2.770079 1_545
Mo0_1 Pt1_0 2.770080 1_555
Mo0_1 Pt0_7 2.770080 1_445
Mo0_1 Pt1_1 2.798626 1_555
Mo0_1 Pt0_6 2.798626 1_445
Mo0_2 Mo0_6 2.757504 1_455
Mo0_2 Mo0_6 2.757504 1_555
Mo0_2 Pt1_5 2.770076 1_454
Mo0_2 Pt0_2 2.770076 1_555
Mo0_2 Pt0_6 2.770077 1_455
Mo0_2 Pt1_1 2.770077 1_554
Mo0_2 Pt1_7 2.770079 1_454
Mo0_2 Pt0_0 2.770079 1_555
Mo0_2 Pt0_4 2.770080 1_455
Mo0_2 Pt1_3 2.770080 1_554
Mo0_2 Pt1_2 2.798626 1_555
Mo0_2 Pt0_5 2.798626 1_454
Mo0_3 Mo0_7 2.757504 1_555
Mo0_3 Mo0_7 2.757504 1_455
Mo0_3 Pt0_3 2.770076 1_555
Mo0_3 Pt1_4 2.770076 1_455
Mo0_3 Pt1_0 2.770077 1_555
Mo0_3 Pt0_7 2.770077 1_455
Mo0_3 Pt1_6 2.770079 1_455
Mo0_3 Pt0_1 2.770079 1_555
Mo0_3 Pt1_2 2.770080 1_555
Mo0_3 Pt0_5 2.770080 1_455
Mo0_3 Pt1_3 2.798626 1_555
Mo0_3 Pt0_4 2.798626 1_455
Mo0_4 Pt0_4 2.770076 1_555
Mo0_4 Pt1_3 2.770076 1_544
Mo0_4 Pt0_0 2.770077 1_555
Mo0_4 Pt1_7 2.770077 1_544
Mo0_4 Pt1_1 2.770079 1_554
Mo0_4 Pt0_6 2.770079 1_545
Mo0_4 Pt1_5 2.770080 1_554
Mo0_4 Pt0_2 2.770080 1_545
Mo0_4 Pt0_3 2.798626 1_544
Mo0_4 Pt1_4 2.798626 1_555
Mo0_5 Pt1_2 2.770076 1_545
Mo0_5 Pt0_5 2.770076 1_555
Mo0_5 Pt0_1 2.770077 1_555
Mo0_5 Pt1_6 2.770077 1_545
Mo0_5 Pt1_0 2.770079 1_555
Mo0_5 Pt0_7 2.770079 1_545
Mo0_5 Pt1_4 2.770080 1_555
Mo0_5 Pt0_3 2.770080 1_545
Mo0_5 Pt0_2 2.798626 1_545
Mo0_5 Pt1_5 2.798626 1_555
Mo0_6 Pt1_1 2.770076 1_554
Mo0_6 Pt0_6 2.770076 1_555
Mo0_6 Pt1_5 2.770077 1_554
Mo0_6 Pt0_2 2.770077 1_555
Mo0_6 Pt0_4 2.770079 1_555
Mo0_6 Pt1_3 2.770079 1_554
Mo0_6 Pt0_0 2.770080 1_555
Mo0_6 Pt1_7 2.770080 1_554
Mo0_6 Pt1_6 2.798626 1_555
Mo0_6 Pt0_1 2.798626 1_554
Mo0_7 Pt0_7 2.770076 1_555
Mo0_7 Pt1_0 2.770076 1_555
Mo0_7 Pt0_3 2.770077 1_555
Mo0_7 Pt1_4 2.770077 1_555
Mo0_7 Pt1_2 2.770079 1_555
Mo0_7 Pt0_5 2.770079 1_555
Mo0_7 Pt1_6 2.770080 1_555
Mo0_7 Pt0_1 2.770080 1_555
Mo0_7 Pt0_0 2.798626 1_555
Mo0_7 Pt1_7 2.798626 1_555
Pt0_0 Pt1_1 2.715715 1_554
Pt0_0 Pt0_4 2.757504 1_555
Pt0_0 Pt0_4 2.757504 1_455
Pt0_0 Pt1_0 2.811645 1_555
Pt0_0 Pt1_4 2.811648 1_555
Pt0_0 Pt1_2 2.811650 1_555
Pt0_0 Pt1_6 2.811654 1_555
Pt0_1 Pt1_0 2.715715 1_555
Pt0_1 Pt0_5 2.757504 1_555
Pt0_1 Pt0_5 2.757504 1_455
Pt0_1 Pt1_1 2.811645 1_555
Pt0_1 Pt1_5 2.811648 1_555
Pt0_1 Pt1_3 2.811650 1_555
Pt0_1 Pt1_7 2.811654 1_555
Pt0_2 Pt1_3 2.715715 1_554
Pt0_2 Pt0_6 2.757504 1_555
Pt0_2 Pt0_6 2.757504 1_455
Pt0_2 Pt1_2 2.811645 1_555
Pt0_2 Pt1_6 2.811648 1_555
Pt0_2 Pt1_0 2.811650 1_565
Pt0_2 Pt1_4 2.811654 1_565
Pt0_3 Pt1_2 2.715715 1_555
Pt0_3 Pt0_7 2.757504 1_555
Pt0_3 Pt0_7 2.757504 1_455
Pt0_3 Pt1_3 2.811645 1_555
Pt0_3 Pt1_7 2.811648 1_555
Pt0_3 Pt1_1 2.811650 1_565
Pt0_3 Pt1_5 2.811654 1_565
Pt0_4 Pt1_5 2.715715 1_554
Pt0_4 Pt1_4 2.811645 1_555
Pt0_4 Pt1_0 2.811648 1_655
Pt0_4 Pt1_6 2.811650 1_555
Pt0_4 Pt1_2 2.811654 1_655
Pt0_5 Pt1_4 2.715715 1_555
Pt0_5 Pt1_5 2.811645 1_555
Pt0_5 Pt1_1 2.811648 1_655
Pt0_5 Pt1_7 2.811650 1_555
Pt0_5 Pt1_3 2.811654 1_655
Pt0_6 Pt1_7 2.715715 1_554
Pt0_6 Pt1_6 2.811645 1_555
Pt0_6 Pt1_2 2.811648 1_655
Pt0_6 Pt1_4 2.811650 1_565
Pt0_6 Pt1_0 2.811654 1_665
Pt0_7 Pt1_6 2.715715 1_555
Pt0_7 Pt1_7 2.811645 1_555
Pt0_7 Pt1_3 2.811648 1_655
Pt0_7 Pt1_5 2.811650 1_565
Pt0_7 Pt1_1 2.811654 1_665
Pt1_0 Pt1_4 2.757504 1_455
Pt1_0 Pt1_4 2.757504 1_555
Pt1_1 Pt1_5 2.757504 1_555
Pt1_1 Pt1_5 2.757504 1_455
Pt1_2 Pt1_6 2.757504 1_555
Pt1_2 Pt1_6 2.757504 1_455
Pt1_3 Pt1_7 2.757504 1_555
Pt1_3 Pt1_7 2.757504 1_455
