# generated using pymatgen
data_Np(SiPd)2
_symmetry_space_group_name_H-M   'P 1'
_cell_length_a   4.10951146
_cell_length_b   4.10951163
_cell_length_c   5.88292357
_cell_angle_alpha   110.44294231
_cell_angle_beta   110.44294514
_cell_angle_gamma   90.00001219
_symmetry_Int_Tables_number   1
_chemical_formula_structural   Np(SiPd)2
_chemical_formula_sum   'Np1 Si2 Pd2'
_cell_volume   86.38507710
_cell_formula_units_Z   1
loop_
 _symmetry_equiv_pos_site_id
 _symmetry_equiv_pos_as_xyz
  1  'x, y, z'
loop_
 _atom_site_type_symbol
 _atom_site_label
 _atom_site_symmetry_multiplicity
 _atom_site_fract_x
 _atom_site_fract_y
 _atom_site_fract_z
 _atom_site_occupancy
  Np  Np0  1  0.00000000  0.00000000  -0.00000000  1
  Si  Si0  1  0.61453258  0.61453258  0.22906616  1
  Si  Si1  1  0.38546742  0.38546742  0.77093384  1
  Pd  Pd0  1  0.75000000  0.25000000  0.50000000  1
  Pd  Pd1  1  0.25000000  0.75000000  0.50000000  1
loop_
_geom_bond_atom_site_label_1
_geom_bond_atom_site_label_2
_geom_bond_distance
_geom_bond_site_symmetry_2
Np0 Si0 3.133197 1_555
Np0 Si1 3.133197 1_444
Np0 Si0 3.133200 1_545
Np0 Si1 3.133200 1_454
Np0 Si0 3.133200 1_455
Np0 Si1 3.133200 1_544
Np0 Si0 3.133202 1_445
Np0 Si1 3.133202 1_554
Np0 Pd0 3.280733 1_454
Np0 Pd1 3.280733 1_545
Np0 Pd1 3.280733 1_544
Np0 Pd0 3.280733 1_455
Np0 Pd0 3.280733 1_555
Np0 Pd1 3.280733 1_444
Np0 Pd1 3.280733 1_555
Np0 Pd0 3.280733 1_444
Si0 Si1 2.343415 1_554
Pd0 Si0 2.478435 1_555
Pd0 Si1 2.478435 1_555
Pd0 Si1 2.478438 1_655
Pd0 Si0 2.478439 1_545
Pd1 Si1 2.478435 1_555
Pd1 Si0 2.478435 1_555
Pd1 Si0 2.478438 1_455
Pd1 Si1 2.478439 1_565
