# generated using pymatgen
data_Sm2Fe17C3
_symmetry_space_group_name_H-M   'P 1'
_cell_length_a   6.52482190
_cell_length_b   6.52482190
_cell_length_c   6.52482171
_cell_angle_alpha   83.71865358
_cell_angle_beta   83.71865358
_cell_angle_gamma   83.71865715
_symmetry_Int_Tables_number   1
_chemical_formula_structural   Sm2Fe17C3
_chemical_formula_sum   'Sm2 Fe17 C3'
_cell_volume   273.11998735
_cell_formula_units_Z   1
loop_
 _symmetry_equiv_pos_site_id
 _symmetry_equiv_pos_as_xyz
  1  'x, y, z'
loop_
 _atom_site_type_symbol
 _atom_site_label
 _atom_site_symmetry_multiplicity
 _atom_site_fract_x
 _atom_site_fract_y
 _atom_site_fract_z
 _atom_site_occupancy
  Sm  Sm0  1  0.34531000  0.34531000  0.34531000  1
  Sm  Sm1  1  0.65468900  0.65468900  0.65468900  1
  Fe  Fe0  1  0.09500800  0.09500800  0.09500800  1
  Fe  Fe1  1  0.90499300  0.90499300  0.90499300  1
  Fe  Fe2  1  0.28426000  0.71573900  0.00000000  1
  Fe  Fe3  1  0.00000000  0.28426100  0.71573900  1
  Fe  Fe4  1  0.71574000  0.00000000  0.28425900  1
  Fe  Fe5  1  0.71573900  0.28426000  0.00000000  1
  Fe  Fe6  1  0.00000000  0.71574000  0.28425900  1
  Fe  Fe7  1  0.28426100  0.00000000  0.71573900  1
  Fe  Fe8  1  0.65824100  0.65824100  0.14223800  1
  Fe  Fe9  1  0.14223700  0.65824200  0.65824200  1
  Fe  Fe10  1  0.65824200  0.14223700  0.65824200  1
  Fe  Fe11  1  0.34175900  0.34175900  0.85776300  1
  Fe  Fe12  1  0.34175800  0.85776400  0.34175900  1
  Fe  Fe13  1  0.85776400  0.34175800  0.34175900  1
  Fe  Fe14  1  0.00000000  0.00000000  0.50000000  1
  Fe  Fe15  1  0.50000100  0.00000000  0.99999900  1
  Fe  Fe16  1  0.00000000  0.50000100  0.99999900  1
  C  C0  1  0.50000000  0.50000000  0.00000000  1
  C  C1  1  0.99999900  0.50000000  0.50000100  1
  C  C2  1  0.50000000  0.99999900  0.50000100  1
loop_
_geom_bond_atom_site_label_1
_geom_bond_atom_site_label_2
_geom_bond_distance
_geom_bond_site_symmetry_2
Fe0 Fe1 2.370758 1_444
Fe0 Fe12 2.656491 1_545
Fe0 Fe13 2.656491 1_455
Fe0 Fe11 2.656497 1_554
Fe0 Fe14 2.668065 1_555
Fe0 Fe16 2.668072 1_554
Fe0 Fe15 2.668072 1_554
Fe0 Fe4 2.744545 1_455
Fe0 Fe6 2.744545 1_545
Fe0 Fe2 2.744553 1_545
Fe0 Fe5 2.744553 1_455
Fe0 Fe7 2.744555 1_554
Fe0 Fe3 2.744555 1_554
Fe0 Sm0 3.122940 1_555
Fe1 Fe9 2.656495 1_655
Fe1 Fe10 2.656495 1_565
Fe1 Fe8 2.656505 1_556
Fe1 Fe16 2.668062 1_655
Fe1 Fe15 2.668062 1_565
Fe1 Fe14 2.668069 1_665
Fe1 Fe6 2.744536 1_656
Fe1 Fe4 2.744536 1_566
Fe1 Fe2 2.744544 1_656
Fe1 Fe5 2.744544 1_566
Fe1 Fe7 2.744550 1_665
Fe1 Fe3 2.744550 1_665
Fe1 Sm1 3.122965 1_555
Fe10 Fe15 2.480494 1_555
Fe10 Fe14 2.480502 1_655
Fe11 Fe15 2.480505 1_555
Fe11 Fe16 2.480505 1_555
Fe12 Fe14 2.480498 1_565
Fe12 Fe15 2.480513 1_564
Fe13 Fe14 2.480498 1_655
Fe13 Fe16 2.480513 1_654
Fe14 Fe3 2.448044 1_555
Fe14 Fe7 2.448044 1_555
Fe14 Fe6 2.448047 1_545
Fe14 Fe4 2.448047 1_455
Fe14 Fe9 2.480502 1_545
Fe14 Sm0 3.359630 1_555
Fe14 Sm1 3.359638 1_445
Fe15 Fe5 2.448036 1_556
Fe15 Fe4 2.448039 1_556
Fe15 Fe7 2.448043 1_555
Fe15 Fe2 2.448052 1_546
Fe15 Fe8 2.480507 1_546
Fe15 Sm1 3.359633 1_545
Fe15 Sm0 3.359636 1_556
Fe16 Fe2 2.448036 1_556
Fe16 Fe6 2.448039 1_556
Fe16 Fe3 2.448043 1_555
Fe16 Fe5 2.448052 1_456
Fe16 Fe9 2.480494 1_555
Fe16 Fe8 2.480507 1_456
Fe16 Sm1 3.359633 1_455
Fe16 Sm0 3.359636 1_556
C0 Fe2 1.878677 1_555
C0 Fe5 1.878677 1_555
C0 Fe11 1.909461 1_554
C0 Fe8 1.909465 1_555
C0 Sm0 2.518243 1_555
C0 Sm1 2.518244 1_554
C1 Fe3 1.878668 1_655
C1 Fe6 1.878690 1_655
C1 Fe13 1.909461 1_555
C1 Fe9 1.909469 1_655
C1 Sm1 2.518237 1_555
C1 Sm0 2.518251 1_655
C2 Fe7 1.878668 1_565
C2 Fe4 1.878690 1_565
C2 Fe12 1.909461 1_555
C2 Fe10 1.909469 1_565
C2 Sm1 2.518237 1_555
C2 Sm0 2.518251 1_565
