# generated using pymatgen
data_Sc2PdAu
_symmetry_space_group_name_H-M   'P 1'
_cell_length_a   4.72966748
_cell_length_b   4.72966748
_cell_length_c   4.72966748
_cell_angle_alpha   60.00000000
_cell_angle_beta   60.00000000
_cell_angle_gamma   60.00000000
_symmetry_Int_Tables_number   1
_chemical_formula_structural   Sc2PdAu
_chemical_formula_sum   'Sc2 Pd1 Au1'
_cell_volume   74.81295844
_cell_formula_units_Z   1
loop_
 _symmetry_equiv_pos_site_id
 _symmetry_equiv_pos_as_xyz
  1  'x, y, z'
loop_
 _atom_site_type_symbol
 _atom_site_label
 _atom_site_symmetry_multiplicity
 _atom_site_fract_x
 _atom_site_fract_y
 _atom_site_fract_z
 _atom_site_occupancy
  Sc  Sc0  1  -0.00000000  -0.00000000  -0.00000000  1
  Sc  Sc1  1  0.49999900  0.49999900  0.49999900  1
  Pd  Pd0  1  0.75000000  0.75000000  0.75000000  1
  Au  Au0  1  0.25000000  0.25000000  0.25000000  1
loop_
_geom_bond_atom_site_label_1
_geom_bond_atom_site_label_2
_geom_bond_distance
_geom_bond_site_symmetry_2
Pd0 Sc1 2.896314 1_655
Pd0 Sc1 2.896314 1_556
Pd0 Sc1 2.896314 1_565
Pd0 Sc0 2.896318 1_566
Pd0 Sc0 2.896318 1_666
Pd0 Sc0 2.896318 1_656
Pd0 Sc0 2.896318 1_665
Pd0 Sc1 2.896330 1_555
Au0 Sc1 2.896306 1_555
Au0 Sc0 2.896318 1_655
Au0 Sc0 2.896318 1_555
Au0 Sc0 2.896318 1_556
Au0 Sc0 2.896318 1_565
Au0 Sc1 2.896322 1_554
Au0 Sc1 2.896322 1_545
Au0 Sc1 2.896322 1_455
