# generated using pymatgen
data_B2(CN2)3
_symmetry_space_group_name_H-M   'P 1'
_cell_length_a   7.16882285
_cell_length_b   7.16882285
_cell_length_c   7.16882295
_cell_angle_alpha   71.66410497
_cell_angle_beta   71.66410497
_cell_angle_gamma   71.66410547
_symmetry_Int_Tables_number   1
_chemical_formula_structural   B2(CN2)3
_chemical_formula_sum   'B4 C6 N12'
_cell_volume   322.31428431
_cell_formula_units_Z   2
loop_
 _symmetry_equiv_pos_site_id
 _symmetry_equiv_pos_as_xyz
  1  'x, y, z'
loop_
 _atom_site_type_symbol
 _atom_site_label
 _atom_site_symmetry_multiplicity
 _atom_site_fract_x
 _atom_site_fract_y
 _atom_site_fract_z
 _atom_site_occupancy
  B  B0  1  0.09945200  0.09945200  0.09945200  1
  B  B1  1  0.90054800  0.90054800  0.90054800  1
  B  B2  1  0.40054800  0.40054800  0.40054800  1
  B  B3  1  0.59945200  0.59945200  0.59945200  1
  C  C0  1  0.17536100  0.75000000  0.32463900  1
  C  C1  1  0.82463900  0.25000000  0.67536100  1
  C  C2  1  0.25000000  0.67536100  0.82463900  1
  C  C3  1  0.67536100  0.82463900  0.25000000  1
  C  C4  1  0.32463900  0.17536100  0.75000000  1
  C  C5  1  0.75000000  0.32463900  0.17536100  1
  N  N0  1  0.90336700  0.07086600  0.72954400  1
  N  N1  1  0.42913400  0.59663300  0.77045600  1
  N  N2  1  0.72954400  0.90336700  0.07086600  1
  N  N3  1  0.57086600  0.40336700  0.22954400  1
  N  N4  1  0.09663300  0.92913400  0.27045600  1
  N  N5  1  0.22954400  0.57086600  0.40336700  1
  N  N6  1  0.92913400  0.27045600  0.09663300  1
  N  N7  1  0.27045600  0.09663300  0.92913400  1
  N  N8  1  0.07086600  0.72954400  0.90336700  1
  N  N9  1  0.40336700  0.22954400  0.57086600  1
  N  N10  1  0.59663300  0.77045600  0.42913400  1
  N  N11  1  0.77045600  0.42913400  0.59663300  1
loop_
_geom_bond_atom_site_label_1
_geom_bond_atom_site_label_2
_geom_bond_distance
_geom_bond_site_symmetry_2
B0 N6 1.432556 1_455
B0 N4 1.432556 1_545
B0 N7 1.432556 1_554
B1 N8 1.432556 1_655
B1 N0 1.432556 1_565
B1 N2 1.432556 1_556
B2 N5 1.432556 1_555
B2 N3 1.432556 1_555
B2 N9 1.432556 1_555
B3 N11 1.432556 1_555
B3 N1 1.432556 1_555
B3 N10 1.432556 1_555
C0 N5 1.219265 1_555
C0 N4 1.219265 1_555
C1 N11 1.219265 1_555
C1 N0 1.219265 1_555
C2 N8 1.219265 1_555
C2 N1 1.219265 1_555
C3 N2 1.219265 1_555
C3 N10 1.219265 1_555
C4 N9 1.219265 1_555
C4 N7 1.219265 1_555
C5 N6 1.219265 1_555
C5 N3 1.219265 1_555
