# generated using pymatgen
data_BaPIr
_symmetry_space_group_name_H-M   'P 1'
_cell_length_a   6.52228927
_cell_length_b   6.52228927
_cell_length_c   6.52228927
_cell_angle_alpha   90.00000000
_cell_angle_beta   90.00000000
_cell_angle_gamma   90.00000000
_symmetry_Int_Tables_number   1
_chemical_formula_structural   BaPIr
_chemical_formula_sum   'Ba4 P4 Ir4'
_cell_volume   277.45986387
_cell_formula_units_Z   4
loop_
 _symmetry_equiv_pos_site_id
 _symmetry_equiv_pos_as_xyz
  1  'x, y, z'
loop_
 _atom_site_type_symbol
 _atom_site_label
 _atom_site_symmetry_multiplicity
 _atom_site_fract_x
 _atom_site_fract_y
 _atom_site_fract_z
 _atom_site_occupancy
  Ba  Ba0  1  0.62788800  0.37211200  0.87211200  1
  Ba  Ba1  1  0.37211200  0.87211200  0.62788800  1
  Ba  Ba2  1  0.12788800  0.12788800  0.12788800  1
  Ba  Ba3  1  0.87211200  0.62788800  0.37211200  1
  P  P0  1  0.15351056  0.34648944  0.65351056  1
  P  P1  1  0.65351056  0.15351056  0.34648944  1
  P  P2  1  0.34648944  0.65351056  0.15351056  1
  P  P3  1  0.84648944  0.84648944  0.84648944  1
  Ir  Ir0  1  0.59691629  0.90308371  0.09691629  1
  Ir  Ir1  1  0.09691629  0.59691629  0.90308371  1
  Ir  Ir2  1  0.40308371  0.40308371  0.40308371  1
  Ir  Ir3  1  0.90308371  0.09691629  0.59691629  1
loop_
_geom_bond_atom_site_label_1
_geom_bond_atom_site_label_2
_geom_bond_distance
_geom_bond_site_symmetry_2
Ba0 Ir3 3.108868 1_555
Ba0 P2 3.178942 1_556
Ba0 Ir1 3.398380 1_655
Ba0 Ir0 3.398380 1_546
Ba0 Ir2 3.398380 1_555
Ba0 P1 3.410833 1_556
Ba0 P0 3.410833 1_555
Ba0 P3 3.410833 1_555
Ba1 Ir1 3.108868 1_555
Ba1 P1 3.178942 1_565
Ba1 Ir3 3.398380 1_465
Ba1 Ir0 3.398380 1_556
Ba1 Ir2 3.398380 1_555
Ba1 P0 3.410833 1_565
Ba1 P2 3.410833 1_555
Ba1 P3 3.410833 1_555
Ba2 Ir2 3.108868 1_555
Ba2 P3 3.178942 1_444
Ba2 Ir0 3.398380 1_545
Ba2 Ir3 3.398380 1_455
Ba2 Ir1 3.398380 1_554
Ba2 P2 3.410833 1_545
Ba2 P0 3.410833 1_554
Ba2 P1 3.410833 1_455
Ba3 Ir0 3.108868 1_555
Ba3 P0 3.178942 1_655
Ba3 Ir1 3.398380 1_654
Ba3 Ir3 3.398380 1_565
Ba3 Ir2 3.398380 1_555
Ba3 P2 3.410833 1_655
Ba3 P1 3.410833 1_555
Ba3 P3 3.410833 1_555
Ir0 P1 2.335337 1_565
Ir0 P3 2.335337 1_554
Ir0 P2 2.335337 1_555
Ir1 P2 2.335337 1_556
Ir1 P0 2.335337 1_555
Ir1 P3 2.335337 1_455
Ir2 P2 2.335337 1_555
Ir2 P0 2.335337 1_555
Ir2 P1 2.335337 1_555
Ir3 P0 2.335337 1_655
Ir3 P3 2.335337 1_545
Ir3 P1 2.335337 1_555
