# generated using pymatgen
data_LaWN3
_symmetry_space_group_name_H-M   'P 1'
_cell_length_a   4.04746576
_cell_length_b   4.04746576
_cell_length_c   4.04746648
_cell_angle_alpha   89.57171754
_cell_angle_beta   89.57171754
_cell_angle_gamma   89.57172064
_symmetry_Int_Tables_number   1
_chemical_formula_structural   LaWN3
_chemical_formula_sum   'La1 W1 N3'
_cell_volume   66.29998166
_cell_formula_units_Z   1
loop_
 _symmetry_equiv_pos_site_id
 _symmetry_equiv_pos_as_xyz
  1  'x, y, z'
loop_
 _atom_site_type_symbol
 _atom_site_label
 _atom_site_symmetry_multiplicity
 _atom_site_fract_x
 _atom_site_fract_y
 _atom_site_fract_z
 _atom_site_occupancy
  La  La0  1  0.04541800  0.04541800  0.04541800  1
  W  W0  1  0.55081400  0.55081400  0.55081400  1
  N  N0  1  0.59593000  0.08691800  0.59593000  1
  N  N1  1  0.08691800  0.59593000  0.59593000  1
  N  N2  1  0.59593000  0.59593000  0.08691800  1
loop_
_geom_bond_atom_site_label_1
_geom_bond_atom_site_label_2
_geom_bond_distance
_geom_bond_site_symmetry_2
La0 N2 2.586150 1_445
La0 N1 2.586150 1_544
La0 N0 2.586150 1_454
La0 N2 2.871102 1_455
La0 N2 2.871102 1_545
La0 N0 2.871102 1_554
La0 N1 2.871102 1_554
La0 N0 2.871102 1_455
La0 N1 2.871102 1_545
La0 N2 3.169098 1_555
La0 N1 3.169099 1_555
La0 N0 3.169099 1_555
N0 W0 1.892705 1_555
N0 W0 2.187999 1_545
N1 W0 1.892705 1_555
N1 W0 2.187999 1_455
N2 W0 1.892705 1_555
N2 W0 2.187999 1_554
