# generated using pymatgen
data_Tm3Mg
_symmetry_space_group_name_H-M   'P 1'
_cell_length_a   6.89600006
_cell_length_b   6.89600291
_cell_length_c   5.50031689
_cell_angle_alpha   89.99997445
_cell_angle_beta   90.00000915
_cell_angle_gamma   120.00027760
_symmetry_Int_Tables_number   1
_chemical_formula_structural   Tm3Mg
_chemical_formula_sum   'Tm6 Mg2'
_cell_volume   226.52274746
_cell_formula_units_Z   2
loop_
 _symmetry_equiv_pos_site_id
 _symmetry_equiv_pos_as_xyz
  1  'x, y, z'
loop_
 _atom_site_type_symbol
 _atom_site_label
 _atom_site_symmetry_multiplicity
 _atom_site_fract_x
 _atom_site_fract_y
 _atom_site_fract_z
 _atom_site_occupancy
  Tm  Tm0  1  0.16915359  0.33830536  0.24999953  1
  Tm  Tm1  1  0.16915279  0.83084685  0.24999922  1
  Tm  Tm2  1  0.66169506  0.83084709  0.24999949  1
  Tm  Tm3  1  0.33830489  0.16915354  0.74999935  1
  Tm  Tm4  1  0.83084713  0.16915353  0.74999933  1
  Tm  Tm5  1  0.83084676  0.66169478  0.74999965  1
  Mg  Mg0  1  0.66666718  0.33333375  0.24999970  1
  Mg  Mg1  1  0.33333359  0.66666709  0.74999973  1
loop_
_geom_bond_atom_site_label_1
_geom_bond_atom_site_label_2
_geom_bond_distance
_geom_bond_site_symmetry_2
Tm0 Tm2 3.396553 1_555
Tm0 Tm1 3.396570 1_555
Tm0 Tm3 3.412525 1_555
Tm0 Tm3 3.412528 1_554
Tm0 Tm4 3.412532 1_455
Tm0 Tm4 3.412534 1_454
Tm0 Tm2 3.499419 1_445
Tm0 Tm1 3.499433 1_545
Tm1 Tm2 3.396571 1_555
Tm1 Tm5 3.412530 1_454
Tm1 Tm3 3.412533 1_564
Tm1 Tm5 3.412533 1_455
Tm1 Tm3 3.412535 1_565
Tm1 Tm2 3.499429 1_455
Tm2 Tm5 3.412529 1_554
Tm2 Tm5 3.412530 1_555
Tm2 Tm4 3.412533 1_565
Tm2 Tm4 3.412533 1_564
Tm3 Tm5 3.396553 1_555
Tm3 Tm4 3.396571 1_555
Tm3 Tm5 3.499420 1_445
Tm3 Tm4 3.499429 1_455
Tm4 Tm5 3.396567 1_555
Tm4 Tm5 3.499436 1_545
Mg0 Tm4 3.377707 1_555
Mg0 Tm5 3.377707 1_554
Mg0 Tm5 3.377708 1_555
Mg0 Tm3 3.377710 1_555
Mg0 Tm4 3.377711 1_554
Mg0 Tm3 3.377713 1_554
Mg0 Tm1 3.448110 1_655
Mg0 Tm1 3.448119 1_545
Mg0 Tm0 3.448124 1_555
Mg0 Tm2 3.448125 1_555
Mg0 Tm0 3.448132 1_655
Mg0 Tm2 3.448133 1_545
Mg1 Tm2 3.377708 1_556
Mg1 Tm0 3.377708 1_556
Mg1 Tm1 3.377709 1_556
Mg1 Tm2 3.377709 1_555
Mg1 Tm0 3.377711 1_555
Mg1 Tm1 3.377712 1_555
Mg1 Tm4 3.448114 1_565
Mg1 Tm4 3.448114 1_455
Mg1 Tm5 3.448123 1_555
Mg1 Tm3 3.448124 1_555
Mg1 Tm5 3.448132 1_455
Mg1 Tm3 3.448135 1_565
