# generated using pymatgen
data_TiMo
_symmetry_space_group_name_H-M   'P 1'
_cell_length_a   11.61240849
_cell_length_b   11.61240849
_cell_length_c   11.61240849
_cell_angle_alpha   153.55395668
_cell_angle_beta   126.43455902
_cell_angle_gamma   60.70814840
_symmetry_Int_Tables_number   1
_chemical_formula_structural   TiMo
_chemical_formula_sum   'Ti16 Mo16'
_cell_volume   557.11152778
_cell_formula_units_Z   16
loop_
 _symmetry_equiv_pos_site_id
 _symmetry_equiv_pos_as_xyz
  1  'x, y, z'
loop_
 _atom_site_type_symbol
 _atom_site_label
 _atom_site_symmetry_multiplicity
 _atom_site_fract_x
 _atom_site_fract_y
 _atom_site_fract_z
 _atom_site_occupancy
  Ti  Ti0_0  1  0.05964100  0.43464100  0.12500000  1
  Ti  Ti0_1  1  0.05964100  0.43464100  0.62500000  1
  Ti  Ti0_2  1  0.05964100  0.93464100  0.12500000  1
  Ti  Ti0_3  1  0.05964100  0.93464100  0.62500000  1
  Ti  Ti0_4  1  0.55964100  0.43464100  0.12500000  1
  Ti  Ti0_5  1  0.55964100  0.43464100  0.62500000  1
  Ti  Ti0_6  1  0.55964100  0.93464100  0.12500000  1
  Ti  Ti0_7  1  0.55964100  0.93464100  0.62500000  1
  Ti  Ti1_0  1  0.44035900  0.06535900  0.37500000  1
  Ti  Ti1_1  1  0.44035900  0.06535900  0.87500000  1
  Ti  Ti1_2  1  0.44035900  0.56535900  0.37500000  1
  Ti  Ti1_3  1  0.44035900  0.56535900  0.87500000  1
  Ti  Ti1_4  1  0.94035900  0.06535900  0.37500000  1
  Ti  Ti1_5  1  0.94035900  0.06535900  0.87500000  1
  Ti  Ti1_6  1  0.94035900  0.56535900  0.37500000  1
  Ti  Ti1_7  1  0.94035900  0.56535900  0.87500000  1
  Mo  Mo0_0  1  0.31109850  0.43609850  0.37500000  1
  Mo  Mo0_1  1  0.31109850  0.43609850  0.87500000  1
  Mo  Mo0_2  1  0.31109850  0.93609850  0.37500000  1
  Mo  Mo0_3  1  0.31109850  0.93609850  0.87500000  1
  Mo  Mo0_4  1  0.81109850  0.43609850  0.37500000  1
  Mo  Mo0_5  1  0.81109850  0.43609850  0.87500000  1
  Mo  Mo0_6  1  0.81109850  0.93609850  0.37500000  1
  Mo  Mo0_7  1  0.81109850  0.93609850  0.87500000  1
  Mo  Mo1_0  1  0.18890150  0.06390150  0.12500000  1
  Mo  Mo1_1  1  0.18890150  0.06390150  0.62500000  1
  Mo  Mo1_2  1  0.18890150  0.56390150  0.12500000  1
  Mo  Mo1_3  1  0.18890150  0.56390150  0.62500000  1
  Mo  Mo1_4  1  0.68890150  0.06390150  0.12500000  1
  Mo  Mo1_5  1  0.68890150  0.06390150  0.62500000  1
  Mo  Mo1_6  1  0.68890150  0.56390150  0.12500000  1
  Mo  Mo1_7  1  0.68890150  0.56390150  0.62500000  1
loop_
_geom_bond_atom_site_label_1
_geom_bond_atom_site_label_2
_geom_bond_distance
_geom_bond_site_symmetry_2
Ti0_0 Ti0_3 2.656246 1_544
Ti0_0 Ti0_3 2.656246 1_555
Ti0_0 Ti1_6 2.734707 1_455
Ti0_0 Ti1_5 2.734707 1_454
Ti0_1 Ti0_2 2.656246 1_556
Ti0_1 Ti0_2 2.656246 1_545
Ti0_1 Ti1_7 2.734707 1_455
Ti0_1 Ti1_4 2.734707 1_455
Ti0_2 Ti1_7 2.734707 1_454
Ti0_2 Ti1_4 2.734707 1_465
Ti0_3 Ti1_6 2.734707 1_455
Ti0_3 Ti1_5 2.734707 1_465
Ti0_4 Ti0_7 2.656246 1_555
Ti0_4 Ti0_7 2.656246 1_544
Ti0_4 Ti1_2 2.734707 1_555
Ti0_4 Ti1_1 2.734707 1_554
Ti0_5 Ti0_6 2.656246 1_556
Ti0_5 Ti0_6 2.656246 1_545
Ti0_5 Ti1_0 2.734707 1_555
Ti0_5 Ti1_3 2.734707 1_555
Ti0_6 Ti1_3 2.734707 1_554
Ti0_6 Ti1_0 2.734707 1_565
Ti0_7 Ti1_2 2.734707 1_555
Ti0_7 Ti1_1 2.734707 1_565
Ti1_0 Ti1_3 2.656246 1_544
Ti1_0 Ti1_3 2.656246 1_555
Ti1_1 Ti1_2 2.656246 1_545
Ti1_1 Ti1_2 2.656246 1_556
Ti1_4 Ti1_7 2.656246 1_555
Ti1_4 Ti1_7 2.656246 1_544
Ti1_5 Ti1_6 2.656246 1_545
Ti1_5 Ti1_6 2.656246 1_556
Mo0_0 Ti1_2 2.590527 1_555
Mo0_0 Ti0_5 2.616487 1_555
Mo0_0 Ti0_0 2.616487 1_555
Mo0_0 Mo0_3 2.656246 1_544
Mo0_0 Mo0_3 2.656246 1_555
Mo0_0 Mo1_0 2.785920 1_555
Mo0_0 Mo1_3 2.785920 1_555
Mo0_1 Ti1_3 2.590527 1_555
Mo0_1 Ti0_1 2.616487 1_555
Mo0_1 Ti0_4 2.616487 1_556
Mo0_1 Mo0_2 2.656246 1_556
Mo0_1 Mo0_2 2.656246 1_545
Mo0_1 Mo1_2 2.785920 1_556
Mo0_1 Mo1_1 2.785920 1_555
Mo0_2 Ti1_0 2.590527 1_565
Mo0_2 Ti0_2 2.616487 1_555
Mo0_2 Ti0_7 2.616487 1_555
Mo0_2 Mo1_2 2.785920 1_555
Mo0_2 Mo1_1 2.785920 1_565
Mo0_3 Ti1_1 2.590527 1_565
Mo0_3 Ti0_6 2.616487 1_556
Mo0_3 Ti0_3 2.616487 1_555
Mo0_3 Mo1_0 2.785920 1_566
Mo0_3 Mo1_3 2.785920 1_555
Mo0_4 Ti1_6 2.590527 1_555
Mo0_4 Ti0_4 2.616487 1_555
Mo0_4 Ti0_1 2.616487 1_655
Mo0_4 Mo0_7 2.656246 1_544
Mo0_4 Mo0_7 2.656246 1_555
Mo0_4 Mo1_4 2.785920 1_555
Mo0_4 Mo1_7 2.785920 1_555
Mo0_5 Ti1_7 2.590527 1_555
Mo0_5 Ti0_5 2.616487 1_555
Mo0_5 Ti0_0 2.616487 1_656
Mo0_5 Mo0_6 2.656246 1_556
Mo0_5 Mo0_6 2.656246 1_545
Mo0_5 Mo1_6 2.785920 1_556
Mo0_5 Mo1_5 2.785920 1_555
Mo0_6 Ti1_4 2.590527 1_565
Mo0_6 Ti0_6 2.616487 1_555
Mo0_6 Ti0_3 2.616487 1_655
Mo0_6 Mo1_6 2.785920 1_555
Mo0_6 Mo1_5 2.785920 1_565
Mo0_7 Ti1_5 2.590527 1_565
Mo0_7 Ti0_7 2.616487 1_555
Mo0_7 Ti0_2 2.616487 1_656
Mo0_7 Mo1_4 2.785920 1_566
Mo0_7 Mo1_7 2.785920 1_555
Mo1_0 Ti0_2 2.590527 1_545
Mo1_0 Ti1_0 2.616487 1_555
Mo1_0 Ti1_5 2.616487 1_454
Mo1_0 Mo1_3 2.656246 1_544
Mo1_0 Mo1_3 2.656246 1_555
Mo1_1 Ti0_3 2.590527 1_545
Mo1_1 Ti1_4 2.616487 1_455
Mo1_1 Ti1_1 2.616487 1_555
Mo1_1 Mo1_2 2.656246 1_545
Mo1_1 Mo1_2 2.656246 1_556
Mo1_2 Ti0_0 2.590527 1_555
Mo1_2 Ti1_7 2.616487 1_454
Mo1_2 Ti1_2 2.616487 1_555
Mo1_3 Ti0_1 2.590527 1_555
Mo1_3 Ti1_3 2.616487 1_555
Mo1_3 Ti1_6 2.616487 1_455
Mo1_4 Ti0_6 2.590527 1_545
Mo1_4 Ti1_1 2.616487 1_554
Mo1_4 Ti1_4 2.616487 1_555
Mo1_4 Mo1_7 2.656246 1_544
Mo1_4 Mo1_7 2.656246 1_555
Mo1_5 Ti0_7 2.590527 1_545
Mo1_5 Ti1_5 2.616487 1_555
Mo1_5 Ti1_0 2.616487 1_555
Mo1_5 Mo1_6 2.656246 1_556
Mo1_5 Mo1_6 2.656246 1_545
Mo1_6 Ti0_4 2.590527 1_555
Mo1_6 Ti1_6 2.616487 1_555
Mo1_6 Ti1_3 2.616487 1_554
Mo1_7 Ti0_5 2.590527 1_555
Mo1_7 Ti1_2 2.616487 1_555
Mo1_7 Ti1_7 2.616487 1_555
