# generated using pymatgen
data_Na3Be
_symmetry_space_group_name_H-M   'P 1'
_cell_length_a   5.77359375
_cell_length_b   5.77359375
_cell_length_c   5.77359375
_cell_angle_alpha   132.30513556
_cell_angle_beta   132.30513556
_cell_angle_gamma   69.74752330
_symmetry_Int_Tables_number   1
_chemical_formula_structural   Na3Be
_chemical_formula_sum   'Na3 Be1'
_cell_volume   103.23921591
_cell_formula_units_Z   1
loop_
 _symmetry_equiv_pos_site_id
 _symmetry_equiv_pos_as_xyz
  1  'x, y, z'
loop_
 _atom_site_type_symbol
 _atom_site_label
 _atom_site_symmetry_multiplicity
 _atom_site_fract_x
 _atom_site_fract_y
 _atom_site_fract_z
 _atom_site_occupancy
  Na  Na0  1  0.75000000  0.25000000  0.50000000  1
  Na  Na1  1  0.25000000  0.75000000  0.50000000  1
  Na  Na2  1  0.50000000  0.50000000  0.00000000  1
  Be  Be0  1  0.00000000  0.00000000  0.00000000  1
loop_
_geom_bond_atom_site_label_1
_geom_bond_atom_site_label_2
_geom_bond_distance
_geom_bond_site_symmetry_2
Na0 Na1 3.301169 1_544
Na0 Na1 3.301169 1_645
Na0 Na1 3.301169 1_555
Na0 Na1 3.301169 1_656
Na0 Na2 3.325361 1_545
Na0 Na2 3.325361 1_555
Na0 Na2 3.325361 1_556
Na0 Na2 3.325361 1_656
Na1 Na2 3.325361 1_455
Na1 Na2 3.325361 1_556
Na1 Na2 3.325361 1_555
Na1 Na2 3.325361 1_566
Be0 Na2 3.301169 1_556
Be0 Na2 3.301169 1_545
Be0 Na2 3.301169 1_444
Be0 Na2 3.301169 1_455
Be0 Na0 3.325361 1_455
Be0 Na0 3.325361 1_454
Be0 Na1 3.325361 1_544
Be0 Na1 3.325361 1_444
Be0 Na0 3.325361 1_555
Be0 Na1 3.325361 1_545
Be0 Na1 3.325361 1_555
Be0 Na0 3.325361 1_444
