# generated using pymatgen
data_TaCu3Te4
_symmetry_space_group_name_H-M   'P 1'
_cell_length_a   5.95981266
_cell_length_b   5.95981266
_cell_length_c   5.95981266
_cell_angle_alpha   90.00000000
_cell_angle_beta   90.00000000
_cell_angle_gamma   90.00000000
_symmetry_Int_Tables_number   1
_chemical_formula_structural   TaCu3Te4
_chemical_formula_sum   'Ta1 Cu3 Te4'
_cell_volume   211.68877278
_cell_formula_units_Z   1
loop_
 _symmetry_equiv_pos_site_id
 _symmetry_equiv_pos_as_xyz
  1  'x, y, z'
loop_
 _atom_site_type_symbol
 _atom_site_label
 _atom_site_symmetry_multiplicity
 _atom_site_fract_x
 _atom_site_fract_y
 _atom_site_fract_z
 _atom_site_occupancy
  Ta  Ta0  1  0.00000000  0.00000000  0.00000000  1
  Cu  Cu0  1  0.00000000  0.50000000  0.00000000  1
  Cu  Cu1  1  0.50000000  0.00000000  0.00000000  1
  Cu  Cu2  1  0.00000000  0.00000000  0.50000000  1
  Te  Te0  1  0.25647736  0.74352264  0.74352264  1
  Te  Te1  1  0.25647736  0.25647736  0.25647736  1
  Te  Te2  1  0.74352264  0.25647736  0.74352264  1
  Te  Te3  1  0.74352264  0.74352264  0.25647736  1
loop_
_geom_bond_atom_site_label_1
_geom_bond_atom_site_label_2
_geom_bond_distance
_geom_bond_site_symmetry_2
Ta0 Te1 2.647538 1_555
Ta0 Te2 2.647538 1_454
Ta0 Te0 2.647538 1_544
Ta0 Te3 2.647538 1_445
Cu0 Te2 2.603726 1_454
Cu0 Te0 2.603726 1_554
Cu0 Te3 2.603726 1_455
Cu0 Te1 2.603726 1_555
Cu0 Ta0 2.979906 1_565
Cu0 Ta0 2.979906 1_555
Cu1 Te0 2.603726 1_544
Cu1 Te3 2.603726 1_545
Cu1 Te2 2.603726 1_554
Cu1 Te1 2.603726 1_555
Cu1 Ta0 2.979906 1_655
Cu1 Ta0 2.979906 1_555
Cu2 Te2 2.603726 1_455
Cu2 Te3 2.603726 1_445
Cu2 Te1 2.603726 1_555
Cu2 Te0 2.603726 1_545
Cu2 Ta0 2.979906 1_556
Cu2 Ta0 2.979906 1_555
