# generated using pymatgen
data_ScTaFe2
_symmetry_space_group_name_H-M   'P 1'
_cell_length_a   4.31816144
_cell_length_b   4.31817820
_cell_length_c   4.31825192
_cell_angle_alpha   60.02114264
_cell_angle_beta   60.02117585
_cell_angle_gamma   60.02223224
_symmetry_Int_Tables_number   1
_chemical_formula_structural   ScTaFe2
_chemical_formula_sum   'Sc1 Ta1 Fe2'
_cell_volume   56.96448816
_cell_formula_units_Z   1
loop_
 _symmetry_equiv_pos_site_id
 _symmetry_equiv_pos_as_xyz
  1  'x, y, z'
loop_
 _atom_site_type_symbol
 _atom_site_label
 _atom_site_symmetry_multiplicity
 _atom_site_fract_x
 _atom_site_fract_y
 _atom_site_fract_z
 _atom_site_occupancy
  Sc  Sc0  1  0.25000499  0.24999518  0.24999831  1
  Ta  Ta0  1  0.75000887  0.74999114  0.74999238  1
  Fe  Fe0  1  0.99995339  0.99996596  0.99996372  1
  Fe  Fe1  1  0.50003575  0.50004972  0.50004859  1
loop_
_geom_bond_atom_site_label_1
_geom_bond_atom_site_label_2
_geom_bond_distance
_geom_bond_site_symmetry_2
Fe0 Ta0 2.643529 1_555
Fe0 Sc0 2.644322 1_666
Fe0 Sc0 2.644868 1_566
Fe0 Sc0 2.644954 1_665
Fe0 Sc0 2.644956 1_656
Fe0 Ta0 2.645148 1_565
Fe0 Ta0 2.645177 1_556
Fe0 Ta0 2.645245 1_655
Fe1 Ta0 2.643415 1_555
Fe1 Sc0 2.644393 1_555
Fe1 Sc0 2.644867 1_565
Fe1 Sc0 2.644899 1_556
Fe1 Sc0 2.644941 1_655
Fe1 Ta0 2.645144 1_455
Fe1 Ta0 2.645266 1_545
Fe1 Ta0 2.645274 1_554
