# generated using pymatgen
data_DyCuSeO
_symmetry_space_group_name_H-M   'P 1'
_cell_length_a   3.88800700
_cell_length_b   3.88800700
_cell_length_c   8.77260600
_cell_angle_alpha   90.00000000
_cell_angle_beta   90.00000000
_cell_angle_gamma   90.00000000
_symmetry_Int_Tables_number   1
_chemical_formula_structural   DyCuSeO
_chemical_formula_sum   'Dy2 Cu2 Se2 O2'
_cell_volume   132.61196210
_cell_formula_units_Z   2
loop_
 _symmetry_equiv_pos_site_id
 _symmetry_equiv_pos_as_xyz
  1  'x, y, z'
loop_
 _atom_site_type_symbol
 _atom_site_label
 _atom_site_symmetry_multiplicity
 _atom_site_fract_x
 _atom_site_fract_y
 _atom_site_fract_z
 _atom_site_occupancy
  Dy  Dy0  1  0.00000000  0.50000000  0.87153600  1
  Dy  Dy1  1  0.50000000  0.00000000  0.12846400  1
  Cu  Cu0  1  0.00000000  0.00000000  0.50000000  1
  Cu  Cu1  1  0.50000000  0.50000000  0.50000000  1
  Se  Se0  1  0.50000000  0.00000000  0.68314900  1
  Se  Se1  1  0.00000000  0.50000000  0.31685100  1
  O  O0  1  0.50000000  0.50000000  0.00000000  1
  O  O1  1  0.00000000  0.00000000  0.00000000  1
loop_
_geom_bond_atom_site_label_1
_geom_bond_atom_site_label_2
_geom_bond_distance
_geom_bond_site_symmetry_2
Dy0 O1 2.247042 1_556
Dy0 O0 2.247042 1_556
Dy0 O0 2.247042 1_456
Dy0 O1 2.247042 1_566
Dy0 Se0 3.207730 1_555
Dy0 Se0 3.207730 1_565
Dy0 Se0 3.207730 1_465
Dy0 Se0 3.207730 1_455
Dy1 O1 2.247042 1_655
Dy1 O1 2.247042 1_555
Dy1 O0 2.247042 1_545
Dy1 O0 2.247042 1_555
Dy1 Se1 3.207730 1_645
Dy1 Se1 3.207730 1_555
Dy1 Se1 3.207730 1_655
Dy1 Se1 3.207730 1_545
Cu0 Se1 2.522026 1_555
Cu0 Se1 2.522026 1_545
Cu0 Se0 2.522026 1_455
Cu0 Se0 2.522026 1_555
Cu1 Se1 2.522026 1_555
Cu1 Se1 2.522026 1_655
Cu1 Se0 2.522026 1_555
Cu1 Se0 2.522026 1_565
