# generated using pymatgen
data_Rb3Mg
_symmetry_space_group_name_H-M   'P 1'
_cell_length_a   17.10517962
_cell_length_b   17.10517962
_cell_length_c   17.10517962
_cell_angle_alpha   145.76094741
_cell_angle_beta   128.56540041
_cell_angle_gamma   63.24959141
_symmetry_Int_Tables_number   1
_chemical_formula_structural   Rb3Mg
_chemical_formula_sum   'Rb24 Mg8'
_cell_volume   2177.38950590
_cell_formula_units_Z   8
loop_
 _symmetry_equiv_pos_site_id
 _symmetry_equiv_pos_as_xyz
  1  'x, y, z'
loop_
 _atom_site_type_symbol
 _atom_site_label
 _atom_site_symmetry_multiplicity
 _atom_site_fract_x
 _atom_site_fract_y
 _atom_site_fract_z
 _atom_site_occupancy
  Rb  Rb0_0  1  0.37974200  0.35431650  0.02542550  1
  Rb  Rb0_1  1  0.37974200  0.35431650  0.52542550  1
  Rb  Rb0_2  1  0.37974200  0.85431650  0.02542550  1
  Rb  Rb0_3  1  0.37974200  0.85431650  0.52542550  1
  Rb  Rb0_4  1  0.87974200  0.35431650  0.02542550  1
  Rb  Rb0_5  1  0.87974200  0.35431650  0.52542550  1
  Rb  Rb0_6  1  0.87974200  0.85431650  0.02542550  1
  Rb  Rb0_7  1  0.87974200  0.85431650  0.52542550  1
  Rb  Rb1_0  1  0.04519150  0.25000000  0.29519150  1
  Rb  Rb1_1  1  0.04519150  0.25000000  0.79519150  1
  Rb  Rb1_2  1  0.04519150  0.75000000  0.29519150  1
  Rb  Rb1_3  1  0.04519150  0.75000000  0.79519150  1
  Rb  Rb1_4  1  0.54519150  0.25000000  0.29519150  1
  Rb  Rb1_5  1  0.54519150  0.25000000  0.79519150  1
  Rb  Rb1_6  1  0.54519150  0.75000000  0.29519150  1
  Rb  Rb1_7  1  0.54519150  0.75000000  0.79519150  1
  Rb  Rb2_0  1  0.17110950  0.14568350  0.02542550  1
  Rb  Rb2_1  1  0.17110950  0.14568350  0.52542550  1
  Rb  Rb2_2  1  0.17110950  0.64568350  0.02542550  1
  Rb  Rb2_3  1  0.17110950  0.64568350  0.52542550  1
  Rb  Rb2_4  1  0.67110950  0.14568350  0.02542550  1
  Rb  Rb2_5  1  0.67110950  0.14568350  0.52542550  1
  Rb  Rb2_6  1  0.67110950  0.64568350  0.02542550  1
  Rb  Rb2_7  1  0.67110950  0.64568350  0.52542550  1
  Mg  Mg0_0  1  0.32062200  0.00000000  0.32062200  1
  Mg  Mg0_1  1  0.32062200  0.00000000  0.82062200  1
  Mg  Mg0_2  1  0.32062200  0.50000000  0.32062200  1
  Mg  Mg0_3  1  0.32062200  0.50000000  0.82062200  1
  Mg  Mg0_4  1  0.82062200  0.00000000  0.32062200  1
  Mg  Mg0_5  1  0.82062200  0.00000000  0.82062200  1
  Mg  Mg0_6  1  0.82062200  0.50000000  0.32062200  1
  Mg  Mg0_7  1  0.82062200  0.50000000  0.82062200  1
loop_
_geom_bond_atom_site_label_1
_geom_bond_atom_site_label_2
_geom_bond_distance
_geom_bond_site_symmetry_2
Rb0_0 Rb1_1 4.573340 1_554
Rb0_0 Rb1_5 4.943078 1_554
Rb0_0 Rb1_6 4.943078 1_555
Rb0_0 Rb1_4 5.027059 1_555
Rb0_1 Rb1_0 4.573340 1_555
Rb0_1 Rb1_4 4.943078 1_555
Rb0_1 Rb1_7 4.943078 1_555
Rb0_1 Rb1_5 5.027059 1_555
Rb0_2 Rb1_3 4.573340 1_554
Rb0_2 Rb1_7 4.943078 1_554
Rb0_2 Rb1_4 4.943078 1_565
Rb0_2 Rb1_6 5.027059 1_555
Rb0_3 Rb1_2 4.573340 1_555
Rb0_3 Rb1_5 4.943078 1_565
Rb0_3 Rb1_6 4.943078 1_555
Rb0_3 Rb1_7 5.027059 1_555
Rb0_4 Rb1_5 4.573340 1_554
Rb0_4 Rb1_1 4.943078 1_654
Rb0_4 Rb1_2 4.943078 1_655
Rb0_4 Rb1_0 5.027059 1_655
Rb0_5 Rb1_4 4.573340 1_555
Rb0_5 Rb1_0 4.943078 1_655
Rb0_5 Rb1_3 4.943078 1_655
Rb0_5 Rb1_1 5.027059 1_655
Rb0_6 Rb1_7 4.573340 1_554
Rb0_6 Rb1_3 4.943078 1_654
Rb0_6 Rb1_0 4.943078 1_665
Rb0_6 Rb1_2 5.027059 1_655
Rb0_7 Rb1_6 4.573340 1_555
Rb0_7 Rb1_1 4.943078 1_665
Rb0_7 Rb1_2 4.943078 1_655
Rb0_7 Rb1_3 5.027059 1_655
Rb1_0 Rb2_1 4.573338 1_555
Rb1_0 Rb2_3 4.943083 1_555
Rb1_0 Rb2_0 4.943086 1_555
Rb1_0 Rb2_4 5.027051 1_455
Rb1_0 Rb1_3 5.035184 1_544
Rb1_0 Rb1_3 5.035184 1_555
Rb1_1 Rb2_0 4.573338 1_556
Rb1_1 Rb2_2 4.943083 1_556
Rb1_1 Rb2_1 4.943086 1_555
Rb1_1 Rb2_5 5.027051 1_455
Rb1_1 Rb1_2 5.035184 1_556
Rb1_1 Rb1_2 5.035184 1_545
Rb1_2 Rb2_3 4.573338 1_555
Rb1_2 Rb2_1 4.943083 1_565
Rb1_2 Rb2_2 4.943086 1_555
Rb1_2 Rb2_6 5.027051 1_455
Rb1_3 Rb2_2 4.573338 1_556
Rb1_3 Rb2_0 4.943083 1_566
Rb1_3 Rb2_3 4.943086 1_555
Rb1_3 Rb2_7 5.027051 1_455
Rb1_4 Rb2_5 4.573338 1_555
Rb1_4 Rb2_7 4.943083 1_555
Rb1_4 Rb2_4 4.943086 1_555
Rb1_4 Rb2_0 5.027051 1_555
Rb1_4 Rb1_7 5.035184 1_544
Rb1_4 Rb1_7 5.035184 1_555
Rb1_5 Rb2_4 4.573338 1_556
Rb1_5 Rb2_6 4.943083 1_556
Rb1_5 Rb2_5 4.943086 1_555
Rb1_5 Rb2_1 5.027051 1_555
Rb1_5 Rb1_6 5.035184 1_556
Rb1_5 Rb1_6 5.035184 1_545
Rb1_6 Rb2_7 4.573338 1_555
Rb1_6 Rb2_5 4.943083 1_565
Rb1_6 Rb2_6 4.943086 1_555
Rb1_6 Rb2_2 5.027051 1_555
Rb1_7 Rb2_6 4.573338 1_556
Rb1_7 Rb2_4 4.943083 1_566
Rb1_7 Rb2_7 4.943086 1_555
Rb1_7 Rb2_3 5.027051 1_555
Mg0_0 Rb2_1 4.002797 1_555
Mg0_0 Rb2_2 4.002800 1_545
Mg0_0 Rb0_1 4.002805 1_555
Mg0_0 Rb0_2 4.002805 1_545
Mg0_0 Rb1_6 4.177555 1_545
Mg0_0 Rb1_5 4.177555 1_555
Mg0_1 Rb2_0 4.002797 1_556
Mg0_1 Rb2_3 4.002800 1_545
Mg0_1 Rb0_3 4.002805 1_545
Mg0_1 Rb0_0 4.002805 1_556
Mg0_1 Rb1_7 4.177555 1_545
Mg0_1 Rb1_4 4.177555 1_556
Mg0_2 Rb2_3 4.002797 1_555
Mg0_2 Rb2_0 4.002800 1_555
Mg0_2 Rb0_0 4.002805 1_555
Mg0_2 Rb0_3 4.002805 1_555
Mg0_2 Rb1_4 4.177555 1_555
Mg0_2 Rb1_7 4.177555 1_555
Mg0_3 Rb2_2 4.002797 1_556
Mg0_3 Rb2_1 4.002800 1_555
Mg0_3 Rb0_1 4.002805 1_555
Mg0_3 Rb0_2 4.002805 1_556
Mg0_3 Rb1_5 4.177555 1_555
Mg0_3 Rb1_6 4.177555 1_556
Mg0_4 Rb2_5 4.002797 1_555
Mg0_4 Rb2_6 4.002800 1_545
Mg0_4 Rb0_6 4.002805 1_545
Mg0_4 Rb0_5 4.002805 1_555
Mg0_4 Rb1_2 4.177555 1_645
Mg0_4 Rb1_1 4.177555 1_655
Mg0_5 Rb2_4 4.002797 1_556
Mg0_5 Rb2_7 4.002800 1_545
Mg0_5 Rb0_7 4.002805 1_545
Mg0_5 Rb0_4 4.002805 1_556
Mg0_5 Rb1_3 4.177555 1_645
Mg0_5 Rb1_0 4.177555 1_656
Mg0_6 Rb2_7 4.002797 1_555
Mg0_6 Rb2_4 4.002800 1_555
Mg0_6 Rb0_4 4.002805 1_555
Mg0_6 Rb0_7 4.002805 1_555
Mg0_6 Rb1_0 4.177555 1_655
Mg0_6 Rb1_3 4.177555 1_655
Mg0_7 Rb2_6 4.002797 1_556
Mg0_7 Rb2_5 4.002800 1_555
Mg0_7 Rb0_5 4.002805 1_555
Mg0_7 Rb0_6 4.002805 1_556
Mg0_7 Rb1_1 4.177555 1_655
Mg0_7 Rb1_2 4.177555 1_656
