# generated using pymatgen
data_PaAgAu2
_symmetry_space_group_name_H-M   'P 1'
_cell_length_a   4.93564863
_cell_length_b   4.93564863
_cell_length_c   4.93564863
_cell_angle_alpha   58.84811848
_cell_angle_beta   58.84811848
_cell_angle_gamma   58.84811848
_symmetry_Int_Tables_number   1
_chemical_formula_structural   PaAgAu2
_chemical_formula_sum   'Pa1 Ag1 Au2'
_cell_volume   82.78348591
_cell_formula_units_Z   1
loop_
 _symmetry_equiv_pos_site_id
 _symmetry_equiv_pos_as_xyz
  1  'x, y, z'
loop_
 _atom_site_type_symbol
 _atom_site_label
 _atom_site_symmetry_multiplicity
 _atom_site_fract_x
 _atom_site_fract_y
 _atom_site_fract_z
 _atom_site_occupancy
  Pa  Pa0  1  0.74999800  0.74999800  0.74999800  1
  Ag  Ag0  1  0.25000100  0.25000100  0.25000100  1
  Au  Au0  1  0.99602344  0.99602344  0.99602344  1
  Au  Au1  1  0.50397656  0.50397656  0.50397656  1
loop_
_geom_bond_atom_site_label_1
_geom_bond_atom_site_label_2
_geom_bond_distance
_geom_bond_site_symmetry_2
Ag0 Au0 2.962345 1_445
Ag0 Au0 2.962345 1_544
Ag0 Au0 2.962345 1_454
Ag0 Au1 2.962353 1_554
Ag0 Au1 2.962353 1_545
Ag0 Au1 2.962353 1_455
Ag0 Au1 3.096978 1_555
Ag0 Au0 3.097002 1_444
Au0 Pa0 2.995422 1_556
Au0 Pa0 2.995422 1_655
Au0 Pa0 2.995422 1_565
Au0 Pa0 3.000034 1_555
Au1 Pa0 2.995440 1_455
Au1 Pa0 2.995440 1_554
Au1 Pa0 2.995440 1_545
Au1 Pa0 2.999985 1_555
