# generated using pymatgen
data_ZnSi(AgO2)2
_symmetry_space_group_name_H-M   'P 1'
_cell_length_a   5.57881800
_cell_length_b   5.53954500
_cell_length_c   8.87749451
_cell_angle_alpha   52.37256991
_cell_angle_beta   90.00000000
_cell_angle_gamma   90.00000000
_symmetry_Int_Tables_number   1
_chemical_formula_structural   ZnSi(AgO2)2
_chemical_formula_sum   'Zn2 Si2 Ag4 O8'
_cell_volume   217.28536853
_cell_formula_units_Z   2
loop_
 _symmetry_equiv_pos_site_id
 _symmetry_equiv_pos_as_xyz
  1  'x, y, z'
loop_
 _atom_site_type_symbol
 _atom_site_label
 _atom_site_symmetry_multiplicity
 _atom_site_fract_x
 _atom_site_fract_y
 _atom_site_fract_z
 _atom_site_occupancy
  Zn  Zn0  1  0.80625200  0.00871200  0.49695600  1
  Zn  Zn1  1  0.19374800  0.00871200  0.99695600  1
  Si  Si0  1  0.69235600  0.26095500  0.74537500  1
  Si  Si1  1  0.30764400  0.26095500  0.24537500  1
  Ag  Ag0  1  0.20262100  0.52133300  0.49432900  1
  Ag  Ag1  1  0.79737900  0.52133300  0.99432900  1
  Ag  Ag2  1  0.30364500  0.74853100  0.75065700  1
  Ag  Ag3  1  0.69635500  0.74853100  0.25065700  1
  O  O0  1  0.28687300  0.58900700  0.21048000  1
  O  O1  1  0.71312700  0.58900700  0.71048000  1
  O  O2  1  0.79453800  0.30064300  0.55634900  1
  O  O3  1  0.20546200  0.30064300  0.05634900  1
  O  O4  1  0.59084900  0.14787000  0.28054100  1
  O  O5  1  0.14851800  0.99994900  0.43631300  1
  O  O6  1  0.40915100  0.14787000  0.78054100  1
  O  O7  1  0.85148200  0.99994900  0.93631300  1
loop_
_geom_bond_atom_site_label_1
_geom_bond_atom_site_label_2
_geom_bond_distance
_geom_bond_site_symmetry_2
Ag0 O0 2.357483 1_555
Ag0 O6 2.375910 1_555
Ag0 O5 2.391331 1_555
Ag0 O2 2.481696 1_455
Ag1 O1 2.357483 1_555
Ag1 O4 2.375910 1_556
Ag1 O7 2.391331 1_555
Ag1 O3 2.481696 1_656
Ag2 O3 2.366212 1_556
Ag2 O5 2.393821 1_555
Ag2 O6 2.455009 1_565
Ag2 O1 2.551780 1_555
Ag3 O2 2.366212 1_555
Ag3 O7 2.393821 1_554
Ag3 O4 2.455009 1_565
Ag3 O0 2.551780 1_555
O0 Si1 1.650585 1_555
O0 Zn1 1.971609 1_564
O1 Si0 1.650585 1_555
O1 Zn0 1.971609 1_565
O2 Si0 1.654919 1_555
O2 Zn0 1.984602 1_555
O3 Si1 1.654919 1_555
O3 Zn1 1.984602 1_554
O4 Si1 1.657507 1_555
O4 Zn0 1.980156 1_555
O5 Si1 1.661091 1_565
O5 Zn0 1.992500 1_465
O6 Si0 1.657507 1_555
O6 Zn1 1.980156 1_555
O7 Si0 1.661091 1_565
O7 Zn1 1.992500 1_665
