# generated using pymatgen
data_YReN3
_symmetry_space_group_name_H-M   'P 1'
_cell_length_a   3.93828200
_cell_length_b   3.95056680
_cell_length_c   3.95057015
_cell_angle_alpha   89.70689621
_cell_angle_beta   89.06256047
_cell_angle_gamma   88.10488658
_symmetry_Int_Tables_number   1
_chemical_formula_structural   YReN3
_chemical_formula_sum   'Y1 Re1 N3'
_cell_volume   61.42224830
_cell_formula_units_Z   1
loop_
 _symmetry_equiv_pos_site_id
 _symmetry_equiv_pos_as_xyz
  1  'x, y, z'
loop_
 _atom_site_type_symbol
 _atom_site_label
 _atom_site_symmetry_multiplicity
 _atom_site_fract_x
 _atom_site_fract_y
 _atom_site_fract_z
 _atom_site_occupancy
  Y  Y0  1  0.93452400  0.95960000  0.98080800  1
  Re  Re0  1  0.52120400  0.50248900  0.50283400  1
  N  N0  1  0.53671200  0.50764400  0.00448600  1
  N  N1  1  0.02931500  0.51389600  0.50757100  1
  N  N2  1  0.53900300  0.00636600  0.50526800  1
loop_
_geom_bond_atom_site_label_1
_geom_bond_atom_site_label_2
_geom_bond_distance
_geom_bond_site_symmetry_2
N0 Re0 1.968729 1_555
N0 Re0 1.983980 1_554
N0 Y0 2.414486 1_554
N0 Y0 2.631312 1_544
N0 Y0 2.923458 1_454
N0 Y0 3.266451 1_444
N1 Re0 1.936018 1_555
N1 Re0 2.003476 1_455
N1 Y0 2.588886 1_455
N1 Y0 2.741313 1_454
N1 Y0 2.901568 1_445
N1 Y0 3.064514 1_444
N2 Re0 1.958882 1_555
N2 Re0 1.994227 1_545
N2 Y0 2.462314 1_545
N2 Y0 2.575382 1_544
N2 Y0 3.018273 1_445
N2 Y0 3.191969 1_444
