# generated using pymatgen
data_PrZnSbO
_symmetry_space_group_name_H-M   'P 1'
_cell_length_a   4.20950300
_cell_length_b   4.20950300
_cell_length_c   9.66900500
_cell_angle_alpha   90.00000000
_cell_angle_beta   90.00000000
_cell_angle_gamma   90.00000000
_symmetry_Int_Tables_number   1
_chemical_formula_structural   PrZnSbO
_chemical_formula_sum   'Pr2 Zn2 Sb2 O2'
_cell_volume   171.33395164
_cell_formula_units_Z   2
loop_
 _symmetry_equiv_pos_site_id
 _symmetry_equiv_pos_as_xyz
  1  'x, y, z'
loop_
 _atom_site_type_symbol
 _atom_site_label
 _atom_site_symmetry_multiplicity
 _atom_site_fract_x
 _atom_site_fract_y
 _atom_site_fract_z
 _atom_site_occupancy
  Pr  Pr0  1  0.50000000  0.00000000  0.11773900  1
  Pr  Pr1  1  0.00000000  0.50000000  0.88226100  1
  Zn  Zn0  1  0.00000000  0.00000000  0.50000000  1
  Zn  Zn1  1  0.50000000  0.50000000  0.50000000  1
  Sb  Sb0  1  0.50000000  0.00000000  0.68134800  1
  Sb  Sb1  1  0.00000000  0.50000000  0.31865200  1
  O  O0  1  0.00000000  0.00000000  0.00000000  1
  O  O1  1  0.50000000  0.50000000  0.00000000  1
loop_
_geom_bond_atom_site_label_1
_geom_bond_atom_site_label_2
_geom_bond_distance
_geom_bond_site_symmetry_2
Pr0 Sb1 3.554401 1_655
Pr0 Sb1 3.554401 1_555
Pr0 Sb1 3.554401 1_545
Pr0 Sb1 3.554401 1_645
Pr1 Sb0 3.554401 1_565
Pr1 Sb0 3.554401 1_455
Pr1 Sb0 3.554401 1_465
Pr1 Sb0 3.554401 1_555
Sb0 Zn0 2.739449 1_555
Sb0 Zn1 2.739449 1_555
Sb0 Zn1 2.739449 1_545
Sb0 Zn0 2.739449 1_655
Sb1 Zn0 2.739449 1_565
Sb1 Zn1 2.739449 1_455
Sb1 Zn0 2.739449 1_555
Sb1 Zn1 2.739449 1_555
O0 Pr1 2.392901 1_554
O0 Pr0 2.392901 1_455
O0 Pr0 2.392901 1_555
O0 Pr1 2.392901 1_544
O1 Pr1 2.392901 1_654
O1 Pr1 2.392901 1_554
O1 Pr0 2.392901 1_565
O1 Pr0 2.392901 1_555
