# generated using pymatgen
data_Re3N
_symmetry_space_group_name_H-M   'P 1'
_cell_length_a   5.64455944
_cell_length_b   5.64456120
_cell_length_c   14.29621510
_cell_angle_alpha   89.99997758
_cell_angle_beta   89.99998951
_cell_angle_gamma   119.99999945
_symmetry_Int_Tables_number   1
_chemical_formula_structural   Re3N
_chemical_formula_sum   'Re24 N8'
_cell_volume   394.46815148
_cell_formula_units_Z   8
loop_
 _symmetry_equiv_pos_site_id
 _symmetry_equiv_pos_as_xyz
  1  'x, y, z'
loop_
 _atom_site_type_symbol
 _atom_site_label
 _atom_site_symmetry_multiplicity
 _atom_site_fract_x
 _atom_site_fract_y
 _atom_site_fract_z
 _atom_site_occupancy
  Re  Re0_0  1  0.16666698  0.33333391  0.09944006  1
  Re  Re0_1  1  0.16666698  0.33333391  0.59944006  1
  Re  Re0_2  1  0.16666698  0.83333391  0.09944006  1
  Re  Re0_3  1  0.16666699  0.83333392  0.59944006  1
  Re  Re0_4  1  0.66666698  0.33333391  0.09944006  1
  Re  Re0_5  1  0.66666698  0.33333391  0.59944006  1
  Re  Re0_6  1  0.66666698  0.83333392  0.09944006  1
  Re  Re0_7  1  0.66666698  0.83333392  0.59944006  1
  Re  Re1_0  1  0.16666697  0.33333380  0.40055987  1
  Re  Re1_1  1  0.16666697  0.33333380  0.90055987  1
  Re  Re1_2  1  0.16666696  0.83333380  0.40055987  1
  Re  Re1_3  1  0.16666697  0.83333380  0.90055987  1
  Re  Re1_4  1  0.66666696  0.33333380  0.40055987  1
  Re  Re1_5  1  0.66666696  0.33333380  0.90055987  1
  Re  Re1_6  1  0.66666696  0.83333380  0.40055987  1
  Re  Re1_7  1  0.66666697  0.83333380  0.90055987  1
  Re  Re2_0  1  0.33333486  0.16666665  0.25000013  1
  Re  Re2_1  1  0.33333486  0.16666665  0.75000013  1
  Re  Re2_2  1  0.33333486  0.66666665  0.25000013  1
  Re  Re2_3  1  0.33333486  0.66666665  0.75000013  1
  Re  Re2_4  1  0.83333486  0.16666665  0.25000013  1
  Re  Re2_5  1  0.83333486  0.16666665  0.75000013  1
  Re  Re2_6  1  0.83333486  0.66666665  0.25000013  1
  Re  Re2_7  1  0.83333486  0.66666665  0.75000013  1
  N  N0_0  1  0.33333319  0.16666764  0.49999993  1
  N  N0_1  1  0.33333319  0.16666764  0.99999993  1
  N  N0_2  1  0.33333318  0.66666764  0.49999993  1
  N  N0_3  1  0.33333319  0.66666764  0.99999993  1
  N  N0_4  1  0.83333318  0.16666764  0.49999993  1
  N  N0_5  1  0.83333318  0.16666764  0.99999993  1
  N  N0_6  1  0.83333318  0.66666764  0.49999993  1
  N  N0_7  1  0.83333318  0.66666764  0.99999993  1
loop_
_geom_bond_atom_site_label_1
_geom_bond_atom_site_label_2
_geom_bond_distance
_geom_bond_site_symmetry_2
Re0_0 Re2_4 2.699641 1_455
Re0_0 Re2_2 2.699644 1_555
Re0_0 Re2_0 2.699650 1_555
Re0_1 Re2_5 2.699641 1_455
Re0_1 Re2_3 2.699644 1_555
Re0_1 Re2_1 2.699650 1_555
Re0_2 Re2_6 2.699641 1_455
Re0_2 Re2_0 2.699644 1_565
Re0_2 Re2_2 2.699650 1_555
Re0_3 Re2_7 2.699641 1_455
Re0_3 Re2_1 2.699644 1_565
Re0_3 Re2_3 2.699650 1_555
Re0_4 Re2_0 2.699641 1_555
Re0_4 Re2_6 2.699644 1_555
Re0_4 Re2_4 2.699650 1_555
Re0_5 Re2_1 2.699641 1_555
Re0_5 Re2_7 2.699644 1_555
Re0_5 Re2_5 2.699650 1_555
Re0_6 Re2_2 2.699641 1_555
Re0_6 Re2_4 2.699644 1_565
Re0_6 Re2_6 2.699650 1_555
Re0_7 Re2_3 2.699641 1_555
Re0_7 Re2_5 2.699644 1_565
Re0_7 Re2_7 2.699650 1_555
Re1_0 Re2_4 2.699638 1_455
Re1_0 Re2_2 2.699639 1_555
Re1_0 Re2_0 2.699646 1_555
Re1_1 Re2_5 2.699638 1_455
Re1_1 Re2_3 2.699639 1_555
Re1_1 Re2_1 2.699646 1_555
Re1_2 Re2_6 2.699638 1_455
Re1_2 Re2_0 2.699639 1_565
Re1_2 Re2_2 2.699646 1_555
Re1_3 Re2_7 2.699638 1_455
Re1_3 Re2_1 2.699639 1_565
Re1_3 Re2_3 2.699646 1_555
Re1_4 Re2_0 2.699638 1_555
Re1_4 Re2_6 2.699639 1_555
Re1_4 Re2_4 2.699646 1_555
Re1_5 Re2_1 2.699638 1_555
Re1_5 Re2_7 2.699639 1_555
Re1_5 Re2_5 2.699646 1_555
Re1_6 Re2_2 2.699638 1_555
Re1_6 Re2_4 2.699639 1_565
Re1_6 Re2_6 2.699646 1_555
Re1_7 Re2_3 2.699638 1_555
Re1_7 Re2_5 2.699639 1_565
Re1_7 Re2_7 2.699646 1_555
Re2_0 Re2_4 2.822280 1_555
Re2_0 Re2_4 2.822280 1_455
Re2_0 Re2_6 2.822280 1_445
Re2_0 Re2_6 2.822280 1_555
Re2_0 Re2_2 2.822281 1_555
Re2_0 Re2_2 2.822281 1_545
Re2_1 Re2_5 2.822280 1_555
Re2_1 Re2_5 2.822280 1_455
Re2_1 Re2_7 2.822280 1_445
Re2_1 Re2_7 2.822280 1_555
Re2_1 Re2_3 2.822281 1_545
Re2_1 Re2_3 2.822281 1_555
Re2_2 Re2_6 2.822280 1_555
Re2_2 Re2_6 2.822280 1_455
Re2_2 Re2_4 2.822280 1_455
Re2_2 Re2_4 2.822280 1_565
Re2_3 Re2_7 2.822280 1_555
Re2_3 Re2_7 2.822280 1_455
Re2_3 Re2_5 2.822280 1_565
Re2_3 Re2_5 2.822280 1_455
Re2_4 Re2_6 2.822281 1_545
Re2_4 Re2_6 2.822281 1_555
Re2_5 Re2_7 2.822281 1_545
Re2_5 Re2_7 2.822281 1_555
N0_0 Re1_0 2.162421 1_555
N0_0 Re0_1 2.162423 1_555
N0_0 Re1_4 2.162426 1_555
N0_0 Re0_3 2.162427 1_545
N0_0 Re1_2 2.162428 1_545
N0_0 Re0_5 2.162428 1_555
N0_1 Re1_1 2.162421 1_555
N0_1 Re0_0 2.162423 1_556
N0_1 Re1_5 2.162426 1_555
N0_1 Re0_2 2.162427 1_546
N0_1 Re1_3 2.162428 1_545
N0_1 Re0_4 2.162428 1_556
N0_2 Re1_2 2.162421 1_555
N0_2 Re0_3 2.162423 1_555
N0_2 Re1_6 2.162426 1_555
N0_2 Re0_1 2.162427 1_555
N0_2 Re1_0 2.162428 1_555
N0_2 Re0_7 2.162428 1_555
N0_3 Re1_3 2.162421 1_555
N0_3 Re0_2 2.162423 1_556
N0_3 Re1_7 2.162426 1_555
N0_3 Re0_0 2.162427 1_556
N0_3 Re1_1 2.162428 1_555
N0_3 Re0_6 2.162428 1_556
N0_4 Re1_4 2.162421 1_555
N0_4 Re0_5 2.162423 1_555
N0_4 Re1_0 2.162426 1_655
N0_4 Re0_7 2.162427 1_545
N0_4 Re1_6 2.162428 1_545
N0_4 Re0_1 2.162428 1_655
N0_5 Re1_5 2.162421 1_555
N0_5 Re0_4 2.162423 1_556
N0_5 Re1_1 2.162426 1_655
N0_5 Re0_6 2.162427 1_546
N0_5 Re1_7 2.162428 1_545
N0_5 Re0_0 2.162428 1_656
N0_6 Re1_6 2.162421 1_555
N0_6 Re0_7 2.162423 1_555
N0_6 Re1_2 2.162426 1_655
N0_6 Re0_5 2.162427 1_555
N0_6 Re1_4 2.162428 1_555
N0_6 Re0_3 2.162428 1_655
N0_7 Re1_7 2.162421 1_555
N0_7 Re0_6 2.162423 1_556
N0_7 Re1_3 2.162426 1_655
N0_7 Re0_4 2.162427 1_556
N0_7 Re1_5 2.162428 1_555
N0_7 Re0_2 2.162428 1_656
