# generated using pymatgen
data_AlP
_symmetry_space_group_name_H-M   'P 1'
_cell_length_a   7.74850000
_cell_length_b   7.74850000
_cell_length_c   12.13431500
_cell_angle_alpha   90.00000000
_cell_angle_beta   90.00000000
_cell_angle_gamma   90.00000000
_symmetry_Int_Tables_number   1
_chemical_formula_structural   AlP
_chemical_formula_sum   'Al4 P4'
_cell_volume   728.53519917
_cell_formula_units_Z   4
loop_
 _symmetry_equiv_pos_site_id
 _symmetry_equiv_pos_as_xyz
  1  'x, y, z'
loop_
 _atom_site_type_symbol
 _atom_site_label
 _atom_site_symmetry_multiplicity
 _atom_site_fract_x
 _atom_site_fract_y
 _atom_site_fract_z
 _atom_site_occupancy
  Al  Al0  1  0.35968900  0.14031100  0.50000000  1
  Al  Al1  1  0.14031100  0.64031100  0.50000000  1
  Al  Al2  1  0.85968900  0.35968900  0.50000000  1
  Al  Al3  1  0.64031100  0.85968900  0.50000000  1
  P  P0  1  0.15429900  0.34570100  0.50000000  1
  P  P1  1  0.84570100  0.65429900  0.50000000  1
  P  P2  1  0.65429900  0.15429900  0.50000000  1
  P  P3  1  0.34570100  0.84570100  0.50000000  1
loop_
_geom_bond_atom_site_label_1
_geom_bond_atom_site_label_2
_geom_bond_distance
_geom_bond_site_symmetry_2
Al0 P0 2.250671 1_555
Al0 P2 2.285357 1_555
Al0 P3 2.285357 1_545
Al1 P3 2.250671 1_555
Al1 P0 2.285357 1_555
Al1 P1 2.285357 1_455
Al2 P2 2.250671 1_555
Al2 P1 2.285357 1_555
Al2 P0 2.285357 1_655
Al3 P1 2.250671 1_555
Al3 P3 2.285357 1_555
Al3 P2 2.285357 1_565
