# generated using pymatgen
data_Li3AsO4
_symmetry_space_group_name_H-M   'P 1'
_cell_length_a   4.93826455
_cell_length_b   5.36614120
_cell_length_c   6.23230298
_cell_angle_alpha   90.00000000
_cell_angle_beta   90.00000000
_cell_angle_gamma   90.00000000
_symmetry_Int_Tables_number   1
_chemical_formula_structural   Li3AsO4
_chemical_formula_sum   'Li6 As2 O8'
_cell_volume   165.15244451
_cell_formula_units_Z   2
loop_
 _symmetry_equiv_pos_site_id
 _symmetry_equiv_pos_as_xyz
  1  'x, y, z'
loop_
 _atom_site_type_symbol
 _atom_site_label
 _atom_site_symmetry_multiplicity
 _atom_site_fract_x
 _atom_site_fract_y
 _atom_site_fract_z
 _atom_site_occupancy
  Li  Li0  1  0.00466892  0.16485011  0.50000000  1
  Li  Li1  1  0.50466892  0.83514989  -0.00000000  1
  Li  Li2  1  0.00413277  0.66908760  0.75231801  1
  Li  Li3  1  0.50413277  0.33091240  0.74768199  1
  Li  Li4  1  0.50413277  0.33091240  0.25231801  1
  Li  Li5  1  0.00413277  0.66908760  0.24768199  1
  As  As0  1  0.49746878  0.82979660  0.50000000  1
  As  As1  1  0.99746878  0.17020340  -0.00000000  1
  O  O0  1  0.65298771  0.17530454  -0.00000000  1
  O  O1  1  0.15298771  0.82469546  0.50000000  1
  O  O2  1  0.11075361  0.32005785  0.77653933  1
  O  O3  1  0.61075361  0.67994215  0.72346067  1
  O  O4  1  0.61075361  0.67994215  0.27653933  1
  O  O5  1  0.11075361  0.32005785  0.22346067  1
  O  O6  1  0.10830283  0.86993720  -0.00000000  1
  O  O7  1  0.60830283  0.13006280  0.50000000  1
loop_
_geom_bond_atom_site_label_1
_geom_bond_atom_site_label_2
_geom_bond_distance
_geom_bond_site_symmetry_2
Li0 O7 1.966242 1_455
Li0 O1 1.966787 1_545
Li0 O2 1.984561 1_555
Li0 O5 1.984561 1_555
Li1 O6 1.966242 1_555
Li1 O0 1.966787 1_565
Li1 O3 1.984561 1_554
Li1 O4 1.984561 1_555
Li2 O1 1.926246 1_555
Li2 O2 1.951391 1_555
Li2 O6 1.951677 1_556
Li2 O3 1.951787 1_455
Li3 O0 1.926246 1_556
Li3 O3 1.951391 1_555
Li3 O7 1.951677 1_555
Li3 O2 1.951787 1_555
Li4 O0 1.926246 1_555
Li4 O4 1.951391 1_555
Li4 O7 1.951677 1_555
Li4 O5 1.951787 1_555
Li5 O1 1.926246 1_555
Li5 O5 1.951391 1_555
Li5 O6 1.951677 1_555
Li5 O4 1.951787 1_455
As0 O1 1.701359 1_555
As0 O7 1.701694 1_565
As0 O4 1.702688 1_555
As0 O3 1.702688 1_555
As1 O0 1.701359 1_555
As1 O6 1.701694 1_645
As1 O5 1.702688 1_655
As1 O2 1.702688 1_654
