# generated using pymatgen
data_CsScBr3
_symmetry_space_group_name_H-M   'P 1'
_cell_length_a   5.51935200
_cell_length_b   5.52290300
_cell_length_c   5.52396809
_cell_angle_alpha   89.98971076
_cell_angle_beta   90.00000000
_cell_angle_gamma   90.00000000
_symmetry_Int_Tables_number   1
_chemical_formula_structural   CsScBr3
_chemical_formula_sum   'Cs1 Sc1 Br3'
_cell_volume   168.38626430
_cell_formula_units_Z   1
loop_
 _symmetry_equiv_pos_site_id
 _symmetry_equiv_pos_as_xyz
  1  'x, y, z'
loop_
 _atom_site_type_symbol
 _atom_site_label
 _atom_site_symmetry_multiplicity
 _atom_site_fract_x
 _atom_site_fract_y
 _atom_site_fract_z
 _atom_site_occupancy
  Cs  Cs0  1  0.50000000  0.99940500  0.99425300  1
  Sc  Sc0  1  0.00000000  0.50346100  0.48542600  1
  Br  Br0  1  0.50000000  0.50435000  0.48676700  1
  Br  Br1  1  0.00000000  0.49931800  0.98569600  1
  Br  Br2  1  0.00000000  0.00347000  0.48786000  1
loop_
_geom_bond_atom_site_label_1
_geom_bond_atom_site_label_2
_geom_bond_distance
_geom_bond_site_symmetry_2
Br0 Sc0 2.759690 1_655
Br0 Sc0 2.759690 1_555
Br0 Cs0 3.856772 1_554
Br0 Cs0 3.896377 1_544
Br0 Cs0 3.916245 1_555
Br0 Cs0 3.953869 1_545
Br1 Sc0 2.760592 1_556
Br1 Sc0 2.763566 1_555
Br1 Cs0 3.903967 1_445
Br1 Cs0 3.903967 1_545
Br1 Cs0 3.904659 1_555
Br1 Cs0 3.904659 1_455
Br2 Sc0 2.761432 1_555
Br2 Sc0 2.761536 1_545
Br2 Cs0 3.879570 1_544
Br2 Cs0 3.879570 1_444
Br2 Cs0 3.929526 1_445
Br2 Cs0 3.929526 1_545
