# generated using pymatgen
data_Li2UO4
_symmetry_space_group_name_H-M   'P 1'
_cell_length_a   5.09538494
_cell_length_b   6.04466583
_cell_length_c   10.49823805
_cell_angle_alpha   90.00000000
_cell_angle_beta   90.00000000
_cell_angle_gamma   90.00000000
_symmetry_Int_Tables_number   1
_chemical_formula_structural   Li2UO4
_chemical_formula_sum   'Li8 U4 O16'
_cell_volume   323.34467411
_cell_formula_units_Z   4
loop_
 _symmetry_equiv_pos_site_id
 _symmetry_equiv_pos_as_xyz
  1  'x, y, z'
loop_
 _atom_site_type_symbol
 _atom_site_label
 _atom_site_symmetry_multiplicity
 _atom_site_fract_x
 _atom_site_fract_y
 _atom_site_fract_z
 _atom_site_occupancy
  Li  Li0  1  0.54246345  0.75000000  0.92570613  1
  Li  Li1  1  0.04246345  0.25000000  0.57429387  1
  Li  Li2  1  0.45753655  0.25000000  0.07429387  1
  Li  Li3  1  0.95753655  0.75000000  0.42570613  1
  Li  Li4  1  0.50000000  -0.00000000  0.50000000  1
  Li  Li5  1  0.00000000  -0.00000000  0.00000000  1
  Li  Li6  1  0.50000000  0.50000000  0.50000000  1
  Li  Li7  1  0.00000000  0.50000000  0.00000000  1
  U  U0  1  0.98735265  0.75000000  0.73780480  1
  U  U1  1  0.48735265  0.25000000  0.76219520  1
  U  U2  1  0.01264735  0.25000000  0.26219520  1
  U  U3  1  0.51264735  0.75000000  0.23780480  1
  O  O0  1  0.17800793  0.75000000  0.89746206  1
  O  O1  1  0.22242320  0.25000000  0.41407880  1
  O  O2  1  0.27757680  0.25000000  0.91407880  1
  O  O3  1  0.72242320  0.75000000  0.08592120  1
  O  O4  1  0.26665966  0.01429585  0.16393938  1
  O  O5  1  0.76665966  0.98570415  0.33606062  1
  O  O6  1  0.73334034  0.51429585  0.83606062  1
  O  O7  1  0.23334034  0.48570415  0.66393938  1
  O  O8  1  0.73334034  0.98570415  0.83606062  1
  O  O9  1  0.23334034  0.01429585  0.66393938  1
  O  O10  1  0.26665966  0.48570415  0.16393938  1
  O  O11  1  0.76665966  0.51429585  0.33606062  1
  O  O12  1  0.82199207  0.25000000  0.10253794  1
  O  O13  1  0.32199207  0.75000000  0.39746206  1
  O  O14  1  0.77757680  0.75000000  0.58592120  1
  O  O15  1  0.67800793  0.25000000  0.60253794  1
loop_
_geom_bond_atom_site_label_1
_geom_bond_atom_site_label_2
_geom_bond_distance
_geom_bond_site_symmetry_2
Li0 O0 1.880564 1_555
Li0 O3 1.915690 1_556
Li0 O8 1.965085 1_555
Li0 O6 1.965085 1_555
Li1 O15 1.880564 1_455
Li1 O1 1.915690 1_555
Li1 O9 1.965085 1_555
Li1 O7 1.965085 1_555
Li2 O12 1.880564 1_555
Li2 O2 1.915690 1_554
Li2 O4 1.965085 1_555
Li2 O10 1.965085 1_555
Li3 O13 1.880564 1_655
Li3 O14 1.915690 1_555
Li3 O11 1.965085 1_555
Li3 O5 1.965085 1_555
Li4 O13 2.065209 1_545
Li4 O15 2.065209 1_555
Li4 O9 2.194475 1_555
Li4 O5 2.194475 1_545
Li4 O14 2.257805 1_545
Li4 O1 2.257805 1_555
Li5 O0 2.065209 1_544
Li5 O12 2.065209 1_455
Li5 O4 2.194475 1_555
Li5 O8 2.194475 1_444
Li5 O3 2.257805 1_445
Li5 O2 2.257805 1_554
Li6 O13 2.065209 1_555
Li6 O15 2.065209 1_555
Li6 O7 2.194475 1_555
Li6 O11 2.194475 1_555
Li6 O14 2.257805 1_555
Li6 O1 2.257805 1_555
Li7 O0 2.065209 1_554
Li7 O12 2.065209 1_455
Li7 O6 2.194475 1_454
Li7 O10 2.194475 1_555
Li7 O3 2.257805 1_455
Li7 O2 2.257805 1_554
O0 U0 1.937296 1_455
O1 U2 1.919632 1_555
O2 U1 1.919632 1_555
O3 U3 1.919632 1_555
O4 U3 2.173617 1_545
O4 U2 2.183833 1_555
O5 U2 2.173617 1_665
O5 U3 2.183833 1_555
O6 U1 2.173617 1_555
O6 U0 2.183833 1_555
O7 U0 2.173617 1_455
O7 U1 2.183833 1_555
O8 U1 2.173617 1_565
O8 U0 2.183833 1_555
O9 U0 2.173617 1_445
O9 U1 2.183833 1_555
O10 U3 2.173617 1_555
O10 U2 2.183833 1_555
O11 U2 2.173617 1_655
O11 U3 2.183833 1_555
O12 U2 1.937296 1_655
O13 U3 1.937296 1_555
O14 U0 1.919632 1_555
O15 U1 1.937296 1_555
