# generated using pymatgen
data_Si
_symmetry_space_group_name_H-M   'P 1'
_cell_length_a   10.18046007
_cell_length_b   10.18046007
_cell_length_c   10.18046007
_cell_angle_alpha   90.00000000
_cell_angle_beta   90.00000000
_cell_angle_gamma   90.00000000
_symmetry_Int_Tables_number   1
_chemical_formula_structural   Si
_chemical_formula_sum   Si46
_cell_volume   1055.12087294
_cell_formula_units_Z   46
loop_
 _symmetry_equiv_pos_site_id
 _symmetry_equiv_pos_as_xyz
  1  'x, y, z'
loop_
 _atom_site_type_symbol
 _atom_site_label
 _atom_site_symmetry_multiplicity
 _atom_site_fract_x
 _atom_site_fract_y
 _atom_site_fract_z
 _atom_site_occupancy
  Si  Si0  1  0.00000000  0.88288043  0.30796247  1
  Si  Si1  1  -0.00000000  0.11711957  0.69203753  1
  Si  Si2  1  -0.00000000  0.11711957  0.30796247  1
  Si  Si3  1  0.00000000  0.88288043  0.69203753  1
  Si  Si4  1  0.30796247  0.00000000  0.88288043  1
  Si  Si5  1  0.38288043  0.50000000  0.19203753  1
  Si  Si6  1  0.69203753  0.00000000  0.11711957  1
  Si  Si7  1  0.61711957  0.50000000  0.80796247  1
  Si  Si8  1  0.30796247  0.00000000  0.11711957  1
  Si  Si9  1  0.61711957  0.50000000  0.19203753  1
  Si  Si10  1  0.69203753  0.00000000  0.88288043  1
  Si  Si11  1  0.38288043  0.50000000  0.80796247  1
  Si  Si12  1  0.88288043  0.30796247  -0.00000000  1
  Si  Si13  1  0.50000000  0.80796247  0.61711957  1
  Si  Si14  1  0.11711957  0.69203753  -0.00000000  1
  Si  Si15  1  0.50000000  0.19203753  0.38288043  1
  Si  Si16  1  0.88288043  0.69203753  -0.00000000  1
  Si  Si17  1  0.50000000  0.19203753  0.61711957  1
  Si  Si18  1  0.11711957  0.30796247  -0.00000000  1
  Si  Si19  1  0.50000000  0.80796247  0.38288043  1
  Si  Si20  1  0.19203753  0.38288043  0.50000000  1
  Si  Si21  1  0.80796247  0.61711957  0.50000000  1
  Si  Si22  1  0.19203753  0.61711957  0.50000000  1
  Si  Si23  1  0.80796247  0.38288043  0.50000000  1
  Si  Si24  1  0.25000000  0.50000000  -0.00000000  1
  Si  Si25  1  0.75000000  0.50000000  -0.00000000  1
  Si  Si26  1  -0.00000000  0.25000000  0.50000000  1
  Si  Si27  1  0.00000000  0.75000000  0.50000000  1
  Si  Si28  1  0.50000000  0.00000000  0.25000000  1
  Si  Si29  1  0.50000000  0.00000000  0.75000000  1
  Si  Si30  1  0.81633162  0.81633162  0.81633162  1
  Si  Si31  1  0.18366838  0.18366838  0.18366838  1
  Si  Si32  1  0.18366838  0.18366838  0.81633162  1
  Si  Si33  1  0.18366838  0.81633162  0.18366838  1
  Si  Si34  1  0.31633162  0.31633162  0.68366838  1
  Si  Si35  1  0.81633162  0.81633162  0.18366838  1
  Si  Si36  1  0.81633162  0.18366838  0.81633162  1
  Si  Si37  1  0.68366838  0.68366838  0.31633162  1
  Si  Si38  1  0.81633162  0.18366838  0.18366838  1
  Si  Si39  1  0.68366838  0.68366838  0.68366838  1
  Si  Si40  1  0.18366838  0.81633162  0.81633162  1
  Si  Si41  1  0.31633162  0.31633162  0.31633162  1
  Si  Si42  1  0.31633162  0.68366838  0.31633162  1
  Si  Si43  1  0.68366838  0.31633162  0.68366838  1
  Si  Si44  1  0.68366838  0.31633162  0.31633162  1
  Si  Si45  1  0.31633162  0.68366838  0.68366838  1
loop_
_geom_bond_atom_site_label_1
_geom_bond_atom_site_label_2
_geom_bond_distance
_geom_bond_site_symmetry_2
Si0 Si33 2.357207 1_555
Si0 Si35 2.357207 1_455
Si0 Si27 2.377429 1_555
Si0 Si2 2.384662 1_565
Si1 Si36 2.357207 1_455
Si1 Si32 2.357207 1_555
Si1 Si26 2.377429 1_555
Si1 Si3 2.384662 1_545
Si2 Si38 2.357207 1_455
Si2 Si31 2.357207 1_555
Si2 Si26 2.377429 1_555
Si3 Si30 2.357207 1_455
Si3 Si40 2.357207 1_555
Si4 Si40 2.357207 1_545
Si4 Si8 2.384662 1_556
Si5 Si9 2.384662 1_555
Si10 Si30 2.357207 1_545
Si10 Si36 2.357207 1_555
Si10 Si29 2.377429 1_555
Si10 Si6 2.384662 1_556
Si11 Si45 2.357207 1_555
Si11 Si34 2.357207 1_555
Si11 Si24 2.377429 1_556
Si11 Si7 2.384662 1_555
Si12 Si36 2.357207 1_554
Si12 Si38 2.357207 1_555
Si12 Si25 2.377429 1_555
Si12 Si18 2.384662 1_655
Si13 Si39 2.357207 1_555
Si13 Si45 2.357207 1_555
Si13 Si29 2.377429 1_565
Si13 Si19 2.384662 1_555
Si14 Si40 2.357207 1_554
Si14 Si33 2.357207 1_555
Si14 Si24 2.377429 1_555
Si14 Si16 2.384662 1_455
Si15 Si44 2.357207 1_555
Si15 Si41 2.357207 1_555
Si15 Si28 2.377429 1_555
Si15 Si17 2.384662 1_555
Si16 Si30 2.357207 1_554
Si16 Si35 2.357207 1_555
Si16 Si25 2.377429 1_555
Si17 Si43 2.357207 1_555
Si17 Si34 2.357207 1_555
Si17 Si29 2.377429 1_555
Si18 Si32 2.357207 1_554
Si18 Si31 2.357207 1_555
Si18 Si24 2.377429 1_555
Si19 Si37 2.357207 1_555
Si19 Si42 2.357207 1_555
Si19 Si28 2.377429 1_565
Si20 Si34 2.357207 1_555
Si20 Si41 2.357207 1_555
Si20 Si26 2.377429 1_555
Si20 Si22 2.384662 1_555
Si21 Si39 2.357207 1_555
Si21 Si37 2.357207 1_555
Si21 Si27 2.377429 1_655
Si21 Si23 2.384662 1_555
Si22 Si45 2.357207 1_555
Si22 Si42 2.357207 1_555
Si22 Si27 2.377429 1_555
Si23 Si43 2.357207 1_555
Si23 Si44 2.357207 1_555
Si23 Si26 2.377429 1_655
Si24 Si5 2.377429 1_555
Si25 Si9 2.377429 1_555
Si25 Si7 2.377429 1_554
Si27 Si3 2.377429 1_555
Si28 Si8 2.377429 1_555
Si28 Si6 2.377429 1_555
Si29 Si4 2.377429 1_555
Si30 Si39 2.339261 1_555
Si31 Si41 2.339261 1_555
Si31 Si8 2.357207 1_555
Si32 Si34 2.339261 1_555
Si32 Si4 2.357207 1_555
Si33 Si42 2.339261 1_555
Si33 Si8 2.357207 1_565
Si35 Si37 2.339261 1_555
Si35 Si6 2.357207 1_565
Si36 Si43 2.339261 1_555
Si37 Si9 2.357207 1_555
Si38 Si44 2.339261 1_555
Si38 Si6 2.357207 1_555
Si39 Si7 2.357207 1_555
Si40 Si45 2.339261 1_555
Si41 Si5 2.357207 1_555
Si42 Si5 2.357207 1_555
Si43 Si7 2.357207 1_555
Si44 Si9 2.357207 1_555
