# generated using pymatgen
data_KCSN
_symmetry_space_group_name_H-M   'P 1'
_cell_length_a   6.47980500
_cell_length_b   6.51558100
_cell_length_c   11.13901600
_cell_angle_alpha   90.00000000
_cell_angle_beta   90.00000000
_cell_angle_gamma   90.00000000
_symmetry_Int_Tables_number   1
_chemical_formula_structural   KCSN
_chemical_formula_sum   'K4 C4 S4 N4'
_cell_volume   470.28585079
_cell_formula_units_Z   4
loop_
 _symmetry_equiv_pos_site_id
 _symmetry_equiv_pos_as_xyz
  1  'x, y, z'
loop_
 _atom_site_type_symbol
 _atom_site_label
 _atom_site_symmetry_multiplicity
 _atom_site_fract_x
 _atom_site_fract_y
 _atom_site_fract_z
 _atom_site_occupancy
  K  K0  1  0.25000000  0.77220300  0.88690300  1
  K  K1  1  0.25000000  0.22779700  0.38690300  1
  K  K2  1  0.75000000  0.77220300  0.61309700  1
  K  K3  1  0.75000000  0.22779700  0.11309700  1
  C  C0  1  0.25000000  0.25155700  0.98535500  1
  C  C1  1  0.25000000  0.74844300  0.48535500  1
  C  C2  1  0.75000000  0.25155700  0.51464500  1
  C  C3  1  0.75000000  0.74844300  0.01464500  1
  S  S0  1  0.25000000  0.90046100  0.60413200  1
  S  S1  1  0.25000000  0.09953900  0.10413200  1
  S  S2  1  0.75000000  0.90046100  0.89586800  1
  S  S3  1  0.75000000  0.09953900  0.39586800  1
  N  N0  1  0.25000000  0.35438500  0.89732600  1
  N  N1  1  0.25000000  0.64561500  0.39732600  1
  N  N2  1  0.75000000  0.35438500  0.60267400  1
  N  N3  1  0.75000000  0.64561500  0.10267400  1
loop_
_geom_bond_atom_site_label_1
_geom_bond_atom_site_label_2
_geom_bond_distance
_geom_bond_site_symmetry_2
K0 N0 2.724802 1_555
K0 S1 3.225492 1_566
K0 S0 3.258763 1_555
K0 S2 3.347431 1_455
K0 S2 3.347431 1_555
K1 N1 2.724802 1_555
K1 S0 3.225492 1_545
K1 S1 3.258763 1_555
K1 S3 3.347431 1_455
K1 S3 3.347431 1_555
K2 N2 2.724802 1_555
K2 S3 3.225492 1_565
K2 S2 3.258763 1_555
K2 S0 3.347431 1_655
K2 S0 3.347431 1_555
K3 N3 2.724802 1_555
K3 S2 3.225492 1_544
K3 S3 3.258763 1_555
K3 S1 3.347431 1_655
K3 S1 3.347431 1_555
C0 N0 1.187590 1_555
C0 S1 1.652739 1_556
C0 K0 3.310208 1_545
C1 N1 1.187590 1_555
C1 S0 1.652739 1_555
C1 K1 3.310208 1_565
C2 N2 1.187590 1_555
C2 S3 1.652739 1_555
C2 K2 3.310208 1_545
C3 N3 1.187590 1_555
C3 S2 1.652739 1_554
C3 K3 3.310208 1_565
