# generated using pymatgen
data_K3TlAu5
_symmetry_space_group_name_H-M   'P 1'
_cell_length_a   5.67086705
_cell_length_b   8.40052579
_cell_length_c   11.18875066
_cell_angle_alpha   112.04906722
_cell_angle_beta   104.67988150
_cell_angle_gamma   90.00000000
_symmetry_Int_Tables_number   1
_chemical_formula_structural   K3TlAu5
_chemical_formula_sum   'K6 Tl2 Au10'
_cell_volume   475.20512642
_cell_formula_units_Z   2
loop_
 _symmetry_equiv_pos_site_id
 _symmetry_equiv_pos_as_xyz
  1  'x, y, z'
loop_
 _atom_site_type_symbol
 _atom_site_label
 _atom_site_symmetry_multiplicity
 _atom_site_fract_x
 _atom_site_fract_y
 _atom_site_fract_z
 _atom_site_occupancy
  K  K0  1  0.08818870  0.70869773  0.17637640  1
  K  K1  1  0.58818870  0.96767867  0.17637640  1
  K  K2  1  0.75000000  0.36969311  0.50000000  1
  K  K3  1  0.25000000  0.63030789  0.50000000  1
  K  K4  1  0.41181130  0.03232033  0.82362360  1
  K  K5  1  0.91181230  0.29130227  0.82362360  1
  Tl  Tl0  1  0.25000000  0.08569603  0.50000000  1
  Tl  Tl1  1  0.75000000  0.91430397  0.50000000  1
  Au  Au0  1  0.00000000  -0.00000000  0.00000000  1
  Au  Au1  1  0.50000000  0.50000000  -0.00000000  1
  Au  Au2  1  0.30884021  0.30884121  0.11768242  1
  Au  Au3  1  0.80884021  0.30884121  0.11768242  1
  Au  Au4  1  0.14365316  0.18893878  0.28730633  1
  Au  Au5  1  0.64365316  0.59836755  0.28730633  1
  Au  Au6  1  0.35634684  0.40163245  0.71269267  1
  Au  Au7  1  0.85634684  0.81106022  0.71269267  1
  Au  Au8  1  0.19116079  0.69116079  0.88231958  1
  Au  Au9  1  0.69115979  0.69116079  0.88231958  1
loop_
_geom_bond_atom_site_label_1
_geom_bond_atom_site_label_2
_geom_bond_distance
_geom_bond_site_symmetry_2
K0 Tl0 3.699894 1_565
K1 Tl1 3.699894 1_555
K4 Tl0 3.699898 1_555
K5 Tl1 3.699894 1_545
Au0 Au9 2.792574 1_444
Au0 Au8 2.792577 1_544
Au0 Au2 2.792586 1_555
Au0 Au3 2.792591 1_455
Au0 Au4 2.891100 1_555
Au0 Au7 2.891110 1_444
Au0 K4 3.487118 1_554
Au0 K1 3.487121 1_445
Au0 K4 3.487123 1_454
Au0 K1 3.487125 1_545
Au0 K0 3.641199 1_545
Au0 K5 3.641199 1_454
Au1 Au8 2.792583 1_554
Au1 Au3 2.792585 1_555
Au1 Au9 2.792586 1_554
Au1 Au2 2.792591 1_555
Au1 Au5 2.891100 1_555
Au1 Au6 2.891110 1_554
Au1 K5 3.487121 1_454
Au1 K0 3.487121 1_555
Au1 K0 3.487125 1_655
Au1 K5 3.487125 1_554
Au1 K1 3.641200 1_555
Au1 K4 3.641207 1_554
Au2 Au4 2.798271 1_555
Au2 Au5 2.798277 1_555
Au2 Au3 2.835434 1_555
Au2 Au3 2.835434 1_455
Au2 K5 3.434755 1_454
Au2 K4 3.434763 1_554
Au2 K0 3.469898 1_555
Au2 K1 3.469905 1_545
Au3 Au5 2.798272 1_555
Au3 Au4 2.798277 1_655
Au3 K4 3.434760 1_554
Au3 K5 3.434762 1_554
Au3 K1 3.469898 1_545
Au3 K0 3.469905 1_655
Au4 Tl0 2.757074 1_555
Au4 K1 3.347228 1_445
Au4 K1 3.347233 1_545
Au4 K3 3.524509 1_555
Au4 K2 3.596096 1_555
Au4 K2 3.596096 1_455
Au4 K0 3.735979 1_545
Au5 Tl1 2.757074 1_555
Au5 K0 3.347228 1_555
Au5 K0 3.347233 1_655
Au5 K2 3.524502 1_555
Au5 K3 3.596095 1_655
Au5 K3 3.596095 1_555
Au5 K1 3.735979 1_555
Au6 Tl0 2.757069 1_555
Au6 Au9 2.798293 1_555
Au6 Au8 2.798294 1_555
Au6 K5 3.347235 1_555
Au6 K5 3.347235 1_455
Au6 K3 3.524500 1_555
Au6 K2 3.596088 1_555
Au6 K2 3.596092 1_455
Au6 K4 3.735994 1_555
Au7 Tl1 2.757069 1_555
Au7 Au8 2.798286 1_655
Au7 Au9 2.798286 1_555
Au7 K4 3.347227 1_665
Au7 K4 3.347237 1_565
Au7 K2 3.524493 1_555
Au7 K3 3.596086 1_655
Au7 K3 3.596090 1_555
Au7 K5 3.735986 1_565
Au8 Au9 2.835428 1_555
Au8 Au9 2.835439 1_455
Au8 K1 3.434738 1_556
Au8 K0 3.434746 1_556
Au8 K4 3.469887 1_565
Au8 K5 3.469914 1_455
Au9 K1 3.434738 1_556
Au9 K0 3.434745 1_656
Au9 K4 3.469891 1_565
Au9 K5 3.469914 1_555
