# generated using pymatgen
data_Pr7O12
_symmetry_space_group_name_H-M   'P 1'
_cell_length_a   6.13834500
_cell_length_b   8.68093100
_cell_length_c   8.68093095
_cell_angle_alpha   119.99999640
_cell_angle_beta   90.00000000
_cell_angle_gamma   90.00000000
_symmetry_Int_Tables_number   1
_chemical_formula_structural   Pr7O12
_chemical_formula_sum   'Pr7 O12'
_cell_volume   400.60332273
_cell_formula_units_Z   1
loop_
 _symmetry_equiv_pos_site_id
 _symmetry_equiv_pos_as_xyz
  1  'x, y, z'
loop_
 _atom_site_type_symbol
 _atom_site_label
 _atom_site_symmetry_multiplicity
 _atom_site_fract_x
 _atom_site_fract_y
 _atom_site_fract_z
 _atom_site_occupancy
  Pr  Pr0  1  0.00000000  0.00000000  0.00000000  1
  Pr  Pr1  1  0.86119000  0.60809000  0.30715700  1
  Pr  Pr2  1  0.69906800  0.13881000  0.53072000  1
  Pr  Pr3  1  0.39191000  0.30093200  0.16212300  1
  Pr  Pr4  1  0.13881000  0.39191000  0.69284300  1
  Pr  Pr5  1  0.30093200  0.86119000  0.46928000  1
  Pr  Pr6  1  0.60809000  0.69906800  0.83787700  1
  O  O0  1  0.93377300  0.67442700  0.73491500  1
  O  O1  1  0.06048800  0.06622700  0.39180000  1
  O  O2  1  0.32557300  0.93951200  0.87328500  1
  O  O3  1  0.06622700  0.32557300  0.26508500  1
  O  O4  1  0.93951200  0.93377300  0.60820000  1
  O  O5  1  0.67442700  0.06048800  0.12671500  1
  O  O6  1  0.58088300  0.82100500  0.25926900  1
  O  O7  1  0.43826400  0.41911700  0.59811200  1
  O  O8  1  0.17899500  0.56173600  0.14261900  1
  O  O9  1  0.41911700  0.17899500  0.74073100  1
  O  O10  1  0.56173600  0.58088300  0.40188800  1
  O  O11  1  0.82100500  0.43826400  0.85738100  1
loop_
_geom_bond_atom_site_label_1
_geom_bond_atom_site_label_2
_geom_bond_distance
_geom_bond_site_symmetry_2
O0 Pr6 2.156403 1_555
O0 Pr4 2.614675 1_655
O0 Pr0 2.635293 1_666
O1 Pr2 2.452206 1_455
O1 Pr5 2.644996 1_545
O1 Pr4 2.768644 1_555
O1 Pr0 3.175073 1_555
O2 Pr0 2.214057 1_566
O2 Pr6 2.610945 1_555
O2 Pr3 2.903383 1_566
O2 Pr5 3.225004 1_555
O3 Pr3 2.156403 1_555
O3 Pr1 2.614675 1_455
O3 Pr0 2.635293 1_555
O4 Pr5 2.452206 1_655
O4 Pr2 2.644996 1_565
O4 Pr1 2.768644 1_555
O4 Pr0 3.175073 1_666
O5 Pr0 2.214057 1_655
O5 Pr3 2.610945 1_555
O5 Pr6 2.903383 1_544
O5 Pr2 3.225004 1_555
O6 Pr5 2.400500 1_555
O6 Pr2 2.681284 1_565
O6 Pr1 2.705167 1_555
O6 Pr6 3.264615 1_554
O7 Pr4 2.074867 1_555
O7 Pr6 2.503328 1_555
O7 Pr2 2.720785 1_555
O8 Pr1 2.330866 1_455
O8 Pr3 2.691820 1_555
O8 Pr5 2.826233 1_555
O9 Pr2 2.400500 1_555
O9 Pr5 2.681284 1_545
O9 Pr4 2.705167 1_555
O9 Pr3 3.264615 1_556
O10 Pr1 2.074867 1_555
O10 Pr3 2.503328 1_555
O10 Pr5 2.720785 1_555
O11 Pr4 2.330866 1_655
O11 Pr6 2.691820 1_555
O11 Pr2 2.826233 1_555
