# generated using pymatgen
data_Pr2Ge5Rh3
_symmetry_space_group_name_H-M   'P 1'
_cell_length_a   8.43448101
_cell_length_b   8.43441637
_cell_length_c   8.43327747
_cell_angle_alpha   137.76750599
_cell_angle_beta   106.33285253
_cell_angle_gamma   88.75928526
_symmetry_Int_Tables_number   1
_chemical_formula_structural   Pr2Ge5Rh3
_chemical_formula_sum   'Pr4 Ge10 Rh6'
_cell_volume   370.43160226
_cell_formula_units_Z   2
loop_
 _symmetry_equiv_pos_site_id
 _symmetry_equiv_pos_as_xyz
  1  'x, y, z'
loop_
 _atom_site_type_symbol
 _atom_site_label
 _atom_site_symmetry_multiplicity
 _atom_site_fract_x
 _atom_site_fract_y
 _atom_site_fract_z
 _atom_site_occupancy
  Pr  Pr0  1  0.86365785  0.63242308  0.23138864  1
  Pr  Pr1  1  0.13633912  0.36757713  0.76860856  1
  Pr  Pr2  1  0.59890253  0.86773902  0.73142709  1
  Pr  Pr3  1  0.40110090  0.13226132  0.26857683  1
  Ge  Ge0  1  0.49995441  0.74983158  0.24982139  1
  Ge  Ge1  1  0.50004630  0.25016835  0.75017918  1
  Ge  Ge2  1  0.22426596  0.97444107  0.75009058  1
  Ge  Ge3  1  0.77566173  0.52556640  0.75005343  1
  Ge  Ge4  1  0.77573260  0.02555801  0.24991002  1
  Ge  Ge5  1  0.22433705  0.47443177  0.24994613  1
  Ge  Ge6  1  0.05707922  0.89930587  0.15755144  1
  Ge  Ge7  1  0.94291741  0.10069381  0.84244508  1
  Ge  Ge8  1  0.25839461  0.60061597  0.65761063  1
  Ge  Ge9  1  0.74160975  0.39938471  0.34239413  1
  Rh  Rh0  1  0.25267119  0.86008245  0.39299312  1
  Rh  Rh1  1  0.74733025  0.13991706  0.60700655  1
  Rh  Rh2  1  0.53293094  0.64009812  0.89275084  1
  Rh  Rh3  1  0.46706942  0.35990314  0.10724776  1
  Rh  Rh4  1  0.00004757  0.74989420  0.74989539  1
  Rh  Rh5  1  -0.00004882  0.25010495  0.25010422  1
loop_
_geom_bond_atom_site_label_1
_geom_bond_atom_site_label_2
_geom_bond_distance
_geom_bond_site_symmetry_2
Pr0 Rh0 3.192613 1_655
Pr0 Rh1 3.287283 1_565
Pr0 Rh1 3.290078 1_554
Pr0 Rh2 3.424426 1_554
Pr0 Rh4 3.497153 1_655
Pr0 Rh5 3.497964 1_655
Pr0 Rh3 3.516867 1_555
Pr1 Rh1 3.192586 1_455
Pr1 Rh0 3.287305 1_545
Pr1 Rh0 3.290085 1_556
Pr1 Rh3 3.424445 1_556
Pr1 Rh5 3.497128 1_555
Pr1 Rh4 3.497938 1_555
Pr1 Rh2 3.516891 1_555
Pr2 Rh2 3.191751 1_555
Pr2 Rh3 3.288265 1_566
Pr2 Rh3 3.288985 1_555
Pr2 Rh0 3.424266 1_555
Pr2 Rh5 3.498119 1_666
Pr2 Rh4 3.499594 1_655
Pr2 Rh1 3.516905 1_565
Pr3 Rh3 3.191791 1_555
Pr3 Rh2 3.288251 1_544
Pr3 Rh2 3.288964 1_555
Pr3 Rh1 3.424239 1_555
Pr3 Rh4 3.498155 1_544
Pr3 Rh5 3.499628 1_555
Pr3 Rh0 3.516888 1_545
Ge0 Rh2 2.516841 1_554
Ge0 Rh3 2.516958 1_555
Ge0 Rh1 2.517582 1_565
Ge0 Rh0 2.518422 1_555
Ge0 Pr1 3.212840 1_554
Ge0 Pr0 3.213094 1_555
Ge0 Pr3 3.213520 1_565
Ge0 Pr2 3.213972 1_555
Ge1 Rh3 2.516821 1_556
Ge1 Rh2 2.516978 1_555
Ge1 Rh0 2.517580 1_545
Ge1 Rh1 2.518431 1_555
Ge1 Pr0 3.212814 1_556
Ge1 Pr1 3.213122 1_555
Ge1 Pr2 3.213540 1_545
Ge1 Pr3 3.213949 1_555
Ge2 Rh0 2.480164 1_555
Ge2 Rh3 2.480727 1_566
Ge2 Ge7 2.659647 1_465
Ge2 Ge8 2.660450 1_555
Ge2 Rh4 2.704106 1_555
Ge2 Pr1 3.280429 1_565
Ge2 Pr2 3.281200 1_555
Ge2 Pr3 3.303702 1_566
Ge2 Pr0 3.304237 1_455
Ge3 Rh2 2.480200 1_555
Ge3 Rh1 2.480604 1_555
Ge3 Ge9 2.659704 1_555
Ge3 Ge6 2.659892 1_656
Ge3 Rh4 2.705924 1_655
Ge3 Pr0 3.279843 1_556
Ge3 Pr3 3.280977 1_555
Ge3 Pr1 3.304572 1_655
Ge3 Pr2 3.306025 1_555
Ge4 Rh1 2.480145 1_555
Ge4 Rh2 2.480711 1_544
Ge4 Ge6 2.659639 1_645
Ge4 Ge9 2.660435 1_555
Ge4 Rh5 2.704114 1_655
Ge4 Pr0 3.280399 1_545
Ge4 Pr3 3.281166 1_555
Ge4 Pr2 3.303679 1_544
Ge4 Pr1 3.304216 1_655
Ge5 Rh3 2.480216 1_555
Ge5 Rh0 2.480614 1_555
Ge5 Ge8 2.659723 1_555
Ge5 Ge7 2.659903 1_454
Ge5 Rh5 2.705919 1_555
Ge5 Pr1 3.279871 1_554
Ge5 Pr2 3.281012 1_555
Ge5 Pr0 3.304595 1_455
Ge5 Pr3 3.306046 1_555
Ge6 Rh0 2.424910 1_555
Ge6 Rh4 2.513760 1_554
Ge6 Rh5 2.515098 1_565
Ge6 Pr3 3.025123 1_565
Ge6 Pr1 3.261709 1_565
Ge6 Pr1 3.261719 1_554
Ge6 Pr0 3.304889 1_455
Ge7 Rh1 2.424872 1_555
Ge7 Rh5 2.513784 1_656
Ge7 Rh4 2.515120 1_645
Ge7 Pr2 3.025097 1_545
Ge7 Pr0 3.261706 1_545
Ge7 Pr0 3.261720 1_556
Ge7 Pr1 3.304890 1_655
Ge8 Rh2 2.424458 1_555
Ge8 Rh5 2.514477 1_555
Ge8 Rh4 2.514563 1_555
Ge8 Pr1 3.025503 1_555
Ge8 Pr3 3.261243 1_566
Ge8 Pr3 3.261971 1_555
Ge8 Pr2 3.302998 1_555
Ge9 Rh3 2.424508 1_555
Ge9 Rh4 2.514440 1_655
Ge9 Rh5 2.514530 1_655
Ge9 Pr0 3.025529 1_555
Ge9 Pr2 3.261246 1_544
Ge9 Pr2 3.261973 1_555
Ge9 Pr3 3.303002 1_555
