# generated using pymatgen
data_Sb3Pb
_symmetry_space_group_name_H-M   'P 1'
_cell_length_a   6.77113309
_cell_length_b   6.77113309
_cell_length_c   5.84229000
_cell_angle_alpha   90.00000000
_cell_angle_beta   90.00000000
_cell_angle_gamma   119.99999106
_symmetry_Int_Tables_number   1
_chemical_formula_structural   Sb3Pb
_chemical_formula_sum   'Sb6 Pb2'
_cell_volume   231.97248838
_cell_formula_units_Z   2
loop_
 _symmetry_equiv_pos_site_id
 _symmetry_equiv_pos_as_xyz
  1  'x, y, z'
loop_
 _atom_site_type_symbol
 _atom_site_label
 _atom_site_symmetry_multiplicity
 _atom_site_fract_x
 _atom_site_fract_y
 _atom_site_fract_z
 _atom_site_occupancy
  Sb  Sb0  1  0.16134800  0.32269700  0.25000000  1
  Sb  Sb1  1  0.67730300  0.83865200  0.25000000  1
  Sb  Sb2  1  0.16134800  0.83865200  0.25000000  1
  Sb  Sb3  1  0.83865200  0.67730300  0.75000000  1
  Sb  Sb4  1  0.32269700  0.16134800  0.75000000  1
  Sb  Sb5  1  0.83865200  0.16134800  0.75000000  1
  Pb  Pb0  1  0.33333300  0.66666700  0.75000000  1
  Pb  Pb1  1  0.66666700  0.33333300  0.25000000  1
loop_
_geom_bond_atom_site_label_1
_geom_bond_atom_site_label_2
_geom_bond_distance
_geom_bond_site_symmetry_2
Sb0 Sb2 3.277533 1_545
Sb0 Sb1 3.277534 1_445
Sb0 Sb5 3.480491 1_454
Sb0 Sb5 3.480491 1_455
Sb0 Sb4 3.480497 1_554
Sb0 Sb4 3.480497 1_555
Sb0 Sb2 3.493600 1_555
Sb0 Sb1 3.493600 1_555
Sb1 Sb2 3.277533 1_655
Sb1 Sb5 3.480491 1_565
Sb1 Sb5 3.480491 1_564
Sb1 Sb3 3.480497 1_554
Sb1 Sb3 3.480497 1_555
Sb1 Sb2 3.493600 1_555
Sb2 Sb3 3.480491 1_455
Sb2 Sb3 3.480491 1_454
Sb2 Sb4 3.480491 1_565
Sb2 Sb4 3.480491 1_564
Sb3 Sb5 3.277533 1_565
Sb3 Sb4 3.277534 1_665
Sb3 Sb5 3.493600 1_555
Sb3 Sb4 3.493600 1_555
Sb4 Sb5 3.277533 1_455
Sb4 Sb5 3.493600 1_555
Pb0 Sb4 3.386134 1_565
Pb0 Sb3 3.386134 1_455
Pb0 Sb5 3.386142 1_455
Pb0 Sb5 3.386142 1_565
Pb0 Sb3 3.386148 1_555
Pb0 Sb4 3.386148 1_555
Pb0 Sb2 3.549859 1_555
Pb0 Sb2 3.549859 1_556
Pb0 Sb1 3.549859 1_556
Pb0 Sb0 3.549859 1_555
Pb0 Sb1 3.549859 1_555
Pb0 Sb0 3.549859 1_556
Pb1 Sb0 3.386134 1_655
Pb1 Sb1 3.386134 1_545
Pb1 Sb2 3.386142 1_545
Pb1 Sb2 3.386142 1_655
Pb1 Sb1 3.386148 1_555
Pb1 Sb0 3.386148 1_555
Pb1 Sb5 3.549859 1_555
Pb1 Sb5 3.549859 1_554
Pb1 Sb4 3.549859 1_555
Pb1 Sb4 3.549859 1_554
Pb1 Sb3 3.549859 1_554
Pb1 Sb3 3.549859 1_555
