# generated using pymatgen
data_LiMg2
_symmetry_space_group_name_H-M   'P 1'
_cell_length_a   11.27045963
_cell_length_b   11.27045963
_cell_length_c   14.28247551
_cell_angle_alpha   71.66242381
_cell_angle_beta   71.66242381
_cell_angle_gamma   35.46567742
_symmetry_Int_Tables_number   1
_chemical_formula_structural   LiMg2
_chemical_formula_sum   'Li16 Mg32'
_cell_volume   993.54905194
_cell_formula_units_Z   16
loop_
 _symmetry_equiv_pos_site_id
 _symmetry_equiv_pos_as_xyz
  1  'x, y, z'
loop_
 _atom_site_type_symbol
 _atom_site_label
 _atom_site_symmetry_multiplicity
 _atom_site_fract_x
 _atom_site_fract_y
 _atom_site_fract_z
 _atom_site_occupancy
  Li  Li0_0  1  0.08508821  0.08508821  0.21642886  1
  Li  Li0_1  1  0.08508821  0.08508821  0.71642886  1
  Li  Li0_2  1  0.08508821  0.58508821  0.21642886  1
  Li  Li0_3  1  0.08508821  0.58508821  0.71642886  1
  Li  Li0_4  1  0.58508821  0.08508821  0.21642886  1
  Li  Li0_5  1  0.58508821  0.08508821  0.71642886  1
  Li  Li0_6  1  0.58508821  0.58508821  0.21642886  1
  Li  Li0_7  1  0.58508821  0.58508821  0.71642886  1
  Li  Li1_0  1  0.41491179  0.41491179  0.28357114  1
  Li  Li1_1  1  0.41491179  0.41491179  0.78357114  1
  Li  Li1_2  1  0.41491179  0.91491179  0.28357114  1
  Li  Li1_3  1  0.41491179  0.91491179  0.78357114  1
  Li  Li1_4  1  0.91491179  0.41491179  0.28357114  1
  Li  Li1_5  1  0.91491179  0.41491179  0.78357114  1
  Li  Li1_6  1  0.91491179  0.91491179  0.28357114  1
  Li  Li1_7  1  0.91491179  0.91491179  0.78357114  1
  Mg  Mg0_0  1  0.24410327  0.24410327  0.36810961  1
  Mg  Mg0_1  1  0.24410327  0.24410327  0.86810962  1
  Mg  Mg0_2  1  0.24410327  0.74410327  0.36810961  1
  Mg  Mg0_3  1  0.24410327  0.74410327  0.86810961  1
  Mg  Mg0_4  1  0.74410327  0.24410327  0.36810961  1
  Mg  Mg0_5  1  0.74410327  0.24410327  0.86810961  1
  Mg  Mg0_6  1  0.74410327  0.74410327  0.36810961  1
  Mg  Mg0_7  1  0.74410327  0.74410327  0.86810961  1
  Mg  Mg1_0  1  0.08455557  0.08455557  0.44878025  1
  Mg  Mg1_1  1  0.08455557  0.08455557  0.94878025  1
  Mg  Mg1_2  1  0.08455557  0.58455557  0.44878025  1
  Mg  Mg1_3  1  0.08455557  0.58455557  0.94878025  1
  Mg  Mg1_4  1  0.58455557  0.08455557  0.44878025  1
  Mg  Mg1_5  1  0.58455557  0.08455557  0.94878025  1
  Mg  Mg1_6  1  0.58455557  0.58455557  0.44878025  1
  Mg  Mg1_7  1  0.58455557  0.58455557  0.94878025  1
  Mg  Mg2_0  1  0.41544443  0.41544443  0.05121975  1
  Mg  Mg2_1  1  0.41544443  0.41544443  0.55121975  1
  Mg  Mg2_2  1  0.41544443  0.91544443  0.05121975  1
  Mg  Mg2_3  1  0.41544443  0.91544443  0.55121975  1
  Mg  Mg2_4  1  0.91544443  0.41544443  0.05121975  1
  Mg  Mg2_5  1  0.91544443  0.41544443  0.55121975  1
  Mg  Mg2_6  1  0.91544443  0.91544443  0.05121975  1
  Mg  Mg2_7  1  0.91544443  0.91544443  0.55121975  1
  Mg  Mg3_0  1  0.25589673  0.25589673  0.13189038  1
  Mg  Mg3_1  1  0.25589673  0.25589673  0.63189038  1
  Mg  Mg3_2  1  0.25589673  0.75589673  0.13189038  1
  Mg  Mg3_3  1  0.25589673  0.75589673  0.63189038  1
  Mg  Mg3_4  1  0.75589673  0.25589673  0.13189038  1
  Mg  Mg3_5  1  0.75589673  0.25589673  0.63189038  1
  Mg  Mg3_6  1  0.75589673  0.75589673  0.13189038  1
  Mg  Mg3_7  1  0.75589673  0.75589673  0.63189038  1
loop_
_geom_bond_atom_site_label_1
_geom_bond_atom_site_label_2
_geom_bond_distance
_geom_bond_site_symmetry_2
Li0_0 Li1_2 2.808625 1_545
Li0_0 Li1_4 2.808625 1_455
Li0_0 Mg3_4 2.941220 1_455
Li0_0 Mg3_2 2.941220 1_545
Li0_0 Mg0_4 2.942685 1_455
Li0_0 Mg0_2 2.942685 1_545
Li0_0 Mg2_2 2.966613 1_545
Li0_0 Mg2_4 2.966613 1_455
Li0_0 Mg1_0 3.314793 1_555
Li0_1 Li1_5 2.808625 1_455
Li0_1 Li1_3 2.808625 1_545
Li0_1 Mg3_5 2.941220 1_455
Li0_1 Mg3_3 2.941220 1_545
Li0_1 Mg0_5 2.942685 1_455
Li0_1 Mg0_3 2.942685 1_545
Li0_1 Mg2_3 2.966613 1_545
Li0_1 Mg2_5 2.966613 1_455
Li0_1 Mg1_1 3.314793 1_555
Li0_2 Li1_0 2.808625 1_555
Li0_2 Li1_6 2.808625 1_455
Li0_2 Mg3_0 2.941220 1_555
Li0_2 Mg3_6 2.941220 1_455
Li0_2 Mg0_6 2.942685 1_455
Li0_2 Mg0_0 2.942685 1_555
Li0_2 Mg2_6 2.966613 1_455
Li0_2 Mg2_0 2.966613 1_555
Li0_2 Mg1_2 3.314793 1_555
Li0_3 Li1_7 2.808625 1_455
Li0_3 Li1_1 2.808625 1_555
Li0_3 Mg3_7 2.941220 1_455
Li0_3 Mg3_1 2.941220 1_555
Li0_3 Mg0_7 2.942685 1_455
Li0_3 Mg0_1 2.942685 1_555
Li0_3 Mg2_7 2.966613 1_455
Li0_3 Mg2_1 2.966613 1_555
Li0_3 Mg1_3 3.314793 1_555
Li0_4 Li1_0 2.808625 1_555
Li0_4 Li1_6 2.808625 1_545
Li0_4 Mg3_0 2.941220 1_555
Li0_4 Mg3_6 2.941220 1_545
Li0_4 Mg0_6 2.942685 1_545
Li0_4 Mg0_0 2.942685 1_555
Li0_4 Mg2_0 2.966613 1_555
Li0_4 Mg2_6 2.966613 1_545
Li0_4 Mg1_4 3.314793 1_555
Li0_5 Li1_7 2.808625 1_545
Li0_5 Li1_1 2.808625 1_555
Li0_5 Mg3_7 2.941220 1_545
Li0_5 Mg3_1 2.941220 1_555
Li0_5 Mg0_7 2.942685 1_545
Li0_5 Mg0_1 2.942685 1_555
Li0_5 Mg2_1 2.966613 1_555
Li0_5 Mg2_7 2.966613 1_545
Li0_5 Mg1_5 3.314793 1_555
Li0_6 Li1_2 2.808625 1_555
Li0_6 Li1_4 2.808625 1_555
Li0_6 Mg3_4 2.941220 1_555
Li0_6 Mg3_2 2.941220 1_555
Li0_6 Mg0_4 2.942685 1_555
Li0_6 Mg0_2 2.942685 1_555
Li0_6 Mg2_2 2.966613 1_555
Li0_6 Mg2_4 2.966613 1_555
Li0_6 Mg1_6 3.314793 1_555
Li0_7 Li1_3 2.808625 1_555
Li0_7 Li1_5 2.808625 1_555
Li0_7 Mg3_5 2.941220 1_555
Li0_7 Mg3_3 2.941220 1_555
Li0_7 Mg0_5 2.942685 1_555
Li0_7 Mg0_3 2.942685 1_555
Li0_7 Mg2_3 2.966613 1_555
Li0_7 Mg2_5 2.966613 1_555
Li0_7 Mg1_7 3.314793 1_555
Li1_0 Mg0_2 2.941220 1_555
Li1_0 Mg0_4 2.941220 1_555
Li1_0 Mg3_2 2.942685 1_555
Li1_0 Mg3_4 2.942685 1_555
Li1_0 Mg1_4 2.966613 1_555
Li1_0 Mg1_2 2.966613 1_555
Li1_0 Mg2_0 3.314793 1_555
Li1_1 Mg0_3 2.941220 1_555
Li1_1 Mg0_5 2.941220 1_555
Li1_1 Mg3_3 2.942685 1_555
Li1_1 Mg3_5 2.942685 1_555
Li1_1 Mg1_5 2.966613 1_555
Li1_1 Mg1_3 2.966613 1_555
Li1_1 Mg2_1 3.314793 1_555
Li1_2 Mg0_0 2.941220 1_565
Li1_2 Mg0_6 2.941220 1_555
Li1_2 Mg3_6 2.942685 1_555
Li1_2 Mg3_0 2.942685 1_565
Li1_2 Mg1_6 2.966613 1_555
Li1_2 Mg1_0 2.966613 1_565
Li1_2 Mg2_2 3.314793 1_555
Li1_3 Mg0_7 2.941220 1_555
Li1_3 Mg0_1 2.941220 1_565
Li1_3 Mg3_1 2.942685 1_565
Li1_3 Mg3_7 2.942685 1_555
Li1_3 Mg1_1 2.966613 1_565
Li1_3 Mg1_7 2.966613 1_555
Li1_3 Mg2_3 3.314793 1_555
Li1_4 Mg0_0 2.941220 1_655
Li1_4 Mg0_6 2.941220 1_555
Li1_4 Mg3_6 2.942685 1_555
Li1_4 Mg3_0 2.942685 1_655
Li1_4 Mg1_0 2.966613 1_655
Li1_4 Mg1_6 2.966613 1_555
Li1_4 Mg2_4 3.314793 1_555
Li1_5 Mg0_7 2.941220 1_555
Li1_5 Mg0_1 2.941220 1_655
Li1_5 Mg3_1 2.942685 1_655
Li1_5 Mg3_7 2.942685 1_555
Li1_5 Mg1_1 2.966613 1_655
Li1_5 Mg1_7 2.966613 1_555
Li1_5 Mg2_5 3.314793 1_555
Li1_6 Mg0_2 2.941220 1_655
Li1_6 Mg0_4 2.941220 1_565
Li1_6 Mg3_4 2.942685 1_565
Li1_6 Mg3_2 2.942685 1_655
Li1_6 Mg1_4 2.966613 1_565
Li1_6 Mg1_2 2.966613 1_655
Li1_6 Mg2_6 3.314793 1_555
Li1_7 Mg0_3 2.941220 1_655
Li1_7 Mg0_5 2.941220 1_565
Li1_7 Mg3_5 2.942685 1_565
Li1_7 Mg3_3 2.942685 1_655
Li1_7 Mg1_5 2.966613 1_565
Li1_7 Mg1_3 2.966613 1_655
Li1_7 Mg2_7 3.314793 1_555
Mg0_0 Mg1_2 3.085933 1_555
Mg0_0 Mg1_4 3.085933 1_555
Mg0_0 Mg2_5 3.117671 1_455
Mg0_0 Mg2_3 3.117671 1_545
Mg0_0 Mg1_0 3.233283 1_555
Mg0_1 Mg1_3 3.085933 1_555
Mg0_1 Mg1_5 3.085933 1_555
Mg0_1 Mg2_2 3.117671 1_546
Mg0_1 Mg2_4 3.117671 1_456
Mg0_1 Mg1_1 3.233283 1_555
Mg0_2 Mg1_6 3.085933 1_555
Mg0_2 Mg1_0 3.085933 1_565
Mg0_2 Mg2_1 3.117671 1_555
Mg0_2 Mg2_7 3.117671 1_455
Mg0_2 Mg1_2 3.233283 1_555
Mg0_3 Mg1_7 3.085933 1_555
Mg0_3 Mg1_1 3.085933 1_565
Mg0_3 Mg2_0 3.117671 1_556
Mg0_3 Mg2_6 3.117671 1_456
Mg0_3 Mg1_3 3.233283 1_555
Mg0_4 Mg1_6 3.085933 1_555
Mg0_4 Mg1_0 3.085933 1_655
Mg0_4 Mg2_1 3.117671 1_555
Mg0_4 Mg2_7 3.117671 1_545
Mg0_4 Mg1_4 3.233283 1_555
Mg0_5 Mg1_7 3.085933 1_555
Mg0_5 Mg1_1 3.085933 1_655
Mg0_5 Mg2_0 3.117671 1_556
Mg0_5 Mg2_6 3.117671 1_546
Mg0_5 Mg1_5 3.233283 1_555
Mg0_6 Mg1_2 3.085933 1_655
Mg0_6 Mg1_4 3.085933 1_565
Mg0_6 Mg2_5 3.117671 1_555
Mg0_6 Mg2_3 3.117671 1_555
Mg0_6 Mg1_6 3.233283 1_555
Mg0_7 Mg1_3 3.085933 1_655
Mg0_7 Mg1_5 3.085933 1_565
Mg0_7 Mg2_4 3.117671 1_556
Mg0_7 Mg2_2 3.117671 1_556
Mg0_7 Mg1_7 3.233283 1_555
Mg1_0 Mg3_5 3.117671 1_455
Mg1_0 Mg3_3 3.117671 1_545
Mg1_0 Mg2_3 3.127490 1_545
Mg1_0 Mg2_5 3.127490 1_455
Mg1_0 Mg1_6 3.432746 1_545
Mg1_0 Mg1_6 3.432746 1_455
Mg1_0 Mg2_7 3.437157 1_445
Mg1_1 Mg3_4 3.117671 1_456
Mg1_1 Mg3_2 3.117671 1_546
Mg1_1 Mg2_2 3.127490 1_546
Mg1_1 Mg2_4 3.127490 1_456
Mg1_1 Mg1_7 3.432746 1_545
Mg1_1 Mg1_7 3.432746 1_455
Mg1_1 Mg2_6 3.437157 1_446
Mg1_2 Mg3_7 3.117671 1_455
Mg1_2 Mg3_1 3.117671 1_555
Mg1_2 Mg2_7 3.127490 1_455
Mg1_2 Mg2_1 3.127490 1_555
Mg1_2 Mg1_4 3.432746 1_555
Mg1_2 Mg1_4 3.432746 1_465
Mg1_2 Mg2_5 3.437157 1_455
Mg1_3 Mg3_0 3.117671 1_556
Mg1_3 Mg3_6 3.117671 1_456
Mg1_3 Mg2_6 3.127490 1_456
Mg1_3 Mg2_0 3.127490 1_556
Mg1_3 Mg1_5 3.432746 1_555
Mg1_3 Mg1_5 3.432746 1_465
Mg1_3 Mg2_4 3.437157 1_456
Mg1_4 Mg3_1 3.117671 1_555
Mg1_4 Mg3_7 3.117671 1_545
Mg1_4 Mg2_7 3.127490 1_545
Mg1_4 Mg2_1 3.127490 1_555
Mg1_4 Mg2_3 3.437157 1_545
Mg1_5 Mg3_0 3.117671 1_556
Mg1_5 Mg3_6 3.117671 1_546
Mg1_5 Mg2_6 3.127490 1_546
Mg1_5 Mg2_0 3.127490 1_556
Mg1_5 Mg2_2 3.437157 1_546
Mg1_6 Mg3_5 3.117671 1_555
Mg1_6 Mg3_3 3.117671 1_555
Mg1_6 Mg2_3 3.127490 1_555
Mg1_6 Mg2_5 3.127490 1_555
Mg1_6 Mg2_1 3.437157 1_555
Mg1_7 Mg3_4 3.117671 1_556
Mg1_7 Mg3_2 3.117671 1_556
Mg1_7 Mg2_2 3.127490 1_556
Mg1_7 Mg2_4 3.127490 1_556
Mg1_7 Mg2_0 3.437157 1_556
Mg2_0 Mg3_2 3.085933 1_555
Mg2_0 Mg3_4 3.085933 1_555
Mg2_0 Mg3_0 3.233283 1_555
Mg2_0 Mg2_6 3.432746 1_455
Mg2_0 Mg2_6 3.432746 1_545
Mg2_1 Mg3_3 3.085933 1_555
Mg2_1 Mg3_5 3.085933 1_555
Mg2_1 Mg3_1 3.233283 1_555
Mg2_1 Mg2_7 3.432746 1_545
Mg2_1 Mg2_7 3.432746 1_455
Mg2_2 Mg3_6 3.085933 1_555
Mg2_2 Mg3_0 3.085933 1_565
Mg2_2 Mg3_2 3.233283 1_555
Mg2_2 Mg2_4 3.432746 1_555
Mg2_2 Mg2_4 3.432746 1_465
Mg2_3 Mg3_1 3.085933 1_565
Mg2_3 Mg3_7 3.085933 1_555
Mg2_3 Mg3_3 3.233283 1_555
Mg2_3 Mg2_5 3.432746 1_555
Mg2_3 Mg2_5 3.432746 1_465
Mg2_4 Mg3_6 3.085933 1_555
Mg2_4 Mg3_0 3.085933 1_655
Mg2_4 Mg3_4 3.233283 1_555
Mg2_5 Mg3_1 3.085933 1_655
Mg2_5 Mg3_7 3.085933 1_555
Mg2_5 Mg3_5 3.233283 1_555
Mg2_6 Mg3_2 3.085933 1_655
Mg2_6 Mg3_4 3.085933 1_565
Mg2_6 Mg3_6 3.233283 1_555
Mg2_7 Mg3_5 3.085933 1_565
Mg2_7 Mg3_3 3.085933 1_655
Mg2_7 Mg3_7 3.233283 1_555
