# generated using pymatgen
data_Sm3SbO3
_symmetry_space_group_name_H-M   'P 1'
_cell_length_a   7.04149264
_cell_length_b   7.04149264
_cell_length_c   12.07458183
_cell_angle_alpha   62.69342052
_cell_angle_beta   62.69342052
_cell_angle_gamma   32.75658675
_symmetry_Int_Tables_number   1
_chemical_formula_structural   Sm3SbO3
_chemical_formula_sum   'Sm6 Sb2 O6'
_cell_volume   284.50294931
_cell_formula_units_Z   2
loop_
 _symmetry_equiv_pos_site_id
 _symmetry_equiv_pos_as_xyz
  1  'x, y, z'
loop_
 _atom_site_type_symbol
 _atom_site_label
 _atom_site_symmetry_multiplicity
 _atom_site_fract_x
 _atom_site_fract_y
 _atom_site_fract_z
 _atom_site_occupancy
  Sm  Sm0  1  0.87197400  0.87197400  0.89885700  1
  Sm  Sm1  1  0.65657200  0.65657200  0.79250000  1
  Sm  Sm2  1  0.11981400  0.11981400  0.55758200  1
  Sm  Sm3  1  0.88018600  0.88018600  0.44241800  1
  Sm  Sm4  1  0.34342800  0.34342800  0.20750000  1
  Sm  Sm5  1  0.12802600  0.12802600  0.10114300  1
  Sb  Sb0  1  0.38078900  0.38078900  0.67945400  1
  Sb  Sb1  1  0.61921100  0.61921100  0.32054600  1
  O  O0  1  0.66212000  0.66212000  0.98766200  1
  O  O1  1  0.06427500  0.06427500  0.80276100  1
  O  O2  1  0.68939600  0.68939600  0.58996700  1
  O  O3  1  0.31060400  0.31060400  0.41003300  1
  O  O4  1  0.93572500  0.93572500  0.19723900  1
  O  O5  1  0.33788000  0.33788000  0.01233800  1
loop_
_geom_bond_atom_site_label_1
_geom_bond_atom_site_label_2
_geom_bond_distance
_geom_bond_site_symmetry_2
Sb0 Sm0 3.266970 1_545
Sb0 Sm0 3.266970 1_455
Sb0 Sm1 3.320985 1_545
Sb0 Sm1 3.320985 1_455
Sb0 Sm2 3.463125 1_565
Sb0 Sm2 3.463125 1_655
Sb0 Sm3 3.486608 1_455
Sb0 Sm3 3.486608 1_545
Sb1 Sm5 3.266970 1_655
Sb1 Sm5 3.266970 1_565
Sb1 Sm4 3.320985 1_565
Sb1 Sm4 3.320985 1_655
Sb1 Sm3 3.463125 1_455
Sb1 Sm3 3.463125 1_545
Sb1 Sm2 3.486608 1_565
Sb1 Sm2 3.486608 1_655
O0 Sm5 2.329917 1_566
O0 Sm5 2.329917 1_656
O0 Sm1 2.393249 1_555
O0 Sm0 2.506387 1_555
O1 Sm0 2.283478 1_445
O1 Sm1 2.316284 1_545
O1 Sm1 2.316284 1_455
O1 Sm2 2.683803 1_555
O2 Sm1 2.267151 1_555
O2 Sm2 2.308846 1_565
O2 Sm2 2.308846 1_655
O2 Sm3 2.329678 1_555
O3 Sm4 2.267151 1_555
O3 Sm3 2.308846 1_545
O3 Sm3 2.308846 1_455
O3 Sm2 2.329678 1_555
O4 Sm5 2.283478 1_665
O4 Sm4 2.316284 1_655
O4 Sm4 2.316284 1_565
O4 Sm3 2.683803 1_555
O5 Sm0 2.329917 1_544
O5 Sm0 2.329917 1_454
O5 Sm4 2.393249 1_555
O5 Sm5 2.506387 1_555
