# generated using pymatgen
data_BaMgSi
_symmetry_space_group_name_H-M   'P 1'
_cell_length_a   4.65136956
_cell_length_b   4.65136956
_cell_length_c   7.88562819
_cell_angle_alpha   90.00000000
_cell_angle_beta   90.00000000
_cell_angle_gamma   90.00000000
_symmetry_Int_Tables_number   1
_chemical_formula_structural   BaMgSi
_chemical_formula_sum   'Ba2 Mg2 Si2'
_cell_volume   170.60744885
_cell_formula_units_Z   2
loop_
 _symmetry_equiv_pos_site_id
 _symmetry_equiv_pos_as_xyz
  1  'x, y, z'
loop_
 _atom_site_type_symbol
 _atom_site_label
 _atom_site_symmetry_multiplicity
 _atom_site_fract_x
 _atom_site_fract_y
 _atom_site_fract_z
 _atom_site_occupancy
  Ba  Ba0  1  0.25000000  0.25000000  0.16085487  1
  Ba  Ba1  1  0.75000000  0.75000000  0.83914513  1
  Mg  Mg0  1  0.25000000  0.75000000  0.50000000  1
  Mg  Mg1  1  0.75000000  0.25000000  0.50000000  1
  Si  Si0  1  0.25000000  0.25000000  0.70161137  1
  Si  Si1  1  0.75000000  0.75000000  0.29838863  1
loop_
_geom_bond_atom_site_label_1
_geom_bond_atom_site_label_2
_geom_bond_distance
_geom_bond_site_symmetry_2
Ba0 Si1 3.463213 1_455
Ba0 Si1 3.463213 1_445
Ba0 Si1 3.463213 1_545
Ba0 Si1 3.463213 1_555
Ba0 Mg1 3.544161 1_455
Ba0 Mg0 3.544161 1_545
Ba0 Mg0 3.544161 1_555
Ba0 Mg1 3.544161 1_555
Ba0 Si0 3.621423 1_554
Ba1 Si0 3.463213 1_555
Ba1 Si0 3.463213 1_655
Ba1 Si0 3.463213 1_565
Ba1 Si0 3.463213 1_665
Ba1 Mg0 3.544161 1_655
Ba1 Mg1 3.544161 1_555
Ba1 Mg1 3.544161 1_565
Ba1 Mg0 3.544161 1_555
Ba1 Si1 3.621423 1_556
Mg0 Si0 2.817158 1_565
Mg0 Si0 2.817158 1_555
Mg0 Si1 2.817158 1_455
Mg0 Si1 2.817158 1_555
Mg1 Si0 2.817158 1_655
Mg1 Si0 2.817158 1_555
Mg1 Si1 2.817158 1_545
Mg1 Si1 2.817158 1_555
