# generated using pymatgen
data_PrErZn2
_symmetry_space_group_name_H-M   'P 1'
_cell_length_a   5.10386498
_cell_length_b   5.10386498
_cell_length_c   5.10386498
_cell_angle_alpha   60.00000000
_cell_angle_beta   60.00000000
_cell_angle_gamma   60.00000000
_symmetry_Int_Tables_number   1
_chemical_formula_structural   PrErZn2
_chemical_formula_sum   'Pr1 Er1 Zn2'
_cell_volume   94.01183584
_cell_formula_units_Z   1
loop_
 _symmetry_equiv_pos_site_id
 _symmetry_equiv_pos_as_xyz
  1  'x, y, z'
loop_
 _atom_site_type_symbol
 _atom_site_label
 _atom_site_symmetry_multiplicity
 _atom_site_fract_x
 _atom_site_fract_y
 _atom_site_fract_z
 _atom_site_occupancy
  Pr  Pr0  1  0.74999900  0.74999900  0.74999900  1
  Er  Er0  1  0.25000100  0.25000100  0.25000100  1
  Zn  Zn0  1  -0.00000000  -0.00000000  -0.00000000  1
  Zn  Zn1  1  0.50000000  0.50000000  0.50000000  1
loop_
_geom_bond_atom_site_label_1
_geom_bond_atom_site_label_2
_geom_bond_distance
_geom_bond_site_symmetry_2
Pr0 Zn1 3.125454 1_555
Pr0 Zn0 3.125462 1_665
Pr0 Zn0 3.125462 1_656
Pr0 Zn0 3.125462 1_566
Pr0 Zn1 3.125470 1_655
Pr0 Zn1 3.125470 1_556
Pr0 Zn1 3.125470 1_565
Pr0 Zn0 3.125479 1_666
Er0 Zn1 3.125454 1_555
Er0 Zn0 3.125462 1_565
Er0 Zn0 3.125462 1_655
Er0 Zn0 3.125462 1_556
Er0 Zn1 3.125470 1_455
Er0 Zn1 3.125470 1_554
Er0 Zn1 3.125470 1_545
Er0 Zn0 3.125479 1_555
