# generated using pymatgen
data_Nd2Be2SiO7
_symmetry_space_group_name_H-M   'P 1'
_cell_length_a   7.51823000
_cell_length_b   7.51823000
_cell_length_c   4.90634400
_cell_angle_alpha   90.00000000
_cell_angle_beta   90.00000000
_cell_angle_gamma   90.00000000
_symmetry_Int_Tables_number   1
_chemical_formula_structural   Nd2Be2SiO7
_chemical_formula_sum   'Nd4 Be4 Si2 O14'
_cell_volume   277.32512031
_cell_formula_units_Z   2
loop_
 _symmetry_equiv_pos_site_id
 _symmetry_equiv_pos_as_xyz
  1  'x, y, z'
loop_
 _atom_site_type_symbol
 _atom_site_label
 _atom_site_symmetry_multiplicity
 _atom_site_fract_x
 _atom_site_fract_y
 _atom_site_fract_z
 _atom_site_occupancy
  Nd  Nd0  1  0.83948600  0.66051400  0.49398100  1
  Nd  Nd1  1  0.33948600  0.83948600  0.50601900  1
  Nd  Nd2  1  0.66051400  0.16051400  0.50601900  1
  Nd  Nd3  1  0.16051400  0.33948600  0.49398100  1
  Be  Be0  1  0.13484200  0.63484200  0.96434100  1
  Be  Be1  1  0.63484200  0.86515800  0.03565900  1
  Be  Be2  1  0.86515800  0.36515800  0.96434100  1
  Be  Be3  1  0.36515800  0.13484200  0.03565900  1
  Si  Si0  1  0.50000000  0.50000000  0.00000000  1
  Si  Si1  1  0.00000000  0.00000000  0.00000000  1
  O  O0  1  0.85940900  0.35940900  0.28774200  1
  O  O1  1  0.35940900  0.14059100  0.71225800  1
  O  O2  1  0.14059100  0.64059100  0.28774200  1
  O  O3  1  0.64059100  0.85940900  0.71225800  1
  O  O4  1  0.50000000  0.00000000  0.17051200  1
  O  O5  1  0.00000000  0.50000000  0.82948800  1
  O  O6  1  0.07729900  0.83567800  0.80980500  1
  O  O7  1  0.16432200  0.07729900  0.19019500  1
  O  O8  1  0.83567800  0.92270100  0.19019500  1
  O  O9  1  0.92270100  0.16432200  0.80980500  1
  O  O10  1  0.57729900  0.66432200  0.19019500  1
  O  O11  1  0.42270100  0.33567800  0.19019500  1
  O  O12  1  0.33567800  0.57729900  0.80980500  1
  O  O13  1  0.66432200  0.42270100  0.80980500  1
loop_
_geom_bond_atom_site_label_1
_geom_bond_atom_site_label_2
_geom_bond_distance
_geom_bond_site_symmetry_2
Nd0 O3 2.370441 1_555
Nd0 O5 2.371145 1_655
Nd0 O10 2.471418 1_555
Nd0 O8 2.471418 1_555
Nd0 O0 2.484154 1_555
Nd0 O2 2.484154 1_655
Nd0 O13 2.707779 1_555
Nd0 O6 2.707779 1_655
Nd1 O2 2.370441 1_555
Nd1 O4 2.371145 1_565
Nd1 O12 2.471418 1_555
Nd1 O6 2.471418 1_555
Nd1 O1 2.484154 1_565
Nd1 O3 2.484154 1_555
Nd1 O7 2.707779 1_565
Nd1 O10 2.707779 1_555
Nd2 O0 2.370441 1_555
Nd2 O4 2.371145 1_555
Nd2 O13 2.471418 1_555
Nd2 O9 2.471418 1_555
Nd2 O1 2.484154 1_555
Nd2 O3 2.484154 1_545
Nd2 O11 2.707779 1_555
Nd2 O8 2.707779 1_545
Nd3 O1 2.370441 1_555
Nd3 O5 2.371145 1_555
Nd3 O11 2.471418 1_555
Nd3 O7 2.471418 1_555
Nd3 O2 2.484154 1_555
Nd3 O0 2.484154 1_455
Nd3 O9 2.707779 1_455
Nd3 O12 2.707779 1_555
Be0 O5 1.578998 1_555
Be0 O2 1.587893 1_556
Be0 O6 1.744113 1_555
Be0 O12 1.744113 1_555
Be1 O4 1.578998 1_565
Be1 O3 1.587893 1_554
Be1 O8 1.744113 1_555
Be1 O10 1.744113 1_555
Be2 O5 1.578998 1_655
Be2 O0 1.587893 1_556
Be2 O9 1.744113 1_555
Be2 O13 1.744113 1_555
Be3 O4 1.578998 1_555
Be3 O1 1.587893 1_554
Be3 O11 1.744113 1_555
Be3 O7 1.744113 1_555
O6 Si1 1.653713 1_566
O7 Si1 1.653713 1_555
O8 Si1 1.653713 1_665
O9 Si1 1.653713 1_656
O10 Si0 1.653713 1_555
O11 Si0 1.653713 1_555
O12 Si0 1.653713 1_556
O13 Si0 1.653713 1_556
