# generated using pymatgen
data_Mg3Sn
_symmetry_space_group_name_H-M   'P 1'
_cell_length_a   10.93789570
_cell_length_b   10.93794979
_cell_length_c   5.11656411
_cell_angle_alpha   90.00132372
_cell_angle_beta   90.00036823
_cell_angle_gamma   120.00565306
_symmetry_Int_Tables_number   1
_chemical_formula_structural   Mg3Sn
_chemical_formula_sum   'Mg18 Sn6'
_cell_volume   530.09537238
_cell_formula_units_Z   6
loop_
 _symmetry_equiv_pos_site_id
 _symmetry_equiv_pos_as_xyz
  1  'x, y, z'
loop_
 _atom_site_type_symbol
 _atom_site_label
 _atom_site_symmetry_multiplicity
 _atom_site_fract_x
 _atom_site_fract_y
 _atom_site_fract_z
 _atom_site_occupancy
  Mg  Mg0  1  0.49989340  0.82991188  0.24964428  1
  Mg  Mg1  1  0.33002267  0.50013228  0.24964230  1
  Mg  Mg2  1  0.17008637  0.66994927  0.24964527  1
  Mg  Mg3  1  0.50010891  0.17008606  0.75035139  1
  Mg  Mg4  1  0.66997348  0.49986223  0.75034586  1
  Mg  Mg5  1  0.82991512  0.33005707  0.75035370  1
  Mg  Mg6  1  0.16656694  0.16323307  0.24965143  1
  Mg  Mg7  1  0.99667039  0.83346351  0.24965637  1
  Mg  Mg8  1  0.83676983  0.00329623  0.24964759  1
  Mg  Mg9  1  0.83343321  0.83676915  0.75034320  1
  Mg  Mg10  1  0.00332679  0.16653410  0.75034598  1
  Mg  Mg11  1  0.16323068  0.99670542  0.75035198  1
  Mg  Mg12  1  0.83324409  0.49656355  0.24969563  1
  Mg  Mg13  1  0.66333989  0.16679795  0.24970205  1
  Mg  Mg14  1  0.50343118  0.33663555  0.24968216  1
  Mg  Mg15  1  0.16675630  0.50344195  0.75031177  1
  Mg  Mg16  1  0.33666586  0.83320657  0.75030297  1
  Mg  Mg17  1  0.49656246  0.66335625  0.75032085  1
  Sn  Sn0  1  0.66666153  0.66668575  0.25011806  1
  Sn  Sn1  1  0.00002786  0.33333140  0.25016295  1
  Sn  Sn2  1  0.33330636  0.99997191  0.25017702  1
  Sn  Sn3  1  0.33333658  0.33330795  0.74989973  1
  Sn  Sn4  1  0.99997331  0.66667330  0.74984010  1
  Sn  Sn5  1  0.66669481  0.00002859  0.74980636  1
loop_
_geom_bond_atom_site_label_1
_geom_bond_atom_site_label_2
_geom_bond_distance
_geom_bond_site_symmetry_2
Mg0 Mg1 3.124143 1_555
Mg0 Mg2 3.124390 1_555
Mg0 Sn0 3.126027 1_555
Mg0 Mg16 3.127411 1_554
Mg0 Mg17 3.127412 1_554
Mg0 Mg16 3.132937 1_555
Mg0 Mg17 3.133139 1_555
Mg0 Sn5 3.152205 1_564
Mg0 Sn5 3.153462 1_565
Mg0 Sn2 3.189044 1_555
Mg0 Mg8 3.191332 1_565
Mg0 Mg13 3.191459 1_565
Mg1 Mg2 3.124151 1_555
Mg1 Sn1 3.125758 1_555
Mg1 Mg17 3.127338 1_554
Mg1 Mg15 3.127660 1_554
Mg1 Mg17 3.132927 1_555
Mg1 Mg15 3.133276 1_555
Mg1 Sn3 3.151969 1_554
Mg1 Sn3 3.154175 1_555
Mg1 Sn0 3.188690 1_555
Mg1 Mg6 3.191583 1_555
Mg1 Mg14 3.191892 1_555
Mg2 Sn2 3.126040 1_555
Mg2 Sn4 3.152201 1_454
Mg2 Sn4 3.153839 1_455
Mg2 Sn1 3.188502 1_555
Mg2 Mg7 3.192128 1_455
Mg3 Mg4 3.124110 1_555
Mg3 Mg5 3.124381 1_555
Mg3 Sn3 3.126027 1_555
Mg3 Sn2 3.152149 1_546
Mg3 Sn2 3.153508 1_545
Mg3 Sn5 3.189009 1_555
Mg4 Mg5 3.124088 1_555
Mg4 Sn4 3.125806 1_555
Mg4 Sn0 3.152081 1_556
Mg4 Sn0 3.154040 1_555
Mg4 Sn3 3.188671 1_555
Mg4 Mg9 3.191656 1_555
Mg5 Sn5 3.126095 1_555
Mg5 Sn1 3.152221 1_656
Mg5 Sn1 3.153825 1_655
Mg5 Sn4 3.188487 1_555
Mg6 Mg7 3.124054 1_445
Mg6 Mg8 3.124300 1_455
Mg6 Sn2 3.126085 1_545
Mg6 Sn3 3.151611 1_554
Mg6 Sn3 3.153584 1_555
Mg6 Sn1 3.188956 1_555
Mg7 Mg8 3.123966 1_565
Mg7 Sn0 3.125889 1_555
Mg7 Mg9 3.127390 1_554
Mg7 Mg9 3.133151 1_555
Mg7 Sn4 3.152021 1_554
Mg7 Sn4 3.153614 1_555
Mg7 Sn2 3.188665 1_655
Mg8 Sn1 3.126156 1_655
Mg8 Mg9 3.127135 1_544
Mg8 Mg9 3.133022 1_545
Mg8 Sn5 3.152133 1_554
Mg8 Sn5 3.153472 1_555
Mg8 Sn0 3.188435 1_545
Mg9 Sn5 3.126059 1_565
Mg9 Sn0 3.151742 1_556
Mg9 Sn0 3.153522 1_555
Mg9 Sn4 3.188942 1_555
Mg10 Mg11 3.123959 1_545
Mg10 Mg9 3.124010 1_445
Mg10 Sn3 3.125897 1_555
Mg10 Mg8 3.127353 1_456
Mg10 Mg6 3.127361 1_556
Mg10 Mg8 3.133108 1_455
Mg10 Mg6 3.133187 1_555
Mg10 Sn1 3.152056 1_556
Mg10 Sn1 3.153644 1_555
Mg10 Sn5 3.188628 1_455
Mg10 Mg15 3.191671 1_555
Mg10 Mg5 3.192168 1_455
Mg11 Mg9 3.124304 1_455
Mg11 Sn4 3.126127 1_455
Mg11 Mg6 3.127119 1_566
Mg11 Mg7 3.127388 1_456
Mg11 Mg6 3.133047 1_565
Mg11 Mg7 3.133119 1_455
Mg11 Sn2 3.152073 1_556
Mg11 Sn2 3.153547 1_555
Mg11 Sn3 3.188360 1_565
Mg11 Mg3 3.191348 1_565
Mg11 Mg16 3.192167 1_555
Mg12 Mg13 3.124018 1_555
Mg12 Mg14 3.124453 1_555
Mg12 Sn1 3.126232 1_655
Mg12 Mg5 3.127185 1_554
Mg12 Mg4 3.127731 1_554
Mg12 Mg5 3.132759 1_555
Mg12 Mg4 3.133186 1_555
Mg12 Sn4 3.152031 1_554
Mg12 Sn4 3.153142 1_555
Mg12 Sn0 3.189593 1_555
Mg12 Mg2 3.191012 1_655
Mg12 Mg7 3.191596 1_555
Mg13 Mg14 3.124089 1_555
Mg13 Sn2 3.126125 1_545
Mg13 Mg3 3.127451 1_554
Mg13 Mg5 3.127673 1_554
Mg13 Mg3 3.132899 1_555
Mg13 Mg5 3.133036 1_555
Mg13 Sn5 3.152388 1_554
Mg13 Sn5 3.153323 1_555
Mg13 Sn1 3.189158 1_655
Mg13 Mg8 3.192144 1_555
Mg14 Sn0 3.126301 1_555
Mg14 Mg4 3.127417 1_554
Mg14 Mg3 3.127430 1_554
Mg14 Mg4 3.132881 1_555
Mg14 Mg3 3.133096 1_555
Mg14 Sn3 3.151828 1_554
Mg14 Sn3 3.153655 1_555
Mg14 Sn2 3.188938 1_545
Mg14 Mg6 3.191221 1_555
Mg15 Mg16 3.124010 1_555
Mg15 Mg17 3.124391 1_555
Mg15 Sn4 3.126217 1_455
Mg15 Mg2 3.127152 1_556
Mg15 Mg2 3.132796 1_555
Mg15 Sn1 3.152014 1_556
Mg15 Sn1 3.153161 1_555
Mg15 Sn3 3.189683 1_555
Mg15 Mg5 3.191002 1_455
Mg16 Mg17 3.124097 1_555
Mg16 Sn5 3.126081 1_565
Mg16 Mg2 3.127656 1_556
Mg16 Mg2 3.133070 1_555
Mg16 Sn2 3.152288 1_556
Mg16 Sn2 3.153402 1_555
Mg16 Sn4 3.189201 1_455
Mg16 Mg3 3.191397 1_565
Mg17 Sn3 3.126283 1_555
Mg17 Sn0 3.151912 1_556
Mg17 Sn0 3.153617 1_555
Mg17 Sn5 3.189021 1_565
Mg17 Mg9 3.191284 1_555
Mg17 Mg4 3.191891 1_555
