# generated using pymatgen
data_Ba2Pd2O5
_symmetry_space_group_name_H-M   'P 1'
_cell_length_a   4.09556200
_cell_length_b   4.09556200
_cell_length_c   8.46084700
_cell_angle_alpha   90.00000000
_cell_angle_beta   90.00000000
_cell_angle_gamma   90.00000000
_symmetry_Int_Tables_number   1
_chemical_formula_structural   Ba2Pd2O5
_chemical_formula_sum   'Ba2 Pd2 O5'
_cell_volume   141.91910095
_cell_formula_units_Z   1
loop_
 _symmetry_equiv_pos_site_id
 _symmetry_equiv_pos_as_xyz
  1  'x, y, z'
loop_
 _atom_site_type_symbol
 _atom_site_label
 _atom_site_symmetry_multiplicity
 _atom_site_fract_x
 _atom_site_fract_y
 _atom_site_fract_z
 _atom_site_occupancy
  Ba  Ba0  1  0.50000000  0.50000000  0.00000000  1
  Ba  Ba1  1  0.50000000  0.50000000  0.50000000  1
  Pd  Pd0  1  0.00000000  0.00000000  0.25171800  1
  Pd  Pd1  1  0.00000000  0.00000000  0.74828200  1
  O  O0  1  0.00000000  0.50000000  0.21769100  1
  O  O1  1  0.00000000  0.50000000  0.78230900  1
  O  O2  1  0.00000000  0.00000000  0.50000000  1
  O  O3  1  0.50000000  0.00000000  0.21769100  1
  O  O4  1  0.50000000  0.00000000  0.78230900  1
loop_
_geom_bond_atom_site_label_1
_geom_bond_atom_site_label_2
_geom_bond_distance
_geom_bond_site_symmetry_2
Ba0 O1 2.754237 1_654
Ba0 O0 2.754237 1_555
Ba0 O4 2.754237 1_564
Ba0 O3 2.754237 1_565
Ba0 O0 2.754237 1_655
Ba0 O4 2.754237 1_554
Ba0 O1 2.754237 1_554
Ba0 O3 2.754237 1_555
Ba1 O2 2.896000 1_555
Ba1 O2 2.896000 1_565
Ba1 O2 2.896000 1_665
Ba1 O2 2.896000 1_655
Ba1 O1 3.146218 1_555
Ba1 O1 3.146218 1_655
Ba1 O4 3.146218 1_565
Ba1 O3 3.146218 1_555
Ba1 O0 3.146218 1_555
Ba1 O3 3.146218 1_565
Ba1 O0 3.146218 1_655
Ba1 O4 3.146218 1_555
O0 Pd0 2.067920 1_565
O0 Pd0 2.067920 1_555
O1 Pd1 2.067920 1_565
O1 Pd1 2.067920 1_555
O2 Pd0 2.100676 1_555
O2 Pd1 2.100676 1_555
O3 Pd0 2.067920 1_655
O3 Pd0 2.067920 1_555
O4 Pd1 2.067920 1_655
O4 Pd1 2.067920 1_555
