# generated using pymatgen
data_NdCl2
_symmetry_space_group_name_H-M   'P 1'
_cell_length_a   7.16131900
_cell_length_b   7.16131900
_cell_length_c   3.59445000
_cell_angle_alpha   90.00000000
_cell_angle_beta   90.00000000
_cell_angle_gamma   90.00000000
_symmetry_Int_Tables_number   1
_chemical_formula_structural   NdCl2
_chemical_formula_sum   'Nd2 Cl4'
_cell_volume   184.33953443
_cell_formula_units_Z   2
loop_
 _symmetry_equiv_pos_site_id
 _symmetry_equiv_pos_as_xyz
  1  'x, y, z'
loop_
 _atom_site_type_symbol
 _atom_site_label
 _atom_site_symmetry_multiplicity
 _atom_site_fract_x
 _atom_site_fract_y
 _atom_site_fract_z
 _atom_site_occupancy
  Nd  Nd0  1  0.00000000  0.00000000  0.00000000  1
  Nd  Nd1  1  0.50000000  0.50000000  0.50000000  1
  Cl  Cl0  1  0.28021100  0.28021100  0.00000000  1
  Cl  Cl1  1  0.71978900  0.71978900  0.00000000  1
  Cl  Cl2  1  0.21978900  0.78021100  0.50000000  1
  Cl  Cl3  1  0.78021100  0.21978900  0.50000000  1
loop_
_geom_bond_atom_site_label_1
_geom_bond_atom_site_label_2
_geom_bond_distance
_geom_bond_site_symmetry_2
Cl0 Nd0 2.837875 1_555
Cl0 Nd1 2.860916 1_554
Cl0 Nd1 2.860916 1_555
Cl1 Nd0 2.837875 1_665
Cl1 Nd1 2.860916 1_554
Cl1 Nd1 2.860916 1_555
Cl2 Nd1 2.837875 1_555
Cl2 Nd0 2.860916 1_566
Cl2 Nd0 2.860916 1_565
Cl3 Nd1 2.837875 1_555
Cl3 Nd0 2.860916 1_656
Cl3 Nd0 2.860916 1_655
