# generated using pymatgen
data_Re3Bi
_symmetry_space_group_name_H-M   'P 1'
_cell_length_a   6.49851965
_cell_length_b   6.49851965
_cell_length_c   4.29990300
_cell_angle_alpha   90.00000000
_cell_angle_beta   90.00000000
_cell_angle_gamma   119.99999641
_symmetry_Int_Tables_number   1
_chemical_formula_structural   Re3Bi
_chemical_formula_sum   'Re6 Bi2'
_cell_volume   157.25996643
_cell_formula_units_Z   2
loop_
 _symmetry_equiv_pos_site_id
 _symmetry_equiv_pos_as_xyz
  1  'x, y, z'
loop_
 _atom_site_type_symbol
 _atom_site_label
 _atom_site_symmetry_multiplicity
 _atom_site_fract_x
 _atom_site_fract_y
 _atom_site_fract_z
 _atom_site_occupancy
  Re  Re0  1  0.13631300  0.27262700  0.25000000  1
  Re  Re1  1  0.72737300  0.86368700  0.25000000  1
  Re  Re2  1  0.13631300  0.86368700  0.25000000  1
  Re  Re3  1  0.86368700  0.72737300  0.75000000  1
  Re  Re4  1  0.27262700  0.13631300  0.75000000  1
  Re  Re5  1  0.86368700  0.13631300  0.75000000  1
  Bi  Bi0  1  0.33333300  0.66666700  0.75000000  1
  Bi  Bi1  1  0.66666700  0.33333300  0.25000000  1
loop_
_geom_bond_atom_site_label_1
_geom_bond_atom_site_label_2
_geom_bond_distance
_geom_bond_site_symmetry_2
Re0 Re5 2.641286 1_455
Re0 Re5 2.641286 1_454
Re0 Re4 2.641292 1_555
Re0 Re4 2.641292 1_554
Re0 Re2 2.657505 1_545
Re0 Re1 2.657505 1_445
Re1 Re5 2.641286 1_564
Re1 Re5 2.641286 1_565
Re1 Re3 2.641292 1_554
Re1 Re3 2.641292 1_555
Re1 Re2 2.657505 1_655
Re2 Re4 2.641286 1_564
Re2 Re4 2.641286 1_565
Re2 Re3 2.641286 1_455
Re2 Re3 2.641286 1_454
Re3 Re5 2.657505 1_565
Re3 Re4 2.657505 1_665
Re4 Re5 2.657505 1_455
Bi0 Re2 3.088704 1_555
Bi0 Re2 3.088704 1_556
Bi0 Re0 3.088704 1_555
Bi0 Re0 3.088704 1_556
Bi0 Re1 3.088704 1_556
Bi0 Re1 3.088704 1_555
Bi0 Re4 3.267165 1_565
Bi0 Re3 3.267165 1_455
Bi0 Re5 3.267173 1_565
Bi0 Re5 3.267173 1_455
Bi0 Re4 3.267178 1_555
Bi0 Re3 3.267178 1_555
Bi1 Re5 3.088704 1_554
Bi1 Re5 3.088704 1_555
Bi1 Re4 3.088704 1_554
Bi1 Re4 3.088704 1_555
Bi1 Re3 3.088704 1_554
Bi1 Re3 3.088704 1_555
Bi1 Re0 3.267165 1_655
Bi1 Re1 3.267165 1_545
Bi1 Re2 3.267173 1_655
Bi1 Re2 3.267173 1_545
Bi1 Re0 3.267178 1_555
Bi1 Re1 3.267178 1_555
