# generated using pymatgen
data_Pr3Cu
_symmetry_space_group_name_H-M   'P 1'
_cell_length_a   6.09743395
_cell_length_b   6.09743395
_cell_length_c   6.09743395
_cell_angle_alpha   134.37966782
_cell_angle_beta   134.37966782
_cell_angle_gamma   66.49559878
_symmetry_Int_Tables_number   1
_chemical_formula_structural   Pr3Cu
_chemical_formula_sum   'Pr3 Cu1'
_cell_volume   113.97563834
_cell_formula_units_Z   1
loop_
 _symmetry_equiv_pos_site_id
 _symmetry_equiv_pos_as_xyz
  1  'x, y, z'
loop_
 _atom_site_type_symbol
 _atom_site_label
 _atom_site_symmetry_multiplicity
 _atom_site_fract_x
 _atom_site_fract_y
 _atom_site_fract_z
 _atom_site_occupancy
  Pr  Pr0  1  0.75000000  0.25000000  0.50000000  1
  Pr  Pr1  1  0.25000000  0.75000000  0.50000000  1
  Pr  Pr2  1  0.50000000  0.50000000  0.00000000  1
  Cu  Cu0  1  0.00000000  0.00000000  0.00000000  1
loop_
_geom_bond_atom_site_label_1
_geom_bond_atom_site_label_2
_geom_bond_distance
_geom_bond_site_symmetry_2
Pr0 Pr1 3.342986 1_656
Pr0 Pr1 3.342986 1_544
Pr0 Pr1 3.342986 1_645
Pr0 Pr1 3.342986 1_555
Pr0 Pr2 3.476861 1_556
Pr0 Pr2 3.476861 1_656
Pr0 Pr2 3.476861 1_545
Pr0 Pr2 3.476861 1_555
Pr1 Pr2 3.476861 1_556
Pr1 Pr2 3.476861 1_555
Pr1 Pr2 3.476861 1_566
Pr1 Pr2 3.476861 1_455
Cu0 Pr2 3.342986 1_556
Cu0 Pr2 3.342986 1_444
Cu0 Pr2 3.342986 1_455
Cu0 Pr2 3.342986 1_545
Cu0 Pr1 3.476861 1_545
Cu0 Pr0 3.476861 1_454
Cu0 Pr0 3.476861 1_555
Cu0 Pr0 3.476861 1_444
Cu0 Pr1 3.476861 1_444
Cu0 Pr0 3.476861 1_455
Cu0 Pr1 3.476861 1_544
Cu0 Pr1 3.476861 1_555
