# generated using pymatgen
data_La7YAl8O24
_symmetry_space_group_name_H-M   'P 1'
_cell_length_a   7.60201900
_cell_length_b   7.60201900
_cell_length_c   7.60201900
_cell_angle_alpha   90.00000000
_cell_angle_beta   90.00000000
_cell_angle_gamma   90.00000000
_symmetry_Int_Tables_number   1
_chemical_formula_structural   La7YAl8O24
_chemical_formula_sum   'La7 Y1 Al8 O24'
_cell_volume   439.32594527
_cell_formula_units_Z   1
loop_
 _symmetry_equiv_pos_site_id
 _symmetry_equiv_pos_as_xyz
  1  'x, y, z'
loop_
 _atom_site_type_symbol
 _atom_site_label
 _atom_site_symmetry_multiplicity
 _atom_site_fract_x
 _atom_site_fract_y
 _atom_site_fract_z
 _atom_site_occupancy
  La  La0  1  0.00000000  0.00000000  0.50000000  1
  La  La1  1  0.00000000  0.50000000  0.00000000  1
  La  La2  1  0.00000000  0.50000000  0.50000000  1
  La  La3  1  0.50000000  0.00000000  0.00000000  1
  La  La4  1  0.50000000  0.00000000  0.50000000  1
  La  La5  1  0.50000000  0.50000000  0.00000000  1
  La  La6  1  0.50000000  0.50000000  0.50000000  1
  Y  Y0  1  0.00000000  0.00000000  0.00000000  1
  Al  Al0  1  0.75110800  0.75110800  0.75110800  1
  Al  Al1  1  0.75110800  0.75110800  0.24889200  1
  Al  Al2  1  0.75110800  0.24889200  0.75110800  1
  Al  Al3  1  0.75110800  0.24889200  0.24889200  1
  Al  Al4  1  0.24889200  0.75110800  0.75110800  1
  Al  Al5  1  0.24889200  0.75110800  0.24889200  1
  Al  Al6  1  0.24889200  0.24889200  0.75110800  1
  Al  Al7  1  0.24889200  0.24889200  0.24889200  1
  O  O0  1  0.75244800  0.00000000  0.75244800  1
  O  O1  1  0.75244800  0.00000000  0.24755200  1
  O  O2  1  0.75034100  0.50000000  0.75034100  1
  O  O3  1  0.75034100  0.50000000  0.24965900  1
  O  O4  1  0.24755200  0.00000000  0.75244800  1
  O  O5  1  0.24755200  0.00000000  0.24755200  1
  O  O6  1  0.24965900  0.50000000  0.75034100  1
  O  O7  1  0.24965900  0.50000000  0.24965900  1
  O  O8  1  0.75244800  0.75244800  0.00000000  1
  O  O9  1  0.75034100  0.75034100  0.50000000  1
  O  O10  1  0.75244800  0.24755200  0.00000000  1
  O  O11  1  0.75034100  0.24965900  0.50000000  1
  O  O12  1  0.24755200  0.75244800  0.00000000  1
  O  O13  1  0.24965900  0.75034100  0.50000000  1
  O  O14  1  0.24755200  0.24755200  0.00000000  1
  O  O15  1  0.24965900  0.24965900  0.50000000  1
  O  O16  1  0.00000000  0.75244800  0.75244800  1
  O  O17  1  0.00000000  0.75244800  0.24755200  1
  O  O18  1  0.00000000  0.24755200  0.75244800  1
  O  O19  1  0.00000000  0.24755200  0.24755200  1
  O  O20  1  0.50000000  0.75034100  0.75034100  1
  O  O21  1  0.50000000  0.75034100  0.24965900  1
  O  O22  1  0.50000000  0.24965900  0.75034100  1
  O  O23  1  0.50000000  0.24965900  0.24965900  1
loop_
_geom_bond_atom_site_label_1
_geom_bond_atom_site_label_2
_geom_bond_distance
_geom_bond_site_symmetry_2
La0 O15 2.684054 1_555
La0 O13 2.684054 1_545
La0 O9 2.684054 1_445
La0 O11 2.684054 1_455
La0 O1 2.687848 1_455
La0 O19 2.687848 1_555
La0 O0 2.687848 1_455
La0 O4 2.687848 1_555
La0 O16 2.687848 1_545
La0 O5 2.687848 1_555
La0 O18 2.687848 1_555
La0 O17 2.687848 1_545
La1 O7 2.684054 1_555
La1 O3 2.684054 1_455
La1 O6 2.684054 1_554
La1 O2 2.684054 1_454
La1 O16 2.687848 1_554
La1 O8 2.687848 1_455
La1 O17 2.687848 1_555
La1 O18 2.687848 1_554
La1 O14 2.687848 1_555
La1 O12 2.687848 1_555
La1 O10 2.687848 1_455
La1 O19 2.687848 1_555
La2 O15 2.687722 1_555
La2 O7 2.687722 1_555
La2 O3 2.687722 1_455
La2 O6 2.687722 1_555
La2 O13 2.687722 1_555
La2 O2 2.687722 1_455
La2 O11 2.687722 1_455
La2 O9 2.687722 1_455
La2 O19 2.714038 1_555
La2 O16 2.714038 1_555
La2 O17 2.714038 1_555
La2 O18 2.714038 1_555
La3 O23 2.684054 1_555
La3 O20 2.684054 1_544
La3 O22 2.684054 1_554
La3 O21 2.684054 1_545
La3 O10 2.687848 1_555
La3 O8 2.687848 1_545
La3 O12 2.687848 1_545
La3 O4 2.687848 1_554
La3 O1 2.687848 1_555
La3 O5 2.687848 1_555
La3 O14 2.687848 1_555
La3 O0 2.687848 1_554
La4 O20 2.687722 1_545
La4 O15 2.687722 1_555
La4 O13 2.687722 1_545
La4 O22 2.687722 1_555
La4 O9 2.687722 1_545
La4 O21 2.687722 1_545
La4 O23 2.687722 1_555
La4 O11 2.687722 1_555
La4 O0 2.714038 1_555
La4 O4 2.714038 1_555
La4 O1 2.714038 1_555
La4 O5 2.714038 1_555
La5 O7 2.687722 1_555
La5 O2 2.687722 1_554
La5 O6 2.687722 1_554
La5 O22 2.687722 1_554
La5 O3 2.687722 1_555
La5 O23 2.687722 1_555
La5 O20 2.687722 1_554
La5 O21 2.687722 1_555
La5 O12 2.714038 1_555
La5 O10 2.714038 1_555
La5 O14 2.714038 1_555
La5 O8 2.714038 1_555
La6 O15 2.691386 1_555
La6 O7 2.691386 1_555
La6 O6 2.691386 1_555
La6 O9 2.691386 1_555
La6 O13 2.691386 1_555
La6 O22 2.691386 1_555
La6 O2 2.691386 1_555
La6 O3 2.691386 1_555
La6 O20 2.691386 1_555
La6 O23 2.691386 1_555
La6 O21 2.691386 1_555
La6 O11 2.691386 1_555
Al0 O0 1.892137 1_565
Al0 O8 1.892137 1_556
Al0 O16 1.892137 1_655
Al0 O9 1.908946 1_555
Al0 O20 1.908946 1_555
Al0 O2 1.908946 1_555
Al1 O1 1.892137 1_565
Al1 O8 1.892137 1_555
Al1 O17 1.892137 1_655
Al1 O21 1.908946 1_555
Al1 O9 1.908946 1_555
Al1 O3 1.908946 1_555
Al2 O0 1.892137 1_555
Al2 O10 1.892137 1_556
Al2 O18 1.892137 1_655
Al2 O11 1.908946 1_555
Al2 O22 1.908946 1_555
Al2 O2 1.908946 1_555
Al3 O19 1.892137 1_655
Al3 O1 1.892137 1_555
Al3 O10 1.892137 1_555
Al3 O11 1.908946 1_555
Al3 O23 1.908946 1_555
Al3 O3 1.908946 1_555
Al4 O16 1.892137 1_555
Al4 O4 1.892137 1_565
Al4 O12 1.892137 1_556
Al4 O6 1.908946 1_555
Al4 O13 1.908946 1_555
Al4 O20 1.908946 1_555
Al5 O12 1.892137 1_555
Al5 O17 1.892137 1_555
Al5 O5 1.892137 1_565
Al5 O21 1.908946 1_555
Al5 O7 1.908946 1_555
Al5 O13 1.908946 1_555
Al6 O14 1.892137 1_556
Al6 O4 1.892137 1_555
Al6 O18 1.892137 1_555
Al6 O6 1.908946 1_555
Al6 O15 1.908946 1_555
Al6 O22 1.908946 1_555
Al7 O19 1.892137 1_555
Al7 O14 1.892137 1_555
Al7 O5 1.892137 1_555
Al7 O23 1.908946 1_555
Al7 O15 1.908946 1_555
Al7 O7 1.908946 1_555
O0 Y0 2.661401 1_656
O1 Y0 2.661401 1_655
O4 Y0 2.661401 1_556
O5 Y0 2.661401 1_555
O8 Y0 2.661401 1_665
O10 Y0 2.661401 1_655
O12 Y0 2.661401 1_565
O14 Y0 2.661401 1_555
O16 Y0 2.661401 1_566
O17 Y0 2.661401 1_565
O18 Y0 2.661401 1_556
O19 Y0 2.661401 1_555
