# generated using pymatgen
data_CsAu3S2
_symmetry_space_group_name_H-M   'P 1'
_cell_length_a   6.33305570
_cell_length_b   6.33305666
_cell_length_c   5.19175498
_cell_angle_alpha   90.00000000
_cell_angle_beta   90.00000000
_cell_angle_gamma   120.00000071
_symmetry_Int_Tables_number   1
_chemical_formula_structural   CsAu3S2
_chemical_formula_sum   'Cs1 Au3 S2'
_cell_volume   180.33145959
_cell_formula_units_Z   1
loop_
 _symmetry_equiv_pos_site_id
 _symmetry_equiv_pos_as_xyz
  1  'x, y, z'
loop_
 _atom_site_type_symbol
 _atom_site_label
 _atom_site_symmetry_multiplicity
 _atom_site_fract_x
 _atom_site_fract_y
 _atom_site_fract_z
 _atom_site_occupancy
  Cs  Cs0  1  0.00000000  0.00000000  0.50000000  1
  Au  Au0  1  0.00000000  0.50000000  0.00000000  1
  Au  Au1  1  0.50000000  0.00000000  0.00000000  1
  Au  Au2  1  0.50000000  0.50000000  0.00000000  1
  S  S0  1  0.33333300  0.66666700  0.72354085  1
  S  S1  1  0.66666700  0.33333300  0.27645915  1
loop_
_geom_bond_atom_site_label_1
_geom_bond_atom_site_label_2
_geom_bond_distance
_geom_bond_site_symmetry_2
Cs0 S1 3.836156 1_455
Cs0 S0 3.836156 1_545
Cs0 S0 3.836161 1_445
Cs0 S1 3.836161 1_555
Cs0 S0 3.836162 1_555
Cs0 S1 3.836162 1_445
Au0 S1 2.324307 1_455
Au0 S0 2.324307 1_554
Au0 Cs0 4.094567 1_555
Au0 Cs0 4.094567 1_564
Au0 Cs0 4.094567 1_554
Au0 Cs0 4.094567 1_565
Au1 S0 2.324307 1_544
Au1 S1 2.324307 1_555
Au1 Cs0 4.094567 1_555
Au1 Cs0 4.094567 1_655
Au1 Cs0 4.094567 1_554
Au1 Cs0 4.094567 1_654
Au2 S0 2.324311 1_554
Au2 S1 2.324311 1_555
Au2 Cs0 4.094567 1_665
Au2 Cs0 4.094567 1_555
Au2 Cs0 4.094567 1_554
Au2 Cs0 4.094567 1_664
