# generated using pymatgen
data_NbGaRu2
_symmetry_space_group_name_H-M   'P 1'
_cell_length_a   4.36802105
_cell_length_b   4.36803713
_cell_length_c   4.36797263
_cell_angle_alpha   60.00037555
_cell_angle_beta   59.99939129
_cell_angle_gamma   59.99993478
_symmetry_Int_Tables_number   1
_chemical_formula_structural   NbGaRu2
_chemical_formula_sum   'Nb1 Ga1 Ru2'
_cell_volume   58.92980115
_cell_formula_units_Z   1
loop_
 _symmetry_equiv_pos_site_id
 _symmetry_equiv_pos_as_xyz
  1  'x, y, z'
loop_
 _atom_site_type_symbol
 _atom_site_label
 _atom_site_symmetry_multiplicity
 _atom_site_fract_x
 _atom_site_fract_y
 _atom_site_fract_z
 _atom_site_occupancy
  Nb  Nb0  1  0.75000182  0.74999919  0.74999924  1
  Ga  Ga0  1  0.25000159  0.24999930  0.25000014  1
  Ru  Ru0  1  0.49999796  0.50000113  0.50000112  1
  Ru  Ru1  1  0.00000063  0.00000138  0.00000150  1
loop_
_geom_bond_atom_site_label_1
_geom_bond_atom_site_label_2
_geom_bond_distance
_geom_bond_site_symmetry_2
Nb0 Ru1 2.674814 1_665
Nb0 Ru0 2.674826 1_655
Nb0 Ru0 2.674828 1_556
Nb0 Ru1 2.674844 1_566
Nb0 Ru0 2.674851 1_555
Nb0 Ru1 2.674863 1_666
Nb0 Ru1 2.674868 1_656
Nb0 Ru0 2.674883 1_565
Ga0 Ru0 2.674818 1_554
Ga0 Ru1 2.674827 1_556
Ga0 Ru1 2.674836 1_655
Ga0 Ru1 2.674842 1_555
Ga0 Ru0 2.674848 1_555
Ga0 Ru0 2.674852 1_455
Ga0 Ru0 2.674869 1_545
Ga0 Ru1 2.674883 1_565
