# generated using pymatgen
data_TbNiB4
_symmetry_space_group_name_H-M   'P 1'
_cell_length_a   6.81261172
_cell_length_b   6.81261230
_cell_length_c   6.81260334
_cell_angle_alpha   112.98310995
_cell_angle_beta   112.98306739
_cell_angle_gamma   102.65438172
_symmetry_Int_Tables_number   1
_chemical_formula_structural   TbNiB4
_chemical_formula_sum   'Tb4 Ni4 B16'
_cell_volume   240.85976170
_cell_formula_units_Z   4
loop_
 _symmetry_equiv_pos_site_id
 _symmetry_equiv_pos_as_xyz
  1  'x, y, z'
loop_
 _atom_site_type_symbol
 _atom_site_label
 _atom_site_symmetry_multiplicity
 _atom_site_fract_x
 _atom_site_fract_y
 _atom_site_fract_z
 _atom_site_occupancy
  Tb  Tb0  1  0.20418801  0.20418626  0.00000184  1
  Tb  Tb1  1  0.79581532  0.79581363  0.00000157  1
  Tb  Tb2  1  0.75000761  0.24999993  0.50000707  1
  Tb  Tb3  1  0.25000640  0.75000025  0.50000710  1
  Ni  Ni0  1  0.49998320  0.27279402  0.77277576  1
  Ni  Ni1  1  0.49998126  0.72720583  0.22718829  1
  Ni  Ni2  1  0.72720200  0.49999866  0.22720189  1
  Ni  Ni3  1  0.27278630  0.50000094  0.77278602  1
  B  B0  1  0.11191627  0.27635857  0.38827377  1
  B  B1  1  0.88809224  0.72364176  0.61173503  1
  B  B2  1  0.88809206  0.27635643  0.16444973  1
  B  B3  1  0.11191632  0.72364330  0.83555852  1
  B  B4  1  0.72364118  0.88808748  0.61172975  1
  B  B5  1  0.27635883  0.11191158  0.38826931  1
  B  B6  1  0.72364281  0.11191274  0.83555451  1
  B  B7  1  0.27635697  0.88808845  0.16444656  1
  B  B8  1  0.41918972  0.41918917  0.53360702  1
  B  B9  1  0.88558768  0.88558642  0.46639851  1
  B  B10  1  0.58081243  0.11441391  0.00000155  1
  B  B11  1  0.11441711  0.58081091  0.00000099  1
  B  B12  1  0.58081246  0.58081124  0.46639776  1
  B  B13  1  0.11441685  0.11441627  0.53360633  1
  B  B14  1  0.88558724  0.41918871  0.00000080  1
  B  B15  1  0.41918972  0.88558353  0.00000033  1
loop_
_geom_bond_atom_site_label_1
_geom_bond_atom_site_label_2
_geom_bond_distance
_geom_bond_site_symmetry_2
Ni0 Tb2 2.956498 1_555
Ni0 Tb3 2.956530 1_545
Ni0 Tb0 3.043669 1_556
Ni0 Tb1 3.043684 1_556
Ni1 Tb3 2.956501 1_555
Ni1 Tb2 2.956532 1_565
Ni1 Tb1 3.043667 1_555
Ni1 Tb0 3.043685 1_555
Ni2 Tb2 2.956555 1_555
Ni2 Tb3 2.956586 1_655
Ni2 Tb1 3.043644 1_555
Ni2 Tb0 3.043661 1_555
Ni3 Tb3 2.956421 1_555
Ni3 Tb2 2.956451 1_455
Ni3 Tb0 3.043709 1_556
Ni3 Tb1 3.043725 1_556
B0 B2 1.683583 1_455
B0 B13 1.745226 1_555
B0 B8 1.745231 1_555
B0 B5 1.749295 1_555
B0 Ni3 2.072230 1_555
B0 Tb0 2.837595 1_555
B0 Tb1 2.837635 1_445
B0 Tb2 2.840585 1_455
B0 Tb3 2.840595 1_555
B1 B3 1.683583 1_655
B1 B9 1.745259 1_555
B1 B12 1.745265 1_555
B1 B4 1.749333 1_555
B1 Ni2 2.072323 1_555
B1 Tb1 2.837583 1_556
B1 Tb0 2.837622 1_666
B1 Tb3 2.840598 1_655
B1 Tb2 2.840608 1_555
B2 B6 1.749339 1_554
B2 Ni2 2.072302 1_555
B2 Tb0 2.837584 1_655
B2 Tb1 2.837593 1_545
B2 Tb2 2.840593 1_555
B2 Tb3 2.840637 1_655
B3 B7 1.749301 1_556
B3 Ni3 2.072214 1_555
B3 Tb1 2.837597 1_456
B3 Tb0 2.837605 1_566
B3 Tb3 2.840579 1_555
B3 Tb2 2.840623 1_455
B4 B6 1.683591 1_565
B4 B9 1.745242 1_555
B4 Ni1 2.072389 1_555
B4 Tb1 2.837603 1_556
B4 Tb0 2.837642 1_666
B4 Tb2 2.840563 1_565
B4 Tb3 2.840573 1_555
B5 B7 1.683575 1_545
B5 B8 1.745251 1_555
B5 Ni0 2.072174 1_555
B5 Tb0 2.837581 1_555
B5 Tb1 2.837621 1_445
B5 Tb3 2.840623 1_545
B5 Tb2 2.840633 1_555
B6 Ni0 2.072370 1_555
B6 Tb1 2.837605 1_546
B6 Tb0 2.837614 1_656
B6 Tb2 2.840558 1_555
B6 Tb3 2.840601 1_545
B7 Ni1 2.072160 1_555
B7 Tb0 2.837582 1_565
B7 Tb1 2.837591 1_455
B7 Tb3 2.840618 1_555
B7 Tb2 2.840662 1_565
B8 Ni0 2.182115 1_555
B8 Ni3 2.182225 1_555
B8 Tb1 2.764965 1_556
B8 Tb3 2.791928 1_555
B8 Tb2 2.791994 1_555
B8 Tb0 2.872214 1_555
B9 Ni2 2.182276 1_555
B9 Ni1 2.182389 1_555
B9 Tb1 2.764941 1_555
B9 Tb2 2.791925 1_565
B9 Tb3 2.791981 1_655
B9 Tb0 2.872213 1_666
B10 B15 1.700162 1_545
B10 B6 1.745240 1_554
B10 B2 1.745266 1_555
B10 Ni2 2.182258 1_555
B10 Ni0 2.182366 1_554
B10 Tb0 2.764937 1_555
B10 Tb3 2.791960 1_544
B10 Tb2 2.791995 1_555
B10 Tb1 2.872184 1_545
B11 B14 1.700162 1_455
B11 B3 1.745225 1_554
B11 B7 1.745254 1_555
B11 Ni1 2.182135 1_555
B11 Ni3 2.182233 1_554
B11 Tb0 2.764935 1_555
B11 Tb2 2.791956 1_454
B11 Tb3 2.791999 1_555
B11 Tb1 2.872192 1_455
B12 B8 1.700169 1_555
B12 B4 1.745247 1_555
B12 Ni2 2.182244 1_555
B12 Ni1 2.182357 1_555
B12 Tb0 2.764968 1_555
B12 Tb3 2.791933 1_555
B12 Tb2 2.791990 1_555
B12 Tb1 2.872206 1_556
B13 B9 1.700164 1_445
B13 B5 1.745246 1_555
B13 Ni0 2.182147 1_555
B13 Ni3 2.182256 1_555
B13 Tb0 2.764939 1_556
B13 Tb2 2.791920 1_455
B13 Tb3 2.791985 1_545
B13 Tb1 2.872222 1_445
B14 B6 1.745248 1_554
B14 B2 1.745259 1_555
B14 Ni2 2.182248 1_555
B14 Ni0 2.182375 1_554
B14 Tb1 2.764937 1_555
B14 Tb2 2.791936 1_554
B14 Tb3 2.792019 1_655
B14 Tb0 2.872184 1_655
B15 B3 1.745233 1_554
B15 B7 1.745245 1_555
B15 Ni1 2.182124 1_555
B15 Ni3 2.182244 1_554
B15 Tb1 2.764935 1_555
B15 Tb3 2.791933 1_554
B15 Tb2 2.792022 1_565
B15 Tb0 2.872192 1_565
