# generated using pymatgen
data_PuPtO3
_symmetry_space_group_name_H-M   'P 1'
_cell_length_a   4.05454900
_cell_length_b   4.05454900
_cell_length_c   4.05454900
_cell_angle_alpha   90.00000000
_cell_angle_beta   90.00000000
_cell_angle_gamma   90.00000000
_symmetry_Int_Tables_number   1
_chemical_formula_structural   PuPtO3
_chemical_formula_sum   'Pu1 Pt1 O3'
_cell_volume   66.65422144
_cell_formula_units_Z   1
loop_
 _symmetry_equiv_pos_site_id
 _symmetry_equiv_pos_as_xyz
  1  'x, y, z'
loop_
 _atom_site_type_symbol
 _atom_site_label
 _atom_site_symmetry_multiplicity
 _atom_site_fract_x
 _atom_site_fract_y
 _atom_site_fract_z
 _atom_site_occupancy
  Pu  Pu0  1  0.50000000  0.50000000  0.50000000  1
  Pt  Pt0  1  0.00000000  0.00000000  0.00000000  1
  O  O0  1  0.00000000  0.00000000  0.50000000  1
  O  O1  1  0.00000000  0.50000000  0.00000000  1
  O  O2  1  0.50000000  0.00000000  0.00000000  1
loop_
_geom_bond_atom_site_label_1
_geom_bond_atom_site_label_2
_geom_bond_distance
_geom_bond_site_symmetry_2
O0 Pt0 2.027274 1_555
O0 Pt0 2.027274 1_556
O0 Pu0 2.866999 1_545
O0 Pu0 2.866999 1_555
O0 Pu0 2.866999 1_445
O0 Pu0 2.866999 1_455
O1 Pt0 2.027274 1_555
O1 Pt0 2.027274 1_565
O1 Pu0 2.866999 1_555
O1 Pu0 2.866999 1_454
O1 Pu0 2.866999 1_455
O1 Pu0 2.866999 1_554
O2 Pt0 2.027274 1_555
O2 Pt0 2.027274 1_655
O2 Pu0 2.866999 1_545
O2 Pu0 2.866999 1_555
O2 Pu0 2.866999 1_544
O2 Pu0 2.866999 1_554
