# generated using pymatgen
data_BaHo2PdO5
_symmetry_space_group_name_H-M   'P 1'
_cell_length_a   6.55254400
_cell_length_b   6.55254400
_cell_length_c   5.91639500
_cell_angle_alpha   90.00000000
_cell_angle_beta   90.00000000
_cell_angle_gamma   90.00000000
_symmetry_Int_Tables_number   1
_chemical_formula_structural   BaHo2PdO5
_chemical_formula_sum   'Ba2 Ho4 Pd2 O10'
_cell_volume   254.02534692
_cell_formula_units_Z   2
loop_
 _symmetry_equiv_pos_site_id
 _symmetry_equiv_pos_as_xyz
  1  'x, y, z'
loop_
 _atom_site_type_symbol
 _atom_site_label
 _atom_site_symmetry_multiplicity
 _atom_site_fract_x
 _atom_site_fract_y
 _atom_site_fract_z
 _atom_site_occupancy
  Ba  Ba0  1  0.50000000  0.50000000  0.00000000  1
  Ba  Ba1  1  0.00000000  0.00000000  0.00000000  1
  Ho  Ho0  1  0.82580100  0.67419900  0.50000000  1
  Ho  Ho1  1  0.67419900  0.17419900  0.50000000  1
  Ho  Ho2  1  0.32580100  0.82580100  0.50000000  1
  Ho  Ho3  1  0.17419900  0.32580100  0.50000000  1
  Pd  Pd0  1  0.00000000  0.50000000  0.00000000  1
  Pd  Pd1  1  0.50000000  0.00000000  0.00000000  1
  O  O0  1  0.50000000  0.50000000  0.50000000  1
  O  O1  1  0.00000000  0.00000000  0.50000000  1
  O  O2  1  0.14053600  0.64053600  0.26140700  1
  O  O3  1  0.85946400  0.35946400  0.26140700  1
  O  O4  1  0.35946400  0.14053600  0.26140700  1
  O  O5  1  0.64053600  0.85946400  0.26140700  1
  O  O6  1  0.14053600  0.64053600  0.73859300  1
  O  O7  1  0.64053600  0.85946400  0.73859300  1
  O  O8  1  0.85946400  0.35946400  0.73859300  1
  O  O9  1  0.35946400  0.14053600  0.73859300  1
loop_
_geom_bond_atom_site_label_1
_geom_bond_atom_site_label_2
_geom_bond_distance
_geom_bond_site_symmetry_2
Ba0 O0 2.958197 1_554
Ba0 O0 2.958197 1_555
Ba0 O5 2.964432 1_555
Ba0 O2 2.964432 1_555
Ba0 O3 2.964432 1_555
Ba0 O4 2.964432 1_555
Ba0 O9 2.964432 1_554
Ba0 O8 2.964432 1_554
Ba0 O6 2.964432 1_554
Ba0 O7 2.964432 1_554
Ba1 O1 2.958197 1_554
Ba1 O1 2.958197 1_555
Ba1 O5 2.964432 1_445
Ba1 O3 2.964432 1_455
Ba1 O2 2.964432 1_545
Ba1 O4 2.964432 1_555
Ba1 O9 2.964432 1_554
Ba1 O6 2.964432 1_544
Ba1 O8 2.964432 1_454
Ba1 O7 2.964432 1_444
Ho0 O7 2.222617 1_555
Ho0 O5 2.222617 1_555
Ho0 O0 2.420822 1_555
Ho0 O1 2.420822 1_665
Ho0 O8 2.508873 1_555
Ho0 O6 2.508873 1_655
Ho0 O2 2.508873 1_655
Ho0 O3 2.508873 1_555
Ho1 O8 2.222617 1_555
Ho1 O3 2.222617 1_555
Ho1 O0 2.420822 1_555
Ho1 O1 2.420822 1_655
Ho1 O7 2.508873 1_545
Ho1 O9 2.508873 1_555
Ho1 O4 2.508873 1_555
Ho1 O5 2.508873 1_545
Ho2 O6 2.222617 1_555
Ho2 O2 2.222617 1_555
Ho2 O0 2.420822 1_555
Ho2 O1 2.420822 1_565
Ho2 O9 2.508873 1_565
Ho2 O7 2.508873 1_555
Ho2 O4 2.508873 1_565
Ho2 O5 2.508873 1_555
Ho3 O9 2.222617 1_555
Ho3 O4 2.222617 1_555
Ho3 O0 2.420822 1_555
Ho3 O1 2.420822 1_555
Ho3 O6 2.508873 1_555
Ho3 O8 2.508873 1_455
Ho3 O3 2.508873 1_455
Ho3 O2 2.508873 1_555
O2 Pd0 2.021863 1_555
O3 Pd0 2.021863 1_655
O4 Pd1 2.021863 1_555
O5 Pd1 2.021863 1_565
O6 Pd0 2.021863 1_556
O7 Pd1 2.021863 1_566
O8 Pd0 2.021863 1_656
O9 Pd1 2.021863 1_556
