# generated using pymatgen
data_Si2OsRu
_symmetry_space_group_name_H-M   'P 1'
_cell_length_a   4.14307744
_cell_length_b   4.14307744
_cell_length_c   4.14307744
_cell_angle_alpha   60.00000000
_cell_angle_beta   60.00000000
_cell_angle_gamma   60.00000000
_symmetry_Int_Tables_number   1
_chemical_formula_structural   Si2OsRu
_chemical_formula_sum   'Si2 Os1 Ru1'
_cell_volume   50.28681779
_cell_formula_units_Z   1
loop_
 _symmetry_equiv_pos_site_id
 _symmetry_equiv_pos_as_xyz
  1  'x, y, z'
loop_
 _atom_site_type_symbol
 _atom_site_label
 _atom_site_symmetry_multiplicity
 _atom_site_fract_x
 _atom_site_fract_y
 _atom_site_fract_z
 _atom_site_occupancy
  Si  Si0  1  -0.00000000  0.00000000  -0.00000000  1
  Si  Si1  1  0.50000000  0.50000000  0.50000000  1
  Os  Os0  1  0.24999900  0.24999900  0.24999900  1
  Ru  Ru0  1  0.75000000  0.75000000  0.75000000  1
loop_
_geom_bond_atom_site_label_1
_geom_bond_atom_site_label_2
_geom_bond_distance
_geom_bond_site_symmetry_2
Os0 Si0 2.537096 1_555
Os0 Si1 2.537103 1_545
Os0 Si1 2.537103 1_554
Os0 Si1 2.537103 1_455
Os0 Si0 2.537110 1_556
Os0 Si0 2.537110 1_655
Os0 Si0 2.537110 1_565
Os0 Si1 2.537117 1_555
Ru0 Si0 2.537106 1_566
Ru0 Si1 2.537106 1_655
Ru0 Si0 2.537106 1_656
Ru0 Si1 2.537106 1_565
Ru0 Si0 2.537106 1_666
Ru0 Si0 2.537106 1_665
Ru0 Si1 2.537106 1_556
Ru0 Si1 2.537106 1_555
