# generated using pymatgen
data_La(BIr)4
_symmetry_space_group_name_H-M   'P 1'
_cell_length_a   3.97242416
_cell_length_b   7.72486299
_cell_length_c   7.72486299
_cell_angle_alpha   90.00000000
_cell_angle_beta   90.00000000
_cell_angle_gamma   90.00000000
_symmetry_Int_Tables_number   1
_chemical_formula_structural   La(BIr)4
_chemical_formula_sum   'La2 B8 Ir8'
_cell_volume   237.04848576
_cell_formula_units_Z   2
loop_
 _symmetry_equiv_pos_site_id
 _symmetry_equiv_pos_as_xyz
  1  'x, y, z'
loop_
 _atom_site_type_symbol
 _atom_site_label
 _atom_site_symmetry_multiplicity
 _atom_site_fract_x
 _atom_site_fract_y
 _atom_site_fract_z
 _atom_site_occupancy
  La  La0  1  0.25000000  0.75000000  0.75000000  1
  La  La1  1  0.75000000  0.25000000  0.25000000  1
  B  B0  1  0.85567718  0.02973762  0.90827399  1
  B  B1  1  0.14432282  0.52973762  0.40827399  1
  B  B2  1  0.35567718  0.09172601  0.52973762  1
  B  B3  1  0.35567718  0.40827399  0.97026238  1
  B  B4  1  0.85567718  0.47026238  0.59172601  1
  B  B5  1  0.14432282  0.97026238  0.09172601  1
  B  B6  1  0.64432282  0.90827399  0.47026238  1
  B  B7  1  0.64432282  0.59172601  0.02973762  1
  Ir  Ir0  1  0.35606352  0.35929637  0.59108825  1
  Ir  Ir1  1  0.35606352  0.14070363  0.90891175  1
  Ir  Ir2  1  0.85606352  0.40891175  0.85929637  1
  Ir  Ir3  1  0.14393648  0.90891175  0.35929637  1
  Ir  Ir4  1  0.64393648  0.64070363  0.40891175  1
  Ir  Ir5  1  0.64393648  0.85929637  0.09108825  1
  Ir  Ir6  1  0.14393648  0.59108825  0.14070363  1
  Ir  Ir7  1  0.85606352  0.09108825  0.64070363  1
loop_
_geom_bond_atom_site_label_1
_geom_bond_atom_site_label_2
_geom_bond_distance
_geom_bond_site_symmetry_2
B0 B5 1.879925 1_646
B0 Ir5 2.106032 1_546
B0 Ir7 2.120582 1_555
B0 Ir1 2.161887 1_555
B0 Ir1 2.164705 1_655
B0 La0 2.935671 1_645
B0 La1 3.168563 1_556
B0 La0 3.457364 1_545
B1 B4 1.879925 1_455
B1 Ir0 2.106032 1_555
B1 Ir6 2.120582 1_555
B1 Ir4 2.161887 1_555
B1 Ir4 2.164705 1_455
B1 La1 2.935671 1_455
B1 La0 3.168563 1_555
B1 La1 3.457364 1_555
B2 B6 1.879925 1_545
B2 Ir3 2.106032 1_545
B2 Ir0 2.120582 1_555
B2 Ir7 2.161887 1_455
B2 Ir7 2.164705 1_555
B2 La1 2.935671 1_555
B2 La0 3.168563 1_545
B2 La1 3.457364 1_455
B3 B7 1.879925 1_556
B3 Ir6 2.106032 1_556
B3 Ir1 2.120582 1_555
B3 Ir2 2.161887 1_455
B3 Ir2 2.164705 1_555
B3 La1 2.935671 1_556
B3 La0 3.168563 1_555
B3 La1 3.457364 1_456
B4 Ir4 2.106032 1_555
B4 Ir2 2.120582 1_555
B4 Ir0 2.161887 1_555
B4 Ir0 2.164705 1_655
B4 La0 2.935671 1_655
B4 La1 3.168563 1_555
B4 La0 3.457364 1_555
B5 Ir1 2.106032 1_564
B5 Ir3 2.120582 1_555
B5 Ir5 2.161887 1_555
B5 Ir5 2.164705 1_455
B5 La1 2.935671 1_465
B5 La0 3.168563 1_554
B5 La1 3.457364 1_565
B6 Ir7 2.106032 1_565
B6 Ir4 2.120582 1_555
B6 Ir3 2.161887 1_655
B6 Ir3 2.164705 1_555
B6 La0 2.935671 1_555
B6 La1 3.168563 1_565
B6 La0 3.457364 1_655
B7 Ir2 2.106032 1_554
B7 Ir5 2.120582 1_555
B7 Ir6 2.161887 1_655
B7 Ir6 2.164705 1_555
B7 La0 2.935671 1_554
B7 La1 3.168563 1_555
B7 La0 3.457364 1_654
Ir0 La1 3.178708 1_555
Ir0 La0 3.285357 1_555
Ir1 La1 3.178708 1_556
Ir1 La0 3.285357 1_545
Ir2 La0 3.178708 1_655
Ir2 La1 3.285357 1_556
Ir3 La1 3.178708 1_465
Ir3 La0 3.285357 1_555
Ir4 La0 3.178708 1_555
Ir4 La1 3.285357 1_555
Ir5 La0 3.178708 1_554
Ir5 La1 3.285357 1_565
Ir6 La1 3.178708 1_455
Ir6 La0 3.285357 1_554
Ir7 La0 3.178708 1_645
Ir7 La1 3.285357 1_555
