# generated using pymatgen
data_RbTmS2
_symmetry_space_group_name_H-M   'P 1'
_cell_length_a   7.98152717
_cell_length_b   7.98152717
_cell_length_c   7.98152762
_cell_angle_alpha   29.03624454
_cell_angle_beta   29.03624454
_cell_angle_gamma   29.03625231
_symmetry_Int_Tables_number   1
_chemical_formula_structural   RbTmS2
_chemical_formula_sum   'Rb1 Tm1 S2'
_cell_volume   105.95141760
_cell_formula_units_Z   1
loop_
 _symmetry_equiv_pos_site_id
 _symmetry_equiv_pos_as_xyz
  1  'x, y, z'
loop_
 _atom_site_type_symbol
 _atom_site_label
 _atom_site_symmetry_multiplicity
 _atom_site_fract_x
 _atom_site_fract_y
 _atom_site_fract_z
 _atom_site_occupancy
  Rb  Rb0  1  -0.00000000  -0.00000000  -0.00000000  1
  Tm  Tm0  1  0.50000000  0.50000000  0.50000000  1
  S  S0  1  0.77008173  0.77008173  0.77008173  1
  S  S1  1  0.22991827  0.22991827  0.22991827  1
loop_
_geom_bond_atom_site_label_1
_geom_bond_atom_site_label_2
_geom_bond_distance
_geom_bond_site_symmetry_2
Rb0 S0 3.309962 1_454
Rb0 S0 3.309962 1_544
Rb0 S1 3.309962 1_545
Rb0 S1 3.309962 1_455
Rb0 S0 3.309962 1_445
Rb0 S1 3.309962 1_554
S0 Tm0 2.727549 1_556
S0 Tm0 2.727549 1_655
S0 Tm0 2.727549 1_565
S1 Tm0 2.727549 1_554
S1 Tm0 2.727549 1_455
S1 Tm0 2.727549 1_545
