# generated using pymatgen
data_Na3BrO
_symmetry_space_group_name_H-M   'P 1'
_cell_length_a   4.53313000
_cell_length_b   4.53313000
_cell_length_c   4.53313000
_cell_angle_alpha   90.00000000
_cell_angle_beta   90.00000000
_cell_angle_gamma   90.00000000
_symmetry_Int_Tables_number   1
_chemical_formula_structural   Na3BrO
_chemical_formula_sum   'Na3 Br1 O1'
_cell_volume   93.15250142
_cell_formula_units_Z   1
loop_
 _symmetry_equiv_pos_site_id
 _symmetry_equiv_pos_as_xyz
  1  'x, y, z'
loop_
 _atom_site_type_symbol
 _atom_site_label
 _atom_site_symmetry_multiplicity
 _atom_site_fract_x
 _atom_site_fract_y
 _atom_site_fract_z
 _atom_site_occupancy
  Na  Na0  1  0.00000000  0.50000000  0.50000000  1
  Na  Na1  1  0.50000000  0.00000000  0.50000000  1
  Na  Na2  1  0.50000000  0.50000000  0.00000000  1
  Br  Br0  1  0.00000000  0.00000000  0.00000000  1
  O  O0  1  0.50000000  0.50000000  0.50000000  1
loop_
_geom_bond_atom_site_label_1
_geom_bond_atom_site_label_2
_geom_bond_distance
_geom_bond_site_symmetry_2
Na0 O0 2.266565 1_555
Na0 O0 2.266565 1_455
Na1 O0 2.266565 1_555
Na1 O0 2.266565 1_545
Na2 O0 2.266565 1_555
Na2 O0 2.266565 1_554
Br0 Na2 3.205407 1_555
Br0 Na1 3.205407 1_455
Br0 Na0 3.205407 1_555
Br0 Na2 3.205407 1_445
Br0 Na2 3.205407 1_545
Br0 Na0 3.205407 1_554
Br0 Na1 3.205407 1_554
Br0 Na1 3.205407 1_454
Br0 Na0 3.205407 1_544
Br0 Na0 3.205407 1_545
Br0 Na2 3.205407 1_455
Br0 Na1 3.205407 1_555
