# generated using pymatgen
data_SiP2
_symmetry_space_group_name_H-M   'P 1'
_cell_length_a   3.44067778
_cell_length_b   10.19462847
_cell_length_c   14.98396604
_cell_angle_alpha   90.00000000
_cell_angle_beta   90.00000000
_cell_angle_gamma   90.00000000
_symmetry_Int_Tables_number   1
_chemical_formula_structural   SiP2
_chemical_formula_sum   'Si8 P16'
_cell_volume   525.58406068
_cell_formula_units_Z   8
loop_
 _symmetry_equiv_pos_site_id
 _symmetry_equiv_pos_as_xyz
  1  'x, y, z'
loop_
 _atom_site_type_symbol
 _atom_site_label
 _atom_site_symmetry_multiplicity
 _atom_site_fract_x
 _atom_site_fract_y
 _atom_site_fract_z
 _atom_site_occupancy
  Si  Si0  1  0.00000000  0.58876813  0.83997620  1
  Si  Si1  1  0.00000000  0.41123187  0.16002380  1
  Si  Si2  1  -0.00000000  0.08876813  0.66002380  1
  Si  Si3  1  -0.00000000  0.91123187  0.33997620  1
  Si  Si4  1  0.50000000  0.80551943  0.73215532  1
  Si  Si5  1  0.50000000  0.19448057  0.26784468  1
  Si  Si6  1  0.50000000  0.30551943  0.76784468  1
  Si  Si7  1  0.50000000  0.69448057  0.23215532  1
  P  P0  1  0.00000000  0.67155813  0.70055710  1
  P  P1  1  0.00000000  0.32844287  0.29944290  1
  P  P2  1  -0.00000000  0.17155713  0.79944290  1
  P  P3  1  0.00000000  0.82844187  0.20055710  1
  P  P4  1  -0.00000000  0.75947576  0.93726933  1
  P  P5  1  -0.00000000  0.24052424  0.06273067  1
  P  P6  1  -0.00000000  0.25947576  0.56273067  1
  P  P7  1  -0.00000000  0.74052424  0.43726933  1
  P  P8  1  0.50000000  0.87447453  0.88017858  1
  P  P9  1  0.50000000  0.12552547  0.11982142  1
  P  P10  1  0.50000000  0.37447453  0.61982142  1
  P  P11  1  0.50000000  0.62552547  0.38017858  1
  P  P12  1  0.50000000  0.95915340  0.62353816  1
  P  P13  1  0.50000000  0.04084660  0.37646184  1
  P  P14  1  0.50000000  0.45915340  0.87646184  1
  P  P15  1  0.50000000  0.54084660  0.12353816  1
loop_
_geom_bond_atom_site_label_1
_geom_bond_atom_site_label_2
_geom_bond_distance
_geom_bond_site_symmetry_2
P0 Si4 2.246961 1_555
P0 Si4 2.246961 1_455
P0 Si0 2.253107 1_555
P1 Si5 2.246967 1_455
P1 Si5 2.246967 1_555
P1 Si1 2.253104 1_555
P2 Si6 2.246967 1_555
P2 Si6 2.246967 1_455
P2 Si2 2.253104 1_555
P3 Si7 2.246961 1_455
P3 Si7 2.246961 1_555
P3 Si3 2.253107 1_555
P4 P8 2.250734 1_555
P4 P8 2.250734 1_455
P4 Si0 2.270228 1_555
P5 P9 2.250734 1_455
P5 P9 2.250734 1_555
P5 Si1 2.270228 1_555
P6 Si2 2.270228 1_555
P7 Si3 2.270228 1_555
P8 Si4 2.326711 1_555
P9 Si5 2.326711 1_555
P10 P6 2.250734 1_655
P10 P6 2.250734 1_555
P10 Si6 2.326711 1_555
P11 P7 2.250734 1_555
P11 P7 2.250734 1_655
P11 Si7 2.326711 1_555
P12 Si2 2.237069 1_565
P12 Si2 2.237069 1_665
P12 Si4 2.258743 1_555
P13 Si3 2.237069 1_545
P13 Si3 2.237069 1_645
P13 Si5 2.258743 1_555
P14 Si0 2.237069 1_655
P14 Si0 2.237069 1_555
P14 Si6 2.258743 1_555
P15 Si1 2.237069 1_655
P15 Si1 2.237069 1_555
P15 Si7 2.258743 1_555
