# generated using pymatgen
data_TbAgSe2
_symmetry_space_group_name_H-M   'P 1'
_cell_length_a   5.75087400
_cell_length_b   5.75087400
_cell_length_c   7.26866417
_cell_angle_alpha   113.30300030
_cell_angle_beta   113.30300030
_cell_angle_gamma   90.00000000
_symmetry_Int_Tables_number   1
_chemical_formula_structural   TbAgSe2
_chemical_formula_sum   'Tb2 Ag2 Se4'
_cell_volume   199.25273177
_cell_formula_units_Z   2
loop_
 _symmetry_equiv_pos_site_id
 _symmetry_equiv_pos_as_xyz
  1  'x, y, z'
loop_
 _atom_site_type_symbol
 _atom_site_label
 _atom_site_symmetry_multiplicity
 _atom_site_fract_x
 _atom_site_fract_y
 _atom_site_fract_z
 _atom_site_occupancy
  Tb  Tb0  1  0.75898000  0.75898000  0.51796000  1
  Tb  Tb1  1  0.00898000  0.50898000  0.01796000  1
  Ag  Ag0  1  0.26358000  0.26358000  0.52716000  1
  Ag  Ag1  1  0.51358000  0.01358000  0.02716000  1
  Se  Se0  1  0.99885500  0.99885500  0.99771000  1
  Se  Se1  1  0.24885500  0.74885500  0.49771000  1
  Se  Se2  1  0.51858400  0.51858400  0.03716800  1
  Se  Se3  1  0.76858400  0.26858400  0.53716800  1
loop_
_geom_bond_atom_site_label_1
_geom_bond_atom_site_label_2
_geom_bond_distance
_geom_bond_site_symmetry_2
Ag0 Se3 2.876069 1_555
Ag0 Se3 2.876069 1_455
Ag0 Se1 2.880906 1_545
Ag0 Se1 2.880906 1_555
Ag0 Se2 3.072653 1_556
Ag0 Se0 3.189786 1_444
Ag1 Se2 2.876069 1_545
Ag1 Se2 2.876069 1_555
Ag1 Se0 2.880906 1_544
Ag1 Se0 2.880906 1_444
Ag1 Se3 3.072653 1_555
Ag1 Se1 3.189786 1_544
Se0 Tb1 2.878024 1_666
Se0 Tb1 2.878024 1_656
Se0 Tb0 2.890358 1_555
Se1 Tb0 2.878024 1_555
Se1 Tb0 2.878024 1_455
Se1 Tb1 2.890358 1_555
Se2 Tb1 2.877765 1_655
Se2 Tb1 2.877765 1_555
Se2 Tb0 2.896635 1_555
Se3 Tb0 2.877765 1_555
Se3 Tb0 2.877765 1_545
Se3 Tb1 2.896635 1_656
