# generated using pymatgen
data_HoB4Ru
_symmetry_space_group_name_H-M   'P 1'
_cell_length_a   3.54120490
_cell_length_b   5.93201693
_cell_length_c   11.47262946
_cell_angle_alpha   90.00000000
_cell_angle_beta   90.00000000
_cell_angle_gamma   90.00000000
_symmetry_Int_Tables_number   1
_chemical_formula_structural   HoB4Ru
_chemical_formula_sum   'Ho4 B16 Ru4'
_cell_volume   240.99964642
_cell_formula_units_Z   4
loop_
 _symmetry_equiv_pos_site_id
 _symmetry_equiv_pos_as_xyz
  1  'x, y, z'
loop_
 _atom_site_type_symbol
 _atom_site_label
 _atom_site_symmetry_multiplicity
 _atom_site_fract_x
 _atom_site_fract_y
 _atom_site_fract_z
 _atom_site_occupancy
  Ho  Ho0  1  -0.00000000  0.62873717  0.64996799  1
  Ho  Ho1  1  0.00000000  0.37126283  0.35003201  1
  Ho  Ho2  1  -0.00000000  0.12873717  0.85003201  1
  Ho  Ho3  1  -0.00000000  0.87126283  0.14996799  1
  B  B0  1  0.50000000  0.97604712  0.69171801  1
  B  B1  1  0.50000000  0.02395288  0.30828199  1
  B  B2  1  0.50000000  0.47604712  0.80828199  1
  B  B3  1  0.50000000  0.52395288  0.19171801  1
  B  B4  1  0.50000000  0.78914855  0.81457260  1
  B  B5  1  0.50000000  0.21085145  0.18542740  1
  B  B6  1  0.50000000  0.28914855  0.68542740  1
  B  B7  1  0.50000000  0.71085145  0.31457260  1
  B  B8  1  0.50000000  0.86386119  0.96986568  1
  B  B9  1  0.50000000  0.13613881  0.03013432  1
  B  B10  1  0.50000000  0.36386119  0.53013432  1
  B  B11  1  0.50000000  0.63613881  0.46986568  1
  B  B12  1  0.50000000  0.88782050  0.54681565  1
  B  B13  1  0.50000000  0.11217950  0.45318435  1
  B  B14  1  0.50000000  0.38782050  0.95318435  1
  B  B15  1  0.50000000  0.61217950  0.04681565  1
  Ru  Ru0  1  0.00000000  0.64038218  0.90733121  1
  Ru  Ru1  1  0.00000000  0.35961782  0.09266879  1
  Ru  Ru2  1  -0.00000000  0.14038218  0.59266879  1
  Ru  Ru3  1  -0.00000000  0.85961782  0.40733121  1
loop_
_geom_bond_atom_site_label_1
_geom_bond_atom_site_label_2
_geom_bond_distance
_geom_bond_site_symmetry_2
Ho0 Ru0 2.953441 1_555
Ho0 Ru2 2.970579 1_555
Ho0 Ru3 3.102363 1_555
Ho0 Ru2 3.105461 1_565
Ho1 Ru1 2.953441 1_555
Ho1 Ru3 2.970579 1_555
Ho1 Ru2 3.102363 1_555
Ho1 Ru3 3.105461 1_545
Ho2 Ru2 2.953441 1_555
Ho2 Ru0 2.970579 1_545
Ho2 Ru1 3.102363 1_556
Ho2 Ru0 3.105461 1_555
Ho3 Ru3 2.953441 1_555
Ho3 Ru1 2.970579 1_565
Ho3 Ru0 3.102363 1_554
Ho3 Ru1 3.105461 1_555
B0 B12 1.742848 1_555
B0 B4 1.793258 1_555
B0 B6 1.858725 1_565
B0 Ru2 2.318759 1_665
B0 Ru2 2.318759 1_565
B0 Ho2 2.693381 1_565
B0 Ho2 2.693381 1_665
B0 Ho0 2.758456 1_555
B0 Ho0 2.758456 1_655
B1 B13 1.742848 1_555
B1 B5 1.793258 1_555
B1 B7 1.858725 1_545
B1 Ru3 2.318759 1_545
B1 Ru3 2.318759 1_645
B1 Ho3 2.693381 1_645
B1 Ho3 2.693381 1_545
B1 Ho1 2.758456 1_655
B1 Ho1 2.758456 1_555
B2 B6 1.793258 1_555
B2 B4 1.858725 1_555
B2 Ru0 2.318759 1_555
B2 Ru0 2.318759 1_655
B2 Ho0 2.693381 1_555
B2 Ho0 2.693381 1_655
B2 Ho2 2.758456 1_655
B2 Ho2 2.758456 1_555
B3 B7 1.793258 1_555
B3 B5 1.858725 1_555
B3 Ru1 2.318759 1_655
B3 Ru1 2.318759 1_555
B3 Ho1 2.693381 1_655
B3 Ho1 2.693381 1_555
B3 Ho3 2.758456 1_655
B3 Ho3 2.758456 1_555
B4 B8 1.835917 1_555
B4 Ru0 2.246398 1_555
B4 Ru0 2.246398 1_655
B4 Ho2 2.712659 1_665
B4 Ho2 2.712659 1_565
B4 Ho0 2.758032 1_655
B4 Ho0 2.758032 1_555
B5 B9 1.835917 1_555
B5 Ru1 2.246398 1_655
B5 Ru1 2.246398 1_555
B5 Ho3 2.712659 1_545
B5 Ho3 2.712659 1_645
B5 Ho1 2.758032 1_655
B5 Ho1 2.758032 1_555
B6 Ru2 2.246398 1_555
B6 Ru2 2.246398 1_655
B6 Ho0 2.712659 1_555
B6 Ho0 2.712659 1_655
B6 Ho2 2.758032 1_655
B6 Ho2 2.758032 1_555
B7 Ru3 2.246398 1_655
B7 Ru3 2.246398 1_555
B7 Ho1 2.712659 1_655
B7 Ho1 2.712659 1_555
B7 Ho3 2.758032 1_555
B7 Ho3 2.758032 1_655
B8 B9 1.756934 1_566
B8 Ru0 2.325334 1_555
B8 Ru0 2.325334 1_655
B8 Ho3 2.721459 1_556
B8 Ho3 2.721459 1_656
B8 Ho2 2.737508 1_565
B8 Ho2 2.737508 1_665
B9 Ru1 2.325334 1_655
B9 Ru1 2.325334 1_555
B9 Ho2 2.721459 1_654
B9 Ho2 2.721459 1_554
B9 Ho3 2.737508 1_545
B9 Ho3 2.737508 1_645
B10 B13 1.734462 1_555
B10 B11 1.756934 1_555
B10 B6 1.835917 1_555
B10 Ru2 2.325334 1_655
B10 Ru2 2.325334 1_555
B10 Ho1 2.721459 1_555
B10 Ho1 2.721459 1_655
B10 Ho0 2.737508 1_655
B10 Ho0 2.737508 1_555
B11 B12 1.734462 1_555
B11 B7 1.835917 1_555
B11 Ru3 2.325334 1_655
B11 Ru3 2.325334 1_555
B11 Ho0 2.721459 1_655
B11 Ho0 2.721459 1_555
B11 Ho1 2.737508 1_655
B11 Ho1 2.737508 1_555
B12 B13 1.710321 1_565
B12 Ru2 2.378313 1_665
B12 Ru2 2.378313 1_565
B12 Ru3 2.392453 1_655
B12 Ru3 2.392453 1_555
B12 Ho0 2.626320 1_655
B12 Ho0 2.626320 1_555
B13 Ru3 2.378313 1_645
B13 Ru3 2.378313 1_545
B13 Ru2 2.392453 1_555
B13 Ru2 2.392453 1_655
B13 Ho1 2.626320 1_555
B13 Ho1 2.626320 1_655
B14 B15 1.710321 1_556
B14 B9 1.734462 1_556
B14 B2 1.742848 1_555
B14 Ru0 2.378313 1_555
B14 Ru0 2.378313 1_655
B14 Ru1 2.392453 1_556
B14 Ru1 2.392453 1_656
B14 Ho2 2.626320 1_555
B14 Ho2 2.626320 1_655
B15 B8 1.734462 1_554
B15 B3 1.742848 1_555
B15 Ru1 2.378313 1_655
B15 Ru1 2.378313 1_555
B15 Ru0 2.392453 1_654
B15 Ru0 2.392453 1_554
B15 Ho3 2.626320 1_555
B15 Ho3 2.626320 1_655
Ru0 Ru1 2.700940 1_556
Ru2 Ru3 2.700940 1_545
