# generated using pymatgen
data_RbTlF3
_symmetry_space_group_name_H-M   'P 1'
_cell_length_a   6.64435100
_cell_length_b   9.29356500
_cell_length_c   13.38360200
_cell_angle_alpha   90.00000000
_cell_angle_beta   90.00000000
_cell_angle_gamma   90.00000000
_symmetry_Int_Tables_number   1
_chemical_formula_structural   RbTlF3
_chemical_formula_sum   'Rb8 Tl8 F24'
_cell_volume   826.43351417
_cell_formula_units_Z   8
loop_
 _symmetry_equiv_pos_site_id
 _symmetry_equiv_pos_as_xyz
  1  'x, y, z'
loop_
 _atom_site_type_symbol
 _atom_site_label
 _atom_site_symmetry_multiplicity
 _atom_site_fract_x
 _atom_site_fract_y
 _atom_site_fract_z
 _atom_site_occupancy
  Rb  Rb0  1  0.24452800  0.00000000  0.88207000  1
  Rb  Rb1  1  0.74452800  0.00000000  0.61793000  1
  Rb  Rb2  1  0.75547200  0.00000000  0.11793000  1
  Rb  Rb3  1  0.25547200  0.00000000  0.38207000  1
  Rb  Rb4  1  0.22213500  0.50000000  0.86945800  1
  Rb  Rb5  1  0.72213500  0.50000000  0.63054200  1
  Rb  Rb6  1  0.77786500  0.50000000  0.13054200  1
  Rb  Rb7  1  0.27786500  0.50000000  0.36945800  1
  Tl  Tl0  1  0.74286800  0.25018100  0.87459200  1
  Tl  Tl1  1  0.24286800  0.74981900  0.62540800  1
  Tl  Tl2  1  0.25713200  0.25018100  0.12540800  1
  Tl  Tl3  1  0.75713200  0.74981900  0.37459200  1
  Tl  Tl4  1  0.25713200  0.74981900  0.12540800  1
  Tl  Tl5  1  0.75713200  0.25018100  0.37459200  1
  Tl  Tl6  1  0.74286800  0.74981900  0.87459200  1
  Tl  Tl7  1  0.24286800  0.25018100  0.62540800  1
  F  F0  1  0.75517700  0.00000000  0.83289100  1
  F  F1  1  0.25517700  0.00000000  0.66710900  1
  F  F2  1  0.24482300  0.00000000  0.16710900  1
  F  F3  1  0.74482300  0.00000000  0.33289100  1
  F  F4  1  0.75444800  0.50000000  0.91632400  1
  F  F5  1  0.25444800  0.50000000  0.58367600  1
  F  F6  1  0.24555200  0.50000000  0.08367600  1
  F  F7  1  0.74555200  0.50000000  0.41632400  1
  F  F8  1  0.97738600  0.29892400  0.74202000  1
  F  F9  1  0.47738600  0.70107600  0.75798000  1
  F  F10  1  0.02261400  0.29892400  0.25798000  1
  F  F11  1  0.52261400  0.70107600  0.24202000  1
  F  F12  1  0.02261400  0.70107600  0.25798000  1
  F  F13  1  0.52261400  0.29892400  0.24202000  1
  F  F14  1  0.97738600  0.70107600  0.74202000  1
  F  F15  1  0.47738600  0.29892400  0.75798000  1
  F  F16  1  0.00000000  0.19420900  0.50000000  1
  F  F17  1  0.50000000  0.80579100  0.00000000  1
  F  F18  1  0.00000000  0.80579100  0.50000000  1
  F  F19  1  0.50000000  0.19420900  0.00000000  1
  F  F20  1  0.00000000  0.21044700  0.00000000  1
  F  F21  1  0.50000000  0.78955300  0.50000000  1
  F  F22  1  0.00000000  0.78955300  0.00000000  1
  F  F23  1  0.50000000  0.21044700  0.50000000  1
loop_
_geom_bond_atom_site_label_1
_geom_bond_atom_site_label_2
_geom_bond_distance
_geom_bond_site_symmetry_2
F0 Tl0 2.392518 1_555
F0 Tl6 2.392518 1_545
F0 Rb1 2.877822 1_555
F0 Rb0 3.317371 1_655
F1 Tl7 2.392518 1_555
F1 Tl1 2.392518 1_545
F1 Rb0 2.877822 1_555
F1 Rb1 3.317371 1_555
F2 Tl2 2.392518 1_555
F2 Tl4 2.392518 1_545
F2 Rb3 2.877822 1_555
F2 Rb2 3.317371 1_455
F3 Tl3 2.392518 1_545
F3 Tl5 2.392518 1_555
F3 Rb2 2.877822 1_555
F3 Rb3 3.317371 1_555
F4 Tl6 2.389185 1_555
F4 Tl0 2.389185 1_555
F4 Rb6 2.871227 1_556
F4 Rb4 3.170148 1_655
F5 Tl7 2.389185 1_555
F5 Tl1 2.389185 1_555
F5 Rb7 2.871227 1_555
F5 Rb5 3.170148 1_555
F6 Tl4 2.389185 1_555
F6 Tl2 2.389185 1_555
F6 Rb4 2.871227 1_554
F6 Rb6 3.170148 1_455
F7 Tl5 2.389185 1_555
F7 Tl3 2.389185 1_555
F7 Rb5 2.871227 1_555
F7 Rb7 3.170148 1_555
F8 Tl7 2.398436 1_655
F8 Tl0 2.404447 1_555
F8 Rb5 2.931625 1_555
F8 Rb4 3.007592 1_655
F9 Tl6 2.398436 1_555
F9 Tl1 2.404447 1_555
F9 Rb4 2.931625 1_555
F9 Rb5 3.007592 1_555
F10 Tl5 2.398436 1_455
F10 Tl2 2.404447 1_555
F10 Rb7 2.931625 1_555
F10 Rb6 3.007592 1_455
F11 Tl4 2.398436 1_555
F11 Tl3 2.404447 1_555
F11 Rb6 2.931625 1_555
F11 Rb7 3.007592 1_555
F12 Tl3 2.398436 1_455
F12 Tl4 2.404447 1_555
F12 Rb7 2.931625 1_555
F12 Rb6 3.007592 1_455
F13 Tl2 2.398436 1_555
F13 Tl5 2.404447 1_555
F13 Rb6 2.931625 1_555
F13 Rb7 3.007592 1_555
F14 Tl1 2.398436 1_655
F14 Tl6 2.404447 1_555
F14 Rb5 2.931625 1_555
F14 Rb4 3.007592 1_655
F15 Tl0 2.398436 1_555
F15 Tl7 2.404447 1_555
F15 Rb4 2.931625 1_555
F15 Rb5 3.007592 1_555
F16 Tl7 2.385724 1_555
F16 Tl5 2.385724 1_455
F16 Rb3 2.937700 1_555
F16 Rb1 2.937700 1_455
F17 Tl4 2.385724 1_555
F17 Tl6 2.385724 1_554
F17 Rb2 2.937700 1_565
F17 Rb0 2.937700 1_564
F18 Tl1 2.385724 1_555
F18 Tl3 2.385724 1_455
F18 Rb3 2.937700 1_565
F18 Rb1 2.937700 1_465
F19 Tl2 2.385724 1_555
F19 Tl0 2.385724 1_554
F19 Rb2 2.937700 1_555
F19 Rb0 2.937700 1_554
F20 Tl2 2.423285 1_555
F20 Tl0 2.423285 1_454
F20 Rb0 2.992663 1_554
F20 Rb2 2.992663 1_455
F21 Tl3 2.423285 1_555
F21 Tl1 2.423285 1_555
F21 Rb3 2.992663 1_565
F21 Rb1 2.992663 1_565
F22 Tl4 2.423285 1_555
F22 Tl6 2.423285 1_454
F22 Rb0 2.992663 1_564
F22 Rb2 2.992663 1_465
F23 Tl5 2.423285 1_555
F23 Tl7 2.423285 1_555
F23 Rb3 2.992663 1_555
F23 Rb1 2.992663 1_555
