# generated using pymatgen
data_MnCu3
_symmetry_space_group_name_H-M   'P 1'
_cell_length_a   5.19595026
_cell_length_b   5.19595026
_cell_length_c   4.23996000
_cell_angle_alpha   90.00000000
_cell_angle_beta   90.00000000
_cell_angle_gamma   120.00000334
_symmetry_Int_Tables_number   1
_chemical_formula_structural   MnCu3
_chemical_formula_sum   'Mn2 Cu6'
_cell_volume   99.13393537
_cell_formula_units_Z   2
loop_
 _symmetry_equiv_pos_site_id
 _symmetry_equiv_pos_as_xyz
  1  'x, y, z'
loop_
 _atom_site_type_symbol
 _atom_site_label
 _atom_site_symmetry_multiplicity
 _atom_site_fract_x
 _atom_site_fract_y
 _atom_site_fract_z
 _atom_site_occupancy
  Mn  Mn0  1  0.66666700  0.33333300  0.25000000  1
  Mn  Mn1  1  0.33333300  0.66666700  0.75000000  1
  Cu  Cu0  1  0.83407300  0.66814600  0.75000000  1
  Cu  Cu1  1  0.83407300  0.16592700  0.75000000  1
  Cu  Cu2  1  0.16592700  0.33185400  0.25000000  1
  Cu  Cu3  1  0.66814600  0.83407300  0.25000000  1
  Cu  Cu4  1  0.16592700  0.83407300  0.25000000  1
  Cu  Cu5  1  0.33185400  0.16592700  0.75000000  1
loop_
_geom_bond_atom_site_label_1
_geom_bond_atom_site_label_2
_geom_bond_distance
_geom_bond_site_symmetry_2
Cu0 Cu5 2.586445 1_665
Cu0 Cu1 2.586445 1_565
Cu0 Cu4 2.593109 1_655
Cu0 Cu4 2.593109 1_656
Cu0 Cu3 2.593109 1_555
Cu0 Cu3 2.593109 1_556
Cu0 Mn1 2.597981 1_655
Cu0 Mn1 2.597986 1_555
Cu0 Mn0 2.600800 1_555
Cu0 Mn0 2.600800 1_556
Cu0 Cu5 2.609505 1_555
Cu0 Cu1 2.609505 1_555
Cu1 Cu5 2.586445 1_655
Cu1 Cu2 2.593109 1_656
Cu1 Cu2 2.593109 1_655
Cu1 Cu3 2.593109 1_546
Cu1 Cu3 2.593109 1_545
Cu1 Mn1 2.597984 1_545
Cu1 Mn1 2.597984 1_655
Cu1 Mn0 2.600797 1_556
Cu1 Mn0 2.600797 1_555
Cu1 Cu5 2.609505 1_555
Cu2 Cu3 2.586445 1_445
Cu2 Cu4 2.586445 1_545
Cu2 Cu5 2.593109 1_554
Cu2 Cu5 2.593109 1_555
Cu2 Mn0 2.597981 1_455
Cu2 Mn0 2.597986 1_555
Cu2 Mn1 2.600800 1_554
Cu2 Mn1 2.600800 1_555
Cu2 Cu3 2.609505 1_555
Cu2 Cu4 2.609505 1_555
Cu3 Cu4 2.586445 1_655
Cu3 Mn0 2.597981 1_565
Cu3 Mn0 2.597986 1_555
Cu3 Mn1 2.600800 1_555
Cu3 Mn1 2.600800 1_554
Cu3 Cu4 2.609505 1_555
Cu4 Cu5 2.593109 1_565
Cu4 Cu5 2.593109 1_564
Cu4 Mn0 2.597984 1_455
Cu4 Mn0 2.597984 1_565
Cu4 Mn1 2.600797 1_555
Cu4 Mn1 2.600797 1_554
Cu5 Mn1 2.597981 1_545
Cu5 Mn1 2.597986 1_555
Cu5 Mn0 2.600800 1_555
Cu5 Mn0 2.600800 1_556
