# generated using pymatgen
data_Y
_symmetry_space_group_name_H-M   'P 1'
_cell_length_a   7.21812199
_cell_length_b   7.21812187
_cell_length_c   7.21812086
_cell_angle_alpha   59.99998482
_cell_angle_beta   59.99998537
_cell_angle_gamma   59.99998398
_symmetry_Int_Tables_number   1
_chemical_formula_structural   Y
_chemical_formula_sum   Y8
_cell_volume   265.92393537
_cell_formula_units_Z   8
loop_
 _symmetry_equiv_pos_site_id
 _symmetry_equiv_pos_as_xyz
  1  'x, y, z'
loop_
 _atom_site_type_symbol
 _atom_site_label
 _atom_site_symmetry_multiplicity
 _atom_site_fract_x
 _atom_site_fract_y
 _atom_site_fract_z
 _atom_site_occupancy
  Y  Y0_0  1  0.00000000  0.00000000  0.00000000  1
  Y  Y0_1  1  0.00000000  0.00000000  0.50000000  1
  Y  Y0_2  1  0.00000000  0.50000000  0.00000000  1
  Y  Y0_3  1  0.00000000  0.50000000  0.50000000  1
  Y  Y0_4  1  0.50000000  0.00000000  0.00000000  1
  Y  Y0_5  1  0.50000000  0.00000000  0.50000000  1
  Y  Y0_6  1  0.50000000  0.50000000  0.00000000  1
  Y  Y0_7  1  0.50000000  0.50000000  0.50000000  1
loop_
_geom_bond_atom_site_label_1
_geom_bond_atom_site_label_2
_geom_bond_distance
_geom_bond_site_symmetry_2
Y0_0 Y0_3 3.609060 1_554
Y0_0 Y0_3 3.609060 1_545
Y0_0 Y0_5 3.609060 1_455
Y0_0 Y0_5 3.609060 1_554
Y0_0 Y0_6 3.609060 1_455
Y0_0 Y0_6 3.609060 1_545
Y0_0 Y0_1 3.609060 1_555
Y0_0 Y0_1 3.609060 1_554
Y0_0 Y0_2 3.609061 1_555
Y0_0 Y0_2 3.609061 1_545
Y0_0 Y0_4 3.609061 1_555
Y0_0 Y0_4 3.609061 1_455
Y0_1 Y0_2 3.609060 1_555
Y0_1 Y0_2 3.609060 1_546
Y0_1 Y0_4 3.609060 1_456
Y0_1 Y0_4 3.609060 1_555
Y0_1 Y0_7 3.609060 1_455
Y0_1 Y0_7 3.609060 1_545
Y0_1 Y0_3 3.609061 1_555
Y0_1 Y0_3 3.609061 1_545
Y0_1 Y0_5 3.609061 1_555
Y0_1 Y0_5 3.609061 1_455
Y0_2 Y0_7 3.609060 1_554
Y0_2 Y0_7 3.609060 1_455
Y0_2 Y0_4 3.609060 1_555
Y0_2 Y0_4 3.609060 1_465
Y0_2 Y0_3 3.609060 1_555
Y0_2 Y0_3 3.609060 1_554
Y0_2 Y0_6 3.609061 1_455
Y0_2 Y0_6 3.609061 1_555
Y0_3 Y0_6 3.609060 1_555
Y0_3 Y0_6 3.609060 1_456
Y0_3 Y0_5 3.609060 1_555
Y0_3 Y0_5 3.609060 1_465
Y0_3 Y0_7 3.609061 1_555
Y0_3 Y0_7 3.609061 1_455
Y0_4 Y0_7 3.609060 1_554
Y0_4 Y0_7 3.609060 1_545
Y0_4 Y0_5 3.609060 1_555
Y0_4 Y0_5 3.609060 1_554
Y0_4 Y0_6 3.609061 1_555
Y0_4 Y0_6 3.609061 1_545
Y0_5 Y0_6 3.609060 1_555
Y0_5 Y0_6 3.609060 1_546
Y0_5 Y0_7 3.609061 1_555
Y0_5 Y0_7 3.609061 1_545
Y0_6 Y0_7 3.609060 1_555
Y0_6 Y0_7 3.609060 1_554
