# generated using pymatgen
data_TiP3
_symmetry_space_group_name_H-M   'P 1'
_cell_length_a   5.10807052
_cell_length_b   5.10807052
_cell_length_c   5.10807052
_cell_angle_alpha   138.34685072
_cell_angle_beta   138.34685072
_cell_angle_gamma   60.37219384
_symmetry_Int_Tables_number   1
_chemical_formula_structural   TiP3
_chemical_formula_sum   'Ti1 P3'
_cell_volume   58.25349632
_cell_formula_units_Z   1
loop_
 _symmetry_equiv_pos_site_id
 _symmetry_equiv_pos_as_xyz
  1  'x, y, z'
loop_
 _atom_site_type_symbol
 _atom_site_label
 _atom_site_symmetry_multiplicity
 _atom_site_fract_x
 _atom_site_fract_y
 _atom_site_fract_z
 _atom_site_occupancy
  Ti  Ti0  1  0.00000000  0.00000000  0.00000000  1
  P  P0  1  0.25000000  0.75000000  0.50000000  1
  P  P1  1  0.75000000  0.25000000  0.50000000  1
  P  P2  1  0.50000000  0.50000000  0.00000000  1
loop_
_geom_bond_atom_site_label_1
_geom_bond_atom_site_label_2
_geom_bond_distance
_geom_bond_site_symmetry_2
P0 P1 2.568390 1_454
P0 P1 2.568390 1_555
P0 P1 2.568390 1_566
P0 P1 2.568390 1_465
P0 Ti0 2.858715 1_666
P0 Ti0 2.858715 1_555
P0 Ti0 2.858715 1_565
P0 Ti0 2.858715 1_566
P1 Ti0 2.858715 1_666
P1 Ti0 2.858715 1_555
P1 Ti0 2.858715 1_655
P1 Ti0 2.858715 1_656
P2 Ti0 2.568390 1_554
P2 Ti0 2.568390 1_565
P2 Ti0 2.568390 1_655
P2 Ti0 2.568390 1_666
