# generated using pymatgen
data_AlAs
_symmetry_space_group_name_H-M   'P 1'
_cell_length_a   7.02253000
_cell_length_b   7.02253000
_cell_length_c   7.02253000
_cell_angle_alpha   90.00000000
_cell_angle_beta   90.00000000
_cell_angle_gamma   90.00000000
_symmetry_Int_Tables_number   1
_chemical_formula_structural   AlAs
_chemical_formula_sum   'Al8 As8'
_cell_volume   346.32258106
_cell_formula_units_Z   8
loop_
 _symmetry_equiv_pos_site_id
 _symmetry_equiv_pos_as_xyz
  1  'x, y, z'
loop_
 _atom_site_type_symbol
 _atom_site_label
 _atom_site_symmetry_multiplicity
 _atom_site_fract_x
 _atom_site_fract_y
 _atom_site_fract_z
 _atom_site_occupancy
  Al  Al0  1  0.34149900  0.34149900  0.34149900  1
  Al  Al1  1  0.15850100  0.65850100  0.84149900  1
  Al  Al2  1  0.84149900  0.15850100  0.65850100  1
  Al  Al3  1  0.65850100  0.84149900  0.15850100  1
  Al  Al4  1  0.65850100  0.65850100  0.65850100  1
  Al  Al5  1  0.84149900  0.34149900  0.15850100  1
  Al  Al6  1  0.15850100  0.84149900  0.34149900  1
  Al  Al7  1  0.34149900  0.15850100  0.84149900  1
  As  As0  1  0.14120200  0.14120200  0.14120200  1
  As  As1  1  0.35879800  0.85879800  0.64120200  1
  As  As2  1  0.64120200  0.35879800  0.85879800  1
  As  As3  1  0.85879800  0.64120200  0.35879800  1
  As  As4  1  0.85879800  0.85879800  0.85879800  1
  As  As5  1  0.64120200  0.14120200  0.35879800  1
  As  As6  1  0.35879800  0.64120200  0.14120200  1
  As  As7  1  0.14120200  0.35879800  0.64120200  1
loop_
_geom_bond_atom_site_label_1
_geom_bond_atom_site_label_2
_geom_bond_distance
_geom_bond_site_symmetry_2
Al0 As0 2.436288 1_555
Al0 As5 2.534346 1_555
Al0 As6 2.534346 1_555
Al0 As7 2.534346 1_555
Al1 As1 2.436288 1_555
Al1 As4 2.534346 1_455
Al1 As7 2.534346 1_555
Al1 As6 2.534346 1_556
Al2 As2 2.436288 1_555
Al2 As5 2.534346 1_555
Al2 As4 2.534346 1_545
Al2 As7 2.534346 1_655
Al3 As3 2.436288 1_555
Al3 As4 2.534346 1_554
Al3 As6 2.534346 1_555
Al3 As5 2.534346 1_565
Al4 As4 2.436288 1_555
Al4 As3 2.534346 1_555
Al4 As2 2.534346 1_555
Al4 As1 2.534346 1_555
Al5 As5 2.436288 1_555
Al5 As2 2.534346 1_554
Al5 As0 2.534346 1_655
Al5 As3 2.534346 1_555
Al6 As6 2.436288 1_555
Al6 As3 2.534346 1_455
Al6 As1 2.534346 1_555
Al6 As0 2.534346 1_565
Al7 As7 2.436288 1_555
Al7 As1 2.534346 1_545
Al7 As2 2.534346 1_555
Al7 As0 2.534346 1_556
