# generated using pymatgen
data_NdAl2Cu9
_symmetry_space_group_name_H-M   'P 1'
_cell_length_a   7.83828311
_cell_length_b   7.83828311
_cell_length_c   7.83828311
_cell_angle_alpha   100.12655018
_cell_angle_beta   100.12655018
_cell_angle_gamma   130.41762809
_symmetry_Int_Tables_number   1
_chemical_formula_structural   NdAl2Cu9
_chemical_formula_sum   'Nd2 Al4 Cu18'
_cell_volume   332.85194973
_cell_formula_units_Z   2
loop_
 _symmetry_equiv_pos_site_id
 _symmetry_equiv_pos_as_xyz
  1  'x, y, z'
loop_
 _atom_site_type_symbol
 _atom_site_label
 _atom_site_symmetry_multiplicity
 _atom_site_fract_x
 _atom_site_fract_y
 _atom_site_fract_z
 _atom_site_occupancy
  Nd  Nd0  1  0.00000000  0.00000000  -0.00000000  1
  Nd  Nd1  1  0.25000000  0.75000000  0.50000000  1
  Al  Al0  1  0.62498423  0.87497747  0.24999324  1
  Al  Al1  1  0.62498423  0.37499098  0.75000676  1
  Al  Al2  1  0.62500902  0.37501577  0.24999324  1
  Al  Al3  1  0.12502253  0.37501577  0.75000676  1
  Cu  Cu0  1  0.89999314  0.56823317  0.08471509  1
  Cu  Cu1  1  0.48351807  0.81527805  0.91528491  1
  Cu  Cu2  1  0.76646786  0.18175669  0.83174964  1
  Cu  Cu3  1  0.35000705  0.93471822  0.16825036  1
  Cu  Cu4  1  0.43176683  0.10000686  0.91528491  1
  Cu  Cu5  1  0.18472195  0.51648193  0.08471509  1
  Cu  Cu6  1  0.81824331  0.23353214  0.16825036  1
  Cu  Cu7  1  0.06528178  0.64999295  0.83174964  1
  Cu  Cu8  1  0.35000705  0.18175669  0.41528883  1
  Cu  Cu9  1  0.76646786  0.93471822  0.58471117  1
  Cu  Cu10  1  0.48351807  0.56823317  0.66824003  1
  Cu  Cu11  1  0.89999314  0.81527805  0.33175997  1
  Cu  Cu12  1  0.81824331  0.64999295  0.58471117  1
  Cu  Cu13  1  0.06528178  0.23353214  0.41528883  1
  Cu  Cu14  1  0.43176683  0.51648193  0.33175997  1
  Cu  Cu15  1  0.18472195  0.10000686  0.66824003  1
  Cu  Cu16  1  0.75000000  0.25000000  0.50000000  1
  Cu  Cu17  1  0.50000000  0.50000000  -0.00000000  1
loop_
_geom_bond_atom_site_label_1
_geom_bond_atom_site_label_2
_geom_bond_distance
_geom_bond_site_symmetry_2
Al0 Cu14 2.461038 1_555
Al0 Cu5 2.461038 1_555
Al0 Cu6 2.461271 1_565
Al0 Cu13 2.461271 1_665
Al0 Cu9 2.490773 1_555
Al0 Cu3 2.490773 1_555
Al0 Cu11 2.490776 1_555
Al0 Cu1 2.490776 1_554
Al0 Cu17 2.646541 1_555
Al0 Cu16 2.646734 1_565
Al1 Cu4 2.461038 1_555
Al1 Cu15 2.461038 1_555
Al1 Cu7 2.461271 1_655
Al1 Cu12 2.461271 1_555
Al1 Cu2 2.490773 1_555
Al1 Cu8 2.490773 1_555
Al1 Cu0 2.490776 1_556
Al1 Cu10 2.490776 1_555
Al1 Cu17 2.646541 1_556
Al1 Cu16 2.646734 1_555
Al2 Cu0 2.461038 1_555
Al2 Cu11 2.461038 1_555
Al2 Cu3 2.461271 1_545
Al2 Cu8 2.461271 1_555
Al2 Cu6 2.490773 1_555
Al2 Cu12 2.490773 1_555
Al2 Cu4 2.490776 1_554
Al2 Cu14 2.490776 1_555
Al2 Cu17 2.646541 1_555
Al2 Cu16 2.646734 1_555
Al3 Cu10 2.461038 1_555
Al3 Cu1 2.461038 1_555
Al3 Cu2 2.461271 1_455
Al3 Cu9 2.461271 1_445
Al3 Cu7 2.490773 1_555
Al3 Cu13 2.490773 1_555
Al3 Cu15 2.490776 1_555
Al3 Cu5 2.490776 1_556
Al3 Cu17 2.646541 1_556
Al3 Cu16 2.646734 1_455
Cu0 Cu11 2.486120 1_555
Cu0 Cu6 2.508727 1_555
Cu0 Cu7 2.508849 1_654
Cu0 Cu5 2.513826 1_655
Cu0 Cu3 2.551478 1_655
Cu0 Cu2 2.692680 1_554
Cu0 Cu17 2.743262 1_555
Cu0 Cu4 2.794434 1_554
Cu0 Nd0 3.168941 1_665
Cu0 Nd1 3.211332 1_655
Cu1 Cu10 2.486120 1_555
Cu1 Cu7 2.508727 1_555
Cu1 Cu6 2.508849 1_566
Cu1 Cu4 2.513826 1_565
Cu1 Cu2 2.551478 1_565
Cu1 Cu3 2.692680 1_556
Cu1 Cu17 2.743262 1_556
Cu1 Cu5 2.794434 1_556
Cu1 Nd0 3.168941 1_666
Cu1 Nd1 3.211332 1_555
Cu2 Cu9 2.486055 1_545
Cu2 Cu4 2.508727 1_555
Cu2 Cu5 2.508849 1_656
Cu2 Cu6 2.513939 1_556
Cu2 Cu7 2.794492 1_655
Cu2 Nd1 3.168852 1_545
Cu2 Nd0 3.211380 1_656
Cu3 Cu8 2.486055 1_565
Cu3 Cu5 2.508727 1_555
Cu3 Cu4 2.508849 1_564
Cu3 Cu7 2.513939 1_554
Cu3 Cu6 2.794492 1_565
Cu3 Nd1 3.168852 1_555
Cu3 Nd0 3.211380 1_565
Cu4 Cu7 2.551478 1_545
Cu4 Cu6 2.692680 1_556
Cu4 Nd0 3.168941 1_556
Cu4 Nd1 3.211332 1_545
Cu5 Cu6 2.551478 1_455
Cu5 Cu7 2.692680 1_554
Cu5 Nd0 3.168941 1_555
Cu5 Nd1 3.211332 1_555
Cu6 Nd1 3.168852 1_655
Cu6 Nd0 3.211380 1_655
Cu7 Nd1 3.168852 1_555
Cu7 Nd0 3.211380 1_566
Cu8 Nd1 3.168852 1_545
Cu8 Nd0 3.211380 1_555
Cu9 Nd1 3.168852 1_555
Cu9 Nd0 3.211380 1_666
Cu10 Cu13 2.508727 1_555
Cu10 Cu12 2.508849 1_555
Cu10 Cu14 2.513826 1_555
Cu10 Cu9 2.551478 1_555
Cu10 Cu8 2.692680 1_555
Cu10 Cu17 2.743262 1_556
Cu10 Cu15 2.794434 1_555
Cu10 Nd0 3.168941 1_666
Cu10 Nd1 3.211332 1_555
Cu11 Cu12 2.508727 1_555
Cu11 Cu13 2.508849 1_665
Cu11 Cu15 2.513826 1_665
Cu11 Cu8 2.551478 1_665
Cu11 Cu9 2.692680 1_555
Cu11 Cu17 2.743262 1_555
Cu11 Cu14 2.794434 1_555
Cu11 Nd0 3.168941 1_665
Cu11 Nd1 3.211332 1_655
Cu12 Cu7 2.486055 1_655
Cu12 Cu9 2.513939 1_555
Cu12 Cu15 2.551478 1_665
Cu12 Cu14 2.692680 1_555
Cu12 Cu16 2.743214 1_555
Cu12 Cu8 2.794492 1_555
Cu12 Nd1 3.168852 1_655
Cu12 Nd0 3.211380 1_666
Cu13 Cu6 2.486055 1_455
Cu13 Cu8 2.513939 1_555
Cu13 Cu14 2.551478 1_555
Cu13 Cu15 2.692680 1_555
Cu13 Cu16 2.743214 1_455
Cu13 Cu9 2.794492 1_445
Cu13 Nd1 3.168852 1_555
Cu13 Nd0 3.211380 1_555
Cu14 Cu5 2.486120 1_555
Cu14 Cu9 2.508727 1_555
Cu14 Cu8 2.508849 1_555
Cu14 Cu17 2.743262 1_555
Cu14 Nd0 3.168941 1_555
Cu14 Nd1 3.211332 1_555
Cu15 Cu4 2.486120 1_555
Cu15 Cu8 2.508727 1_555
Cu15 Cu9 2.508849 1_445
Cu15 Cu17 2.743262 1_556
Cu15 Nd0 3.168941 1_556
Cu15 Nd1 3.211332 1_545
Cu16 Cu9 2.743214 1_545
Cu16 Cu2 2.743214 1_555
Cu16 Cu6 2.743214 1_555
Cu16 Cu7 2.743214 1_655
Cu16 Cu8 2.743214 1_555
Cu16 Cu3 2.743214 1_545
Cu16 Nd1 3.286690 1_655
Cu16 Nd1 3.286690 1_545
Cu17 Cu4 2.743262 1_554
Cu17 Cu5 2.743262 1_555
Cu17 Nd0 3.286690 1_555
Cu17 Nd0 3.286690 1_665
