# generated using pymatgen
data_Ir3Se8
_symmetry_space_group_name_H-M   'P 1'
_cell_length_a   6.02324324
_cell_length_b   6.02328439
_cell_length_c   6.02322229
_cell_angle_alpha   90.25733763
_cell_angle_beta   90.25576543
_cell_angle_gamma   90.25836842
_symmetry_Int_Tables_number   1
_chemical_formula_structural   Ir3Se8
_chemical_formula_sum   'Ir3 Se8'
_cell_volume   218.51411731
_cell_formula_units_Z   1
loop_
 _symmetry_equiv_pos_site_id
 _symmetry_equiv_pos_as_xyz
  1  'x, y, z'
loop_
 _atom_site_type_symbol
 _atom_site_label
 _atom_site_symmetry_multiplicity
 _atom_site_fract_x
 _atom_site_fract_y
 _atom_site_fract_z
 _atom_site_occupancy
  Ir  Ir0  1  0.50000000  -0.00000000  0.50000000  1
  Ir  Ir1  1  0.00000000  0.50000000  0.50000000  1
  Ir  Ir2  1  0.50000000  0.50000000  -0.00000000  1
  Se  Se0  1  0.38419769  0.11611564  0.87972052  1
  Se  Se1  1  0.11611238  0.87972251  0.38419946  1
  Se  Se2  1  0.87973968  0.38418612  0.11612289  1
  Se  Se3  1  0.37384736  0.37385481  0.37385341  1
  Se  Se4  1  0.62615264  0.62614519  0.62614659  1
  Se  Se5  1  0.12026032  0.61581388  0.88387711  1
  Se  Se6  1  0.88388762  0.12027749  0.61580054  1
  Se  Se7  1  0.61580231  0.88388436  0.12027948  1
loop_
_geom_bond_atom_site_label_1
_geom_bond_atom_site_label_2
_geom_bond_distance
_geom_bond_site_symmetry_2
Ir0 Se7 2.492179 1_545
Ir0 Se0 2.492179 1_555
Ir0 Se3 2.500216 1_555
Ir0 Se4 2.500216 1_545
Ir0 Se1 2.514715 1_545
Ir0 Se6 2.514715 1_555
Ir1 Se1 2.492199 1_555
Ir1 Se6 2.492199 1_455
Ir1 Se4 2.500124 1_455
Ir1 Se3 2.500124 1_555
Ir1 Se2 2.514652 1_455
Ir1 Se5 2.514652 1_555
Ir2 Se5 2.492367 1_554
Ir2 Se2 2.492367 1_555
Ir2 Se4 2.500146 1_554
Ir2 Se3 2.500146 1_555
Ir2 Se0 2.514705 1_554
Ir2 Se7 2.514705 1_555
Se0 Se7 2.453542 1_546
Se1 Se6 2.453450 1_465
Se2 Se5 2.453461 1_654
Se3 Se4 2.620260 1_555
