# generated using pymatgen
data_Na3AlTe3
_symmetry_space_group_name_H-M   'P 1'
_cell_length_a   7.75460932
_cell_length_b   8.04410420
_cell_length_c   16.14198993
_cell_angle_alpha   60.52556437
_cell_angle_beta   90.00000000
_cell_angle_gamma   90.00000000
_symmetry_Int_Tables_number   1
_chemical_formula_structural   Na3AlTe3
_chemical_formula_sum   'Na12 Al4 Te12'
_cell_volume   876.59912707
_cell_formula_units_Z   4
loop_
 _symmetry_equiv_pos_site_id
 _symmetry_equiv_pos_as_xyz
  1  'x, y, z'
loop_
 _atom_site_type_symbol
 _atom_site_label
 _atom_site_symmetry_multiplicity
 _atom_site_fract_x
 _atom_site_fract_y
 _atom_site_fract_z
 _atom_site_occupancy
  Na  Na0  1  0.02024819  0.94708119  0.27816637  1
  Na  Na1  1  0.52024819  0.05291881  0.22183363  1
  Na  Na2  1  0.97975181  0.05291881  0.72183363  1
  Na  Na3  1  0.47975181  0.94708119  0.77816637  1
  Na  Na4  1  0.00252952  0.72317001  0.10401876  1
  Na  Na5  1  0.50252952  0.27682999  0.39598124  1
  Na  Na6  1  0.99747048  0.27682999  0.89598124  1
  Na  Na7  1  0.49747048  0.72317001  0.60401876  1
  Na  Na8  1  0.00084610  0.31757127  0.39863312  1
  Na  Na9  1  0.50084610  0.68242873  0.10136688  1
  Na  Na10  1  0.99915390  0.68242873  0.60136688  1
  Na  Na11  1  0.49915390  0.31757127  0.89863312  1
  Al  Al0  1  0.64160031  0.66501588  0.41793734  1
  Al  Al1  1  0.14160031  0.33498412  0.08206266  1
  Al  Al2  1  0.35839969  0.33498412  0.58206266  1
  Al  Al3  1  0.85839969  0.66501588  0.91793734  1
  Te  Te0  1  0.79643175  0.34251921  0.07507378  1
  Te  Te1  1  0.29643175  0.65748079  0.42492622  1
  Te  Te2  1  0.20356825  0.65748079  0.92492622  1
  Te  Te3  1  0.70356825  0.34251921  0.57507378  1
  Te  Te4  1  0.24400475  0.34397993  0.23194229  1
  Te  Te5  1  0.74400475  0.65602007  0.26805771  1
  Te  Te6  1  0.75599525  0.65602007  0.76805771  1
  Te  Te7  1  0.25599525  0.34397993  0.73194229  1
  Te  Te8  1  0.75904575  0.95672418  0.42591576  1
  Te  Te9  1  0.25904575  0.04327582  0.07408424  1
  Te  Te10  1  0.24095425  0.04327582  0.57408424  1
  Te  Te11  1  0.74095425  0.95672418  0.92591576  1
loop_
_geom_bond_atom_site_label_1
_geom_bond_atom_site_label_2
_geom_bond_distance
_geom_bond_site_symmetry_2
Na0 Te8 3.158938 1_455
Na0 Te1 3.192974 1_555
Na0 Te5 3.236239 1_455
Na0 Te4 3.378829 1_565
Na0 Te9 3.517343 1_565
Na0 Te0 3.689998 1_465
Na1 Te9 3.158938 1_555
Na1 Te0 3.192974 1_555
Na1 Te4 3.236239 1_555
Na1 Te5 3.378829 1_545
Na1 Te8 3.517343 1_545
Na1 Te1 3.689998 1_545
Na2 Te10 3.158938 1_655
Na2 Te3 3.192974 1_555
Na2 Te7 3.236239 1_655
Na2 Te6 3.378829 1_545
Na2 Te11 3.517343 1_545
Na2 Te2 3.689998 1_645
Na3 Te11 3.158938 1_555
Na3 Te2 3.192974 1_555
Na3 Te6 3.236239 1_555
Na3 Te7 3.378829 1_565
Na3 Te10 3.517343 1_565
Na3 Te3 3.689998 1_565
Na4 Te9 3.097800 1_565
Na4 Te5 3.148773 1_455
Na4 Te11 3.254868 1_454
Na4 Te4 3.297902 1_555
Na4 Te2 3.545454 1_554
Na4 Te0 3.681881 1_455
Na5 Te8 3.097800 1_545
Na5 Te4 3.148773 1_555
Na5 Te10 3.254868 1_555
Na5 Te5 3.297902 1_555
Na5 Te3 3.545454 1_555
Na5 Te1 3.681881 1_555
Na6 Te11 3.097800 1_545
Na6 Te7 3.148773 1_655
Na6 Te9 3.254868 1_656
Na6 Te6 3.297902 1_555
Na6 Te0 3.545454 1_556
Na6 Te2 3.681881 1_655
Na7 Te10 3.097800 1_565
Na7 Te6 3.148773 1_555
Na7 Te8 3.254868 1_555
Na7 Te7 3.297902 1_555
Na7 Te1 3.545454 1_555
Na7 Te3 3.681881 1_555
Na8 Te5 3.189768 1_455
Na8 Te10 3.194813 1_555
Na8 Te4 3.205948 1_555
Na8 Te8 3.298102 1_445
Na9 Te4 3.189768 1_555
Na9 Te11 3.194813 1_554
Na9 Te5 3.205948 1_555
Na9 Te9 3.298102 1_565
Na10 Te7 3.189768 1_655
Na10 Te8 3.194813 1_555
Na10 Te6 3.205948 1_555
Na10 Te10 3.298102 1_665
Na11 Te6 3.189768 1_555
Na11 Te9 3.194813 1_556
Na11 Te7 3.205948 1_555
Na11 Te11 3.298102 1_545
Al0 Te8 2.578690 1_555
Al0 Te5 2.580970 1_555
Al0 Te3 2.630443 1_555
Al0 Te1 2.678453 1_555
Al0 Na1 3.304899 1_565
Al0 Na7 3.445742 1_555
Al0 Na5 3.482584 1_555
Al1 Te9 2.578690 1_555
Al1 Te4 2.580970 1_555
Al1 Te2 2.630443 1_554
Al1 Te0 2.678453 1_455
Al1 Na0 3.304899 1_545
Al1 Na6 3.445742 1_454
Al1 Na4 3.482584 1_555
Al2 Te10 2.578690 1_555
Al2 Te7 2.580970 1_555
Al2 Te1 2.630443 1_555
Al2 Te3 2.678453 1_555
Al2 Na3 3.304899 1_545
Al2 Na5 3.445742 1_555
Al2 Na7 3.482584 1_555
Al3 Te11 2.578690 1_555
Al3 Te6 2.580970 1_555
Al3 Te0 2.630443 1_556
Al3 Te2 2.678453 1_655
Al3 Na2 3.304899 1_565
Al3 Na4 3.445742 1_656
Al3 Na6 3.482584 1_555
