# generated using pymatgen
data_SmErRh2
_symmetry_space_group_name_H-M   'P 1'
_cell_length_a   4.84797036
_cell_length_b   4.84797036
_cell_length_c   4.84797036
_cell_angle_alpha   60.00000000
_cell_angle_beta   60.00000000
_cell_angle_gamma   60.00000000
_symmetry_Int_Tables_number   1
_chemical_formula_structural   SmErRh2
_chemical_formula_sum   'Sm1 Er1 Rh2'
_cell_volume   80.56842452
_cell_formula_units_Z   1
loop_
 _symmetry_equiv_pos_site_id
 _symmetry_equiv_pos_as_xyz
  1  'x, y, z'
loop_
 _atom_site_type_symbol
 _atom_site_label
 _atom_site_symmetry_multiplicity
 _atom_site_fract_x
 _atom_site_fract_y
 _atom_site_fract_z
 _atom_site_occupancy
  Sm  Sm0  1  0.75000000  0.75000000  0.75000000  1
  Er  Er0  1  0.25000000  0.25000000  0.25000000  1
  Rh  Rh0  1  -0.00000000  -0.00000000  -0.00000000  1
  Rh  Rh1  1  0.50000100  0.50000100  0.50000100  1
loop_
_geom_bond_atom_site_label_1
_geom_bond_atom_site_label_2
_geom_bond_distance
_geom_bond_site_symmetry_2
Er0 Rh1 2.968759 1_545
Er0 Rh1 2.968759 1_554
Er0 Rh1 2.968759 1_455
Er0 Rh0 2.968763 1_655
Er0 Rh0 2.968763 1_555
Er0 Rh0 2.968763 1_556
Er0 Rh0 2.968763 1_565
Er0 Rh1 2.968775 1_555
Rh0 Sm0 2.968763 1_544
Rh0 Sm0 2.968763 1_445
Rh0 Sm0 2.968763 1_444
Rh0 Sm0 2.968763 1_454
Rh1 Sm0 2.968752 1_555
Rh1 Sm0 2.968767 1_455
Rh1 Sm0 2.968767 1_554
Rh1 Sm0 2.968767 1_545
