# generated using pymatgen
data_TaMoN
_symmetry_space_group_name_H-M   'P 1'
_cell_length_a   3.09466900
_cell_length_b   3.09466900
_cell_length_c   7.86599200
_cell_angle_alpha   90.00000000
_cell_angle_beta   90.00000000
_cell_angle_gamma   90.00000000
_symmetry_Int_Tables_number   1
_chemical_formula_structural   TaMoN
_chemical_formula_sum   'Ta2 Mo2 N2'
_cell_volume   75.33241833
_cell_formula_units_Z   2
loop_
 _symmetry_equiv_pos_site_id
 _symmetry_equiv_pos_as_xyz
  1  'x, y, z'
loop_
 _atom_site_type_symbol
 _atom_site_label
 _atom_site_symmetry_multiplicity
 _atom_site_fract_x
 _atom_site_fract_y
 _atom_site_fract_z
 _atom_site_occupancy
  Ta  Ta0  1  0.00000000  0.50000000  0.66477100  1
  Ta  Ta1  1  0.50000000  0.00000000  0.33522900  1
  Mo  Mo0  1  0.50000000  0.00000000  0.90262900  1
  Mo  Mo1  1  0.00000000  0.50000000  0.09737100  1
  N  N0  1  0.00000000  0.50000000  0.37641000  1
  N  N1  1  0.50000000  0.00000000  0.62359000  1
loop_
_geom_bond_atom_site_label_1
_geom_bond_atom_site_label_2
_geom_bond_distance
_geom_bond_site_symmetry_2
Mo0 N1 2.194919 1_555
Mo1 N0 2.194919 1_555
N0 Ta1 2.212107 1_465
N0 Ta1 2.212107 1_455
N0 Ta1 2.212107 1_555
N0 Ta1 2.212107 1_565
N0 Ta0 2.268245 1_555
N1 Ta0 2.212107 1_545
N1 Ta0 2.212107 1_645
N1 Ta0 2.212107 1_555
N1 Ta0 2.212107 1_655
N1 Ta1 2.268245 1_555
