# generated using pymatgen
data_Hf(TlTe)4
_symmetry_space_group_name_H-M   'P 1'
_cell_length_a   9.82309151
_cell_length_b   9.82328478
_cell_length_c   9.82298534
_cell_angle_alpha   98.29578499
_cell_angle_beta   98.30185123
_cell_angle_gamma   98.29949064
_symmetry_Int_Tables_number   1
_chemical_formula_structural   Hf(TlTe)4
_chemical_formula_sum   'Hf3 Tl12 Te12'
_cell_volume   914.82091699
_cell_formula_units_Z   3
loop_
 _symmetry_equiv_pos_site_id
 _symmetry_equiv_pos_as_xyz
  1  'x, y, z'
loop_
 _atom_site_type_symbol
 _atom_site_label
 _atom_site_symmetry_multiplicity
 _atom_site_fract_x
 _atom_site_fract_y
 _atom_site_fract_z
 _atom_site_occupancy
  Hf  Hf0  1  0.75498258  0.75498687  0.75497391  1
  Hf  Hf1  1  0.24503232  0.24499089  0.24499475  1
  Hf  Hf2  1  0.50000127  0.49997646  0.49999911  1
  Tl  Tl0  1  0.67098839  0.11791418  0.98901869  1
  Tl  Tl1  1  0.98902651  0.67097748  0.11790332  1
  Tl  Tl2  1  0.11790370  0.98903051  0.67099378  1
  Tl  Tl3  1  0.32900891  0.88207768  0.01094363  1
  Tl  Tl4  1  0.01095903  0.32900272  0.88206695  1
  Tl  Tl5  1  0.88208671  0.01096281  0.32902247  1
  Tl  Tl6  1  0.63543489  0.46685036  0.13146086  1
  Tl  Tl7  1  0.13142744  0.63540471  0.46686041  1
  Tl  Tl8  1  0.46683880  0.13146747  0.63539853  1
  Tl  Tl9  1  0.36458384  0.53313189  0.86858297  1
  Tl  Tl10  1  0.86852697  0.36456848  0.53316109  1
  Tl  Tl11  1  0.53315775  0.86858528  0.36457973  1
  Te  Te0  1  0.70645460  0.80520218  0.03462021  1
  Te  Te1  1  0.03462409  0.70646524  0.80526988  1
  Te  Te2  1  0.80522048  0.03461493  0.70644566  1
  Te  Te3  1  0.29348657  0.19474866  0.96543352  1
  Te  Te4  1  0.96536511  0.29350067  0.19473683  1
  Te  Te5  1  0.19476522  0.96539453  0.29347748  1
  Te  Te6  1  0.45286869  0.75965272  0.65657909  1
  Te  Te7  1  0.65646289  0.45280373  0.75959792  1
  Te  Te8  1  0.75965685  0.65653722  0.45285204  1
  Te  Te9  1  0.54722513  0.24051615  0.34352291  1
  Te  Te10  1  0.34337099  0.54710259  0.24033085  1
  Te  Te11  1  0.24053926  0.34353561  0.54717339  1
loop_
_geom_bond_atom_site_label_1
_geom_bond_atom_site_label_2
_geom_bond_distance
_geom_bond_site_symmetry_2
Hf0 Te2 2.840860 1_565
Hf0 Te1 2.840953 1_655
Hf0 Te0 2.841016 1_556
Hf0 Te6 2.994531 1_555
Hf0 Te8 2.994798 1_555
Hf0 Te7 2.995409 1_555
Hf1 Te3 2.839984 1_554
Hf1 Te5 2.840427 1_545
Hf1 Te4 2.841136 1_455
Hf1 Te10 2.994501 1_555
Hf1 Te9 2.995119 1_555
Hf1 Te11 2.995132 1_555
Hf2 Te11 2.913442 1_555
Hf2 Te9 2.913870 1_555
Hf2 Te7 2.914515 1_555
Hf2 Te8 2.915408 1_555
Hf2 Te10 2.915613 1_555
Hf2 Te6 2.915721 1_555
Te0 Tl0 3.227896 1_564
Te0 Tl1 3.290071 1_555
Te0 Tl5 3.360179 1_565
Te1 Tl1 3.227108 1_456
Te1 Tl2 3.290307 1_555
Te1 Tl3 3.359609 1_556
Te2 Tl2 3.227530 1_645
Te2 Tl0 3.290253 1_555
Te2 Tl4 3.360002 1_655
Te3 Tl3 3.227389 1_546
Te3 Tl4 3.290006 1_555
Te3 Tl2 3.360123 1_545
Te4 Tl4 3.227483 1_654
Te4 Tl5 3.290125 1_555
Te4 Tl0 3.359652 1_554
Te5 Tl5 3.227650 1_465
Te5 Tl3 3.290015 1_555
Te5 Tl1 3.360064 1_455
Te6 Tl11 3.359998 1_555
Te6 Tl9 3.367788 1_555
Te6 Tl7 3.385936 1_555
Te7 Tl9 3.359330 1_555
Te7 Tl10 3.367653 1_555
Te7 Tl8 3.384827 1_555
Te8 Tl10 3.359576 1_555
Te8 Tl11 3.367953 1_555
Te8 Tl6 3.385473 1_555
Te9 Tl8 3.359627 1_555
Te9 Tl6 3.366725 1_555
Te9 Tl10 3.384270 1_555
Te10 Tl6 3.360331 1_555
Te10 Tl7 3.367578 1_555
Te10 Tl11 3.386632 1_555
Te11 Tl7 3.359644 1_555
Te11 Tl8 3.366588 1_555
Te11 Tl9 3.385040 1_555
