# generated using pymatgen
data_Np3S5
_symmetry_space_group_name_H-M   'P 1'
_cell_length_a   7.47758653
_cell_length_b   8.07702301
_cell_length_c   11.84126329
_cell_angle_alpha   90.00000000
_cell_angle_beta   90.00000000
_cell_angle_gamma   90.00000000
_symmetry_Int_Tables_number   1
_chemical_formula_structural   Np3S5
_chemical_formula_sum   'Np12 S20'
_cell_volume   715.17249786
_cell_formula_units_Z   4
loop_
 _symmetry_equiv_pos_site_id
 _symmetry_equiv_pos_as_xyz
  1  'x, y, z'
loop_
 _atom_site_type_symbol
 _atom_site_label
 _atom_site_symmetry_multiplicity
 _atom_site_fract_x
 _atom_site_fract_y
 _atom_site_fract_z
 _atom_site_occupancy
  Np  Np0  1  0.02160574  0.00241800  0.67641975  1
  Np  Np1  1  0.52160574  0.99758200  0.82358025  1
  Np  Np2  1  0.47839426  0.49758200  0.17641975  1
  Np  Np3  1  0.97839426  0.50241800  0.32358025  1
  Np  Np4  1  0.97839426  0.99758200  0.32358025  1
  Np  Np5  1  0.47839426  0.00241800  0.17641975  1
  Np  Np6  1  0.52160574  0.50241800  0.82358025  1
  Np  Np7  1  0.02160574  0.49758200  0.67641975  1
  Np  Np8  1  0.56059129  0.25000000  0.50519843  1
  Np  Np9  1  0.06059129  0.75000000  0.99480157  1
  Np  Np10  1  0.93940871  0.25000000  0.00519843  1
  Np  Np11  1  0.43940871  0.75000000  0.49480157  1
  S  S0  1  0.33375089  0.25000000  0.68810633  1
  S  S1  1  0.83375089  0.75000000  0.81189367  1
  S  S2  1  0.16624911  0.25000000  0.18810633  1
  S  S3  1  0.66624911  0.75000000  0.31189367  1
  S  S4  1  0.95670405  0.25000000  0.50118689  1
  S  S5  1  0.45670405  0.75000000  -0.00118689  1
  S  S6  1  0.54329595  0.25000000  0.00118689  1
  S  S7  1  0.04329595  0.75000000  0.49881311  1
  S  S8  1  0.66630215  0.53763750  0.59690465  1
  S  S9  1  0.16630215  0.46236250  0.90309535  1
  S  S10  1  0.83369785  0.96236250  0.09690465  1
  S  S11  1  0.33369785  0.03763750  0.40309535  1
  S  S12  1  0.33369785  0.46236250  0.40309535  1
  S  S13  1  0.83369785  0.53763750  0.09690465  1
  S  S14  1  0.16630215  0.03763750  0.90309535  1
  S  S15  1  0.66630215  0.96236250  0.59690465  1
  S  S16  1  0.80743616  0.25000000  0.78751841  1
  S  S17  1  0.30743616  0.75000000  0.71248159  1
  S  S18  1  0.69256384  0.25000000  0.28751841  1
  S  S19  1  0.19256384  0.75000000  0.21248159  1
loop_
_geom_bond_atom_site_label_1
_geom_bond_atom_site_label_2
_geom_bond_distance
_geom_bond_site_symmetry_2
Np0 S15 2.837228 1_445
Np0 S16 2.879979 1_455
Np0 S14 2.907943 1_555
Np0 S4 2.922321 1_455
Np0 S7 2.933586 1_545
Np0 S1 2.950124 1_445
Np0 S17 2.984483 1_545
Np0 S0 3.076693 1_555
Np1 S14 2.837228 1_565
Np1 S17 2.879979 1_555
Np1 S15 2.907943 1_555
Np1 S5 2.922321 1_556
Np1 S6 2.933586 1_566
Np1 S0 2.950124 1_565
Np1 S16 2.984483 1_565
Np1 S1 3.076693 1_555
Np2 S13 2.837228 1_555
Np2 S18 2.879979 1_555
Np2 S12 2.907943 1_555
Np2 S6 2.922321 1_555
Np2 S5 2.933586 1_555
Np2 S3 2.950124 1_555
Np2 S19 2.984483 1_555
Np2 S2 3.076693 1_555
Np3 S12 2.837228 1_655
Np3 S19 2.879979 1_655
Np3 S13 2.907943 1_555
Np3 S7 2.922321 1_655
Np3 S4 2.933586 1_555
Np3 S2 2.950124 1_655
Np3 S18 2.984483 1_555
Np3 S3 3.076693 1_555
Np4 S11 2.837228 1_665
Np4 S19 2.879979 1_655
Np4 S10 2.907943 1_555
Np4 S7 2.922321 1_655
Np4 S4 2.933586 1_565
Np4 S2 2.950124 1_665
Np4 S18 2.984483 1_565
Np4 S3 3.076693 1_555
Np5 S10 2.837228 1_545
Np5 S18 2.879979 1_555
Np5 S11 2.907943 1_555
Np5 S6 2.922321 1_555
Np5 S5 2.933586 1_545
Np5 S3 2.950124 1_545
Np5 S19 2.984483 1_545
Np5 S2 3.076693 1_555
Np6 S9 2.837228 1_555
Np6 S17 2.879979 1_555
Np6 S8 2.907943 1_555
Np6 S5 2.922321 1_556
Np6 S6 2.933586 1_556
Np6 S0 2.950124 1_555
Np6 S16 2.984483 1_555
Np6 S1 3.076693 1_555
Np7 S8 2.837228 1_455
Np7 S16 2.879979 1_455
Np7 S9 2.907943 1_555
Np7 S4 2.922321 1_455
Np7 S7 2.933586 1_555
Np7 S1 2.950124 1_455
Np7 S17 2.984483 1_555
Np7 S0 3.076693 1_555
Np8 S8 2.683572 1_555
Np8 S15 2.683572 1_545
Np8 S12 2.698585 1_555
Np8 S11 2.698585 1_555
Np8 S0 2.751020 1_555
Np8 S18 2.760054 1_555
Np8 S4 2.962348 1_555
Np9 S14 2.683572 1_565
Np9 S9 2.683572 1_555
Np9 S13 2.698585 1_456
Np9 S10 2.698585 1_456
Np9 S1 2.751020 1_455
Np9 S19 2.760054 1_556
Np9 S5 2.962348 1_556
Np10 S13 2.683572 1_555
Np10 S10 2.683572 1_545
Np10 S9 2.698585 1_654
Np10 S14 2.698585 1_654
Np10 S2 2.751020 1_655
Np10 S16 2.760054 1_554
Np10 S6 2.962348 1_555
Np11 S11 2.683572 1_565
Np11 S12 2.683572 1_555
Np11 S8 2.698585 1_555
Np11 S15 2.698585 1_555
Np11 S3 2.751020 1_555
Np11 S17 2.760054 1_555
Np11 S7 2.962348 1_555
