# generated using pymatgen
data_CO2
_symmetry_space_group_name_H-M   'P 1'
_cell_length_a   7.65333247
_cell_length_b   7.65333247
_cell_length_c   7.65333247
_cell_angle_alpha   104.89313458
_cell_angle_beta   104.89313458
_cell_angle_gamma   119.07578201
_symmetry_Int_Tables_number   1
_chemical_formula_structural   CO2
_chemical_formula_sum   'C8 O16'
_cell_volume   337.70814594
_cell_formula_units_Z   8
loop_
 _symmetry_equiv_pos_site_id
 _symmetry_equiv_pos_as_xyz
  1  'x, y, z'
loop_
 _atom_site_type_symbol
 _atom_site_label
 _atom_site_symmetry_multiplicity
 _atom_site_fract_x
 _atom_site_fract_y
 _atom_site_fract_z
 _atom_site_occupancy
  C  C0  1  0.24191600  0.37644900  0.48882900  1
  C  C1  1  0.88762000  0.75308700  0.51117100  1
  C  C2  1  0.62644900  0.63762000  0.63453300  1
  C  C3  1  0.00308700  0.99191600  0.36546700  1
  C  C4  1  0.00808400  0.37355100  0.01117100  1
  C  C5  1  0.36238000  0.99691300  0.98882900  1
  C  C6  1  0.62355100  0.11238000  0.86546700  1
  C  C7  1  0.24691300  0.75808400  0.13453300  1
  O  O0  1  0.42690200  0.54405600  0.47824200  1
  O  O1  1  0.06581400  0.94866000  0.52175800  1
  O  O2  1  0.79405600  0.81581400  0.61715400  1
  O  O3  1  0.19866000  0.17690200  0.38284600  1
  O  O4  1  0.82309800  0.20594400  0.02175800  1
  O  O5  1  0.18418600  0.80134000  0.97824200  1
  O  O6  1  0.45594400  0.93418600  0.88284600  1
  O  O7  1  0.05134000  0.57309800  0.11715400  1
  O  O8  1  0.13970100  0.41165600  0.56850100  1
  O  O9  1  0.84315500  0.57120000  0.43149900  1
  O  O10  1  0.66165600  0.59315500  0.77195500  1
  O  O11  1  0.82120000  0.88970100  0.22804500  1
  O  O12  1  0.11029900  0.33834400  0.93149900  1
  O  O13  1  0.40684500  0.17880000  0.06850100  1
  O  O14  1  0.58834400  0.15684500  0.72804500  1
  O  O15  1  0.42880000  0.86029900  0.27195500  1
loop_
_geom_bond_atom_site_label_1
_geom_bond_atom_site_label_2
_geom_bond_distance
_geom_bond_site_symmetry_2
C0 O8 1.192472 1_555
C0 O3 1.354132 1_555
C0 O0 1.415518 1_555
C1 O9 1.192472 1_555
C1 O2 1.354132 1_555
C1 O1 1.415518 1_655
C2 O10 1.192472 1_555
C2 O0 1.354132 1_555
C2 O2 1.415518 1_555
C3 O11 1.192472 1_455
C3 O1 1.354132 1_555
C3 O3 1.415518 1_565
C4 O12 1.192472 1_554
C4 O7 1.354132 1_555
C4 O4 1.415518 1_455
C5 O13 1.192472 1_566
C5 O6 1.354132 1_555
C5 O5 1.415518 1_555
C6 O14 1.192472 1_555
C6 O4 1.354132 1_556
C6 O6 1.415518 1_545
C7 O15 1.192472 1_555
C7 O5 1.354132 1_554
C7 O7 1.415518 1_555
