# generated using pymatgen
data_CoPt3
_symmetry_space_group_name_H-M   'P 1'
_cell_length_a   3.87389884
_cell_length_b   3.87388641
_cell_length_c   3.87390299
_cell_angle_alpha   90.00000000
_cell_angle_beta   90.00000000
_cell_angle_gamma   90.00000000
_symmetry_Int_Tables_number   1
_chemical_formula_structural   CoPt3
_chemical_formula_sum   'Co1 Pt3'
_cell_volume   58.13583289
_cell_formula_units_Z   1
loop_
 _symmetry_equiv_pos_site_id
 _symmetry_equiv_pos_as_xyz
  1  'x, y, z'
loop_
 _atom_site_type_symbol
 _atom_site_label
 _atom_site_symmetry_multiplicity
 _atom_site_fract_x
 _atom_site_fract_y
 _atom_site_fract_z
 _atom_site_occupancy
  Co  Co0  1  -0.00000000  -0.00000000  0.00000000  1
  Pt  Pt0  1  -0.00000000  0.50000000  0.50000000  1
  Pt  Pt1  1  0.50000000  0.50000000  0.00000000  1
  Pt  Pt2  1  0.50000000  -0.00000000  0.50000000  1
loop_
_geom_bond_atom_site_label_1
_geom_bond_atom_site_label_2
_geom_bond_distance
_geom_bond_site_symmetry_2
Co0 Pt1 2.739256 1_545
Co0 Pt1 2.739256 1_455
Co0 Pt1 2.739256 1_555
Co0 Pt1 2.739256 1_445
Co0 Pt0 2.739257 1_555
Co0 Pt0 2.739257 1_544
Co0 Pt0 2.739257 1_545
Co0 Pt0 2.739257 1_554
Co0 Pt2 2.739262 1_554
Co0 Pt2 2.739262 1_454
Co0 Pt2 2.739262 1_455
Co0 Pt2 2.739262 1_555
Pt0 Pt2 2.739256 1_455
Pt0 Pt2 2.739256 1_465
Pt0 Pt2 2.739256 1_555
Pt0 Pt2 2.739256 1_565
Pt0 Pt1 2.739262 1_455
Pt0 Pt1 2.739262 1_555
Pt0 Pt1 2.739262 1_556
Pt0 Pt1 2.739262 1_456
Pt1 Pt2 2.739257 1_564
Pt1 Pt2 2.739257 1_565
Pt1 Pt2 2.739257 1_554
Pt1 Pt2 2.739257 1_555
