# generated using pymatgen
data_Mg6Bi2PN
_symmetry_space_group_name_H-M   'P 1'
_cell_length_a   6.61192075
_cell_length_b   6.61192075
_cell_length_c   6.61192075
_cell_angle_alpha   60.00000000
_cell_angle_beta   60.00000000
_cell_angle_gamma   60.00000000
_symmetry_Int_Tables_number   1
_chemical_formula_structural   Mg6Bi2PN
_chemical_formula_sum   'Mg6 Bi2 P1 N1'
_cell_volume   204.39389555
_cell_formula_units_Z   1
loop_
 _symmetry_equiv_pos_site_id
 _symmetry_equiv_pos_as_xyz
  1  'x, y, z'
loop_
 _atom_site_type_symbol
 _atom_site_label
 _atom_site_symmetry_multiplicity
 _atom_site_fract_x
 _atom_site_fract_y
 _atom_site_fract_z
 _atom_site_occupancy
  Mg  Mg0  1  0.23013300  0.76986700  0.76986700  1
  Mg  Mg1  1  0.23013300  0.76986700  0.23013300  1
  Mg  Mg2  1  0.76986700  0.23013300  0.76986700  1
  Mg  Mg3  1  0.76986700  0.76986700  0.23013300  1
  Mg  Mg4  1  0.23013300  0.23013300  0.76986700  1
  Mg  Mg5  1  0.76986700  0.23013300  0.23013300  1
  Bi  Bi0  1  0.25000000  0.25000000  0.25000000  1
  Bi  Bi1  1  0.75000000  0.75000000  0.75000000  1
  P  P0  1  0.50000000  0.50000000  0.50000000  1
  N  N0  1  0.00000000  0.00000000  0.00000000  1
loop_
_geom_bond_atom_site_label_1
_geom_bond_atom_site_label_2
_geom_bond_distance
_geom_bond_site_symmetry_2
Mg0 N0 2.151897 1_566
Mg0 P0 2.523437 1_555
Mg1 N0 2.151897 1_565
Mg1 P0 2.523437 1_555
Mg2 N0 2.151897 1_656
Mg2 P0 2.523437 1_555
Mg3 N0 2.151897 1_665
Mg3 P0 2.523437 1_555
Mg4 N0 2.151897 1_556
Mg4 P0 2.523437 1_555
Mg5 N0 2.151897 1_655
Mg5 P0 2.523437 1_555
Bi0 Mg1 3.311176 1_555
Bi0 Mg4 3.311176 1_555
Bi0 Mg5 3.311176 1_555
Bi0 Mg0 3.311176 1_545
Bi0 Mg2 3.311176 1_455
Bi0 Mg3 3.311176 1_455
Bi0 Mg0 3.311176 1_554
Bi0 Mg3 3.311176 1_545
Bi0 Mg2 3.311176 1_554
Bi0 Mg1 3.311176 1_545
Bi0 Mg5 3.311176 1_455
Bi0 Mg4 3.311176 1_554
Bi1 Mg2 3.311176 1_565
Bi1 Mg3 3.311176 1_556
Bi1 Mg0 3.311176 1_655
Bi1 Mg4 3.311176 1_565
Bi1 Mg1 3.311176 1_655
Bi1 Mg4 3.311176 1_655
Bi1 Mg5 3.311176 1_556
Bi1 Mg1 3.311176 1_556
Bi1 Mg5 3.311176 1_565
Bi1 Mg2 3.311176 1_555
Bi1 Mg0 3.311176 1_555
Bi1 Mg3 3.311176 1_555
