# generated using pymatgen
data_HfCr2
_symmetry_space_group_name_H-M   'P 1'
_cell_length_a   5.00214759
_cell_length_b   5.00215351
_cell_length_c   16.19201122
_cell_angle_alpha   89.99958921
_cell_angle_beta   90.00058947
_cell_angle_gamma   120.00078258
_symmetry_Int_Tables_number   1
_chemical_formula_structural   HfCr2
_chemical_formula_sum   'Hf8 Cr16'
_cell_volume   350.86618958
_cell_formula_units_Z   8
loop_
 _symmetry_equiv_pos_site_id
 _symmetry_equiv_pos_as_xyz
  1  'x, y, z'
loop_
 _atom_site_type_symbol
 _atom_site_label
 _atom_site_symmetry_multiplicity
 _atom_site_fract_x
 _atom_site_fract_y
 _atom_site_fract_z
 _atom_site_occupancy
  Hf  Hf0  1  0.99997990  0.00000151  0.09459119  1
  Hf  Hf1  1  0.00000450  0.99999749  0.59472035  1
  Hf  Hf2  1  0.99998749  0.99999779  0.90527507  1
  Hf  Hf3  1  1.00000034  0.00000110  0.40540820  1
  Hf  Hf4  1  0.33332298  0.66666455  0.84381313  1
  Hf  Hf5  1  0.66666558  0.33333484  0.34391051  1
  Hf  Hf6  1  0.66665018  0.33333499  0.15610344  1
  Hf  Hf7  1  0.33333543  0.66666385  0.65618114  1
  Cr  Cr0  1  0.49998845  0.00001706  0.99990777  1
  Cr  Cr1  1  0.50000202  -0.00000240  0.50006833  1
  Cr  Cr2  1  0.99996840  0.49999689  0.99990768  1
  Cr  Cr3  1  0.49997754  0.49998904  0.99990975  1
  Cr  Cr4  1  0.50000229  0.49999989  0.50006839  1
  Cr  Cr5  1  0.00000494  0.50000024  0.50006820  1
  Cr  Cr6  1  0.33330296  0.66667002  0.12315377  1
  Cr  Cr7  1  0.66667015  0.33333093  0.62331034  1
  Cr  Cr8  1  0.66665745  0.33333147  0.87668819  1
  Cr  Cr9  1  0.33333319  0.66666779  0.37684683  1
  Cr  Cr10  1  0.16498438  0.32998698  0.25001782  1
  Cr  Cr11  1  0.83502857  0.67005694  0.75000542  1
  Cr  Cr12  1  0.67000424  0.83501147  0.25001784  1
  Cr  Cr13  1  0.16497161  0.83501704  0.25001406  1
  Cr  Cr14  1  0.83502884  0.16496456  0.75000396  1
  Cr  Cr15  1  0.32993958  0.16496796  0.75000560  1
loop_
_geom_bond_atom_site_label_1
_geom_bond_atom_site_label_2
_geom_bond_distance
_geom_bond_site_symmetry_2
Hf0 Hf6 3.054897 1_545
Hf0 Hf6 3.054904 1_655
Hf0 Hf6 3.054926 1_555
Hf0 Hf2 3.065409 1_544
Hf1 Hf7 3.054629 1_565
Hf1 Hf7 3.054641 1_555
Hf1 Hf7 3.054642 1_455
Hf1 Hf3 3.065344 1_465
Hf2 Hf4 3.054615 1_555
Hf2 Hf4 3.054632 1_665
Hf2 Hf4 3.054683 1_655
Hf3 Hf5 3.054821 1_655
Hf3 Hf5 3.054823 1_545
Hf3 Hf5 3.054851 1_555
Hf4 Hf7 3.038139 1_555
Hf5 Hf6 3.040974 1_555
Cr0 Cr8 2.462836 1_555
Cr0 Cr6 2.463265 1_546
Cr0 Cr2 2.500945 1_555
Cr0 Cr3 2.500964 1_555
Cr0 Cr2 2.501146 1_445
Cr0 Cr3 2.501190 1_545
Cr0 Hf4 2.910934 1_545
Cr0 Hf6 2.912281 1_556
Cr0 Hf2 2.933087 1_445
Cr0 Hf2 2.933188 1_545
Cr0 Hf0 2.933550 1_556
Cr0 Hf0 2.933583 1_456
Cr1 Cr9 2.462905 1_545
Cr1 Cr7 2.463183 1_555
Cr1 Cr5 2.501032 1_545
Cr1 Cr5 2.501060 1_655
Cr1 Cr4 2.501066 1_545
Cr1 Cr4 2.501088 1_555
Cr1 Hf7 2.911144 1_545
Cr1 Hf5 2.911784 1_555
Cr1 Hf1 2.933298 1_645
Cr1 Hf1 2.933303 1_545
Cr1 Hf3 2.933368 1_555
Cr1 Hf3 2.933371 1_455
Cr2 Cr8 2.462818 1_555
Cr2 Cr6 2.463227 1_656
Cr2 Cr3 2.501008 1_555
Cr2 Cr3 2.501139 1_655
Cr2 Hf4 2.910943 1_655
Cr2 Hf6 2.912288 1_556
Cr2 Hf2 2.933093 1_555
Cr2 Hf2 2.933185 1_545
Cr2 Hf0 2.933565 1_556
Cr2 Hf0 2.933574 1_566
Cr3 Cr8 2.462944 1_555
Cr3 Cr6 2.463285 1_556
Cr3 Hf4 2.910906 1_555
Cr3 Hf6 2.912264 1_556
Cr3 Hf2 2.933086 1_445
Cr3 Hf2 2.933174 1_555
Cr3 Hf0 2.933498 1_456
Cr3 Hf0 2.933553 1_566
Cr4 Cr9 2.462920 1_555
Cr4 Cr7 2.463187 1_555
Cr4 Cr5 2.501061 1_555
Cr4 Cr5 2.501086 1_655
Cr4 Hf7 2.911160 1_555
Cr4 Hf5 2.911789 1_555
Cr4 Hf1 2.933272 1_655
Cr4 Hf1 2.933281 1_545
Cr4 Hf3 2.933343 1_455
Cr4 Hf3 2.933348 1_565
Cr5 Cr9 2.462905 1_555
Cr5 Cr7 2.463194 1_455
Cr5 Hf7 2.911131 1_555
Cr5 Hf5 2.911779 1_455
Cr5 Hf1 2.933303 1_555
Cr5 Hf1 2.933306 1_545
Cr5 Hf3 2.933367 1_455
Cr5 Hf3 2.933375 1_465
Cr6 Hf0 2.924745 1_465
Cr6 Hf0 2.924778 1_455
Cr6 Hf0 2.924813 1_565
Cr6 Hf6 2.936781 1_455
Cr6 Hf6 2.936834 1_565
Cr6 Hf6 2.936933 1_555
Cr7 Hf1 2.924828 1_545
Cr7 Hf1 2.924838 1_655
Cr7 Hf1 2.924881 1_645
Cr7 Hf7 2.936595 1_655
Cr7 Hf7 2.936608 1_545
Cr7 Hf7 2.936649 1_555
Cr8 Hf2 2.924831 1_555
Cr8 Hf2 2.924846 1_445
Cr8 Hf2 2.924846 1_545
Cr8 Hf4 2.936616 1_655
Cr8 Hf4 2.936623 1_545
Cr8 Hf4 2.936651 1_555
Cr9 Hf3 2.924761 1_565
Cr9 Hf3 2.924765 1_455
Cr9 Hf3 2.924801 1_465
Cr9 Hf5 2.936797 1_455
Cr9 Hf5 2.936801 1_565
Cr9 Hf5 2.936832 1_555
Cr10 Cr13 2.475884 1_545
Cr10 Cr12 2.475924 1_445
Cr10 Cr9 2.518837 1_555
Cr10 Cr6 2.519300 1_555
Cr10 Cr12 2.526167 1_555
Cr10 Cr13 2.526270 1_555
Cr10 Hf3 2.893801 1_455
Cr10 Hf0 2.894316 1_455
Cr10 Hf5 2.926914 1_455
Cr10 Hf5 2.926949 1_555
Cr10 Hf6 2.927092 1_555
Cr10 Hf6 2.927136 1_455
Cr11 Cr15 2.475590 1_665
Cr11 Cr14 2.475603 1_565
Cr11 Cr8 2.517013 1_555
Cr11 Cr7 2.517183 1_555
Cr11 Cr15 2.526501 1_555
Cr11 Cr14 2.526550 1_555
Cr11 Hf2 2.892011 1_555
Cr11 Hf1 2.892221 1_655
Cr11 Hf4 2.926165 1_655
Cr11 Hf4 2.926271 1_555
Cr11 Hf7 2.926329 1_555
Cr11 Hf7 2.926385 1_655
Cr12 Cr13 2.475886 1_655
Cr12 Cr9 2.518818 1_555
Cr12 Cr6 2.519338 1_555
Cr12 Cr13 2.526262 1_555
Cr12 Hf3 2.893815 1_565
Cr12 Hf0 2.894301 1_565
Cr12 Hf5 2.926912 1_565
Cr12 Hf5 2.926955 1_555
Cr12 Hf6 2.927110 1_565
Cr12 Hf6 2.927123 1_555
Cr13 Cr9 2.518957 1_555
Cr13 Cr6 2.519263 1_555
Cr13 Hf3 2.893812 1_465
Cr13 Hf0 2.894236 1_465
Cr13 Hf5 2.926918 1_455
Cr13 Hf5 2.926961 1_565
Cr13 Hf6 2.927055 1_565
Cr13 Hf6 2.927062 1_455
Cr14 Cr15 2.475608 1_655
Cr14 Cr8 2.517089 1_555
Cr14 Cr7 2.517156 1_555
Cr14 Cr15 2.526540 1_555
Cr14 Hf2 2.891991 1_545
Cr14 Hf1 2.892229 1_645
Cr14 Hf4 2.926190 1_655
Cr14 Hf4 2.926223 1_545
Cr14 Hf7 2.926304 1_545
Cr14 Hf7 2.926337 1_655
Cr15 Cr8 2.516985 1_555
Cr15 Cr7 2.517202 1_555
Cr15 Hf2 2.892038 1_445
Cr15 Hf1 2.892205 1_545
Cr15 Hf4 2.926189 1_545
Cr15 Hf4 2.926249 1_555
Cr15 Hf7 2.926343 1_555
Cr15 Hf7 2.926380 1_545
