# generated using pymatgen
data_InSnBr3
_symmetry_space_group_name_H-M   'P 1'
_cell_length_a   5.93279800
_cell_length_b   5.95962600
_cell_length_c   5.98572979
_cell_angle_alpha   85.06332740
_cell_angle_beta   87.21602851
_cell_angle_gamma   88.38034629
_symmetry_Int_Tables_number   1
_chemical_formula_structural   InSnBr3
_chemical_formula_sum   'In1 Sn1 Br3'
_cell_volume   210.54334455
_cell_formula_units_Z   1
loop_
 _symmetry_equiv_pos_site_id
 _symmetry_equiv_pos_as_xyz
  1  'x, y, z'
loop_
 _atom_site_type_symbol
 _atom_site_label
 _atom_site_symmetry_multiplicity
 _atom_site_fract_x
 _atom_site_fract_y
 _atom_site_fract_z
 _atom_site_occupancy
  In  In0  1  0.07958700  0.10528400  0.11758900  1
  Sn  Sn0  1  0.48788900  0.49569500  0.48014300  1
  Br  Br0  1  0.99282800  0.47853700  0.44951200  1
  Br  Br1  1  0.46196000  0.45369700  0.95142900  1
  Br  Br2  1  0.47773300  0.97678800  0.44133000  1
loop_
_geom_bond_atom_site_label_1
_geom_bond_atom_site_label_2
_geom_bond_distance
_geom_bond_site_symmetry_2
Br0 Sn0 2.956878 1_655
Br0 Sn0 2.991798 1_555
Br0 In0 3.123631 1_655
Br1 Sn0 2.807632 1_555
Br1 In0 3.184123 1_556
Br1 Sn0 3.207442 1_556
Br2 Sn0 2.855699 1_555
Br2 Sn0 3.123565 1_565
Br2 In0 3.163574 1_565
