# generated using pymatgen
data_CePmZn2
_symmetry_space_group_name_H-M   'P 1'
_cell_length_a   5.14951562
_cell_length_b   5.14951630
_cell_length_c   5.14951969
_cell_angle_alpha   60.00025573
_cell_angle_beta   60.00027726
_cell_angle_gamma   60.00032223
_symmetry_Int_Tables_number   1
_chemical_formula_structural   CePmZn2
_chemical_formula_sum   'Ce1 Pm1 Zn2'
_cell_volume   96.55779720
_cell_formula_units_Z   1
loop_
 _symmetry_equiv_pos_site_id
 _symmetry_equiv_pos_as_xyz
  1  'x, y, z'
loop_
 _atom_site_type_symbol
 _atom_site_label
 _atom_site_symmetry_multiplicity
 _atom_site_fract_x
 _atom_site_fract_y
 _atom_site_fract_z
 _atom_site_occupancy
  Ce  Ce0  1  0.24999927  0.24999927  0.24999927  1
  Pm  Pm0  1  0.74999993  0.74999992  0.74999992  1
  Zn  Zn0  1  -0.00000011  -0.00000010  -0.00000009  1
  Zn  Zn1  1  0.50000091  0.50000091  0.50000090  1
loop_
_geom_bond_atom_site_label_1
_geom_bond_atom_site_label_2
_geom_bond_distance
_geom_bond_site_symmetry_2
Ce0 Zn0 3.153408 1_555
Ce0 Zn1 3.153427 1_545
Ce0 Zn1 3.153427 1_455
Ce0 Zn1 3.153427 1_554
Ce0 Zn0 3.153436 1_565
Ce0 Zn1 3.153436 1_555
Ce0 Zn0 3.153436 1_655
Ce0 Zn0 3.153437 1_556
Pm0 Zn1 3.153403 1_555
Pm0 Zn0 3.153415 1_666
Pm0 Zn0 3.153433 1_656
Pm0 Zn0 3.153434 1_566
Pm0 Zn0 3.153434 1_665
Pm0 Zn1 3.153438 1_565
Pm0 Zn1 3.153438 1_655
Pm0 Zn1 3.153438 1_556
