# generated using pymatgen
data_Sm5Sb3
_symmetry_space_group_name_H-M   'P 1'
_cell_length_a   9.20091517
_cell_length_b   9.20241287
_cell_length_c   6.43611086
_cell_angle_alpha   89.99998890
_cell_angle_beta   90.00001580
_cell_angle_gamma   120.00401047
_symmetry_Int_Tables_number   1
_chemical_formula_structural   Sm5Sb3
_chemical_formula_sum   'Sm10 Sb6'
_cell_volume   471.92103576
_cell_formula_units_Z   2
loop_
 _symmetry_equiv_pos_site_id
 _symmetry_equiv_pos_as_xyz
  1  'x, y, z'
loop_
 _atom_site_type_symbol
 _atom_site_label
 _atom_site_symmetry_multiplicity
 _atom_site_fract_x
 _atom_site_fract_y
 _atom_site_fract_z
 _atom_site_occupancy
  Sm  Sm0  1  0.25009765  0.00013662  0.25000000  1
  Sm  Sm1  1  0.74999613  0.00006028  0.75000000  1
  Sm  Sm2  1  0.99991840  0.25009991  0.25000000  1
  Sm  Sm3  1  0.74996720  0.74990550  0.25000000  1
  Sm  Sm4  1  0.25010427  0.25000290  0.75000000  1
  Sm  Sm5  1  -0.00005890  0.74983059  0.75000000  1
  Sm  Sm6  1  0.33332298  0.66667286  -0.00001411  1
  Sm  Sm7  1  0.66667641  0.33332011  0.49999472  1
  Sm  Sm8  1  0.66667641  0.33332011  0.00000528  1
  Sm  Sm9  1  0.33332298  0.66667286  0.50001411  1
  Sb  Sb0  1  0.61430405  -0.00019868  0.25000000  1
  Sb  Sb1  1  0.38571771  0.00007999  0.75000000  1
  Sb  Sb2  1  0.00003919  0.61464114  0.25000000  1
  Sb  Sb3  1  0.38562053  0.38559677  0.25000000  1
  Sb  Sb4  1  0.61427368  0.61441629  0.75000000  1
  Sb  Sb5  1  0.00001729  0.38544675  0.75000000  1
loop_
_geom_bond_atom_site_label_1
_geom_bond_atom_site_label_2
_geom_bond_distance
_geom_bond_site_symmetry_2
Sb0 Sm3 3.117251 1_545
Sb0 Sm2 3.117767 1_555
Sb0 Sm6 3.277865 1_545
Sb0 Sm9 3.277865 1_545
Sb0 Sm8 3.280515 1_555
Sb0 Sm7 3.280515 1_555
Sb0 Sm0 3.352576 1_555
Sb0 Sm1 3.451324 1_555
Sb0 Sm1 3.451325 1_554
Sb1 Sm4 3.117133 1_555
Sb1 Sm5 3.118838 1_545
Sb1 Sm8 3.278327 1_556
Sb1 Sm7 3.278327 1_555
Sb1 Sm6 3.279535 1_546
Sb1 Sm9 3.279536 1_545
Sb1 Sm1 3.351786 1_555
Sb1 Sm0 3.451609 1_555
Sb1 Sm0 3.451610 1_556
Sb2 Sm3 3.115754 1_455
Sb2 Sm0 3.116933 1_565
Sb2 Sm9 3.279263 1_555
Sb2 Sm6 3.279264 1_555
Sb2 Sm8 3.279840 1_455
Sb2 Sm7 3.279840 1_455
Sb2 Sm2 3.354103 1_455
Sb2 Sm5 3.450320 1_554
Sb2 Sm5 3.450321 1_555
Sb3 Sm0 3.116664 1_555
Sb3 Sm2 3.118218 1_455
Sb3 Sm7 3.278982 1_555
Sb3 Sm8 3.278983 1_555
Sb3 Sm6 3.279628 1_555
Sb3 Sm9 3.279629 1_555
Sb3 Sm3 3.352218 1_555
Sb3 Sm4 3.451308 1_554
Sb3 Sm4 3.451309 1_555
Sb4 Sm1 3.117941 1_565
Sb4 Sm5 3.118047 1_655
Sb4 Sm9 3.278020 1_555
Sb4 Sm6 3.278021 1_556
Sb4 Sm8 3.280283 1_556
Sb4 Sm7 3.280284 1_555
Sb4 Sm4 3.351885 1_555
Sb4 Sm3 3.451429 1_556
Sb4 Sm3 3.451429 1_555
Sb5 Sm1 3.116103 1_455
Sb5 Sm4 3.117154 1_555
Sb5 Sm6 3.279247 1_556
Sb5 Sm9 3.279248 1_555
Sb5 Sm7 3.279407 1_455
Sb5 Sm8 3.279408 1_456
Sb5 Sm5 3.353561 1_555
Sb5 Sm2 3.450516 1_456
Sb5 Sm2 3.450516 1_455
