# generated using pymatgen
data_Rb2Sn2Se5
_symmetry_space_group_name_H-M   'P 1'
_cell_length_a   7.23255022
_cell_length_b   7.23255082
_cell_length_c   12.24945758
_cell_angle_alpha   75.22378080
_cell_angle_beta   75.22378585
_cell_angle_gamma   72.84407354
_symmetry_Int_Tables_number   1
_chemical_formula_structural   Rb2Sn2Se5
_chemical_formula_sum   'Rb4 Sn4 Se10'
_cell_volume   580.68797624
_cell_formula_units_Z   2
loop_
 _symmetry_equiv_pos_site_id
 _symmetry_equiv_pos_as_xyz
  1  'x, y, z'
loop_
 _atom_site_type_symbol
 _atom_site_label
 _atom_site_symmetry_multiplicity
 _atom_site_fract_x
 _atom_site_fract_y
 _atom_site_fract_z
 _atom_site_occupancy
  Rb  Rb0  1  0.93927670  0.59439380  0.82132092  1
  Rb  Rb1  1  0.40560620  0.06072330  0.67867908  1
  Rb  Rb2  1  0.06072330  0.40560620  0.17867908  1
  Rb  Rb3  1  0.59439380  0.93927670  0.32132092  1
  Sn  Sn0  1  0.44614310  0.74633785  0.05665716  1
  Sn  Sn1  1  0.25366215  0.55385690  0.44334284  1
  Sn  Sn2  1  0.55385690  0.25366215  0.94334284  1
  Sn  Sn3  1  0.74633785  0.44614310  0.55665716  1
  Se  Se0  1  0.19460606  0.80539394  0.25000000  1
  Se  Se1  1  0.80539394  0.19460606  0.75000000  1
  Se  Se2  1  0.37815612  0.64528139  0.88518063  1
  Se  Se3  1  0.35471761  0.62184388  0.61481937  1
  Se  Se4  1  0.62184388  0.35471761  0.11481937  1
  Se  Se5  1  0.64528139  0.37815612  0.38518063  1
  Se  Se6  1  0.75270922  0.86881679  0.03335907  1
  Se  Se7  1  0.13118321  0.24729078  0.46664093  1
  Se  Se8  1  0.86881679  0.75270922  0.53335907  1
  Se  Se9  1  0.24729078  0.13118321  0.96664093  1
loop_
_geom_bond_atom_site_label_1
_geom_bond_atom_site_label_2
_geom_bond_distance
_geom_bond_site_symmetry_2
Rb0 Se3 3.418332 1_655
Rb0 Se6 3.430485 1_556
Rb0 Se8 3.539156 1_555
Rb0 Se2 3.595227 1_655
Rb0 Se1 3.665161 1_555
Rb0 Se9 3.732711 1_655
Rb0 Se2 3.855357 1_555
Rb0 Se4 4.019937 1_556
Rb0 Se1 4.069751 1_565
Rb1 Se2 3.418337 1_545
Rb1 Se7 3.430485 1_555
Rb1 Se9 3.539157 1_555
Rb1 Se3 3.595230 1_545
Rb1 Se1 3.665160 1_555
Rb1 Se8 3.732711 1_545
Rb1 Se3 3.855356 1_555
Rb1 Se5 4.019934 1_555
Rb1 Se1 4.069750 1_455
Rb2 Se5 3.418337 1_455
Rb2 Se9 3.430485 1_554
Rb2 Se7 3.539156 1_555
Rb2 Se4 3.595230 1_455
Rb2 Se0 3.665161 1_555
Rb2 Se6 3.732711 1_455
Rb2 Se4 3.855356 1_555
Rb2 Se2 4.019934 1_554
Rb2 Se0 4.069751 1_545
Rb3 Se4 3.418332 1_565
Rb3 Se8 3.430485 1_555
Rb3 Se6 3.539157 1_555
Rb3 Se5 3.595227 1_565
Rb3 Se0 3.665160 1_555
Rb3 Se7 3.732711 1_565
Rb3 Se5 3.855357 1_555
Rb3 Se3 4.019937 1_555
Rb3 Se0 4.069750 1_655
Se0 Sn1 2.638367 1_555
Se0 Sn0 2.638367 1_555
Se1 Sn3 2.638367 1_555
Se1 Sn2 2.638367 1_555
Se2 Sn0 2.590377 1_556
Se2 Sn2 2.730207 1_555
Se3 Sn1 2.590373 1_555
Se3 Sn3 2.730213 1_555
Se4 Sn2 2.590374 1_554
Se4 Sn0 2.730213 1_555
Se5 Sn3 2.590377 1_555
Se5 Sn1 2.730207 1_555
Se6 Sn0 2.547424 1_555
Se6 Sn2 2.813082 1_564
Se7 Sn1 2.547424 1_555
Se7 Sn3 2.813082 1_455
Se8 Sn3 2.547424 1_555
Se8 Sn1 2.813082 1_655
Se9 Sn2 2.547424 1_555
Se9 Sn0 2.813082 1_546
