# generated using pymatgen
data_YbMg3
_symmetry_space_group_name_H-M   'P 1'
_cell_length_a   6.83173023
_cell_length_b   6.83173023
_cell_length_c   5.34469600
_cell_angle_alpha   90.00000000
_cell_angle_beta   90.00000000
_cell_angle_gamma   120.00000225
_symmetry_Int_Tables_number   1
_chemical_formula_structural   YbMg3
_chemical_formula_sum   'Yb2 Mg6'
_cell_volume   216.03048846
_cell_formula_units_Z   2
loop_
 _symmetry_equiv_pos_site_id
 _symmetry_equiv_pos_as_xyz
  1  'x, y, z'
loop_
 _atom_site_type_symbol
 _atom_site_label
 _atom_site_symmetry_multiplicity
 _atom_site_fract_x
 _atom_site_fract_y
 _atom_site_fract_z
 _atom_site_occupancy
  Yb  Yb0  1  0.66666700  0.33333300  0.25000000  1
  Yb  Yb1  1  0.33333300  0.66666700  0.75000000  1
  Mg  Mg0  1  0.15925500  0.31850900  0.25000000  1
  Mg  Mg1  1  0.15925500  0.84074500  0.25000000  1
  Mg  Mg2  1  0.68149100  0.84074500  0.25000000  1
  Mg  Mg3  1  0.31850900  0.15925500  0.75000000  1
  Mg  Mg4  1  0.84074500  0.15925500  0.75000000  1
  Mg  Mg5  1  0.84074500  0.68149100  0.75000000  1
loop_
_geom_bond_atom_site_label_1
_geom_bond_atom_site_label_2
_geom_bond_distance
_geom_bond_site_symmetry_2
Mg0 Mg2 3.263955 1_445
Mg0 Mg1 3.263955 1_545
Mg0 Mg3 3.269946 1_555
Mg0 Mg3 3.269946 1_554
Mg0 Mg4 3.269953 1_455
Mg0 Mg4 3.269953 1_454
Mg0 Yb1 3.374088 1_554
Mg0 Yb1 3.374088 1_555
Mg0 Yb0 3.416991 1_555
Mg0 Yb0 3.416991 1_455
Mg1 Mg2 3.263955 1_455
Mg1 Mg3 3.269953 1_564
Mg1 Mg5 3.269953 1_455
Mg1 Mg5 3.269953 1_454
Mg1 Mg3 3.269953 1_565
Mg1 Yb1 3.374080 1_554
Mg1 Yb1 3.374080 1_555
Mg1 Yb0 3.416991 1_455
Mg1 Yb0 3.416991 1_565
Mg2 Mg5 3.269946 1_555
Mg2 Mg5 3.269946 1_554
Mg2 Mg4 3.269953 1_565
Mg2 Mg4 3.269953 1_564
Mg2 Yb1 3.374088 1_554
Mg2 Yb1 3.374088 1_555
Mg2 Yb0 3.416991 1_555
Mg2 Yb0 3.416991 1_565
Mg3 Mg5 3.263955 1_445
Mg3 Mg4 3.263955 1_455
Mg3 Yb0 3.374088 1_555
Mg3 Yb0 3.374088 1_556
Mg3 Yb1 3.416991 1_555
Mg3 Yb1 3.416991 1_545
Mg4 Mg5 3.263955 1_545
Mg4 Yb0 3.374080 1_555
Mg4 Yb0 3.374080 1_556
Mg4 Yb1 3.416991 1_545
Mg4 Yb1 3.416991 1_655
Mg5 Yb0 3.374088 1_555
Mg5 Yb0 3.374088 1_556
Mg5 Yb1 3.416991 1_555
Mg5 Yb1 3.416991 1_655
