# generated using pymatgen
data_CaWN3
_symmetry_space_group_name_H-M   'P 1'
_cell_length_a   3.62999114
_cell_length_b   5.79694625
_cell_length_c   7.44986265
_cell_angle_alpha   105.76503973
_cell_angle_beta   104.10076840
_cell_angle_gamma   90.00000299
_symmetry_Int_Tables_number   1
_chemical_formula_structural   CaWN3
_chemical_formula_sum   'Ca2 W2 N6'
_cell_volume   145.95522033
_cell_formula_units_Z   2
loop_
 _symmetry_equiv_pos_site_id
 _symmetry_equiv_pos_as_xyz
  1  'x, y, z'
loop_
 _atom_site_type_symbol
 _atom_site_label
 _atom_site_symmetry_multiplicity
 _atom_site_fract_x
 _atom_site_fract_y
 _atom_site_fract_z
 _atom_site_occupancy
  Ca  Ca0  1  0.58976187  0.29086894  0.17952473  1
  Ca  Ca1  1  0.41023813  0.70913106  0.82047527  1
  W  W0  1  0.15691627  0.87458843  0.31383254  1
  W  W1  1  0.84308373  0.12541157  0.68616746  1
  N  N0  1  0.12984482  0.55555767  0.25968964  1
  N  N1  1  0.87015518  0.44444233  0.74031036  1
  N  N2  1  0.96551638  0.05603333  0.93103376  1
  N  N3  1  0.30819026  0.97917216  0.61637951  1
  N  N4  1  0.03448362  0.94396667  0.06896624  1
  N  N5  1  0.69180974  0.02082784  0.38362049  1
loop_
_geom_bond_atom_site_label_1
_geom_bond_atom_site_label_2
_geom_bond_distance
_geom_bond_site_symmetry_2
Ca0 N0 2.342243 1_555
Ca0 N0 2.342246 1_655
Ca0 N5 2.432804 1_555
Ca0 N2 2.646062 1_554
Ca0 N2 2.646062 1_454
Ca0 N4 2.660134 1_545
Ca0 N4 2.660139 1_645
Ca1 N1 2.342243 1_555
Ca1 N1 2.342246 1_455
Ca1 N3 2.432804 1_555
Ca1 N4 2.646062 1_556
Ca1 N4 2.646062 1_656
Ca1 N2 2.660134 1_565
Ca1 N2 2.660139 1_465
N0 W0 1.779884 1_555
N1 W1 1.779884 1_555
N2 N4 1.333426 1_646
N2 W1 1.921113 1_555
N3 W1 2.006897 1_565
N3 W1 2.006900 1_465
N3 W0 2.098502 1_555
N4 W0 1.921113 1_555
N5 W0 2.006897 1_545
N5 W0 2.006900 1_645
N5 W1 2.098502 1_555
