# generated using pymatgen
data_Hf3Pt
_symmetry_space_group_name_H-M   'P 1'
_cell_length_a   5.98855409
_cell_length_b   5.98855409
_cell_length_c   5.13953000
_cell_angle_alpha   90.00000000
_cell_angle_beta   90.00000000
_cell_angle_gamma   120.00000100
_symmetry_Int_Tables_number   1
_chemical_formula_structural   Hf3Pt
_chemical_formula_sum   'Hf6 Pt2'
_cell_volume   159.62392515
_cell_formula_units_Z   2
loop_
 _symmetry_equiv_pos_site_id
 _symmetry_equiv_pos_as_xyz
  1  'x, y, z'
loop_
 _atom_site_type_symbol
 _atom_site_label
 _atom_site_symmetry_multiplicity
 _atom_site_fract_x
 _atom_site_fract_y
 _atom_site_fract_z
 _atom_site_occupancy
  Hf  Hf0  1  0.17172300  0.34344500  0.25000000  1
  Hf  Hf1  1  0.65655500  0.82827700  0.25000000  1
  Hf  Hf2  1  0.17172300  0.82827700  0.25000000  1
  Hf  Hf3  1  0.82827700  0.65655500  0.75000000  1
  Hf  Hf4  1  0.34344500  0.17172300  0.75000000  1
  Hf  Hf5  1  0.82827700  0.17172300  0.75000000  1
  Pt  Pt0  1  0.33333300  0.66666700  0.75000000  1
  Pt  Pt1  1  0.66666700  0.33333300  0.25000000  1
loop_
_geom_bond_atom_site_label_1
_geom_bond_atom_site_label_2
_geom_bond_distance
_geom_bond_site_symmetry_2
Hf0 Pt1 2.994736 1_455
Hf0 Pt1 2.994736 1_555
Hf0 Pt0 3.068175 1_555
Hf0 Pt0 3.068175 1_554
Hf1 Pt1 2.994736 1_565
Hf1 Pt1 2.994736 1_555
Hf1 Pt0 3.068175 1_555
Hf1 Pt0 3.068175 1_554
Hf2 Pt1 2.994736 1_455
Hf2 Pt1 2.994736 1_565
Hf2 Pt0 3.068169 1_555
Hf2 Pt0 3.068169 1_554
Hf3 Pt0 2.994736 1_655
Hf3 Pt0 2.994736 1_555
Hf3 Pt1 3.068175 1_556
Hf3 Pt1 3.068175 1_555
Hf4 Pt0 2.994736 1_545
Hf4 Pt0 2.994736 1_555
Hf4 Pt1 3.068175 1_556
Hf4 Pt1 3.068175 1_555
Hf5 Pt0 2.994736 1_545
Hf5 Pt0 2.994736 1_655
Hf5 Pt1 3.068169 1_555
Hf5 Pt1 3.068169 1_556
