# generated using pymatgen
data_SrZnSi
_symmetry_space_group_name_H-M   'P 1'
_cell_length_a   4.28005382
_cell_length_b   4.28005442
_cell_length_c   9.01205716
_cell_angle_alpha   90.00000000
_cell_angle_beta   90.00000000
_cell_angle_gamma   119.99998731
_symmetry_Int_Tables_number   1
_chemical_formula_structural   SrZnSi
_chemical_formula_sum   'Sr2 Zn2 Si2'
_cell_volume   142.97270910
_cell_formula_units_Z   2
loop_
 _symmetry_equiv_pos_site_id
 _symmetry_equiv_pos_as_xyz
  1  'x, y, z'
loop_
 _atom_site_type_symbol
 _atom_site_label
 _atom_site_symmetry_multiplicity
 _atom_site_fract_x
 _atom_site_fract_y
 _atom_site_fract_z
 _atom_site_occupancy
  Sr  Sr0  1  -0.00000000  0.00000000  0.50000000  1
  Sr  Sr1  1  -0.00000000  0.00000000  0.00000000  1
  Zn  Zn0  1  0.33333300  0.66666700  0.25000000  1
  Zn  Zn1  1  0.66666700  0.33333300  0.75000000  1
  Si  Si0  1  0.66666700  0.33333300  0.25000000  1
  Si  Si1  1  0.33333300  0.66666700  0.75000000  1
loop_
_geom_bond_atom_site_label_1
_geom_bond_atom_site_label_2
_geom_bond_distance
_geom_bond_site_symmetry_2
Sr0 Zn0 3.344002 1_545
Sr0 Zn1 3.344002 1_455
Sr0 Zn1 3.344005 1_555
Sr0 Zn0 3.344005 1_445
Sr0 Zn0 3.344005 1_555
Sr0 Zn1 3.344005 1_445
Sr1 Zn0 3.344002 1_545
Sr1 Zn1 3.344002 1_454
Sr1 Zn0 3.344005 1_445
Sr1 Zn1 3.344005 1_554
Sr1 Zn1 3.344005 1_444
Sr1 Zn0 3.344005 1_555
Si0 Zn0 2.471088 1_655
Si0 Zn0 2.471088 1_545
Si0 Zn0 2.471095 1_555
Si0 Sr1 3.344002 1_655
Si0 Sr0 3.344002 1_655
Si0 Sr1 3.344005 1_555
Si0 Sr0 3.344005 1_555
Si0 Sr0 3.344005 1_665
Si0 Sr1 3.344005 1_665
Si1 Zn1 2.471088 1_455
Si1 Zn1 2.471088 1_565
Si1 Zn1 2.471095 1_555
Si1 Sr0 3.344002 1_565
Si1 Sr1 3.344002 1_566
Si1 Sr0 3.344005 1_665
Si1 Sr1 3.344005 1_666
Si1 Sr0 3.344005 1_555
Si1 Sr1 3.344005 1_556
