# generated using pymatgen
data_LiMg2
_symmetry_space_group_name_H-M   'P 1'
_cell_length_a   16.52495451
_cell_length_b   16.52495451
_cell_length_c   10.05524394
_cell_angle_alpha   90.00000000
_cell_angle_beta   90.00000000
_cell_angle_gamma   158.12279312
_symmetry_Int_Tables_number   1
_chemical_formula_structural   LiMg2
_chemical_formula_sum   'Li16 Mg32'
_cell_volume   1023.14630301
_cell_formula_units_Z   16
loop_
 _symmetry_equiv_pos_site_id
 _symmetry_equiv_pos_as_xyz
  1  'x, y, z'
loop_
 _atom_site_type_symbol
 _atom_site_label
 _atom_site_symmetry_multiplicity
 _atom_site_fract_x
 _atom_site_fract_y
 _atom_site_fract_z
 _atom_site_occupancy
  Li  Li0_0  1  0.30541785  0.19458216  0.12500000  1
  Li  Li0_1  1  0.30541785  0.19458216  0.62500000  1
  Li  Li0_2  1  0.30541785  0.69458215  0.12500000  1
  Li  Li0_3  1  0.30541785  0.69458215  0.62500000  1
  Li  Li0_4  1  0.80541785  0.19458215  0.12500000  1
  Li  Li0_5  1  0.80541785  0.19458215  0.62500000  1
  Li  Li0_6  1  0.80541785  0.69458216  0.12500000  1
  Li  Li0_7  1  0.80541785  0.69458216  0.62500000  1
  Li  Li1_0  1  0.19458216  0.30541785  0.37500000  1
  Li  Li1_1  1  0.19458216  0.30541785  0.87500000  1
  Li  Li1_2  1  0.19458215  0.80541785  0.37500000  1
  Li  Li1_3  1  0.19458215  0.80541785  0.87500000  1
  Li  Li1_4  1  0.69458215  0.30541785  0.37500000  1
  Li  Li1_5  1  0.69458215  0.30541785  0.87500000  1
  Li  Li1_6  1  0.69458215  0.80541785  0.37500000  1
  Li  Li1_7  1  0.69458215  0.80541785  0.87500000  1
  Mg  Mg0_0  1  0.13891845  0.36108155  0.12500000  1
  Mg  Mg0_1  1  0.13891845  0.36108155  0.62500000  1
  Mg  Mg0_2  1  0.13891845  0.86108155  0.12500000  1
  Mg  Mg0_3  1  0.13891845  0.86108155  0.62500000  1
  Mg  Mg0_4  1  0.63891845  0.36108155  0.12500000  1
  Mg  Mg0_5  1  0.63891845  0.36108155  0.62500000  1
  Mg  Mg0_6  1  0.63891845  0.86108155  0.12500000  1
  Mg  Mg0_7  1  0.63891845  0.86108155  0.62500000  1
  Mg  Mg1_0  1  0.47234994  0.02765006  0.12500000  1
  Mg  Mg1_1  1  0.47234994  0.02765006  0.62500000  1
  Mg  Mg1_2  1  0.47234994  0.52765006  0.12500000  1
  Mg  Mg1_3  1  0.47234994  0.52765006  0.62500000  1
  Mg  Mg1_4  1  0.97234994  0.02765006  0.12500000  1
  Mg  Mg1_5  1  0.97234994  0.02765006  0.62500000  1
  Mg  Mg1_6  1  0.97234994  0.52765006  0.12500000  1
  Mg  Mg1_7  1  0.97234994  0.52765006  0.62500000  1
  Mg  Mg2_0  1  0.36108155  0.13891845  0.37500000  1
  Mg  Mg2_1  1  0.36108155  0.13891845  0.87500000  1
  Mg  Mg2_2  1  0.36108155  0.63891845  0.37500000  1
  Mg  Mg2_3  1  0.36108155  0.63891845  0.87500000  1
  Mg  Mg2_4  1  0.86108155  0.13891845  0.37500000  1
  Mg  Mg2_5  1  0.86108155  0.13891845  0.87500000  1
  Mg  Mg2_6  1  0.86108155  0.63891845  0.37500000  1
  Mg  Mg2_7  1  0.86108155  0.63891845  0.87500000  1
  Mg  Mg3_0  1  0.02765006  0.47234994  0.37500000  1
  Mg  Mg3_1  1  0.02765006  0.47234994  0.87500000  1
  Mg  Mg3_2  1  0.02765006  0.97234994  0.37500000  1
  Mg  Mg3_3  1  0.02765006  0.97234994  0.87500000  1
  Mg  Mg3_4  1  0.52765006  0.47234994  0.37500000  1
  Mg  Mg3_5  1  0.52765006  0.47234994  0.87500000  1
  Mg  Mg3_6  1  0.52765006  0.97234994  0.37500000  1
  Mg  Mg3_7  1  0.52765006  0.97234994  0.87500000  1
loop_
_geom_bond_atom_site_label_1
_geom_bond_atom_site_label_2
_geom_bond_distance
_geom_bond_site_symmetry_2
Li0_0 Mg2_1 3.095449 1_554
Li0_0 Mg2_0 3.095449 1_555
Li0_0 Mg3_5 3.096664 1_554
Li0_0 Mg3_3 3.096664 1_544
Li0_0 Mg3_4 3.096664 1_555
Li0_0 Mg3_2 3.096664 1_545
Li0_0 Mg1_2 3.118324 1_555
Li0_0 Mg1_4 3.118324 1_455
Li0_0 Mg0_4 3.130469 1_555
Li0_0 Mg0_2 3.130469 1_545
Li0_0 Li0_6 3.135726 1_445
Li0_0 Li0_6 3.135726 1_555
Li0_1 Mg2_0 3.095449 1_555
Li0_1 Mg2_1 3.095449 1_555
Li0_1 Mg3_4 3.096664 1_555
Li0_1 Mg3_2 3.096664 1_545
Li0_1 Mg3_5 3.096664 1_555
Li0_1 Mg3_3 3.096664 1_545
Li0_1 Mg1_3 3.118324 1_555
Li0_1 Mg1_5 3.118324 1_455
Li0_1 Mg0_5 3.130469 1_555
Li0_1 Mg0_3 3.130469 1_545
Li0_1 Li0_7 3.135726 1_555
Li0_1 Li0_7 3.135726 1_445
Li0_2 Mg2_3 3.095449 1_554
Li0_2 Mg2_2 3.095449 1_555
Li0_2 Mg3_7 3.096664 1_554
Li0_2 Mg3_1 3.096664 1_554
Li0_2 Mg3_6 3.096664 1_555
Li0_2 Mg3_0 3.096664 1_555
Li0_2 Mg1_0 3.118324 1_565
Li0_2 Mg1_6 3.118324 1_455
Li0_2 Mg0_0 3.130469 1_555
Li0_2 Mg0_6 3.130469 1_555
Li0_2 Li0_4 3.135726 1_565
Li0_2 Li0_4 3.135726 1_455
Li0_3 Mg2_2 3.095449 1_555
Li0_3 Mg2_3 3.095449 1_555
Li0_3 Mg3_6 3.096664 1_555
Li0_3 Mg3_0 3.096664 1_555
Li0_3 Mg3_7 3.096664 1_555
Li0_3 Mg3_1 3.096664 1_555
Li0_3 Mg1_1 3.118324 1_565
Li0_3 Mg1_7 3.118324 1_455
Li0_3 Mg0_1 3.130469 1_555
Li0_3 Mg0_7 3.130469 1_555
Li0_3 Li0_5 3.135726 1_455
Li0_3 Li0_5 3.135726 1_565
Li0_4 Mg2_5 3.095449 1_554
Li0_4 Mg2_4 3.095449 1_555
Li0_4 Mg3_1 3.096664 1_654
Li0_4 Mg3_7 3.096664 1_544
Li0_4 Mg3_6 3.096664 1_545
Li0_4 Mg3_0 3.096664 1_655
Li0_4 Mg1_0 3.118324 1_555
Li0_4 Mg1_6 3.118324 1_555
Li0_4 Mg0_6 3.130469 1_545
Li0_4 Mg0_0 3.130469 1_655
Li0_5 Mg2_4 3.095449 1_555
Li0_5 Mg2_5 3.095449 1_555
Li0_5 Mg3_6 3.096664 1_545
Li0_5 Mg3_0 3.096664 1_655
Li0_5 Mg3_7 3.096664 1_545
Li0_5 Mg3_1 3.096664 1_655
Li0_5 Mg1_1 3.118324 1_555
Li0_5 Mg1_7 3.118324 1_555
Li0_5 Mg0_1 3.130469 1_655
Li0_5 Mg0_7 3.130469 1_545
Li0_6 Mg2_7 3.095449 1_554
Li0_6 Mg2_6 3.095449 1_555
Li0_6 Mg3_3 3.096664 1_654
Li0_6 Mg3_5 3.096664 1_554
Li0_6 Mg3_2 3.096664 1_655
Li0_6 Mg3_4 3.096664 1_555
Li0_6 Mg1_4 3.118324 1_565
Li0_6 Mg1_2 3.118324 1_555
Li0_6 Mg0_2 3.130469 1_655
Li0_6 Mg0_4 3.130469 1_555
Li0_7 Mg2_6 3.095449 1_555
Li0_7 Mg2_7 3.095449 1_555
Li0_7 Mg3_2 3.096664 1_655
Li0_7 Mg3_4 3.096664 1_555
Li0_7 Mg3_3 3.096664 1_655
Li0_7 Mg3_5 3.096664 1_555
Li0_7 Mg1_3 3.118324 1_555
Li0_7 Mg1_5 3.118324 1_565
Li0_7 Mg0_3 3.130469 1_655
Li0_7 Mg0_5 3.130469 1_555
Li1_0 Mg0_0 3.095449 1_555
Li1_0 Mg0_1 3.095449 1_555
Li1_0 Mg1_5 3.096664 1_455
Li1_0 Mg1_3 3.096664 1_555
Li1_0 Mg1_4 3.096664 1_455
Li1_0 Mg1_2 3.096664 1_555
Li1_0 Mg3_4 3.118324 1_555
Li1_0 Mg3_2 3.118324 1_545
Li1_0 Mg2_4 3.130469 1_455
Li1_0 Mg2_2 3.130469 1_555
Li1_0 Li1_6 3.135726 1_445
Li1_0 Li1_6 3.135726 1_555
Li1_1 Mg0_0 3.095449 1_556
Li1_1 Mg0_1 3.095449 1_555
Li1_1 Mg1_4 3.096664 1_456
Li1_1 Mg1_2 3.096664 1_556
Li1_1 Mg1_5 3.096664 1_455
Li1_1 Mg1_3 3.096664 1_555
Li1_1 Mg3_5 3.118324 1_555
Li1_1 Mg3_3 3.118324 1_545
Li1_1 Mg2_5 3.130469 1_455
Li1_1 Mg2_3 3.130469 1_555
Li1_1 Li1_7 3.135726 1_555
Li1_1 Li1_7 3.135726 1_445
Li1_2 Mg0_3 3.095449 1_555
Li1_2 Mg0_2 3.095449 1_555
Li1_2 Mg1_6 3.096664 1_455
Li1_2 Mg1_7 3.096664 1_455
Li1_2 Mg1_1 3.096664 1_565
Li1_2 Mg1_0 3.096664 1_565
Li1_2 Mg3_0 3.118324 1_555
Li1_2 Mg3_6 3.118324 1_555
Li1_2 Mg2_6 3.130469 1_455
Li1_2 Mg2_0 3.130469 1_565
Li1_2 Li1_4 3.135726 1_565
Li1_2 Li1_4 3.135726 1_455
Li1_3 Mg0_2 3.095449 1_556
Li1_3 Mg0_3 3.095449 1_555
Li1_3 Mg1_0 3.096664 1_566
Li1_3 Mg1_6 3.096664 1_456
Li1_3 Mg1_7 3.096664 1_455
Li1_3 Mg1_1 3.096664 1_565
Li1_3 Mg3_1 3.118324 1_555
Li1_3 Mg3_7 3.118324 1_555
Li1_3 Mg2_1 3.130469 1_565
Li1_3 Mg2_7 3.130469 1_455
Li1_3 Li1_5 3.135726 1_455
Li1_3 Li1_5 3.135726 1_565
Li1_4 Mg0_4 3.095449 1_555
Li1_4 Mg0_5 3.095449 1_555
Li1_4 Mg1_6 3.096664 1_555
Li1_4 Mg1_7 3.096664 1_555
Li1_4 Mg1_1 3.096664 1_555
Li1_4 Mg1_0 3.096664 1_555
Li1_4 Mg3_0 3.118324 1_655
Li1_4 Mg3_6 3.118324 1_545
Li1_4 Mg2_6 3.130469 1_555
Li1_4 Mg2_0 3.130469 1_555
Li1_5 Mg0_4 3.095449 1_556
Li1_5 Mg0_5 3.095449 1_555
Li1_5 Mg1_0 3.096664 1_556
Li1_5 Mg1_6 3.096664 1_556
Li1_5 Mg1_7 3.096664 1_555
Li1_5 Mg1_1 3.096664 1_555
Li1_5 Mg3_1 3.118324 1_655
Li1_5 Mg3_7 3.118324 1_545
Li1_5 Mg2_7 3.130469 1_555
Li1_5 Mg2_1 3.130469 1_555
Li1_6 Mg0_7 3.095449 1_555
Li1_6 Mg0_6 3.095449 1_555
Li1_6 Mg1_5 3.096664 1_565
Li1_6 Mg1_4 3.096664 1_565
Li1_6 Mg1_3 3.096664 1_555
Li1_6 Mg1_2 3.096664 1_555
Li1_6 Mg3_4 3.118324 1_555
Li1_6 Mg3_2 3.118324 1_655
Li1_6 Mg2_2 3.130469 1_555
Li1_6 Mg2_4 3.130469 1_565
Li1_7 Mg0_6 3.095449 1_556
Li1_7 Mg0_7 3.095449 1_555
Li1_7 Mg1_4 3.096664 1_566
Li1_7 Mg1_2 3.096664 1_556
Li1_7 Mg1_5 3.096664 1_565
Li1_7 Mg1_3 3.096664 1_555
Li1_7 Mg3_5 3.118324 1_555
Li1_7 Mg3_3 3.118324 1_655
Li1_7 Mg2_5 3.130469 1_565
Li1_7 Mg2_3 3.130469 1_555
Mg0_0 Mg2_3 3.097317 1_554
Mg0_0 Mg2_5 3.097317 1_454
Mg0_0 Mg2_2 3.097317 1_555
Mg0_0 Mg2_4 3.097317 1_455
Mg0_0 Mg1_4 3.128528 1_455
Mg0_0 Mg1_2 3.128528 1_555
Mg0_0 Mg0_6 3.135726 1_555
Mg0_0 Mg0_6 3.135726 1_445
Mg0_1 Mg2_2 3.097317 1_555
Mg0_1 Mg2_4 3.097317 1_455
Mg0_1 Mg2_5 3.097317 1_455
Mg0_1 Mg2_3 3.097317 1_555
Mg0_1 Mg1_5 3.128528 1_455
Mg0_1 Mg1_3 3.128528 1_555
Mg0_1 Mg0_7 3.135726 1_445
Mg0_1 Mg0_7 3.135726 1_555
Mg0_2 Mg2_7 3.097317 1_454
Mg0_2 Mg2_1 3.097317 1_564
Mg0_2 Mg2_0 3.097317 1_565
Mg0_2 Mg2_6 3.097317 1_455
Mg0_2 Mg1_6 3.128528 1_455
Mg0_2 Mg1_0 3.128528 1_565
Mg0_2 Mg0_4 3.135726 1_565
Mg0_2 Mg0_4 3.135726 1_455
Mg0_3 Mg2_0 3.097317 1_565
Mg0_3 Mg2_6 3.097317 1_455
Mg0_3 Mg2_7 3.097317 1_455
Mg0_3 Mg2_1 3.097317 1_565
Mg0_3 Mg1_7 3.128528 1_455
Mg0_3 Mg1_1 3.128528 1_565
Mg0_3 Mg0_5 3.135726 1_455
Mg0_3 Mg0_5 3.135726 1_565
Mg0_4 Mg2_1 3.097317 1_554
Mg0_4 Mg2_7 3.097317 1_554
Mg0_4 Mg2_6 3.097317 1_555
Mg0_4 Mg2_0 3.097317 1_555
Mg0_4 Mg1_6 3.128528 1_555
Mg0_4 Mg1_0 3.128528 1_555
Mg0_5 Mg2_6 3.097317 1_555
Mg0_5 Mg2_0 3.097317 1_555
Mg0_5 Mg2_7 3.097317 1_555
Mg0_5 Mg2_1 3.097317 1_555
Mg0_5 Mg1_7 3.128528 1_555
Mg0_5 Mg1_1 3.128528 1_555
Mg0_6 Mg2_5 3.097317 1_564
Mg0_6 Mg2_3 3.097317 1_554
Mg0_6 Mg2_2 3.097317 1_555
Mg0_6 Mg2_4 3.097317 1_565
Mg0_6 Mg1_4 3.128528 1_565
Mg0_6 Mg1_2 3.128528 1_555
Mg0_7 Mg2_2 3.097317 1_555
Mg0_7 Mg2_4 3.097317 1_565
Mg0_7 Mg2_5 3.097317 1_565
Mg0_7 Mg2_3 3.097317 1_555
Mg0_7 Mg1_5 3.128528 1_565
Mg0_7 Mg1_3 3.128528 1_555
Mg1_0 Mg3_7 3.088579 1_544
Mg1_0 Mg3_6 3.088579 1_545
Mg1_0 Mg1_6 3.135726 1_555
Mg1_0 Mg1_6 3.135726 1_445
Mg1_1 Mg3_6 3.088579 1_545
Mg1_1 Mg3_7 3.088579 1_545
Mg1_1 Mg1_7 3.135726 1_445
Mg1_1 Mg1_7 3.135726 1_555
Mg1_2 Mg3_5 3.088579 1_554
Mg1_2 Mg3_4 3.088579 1_555
Mg1_2 Mg1_4 3.135726 1_455
Mg1_2 Mg1_4 3.135726 1_565
Mg1_3 Mg3_4 3.088579 1_555
Mg1_3 Mg3_5 3.088579 1_555
Mg1_3 Mg1_5 3.135726 1_455
Mg1_3 Mg1_5 3.135726 1_565
Mg1_4 Mg3_3 3.088579 1_644
Mg1_4 Mg3_2 3.088579 1_645
Mg1_5 Mg3_2 3.088579 1_645
Mg1_5 Mg3_3 3.088579 1_645
Mg1_6 Mg3_1 3.088579 1_654
Mg1_6 Mg3_0 3.088579 1_655
Mg1_7 Mg3_0 3.088579 1_655
Mg1_7 Mg3_1 3.088579 1_655
Mg2_0 Mg3_4 3.128528 1_555
Mg2_0 Mg3_2 3.128528 1_545
Mg2_0 Mg2_6 3.135726 1_555
Mg2_0 Mg2_6 3.135726 1_445
Mg2_1 Mg3_5 3.128528 1_555
Mg2_1 Mg3_3 3.128528 1_545
Mg2_1 Mg2_7 3.135726 1_445
Mg2_1 Mg2_7 3.135726 1_555
Mg2_2 Mg3_6 3.128528 1_555
Mg2_2 Mg3_0 3.128528 1_555
Mg2_2 Mg2_4 3.135726 1_455
Mg2_2 Mg2_4 3.135726 1_565
Mg2_3 Mg3_7 3.128528 1_555
Mg2_3 Mg3_1 3.128528 1_555
Mg2_3 Mg2_5 3.135726 1_455
Mg2_3 Mg2_5 3.135726 1_565
Mg2_4 Mg3_6 3.128528 1_545
Mg2_4 Mg3_0 3.128528 1_655
Mg2_5 Mg3_7 3.128528 1_545
Mg2_5 Mg3_1 3.128528 1_655
Mg2_6 Mg3_2 3.128528 1_655
Mg2_6 Mg3_4 3.128528 1_555
Mg2_7 Mg3_3 3.128528 1_655
Mg2_7 Mg3_5 3.128528 1_555
Mg3_0 Mg3_6 3.135726 1_445
Mg3_0 Mg3_6 3.135726 1_555
Mg3_1 Mg3_7 3.135726 1_555
Mg3_1 Mg3_7 3.135726 1_445
Mg3_2 Mg3_4 3.135726 1_455
Mg3_2 Mg3_4 3.135726 1_565
Mg3_3 Mg3_5 3.135726 1_455
Mg3_3 Mg3_5 3.135726 1_565
