# generated using pymatgen
data_Ca(AlGa)2
_symmetry_space_group_name_H-M   'P 1'
_cell_length_a   4.24140278
_cell_length_b   4.24140280
_cell_length_c   6.25264533
_cell_angle_alpha   109.82623388
_cell_angle_beta   109.82624221
_cell_angle_gamma   90.00001410
_symmetry_Int_Tables_number   1
_chemical_formula_structural   Ca(AlGa)2
_chemical_formula_sum   'Ca1 Al2 Ga2'
_cell_volume   98.69796214
_cell_formula_units_Z   1
loop_
 _symmetry_equiv_pos_site_id
 _symmetry_equiv_pos_as_xyz
  1  'x, y, z'
loop_
 _atom_site_type_symbol
 _atom_site_label
 _atom_site_symmetry_multiplicity
 _atom_site_fract_x
 _atom_site_fract_y
 _atom_site_fract_z
 _atom_site_occupancy
  Ca  Ca0  1  0.00000000  -0.00000000  0.00000000  1
  Al  Al0  1  0.25000000  0.75000000  0.50000000  1
  Al  Al1  1  0.75000000  0.25000000  0.50000000  1
  Ga  Ga0  1  0.38735508  0.38735508  0.77471116  1
  Ga  Ga1  1  0.61264492  0.61264492  0.22528884  1
loop_
_geom_bond_atom_site_label_1
_geom_bond_atom_site_label_2
_geom_bond_distance
_geom_bond_site_symmetry_2
Ca0 Ga1 3.243840 1_445
Ca0 Ga0 3.243840 1_554
Ca0 Ga0 3.243843 1_454
Ca0 Ga1 3.243843 1_545
Ca0 Ga0 3.243844 1_544
Ca0 Ga1 3.243844 1_455
Ca0 Ga0 3.243845 1_444
Ca0 Ga1 3.243845 1_555
Al0 Ga1 2.601722 1_455
Al0 Ga0 2.601722 1_565
Al0 Ga0 2.601726 1_555
Al0 Ga1 2.601726 1_555
Al0 Ca0 3.467359 1_666
Al0 Ca0 3.467359 1_555
Al0 Ca0 3.467359 1_565
Al0 Ca0 3.467360 1_566
Al1 Ga0 2.601722 1_655
Al1 Ga1 2.601722 1_545
Al1 Ga1 2.601726 1_555
Al1 Ga0 2.601726 1_555
Al1 Ca0 3.467359 1_555
Al1 Ca0 3.467359 1_666
Al1 Ca0 3.467359 1_656
Al1 Ca0 3.467360 1_655
Ga0 Ga1 2.472059 1_556
