# generated using pymatgen
data_Pm3Y
_symmetry_space_group_name_H-M   'P 1'
_cell_length_a   6.27106756
_cell_length_b   6.27106756
_cell_length_c   6.27106756
_cell_angle_alpha   131.20899685
_cell_angle_beta   131.20899685
_cell_angle_gamma   71.48123660
_symmetry_Int_Tables_number   1
_chemical_formula_structural   Pm3Y
_chemical_formula_sum   'Pm3 Y1'
_cell_volume   136.59445940
_cell_formula_units_Z   1
loop_
 _symmetry_equiv_pos_site_id
 _symmetry_equiv_pos_as_xyz
  1  'x, y, z'
loop_
 _atom_site_type_symbol
 _atom_site_label
 _atom_site_symmetry_multiplicity
 _atom_site_fract_x
 _atom_site_fract_y
 _atom_site_fract_z
 _atom_site_occupancy
  Pm  Pm0  1  0.75000000  0.25000000  0.49999900  1
  Pm  Pm1  1  0.25000000  0.75000000  0.49999900  1
  Pm  Pm2  1  0.50000000  0.50000000  -0.00000000  1
  Y  Y0  1  -0.00000000  -0.00000000  -0.00000000  1
loop_
_geom_bond_atom_site_label_1
_geom_bond_atom_site_label_2
_geom_bond_distance
_geom_bond_site_symmetry_2
Pm0 Pm2 3.631252 1_555
Pm0 Y0 3.631252 1_655
Pm0 Pm2 3.631256 1_656
Pm0 Y0 3.631256 1_666
Pm0 Pm2 3.631259 1_545
Pm0 Y0 3.631259 1_555
Pm0 Y0 3.631263 1_656
Pm0 Pm2 3.631263 1_556
Pm0 Pm1 3.663036 1_645
Pm0 Pm1 3.663036 1_544
Pm0 Pm1 3.663036 1_656
Pm0 Pm1 3.663036 1_555
Pm1 Pm2 3.631252 1_555
Pm1 Y0 3.631252 1_565
Pm1 Pm2 3.631256 1_566
Pm1 Y0 3.631256 1_666
Pm1 Pm2 3.631259 1_455
Pm1 Y0 3.631259 1_555
Pm1 Pm2 3.631263 1_556
Pm1 Y0 3.631263 1_566
Pm2 Y0 3.663036 1_666
Pm2 Y0 3.663036 1_565
Pm2 Y0 3.663036 1_554
Pm2 Y0 3.663036 1_655
