# generated using pymatgen
data_K2NaGaP2
_symmetry_space_group_name_H-M   'P 1'
_cell_length_a   8.56941003
_cell_length_b   8.56941003
_cell_length_c   8.56941003
_cell_angle_alpha   136.29579859
_cell_angle_beta   134.69546941
_cell_angle_gamma   64.76987470
_symmetry_Int_Tables_number   1
_chemical_formula_structural   K2NaGaP2
_chemical_formula_sum   'K4 Na2 Ga2 P4'
_cell_volume   304.72093901
_cell_formula_units_Z   2
loop_
 _symmetry_equiv_pos_site_id
 _symmetry_equiv_pos_as_xyz
  1  'x, y, z'
loop_
 _atom_site_type_symbol
 _atom_site_label
 _atom_site_symmetry_multiplicity
 _atom_site_fract_x
 _atom_site_fract_y
 _atom_site_fract_z
 _atom_site_occupancy
  K  K0  1  0.07138016  0.32563360  0.74574656  1
  K  K1  1  0.92861984  0.67436640  0.25425344  1
  K  K2  1  0.42011296  0.17436640  0.24574656  1
  K  K3  1  0.57988704  0.82563360  0.75425344  1
  Na  Na0  1  0.00000000  0.25000000  0.25000000  1
  Na  Na1  1  0.00000000  0.75000000  0.75000000  1
  Ga  Ga0  1  0.50000000  0.75000000  0.25000000  1
  Ga  Ga1  1  0.50000000  0.25000000  0.75000000  1
  P  P0  1  0.79058336  0.09118806  0.69939430  1
  P  P1  1  0.20941664  0.90881194  0.30060570  1
  P  P2  1  0.60820624  0.40881194  0.19939430  1
  P  P3  1  0.39179376  0.59118806  0.80060570  1
loop_
_geom_bond_atom_site_label_1
_geom_bond_atom_site_label_2
_geom_bond_distance
_geom_bond_site_symmetry_2
K0 P2 3.227372 1_556
K0 P0 3.406936 1_455
K0 P1 3.428431 1_545
K0 P1 3.428437 1_556
K1 P3 3.227372 1_554
K1 P1 3.406936 1_655
K1 P0 3.428431 1_565
K1 P0 3.428437 1_554
K2 P0 3.227372 1_555
K2 P2 3.406943 1_555
K2 P3 3.428437 1_544
K2 P3 3.428437 1_555
K3 P1 3.227372 1_555
K3 P3 3.406943 1_555
K3 P2 3.428437 1_555
K3 P2 3.428437 1_566
Na0 P1 2.867485 1_545
Na0 P3 2.867485 1_555
Na0 P2 2.867485 1_455
Na0 P0 2.867488 1_454
Na1 P0 2.867485 1_465
Na1 P2 2.867485 1_455
Na1 P3 2.867485 1_555
Na1 P1 2.867488 1_556
Ga0 P2 2.453070 1_555
Ga0 P3 2.453070 1_554
Ga0 P0 2.453074 1_565
Ga0 P1 2.453078 1_555
Ga1 P3 2.453070 1_555
Ga1 P2 2.453070 1_556
Ga1 P1 2.453074 1_545
Ga1 P0 2.453078 1_555
