# generated using pymatgen
data_Y(Mn2Fe)4
_symmetry_space_group_name_H-M   'P 1'
_cell_length_a   6.36568612
_cell_length_b   6.36568612
_cell_length_c   6.36568612
_cell_angle_alpha   97.86762218
_cell_angle_beta   97.86762218
_cell_angle_gamma   136.57130113
_symmetry_Int_Tables_number   1
_chemical_formula_structural   Y(Mn2Fe)4
_chemical_formula_sum   'Y1 Mn8 Fe4'
_cell_volume   164.74491628
_cell_formula_units_Z   1
loop_
 _symmetry_equiv_pos_site_id
 _symmetry_equiv_pos_as_xyz
  1  'x, y, z'
loop_
 _atom_site_type_symbol
 _atom_site_label
 _atom_site_symmetry_multiplicity
 _atom_site_fract_x
 _atom_site_fract_y
 _atom_site_fract_z
 _atom_site_occupancy
  Y  Y0  1  0.00000000  0.00000000  0.00000000  1
  Mn  Mn0  1  0.00000000  0.35842600  0.35842600  1
  Mn  Mn1  1  0.00000000  0.64157500  0.64157500  1
  Mn  Mn2  1  0.64157500  0.00000000  0.64157500  1
  Mn  Mn3  1  0.35842600  0.00000000  0.35842600  1
  Mn  Mn4  1  0.50000000  0.26830300  0.76830300  1
  Mn  Mn5  1  0.49999800  0.73169600  0.23169700  1
  Mn  Mn6  1  0.73169600  0.49999800  0.23169700  1
  Mn  Mn7  1  0.26830300  0.50000000  0.76830300  1
  Fe  Fe0  1  0.50000000  0.50000000  0.50000000  1
  Fe  Fe1  1  0.99999900  0.99999900  0.50000000  1
  Fe  Fe2  1  0.50000000  0.00000000  0.00000000  1
  Fe  Fe3  1  0.00000000  0.50000000  0.00000000  1
loop_
_geom_bond_atom_site_label_1
_geom_bond_atom_site_label_2
_geom_bond_distance
_geom_bond_site_symmetry_2
Mn0 Mn1 2.368152 1_555
Mn0 Mn6 2.537217 1_455
Mn0 Mn7 2.537223 1_555
Mn0 Mn5 2.582676 1_555
Mn0 Mn5 2.582689 1_445
Mn0 Mn3 2.889791 1_565
Mn0 Mn3 2.889791 1_455
Mn0 Mn2 2.889795 1_565
Mn0 Mn2 2.889795 1_455
Mn0 Y0 2.997741 1_555
Mn1 Mn6 2.537225 1_455
Mn1 Mn7 2.537227 1_555
Mn1 Mn4 2.582681 1_455
Mn1 Mn4 2.582681 1_565
Mn1 Mn3 2.889795 1_565
Mn1 Mn3 2.889795 1_455
Mn1 Mn2 2.889798 1_455
Mn1 Mn2 2.889798 1_565
Mn1 Y0 2.997733 1_566
Mn2 Mn3 2.368152 1_555
Mn2 Mn5 2.537225 1_545
Mn2 Mn4 2.537227 1_555
Mn2 Mn7 2.582681 1_545
Mn2 Mn7 2.582681 1_655
Mn2 Y0 2.997733 1_656
Mn3 Mn5 2.537217 1_545
Mn3 Mn4 2.537223 1_555
Mn3 Mn6 2.582676 1_555
Mn3 Mn6 2.582689 1_445
Mn3 Y0 2.997741 1_555
Mn4 Y0 3.049920 1_556
Mn4 Y0 3.049920 1_666
Mn5 Y0 3.049917 1_555
Mn5 Y0 3.049928 1_665
Mn6 Y0 3.049917 1_555
Mn6 Y0 3.049928 1_665
Mn7 Y0 3.049920 1_666
Mn7 Y0 3.049920 1_556
Fe0 Fe1 2.355168 1_555
Fe0 Fe1 2.355178 1_445
Fe0 Mn5 2.404586 1_555
Fe0 Mn6 2.404586 1_555
Fe0 Mn7 2.404586 1_555
Fe0 Mn4 2.404586 1_555
Fe0 Mn2 2.565333 1_565
Fe0 Mn1 2.565333 1_655
Fe0 Mn0 2.565336 1_555
Fe0 Mn3 2.565336 1_555
Fe0 Y0 3.182843 1_666
Fe0 Y0 3.182843 1_555
Fe1 Mn7 2.404588 1_665
Fe1 Mn4 2.404588 1_665
Fe1 Mn5 2.404590 1_555
Fe1 Mn6 2.404590 1_555
Fe1 Mn1 2.565331 1_655
Fe1 Mn2 2.565331 1_565
Fe1 Mn3 2.565338 1_665
Fe1 Mn0 2.565338 1_665
Fe1 Y0 3.182841 1_666
Fe1 Y0 3.182845 1_665
Fe2 Fe3 2.355173 1_655
Fe2 Fe3 2.355173 1_545
Fe2 Mn6 2.404579 1_555
Fe2 Mn5 2.404585 1_545
Fe2 Mn4 2.404586 1_554
Fe2 Mn7 2.404586 1_544
Fe2 Mn1 2.565333 1_544
Fe2 Mn2 2.565333 1_554
Fe2 Mn0 2.565336 1_655
Fe2 Mn3 2.565336 1_555
Fe2 Y0 3.182843 1_555
Fe2 Y0 3.182843 1_655
Fe3 Mn5 2.404579 1_555
Fe3 Mn6 2.404585 1_455
Fe3 Mn7 2.404586 1_554
Fe3 Mn4 2.404586 1_454
Fe3 Mn2 2.565333 1_454
Fe3 Mn1 2.565333 1_554
Fe3 Mn0 2.565336 1_555
Fe3 Mn3 2.565336 1_565
Fe3 Y0 3.182843 1_555
Fe3 Y0 3.182843 1_565
