# generated using pymatgen
data_Sc2RuAu
_symmetry_space_group_name_H-M   'P 1'
_cell_length_a   4.65088915
_cell_length_b   4.65104680
_cell_length_c   4.65271940
_cell_angle_alpha   60.04117297
_cell_angle_beta   59.97701208
_cell_angle_gamma   60.00087923
_symmetry_Int_Tables_number   1
_chemical_formula_structural   Sc2RuAu
_chemical_formula_sum   'Sc2 Ru1 Au1'
_cell_volume   71.17719175
_cell_formula_units_Z   1
loop_
 _symmetry_equiv_pos_site_id
 _symmetry_equiv_pos_as_xyz
  1  'x, y, z'
loop_
 _atom_site_type_symbol
 _atom_site_label
 _atom_site_symmetry_multiplicity
 _atom_site_fract_x
 _atom_site_fract_y
 _atom_site_fract_z
 _atom_site_occupancy
  Sc  Sc0  1  0.00029473  0.99987118  0.99978751  1
  Sc  Sc1  1  0.49971048  0.50012115  0.50020209  1
  Ru  Ru0  1  0.74998975  0.75001307  0.75000712  1
  Au  Au0  1  0.25000204  0.24999361  0.25000129  1
loop_
_geom_bond_atom_site_label_1
_geom_bond_atom_site_label_2
_geom_bond_distance
_geom_bond_site_symmetry_2
Ru0 Sc0 2.846147 1_555
Ru0 Sc1 2.846245 1_655
Ru0 Sc0 2.848131 1_655
Ru0 Sc1 2.848255 1_555
Ru0 Sc1 2.849653 1_565
Ru0 Sc0 2.849782 1_645
Ru0 Sc1 2.850322 1_556
Ru0 Sc0 2.850416 1_654
Au0 Sc1 2.848411 1_455
Au0 Sc0 2.848416 1_644
Au0 Sc1 2.848485 1_555
Au0 Sc0 2.848511 1_544
Au0 Sc1 2.848760 1_545
Au0 Sc0 2.848772 1_545
Au0 Sc0 2.848779 1_554
Au0 Sc1 2.848821 1_554
