# generated using pymatgen
data_Cs3BP2
_symmetry_space_group_name_H-M   'P 1'
_cell_length_a   6.94275132
_cell_length_b   6.94275040
_cell_length_c   9.89386153
_cell_angle_alpha   76.15294841
_cell_angle_beta   76.15295200
_cell_angle_gamma   89.35969380
_symmetry_Int_Tables_number   1
_chemical_formula_structural   Cs3BP2
_chemical_formula_sum   'Cs6 B2 P4'
_cell_volume   449.04728494
_cell_formula_units_Z   2
loop_
 _symmetry_equiv_pos_site_id
 _symmetry_equiv_pos_as_xyz
  1  'x, y, z'
loop_
 _atom_site_type_symbol
 _atom_site_label
 _atom_site_symmetry_multiplicity
 _atom_site_fract_x
 _atom_site_fract_y
 _atom_site_fract_z
 _atom_site_occupancy
  Cs  Cs0  1  0.65759382  0.34240618  0.25000000  1
  Cs  Cs1  1  0.34240618  0.65759382  0.75000000  1
  Cs  Cs2  1  0.25605824  0.15350725  0.02077991  1
  Cs  Cs3  1  0.84649275  0.74394176  0.47922009  1
  Cs  Cs4  1  0.74394176  0.84649275  0.97922009  1
  Cs  Cs5  1  0.15350725  0.25605824  0.52077991  1
  B  B0  1  0.28762689  0.71237311  0.25000000  1
  B  B1  1  0.71237311  0.28762689  0.75000000  1
  P  P0  1  0.40299546  0.83304242  0.35058937  1
  P  P1  1  0.16695758  0.59700454  0.14941063  1
  P  P2  1  0.83304242  0.40299546  0.85058937  1
  P  P3  1  0.59700454  0.16695758  0.64941063  1
loop_
_geom_bond_atom_site_label_1
_geom_bond_atom_site_label_2
_geom_bond_distance
_geom_bond_site_symmetry_2
Cs0 P3 3.766755 1_555
Cs0 P2 3.766755 1_554
Cs0 P0 3.772793 1_545
Cs0 P1 3.772794 1_655
Cs1 P0 3.766755 1_555
Cs1 P1 3.766755 1_556
Cs1 P3 3.772793 1_565
Cs1 P2 3.772794 1_455
Cs2 P1 3.597139 1_555
Cs2 P1 3.775333 1_545
Cs2 P0 3.834867 1_545
Cs2 P3 3.845752 1_554
Cs2 P2 3.913858 1_454
Cs3 P0 3.597139 1_555
Cs3 P0 3.775333 1_655
Cs3 P1 3.834867 1_655
Cs3 P2 3.845752 1_555
Cs3 P3 3.913858 1_565
Cs4 P2 3.597139 1_555
Cs4 P2 3.775333 1_565
Cs4 P3 3.834867 1_565
Cs4 P0 3.845752 1_556
Cs4 P1 3.913858 1_656
Cs5 P3 3.597139 1_555
Cs5 P3 3.775333 1_455
Cs5 P2 3.834867 1_455
Cs5 P1 3.845752 1_555
Cs5 P0 3.913858 1_545
B0 P0 1.769052 1_555
B0 P1 1.769052 1_555
B0 Cs2 3.386673 1_565
B0 Cs3 3.386674 1_455
B0 Cs5 3.590316 1_555
B0 Cs4 3.590316 1_554
B0 Cs0 3.612178 1_555
B1 P3 1.769052 1_555
B1 P2 1.769052 1_555
B1 Cs4 3.386673 1_545
B1 Cs5 3.386674 1_655
B1 Cs3 3.590316 1_555
B1 Cs2 3.590316 1_556
B1 Cs1 3.612178 1_555
