# generated using pymatgen
data_LaWN3
_symmetry_space_group_name_H-M   'P 1'
_cell_length_a   3.88455453
_cell_length_b   5.85147009
_cell_length_c   7.95809527
_cell_angle_alpha   70.58530128
_cell_angle_beta   90.00000000
_cell_angle_gamma   90.00000000
_symmetry_Int_Tables_number   1
_chemical_formula_structural   LaWN3
_chemical_formula_sum   'La2 W2 N6'
_cell_volume   170.60443605
_cell_formula_units_Z   2
loop_
 _symmetry_equiv_pos_site_id
 _symmetry_equiv_pos_as_xyz
  1  'x, y, z'
loop_
 _atom_site_type_symbol
 _atom_site_label
 _atom_site_symmetry_multiplicity
 _atom_site_fract_x
 _atom_site_fract_y
 _atom_site_fract_z
 _atom_site_occupancy
  La  La0  1  0.25000000  0.24609324  0.81345120  1
  La  La1  1  0.75000000  0.75390676  0.18654880  1
  W  W0  1  0.25000000  0.14207269  0.33203591  1
  W  W1  1  0.75000000  0.85792731  0.66796409  1
  N  N0  1  0.25000000  0.04029514  0.13454487  1
  N  N1  1  0.75000000  0.95970486  0.86545513  1
  N  N2  1  0.25000000  0.97219663  0.60933416  1
  N  N3  1  0.75000000  0.02780337  0.39066584  1
  N  N4  1  0.25000000  0.46710890  0.26245240  1
  N  N5  1  0.75000000  0.53289110  0.73754760  1
loop_
_geom_bond_atom_site_label_1
_geom_bond_atom_site_label_2
_geom_bond_distance
_geom_bond_site_symmetry_2
La0 N0 2.435975 1_556
La0 N5 2.505936 1_455
La0 N5 2.505936 1_555
La0 N1 2.508173 1_545
La0 N1 2.508173 1_445
La0 N2 2.634011 1_545
La1 N1 2.435975 1_554
La1 N4 2.505936 1_555
La1 N4 2.505936 1_655
La1 N0 2.508173 1_565
La1 N0 2.508173 1_665
La1 N3 2.634011 1_565
N0 W0 1.856616 1_555
N1 W1 1.856616 1_555
N2 W1 2.056653 1_455
N2 W1 2.056653 1_555
N2 W0 2.097521 1_565
N3 W0 2.056653 1_555
N3 W0 2.056653 1_655
N3 W1 2.097521 1_545
N4 W0 1.795505 1_555
N5 W1 1.795505 1_555
