# generated using pymatgen
data_Li2Mg
_symmetry_space_group_name_H-M   'P 1'
_cell_length_a   6.61947798
_cell_length_b   11.48751053
_cell_length_c   14.03463814
_cell_angle_alpha   72.47382772
_cell_angle_beta   90.00000000
_cell_angle_gamma   106.74522524
_symmetry_Int_Tables_number   1
_chemical_formula_structural   Li2Mg
_chemical_formula_sum   'Li32 Mg16'
_cell_volume   970.10888494
_cell_formula_units_Z   16
loop_
 _symmetry_equiv_pos_site_id
 _symmetry_equiv_pos_as_xyz
  1  'x, y, z'
loop_
 _atom_site_type_symbol
 _atom_site_label
 _atom_site_symmetry_multiplicity
 _atom_site_fract_x
 _atom_site_fract_y
 _atom_site_fract_z
 _atom_site_occupancy
  Li  Li0_0  1  0.01470648  0.02941145  0.47967298  1
  Li  Li0_1  1  0.01470648  0.02941144  0.97967298  1
  Li  Li0_2  1  0.01470648  0.52941145  0.47967298  1
  Li  Li0_3  1  0.01470648  0.52941144  0.97967298  1
  Li  Li0_4  1  0.51470648  0.02941145  0.47967298  1
  Li  Li0_5  1  0.51470648  0.02941144  0.97967297  1
  Li  Li0_6  1  0.51470647  0.52941145  0.47967298  1
  Li  Li0_7  1  0.51470648  0.52941145  0.97967298  1
  Li  Li1_0  1  0.34929985  0.19860021  0.05476919  1
  Li  Li1_1  1  0.34929985  0.19860021  0.55476919  1
  Li  Li1_2  1  0.34929985  0.69860021  0.05476919  1
  Li  Li1_3  1  0.34929985  0.69860020  0.55476919  1
  Li  Li1_4  1  0.84929985  0.19860021  0.05476919  1
  Li  Li1_5  1  0.84929985  0.19860020  0.55476919  1
  Li  Li1_6  1  0.84929986  0.69860021  0.05476919  1
  Li  Li1_7  1  0.84929986  0.69860021  0.55476919  1
  Li  Li2_0  1  0.17847765  0.35695580  0.13967482  1
  Li  Li2_1  1  0.17847765  0.35695580  0.63967482  1
  Li  Li2_2  1  0.17847765  0.85695580  0.13967482  1
  Li  Li2_3  1  0.17847765  0.85695580  0.63967482  1
  Li  Li2_4  1  0.67847765  0.35695580  0.13967482  1
  Li  Li2_5  1  0.67847765  0.35695580  0.63967482  1
  Li  Li2_6  1  0.67847765  0.85695580  0.13967482  1
  Li  Li2_7  1  0.67847765  0.85695580  0.63967482  1
  Li  Li3_0  1  0.01307203  0.02614455  0.21477152  1
  Li  Li3_1  1  0.01307203  0.02614455  0.71477153  1
  Li  Li3_2  1  0.01307203  0.52614456  0.21477153  1
  Li  Li3_3  1  0.01307202  0.52614456  0.71477152  1
  Li  Li3_4  1  0.51307203  0.02614455  0.21477152  1
  Li  Li3_5  1  0.51307203  0.02614456  0.71477152  1
  Li  Li3_6  1  0.51307203  0.52614456  0.21477153  1
  Li  Li3_7  1  0.51307203  0.52614456  0.71477153  1
  Mg  Mg0_0  1  0.34317084  0.18634168  0.30565043  1
  Mg  Mg0_1  1  0.34317084  0.18634168  0.80565043  1
  Mg  Mg0_2  1  0.34317084  0.68634168  0.30565043  1
  Mg  Mg0_3  1  0.34317084  0.68634168  0.80565043  1
  Mg  Mg0_4  1  0.84317084  0.18634168  0.30565043  1
  Mg  Mg0_5  1  0.84317084  0.18634168  0.80565043  1
  Mg  Mg0_6  1  0.84317084  0.68634168  0.30565043  1
  Mg  Mg0_7  1  0.84317084  0.68634168  0.80565043  1
  Mg  Mg1_0  1  0.18460666  0.36921382  0.38879408  1
  Mg  Mg1_1  1  0.18460666  0.36921382  0.88879408  1
  Mg  Mg1_2  1  0.18460666  0.86921382  0.38879408  1
  Mg  Mg1_3  1  0.18460666  0.86921382  0.88879408  1
  Mg  Mg1_4  1  0.68460666  0.36921382  0.38879408  1
  Mg  Mg1_5  1  0.68460666  0.36921382  0.88879408  1
  Mg  Mg1_6  1  0.68460666  0.86921382  0.38879408  1
  Mg  Mg1_7  1  0.68460666  0.86921382  0.88879408  1
loop_
_geom_bond_atom_site_label_1
_geom_bond_atom_site_label_2
_geom_bond_distance
_geom_bond_site_symmetry_2
Li0_0 Li1_1 2.923516 1_555
Li0_0 Li1_5 2.923524 1_455
Li0_0 Li2_3 2.949695 1_545
Li0_0 Li2_7 2.949702 1_445
Li0_0 Mg1_2 2.980687 1_545
Li0_0 Mg1_6 2.980694 1_445
Li0_0 Mg0_0 3.005314 1_555
Li0_0 Mg0_4 3.005320 1_455
Li0_1 Li1_0 2.923516 1_556
Li0_1 Li1_4 2.923524 1_456
Li0_1 Li2_2 2.949695 1_546
Li0_1 Li2_6 2.949702 1_446
Li0_1 Mg1_3 2.980687 1_545
Li0_1 Mg1_7 2.980694 1_445
Li0_1 Mg0_1 3.005314 1_555
Li0_1 Mg0_5 3.005320 1_455
Li0_2 Li1_3 2.923516 1_555
Li0_2 Li1_7 2.923524 1_455
Li0_2 Li2_1 2.949695 1_555
Li0_2 Li2_5 2.949702 1_455
Li0_2 Mg1_0 2.980687 1_555
Li0_2 Mg1_4 2.980694 1_455
Li0_2 Mg0_2 3.005314 1_555
Li0_2 Mg0_6 3.005320 1_455
Li0_3 Li1_2 2.923516 1_556
Li0_3 Li1_6 2.923524 1_456
Li0_3 Li2_0 2.949695 1_556
Li0_3 Li2_4 2.949702 1_456
Li0_3 Mg1_1 2.980687 1_555
Li0_3 Mg1_5 2.980694 1_455
Li0_3 Mg0_3 3.005314 1_555
Li0_3 Mg0_7 3.005320 1_455
Li0_4 Li1_5 2.923516 1_555
Li0_4 Li1_1 2.923524 1_555
Li0_4 Li2_7 2.949695 1_545
Li0_4 Li2_3 2.949702 1_545
Li0_4 Mg1_6 2.980687 1_545
Li0_4 Mg1_2 2.980694 1_545
Li0_4 Mg0_4 3.005314 1_555
Li0_4 Mg0_0 3.005320 1_555
Li0_5 Li1_4 2.923516 1_556
Li0_5 Li1_0 2.923524 1_556
Li0_5 Li2_6 2.949695 1_546
Li0_5 Li2_2 2.949702 1_546
Li0_5 Mg1_7 2.980687 1_545
Li0_5 Mg1_3 2.980694 1_545
Li0_5 Mg0_5 3.005314 1_555
Li0_5 Mg0_1 3.005320 1_555
Li0_6 Li1_7 2.923516 1_555
Li0_6 Li1_3 2.923524 1_555
Li0_6 Li2_5 2.949695 1_555
Li0_6 Li2_1 2.949702 1_555
Li0_6 Mg1_4 2.980687 1_555
Li0_6 Mg1_0 2.980694 1_555
Li0_6 Mg0_6 3.005314 1_555
Li0_6 Mg0_2 3.005320 1_555
Li0_7 Li1_6 2.923516 1_556
Li0_7 Li1_2 2.923524 1_556
Li0_7 Li2_4 2.949695 1_556
Li0_7 Li2_0 2.949702 1_556
Li0_7 Mg1_5 2.980687 1_555
Li0_7 Mg1_1 2.980694 1_555
Li0_7 Mg0_7 3.005314 1_555
Li0_7 Mg0_3 3.005320 1_555
Li1_0 Li2_4 2.915233 1_555
Li1_0 Li2_0 2.915233 1_555
Li1_0 Li3_0 2.949703 1_555
Li1_0 Li3_4 2.949703 1_555
Li1_0 Mg1_5 2.989556 1_554
Li1_0 Mg1_1 2.989556 1_554
Li1_1 Li2_5 2.915233 1_555
Li1_1 Li2_1 2.915233 1_555
Li1_1 Li3_1 2.949703 1_555
Li1_1 Li3_5 2.949703 1_555
Li1_1 Mg1_4 2.989556 1_555
Li1_1 Mg1_0 2.989556 1_555
Li1_2 Li2_6 2.915233 1_555
Li1_2 Li2_2 2.915233 1_555
Li1_2 Li3_2 2.949703 1_555
Li1_2 Li3_6 2.949703 1_555
Li1_2 Mg1_7 2.989556 1_554
Li1_2 Mg1_3 2.989556 1_554
Li1_3 Li2_7 2.915233 1_555
Li1_3 Li2_3 2.915233 1_555
Li1_3 Li3_3 2.949703 1_555
Li1_3 Li3_7 2.949703 1_555
Li1_3 Mg1_6 2.989556 1_555
Li1_3 Mg1_2 2.989556 1_555
Li1_4 Li2_0 2.915233 1_655
Li1_4 Li2_4 2.915233 1_555
Li1_4 Li3_4 2.949703 1_555
Li1_4 Li3_0 2.949703 1_655
Li1_4 Mg1_1 2.989556 1_654
Li1_4 Mg1_5 2.989556 1_554
Li1_5 Li2_1 2.915233 1_655
Li1_5 Li2_5 2.915233 1_555
Li1_5 Li3_5 2.949703 1_555
Li1_5 Li3_1 2.949703 1_655
Li1_5 Mg1_0 2.989556 1_655
Li1_5 Mg1_4 2.989556 1_555
Li1_6 Li2_2 2.915233 1_655
Li1_6 Li2_6 2.915233 1_555
Li1_6 Li3_6 2.949703 1_555
Li1_6 Li3_2 2.949703 1_655
Li1_6 Mg1_3 2.989556 1_654
Li1_6 Mg1_7 2.989556 1_554
Li1_7 Li2_3 2.915233 1_655
Li1_7 Li2_7 2.915233 1_555
Li1_7 Li3_7 2.949703 1_555
Li1_7 Li3_3 2.949703 1_655
Li1_7 Mg1_2 2.989556 1_655
Li1_7 Mg1_6 2.989556 1_555
Li2_0 Li3_6 2.923524 1_555
Li2_0 Li3_2 2.923524 1_555
Li2_0 Mg0_4 2.989561 1_455
Li2_0 Mg0_0 2.989563 1_555
Li2_1 Li3_7 2.923524 1_555
Li2_1 Li3_3 2.923524 1_555
Li2_1 Mg0_5 2.989561 1_455
Li2_1 Mg0_1 2.989563 1_555
Li2_2 Li3_4 2.923524 1_565
Li2_2 Li3_0 2.923524 1_565
Li2_2 Mg0_6 2.989561 1_455
Li2_2 Mg0_2 2.989563 1_555
Li2_3 Li3_5 2.923524 1_565
Li2_3 Li3_1 2.923524 1_565
Li2_3 Mg0_7 2.989561 1_455
Li2_3 Mg0_3 2.989563 1_555
Li2_4 Li3_2 2.923524 1_655
Li2_4 Li3_6 2.923524 1_555
Li2_4 Mg0_0 2.989561 1_555
Li2_4 Mg0_4 2.989563 1_555
Li2_5 Li3_3 2.923524 1_655
Li2_5 Li3_7 2.923524 1_555
Li2_5 Mg0_1 2.989561 1_555
Li2_5 Mg0_5 2.989563 1_555
Li2_6 Li3_0 2.923524 1_665
Li2_6 Li3_4 2.923524 1_565
Li2_6 Mg0_2 2.989561 1_555
Li2_6 Mg0_6 2.989563 1_555
Li2_7 Li3_1 2.923524 1_665
Li2_7 Li3_5 2.923524 1_565
Li2_7 Mg0_3 2.989561 1_555
Li2_7 Mg0_7 2.989563 1_555
Li3_0 Mg0_4 2.980685 1_455
Li3_0 Mg0_0 2.980687 1_555
Li3_0 Mg1_6 3.005318 1_445
Li3_0 Mg1_2 3.005319 1_545
Li3_1 Mg0_5 2.980685 1_455
Li3_1 Mg0_1 2.980687 1_555
Li3_1 Mg1_7 3.005318 1_445
Li3_1 Mg1_3 3.005319 1_545
Li3_2 Mg0_6 2.980685 1_455
Li3_2 Mg0_2 2.980687 1_555
Li3_2 Mg1_4 3.005318 1_455
Li3_2 Mg1_0 3.005319 1_555
Li3_3 Mg0_7 2.980685 1_455
Li3_3 Mg0_3 2.980687 1_555
Li3_3 Mg1_5 3.005318 1_455
Li3_3 Mg1_1 3.005319 1_555
Li3_4 Mg0_0 2.980685 1_555
Li3_4 Mg0_4 2.980687 1_555
Li3_4 Mg1_2 3.005318 1_545
Li3_4 Mg1_6 3.005319 1_545
Li3_5 Mg0_1 2.980685 1_555
Li3_5 Mg0_5 2.980687 1_555
Li3_5 Mg1_3 3.005318 1_545
Li3_5 Mg1_7 3.005319 1_545
Li3_6 Mg0_2 2.980685 1_555
Li3_6 Mg0_6 2.980687 1_555
Li3_6 Mg1_0 3.005318 1_555
Li3_6 Mg1_4 3.005319 1_555
Li3_7 Mg0_3 2.980685 1_555
Li3_7 Mg0_7 2.980687 1_555
Li3_7 Mg1_1 3.005318 1_555
Li3_7 Mg1_5 3.005319 1_555
Mg0_0 Mg1_4 3.102163 1_555
Mg0_0 Mg1_0 3.102165 1_555
Mg0_0 Mg0_4 3.309739 1_455
Mg0_0 Mg0_4 3.309739 1_555
Mg0_0 Mg1_2 3.312275 1_545
Mg0_1 Mg1_5 3.102163 1_555
Mg0_1 Mg1_1 3.102165 1_555
Mg0_1 Mg0_5 3.309739 1_455
Mg0_1 Mg0_5 3.309739 1_555
Mg0_1 Mg1_3 3.312275 1_545
Mg0_2 Mg1_6 3.102163 1_555
Mg0_2 Mg1_2 3.102165 1_555
Mg0_2 Mg0_6 3.309739 1_555
Mg0_2 Mg0_6 3.309739 1_455
Mg0_2 Mg1_0 3.312275 1_555
Mg0_3 Mg1_7 3.102163 1_555
Mg0_3 Mg1_3 3.102165 1_555
Mg0_3 Mg0_7 3.309739 1_555
Mg0_3 Mg0_7 3.309739 1_455
Mg0_3 Mg1_1 3.312275 1_555
Mg0_4 Mg1_0 3.102163 1_655
Mg0_4 Mg1_4 3.102165 1_555
Mg0_4 Mg1_6 3.312275 1_545
Mg0_5 Mg1_1 3.102163 1_655
Mg0_5 Mg1_5 3.102165 1_555
Mg0_5 Mg1_7 3.312275 1_545
Mg0_6 Mg1_2 3.102163 1_655
Mg0_6 Mg1_6 3.102165 1_555
Mg0_6 Mg1_4 3.312275 1_555
Mg0_7 Mg1_3 3.102163 1_655
Mg0_7 Mg1_7 3.102165 1_555
Mg0_7 Mg1_5 3.312275 1_555
Mg1_0 Mg1_4 3.309739 1_555
Mg1_0 Mg1_4 3.309739 1_455
Mg1_1 Mg1_5 3.309739 1_455
Mg1_1 Mg1_5 3.309739 1_555
Mg1_2 Mg1_6 3.309739 1_555
Mg1_2 Mg1_6 3.309739 1_455
Mg1_3 Mg1_7 3.309739 1_555
Mg1_3 Mg1_7 3.309739 1_455
