# generated using pymatgen
data_Yb
_symmetry_space_group_name_H-M   'P 1'
_cell_length_a   19.40904585
_cell_length_b   19.40904585
_cell_length_c   19.40904589
_cell_angle_alpha   23.05683537
_cell_angle_beta   23.05683537
_cell_angle_gamma   23.05683423
_symmetry_Int_Tables_number   1
_chemical_formula_structural   Yb
_chemical_formula_sum   Yb24
_cell_volume   984.33965222
_cell_formula_units_Z   24
loop_
 _symmetry_equiv_pos_site_id
 _symmetry_equiv_pos_as_xyz
  1  'x, y, z'
loop_
 _atom_site_type_symbol
 _atom_site_label
 _atom_site_symmetry_multiplicity
 _atom_site_fract_x
 _atom_site_fract_y
 _atom_site_fract_z
 _atom_site_occupancy
  Yb  Yb0_0  1  0.00000000  0.00000000  0.00000000  1
  Yb  Yb0_1  1  0.00000000  0.00000000  0.50000000  1
  Yb  Yb0_2  1  0.00000000  0.50000000  0.00000000  1
  Yb  Yb0_3  1  0.00000000  0.50000000  0.50000000  1
  Yb  Yb0_4  1  0.50000000  0.00000000  0.00000000  1
  Yb  Yb0_5  1  0.50000000  0.00000000  0.50000000  1
  Yb  Yb0_6  1  0.50000000  0.50000000  0.00000000  1
  Yb  Yb0_7  1  0.50000000  0.50000000  0.50000000  1
  Yb  Yb1_0  1  0.11120800  0.11120800  0.11120800  1
  Yb  Yb1_1  1  0.11120800  0.11120800  0.61120800  1
  Yb  Yb1_2  1  0.11120800  0.61120800  0.11120800  1
  Yb  Yb1_3  1  0.11120800  0.61120800  0.61120800  1
  Yb  Yb1_4  1  0.61120800  0.11120800  0.11120800  1
  Yb  Yb1_5  1  0.61120800  0.11120800  0.61120800  1
  Yb  Yb1_6  1  0.61120800  0.61120800  0.11120800  1
  Yb  Yb1_7  1  0.61120800  0.61120800  0.61120800  1
  Yb  Yb2_0  1  0.38879200  0.38879200  0.38879200  1
  Yb  Yb2_1  1  0.38879200  0.38879200  0.88879200  1
  Yb  Yb2_2  1  0.38879200  0.88879200  0.38879200  1
  Yb  Yb2_3  1  0.38879200  0.88879200  0.88879200  1
  Yb  Yb2_4  1  0.88879200  0.38879200  0.38879200  1
  Yb  Yb2_5  1  0.88879200  0.38879200  0.88879200  1
  Yb  Yb2_6  1  0.88879200  0.88879200  0.38879200  1
  Yb  Yb2_7  1  0.88879200  0.88879200  0.88879200  1
loop_
_geom_bond_atom_site_label_1
_geom_bond_atom_site_label_2
_geom_bond_distance
_geom_bond_site_symmetry_2
Yb0_0 Yb1_2 3.858481 1_545
Yb0_0 Yb1_4 3.858481 1_455
Yb0_0 Yb2_5 3.858481 1_454
Yb0_0 Yb2_3 3.858481 1_544
Yb0_0 Yb1_1 3.858481 1_554
Yb0_0 Yb2_6 3.858481 1_445
Yb0_0 Yb0_6 3.878974 1_545
Yb0_0 Yb0_6 3.878974 1_455
Yb0_0 Yb0_3 3.878974 1_545
Yb0_0 Yb0_5 3.878974 1_455
Yb0_0 Yb0_5 3.878974 1_554
Yb0_0 Yb0_3 3.878974 1_554
Yb0_1 Yb1_3 3.858481 1_545
Yb0_1 Yb1_5 3.858481 1_455
Yb0_1 Yb2_4 3.858481 1_455
Yb0_1 Yb2_2 3.858481 1_545
Yb0_1 Yb1_0 3.858481 1_555
Yb0_1 Yb2_7 3.858481 1_445
Yb0_1 Yb0_7 3.878974 1_545
Yb0_1 Yb0_7 3.878974 1_455
Yb0_1 Yb0_4 3.878974 1_555
Yb0_1 Yb0_2 3.878974 1_555
Yb0_1 Yb0_4 3.878974 1_456
Yb0_1 Yb0_2 3.878974 1_546
Yb0_2 Yb1_6 3.858481 1_455
Yb0_2 Yb1_0 3.858481 1_555
Yb0_2 Yb2_1 3.858481 1_554
Yb0_2 Yb2_7 3.858481 1_454
Yb0_2 Yb1_3 3.858481 1_554
Yb0_2 Yb2_4 3.858481 1_455
Yb0_2 Yb0_4 3.878974 1_465
Yb0_2 Yb0_4 3.878974 1_555
Yb0_2 Yb0_7 3.878974 1_455
Yb0_2 Yb0_7 3.878974 1_554
Yb0_3 Yb2_0 3.858481 1_555
Yb0_3 Yb1_1 3.858481 1_555
Yb0_3 Yb1_7 3.858481 1_455
Yb0_3 Yb2_6 3.858481 1_455
Yb0_3 Yb2_5 3.858481 1_455
Yb0_3 Yb1_2 3.858481 1_555
Yb0_3 Yb0_5 3.878974 1_465
Yb0_3 Yb0_5 3.878974 1_555
Yb0_3 Yb0_6 3.878974 1_555
Yb0_3 Yb0_6 3.878974 1_456
Yb0_4 Yb1_6 3.858481 1_545
Yb0_4 Yb1_0 3.858481 1_555
Yb0_4 Yb2_1 3.858481 1_554
Yb0_4 Yb2_7 3.858481 1_544
Yb0_4 Yb1_5 3.858481 1_554
Yb0_4 Yb2_2 3.858481 1_545
Yb0_4 Yb0_7 3.878974 1_545
Yb0_4 Yb0_7 3.878974 1_554
Yb0_5 Yb2_0 3.858481 1_555
Yb0_5 Yb1_1 3.858481 1_555
Yb0_5 Yb1_7 3.858481 1_545
Yb0_5 Yb2_6 3.858481 1_545
Yb0_5 Yb1_4 3.858481 1_555
Yb0_5 Yb2_3 3.858481 1_545
Yb0_5 Yb0_6 3.878974 1_555
Yb0_5 Yb0_6 3.878974 1_546
Yb0_6 Yb1_4 3.858481 1_555
Yb0_6 Yb1_2 3.858481 1_555
Yb0_6 Yb2_5 3.858481 1_554
Yb0_6 Yb2_3 3.858481 1_554
Yb0_6 Yb1_7 3.858481 1_554
Yb0_6 Yb2_0 3.858481 1_555
Yb0_7 Yb1_5 3.858481 1_555
Yb0_7 Yb1_3 3.858481 1_555
Yb0_7 Yb2_4 3.858481 1_555
Yb0_7 Yb2_2 3.858481 1_555
Yb0_7 Yb1_6 3.858481 1_555
Yb0_7 Yb2_1 3.858481 1_555
Yb1_0 Yb2_3 3.871903 1_544
Yb1_0 Yb2_5 3.871903 1_454
Yb1_0 Yb2_6 3.871903 1_445
Yb1_0 Yb1_6 3.878974 1_455
Yb1_0 Yb1_6 3.878974 1_545
Yb1_0 Yb1_3 3.878974 1_554
Yb1_0 Yb1_5 3.878974 1_455
Yb1_0 Yb1_3 3.878974 1_545
Yb1_0 Yb1_5 3.878974 1_554
Yb1_1 Yb2_2 3.871903 1_545
Yb1_1 Yb2_4 3.871903 1_455
Yb1_1 Yb2_7 3.871903 1_445
Yb1_1 Yb1_7 3.878974 1_455
Yb1_1 Yb1_7 3.878974 1_545
Yb1_1 Yb1_2 3.878974 1_546
Yb1_1 Yb1_4 3.878974 1_456
Yb1_1 Yb1_4 3.878974 1_555
Yb1_1 Yb1_2 3.878974 1_555
Yb1_2 Yb2_7 3.871903 1_454
Yb1_2 Yb2_1 3.871903 1_554
Yb1_2 Yb2_4 3.871903 1_455
Yb1_2 Yb1_4 3.878974 1_465
Yb1_2 Yb1_4 3.878974 1_555
Yb1_2 Yb1_7 3.878974 1_455
Yb1_2 Yb1_7 3.878974 1_554
Yb1_3 Yb2_6 3.871903 1_455
Yb1_3 Yb2_0 3.871903 1_555
Yb1_3 Yb2_5 3.871903 1_455
Yb1_3 Yb1_5 3.878974 1_555
Yb1_3 Yb1_5 3.878974 1_465
Yb1_3 Yb1_6 3.878974 1_555
Yb1_3 Yb1_6 3.878974 1_456
Yb1_4 Yb2_7 3.871903 1_544
Yb1_4 Yb2_1 3.871903 1_554
Yb1_4 Yb2_2 3.871903 1_545
Yb1_4 Yb1_7 3.878974 1_545
Yb1_4 Yb1_7 3.878974 1_554
Yb1_5 Yb2_6 3.871903 1_545
Yb1_5 Yb2_0 3.871903 1_555
Yb1_5 Yb2_3 3.871903 1_545
Yb1_5 Yb1_6 3.878974 1_555
Yb1_5 Yb1_6 3.878974 1_546
Yb1_6 Yb2_3 3.871903 1_554
Yb1_6 Yb2_5 3.871903 1_554
Yb1_6 Yb2_0 3.871903 1_555
Yb1_7 Yb2_2 3.871903 1_555
Yb1_7 Yb2_4 3.871903 1_555
Yb1_7 Yb2_1 3.871903 1_555
Yb2_0 Yb2_6 3.878974 1_545
Yb2_0 Yb2_6 3.878974 1_455
Yb2_0 Yb2_3 3.878974 1_545
Yb2_0 Yb2_5 3.878974 1_455
Yb2_0 Yb2_5 3.878974 1_554
Yb2_0 Yb2_3 3.878974 1_554
Yb2_1 Yb2_7 3.878974 1_545
Yb2_1 Yb2_7 3.878974 1_455
Yb2_1 Yb2_4 3.878974 1_555
Yb2_1 Yb2_2 3.878974 1_546
Yb2_1 Yb2_4 3.878974 1_456
Yb2_1 Yb2_2 3.878974 1_555
Yb2_2 Yb2_4 3.878974 1_465
Yb2_2 Yb2_4 3.878974 1_555
Yb2_2 Yb2_7 3.878974 1_455
Yb2_2 Yb2_7 3.878974 1_554
Yb2_3 Yb2_5 3.878974 1_465
Yb2_3 Yb2_5 3.878974 1_555
Yb2_3 Yb2_6 3.878974 1_555
Yb2_3 Yb2_6 3.878974 1_456
Yb2_4 Yb2_7 3.878974 1_545
Yb2_4 Yb2_7 3.878974 1_554
Yb2_5 Yb2_6 3.878974 1_555
Yb2_5 Yb2_6 3.878974 1_546
