# generated using pymatgen
data_NaBeSb
_symmetry_space_group_name_H-M   'P 1'
_cell_length_a   4.17099284
_cell_length_b   4.17099284
_cell_length_c   9.37557000
_cell_angle_alpha   90.00000000
_cell_angle_beta   90.00000000
_cell_angle_gamma   120.00001331
_symmetry_Int_Tables_number   1
_chemical_formula_structural   NaBeSb
_chemical_formula_sum   'Na2 Be2 Sb2'
_cell_volume   141.25607761
_cell_formula_units_Z   2
loop_
 _symmetry_equiv_pos_site_id
 _symmetry_equiv_pos_as_xyz
  1  'x, y, z'
loop_
 _atom_site_type_symbol
 _atom_site_label
 _atom_site_symmetry_multiplicity
 _atom_site_fract_x
 _atom_site_fract_y
 _atom_site_fract_z
 _atom_site_occupancy
  Na  Na0  1  0.00000000  0.00000000  0.00000000  1
  Na  Na1  1  0.00000000  0.00000000  0.50000000  1
  Be  Be0  1  0.66666700  0.33333300  0.25000000  1
  Be  Be1  1  0.33333300  0.66666700  0.75000000  1
  Sb  Sb0  1  0.33333300  0.66666700  0.25000000  1
  Sb  Sb1  1  0.66666700  0.33333300  0.75000000  1
loop_
_geom_bond_atom_site_label_1
_geom_bond_atom_site_label_2
_geom_bond_distance
_geom_bond_site_symmetry_2
Na0 Sb1 3.360488 1_454
Na0 Sb0 3.360488 1_545
Na0 Sb0 3.360491 1_555
Na0 Sb1 3.360491 1_444
Na0 Sb1 3.360491 1_554
Na0 Sb0 3.360491 1_445
Na1 Sb1 3.360488 1_455
Na1 Sb0 3.360488 1_545
Na1 Sb0 3.360491 1_555
Na1 Sb0 3.360491 1_445
Na1 Sb1 3.360491 1_555
Na1 Sb1 3.360491 1_445
Be0 Sb0 2.408121 1_545
Be0 Sb0 2.408121 1_655
Be0 Sb0 2.408129 1_555
Be0 Na0 3.360488 1_655
Be0 Na1 3.360488 1_655
Be0 Na0 3.360491 1_555
Be0 Na0 3.360491 1_665
Be0 Na1 3.360491 1_555
Be0 Na1 3.360491 1_665
Be1 Sb1 2.408121 1_455
Be1 Sb1 2.408121 1_565
Be1 Sb1 2.408129 1_555
Be1 Na0 3.360488 1_566
Be1 Na1 3.360488 1_565
Be1 Na0 3.360491 1_556
Be1 Na1 3.360491 1_555
Be1 Na0 3.360491 1_666
Be1 Na1 3.360491 1_665
