# generated using pymatgen
data_AgAuO2
_symmetry_space_group_name_H-M   'P 1'
_cell_length_a   3.87882231
_cell_length_b   5.47932747
_cell_length_c   5.61158550
_cell_angle_alpha   104.01203467
_cell_angle_beta   90.00000000
_cell_angle_gamma   90.00000000
_symmetry_Int_Tables_number   1
_chemical_formula_structural   AgAuO2
_chemical_formula_sum   'Ag2 Au2 O4'
_cell_volume   115.71618055
_cell_formula_units_Z   2
loop_
 _symmetry_equiv_pos_site_id
 _symmetry_equiv_pos_as_xyz
  1  'x, y, z'
loop_
 _atom_site_type_symbol
 _atom_site_label
 _atom_site_symmetry_multiplicity
 _atom_site_fract_x
 _atom_site_fract_y
 _atom_site_fract_z
 _atom_site_occupancy
  Ag  Ag0  1  0.50000000  0.00000000  0.50000000  1
  Ag  Ag1  1  -0.00000000  0.50000000  0.50000000  1
  Au  Au0  1  0.50000000  0.50000000  -0.00000000  1
  Au  Au1  1  -0.00000000  0.00000000  -0.00000000  1
  O  O0  1  0.20574577  0.77745314  0.20016493  1
  O  O1  1  0.70574577  0.72254686  0.79983507  1
  O  O2  1  0.79425423  0.22254686  0.79983507  1
  O  O3  1  0.29425423  0.27745314  0.20016493  1
loop_
_geom_bond_atom_site_label_1
_geom_bond_atom_site_label_2
_geom_bond_distance
_geom_bond_site_symmetry_2
Ag0 O2 2.151066 1_555
Ag0 O0 2.151066 1_545
Ag0 O3 2.649096 1_555
Ag0 O1 2.649096 1_545
Ag1 O3 2.151066 1_555
Ag1 O1 2.151066 1_455
Ag1 O0 2.649096 1_555
Ag1 O2 2.649096 1_455
Au0 O0 2.012123 1_555
Au0 O2 2.012123 1_554
Au0 O3 2.012160 1_555
Au0 O1 2.012160 1_554
Au1 O3 2.012123 1_555
Au1 O1 2.012123 1_444
Au1 O0 2.012160 1_545
Au1 O2 2.012160 1_454
