# generated using pymatgen
data_SmHo3
_symmetry_space_group_name_H-M   'P 1'
_cell_length_a   6.14583552
_cell_length_b   6.14583552
_cell_length_c   6.14583552
_cell_angle_alpha   131.65412488
_cell_angle_beta   131.65412488
_cell_angle_gamma   70.77585066
_symmetry_Int_Tables_number   1
_chemical_formula_structural   SmHo3
_chemical_formula_sum   'Sm1 Ho3'
_cell_volume   126.93597444
_cell_formula_units_Z   1
loop_
 _symmetry_equiv_pos_site_id
 _symmetry_equiv_pos_as_xyz
  1  'x, y, z'
loop_
 _atom_site_type_symbol
 _atom_site_label
 _atom_site_symmetry_multiplicity
 _atom_site_fract_x
 _atom_site_fract_y
 _atom_site_fract_z
 _atom_site_occupancy
  Sm  Sm0  1  0.00000000  -0.00000000  0.00000000  1
  Ho  Ho0  1  0.74999900  0.25000000  0.49999900  1
  Ho  Ho1  1  0.25000000  0.74999900  0.49999900  1
  Ho  Ho2  1  0.50000000  0.50000000  0.00000000  1
loop_
_geom_bond_atom_site_label_1
_geom_bond_atom_site_label_2
_geom_bond_distance
_geom_bond_site_symmetry_2
Ho0 Ho2 3.551002 1_555
Ho0 Sm0 3.551002 1_555
Ho0 Sm0 3.551006 1_655
Ho0 Sm0 3.551006 1_666
Ho0 Ho2 3.551006 1_545
Ho0 Ho2 3.551006 1_556
Ho0 Ho2 3.551009 1_656
Ho0 Sm0 3.551009 1_656
Ho0 Ho1 3.559104 1_555
Ho0 Ho1 3.559111 1_656
Ho0 Ho1 3.559111 1_544
Ho0 Ho1 3.559118 1_645
Ho1 Ho2 3.551002 1_555
Ho1 Sm0 3.551002 1_555
Ho1 Sm0 3.551006 1_565
Ho1 Sm0 3.551006 1_666
Ho1 Ho2 3.551006 1_455
Ho1 Ho2 3.551006 1_556
Ho1 Ho2 3.551009 1_566
Ho1 Sm0 3.551009 1_566
Ho2 Sm0 3.559111 1_565
Ho2 Sm0 3.559111 1_655
Ho2 Sm0 3.559111 1_666
Ho2 Sm0 3.559111 1_554
