# generated using pymatgen
data_Rb2TlInF6
_symmetry_space_group_name_H-M   'P 1'
_cell_length_a   6.73519068
_cell_length_b   6.73519068
_cell_length_c   6.73519068
_cell_angle_alpha   60.00000000
_cell_angle_beta   60.00000000
_cell_angle_gamma   60.00000000
_symmetry_Int_Tables_number   1
_chemical_formula_structural   Rb2TlInF6
_chemical_formula_sum   'Rb2 Tl1 In1 F6'
_cell_volume   216.04025844
_cell_formula_units_Z   1
loop_
 _symmetry_equiv_pos_site_id
 _symmetry_equiv_pos_as_xyz
  1  'x, y, z'
loop_
 _atom_site_type_symbol
 _atom_site_label
 _atom_site_symmetry_multiplicity
 _atom_site_fract_x
 _atom_site_fract_y
 _atom_site_fract_z
 _atom_site_occupancy
  Rb  Rb0  1  0.75000000  0.75000000  0.75000000  1
  Rb  Rb1  1  0.25000000  0.25000000  0.25000000  1
  Tl  Tl0  1  0.00000000  0.00000000  0.00000000  1
  In  In0  1  0.50000000  0.50000000  0.50000000  1
  F  F0  1  0.72158700  0.27841300  0.27841300  1
  F  F1  1  0.27841300  0.27841400  0.72158700  1
  F  F2  1  0.27841300  0.72158700  0.72158600  1
  F  F3  1  0.27841300  0.72158600  0.27841400  1
  F  F4  1  0.72158700  0.27841300  0.72158600  1
  F  F5  1  0.72158700  0.72158700  0.27841300  1
loop_
_geom_bond_atom_site_label_1
_geom_bond_atom_site_label_2
_geom_bond_distance
_geom_bond_site_symmetry_2
F0 In0 2.110616 1_555
F0 Tl0 2.651883 1_655
F0 Rb1 3.378452 1_555
F0 Rb0 3.378452 1_554
F0 Rb0 3.378452 1_545
F0 Rb1 3.378452 1_655
F1 In0 2.110611 1_555
F1 Tl0 2.651888 1_556
F1 Rb0 3.378449 1_455
F1 Rb1 3.378449 1_556
F1 Rb1 3.378456 1_555
F1 Rb0 3.378456 1_545
F2 In0 2.110611 1_555
F2 Tl0 2.651888 1_566
F2 Rb0 3.378449 1_455
F2 Rb1 3.378449 1_565
F2 Rb1 3.378456 1_556
F2 Rb0 3.378456 1_555
F3 In0 2.110611 1_555
F3 Tl0 2.651888 1_565
F3 Rb1 3.378449 1_555
F3 Rb0 3.378449 1_455
F3 Rb0 3.378456 1_554
F3 Rb1 3.378456 1_565
F4 In0 2.110611 1_555
F4 Tl0 2.651888 1_656
F4 Rb0 3.378449 1_545
F4 Rb1 3.378449 1_655
F4 Rb1 3.378456 1_556
F4 Rb0 3.378456 1_555
F5 In0 2.110616 1_555
F5 Tl0 2.651883 1_665
F5 Rb0 3.378452 1_554
F5 Rb1 3.378452 1_565
F5 Rb1 3.378452 1_655
F5 Rb0 3.378452 1_555
