# generated using pymatgen
data_Al3Ga
_symmetry_space_group_name_H-M   'P 1'
_cell_length_a   4.00279187
_cell_length_b   4.00279187
_cell_length_c   4.00279187
_cell_angle_alpha   90.00000000
_cell_angle_beta   90.00000000
_cell_angle_gamma   90.00000000
_symmetry_Int_Tables_number   1
_chemical_formula_structural   Al3Ga
_chemical_formula_sum   'Al3 Ga1'
_cell_volume   64.13410332
_cell_formula_units_Z   1
loop_
 _symmetry_equiv_pos_site_id
 _symmetry_equiv_pos_as_xyz
  1  'x, y, z'
loop_
 _atom_site_type_symbol
 _atom_site_label
 _atom_site_symmetry_multiplicity
 _atom_site_fract_x
 _atom_site_fract_y
 _atom_site_fract_z
 _atom_site_occupancy
  Al  Al0  1  0.50000100  0.50000100  0.00000000  1
  Al  Al1  1  0.00000000  0.50000100  0.50000100  1
  Al  Al2  1  0.50000100  -0.00000000  0.50000100  1
  Ga  Ga0  1  -0.00000000  0.00000000  -0.00000000  1
loop_
_geom_bond_atom_site_label_1
_geom_bond_atom_site_label_2
_geom_bond_distance
_geom_bond_site_symmetry_2
Al0 Al2 2.830396 1_564
Al0 Ga0 2.830396 1_665
Al0 Al1 2.830396 1_654
Al0 Al1 2.830401 1_655
Al0 Ga0 2.830401 1_655
Al0 Al1 2.830401 1_554
Al0 Al2 2.830401 1_554
Al0 Al2 2.830401 1_565
Al0 Ga0 2.830401 1_565
Al0 Al1 2.830407 1_555
Al0 Al2 2.830407 1_555
Al0 Ga0 2.830407 1_555
Al1 Ga0 2.830396 1_566
Al1 Al2 2.830396 1_465
Al1 Ga0 2.830401 1_556
Al1 Al2 2.830401 1_455
Al1 Al2 2.830401 1_565
Al1 Ga0 2.830401 1_565
Al1 Al2 2.830407 1_555
Al1 Ga0 2.830407 1_555
Al2 Ga0 2.830396 1_656
Al2 Ga0 2.830401 1_655
Al2 Ga0 2.830401 1_556
Al2 Ga0 2.830407 1_555
