# generated using pymatgen
data_LiDyO2
_symmetry_space_group_name_H-M   'P 1'
_cell_length_a   11.13601168
_cell_length_b   3.36199933
_cell_length_c   5.25651314
_cell_angle_alpha   90.00000000
_cell_angle_beta   90.00000000
_cell_angle_gamma   90.00000000
_symmetry_Int_Tables_number   1
_chemical_formula_structural   LiDyO2
_chemical_formula_sum   'Li4 Dy4 O8'
_cell_volume   196.79998215
_cell_formula_units_Z   4
loop_
 _symmetry_equiv_pos_site_id
 _symmetry_equiv_pos_as_xyz
  1  'x, y, z'
loop_
 _atom_site_type_symbol
 _atom_site_label
 _atom_site_symmetry_multiplicity
 _atom_site_fract_x
 _atom_site_fract_y
 _atom_site_fract_z
 _atom_site_occupancy
  Li  Li0  1  0.06609906  0.25000000  0.09869783  1
  Li  Li1  1  0.56609806  0.25000000  0.40130217  1
  Li  Li2  1  0.43390194  0.75000100  0.59869783  1
  Li  Li3  1  0.93390194  0.75000100  0.90130117  1
  Dy  Dy0  1  0.35949727  0.25000000  0.04739409  1
  Dy  Dy1  1  0.85949727  0.25000000  0.45260791  1
  Dy  Dy2  1  0.14050273  0.75000100  0.54739409  1
  Dy  Dy3  1  0.64050273  0.75000100  0.95260691  1
  O  O0  1  0.70501240  0.25000000  0.19262345  1
  O  O1  1  0.47373637  0.75000100  0.24362676  1
  O  O2  1  0.97373537  0.75000100  0.25637324  1
  O  O3  1  0.20501240  0.25000000  0.30737755  1
  O  O4  1  0.79498860  0.75000100  0.69262345  1
  O  O5  1  0.02626363  0.25000000  0.74362876  1
  O  O6  1  0.52626363  0.25000000  0.75637224  1
  O  O7  1  0.29498760  0.75000100  0.80737755  1
loop_
_geom_bond_atom_site_label_1
_geom_bond_atom_site_label_2
_geom_bond_distance
_geom_bond_site_symmetry_2
Li0 O3 1.896385 1_555
Li0 O5 1.918419 1_554
Li0 O2 2.137905 1_445
Li0 O2 2.137910 1_455
Li1 O0 1.896391 1_555
Li1 O6 1.918421 1_555
Li1 O1 2.137894 1_545
Li1 O1 2.137900 1_555
Li2 O7 1.896394 1_555
Li2 O1 1.918427 1_555
Li2 O6 2.137892 1_565
Li2 O6 2.137898 1_555
Li3 O4 1.896379 1_555
Li3 O2 1.918429 1_556
Li3 O5 2.137888 1_665
Li3 O5 2.137894 1_655
Dy0 O3 2.197089 1_555
Dy0 O7 2.221166 1_544
Dy0 O7 2.221171 1_554
Dy0 O1 2.346945 1_545
Dy0 O1 2.346950 1_555
Dy0 O6 2.406041 1_554
Dy1 O0 2.197093 1_555
Dy1 O4 2.221160 1_545
Dy1 O4 2.221165 1_555
Dy1 O2 2.346944 1_545
Dy1 O2 2.346949 1_555
Dy1 O5 2.406037 1_655
Dy2 O7 2.197089 1_555
Dy2 O3 2.221166 1_565
Dy2 O3 2.221171 1_555
Dy2 O5 2.346950 1_565
Dy2 O5 2.346955 1_555
Dy2 O2 2.406046 1_455
Dy3 O4 2.197098 1_555
Dy3 O0 2.221166 1_566
Dy3 O0 2.221171 1_556
Dy3 O6 2.346950 1_565
Dy3 O6 2.346955 1_555
Dy3 O1 2.406034 1_556
