# generated using pymatgen
data_HoB4W
_symmetry_space_group_name_H-M   'P 1'
_cell_length_a   3.61035459
_cell_length_b   6.01479689
_cell_length_c   11.61890064
_cell_angle_alpha   90.00000000
_cell_angle_beta   90.00000000
_cell_angle_gamma   90.00000000
_symmetry_Int_Tables_number   1
_chemical_formula_structural   HoB4W
_chemical_formula_sum   'Ho4 B16 W4'
_cell_volume   252.31081268
_cell_formula_units_Z   4
loop_
 _symmetry_equiv_pos_site_id
 _symmetry_equiv_pos_as_xyz
  1  'x, y, z'
loop_
 _atom_site_type_symbol
 _atom_site_label
 _atom_site_symmetry_multiplicity
 _atom_site_fract_x
 _atom_site_fract_y
 _atom_site_fract_z
 _atom_site_occupancy
  Ho  Ho0  1  -0.00000000  0.12775136  0.14926613  1
  Ho  Ho1  1  0.00000000  0.87224864  0.85073387  1
  Ho  Ho2  1  -0.00000000  0.62775136  0.35073387  1
  Ho  Ho3  1  -0.00000000  0.37224864  0.64926613  1
  B  B0  1  0.50000000  0.47678454  0.19343054  1
  B  B1  1  0.50000000  0.52321546  0.80656946  1
  B  B2  1  0.50000000  0.97678454  0.30656946  1
  B  B3  1  0.50000000  0.02321546  0.69343054  1
  B  B4  1  0.50000000  0.28731924  0.31362434  1
  B  B5  1  0.50000000  0.71268076  0.68637566  1
  B  B6  1  0.50000000  0.78731924  0.18637566  1
  B  B7  1  0.50000000  0.21268076  0.81362434  1
  B  B8  1  0.50000000  0.36655568  0.46807647  1
  B  B9  1  0.50000000  0.63344432  0.53192353  1
  B  B10  1  0.50000000  0.86655568  0.03192353  1
  B  B11  1  0.50000000  0.13344432  0.96807647  1
  B  B12  1  0.50000000  0.38606451  0.04751283  1
  B  B13  1  0.50000000  0.61393549  0.95248717  1
  B  B14  1  0.50000000  0.88606451  0.45248717  1
  B  B15  1  0.50000000  0.11393549  0.54751283  1
  W  W0  1  -0.00000000  0.13060260  0.41581443  1
  W  W1  1  -0.00000000  0.86939740  0.58418557  1
  W  W2  1  -0.00000000  0.63060260  0.08418557  1
  W  W3  1  0.00000000  0.36939740  0.91581443  1
loop_
_geom_bond_atom_site_label_1
_geom_bond_atom_site_label_2
_geom_bond_distance
_geom_bond_site_symmetry_2
Ho0 W3 3.077323 1_554
Ho0 W2 3.084376 1_545
Ho0 W0 3.097046 1_555
Ho0 W2 3.117639 1_555
Ho1 W2 3.077323 1_556
Ho1 W3 3.084376 1_565
Ho1 W1 3.097046 1_555
Ho1 W3 3.117639 1_555
Ho2 W1 3.077323 1_555
Ho2 W0 3.084376 1_555
Ho2 W2 3.097046 1_555
Ho2 W0 3.117639 1_565
Ho3 W0 3.077323 1_555
Ho3 W1 3.084376 1_555
Ho3 W3 3.097046 1_555
Ho3 W1 3.117639 1_545
B0 B12 1.781050 1_555
B0 B4 1.802483 1_555
B0 B6 1.869601 1_555
B0 W2 2.392858 1_555
B0 W2 2.392858 1_655
B0 Ho2 2.724637 1_555
B0 Ho2 2.724637 1_655
B0 Ho0 2.815903 1_555
B0 Ho0 2.815903 1_655
B1 B13 1.781050 1_555
B1 B5 1.802483 1_555
B1 B7 1.869601 1_555
B1 W3 2.392858 1_555
B1 W3 2.392858 1_655
B1 Ho3 2.724637 1_555
B1 Ho3 2.724637 1_655
B1 Ho1 2.815903 1_555
B1 Ho1 2.815903 1_655
B2 B6 1.802483 1_555
B2 B4 1.869601 1_565
B2 W0 2.392858 1_565
B2 W0 2.392858 1_665
B2 Ho0 2.724637 1_565
B2 Ho0 2.724637 1_665
B2 Ho2 2.815903 1_655
B2 Ho2 2.815903 1_555
B3 B7 1.802483 1_555
B3 B5 1.869601 1_545
B3 W1 2.392858 1_645
B3 W1 2.392858 1_545
B3 Ho1 2.724637 1_545
B3 Ho1 2.724637 1_645
B3 Ho3 2.815903 1_655
B3 Ho3 2.815903 1_555
B4 B8 1.856771 1_555
B4 W0 2.357321 1_655
B4 W0 2.357321 1_555
B4 Ho2 2.763578 1_655
B4 Ho2 2.763578 1_555
B4 Ho0 2.797611 1_555
B4 Ho0 2.797611 1_655
B5 B9 1.856771 1_555
B5 W1 2.357321 1_655
B5 W1 2.357321 1_555
B5 Ho3 2.763578 1_655
B5 Ho3 2.763578 1_555
B5 Ho1 2.797611 1_655
B5 Ho1 2.797611 1_555
B6 W2 2.357321 1_655
B6 W2 2.357321 1_555
B6 Ho0 2.763578 1_665
B6 Ho0 2.763578 1_565
B6 Ho2 2.797611 1_555
B6 Ho2 2.797611 1_655
B7 W3 2.357321 1_555
B7 W3 2.357321 1_655
B7 Ho1 2.763578 1_545
B7 Ho1 2.763578 1_645
B7 Ho3 2.797611 1_655
B7 Ho3 2.797611 1_555
B8 B9 1.768401 1_555
B8 W0 2.375194 1_555
B8 W0 2.375194 1_655
B8 Ho2 2.754209 1_655
B8 Ho2 2.754209 1_555
B8 Ho3 2.773411 1_655
B8 Ho3 2.773411 1_555
B9 W1 2.375194 1_655
B9 W1 2.375194 1_555
B9 Ho3 2.754209 1_655
B9 Ho3 2.754209 1_555
B9 Ho2 2.773411 1_555
B9 Ho2 2.773411 1_655
B10 B11 1.768401 1_564
B10 B13 1.777812 1_554
B10 B6 1.856771 1_555
B10 W2 2.375194 1_655
B10 W2 2.375194 1_555
B10 Ho0 2.754209 1_665
B10 Ho0 2.754209 1_565
B10 Ho1 2.773411 1_654
B10 Ho1 2.773411 1_554
B11 B12 1.777812 1_556
B11 B7 1.856771 1_555
B11 W3 2.375194 1_555
B11 W3 2.375194 1_655
B11 Ho1 2.754209 1_645
B11 Ho1 2.754209 1_545
B11 Ho0 2.773411 1_556
B11 Ho0 2.773411 1_656
B12 B13 1.759989 1_554
B12 W2 2.367195 1_655
B12 W2 2.367195 1_555
B12 W3 2.368586 1_654
B12 W3 2.368586 1_554
B12 Ho0 2.659021 1_555
B12 Ho0 2.659021 1_655
B13 W3 2.367195 1_555
B13 W3 2.367195 1_655
B13 W2 2.368586 1_656
B13 W2 2.368586 1_556
B13 Ho1 2.659021 1_655
B13 Ho1 2.659021 1_555
B14 B15 1.759989 1_565
B14 B9 1.777812 1_555
B14 B2 1.781050 1_555
B14 W0 2.367195 1_665
B14 W0 2.367195 1_565
B14 W1 2.368586 1_555
B14 W1 2.368586 1_655
B14 Ho2 2.659021 1_555
B14 Ho2 2.659021 1_655
B15 B8 1.777812 1_555
B15 B3 1.781050 1_555
B15 W1 2.367195 1_545
B15 W1 2.367195 1_645
B15 W0 2.368586 1_555
B15 W0 2.368586 1_655
B15 Ho3 2.659021 1_655
B15 Ho3 2.659021 1_555
