# generated using pymatgen
data_Y7FeI12
_symmetry_space_group_name_H-M   'P 1'
_cell_length_a   9.02717100
_cell_length_b   12.76634700
_cell_length_c   12.76634741
_cell_angle_alpha   120.00000153
_cell_angle_beta   90.00000000
_cell_angle_gamma   90.00000000
_symmetry_Int_Tables_number   1
_chemical_formula_structural   Y7FeI12
_chemical_formula_sum   'Y7 Fe1 I12'
_cell_volume   1274.13544578
_cell_formula_units_Z   1
loop_
 _symmetry_equiv_pos_site_id
 _symmetry_equiv_pos_as_xyz
  1  'x, y, z'
loop_
 _atom_site_type_symbol
 _atom_site_label
 _atom_site_symmetry_multiplicity
 _atom_site_fract_x
 _atom_site_fract_y
 _atom_site_fract_z
 _atom_site_occupancy
  Y  Y0  1  0.70963700  0.02193600  0.93033400  1
  Y  Y1  1  0.97806400  0.09160200  0.80123900  1
  Y  Y2  1  0.50000000  0.50000000  0.00000000  1
  Y  Y3  1  0.09160200  0.70963700  0.73157200  1
  Y  Y4  1  0.29036300  0.97806400  0.06966600  1
  Y  Y5  1  0.90839800  0.29036300  0.26842800  1
  Y  Y6  1  0.02193600  0.90839800  0.19876100  1
  Fe  Fe0  1  0.00000000  0.00000000  0.00000000  1
  I  I0  1  0.07270300  0.77231900  0.45051700  1
  I  I1  1  0.38658100  0.84082400  0.30509900  1
  I  I2  1  0.61341900  0.15917600  0.69490100  1
  I  I3  1  0.22768100  0.32180200  0.39450500  1
  I  I4  1  0.77231900  0.67819800  0.60549500  1
  I  I5  1  0.67819800  0.92729700  0.15497700  1
  I  I6  1  0.53572500  0.38658100  0.22740400  1
  I  I7  1  0.84082400  0.46427500  0.07769500  1
  I  I8  1  0.92729700  0.22768100  0.54948300  1
  I  I9  1  0.32180200  0.07270300  0.84502300  1
  I  I10  1  0.46427500  0.61341900  0.77259600  1
  I  I11  1  0.15917600  0.53572500  0.92230500  1
loop_
_geom_bond_atom_site_label_1
_geom_bond_atom_site_label_2
_geom_bond_distance
_geom_bond_site_symmetry_2
Fe0 Y4 2.826473 1_545
Fe0 Y0 2.826473 1_454
Fe0 Y6 3.288279 1_545
Fe0 Y1 3.288279 1_454
Fe0 Y5 3.669479 1_455
Fe0 Y3 3.669479 1_544
I0 Y3 4.051513 1_555
I1 Y6 3.820162 1_555
I2 Y1 3.820162 1_555
I3 Y5 3.226905 1_455
I4 Y3 3.226905 1_655
I5 Y6 3.183395 1_655
I5 Y0 3.637294 1_564
I5 Y4 3.816993 1_555
I6 Y5 3.707315 1_555
I6 Y2 3.851261 1_555
I7 Y2 3.333189 1_555
I8 Y5 4.051513 1_555
I9 Y1 3.183395 1_455
I9 Y4 3.637294 1_546
I9 Y0 3.816993 1_555
I10 Y3 3.707315 1_555
I10 Y2 3.851261 1_556
I11 Y2 3.333189 1_556
