# generated using pymatgen
data_CsIr
_symmetry_space_group_name_H-M   'P 1'
_cell_length_a   6.28819614
_cell_length_b   8.89285442
_cell_length_c   11.33201460
_cell_angle_alpha   90.00000000
_cell_angle_beta   90.00000000
_cell_angle_gamma   45.00000000
_symmetry_Int_Tables_number   1
_chemical_formula_structural   CsIr
_chemical_formula_sum   'Cs8 Ir8'
_cell_volume   448.08395173
_cell_formula_units_Z   8
loop_
 _symmetry_equiv_pos_site_id
 _symmetry_equiv_pos_as_xyz
  1  'x, y, z'
loop_
 _atom_site_type_symbol
 _atom_site_label
 _atom_site_symmetry_multiplicity
 _atom_site_fract_x
 _atom_site_fract_y
 _atom_site_fract_z
 _atom_site_occupancy
  Cs  Cs0_0  1  0.00000000  0.00000000  0.00000000  1
  Cs  Cs0_1  1  0.00000000  0.00000000  0.50000000  1
  Cs  Cs0_2  1  0.00000000  0.50000000  0.00000000  1
  Cs  Cs0_3  1  0.00000000  0.50000000  0.50000000  1
  Cs  Cs0_4  1  0.50000000  0.00000000  0.00000000  1
  Cs  Cs0_5  1  0.50000000  0.00000000  0.50000000  1
  Cs  Cs0_6  1  0.50000000  0.50000000  0.00000000  1
  Cs  Cs0_7  1  0.50000000  0.50000000  0.50000000  1
  Ir  Ir0_0  1  0.49999950  0.25000000  0.25000050  1
  Ir  Ir0_1  1  0.49999950  0.25000000  0.75000050  1
  Ir  Ir0_2  1  0.49999950  0.75000000  0.25000050  1
  Ir  Ir0_3  1  0.49999950  0.75000000  0.75000050  1
  Ir  Ir0_4  1  0.99999950  0.25000000  0.25000050  1
  Ir  Ir0_5  1  0.99999950  0.25000000  0.75000050  1
  Ir  Ir0_6  1  0.99999950  0.75000000  0.25000050  1
  Ir  Ir0_7  1  0.99999950  0.75000000  0.75000050  1
loop_
_geom_bond_atom_site_label_1
_geom_bond_atom_site_label_2
_geom_bond_distance
_geom_bond_site_symmetry_2
Cs0_0 Cs0_4 3.144098 1_555
Cs0_0 Cs0_4 3.144098 1_455
Cs0_0 Cs0_6 3.144099 1_455
Cs0_0 Cs0_6 3.144099 1_545
Cs0_0 Ir0_3 3.601186 1_544
Cs0_0 Ir0_5 3.601187 1_454
Cs0_0 Ir0_1 3.601189 1_454
Cs0_0 Ir0_7 3.601190 1_444
Cs0_0 Ir0_2 3.601195 1_545
Cs0_0 Ir0_4 3.601196 1_455
Cs0_0 Ir0_0 3.601198 1_455
Cs0_0 Ir0_6 3.601198 1_445
Cs0_1 Cs0_5 3.144098 1_555
Cs0_1 Cs0_5 3.144098 1_455
Cs0_1 Cs0_7 3.144099 1_545
Cs0_1 Cs0_7 3.144099 1_455
Cs0_1 Ir0_2 3.601186 1_545
Cs0_1 Ir0_4 3.601187 1_455
Cs0_1 Ir0_0 3.601189 1_455
Cs0_1 Ir0_6 3.601190 1_445
Cs0_1 Ir0_3 3.601195 1_545
Cs0_1 Ir0_5 3.601196 1_455
Cs0_1 Ir0_1 3.601198 1_455
Cs0_1 Ir0_7 3.601198 1_445
Cs0_2 Cs0_6 3.144098 1_455
Cs0_2 Cs0_6 3.144098 1_555
Cs0_2 Cs0_4 3.144099 1_555
Cs0_2 Cs0_4 3.144099 1_465
Cs0_2 Ir0_1 3.601186 1_554
Cs0_2 Ir0_7 3.601187 1_454
Cs0_2 Ir0_3 3.601189 1_454
Cs0_2 Ir0_5 3.601190 1_454
Cs0_2 Ir0_0 3.601195 1_555
Cs0_2 Ir0_6 3.601196 1_455
Cs0_2 Ir0_2 3.601198 1_455
Cs0_2 Ir0_4 3.601198 1_455
Cs0_3 Cs0_7 3.144098 1_555
Cs0_3 Cs0_7 3.144098 1_455
Cs0_3 Cs0_5 3.144099 1_555
Cs0_3 Cs0_5 3.144099 1_465
Cs0_3 Ir0_0 3.601186 1_555
Cs0_3 Ir0_6 3.601187 1_455
Cs0_3 Ir0_2 3.601189 1_455
Cs0_3 Ir0_4 3.601190 1_455
Cs0_3 Ir0_1 3.601195 1_555
Cs0_3 Ir0_7 3.601196 1_455
Cs0_3 Ir0_3 3.601198 1_455
Cs0_3 Ir0_5 3.601198 1_455
Cs0_4 Ir0_7 3.601186 1_544
Cs0_4 Ir0_1 3.601187 1_554
Cs0_4 Ir0_5 3.601189 1_454
Cs0_4 Ir0_3 3.601190 1_544
Cs0_4 Ir0_6 3.601195 1_545
Cs0_4 Ir0_0 3.601196 1_555
Cs0_4 Ir0_4 3.601198 1_455
Cs0_4 Ir0_2 3.601198 1_545
Cs0_5 Ir0_6 3.601186 1_545
Cs0_5 Ir0_0 3.601187 1_555
Cs0_5 Ir0_4 3.601189 1_455
Cs0_5 Ir0_2 3.601190 1_545
Cs0_5 Ir0_7 3.601195 1_545
Cs0_5 Ir0_1 3.601196 1_555
Cs0_5 Ir0_5 3.601198 1_455
Cs0_5 Ir0_3 3.601198 1_545
Cs0_6 Ir0_5 3.601186 1_554
Cs0_6 Ir0_3 3.601187 1_554
Cs0_6 Ir0_7 3.601189 1_454
Cs0_6 Ir0_1 3.601190 1_554
Cs0_6 Ir0_4 3.601195 1_555
Cs0_6 Ir0_2 3.601196 1_555
Cs0_6 Ir0_6 3.601198 1_455
Cs0_6 Ir0_0 3.601198 1_555
Cs0_7 Ir0_4 3.601186 1_555
Cs0_7 Ir0_2 3.601187 1_555
Cs0_7 Ir0_6 3.601189 1_455
Cs0_7 Ir0_0 3.601190 1_555
Cs0_7 Ir0_5 3.601195 1_555
Cs0_7 Ir0_3 3.601196 1_555
Cs0_7 Ir0_7 3.601198 1_455
Cs0_7 Ir0_1 3.601198 1_555
Ir0_0 Ir0_4 3.144098 1_455
Ir0_0 Ir0_4 3.144098 1_555
Ir0_0 Ir0_6 3.144099 1_455
Ir0_0 Ir0_6 3.144099 1_545
Ir0_1 Ir0_5 3.144098 1_455
Ir0_1 Ir0_5 3.144098 1_555
Ir0_1 Ir0_7 3.144099 1_455
Ir0_1 Ir0_7 3.144099 1_545
Ir0_2 Ir0_6 3.144098 1_555
Ir0_2 Ir0_6 3.144098 1_455
Ir0_2 Ir0_4 3.144099 1_465
Ir0_2 Ir0_4 3.144099 1_555
Ir0_3 Ir0_7 3.144098 1_555
Ir0_3 Ir0_7 3.144098 1_455
Ir0_3 Ir0_5 3.144099 1_465
Ir0_3 Ir0_5 3.144099 1_555
