# generated using pymatgen
data_SmNi
_symmetry_space_group_name_H-M   'P 1'
_cell_length_a   3.78448075
_cell_length_b   4.29449388
_cell_length_c   5.45514265
_cell_angle_alpha   89.99999951
_cell_angle_beta   69.63727267
_cell_angle_gamma   89.99999972
_symmetry_Int_Tables_number   1
_chemical_formula_structural   SmNi
_chemical_formula_sum   'Sm2 Ni2'
_cell_volume   83.11887123
_cell_formula_units_Z   2
loop_
 _symmetry_equiv_pos_site_id
 _symmetry_equiv_pos_as_xyz
  1  'x, y, z'
loop_
 _atom_site_type_symbol
 _atom_site_label
 _atom_site_symmetry_multiplicity
 _atom_site_fract_x
 _atom_site_fract_y
 _atom_site_fract_z
 _atom_site_occupancy
  Sm  Sm0  1  0.13866081  0.75000002  0.72313457  1
  Sm  Sm1  1  0.86133285  0.25000001  0.27687817  1
  Ni  Ni0  1  0.42995140  0.74999996  0.14111023  1
  Ni  Ni1  1  0.57005494  0.25000001  0.85887703  1
loop_
_geom_bond_atom_site_label_1
_geom_bond_atom_site_label_2
_geom_bond_distance
_geom_bond_site_symmetry_2
Ni0 Ni1 2.587301 1_554
Ni0 Ni1 2.587302 1_564
Ni0 Sm0 2.852482 1_654
Ni0 Sm0 2.857172 1_554
Ni0 Sm1 2.943790 1_555
Ni0 Sm1 2.943791 1_565
Ni0 Sm1 2.946326 1_455
Ni0 Sm1 2.946326 1_465
Ni0 Sm0 2.976615 1_555
Ni1 Sm1 2.852580 1_456
Ni1 Sm1 2.857270 1_556
Ni1 Sm0 2.943759 1_545
Ni1 Sm0 2.943759 1_555
Ni1 Sm0 2.946295 1_645
Ni1 Sm0 2.946295 1_655
Ni1 Sm1 2.976484 1_555
