# generated using pymatgen
data_Sr3SiO5
_symmetry_space_group_name_H-M   'P 1'
_cell_length_a   7.34293301
_cell_length_b   7.34293301
_cell_length_c   7.34293301
_cell_angle_alpha   123.51466122
_cell_angle_beta   123.51466122
_cell_angle_gamma   84.01312189
_symmetry_Int_Tables_number   1
_chemical_formula_structural   Sr3SiO5
_chemical_formula_sum   'Sr6 Si2 O10'
_cell_volume   263.51152233
_cell_formula_units_Z   2
loop_
 _symmetry_equiv_pos_site_id
 _symmetry_equiv_pos_as_xyz
  1  'x, y, z'
loop_
 _atom_site_type_symbol
 _atom_site_label
 _atom_site_symmetry_multiplicity
 _atom_site_fract_x
 _atom_site_fract_y
 _atom_site_fract_z
 _atom_site_occupancy
  Sr  Sr0  1  0.25000000  0.25000000  0.00000000  1
  Sr  Sr1  1  0.75000000  0.75000000  0.00000000  1
  Sr  Sr2  1  0.31659700  0.81659700  0.13319400  1
  Sr  Sr3  1  0.68340300  0.18340300  0.86680600  1
  Sr  Sr4  1  0.18340300  0.31659700  0.50000000  1
  Sr  Sr5  1  0.81659700  0.68340300  0.50000000  1
  Si  Si0  1  0.75000000  0.25000000  0.50000000  1
  Si  Si1  1  0.25000000  0.75000000  0.50000000  1
  O  O0  1  0.00000000  0.00000000  0.00000000  1
  O  O1  1  0.50000000  0.50000000  0.00000000  1
  O  O2  1  0.79053800  0.02488400  0.50000000  1
  O  O3  1  0.52488400  0.29053800  0.50000000  1
  O  O4  1  0.70946200  0.20946200  0.23434600  1
  O  O5  1  0.97511600  0.47511600  0.76565400  1
  O  O6  1  0.47511600  0.70946200  0.50000000  1
  O  O7  1  0.20946200  0.97511600  0.50000000  1
  O  O8  1  0.29053800  0.79053800  0.76565400  1
  O  O9  1  0.02488400  0.52488400  0.23434600  1
loop_
_geom_bond_atom_site_label_1
_geom_bond_atom_site_label_2
_geom_bond_distance
_geom_bond_site_symmetry_2
O0 Sr4 2.542687 1_555
O0 Sr2 2.542687 1_545
O0 Sr3 2.542687 1_454
O0 Sr5 2.542687 1_444
O0 Sr0 2.728150 1_555
O0 Sr1 2.728150 1_445
O1 Sr4 2.542687 1_554
O1 Sr3 2.542687 1_554
O1 Sr5 2.542687 1_555
O1 Sr2 2.542687 1_555
O1 Sr0 2.728150 1_555
O1 Sr1 2.728150 1_555
O2 Si0 1.648761 1_555
O2 Sr5 2.494783 1_545
O2 Sr2 2.813372 1_545
O2 Sr3 2.813372 1_555
O2 Sr0 2.894352 1_656
O2 Sr1 2.894352 1_545
O3 Si0 1.648761 1_555
O3 Sr4 2.494783 1_555
O3 Sr2 2.813372 1_545
O3 Sr3 2.813372 1_555
O3 Sr0 2.894352 1_555
O3 Sr1 2.894352 1_556
O4 Si0 1.648761 1_555
O4 Sr3 2.494783 1_554
O4 Sr4 2.813372 1_655
O4 Sr5 2.813372 1_555
O4 Sr1 2.894352 1_545
O4 Sr0 2.894352 1_555
O5 Si0 1.648761 1_555
O5 Sr2 2.494783 1_656
O5 Sr4 2.813372 1_655
O5 Sr5 2.813372 1_555
O5 Sr0 2.894352 1_656
O5 Sr1 2.894352 1_556
O6 Si1 1.648761 1_555
O6 Sr5 2.494783 1_555
O6 Sr2 2.813372 1_555
O6 Sr3 2.813372 1_565
O6 Sr1 2.894352 1_556
O6 Sr0 2.894352 1_555
O7 Si1 1.648761 1_555
O7 Sr4 2.494783 1_565
O7 Sr2 2.813372 1_555
O7 Sr3 2.813372 1_565
O7 Sr1 2.894352 1_455
O7 Sr0 2.894352 1_566
O8 Si1 1.648761 1_555
O8 Sr2 2.494783 1_556
O8 Sr4 2.813372 1_555
O8 Sr5 2.813372 1_455
O8 Sr1 2.894352 1_556
O8 Sr0 2.894352 1_566
O9 Si1 1.648761 1_555
O9 Sr3 2.494783 1_454
O9 Sr5 2.813372 1_455
O9 Sr4 2.813372 1_555
O9 Sr1 2.894352 1_455
O9 Sr0 2.894352 1_555
