# generated using pymatgen
data_Tl
_symmetry_space_group_name_H-M   'P 1'
_cell_length_a   7.12420862
_cell_length_b   7.12420614
_cell_length_c   16.98634641
_cell_angle_alpha   77.89500681
_cell_angle_beta   102.10499286
_cell_angle_gamma   119.99996893
_symmetry_Int_Tables_number   1
_chemical_formula_structural   Tl
_chemical_formula_sum   Tl24
_cell_volume   724.40768253
_cell_formula_units_Z   24
loop_
 _symmetry_equiv_pos_site_id
 _symmetry_equiv_pos_as_xyz
  1  'x, y, z'
loop_
 _atom_site_type_symbol
 _atom_site_label
 _atom_site_symmetry_multiplicity
 _atom_site_fract_x
 _atom_site_fract_y
 _atom_site_fract_z
 _atom_site_occupancy
  Tl  Tl0_0  1  0.00000000  0.00000000  0.00000000  1
  Tl  Tl0_1  1  0.00000000  0.00000000  0.50000000  1
  Tl  Tl0_2  1  0.00000000  0.50000000  0.00000000  1
  Tl  Tl0_3  1  0.00000000  0.50000000  0.50000000  1
  Tl  Tl0_4  1  0.50000000  0.00000000  0.00000000  1
  Tl  Tl0_5  1  0.50000000  0.00000000  0.50000000  1
  Tl  Tl0_6  1  0.50000000  0.50000000  0.00000000  1
  Tl  Tl0_7  1  0.50000000  0.50000000  0.50000000  1
  Tl  Tl1_0  1  0.38953001  0.11047049  0.16858902  1
  Tl  Tl1_1  1  0.38953001  0.11047050  0.66858902  1
  Tl  Tl1_2  1  0.38953001  0.61047049  0.16858902  1
  Tl  Tl1_3  1  0.38953001  0.61047049  0.66858902  1
  Tl  Tl1_4  1  0.88953001  0.11047050  0.16858902  1
  Tl  Tl1_5  1  0.88953001  0.11047049  0.66858902  1
  Tl  Tl1_6  1  0.88953001  0.61047050  0.16858902  1
  Tl  Tl1_7  1  0.88953001  0.61047049  0.66858902  1
  Tl  Tl2_0  1  0.11047050  0.38952950  0.33141098  1
  Tl  Tl2_1  1  0.11047050  0.38952950  0.83141099  1
  Tl  Tl2_2  1  0.11047050  0.88952950  0.33141098  1
  Tl  Tl2_3  1  0.11047050  0.88952950  0.83141098  1
  Tl  Tl2_4  1  0.61047049  0.38952950  0.33141098  1
  Tl  Tl2_5  1  0.61047050  0.38952950  0.83141099  1
  Tl  Tl2_6  1  0.61047049  0.88952950  0.33141098  1
  Tl  Tl2_7  1  0.61047050  0.88952950  0.83141099  1
loop_
_geom_bond_atom_site_label_1
_geom_bond_atom_site_label_2
_geom_bond_distance
_geom_bond_site_symmetry_2
Tl0_0 Tl1_4 3.456807 1_455
Tl0_0 Tl1_6 3.456807 1_445
Tl0_0 Tl2_1 3.456807 1_554
Tl0_0 Tl2_7 3.456808 1_444
Tl0_0 Tl2_3 3.456809 1_544
Tl0_0 Tl1_0 3.456810 1_555
Tl0_0 Tl0_2 3.562103 1_555
Tl0_0 Tl0_2 3.562103 1_545
Tl0_0 Tl0_4 3.562104 1_555
Tl0_0 Tl0_4 3.562104 1_455
Tl0_0 Tl0_6 3.562105 1_555
Tl0_0 Tl0_6 3.562105 1_445
Tl0_1 Tl1_5 3.456807 1_455
Tl0_1 Tl1_7 3.456807 1_445
Tl0_1 Tl2_0 3.456807 1_555
Tl0_1 Tl2_6 3.456808 1_445
Tl0_1 Tl2_2 3.456809 1_545
Tl0_1 Tl1_1 3.456810 1_555
Tl0_1 Tl0_3 3.562103 1_555
Tl0_1 Tl0_3 3.562103 1_545
Tl0_1 Tl0_5 3.562104 1_455
Tl0_1 Tl0_5 3.562104 1_555
Tl0_1 Tl0_7 3.562105 1_445
Tl0_1 Tl0_7 3.562105 1_555
Tl0_2 Tl1_6 3.456807 1_455
Tl0_2 Tl1_4 3.456807 1_455
Tl0_2 Tl2_3 3.456807 1_554
Tl0_2 Tl2_5 3.456808 1_454
Tl0_2 Tl2_1 3.456809 1_554
Tl0_2 Tl1_2 3.456810 1_555
Tl0_2 Tl0_6 3.562104 1_555
Tl0_2 Tl0_6 3.562104 1_455
Tl0_2 Tl0_4 3.562105 1_455
Tl0_2 Tl0_4 3.562105 1_565
Tl0_3 Tl1_7 3.456807 1_455
Tl0_3 Tl1_5 3.456807 1_455
Tl0_3 Tl2_2 3.456807 1_555
Tl0_3 Tl2_4 3.456808 1_455
Tl0_3 Tl2_0 3.456809 1_555
Tl0_3 Tl1_3 3.456810 1_555
Tl0_3 Tl0_7 3.562104 1_455
Tl0_3 Tl0_7 3.562104 1_555
Tl0_3 Tl0_5 3.562105 1_455
Tl0_3 Tl0_5 3.562105 1_565
Tl0_4 Tl1_0 3.456807 1_555
Tl0_4 Tl1_2 3.456807 1_545
Tl0_4 Tl2_5 3.456807 1_554
Tl0_4 Tl2_3 3.456808 1_544
Tl0_4 Tl2_7 3.456809 1_544
Tl0_4 Tl1_4 3.456810 1_555
Tl0_4 Tl0_6 3.562103 1_555
Tl0_4 Tl0_6 3.562103 1_545
Tl0_5 Tl1_1 3.456807 1_555
Tl0_5 Tl1_3 3.456807 1_545
Tl0_5 Tl2_4 3.456807 1_555
Tl0_5 Tl2_2 3.456808 1_545
Tl0_5 Tl2_6 3.456809 1_545
Tl0_5 Tl1_5 3.456810 1_555
Tl0_5 Tl0_7 3.562103 1_555
Tl0_5 Tl0_7 3.562103 1_545
Tl0_6 Tl1_2 3.456807 1_555
Tl0_6 Tl1_0 3.456807 1_555
Tl0_6 Tl2_7 3.456807 1_554
Tl0_6 Tl2_1 3.456808 1_554
Tl0_6 Tl2_5 3.456809 1_554
Tl0_6 Tl1_6 3.456810 1_555
Tl0_7 Tl1_3 3.456807 1_555
Tl0_7 Tl1_1 3.456807 1_555
Tl0_7 Tl2_6 3.456807 1_555
Tl0_7 Tl2_0 3.456808 1_555
Tl0_7 Tl2_4 3.456809 1_555
Tl0_7 Tl1_7 3.456810 1_555
Tl1_0 Tl2_4 3.380884 1_555
Tl1_0 Tl2_6 3.380886 1_545
Tl1_0 Tl2_2 3.380887 1_545
Tl1_0 Tl1_2 3.562103 1_555
Tl1_0 Tl1_2 3.562103 1_545
Tl1_0 Tl1_4 3.562104 1_455
Tl1_0 Tl1_4 3.562104 1_555
Tl1_0 Tl1_6 3.562105 1_445
Tl1_0 Tl1_6 3.562105 1_555
Tl1_1 Tl2_5 3.380884 1_555
Tl1_1 Tl2_7 3.380886 1_545
Tl1_1 Tl2_3 3.380887 1_545
Tl1_1 Tl1_3 3.562103 1_555
Tl1_1 Tl1_3 3.562103 1_545
Tl1_1 Tl1_5 3.562104 1_555
Tl1_1 Tl1_5 3.562104 1_455
Tl1_1 Tl1_7 3.562105 1_555
Tl1_1 Tl1_7 3.562105 1_445
Tl1_2 Tl2_6 3.380884 1_555
Tl1_2 Tl2_4 3.380886 1_555
Tl1_2 Tl2_0 3.380887 1_555
Tl1_2 Tl1_6 3.562104 1_555
Tl1_2 Tl1_6 3.562104 1_455
Tl1_2 Tl1_4 3.562105 1_455
Tl1_2 Tl1_4 3.562105 1_565
Tl1_3 Tl2_7 3.380884 1_555
Tl1_3 Tl2_5 3.380886 1_555
Tl1_3 Tl2_1 3.380887 1_555
Tl1_3 Tl1_7 3.562104 1_555
Tl1_3 Tl1_7 3.562104 1_455
Tl1_3 Tl1_5 3.562105 1_455
Tl1_3 Tl1_5 3.562105 1_565
Tl1_4 Tl2_0 3.380884 1_655
Tl1_4 Tl2_2 3.380886 1_645
Tl1_4 Tl2_6 3.380887 1_545
Tl1_4 Tl1_6 3.562103 1_545
Tl1_4 Tl1_6 3.562103 1_555
Tl1_5 Tl2_1 3.380884 1_655
Tl1_5 Tl2_3 3.380886 1_645
Tl1_5 Tl2_7 3.380887 1_545
Tl1_5 Tl1_7 3.562103 1_555
Tl1_5 Tl1_7 3.562103 1_545
Tl1_6 Tl2_2 3.380884 1_655
Tl1_6 Tl2_0 3.380886 1_655
Tl1_6 Tl2_4 3.380887 1_555
Tl1_7 Tl2_3 3.380884 1_655
Tl1_7 Tl2_1 3.380886 1_655
Tl1_7 Tl2_5 3.380887 1_555
Tl2_0 Tl2_2 3.562103 1_555
Tl2_0 Tl2_2 3.562103 1_545
Tl2_0 Tl2_4 3.562104 1_555
Tl2_0 Tl2_4 3.562104 1_455
Tl2_0 Tl2_6 3.562105 1_555
Tl2_0 Tl2_6 3.562105 1_445
Tl2_1 Tl2_3 3.562103 1_555
Tl2_1 Tl2_3 3.562103 1_545
Tl2_1 Tl2_5 3.562104 1_555
Tl2_1 Tl2_5 3.562104 1_455
Tl2_1 Tl2_7 3.562105 1_555
Tl2_1 Tl2_7 3.562105 1_445
Tl2_2 Tl2_6 3.562104 1_555
Tl2_2 Tl2_6 3.562104 1_455
Tl2_2 Tl2_4 3.562105 1_455
Tl2_2 Tl2_4 3.562105 1_565
Tl2_3 Tl2_7 3.562104 1_555
Tl2_3 Tl2_7 3.562104 1_455
Tl2_3 Tl2_5 3.562105 1_455
Tl2_3 Tl2_5 3.562105 1_565
Tl2_4 Tl2_6 3.562103 1_555
Tl2_4 Tl2_6 3.562103 1_545
Tl2_5 Tl2_7 3.562103 1_555
Tl2_5 Tl2_7 3.562103 1_545
