# generated using pymatgen
data_Zn3Cd
_symmetry_space_group_name_H-M   'P 1'
_cell_length_a   4.92358465
_cell_length_b   4.92358465
_cell_length_c   4.92358465
_cell_angle_alpha   131.69867925
_cell_angle_beta   131.69867925
_cell_angle_gamma   70.70534861
_symmetry_Int_Tables_number   1
_chemical_formula_structural   Zn3Cd
_chemical_formula_sum   'Zn3 Cd1'
_cell_volume   65.18130229
_cell_formula_units_Z   1
loop_
 _symmetry_equiv_pos_site_id
 _symmetry_equiv_pos_as_xyz
  1  'x, y, z'
loop_
 _atom_site_type_symbol
 _atom_site_label
 _atom_site_symmetry_multiplicity
 _atom_site_fract_x
 _atom_site_fract_y
 _atom_site_fract_z
 _atom_site_occupancy
  Zn  Zn0  1  0.74999800  0.25000000  0.49999800  1
  Zn  Zn1  1  0.25000000  0.74999800  0.49999800  1
  Zn  Zn2  1  0.50000000  0.50000000  -0.00000000  1
  Cd  Cd0  1  0.00000000  -0.00000000  -0.00000000  1
loop_
_geom_bond_atom_site_label_1
_geom_bond_atom_site_label_2
_geom_bond_distance
_geom_bond_site_symmetry_2
Zn0 Zn2 2.844176 1_555
Zn0 Zn2 2.844182 1_545
Zn0 Zn2 2.844182 1_556
Zn0 Zn2 2.844188 1_656
Zn0 Zn1 2.848813 1_555
Zn0 Zn1 2.848824 1_544
Zn0 Zn1 2.848824 1_656
Zn0 Zn1 2.848835 1_645
Zn1 Zn2 2.844176 1_555
Zn1 Zn2 2.844182 1_455
Zn1 Zn2 2.844182 1_556
Zn1 Zn2 2.844188 1_566
Cd0 Zn0 2.844176 1_555
Cd0 Zn1 2.844176 1_555
Cd0 Zn1 2.844182 1_444
Cd0 Zn1 2.844182 1_545
Cd0 Zn0 2.844182 1_455
Cd0 Zn0 2.844182 1_444
Cd0 Zn0 2.844188 1_454
Cd0 Zn1 2.844188 1_544
Cd0 Zn2 2.848824 1_444
Cd0 Zn2 2.848824 1_455
Cd0 Zn2 2.848824 1_556
Cd0 Zn2 2.848824 1_545
