# generated using pymatgen
data_CsRb2Sb
_symmetry_space_group_name_H-M   'P 1'
_cell_length_a   6.31541760
_cell_length_b   6.31541760
_cell_length_c   6.31541760
_cell_angle_alpha   60.00000000
_cell_angle_beta   60.00000000
_cell_angle_gamma   60.00000000
_symmetry_Int_Tables_number   1
_chemical_formula_structural   CsRb2Sb
_chemical_formula_sum   'Cs1 Rb2 Sb1'
_cell_volume   178.11119650
_cell_formula_units_Z   1
loop_
 _symmetry_equiv_pos_site_id
 _symmetry_equiv_pos_as_xyz
  1  'x, y, z'
loop_
 _atom_site_type_symbol
 _atom_site_label
 _atom_site_symmetry_multiplicity
 _atom_site_fract_x
 _atom_site_fract_y
 _atom_site_fract_z
 _atom_site_occupancy
  Cs  Cs0  1  0.24999900  0.24999900  0.24999900  1
  Rb  Rb0  1  -0.00000000  -0.00000000  0.00000000  1
  Rb  Rb1  1  0.50000000  0.50000000  0.50000000  1
  Sb  Sb0  1  0.75000000  0.75000000  0.75000000  1
loop_
_geom_bond_atom_site_label_1
_geom_bond_atom_site_label_2
_geom_bond_distance
_geom_bond_site_symmetry_2
Cs0 Rb0 3.867372 1_555
Cs0 Rb1 3.867383 1_455
Cs0 Rb1 3.867383 1_545
Cs0 Rb1 3.867383 1_554
Cs0 Rb0 3.867393 1_565
Cs0 Rb0 3.867393 1_655
Cs0 Rb0 3.867393 1_556
Cs0 Rb1 3.867403 1_555
Cs0 Sb0 4.465666 1_445
Cs0 Sb0 4.465666 1_544
Cs0 Sb0 4.465666 1_454
Cs0 Sb0 4.465684 1_455
Cs0 Sb0 4.465684 1_554
Cs0 Sb0 4.465684 1_545
Rb0 Sb0 3.867388 1_544
Rb0 Sb0 3.867388 1_454
Rb0 Sb0 3.867388 1_444
Rb0 Sb0 3.867388 1_445
Rb1 Sb0 3.867388 1_455
Rb1 Sb0 3.867388 1_545
Rb1 Sb0 3.867388 1_555
Rb1 Sb0 3.867388 1_554
