# generated using pymatgen
data_DyB4Ru
_symmetry_space_group_name_H-M   'P 1'
_cell_length_a   3.55193175
_cell_length_b   5.94465373
_cell_length_c   11.49862052
_cell_angle_alpha   90.00000000
_cell_angle_beta   90.00000000
_cell_angle_gamma   90.00000000
_symmetry_Int_Tables_number   1
_chemical_formula_structural   DyB4Ru
_chemical_formula_sum   'Dy4 B16 Ru4'
_cell_volume   242.79342203
_cell_formula_units_Z   4
loop_
 _symmetry_equiv_pos_site_id
 _symmetry_equiv_pos_as_xyz
  1  'x, y, z'
loop_
 _atom_site_type_symbol
 _atom_site_label
 _atom_site_symmetry_multiplicity
 _atom_site_fract_x
 _atom_site_fract_y
 _atom_site_fract_z
 _atom_site_occupancy
  Dy  Dy0  1  0.00000000  0.12864344  0.64999659  1
  Dy  Dy1  1  -0.00000000  0.87135656  0.35000341  1
  Dy  Dy2  1  0.00000000  0.62864344  0.85000341  1
  Dy  Dy3  1  -0.00000000  0.37135656  0.14999659  1
  B  B0  1  0.50000000  0.47602262  0.69141340  1
  B  B1  1  0.50000000  0.52397738  0.30858660  1
  B  B2  1  0.50000000  0.97602262  0.80858660  1
  B  B3  1  0.50000000  0.02397738  0.19141340  1
  B  B4  1  0.50000000  0.28855741  0.81474972  1
  B  B5  1  0.50000000  0.71144259  0.18525028  1
  B  B6  1  0.50000000  0.78855741  0.68525028  1
  B  B7  1  0.50000000  0.21144259  0.31474972  1
  B  B8  1  0.50000000  0.36349272  0.96976921  1
  B  B9  1  0.50000000  0.63650728  0.03023079  1
  B  B10  1  0.50000000  0.86349272  0.53023079  1
  B  B11  1  0.50000000  0.13650728  0.46976921  1
  B  B12  1  0.50000000  0.38807308  0.54663329  1
  B  B13  1  0.50000000  0.61192692  0.45336671  1
  B  B14  1  0.50000000  0.88807308  0.95336671  1
  B  B15  1  0.50000000  0.11192692  0.04663329  1
  Ru  Ru0  1  -0.00000000  0.14014505  0.90749277  1
  Ru  Ru1  1  -0.00000000  0.85985495  0.09250723  1
  Ru  Ru2  1  0.00000000  0.64014505  0.59250723  1
  Ru  Ru3  1  -0.00000000  0.35985495  0.40749277  1
loop_
_geom_bond_atom_site_label_1
_geom_bond_atom_site_label_2
_geom_bond_distance
_geom_bond_site_symmetry_2
Dy0 Ru0 2.961640 1_555
Dy0 Ru2 2.978243 1_545
Dy0 Ru3 3.108807 1_555
Dy0 Ru2 3.111726 1_555
Dy1 Ru1 2.961640 1_555
Dy1 Ru3 2.978243 1_565
Dy1 Ru2 3.108807 1_555
Dy1 Ru3 3.111726 1_555
Dy2 Ru2 2.961640 1_555
Dy2 Ru0 2.978243 1_555
Dy2 Ru1 3.108807 1_556
Dy2 Ru0 3.111726 1_565
Dy3 Ru3 2.961640 1_555
Dy3 Ru1 2.978243 1_555
Dy3 Ru0 3.108807 1_554
Dy3 Ru1 3.111726 1_545
B0 B12 1.744940 1_555
B0 B4 1.803665 1_555
B0 B6 1.859262 1_555
B0 Ru2 2.323654 1_555
B0 Ru2 2.323654 1_655
B0 Dy2 2.702333 1_555
B0 Dy2 2.702333 1_655
B0 Dy0 2.765010 1_555
B0 Dy0 2.765010 1_655
B1 B13 1.744940 1_555
B1 B5 1.803665 1_555
B1 B7 1.859262 1_555
B1 Ru3 2.323654 1_655
B1 Ru3 2.323654 1_555
B1 Dy3 2.702333 1_555
B1 Dy3 2.702333 1_655
B1 Dy1 2.765010 1_555
B1 Dy1 2.765010 1_655
B2 B6 1.803665 1_555
B2 B4 1.859262 1_565
B2 Ru0 2.323654 1_665
B2 Ru0 2.323654 1_565
B2 Dy0 2.702333 1_565
B2 Dy0 2.702333 1_665
B2 Dy2 2.765010 1_555
B2 Dy2 2.765010 1_655
B3 B7 1.803665 1_555
B3 B5 1.859262 1_545
B3 Ru1 2.323654 1_545
B3 Ru1 2.323654 1_645
B3 Dy1 2.702333 1_545
B3 Dy1 2.702333 1_645
B3 Dy3 2.765010 1_555
B3 Dy3 2.765010 1_655
B4 B8 1.837330 1_555
B4 Ru0 2.251596 1_655
B4 Ru0 2.251596 1_555
B4 Dy2 2.721328 1_555
B4 Dy2 2.721328 1_655
B4 Dy0 2.765255 1_655
B4 Dy0 2.765255 1_555
B5 B9 1.837330 1_555
B5 Ru1 2.251596 1_655
B5 Ru1 2.251596 1_555
B5 Dy3 2.721328 1_555
B5 Dy3 2.721328 1_655
B5 Dy1 2.765255 1_655
B5 Dy1 2.765255 1_555
B6 Ru2 2.251596 1_655
B6 Ru2 2.251596 1_555
B6 Dy0 2.721328 1_565
B6 Dy0 2.721328 1_665
B6 Dy2 2.765255 1_555
B6 Dy2 2.765255 1_655
B7 Ru3 2.251596 1_655
B7 Ru3 2.251596 1_555
B7 Dy1 2.721328 1_645
B7 Dy1 2.721328 1_545
B7 Dy3 2.765255 1_555
B7 Dy3 2.765255 1_655
B8 B9 1.765614 1_556
B8 Ru0 2.330171 1_555
B8 Ru0 2.330171 1_655
B8 Dy3 2.729641 1_656
B8 Dy3 2.729641 1_556
B8 Dy2 2.745009 1_655
B8 Dy2 2.745009 1_555
B9 Ru1 2.330171 1_655
B9 Ru1 2.330171 1_555
B9 Dy2 2.729641 1_654
B9 Dy2 2.729641 1_554
B9 Dy3 2.745009 1_655
B9 Dy3 2.745009 1_555
B10 B13 1.737122 1_555
B10 B11 1.765614 1_565
B10 B6 1.837330 1_555
B10 Ru2 2.330171 1_555
B10 Ru2 2.330171 1_655
B10 Dy1 2.729641 1_555
B10 Dy1 2.729641 1_655
B10 Dy0 2.745009 1_565
B10 Dy0 2.745009 1_665
B11 B12 1.737122 1_555
B11 B7 1.837330 1_555
B11 Ru3 2.330171 1_655
B11 Ru3 2.330171 1_555
B11 Dy0 2.729641 1_655
B11 Dy0 2.729641 1_555
B11 Dy1 2.745009 1_645
B11 Dy1 2.745009 1_545
B12 B13 1.709085 1_555
B12 Ru2 2.382801 1_555
B12 Ru2 2.382801 1_655
B12 Ru3 2.396237 1_655
B12 Ru3 2.396237 1_555
B12 Dy0 2.635358 1_655
B12 Dy0 2.635358 1_555
B13 Ru3 2.382801 1_555
B13 Ru3 2.382801 1_655
B13 Ru2 2.396237 1_655
B13 Ru2 2.396237 1_555
B13 Dy1 2.635358 1_655
B13 Dy1 2.635358 1_555
B14 B15 1.709085 1_566
B14 B9 1.737122 1_556
B14 B2 1.744940 1_555
B14 Ru0 2.382801 1_665
B14 Ru0 2.382801 1_565
B14 Ru1 2.396237 1_556
B14 Ru1 2.396237 1_656
B14 Dy2 2.635358 1_555
B14 Dy2 2.635358 1_655
B15 B8 1.737122 1_554
B15 B3 1.744940 1_555
B15 Ru1 2.382801 1_545
B15 Ru1 2.382801 1_645
B15 Ru0 2.396237 1_654
B15 Ru0 2.396237 1_554
B15 Dy3 2.635358 1_555
B15 Dy3 2.635358 1_655
Ru0 Ru1 2.702257 1_546
Ru2 Ru3 2.702257 1_555
