# generated using pymatgen
data_MgPb5
_symmetry_space_group_name_H-M   'P 1'
_cell_length_a   6.75371782
_cell_length_b   6.75371782
_cell_length_c   6.75371819
_cell_angle_alpha   52.04077123
_cell_angle_beta   52.04077123
_cell_angle_gamma   52.04076983
_symmetry_Int_Tables_number   1
_chemical_formula_structural   MgPb5
_chemical_formula_sum   'Mg1 Pb5'
_cell_volume   177.07124046
_cell_formula_units_Z   1
loop_
 _symmetry_equiv_pos_site_id
 _symmetry_equiv_pos_as_xyz
  1  'x, y, z'
loop_
 _atom_site_type_symbol
 _atom_site_label
 _atom_site_symmetry_multiplicity
 _atom_site_fract_x
 _atom_site_fract_y
 _atom_site_fract_z
 _atom_site_occupancy
  Mg  Mg0  1  0.50000000  0.50000000  0.50000000  1
  Pb  Pb0  1  0.33624109  0.00000000  0.66375891  1
  Pb  Pb1  1  1.00000000  0.66375891  0.33624109  1
  Pb  Pb2  1  0.66375891  0.33624109  0.00000000  1
  Pb  Pb3  1  0.16528994  0.16528994  0.16528994  1
  Pb  Pb4  1  0.83471006  0.83471006  0.83471006  1
loop_
_geom_bond_atom_site_label_1
_geom_bond_atom_site_label_2
_geom_bond_distance
_geom_bond_site_symmetry_2
Mg0 Pb4 3.421225 1_545
Mg0 Pb4 3.421225 1_455
Mg0 Pb3 3.421225 1_565
Mg0 Pb3 3.421225 1_655
Mg0 Pb3 3.421225 1_556
Mg0 Pb4 3.421225 1_554
Mg0 Pb0 3.513515 1_555
Mg0 Pb1 3.513515 1_555
Mg0 Pb0 3.513515 1_565
Mg0 Pb1 3.513515 1_455
Mg0 Pb2 3.513516 1_555
Mg0 Pb2 3.513516 1_556
Pb0 Pb1 3.406317 1_545
Pb0 Pb1 3.406317 1_455
Pb0 Pb2 3.406317 1_546
Pb0 Pb2 3.406317 1_555
Pb0 Pb2 3.450984 1_456
Pb0 Pb1 3.450984 1_446
Pb0 Pb4 3.508193 1_445
Pb0 Pb3 3.508193 1_556
Pb0 Pb4 3.533471 1_545
Pb0 Pb3 3.533471 1_555
Pb1 Pb2 3.406317 1_655
Pb1 Pb2 3.406317 1_556
Pb1 Pb2 3.450984 1_565
Pb1 Pb3 3.508193 1_665
Pb1 Pb4 3.508193 1_554
Pb1 Pb3 3.533471 1_655
Pb1 Pb4 3.533471 1_555
Pb2 Pb4 3.508193 1_544
Pb2 Pb3 3.508193 1_655
Pb2 Pb4 3.533471 1_554
Pb2 Pb3 3.533471 1_555
