# generated using pymatgen
data_LaTe2
_symmetry_space_group_name_H-M   'P 1'
_cell_length_a   9.14447651
_cell_length_b   9.14447651
_cell_length_c   9.27849189
_cell_angle_alpha   90.00000000
_cell_angle_beta   90.00000000
_cell_angle_gamma   90.00000000
_symmetry_Int_Tables_number   1
_chemical_formula_structural   LaTe2
_chemical_formula_sum   'La8 Te16'
_cell_volume   775.88095161
_cell_formula_units_Z   8
loop_
 _symmetry_equiv_pos_site_id
 _symmetry_equiv_pos_as_xyz
  1  'x, y, z'
loop_
 _atom_site_type_symbol
 _atom_site_label
 _atom_site_symmetry_multiplicity
 _atom_site_fract_x
 _atom_site_fract_y
 _atom_site_fract_z
 _atom_site_occupancy
  La  La0  1  0.25165292  0.75165292  0.27364349  1
  La  La1  1  -0.00000000  0.50000000  0.72712655  1
  La  La2  1  -0.00000000  -0.00000000  0.72638056  1
  La  La3  1  0.50000000  -0.00000000  0.72712655  1
  La  La4  1  0.24834708  0.25165292  0.27364349  1
  La  La5  1  0.74834708  0.24834708  0.27364349  1
  La  La6  1  0.50000000  0.50000000  0.72638056  1
  La  La7  1  0.75165292  0.74834708  0.27364349  1
  Te  Te0  1  0.50428671  0.74975983  0.00019939  1
  Te  Te1  1  0.25024017  0.50428671  0.00019939  1
  Te  Te2  1  0.75040895  0.74959105  0.63329762  1
  Te  Te3  1  0.50000000  0.50000000  0.36679729  1
  Te  Te4  1  0.74959105  0.24959105  0.63329762  1
  Te  Te5  1  0.75024017  0.99571329  0.00019939  1
  Te  Te6  1  0.50000000  -0.00000000  0.36742880  1
  Te  Te7  1  -0.00000000  0.50000000  0.36742880  1
  Te  Te8  1  0.24975983  0.00428671  0.00019939  1
  Te  Te9  1  0.74975983  0.49571329  0.00019939  1
  Te  Te10  1  -0.00000000  -0.00000000  0.36679729  1
  Te  Te11  1  0.00428671  0.75024017  0.00019939  1
  Te  Te12  1  0.99571329  0.24975983  0.00019939  1
  Te  Te13  1  0.49571329  0.25024017  0.00019939  1
  Te  Te14  1  0.24959105  0.25040895  0.63329762  1
  Te  Te15  1  0.25040895  0.75040895  0.63329762  1
loop_
_geom_bond_atom_site_label_1
_geom_bond_atom_site_label_2
_geom_bond_distance
_geom_bond_site_symmetry_2
La0 Te6 3.327483 1_565
La0 Te15 3.337087 1_555
La0 Te10 3.346670 1_565
La0 Te3 3.346670 1_555
La0 Te7 3.368766 1_555
La0 Te11 3.399131 1_555
La0 Te1 3.399131 1_555
La0 Te8 3.431394 1_565
La0 Te0 3.431394 1_555
La1 Te7 3.337453 1_555
La1 Te14 3.343118 1_555
La1 Te2 3.343118 1_455
La1 Te4 3.353332 1_455
La1 Te15 3.353332 1_555
La1 Te11 3.414320 1_556
La1 Te1 3.414320 1_556
La1 Te9 3.414320 1_456
La1 Te12 3.414320 1_456
La2 Te10 3.336390 1_555
La2 Te2 3.346436 1_445
La2 Te14 3.346436 1_555
La2 Te4 3.346436 1_455
La2 Te15 3.346436 1_545
La2 Te8 3.416522 1_556
La2 Te11 3.416522 1_546
La2 Te12 3.416522 1_456
La2 Te5 3.416522 1_446
La3 Te6 3.337453 1_555
La3 Te4 3.343118 1_555
La3 Te15 3.343118 1_545
La3 Te2 3.353332 1_545
La3 Te14 3.353332 1_555
La3 Te5 3.414320 1_546
La3 Te8 3.414320 1_556
La3 Te0 3.414320 1_546
La3 Te13 3.414320 1_556
La4 Te7 3.327483 1_555
La4 Te14 3.337087 1_555
La4 Te10 3.346670 1_555
La4 Te3 3.346670 1_555
La4 Te6 3.368766 1_555
La4 Te8 3.399131 1_555
La4 Te13 3.399131 1_555
La4 Te1 3.431394 1_555
La4 Te12 3.431394 1_455
La5 Te6 3.327483 1_555
La5 Te4 3.337087 1_555
La5 Te10 3.346670 1_655
La5 Te3 3.346670 1_555
La5 Te7 3.368766 1_655
La5 Te12 3.399131 1_555
La5 Te9 3.399131 1_555
La5 Te5 3.431394 1_545
La5 Te13 3.431394 1_555
La6 Te3 3.336390 1_555
La6 Te15 3.346436 1_555
La6 Te4 3.346436 1_555
La6 Te2 3.346436 1_555
La6 Te14 3.346436 1_555
La6 Te9 3.416522 1_556
La6 Te0 3.416522 1_556
La6 Te13 3.416522 1_556
La6 Te1 3.416522 1_556
La7 Te7 3.327483 1_655
La7 Te2 3.337087 1_555
La7 Te10 3.346670 1_665
La7 Te3 3.346670 1_555
La7 Te6 3.368766 1_565
La7 Te5 3.399131 1_555
La7 Te0 3.399131 1_555
La7 Te11 3.431394 1_655
La7 Te9 3.431394 1_555
Te0 Te5 3.180730 1_555
Te0 Te9 3.230430 1_555
Te0 Te1 3.230430 1_555
Te0 Te8 3.291603 1_565
Te1 Te11 3.180730 1_555
Te1 Te13 3.230430 1_555
Te1 Te12 3.291603 1_455
Te11 Te8 3.230430 1_565
Te11 Te5 3.230430 1_455
Te11 Te9 3.291603 1_455
Te12 Te9 3.180730 1_555
Te12 Te8 3.230430 1_655
Te12 Te5 3.230430 1_545
Te13 Te8 3.180730 1_555
Te13 Te9 3.230430 1_555
Te13 Te5 3.291603 1_545
