# generated using pymatgen
data_Nb3Fe
_symmetry_space_group_name_H-M   'P 1'
_cell_length_a   5.34025047
_cell_length_b   5.34025047
_cell_length_c   5.34025047
_cell_angle_alpha   138.39444792
_cell_angle_beta   138.39444792
_cell_angle_gamma   60.29941731
_symmetry_Int_Tables_number   1
_chemical_formula_structural   Nb3Fe
_chemical_formula_sum   'Nb3 Fe1'
_cell_volume   66.44273775
_cell_formula_units_Z   1
loop_
 _symmetry_equiv_pos_site_id
 _symmetry_equiv_pos_as_xyz
  1  'x, y, z'
loop_
 _atom_site_type_symbol
 _atom_site_label
 _atom_site_symmetry_multiplicity
 _atom_site_fract_x
 _atom_site_fract_y
 _atom_site_fract_z
 _atom_site_occupancy
  Nb  Nb0  1  0.50000000  0.50000000  0.00000000  1
  Nb  Nb1  1  0.75000000  0.25000000  0.50000000  1
  Nb  Nb2  1  0.25000000  0.75000000  0.50000000  1
  Fe  Fe0  1  0.00000000  0.00000000  0.00000000  1
loop_
_geom_bond_atom_site_label_1
_geom_bond_atom_site_label_2
_geom_bond_distance
_geom_bond_site_symmetry_2
Nb0 Nb2 2.987996 1_544
Nb0 Nb1 2.987996 1_565
Nb0 Nb1 2.987996 1_554
Nb0 Nb2 2.987996 1_655
Nb0 Nb1 2.987996 1_454
Nb0 Nb1 2.987996 1_555
Nb0 Nb2 2.987996 1_555
Nb0 Nb2 2.987996 1_554
Nb1 Nb2 2.682200 1_656
Nb1 Nb2 2.682200 1_555
Nb1 Nb2 2.682200 1_544
Nb1 Nb2 2.682200 1_645
Fe0 Nb0 2.682200 1_545
Fe0 Nb0 2.682200 1_455
Fe0 Nb0 2.682200 1_556
Fe0 Nb0 2.682200 1_444
Fe0 Nb1 2.987996 1_444
Fe0 Nb2 2.987996 1_544
Fe0 Nb2 2.987996 1_444
Fe0 Nb2 2.987996 1_545
Fe0 Nb1 2.987996 1_455
Fe0 Nb1 2.987996 1_454
Fe0 Nb1 2.987996 1_555
Fe0 Nb2 2.987996 1_555
