# generated using pymatgen
data_Mg3Os
_symmetry_space_group_name_H-M   'P 1'
_cell_length_a   4.88182012
_cell_length_b   4.88182012
_cell_length_c   4.88182012
_cell_angle_alpha   128.58555860
_cell_angle_beta   128.58555860
_cell_angle_gamma   75.67834773
_symmetry_Int_Tables_number   1
_chemical_formula_structural   Mg3Os
_chemical_formula_sum   'Mg3 Os1'
_cell_volume   69.15306495
_cell_formula_units_Z   1
loop_
 _symmetry_equiv_pos_site_id
 _symmetry_equiv_pos_as_xyz
  1  'x, y, z'
loop_
 _atom_site_type_symbol
 _atom_site_label
 _atom_site_symmetry_multiplicity
 _atom_site_fract_x
 _atom_site_fract_y
 _atom_site_fract_z
 _atom_site_occupancy
  Mg  Mg0  1  0.50000000  0.50000000  0.00000000  1
  Mg  Mg1  1  0.75000000  0.25000000  0.50000000  1
  Mg  Mg2  1  0.25000000  0.75000000  0.50000000  1
  Os  Os0  1  0.00000000  0.00000000  0.00000000  1
loop_
_geom_bond_atom_site_label_1
_geom_bond_atom_site_label_2
_geom_bond_distance
_geom_bond_site_symmetry_2
Mg0 Mg1 2.863592 1_555
Mg0 Mg2 2.863592 1_544
Mg0 Mg2 2.863592 1_555
Mg0 Mg1 2.863592 1_554
Mg0 Mg1 2.863592 1_565
Mg0 Mg2 2.863592 1_554
Mg0 Mg1 2.863592 1_454
Mg0 Mg2 2.863592 1_655
Mg0 Os0 2.994739 1_565
Mg0 Os0 2.994739 1_655
Mg0 Os0 2.994739 1_554
Mg0 Os0 2.994739 1_666
Mg1 Os0 2.863592 1_655
Mg1 Os0 2.863592 1_656
Mg1 Os0 2.863592 1_666
Mg1 Os0 2.863592 1_555
Mg1 Mg2 2.994739 1_645
Mg1 Mg2 2.994739 1_555
Mg1 Mg2 2.994739 1_544
Mg1 Mg2 2.994739 1_656
Mg2 Os0 2.863592 1_565
Mg2 Os0 2.863592 1_566
Mg2 Os0 2.863592 1_555
Mg2 Os0 2.863592 1_666
