# generated using pymatgen
data_NaMgP
_symmetry_space_group_name_H-M   'P 1'
_cell_length_a   4.47405977
_cell_length_b   4.47405977
_cell_length_c   4.47405977
_cell_angle_alpha   60.00000000
_cell_angle_beta   60.00000000
_cell_angle_gamma   60.00000000
_symmetry_Int_Tables_number   1
_chemical_formula_structural   NaMgP
_chemical_formula_sum   'Na1 Mg1 P1'
_cell_volume   63.32720871
_cell_formula_units_Z   1
loop_
 _symmetry_equiv_pos_site_id
 _symmetry_equiv_pos_as_xyz
  1  'x, y, z'
loop_
 _atom_site_type_symbol
 _atom_site_label
 _atom_site_symmetry_multiplicity
 _atom_site_fract_x
 _atom_site_fract_y
 _atom_site_fract_z
 _atom_site_occupancy
  Na  Na0  1  0.75000000  0.75000000  0.75000000  1
  Mg  Mg0  1  0.50000000  0.50000000  0.50000000  1
  P  P0  1  0.00000000  0.00000000  0.00000000  1
loop_
_geom_bond_atom_site_label_1
_geom_bond_atom_site_label_2
_geom_bond_distance
_geom_bond_site_symmetry_2
Na0 P0 2.739791 1_566
Na0 P0 2.739791 1_666
Na0 P0 2.739791 1_665
Na0 P0 2.739791 1_656
Mg0 Na0 2.739791 1_455
Mg0 Na0 2.739791 1_554
Mg0 Na0 2.739791 1_555
Mg0 Na0 2.739791 1_545
Mg0 P0 3.163638 1_656
Mg0 P0 3.163638 1_565
Mg0 P0 3.163638 1_566
Mg0 P0 3.163638 1_655
Mg0 P0 3.163638 1_556
Mg0 P0 3.163638 1_665
