# generated using pymatgen
data_Mg5Hg
_symmetry_space_group_name_H-M   'P 1'
_cell_length_a   5.41370170
_cell_length_b   5.41369779
_cell_length_c   5.92655317
_cell_angle_alpha   116.70411363
_cell_angle_beta   63.29586422
_cell_angle_gamma   119.89821488
_symmetry_Int_Tables_number   1
_chemical_formula_structural   Mg5Hg
_chemical_formula_sum   'Mg5 Hg1'
_cell_volume   128.69591426
_cell_formula_units_Z   1
loop_
 _symmetry_equiv_pos_site_id
 _symmetry_equiv_pos_as_xyz
  1  'x, y, z'
loop_
 _atom_site_type_symbol
 _atom_site_label
 _atom_site_symmetry_multiplicity
 _atom_site_fract_x
 _atom_site_fract_y
 _atom_site_fract_z
 _atom_site_occupancy
  Mg  Mg0  1  0.99351110  0.99945572  0.99906093  1
  Mg  Mg1  1  0.67295265  0.33961777  0.99999930  1
  Mg  Mg2  1  0.33278854  0.66017669  0.00093726  1
  Mg  Mg3  1  0.50042431  0.83373794  0.50064595  1
  Mg  Mg4  1  0.16707072  0.16709147  0.49935108  1
  Hg  Hg0  1  0.83324868  0.49991741  0.50000147  1
loop_
_geom_bond_atom_site_label_1
_geom_bond_atom_site_label_2
_geom_bond_distance
_geom_bond_site_symmetry_2
Mg0 Mg4 3.088984 1_665
Mg0 Mg1 3.093706 1_565
Mg0 Mg1 3.098568 1_555
Mg0 Mg2 3.098577 1_666
Mg0 Mg2 3.098587 1_556
Mg0 Mg3 3.105626 1_556
Mg0 Mg4 3.119781 1_666
Mg0 Mg3 3.138208 1_655
Mg0 Mg2 3.185500 1_656
Mg0 Mg1 3.190212 1_665
Mg1 Mg2 3.093719 1_556
Mg1 Mg2 3.098560 1_656
Mg1 Mg4 3.114206 1_655
Mg1 Mg3 3.114211 1_556
Mg1 Mg4 3.127426 1_556
Mg1 Mg3 3.127433 1_545
Mg1 Mg2 3.190207 1_546
Mg2 Mg3 3.088976 1_555
Mg2 Mg4 3.105629 1_554
Mg2 Mg3 3.119792 1_554
Mg2 Mg4 3.138210 1_565
Mg3 Mg4 3.126731 1_555
Mg3 Mg4 3.126733 1_665
Mg3 Mg4 3.128177 1_565
Hg0 Mg1 3.088104 1_555
Hg0 Mg1 3.088112 1_554
Hg0 Mg0 3.097191 1_555
Hg0 Mg2 3.097208 1_655
Hg0 Mg2 3.115489 1_556
Hg0 Mg0 3.115511 1_544
Hg0 Mg4 3.121911 1_655
Hg0 Mg3 3.121915 1_555
Hg0 Mg3 3.127510 1_545
Hg0 Mg4 3.127514 1_555
Hg0 Mg4 3.132190 1_665
Hg0 Mg3 3.132191 1_655
