# generated using pymatgen
data_ZrSnPt
_symmetry_space_group_name_H-M   'P 1'
_cell_length_a   4.51201926
_cell_length_b   4.51201784
_cell_length_c   4.51201809
_cell_angle_alpha   59.99999074
_cell_angle_beta   60.00000119
_cell_angle_gamma   59.99998163
_symmetry_Int_Tables_number   1
_chemical_formula_structural   ZrSnPt
_chemical_formula_sum   'Zr1 Sn1 Pt1'
_cell_volume   64.95274361
_cell_formula_units_Z   1
loop_
 _symmetry_equiv_pos_site_id
 _symmetry_equiv_pos_as_xyz
  1  'x, y, z'
loop_
 _atom_site_type_symbol
 _atom_site_label
 _atom_site_symmetry_multiplicity
 _atom_site_fract_x
 _atom_site_fract_y
 _atom_site_fract_z
 _atom_site_occupancy
  Zr  Zr0  1  0.50000000  0.50000000  0.50000000  1
  Sn  Sn0  1  -0.00000000  0.00000000  0.00000000  1
  Pt  Pt0  1  0.25000000  0.25000000  0.25000000  1
loop_
_geom_bond_atom_site_label_1
_geom_bond_atom_site_label_2
_geom_bond_distance
_geom_bond_site_symmetry_2
Sn0 Zr0 3.190478 1_544
Sn0 Zr0 3.190478 1_545
Sn0 Zr0 3.190478 1_455
Sn0 Zr0 3.190478 1_454
Sn0 Zr0 3.190479 1_445
Sn0 Zr0 3.190479 1_554
Pt0 Sn0 2.763035 1_565
Pt0 Zr0 2.763035 1_545
Pt0 Zr0 2.763035 1_554
Pt0 Sn0 2.763035 1_556
Pt0 Sn0 2.763036 1_555
Pt0 Zr0 2.763036 1_555
Pt0 Sn0 2.763036 1_655
Pt0 Zr0 2.763036 1_455
