# generated using pymatgen
data_RbSnBr3
_symmetry_space_group_name_H-M   'P 1'
_cell_length_a   5.87777690
_cell_length_b   5.87664105
_cell_length_c   5.96705268
_cell_angle_alpha   88.95795477
_cell_angle_beta   87.43691013
_cell_angle_gamma   90.26964235
_symmetry_Int_Tables_number   1
_chemical_formula_structural   RbSnBr3
_chemical_formula_sum   'Rb1 Sn1 Br3'
_cell_volume   205.86806440
_cell_formula_units_Z   1
loop_
 _symmetry_equiv_pos_site_id
 _symmetry_equiv_pos_as_xyz
  1  'x, y, z'
loop_
 _atom_site_type_symbol
 _atom_site_label
 _atom_site_symmetry_multiplicity
 _atom_site_fract_x
 _atom_site_fract_y
 _atom_site_fract_z
 _atom_site_occupancy
  Rb  Rb0  1  0.01777105  0.01457352  0.07532408  1
  Sn  Sn0  1  0.49605578  0.49401110  0.46377304  1
  Br  Br0  1  0.49334619  0.47426387  0.00261914  1
  Br  Br1  1  0.49226378  0.97055052  0.44470176  1
  Br  Br2  1  0.97056220  0.49659900  0.44358199  1
loop_
_geom_bond_atom_site_label_1
_geom_bond_atom_site_label_2
_geom_bond_distance
_geom_bond_site_symmetry_2
Br0 Sn0 2.757037 1_555
Br0 Sn0 3.214631 1_554
Br0 Rb0 3.882993 1_555
Br1 Sn0 2.800928 1_555
Br1 Sn0 3.080374 1_565
Br1 Rb0 3.638561 1_565
Br1 Rb0 3.718680 1_665
Br2 Sn0 2.786214 1_555
Br2 Sn0 3.096560 1_655
Br2 Rb0 3.620639 1_655
Br2 Rb0 3.723639 1_665
