# generated using pymatgen
data_LaMnN3
_symmetry_space_group_name_H-M   'P 1'
_cell_length_a   6.43016100
_cell_length_b   6.43016100
_cell_length_c   5.32719700
_cell_angle_alpha   90.00000000
_cell_angle_beta   90.00000000
_cell_angle_gamma   143.38293829
_symmetry_Int_Tables_number   1
_chemical_formula_structural   LaMnN3
_chemical_formula_sum   'La2 Mn2 N6'
_cell_volume   131.37920391
_cell_formula_units_Z   2
loop_
 _symmetry_equiv_pos_site_id
 _symmetry_equiv_pos_as_xyz
  1  'x, y, z'
loop_
 _atom_site_type_symbol
 _atom_site_label
 _atom_site_symmetry_multiplicity
 _atom_site_fract_x
 _atom_site_fract_y
 _atom_site_fract_z
 _atom_site_occupancy
  La  La0  1  0.36949900  0.63050100  0.25000000  1
  La  La1  1  0.63050100  0.36949900  0.75000000  1
  Mn  Mn0  1  0.90659200  0.09340800  0.75000000  1
  Mn  Mn1  1  0.09340800  0.90659200  0.25000000  1
  N  N0  1  0.46592100  0.85201700  0.75000000  1
  N  N1  1  0.14798300  0.53407900  0.75000000  1
  N  N2  1  0.00000000  0.00000000  0.00000000  1
  N  N3  1  0.53407900  0.14798300  0.25000000  1
  N  N4  1  0.85201700  0.46592100  0.25000000  1
  N  N5  1  0.00000000  0.00000000  0.50000000  1
loop_
_geom_bond_atom_site_label_1
_geom_bond_atom_site_label_2
_geom_bond_distance
_geom_bond_site_symmetry_2
La0 N3 2.557208 1_565
La0 N4 2.557208 1_455
La0 N0 2.844357 1_555
La0 N0 2.844357 1_554
La0 N1 2.844357 1_555
La0 N1 2.844357 1_554
La0 N2 2.896982 1_555
La0 N5 2.896982 1_555
La0 N2 2.896982 1_665
La0 N5 2.896982 1_665
La1 N1 2.557208 1_655
La1 N0 2.557208 1_545
La1 N4 2.844357 1_555
La1 N4 2.844357 1_556
La1 N3 2.844357 1_555
La1 N3 2.844357 1_556
La1 N5 2.896982 1_555
La1 N2 2.896982 1_556
La1 N5 2.896982 1_665
La1 N2 2.896982 1_666
Mn0 N5 1.753371 1_655
Mn0 N2 1.753371 1_656
Mn0 N0 1.837952 1_545
Mn0 N1 1.837952 1_655
Mn1 N2 1.753371 1_565
Mn1 N5 1.753371 1_565
Mn1 N4 1.837952 1_455
Mn1 N3 1.837952 1_565
