# generated using pymatgen
data_Ho2Se3
_symmetry_space_group_name_H-M   'P 1'
_cell_length_a   7.03230355
_cell_length_b   7.03230210
_cell_length_c   12.83960554
_cell_angle_alpha   100.64730310
_cell_angle_beta   100.64730126
_cell_angle_gamma   108.98485313
_symmetry_Int_Tables_number   1
_chemical_formula_structural   Ho2Se3
_chemical_formula_sum   'Ho8 Se12'
_cell_volume   569.23170270
_cell_formula_units_Z   4
loop_
 _symmetry_equiv_pos_site_id
 _symmetry_equiv_pos_as_xyz
  1  'x, y, z'
loop_
 _atom_site_type_symbol
 _atom_site_label
 _atom_site_symmetry_multiplicity
 _atom_site_fract_x
 _atom_site_fract_y
 _atom_site_fract_z
 _atom_site_occupancy
  Ho  Ho0  1  0.37781597  0.12781597  0.25563094  1
  Ho  Ho1  1  0.87218403  0.62218403  0.24436906  1
  Ho  Ho2  1  0.62218403  0.87218403  0.74436906  1
  Ho  Ho3  1  0.12781597  0.37781597  0.75563094  1
  Ho  Ho4  1  0.04093734  0.79093734  0.58187467  1
  Ho  Ho5  1  0.20906266  0.95906266  0.91812533  1
  Ho  Ho6  1  0.95906266  0.20906266  0.41812533  1
  Ho  Ho7  1  0.79093734  0.04093734  0.08187467  1
  Se  Se0  1  0.53898944  0.28296798  0.08827234  1
  Se  Se1  1  0.19469664  0.95071810  0.41172766  1
  Se  Se2  1  0.71703202  0.46101056  0.41172766  1
  Se  Se3  1  0.04928190  0.80530336  0.08827234  1
  Se  Se4  1  0.46101056  0.71703202  0.91172766  1
  Se  Se5  1  0.80530336  0.04928190  0.58827234  1
  Se  Se6  1  0.28296798  0.53898944  0.58827234  1
  Se  Se7  1  0.95071810  0.19469664  0.91172766  1
  Se  Se8  1  0.63354366  0.88354366  0.25000000  1
  Se  Se9  1  0.11645634  0.36645634  0.25000000  1
  Se  Se10  1  0.36645634  0.11645634  0.75000000  1
  Se  Se11  1  0.88354366  0.63354366  0.75000000  1
loop_
_geom_bond_atom_site_label_1
_geom_bond_atom_site_label_2
_geom_bond_distance
_geom_bond_site_symmetry_2
Ho0 Se0 2.838001 1_555
Ho0 Se3 2.838013 1_545
Ho0 Se1 2.838811 1_545
Ho0 Se2 2.838812 1_555
Ho0 Se8 2.863955 1_545
Ho0 Se9 2.863955 1_555
Ho1 Se2 2.838001 1_555
Ho1 Se1 2.838013 1_655
Ho1 Se3 2.838811 1_655
Ho1 Se0 2.838812 1_555
Ho1 Se9 2.863955 1_655
Ho1 Se8 2.863955 1_555
Ho2 Se4 2.838001 1_555
Ho2 Se7 2.838013 1_565
Ho2 Se5 2.838811 1_565
Ho2 Se6 2.838812 1_555
Ho2 Se10 2.863955 1_565
Ho2 Se11 2.863955 1_555
Ho3 Se6 2.838001 1_555
Ho3 Se5 2.838013 1_455
Ho3 Se7 2.838811 1_455
Ho3 Se4 2.838812 1_555
Ho3 Se11 2.863955 1_455
Ho3 Se10 2.863955 1_555
Ho4 Se5 2.829670 1_465
Ho4 Se6 2.829670 1_555
Ho4 Se11 2.842312 1_455
Ho4 Se10 2.842312 1_565
Ho4 Se2 2.862467 1_455
Ho4 Se1 2.862471 1_555
Ho5 Se7 2.829670 1_465
Ho5 Se4 2.829670 1_555
Ho5 Se10 2.842312 1_565
Ho5 Se11 2.842312 1_455
Ho5 Se0 2.862467 1_566
Ho5 Se3 2.862471 1_556
Ho6 Se1 2.829670 1_645
Ho6 Se2 2.829670 1_555
Ho6 Se9 2.842312 1_655
Ho6 Se8 2.842312 1_545
Ho6 Se6 2.862467 1_655
Ho6 Se5 2.862471 1_555
Ho7 Se3 2.829670 1_645
Ho7 Se0 2.829670 1_555
Ho7 Se8 2.842312 1_545
Ho7 Se9 2.842312 1_655
Ho7 Se4 2.862467 1_544
Ho7 Se7 2.862471 1_554
