# generated using pymatgen
data_CuHO2
_symmetry_space_group_name_H-M   'P 1'
_cell_length_a   2.74202549
_cell_length_b   4.36788480
_cell_length_c   5.67272223
_cell_angle_alpha   90.00000000
_cell_angle_beta   90.00000000
_cell_angle_gamma   90.00000000
_symmetry_Int_Tables_number   1
_chemical_formula_structural   CuHO2
_chemical_formula_sum   'Cu2 H2 O4'
_cell_volume   67.94135152
_cell_formula_units_Z   2
loop_
 _symmetry_equiv_pos_site_id
 _symmetry_equiv_pos_as_xyz
  1  'x, y, z'
loop_
 _atom_site_type_symbol
 _atom_site_label
 _atom_site_symmetry_multiplicity
 _atom_site_fract_x
 _atom_site_fract_y
 _atom_site_fract_z
 _atom_site_occupancy
  Cu  Cu0  1  0.50000000  0.78462489  0.23562095  1
  Cu  Cu1  1  0.00000000  0.28462489  0.76437905  1
  H  H0  1  -0.00000000  0.33104028  0.26260399  1
  H  H1  1  0.50000000  0.83104028  0.73739601  1
  O  O0  1  0.50000000  0.03958328  0.64932926  1
  O  O1  1  -0.00000000  0.53958328  0.35067074  1
  O  O2  1  0.50000000  0.53114156  0.86290782  1
  O  O3  1  -0.00000000  0.03114156  0.13709218  1
loop_
_geom_bond_atom_site_label_1
_geom_bond_atom_site_label_2
_geom_bond_distance
_geom_bond_site_symmetry_2
Cu0 O3 1.830705 1_565
Cu0 O3 1.830705 1_665
Cu0 O1 1.857739 1_555
Cu0 O1 1.857739 1_655
Cu0 O2 2.386654 1_554
Cu1 O2 1.830705 1_555
Cu1 O2 1.830705 1_455
Cu1 O0 1.857739 1_455
Cu1 O0 1.857739 1_555
Cu1 O3 2.386654 1_556
H0 O1 1.038895 1_555
H0 O3 1.490917 1_555
H1 O0 1.038895 1_565
H1 O2 1.490917 1_555
