# generated using pymatgen
data_Ge3Ir2Se3
_symmetry_space_group_name_H-M   'P 1'
_cell_length_a   8.61372417
_cell_length_b   8.61372417
_cell_length_c   8.61372448
_cell_angle_alpha   89.79701575
_cell_angle_beta   89.79701571
_cell_angle_gamma   89.79701631
_symmetry_Int_Tables_number   1
_chemical_formula_structural   Ge3Ir2Se3
_chemical_formula_sum   'Ge12 Ir8 Se12'
_cell_volume   639.09399974
_cell_formula_units_Z   4
loop_
 _symmetry_equiv_pos_site_id
 _symmetry_equiv_pos_as_xyz
  1  'x, y, z'
loop_
 _atom_site_type_symbol
 _atom_site_label
 _atom_site_symmetry_multiplicity
 _atom_site_fract_x
 _atom_site_fract_y
 _atom_site_fract_z
 _atom_site_occupancy
  Ge  Ge0  1  0.50207428  0.16816877  0.65020535  1
  Ge  Ge1  1  0.65020535  0.50207428  0.16816877  1
  Ge  Ge2  1  0.16816877  0.65020535  0.50207428  1
  Ge  Ge3  1  0.49792572  0.83183123  0.34979465  1
  Ge  Ge4  1  0.34979465  0.49792572  0.83183123  1
  Ge  Ge5  1  0.83183123  0.34979465  0.49792572  1
  Ge  Ge6  1  0.00211711  0.66844399  0.85043030  1
  Ge  Ge7  1  0.85043030  0.00211711  0.66844399  1
  Ge  Ge8  1  0.66844399  0.85043030  0.00211711  1
  Ge  Ge9  1  0.99788289  0.33155601  0.14956970  1
  Ge  Ge10  1  0.14956970  0.99788289  0.33155601  1
  Ge  Ge11  1  0.33155601  0.14956970  0.99788289  1
  Ir  Ir0  1  0.75321631  0.75321631  0.75321631  1
  Ir  Ir1  1  0.24678369  0.24678369  0.24678369  1
  Ir  Ir2  1  0.74969854  0.25446187  0.24841119  1
  Ir  Ir3  1  0.24841119  0.74969854  0.25446187  1
  Ir  Ir4  1  0.25446187  0.24841119  0.74969854  1
  Ir  Ir5  1  0.25030146  0.74553813  0.75158881  1
  Ir  Ir6  1  0.75158881  0.25030146  0.74553813  1
  Ir  Ir7  1  0.74553813  0.75158881  0.25030146  1
  Se  Se0  1  0.49706815  0.14719740  0.35872336  1
  Se  Se1  1  0.35872336  0.49706815  0.14719740  1
  Se  Se2  1  0.14719740  0.35872336  0.49706815  1
  Se  Se3  1  0.50293185  0.85280260  0.64127664  1
  Se  Se4  1  0.64127664  0.50293185  0.85280260  1
  Se  Se5  1  0.85280260  0.64127664  0.50293185  1
  Se  Se6  1  0.00020940  0.64728241  0.14214020  1
  Se  Se7  1  0.14214020  0.00020940  0.64728241  1
  Se  Se8  1  0.64728241  0.14214020  0.00020940  1
  Se  Se9  1  -0.00020940  0.35271759  0.85785980  1
  Se  Se10  1  0.85785980  -0.00020940  0.35271759  1
  Se  Se11  1  0.35271759  0.85785980  -0.00020940  1
loop_
_geom_bond_atom_site_label_1
_geom_bond_atom_site_label_2
_geom_bond_distance
_geom_bond_site_symmetry_2
Ge0 Ir4 2.396271 1_555
Ge0 Ir6 2.412778 1_555
Ge0 Se0 2.518406 1_555
Ge0 Se3 2.717821 1_545
Ge1 Ir2 2.396271 1_555
Ge1 Ir7 2.412778 1_555
Ge1 Se1 2.518406 1_555
Ge1 Se4 2.717821 1_554
Ge2 Ir3 2.396271 1_555
Ge2 Ir5 2.412779 1_555
Ge2 Se2 2.518406 1_555
Ge2 Se5 2.717821 1_455
Ge3 Ir7 2.396271 1_555
Ge3 Ir3 2.412778 1_555
Ge3 Se3 2.518406 1_555
Ge3 Se0 2.717821 1_565
Ge4 Ir5 2.396271 1_555
Ge4 Ir4 2.412778 1_555
Ge4 Se4 2.518406 1_555
Ge4 Se1 2.717821 1_556
Ge5 Ir6 2.396271 1_555
Ge5 Ir2 2.412779 1_555
Ge5 Se5 2.518406 1_555
Ge5 Se2 2.717821 1_655
Ge6 Ir5 2.393568 1_555
Ge6 Ir0 2.414181 1_455
Ge6 Se6 2.518667 1_556
Ge6 Se9 2.720249 1_555
Ge7 Ir6 2.393568 1_555
Ge7 Ir0 2.414181 1_545
Ge7 Se7 2.518667 1_655
Ge7 Se10 2.720250 1_555
Ge8 Ir7 2.393568 1_555
Ge8 Ir0 2.414181 1_554
Ge8 Se8 2.518667 1_565
Ge8 Se11 2.720249 1_555
Ge9 Ir2 2.393568 1_555
Ge9 Ir1 2.414181 1_655
Ge9 Se9 2.518667 1_654
Ge9 Se6 2.720249 1_655
Ge10 Ir3 2.393568 1_555
Ge10 Ir1 2.414181 1_565
Ge10 Se10 2.518667 1_465
Ge10 Se7 2.720250 1_565
Ge11 Ir4 2.393568 1_555
Ge11 Ir1 2.414181 1_556
Ge11 Se11 2.518667 1_546
Ge11 Se8 2.720249 1_556
Ir0 Se4 2.511800 1_555
Ir0 Se3 2.511800 1_555
Ir0 Se5 2.511800 1_555
Ir1 Se1 2.511800 1_555
Ir1 Se0 2.511800 1_555
Ir1 Se2 2.511800 1_555
Ir2 Se8 2.513799 1_555
Ir2 Se10 2.542620 1_555
Ir2 Se0 2.546623 1_555
Ir3 Se6 2.513799 1_555
Ir3 Se11 2.542620 1_555
Ir3 Se1 2.546623 1_555
Ir4 Se7 2.513799 1_555
Ir4 Se9 2.542620 1_555
Ir4 Se2 2.546623 1_555
Ir5 Se11 2.513799 1_556
Ir5 Se7 2.542620 1_565
Ir5 Se3 2.546623 1_555
Ir6 Se9 2.513799 1_655
Ir6 Se8 2.542620 1_556
Ir6 Se4 2.546623 1_555
Ir7 Se10 2.513799 1_565
Ir7 Se6 2.542620 1_655
Ir7 Se5 2.546623 1_555
