# generated using pymatgen
data_Ac3In
_symmetry_space_group_name_H-M   'P 1'
_cell_length_a   7.72676594
_cell_length_b   7.72679779
_cell_length_c   5.98065850
_cell_angle_alpha   90.00001674
_cell_angle_beta   89.99999210
_cell_angle_gamma   120.00010799
_symmetry_Int_Tables_number   1
_chemical_formula_structural   Ac3In
_chemical_formula_sum   'Ac6 In2'
_cell_volume   309.22633068
_cell_formula_units_Z   2
loop_
 _symmetry_equiv_pos_site_id
 _symmetry_equiv_pos_as_xyz
  1  'x, y, z'
loop_
 _atom_site_type_symbol
 _atom_site_label
 _atom_site_symmetry_multiplicity
 _atom_site_fract_x
 _atom_site_fract_y
 _atom_site_fract_z
 _atom_site_occupancy
  Ac  Ac0  1  0.17718954  0.35437908  0.24999900  1
  Ac  Ac1  1  0.64562292  0.82281246  0.24999900  1
  Ac  Ac2  1  0.17718954  0.82281246  0.24999900  1
  Ac  Ac3  1  0.82281046  0.64562092  0.75000000  1
  Ac  Ac4  1  0.35437708  0.17718654  0.75000000  1
  Ac  Ac5  1  0.82281146  0.17718654  0.75000000  1
  In  In0  1  0.33333300  0.66666700  0.75000000  1
  In  In1  1  0.66666700  0.33333300  0.24999900  1
loop_
_geom_bond_atom_site_label_1
_geom_bond_atom_site_label_2
_geom_bond_distance
_geom_bond_site_symmetry_2
Ac0 Ac1 3.619477 1_555
Ac0 Ac2 3.619490 1_555
Ac0 In0 3.648137 1_554
Ac0 In0 3.648146 1_555
Ac0 Ac5 3.816453 1_454
Ac0 Ac5 3.816462 1_455
Ac0 Ac4 3.816466 1_554
Ac0 Ac4 3.816476 1_555
Ac0 In1 3.865945 1_455
Ac0 In1 3.865953 1_555
Ac0 Ac1 4.107293 1_445
Ac0 Ac2 4.107308 1_545
Ac1 Ac2 3.619475 1_555
Ac1 In0 3.648139 1_554
Ac1 In0 3.648149 1_555
Ac1 Ac5 3.816443 1_564
Ac1 Ac5 3.816451 1_565
Ac1 Ac3 3.816462 1_554
Ac1 Ac3 3.816472 1_555
Ac1 In1 3.865953 1_565
Ac1 In1 3.865976 1_555
Ac1 Ac2 4.107291 1_655
Ac2 In0 3.648139 1_554
Ac2 In0 3.648150 1_555
Ac2 Ac4 3.816443 1_564
Ac2 Ac4 3.816451 1_565
Ac2 Ac3 3.816457 1_454
Ac2 Ac3 3.816466 1_455
Ac2 In1 3.865943 1_565
Ac2 In1 3.865957 1_455
Ac3 Ac4 3.619480 1_555
Ac3 Ac5 3.619502 1_555
Ac3 In1 3.648137 1_556
Ac3 In1 3.648146 1_555
Ac3 In0 3.865945 1_655
Ac3 In0 3.865953 1_555
Ac3 Ac4 4.107289 1_665
Ac3 Ac5 4.107296 1_565
Ac4 Ac5 3.619483 1_555
Ac4 In1 3.648139 1_556
Ac4 In1 3.648149 1_555
Ac4 In0 3.865945 1_545
Ac4 In0 3.865984 1_555
Ac4 Ac5 4.107283 1_455
Ac5 In1 3.648147 1_556
Ac5 In1 3.648158 1_555
Ac5 In0 3.865942 1_545
Ac5 In0 3.865956 1_655
