# generated using pymatgen
data_EuGeAu
_symmetry_space_group_name_H-M   'P 1'
_cell_length_a   5.87502280
_cell_length_b   5.87282467
_cell_length_c   5.87282467
_cell_angle_alpha   133.88528851
_cell_angle_beta   102.04018856
_cell_angle_gamma   95.62808297
_symmetry_Int_Tables_number   1
_chemical_formula_structural   EuGeAu
_chemical_formula_sum   'Eu2 Ge2 Au2'
_cell_volume   134.09707466
_cell_formula_units_Z   2
loop_
 _symmetry_equiv_pos_site_id
 _symmetry_equiv_pos_as_xyz
  1  'x, y, z'
loop_
 _atom_site_type_symbol
 _atom_site_label
 _atom_site_symmetry_multiplicity
 _atom_site_fract_x
 _atom_site_fract_y
 _atom_site_fract_z
 _atom_site_occupancy
  Eu  Eu0  1  0.20391691  0.70395180  0.49996511  1
  Eu  Eu1  1  0.63089548  0.63087549  0.00001899  1
  Ge  Ge0  1  0.64602125  0.33356382  0.31245743  1
  Ge  Ge1  1  0.02119578  0.33364969  0.68754608  1
  Au  Au0  1  0.78414960  0.00186175  0.78228885  1
  Au  Au1  1  0.21948998  0.00176744  0.21772255  1
loop_
_geom_bond_atom_site_label_1
_geom_bond_atom_site_label_2
_geom_bond_distance
_geom_bond_site_symmetry_2
Eu0 Ge1 3.233013 1_555
Eu0 Ge0 3.234503 1_455
Eu0 Ge1 3.415513 1_565
Eu0 Ge1 3.415513 1_554
Eu0 Ge0 3.416289 1_555
Eu0 Ge0 3.416289 1_566
Eu1 Ge0 3.125160 1_554
Eu1 Ge0 3.125163 1_565
Eu1 Ge1 3.126018 1_654
Eu1 Ge1 3.126022 1_665
Eu1 Ge0 3.290559 1_555
Eu1 Ge1 3.291718 1_554
Ge0 Ge1 2.771890 1_655
Au0 Ge0 2.665101 1_556
Au0 Ge0 2.665105 1_545
Au0 Ge1 2.709245 1_655
Au0 Eu0 3.143390 1_545
Au0 Au1 3.217840 1_656
Au0 Eu0 3.228354 1_656
Au0 Eu0 3.228357 1_645
Au0 Eu1 3.267375 1_556
Au0 Eu1 3.267382 1_545
Au0 Eu1 3.339263 1_546
Au1 Ge1 2.664500 1_555
Au1 Ge1 2.664500 1_544
Au1 Ge0 2.709891 1_555
Au1 Eu0 3.141058 1_545
Au1 Eu0 3.228314 1_555
Au1 Eu0 3.228314 1_544
Au1 Eu1 3.268316 1_556
Au1 Eu1 3.268319 1_545
Au1 Eu1 3.339763 1_445
