# generated using pymatgen
data_Sm3Y
_symmetry_space_group_name_H-M   'P 1'
_cell_length_a   7.38730347
_cell_length_b   7.38730296
_cell_length_c   5.89392422
_cell_angle_alpha   90.00000000
_cell_angle_beta   90.00000000
_cell_angle_gamma   120.00000346
_symmetry_Int_Tables_number   1
_chemical_formula_structural   Sm3Y
_chemical_formula_sum   'Sm6 Y2'
_cell_volume   278.55247070
_cell_formula_units_Z   2
loop_
 _symmetry_equiv_pos_site_id
 _symmetry_equiv_pos_as_xyz
  1  'x, y, z'
loop_
 _atom_site_type_symbol
 _atom_site_label
 _atom_site_symmetry_multiplicity
 _atom_site_fract_x
 _atom_site_fract_y
 _atom_site_fract_z
 _atom_site_occupancy
  Sm  Sm0  1  0.16846764  0.33696854  0.25000100  1
  Sm  Sm1  1  0.66304439  0.83152005  0.25000100  1
  Sm  Sm2  1  0.16846465  0.83149790  0.25000100  1
  Sm  Sm3  1  0.83152349  0.66307954  0.75000100  1
  Sm  Sm4  1  0.33693324  0.16846449  0.75000100  1
  Sm  Sm5  1  0.83152018  0.16844276  0.75000100  1
  Y  Y0  1  0.33335491  0.66667962  0.75000100  1
  Y  Y1  1  0.66668749  0.33334610  0.25000100  1
loop_
_geom_bond_atom_site_label_1
_geom_bond_atom_site_label_2
_geom_bond_distance
_geom_bond_site_symmetry_2
Sm0 Y0 3.624082 1_554
Sm0 Y0 3.624082 1_555
Sm0 Sm5 3.651222 1_454
Sm0 Sm5 3.651222 1_455
Sm0 Sm4 3.651306 1_554
Sm0 Sm4 3.651306 1_555
Sm0 Sm2 3.653249 1_555
Sm0 Sm1 3.653495 1_555
Sm0 Y1 3.693495 1_455
Sm0 Y1 3.693954 1_555
Sm0 Sm1 3.733808 1_445
Sm0 Sm2 3.734054 1_545
Sm1 Y0 3.624002 1_554
Sm1 Y0 3.624002 1_555
Sm1 Sm3 3.651117 1_554
Sm1 Sm3 3.651117 1_555
Sm1 Sm5 3.651129 1_564
Sm1 Sm5 3.651129 1_565
Sm1 Sm2 3.653529 1_555
Sm1 Y1 3.693692 1_555
Sm1 Y1 3.693758 1_565
Sm1 Sm2 3.733775 1_655
Sm2 Y0 3.624073 1_554
Sm2 Y0 3.624073 1_555
Sm2 Sm3 3.651198 1_454
Sm2 Sm3 3.651198 1_455
Sm2 Sm4 3.651294 1_564
Sm2 Sm4 3.651294 1_565
Sm2 Y1 3.693462 1_455
Sm2 Y1 3.693987 1_565
Sm3 Y1 3.624166 1_556
Sm3 Y1 3.624166 1_555
Sm3 Sm4 3.653780 1_555
Sm3 Sm5 3.654020 1_555
Sm3 Y0 3.693492 1_555
Sm3 Y0 3.693955 1_655
Sm3 Sm5 3.733283 1_565
Sm3 Sm4 3.733523 1_665
Sm4 Y1 3.624243 1_556
Sm4 Y1 3.624243 1_555
Sm4 Sm5 3.653744 1_555
Sm4 Y0 3.693691 1_545
Sm4 Y0 3.693754 1_555
Sm4 Sm5 3.733559 1_455
Sm5 Y1 3.624175 1_556
Sm5 Y1 3.624175 1_555
Sm5 Y0 3.693459 1_545
Sm5 Y0 3.693988 1_655
