# generated using pymatgen
data_SbClO
_symmetry_space_group_name_H-M   'P 1'
_cell_length_a   3.79107200
_cell_length_b   3.79107200
_cell_length_c   7.91690900
_cell_angle_alpha   90.00000000
_cell_angle_beta   90.00000000
_cell_angle_gamma   90.00000000
_symmetry_Int_Tables_number   1
_chemical_formula_structural   SbClO
_chemical_formula_sum   'Sb2 Cl2 O2'
_cell_volume   113.78361257
_cell_formula_units_Z   2
loop_
 _symmetry_equiv_pos_site_id
 _symmetry_equiv_pos_as_xyz
  1  'x, y, z'
loop_
 _atom_site_type_symbol
 _atom_site_label
 _atom_site_symmetry_multiplicity
 _atom_site_fract_x
 _atom_site_fract_y
 _atom_site_fract_z
 _atom_site_occupancy
  Sb  Sb0  1  0.00000000  0.50000000  0.84303500  1
  Sb  Sb1  1  0.50000000  0.00000000  0.15696500  1
  Cl  Cl0  1  0.50000000  0.00000000  0.66894200  1
  Cl  Cl1  1  0.00000000  0.50000000  0.33105800  1
  O  O0  1  0.00000000  0.00000000  0.00000000  1
  O  O1  1  0.50000000  0.50000000  0.00000000  1
loop_
_geom_bond_atom_site_label_1
_geom_bond_atom_site_label_2
_geom_bond_distance
_geom_bond_site_symmetry_2
Cl0 Sb0 3.014260 1_655
Cl0 Sb0 3.014260 1_645
Cl0 Sb0 3.014260 1_545
Cl0 Sb0 3.014260 1_555
Cl1 Sb1 3.014260 1_465
Cl1 Sb1 3.014260 1_565
Cl1 Sb1 3.014260 1_555
Cl1 Sb1 3.014260 1_455
O0 Sb1 2.266562 1_555
O0 Sb1 2.266562 1_455
O0 Sb0 2.266562 1_554
O0 Sb0 2.266562 1_544
O1 Sb0 2.266562 1_654
O1 Sb0 2.266562 1_554
O1 Sb1 2.266562 1_565
O1 Sb1 2.266562 1_555
