# generated using pymatgen
data_CsGdS2
_symmetry_space_group_name_H-M   'P 1'
_cell_length_a   8.41622395
_cell_length_b   8.41622395
_cell_length_c   8.41622450
_cell_angle_alpha   28.44102476
_cell_angle_beta   28.44102476
_cell_angle_gamma   28.44103149
_symmetry_Int_Tables_number   1
_chemical_formula_structural   CsGdS2
_chemical_formula_sum   'Cs1 Gd1 S2'
_cell_volume   119.50243832
_cell_formula_units_Z   1
loop_
 _symmetry_equiv_pos_site_id
 _symmetry_equiv_pos_as_xyz
  1  'x, y, z'
loop_
 _atom_site_type_symbol
 _atom_site_label
 _atom_site_symmetry_multiplicity
 _atom_site_fract_x
 _atom_site_fract_y
 _atom_site_fract_z
 _atom_site_occupancy
  Cs  Cs0  1  -0.00000000  -0.00000000  -0.00000000  1
  Gd  Gd0  1  0.50000000  0.50000000  0.50000000  1
  S  S0  1  0.77235921  0.77235921  0.77235921  1
  S  S1  1  0.22764079  0.22764079  0.22764079  1
loop_
_geom_bond_atom_site_label_1
_geom_bond_atom_site_label_2
_geom_bond_distance
_geom_bond_site_symmetry_2
Cs0 S0 3.499675 1_544
Cs0 S0 3.499675 1_454
Cs0 S1 3.499675 1_545
Cs0 S1 3.499675 1_455
Cs0 S0 3.499675 1_445
Cs0 S1 3.499675 1_554
Gd0 S1 2.806906 1_556
Gd0 S0 2.806906 1_554
Gd0 S1 2.806906 1_565
Gd0 S1 2.806906 1_655
Gd0 S0 2.806906 1_545
Gd0 S0 2.806906 1_455
