# generated using pymatgen
data_Li3Dy
_symmetry_space_group_name_H-M   'P 1'
_cell_length_a   6.51689421
_cell_length_b   6.51689421
_cell_length_c   5.09458100
_cell_angle_alpha   90.00000000
_cell_angle_beta   90.00000000
_cell_angle_gamma   120.00000213
_symmetry_Int_Tables_number   1
_chemical_formula_structural   Li3Dy
_chemical_formula_sum   'Li6 Dy2'
_cell_volume   187.37879255
_cell_formula_units_Z   2
loop_
 _symmetry_equiv_pos_site_id
 _symmetry_equiv_pos_as_xyz
  1  'x, y, z'
loop_
 _atom_site_type_symbol
 _atom_site_label
 _atom_site_symmetry_multiplicity
 _atom_site_fract_x
 _atom_site_fract_y
 _atom_site_fract_z
 _atom_site_occupancy
  Li  Li0  1  0.15101300  0.30202600  0.25000000  1
  Li  Li1  1  0.69797400  0.84898700  0.25000000  1
  Li  Li2  1  0.15101300  0.84898700  0.25000000  1
  Li  Li3  1  0.84898700  0.69797400  0.75000000  1
  Li  Li4  1  0.30202600  0.15101300  0.75000000  1
  Li  Li5  1  0.84898700  0.15101300  0.75000000  1
  Dy  Dy0  1  0.33333300  0.66666700  0.75000000  1
  Dy  Dy1  1  0.66666700  0.33333300  0.25000000  1
loop_
_geom_bond_atom_site_label_1
_geom_bond_atom_site_label_2
_geom_bond_distance
_geom_bond_site_symmetry_2
Li0 Li1 2.952407 1_445
Li0 Li2 2.952407 1_545
Li0 Li5 3.065005 1_454
Li0 Li5 3.065005 1_455
Li0 Li4 3.065005 1_554
Li0 Li4 3.065005 1_555
Li1 Li2 2.952407 1_655
Li1 Li5 3.065005 1_564
Li1 Li5 3.065005 1_565
Li1 Li3 3.065005 1_555
Li1 Li3 3.065005 1_554
Li2 Li3 3.065005 1_455
Li2 Li3 3.065005 1_454
Li2 Li4 3.065005 1_565
Li2 Li4 3.065005 1_564
Li3 Li4 2.952407 1_665
Li3 Li5 2.952407 1_565
Li4 Li5 2.952407 1_455
Dy0 Li3 3.263231 1_455
Dy0 Li4 3.263231 1_565
Dy0 Li5 3.263234 1_455
Dy0 Li5 3.263234 1_565
Dy0 Li3 3.263237 1_555
Dy0 Li4 3.263237 1_555
Dy0 Li2 3.274731 1_556
Dy0 Li2 3.274731 1_555
Dy0 Li0 3.274734 1_555
Dy0 Li1 3.274734 1_555
Dy0 Li1 3.274734 1_556
Dy0 Li0 3.274734 1_556
Dy1 Li1 3.263231 1_545
Dy1 Li0 3.263231 1_655
Dy1 Li2 3.263234 1_545
Dy1 Li2 3.263234 1_655
Dy1 Li0 3.263237 1_555
Dy1 Li1 3.263237 1_555
Dy1 Li5 3.274731 1_555
Dy1 Li5 3.274731 1_554
Dy1 Li3 3.274734 1_555
Dy1 Li4 3.274734 1_555
Dy1 Li3 3.274734 1_554
Dy1 Li4 3.274734 1_554
