# generated using pymatgen
data_NdErZn2
_symmetry_space_group_name_H-M   'P 1'
_cell_length_a   5.08151117
_cell_length_b   5.08151117
_cell_length_c   5.08151117
_cell_angle_alpha   60.00000000
_cell_angle_beta   60.00000000
_cell_angle_gamma   60.00000000
_symmetry_Int_Tables_number   1
_chemical_formula_structural   NdErZn2
_chemical_formula_sum   'Nd1 Er1 Zn2'
_cell_volume   92.78198442
_cell_formula_units_Z   1
loop_
 _symmetry_equiv_pos_site_id
 _symmetry_equiv_pos_as_xyz
  1  'x, y, z'
loop_
 _atom_site_type_symbol
 _atom_site_label
 _atom_site_symmetry_multiplicity
 _atom_site_fract_x
 _atom_site_fract_y
 _atom_site_fract_z
 _atom_site_occupancy
  Nd  Nd0  1  0.75000000  0.75000000  0.75000000  1
  Er  Er0  1  0.25000100  0.25000100  0.25000100  1
  Zn  Zn0  1  -0.00000000  0.00000000  0.00000000  1
  Zn  Zn1  1  0.49999900  0.49999900  0.49999900  1
loop_
_geom_bond_atom_site_label_1
_geom_bond_atom_site_label_2
_geom_bond_distance
_geom_bond_site_symmetry_2
Nd0 Zn1 3.111773 1_655
Nd0 Zn1 3.111773 1_556
Nd0 Zn1 3.111773 1_565
Nd0 Zn0 3.111777 1_566
Nd0 Zn0 3.111777 1_665
Nd0 Zn0 3.111777 1_666
Nd0 Zn0 3.111777 1_656
Nd0 Zn1 3.111790 1_555
Er0 Zn1 3.111752 1_555
Er0 Zn0 3.111773 1_655
Er0 Zn0 3.111773 1_556
Er0 Zn0 3.111773 1_565
Er0 Zn1 3.111786 1_554
Er0 Zn1 3.111786 1_455
Er0 Zn1 3.111786 1_545
Er0 Zn0 3.111790 1_555
