# generated using pymatgen
data_ZrBiRh
_symmetry_space_group_name_H-M   'P 1'
_cell_length_a   4.69659193
_cell_length_b   4.69659193
_cell_length_c   4.69659193
_cell_angle_alpha   60.00000000
_cell_angle_beta   60.00000000
_cell_angle_gamma   60.00000000
_symmetry_Int_Tables_number   1
_chemical_formula_structural   ZrBiRh
_chemical_formula_sum   'Zr1 Bi1 Rh1'
_cell_volume   73.25436093
_cell_formula_units_Z   1
loop_
 _symmetry_equiv_pos_site_id
 _symmetry_equiv_pos_as_xyz
  1  'x, y, z'
loop_
 _atom_site_type_symbol
 _atom_site_label
 _atom_site_symmetry_multiplicity
 _atom_site_fract_x
 _atom_site_fract_y
 _atom_site_fract_z
 _atom_site_occupancy
  Zr  Zr0  1  0.75000000  0.75000000  0.75000000  1
  Bi  Bi0  1  0.00000000  0.00000000  0.00000000  1
  Rh  Rh0  1  0.50000000  0.50000000  0.50000000  1
loop_
_geom_bond_atom_site_label_1
_geom_bond_atom_site_label_2
_geom_bond_distance
_geom_bond_site_symmetry_2
Bi0 Zr0 2.876063 1_544
Bi0 Zr0 2.876063 1_454
Bi0 Zr0 2.876063 1_445
Bi0 Zr0 2.876063 1_444
Rh0 Zr0 2.876063 1_455
Rh0 Zr0 2.876063 1_545
Rh0 Zr0 2.876063 1_554
Rh0 Zr0 2.876063 1_555
