# generated using pymatgen
data_NaMg3
_symmetry_space_group_name_H-M   'P 1'
_cell_length_a   5.64204088
_cell_length_b   5.64204088
_cell_length_c   5.64204088
_cell_angle_alpha   130.55421391
_cell_angle_beta   130.55421391
_cell_angle_gamma   72.52230347
_symmetry_Int_Tables_number   1
_chemical_formula_structural   NaMg3
_chemical_formula_sum   'Na1 Mg3'
_cell_volume   101.32384900
_cell_formula_units_Z   1
loop_
 _symmetry_equiv_pos_site_id
 _symmetry_equiv_pos_as_xyz
  1  'x, y, z'
loop_
 _atom_site_type_symbol
 _atom_site_label
 _atom_site_symmetry_multiplicity
 _atom_site_fract_x
 _atom_site_fract_y
 _atom_site_fract_z
 _atom_site_occupancy
  Na  Na0  1  0.00000000  0.00000000  0.00000000  1
  Mg  Mg0  1  0.50000000  0.50000000  0.00000000  1
  Mg  Mg1  1  0.75000000  0.25000000  0.50000000  1
  Mg  Mg2  1  0.25000000  0.75000000  0.50000000  1
loop_
_geom_bond_atom_site_label_1
_geom_bond_atom_site_label_2
_geom_bond_distance
_geom_bond_site_symmetry_2
Mg0 Mg2 3.277526 1_655
Mg0 Mg1 3.277526 1_454
Mg0 Mg1 3.277526 1_554
Mg0 Mg2 3.277526 1_544
Mg0 Mg2 3.277526 1_555
Mg0 Mg2 3.277526 1_554
Mg0 Mg1 3.277526 1_565
Mg0 Mg1 3.277526 1_555
Mg0 Na0 3.337079 1_565
Mg0 Na0 3.337079 1_655
Mg0 Na0 3.337079 1_666
Mg0 Na0 3.337079 1_554
Mg1 Na0 3.277526 1_555
Mg1 Na0 3.277526 1_656
Mg1 Na0 3.277526 1_655
Mg1 Na0 3.277526 1_666
Mg1 Mg2 3.337079 1_656
Mg1 Mg2 3.337079 1_645
Mg1 Mg2 3.337079 1_544
Mg1 Mg2 3.337079 1_555
Mg2 Na0 3.277526 1_666
Mg2 Na0 3.277526 1_555
Mg2 Na0 3.277526 1_565
Mg2 Na0 3.277526 1_566
