# generated using pymatgen
data_TaTl(CuS2)2
_symmetry_space_group_name_H-M   'P 1'
_cell_length_a   9.81807230
_cell_length_b   9.81807230
_cell_length_c   7.51630700
_cell_angle_alpha   90.00000000
_cell_angle_beta   90.00000000
_cell_angle_gamma   146.99656956
_symmetry_Int_Tables_number   1
_chemical_formula_structural   TaTl(CuS2)2
_chemical_formula_sum   'Ta2 Tl2 Cu4 S8'
_cell_volume   394.64423612
_cell_formula_units_Z   2
loop_
 _symmetry_equiv_pos_site_id
 _symmetry_equiv_pos_as_xyz
  1  'x, y, z'
loop_
 _atom_site_type_symbol
 _atom_site_label
 _atom_site_symmetry_multiplicity
 _atom_site_fract_x
 _atom_site_fract_y
 _atom_site_fract_z
 _atom_site_occupancy
  Ta  Ta0  1  0.60427400  0.38593800  0.25000000  1
  Ta  Ta1  1  0.38593800  0.60427400  0.75000000  1
  Tl  Tl0  1  0.14827200  0.51131300  0.25000000  1
  Tl  Tl1  1  0.51131300  0.14827200  0.75000000  1
  Cu  Cu0  1  0.89093000  0.10070800  0.75000000  1
  Cu  Cu1  1  0.51151600  0.51151600  0.00000000  1
  Cu  Cu2  1  0.10070800  0.89093000  0.25000000  1
  Cu  Cu3  1  0.51151600  0.51151600  0.50000000  1
  S  S0  1  0.84316400  0.63489500  0.49825300  1
  S  S1  1  0.63489500  0.84316400  0.50174700  1
  S  S2  1  0.84316400  0.63489500  0.00174700  1
  S  S3  1  0.63489500  0.84316400  0.99825300  1
  S  S4  1  0.44921300  0.03863700  0.25000000  1
  S  S5  1  0.25196600  0.26560100  0.75000000  1
  S  S6  1  0.26560100  0.25196600  0.25000000  1
  S  S7  1  0.03863700  0.44921300  0.75000000  1
loop_
_geom_bond_atom_site_label_1
_geom_bond_atom_site_label_2
_geom_bond_distance
_geom_bond_site_symmetry_2
Cu0 S7 2.342646 1_655
Cu0 S3 2.352296 1_545
Cu0 S1 2.352296 1_545
Cu0 S5 2.358067 1_655
Cu1 S3 2.335445 1_554
Cu1 S2 2.335445 1_555
Cu1 S6 2.352539 1_555
Cu1 S5 2.352539 1_554
Cu2 S4 2.342646 1_565
Cu2 S2 2.352296 1_455
Cu2 S0 2.352296 1_455
Cu2 S6 2.358067 1_565
Cu3 S1 2.335445 1_555
Cu3 S0 2.335445 1_555
Cu3 S6 2.352539 1_555
Cu3 S5 2.352539 1_555
S0 Ta0 2.311205 1_555
S1 Ta1 2.311205 1_555
S2 Ta0 2.311205 1_555
S3 Ta1 2.311205 1_555
S4 Ta0 2.288597 1_555
S4 Tl0 3.142756 1_545
S5 Ta1 2.334666 1_555
S6 Ta0 2.334666 1_555
S7 Ta1 2.288597 1_555
S7 Tl1 3.142756 1_455
