# generated using pymatgen
data_SiAs2
_symmetry_space_group_name_H-M   'P 1'
_cell_length_a   15.48089001
_cell_length_b   10.47976247
_cell_length_c   3.65494202
_cell_angle_alpha   90.00000000
_cell_angle_beta   90.00000000
_cell_angle_gamma   90.00000000
_symmetry_Int_Tables_number   1
_chemical_formula_structural   SiAs2
_chemical_formula_sum   'Si8 As16'
_cell_volume   592.96335678
_cell_formula_units_Z   8
loop_
 _symmetry_equiv_pos_site_id
 _symmetry_equiv_pos_as_xyz
  1  'x, y, z'
loop_
 _atom_site_type_symbol
 _atom_site_label
 _atom_site_symmetry_multiplicity
 _atom_site_fract_x
 _atom_site_fract_y
 _atom_site_fract_z
 _atom_site_occupancy
  Si  Si0  1  0.26616711  0.19838037  0.50000100  1
  Si  Si1  1  0.73383389  0.80161863  0.50000100  1
  Si  Si2  1  0.76616611  0.30161963  0.50000100  1
  Si  Si3  1  0.23383389  0.69838037  0.50000100  1
  Si  Si4  1  0.15569176  0.41588019  0.00000000  1
  Si  Si5  1  0.84430924  0.58411881  0.00000000  1
  Si  Si6  1  0.65569076  0.08411881  -0.00000000  1
  Si  Si7  1  0.34430824  0.91588019  0.00000000  1
  As  As0  1  0.11917517  0.11566616  0.50000100  1
  As  As1  1  0.88082483  0.88433484  0.50000100  1
  As  As2  1  0.61917517  0.38433384  0.50000100  1
  As  As3  1  0.38082383  0.61566616  0.50000100  1
  As  As4  1  0.05457139  0.24384059  -0.00000000  1
  As  As5  1  0.94542861  0.75615941  0.00000000  1
  As  As6  1  0.55457039  0.25616041  -0.00000000  1
  As  As7  1  0.44542861  0.74384059  -0.00000000  1
  As  As8  1  0.38228182  0.04888650  0.50000100  1
  As  As9  1  0.61771718  0.95111250  0.50000100  1
  As  As10  1  0.88228182  0.45111350  0.50000100  1
  As  As11  1  0.11771818  0.54888550  0.50000100  1
  As  As12  1  0.29863208  0.33608112  0.00000000  1
  As  As13  1  0.70136692  0.66391988  0.00000000  1
  As  As14  1  0.79863208  0.16391988  0.00000000  1
  As  As15  1  0.20136792  0.83608012  0.00000000  1
loop_
_geom_bond_atom_site_label_1
_geom_bond_atom_site_label_2
_geom_bond_distance
_geom_bond_site_symmetry_2
As0 Si0 2.435074 1_555
As0 As4 2.478744 1_556
As0 As4 2.478749 1_555
As1 Si1 2.435067 1_555
As1 As5 2.478750 1_556
As1 As5 2.478755 1_555
As2 Si2 2.435060 1_555
As2 As6 2.478745 1_556
As2 As6 2.478750 1_555
As3 Si3 2.435045 1_555
As3 As7 2.478750 1_556
As3 As7 2.478756 1_555
As4 Si4 2.387709 1_555
As5 Si5 2.387707 1_555
As6 Si6 2.387725 1_555
As7 Si7 2.387709 1_555
As8 Si7 2.372363 1_546
As8 Si7 2.372369 1_545
As8 Si0 2.384459 1_555
As9 Si6 2.372363 1_566
As9 Si6 2.372369 1_565
As9 Si1 2.384482 1_555
As10 Si5 2.372353 1_556
As10 Si5 2.372359 1_555
As10 Si2 2.384470 1_555
As11 Si4 2.372357 1_556
As11 Si4 2.372363 1_555
As11 Si3 2.384477 1_555
As12 Si4 2.365593 1_555
As12 Si0 2.382160 1_554
As12 Si0 2.382165 1_555
As13 Si5 2.365630 1_555
As13 Si1 2.382153 1_554
As13 Si1 2.382159 1_555
As14 Si6 2.365615 1_555
As14 Si2 2.382157 1_554
As14 Si2 2.382162 1_555
As15 Si7 2.365597 1_555
As15 Si3 2.382157 1_554
As15 Si3 2.382162 1_555
