# generated using pymatgen
data_V2Cu3Pb(ClO4)2
_symmetry_space_group_name_H-M   'P 1'
_cell_length_a   8.62840009
_cell_length_b   8.62840009
_cell_length_c   8.62840009
_cell_angle_alpha   116.26499246
_cell_angle_beta   113.95290696
_cell_angle_gamma   98.71334240
_symmetry_Int_Tables_number   1
_chemical_formula_structural   V2Cu3Pb(ClO4)2
_chemical_formula_sum   'V4 Cu6 Pb2 Cl4 O16'
_cell_volume   481.55495805
_cell_formula_units_Z   2
loop_
 _symmetry_equiv_pos_site_id
 _symmetry_equiv_pos_as_xyz
  1  'x, y, z'
loop_
 _atom_site_type_symbol
 _atom_site_label
 _atom_site_symmetry_multiplicity
 _atom_site_fract_x
 _atom_site_fract_y
 _atom_site_fract_z
 _atom_site_occupancy
  V  V0  1  0.04713900  0.79713900  0.25000000  1
  V  V1  1  0.45286100  0.20286100  0.25000000  1
  V  V2  1  0.95286100  0.20286100  0.75000000  1
  V  V3  1  0.54713900  0.79713900  0.75000000  1
  Cu  Cu0  1  0.50000000  0.00000000  0.50000000  1
  Cu  Cu1  1  0.00000000  0.00000000  0.00000000  1
  Cu  Cu2  1  0.67232500  0.92164400  0.24931900  1
  Cu  Cu3  1  0.32767500  0.07835600  0.75068100  1
  Cu  Cu4  1  0.82767500  0.57699400  0.74931900  1
  Cu  Cu5  1  0.17232500  0.42300600  0.25068100  1
  Pb  Pb0  1  0.75000000  0.50000000  0.25000000  1
  Pb  Pb1  1  0.25000000  0.50000000  0.75000000  1
  Cl  Cl0  1  0.41281200  0.59516800  0.18235600  1
  Cl  Cl1  1  0.58718800  0.40483200  0.81764400  1
  Cl  Cl2  1  0.08718800  0.76954300  0.68235600  1
  Cl  Cl3  1  0.91281200  0.23045700  0.31764400  1
  O  O0  1  0.52475300  0.99146700  0.73295000  1
  O  O1  1  0.74148300  0.00853300  0.53328600  1
  O  O2  1  0.97524700  0.20819700  0.96671400  1
  O  O3  1  0.75851700  0.79180300  0.76705000  1
  O  O4  1  0.47524700  0.00853300  0.26705000  1
  O  O5  1  0.25851700  0.99146700  0.46671400  1
  O  O6  1  0.02475300  0.79180300  0.03328600  1
  O  O7  1  0.24148300  0.20819700  0.23295000  1
  O  O8  1  0.45261900  0.18198000  0.04143100  1
  O  O9  1  0.85945100  0.81802000  0.27064000  1
  O  O10  1  0.04738100  0.58881200  0.22936000  1
  O  O11  1  0.64054900  0.41118800  0.45856900  1
  O  O12  1  0.54738100  0.81802000  0.95856900  1
  O  O13  1  0.14054900  0.18198000  0.72936000  1
  O  O14  1  0.95261900  0.41118800  0.77064000  1
  O  O15  1  0.35945100  0.58881200  0.54143100  1
loop_
_geom_bond_atom_site_label_1
_geom_bond_atom_site_label_2
_geom_bond_distance
_geom_bond_site_symmetry_2
Cu0 O4 1.969327 1_555
Cu0 O0 1.969327 1_545
Cu0 O5 1.969327 1_545
Cu0 O1 1.969327 1_555
Cu1 O6 1.969327 1_545
Cu1 O3 1.969327 1_444
Cu1 O7 1.969327 1_555
Cu1 O2 1.969327 1_454
Cu2 O9 1.944734 1_555
Cu2 O12 1.944735 1_554
Cu2 O4 1.993252 1_565
Cu2 O1 1.993252 1_565
Cu3 O13 1.944734 1_555
Cu3 O8 1.944735 1_556
Cu3 O5 1.993252 1_545
Cu3 O0 1.993252 1_545
Cu4 O11 1.944735 1_555
Cu4 O14 1.944736 1_555
Cu4 O6 1.993252 1_656
Cu4 O3 1.993252 1_555
Cu5 O15 1.944735 1_555
Cu5 O10 1.944736 1_555
Cu5 O7 1.993252 1_555
Cu5 O2 1.993252 1_454
Cl0 Cu5 2.773870 1_555
Cl0 Cu2 2.980092 1_555
Cl0 Pb1 3.041171 1_554
Cl0 Pb0 3.041171 1_555
Cl0 Cu0 3.055435 1_565
Cl1 Cu4 2.773870 1_555
Cl1 Cu3 2.980092 1_555
Cl1 Pb0 3.041171 1_556
Cl1 Pb1 3.041171 1_555
Cl1 Cu0 3.055435 1_555
Cl2 Cu3 2.773876 1_565
Cl2 Cu4 2.980087 1_455
Cl2 Pb1 3.041163 1_555
Cl2 Pb0 3.041170 1_455
Cl2 Cu1 3.055437 1_566
Cl3 Cu2 2.773876 1_545
Cl3 Cu5 2.980087 1_655
Cl3 Pb0 3.041163 1_555
Cl3 Pb1 3.041170 1_655
Cl3 Cu1 3.055437 1_655
O0 V3 1.778701 1_555
O1 V2 1.778701 1_555
O2 V2 1.778701 1_555
O3 V3 1.778701 1_555
O4 V1 1.778701 1_555
O5 V0 1.778701 1_555
O6 V0 1.778701 1_555
O7 V1 1.778701 1_555
O8 V1 1.726545 1_555
O8 Pb0 2.664385 1_555
O9 V0 1.726548 1_655
O9 Pb0 2.664381 1_555
O10 V0 1.726542 1_555
O10 Pb0 2.664390 1_455
O11 V1 1.726545 1_555
O11 Pb0 2.664385 1_555
O12 V3 1.726545 1_555
O12 Pb1 2.664385 1_555
O13 V2 1.726548 1_455
O13 Pb1 2.664381 1_555
O14 V2 1.726542 1_555
O14 Pb1 2.664390 1_655
O15 V3 1.726545 1_555
O15 Pb1 2.664385 1_555
