# generated using pymatgen
data_Nb3Ni
_symmetry_space_group_name_H-M   'P 1'
_cell_length_a   5.06934898
_cell_length_b   5.06934898
_cell_length_c   5.06934898
_cell_angle_alpha   133.92984270
_cell_angle_beta   133.92984270
_cell_angle_gamma   67.19760807
_symmetry_Int_Tables_number   1
_chemical_formula_structural   Nb3Ni
_chemical_formula_sum   'Nb3 Ni1'
_cell_volume   66.45601286
_cell_formula_units_Z   1
loop_
 _symmetry_equiv_pos_site_id
 _symmetry_equiv_pos_as_xyz
  1  'x, y, z'
loop_
 _atom_site_type_symbol
 _atom_site_label
 _atom_site_symmetry_multiplicity
 _atom_site_fract_x
 _atom_site_fract_y
 _atom_site_fract_z
 _atom_site_occupancy
  Nb  Nb0  1  0.50000000  0.50000000  0.00000000  1
  Nb  Nb1  1  0.75000000  0.25000000  0.50000000  1
  Nb  Nb2  1  0.25000000  0.75000000  0.50000000  1
  Ni  Ni0  1  0.00000000  0.00000000  0.00000000  1
loop_
_geom_bond_atom_site_label_1
_geom_bond_atom_site_label_2
_geom_bond_distance
_geom_bond_site_symmetry_2
Nb0 Ni0 2.805247 1_565
Nb0 Ni0 2.805247 1_554
Nb0 Ni0 2.805247 1_655
Nb0 Ni0 2.805247 1_666
Nb0 Nb2 2.896882 1_555
Nb0 Nb2 2.896882 1_544
Nb0 Nb1 2.896882 1_565
Nb0 Nb1 2.896882 1_554
Nb0 Nb2 2.896882 1_655
Nb0 Nb2 2.896882 1_554
Nb0 Nb1 2.896882 1_454
Nb0 Nb1 2.896882 1_555
Nb1 Nb2 2.805247 1_656
Nb1 Nb2 2.805247 1_555
Nb1 Nb2 2.805247 1_544
Nb1 Nb2 2.805247 1_645
Nb1 Ni0 2.896882 1_655
Nb1 Ni0 2.896882 1_666
Nb1 Ni0 2.896882 1_555
Nb1 Ni0 2.896882 1_656
Nb2 Ni0 2.896882 1_566
Nb2 Ni0 2.896882 1_666
Nb2 Ni0 2.896882 1_555
Nb2 Ni0 2.896882 1_565
