# generated using pymatgen
data_Th(NiSn)2
_symmetry_space_group_name_H-M   'P 1'
_cell_length_a   4.42661378
_cell_length_b   4.42661378
_cell_length_c   10.05925648
_cell_angle_alpha   90.00000000
_cell_angle_beta   90.00000000
_cell_angle_gamma   90.00000000
_symmetry_Int_Tables_number   1
_chemical_formula_structural   Th(NiSn)2
_chemical_formula_sum   'Th2 Ni4 Sn4'
_cell_volume   197.11022094
_cell_formula_units_Z   2
loop_
 _symmetry_equiv_pos_site_id
 _symmetry_equiv_pos_as_xyz
  1  'x, y, z'
loop_
 _atom_site_type_symbol
 _atom_site_label
 _atom_site_symmetry_multiplicity
 _atom_site_fract_x
 _atom_site_fract_y
 _atom_site_fract_z
 _atom_site_occupancy
  Th  Th0  1  0.75000100  0.75000100  0.23283497  1
  Th  Th1  1  0.25000000  0.25000000  0.76716503  1
  Ni  Ni0  1  0.75000100  0.25000000  0.00000000  1
  Ni  Ni1  1  0.25000000  0.75000100  0.00000000  1
  Ni  Ni2  1  0.25000000  0.25000000  0.37334483  1
  Ni  Ni3  1  0.75000100  0.75000100  0.62665417  1
  Sn  Sn0  1  0.25000000  0.25000000  0.12548596  1
  Sn  Sn1  1  0.75000100  0.25000000  0.50000000  1
  Sn  Sn2  1  0.25000000  0.75000100  0.50000000  1
  Sn  Sn3  1  0.75000100  0.75000100  0.87451404  1
loop_
_geom_bond_atom_site_label_1
_geom_bond_atom_site_label_2
_geom_bond_distance
_geom_bond_site_symmetry_2
Ni0 Sn3 2.547959 1_544
Ni0 Sn0 2.547959 1_655
Ni0 Sn3 2.547967 1_554
Ni0 Sn0 2.547967 1_555
Ni0 Th1 3.222477 1_654
Ni0 Th0 3.222477 1_545
Ni0 Th1 3.222483 1_554
Ni0 Th0 3.222483 1_555
Ni1 Sn0 2.547959 1_565
Ni1 Sn3 2.547959 1_454
Ni1 Sn3 2.547967 1_554
Ni1 Sn0 2.547967 1_555
Ni1 Th0 3.222477 1_455
Ni1 Th1 3.222477 1_564
Ni1 Th1 3.222483 1_554
Ni1 Th0 3.222483 1_555
Ni2 Sn0 2.493276 1_555
Ni2 Sn1 2.553807 1_455
Ni2 Sn2 2.553807 1_545
Ni2 Sn1 2.553814 1_555
Ni2 Sn2 2.553814 1_555
Ni2 Th0 3.434412 1_445
Ni2 Th0 3.434418 1_545
Ni2 Th0 3.434418 1_455
Ni2 Th0 3.434423 1_555
Ni3 Sn3 2.493286 1_555
Ni3 Sn2 2.553802 1_655
Ni3 Sn1 2.553802 1_565
Ni3 Sn1 2.553809 1_555
Ni3 Sn2 2.553809 1_555
Ni3 Th1 3.434416 1_665
Ni3 Th1 3.434422 1_565
Ni3 Th1 3.434422 1_655
Ni3 Th1 3.434427 1_555
Sn0 Th0 3.311117 1_445
Sn0 Th0 3.311123 1_545
Sn0 Th0 3.311123 1_455
Sn0 Th0 3.311129 1_555
Sn1 Th0 3.481561 1_545
Sn1 Th1 3.481561 1_655
Sn1 Th1 3.481566 1_555
Sn1 Th0 3.481566 1_555
Sn2 Th1 3.481561 1_565
Sn2 Th0 3.481561 1_455
Sn2 Th1 3.481566 1_555
Sn2 Th0 3.481566 1_555
Sn3 Th1 3.311117 1_665
Sn3 Th1 3.311123 1_565
Sn3 Th1 3.311123 1_655
Sn3 Th1 3.311129 1_555
