# generated using pymatgen
data_CsY
_symmetry_space_group_name_H-M   'P 1'
_cell_length_a   7.68683045
_cell_length_b   7.68683045
_cell_length_c   15.02099000
_cell_angle_alpha   90.00000000
_cell_angle_beta   90.00000000
_cell_angle_gamma   119.99998668
_symmetry_Int_Tables_number   1
_chemical_formula_structural   CsY
_chemical_formula_sum   'Cs8 Y8'
_cell_volume   768.64153906
_cell_formula_units_Z   8
loop_
 _symmetry_equiv_pos_site_id
 _symmetry_equiv_pos_as_xyz
  1  'x, y, z'
loop_
 _atom_site_type_symbol
 _atom_site_label
 _atom_site_symmetry_multiplicity
 _atom_site_fract_x
 _atom_site_fract_y
 _atom_site_fract_z
 _atom_site_occupancy
  Cs  Cs0_0  1  0.16666650  0.33333350  0.25000000  1
  Cs  Cs0_1  1  0.16666650  0.33333350  0.75000000  1
  Cs  Cs0_2  1  0.16666650  0.83333350  0.25000000  1
  Cs  Cs0_3  1  0.16666650  0.83333350  0.75000000  1
  Cs  Cs0_4  1  0.66666650  0.33333350  0.25000000  1
  Cs  Cs0_5  1  0.66666650  0.33333350  0.75000000  1
  Cs  Cs0_6  1  0.66666650  0.83333350  0.25000000  1
  Cs  Cs0_7  1  0.66666650  0.83333350  0.75000000  1
  Y  Y0_0  1  0.00000000  0.00000000  0.00000000  1
  Y  Y0_1  1  0.00000000  0.00000000  0.50000000  1
  Y  Y0_2  1  0.00000000  0.50000000  0.00000000  1
  Y  Y0_3  1  0.00000000  0.50000000  0.50000000  1
  Y  Y0_4  1  0.50000000  0.00000000  0.00000000  1
  Y  Y0_5  1  0.50000000  0.00000000  0.50000000  1
  Y  Y0_6  1  0.50000000  0.50000000  0.00000000  1
  Y  Y0_7  1  0.50000000  0.50000000  0.50000000  1
loop_
_geom_bond_atom_site_label_1
_geom_bond_atom_site_label_2
_geom_bond_distance
_geom_bond_site_symmetry_2
Cs0_0 Cs0_4 3.843415 1_555
Cs0_0 Cs0_2 3.843415 1_555
Cs0_0 Cs0_4 3.843415 1_455
Cs0_0 Cs0_2 3.843415 1_545
Cs0_0 Cs0_6 3.843416 1_445
Cs0_0 Cs0_6 3.843416 1_555
Cs0_0 Y0_3 4.361860 1_555
Cs0_0 Y0_2 4.361860 1_555
Cs0_0 Y0_0 4.361862 1_555
Cs0_0 Y0_1 4.361862 1_555
Cs0_0 Y0_6 4.361862 1_555
Cs0_0 Y0_7 4.361862 1_555
Cs0_1 Cs0_5 3.843415 1_555
Cs0_1 Cs0_3 3.843415 1_555
Cs0_1 Cs0_3 3.843415 1_545
Cs0_1 Cs0_5 3.843415 1_455
Cs0_1 Cs0_7 3.843416 1_445
Cs0_1 Cs0_7 3.843416 1_555
Cs0_1 Y0_2 4.361860 1_556
Cs0_1 Y0_3 4.361860 1_555
Cs0_1 Y0_0 4.361862 1_556
Cs0_1 Y0_1 4.361862 1_555
Cs0_1 Y0_7 4.361862 1_555
Cs0_1 Y0_6 4.361862 1_556
Cs0_2 Cs0_6 3.843415 1_455
Cs0_2 Cs0_6 3.843415 1_555
Cs0_2 Cs0_4 3.843416 1_565
Cs0_2 Cs0_4 3.843416 1_455
Cs0_2 Y0_0 4.361860 1_565
Cs0_2 Y0_1 4.361860 1_565
Cs0_2 Y0_4 4.361862 1_565
Cs0_2 Y0_5 4.361862 1_565
Cs0_2 Y0_3 4.361862 1_555
Cs0_2 Y0_2 4.361862 1_555
Cs0_3 Cs0_7 3.843415 1_455
Cs0_3 Cs0_7 3.843415 1_555
Cs0_3 Cs0_5 3.843416 1_565
Cs0_3 Cs0_5 3.843416 1_455
Cs0_3 Y0_0 4.361860 1_566
Cs0_3 Y0_1 4.361860 1_565
Cs0_3 Y0_4 4.361862 1_566
Cs0_3 Y0_5 4.361862 1_565
Cs0_3 Y0_2 4.361862 1_556
Cs0_3 Y0_3 4.361862 1_555
Cs0_4 Cs0_6 3.843415 1_555
Cs0_4 Cs0_6 3.843415 1_545
Cs0_4 Y0_6 4.361860 1_555
Cs0_4 Y0_7 4.361860 1_555
Cs0_4 Y0_4 4.361862 1_555
Cs0_4 Y0_2 4.361862 1_655
Cs0_4 Y0_3 4.361862 1_655
Cs0_4 Y0_5 4.361862 1_555
Cs0_5 Cs0_7 3.843415 1_555
Cs0_5 Cs0_7 3.843415 1_545
Cs0_5 Y0_6 4.361860 1_556
Cs0_5 Y0_7 4.361860 1_555
Cs0_5 Y0_4 4.361862 1_556
Cs0_5 Y0_2 4.361862 1_656
Cs0_5 Y0_3 4.361862 1_655
Cs0_5 Y0_5 4.361862 1_555
Cs0_6 Y0_4 4.361860 1_565
Cs0_6 Y0_5 4.361860 1_565
Cs0_6 Y0_1 4.361862 1_665
Cs0_6 Y0_0 4.361862 1_665
Cs0_6 Y0_6 4.361862 1_555
Cs0_6 Y0_7 4.361862 1_555
Cs0_7 Y0_4 4.361860 1_566
Cs0_7 Y0_5 4.361860 1_565
Cs0_7 Y0_6 4.361862 1_556
Cs0_7 Y0_1 4.361862 1_665
Cs0_7 Y0_7 4.361862 1_555
Cs0_7 Y0_0 4.361862 1_666
Y0_0 Y0_2 3.843415 1_555
Y0_0 Y0_2 3.843415 1_545
Y0_0 Y0_4 3.843415 1_455
Y0_0 Y0_4 3.843415 1_555
Y0_0 Y0_6 3.843416 1_445
Y0_0 Y0_6 3.843416 1_555
Y0_1 Y0_3 3.843415 1_555
Y0_1 Y0_5 3.843415 1_555
Y0_1 Y0_3 3.843415 1_545
Y0_1 Y0_5 3.843415 1_455
Y0_1 Y0_7 3.843416 1_555
Y0_1 Y0_7 3.843416 1_445
Y0_2 Y0_6 3.843415 1_555
Y0_2 Y0_6 3.843415 1_455
Y0_2 Y0_4 3.843416 1_565
Y0_2 Y0_4 3.843416 1_455
Y0_3 Y0_7 3.843415 1_455
Y0_3 Y0_7 3.843415 1_555
Y0_3 Y0_5 3.843416 1_565
Y0_3 Y0_5 3.843416 1_455
Y0_4 Y0_6 3.843415 1_555
Y0_4 Y0_6 3.843415 1_545
Y0_5 Y0_7 3.843415 1_555
Y0_5 Y0_7 3.843415 1_545
