# generated using pymatgen
data_NaMg
_symmetry_space_group_name_H-M   'P 1'
_cell_length_a   6.58190400
_cell_length_b   11.06158200
_cell_length_c   12.40496000
_cell_angle_alpha   90.00000000
_cell_angle_beta   90.00000000
_cell_angle_gamma   90.00000000
_symmetry_Int_Tables_number   1
_chemical_formula_structural   NaMg
_chemical_formula_sum   'Na16 Mg16'
_cell_volume   903.15887717
_cell_formula_units_Z   16
loop_
 _symmetry_equiv_pos_site_id
 _symmetry_equiv_pos_as_xyz
  1  'x, y, z'
loop_
 _atom_site_type_symbol
 _atom_site_label
 _atom_site_symmetry_multiplicity
 _atom_site_fract_x
 _atom_site_fract_y
 _atom_site_fract_z
 _atom_site_occupancy
  Na  Na0_0  1  0.25000000  0.37500000  0.17459500  1
  Na  Na0_1  1  0.25000000  0.37500000  0.67459500  1
  Na  Na0_2  1  0.25000000  0.87500000  0.17459500  1
  Na  Na0_3  1  0.25000000  0.87500000  0.67459500  1
  Na  Na0_4  1  0.75000000  0.37500000  0.17459500  1
  Na  Na0_5  1  0.75000000  0.37500000  0.67459500  1
  Na  Na0_6  1  0.75000000  0.87500000  0.17459500  1
  Na  Na0_7  1  0.75000000  0.87500000  0.67459500  1
  Na  Na1_0  1  0.25000000  0.12500000  0.32540500  1
  Na  Na1_1  1  0.25000000  0.12500000  0.82540500  1
  Na  Na1_2  1  0.25000000  0.62500000  0.32540500  1
  Na  Na1_3  1  0.25000000  0.62500000  0.82540500  1
  Na  Na1_4  1  0.75000000  0.12500000  0.32540500  1
  Na  Na1_5  1  0.75000000  0.12500000  0.82540500  1
  Na  Na1_6  1  0.75000000  0.62500000  0.32540500  1
  Na  Na1_7  1  0.75000000  0.62500000  0.82540500  1
  Mg  Mg0_0  1  0.00000000  0.12500000  0.06747500  1
  Mg  Mg0_1  1  0.00000000  0.12500000  0.56747500  1
  Mg  Mg0_2  1  0.00000000  0.62500000  0.06747500  1
  Mg  Mg0_3  1  0.00000000  0.62500000  0.56747500  1
  Mg  Mg0_4  1  0.50000000  0.12500000  0.06747500  1
  Mg  Mg0_5  1  0.50000000  0.12500000  0.56747500  1
  Mg  Mg0_6  1  0.50000000  0.62500000  0.06747500  1
  Mg  Mg0_7  1  0.50000000  0.62500000  0.56747500  1
  Mg  Mg1_0  1  0.00000000  0.37500000  0.43252500  1
  Mg  Mg1_1  1  0.00000000  0.37500000  0.93252500  1
  Mg  Mg1_2  1  0.00000000  0.87500000  0.43252500  1
  Mg  Mg1_3  1  0.00000000  0.87500000  0.93252500  1
  Mg  Mg1_4  1  0.50000000  0.37500000  0.43252500  1
  Mg  Mg1_5  1  0.50000000  0.37500000  0.93252500  1
  Mg  Mg1_6  1  0.50000000  0.87500000  0.43252500  1
  Mg  Mg1_7  1  0.50000000  0.87500000  0.93252500  1
loop_
_geom_bond_atom_site_label_1
_geom_bond_atom_site_label_2
_geom_bond_distance
_geom_bond_site_symmetry_2
Na0_0 Na0_4 3.290952 1_555
Na0_0 Na0_4 3.290952 1_455
Na0_0 Na1_0 3.338754 1_555
Na0_0 Na1_2 3.338754 1_555
Na0_1 Na0_5 3.290952 1_555
Na0_1 Na0_5 3.290952 1_455
Na0_1 Na1_1 3.338754 1_555
Na0_1 Na1_3 3.338754 1_555
Na0_2 Na0_6 3.290952 1_555
Na0_2 Na0_6 3.290952 1_455
Na0_2 Na1_2 3.338754 1_555
Na0_2 Na1_0 3.338754 1_565
Na0_3 Na0_7 3.290952 1_555
Na0_3 Na0_7 3.290952 1_455
Na0_3 Na1_3 3.338754 1_555
Na0_3 Na1_1 3.338754 1_565
Na0_4 Na1_4 3.338754 1_555
Na0_4 Na1_6 3.338754 1_555
Na0_5 Na1_5 3.338754 1_555
Na0_5 Na1_7 3.338754 1_555
Na0_6 Na1_6 3.338754 1_555
Na0_6 Na1_4 3.338754 1_565
Na0_7 Na1_7 3.338754 1_555
Na0_7 Na1_5 3.338754 1_565
Na1_0 Na1_4 3.290952 1_555
Na1_0 Na1_4 3.290952 1_455
Na1_1 Na1_5 3.290952 1_555
Na1_1 Na1_5 3.290952 1_455
Na1_2 Na1_6 3.290952 1_555
Na1_2 Na1_6 3.290952 1_455
Na1_3 Na1_7 3.290952 1_555
Na1_3 Na1_7 3.290952 1_455
Mg0_0 Mg1_1 3.232623 1_554
Mg0_0 Mg1_3 3.232623 1_544
Mg0_0 Mg0_4 3.290952 1_455
Mg0_0 Mg0_4 3.290952 1_555
Mg0_0 Na1_1 3.424151 1_554
Mg0_0 Na1_5 3.424151 1_454
Mg0_0 Na0_0 3.481489 1_555
Mg0_0 Na0_4 3.481489 1_455
Mg0_0 Na0_2 3.481489 1_545
Mg0_0 Na0_6 3.481489 1_445
Mg0_0 Na1_0 3.597931 1_555
Mg0_0 Na1_4 3.597931 1_455
Mg0_1 Mg1_0 3.232623 1_555
Mg0_1 Mg1_2 3.232623 1_545
Mg0_1 Mg0_5 3.290952 1_455
Mg0_1 Mg0_5 3.290952 1_555
Mg0_1 Na1_0 3.424151 1_555
Mg0_1 Na1_4 3.424151 1_455
Mg0_1 Na0_1 3.481489 1_555
Mg0_1 Na0_5 3.481489 1_455
Mg0_1 Na0_3 3.481489 1_545
Mg0_1 Na0_7 3.481489 1_445
Mg0_1 Na1_1 3.597931 1_555
Mg0_1 Na1_5 3.597931 1_455
Mg0_2 Mg1_3 3.232623 1_554
Mg0_2 Mg1_1 3.232623 1_554
Mg0_2 Mg0_6 3.290952 1_455
Mg0_2 Mg0_6 3.290952 1_555
Mg0_2 Na1_3 3.424151 1_554
Mg0_2 Na1_7 3.424151 1_454
Mg0_2 Na0_2 3.481489 1_555
Mg0_2 Na0_6 3.481489 1_455
Mg0_2 Na0_0 3.481489 1_555
Mg0_2 Na0_4 3.481489 1_455
Mg0_2 Na1_2 3.597931 1_555
Mg0_2 Na1_6 3.597931 1_455
Mg0_3 Mg1_2 3.232623 1_555
Mg0_3 Mg1_0 3.232623 1_555
Mg0_3 Mg0_7 3.290952 1_455
Mg0_3 Mg0_7 3.290952 1_555
Mg0_3 Na1_2 3.424151 1_555
Mg0_3 Na1_6 3.424151 1_455
Mg0_3 Na0_3 3.481489 1_555
Mg0_3 Na0_7 3.481489 1_455
Mg0_3 Na0_1 3.481489 1_555
Mg0_3 Na0_5 3.481489 1_455
Mg0_3 Na1_3 3.597931 1_555
Mg0_3 Na1_7 3.597931 1_455
Mg0_4 Mg1_5 3.232623 1_554
Mg0_4 Mg1_7 3.232623 1_544
Mg0_4 Na1_5 3.424151 1_554
Mg0_4 Na1_1 3.424151 1_554
Mg0_4 Na0_4 3.481489 1_555
Mg0_4 Na0_0 3.481489 1_555
Mg0_4 Na0_6 3.481489 1_545
Mg0_4 Na0_2 3.481489 1_545
Mg0_4 Na1_4 3.597931 1_555
Mg0_4 Na1_0 3.597931 1_555
Mg0_5 Mg1_4 3.232623 1_555
Mg0_5 Mg1_6 3.232623 1_545
Mg0_5 Na1_0 3.424151 1_555
Mg0_5 Na1_4 3.424151 1_555
Mg0_5 Na0_1 3.481489 1_555
Mg0_5 Na0_5 3.481489 1_555
Mg0_5 Na0_7 3.481489 1_545
Mg0_5 Na0_3 3.481489 1_545
Mg0_5 Na1_1 3.597931 1_555
Mg0_5 Na1_5 3.597931 1_555
Mg0_6 Mg1_7 3.232623 1_554
Mg0_6 Mg1_5 3.232623 1_554
Mg0_6 Na1_7 3.424151 1_554
Mg0_6 Na1_3 3.424151 1_554
Mg0_6 Na0_2 3.481489 1_555
Mg0_6 Na0_6 3.481489 1_555
Mg0_6 Na0_4 3.481489 1_555
Mg0_6 Na0_0 3.481489 1_555
Mg0_6 Na1_6 3.597931 1_555
Mg0_6 Na1_2 3.597931 1_555
Mg0_7 Mg1_6 3.232623 1_555
Mg0_7 Mg1_4 3.232623 1_555
Mg0_7 Na1_6 3.424151 1_555
Mg0_7 Na1_2 3.424151 1_555
Mg0_7 Na0_3 3.481489 1_555
Mg0_7 Na0_7 3.481489 1_555
Mg0_7 Na0_5 3.481489 1_555
Mg0_7 Na0_1 3.481489 1_555
Mg0_7 Na1_3 3.597931 1_555
Mg0_7 Na1_7 3.597931 1_555
Mg1_0 Mg1_4 3.290952 1_455
Mg1_0 Mg1_4 3.290952 1_555
Mg1_0 Na0_1 3.424151 1_555
Mg1_0 Na0_5 3.424151 1_455
Mg1_0 Na1_0 3.481489 1_555
Mg1_0 Na1_4 3.481489 1_455
Mg1_0 Na1_6 3.481489 1_455
Mg1_0 Na1_2 3.481489 1_555
Mg1_0 Na0_0 3.597931 1_555
Mg1_0 Na0_4 3.597931 1_455
Mg1_1 Mg1_5 3.290952 1_555
Mg1_1 Mg1_5 3.290952 1_455
Mg1_1 Na0_0 3.424151 1_556
Mg1_1 Na0_4 3.424151 1_456
Mg1_1 Na1_1 3.481489 1_555
Mg1_1 Na1_5 3.481489 1_455
Mg1_1 Na1_7 3.481489 1_455
Mg1_1 Na1_3 3.481489 1_555
Mg1_1 Na0_1 3.597931 1_555
Mg1_1 Na0_5 3.597931 1_455
Mg1_2 Mg1_6 3.290952 1_455
Mg1_2 Mg1_6 3.290952 1_555
Mg1_2 Na0_3 3.424151 1_555
Mg1_2 Na0_7 3.424151 1_455
Mg1_2 Na1_2 3.481489 1_555
Mg1_2 Na1_6 3.481489 1_455
Mg1_2 Na1_0 3.481489 1_565
Mg1_2 Na1_4 3.481489 1_465
Mg1_2 Na0_2 3.597931 1_555
Mg1_2 Na0_6 3.597931 1_455
Mg1_3 Mg1_7 3.290952 1_555
Mg1_3 Mg1_7 3.290952 1_455
Mg1_3 Na0_2 3.424151 1_556
Mg1_3 Na0_6 3.424151 1_456
Mg1_3 Na1_3 3.481489 1_555
Mg1_3 Na1_7 3.481489 1_455
Mg1_3 Na1_1 3.481489 1_565
Mg1_3 Na1_5 3.481489 1_465
Mg1_3 Na0_3 3.597931 1_555
Mg1_3 Na0_7 3.597931 1_455
Mg1_4 Na0_5 3.424151 1_555
Mg1_4 Na0_1 3.424151 1_555
Mg1_4 Na1_4 3.481489 1_555
Mg1_4 Na1_0 3.481489 1_555
Mg1_4 Na1_6 3.481489 1_555
Mg1_4 Na1_2 3.481489 1_555
Mg1_4 Na0_0 3.597931 1_555
Mg1_4 Na0_4 3.597931 1_555
Mg1_5 Na0_4 3.424151 1_556
Mg1_5 Na0_0 3.424151 1_556
Mg1_5 Na1_1 3.481489 1_555
Mg1_5 Na1_5 3.481489 1_555
Mg1_5 Na1_7 3.481489 1_555
Mg1_5 Na1_3 3.481489 1_555
Mg1_5 Na0_1 3.597931 1_555
Mg1_5 Na0_5 3.597931 1_555
Mg1_6 Na0_7 3.424151 1_555
Mg1_6 Na0_3 3.424151 1_555
Mg1_6 Na1_6 3.481489 1_555
Mg1_6 Na1_2 3.481489 1_555
Mg1_6 Na1_4 3.481489 1_565
Mg1_6 Na1_0 3.481489 1_565
Mg1_6 Na0_2 3.597931 1_555
Mg1_6 Na0_6 3.597931 1_555
Mg1_7 Na0_6 3.424151 1_556
Mg1_7 Na0_2 3.424151 1_556
Mg1_7 Na1_3 3.481489 1_555
Mg1_7 Na1_7 3.481489 1_555
Mg1_7 Na1_5 3.481489 1_565
Mg1_7 Na1_1 3.481489 1_565
Mg1_7 Na0_3 3.597931 1_555
Mg1_7 Na0_7 3.597931 1_555
