# generated using pymatgen
data_DyGeRh
_symmetry_space_group_name_H-M   'P 1'
_cell_length_a   4.29883450
_cell_length_b   6.91153063
_cell_length_c   7.50498148
_cell_angle_alpha   89.99997651
_cell_angle_beta   89.99999872
_cell_angle_gamma   90.00000030
_symmetry_Int_Tables_number   1
_chemical_formula_structural   DyGeRh
_chemical_formula_sum   'Dy4 Ge4 Rh4'
_cell_volume   222.98445477
_cell_formula_units_Z   4
loop_
 _symmetry_equiv_pos_site_id
 _symmetry_equiv_pos_as_xyz
  1  'x, y, z'
loop_
 _atom_site_type_symbol
 _atom_site_label
 _atom_site_symmetry_multiplicity
 _atom_site_fract_x
 _atom_site_fract_y
 _atom_site_fract_z
 _atom_site_occupancy
  Dy  Dy0  1  0.24999999  0.00054228  0.30408613  1
  Dy  Dy1  1  0.25000009  0.50055557  0.19584959  1
  Dy  Dy2  1  0.75000000  -0.00053970  0.69591000  1
  Dy  Dy3  1  0.74999997  0.49944062  0.80414427  1
  Ge  Ge0  1  0.25000001  0.28983845  0.60498256  1
  Ge  Ge1  1  0.24999998  0.78985560  0.89502259  1
  Ge  Ge2  1  0.75000004  0.71015066  0.39501989  1
  Ge  Ge3  1  0.75000000  0.21015494  0.10497427  1
  Rh  Rh0  1  0.24999995  0.15494769  0.93237725  1
  Rh  Rh1  1  0.25000008  0.65498350  0.56764933  1
  Rh  Rh2  1  0.74999991  0.84505320  0.06762963  1
  Rh  Rh3  1  0.74999998  0.34501820  0.43235349  1
loop_
_geom_bond_atom_site_label_1
_geom_bond_atom_site_label_2
_geom_bond_distance
_geom_bond_site_symmetry_2
Dy0 Rh0 2.986824 1_554
Dy0 Rh2 2.987326 1_545
Dy0 Rh2 2.987326 1_445
Dy0 Ge3 2.991969 1_455
Dy0 Ge3 2.991969 1_555
Dy0 Ge0 3.016204 1_555
Dy0 Ge2 3.018939 1_445
Dy0 Ge2 3.018939 1_545
Dy0 Rh1 3.101096 1_545
Dy0 Rh3 3.348904 1_555
Dy0 Rh3 3.348904 1_455
Dy1 Rh1 2.987517 1_555
Dy1 Rh3 2.987657 1_555
Dy1 Rh3 2.987657 1_455
Dy1 Ge2 2.992130 1_555
Dy1 Ge2 2.992130 1_455
Dy1 Ge1 3.015831 1_554
Dy1 Ge3 3.018881 1_555
Dy1 Ge3 3.018882 1_455
Dy1 Rh0 3.100923 1_554
Dy1 Rh2 3.348907 1_555
Dy1 Rh2 3.348908 1_455
Dy2 Rh2 2.986903 1_546
Dy2 Rh0 2.987370 1_655
Dy2 Rh0 2.987370 1_555
Dy2 Ge1 2.991945 1_645
Dy2 Ge1 2.991945 1_545
Dy2 Ge2 3.016231 1_545
Dy2 Ge0 3.018866 1_555
Dy2 Ge0 3.018866 1_655
Dy2 Rh3 3.101059 1_555
Dy2 Rh1 3.348893 1_545
Dy2 Rh1 3.348894 1_645
Dy3 Rh3 2.987440 1_555
Dy3 Rh1 2.987630 1_555
Dy3 Rh1 2.987631 1_655
Dy3 Ge0 2.992121 1_555
Dy3 Ge0 2.992121 1_655
Dy3 Ge3 3.015782 1_556
Dy3 Ge1 3.018953 1_555
Dy3 Ge1 3.018953 1_655
Dy3 Rh2 3.101011 1_556
Dy3 Rh0 3.348912 1_655
Dy3 Rh0 3.348912 1_555
Ge0 Rh3 2.538496 1_555
Ge0 Rh3 2.538497 1_455
Ge0 Rh1 2.539217 1_555
Ge0 Rh0 2.628018 1_555
Ge1 Rh2 2.538431 1_556
Ge1 Rh2 2.538431 1_456
Ge1 Rh0 2.538871 1_565
Ge1 Rh1 2.627823 1_555
Ge2 Rh1 2.538485 1_555
Ge2 Rh1 2.538485 1_655
Ge2 Rh3 2.539131 1_555
Ge2 Rh2 2.628016 1_555
Ge3 Rh0 2.538402 1_654
Ge3 Rh0 2.538403 1_554
Ge3 Rh2 2.538929 1_545
Ge3 Rh3 2.627843 1_555
