# generated using pymatgen
data_Au3S
_symmetry_space_group_name_H-M   'P 1'
_cell_length_a   5.88795869
_cell_length_b   5.88795869
_cell_length_c   4.82459300
_cell_angle_alpha   90.00000000
_cell_angle_beta   90.00000000
_cell_angle_gamma   120.00000774
_symmetry_Int_Tables_number   1
_chemical_formula_structural   Au3S
_chemical_formula_sum   'Au6 S2'
_cell_volume   144.85076350
_cell_formula_units_Z   2
loop_
 _symmetry_equiv_pos_site_id
 _symmetry_equiv_pos_as_xyz
  1  'x, y, z'
loop_
 _atom_site_type_symbol
 _atom_site_label
 _atom_site_symmetry_multiplicity
 _atom_site_fract_x
 _atom_site_fract_y
 _atom_site_fract_z
 _atom_site_occupancy
  Au  Au0  1  0.16626100  0.33252300  0.25000000  1
  Au  Au1  1  0.66747700  0.83373900  0.25000000  1
  Au  Au2  1  0.16626100  0.83373900  0.25000000  1
  Au  Au3  1  0.83373900  0.66747700  0.75000000  1
  Au  Au4  1  0.33252300  0.16626100  0.75000000  1
  Au  Au5  1  0.83373900  0.16626100  0.75000000  1
  S  S0  1  0.33333300  0.66666700  0.75000000  1
  S  S1  1  0.66666700  0.33333300  0.25000000  1
loop_
_geom_bond_atom_site_label_1
_geom_bond_atom_site_label_2
_geom_bond_distance
_geom_bond_site_symmetry_2
Au0 Au1 2.936819 1_445
Au0 Au2 2.936820 1_545
Au0 S1 2.943976 1_455
Au0 S1 2.943988 1_555
Au0 Au5 2.948581 1_455
Au0 Au5 2.948581 1_454
Au0 Au4 2.948587 1_555
Au0 Au4 2.948587 1_554
Au0 Au1 2.951139 1_555
Au0 Au2 2.951139 1_555
Au0 S0 2.953345 1_554
Au0 S0 2.953345 1_555
Au1 Au2 2.936820 1_655
Au1 S1 2.943976 1_565
Au1 S1 2.943988 1_555
Au1 Au5 2.948581 1_565
Au1 Au5 2.948581 1_564
Au1 Au3 2.948587 1_554
Au1 Au3 2.948587 1_555
Au1 Au2 2.951139 1_555
Au1 S0 2.953345 1_554
Au1 S0 2.953345 1_555
Au2 S1 2.943982 1_455
Au2 S1 2.943982 1_565
Au2 Au3 2.948581 1_454
Au2 Au3 2.948581 1_455
Au2 Au4 2.948581 1_565
Au2 Au4 2.948581 1_564
Au2 S0 2.953345 1_555
Au2 S0 2.953345 1_554
Au3 Au4 2.936819 1_665
Au3 Au5 2.936820 1_565
Au3 S0 2.943976 1_655
Au3 S0 2.943988 1_555
Au3 Au4 2.951139 1_555
Au3 Au5 2.951139 1_555
Au3 S1 2.953345 1_556
Au3 S1 2.953345 1_555
Au4 Au5 2.936820 1_455
Au4 S0 2.943976 1_545
Au4 S0 2.943988 1_555
Au4 Au5 2.951139 1_555
Au4 S1 2.953345 1_556
Au4 S1 2.953345 1_555
Au5 S0 2.943982 1_545
Au5 S0 2.943982 1_655
Au5 S1 2.953345 1_556
Au5 S1 2.953345 1_555
