# generated using pymatgen
data_RbMg3
_symmetry_space_group_name_H-M   'P 1'
_cell_length_a   8.56378724
_cell_length_b   8.56378724
_cell_length_c   5.01369049
_cell_angle_alpha   90.00000000
_cell_angle_beta   90.00000000
_cell_angle_gamma   119.99999957
_symmetry_Int_Tables_number   1
_chemical_formula_structural   RbMg3
_chemical_formula_sum   'Rb2 Mg6'
_cell_volume   318.43433734
_cell_formula_units_Z   2
loop_
 _symmetry_equiv_pos_site_id
 _symmetry_equiv_pos_as_xyz
  1  'x, y, z'
loop_
 _atom_site_type_symbol
 _atom_site_label
 _atom_site_symmetry_multiplicity
 _atom_site_fract_x
 _atom_site_fract_y
 _atom_site_fract_z
 _atom_site_occupancy
  Rb  Rb0  1  0.66666700  0.33333300  0.25000000  1
  Rb  Rb1  1  0.33333300  0.66666700  0.75000000  1
  Mg  Mg0  1  0.12061369  0.24122837  0.25000000  1
  Mg  Mg1  1  0.75877163  0.87938631  0.25000000  1
  Mg  Mg2  1  0.12061369  0.87938631  0.25000000  1
  Mg  Mg3  1  0.87938631  0.12061369  0.75000000  1
  Mg  Mg4  1  0.24122837  0.12061369  0.75000000  1
  Mg  Mg5  1  0.87938631  0.75877163  0.75000000  1
loop_
_geom_bond_atom_site_label_1
_geom_bond_atom_site_label_2
_geom_bond_distance
_geom_bond_site_symmetry_2
Mg0 Mg3 3.079770 1_455
Mg0 Mg3 3.079770 1_454
Mg0 Mg4 3.079778 1_555
Mg0 Mg4 3.079778 1_554
Mg0 Mg2 3.098738 1_545
Mg0 Mg1 3.098738 1_445
Mg0 Rb1 4.029871 1_555
Mg0 Rb1 4.029871 1_554
Mg1 Mg3 3.079770 1_564
Mg1 Mg3 3.079770 1_565
Mg1 Mg5 3.079778 1_555
Mg1 Mg5 3.079778 1_554
Mg1 Mg2 3.098738 1_655
Mg1 Rb1 4.029871 1_555
Mg1 Rb1 4.029871 1_554
Mg2 Mg4 3.079770 1_565
Mg2 Mg4 3.079770 1_564
Mg2 Mg5 3.079770 1_455
Mg2 Mg5 3.079770 1_454
Mg2 Rb1 4.029871 1_555
Mg2 Rb1 4.029871 1_554
Mg3 Mg5 3.098738 1_545
Mg3 Mg4 3.098738 1_655
Mg3 Rb0 4.029871 1_555
Mg3 Rb0 4.029871 1_556
Mg4 Mg5 3.098738 1_445
Mg4 Rb0 4.029871 1_555
Mg4 Rb0 4.029871 1_556
Mg5 Rb0 4.029871 1_556
Mg5 Rb0 4.029871 1_555
