# generated using pymatgen
data_Hf9CoMo4
_symmetry_space_group_name_H-M   'P 1'
_cell_length_a   8.65690591
_cell_length_b   8.65690929
_cell_length_c   8.36870426
_cell_angle_alpha   89.99999944
_cell_angle_beta   90.00000056
_cell_angle_gamma   119.99999733
_symmetry_Int_Tables_number   1
_chemical_formula_structural   Hf9CoMo4
_chemical_formula_sum   'Hf18 Co2 Mo8'
_cell_volume   543.14330210
_cell_formula_units_Z   2
loop_
 _symmetry_equiv_pos_site_id
 _symmetry_equiv_pos_as_xyz
  1  'x, y, z'
loop_
 _atom_site_type_symbol
 _atom_site_label
 _atom_site_symmetry_multiplicity
 _atom_site_fract_x
 _atom_site_fract_y
 _atom_site_fract_z
 _atom_site_occupancy
  Hf  Hf0  1  0.20213480  0.79786542  0.05915268  1
  Hf  Hf1  1  0.59573026  0.79786517  0.05915255  1
  Hf  Hf2  1  0.79785458  0.59570926  0.55914603  1
  Hf  Hf3  1  0.20213472  0.40426952  0.05915269  1
  Hf  Hf4  1  0.79785456  0.20214522  0.55914600  1
  Hf  Hf5  1  0.40429086  0.20214540  0.55914587  1
  Hf  Hf6  1  0.79785464  0.59570927  0.94085401  1
  Hf  Hf7  1  0.79785456  0.20214526  0.94085392  1
  Hf  Hf8  1  0.40429084  0.20214542  0.94085409  1
  Hf  Hf9  1  0.59573033  0.79786524  0.44084748  1
  Hf  Hf10  1  0.20213493  0.79786533  0.44084740  1
  Hf  Hf11  1  0.20213479  0.40426951  0.44084726  1
  Hf  Hf12  1  0.54206640  0.08413298  0.25000006  1
  Hf  Hf13  1  0.45794975  0.91589932  0.74999994  1
  Hf  Hf14  1  0.91586687  0.45793377  0.25000011  1
  Hf  Hf15  1  0.54206628  0.45793374  0.25000005  1
  Hf  Hf16  1  0.45794978  0.54205003  0.74999995  1
  Hf  Hf17  1  0.08410096  0.54205018  0.74999990  1
  Co  Co0  1  0.66666638  0.33333302  0.74999996  1
  Co  Co1  1  0.33333357  0.66666692  0.25000000  1
  Mo  Mo0  1  -0.00000004  -0.00000001  0.00001214  1
  Mo  Mo1  1  0.00000004  0.00000002  0.49998789  1
  Mo  Mo2  1  0.88872572  0.77745181  0.25000001  1
  Mo  Mo3  1  0.11127013  0.22253979  0.74999998  1
  Mo  Mo4  1  0.22254791  0.11127401  0.25000001  1
  Mo  Mo5  1  0.88872570  0.11127399  0.24999996  1
  Mo  Mo6  1  0.11127017  0.88873024  0.75000006  1
  Mo  Mo7  1  0.77746052  0.88873019  0.75000002  1
loop_
_geom_bond_atom_site_label_1
_geom_bond_atom_site_label_2
_geom_bond_distance
_geom_bond_site_symmetry_2
Hf0 Mo6 2.924020 1_554
Hf0 Mo0 3.070993 1_565
Hf0 Mo4 3.076334 1_565
Hf0 Mo2 3.076335 1_455
Hf1 Mo7 2.924022 1_554
Hf1 Mo0 3.070995 1_665
Hf1 Mo2 3.076334 1_555
Hf1 Mo5 3.076334 1_565
Hf2 Mo2 2.924017 1_555
Hf2 Mo1 3.071176 1_665
Hf2 Mo7 3.076473 1_555
Hf2 Mo6 3.076475 1_655
Hf3 Mo3 2.924022 1_554
Hf3 Mo0 3.070995 1_555
Hf3 Mo4 3.076334 1_555
Hf3 Mo5 3.076335 1_455
Hf4 Mo5 2.924017 1_555
Hf4 Mo1 3.071175 1_655
Hf4 Mo7 3.076474 1_545
Hf4 Mo3 3.076475 1_655
Hf5 Mo4 2.924017 1_555
Hf5 Mo1 3.071175 1_555
Hf5 Mo3 3.076473 1_555
Hf5 Mo6 3.076474 1_545
Hf6 Mo2 2.924017 1_556
Hf6 Mo0 3.071176 1_666
Hf6 Mo7 3.076473 1_555
Hf6 Mo6 3.076475 1_655
Hf7 Mo5 2.924017 1_556
Hf7 Mo0 3.071175 1_656
Hf7 Mo7 3.076473 1_545
Hf7 Mo3 3.076475 1_655
Hf8 Mo4 2.924017 1_556
Hf8 Mo0 3.071175 1_556
Hf8 Mo3 3.076472 1_555
Hf8 Mo6 3.076473 1_545
Hf9 Mo7 2.924022 1_555
Hf9 Mo1 3.070995 1_665
Hf9 Mo2 3.076334 1_555
Hf9 Mo5 3.076334 1_565
Hf10 Mo6 2.924021 1_555
Hf10 Mo1 3.070995 1_565
Hf10 Mo4 3.076335 1_565
Hf10 Mo2 3.076336 1_455
Hf11 Mo3 2.924022 1_555
Hf11 Mo1 3.070995 1_555
Hf11 Mo4 3.076333 1_555
Hf11 Mo5 3.076335 1_455
Hf12 Mo5 2.890689 1_555
Hf12 Mo4 2.890691 1_555
Hf13 Mo6 2.890758 1_555
Hf13 Mo7 2.890760 1_555
Hf14 Mo2 2.890688 1_555
Hf14 Mo5 2.890694 1_555
Hf15 Mo2 2.890689 1_555
Hf15 Mo4 2.890692 1_555
Hf16 Mo3 2.890757 1_555
Hf16 Mo7 2.890762 1_555
Hf17 Mo3 2.890758 1_555
Hf17 Mo6 2.890762 1_555
Co0 Hf5 2.533843 1_555
Co0 Hf8 2.533843 1_555
Co0 Hf7 2.533845 1_555
Co0 Hf4 2.533845 1_555
Co0 Hf2 2.533847 1_555
Co0 Hf6 2.533848 1_555
Co1 Hf1 2.533931 1_555
Co1 Hf9 2.533932 1_555
Co1 Hf10 2.533933 1_555
Co1 Hf0 2.533934 1_555
Co1 Hf11 2.533935 1_555
Co1 Hf3 2.533935 1_555
Mo0 Mo4 2.675920 1_555
Mo0 Mo5 2.675922 1_455
Mo0 Mo2 2.675922 1_445
Mo0 Mo7 2.676039 1_444
Mo0 Mo3 2.676042 1_554
Mo0 Mo6 2.676042 1_544
Mo1 Mo4 2.675920 1_555
Mo1 Mo2 2.675922 1_445
Mo1 Mo5 2.675922 1_455
Mo1 Mo7 2.676040 1_445
Mo1 Mo3 2.676041 1_555
Mo1 Mo6 2.676042 1_545
Mo2 Mo4 2.889868 1_665
Mo2 Mo5 2.889868 1_565
Mo3 Mo7 2.889759 1_445
Mo3 Mo6 2.889759 1_545
Mo4 Mo5 2.889867 1_455
Mo6 Mo7 2.889759 1_455
