# generated using pymatgen
data_TlCuO2
_symmetry_space_group_name_H-M   'P 1'
_cell_length_a   5.48564600
_cell_length_b   5.67506900
_cell_length_c   5.85991479
_cell_angle_alpha   61.67461689
_cell_angle_beta   90.00000000
_cell_angle_gamma   90.00000000
_symmetry_Int_Tables_number   1
_chemical_formula_structural   TlCuO2
_chemical_formula_sum   'Tl2 Cu2 O4'
_cell_volume   160.58492133
_cell_formula_units_Z   2
loop_
 _symmetry_equiv_pos_site_id
 _symmetry_equiv_pos_as_xyz
  1  'x, y, z'
loop_
 _atom_site_type_symbol
 _atom_site_label
 _atom_site_symmetry_multiplicity
 _atom_site_fract_x
 _atom_site_fract_y
 _atom_site_fract_z
 _atom_site_occupancy
  Tl  Tl0  1  0.75000000  0.69526500  0.14072000  1
  Tl  Tl1  1  0.25000000  0.30473500  0.85928000  1
  Cu  Cu0  1  0.25000000  0.98813000  0.50530000  1
  Cu  Cu1  1  0.75000000  0.01187000  0.49470000  1
  O  O0  1  0.00003800  0.99998100  0.71311600  1
  O  O1  1  0.99996200  0.00001900  0.28688400  1
  O  O2  1  0.50003800  0.00001900  0.28688400  1
  O  O3  1  0.49996200  0.99998100  0.71311600  1
loop_
_geom_bond_atom_site_label_1
_geom_bond_atom_site_label_2
_geom_bond_distance
_geom_bond_site_symmetry_2
Cu0 O2 1.855286 1_565
Cu0 O1 1.855286 1_465
Cu0 O3 1.856190 1_555
Cu0 O0 1.856190 1_555
Cu1 O0 1.855286 1_645
Cu1 O3 1.855286 1_545
Cu1 O2 1.856190 1_555
Cu1 O1 1.856190 1_555
O0 Tl1 2.647772 1_565
O0 Tl0 2.653014 1_456
O1 Tl0 2.647772 1_545
O1 Tl1 2.653014 1_654
O2 Tl0 2.647772 1_545
O2 Tl1 2.653014 1_554
O3 Tl1 2.647772 1_565
O3 Tl0 2.653014 1_556
