# generated using pymatgen
data_NdMnSi2
_symmetry_space_group_name_H-M   'P 1'
_cell_length_a   9.07565318
_cell_length_b   9.07565119
_cell_length_c   3.97475582
_cell_angle_alpha   89.99998330
_cell_angle_beta   90.00001759
_cell_angle_gamma   154.13191871
_symmetry_Int_Tables_number   1
_chemical_formula_structural   NdMnSi2
_chemical_formula_sum   'Nd2 Mn2 Si4'
_cell_volume   142.84069032
_cell_formula_units_Z   2
loop_
 _symmetry_equiv_pos_site_id
 _symmetry_equiv_pos_as_xyz
  1  'x, y, z'
loop_
 _atom_site_type_symbol
 _atom_site_label
 _atom_site_symmetry_multiplicity
 _atom_site_fract_x
 _atom_site_fract_y
 _atom_site_fract_z
 _atom_site_occupancy
  Nd  Nd0  1  0.10067751  0.89932230  0.24999992  1
  Nd  Nd1  1  0.89932940  0.10067054  0.75000007  1
  Mn  Mn0  1  0.24984431  0.75015559  0.75000018  1
  Mn  Mn1  1  0.75014682  0.24985260  0.24999978  1
  Si  Si0  1  0.32388586  0.67611411  0.24999997  1
  Si  Si1  1  0.67610624  0.32389397  0.75000006  1
  Si  Si2  1  0.53604477  0.46395515  0.75000000  1
  Si  Si3  1  0.46396409  0.53603574  0.25000001  1
loop_
_geom_bond_atom_site_label_1
_geom_bond_atom_site_label_2
_geom_bond_distance
_geom_bond_site_symmetry_2
Nd0 Si2 3.063268 1_564
Nd0 Si2 3.063268 1_454
Nd0 Si2 3.063269 1_565
Nd0 Si2 3.063269 1_455
Nd0 Si1 3.139559 1_454
Nd0 Si1 3.139559 1_455
Nd0 Si1 3.139561 1_564
Nd0 Si1 3.139561 1_565
Nd0 Si3 3.158485 1_565
Nd0 Si3 3.158487 1_455
Nd1 Si3 3.063281 1_546
Nd1 Si3 3.063281 1_656
Nd1 Si3 3.063282 1_545
Nd1 Si3 3.063282 1_655
Nd1 Si0 3.139672 1_656
Nd1 Si0 3.139672 1_655
Nd1 Si0 3.139673 1_545
Nd1 Si0 3.139673 1_546
Nd1 Si2 3.158512 1_545
Nd1 Si2 3.158513 1_655
Mn0 Si0 2.380205 1_556
Mn0 Si0 2.380208 1_555
Mn0 Si1 2.414178 1_565
Mn0 Si1 2.414178 1_455
Mn0 Nd0 3.303534 1_556
Mn0 Nd0 3.303534 1_555
Mn0 Nd1 3.334664 1_455
Mn0 Nd1 3.334665 1_565
Mn1 Si1 2.380200 1_554
Mn1 Si1 2.380202 1_555
Mn1 Si0 2.414181 1_545
Mn1 Si0 2.414184 1_655
Mn1 Nd1 3.303754 1_554
Mn1 Nd1 3.303754 1_555
Mn1 Nd0 3.334446 1_655
Mn1 Nd0 3.334446 1_545
Si0 Si3 2.478094 1_555
Si1 Si2 2.477794 1_555
Si2 Si3 2.361294 1_555
Si2 Si3 2.361295 1_556
