# generated using pymatgen
data_TiTeOs
_symmetry_space_group_name_H-M   'P 1'
_cell_length_a   4.36294783
_cell_length_b   4.36294783
_cell_length_c   4.36294783
_cell_angle_alpha   60.00000000
_cell_angle_beta   60.00000000
_cell_angle_gamma   60.00000000
_symmetry_Int_Tables_number   1
_chemical_formula_structural   TiTeOs
_chemical_formula_sum   'Ti1 Te1 Os1'
_cell_volume   58.72527558
_cell_formula_units_Z   1
loop_
 _symmetry_equiv_pos_site_id
 _symmetry_equiv_pos_as_xyz
  1  'x, y, z'
loop_
 _atom_site_type_symbol
 _atom_site_label
 _atom_site_symmetry_multiplicity
 _atom_site_fract_x
 _atom_site_fract_y
 _atom_site_fract_z
 _atom_site_occupancy
  Ti  Ti0  1  0.50000000  0.50000000  0.50000000  1
  Te  Te0  1  0.00000000  0.00000000  0.00000000  1
  Os  Os0  1  0.75000000  0.75000000  0.75000000  1
loop_
_geom_bond_atom_site_label_1
_geom_bond_atom_site_label_2
_geom_bond_distance
_geom_bond_site_symmetry_2
Te0 Ti0 3.085070 1_544
Te0 Ti0 3.085070 1_554
Te0 Ti0 3.085070 1_545
Te0 Ti0 3.085070 1_445
Te0 Ti0 3.085070 1_455
Te0 Ti0 3.085070 1_454
Os0 Ti0 2.671749 1_556
Os0 Ti0 2.671749 1_555
Os0 Ti0 2.671749 1_565
Os0 Ti0 2.671749 1_655
Os0 Te0 2.671749 1_666
Os0 Te0 2.671749 1_656
Os0 Te0 2.671749 1_566
Os0 Te0 2.671749 1_665
