# generated using pymatgen
data_Hf4Co4Ge7
_symmetry_space_group_name_H-M   'P 1'
_cell_length_a   9.59898887
_cell_length_b   9.59899173
_cell_length_c   9.59930657
_cell_angle_alpha   94.14472275
_cell_angle_beta   94.14471494
_cell_angle_gamma   148.80941100
_symmetry_Int_Tables_number   1
_chemical_formula_structural   Hf4Co4Ge7
_chemical_formula_sum   'Hf8 Co8 Ge14'
_cell_volume   441.19932752
_cell_formula_units_Z   2
loop_
 _symmetry_equiv_pos_site_id
 _symmetry_equiv_pos_as_xyz
  1  'x, y, z'
loop_
 _atom_site_type_symbol
 _atom_site_label
 _atom_site_symmetry_multiplicity
 _atom_site_fract_x
 _atom_site_fract_y
 _atom_site_fract_z
 _atom_site_occupancy
  Hf  Hf0  1  0.13900820  0.13901573  0.27793960  1
  Hf  Hf1  1  0.86098230  0.86098991  0.72205665  1
  Hf  Hf2  1  0.13895186  0.86105558  0.00000758  1
  Hf  Hf3  1  0.86105751  0.13894993  0.00000732  1
  Hf  Hf4  1  0.30432896  0.50002940  0.80432626  1
  Hf  Hf5  1  0.69566887  0.49998386  0.19568871  1
  Hf  Hf6  1  0.49997828  0.69566896  0.19567969  1
  Hf  Hf7  1  0.50002371  0.30432903  0.80431710  1
  Co  Co0  1  0.60133751  0.39865927  0.49999720  1
  Co  Co1  1  0.89862706  0.10137005  0.49999658  1
  Co  Co2  1  0.10137819  0.60136479  0.20271851  1
  Co  Co3  1  0.39863523  0.89862072  0.79728034  1
  Co  Co4  1  0.60136872  0.10137558  0.20271915  1
  Co  Co5  1  0.89862464  0.39863161  0.79728033  1
  Co  Co6  1  0.10136993  0.89862721  0.49999661  1
  Co  Co7  1  0.39865994  0.60133660  0.49999673  1
  Ge  Ge0  1  0.29274184  0.29274427  0.58563260  1
  Ge  Ge1  1  0.70725491  0.70725724  0.41436583  1
  Ge  Ge2  1  0.29280992  0.70719120  0.00000206  1
  Ge  Ge3  1  0.70719283  0.29281062  0.00000240  1
  Ge  Ge4  1  0.09417341  0.49995913  0.59415798  1
  Ge  Ge5  1  0.90582674  0.50003770  0.40583899  1
  Ge  Ge6  1  0.50003910  0.90582589  0.40583995  1
  Ge  Ge7  1  0.49996078  0.09417322  0.59415895  1
  Ge  Ge8  1  0.29200427  0.99998314  0.29201040  1
  Ge  Ge9  1  0.70799648  0.00001186  0.70798320  1
  Ge  Ge10  1  0.00001319  0.70799366  0.70798473  1
  Ge  Ge11  1  0.99998552  0.29200261  0.29201208  1
  Ge  Ge12  1  0.24923235  0.24923197  -0.00000164  1
  Ge  Ge13  1  0.75076776  0.75076726  0.00000111  1
loop_
_geom_bond_atom_site_label_1
_geom_bond_atom_site_label_2
_geom_bond_distance
_geom_bond_site_symmetry_2
Co0 Ge1 2.409199 1_555
Co0 Ge0 2.409210 1_555
Co0 Ge5 2.439142 1_555
Co0 Ge7 2.439142 1_555
Co0 Ge10 2.458722 1_655
Co0 Ge8 2.458723 1_545
Co1 Ge1 2.409216 1_545
Co1 Ge0 2.409228 1_655
Co1 Ge6 2.438580 1_545
Co1 Ge4 2.438587 1_655
Co1 Ge11 2.458452 1_555
Co1 Ge9 2.458461 1_555
Co2 Ge2 2.409185 1_555
Co2 Ge3 2.409306 1_455
Co2 Ge6 2.439340 1_555
Co2 Ge5 2.439435 1_455
Co2 Ge11 2.458456 1_455
Co2 Ge8 2.458476 1_555
Co3 Ge2 2.409223 1_556
Co3 Ge3 2.409355 1_566
Co3 Ge4 2.439348 1_555
Co3 Ge7 2.439451 1_565
Co3 Ge9 2.458472 1_565
Co3 Ge10 2.458507 1_555
Co4 Ge3 2.409206 1_555
Co4 Ge2 2.409300 1_545
Co4 Ge5 2.439343 1_555
Co4 Ge6 2.439425 1_545
Co4 Ge11 2.458458 1_555
Co4 Ge8 2.458466 1_545
Co5 Ge3 2.409242 1_556
Co5 Ge2 2.409329 1_656
Co5 Ge7 2.439359 1_555
Co5 Ge4 2.439438 1_655
Co5 Ge9 2.458485 1_555
Co5 Ge10 2.458489 1_655
Co6 Ge1 2.409246 1_455
Co6 Ge0 2.409262 1_565
Co6 Ge5 2.438602 1_455
Co6 Ge7 2.438605 1_565
Co6 Ge8 2.458478 1_555
Co6 Ge10 2.458490 1_555
Co7 Ge1 2.409152 1_555
Co7 Ge0 2.409167 1_555
Co7 Ge6 2.439132 1_555
Co7 Ge4 2.439138 1_555
Co7 Ge11 2.458700 1_455
Co7 Ge9 2.458711 1_565
Ge0 Hf7 2.713286 1_555
Ge0 Hf4 2.713355 1_555
Ge0 Hf0 2.844898 1_555
Ge0 Hf1 2.872243 1_445
Ge0 Hf1 2.872504 1_555
Ge1 Hf5 2.713175 1_555
Ge1 Hf6 2.713243 1_555
Ge1 Hf1 2.844878 1_555
Ge1 Hf0 2.872252 1_665
Ge1 Hf0 2.872513 1_555
Ge2 Hf4 2.713120 1_554
Ge2 Hf6 2.713198 1_555
Ge2 Hf2 2.845079 1_555
Ge2 Hf3 2.872617 1_455
Ge2 Hf3 2.872621 1_565
Ge3 Hf7 2.713224 1_554
Ge3 Hf5 2.713297 1_555
Ge3 Hf3 2.845106 1_555
Ge3 Hf2 2.872605 1_655
Ge3 Hf2 2.872609 1_545
Ge4 Ge5 2.463053 1_455
Ge4 Hf4 2.747505 1_555
Ge5 Hf5 2.747510 1_555
Ge6 Ge7 2.463056 1_565
Ge6 Hf6 2.747524 1_555
Ge7 Hf7 2.747489 1_555
Ge8 Hf2 2.702985 1_555
Ge8 Hf0 2.703113 1_565
Ge8 Hf5 2.871555 1_565
Ge8 Hf5 2.871596 1_455
Ge9 Hf1 2.702921 1_545
Ge9 Hf3 2.703181 1_556
Ge9 Hf4 2.871570 1_545
Ge9 Hf4 2.871583 1_655
Ge10 Hf1 2.703099 1_455
Ge10 Hf2 2.703169 1_556
Ge10 Hf7 2.871551 1_455
Ge10 Hf7 2.871597 1_565
Ge11 Hf0 2.702937 1_655
Ge11 Hf3 2.703003 1_555
Ge11 Hf6 2.871568 1_655
Ge11 Hf6 2.871590 1_545
Ge12 Ge13 2.572682 1_445
Ge12 Ge13 2.588517 1_555
Ge12 Hf6 2.867354 1_555
Ge12 Hf5 2.867364 1_555
Ge12 Hf4 2.867451 1_554
Ge12 Hf7 2.867470 1_554
Ge12 Hf3 2.873308 1_455
Ge12 Hf2 2.873335 1_545
Ge12 Hf0 2.873699 1_555
Ge12 Hf1 2.873872 1_444
Ge13 Hf4 2.867373 1_554
Ge13 Hf7 2.867384 1_554
Ge13 Hf6 2.867432 1_555
Ge13 Hf5 2.867451 1_555
Ge13 Hf3 2.873311 1_565
Ge13 Hf2 2.873333 1_655
Ge13 Hf1 2.873726 1_554
Ge13 Hf0 2.873845 1_665
