# generated using pymatgen
data_Pd3N
_symmetry_space_group_name_H-M   'P 1'
_cell_length_a   3.83269400
_cell_length_b   3.83269400
_cell_length_c   3.83269400
_cell_angle_alpha   90.00000000
_cell_angle_beta   90.00000000
_cell_angle_gamma   90.00000000
_symmetry_Int_Tables_number   1
_chemical_formula_structural   Pd3N
_chemical_formula_sum   'Pd3 N1'
_cell_volume   56.30052446
_cell_formula_units_Z   1
loop_
 _symmetry_equiv_pos_site_id
 _symmetry_equiv_pos_as_xyz
  1  'x, y, z'
loop_
 _atom_site_type_symbol
 _atom_site_label
 _atom_site_symmetry_multiplicity
 _atom_site_fract_x
 _atom_site_fract_y
 _atom_site_fract_z
 _atom_site_occupancy
  Pd  Pd0  1  0.00000000  0.50000000  0.50000000  1
  Pd  Pd1  1  0.50000000  0.50000000  0.00000000  1
  Pd  Pd2  1  0.50000000  0.00000000  0.50000000  1
  N  N0  1  0.00000000  0.00000000  0.00000000  1
loop_
_geom_bond_atom_site_label_1
_geom_bond_atom_site_label_2
_geom_bond_distance
_geom_bond_site_symmetry_2
Pd0 Pd2 2.710124 1_555
Pd0 Pd2 2.710124 1_565
Pd0 Pd1 2.710124 1_456
Pd0 Pd1 2.710124 1_555
Pd0 Pd2 2.710124 1_455
Pd0 Pd2 2.710124 1_465
Pd0 Pd1 2.710124 1_455
Pd0 Pd1 2.710124 1_556
Pd1 Pd2 2.710124 1_554
Pd1 Pd2 2.710124 1_555
Pd1 Pd2 2.710124 1_565
Pd1 Pd2 2.710124 1_564
N0 Pd0 2.710124 1_545
N0 Pd0 2.710124 1_544
N0 Pd1 2.710124 1_445
N0 Pd1 2.710124 1_545
N0 Pd2 2.710124 1_554
N0 Pd2 2.710124 1_555
N0 Pd1 2.710124 1_555
N0 Pd0 2.710124 1_555
N0 Pd0 2.710124 1_554
N0 Pd2 2.710124 1_455
N0 Pd1 2.710124 1_455
N0 Pd2 2.710124 1_454
