# generated using pymatgen
data_RbInBr3
_symmetry_space_group_name_H-M   'P 1'
_cell_length_a   5.73561719
_cell_length_b   5.73561719
_cell_length_c   5.73371368
_cell_angle_alpha   89.92559992
_cell_angle_beta   89.92559992
_cell_angle_gamma   90.07227499
_symmetry_Int_Tables_number   1
_chemical_formula_structural   RbInBr3
_chemical_formula_sum   'Rb1 In1 Br3'
_cell_volume   188.62325637
_cell_formula_units_Z   1
loop_
 _symmetry_equiv_pos_site_id
 _symmetry_equiv_pos_as_xyz
  1  'x, y, z'
loop_
 _atom_site_type_symbol
 _atom_site_label
 _atom_site_symmetry_multiplicity
 _atom_site_fract_x
 _atom_site_fract_y
 _atom_site_fract_z
 _atom_site_occupancy
  Rb  Rb0  1  0.99913800  0.99913800  0.00142000  1
  In  In0  1  0.49560800  0.49560800  0.51690700  1
  Br  Br0  1  0.99942100  0.49560400  0.51459700  1
  Br  Br1  1  0.50579900  0.50579900  0.01549000  1
  Br  Br2  1  0.49560400  0.99942100  0.51459700  1
loop_
_geom_bond_atom_site_label_1
_geom_bond_atom_site_label_2
_geom_bond_distance
_geom_bond_site_symmetry_2
Br0 In0 2.845987 1_655
Br0 In0 2.889692 1_555
Br0 Rb0 3.984870 1_546
Br0 Rb0 4.019118 1_556
Br0 Rb0 4.097318 1_545
Br0 Rb0 4.120283 1_555
Br1 In0 2.860077 1_554
Br1 In0 2.876016 1_555
Br1 Rb0 3.999805 1_555
Br1 Rb0 4.059414 1_455
Br1 Rb0 4.059414 1_545
Br1 Rb0 4.108071 1_445
Br2 In0 2.845987 1_565
Br2 In0 2.889692 1_555
Br2 Rb0 3.984870 1_456
Br2 Rb0 4.019118 1_556
Br2 Rb0 4.097318 1_455
Br2 Rb0 4.120283 1_555
