# generated using pymatgen
data_USiAu
_symmetry_space_group_name_H-M   'P 1'
_cell_length_a   4.28953004
_cell_length_b   4.28953004
_cell_length_c   3.92222500
_cell_angle_alpha   90.00000000
_cell_angle_beta   90.00000000
_cell_angle_gamma   120.00000066
_symmetry_Int_Tables_number   1
_chemical_formula_structural   USiAu
_chemical_formula_sum   'U1 Si1 Au1'
_cell_volume   62.50036593
_cell_formula_units_Z   1
loop_
 _symmetry_equiv_pos_site_id
 _symmetry_equiv_pos_as_xyz
  1  'x, y, z'
loop_
 _atom_site_type_symbol
 _atom_site_label
 _atom_site_symmetry_multiplicity
 _atom_site_fract_x
 _atom_site_fract_y
 _atom_site_fract_z
 _atom_site_occupancy
  U  U0  1  0.66666700  0.33333300  0.00000000  1
  Si  Si0  1  0.00000000  0.00000000  0.50000000  1
  Au  Au0  1  0.33333300  0.66666700  0.50000000  1
loop_
_geom_bond_atom_site_label_1
_geom_bond_atom_site_label_2
_geom_bond_distance
_geom_bond_site_symmetry_2
Si0 U0 3.159004 1_456
Si0 U0 3.159004 1_455
Si0 U0 3.159007 1_445
Si0 U0 3.159007 1_556
Si0 U0 3.159007 1_446
Si0 U0 3.159007 1_555
Au0 Si0 2.476559 1_565
Au0 Si0 2.476563 1_555
Au0 Si0 2.476563 1_665
Au0 U0 3.159004 1_455
Au0 U0 3.159004 1_456
Au0 U0 3.159004 1_566
Au0 U0 3.159004 1_565
Au0 U0 3.159010 1_555
Au0 U0 3.159010 1_556
