# generated using pymatgen
data_RbErS2
_symmetry_space_group_name_H-M   'P 1'
_cell_length_a   7.98738108
_cell_length_b   7.98738108
_cell_length_c   7.98738143
_cell_angle_alpha   29.14800954
_cell_angle_beta   29.14800954
_cell_angle_gamma   29.14801102
_symmetry_Int_Tables_number   1
_chemical_formula_structural   RbErS2
_chemical_formula_sum   'Rb1 Er1 S2'
_cell_volume   106.94905175
_cell_formula_units_Z   1
loop_
 _symmetry_equiv_pos_site_id
 _symmetry_equiv_pos_as_xyz
  1  'x, y, z'
loop_
 _atom_site_type_symbol
 _atom_site_label
 _atom_site_symmetry_multiplicity
 _atom_site_fract_x
 _atom_site_fract_y
 _atom_site_fract_z
 _atom_site_occupancy
  Rb  Rb0  1  0.00000000  0.00000000  -0.00000000  1
  Er  Er0  1  0.50000000  0.50000000  0.50000000  1
  S  S0  1  0.76979458  0.76979458  0.76979458  1
  S  S1  1  0.23020542  0.23020542  0.23020542  1
loop_
_geom_bond_atom_site_label_1
_geom_bond_atom_site_label_2
_geom_bond_distance
_geom_bond_site_symmetry_2
Rb0 S0 3.313186 1_454
Rb0 S1 3.313186 1_545
Rb0 S0 3.313186 1_544
Rb0 S1 3.313186 1_455
Rb0 S0 3.313186 1_445
Rb0 S1 3.313186 1_554
Er0 S1 2.740158 1_655
Er0 S1 2.740158 1_565
Er0 S0 2.740158 1_455
Er0 S0 2.740158 1_545
Er0 S1 2.740158 1_556
Er0 S0 2.740158 1_554
