# generated using pymatgen
data_NdAlPd
_symmetry_space_group_name_H-M   'P 1'
_cell_length_a   7.23105816
_cell_length_b   7.23077660
_cell_length_c   4.20030920
_cell_angle_alpha   90.00000000
_cell_angle_beta   90.00000000
_cell_angle_gamma   120.00129284
_symmetry_Int_Tables_number   1
_chemical_formula_structural   NdAlPd
_chemical_formula_sum   'Nd3 Al3 Pd3'
_cell_volume   190.19234533
_cell_formula_units_Z   3
loop_
 _symmetry_equiv_pos_site_id
 _symmetry_equiv_pos_as_xyz
  1  'x, y, z'
loop_
 _atom_site_type_symbol
 _atom_site_label
 _atom_site_symmetry_multiplicity
 _atom_site_fract_x
 _atom_site_fract_y
 _atom_site_fract_z
 _atom_site_occupancy
  Nd  Nd0  1  0.58084685  -0.00000000  0.49999900  1
  Nd  Nd1  1  0.00000129  0.58089926  0.49999900  1
  Nd  Nd2  1  0.41910303  0.41910074  0.49999900  1
  Al  Al0  1  0.22709990  0.00000000  -0.00000000  1
  Al  Al1  1  -0.00000945  0.22711773  -0.00000000  1
  Al  Al2  1  0.77287383  0.77288227  0.00000000  1
  Pd  Pd0  1  0.99995117  0.00000000  0.49999900  1
  Pd  Pd1  1  0.33335806  0.66668374  -0.00000000  1
  Pd  Pd2  1  0.66667632  0.33331826  -0.00000000  1
loop_
_geom_bond_atom_site_label_1
_geom_bond_atom_site_label_2
_geom_bond_distance
_geom_bond_site_symmetry_2
Nd0 Pd1 3.018064 1_545
Nd0 Pd1 3.018070 1_546
Nd0 Pd2 3.018072 1_555
Nd0 Pd2 3.018078 1_556
Nd0 Pd0 3.030568 1_555
Nd1 Pd2 3.018259 1_455
Nd1 Pd2 3.018265 1_456
Nd1 Pd1 3.018398 1_555
Nd1 Pd1 3.018404 1_556
Nd1 Pd0 3.030605 1_465
Nd2 Pd1 3.018273 1_555
Nd2 Pd1 3.018278 1_556
Nd2 Pd2 3.018396 1_555
Nd2 Pd2 3.018402 1_556
Nd2 Pd0 3.030608 1_455
Al0 Pd0 2.666181 1_455
Al0 Pd0 2.666188 1_454
Al0 Al2 2.844454 1_445
Al0 Al1 2.844460 1_555
Al0 Pd1 2.872464 1_545
Al0 Pd2 2.872478 1_555
Al0 Nd0 3.309655 1_555
Al0 Nd0 3.309660 1_554
Al0 Nd2 3.363652 1_555
Al0 Nd1 3.363652 1_545
Al0 Nd2 3.363657 1_554
Al0 Nd1 3.363657 1_544
Al1 Pd0 2.665916 1_455
Al1 Pd0 2.665923 1_454
Al1 Al2 2.844402 1_445
Al1 Pd2 2.872234 1_455
Al1 Pd1 2.872470 1_555
Al1 Nd1 3.309741 1_555
Al1 Nd1 3.309746 1_554
Al1 Nd2 3.363800 1_555
Al1 Nd2 3.363806 1_554
Al1 Nd0 3.363936 1_455
Al1 Nd0 3.363942 1_454
Al2 Pd0 2.665914 1_565
Al2 Pd0 2.665920 1_564
Al2 Pd1 2.872245 1_555
Al2 Pd2 2.872458 1_555
Al2 Nd2 3.309741 1_555
Al2 Nd2 3.309746 1_554
Al2 Nd1 3.363790 1_655
Al2 Nd1 3.363796 1_654
Al2 Nd0 3.363941 1_565
Al2 Nd0 3.363947 1_564
