# generated using pymatgen
data_K2Al2O3F2
_symmetry_space_group_name_H-M   'P 1'
_cell_length_a   7.04136567
_cell_length_b   7.04136567
_cell_length_c   6.18684024
_cell_angle_alpha   88.97840545
_cell_angle_beta   88.97840545
_cell_angle_gamma   72.08602068
_symmetry_Int_Tables_number   1
_chemical_formula_structural   K2Al2O3F2
_chemical_formula_sum   'K4 Al4 O6 F4'
_cell_volume   291.80634746
_cell_formula_units_Z   2
loop_
 _symmetry_equiv_pos_site_id
 _symmetry_equiv_pos_as_xyz
  1  'x, y, z'
loop_
 _atom_site_type_symbol
 _atom_site_label
 _atom_site_symmetry_multiplicity
 _atom_site_fract_x
 _atom_site_fract_y
 _atom_site_fract_z
 _atom_site_occupancy
  K  K0  1  0.84176400  0.84176400  0.66981800  1
  K  K1  1  0.60155700  0.60155700  0.25585800  1
  K  K2  1  0.39844300  0.39844300  0.74414200  1
  K  K3  1  0.15823600  0.15823600  0.33018200  1
  Al  Al0  1  0.92431600  0.32620200  0.85520700  1
  Al  Al1  1  0.67379800  0.07568400  0.14479300  1
  Al  Al2  1  0.32620200  0.92431600  0.85520700  1
  Al  Al3  1  0.07568400  0.67379800  0.14479300  1
  O  O0  1  0.00000000  0.50000000  0.00000000  1
  O  O1  1  0.87790500  0.87790500  0.23316700  1
  O  O2  1  0.73785300  0.26214700  0.00000000  1
  O  O3  1  0.50000000  0.00000000  0.00000000  1
  O  O4  1  0.26214700  0.73785300  0.00000000  1
  O  O5  1  0.12209500  0.12209500  0.76683300  1
  F  F0  1  0.81649100  0.44632000  0.61401900  1
  F  F1  1  0.55368000  0.18350900  0.38598100  1
  F  F2  1  0.44632000  0.81649100  0.61401900  1
  F  F3  1  0.18350900  0.55368000  0.38598100  1
loop_
_geom_bond_atom_site_label_1
_geom_bond_atom_site_label_2
_geom_bond_distance
_geom_bond_site_symmetry_2
K0 O1 2.723670 1_555
K0 O3 3.076030 1_566
K0 O0 3.076030 1_656
K0 O5 3.261036 1_665
K1 O4 2.794315 1_555
K1 O2 2.794315 1_555
K1 O3 3.088072 1_565
K1 O0 3.088072 1_655
K1 O1 3.146797 1_555
K2 O4 2.794315 1_556
K2 O2 2.794315 1_556
K2 O0 3.088072 1_556
K2 O3 3.088072 1_556
K2 O5 3.146797 1_555
K3 O5 2.723670 1_555
K3 O0 3.076030 1_555
K3 O3 3.076030 1_555
K3 O1 3.261036 1_445
Al0 O2 1.742903 1_556
Al0 O0 1.743967 1_656
Al0 O5 1.753138 1_655
Al0 F0 1.766011 1_555
Al1 O2 1.742903 1_555
Al1 O3 1.743967 1_555
Al1 O1 1.753138 1_545
Al1 F1 1.766011 1_555
Al2 O4 1.742903 1_556
Al2 O3 1.743967 1_566
Al2 O5 1.753138 1_565
Al2 F2 1.766011 1_555
Al3 O4 1.742903 1_555
Al3 O0 1.743967 1_555
Al3 O1 1.753138 1_455
Al3 F3 1.766011 1_555
F0 K1 2.722309 1_555
F0 K0 2.871479 1_555
F0 K2 3.153252 1_555
F0 K3 3.156353 1_655
F1 K2 2.722309 1_555
F1 K3 2.871479 1_555
F1 K1 3.153252 1_555
F1 K0 3.156353 1_545
F2 K1 2.722309 1_555
F2 K0 2.871479 1_555
F2 K2 3.153252 1_555
F2 K3 3.156353 1_565
F3 K2 2.722309 1_555
F3 K3 2.871479 1_555
F3 K1 3.153252 1_555
F3 K0 3.156353 1_455
