# generated using pymatgen
data_Sm2AgHg
_symmetry_space_group_name_H-M   'P 1'
_cell_length_a   5.27565219
_cell_length_b   5.27565219
_cell_length_c   5.27565219
_cell_angle_alpha   60.00000000
_cell_angle_beta   60.00000000
_cell_angle_gamma   60.00000000
_symmetry_Int_Tables_number   1
_chemical_formula_structural   Sm2AgHg
_chemical_formula_sum   'Sm2 Ag1 Hg1'
_cell_volume   103.82775660
_cell_formula_units_Z   1
loop_
 _symmetry_equiv_pos_site_id
 _symmetry_equiv_pos_as_xyz
  1  'x, y, z'
loop_
 _atom_site_type_symbol
 _atom_site_label
 _atom_site_symmetry_multiplicity
 _atom_site_fract_x
 _atom_site_fract_y
 _atom_site_fract_z
 _atom_site_occupancy
  Sm  Sm0  1  -0.00000000  0.00000000  0.00000000  1
  Sm  Sm1  1  0.50000000  0.50000000  0.50000000  1
  Ag  Ag0  1  0.25000100  0.25000100  0.25000100  1
  Hg  Hg0  1  0.75000100  0.75000100  0.75000100  1
loop_
_geom_bond_atom_site_label_1
_geom_bond_atom_site_label_2
_geom_bond_distance
_geom_bond_site_symmetry_2
Ag0 Sm1 3.230651 1_555
Ag0 Sm0 3.230660 1_655
Ag0 Sm0 3.230660 1_565
Ag0 Sm0 3.230660 1_556
Ag0 Sm1 3.230668 1_545
Ag0 Sm1 3.230668 1_554
Ag0 Sm1 3.230668 1_455
Ag0 Sm0 3.230677 1_555
Hg0 Sm0 3.230651 1_666
Hg0 Sm1 3.230660 1_556
Hg0 Sm1 3.230660 1_565
Hg0 Sm1 3.230660 1_655
Hg0 Sm0 3.230668 1_656
Hg0 Sm0 3.230668 1_665
Hg0 Sm0 3.230668 1_566
Hg0 Sm1 3.230677 1_555
