# generated using pymatgen
data_KSe
_symmetry_space_group_name_H-M   'P 1'
_cell_length_a   8.93686956
_cell_length_b   8.93686980
_cell_length_c   6.05421182
_cell_angle_alpha   89.99999633
_cell_angle_beta   89.99998336
_cell_angle_gamma   120.00048007
_symmetry_Int_Tables_number   1
_chemical_formula_structural   KSe
_chemical_formula_sum   'K6 Se6'
_cell_volume   418.75209474
_cell_formula_units_Z   6
loop_
 _symmetry_equiv_pos_site_id
 _symmetry_equiv_pos_as_xyz
  1  'x, y, z'
loop_
 _atom_site_type_symbol
 _atom_site_label
 _atom_site_symmetry_multiplicity
 _atom_site_fract_x
 _atom_site_fract_y
 _atom_site_fract_z
 _atom_site_occupancy
  K  K0  1  0.64947010  0.00000000  -0.00000000  1
  K  K1  1  0.35052790  0.35052790  0.00000000  1
  K  K2  1  0.00000000  0.64947010  -0.00000000  1
  K  K3  1  0.31523676  0.00000100  0.50000000  1
  K  K4  1  0.68476424  0.68476424  0.50000000  1
  K  K5  1  0.00000100  0.31523676  0.50000000  1
  Se  Se0  1  0.00000000  0.00000000  0.19896903  1
  Se  Se1  1  -0.00000000  -0.00000000  0.80103097  1
  Se  Se2  1  0.33333300  0.66666700  0.30002218  1
  Se  Se3  1  0.33333300  0.66666700  0.69997782  1
  Se  Se4  1  0.66666700  0.33333300  0.69997782  1
  Se  Se5  1  0.66666700  0.33333300  0.30002218  1
loop_
_geom_bond_atom_site_label_1
_geom_bond_atom_site_label_2
_geom_bond_distance
_geom_bond_site_symmetry_2
K0 Se1 3.356262 1_654
K0 Se0 3.356263 1_655
K0 Se2 3.426246 1_545
K0 Se3 3.426247 1_544
K0 Se4 3.426259 1_554
K0 Se5 3.426260 1_555
K1 Se0 3.356224 1_555
K1 Se1 3.356225 1_554
K1 Se4 3.426275 1_554
K1 Se3 3.426276 1_554
K1 Se2 3.426276 1_555
K1 Se5 3.426276 1_555
K2 Se1 3.356262 1_564
K2 Se0 3.356262 1_565
K2 Se5 3.426245 1_455
K2 Se4 3.426247 1_454
K2 Se3 3.426259 1_554
K2 Se2 3.426260 1_555
K3 Se5 3.293595 1_555
K3 Se4 3.293596 1_555
K3 Se3 3.293624 1_545
K3 Se2 3.293625 1_545
K3 Se1 3.355336 1_555
K3 Se0 3.355337 1_555
K4 Se3 3.293626 1_555
K4 Se4 3.293627 1_555
K4 Se5 3.293627 1_555
K4 Se2 3.293627 1_555
K4 Se0 3.355315 1_665
K4 Se1 3.355316 1_665
K5 Se2 3.293595 1_555
K5 Se3 3.293596 1_555
K5 Se4 3.293624 1_455
K5 Se5 3.293625 1_455
K5 Se1 3.355337 1_555
K5 Se0 3.355337 1_555
Se0 Se1 2.409201 1_554
Se2 Se3 2.421416 1_555
Se4 Se5 2.421416 1_555
