# generated using pymatgen
data_TiNbRu2
_symmetry_space_group_name_H-M   'P 1'
_cell_length_a   4.42001804
_cell_length_b   4.42001804
_cell_length_c   4.42001804
_cell_angle_alpha   60.00000000
_cell_angle_beta   60.00000000
_cell_angle_gamma   60.00000000
_symmetry_Int_Tables_number   1
_chemical_formula_structural   TiNbRu2
_chemical_formula_sum   'Ti1 Nb1 Ru2'
_cell_volume   61.06004616
_cell_formula_units_Z   1
loop_
 _symmetry_equiv_pos_site_id
 _symmetry_equiv_pos_as_xyz
  1  'x, y, z'
loop_
 _atom_site_type_symbol
 _atom_site_label
 _atom_site_symmetry_multiplicity
 _atom_site_fract_x
 _atom_site_fract_y
 _atom_site_fract_z
 _atom_site_occupancy
  Ti  Ti0  1  0.74999900  0.74999900  0.74999900  1
  Nb  Nb0  1  0.25000000  0.25000000  0.25000000  1
  Ru  Ru0  1  -0.00000000  -0.00000000  -0.00000000  1
  Ru  Ru1  1  0.49999900  0.49999900  0.49999900  1
loop_
_geom_bond_atom_site_label_1
_geom_bond_atom_site_label_2
_geom_bond_distance
_geom_bond_site_symmetry_2
Nb0 Ru1 2.706686 1_555
Nb0 Ru0 2.706697 1_655
Nb0 Ru0 2.706697 1_565
Nb0 Ru0 2.706697 1_555
Nb0 Ru0 2.706697 1_556
Nb0 Ru1 2.706701 1_554
Nb0 Ru1 2.706701 1_455
Nb0 Ru1 2.706701 1_545
Ru0 Ti0 2.706694 1_544
Ru0 Ti0 2.706694 1_454
Ru0 Ti0 2.706694 1_445
Ru0 Ti0 2.706708 1_444
Ru1 Ti0 2.706697 1_555
Ru1 Ti0 2.706697 1_455
Ru1 Ti0 2.706697 1_545
Ru1 Ti0 2.706697 1_554
