# generated using pymatgen
data_YbTa
_symmetry_space_group_name_H-M   'P 1'
_cell_length_a   6.30248752
_cell_length_b   6.30248752
_cell_length_c   10.33423180
_cell_angle_alpha   90.00000000
_cell_angle_beta   90.00000000
_cell_angle_gamma   119.99999680
_symmetry_Int_Tables_number   1
_chemical_formula_structural   YbTa
_chemical_formula_sum   'Yb8 Ta8'
_cell_volume   355.49445663
_cell_formula_units_Z   8
loop_
 _symmetry_equiv_pos_site_id
 _symmetry_equiv_pos_as_xyz
  1  'x, y, z'
loop_
 _atom_site_type_symbol
 _atom_site_label
 _atom_site_symmetry_multiplicity
 _atom_site_fract_x
 _atom_site_fract_y
 _atom_site_fract_z
 _atom_site_occupancy
  Yb  Yb0_0  1  0.00000000  0.00000000  0.00000000  1
  Yb  Yb0_1  1  0.00000000  0.00000000  0.50000000  1
  Yb  Yb0_2  1  0.00000000  0.50000000  0.00000000  1
  Yb  Yb0_3  1  0.00000000  0.50000000  0.50000000  1
  Yb  Yb0_4  1  0.50000000  0.00000000  0.00000000  1
  Yb  Yb0_5  1  0.50000000  0.00000000  0.50000000  1
  Yb  Yb0_6  1  0.50000000  0.50000000  0.00000000  1
  Yb  Yb0_7  1  0.50000000  0.50000000  0.50000000  1
  Ta  Ta0_0  1  0.16666650  0.33333350  0.25000000  1
  Ta  Ta0_1  1  0.16666650  0.33333350  0.75000000  1
  Ta  Ta0_2  1  0.16666650  0.83333350  0.25000000  1
  Ta  Ta0_3  1  0.16666650  0.83333350  0.75000000  1
  Ta  Ta0_4  1  0.66666650  0.33333350  0.25000000  1
  Ta  Ta0_5  1  0.66666650  0.33333350  0.75000000  1
  Ta  Ta0_6  1  0.66666650  0.83333350  0.25000000  1
  Ta  Ta0_7  1  0.66666650  0.83333350  0.75000000  1
loop_
_geom_bond_atom_site_label_1
_geom_bond_atom_site_label_2
_geom_bond_distance
_geom_bond_site_symmetry_2
Yb0_0 Yb0_2 3.151244 1_555
Yb0_0 Yb0_2 3.151244 1_545
Yb0_0 Yb0_4 3.151244 1_455
Yb0_0 Yb0_4 3.151244 1_555
Yb0_0 Yb0_6 3.151244 1_445
Yb0_0 Yb0_6 3.151244 1_555
Yb0_1 Yb0_5 3.151244 1_555
Yb0_1 Yb0_3 3.151244 1_555
Yb0_1 Yb0_3 3.151244 1_545
Yb0_1 Yb0_5 3.151244 1_455
Yb0_1 Yb0_7 3.151244 1_445
Yb0_1 Yb0_7 3.151244 1_555
Yb0_2 Yb0_6 3.151244 1_455
Yb0_2 Yb0_6 3.151244 1_555
Yb0_2 Yb0_4 3.151244 1_565
Yb0_2 Yb0_4 3.151244 1_455
Yb0_3 Yb0_7 3.151244 1_555
Yb0_3 Yb0_7 3.151244 1_455
Yb0_3 Yb0_5 3.151244 1_455
Yb0_3 Yb0_5 3.151244 1_565
Yb0_4 Yb0_6 3.151244 1_555
Yb0_4 Yb0_6 3.151244 1_545
Yb0_5 Yb0_7 3.151244 1_545
Yb0_5 Yb0_7 3.151244 1_555
Ta0_0 Ta0_2 3.151244 1_555
Ta0_0 Ta0_4 3.151244 1_455
Ta0_0 Ta0_4 3.151244 1_555
Ta0_0 Ta0_2 3.151244 1_545
Ta0_0 Ta0_6 3.151244 1_555
Ta0_0 Ta0_6 3.151244 1_445
Ta0_0 Yb0_3 3.159886 1_555
Ta0_0 Yb0_2 3.159886 1_555
Ta0_0 Yb0_0 3.159887 1_555
Ta0_0 Yb0_1 3.159887 1_555
Ta0_0 Yb0_7 3.159887 1_555
Ta0_0 Yb0_6 3.159887 1_555
Ta0_1 Ta0_3 3.151244 1_555
Ta0_1 Ta0_3 3.151244 1_545
Ta0_1 Ta0_5 3.151244 1_455
Ta0_1 Ta0_5 3.151244 1_555
Ta0_1 Ta0_7 3.151244 1_555
Ta0_1 Ta0_7 3.151244 1_445
Ta0_1 Yb0_3 3.159886 1_555
Ta0_1 Yb0_2 3.159886 1_556
Ta0_1 Yb0_0 3.159887 1_556
Ta0_1 Yb0_1 3.159887 1_555
Ta0_1 Yb0_7 3.159887 1_555
Ta0_1 Yb0_6 3.159887 1_556
Ta0_2 Ta0_6 3.151244 1_555
Ta0_2 Ta0_6 3.151244 1_455
Ta0_2 Ta0_4 3.151244 1_565
Ta0_2 Ta0_4 3.151244 1_455
Ta0_2 Yb0_1 3.159886 1_565
Ta0_2 Yb0_0 3.159886 1_565
Ta0_2 Yb0_3 3.159887 1_555
Ta0_2 Yb0_2 3.159887 1_555
Ta0_2 Yb0_4 3.159887 1_565
Ta0_2 Yb0_5 3.159887 1_565
Ta0_3 Ta0_7 3.151244 1_555
Ta0_3 Ta0_7 3.151244 1_455
Ta0_3 Ta0_5 3.151244 1_565
Ta0_3 Ta0_5 3.151244 1_455
Ta0_3 Yb0_0 3.159886 1_566
Ta0_3 Yb0_1 3.159886 1_565
Ta0_3 Yb0_3 3.159887 1_555
Ta0_3 Yb0_2 3.159887 1_556
Ta0_3 Yb0_5 3.159887 1_565
Ta0_3 Yb0_4 3.159887 1_566
Ta0_4 Ta0_6 3.151244 1_545
Ta0_4 Ta0_6 3.151244 1_555
Ta0_4 Yb0_6 3.159886 1_555
Ta0_4 Yb0_7 3.159886 1_555
Ta0_4 Yb0_4 3.159887 1_555
Ta0_4 Yb0_5 3.159887 1_555
Ta0_4 Yb0_2 3.159887 1_655
Ta0_4 Yb0_3 3.159887 1_655
Ta0_5 Ta0_7 3.151244 1_545
Ta0_5 Ta0_7 3.151244 1_555
Ta0_5 Yb0_6 3.159886 1_556
Ta0_5 Yb0_7 3.159886 1_555
Ta0_5 Yb0_4 3.159887 1_556
Ta0_5 Yb0_5 3.159887 1_555
Ta0_5 Yb0_2 3.159887 1_656
Ta0_5 Yb0_3 3.159887 1_655
Ta0_6 Yb0_4 3.159886 1_565
Ta0_6 Yb0_5 3.159886 1_565
Ta0_6 Yb0_6 3.159887 1_555
Ta0_6 Yb0_7 3.159887 1_555
Ta0_6 Yb0_0 3.159887 1_665
Ta0_6 Yb0_1 3.159887 1_665
Ta0_7 Yb0_4 3.159886 1_566
Ta0_7 Yb0_5 3.159886 1_565
Ta0_7 Yb0_6 3.159887 1_556
Ta0_7 Yb0_7 3.159887 1_555
Ta0_7 Yb0_0 3.159887 1_666
Ta0_7 Yb0_1 3.159887 1_665
