# generated using pymatgen
data_Ho2Co7B3
_symmetry_space_group_name_H-M   'P 1'
_cell_length_a   4.99846306
_cell_length_b   4.99937755
_cell_length_c   12.80229100
_cell_angle_alpha   89.99959742
_cell_angle_beta   90.00045500
_cell_angle_gamma   120.01164450
_symmetry_Int_Tables_number   1
_chemical_formula_structural   Ho2Co7B3
_chemical_formula_sum   'Ho4 Co14 B6'
_cell_volume   277.02551917
_cell_formula_units_Z   2
loop_
 _symmetry_equiv_pos_site_id
 _symmetry_equiv_pos_as_xyz
  1  'x, y, z'
loop_
 _atom_site_type_symbol
 _atom_site_label
 _atom_site_symmetry_multiplicity
 _atom_site_fract_x
 _atom_site_fract_y
 _atom_site_fract_z
 _atom_site_occupancy
  Ho  Ho0  1  0.99998000  0.00007500  0.50001000  1
  Ho  Ho1  1  0.00004300  0.99993400  0.26066800  1
  Ho  Ho2  1  0.99997000  0.99999700  0.73937000  1
  Ho  Ho3  1  0.99998700  0.99997800  0.99998800  1
  Co  Co0  1  0.33329200  0.66671900  0.99999800  1
  Co  Co1  1  0.66668400  0.33326800  0.99999800  1
  Co  Co2  1  0.50000200  0.00000100  0.38371400  1
  Co  Co3  1  0.99998600  0.49999900  0.38373100  1
  Co  Co4  1  0.50000900  0.50001200  0.38373000  1
  Co  Co5  1  0.49999700  0.00001000  0.61630800  1
  Co  Co6  1  0.49998600  0.50001100  0.61622200  1
  Co  Co7  1  0.99999600  0.50003600  0.61625100  1
  Co  Co8  1  0.50003600  0.00005500  0.15392700  1
  Co  Co9  1  0.99996000  0.49993500  0.15398700  1
  Co  Co10  1  0.50002800  0.49995900  0.15390400  1
  Co  Co11  1  0.50000000  0.00004100  0.84603800  1
  Co  Co12  1  0.50000000  0.49996900  0.84606100  1
  Co  Co13  1  0.99995200  0.49998800  0.84606900  1
  B  B0  1  0.33342700  0.66664800  0.26797300  1
  B  B1  1  0.66658900  0.33331900  0.26798300  1
  B  B2  1  0.66684100  0.33338400  0.73202300  1
  B  B3  1  0.33314500  0.66661100  0.73203500  1
  B  B4  1  0.33334200  0.66667100  0.50000500  1
  B  B5  1  0.66664600  0.33338200  0.50000600  1
loop_
_geom_bond_atom_site_label_1
_geom_bond_atom_site_label_2
_geom_bond_distance
_geom_bond_site_symmetry_2
Ho0 Ho1 3.064126 1_645
Ho0 Ho2 3.064356 1_545
Co0 Co13 2.442346 1_455
Co0 Co8 2.442502 1_566
Co0 Co10 2.442732 1_556
Co0 Co11 2.442778 1_565
Co0 Co9 2.442958 1_456
Co0 Co12 2.442975 1_555
Co0 Ho3 2.885648 1_555
Co0 Ho3 2.885853 1_455
Co0 Ho3 2.886375 1_445
Co1 Co13 2.442174 1_555
Co1 Co8 2.442179 1_556
Co1 Co10 2.442371 1_556
Co1 Co11 2.442544 1_555
Co1 Co12 2.442768 1_555
Co1 Co9 2.442803 1_556
Co1 Ho3 2.885657 1_445
Co1 Ho3 2.885978 1_545
Co1 Ho3 2.886241 1_555
Co2 Ho0 2.908834 1_555
Co2 Ho0 2.909361 1_455
Co2 Ho1 2.953932 1_545
Co2 Ho1 2.954583 1_645
Co3 Ho0 2.909031 1_555
Co3 Ho0 2.909727 1_565
Co3 Ho1 2.954355 1_655
Co3 Ho1 2.955165 1_645
Co4 Ho0 2.908739 1_455
Co4 Ho0 2.908883 1_565
Co4 Ho1 2.954096 1_655
Co4 Ho1 2.954280 1_545
Co5 Ho0 2.908908 1_555
Co5 Ho0 2.909313 1_455
Co5 Ho2 2.954269 1_545
Co5 Ho2 2.954464 1_445
Co6 Ho0 2.908240 1_455
Co6 Ho0 2.908491 1_565
Co6 Ho2 2.954710 1_555
Co6 Ho2 2.954840 1_445
Co7 Ho0 2.908937 1_555
Co7 Ho0 2.909323 1_565
Co7 Ho2 2.955042 1_555
Co7 Ho2 2.955243 1_545
Co8 Ho1 2.848145 1_545
Co8 Ho1 2.848718 1_645
Co9 Ho1 2.848286 1_655
Co9 Ho1 2.848642 1_645
Co10 Ho1 2.848364 1_655
Co10 Ho1 2.848410 1_545
Co11 Ho2 2.847958 1_545
Co11 Ho2 2.848009 1_445
Co12 Ho2 2.847936 1_555
Co12 Ho2 2.847942 1_445
Co13 Ho2 2.848566 1_555
Co13 Ho2 2.848583 1_545
B0 Co9 2.052490 1_455
B0 Co10 2.052993 1_555
B0 Co8 2.053041 1_565
B0 Co4 2.068185 1_555
B0 Co2 2.068374 1_565
B0 Co3 2.068613 1_455
B0 Ho1 2.886822 1_655
B0 Ho1 2.887773 1_545
B0 Ho1 2.887826 1_555
B1 Co9 2.052300 1_555
B1 Co8 2.052704 1_555
B1 Co10 2.052795 1_555
B1 Co2 2.068169 1_555
B1 Co4 2.068278 1_555
B1 Co3 2.068378 1_555
B1 Ho1 2.886522 1_545
B1 Ho1 2.887348 1_655
B1 Ho1 2.888563 1_645
B2 Co13 2.051953 1_555
B2 Co11 2.052564 1_555
B2 Co12 2.053124 1_555
B2 Co7 2.067878 1_555
B2 Co5 2.068199 1_555
B2 Co6 2.069386 1_555
B2 Ho2 2.887177 1_545
B2 Ho2 2.887354 1_555
B2 Ho2 2.887942 1_445
B3 Co13 2.052104 1_455
B3 Co11 2.052727 1_565
B3 Co12 2.053214 1_555
B3 Co7 2.067959 1_455
B3 Co5 2.068377 1_565
B3 Co6 2.069390 1_555
B3 Ho2 2.887353 1_445
B3 Ho2 2.887368 1_455
B3 Ho2 2.887737 1_555
B4 Co6 2.072668 1_555
B4 Co7 2.072807 1_455
B4 Co3 2.073084 1_455
B4 Co4 2.073286 1_555
B4 Co2 2.073347 1_565
B4 Co5 2.073492 1_565
B4 Ho0 2.885401 1_565
B4 Ho0 2.885747 1_455
B4 Ho0 2.886727 1_465
B5 Co6 2.072632 1_555
B5 Co7 2.072799 1_555
B5 Co3 2.073055 1_555
B5 Co4 2.073099 1_555
B5 Co2 2.073517 1_555
B5 Co5 2.073575 1_555
B5 Ho0 2.885522 1_455
B5 Ho0 2.886167 1_565
B5 Ho0 2.886186 1_555
