# generated using pymatgen
data_CsAuO
_symmetry_space_group_name_H-M   'P 1'
_cell_length_a   6.22472397
_cell_length_b   7.86678225
_cell_length_c   7.86678285
_cell_angle_alpha   80.99505530
_cell_angle_beta   66.68151110
_cell_angle_gamma   66.68151329
_symmetry_Int_Tables_number   1
_chemical_formula_structural   CsAuO
_chemical_formula_sum   'Cs4 Au4 O4'
_cell_volume   324.86373874
_cell_formula_units_Z   4
loop_
 _symmetry_equiv_pos_site_id
 _symmetry_equiv_pos_as_xyz
  1  'x, y, z'
loop_
 _atom_site_type_symbol
 _atom_site_label
 _atom_site_symmetry_multiplicity
 _atom_site_fract_x
 _atom_site_fract_y
 _atom_site_fract_z
 _atom_site_occupancy
  Cs  Cs0  1  0.19983519  0.30020821  0.30020821  1
  Cs  Cs1  1  0.50000000  0.69987470  0.30012530  1
  Cs  Cs2  1  0.50000000  0.30012530  0.69987470  1
  Cs  Cs3  1  0.80016481  0.69979179  0.69979179  1
  Au  Au0  1  0.85435698  0.00001034  0.29136990  1
  Au  Au1  1  0.14564302  0.70863010  -0.00001034  1
  Au  Au2  1  0.85435698  0.29136990  0.00001034  1
  Au  Au3  1  0.14564302  -0.00001034  0.70863010  1
  O  O0  1  0.71864458  0.28142994  0.28142994  1
  O  O1  1  0.00000000  0.71866344  0.28133656  1
  O  O2  1  -0.00000000  0.28133656  0.71866344  1
  O  O3  1  0.28135542  0.71857006  0.71857006  1
loop_
_geom_bond_atom_site_label_1
_geom_bond_atom_site_label_2
_geom_bond_distance
_geom_bond_site_symmetry_2
Cs0 O1 3.026110 1_555
Cs0 O2 3.026110 1_555
Cs0 O0 3.118136 1_455
Cs0 O0 3.118400 1_555
Cs1 O0 3.025922 1_555
Cs1 O3 3.025923 1_555
Cs1 O1 3.118277 1_655
Cs1 O1 3.118277 1_555
Cs2 O3 3.025922 1_555
Cs2 O0 3.025923 1_555
Cs2 O2 3.118277 1_555
Cs2 O2 3.118277 1_655
Cs3 O2 3.026110 1_655
Cs3 O1 3.026110 1_655
Cs3 O3 3.118136 1_655
Cs3 O3 3.118400 1_555
Au0 O1 2.033788 1_645
Au0 O0 2.034318 1_555
Au1 O1 2.033788 1_555
Au1 O3 2.034318 1_554
Au2 O2 2.033788 1_654
Au2 O0 2.034318 1_555
Au3 O2 2.033788 1_555
Au3 O3 2.034318 1_545
