# generated using pymatgen
data_LuTh3
_symmetry_space_group_name_H-M   'P 1'
_cell_length_a   5.02881203
_cell_length_b   5.02881203
_cell_length_c   5.02878037
_cell_angle_alpha   90.00000000
_cell_angle_beta   90.00000000
_cell_angle_gamma   90.00000000
_symmetry_Int_Tables_number   1
_chemical_formula_structural   LuTh3
_chemical_formula_sum   'Lu1 Th3'
_cell_volume   127.17257752
_cell_formula_units_Z   1
loop_
 _symmetry_equiv_pos_site_id
 _symmetry_equiv_pos_as_xyz
  1  'x, y, z'
loop_
 _atom_site_type_symbol
 _atom_site_label
 _atom_site_symmetry_multiplicity
 _atom_site_fract_x
 _atom_site_fract_y
 _atom_site_fract_z
 _atom_site_occupancy
  Lu  Lu0  1  -0.00000000  -0.00000000  0.00000000  1
  Th  Th0  1  0.00000000  0.50000000  0.50000000  1
  Th  Th1  1  0.50000000  0.00000000  0.50000000  1
  Th  Th2  1  0.50000000  0.50000000  -0.00000000  1
loop_
_geom_bond_atom_site_label_1
_geom_bond_atom_site_label_2
_geom_bond_distance
_geom_bond_site_symmetry_2
Lu0 Th1 3.555896 1_454
Lu0 Th0 3.555896 1_544
Lu0 Th0 3.555896 1_555
Lu0 Th0 3.555896 1_545
Lu0 Th1 3.555896 1_555
Lu0 Th0 3.555896 1_554
Lu0 Th1 3.555896 1_554
Lu0 Th1 3.555896 1_455
Lu0 Th2 3.555907 1_545
Lu0 Th2 3.555907 1_555
Lu0 Th2 3.555907 1_455
Lu0 Th2 3.555907 1_445
Th0 Th2 3.555896 1_456
Th0 Th2 3.555896 1_455
Th0 Th2 3.555896 1_556
Th0 Th2 3.555896 1_555
Th0 Th1 3.555907 1_455
Th0 Th1 3.555907 1_565
Th0 Th1 3.555907 1_465
Th0 Th1 3.555907 1_555
Th1 Th2 3.555896 1_546
Th1 Th2 3.555896 1_556
Th1 Th2 3.555896 1_545
Th1 Th2 3.555896 1_555
