# generated using pymatgen
data_SrAl2P2(O4F)2
_symmetry_space_group_name_H-M   'P 1'
_cell_length_a   4.72855000
_cell_length_b   12.14089700
_cell_length_c   12.34320000
_cell_angle_alpha   90.00000000
_cell_angle_beta   90.00000000
_cell_angle_gamma   90.00000000
_symmetry_Int_Tables_number   1
_chemical_formula_structural   SrAl2P2(O4F)2
_chemical_formula_sum   'Sr4 Al8 P8 O32 F8'
_cell_volume   708.60877549
_cell_formula_units_Z   4
loop_
 _symmetry_equiv_pos_site_id
 _symmetry_equiv_pos_as_xyz
  1  'x, y, z'
loop_
 _atom_site_type_symbol
 _atom_site_label
 _atom_site_symmetry_multiplicity
 _atom_site_fract_x
 _atom_site_fract_y
 _atom_site_fract_z
 _atom_site_occupancy
  Sr  Sr0  1  0.24786600  0.99452900  0.73609400  1
  Sr  Sr1  1  0.74786600  0.50547100  0.26390600  1
  Sr  Sr2  1  0.75213400  0.49452900  0.76390600  1
  Sr  Sr3  1  0.25213400  0.00547100  0.23609400  1
  Al  Al0  1  0.99674500  0.35660700  0.00271400  1
  Al  Al1  1  0.25263200  0.25062700  0.39309100  1
  Al  Al2  1  0.75263200  0.24937300  0.60690900  1
  Al  Al3  1  0.74736800  0.75062700  0.10690900  1
  Al  Al4  1  0.24736800  0.74937300  0.89309100  1
  Al  Al5  1  0.49674500  0.14339300  0.99728600  1
  Al  Al6  1  0.00325500  0.85660700  0.49728500  1
  Al  Al7  1  0.50325500  0.64339300  0.50271400  1
  P  P0  1  0.52320100  0.03467900  0.49873500  1
  P  P1  1  0.25360000  0.25871400  0.78335500  1
  P  P2  1  0.75360000  0.24128600  0.21664500  1
  P  P3  1  0.24640000  0.74128600  0.28335500  1
  P  P4  1  0.74640000  0.75871400  0.71664500  1
  P  P5  1  0.97679900  0.96532100  0.99873500  1
  P  P6  1  0.47679900  0.53467900  0.00126500  1
  P  P7  1  0.02320100  0.46532100  0.50126500  1
  O  O0  1  0.84972900  0.33970400  0.14477500  1
  O  O1  1  0.59249800  0.60572200  0.09585900  1
  O  O2  1  0.90750200  0.39427800  0.59585900  1
  O  O3  1  0.40750200  0.10572200  0.40414100  1
  O  O4  1  0.96931600  0.70552000  0.79256000  1
  O  O5  1  0.46931600  0.79448000  0.20744000  1
  O  O6  1  0.03068400  0.20552000  0.70744000  1
  O  O7  1  0.53068400  0.29448000  0.29256000  1
  O  O8  1  0.86784200  0.85656700  0.64944200  1
  O  O9  1  0.36784200  0.64343300  0.35055800  1
  O  O10  1  0.13215800  0.35656700  0.85055800  1
  O  O11  1  0.63215800  0.14343300  0.14944200  1
  O  O12  1  0.15027100  0.83970400  0.35522500  1
  O  O13  1  0.65027100  0.66029600  0.64477500  1
  O  O14  1  0.09249800  0.89427800  0.90414100  1
  O  O15  1  0.09712500  0.39586400  0.39842000  1
  O  O16  1  0.40287500  0.60413600  0.89842000  1
  O  O17  1  0.90287500  0.89586400  0.10158000  1
  O  O18  1  0.59712500  0.10413600  0.60158000  1
  O  O19  1  0.27678500  0.52819800  0.54723300  1
  O  O20  1  0.20916200  0.04552400  0.04038600  1
  O  O21  1  0.70916200  0.45447600  0.95961400  1
  O  O22  1  0.79083800  0.54552400  0.45961400  1
  O  O23  1  0.29083800  0.95447600  0.54038600  1
  O  O24  1  0.00965800  0.19523200  0.28157700  1
  O  O25  1  0.50965800  0.30476800  0.71842300  1
  O  O26  1  0.99034200  0.69523200  0.21842300  1
  O  O27  1  0.49034200  0.80476800  0.78157700  1
  O  O28  1  0.22321500  0.47180200  0.04723300  1
  O  O29  1  0.72321500  0.02819800  0.95276700  1
  O  O30  1  0.77678500  0.97180200  0.45276700  1
  O  O31  1  0.34972900  0.16029600  0.85522500  1
  F  F0  1  0.48690900  0.29215400  0.50539800  1
  F  F1  1  0.98690900  0.20784600  0.49460200  1
  F  F2  1  0.51309100  0.79215400  0.99460200  1
  F  F3  1  0.01309100  0.70784600  0.00539800  1
  F  F4  1  0.27923500  0.26036600  0.03882700  1
  F  F5  1  0.77923500  0.23963400  0.96117300  1
  F  F6  1  0.72076500  0.76036600  0.46117300  1
  F  F7  1  0.22076500  0.73963400  0.53882700  1
loop_
_geom_bond_atom_site_label_1
_geom_bond_atom_site_label_2
_geom_bond_distance
_geom_bond_site_symmetry_2
Al0 F5 1.826906 1_554
Al0 F4 1.829822 1_655
Al0 O28 1.845191 1_655
Al0 O21 1.882570 1_554
Al0 O0 1.897392 1_555
Al0 O10 1.984244 1_654
Al1 F0 1.844728 1_555
Al1 F1 1.848909 1_455
Al1 O7 1.884645 1_555
Al1 O3 1.910481 1_555
Al1 O15 1.911617 1_555
Al1 O24 1.914917 1_555
Al2 F1 1.844728 1_555
Al2 F0 1.848909 1_555
Al2 O6 1.884645 1_655
Al2 O2 1.910481 1_555
Al2 O18 1.911617 1_555
Al2 O25 1.914917 1_555
Al3 F2 1.844728 1_554
Al3 F3 1.848909 1_655
Al3 O5 1.884645 1_555
Al3 O1 1.910481 1_555
Al3 O17 1.911617 1_555
Al3 O26 1.914917 1_555
Al4 F3 1.844728 1_556
Al4 F2 1.848909 1_555
Al4 O4 1.884645 1_455
Al4 O14 1.910481 1_555
Al4 O16 1.911617 1_555
Al4 O27 1.914917 1_555
Al5 F4 1.826906 1_556
Al5 F5 1.829822 1_555
Al5 O29 1.845191 1_555
Al5 O20 1.882570 1_556
Al5 O31 1.897392 1_555
Al5 O11 1.984244 1_556
Al6 F7 1.826909 1_555
Al6 F6 1.829819 1_455
Al6 O30 1.845187 1_455
Al6 O23 1.882573 1_555
Al6 O12 1.897381 1_555
Al6 O8 1.984255 1_455
Al7 F6 1.826906 1_555
Al7 F7 1.829822 1_555
Al7 O19 1.845191 1_555
Al7 O22 1.882570 1_555
Al7 O13 1.897392 1_555
Al7 O9 1.984244 1_555
O0 P2 1.556058 1_555
O0 Sr1 2.538630 1_555
O1 P6 1.551299 1_555
O1 Sr1 2.514680 1_555
O2 P7 1.551299 1_655
O2 Sr2 2.514680 1_555
O3 P0 1.551299 1_555
O3 Sr3 2.514680 1_555
O4 P4 1.551187 1_555
O4 Sr2 2.782378 1_555
O5 P3 1.551187 1_555
O5 Sr3 2.782378 1_565
O6 P1 1.551187 1_555
O6 Sr0 2.782378 1_545
O7 P2 1.551187 1_555
O7 Sr1 2.782378 1_555
O8 P4 1.558598 1_555
O8 Sr0 2.679292 1_655
O9 P3 1.558598 1_555
O9 Sr1 2.679292 1_555
O10 P1 1.558598 1_555
O10 Sr2 2.679292 1_455
O11 P2 1.558598 1_555
O11 Sr3 2.679292 1_555
O12 P3 1.556058 1_555
O12 Sr3 2.538630 1_565
O13 P4 1.556058 1_555
O13 Sr2 2.538630 1_555
O14 P5 1.551299 1_455
O14 Sr0 2.514680 1_555
O15 P7 1.563573 1_555
O15 Sr1 2.693503 1_455
O16 P6 1.563573 1_556
O16 Sr2 2.693503 1_555
O17 P5 1.563573 1_554
O17 Sr3 2.693503 1_665
O18 P0 1.563573 1_555
O18 Sr0 2.693503 1_545
O19 P7 1.530520 1_555
O20 P5 1.555538 1_444
O20 Sr3 2.472485 1_555
O21 P6 1.555538 1_556
O21 Sr2 2.472485 1_555
O22 P7 1.555538 1_655
O22 Sr1 2.472485 1_555
O23 P0 1.555538 1_565
O23 Sr0 2.472485 1_555
O24 P2 1.555950 1_455
O24 Sr3 2.633930 1_555
O25 P1 1.555950 1_555
O25 Sr2 2.633930 1_555
O26 P3 1.555950 1_655
O26 Sr1 2.633930 1_555
O27 P4 1.555950 1_555
O27 Sr0 2.633930 1_555
O28 P6 1.530520 1_555
O29 P5 1.530520 1_545
O30 P0 1.530520 1_565
O31 P1 1.556058 1_555
O31 Sr0 2.538630 1_545
