# generated using pymatgen
data_Ac3Nd
_symmetry_space_group_name_H-M   'P 1'
_cell_length_a   7.99413076
_cell_length_b   7.99412672
_cell_length_c   6.33618363
_cell_angle_alpha   89.99999945
_cell_angle_beta   90.00002837
_cell_angle_gamma   120.00002364
_symmetry_Int_Tables_number   1
_chemical_formula_structural   Ac3Nd
_chemical_formula_sum   'Ac6 Nd2'
_cell_volume   350.67157123
_cell_formula_units_Z   2
loop_
 _symmetry_equiv_pos_site_id
 _symmetry_equiv_pos_as_xyz
  1  'x, y, z'
loop_
 _atom_site_type_symbol
 _atom_site_label
 _atom_site_symmetry_multiplicity
 _atom_site_fract_x
 _atom_site_fract_y
 _atom_site_fract_z
 _atom_site_occupancy
  Ac  Ac0  1  0.83091477  0.16908506  0.74999958  1
  Ac  Ac1  1  0.33817006  0.16908484  0.74999911  1
  Ac  Ac2  1  0.83091485  0.66182926  0.74999918  1
  Ac  Ac3  1  0.16903874  0.83096057  0.25000183  1
  Ac  Ac4  1  0.66192215  0.83096065  0.25000153  1
  Ac  Ac5  1  0.16903864  0.33807736  0.25000140  1
  Nd  Nd0  1  0.66666679  0.33333176  0.24998994  1
  Nd  Nd1  1  0.33333299  0.66666751  0.75001143  1
loop_
_geom_bond_atom_site_label_1
_geom_bond_atom_site_label_2
_geom_bond_distance
_geom_bond_site_symmetry_2
Ac0 Nd0 3.899801 1_556
Ac0 Nd0 3.899899 1_555
Ac0 Ac2 3.939059 1_555
Ac0 Ac1 3.939065 1_555
Ac0 Ac4 3.939088 1_545
Ac0 Ac5 3.939089 1_655
Ac0 Ac5 3.939105 1_656
Ac0 Ac4 3.939109 1_546
Ac0 Nd1 3.997200 1_545
Ac0 Nd1 3.997206 1_655
Ac0 Ac1 4.055066 1_655
Ac0 Ac2 4.055067 1_545
Ac1 Nd0 3.899810 1_556
Ac1 Nd0 3.899906 1_555
Ac1 Ac2 3.939062 1_555
Ac1 Ac3 3.939084 1_545
Ac1 Ac5 3.939085 1_555
Ac1 Ac5 3.939110 1_556
Ac1 Ac3 3.939112 1_546
Ac1 Nd1 3.997194 1_545
Ac1 Nd1 3.997213 1_555
Ac1 Ac2 4.055063 1_445
Ac2 Nd0 3.899813 1_556
Ac2 Nd0 3.899907 1_555
Ac2 Ac3 3.939085 1_655
Ac2 Ac4 3.939086 1_555
Ac2 Ac3 3.939110 1_656
Ac2 Ac4 3.939111 1_556
Ac2 Nd1 3.997198 1_655
Ac2 Nd1 3.997214 1_555
Ac3 Nd1 3.900175 1_554
Ac3 Nd1 3.900273 1_555
Ac3 Ac5 3.940170 1_555
Ac3 Ac4 3.940174 1_555
Ac3 Nd0 3.997195 1_565
Ac3 Nd0 3.997201 1_455
Ac3 Ac5 4.053956 1_565
Ac3 Ac4 4.053957 1_455
Ac4 Nd1 3.900179 1_554
Ac4 Nd1 3.900283 1_555
Ac4 Ac5 3.940172 1_555
Ac4 Nd0 3.997189 1_565
Ac4 Nd0 3.997208 1_555
Ac4 Ac5 4.053954 1_665
Ac5 Nd1 3.900183 1_554
Ac5 Nd1 3.900285 1_555
Ac5 Nd0 3.997193 1_455
Ac5 Nd0 3.997208 1_555
