# generated using pymatgen
data_Ho(CrGe)6
_symmetry_space_group_name_H-M   'P 1'
_cell_length_a   5.06334723
_cell_length_b   5.06334589
_cell_length_c   8.25516665
_cell_angle_alpha   90.00000000
_cell_angle_beta   90.00000000
_cell_angle_gamma   119.99999537
_symmetry_Int_Tables_number   1
_chemical_formula_structural   Ho(CrGe)6
_chemical_formula_sum   'Ho1 Cr6 Ge6'
_cell_volume   183.28705970
_cell_formula_units_Z   1
loop_
 _symmetry_equiv_pos_site_id
 _symmetry_equiv_pos_as_xyz
  1  'x, y, z'
loop_
 _atom_site_type_symbol
 _atom_site_label
 _atom_site_symmetry_multiplicity
 _atom_site_fract_x
 _atom_site_fract_y
 _atom_site_fract_z
 _atom_site_occupancy
  Ho  Ho0  1  -0.00000000  0.00000000  -0.00000000  1
  Cr  Cr0  1  -0.00000000  0.50000000  0.74990930  1
  Cr  Cr1  1  -0.00000000  0.50000000  0.25009070  1
  Cr  Cr2  1  0.50000000  0.50000000  0.25009070  1
  Cr  Cr3  1  0.50000000  -0.00000000  0.25009070  1
  Cr  Cr4  1  0.50000000  0.50000000  0.74990930  1
  Cr  Cr5  1  0.50000000  0.00000000  0.74990930  1
  Ge  Ge0  1  -0.00000000  -0.00000000  0.65383747  1
  Ge  Ge1  1  0.33333300  0.66666700  -0.00000000  1
  Ge  Ge2  1  0.66666700  0.33333300  0.50000000  1
  Ge  Ge3  1  0.33333300  0.66666700  0.50000000  1
  Ge  Ge4  1  -0.00000000  0.00000000  0.34616253  1
  Ge  Ge5  1  0.66666700  0.33333300  -0.00000000  1
loop_
_geom_bond_atom_site_label_1
_geom_bond_atom_site_label_2
_geom_bond_distance
_geom_bond_site_symmetry_2
Cr0 Ge2 2.528359 1_455
Cr0 Ge3 2.528359 1_555
Cr0 Ge1 2.529581 1_556
Cr0 Ge5 2.529581 1_456
Cr0 Ge0 2.652990 1_565
Cr0 Ge0 2.652990 1_555
Cr1 Ge2 2.528359 1_455
Cr1 Ge3 2.528359 1_555
Cr1 Ge5 2.529581 1_455
Cr1 Ge1 2.529581 1_555
Cr1 Ge4 2.652990 1_555
Cr1 Ge4 2.652990 1_565
Cr2 Ge3 2.528361 1_555
Cr2 Ge2 2.528361 1_555
Cr2 Ge1 2.529583 1_555
Cr2 Ge5 2.529583 1_555
Cr2 Ge4 2.652991 1_665
Cr2 Ge4 2.652991 1_555
Cr3 Ge2 2.528359 1_555
Cr3 Ge3 2.528359 1_545
Cr3 Ge1 2.529581 1_545
Cr3 Ge5 2.529581 1_555
Cr3 Ge4 2.652991 1_555
Cr3 Ge4 2.652991 1_655
Cr4 Ge3 2.528361 1_555
Cr4 Ge2 2.528361 1_555
Cr4 Ge1 2.529583 1_556
Cr4 Ge5 2.529583 1_556
Cr4 Ge0 2.652991 1_665
Cr4 Ge0 2.652991 1_555
Cr5 Ge2 2.528359 1_555
Cr5 Ge3 2.528359 1_545
Cr5 Ge1 2.529581 1_546
Cr5 Ge5 2.529581 1_556
Cr5 Ge0 2.652991 1_555
Cr5 Ge0 2.652991 1_655
Ge0 Ge4 2.539908 1_555
Ge0 Ho0 2.857629 1_556
Ge1 Ho0 2.923322 1_565
Ge1 Ho0 2.923326 1_555
Ge1 Ho0 2.923326 1_665
Ge4 Ho0 2.857629 1_555
Ge5 Ho0 2.923322 1_655
Ge5 Ho0 2.923326 1_665
Ge5 Ho0 2.923326 1_555
