# generated using pymatgen
data_CsEr6CI12
_symmetry_space_group_name_H-M   'P 1'
_cell_length_a   6.52838200
_cell_length_b   9.23252600
_cell_length_c   9.23252595
_cell_angle_alpha   120.00000018
_cell_angle_beta   90.00000000
_cell_angle_gamma   90.00000000
_symmetry_Int_Tables_number   1
_chemical_formula_structural   CsEr6CI12
_chemical_formula_sum   'Cs1 Er6 C1 I12'
_cell_volume   481.92256976
_cell_formula_units_Z   1
loop_
 _symmetry_equiv_pos_site_id
 _symmetry_equiv_pos_as_xyz
  1  'x, y, z'
loop_
 _atom_site_type_symbol
 _atom_site_label
 _atom_site_symmetry_multiplicity
 _atom_site_fract_x
 _atom_site_fract_y
 _atom_site_fract_z
 _atom_site_occupancy
  Cs  Cs0  1  0.50000000  0.50000000  0.50000000  1
  Er  Er0  1  0.02885100  0.73489300  0.91187500  1
  Er  Er1  1  0.91187500  0.97114900  0.26510700  1
  Er  Er2  1  0.73489300  0.91187500  0.97114900  1
  Er  Er3  1  0.97114900  0.26510700  0.08812500  1
  Er  Er4  1  0.08812500  0.02885100  0.73489300  1
  Er  Er5  1  0.26510700  0.08812500  0.02885100  1
  C  C0  1  0.00000000  0.00000000  0.00000000  1
  I  I0  1  0.58043200  0.85534700  0.28122200  1
  I  I1  1  0.28122200  0.41956800  0.14465300  1
  I  I2  1  0.14465300  0.71877800  0.58043200  1
  I  I3  1  0.41956800  0.14465300  0.71877800  1
  I  I4  1  0.71877800  0.58043200  0.85534700  1
  I  I5  1  0.85534700  0.28122200  0.41956800  1
  I  I6  1  0.78844200  0.93132000  0.63995600  1
  I  I7  1  0.06868000  0.36004400  0.78844200  1
  I  I8  1  0.63995600  0.21155800  0.06868000  1
  I  I9  1  0.21155800  0.06868000  0.36004400  1
  I  I10  1  0.93132000  0.63995600  0.21155800  1
  I  I11  1  0.36004400  0.78844200  0.93132000  1
loop_
_geom_bond_atom_site_label_1
_geom_bond_atom_site_label_2
_geom_bond_distance
_geom_bond_site_symmetry_2
Cs0 I2 2.917714 1_555
Cs0 I5 2.917714 1_555
Cs0 I4 3.304308 1_555
Cs0 I1 3.304308 1_555
Er0 I11 2.205178 1_555
Er0 I4 2.378964 1_455
Er0 I7 3.065865 1_555
Er0 I2 3.082585 1_555
Er1 I9 2.148839 1_665
Er1 I0 2.450765 1_555
Er1 I5 2.506541 1_565
Er1 I10 2.845810 1_555
Er2 I8 2.521685 1_566
Er2 I11 2.646399 1_555
Er2 I4 2.691921 1_555
Er3 I8 2.205178 1_555
Er3 I1 2.378964 1_655
Er3 I10 3.065865 1_555
Er3 I5 3.082585 1_555
Er4 I6 2.148839 1_445
Er4 I3 2.450765 1_555
Er4 I2 2.506541 1_545
Er4 I7 2.845810 1_555
Er5 I11 2.521685 1_544
Er5 I8 2.646399 1_555
Er5 I1 2.691921 1_555
C0 Er2 1.873925 1_444
C0 Er5 1.873925 1_555
C0 Er0 2.167214 1_544
C0 Er3 2.167214 1_455
C0 Er4 2.654182 1_554
C0 Er1 2.654182 1_445
