# generated using pymatgen
data_SmHoRu2
_symmetry_space_group_name_H-M   'P 1'
_cell_length_a   4.82082011
_cell_length_b   4.82082011
_cell_length_c   4.82082011
_cell_angle_alpha   60.00000000
_cell_angle_beta   60.00000000
_cell_angle_gamma   60.00000000
_symmetry_Int_Tables_number   1
_chemical_formula_structural   SmHoRu2
_chemical_formula_sum   'Sm1 Ho1 Ru2'
_cell_volume   79.22236076
_cell_formula_units_Z   1
loop_
 _symmetry_equiv_pos_site_id
 _symmetry_equiv_pos_as_xyz
  1  'x, y, z'
loop_
 _atom_site_type_symbol
 _atom_site_label
 _atom_site_symmetry_multiplicity
 _atom_site_fract_x
 _atom_site_fract_y
 _atom_site_fract_z
 _atom_site_occupancy
  Sm  Sm0  1  0.75000000  0.75000000  0.75000000  1
  Ho  Ho0  1  0.24999900  0.24999900  0.24999900  1
  Ru  Ru0  1  0.00000000  -0.00000000  0.00000000  1
  Ru  Ru1  1  0.50000000  0.50000000  0.50000000  1
loop_
_geom_bond_atom_site_label_1
_geom_bond_atom_site_label_2
_geom_bond_distance
_geom_bond_site_symmetry_2
Ho0 Ru0 2.952126 1_555
Ho0 Ru1 2.952133 1_554
Ho0 Ru1 2.952133 1_455
Ho0 Ru1 2.952133 1_545
Ho0 Ru0 2.952141 1_655
Ho0 Ru0 2.952141 1_556
Ho0 Ru0 2.952141 1_565
Ho0 Ru1 2.952149 1_555
Ru0 Sm0 2.952137 1_454
Ru0 Sm0 2.952137 1_544
Ru0 Sm0 2.952137 1_445
Ru0 Sm0 2.952137 1_444
Ru1 Sm0 2.952137 1_545
Ru1 Sm0 2.952137 1_554
Ru1 Sm0 2.952137 1_455
Ru1 Sm0 2.952137 1_555
