# generated using pymatgen
data_Ta2TcMo
_symmetry_space_group_name_H-M   'P 1'
_cell_length_a   4.52118351
_cell_length_b   4.52118351
_cell_length_c   4.52118351
_cell_angle_alpha   60.00000000
_cell_angle_beta   60.00000000
_cell_angle_gamma   60.00000000
_symmetry_Int_Tables_number   1
_chemical_formula_structural   Ta2TcMo
_chemical_formula_sum   'Ta2 Tc1 Mo1'
_cell_volume   65.34937035
_cell_formula_units_Z   1
loop_
 _symmetry_equiv_pos_site_id
 _symmetry_equiv_pos_as_xyz
  1  'x, y, z'
loop_
 _atom_site_type_symbol
 _atom_site_label
 _atom_site_symmetry_multiplicity
 _atom_site_fract_x
 _atom_site_fract_y
 _atom_site_fract_z
 _atom_site_occupancy
  Ta  Ta0  1  0.00000000  0.00000000  -0.00000000  1
  Ta  Ta1  1  0.50000000  0.50000000  0.50000000  1
  Tc  Tc0  1  0.74999900  0.74999900  0.74999900  1
  Mo  Mo0  1  0.24999900  0.24999900  0.24999900  1
loop_
_geom_bond_atom_site_label_1
_geom_bond_atom_site_label_2
_geom_bond_distance
_geom_bond_site_symmetry_2
Ta0 Tc0 2.768644 1_445
Ta0 Tc0 2.768644 1_544
Ta0 Tc0 2.768644 1_454
Ta0 Tc0 2.768659 1_444
Ta1 Tc0 2.768637 1_555
Ta1 Tc0 2.768652 1_545
Ta1 Tc0 2.768652 1_455
Ta1 Tc0 2.768652 1_554
Mo0 Ta0 2.768637 1_555
Mo0 Ta1 2.768644 1_554
Mo0 Ta1 2.768644 1_455
Mo0 Ta1 2.768644 1_545
Mo0 Ta0 2.768652 1_565
Mo0 Ta0 2.768652 1_556
Mo0 Ta0 2.768652 1_655
Mo0 Ta1 2.768659 1_555
