# generated using pymatgen
data_Ca3TiNiO6
_symmetry_space_group_name_H-M   'P 1'
_cell_length_a   7.63373797
_cell_length_b   7.63373797
_cell_length_c   5.39786800
_cell_angle_alpha   90.00000000
_cell_angle_beta   90.00000000
_cell_angle_gamma   119.99999975
_symmetry_Int_Tables_number   1
_chemical_formula_structural   Ca3TiNiO6
_chemical_formula_sum   'Ca6 Ti2 Ni2 O12'
_cell_volume   272.41272474
_cell_formula_units_Z   2
loop_
 _symmetry_equiv_pos_site_id
 _symmetry_equiv_pos_as_xyz
  1  'x, y, z'
loop_
 _atom_site_type_symbol
 _atom_site_label
 _atom_site_symmetry_multiplicity
 _atom_site_fract_x
 _atom_site_fract_y
 _atom_site_fract_z
 _atom_site_occupancy
  Ca  Ca0  1  0.89326200  0.10673800  0.75000000  1
  Ca  Ca1  1  0.39326200  0.25000000  0.60673800  1
  Ca  Ca2  1  0.75000000  0.60673800  0.89326200  1
  Ca  Ca3  1  0.10673800  0.89326200  0.25000000  1
  Ca  Ca4  1  0.60673800  0.75000000  0.39326200  1
  Ca  Ca5  1  0.25000000  0.39326200  0.10673800  1
  Ti  Ti0  1  0.00000000  0.50000000  0.50000000  1
  Ti  Ti1  1  0.50000000  0.00000000  0.00000000  1
  Ni  Ni0  1  0.75000000  0.25000000  0.25000000  1
  Ni  Ni1  1  0.25000000  0.75000000  0.75000000  1
  O  O0  1  0.29286500  0.58002900  0.45802800  1
  O  O1  1  0.70713500  0.41997100  0.54197200  1
  O  O2  1  0.91997100  0.54197200  0.20713500  1
  O  O3  1  0.04197200  0.20713500  0.41997100  1
  O  O4  1  0.45802800  0.08002900  0.29286500  1
  O  O5  1  0.58002900  0.29286500  0.95802800  1
  O  O6  1  0.20713500  0.04197200  0.91997100  1
  O  O7  1  0.41997100  0.70713500  0.04197200  1
  O  O8  1  0.54197200  0.91997100  0.70713500  1
  O  O9  1  0.95802800  0.79286500  0.58002900  1
  O  O10  1  0.08002900  0.45802800  0.79286500  1
  O  O11  1  0.79286500  0.95802800  0.08002900  1
loop_
_geom_bond_atom_site_label_1
_geom_bond_atom_site_label_2
_geom_bond_distance
_geom_bond_site_symmetry_2
Ca0 O3 2.044414 1_655
Ca0 O11 2.044414 1_546
Ca0 O10 2.335424 1_655
Ca0 O8 2.335424 1_545
Ca0 O6 2.830504 1_655
Ca0 O9 2.830504 1_545
Ca1 O1 2.106613 1_555
Ca1 O6 2.267834 1_555
Ca1 O5 2.295407 1_555
Ca1 O4 2.332369 1_555
Ca1 O3 2.727125 1_555
Ca2 O5 2.106613 1_555
Ca2 O9 2.267834 1_555
Ca2 O1 2.295407 1_555
Ca2 O2 2.332369 1_556
Ca2 O11 2.727125 1_556
Ca3 O6 2.044414 1_564
Ca3 O9 2.044414 1_455
Ca3 O4 2.335424 1_565
Ca3 O2 2.335424 1_455
Ca3 O3 2.830504 1_565
Ca3 O11 2.830504 1_455
Ca4 O0 2.106613 1_555
Ca4 O11 2.267834 1_555
Ca4 O7 2.295407 1_555
Ca4 O8 2.332369 1_555
Ca4 O9 2.727125 1_555
Ca5 O7 2.106613 1_555
Ca5 O3 2.267834 1_555
Ca5 O0 2.295407 1_555
Ca5 O10 2.332369 1_554
Ca5 O6 2.727125 1_554
Ni0 O4 1.952652 1_555
Ni0 O2 1.952652 1_555
Ni0 O1 2.167729 1_555
Ni0 O5 2.167729 1_554
Ni0 O11 2.577961 1_545
Ni0 O3 2.577961 1_655
Ni1 O10 1.952652 1_555
Ni1 O8 1.952652 1_555
Ni1 O7 2.167729 1_556
Ni1 O0 2.167729 1_555
Ni1 O9 2.577961 1_455
Ni1 O6 2.577961 1_565
O0 Ti0 2.014174 1_555
O1 Ti0 2.014174 1_655
O2 Ti0 1.780646 1_655
O3 Ti0 2.450252 1_555
O4 Ti1 1.780646 1_555
O5 Ti1 2.014174 1_556
O6 Ti1 2.450252 1_556
O7 Ti1 2.014174 1_565
O8 Ti1 1.780646 1_566
O9 Ti0 2.450252 1_655
O10 Ti0 1.780646 1_555
O11 Ti1 2.450252 1_565
