# generated using pymatgen
data_PdAuO2
_symmetry_space_group_name_H-M   'P 1'
_cell_length_a   3.22212261
_cell_length_b   3.22212261
_cell_length_c   12.05909340
_cell_angle_alpha   90.00000000
_cell_angle_beta   90.00000000
_cell_angle_gamma   120.00002399
_symmetry_Int_Tables_number   1
_chemical_formula_structural   PdAuO2
_chemical_formula_sum   'Pd2 Au2 O4'
_cell_volume   108.42496982
_cell_formula_units_Z   2
loop_
 _symmetry_equiv_pos_site_id
 _symmetry_equiv_pos_as_xyz
  1  'x, y, z'
loop_
 _atom_site_type_symbol
 _atom_site_label
 _atom_site_symmetry_multiplicity
 _atom_site_fract_x
 _atom_site_fract_y
 _atom_site_fract_z
 _atom_site_occupancy
  Pd  Pd0  1  -0.00000000  0.00000000  0.00000000  1
  Pd  Pd1  1  -0.00000000  0.00000000  0.50000000  1
  Au  Au0  1  0.33333300  0.66666700  0.24993212  1
  Au  Au1  1  0.66666700  0.33333300  0.75006788  1
  O  O0  1  0.33333300  0.66666700  0.08188310  1
  O  O1  1  0.66666700  0.33333300  0.91811690  1
  O  O2  1  0.33333300  0.66666700  0.41801373  1
  O  O3  1  0.66666700  0.33333300  0.58198627  1
loop_
_geom_bond_atom_site_label_1
_geom_bond_atom_site_label_2
_geom_bond_distance
_geom_bond_site_symmetry_2
Au0 O0 2.026519 1_555
Au0 O2 2.026912 1_555
Au1 O1 2.026519 1_555
Au1 O3 2.026912 1_555
O0 Pd0 2.106114 1_565
O0 Pd0 2.106116 1_555
O0 Pd0 2.106116 1_665
O1 Pd0 2.106114 1_656
O1 Pd0 2.106116 1_556
O1 Pd0 2.106116 1_666
O2 Pd1 2.106697 1_565
O2 Pd1 2.106699 1_665
O2 Pd1 2.106699 1_555
O3 Pd1 2.106697 1_655
O3 Pd1 2.106699 1_555
O3 Pd1 2.106699 1_665
