# generated using pymatgen
data_CaAgO2
_symmetry_space_group_name_H-M   'P 1'
_cell_length_a   3.30267128
_cell_length_b   5.84010405
_cell_length_c   5.84010339
_cell_angle_alpha   70.31161427
_cell_angle_beta   90.00000000
_cell_angle_gamma   90.00000000
_symmetry_Int_Tables_number   1
_chemical_formula_structural   CaAgO2
_chemical_formula_sum   'Ca2 Ag2 O4'
_cell_volume   106.05831396
_cell_formula_units_Z   2
loop_
 _symmetry_equiv_pos_site_id
 _symmetry_equiv_pos_as_xyz
  1  'x, y, z'
loop_
 _atom_site_type_symbol
 _atom_site_label
 _atom_site_symmetry_multiplicity
 _atom_site_fract_x
 _atom_site_fract_y
 _atom_site_fract_z
 _atom_site_occupancy
  Ca  Ca0  1  0.00000000  0.50000000  0.00000000  1
  Ca  Ca1  1  0.00000000  -0.00000000  0.50000000  1
  Ag  Ag0  1  0.50000000  0.50000000  0.50000000  1
  Ag  Ag1  1  0.50000000  -0.00000000  0.00000000  1
  O  O0  1  0.50000000  0.22244767  0.22244767  1
  O  O1  1  0.00000000  0.70754029  0.29245971  1
  O  O2  1  0.00000000  0.29245971  0.70754029  1
  O  O3  1  0.50000000  0.77755233  0.77755233  1
loop_
_geom_bond_atom_site_label_1
_geom_bond_atom_site_label_2
_geom_bond_distance
_geom_bond_site_symmetry_2
Ca0 O3 2.371318 1_554
Ca0 O0 2.371318 1_455
Ca0 O3 2.371318 1_454
Ca0 O0 2.371318 1_555
Ca0 O1 2.404421 1_555
Ca0 O2 2.404421 1_554
Ca1 O0 2.371318 1_555
Ca1 O3 2.371318 1_445
Ca1 O3 2.371318 1_545
Ca1 O0 2.371318 1_455
Ca1 O2 2.404421 1_555
Ca1 O1 2.404421 1_545
Ag0 O2 2.162219 1_555
Ag0 O1 2.162219 1_555
Ag0 O1 2.162219 1_655
Ag0 O2 2.162219 1_655
Ag0 O0 2.650517 1_555
Ag0 O3 2.650517 1_555
Ag1 O3 2.124289 1_544
Ag1 O0 2.124289 1_555
Ag1 O1 2.568217 1_645
Ag1 O2 2.568217 1_554
Ag1 O1 2.568217 1_545
Ag1 O2 2.568217 1_654
