# generated using pymatgen
data_LiLu3
_symmetry_space_group_name_H-M   'P 1'
_cell_length_a   6.83932458
_cell_length_b   6.83932458
_cell_length_c   5.41376300
_cell_angle_alpha   90.00000000
_cell_angle_beta   90.00000000
_cell_angle_gamma   120.00000562
_symmetry_Int_Tables_number   1
_chemical_formula_structural   LiLu3
_chemical_formula_sum   'Li2 Lu6'
_cell_volume   219.30891017
_cell_formula_units_Z   2
loop_
 _symmetry_equiv_pos_site_id
 _symmetry_equiv_pos_as_xyz
  1  'x, y, z'
loop_
 _atom_site_type_symbol
 _atom_site_label
 _atom_site_symmetry_multiplicity
 _atom_site_fract_x
 _atom_site_fract_y
 _atom_site_fract_z
 _atom_site_occupancy
  Li  Li0  1  0.66666700  0.33333300  0.25000000  1
  Li  Li1  1  0.33333300  0.66666700  0.75000000  1
  Lu  Lu0  1  0.83213400  0.16786600  0.75000000  1
  Lu  Lu1  1  0.33573100  0.16786600  0.75000000  1
  Lu  Lu2  1  0.83213400  0.66426900  0.75000000  1
  Lu  Lu3  1  0.16786600  0.83213400  0.25000000  1
  Lu  Lu4  1  0.66426900  0.83213400  0.25000000  1
  Lu  Lu5  1  0.16786600  0.33573100  0.25000000  1
loop_
_geom_bond_atom_site_label_1
_geom_bond_atom_site_label_2
_geom_bond_distance
_geom_bond_site_symmetry_2
Li0 Lu0 3.342054 1_555
Li0 Lu0 3.342054 1_554
Li0 Lu1 3.342061 1_555
Li0 Lu1 3.342061 1_554
Li0 Lu2 3.342061 1_554
Li0 Lu2 3.342061 1_555
Li0 Lu3 3.419691 1_545
Li0 Lu3 3.419691 1_655
Li0 Lu4 3.419692 1_545
Li0 Lu5 3.419692 1_655
Li0 Lu5 3.419692 1_555
Li0 Lu4 3.419692 1_555
Li1 Lu3 3.342054 1_556
Li1 Lu3 3.342054 1_555
Li1 Lu5 3.342061 1_555
Li1 Lu5 3.342061 1_556
Li1 Lu4 3.342061 1_556
Li1 Lu4 3.342061 1_555
Li1 Lu0 3.419691 1_455
Li1 Lu0 3.419691 1_565
Li1 Lu2 3.419692 1_455
Li1 Lu1 3.419692 1_565
Li1 Lu1 3.419692 1_555
Li1 Lu2 3.419692 1_555
Lu0 Lu4 3.358800 1_545
Lu0 Lu4 3.358800 1_546
Lu0 Lu5 3.358800 1_656
Lu0 Lu5 3.358800 1_655
Lu0 Lu1 3.395061 1_555
Lu0 Lu2 3.395061 1_555
Lu0 Lu1 3.444263 1_655
Lu0 Lu2 3.444263 1_545
Lu1 Lu5 3.358793 1_555
Lu1 Lu5 3.358793 1_556
Lu1 Lu3 3.358800 1_545
Lu1 Lu3 3.358800 1_546
Lu1 Lu2 3.395061 1_555
Lu1 Lu2 3.444263 1_445
Lu2 Lu4 3.358793 1_556
Lu2 Lu4 3.358793 1_555
Lu2 Lu3 3.358800 1_656
Lu2 Lu3 3.358800 1_655
Lu3 Lu5 3.395061 1_555
Lu3 Lu4 3.395061 1_555
Lu3 Lu4 3.444263 1_455
Lu3 Lu5 3.444263 1_565
Lu4 Lu5 3.395061 1_555
Lu4 Lu5 3.444263 1_665
