# generated using pymatgen
data_BaTb2PdO5
_symmetry_space_group_name_H-M   'P 1'
_cell_length_a   6.61164600
_cell_length_b   6.61164600
_cell_length_c   5.93166600
_cell_angle_alpha   90.00000000
_cell_angle_beta   90.00000000
_cell_angle_gamma   90.00000000
_symmetry_Int_Tables_number   1
_chemical_formula_structural   BaTb2PdO5
_chemical_formula_sum   'Ba2 Tb4 Pd2 O10'
_cell_volume   259.29603387
_cell_formula_units_Z   2
loop_
 _symmetry_equiv_pos_site_id
 _symmetry_equiv_pos_as_xyz
  1  'x, y, z'
loop_
 _atom_site_type_symbol
 _atom_site_label
 _atom_site_symmetry_multiplicity
 _atom_site_fract_x
 _atom_site_fract_y
 _atom_site_fract_z
 _atom_site_occupancy
  Ba  Ba0  1  0.50000000  0.50000000  0.00000000  1
  Ba  Ba1  1  0.00000000  0.00000000  0.00000000  1
  Tb  Tb0  1  0.67403800  0.17403800  0.50000000  1
  Tb  Tb1  1  0.17403800  0.32596200  0.50000000  1
  Tb  Tb2  1  0.82596200  0.67403800  0.50000000  1
  Tb  Tb3  1  0.32596200  0.82596200  0.50000000  1
  Pd  Pd0  1  0.00000000  0.50000000  0.00000000  1
  Pd  Pd1  1  0.50000000  0.00000000  0.00000000  1
  O  O0  1  0.50000000  0.50000000  0.50000000  1
  O  O1  1  0.00000000  0.00000000  0.50000000  1
  O  O2  1  0.14052000  0.64052000  0.25918400  1
  O  O3  1  0.85948000  0.35948000  0.25918400  1
  O  O4  1  0.35948000  0.14052000  0.25918400  1
  O  O5  1  0.64052000  0.85948000  0.25918400  1
  O  O6  1  0.14052000  0.64052000  0.74081600  1
  O  O7  1  0.64052000  0.85948000  0.74081600  1
  O  O8  1  0.85948000  0.35948000  0.74081600  1
  O  O9  1  0.35948000  0.14052000  0.74081600  1
loop_
_geom_bond_atom_site_label_1
_geom_bond_atom_site_label_2
_geom_bond_distance
_geom_bond_site_symmetry_2
Ba0 O0 2.965833 1_554
Ba0 O0 2.965833 1_555
Ba0 O3 2.979213 1_555
Ba0 O4 2.979213 1_555
Ba0 O5 2.979213 1_555
Ba0 O2 2.979213 1_555
Ba0 O8 2.979213 1_554
Ba0 O9 2.979213 1_554
Ba0 O6 2.979213 1_554
Ba0 O7 2.979213 1_554
Ba1 O1 2.965833 1_554
Ba1 O1 2.965833 1_555
Ba1 O5 2.979213 1_445
Ba1 O2 2.979213 1_545
Ba1 O4 2.979213 1_555
Ba1 O3 2.979213 1_455
Ba1 O7 2.979213 1_444
Ba1 O6 2.979213 1_544
Ba1 O9 2.979213 1_554
Ba1 O8 2.979213 1_454
O0 Tb2 2.443094 1_555
O0 Tb0 2.443094 1_555
O0 Tb3 2.443094 1_555
O0 Tb1 2.443094 1_555
O1 Tb1 2.443094 1_555
O1 Tb3 2.443094 1_545
O1 Tb2 2.443094 1_445
O1 Tb0 2.443094 1_455
O2 Pd0 2.022353 1_555
O2 Tb3 2.246546 1_555
O2 Tb2 2.532764 1_455
O2 Tb1 2.532764 1_555
O3 Pd0 2.022353 1_655
O3 Tb0 2.246546 1_555
O3 Tb2 2.532764 1_555
O3 Tb1 2.532764 1_655
O4 Pd1 2.022353 1_555
O4 Tb1 2.246546 1_555
O4 Tb0 2.532764 1_555
O4 Tb3 2.532764 1_545
O5 Pd1 2.022353 1_565
O5 Tb2 2.246546 1_555
O5 Tb0 2.532764 1_565
O5 Tb3 2.532764 1_555
O6 Pd0 2.022353 1_556
O6 Tb3 2.246546 1_555
O6 Tb2 2.532764 1_455
O6 Tb1 2.532764 1_555
O7 Pd1 2.022353 1_566
O7 Tb2 2.246546 1_555
O7 Tb0 2.532764 1_565
O7 Tb3 2.532764 1_555
O8 Pd0 2.022353 1_656
O8 Tb0 2.246546 1_555
O8 Tb2 2.532764 1_555
O8 Tb1 2.532764 1_655
O9 Pd1 2.022353 1_556
O9 Tb1 2.246546 1_555
O9 Tb0 2.532764 1_555
O9 Tb3 2.532764 1_545
