# generated using pymatgen
data_Th(FeP3)4
_symmetry_space_group_name_H-M   'P 1'
_cell_length_a   6.73149237
_cell_length_b   6.73149087
_cell_length_c   6.73149244
_cell_angle_alpha   109.47121618
_cell_angle_beta   109.47121161
_cell_angle_gamma   109.47122107
_symmetry_Int_Tables_number   1
_chemical_formula_structural   Th(FeP3)4
_chemical_formula_sum   'Th1 Fe4 P12'
_cell_volume   234.80760597
_cell_formula_units_Z   1
loop_
 _symmetry_equiv_pos_site_id
 _symmetry_equiv_pos_as_xyz
  1  'x, y, z'
loop_
 _atom_site_type_symbol
 _atom_site_label
 _atom_site_symmetry_multiplicity
 _atom_site_fract_x
 _atom_site_fract_y
 _atom_site_fract_z
 _atom_site_occupancy
  Th  Th0  1  0.00000000  -0.00000000  0.00000000  1
  Fe  Fe0  1  0.50000000  -0.00000000  0.00000000  1
  Fe  Fe1  1  0.00000000  -0.00000000  0.50000000  1
  Fe  Fe2  1  0.00000000  0.50000000  0.00000000  1
  Fe  Fe3  1  0.50000000  0.50000000  0.50000000  1
  P  P0  1  0.49658110  0.84845208  0.64812802  1
  P  P1  1  0.20032506  0.84845208  0.35187198  1
  P  P2  1  0.79967494  0.15154792  0.64812802  1
  P  P3  1  0.15154792  0.35187198  0.50341890  1
  P  P4  1  0.35187198  0.50341890  0.15154792  1
  P  P5  1  0.50341890  0.15154792  0.35187198  1
  P  P6  1  0.15154792  0.64812802  0.79967494  1
  P  P7  1  0.35187198  0.20032506  0.84845208  1
  P  P8  1  0.84845208  0.64812802  0.49658110  1
  P  P9  1  0.64812802  0.79967494  0.15154792  1
  P  P10  1  0.84845208  0.35187198  0.20032506  1
  P  P11  1  0.64812802  0.49658110  0.84845208  1
loop_
_geom_bond_atom_site_label_1
_geom_bond_atom_site_label_2
_geom_bond_distance
_geom_bond_site_symmetry_2
Fe0 P6 2.233539 1_544
Fe0 P10 2.233539 1_555
Fe0 P0 2.233543 1_544
Fe0 P5 2.233543 1_555
Fe0 P7 2.233546 1_554
Fe0 P9 2.233546 1_545
Fe1 P9 2.233540 1_445
Fe1 P7 2.233540 1_555
Fe1 P3 2.233543 1_555
Fe1 P8 2.233543 1_445
Fe1 P1 2.233546 1_545
Fe1 P2 2.233546 1_455
Fe2 P2 2.233540 1_454
Fe2 P1 2.233540 1_555
Fe2 P4 2.233544 1_555
Fe2 P11 2.233544 1_454
Fe2 P6 2.233546 1_554
Fe2 P10 2.233546 1_455
Fe3 P5 2.233536 1_555
Fe3 P0 2.233536 1_555
Fe3 P3 2.233537 1_555
Fe3 P8 2.233537 1_555
Fe3 P4 2.233537 1_555
Fe3 P11 2.233537 1_555
P0 P1 2.302756 1_555
P0 P2 2.355913 1_565
P0 Th0 2.977930 1_666
P1 P5 2.355913 1_565
P1 Th0 2.977937 1_565
P2 P5 2.302756 1_555
P2 Th0 2.977937 1_656
P3 P6 2.302756 1_555
P3 Th0 2.977930 1_555
P4 P9 2.302756 1_555
P4 P7 2.355913 1_554
P4 Th0 2.977929 1_555
P5 Th0 2.977930 1_555
P6 P8 2.355913 1_455
P6 Th0 2.977936 1_566
P7 Th0 2.977936 1_556
P8 Th0 2.977930 1_666
P9 Th0 2.977936 1_665
P10 P8 2.302756 1_555
P10 P3 2.355913 1_655
P10 Th0 2.977936 1_655
P11 P7 2.302756 1_555
P11 P9 2.355913 1_556
P11 Th0 2.977929 1_666
