# generated using pymatgen
data_SmCuSeO
_symmetry_space_group_name_H-M   'P 1'
_cell_length_a   3.97024700
_cell_length_b   3.97024700
_cell_length_c   8.78653300
_cell_angle_alpha   90.00000000
_cell_angle_beta   90.00000000
_cell_angle_gamma   90.00000000
_symmetry_Int_Tables_number   1
_chemical_formula_structural   SmCuSeO
_chemical_formula_sum   'Sm2 Cu2 Se2 O2'
_cell_volume   138.50090047
_cell_formula_units_Z   2
loop_
 _symmetry_equiv_pos_site_id
 _symmetry_equiv_pos_as_xyz
  1  'x, y, z'
loop_
 _atom_site_type_symbol
 _atom_site_label
 _atom_site_symmetry_multiplicity
 _atom_site_fract_x
 _atom_site_fract_y
 _atom_site_fract_z
 _atom_site_occupancy
  Sm  Sm0  1  0.00000000  0.50000000  0.63392800  1
  Sm  Sm1  1  0.50000000  0.00000000  0.36607200  1
  Cu  Cu0  1  0.50000000  0.50000000  0.00000000  1
  Cu  Cu1  1  0.00000000  0.00000000  0.00000000  1
  Se  Se0  1  0.00000000  0.50000000  0.17714400  1
  Se  Se1  1  0.50000000  0.00000000  0.82285600  1
  O  O0  1  0.00000000  0.00000000  0.50000000  1
  O  O1  1  0.50000000  0.50000000  0.50000000  1
loop_
_geom_bond_atom_site_label_1
_geom_bond_atom_site_label_2
_geom_bond_distance
_geom_bond_site_symmetry_2
Cu0 Se0 2.522568 1_555
Cu0 Se1 2.522568 1_554
Cu0 Se1 2.522568 1_564
Cu0 Se0 2.522568 1_655
Cu1 Se1 2.522568 1_454
Cu1 Se0 2.522568 1_545
Cu1 Se1 2.522568 1_554
Cu1 Se0 2.522568 1_555
Se0 Sm1 3.261457 1_565
Se0 Sm1 3.261457 1_465
Se0 Sm1 3.261457 1_555
Se0 Sm1 3.261457 1_455
Se1 Sm0 3.261457 1_655
Se1 Sm0 3.261457 1_645
Se1 Sm0 3.261457 1_555
Se1 Sm0 3.261457 1_545
O0 Sm1 2.307701 1_555
O0 Sm1 2.307701 1_455
O0 Sm0 2.307701 1_545
O0 Sm0 2.307701 1_555
O1 Sm0 2.307701 1_655
O1 Sm1 2.307701 1_565
O1 Sm1 2.307701 1_555
O1 Sm0 2.307701 1_555
