# generated using pymatgen
data_Al2Cu
_symmetry_space_group_name_H-M   'P 1'
_cell_length_a   4.78547458
_cell_length_b   4.86949270
_cell_length_c   4.86949425
_cell_angle_alpha   76.02802962
_cell_angle_beta   60.56914009
_cell_angle_gamma   60.56914686
_symmetry_Int_Tables_number   1
_chemical_formula_structural   Al2Cu
_chemical_formula_sum   'Al4 Cu2'
_cell_volume   86.07526115
_cell_formula_units_Z   2
loop_
 _symmetry_equiv_pos_site_id
 _symmetry_equiv_pos_as_xyz
  1  'x, y, z'
loop_
 _atom_site_type_symbol
 _atom_site_label
 _atom_site_symmetry_multiplicity
 _atom_site_fract_x
 _atom_site_fract_y
 _atom_site_fract_z
 _atom_site_occupancy
  Al  Al0  1  0.15860591  0.50000000  0.18278617  1
  Al  Al1  1  0.34139409  0.81721383  0.50000000  1
  Al  Al2  1  0.65860591  0.18278617  0.50000000  1
  Al  Al3  1  0.84139409  0.50000000  0.81721383  1
  Cu  Cu0  1  0.25000000  0.00000000  0.00000000  1
  Cu  Cu1  1  0.75000000  0.00000000  0.00000000  1
loop_
_geom_bond_atom_site_label_1
_geom_bond_atom_site_label_2
_geom_bond_distance
_geom_bond_site_symmetry_2
Al0 Cu0 2.555177 1_555
Al0 Cu1 2.555178 1_465
Al0 Cu0 2.555182 1_565
Al0 Cu1 2.555182 1_555
Al0 Al3 2.690660 1_455
Al0 Al3 2.851132 1_454
Al0 Al3 2.851148 1_554
Al0 Al1 3.056955 1_455
Al0 Al2 3.056962 1_455
Al0 Al2 3.056962 1_555
Al0 Al1 3.056969 1_555
Al1 Cu0 2.555178 1_566
Al1 Cu1 2.555178 1_565
Al1 Cu1 2.555182 1_466
Al1 Cu0 2.555183 1_565
Al1 Al2 2.690659 1_555
Al1 Al2 2.851132 1_565
Al1 Al2 2.851149 1_465
Al1 Al3 3.056962 1_455
Al1 Al3 3.056962 1_555
Al2 Cu1 2.555178 1_555
Al2 Cu0 2.555178 1_556
Al2 Cu0 2.555182 1_655
Al2 Cu1 2.555183 1_556
Al2 Al3 3.056955 1_455
Al2 Al3 3.056969 1_555
Al3 Cu1 2.555177 1_566
Al3 Cu0 2.555178 1_656
Al3 Cu1 2.555182 1_556
Al3 Cu0 2.555182 1_566
Cu0 Cu1 2.392737 1_555
Cu0 Cu1 2.392737 1_455
