# generated using pymatgen
data_CaTcO3
_symmetry_space_group_name_H-M   'P 1'
_cell_length_a   3.92718292
_cell_length_b   3.93870900
_cell_length_c   3.94851933
_cell_angle_alpha   89.75916015
_cell_angle_beta   89.87527471
_cell_angle_gamma   89.96474488
_symmetry_Int_Tables_number   1
_chemical_formula_structural   CaTcO3
_chemical_formula_sum   'Ca1 Tc1 O3'
_cell_volume   61.07512273
_cell_formula_units_Z   1
loop_
 _symmetry_equiv_pos_site_id
 _symmetry_equiv_pos_as_xyz
  1  'x, y, z'
loop_
 _atom_site_type_symbol
 _atom_site_label
 _atom_site_symmetry_multiplicity
 _atom_site_fract_x
 _atom_site_fract_y
 _atom_site_fract_z
 _atom_site_occupancy
  Ca  Ca0  1  0.00284700  0.00165300  0.00491800  1
  Tc  Tc0  1  0.49972200  0.51320100  0.50178800  1
  O  O0  1  0.99953900  0.51658700  0.50295600  1
  O  O1  1  0.49765100  0.01371300  0.49873300  1
  O  O2  1  0.50023900  0.51484400  0.00160400  1
loop_
_geom_bond_atom_site_label_1
_geom_bond_atom_site_label_2
_geom_bond_distance
_geom_bond_site_symmetry_2
Ca0 O0 2.736022 1_445
Ca0 O2 2.736358 1_545
Ca0 O2 2.752742 1_445
Ca0 O1 2.756353 1_555
Ca0 O0 2.758738 1_444
Ca0 O1 2.779243 1_455
Ca0 O1 2.784845 1_554
Ca0 O2 2.811755 1_555
Ca0 O1 2.819500 1_454
Ca0 O2 2.824334 1_455
Ca0 O0 2.829894 1_454
Ca0 O0 2.830940 1_455
O0 Tc0 1.962942 1_555
O0 Tc0 1.964343 1_655
O1 Tc0 1.967447 1_555
O1 Tc0 1.971369 1_545
O2 Tc0 1.973576 1_554
O2 Tc0 1.974966 1_555
