# generated using pymatgen
data_GdN
_symmetry_space_group_name_H-M   'P 1'
_cell_length_a   3.51920521
_cell_length_b   3.51920473
_cell_length_c   3.51920439
_cell_angle_alpha   59.99999349
_cell_angle_beta   59.99999784
_cell_angle_gamma   59.99999416
_symmetry_Int_Tables_number   1
_chemical_formula_structural   GdN
_chemical_formula_sum   'Gd1 N1'
_cell_volume   30.81900193
_cell_formula_units_Z   1
loop_
 _symmetry_equiv_pos_site_id
 _symmetry_equiv_pos_as_xyz
  1  'x, y, z'
loop_
 _atom_site_type_symbol
 _atom_site_label
 _atom_site_symmetry_multiplicity
 _atom_site_fract_x
 _atom_site_fract_y
 _atom_site_fract_z
 _atom_site_occupancy
  Gd  Gd0  1  0.00000000  -0.00000000  0.00000000  1
  N  N0  1  0.50000000  0.50000000  0.50000000  1
loop_
_geom_bond_atom_site_label_1
_geom_bond_atom_site_label_2
_geom_bond_distance
_geom_bond_site_symmetry_2
Gd0 N0 2.488453 1_455
Gd0 N0 2.488453 1_544
Gd0 N0 2.488453 1_454
Gd0 N0 2.488453 1_545
Gd0 N0 2.488454 1_554
Gd0 N0 2.488454 1_445
