# generated using pymatgen
data_KSbSe2
_symmetry_space_group_name_H-M   'P 1'
_cell_length_a   6.57986188
_cell_length_b   6.54977150
_cell_length_c   12.45573879
_cell_angle_alpha   89.96549420
_cell_angle_beta   97.34547301
_cell_angle_gamma   89.92112224
_symmetry_Int_Tables_number   1
_chemical_formula_structural   KSbSe2
_chemical_formula_sum   'K4 Sb4 Se8'
_cell_volume   532.39385827
_cell_formula_units_Z   4
loop_
 _symmetry_equiv_pos_site_id
 _symmetry_equiv_pos_as_xyz
  1  'x, y, z'
loop_
 _atom_site_type_symbol
 _atom_site_label
 _atom_site_symmetry_multiplicity
 _atom_site_fract_x
 _atom_site_fract_y
 _atom_site_fract_z
 _atom_site_occupancy
  K  K0  1  0.51696127  0.73781771  0.88080757  1
  K  K1  1  0.48303873  0.26218229  0.11919243  1
  K  K2  1  0.98367476  0.73743148  0.61946244  1
  K  K3  1  0.01632524  0.26256852  0.38053756  1
  Sb  Sb0  1  0.03733388  0.79571282  0.12119584  1
  Sb  Sb1  1  0.96266612  0.20428718  0.87880416  1
  Sb  Sb2  1  0.46308368  0.79527065  0.37915100  1
  Sb  Sb3  1  0.53691632  0.20472935  0.62084900  1
  Se  Se0  1  0.51656990  0.18558520  0.38446004  1
  Se  Se1  1  0.48343010  0.81441480  0.61553996  1
  Se  Se2  1  0.98260466  0.18602253  0.11531716  1
  Se  Se3  1  0.01739534  0.81397747  0.88468284  1
  Se  Se4  1  0.93178840  0.23024954  0.64474581  1
  Se  Se5  1  0.06821160  0.76975046  0.35525419  1
  Se  Se6  1  0.56779112  0.23067466  0.85497141  1
  Se  Se7  1  0.43220888  0.76932534  0.14502859  1
loop_
_geom_bond_atom_site_label_1
_geom_bond_atom_site_label_2
_geom_bond_distance
_geom_bond_site_symmetry_2
K0 Se6 3.265776 1_565
K0 Se1 3.320960 1_555
K0 Se3 3.325284 1_655
K0 Se3 3.330481 1_555
K0 Se6 3.357777 1_555
K0 Se7 3.413868 1_556
K1 Se7 3.265776 1_545
K1 Se0 3.320960 1_555
K1 Se2 3.325284 1_455
K1 Se2 3.330481 1_555
K1 Se7 3.357777 1_555
K1 Se6 3.413868 1_554
K2 Se4 3.265027 1_565
K2 Se3 3.320946 1_655
K2 Se1 3.323424 1_555
K2 Se1 3.333962 1_655
K2 Se4 3.358613 1_555
K2 Se5 3.413481 1_655
K3 Se5 3.265027 1_545
K3 Se2 3.320946 1_455
K3 Se0 3.323424 1_555
K3 Se0 3.333962 1_455
K3 Se5 3.358613 1_555
K3 Se4 3.413481 1_455
Sb0 Se2 2.580876 1_465
Sb0 Se7 2.582680 1_555
Sb0 Se5 2.901280 1_555
Sb0 Se3 2.934419 1_554
Sb1 Se3 2.580876 1_645
Sb1 Se6 2.582680 1_555
Sb1 Se4 2.901280 1_555
Sb1 Se2 2.934419 1_556
Sb2 Se0 2.580795 1_565
Sb2 Se5 2.582771 1_555
Sb2 Se7 2.902308 1_555
Sb2 Se1 2.933058 1_555
Sb3 Se1 2.580795 1_545
Sb3 Se4 2.582771 1_555
Sb3 Se6 2.902308 1_555
Sb3 Se0 2.933058 1_555
