# generated using pymatgen
data_TcPt3
_symmetry_space_group_name_H-M   'P 1'
_cell_length_a   4.82339042
_cell_length_b   4.82339042
_cell_length_c   4.82339042
_cell_angle_alpha   132.59904530
_cell_angle_beta   132.59904530
_cell_angle_gamma   69.28452966
_symmetry_Int_Tables_number   1
_chemical_formula_structural   TcPt3
_chemical_formula_sum   'Tc1 Pt3'
_cell_volume   59.66554330
_cell_formula_units_Z   1
loop_
 _symmetry_equiv_pos_site_id
 _symmetry_equiv_pos_as_xyz
  1  'x, y, z'
loop_
 _atom_site_type_symbol
 _atom_site_label
 _atom_site_symmetry_multiplicity
 _atom_site_fract_x
 _atom_site_fract_y
 _atom_site_fract_z
 _atom_site_occupancy
  Tc  Tc0  1  -0.00000000  -0.00000000  -0.00000000  1
  Pt  Pt0  1  0.75000100  0.25000000  0.50000100  1
  Pt  Pt1  1  0.25000000  0.75000100  0.50000100  1
  Pt  Pt2  1  0.49999900  0.49999900  -0.00000000  1
loop_
_geom_bond_atom_site_label_1
_geom_bond_atom_site_label_2
_geom_bond_distance
_geom_bond_site_symmetry_2
Pt0 Pt1 2.741855 1_645
Pt0 Pt1 2.741860 1_544
Pt0 Pt1 2.741860 1_656
Pt0 Pt1 2.741866 1_555
Pt0 Pt2 2.774108 1_656
Pt0 Pt2 2.774114 1_555
Pt0 Tc0 2.774114 1_656
Pt0 Tc0 2.774117 1_655
Pt0 Tc0 2.774117 1_666
Pt0 Tc0 2.774119 1_555
Pt0 Pt2 2.774122 1_556
Pt0 Pt2 2.774122 1_545
Pt1 Pt2 2.774108 1_566
Pt1 Pt2 2.774114 1_555
Pt1 Tc0 2.774114 1_566
Pt1 Tc0 2.774117 1_565
Pt1 Tc0 2.774117 1_666
Pt1 Tc0 2.774119 1_555
Pt1 Pt2 2.774122 1_556
Pt1 Pt2 2.774122 1_455
Pt2 Tc0 2.741860 1_655
Pt2 Tc0 2.741860 1_565
Pt2 Tc0 2.741860 1_666
Pt2 Tc0 2.741860 1_554
