# generated using pymatgen
data_Tb3Er
_symmetry_space_group_name_H-M   'P 1'
_cell_length_a   6.15853126
_cell_length_b   6.15853126
_cell_length_c   6.15853126
_cell_angle_alpha   131.95820854
_cell_angle_beta   131.95820854
_cell_angle_gamma   70.29503996
_symmetry_Int_Tables_number   1
_chemical_formula_structural   Tb3Er
_chemical_formula_sum   'Tb3 Er1'
_cell_volume   126.59267918
_cell_formula_units_Z   1
loop_
 _symmetry_equiv_pos_site_id
 _symmetry_equiv_pos_as_xyz
  1  'x, y, z'
loop_
 _atom_site_type_symbol
 _atom_site_label
 _atom_site_symmetry_multiplicity
 _atom_site_fract_x
 _atom_site_fract_y
 _atom_site_fract_z
 _atom_site_occupancy
  Tb  Tb0  1  0.75000000  0.25000000  0.50000000  1
  Tb  Tb1  1  0.25000000  0.75000000  0.50000000  1
  Tb  Tb2  1  0.50000000  0.50000000  -0.00000000  1
  Er  Er0  1  -0.00000000  0.00000000  -0.00000000  1
loop_
_geom_bond_atom_site_label_1
_geom_bond_atom_site_label_2
_geom_bond_distance
_geom_bond_site_symmetry_2
Tb0 Tb1 3.545366 1_555
Tb0 Tb1 3.545366 1_656
Tb0 Tb1 3.545366 1_544
Tb0 Tb1 3.545366 1_645
Tb0 Tb2 3.553066 1_555
Tb0 Tb2 3.553066 1_556
Tb0 Tb2 3.553066 1_656
Tb0 Tb2 3.553066 1_545
Tb1 Tb2 3.553066 1_555
Tb1 Tb2 3.553066 1_556
Tb1 Tb2 3.553066 1_455
Tb1 Tb2 3.553066 1_566
Er0 Tb2 3.545366 1_545
Er0 Tb2 3.545366 1_455
Er0 Tb2 3.545366 1_556
Er0 Tb2 3.545366 1_444
Er0 Tb0 3.553066 1_444
Er0 Tb1 3.553066 1_544
Er0 Tb1 3.553066 1_545
Er0 Tb0 3.553066 1_555
Er0 Tb0 3.553066 1_454
Er0 Tb0 3.553066 1_455
Er0 Tb1 3.553066 1_444
Er0 Tb1 3.553066 1_555
