# generated using pymatgen
data_Y3Tm
_symmetry_space_group_name_H-M   'P 1'
_cell_length_a   7.22741036
_cell_length_b   7.22726216
_cell_length_c   5.82231740
_cell_angle_alpha   90.00000000
_cell_angle_beta   90.00000000
_cell_angle_gamma   120.00921168
_symmetry_Int_Tables_number   1
_chemical_formula_structural   Y3Tm
_chemical_formula_sum   'Y6 Tm2'
_cell_volume   263.35569317
_cell_formula_units_Z   2
loop_
 _symmetry_equiv_pos_site_id
 _symmetry_equiv_pos_as_xyz
  1  'x, y, z'
loop_
 _atom_site_type_symbol
 _atom_site_label
 _atom_site_symmetry_multiplicity
 _atom_site_fract_x
 _atom_site_fract_y
 _atom_site_fract_z
 _atom_site_occupancy
  Y  Y0  1  0.16793254  0.33567664  0.25000000  1
  Y  Y1  1  0.66424794  0.83217131  0.25000000  1
  Y  Y2  1  0.16804600  0.83221397  0.25000000  1
  Y  Y3  1  0.83200905  0.66427227  0.75000000  1
  Y  Y4  1  0.33580653  0.16787055  0.75000000  1
  Y  Y5  1  0.83192916  0.16779273  0.75000000  1
  Tm  Tm0  1  0.33344941  0.66689689  0.75000000  1
  Tm  Tm1  1  0.66658036  0.33310664  0.25000000  1
loop_
_geom_bond_atom_site_label_1
_geom_bond_atom_site_label_2
_geom_bond_distance
_geom_bond_site_symmetry_2
Y0 Y1 3.587187 1_555
Y0 Y2 3.588195 1_555
Y0 Y4 3.590213 1_555
Y0 Y4 3.590213 1_554
Y0 Y5 3.591239 1_455
Y0 Y5 3.591239 1_454
Y0 Y2 3.639067 1_545
Y0 Y1 3.639144 1_445
Y1 Y2 3.586409 1_555
Y1 Y5 3.589814 1_565
Y1 Y5 3.589814 1_564
Y1 Y3 3.590140 1_554
Y1 Y3 3.590140 1_555
Y1 Y2 3.641001 1_655
Y2 Y4 3.589943 1_565
Y2 Y4 3.589943 1_564
Y2 Y3 3.591362 1_455
Y2 Y3 3.591362 1_454
Y3 Y4 3.586443 1_555
Y3 Y5 3.587899 1_555
Y3 Y5 3.639363 1_565
Y3 Y4 3.639887 1_665
Y4 Y5 3.585963 1_555
Y4 Y5 3.641447 1_455
Tm0 Y2 3.572133 1_556
Tm0 Y2 3.572133 1_555
Tm0 Y1 3.572262 1_556
Tm0 Y1 3.572262 1_555
Tm0 Y0 3.573767 1_556
Tm0 Y0 3.573767 1_555
Tm0 Y5 3.610940 1_565
Tm0 Y4 3.612178 1_565
Tm0 Y3 3.612819 1_555
Tm0 Y3 3.614666 1_455
Tm0 Y4 3.615145 1_555
Tm0 Y5 3.615453 1_455
Tm1 Y5 3.571924 1_555
Tm1 Y5 3.571924 1_554
Tm1 Y4 3.572172 1_554
Tm1 Y4 3.572172 1_555
Tm1 Y3 3.573569 1_554
Tm1 Y3 3.573569 1_555
Tm1 Y2 3.611125 1_545
Tm1 Y1 3.611989 1_545
Tm1 Y0 3.613258 1_555
Tm1 Y0 3.614224 1_655
Tm1 Y2 3.615266 1_655
Tm1 Y1 3.615332 1_555
