# generated using pymatgen
data_Ni9S8
_symmetry_space_group_name_H-M   'P 1'
_cell_length_a   7.20107620
_cell_length_b   7.20107620
_cell_length_c   9.31389900
_cell_angle_alpha   90.00000000
_cell_angle_beta   90.00000000
_cell_angle_gamma   79.43211976
_symmetry_Int_Tables_number   1
_chemical_formula_structural   Ni9S8
_chemical_formula_sum   'Ni18 S16'
_cell_volume   474.78477469
_cell_formula_units_Z   2
loop_
 _symmetry_equiv_pos_site_id
 _symmetry_equiv_pos_as_xyz
  1  'x, y, z'
loop_
 _atom_site_type_symbol
 _atom_site_label
 _atom_site_symmetry_multiplicity
 _atom_site_fract_x
 _atom_site_fract_y
 _atom_site_fract_z
 _atom_site_occupancy
  Ni  Ni0  1  0.71375141  0.46154005  0.37325785  1
  Ni  Ni1  1  0.28624859  0.53845995  0.37325785  1
  Ni  Ni2  1  0.53845995  0.28624859  0.62674215  1
  Ni  Ni3  1  0.46154005  0.71375141  0.62674215  1
  Ni  Ni4  1  0.50000100  0.50000100  0.00000000  1
  Ni  Ni5  1  -0.00000000  -0.00000000  0.21439831  1
  Ni  Ni6  1  -0.00000000  -0.00000000  0.78560169  1
  Ni  Ni7  1  0.22207887  0.77792313  0.00000000  1
  Ni  Ni8  1  0.77792313  0.22207887  0.00000000  1
  Ni  Ni9  1  -0.00000000  -0.00000000  0.50000100  1
  Ni  Ni10  1  0.05680171  0.30909105  0.12166744  1
  Ni  Ni11  1  0.94319729  0.69090895  0.12166744  1
  Ni  Ni12  1  0.69090895  0.94319729  0.87833256  1
  Ni  Ni13  1  0.30909105  0.05680171  0.87833256  1
  Ni  Ni14  1  0.50000000  0.00000100  0.26957728  1
  Ni  Ni15  1  0.00000100  0.50000000  0.73042372  1
  Ni  Ni16  1  0.23650909  0.23650909  0.50000100  1
  Ni  Ni17  1  0.76349091  0.76349091  0.50000100  1
  S  S0  1  0.73000107  0.96714834  0.11941889  1
  S  S1  1  0.26999893  0.03285166  0.11941889  1
  S  S2  1  0.03285166  0.26999893  0.88058211  1
  S  S3  1  0.96714834  0.73000107  0.88058211  1
  S  S4  1  0.98298426  0.24761292  0.36045016  1
  S  S5  1  0.01701674  0.75238708  0.36045016  1
  S  S6  1  0.75238708  0.01701674  0.63954884  1
  S  S7  1  0.24761292  0.98298426  0.63954884  1
  S  S8  1  0.74874783  0.48415357  0.13424173  1
  S  S9  1  0.25125217  0.51584543  0.13424173  1
  S  S10  1  0.51584543  0.25125217  0.86575827  1
  S  S11  1  0.48415357  0.74874783  0.86575827  1
  S  S12  1  0.49838185  0.25929443  0.38630911  1
  S  S13  1  0.50161715  0.74070457  0.38630911  1
  S  S14  1  0.74070457  0.50161715  0.61369089  1
  S  S15  1  0.25929443  0.49838185  0.61369089  1
loop_
_geom_bond_atom_site_label_1
_geom_bond_atom_site_label_2
_geom_bond_distance
_geom_bond_site_symmetry_2
Ni0 S4 2.247373 1_555
Ni0 S8 2.249649 1_555
Ni0 S14 2.270744 1_555
Ni0 S13 2.294158 1_555
Ni0 S12 2.317239 1_555
Ni1 S5 2.247368 1_555
Ni1 S9 2.249650 1_555
Ni1 S15 2.270746 1_555
Ni1 S12 2.294160 1_555
Ni1 S13 2.317228 1_555
Ni2 S6 2.247367 1_555
Ni2 S10 2.249650 1_555
Ni2 S12 2.270746 1_555
Ni2 S15 2.294160 1_555
Ni2 S14 2.317228 1_555
Ni3 S7 2.247373 1_555
Ni3 S11 2.249649 1_555
Ni3 S13 2.270744 1_555
Ni3 S14 2.294158 1_555
Ni3 S15 2.317239 1_555
Ni4 S11 2.170227 1_554
Ni4 S8 2.170227 1_555
Ni4 S9 2.170241 1_555
Ni4 S10 2.170241 1_554
Ni5 S0 2.188031 1_445
Ni5 S1 2.188031 1_555
Ni5 S5 2.228159 1_545
Ni5 S4 2.228160 1_455
Ni6 S3 2.188035 1_445
Ni6 S2 2.188035 1_555
Ni6 S6 2.228165 1_455
Ni6 S7 2.228165 1_545
Ni7 S1 2.226783 1_565
Ni7 S3 2.226795 1_454
Ni7 S11 2.241337 1_554
Ni7 S9 2.241355 1_555
Ni8 S2 2.226779 1_654
Ni8 S0 2.226800 1_545
Ni8 S8 2.241337 1_555
Ni8 S10 2.241355 1_554
Ni9 S6 2.191701 1_455
Ni9 S7 2.191702 1_545
Ni9 S5 2.191718 1_545
Ni9 S4 2.191718 1_455
Ni10 S9 2.226164 1_555
Ni10 S2 2.273504 1_554
Ni10 S1 2.279087 1_555
Ni10 S8 2.344805 1_455
Ni10 S4 2.347560 1_455
Ni11 S8 2.226164 1_555
Ni11 S3 2.273504 1_554
Ni11 S0 2.279083 1_555
Ni11 S9 2.344813 1_655
Ni11 S5 2.347564 1_655
Ni12 S11 2.226164 1_555
Ni12 S0 2.273514 1_556
Ni12 S3 2.279084 1_555
Ni12 S10 2.344813 1_565
Ni12 S6 2.347573 1_565
Ni13 S10 2.226164 1_555
Ni13 S1 2.273513 1_556
Ni13 S2 2.279087 1_555
Ni13 S11 2.344805 1_545
Ni13 S7 2.347569 1_545
Ni14 S0 2.147416 1_545
Ni14 S1 2.147417 1_555
Ni14 S12 2.158848 1_555
Ni14 S13 2.158868 1_545
Ni15 S3 2.147416 1_455
Ni15 S2 2.147417 1_555
Ni15 S15 2.158853 1_555
Ni15 S14 2.158873 1_455
Ni16 S15 2.194946 1_555
Ni16 S12 2.194955 1_555
Ni16 S7 2.230507 1_545
Ni16 S4 2.230523 1_455
Ni17 S14 2.194954 1_555
Ni17 S13 2.194963 1_555
Ni17 S6 2.230513 1_565
Ni17 S5 2.230529 1_655
