# generated using pymatgen
data_Si3B
_symmetry_space_group_name_H-M   'P 1'
_cell_length_a   5.01282543
_cell_length_b   5.01282543
_cell_length_c   4.45324400
_cell_angle_alpha   90.00000000
_cell_angle_beta   90.00000000
_cell_angle_gamma   119.99999245
_symmetry_Int_Tables_number   1
_chemical_formula_structural   Si3B
_chemical_formula_sum   'Si6 B2'
_cell_volume   96.91083091
_cell_formula_units_Z   2
loop_
 _symmetry_equiv_pos_site_id
 _symmetry_equiv_pos_as_xyz
  1  'x, y, z'
loop_
 _atom_site_type_symbol
 _atom_site_label
 _atom_site_symmetry_multiplicity
 _atom_site_fract_x
 _atom_site_fract_y
 _atom_site_fract_z
 _atom_site_occupancy
  Si  Si0  1  0.16913800  0.33827500  0.25000000  1
  Si  Si1  1  0.66172500  0.83086200  0.25000000  1
  Si  Si2  1  0.16913800  0.83086200  0.25000000  1
  Si  Si3  1  0.83086200  0.66172500  0.75000000  1
  Si  Si4  1  0.33827500  0.16913800  0.75000000  1
  Si  Si5  1  0.83086200  0.16913800  0.75000000  1
  B  B0  1  0.33333300  0.66666700  0.75000000  1
  B  B1  1  0.66666700  0.33333300  0.25000000  1
loop_
_geom_bond_atom_site_label_1
_geom_bond_atom_site_label_2
_geom_bond_distance
_geom_bond_site_symmetry_2
Si0 Si2 2.469253 1_555
Si0 Si1 2.469253 1_555
Si0 Si2 2.543573 1_545
Si0 Si1 2.543573 1_445
Si0 Si4 2.667286 1_555
Si0 Si4 2.667286 1_554
Si0 Si5 2.667291 1_455
Si0 Si5 2.667291 1_454
Si1 Si2 2.469253 1_555
Si1 Si2 2.543573 1_655
Si1 Si3 2.667286 1_554
Si1 Si3 2.667286 1_555
Si1 Si5 2.667291 1_564
Si1 Si5 2.667291 1_565
Si2 Si3 2.667291 1_455
Si2 Si3 2.667291 1_454
Si2 Si4 2.667291 1_564
Si2 Si4 2.667291 1_565
Si3 Si5 2.469253 1_555
Si3 Si4 2.469253 1_555
Si3 Si5 2.543573 1_565
Si3 Si4 2.543573 1_665
Si4 Si5 2.469253 1_555
Si4 Si5 2.543573 1_455
B0 Si3 2.506505 1_555
B0 Si4 2.506505 1_555
B0 Si4 2.506505 1_565
B0 Si3 2.506505 1_455
B0 Si5 2.506505 1_565
B0 Si5 2.506505 1_455
B0 Si2 2.643905 1_555
B0 Si2 2.643905 1_556
B0 Si0 2.643909 1_555
B0 Si0 2.643909 1_556
B0 Si1 2.643909 1_556
B0 Si1 2.643909 1_555
B1 Si0 2.506505 1_555
B1 Si1 2.506505 1_555
B1 Si1 2.506505 1_545
B1 Si0 2.506505 1_655
B1 Si2 2.506505 1_545
B1 Si2 2.506505 1_655
B1 Si5 2.643905 1_555
B1 Si5 2.643905 1_554
B1 Si3 2.643909 1_555
B1 Si4 2.643909 1_555
B1 Si3 2.643909 1_554
B1 Si4 2.643909 1_554
