# generated using pymatgen
data_YbSm3
_symmetry_space_group_name_H-M   'P 1'
_cell_length_a   7.36881030
_cell_length_b   7.36881030
_cell_length_c   5.90018000
_cell_angle_alpha   90.00000000
_cell_angle_beta   90.00000000
_cell_angle_gamma   120.00000268
_symmetry_Int_Tables_number   1
_chemical_formula_structural   YbSm3
_chemical_formula_sum   'Yb2 Sm6'
_cell_volume   277.45377207
_cell_formula_units_Z   2
loop_
 _symmetry_equiv_pos_site_id
 _symmetry_equiv_pos_as_xyz
  1  'x, y, z'
loop_
 _atom_site_type_symbol
 _atom_site_label
 _atom_site_symmetry_multiplicity
 _atom_site_fract_x
 _atom_site_fract_y
 _atom_site_fract_z
 _atom_site_occupancy
  Yb  Yb0  1  0.33333300  0.66666700  0.75000000  1
  Yb  Yb1  1  0.66666700  0.33333300  0.25000000  1
  Sm  Sm0  1  0.16469200  0.32938300  0.25000000  1
  Sm  Sm1  1  0.67061700  0.83530800  0.25000000  1
  Sm  Sm2  1  0.16469200  0.83530800  0.25000000  1
  Sm  Sm3  1  0.83530800  0.67061700  0.75000000  1
  Sm  Sm4  1  0.32938300  0.16469200  0.75000000  1
  Sm  Sm5  1  0.83530800  0.16469200  0.75000000  1
loop_
_geom_bond_atom_site_label_1
_geom_bond_atom_site_label_2
_geom_bond_distance
_geom_bond_site_symmetry_2
Sm0 Sm4 3.622339 1_555
Sm0 Sm4 3.622339 1_554
Sm0 Sm5 3.622346 1_455
Sm0 Sm5 3.622346 1_454
Sm0 Sm1 3.640745 1_445
Sm0 Sm2 3.640745 1_545
Sm0 Yb0 3.651831 1_555
Sm0 Yb0 3.651831 1_554
Sm0 Yb1 3.684491 1_555
Sm0 Yb1 3.684491 1_455
Sm0 Sm1 3.728065 1_555
Sm0 Sm2 3.728065 1_555
Sm1 Sm3 3.622339 1_554
Sm1 Sm3 3.622339 1_555
Sm1 Sm5 3.622346 1_565
Sm1 Sm5 3.622346 1_564
Sm1 Sm2 3.640745 1_655
Sm1 Yb0 3.651831 1_555
Sm1 Yb0 3.651831 1_554
Sm1 Yb1 3.684491 1_555
Sm1 Yb1 3.684491 1_565
Sm1 Sm2 3.728065 1_555
Sm2 Sm3 3.622346 1_454
Sm2 Sm4 3.622346 1_565
Sm2 Sm4 3.622346 1_564
Sm2 Sm3 3.622346 1_455
Sm2 Yb0 3.651824 1_555
Sm2 Yb0 3.651824 1_554
Sm2 Yb1 3.684491 1_455
Sm2 Yb1 3.684491 1_565
Sm3 Sm4 3.640745 1_665
Sm3 Sm5 3.640745 1_565
Sm3 Yb1 3.651831 1_556
Sm3 Yb1 3.651831 1_555
Sm3 Yb0 3.684491 1_555
Sm3 Yb0 3.684491 1_655
Sm3 Sm4 3.728065 1_555
Sm3 Sm5 3.728065 1_555
Sm4 Sm5 3.640745 1_455
Sm4 Yb1 3.651831 1_556
Sm4 Yb1 3.651831 1_555
Sm4 Yb0 3.684491 1_555
Sm4 Yb0 3.684491 1_545
Sm4 Sm5 3.728065 1_555
Sm5 Yb1 3.651824 1_556
Sm5 Yb1 3.651824 1_555
Sm5 Yb0 3.684491 1_545
Sm5 Yb0 3.684491 1_655
