# generated using pymatgen
data_HoErRu2
_symmetry_space_group_name_H-M   'P 1'
_cell_length_a   4.74564419
_cell_length_b   4.74246499
_cell_length_c   4.73961979
_cell_angle_alpha   60.02211103
_cell_angle_beta   60.05423141
_cell_angle_gamma   60.05890449
_symmetry_Int_Tables_number   1
_chemical_formula_structural   HoErRu2
_chemical_formula_sum   'Ho1 Er1 Ru2'
_cell_volume   75.50422584
_cell_formula_units_Z   1
loop_
 _symmetry_equiv_pos_site_id
 _symmetry_equiv_pos_as_xyz
  1  'x, y, z'
loop_
 _atom_site_type_symbol
 _atom_site_label
 _atom_site_symmetry_multiplicity
 _atom_site_fract_x
 _atom_site_fract_y
 _atom_site_fract_z
 _atom_site_occupancy
  Ho  Ho0  1  0.75000234  0.74999495  0.75000311  1
  Er  Er0  1  0.25000327  0.25000145  0.24999606  1
  Ru  Ru0  1  0.00002718  0.00001357  0.99999019  1
  Ru  Ru1  1  0.49996922  0.49999303  0.50001264  1
loop_
_geom_bond_atom_site_label_1
_geom_bond_atom_site_label_2
_geom_bond_distance
_geom_bond_site_symmetry_2
Ho0 Ru1 2.903332 1_555
Ho0 Ru0 2.903351 1_665
Ho0 Ru1 2.903695 1_556
Ho0 Ru0 2.903708 1_664
Ho0 Ru0 2.905465 1_655
Ho0 Ru1 2.905530 1_565
Ho0 Ru1 2.908295 1_655
Ho0 Ru0 2.908327 1_565
Er0 Ru0 2.903116 1_554
Er0 Ru1 2.903133 1_555
Er0 Ru1 2.903594 1_554
Er0 Ru0 2.903635 1_555
Er0 Ru1 2.905569 1_545
Er0 Ru0 2.905584 1_564
Er0 Ru0 2.908516 1_654
Er0 Ru1 2.908555 1_455
