# generated using pymatgen
data_U3Nb
_symmetry_space_group_name_H-M   'P 1'
_cell_length_a   5.93071761
_cell_length_b   5.93071761
_cell_length_c   5.47549000
_cell_angle_alpha   90.00000000
_cell_angle_beta   90.00000000
_cell_angle_gamma   119.99999565
_symmetry_Int_Tables_number   1
_chemical_formula_structural   U3Nb
_chemical_formula_sum   'U6 Nb2'
_cell_volume   166.78927934
_cell_formula_units_Z   2
loop_
 _symmetry_equiv_pos_site_id
 _symmetry_equiv_pos_as_xyz
  1  'x, y, z'
loop_
 _atom_site_type_symbol
 _atom_site_label
 _atom_site_symmetry_multiplicity
 _atom_site_fract_x
 _atom_site_fract_y
 _atom_site_fract_z
 _atom_site_occupancy
  U  U0  1  0.82282100  0.17717900  0.75000000  1
  U  U1  1  0.35435900  0.17717900  0.75000000  1
  U  U2  1  0.82282100  0.64564100  0.75000000  1
  U  U3  1  0.17717900  0.82282100  0.25000000  1
  U  U4  1  0.64564100  0.82282100  0.25000000  1
  U  U5  1  0.17717900  0.35435900  0.25000000  1
  Nb  Nb0  1  0.66666700  0.33333300  0.25000000  1
  Nb  Nb1  1  0.33333300  0.66666700  0.75000000  1
loop_
_geom_bond_atom_site_label_1
_geom_bond_atom_site_label_2
_geom_bond_distance
_geom_bond_site_symmetry_2
U0 U2 2.778316 1_555
U0 U1 2.778316 1_555
U0 U2 3.152402 1_545
U0 U1 3.152402 1_655
U0 U4 3.287519 1_546
U0 U4 3.287519 1_545
U0 U5 3.287519 1_655
U0 U5 3.287519 1_656
U1 U2 2.778316 1_555
U1 U2 3.152402 1_445
U1 U3 3.287519 1_546
U1 U3 3.287519 1_545
U1 U5 3.287525 1_556
U1 U5 3.287525 1_555
U2 U3 3.287519 1_656
U2 U3 3.287519 1_655
U2 U4 3.287525 1_556
U2 U4 3.287525 1_555
U3 U5 2.778316 1_555
U3 U4 2.778316 1_555
U3 U4 3.152402 1_455
U3 U5 3.152402 1_565
U4 U5 2.778316 1_555
U4 U5 3.152402 1_665
Nb0 U5 2.967319 1_655
Nb0 U4 2.967319 1_545
Nb0 U3 2.967324 1_545
Nb0 U3 2.967324 1_655
Nb0 U4 2.967331 1_555
Nb0 U5 2.967331 1_555
Nb0 U0 3.173052 1_555
Nb0 U0 3.173052 1_554
Nb0 U2 3.173052 1_555
Nb0 U2 3.173052 1_554
Nb0 U1 3.173052 1_554
Nb0 U1 3.173052 1_555
Nb1 U1 2.967319 1_565
Nb1 U2 2.967319 1_455
Nb1 U0 2.967324 1_565
Nb1 U0 2.967324 1_455
Nb1 U1 2.967331 1_555
Nb1 U2 2.967331 1_555
Nb1 U3 3.173052 1_556
Nb1 U3 3.173052 1_555
Nb1 U4 3.173052 1_555
Nb1 U5 3.173052 1_556
Nb1 U4 3.173052 1_556
Nb1 U5 3.173052 1_555
