# generated using pymatgen
data_LiCdPO4
_symmetry_space_group_name_H-M   'P 1'
_cell_length_a   4.86350000
_cell_length_b   6.37517700
_cell_length_c   10.93315700
_cell_angle_alpha   90.00000000
_cell_angle_beta   90.00000000
_cell_angle_gamma   90.00000000
_symmetry_Int_Tables_number   1
_chemical_formula_structural   LiCdPO4
_chemical_formula_sum   'Li4 Cd4 P4 O16'
_cell_volume   338.98989451
_cell_formula_units_Z   4
loop_
 _symmetry_equiv_pos_site_id
 _symmetry_equiv_pos_as_xyz
  1  'x, y, z'
loop_
 _atom_site_type_symbol
 _atom_site_label
 _atom_site_symmetry_multiplicity
 _atom_site_fract_x
 _atom_site_fract_y
 _atom_site_fract_z
 _atom_site_occupancy
  Li  Li0  1  0.00000000  0.50000000  0.50000000  1
  Li  Li1  1  0.50000000  0.50000000  0.00000000  1
  Li  Li2  1  0.00000000  0.00000000  0.50000000  1
  Li  Li3  1  0.50000000  0.00000000  0.00000000  1
  Cd  Cd0  1  0.54205000  0.75000000  0.71638400  1
  Cd  Cd1  1  0.04205000  0.25000000  0.78361600  1
  Cd  Cd2  1  0.45795000  0.25000000  0.28361600  1
  Cd  Cd3  1  0.95795000  0.75000000  0.21638400  1
  P  P0  1  0.39634600  0.75000000  0.41178900  1
  P  P1  1  0.89634600  0.25000000  0.08821100  1
  P  P2  1  0.60365400  0.25000000  0.58821100  1
  P  P3  1  0.10365400  0.75000000  0.91178900  1
  O  O0  1  0.73574800  0.05473600  0.65434400  1
  O  O1  1  0.23574800  0.94526400  0.84565600  1
  O  O2  1  0.26425200  0.55473600  0.34565600  1
  O  O3  1  0.76425200  0.44526400  0.15434400  1
  O  O4  1  0.78778500  0.75000000  0.90793800  1
  O  O5  1  0.28778500  0.25000000  0.59206200  1
  O  O6  1  0.21221500  0.25000000  0.09206200  1
  O  O7  1  0.71221500  0.75000000  0.40793800  1
  O  O8  1  0.22601900  0.75000000  0.04363300  1
  O  O9  1  0.72601900  0.25000000  0.45636700  1
  O  O10  1  0.77398100  0.25000000  0.95636700  1
  O  O11  1  0.27398100  0.75000000  0.54363300  1
  O  O12  1  0.23574800  0.55473600  0.84565600  1
  O  O13  1  0.73574800  0.44526400  0.65434400  1
  O  O14  1  0.76425200  0.05473600  0.15434400  1
  O  O15  1  0.26425200  0.94526400  0.34565600  1
loop_
_geom_bond_atom_site_label_1
_geom_bond_atom_site_label_2
_geom_bond_distance
_geom_bond_site_symmetry_2
Li0 O9 2.131508 1_455
Li0 O11 2.131508 1_555
Li0 O2 2.149657 1_555
Li0 O13 2.149657 1_455
Li0 O7 2.347824 1_455
Li0 O5 2.347824 1_555
Li1 O10 2.131508 1_554
Li1 O8 2.131508 1_555
Li1 O12 2.149657 1_554
Li1 O3 2.149657 1_555
Li1 O6 2.347824 1_555
Li1 O4 2.347824 1_554
Li2 O9 2.131508 1_455
Li2 O11 2.131508 1_545
Li2 O15 2.149657 1_545
Li2 O0 2.149657 1_455
Li2 O7 2.347824 1_445
Li2 O5 2.347824 1_555
Li3 O8 2.131508 1_545
Li3 O10 2.131508 1_554
Li3 O1 2.149657 1_544
Li3 O14 2.149657 1_555
Li3 O6 2.347824 1_555
Li3 O4 2.347824 1_544
Cd0 O0 2.263140 1_565
Cd0 O13 2.263140 1_555
Cd0 O11 2.294997 1_555
Cd0 O1 2.401333 1_555
Cd0 O12 2.401333 1_555
Cd0 O4 2.411305 1_555
Cd1 O1 2.263140 1_545
Cd1 O12 2.263140 1_555
Cd1 O10 2.294997 1_455
Cd1 O0 2.401333 1_455
Cd1 O13 2.401333 1_455
Cd1 O5 2.411305 1_555
Cd2 O15 2.263140 1_545
Cd2 O2 2.263140 1_555
Cd2 O9 2.294997 1_555
Cd2 O14 2.401333 1_555
Cd2 O3 2.401333 1_555
Cd2 O6 2.411305 1_555
Cd3 O14 2.263140 1_565
Cd3 O3 2.263140 1_555
Cd3 O8 2.294997 1_655
Cd3 O2 2.401333 1_655
Cd3 O15 2.401333 1_655
Cd3 O7 2.411305 1_555
O0 P2 1.576436 1_555
O1 P3 1.576436 1_555
O2 P0 1.576436 1_555
O3 P1 1.576436 1_555
O4 P3 1.536806 1_655
O5 P2 1.536806 1_555
O6 P1 1.536806 1_455
O7 P0 1.536806 1_555
O8 P3 1.559490 1_554
O9 P2 1.559490 1_555
O10 P1 1.559490 1_556
O11 P0 1.559490 1_555
O12 P3 1.576436 1_555
O13 P2 1.576436 1_555
O14 P1 1.576436 1_555
O15 P0 1.576436 1_555
