# generated using pymatgen
data_HfFe2
_symmetry_space_group_name_H-M   'P 1'
_cell_length_a   4.97582175
_cell_length_b   4.97574035
_cell_length_c   8.09082814
_cell_angle_alpha   89.99994344
_cell_angle_beta   90.00001857
_cell_angle_gamma   119.99885949
_symmetry_Int_Tables_number   1
_chemical_formula_structural   HfFe2
_chemical_formula_sum   'Hf4 Fe8'
_cell_volume   173.48068299
_cell_formula_units_Z   4
loop_
 _symmetry_equiv_pos_site_id
 _symmetry_equiv_pos_as_xyz
  1  'x, y, z'
loop_
 _atom_site_type_symbol
 _atom_site_label
 _atom_site_symmetry_multiplicity
 _atom_site_fract_x
 _atom_site_fract_y
 _atom_site_fract_z
 _atom_site_occupancy
  Hf  Hf0  1  0.66673442  0.33335173  0.93889093  1
  Hf  Hf1  1  0.33334163  0.66664797  0.06109532  1
  Hf  Hf2  1  0.33326584  0.66664664  0.43887945  1
  Hf  Hf3  1  0.66665483  0.33334927  0.56112508  1
  Fe  Fe0  1  0.16797867  0.83229187  0.74999671  1
  Fe  Fe1  1  0.83202846  0.16770316  0.25000044  1
  Fe  Fe2  1  0.66453453  0.83229632  0.75000447  1
  Fe  Fe3  1  0.33545326  0.16769765  0.25000267  1
  Fe  Fe4  1  0.16797824  0.33575643  0.74999830  1
  Fe  Fe5  1  0.83202679  0.66425656  0.25000276  1
  Fe  Fe6  1  0.00003042  0.00000155  0.99999062  1
  Fe  Fe7  1  0.99997190  -0.00000015  0.50001427  1
loop_
_geom_bond_atom_site_label_1
_geom_bond_atom_site_label_2
_geom_bond_distance
_geom_bond_site_symmetry_2
Hf0 Hf1 3.037968 1_656
Hf0 Hf1 3.038233 1_556
Hf0 Hf1 3.038316 1_546
Hf0 Hf3 3.056439 1_555
Hf1 Hf2 3.056586 1_555
Hf2 Hf3 3.038092 1_455
Hf2 Hf3 3.038329 1_555
Hf2 Hf3 3.038422 1_565
Fe0 Fe4 2.470630 1_555
Fe0 Fe2 2.470762 1_555
Fe0 Fe6 2.486604 1_565
Fe0 Fe7 2.486670 1_465
Fe0 Fe2 2.505059 1_455
Fe0 Fe4 2.505110 1_565
Fe0 Hf2 2.893068 1_555
Fe0 Hf1 2.893093 1_556
Fe0 Hf3 2.919210 1_565
Fe0 Hf0 2.919481 1_565
Fe0 Hf0 2.920261 1_455
Fe0 Hf3 2.920342 1_455
Fe1 Fe5 2.470725 1_555
Fe1 Fe3 2.470856 1_555
Fe1 Fe7 2.486706 1_555
Fe1 Fe6 2.486824 1_654
Fe1 Fe3 2.504966 1_655
Fe1 Fe5 2.505015 1_545
Fe1 Hf0 2.893034 1_554
Fe1 Hf3 2.893306 1_555
Fe1 Hf1 2.919372 1_545
Fe1 Hf2 2.919422 1_545
Fe1 Hf2 2.920191 1_655
Fe1 Hf1 2.920464 1_655
Fe2 Fe4 2.470757 1_555
Fe2 Fe7 2.486048 1_565
Fe2 Fe6 2.486168 1_665
Fe2 Fe4 2.505110 1_665
Fe2 Hf1 2.893453 1_556
Fe2 Hf2 2.893855 1_555
Fe2 Hf0 2.919595 1_565
Fe2 Hf3 2.919720 1_565
Fe2 Hf3 2.919783 1_555
Fe2 Hf0 2.919970 1_555
Fe3 Fe5 2.470847 1_555
Fe3 Fe6 2.486155 1_554
Fe3 Fe7 2.486299 1_455
Fe3 Fe5 2.505019 1_445
Fe3 Hf3 2.893694 1_555
Fe3 Hf0 2.893787 1_554
Fe3 Hf2 2.919559 1_545
Fe3 Hf1 2.919845 1_545
Fe3 Hf1 2.919894 1_555
Fe3 Hf2 2.919924 1_555
Fe4 Fe7 2.486795 1_455
Fe4 Fe6 2.486843 1_555
Fe4 Hf1 2.892846 1_556
Fe4 Hf2 2.892994 1_555
Fe4 Hf3 2.919256 1_555
Fe4 Hf0 2.919670 1_555
Fe4 Hf0 2.920023 1_455
Fe4 Hf3 2.920272 1_455
Fe5 Fe7 2.486942 1_565
Fe5 Fe6 2.486948 1_664
Fe5 Hf0 2.892978 1_554
Fe5 Hf3 2.893055 1_555
Fe5 Hf1 2.919403 1_555
Fe5 Hf2 2.919592 1_555
Fe5 Hf2 2.919965 1_655
Fe5 Hf1 2.920415 1_655
Fe6 Hf0 2.914888 1_455
Fe6 Hf1 2.914923 1_556
Fe6 Hf0 2.914930 1_445
Fe6 Hf1 2.914974 1_546
Fe6 Hf1 2.915148 1_446
Fe6 Hf0 2.915206 1_555
Fe7 Hf2 2.914941 1_645
Fe7 Hf3 2.914948 1_545
Fe7 Hf2 2.914965 1_655
Fe7 Hf3 2.914991 1_555
Fe7 Hf3 2.915132 1_655
Fe7 Hf2 2.915263 1_545
