# generated using pymatgen
data_BaDy2PdO5
_symmetry_space_group_name_H-M   'P 1'
_cell_length_a   6.58143700
_cell_length_b   6.58143700
_cell_length_c   5.92385400
_cell_angle_alpha   90.00000000
_cell_angle_beta   90.00000000
_cell_angle_gamma   90.00000000
_symmetry_Int_Tables_number   1
_chemical_formula_structural   BaDy2PdO5
_chemical_formula_sum   'Ba2 Dy4 Pd2 O10'
_cell_volume   256.59359009
_cell_formula_units_Z   2
loop_
 _symmetry_equiv_pos_site_id
 _symmetry_equiv_pos_as_xyz
  1  'x, y, z'
loop_
 _atom_site_type_symbol
 _atom_site_label
 _atom_site_symmetry_multiplicity
 _atom_site_fract_x
 _atom_site_fract_y
 _atom_site_fract_z
 _atom_site_occupancy
  Ba  Ba0  1  0.50000000  0.50000000  0.00000000  1
  Ba  Ba1  1  0.00000000  0.00000000  0.00000000  1
  Dy  Dy0  1  0.82584800  0.67415200  0.50000000  1
  Dy  Dy1  1  0.67415200  0.17415200  0.50000000  1
  Dy  Dy2  1  0.32584800  0.82584800  0.50000000  1
  Dy  Dy3  1  0.17415200  0.32584800  0.50000000  1
  Pd  Pd0  1  0.00000000  0.50000000  0.00000000  1
  Pd  Pd1  1  0.50000000  0.00000000  0.00000000  1
  O  O0  1  0.50000000  0.50000000  0.50000000  1
  O  O1  1  0.00000000  0.00000000  0.50000000  1
  O  O2  1  0.14054500  0.64054500  0.26030400  1
  O  O3  1  0.85945500  0.35945500  0.26030400  1
  O  O4  1  0.35945500  0.14054500  0.26030400  1
  O  O5  1  0.64054500  0.85945500  0.26030400  1
  O  O6  1  0.14054500  0.64054500  0.73969600  1
  O  O7  1  0.64054500  0.85945500  0.73969600  1
  O  O8  1  0.85945500  0.35945500  0.73969600  1
  O  O9  1  0.35945500  0.14054500  0.73969600  1
loop_
_geom_bond_atom_site_label_1
_geom_bond_atom_site_label_2
_geom_bond_distance
_geom_bond_site_symmetry_2
Ba0 O0 2.961927 1_554
Ba0 O0 2.961927 1_555
Ba0 O7 2.971541 1_554
Ba0 O5 2.971541 1_555
Ba0 O2 2.971541 1_555
Ba0 O6 2.971541 1_554
Ba0 O4 2.971541 1_555
Ba0 O8 2.971541 1_554
Ba0 O3 2.971541 1_555
Ba0 O9 2.971541 1_554
Ba1 O1 2.961927 1_555
Ba1 O1 2.961927 1_554
Ba1 O3 2.971541 1_455
Ba1 O9 2.971541 1_554
Ba1 O8 2.971541 1_454
Ba1 O4 2.971541 1_555
Ba1 O5 2.971541 1_445
Ba1 O2 2.971541 1_545
Ba1 O6 2.971541 1_544
Ba1 O7 2.971541 1_444
Dy0 O5 2.234018 1_555
Dy0 O7 2.234018 1_555
Dy0 O0 2.431624 1_555
Dy0 O1 2.431624 1_665
Dy0 O6 2.520874 1_655
Dy0 O2 2.520874 1_655
Dy0 O3 2.520874 1_555
Dy0 O8 2.520874 1_555
Dy1 O8 2.234018 1_555
Dy1 O3 2.234018 1_555
Dy1 O0 2.431624 1_555
Dy1 O1 2.431624 1_655
Dy1 O5 2.520874 1_545
Dy1 O7 2.520874 1_545
Dy1 O4 2.520874 1_555
Dy1 O9 2.520874 1_555
Dy2 O6 2.234018 1_555
Dy2 O2 2.234018 1_555
Dy2 O1 2.431624 1_565
Dy2 O0 2.431624 1_555
Dy2 O7 2.520874 1_555
Dy2 O5 2.520874 1_555
Dy2 O4 2.520874 1_565
Dy2 O9 2.520874 1_565
Dy3 O9 2.234018 1_555
Dy3 O4 2.234018 1_555
Dy3 O1 2.431624 1_555
Dy3 O0 2.431624 1_555
Dy3 O8 2.520874 1_455
Dy3 O2 2.520874 1_555
Dy3 O3 2.520874 1_455
Dy3 O6 2.520874 1_555
O2 Pd0 2.022122 1_555
O3 Pd0 2.022122 1_655
O4 Pd1 2.022122 1_555
O5 Pd1 2.022122 1_565
O6 Pd0 2.022122 1_556
O7 Pd1 2.022122 1_566
O8 Pd0 2.022122 1_656
O9 Pd1 2.022122 1_556
