# generated using pymatgen
data_B2(CN2)3
_symmetry_space_group_name_H-M   'P 1'
_cell_length_a   6.80100156
_cell_length_b   6.80100156
_cell_length_c   4.80903500
_cell_angle_alpha   90.00000000
_cell_angle_beta   90.00000000
_cell_angle_gamma   119.99999576
_symmetry_Int_Tables_number   1
_chemical_formula_structural   B2(CN2)3
_chemical_formula_sum   'B4 C6 N12'
_cell_volume   192.63461869
_cell_formula_units_Z   2
loop_
 _symmetry_equiv_pos_site_id
 _symmetry_equiv_pos_as_xyz
  1  'x, y, z'
loop_
 _atom_site_type_symbol
 _atom_site_label
 _atom_site_symmetry_multiplicity
 _atom_site_fract_x
 _atom_site_fract_y
 _atom_site_fract_z
 _atom_site_occupancy
  B  B0  1  0.89955900  0.39955900  0.60044100  1
  B  B1  1  0.10044100  0.60044100  0.39955900  1
  B  B2  1  0.60044100  0.10044100  0.89955900  1
  B  B3  1  0.39955900  0.89955900  0.10044100  1
  C  C0  1  0.67048400  0.32951600  0.25000000  1
  C  C1  1  0.32951600  0.67048400  0.75000000  1
  C  C2  1  0.17048400  0.25000000  0.17048400  1
  C  C3  1  0.75000000  0.82951600  0.32951600  1
  C  C4  1  0.25000000  0.17048400  0.67048400  1
  C  C5  1  0.82951600  0.75000000  0.82951600  1
  N  N0  1  0.27509900  0.59307800  0.56908200  1
  N  N1  1  0.22490100  0.06908200  0.09307800  1
  N  N2  1  0.93091800  0.77509900  0.40692200  1
  N  N3  1  0.77509900  0.93091800  0.90692200  1
  N  N4  1  0.72490100  0.40692200  0.43091800  1
  N  N5  1  0.59307800  0.27509900  0.06908200  1
  N  N6  1  0.90692200  0.56908200  0.77509900  1
  N  N7  1  0.06908200  0.22490100  0.59307800  1
  N  N8  1  0.09307800  0.43091800  0.22490100  1
  N  N9  1  0.43091800  0.09307800  0.72490100  1
  N  N10  1  0.56908200  0.90692200  0.27509900  1
  N  N11  1  0.40692200  0.72490100  0.93091800  1
loop_
_geom_bond_atom_site_label_1
_geom_bond_atom_site_label_2
_geom_bond_distance
_geom_bond_site_symmetry_2
B0 N6 1.406949 1_555
B0 N4 1.462052 1_555
B0 N7 2.027555 1_655
B1 N8 1.406949 1_555
B1 N0 1.462052 1_555
B1 N2 2.027555 1_455
B2 N9 1.406949 1_555
B2 N5 1.462052 1_556
B2 N3 2.027555 1_545
B3 N10 1.406949 1_555
B3 N11 1.462052 1_554
B3 N1 2.027555 1_565
C0 N5 0.988051 1_555
C0 N4 0.988051 1_555
C1 N0 0.988051 1_555
C1 N11 0.988051 1_555
C2 N1 1.498281 1_555
C2 N8 1.583447 1_555
C3 N2 1.498281 1_555
C3 N10 1.583447 1_555
C4 N7 1.498281 1_555
C4 N9 1.583447 1_555
C5 N3 1.498281 1_555
C5 N6 1.583447 1_555
