# generated using pymatgen
data_Ac3Tl
_symmetry_space_group_name_H-M   'P 1'
_cell_length_a   7.76482371
_cell_length_b   7.76483723
_cell_length_c   5.92216610
_cell_angle_alpha   90.00000000
_cell_angle_beta   90.00000000
_cell_angle_gamma   120.00007052
_symmetry_Int_Tables_number   1
_chemical_formula_structural   Ac3Tl
_chemical_formula_sum   'Ac6 Tl2'
_cell_volume   309.22518890
_cell_formula_units_Z   2
loop_
 _symmetry_equiv_pos_site_id
 _symmetry_equiv_pos_as_xyz
  1  'x, y, z'
loop_
 _atom_site_type_symbol
 _atom_site_label
 _atom_site_symmetry_multiplicity
 _atom_site_fract_x
 _atom_site_fract_y
 _atom_site_fract_z
 _atom_site_occupancy
  Ac  Ac0  1  0.17724962  0.35449923  0.25000100  1
  Ac  Ac1  1  0.64550377  0.82275238  0.25000100  1
  Ac  Ac2  1  0.17725062  0.82275238  0.25000100  1
  Ac  Ac3  1  0.82275038  0.64550177  0.75000100  1
  Ac  Ac4  1  0.35449623  0.17724762  0.75000100  1
  Ac  Ac5  1  0.82275038  0.17724762  0.75000100  1
  Tl  Tl0  1  0.33333400  0.66666800  0.75000100  1
  Tl  Tl1  1  0.66666700  0.33333300  0.25000100  1
loop_
_geom_bond_atom_site_label_1
_geom_bond_atom_site_label_2
_geom_bond_distance
_geom_bond_site_symmetry_2
Ac0 Tl0 3.629686 1_555
Ac0 Tl0 3.629686 1_554
Ac0 Ac2 3.635906 1_555
Ac0 Ac1 3.635906 1_555
Ac0 Ac4 3.801407 1_555
Ac0 Ac4 3.801407 1_554
Ac0 Ac5 3.801409 1_455
Ac0 Ac5 3.801409 1_454
Ac0 Tl1 3.885016 1_455
Ac0 Tl1 3.885024 1_555
Ac0 Ac1 4.128916 1_445
Ac0 Ac2 4.128932 1_545
Ac1 Tl0 3.629688 1_555
Ac1 Tl0 3.629688 1_554
Ac1 Ac2 3.635903 1_555
Ac1 Ac5 3.801395 1_565
Ac1 Ac5 3.801395 1_564
Ac1 Ac3 3.801403 1_555
Ac1 Ac3 3.801403 1_554
Ac1 Tl1 3.885018 1_565
Ac1 Tl1 3.885034 1_555
Ac1 Ac2 4.128921 1_655
Ac2 Tl0 3.629682 1_555
Ac2 Tl0 3.629682 1_554
Ac2 Ac4 3.801395 1_565
Ac2 Ac4 3.801395 1_564
Ac2 Ac3 3.801413 1_455
Ac2 Ac3 3.801413 1_454
Ac2 Tl1 3.885007 1_565
Ac2 Tl1 3.885030 1_455
Ac3 Tl1 3.629686 1_555
Ac3 Tl1 3.629686 1_556
Ac3 Ac4 3.635910 1_555
Ac3 Ac5 3.635917 1_555
Ac3 Tl0 3.885016 1_555
Ac3 Tl0 3.885024 1_655
Ac3 Ac4 4.128912 1_665
Ac3 Ac5 4.128920 1_565
Ac4 Tl1 3.629692 1_555
Ac4 Tl1 3.629692 1_556
Ac4 Ac5 3.635911 1_555
Ac4 Tl0 3.885014 1_545
Ac4 Tl0 3.885037 1_555
Ac4 Ac5 4.128913 1_455
Ac5 Tl1 3.629686 1_555
Ac5 Tl1 3.629686 1_556
Ac5 Tl0 3.885003 1_545
Ac5 Tl0 3.885034 1_655
