# generated using pymatgen
data_Hf2MnRh
_symmetry_space_group_name_H-M   'P 1'
_cell_length_a   4.51489647
_cell_length_b   4.51489219
_cell_length_c   4.51489754
_cell_angle_alpha   60.00006279
_cell_angle_beta   60.00009434
_cell_angle_gamma   60.00000430
_symmetry_Int_Tables_number   1
_chemical_formula_structural   Hf2MnRh
_chemical_formula_sum   'Hf2 Mn1 Rh1'
_cell_volume   65.07716291
_cell_formula_units_Z   1
loop_
 _symmetry_equiv_pos_site_id
 _symmetry_equiv_pos_as_xyz
  1  'x, y, z'
loop_
 _atom_site_type_symbol
 _atom_site_label
 _atom_site_symmetry_multiplicity
 _atom_site_fract_x
 _atom_site_fract_y
 _atom_site_fract_z
 _atom_site_occupancy
  Hf  Hf0  1  0.00000009  0.00000002  -0.00000002  1
  Hf  Hf1  1  0.50000055  0.49999994  0.49999966  1
  Mn  Mn0  1  0.24999912  0.25000005  0.24999990  1
  Rh  Rh0  1  0.74999924  0.74999999  0.74999846  1
loop_
_geom_bond_atom_site_label_1
_geom_bond_atom_site_label_2
_geom_bond_distance
_geom_bond_site_symmetry_2
Hf0 Mn0 2.764793 1_555
Hf0 Mn0 2.764796 1_545
Hf0 Rh0 2.764796 1_454
Hf0 Rh0 2.764796 1_445
Hf0 Rh0 2.764797 1_544
Hf0 Mn0 2.764802 1_554
Hf0 Mn0 2.764803 1_455
Hf0 Rh0 2.764805 1_444
Hf1 Rh0 2.764787 1_555
Hf1 Mn0 2.764795 1_655
Hf1 Rh0 2.764796 1_545
Hf1 Mn0 2.764797 1_565
Hf1 Mn0 2.764800 1_555
Hf1 Mn0 2.764803 1_556
Hf1 Rh0 2.764805 1_455
Hf1 Rh0 2.764806 1_554
