# generated using pymatgen
data_LiTi2NbCu2O9
_symmetry_space_group_name_H-M   'P 1'
_cell_length_a   6.47508900
_cell_length_b   6.52914968
_cell_length_c   16.36826850
_cell_angle_alpha   97.69497892
_cell_angle_beta   97.35475039
_cell_angle_gamma   109.65517820
_symmetry_Int_Tables_number   1
_chemical_formula_structural   LiTi2NbCu2O9
_chemical_formula_sum   'Li4 Ti8 Nb4 Cu8 O36'
_cell_volume   634.61038402
_cell_formula_units_Z   4
loop_
 _symmetry_equiv_pos_site_id
 _symmetry_equiv_pos_as_xyz
  1  'x, y, z'
loop_
 _atom_site_type_symbol
 _atom_site_label
 _atom_site_symmetry_multiplicity
 _atom_site_fract_x
 _atom_site_fract_y
 _atom_site_fract_z
 _atom_site_occupancy
  Li  Li0  1  0.03143800  0.94854200  0.97672100  1
  Li  Li1  1  0.00379200  0.50161200  0.83221100  1
  Li  Li2  1  0.01295000  0.91259600  0.67935600  1
  Li  Li3  1  0.06959200  0.11104800  0.32504000  1
  Ti  Ti0  1  0.01739700  0.49172300  0.66442800  1
  Ti  Ti1  1  0.01389600  0.01050300  0.49810900  1
  Ti  Ti2  1  0.00269200  0.51398500  0.33457800  1
  Ti  Ti3  1  0.99994900  0.99099200  0.82865300  1
  Ti  Ti4  1  0.51451000  0.50661900  0.49604400  1
  Ti  Ti5  1  0.99309700  0.48212200  0.00278700  1
  Ti  Ti6  1  0.52181200  0.50983300  0.16598000  1
  Ti  Ti7  1  0.01503700  0.01535400  0.16517400  1
  Nb  Nb0  1  0.48820600  0.49054300  0.83347300  1
  Nb  Nb1  1  0.50676900  0.99870000  0.66301100  1
  Nb  Nb2  1  0.51439300  0.00217200  0.33182700  1
  Nb  Nb3  1  0.50990100  0.99531600  0.00318600  1
  Cu  Cu0  1  0.49647600  0.99864300  0.83424300  1
  Cu  Cu1  1  0.51039600  0.49952700  0.66318200  1
  Cu  Cu2  1  0.50274700  0.00296100  0.49876400  1
  Cu  Cu3  1  0.49621100  0.49767300  0.33267500  1
  Cu  Cu4  1  0.00126100  0.50147700  0.49962800  1
  Cu  Cu5  1  0.50216600  0.50115500  0.00207600  1
  Cu  Cu6  1  0.49587700  0.99810000  0.16955700  1
  Cu  Cu7  1  0.00481700  0.50095000  0.16576200  1
  O  O0  1  0.81990900  0.30157100  0.96136800  1
  O  O1  1  0.87174000  0.18880500  0.76997700  1
  O  O2  1  0.82728900  0.71355100  0.82152500  1
  O  O3  1  0.82480300  0.31439500  0.62271400  1
  O  O4  1  0.70103200  0.87136000  0.94094900  1
  O  O5  1  0.48833000  0.17608700  0.89850900  1
  O  O6  1  0.70012800  0.52336500  0.72420500  1
  O  O7  1  0.87504000  0.17965100  0.43367600  1
  O  O8  1  0.81539600  0.68828000  0.49607800  1
  O  O9  1  0.31082400  0.48790600  0.94204000  1
  O  O10  1  0.49679000  0.81831400  0.77172600  1
  O  O11  1  0.69763300  0.86902100  0.60622600  1
  O  O12  1  0.82948000  0.30625700  0.28965700  1
  O  O13  1  0.48949100  0.18476100  0.56157500  1
  O  O14  1  0.30492700  0.13132600  0.72465700  1
  O  O15  1  0.68779500  0.50803700  0.39285500  1
  O  O16  1  0.86836200  0.18106200  0.10537700  1
  O  O17  1  0.17920700  0.28969800  0.84166200  1
  O  O18  1  0.82101700  0.68795900  0.16372300  1
  O  O19  1  0.12362800  0.81452200  0.89754300  1
  O  O20  1  0.31065500  0.48715600  0.60604100  1
  O  O21  1  0.68988900  0.86665600  0.27289800  1
  O  O22  1  0.51046400  0.81897300  0.43738300  1
  O  O23  1  0.18374200  0.70678700  0.70204000  1
  O  O24  1  0.47894600  0.17986500  0.23190700  1
  O  O25  1  0.30061100  0.12684600  0.39103300  1
  O  O26  1  0.70057300  0.52309000  0.05926800  1
  O  O27  1  0.18071200  0.30954300  0.50183100  1
  O  O28  1  0.12927700  0.82427300  0.56249000  1
  O  O29  1  0.30338800  0.48488400  0.27335200  1
  O  O30  1  0.50736700  0.81527900  0.10704800  1
  O  O31  1  0.30992300  0.13144500  0.06073300  1
  O  O32  1  0.17515100  0.68894800  0.37706700  1
  O  O33  1  0.17940300  0.30413300  0.17109600  1
  O  O34  1  0.12454600  0.81889100  0.23151500  1
  O  O35  1  0.17715100  0.69515600  0.04179100  1
loop_
_geom_bond_atom_site_label_1
_geom_bond_atom_site_label_2
_geom_bond_distance
_geom_bond_site_symmetry_2
Li0 O19 1.745686 1_555
Li0 O31 2.011325 1_566
Li0 O4 2.012176 1_455
Li1 O1 1.996272 1_455
Li1 O19 2.013871 1_555
Li1 O17 2.073157 1_555
Li1 O2 2.080657 1_455
Li2 O14 1.924790 1_565
Li2 O23 2.048103 1_555
Li2 O11 2.138846 1_455
Li2 O28 2.219179 1_555
Li3 O25 1.693443 1_555
Li3 O7 2.385229 1_455
Li3 O34 2.433693 1_545
Nb0 O17 2.022741 1_555
Nb0 O9 2.234920 1_555
Nb0 O2 2.239318 1_555
Nb0 O6 2.379263 1_555
Nb0 O5 2.436135 1_555
Nb0 O10 2.473472 1_555
Nb0 O14 2.559160 1_555
Nb0 O4 2.660639 1_555
Nb1 O11 1.973685 1_555
Nb1 O14 2.083527 1_565
Nb1 O13 2.197505 1_565
Nb1 O10 2.257730 1_555
Nb1 O23 2.530219 1_555
Nb1 O28 2.564108 1_555
Nb1 O1 2.564435 1_565
Nb1 O3 2.603994 1_565
Nb2 O21 1.932102 1_545
Nb2 O25 2.099563 1_555
Nb2 O24 2.159815 1_555
Nb2 O22 2.227284 1_545
Nb2 O7 2.498160 1_555
Nb2 O34 2.623086 1_545
Nb3 O4 2.000052 1_554
Nb3 O31 2.053348 1_565
Nb3 O30 2.191235 1_555
Nb3 O5 2.222485 1_564
Nb3 O16 2.495026 1_565
Nb3 O0 2.552327 1_564
Nb3 O35 2.592672 1_555
Nb3 O19 2.645601 1_554
Cu0 O10 1.453578 1_555
Cu0 O5 1.476661 1_565
Cu1 O6 1.430652 1_555
Cu1 O20 1.467593 1_555
Cu2 O22 1.478183 1_545
Cu2 O13 1.495881 1_555
Cu3 O29 1.451368 1_555
Cu3 O15 1.458290 1_555
Cu4 O27 1.975555 1_555
Cu4 O8 1.981888 1_455
Cu4 O28 2.052652 1_555
Cu4 O7 2.063966 1_455
Cu5 O26 1.442128 1_555
Cu5 O9 1.449687 1_554
Cu6 O30 1.493118 1_555
Cu6 O24 1.501269 1_565
Cu6 O34 2.688534 1_555
Cu7 O18 1.971464 1_455
Cu7 O33 1.979631 1_555
Cu7 O16 2.025337 1_455
Cu7 O34 2.043059 1_555
O0 Ti5 1.344944 1_556
O1 Ti3 2.032003 1_545
O2 Ti3 1.758552 1_555
O3 Ti0 1.400307 1_655
O7 Ti1 1.969138 1_655
O8 Ti4 1.909859 1_555
O8 Ti1 2.056822 1_665
O11 Ti4 2.584496 1_555
O12 Ti2 1.461693 1_655
O13 Ti4 2.451942 1_555
O15 Ti4 2.143423 1_555
O16 Ti7 1.940983 1_655
O17 Ti3 1.870536 1_445
O18 Ti6 1.903015 1_555
O18 O34 1.970320 1_655
O18 Ti7 2.078564 1_665
O19 Ti3 1.994458 1_455
O20 Ti4 2.357338 1_555
O21 Ti6 2.527787 1_555
O22 Ti4 2.373965 1_555
O23 Ti0 1.446433 1_555
O24 Ti6 2.485962 1_555
O25 Ti4 2.638168 1_555
O26 Ti6 2.211092 1_555
O27 Ti1 1.874876 1_555
O27 Ti4 2.133154 1_555
O28 Ti1 1.974797 1_565
O29 Ti6 2.381948 1_555
O30 Ti6 2.352452 1_555
O31 Ti6 2.632225 1_555
O32 Ti2 1.328873 1_555
O33 Ti7 1.808825 1_555
O33 Ti6 2.191105 1_555
O34 Ti7 2.028576 1_565
O34 Ti2 2.759539 1_555
O35 Ti5 1.488234 1_455
