# generated using pymatgen
data_Sc2MnGe
_symmetry_space_group_name_H-M   'P 1'
_cell_length_a   4.56589738
_cell_length_b   4.56589738
_cell_length_c   4.56589738
_cell_angle_alpha   60.00000000
_cell_angle_beta   60.00000000
_cell_angle_gamma   60.00000000
_symmetry_Int_Tables_number   1
_chemical_formula_structural   Sc2MnGe
_chemical_formula_sum   'Sc2 Mn1 Ge1'
_cell_volume   67.30749714
_cell_formula_units_Z   1
loop_
 _symmetry_equiv_pos_site_id
 _symmetry_equiv_pos_as_xyz
  1  'x, y, z'
loop_
 _atom_site_type_symbol
 _atom_site_label
 _atom_site_symmetry_multiplicity
 _atom_site_fract_x
 _atom_site_fract_y
 _atom_site_fract_z
 _atom_site_occupancy
  Sc  Sc0  1  0.00000000  0.00000000  0.00000000  1
  Sc  Sc1  1  0.25000000  0.25000000  0.25000000  1
  Mn  Mn0  1  0.50000000  0.50000000  0.50000000  1
  Ge  Ge0  1  0.75000000  0.75000000  0.75000000  1
loop_
_geom_bond_atom_site_label_1
_geom_bond_atom_site_label_2
_geom_bond_distance
_geom_bond_site_symmetry_2
Sc0 Sc1 2.796030 1_554
Sc0 Sc1 2.796030 1_555
Sc0 Sc1 2.796030 1_545
Sc0 Sc1 2.796030 1_455
Mn0 Sc1 2.796030 1_555
Mn0 Sc1 2.796030 1_556
Mn0 Sc1 2.796030 1_565
Mn0 Sc1 2.796030 1_655
Ge0 Sc0 2.796030 1_665
Ge0 Mn0 2.796030 1_565
Ge0 Sc0 2.796030 1_666
Ge0 Mn0 2.796030 1_555
Ge0 Mn0 2.796030 1_556
Ge0 Sc0 2.796030 1_656
Ge0 Mn0 2.796030 1_655
Ge0 Sc0 2.796030 1_566
Ge0 Sc1 3.228577 1_656
Ge0 Sc1 3.228577 1_565
Ge0 Sc1 3.228577 1_665
Ge0 Sc1 3.228577 1_655
Ge0 Sc1 3.228577 1_566
Ge0 Sc1 3.228577 1_556
