# generated using pymatgen
data_MnBe2Co
_symmetry_space_group_name_H-M   'P 1'
_cell_length_a   3.75263407
_cell_length_b   3.75263407
_cell_length_c   3.75263407
_cell_angle_alpha   60.00000000
_cell_angle_beta   60.00000000
_cell_angle_gamma   60.00000000
_symmetry_Int_Tables_number   1
_chemical_formula_structural   MnBe2Co
_chemical_formula_sum   'Mn1 Be2 Co1'
_cell_volume   37.36746657
_cell_formula_units_Z   1
loop_
 _symmetry_equiv_pos_site_id
 _symmetry_equiv_pos_as_xyz
  1  'x, y, z'
loop_
 _atom_site_type_symbol
 _atom_site_label
 _atom_site_symmetry_multiplicity
 _atom_site_fract_x
 _atom_site_fract_y
 _atom_site_fract_z
 _atom_site_occupancy
  Mn  Mn0  1  0.00000000  0.00000000  0.00000000  1
  Be  Be0  1  0.25000000  0.25000000  0.25000000  1
  Be  Be1  1  0.75000000  0.75000000  0.75000000  1
  Co  Co0  1  0.50000000  0.50000000  0.50000000  1
loop_
_geom_bond_atom_site_label_1
_geom_bond_atom_site_label_2
_geom_bond_distance
_geom_bond_site_symmetry_2
Be0 Mn0 2.298010 1_555
Be0 Mn0 2.298010 1_556
Be0 Co0 2.298010 1_455
Be0 Mn0 2.298010 1_565
Be0 Co0 2.298010 1_545
Be0 Mn0 2.298010 1_655
Be0 Co0 2.298010 1_554
Be0 Co0 2.298010 1_555
Be1 Co0 2.298010 1_565
Be1 Mn0 2.298010 1_566
Be1 Mn0 2.298010 1_665
Be1 Mn0 2.298010 1_656
Be1 Co0 2.298010 1_556
Be1 Mn0 2.298010 1_666
Be1 Co0 2.298010 1_555
Be1 Co0 2.298010 1_655
Co0 Mn0 2.653513 1_556
Co0 Mn0 2.653513 1_565
Co0 Mn0 2.653513 1_566
Co0 Mn0 2.653513 1_655
Co0 Mn0 2.653513 1_665
Co0 Mn0 2.653513 1_656
