# generated using pymatgen
data_Si3Se
_symmetry_space_group_name_H-M   'P 1'
_cell_length_a   4.53379615
_cell_length_b   4.53379615
_cell_length_c   4.53379615
_cell_angle_alpha   60.00000000
_cell_angle_beta   60.00000000
_cell_angle_gamma   60.00000000
_symmetry_Int_Tables_number   1
_chemical_formula_structural   Si3Se
_chemical_formula_sum   'Si3 Se1'
_cell_volume   65.89780810
_cell_formula_units_Z   1
loop_
 _symmetry_equiv_pos_site_id
 _symmetry_equiv_pos_as_xyz
  1  'x, y, z'
loop_
 _atom_site_type_symbol
 _atom_site_label
 _atom_site_symmetry_multiplicity
 _atom_site_fract_x
 _atom_site_fract_y
 _atom_site_fract_z
 _atom_site_occupancy
  Si  Si0  1  0.25000000  0.25000000  0.25000000  1
  Si  Si1  1  0.75000000  0.75000000  0.75000000  1
  Si  Si2  1  0.50000000  0.50000000  0.50000000  1
  Se  Se0  1  0.00000000  0.00000000  0.00000000  1
loop_
_geom_bond_atom_site_label_1
_geom_bond_atom_site_label_2
_geom_bond_distance
_geom_bond_site_symmetry_2
Si0 Si2 2.776372 1_455
Si0 Si2 2.776372 1_554
Si0 Si2 2.776372 1_555
Si0 Si2 2.776372 1_545
Si1 Si2 2.776372 1_556
Si1 Si2 2.776372 1_565
Si1 Si2 2.776372 1_555
Si1 Si2 2.776372 1_655
Se0 Si0 2.776372 1_555
Se0 Si0 2.776372 1_545
Se0 Si1 2.776372 1_544
Se0 Si1 2.776372 1_454
Se0 Si1 2.776372 1_444
Se0 Si1 2.776372 1_445
Se0 Si0 2.776372 1_554
Se0 Si0 2.776372 1_455
