# generated using pymatgen
data_PrY3
_symmetry_space_group_name_H-M   'P 1'
_cell_length_a   6.27151366
_cell_length_b   6.27151366
_cell_length_c   6.27151366
_cell_angle_alpha   131.37804334
_cell_angle_beta   131.37804334
_cell_angle_gamma   71.21313161
_symmetry_Int_Tables_number   1
_chemical_formula_structural   PrY3
_chemical_formula_sum   'Pr1 Y3'
_cell_volume   135.96412489
_cell_formula_units_Z   1
loop_
 _symmetry_equiv_pos_site_id
 _symmetry_equiv_pos_as_xyz
  1  'x, y, z'
loop_
 _atom_site_type_symbol
 _atom_site_label
 _atom_site_symmetry_multiplicity
 _atom_site_fract_x
 _atom_site_fract_y
 _atom_site_fract_z
 _atom_site_occupancy
  Pr  Pr0  1  -0.00000000  -0.00000000  -0.00000000  1
  Y  Y0  1  0.75000000  0.25000000  0.50000000  1
  Y  Y1  1  0.25000000  0.75000000  0.50000000  1
  Y  Y2  1  0.50000000  0.50000000  -0.00000000  1
loop_
_geom_bond_atom_site_label_1
_geom_bond_atom_site_label_2
_geom_bond_distance
_geom_bond_site_symmetry_2
Pr0 Y0 3.628513 1_444
Pr0 Y0 3.628513 1_454
Pr0 Y1 3.628513 1_555
Pr0 Y1 3.628513 1_544
Pr0 Y1 3.628513 1_545
Pr0 Y0 3.628513 1_455
Pr0 Y1 3.628513 1_444
Pr0 Y0 3.628513 1_555
Pr0 Y2 3.651376 1_444
Pr0 Y2 3.651376 1_455
Pr0 Y2 3.651376 1_556
Pr0 Y2 3.651376 1_545
Y0 Y2 3.628513 1_556
Y0 Y2 3.628513 1_545
Y0 Y2 3.628513 1_555
Y0 Y2 3.628513 1_656
Y0 Y1 3.651376 1_656
Y0 Y1 3.651376 1_645
Y0 Y1 3.651376 1_555
Y0 Y1 3.651376 1_544
Y1 Y2 3.628513 1_556
Y1 Y2 3.628513 1_555
Y1 Y2 3.628513 1_566
Y1 Y2 3.628513 1_455
