# generated using pymatgen
data_LiLu2Pd
_symmetry_space_group_name_H-M   'P 1'
_cell_length_a   4.88222183
_cell_length_b   4.88222183
_cell_length_c   4.88222183
_cell_angle_alpha   60.00000000
_cell_angle_beta   60.00000000
_cell_angle_gamma   60.00000000
_symmetry_Int_Tables_number   1
_chemical_formula_structural   LiLu2Pd
_chemical_formula_sum   'Li1 Lu2 Pd1'
_cell_volume   82.28819302
_cell_formula_units_Z   1
loop_
 _symmetry_equiv_pos_site_id
 _symmetry_equiv_pos_as_xyz
  1  'x, y, z'
loop_
 _atom_site_type_symbol
 _atom_site_label
 _atom_site_symmetry_multiplicity
 _atom_site_fract_x
 _atom_site_fract_y
 _atom_site_fract_z
 _atom_site_occupancy
  Li  Li0  1  0.25000100  0.25000100  0.25000100  1
  Lu  Lu0  1  -0.00000000  -0.00000000  0.00000000  1
  Lu  Lu1  1  0.50000000  0.50000000  0.50000000  1
  Pd  Pd0  1  0.75000000  0.75000000  0.75000000  1
loop_
_geom_bond_atom_site_label_1
_geom_bond_atom_site_label_2
_geom_bond_distance
_geom_bond_site_symmetry_2
Li0 Lu1 2.989726 1_555
Li0 Lu0 2.989734 1_565
Li0 Lu0 2.989734 1_556
Li0 Lu0 2.989734 1_655
Li0 Lu1 2.989742 1_455
Li0 Lu1 2.989742 1_554
Li0 Lu1 2.989742 1_545
Li0 Lu0 2.989750 1_555
Lu0 Pd0 2.989738 1_454
Lu0 Pd0 2.989738 1_544
Lu0 Pd0 2.989738 1_445
Lu0 Pd0 2.989738 1_444
Lu1 Pd0 2.989738 1_455
Lu1 Pd0 2.989738 1_545
Lu1 Pd0 2.989738 1_554
Lu1 Pd0 2.989738 1_555
