# generated using pymatgen
data_Np3Be
_symmetry_space_group_name_H-M   'P 1'
_cell_length_a   4.45209844
_cell_length_b   4.45209844
_cell_length_c   4.45209844
_cell_angle_alpha   60.00000000
_cell_angle_beta   60.00000000
_cell_angle_gamma   60.00000000
_symmetry_Int_Tables_number   1
_chemical_formula_structural   Np3Be
_chemical_formula_sum   'Np3 Be1'
_cell_volume   62.39923689
_cell_formula_units_Z   1
loop_
 _symmetry_equiv_pos_site_id
 _symmetry_equiv_pos_as_xyz
  1  'x, y, z'
loop_
 _atom_site_type_symbol
 _atom_site_label
 _atom_site_symmetry_multiplicity
 _atom_site_fract_x
 _atom_site_fract_y
 _atom_site_fract_z
 _atom_site_occupancy
  Np  Np0  1  0.75000000  0.75000000  0.75000000  1
  Np  Np1  1  0.25000000  0.25000000  0.25000000  1
  Np  Np2  1  0.50000000  0.50000000  0.50000000  1
  Be  Be0  1  0.00000000  0.00000000  0.00000000  1
loop_
_geom_bond_atom_site_label_1
_geom_bond_atom_site_label_2
_geom_bond_distance
_geom_bond_site_symmetry_2
Np0 Np2 2.726342 1_565
Np0 Np2 2.726342 1_655
Np0 Np2 2.726342 1_556
Np0 Np2 2.726342 1_555
Np1 Np2 2.726342 1_455
Np1 Np2 2.726342 1_554
Np1 Np2 2.726342 1_545
Np1 Np2 2.726342 1_555
Be0 Np1 2.726342 1_455
Be0 Np1 2.726342 1_545
Be0 Np1 2.726342 1_555
Be0 Np0 2.726342 1_445
Be0 Np0 2.726342 1_454
Be0 Np0 2.726342 1_444
Be0 Np1 2.726342 1_554
Be0 Np0 2.726342 1_544
Be0 Np2 3.148109 1_554
Be0 Np2 3.148109 1_455
Be0 Np2 3.148109 1_445
Be0 Np2 3.148109 1_544
Be0 Np2 3.148109 1_454
Be0 Np2 3.148109 1_545
