# generated using pymatgen
data_Yb(ZnP)2
_symmetry_space_group_name_H-M   'P 1'
_cell_length_a   4.03363802
_cell_length_b   4.03363802
_cell_length_c   6.76379700
_cell_angle_alpha   90.00000000
_cell_angle_beta   90.00000000
_cell_angle_gamma   120.00000032
_symmetry_Int_Tables_number   1
_chemical_formula_structural   Yb(ZnP)2
_chemical_formula_sum   'Yb1 Zn2 P2'
_cell_volume   95.30485802
_cell_formula_units_Z   1
loop_
 _symmetry_equiv_pos_site_id
 _symmetry_equiv_pos_as_xyz
  1  'x, y, z'
loop_
 _atom_site_type_symbol
 _atom_site_label
 _atom_site_symmetry_multiplicity
 _atom_site_fract_x
 _atom_site_fract_y
 _atom_site_fract_z
 _atom_site_occupancy
  Yb  Yb0  1  0.00000000  0.00000000  0.00000000  1
  Zn  Zn0  1  0.66666700  0.33333300  0.63639400  1
  Zn  Zn1  1  0.33333300  0.66666700  0.36360600  1
  P  P0  1  0.66666700  0.33333300  0.25901100  1
  P  P1  1  0.33333300  0.66666700  0.74098900  1
loop_
_geom_bond_atom_site_label_1
_geom_bond_atom_site_label_2
_geom_bond_distance
_geom_bond_site_symmetry_2
P0 Zn1 2.433906 1_545
P0 Zn1 2.433906 1_655
P0 Zn1 2.433913 1_555
P0 Zn0 2.552542 1_555
P0 Yb0 2.914197 1_655
P0 Yb0 2.914200 1_665
P0 Yb0 2.914200 1_555
P1 Zn0 2.433906 1_565
P1 Zn0 2.433906 1_455
P1 Zn0 2.433913 1_555
P1 Zn1 2.552542 1_555
P1 Yb0 2.914197 1_566
P1 Yb0 2.914200 1_556
P1 Yb0 2.914200 1_666
