# generated using pymatgen
data_Ac3La
_symmetry_space_group_name_H-M   'P 1'
_cell_length_a   8.02157841
_cell_length_b   8.02159141
_cell_length_c   6.50624452
_cell_angle_alpha   90.00000000
_cell_angle_beta   90.00000000
_cell_angle_gamma   120.00004439
_symmetry_Int_Tables_number   1
_chemical_formula_structural   Ac3La
_chemical_formula_sum   'Ac6 La2'
_cell_volume   362.56108532
_cell_formula_units_Z   2
loop_
 _symmetry_equiv_pos_site_id
 _symmetry_equiv_pos_as_xyz
  1  'x, y, z'
loop_
 _atom_site_type_symbol
 _atom_site_label
 _atom_site_symmetry_multiplicity
 _atom_site_fract_x
 _atom_site_fract_y
 _atom_site_fract_z
 _atom_site_occupancy
  Ac  Ac0  1  0.83188043  0.16811957  0.75000000  1
  Ac  Ac1  1  0.33623915  0.16811957  0.75000000  1
  Ac  Ac2  1  0.83188043  0.66376085  0.75000000  1
  Ac  Ac3  1  0.16811957  0.83188143  0.24999900  1
  Ac  Ac4  1  0.66376185  0.83188143  0.24999900  1
  Ac  Ac5  1  0.16811857  0.33623815  0.24999900  1
  La  La0  1  0.66666700  0.33333400  0.24999900  1
  La  La1  1  0.33333300  0.66666600  0.75000000  1
loop_
_geom_bond_atom_site_label_1
_geom_bond_atom_site_label_2
_geom_bond_distance
_geom_bond_site_symmetry_2
Ac0 Ac1 3.975825 1_555
Ac0 Ac2 3.975832 1_555
Ac0 La0 3.981438 1_556
Ac0 La0 3.981448 1_555
Ac0 Ac5 4.004843 1_656
Ac0 Ac4 4.004845 1_546
Ac0 Ac5 4.004853 1_655
Ac0 Ac4 4.004855 1_545
Ac0 La1 4.010837 1_655
Ac0 La1 4.010845 1_545
Ac0 Ac1 4.045753 1_655
Ac0 Ac2 4.045760 1_545
Ac1 Ac2 3.975826 1_555
Ac1 La0 3.981436 1_556
Ac1 La0 3.981446 1_555
Ac1 Ac3 4.004845 1_546
Ac1 Ac5 4.004849 1_556
Ac1 Ac3 4.004855 1_545
Ac1 Ac5 4.004859 1_555
Ac1 La1 4.010843 1_555
Ac1 La1 4.010850 1_545
Ac1 Ac2 4.045754 1_445
Ac2 La0 3.981434 1_556
Ac2 La0 3.981444 1_555
Ac2 Ac3 4.004847 1_656
Ac2 Ac4 4.004849 1_556
Ac2 Ac3 4.004857 1_655
Ac2 Ac4 4.004859 1_555
Ac2 La1 4.010840 1_655
Ac2 La1 4.010840 1_555
Ac3 Ac4 3.975833 1_555
Ac3 Ac5 3.975844 1_555
Ac3 La1 3.981442 1_554
Ac3 La1 3.981452 1_555
Ac3 La0 4.010841 1_455
Ac3 La0 4.010841 1_565
Ac3 Ac4 4.045745 1_455
Ac3 Ac5 4.045748 1_565
Ac4 Ac5 3.975842 1_555
Ac4 La1 3.981440 1_554
Ac4 La1 3.981450 1_555
Ac4 La0 4.010846 1_565
Ac4 La0 4.010847 1_555
Ac4 Ac5 4.045738 1_665
Ac5 La1 3.981438 1_554
Ac5 La1 3.981449 1_555
Ac5 La0 4.010836 1_455
Ac5 La0 4.010844 1_555
