# generated using pymatgen
data_Ca6Al2NF
_symmetry_space_group_name_H-M   'P 1'
_cell_length_a   6.96882441
_cell_length_b   6.96882441
_cell_length_c   6.96882441
_cell_angle_alpha   60.00000000
_cell_angle_beta   60.00000000
_cell_angle_gamma   60.00000000
_symmetry_Int_Tables_number   1
_chemical_formula_structural   Ca6Al2NF
_chemical_formula_sum   'Ca6 Al2 N1 F1'
_cell_volume   239.31149991
_cell_formula_units_Z   1
loop_
 _symmetry_equiv_pos_site_id
 _symmetry_equiv_pos_as_xyz
  1  'x, y, z'
loop_
 _atom_site_type_symbol
 _atom_site_label
 _atom_site_symmetry_multiplicity
 _atom_site_fract_x
 _atom_site_fract_y
 _atom_site_fract_z
 _atom_site_occupancy
  Ca  Ca0  1  0.74070400  0.25929600  0.25929600  1
  Ca  Ca1  1  0.74070400  0.25929600  0.74070400  1
  Ca  Ca2  1  0.25929600  0.74070400  0.25929600  1
  Ca  Ca3  1  0.25929600  0.25929600  0.74070400  1
  Ca  Ca4  1  0.74070400  0.74070400  0.25929600  1
  Ca  Ca5  1  0.25929600  0.74070400  0.74070400  1
  Al  Al0  1  0.75000000  0.75000000  0.75000000  1
  Al  Al1  1  0.25000000  0.25000000  0.25000000  1
  N  N0  1  0.50000000  0.50000000  0.50000000  1
  F  F0  1  0.00000000  0.00000000  0.00000000  1
loop_
_geom_bond_atom_site_label_1
_geom_bond_atom_site_label_2
_geom_bond_distance
_geom_bond_site_symmetry_2
Ca0 N0 2.372236 1_555
Ca0 F0 2.555467 1_655
Ca1 N0 2.372236 1_555
Ca1 F0 2.555467 1_656
Ca2 N0 2.372236 1_555
Ca2 F0 2.555467 1_565
Ca3 N0 2.372236 1_555
Ca3 F0 2.555467 1_556
Ca4 N0 2.372236 1_555
Ca4 F0 2.555467 1_665
Ca5 N0 2.372236 1_555
Ca5 F0 2.555467 1_566
Al0 Ca4 3.485616 1_555
Al0 Ca1 3.485616 1_565
Al0 Ca1 3.485616 1_555
Al0 Ca0 3.485616 1_556
Al0 Ca0 3.485616 1_565
Al0 Ca5 3.485616 1_555
Al0 Ca2 3.485616 1_556
Al0 Ca5 3.485616 1_655
Al0 Ca2 3.485616 1_655
Al0 Ca4 3.485616 1_556
Al0 Ca3 3.485616 1_565
Al0 Ca3 3.485616 1_655
Al1 Ca3 3.485616 1_554
Al1 Ca0 3.485616 1_455
Al1 Ca1 3.485616 1_554
Al1 Ca0 3.485616 1_555
Al1 Ca2 3.485616 1_545
Al1 Ca4 3.485616 1_455
Al1 Ca1 3.485616 1_455
Al1 Ca4 3.485616 1_545
Al1 Ca5 3.485616 1_554
Al1 Ca5 3.485616 1_545
Al1 Ca2 3.485616 1_555
Al1 Ca3 3.485616 1_555
