# generated using pymatgen
data_Mo3I
_symmetry_space_group_name_H-M   'P 1'
_cell_length_a   4.61756567
_cell_length_b   4.61756567
_cell_length_c   4.61756567
_cell_angle_alpha   60.00000000
_cell_angle_beta   60.00000000
_cell_angle_gamma   60.00000000
_symmetry_Int_Tables_number   1
_chemical_formula_structural   Mo3I
_chemical_formula_sum   'Mo3 I1'
_cell_volume   69.61843317
_cell_formula_units_Z   1
loop_
 _symmetry_equiv_pos_site_id
 _symmetry_equiv_pos_as_xyz
  1  'x, y, z'
loop_
 _atom_site_type_symbol
 _atom_site_label
 _atom_site_symmetry_multiplicity
 _atom_site_fract_x
 _atom_site_fract_y
 _atom_site_fract_z
 _atom_site_occupancy
  Mo  Mo0  1  0.25000000  0.25000000  0.25000000  1
  Mo  Mo1  1  0.75000000  0.75000000  0.75000000  1
  Mo  Mo2  1  0.50000000  0.50000000  0.50000000  1
  I  I0  1  0.00000000  0.00000000  0.00000000  1
loop_
_geom_bond_atom_site_label_1
_geom_bond_atom_site_label_2
_geom_bond_distance
_geom_bond_site_symmetry_2
Mo0 Mo2 2.827670 1_554
Mo0 Mo2 2.827670 1_455
Mo0 Mo2 2.827670 1_545
Mo0 Mo2 2.827670 1_555
Mo1 Mo2 2.827670 1_655
Mo1 Mo2 2.827670 1_556
Mo1 Mo2 2.827670 1_565
Mo1 Mo2 2.827670 1_555
I0 Mo1 2.827670 1_445
I0 Mo1 2.827670 1_544
I0 Mo1 2.827670 1_454
I0 Mo1 2.827670 1_444
I0 Mo0 2.827670 1_554
I0 Mo0 2.827670 1_455
I0 Mo0 2.827670 1_545
I0 Mo0 2.827670 1_555
I0 Mo2 3.265112 1_455
I0 Mo2 3.265112 1_544
I0 Mo2 3.265112 1_545
I0 Mo2 3.265112 1_445
I0 Mo2 3.265112 1_454
I0 Mo2 3.265112 1_554
