# generated using pymatgen
data_Zn3Cu
_symmetry_space_group_name_H-M   'P 1'
_cell_length_a   5.37678012
_cell_length_b   5.37692684
_cell_length_c   4.21903580
_cell_angle_alpha   89.99999515
_cell_angle_beta   90.00000000
_cell_angle_gamma   119.99909737
_symmetry_Int_Tables_number   1
_chemical_formula_structural   Zn3Cu
_chemical_formula_sum   'Zn6 Cu2'
_cell_volume   105.63411453
_cell_formula_units_Z   2
loop_
 _symmetry_equiv_pos_site_id
 _symmetry_equiv_pos_as_xyz
  1  'x, y, z'
loop_
 _atom_site_type_symbol
 _atom_site_label
 _atom_site_symmetry_multiplicity
 _atom_site_fract_x
 _atom_site_fract_y
 _atom_site_fract_z
 _atom_site_occupancy
  Zn  Zn0  1  0.16973091  0.33945947  0.24999962  1
  Zn  Zn1  1  0.66054011  0.83026849  0.24999960  1
  Zn  Zn2  1  0.16973044  0.83026891  0.24999962  1
  Zn  Zn3  1  0.83027144  0.66053953  0.74999938  1
  Zn  Zn4  1  0.33946153  0.16973009  0.74999938  1
  Zn  Zn5  1  0.83027061  0.16973051  0.74999940  1
  Cu  Cu0  1  0.33333063  0.66666730  0.74999932  1
  Cu  Cu1  1  0.66666333  0.33333170  0.24999968  1
loop_
_geom_bond_atom_site_label_1
_geom_bond_atom_site_label_2
_geom_bond_distance
_geom_bond_site_symmetry_2
Zn0 Zn4 2.636025 1_555
Zn0 Zn5 2.636026 1_455
Zn0 Zn4 2.636027 1_554
Zn0 Zn5 2.636028 1_454
Zn0 Zn1 2.639045 1_555
Zn0 Zn2 2.639048 1_555
Zn0 Zn2 2.737879 1_545
Zn0 Zn1 2.737882 1_445
Zn1 Zn3 2.636026 1_555
Zn1 Zn3 2.636027 1_554
Zn1 Zn5 2.636057 1_565
Zn1 Zn5 2.636058 1_564
Zn1 Zn2 2.638977 1_555
Zn1 Zn2 2.737803 1_655
Zn2 Zn3 2.636022 1_455
Zn2 Zn3 2.636024 1_454
Zn2 Zn4 2.636054 1_565
Zn2 Zn4 2.636056 1_564
Zn3 Zn5 2.639042 1_555
Zn3 Zn4 2.639048 1_555
Zn3 Zn4 2.737879 1_665
Zn3 Zn5 2.737885 1_565
Zn4 Zn5 2.638971 1_555
Zn4 Zn5 2.737809 1_455
Cu0 Zn2 2.602198 1_555
Cu0 Zn2 2.602200 1_556
Cu0 Zn1 2.602219 1_555
Cu0 Zn1 2.602221 1_556
Cu0 Zn0 2.602239 1_555
Cu0 Zn0 2.602241 1_556
Cu0 Zn3 2.688516 1_455
Cu0 Zn3 2.688567 1_555
Cu0 Zn4 2.688602 1_565
Cu0 Zn5 2.688605 1_455
Cu0 Zn5 2.688624 1_565
Cu0 Zn4 2.688628 1_555
Cu1 Zn4 2.602198 1_555
Cu1 Zn4 2.602200 1_554
Cu1 Zn5 2.602216 1_555
Cu1 Zn5 2.602218 1_554
Cu1 Zn3 2.602239 1_555
Cu1 Zn3 2.602241 1_554
Cu1 Zn0 2.688522 1_555
Cu1 Zn0 2.688561 1_655
Cu1 Zn2 2.688604 1_545
Cu1 Zn1 2.688605 1_555
Cu1 Zn1 2.688624 1_545
Cu1 Zn2 2.688626 1_655
