# generated using pymatgen
data_Na3Ni2SbO6
_symmetry_space_group_name_H-M   'P 1'
_cell_length_a   5.36447805
_cell_length_b   9.29358157
_cell_length_c   5.68393855
_cell_angle_alpha   105.76609369
_cell_angle_beta   99.02739426
_cell_angle_gamma   89.97828326
_symmetry_Int_Tables_number   1
_chemical_formula_structural   Na3Ni2SbO6
_chemical_formula_sum   'Na6 Ni4 Sb2 O12'
_cell_volume   269.06888205
_cell_formula_units_Z   2
loop_
 _symmetry_equiv_pos_site_id
 _symmetry_equiv_pos_as_xyz
  1  'x, y, z'
loop_
 _atom_site_type_symbol
 _atom_site_label
 _atom_site_symmetry_multiplicity
 _atom_site_fract_x
 _atom_site_fract_y
 _atom_site_fract_z
 _atom_site_occupancy
  Na  Na0  1  0.25000000  0.25000000  0.49999900  1
  Na  Na1  1  0.75000000  0.75000000  0.49999900  1
  Na  Na2  1  0.76213000  0.41262300  0.50000000  1
  Na  Na3  1  0.26213000  0.91262300  0.50000000  1
  Na  Na4  1  0.73786900  0.08737700  0.50000000  1
  Na  Na5  1  0.23786900  0.58737700  0.50000000  1
  Ni  Ni0  1  0.50069700  0.83310100  0.99999900  1
  Ni  Ni1  1  0.99930300  0.66689900  0.99999900  1
  Ni  Ni2  1  0.00069700  0.33310100  0.99999900  1
  Ni  Ni3  1  0.49930300  0.16689900  0.99999900  1
  Sb  Sb0  1  0.00000000  0.00000000  0.00000000  1
  Sb  Sb1  1  0.50000000  0.50000000  0.00000000  1
  O  O0  1  0.12486900  0.12486800  0.79571600  1
  O  O1  1  0.62486900  0.62486800  0.79571600  1
  O  O2  1  0.37513200  0.37513200  0.20428400  1
  O  O3  1  0.87513200  0.87513200  0.20428400  1
  O  O4  1  0.87471400  0.19319300  0.20441400  1
  O  O5  1  0.37471400  0.69319300  0.20441400  1
  O  O6  1  0.35243100  0.03395300  0.20441400  1
  O  O7  1  0.85243100  0.53395300  0.20441400  1
  O  O8  1  0.14757000  0.46604600  0.79558500  1
  O  O9  1  0.64757000  0.96604600  0.79558500  1
  O  O10  1  0.62528500  0.30680800  0.79558500  1
  O  O11  1  0.12528500  0.80680800  0.79558500  1
loop_
_geom_bond_atom_site_label_1
_geom_bond_atom_site_label_2
_geom_bond_distance
_geom_bond_site_symmetry_2
Na0 O8 2.368920 1_555
Na0 O10 2.368924 1_555
Na0 O4 2.368925 1_455
Na0 O6 2.368925 1_555
Na0 O2 2.458667 1_555
Na0 O0 2.458675 1_555
Na1 O9 2.368920 1_555
Na1 O11 2.368924 1_655
Na1 O5 2.368925 1_555
Na1 O7 2.368925 1_555
Na1 O3 2.458667 1_555
Na1 O1 2.458675 1_555
Na2 O10 2.369410 1_555
Na2 O7 2.369417 1_555
Na2 O4 2.408693 1_555
Na2 O8 2.408702 1_655
Na2 O1 2.417395 1_555
Na2 O2 2.417395 1_555
Na3 O11 2.369410 1_555
Na3 O6 2.369417 1_565
Na3 O5 2.408693 1_555
Na3 O9 2.408702 1_555
Na3 O0 2.417395 1_565
Na3 O3 2.417395 1_455
Na4 O9 2.369415 1_545
Na4 O4 2.369421 1_555
Na4 O10 2.408696 1_555
Na4 O6 2.408697 1_555
Na4 O3 2.417399 1_545
Na4 O0 2.417403 1_655
Na5 O8 2.369415 1_555
Na5 O5 2.369421 1_555
Na5 O11 2.408696 1_555
Na5 O7 2.408697 1_455
Na5 O2 2.417399 1_555
Na5 O1 2.417403 1_555
Ni0 O1 2.134877 1_555
Ni0 O3 2.134879 1_556
Ni0 O9 2.136681 1_555
Ni0 O5 2.136682 1_556
Ni0 O6 2.139441 1_566
Ni0 O11 2.139443 1_555
Ni1 O1 2.134870 1_555
Ni1 O3 2.134879 1_556
Ni1 O11 2.136683 1_655
Ni1 O7 2.136689 1_556
Ni1 O5 2.139441 1_656
Ni1 O8 2.139448 1_655
Ni2 O0 2.134877 1_555
Ni2 O2 2.134879 1_556
Ni2 O8 2.136681 1_555
Ni2 O4 2.136682 1_456
Ni2 O7 2.139441 1_456
Ni2 O10 2.139443 1_455
Ni3 O0 2.134870 1_555
Ni3 O2 2.134879 1_556
Ni3 O10 2.136683 1_555
Ni3 O6 2.136689 1_556
Ni3 O4 2.139441 1_556
Ni3 O9 2.139448 1_545
O0 Sb0 2.029915 1_556
O1 Sb1 2.029915 1_556
O2 Sb1 2.029913 1_555
O3 Sb0 2.029913 1_665
O4 Sb0 2.033675 1_655
O5 Sb1 2.033675 1_555
O6 Sb0 2.033668 1_555
O7 Sb1 2.033668 1_555
O8 Sb1 2.033666 1_556
O9 Sb0 2.033666 1_666
O10 Sb1 2.033668 1_556
O11 Sb0 2.033668 1_566
