# generated using pymatgen
data_YTmRh2
_symmetry_space_group_name_H-M   'P 1'
_cell_length_a   4.78787319
_cell_length_b   4.78787319
_cell_length_c   4.78787319
_cell_angle_alpha   60.00000000
_cell_angle_beta   60.00000000
_cell_angle_gamma   60.00000000
_symmetry_Int_Tables_number   1
_chemical_formula_structural   YTmRh2
_chemical_formula_sum   'Y1 Tm1 Rh2'
_cell_volume   77.60914877
_cell_formula_units_Z   1
loop_
 _symmetry_equiv_pos_site_id
 _symmetry_equiv_pos_as_xyz
  1  'x, y, z'
loop_
 _atom_site_type_symbol
 _atom_site_label
 _atom_site_symmetry_multiplicity
 _atom_site_fract_x
 _atom_site_fract_y
 _atom_site_fract_z
 _atom_site_occupancy
  Y  Y0  1  0.75000100  0.75000100  0.75000100  1
  Tm  Tm0  1  0.25000000  0.25000000  0.25000000  1
  Rh  Rh0  1  -0.00000000  -0.00000000  -0.00000000  1
  Rh  Rh1  1  0.50000100  0.50000100  0.50000100  1
loop_
_geom_bond_atom_site_label_1
_geom_bond_atom_site_label_2
_geom_bond_distance
_geom_bond_site_symmetry_2
Rh0 Y0 2.931950 1_444
Rh0 Tm0 2.931962 1_554
Rh0 Tm0 2.931962 1_555
Rh0 Tm0 2.931962 1_545
Rh0 Tm0 2.931962 1_455
Rh0 Y0 2.931965 1_544
Rh0 Y0 2.931965 1_454
Rh0 Y0 2.931965 1_445
Rh1 Tm0 2.931958 1_565
Rh1 Tm0 2.931958 1_556
Rh1 Tm0 2.931958 1_655
Rh1 Y0 2.931962 1_555
Rh1 Y0 2.931962 1_554
Rh1 Y0 2.931962 1_545
Rh1 Y0 2.931962 1_455
Rh1 Tm0 2.931973 1_555
