# generated using pymatgen
data_TlCdS2
_symmetry_space_group_name_H-M   'P 1'
_cell_length_a   3.88642494
_cell_length_b   3.88642494
_cell_length_c   7.07538100
_cell_angle_alpha   90.00000000
_cell_angle_beta   90.00000000
_cell_angle_gamma   120.00001601
_symmetry_Int_Tables_number   1
_chemical_formula_structural   TlCdS2
_chemical_formula_sum   'Tl1 Cd1 S2'
_cell_volume   92.55096719
_cell_formula_units_Z   1
loop_
 _symmetry_equiv_pos_site_id
 _symmetry_equiv_pos_as_xyz
  1  'x, y, z'
loop_
 _atom_site_type_symbol
 _atom_site_label
 _atom_site_symmetry_multiplicity
 _atom_site_fract_x
 _atom_site_fract_y
 _atom_site_fract_z
 _atom_site_occupancy
  Tl  Tl0  1  0.00000000  0.00000000  0.50000000  1
  Cd  Cd0  1  0.33333300  0.66666700  0.00000000  1
  S  S0  1  0.66666700  0.33333300  0.22838900  1
  S  S1  1  0.66666700  0.33333300  0.77161100  1
loop_
_geom_bond_atom_site_label_1
_geom_bond_atom_site_label_2
_geom_bond_distance
_geom_bond_site_symmetry_2
Cd0 S1 2.765143 1_454
Cd0 S0 2.765143 1_455
Cd0 S1 2.765143 1_564
Cd0 S0 2.765143 1_565
Cd0 S1 2.765149 1_554
Cd0 S0 2.765149 1_555
S0 Tl0 2.954299 1_655
S0 Tl0 2.954302 1_555
S0 Tl0 2.954302 1_665
S1 Tl0 2.954299 1_655
S1 Tl0 2.954302 1_665
S1 Tl0 2.954302 1_555
