# generated using pymatgen
data_Al2SiO5
_symmetry_space_group_name_H-M   'P 1'
_cell_length_a   5.30209274
_cell_length_b   5.30209274
_cell_length_c   6.69984930
_cell_angle_alpha   70.34496671
_cell_angle_beta   70.34496671
_cell_angle_gamma   52.83696946
_symmetry_Int_Tables_number   1
_chemical_formula_structural   Al2SiO5
_chemical_formula_sum   'Al4 Si2 O10'
_cell_volume   139.10922181
_cell_formula_units_Z   2
loop_
 _symmetry_equiv_pos_site_id
 _symmetry_equiv_pos_as_xyz
  1  'x, y, z'
loop_
 _atom_site_type_symbol
 _atom_site_label
 _atom_site_symmetry_multiplicity
 _atom_site_fract_x
 _atom_site_fract_y
 _atom_site_fract_z
 _atom_site_occupancy
  Al  Al0  1  0.87709400  0.85633700  0.72705400  1
  Al  Al1  1  0.14366300  0.12290600  0.77294600  1
  Al  Al2  1  0.85633700  0.87709400  0.22705400  1
  Al  Al3  1  0.12290600  0.14366300  0.27294600  1
  Si  Si0  1  0.50000000  0.50000000  0.50000000  1
  Si  Si1  1  0.50000000  0.50000000  0.00000000  1
  O  O0  1  0.31147600  0.68852400  0.25000000  1
  O  O1  1  0.68852400  0.31147600  0.75000000  1
  O  O2  1  0.90694800  0.25566000  0.04777800  1
  O  O3  1  0.74434000  0.09305200  0.45222200  1
  O  O4  1  0.09305200  0.74434000  0.95222200  1
  O  O5  1  0.25566000  0.90694800  0.54777800  1
  O  O6  1  0.53765200  0.82316600  0.85401200  1
  O  O7  1  0.17683400  0.46234800  0.64598800  1
  O  O8  1  0.46234800  0.17683400  0.14598800  1
  O  O9  1  0.82316600  0.53765200  0.35401200  1
loop_
_geom_bond_atom_site_label_1
_geom_bond_atom_site_label_2
_geom_bond_distance
_geom_bond_site_symmetry_2
Al0 O6 1.801531 1_555
Al0 O7 1.831960 1_655
Al0 O4 1.917674 1_655
Al0 O3 1.926417 1_565
Al0 O1 2.019384 1_565
Al0 O5 2.087010 1_655
Al1 O7 1.801531 1_555
Al1 O6 1.831960 1_545
Al1 O5 1.917674 1_545
Al1 O2 1.926417 1_456
Al1 O1 2.019384 1_455
Al1 O4 2.087010 1_545
Al2 O9 1.801531 1_555
Al2 O8 1.831960 1_565
Al2 O3 1.917674 1_565
Al2 O4 1.926417 1_654
Al2 O0 2.019384 1_655
Al2 O2 2.087010 1_565
Al3 O8 1.801531 1_555
Al3 O9 1.831960 1_455
Al3 O2 1.917674 1_455
Al3 O5 1.926417 1_545
Al3 O0 2.019384 1_545
Al3 O3 2.087010 1_455
O0 Si1 1.896484 1_555
O0 Si0 1.896484 1_555
O1 Si0 1.896484 1_555
O1 Si1 1.896484 1_556
O2 Si1 1.801347 1_555
O3 Si0 1.801347 1_555
O4 Si1 1.801347 1_556
O5 Si0 1.801347 1_555
O6 Si1 1.756975 1_556
O7 Si0 1.756975 1_555
O8 Si1 1.756975 1_555
O9 Si0 1.756975 1_555
