# generated using pymatgen
data_AcMg3
_symmetry_space_group_name_H-M   'P 1'
_cell_length_a   5.44220778
_cell_length_b   5.44220778
_cell_length_c   5.44220778
_cell_angle_alpha   119.92621941
_cell_angle_beta   119.92621941
_cell_angle_gamma   90.12783930
_symmetry_Int_Tables_number   1
_chemical_formula_structural   AcMg3
_chemical_formula_sum   'Ac1 Mg3'
_cell_volume   114.10199530
_cell_formula_units_Z   1
loop_
 _symmetry_equiv_pos_site_id
 _symmetry_equiv_pos_as_xyz
  1  'x, y, z'
loop_
 _atom_site_type_symbol
 _atom_site_label
 _atom_site_symmetry_multiplicity
 _atom_site_fract_x
 _atom_site_fract_y
 _atom_site_fract_z
 _atom_site_occupancy
  Ac  Ac0  1  -0.00000000  -0.00000000  -0.00000000  1
  Mg  Mg0  1  0.49999900  0.49999900  -0.00000000  1
  Mg  Mg1  1  0.75000100  0.25000100  0.50000000  1
  Mg  Mg2  1  0.25000100  0.75000100  0.50000000  1
loop_
_geom_bond_atom_site_label_1
_geom_bond_atom_site_label_2
_geom_bond_distance
_geom_bond_site_symmetry_2
Ac0 Mg2 3.333893 1_545
Ac0 Mg1 3.333893 1_455
Ac0 Mg1 3.333893 1_444
Ac0 Mg2 3.333893 1_444
Ac0 Mg1 3.333902 1_555
Ac0 Mg2 3.333902 1_544
Ac0 Mg2 3.333902 1_555
Ac0 Mg1 3.333902 1_454
Ac0 Mg0 3.843919 1_555
Ac0 Mg0 3.843934 1_445
Ac0 Mg0 3.852513 1_444
Ac0 Mg0 3.852513 1_455
Ac0 Mg0 3.852513 1_545
Ac0 Mg0 3.852513 1_556
Mg0 Mg1 3.333888 1_454
Mg0 Mg2 3.333888 1_544
Mg0 Mg2 3.333888 1_555
Mg0 Mg1 3.333888 1_555
Mg0 Mg2 3.333906 1_655
Mg0 Mg1 3.333906 1_565
Mg0 Mg1 3.333906 1_554
Mg0 Mg2 3.333906 1_554
