# generated using pymatgen
data_PmTm3
_symmetry_space_group_name_H-M   'P 1'
_cell_length_a   6.10613364
_cell_length_b   6.10613364
_cell_length_c   6.10613364
_cell_angle_alpha   131.61396875
_cell_angle_beta   131.61396875
_cell_angle_gamma   70.83940888
_symmetry_Int_Tables_number   1
_chemical_formula_structural   PmTm3
_chemical_formula_sum   'Pm1 Tm3'
_cell_volume   124.63712925
_cell_formula_units_Z   1
loop_
 _symmetry_equiv_pos_site_id
 _symmetry_equiv_pos_as_xyz
  1  'x, y, z'
loop_
 _atom_site_type_symbol
 _atom_site_label
 _atom_site_symmetry_multiplicity
 _atom_site_fract_x
 _atom_site_fract_y
 _atom_site_fract_z
 _atom_site_occupancy
  Pm  Pm0  1  -0.00000000  0.00000000  0.00000000  1
  Tm  Tm0  1  0.75000100  0.25000000  0.50000100  1
  Tm  Tm1  1  0.25000000  0.75000100  0.50000100  1
  Tm  Tm2  1  0.50000000  0.50000000  0.00000000  1
loop_
_geom_bond_atom_site_label_1
_geom_bond_atom_site_label_2
_geom_bond_distance
_geom_bond_site_symmetry_2
Pm0 Tm1 3.528755 1_544
Pm0 Tm0 3.528755 1_454
Pm0 Tm0 3.528758 1_444
Pm0 Tm1 3.528758 1_444
Pm0 Tm1 3.528758 1_545
Pm0 Tm0 3.528758 1_455
Pm0 Tm0 3.528762 1_555
Pm0 Tm1 3.528762 1_555
Pm0 Tm2 3.538880 1_455
Pm0 Tm2 3.538880 1_556
Pm0 Tm2 3.538880 1_444
Pm0 Tm2 3.538880 1_545
Tm0 Tm2 3.528755 1_656
Tm0 Tm2 3.528758 1_556
Tm0 Tm2 3.528758 1_545
Tm0 Tm2 3.528762 1_555
Tm0 Tm1 3.538873 1_645
Tm0 Tm1 3.538880 1_544
Tm0 Tm1 3.538880 1_656
Tm0 Tm1 3.538887 1_555
Tm1 Tm2 3.528755 1_566
Tm1 Tm2 3.528758 1_556
Tm1 Tm2 3.528758 1_455
Tm1 Tm2 3.528762 1_555
