# generated using pymatgen
data_MgIn5
_symmetry_space_group_name_H-M   'P 1'
_cell_length_a   17.37575868
_cell_length_b   17.37575868
_cell_length_c   10.77949582
_cell_angle_alpha   90.00000000
_cell_angle_beta   90.00000000
_cell_angle_gamma   157.98495796
_symmetry_Int_Tables_number   1
_chemical_formula_structural   MgIn5
_chemical_formula_sum   'Mg8 In40'
_cell_volume   1219.95416174
_cell_formula_units_Z   8
loop_
 _symmetry_equiv_pos_site_id
 _symmetry_equiv_pos_as_xyz
  1  'x, y, z'
loop_
 _atom_site_type_symbol
 _atom_site_label
 _atom_site_symmetry_multiplicity
 _atom_site_fract_x
 _atom_site_fract_y
 _atom_site_fract_z
 _atom_site_occupancy
  Mg  Mg0_0  1  0.11086275  0.38913725  0.25000000  1
  Mg  Mg0_1  1  0.11086275  0.38913725  0.75000000  1
  Mg  Mg0_2  1  0.11086275  0.88913725  0.25000000  1
  Mg  Mg0_3  1  0.11086275  0.88913725  0.75000000  1
  Mg  Mg0_4  1  0.61086275  0.38913725  0.25000000  1
  Mg  Mg0_5  1  0.61086275  0.38913725  0.75000000  1
  Mg  Mg0_6  1  0.61086275  0.88913725  0.25000000  1
  Mg  Mg0_7  1  0.61086275  0.88913725  0.75000000  1
  In  In0_0  1  0.49949032  0.00050968  0.00000000  1
  In  In0_1  1  0.49949032  0.00050968  0.50000000  1
  In  In0_2  1  0.49949032  0.50050968  0.00000000  1
  In  In0_3  1  0.49949032  0.50050968  0.50000000  1
  In  In0_4  1  0.99949032  0.00050968  0.00000000  1
  In  In0_5  1  0.99949032  0.00050968  0.50000000  1
  In  In0_6  1  0.99949032  0.50050968  0.00000000  1
  In  In0_7  1  0.99949032  0.50050968  0.50000000  1
  In  In1_0  1  0.33502755  0.16497244  0.00000000  1
  In  In1_1  1  0.33502755  0.16497244  0.50000000  1
  In  In1_2  1  0.33502755  0.66497245  0.00000000  1
  In  In1_3  1  0.33502755  0.66497245  0.50000000  1
  In  In1_4  1  0.83502756  0.16497245  0.00000000  1
  In  In1_5  1  0.83502756  0.16497245  0.50000000  1
  In  In1_6  1  0.83502755  0.66497244  0.00000000  1
  In  In1_7  1  0.83502755  0.66497244  0.50000000  1
  In  In2_0  1  0.16587830  0.33412170  0.00000000  1
  In  In2_1  1  0.16587830  0.33412170  0.50000000  1
  In  In2_2  1  0.16587830  0.83412171  0.00000000  1
  In  In2_3  1  0.16587830  0.83412171  0.50000000  1
  In  In2_4  1  0.66587830  0.33412170  0.00000000  1
  In  In2_5  1  0.66587830  0.33412170  0.50000000  1
  In  In2_6  1  0.66587829  0.83412170  0.00000000  1
  In  In2_7  1  0.66587829  0.83412170  0.50000000  1
  In  In3_0  1  0.28005274  0.21994726  0.25000000  1
  In  In3_1  1  0.28005274  0.21994726  0.75000000  1
  In  In3_2  1  0.28005274  0.71994726  0.25000000  1
  In  In3_3  1  0.28005274  0.71994726  0.75000000  1
  In  In3_4  1  0.78005274  0.21994726  0.25000000  1
  In  In3_5  1  0.78005274  0.21994726  0.75000000  1
  In  In3_6  1  0.78005274  0.71994725  0.25000000  1
  In  In3_7  1  0.78005274  0.71994725  0.75000000  1
  In  In4_0  1  0.44261283  0.05738716  0.25000000  1
  In  In4_1  1  0.44261283  0.05738716  0.75000000  1
  In  In4_2  1  0.44261283  0.55738716  0.25000000  1
  In  In4_3  1  0.44261283  0.55738716  0.75000000  1
  In  In4_4  1  0.94261284  0.05738717  0.25000000  1
  In  In4_5  1  0.94261284  0.05738717  0.75000000  1
  In  In4_6  1  0.94261283  0.55738716  0.25000000  1
  In  In4_7  1  0.94261283  0.55738716  0.75000000  1
loop_
_geom_bond_atom_site_label_1
_geom_bond_atom_site_label_2
_geom_bond_distance
_geom_bond_site_symmetry_2
Mg0_0 Mg0_6 3.317690 1_555
Mg0_0 Mg0_6 3.317690 1_445
Mg0_1 Mg0_7 3.317690 1_555
Mg0_1 Mg0_7 3.317690 1_445
Mg0_2 Mg0_4 3.317690 1_455
Mg0_2 Mg0_4 3.317690 1_565
Mg0_3 Mg0_5 3.317690 1_455
Mg0_3 Mg0_5 3.317690 1_565
In0_0 In2_4 3.299506 1_555
In0_0 In2_2 3.299506 1_545
In0_0 In0_6 3.317690 1_555
In0_0 In0_6 3.317690 1_445
In0_0 In4_0 3.320659 1_555
In0_0 In4_1 3.320659 1_554
In0_0 In3_5 3.331820 1_554
In0_0 In3_4 3.331820 1_555
In0_0 In3_2 3.331820 1_545
In0_0 In3_3 3.331820 1_544
In0_0 In1_2 3.356438 1_545
In0_0 In1_4 3.356438 1_555
In0_1 In2_5 3.299506 1_555
In0_1 In2_3 3.299506 1_545
In0_1 In0_7 3.317690 1_555
In0_1 In0_7 3.317690 1_445
In0_1 In4_1 3.320659 1_555
In0_1 In4_0 3.320659 1_555
In0_1 In3_5 3.331820 1_555
In0_1 In3_2 3.331820 1_545
In0_1 In3_3 3.331820 1_545
In0_1 In3_4 3.331820 1_555
In0_1 In1_3 3.356438 1_545
In0_1 In1_5 3.356438 1_555
In0_2 In2_0 3.299506 1_555
In0_2 In2_6 3.299506 1_555
In0_2 In0_4 3.317690 1_565
In0_2 In0_4 3.317690 1_455
In0_2 In4_3 3.320659 1_554
In0_2 In4_2 3.320659 1_555
In0_2 In3_6 3.331820 1_555
In0_2 In3_7 3.331820 1_554
In0_2 In3_1 3.331820 1_554
In0_2 In3_0 3.331820 1_555
In0_2 In1_0 3.356438 1_555
In0_2 In1_6 3.356438 1_555
In0_3 In2_1 3.299506 1_555
In0_3 In2_7 3.299506 1_555
In0_3 In0_5 3.317690 1_565
In0_3 In0_5 3.317690 1_455
In0_3 In4_2 3.320659 1_555
In0_3 In4_3 3.320659 1_555
In0_3 In3_6 3.331820 1_555
In0_3 In3_7 3.331820 1_555
In0_3 In3_1 3.331820 1_555
In0_3 In3_0 3.331820 1_555
In0_3 In1_1 3.356438 1_555
In0_3 In1_7 3.356438 1_555
In0_4 In2_0 3.299506 1_655
In0_4 In2_6 3.299506 1_545
In0_4 In4_5 3.320659 1_554
In0_4 In4_4 3.320659 1_555
In0_4 In3_1 3.331820 1_654
In0_4 In3_0 3.331820 1_655
In0_4 In3_6 3.331820 1_545
In0_4 In3_7 3.331820 1_544
In0_4 In1_0 3.356438 1_655
In0_4 In1_6 3.356438 1_545
In0_5 In2_1 3.299506 1_655
In0_5 In2_7 3.299506 1_545
In0_5 In4_5 3.320659 1_555
In0_5 In4_4 3.320659 1_555
In0_5 In3_0 3.331820 1_655
In0_5 In3_1 3.331820 1_655
In0_5 In3_6 3.331820 1_545
In0_5 In3_7 3.331820 1_545
In0_5 In1_1 3.356438 1_655
In0_5 In1_7 3.356438 1_545
In0_6 In2_4 3.299506 1_555
In0_6 In2_2 3.299506 1_655
In0_6 In4_6 3.320659 1_555
In0_6 In4_7 3.320659 1_554
In0_6 In3_5 3.331820 1_554
In0_6 In3_2 3.331820 1_655
In0_6 In3_3 3.331820 1_654
In0_6 In3_4 3.331820 1_555
In0_6 In1_2 3.356438 1_655
In0_6 In1_4 3.356438 1_555
In0_7 In2_5 3.299506 1_555
In0_7 In2_3 3.299506 1_655
In0_7 In4_6 3.320659 1_555
In0_7 In4_7 3.320659 1_555
In0_7 In3_5 3.331820 1_555
In0_7 In3_2 3.331820 1_655
In0_7 In3_3 3.331820 1_655
In0_7 In3_4 3.331820 1_555
In0_7 In1_3 3.356438 1_655
In0_7 In1_5 3.356438 1_555
In1_0 In2_2 3.218431 1_545
In1_0 In2_4 3.218431 1_555
In1_0 In3_1 3.283159 1_554
In1_0 In3_0 3.283159 1_555
In1_0 Mg0_3 3.284934 1_544
In1_0 Mg0_2 3.284934 1_545
In1_0 Mg0_4 3.284934 1_555
In1_0 Mg0_5 3.284934 1_554
In1_0 In1_6 3.317690 1_555
In1_0 In1_6 3.317690 1_445
In1_1 In2_3 3.218431 1_545
In1_1 In2_5 3.218431 1_555
In1_1 In3_0 3.283159 1_555
In1_1 In3_1 3.283159 1_555
In1_1 Mg0_3 3.284934 1_545
In1_1 Mg0_2 3.284934 1_545
In1_1 Mg0_5 3.284934 1_555
In1_1 Mg0_4 3.284934 1_555
In1_1 In1_7 3.317690 1_555
In1_1 In1_7 3.317690 1_445
In1_2 In2_6 3.218431 1_555
In1_2 In2_0 3.218431 1_555
In1_2 In3_2 3.283159 1_555
In1_2 In3_3 3.283159 1_554
In1_2 Mg0_6 3.284934 1_555
In1_2 Mg0_7 3.284934 1_554
In1_2 Mg0_0 3.284934 1_555
In1_2 Mg0_1 3.284934 1_554
In1_2 In1_4 3.317690 1_565
In1_2 In1_4 3.317690 1_455
In1_3 In2_7 3.218431 1_555
In1_3 In2_1 3.218431 1_555
In1_3 In3_3 3.283159 1_555
In1_3 In3_2 3.283159 1_555
In1_3 Mg0_6 3.284934 1_555
In1_3 Mg0_7 3.284934 1_555
In1_3 Mg0_1 3.284934 1_555
In1_3 Mg0_0 3.284934 1_555
In1_3 In1_5 3.317690 1_455
In1_3 In1_5 3.317690 1_565
In1_4 In2_6 3.218431 1_545
In1_4 In2_0 3.218431 1_655
In1_4 In3_4 3.283159 1_555
In1_4 In3_5 3.283159 1_554
In1_4 Mg0_1 3.284934 1_654
In1_4 Mg0_0 3.284934 1_655
In1_4 Mg0_7 3.284934 1_544
In1_4 Mg0_6 3.284934 1_545
In1_5 In2_7 3.218431 1_545
In1_5 In2_1 3.218431 1_655
In1_5 In3_5 3.283159 1_555
In1_5 In3_4 3.283159 1_555
In1_5 Mg0_1 3.284934 1_655
In1_5 Mg0_0 3.284934 1_655
In1_5 Mg0_6 3.284934 1_545
In1_5 Mg0_7 3.284934 1_545
In1_6 In2_2 3.218431 1_655
In1_6 In2_4 3.218431 1_555
In1_6 In3_6 3.283159 1_555
In1_6 In3_7 3.283159 1_554
In1_6 Mg0_2 3.284934 1_655
In1_6 Mg0_5 3.284934 1_554
In1_6 Mg0_4 3.284934 1_555
In1_6 Mg0_3 3.284934 1_654
In1_7 In2_3 3.218431 1_655
In1_7 In2_5 3.218431 1_555
In1_7 In3_6 3.283159 1_555
In1_7 In3_7 3.283159 1_555
In1_7 Mg0_5 3.284934 1_555
In1_7 Mg0_2 3.284934 1_655
In1_7 Mg0_3 3.284934 1_655
In1_7 Mg0_4 3.284934 1_555
In2_0 Mg0_1 3.283953 1_554
In2_0 Mg0_0 3.283953 1_555
In2_0 In4_4 3.293297 1_455
In2_0 In4_5 3.293297 1_454
In2_0 In4_3 3.293297 1_554
In2_0 In4_2 3.293297 1_555
In2_0 In2_6 3.317690 1_555
In2_0 In2_6 3.317690 1_445
In2_1 Mg0_1 3.283953 1_555
In2_1 Mg0_0 3.283953 1_555
In2_1 In4_3 3.293297 1_555
In2_1 In4_4 3.293297 1_455
In2_1 In4_5 3.293297 1_455
In2_1 In4_2 3.293297 1_555
In2_1 In2_7 3.317690 1_555
In2_1 In2_7 3.317690 1_445
In2_2 Mg0_3 3.283953 1_554
In2_2 Mg0_2 3.283953 1_555
In2_2 In4_1 3.293297 1_564
In2_2 In4_0 3.293297 1_565
In2_2 In4_7 3.293297 1_454
In2_2 In4_6 3.293297 1_455
In2_2 In2_4 3.317690 1_565
In2_2 In2_4 3.317690 1_455
In2_3 Mg0_3 3.283953 1_555
In2_3 Mg0_2 3.283953 1_555
In2_3 In4_0 3.293297 1_565
In2_3 In4_1 3.293297 1_565
In2_3 In4_7 3.293297 1_455
In2_3 In4_6 3.293297 1_455
In2_3 In2_5 3.317690 1_565
In2_3 In2_5 3.317690 1_455
In2_4 Mg0_4 3.283953 1_555
In2_4 Mg0_5 3.283953 1_554
In2_4 In4_1 3.293297 1_554
In2_4 In4_6 3.293297 1_555
In2_4 In4_7 3.293297 1_554
In2_4 In4_0 3.293297 1_555
In2_5 Mg0_5 3.283953 1_555
In2_5 Mg0_4 3.283953 1_555
In2_5 In4_6 3.293297 1_555
In2_5 In4_0 3.293297 1_555
In2_5 In4_7 3.293297 1_555
In2_5 In4_1 3.293297 1_555
In2_6 Mg0_7 3.283953 1_554
In2_6 Mg0_6 3.283953 1_555
In2_6 In4_2 3.293297 1_555
In2_6 In4_3 3.293297 1_554
In2_6 In4_4 3.293297 1_565
In2_6 In4_5 3.293297 1_564
In2_7 Mg0_7 3.283953 1_555
In2_7 Mg0_6 3.283953 1_555
In2_7 In4_2 3.293297 1_555
In2_7 In4_3 3.293297 1_555
In2_7 In4_4 3.293297 1_565
In2_7 In4_5 3.293297 1_565
In3_0 Mg0_2 3.217240 1_545
In3_0 Mg0_4 3.217240 1_555
In3_0 In4_2 3.413012 1_555
In3_0 In4_4 3.413012 1_455
In3_1 Mg0_3 3.217240 1_545
In3_1 Mg0_5 3.217240 1_555
In3_1 In4_3 3.413012 1_555
In3_1 In4_5 3.413012 1_455
In3_2 Mg0_6 3.217240 1_555
In3_2 Mg0_0 3.217240 1_555
In3_2 In4_6 3.413012 1_455
In3_2 In4_0 3.413012 1_565
In3_3 Mg0_7 3.217240 1_555
In3_3 Mg0_1 3.217240 1_555
In3_3 In4_1 3.413012 1_565
In3_3 In4_7 3.413012 1_455
In3_4 Mg0_0 3.217240 1_655
In3_4 Mg0_6 3.217240 1_545
In3_4 In4_6 3.413012 1_555
In3_4 In4_0 3.413012 1_555
In3_5 Mg0_1 3.217240 1_655
In3_5 Mg0_7 3.217240 1_545
In3_5 In4_7 3.413012 1_555
In3_5 In4_1 3.413012 1_555
In3_6 Mg0_2 3.217240 1_655
In3_6 Mg0_4 3.217240 1_555
In3_6 In4_4 3.413012 1_565
In3_6 In4_2 3.413012 1_555
In3_7 Mg0_3 3.217240 1_655
In3_7 Mg0_5 3.217240 1_555
In3_7 In4_5 3.413012 1_565
In3_7 In4_3 3.413012 1_555
In4_0 Mg0_4 3.244759 1_555
In4_0 Mg0_2 3.244759 1_545
In4_0 In4_6 3.317690 1_555
In4_0 In4_6 3.317690 1_445
In4_1 Mg0_5 3.244759 1_555
In4_1 Mg0_3 3.244759 1_545
In4_1 In4_7 3.317690 1_555
In4_1 In4_7 3.317690 1_445
In4_2 Mg0_6 3.244759 1_555
In4_2 Mg0_0 3.244759 1_555
In4_2 In4_4 3.317690 1_455
In4_2 In4_4 3.317690 1_565
In4_3 Mg0_7 3.244759 1_555
In4_3 Mg0_1 3.244759 1_555
In4_3 In4_5 3.317690 1_455
In4_3 In4_5 3.317690 1_565
In4_4 Mg0_6 3.244759 1_545
In4_4 Mg0_0 3.244759 1_655
In4_5 Mg0_7 3.244759 1_545
In4_5 Mg0_1 3.244759 1_655
In4_6 Mg0_4 3.244759 1_555
In4_6 Mg0_2 3.244759 1_655
In4_7 Mg0_5 3.244759 1_555
In4_7 Mg0_3 3.244759 1_655
