# generated using pymatgen
data_Pu3Au
_symmetry_space_group_name_H-M   'P 1'
_cell_length_a   4.76337251
_cell_length_b   4.76337251
_cell_length_c   4.76337251
_cell_angle_alpha   60.00000000
_cell_angle_beta   60.00000000
_cell_angle_gamma   60.00000000
_symmetry_Int_Tables_number   1
_chemical_formula_structural   Pu3Au
_chemical_formula_sum   'Pu3 Au1'
_cell_volume   76.42380188
_cell_formula_units_Z   1
loop_
 _symmetry_equiv_pos_site_id
 _symmetry_equiv_pos_as_xyz
  1  'x, y, z'
loop_
 _atom_site_type_symbol
 _atom_site_label
 _atom_site_symmetry_multiplicity
 _atom_site_fract_x
 _atom_site_fract_y
 _atom_site_fract_z
 _atom_site_occupancy
  Pu  Pu0  1  0.25000000  0.25000000  0.25000000  1
  Pu  Pu1  1  0.75000000  0.75000000  0.75000000  1
  Pu  Pu2  1  0.50000000  0.50000000  0.50000000  1
  Au  Au0  1  0.00000000  0.00000000  0.00000000  1
loop_
_geom_bond_atom_site_label_1
_geom_bond_atom_site_label_2
_geom_bond_distance
_geom_bond_site_symmetry_2
Pu0 Pu2 2.916958 1_554
Pu0 Pu2 2.916958 1_555
Pu0 Pu2 2.916958 1_545
Pu0 Pu2 2.916958 1_455
Pu1 Pu2 2.916958 1_565
Pu1 Pu2 2.916958 1_555
Pu1 Pu2 2.916958 1_655
Pu1 Pu2 2.916958 1_556
Au0 Pu1 2.916958 1_544
Au0 Pu0 2.916958 1_455
Au0 Pu0 2.916958 1_554
Au0 Pu0 2.916958 1_545
Au0 Pu0 2.916958 1_555
Au0 Pu1 2.916958 1_454
Au0 Pu1 2.916958 1_444
Au0 Pu1 2.916958 1_445
Au0 Pu2 3.368213 1_445
Au0 Pu2 3.368213 1_545
Au0 Pu2 3.368213 1_455
Au0 Pu2 3.368213 1_454
Au0 Pu2 3.368213 1_544
Au0 Pu2 3.368213 1_554
