# generated using pymatgen
data_KAgO2
_symmetry_space_group_name_H-M   'P 1'
_cell_length_a   4.14998044
_cell_length_b   5.92646593
_cell_length_c   6.41288458
_cell_angle_alpha   90.00000000
_cell_angle_beta   71.12128503
_cell_angle_gamma   90.00000000
_symmetry_Int_Tables_number   1
_chemical_formula_structural   KAgO2
_chemical_formula_sum   'K2 Ag2 O4'
_cell_volume   149.23847112
_cell_formula_units_Z   2
loop_
 _symmetry_equiv_pos_site_id
 _symmetry_equiv_pos_as_xyz
  1  'x, y, z'
loop_
 _atom_site_type_symbol
 _atom_site_label
 _atom_site_symmetry_multiplicity
 _atom_site_fract_x
 _atom_site_fract_y
 _atom_site_fract_z
 _atom_site_occupancy
  K  K0  1  0.29151092  0.25000000  0.41697815  1
  K  K1  1  0.70848908  0.75000000  0.58302185  1
  Ag  Ag0  1  0.00299199  0.25000000  0.99401501  1
  Ag  Ag1  1  0.99700801  0.75000000  0.00598499  1
  O  O0  1  0.11083106  0.99390838  0.77833788  1
  O  O1  1  0.88916894  0.49390838  0.22166212  1
  O  O2  1  0.11083106  0.50609162  0.77833788  1
  O  O3  1  0.88916894  0.00609162  0.22166212  1
loop_
_geom_bond_atom_site_label_1
_geom_bond_atom_site_label_2
_geom_bond_distance
_geom_bond_site_symmetry_2
K0 O2 2.666719 1_555
K0 O0 2.666719 1_545
K0 O1 2.792794 1_555
K0 O3 2.792794 1_555
K0 O3 2.792794 1_455
K0 O1 2.792794 1_455
K1 O1 2.666719 1_555
K1 O3 2.666719 1_565
K1 O2 2.792794 1_555
K1 O0 2.792794 1_555
K1 O2 2.792794 1_655
K1 O0 2.792794 1_655
Ag0 O3 1.999404 1_456
Ag0 O1 1.999404 1_456
Ag0 O2 2.004043 1_555
Ag0 O0 2.004043 1_545
Ag1 O2 1.999404 1_654
Ag1 O0 1.999404 1_654
Ag1 O1 2.004043 1_555
Ag1 O3 2.004043 1_565
