# generated using pymatgen
data_Ag2GeO3
_symmetry_space_group_name_H-M   'P 1'
_cell_length_a   4.67039895
_cell_length_b   6.97833905
_cell_length_c   10.53823366
_cell_angle_alpha   90.00000000
_cell_angle_beta   90.00000000
_cell_angle_gamma   90.00000000
_symmetry_Int_Tables_number   1
_chemical_formula_structural   Ag2GeO3
_chemical_formula_sum   'Ag8 Ge4 O12'
_cell_volume   343.45818460
_cell_formula_units_Z   4
loop_
 _symmetry_equiv_pos_site_id
 _symmetry_equiv_pos_as_xyz
  1  'x, y, z'
loop_
 _atom_site_type_symbol
 _atom_site_label
 _atom_site_symmetry_multiplicity
 _atom_site_fract_x
 _atom_site_fract_y
 _atom_site_fract_z
 _atom_site_occupancy
  Ag  Ag0  1  0.59022248  0.62751887  0.62547671  1
  Ag  Ag1  1  0.90977752  0.37248113  0.12547671  1
  Ag  Ag2  1  0.09022248  0.87248113  0.37452329  1
  Ag  Ag3  1  0.40977752  0.12751887  0.87452329  1
  Ag  Ag4  1  0.98063193  0.39344708  0.77423421  1
  Ag  Ag5  1  0.51936807  0.60655292  0.27423421  1
  Ag  Ag6  1  0.48063193  0.10655292  0.22576579  1
  Ag  Ag7  1  0.01936807  0.89344708  0.72576579  1
  Ge  Ge0  1  0.52326373  0.13047315  0.56388366  1
  Ge  Ge1  1  0.97673627  0.86952685  0.06388366  1
  Ge  Ge2  1  0.02326373  0.36952685  0.43611634  1
  Ge  Ge3  1  0.47673627  0.63047315  0.93611634  1
  O  O0  1  0.69844384  0.14069751  0.71093319  1
  O  O1  1  0.80155616  0.85930249  0.21093319  1
  O  O2  1  0.19844384  0.35930249  0.28906681  1
  O  O3  1  0.30155616  0.64069751  0.78906681  1
  O  O4  1  0.27708591  0.32765937  0.56006906  1
  O  O5  1  0.22291409  0.67234063  0.06006906  1
  O  O6  1  0.77708591  0.17234063  0.43993094  1
  O  O7  1  0.72291409  0.82765937  0.93993094  1
  O  O8  1  0.64741331  0.41359830  0.96086470  1
  O  O9  1  0.85258669  0.58640170  0.46086470  1
  O  O10  1  0.14741331  0.08640170  0.03913530  1
  O  O11  1  0.35258669  0.91359830  0.53913530  1
loop_
_geom_bond_atom_site_label_1
_geom_bond_atom_site_label_2
_geom_bond_distance
_geom_bond_site_symmetry_2
Ag0 O9 2.143141 1_555
Ag0 O3 2.190450 1_555
Ag0 O11 2.458682 1_555
Ag0 O4 2.644349 1_555
Ag1 O8 2.143141 1_554
Ag1 O2 2.190450 1_655
Ag1 O10 2.458682 1_655
Ag1 O5 2.644349 1_655
Ag2 O11 2.143141 1_555
Ag2 O1 2.190450 1_455
Ag2 O9 2.458682 1_455
Ag2 O6 2.644349 1_465
Ag3 O10 2.143141 1_556
Ag3 O0 2.190450 1_555
Ag3 O8 2.458682 1_555
Ag3 O7 2.644349 1_545
Ag4 O3 2.290843 1_655
Ag4 O0 2.300615 1_555
Ag4 O8 2.511943 1_555
Ag4 O4 2.687278 1_655
Ag5 O2 2.290843 1_555
Ag5 O1 2.300615 1_555
Ag5 O9 2.511943 1_555
Ag5 O5 2.687278 1_555
Ag6 O1 2.290843 1_545
Ag6 O2 2.300615 1_555
Ag6 O10 2.511943 1_555
Ag6 O6 2.687278 1_555
Ag7 O0 2.290843 1_465
Ag7 O3 2.300615 1_555
Ag7 O11 2.511943 1_555
Ag7 O7 2.687278 1_455
Ge0 O11 1.730287 1_545
Ge0 O0 1.753816 1_555
Ge0 O6 1.787995 1_555
Ge0 O4 1.793601 1_555
Ge1 O10 1.730287 1_665
Ge1 O1 1.753816 1_555
Ge1 O7 1.787995 1_554
Ge1 O5 1.793601 1_655
Ge2 O9 1.730287 1_455
Ge2 O2 1.753816 1_555
Ge2 O4 1.787995 1_555
Ge2 O6 1.793601 1_455
Ge3 O8 1.730287 1_555
Ge3 O3 1.753816 1_555
Ge3 O5 1.787995 1_556
Ge3 O7 1.793601 1_555
