# generated using pymatgen
data_La8Al4I7
_symmetry_space_group_name_H-M   'P 1'
_cell_length_a   4.33090900
_cell_length_b   18.13862744
_cell_length_c   25.54661661
_cell_angle_alpha   77.18568167
_cell_angle_beta   85.16662551
_cell_angle_gamma   83.14162703
_symmetry_Int_Tables_number   1
_chemical_formula_structural   La8Al4I7
_chemical_formula_sum   'La24 Al12 I21'
_cell_volume   1939.41089824
_cell_formula_units_Z   3
loop_
 _symmetry_equiv_pos_site_id
 _symmetry_equiv_pos_as_xyz
  1  'x, y, z'
loop_
 _atom_site_type_symbol
 _atom_site_label
 _atom_site_symmetry_multiplicity
 _atom_site_fract_x
 _atom_site_fract_y
 _atom_site_fract_z
 _atom_site_occupancy
  La  La0  1  0.20099200  0.89932600  0.29771800  1
  La  La1  1  0.79900800  0.10067400  0.70228200  1
  La  La2  1  0.96074900  0.30285900  0.97827700  1
  La  La3  1  0.49060800  0.73827700  0.23698200  1
  La  La4  1  0.22919700  0.12863900  0.91872800  1
  La  La5  1  0.56491000  0.58885900  0.64101900  1
  La  La6  1  0.37093700  0.78009700  0.60197200  1
  La  La7  1  0.87950700  0.74283100  0.47394100  1
  La  La8  1  0.62906300  0.21990300  0.39802800  1
  La  La9  1  0.03925100  0.69714100  0.02172300  1
  La  La10  1  0.23494100  0.51404200  0.06536500  1
  La  La11  1  0.85365500  0.42794600  0.57686400  1
  La  La12  1  0.49236200  0.95336800  0.87670400  1
  La  La13  1  0.14634500  0.57205400  0.42313600  1
  La  La14  1  0.43509000  0.41114100  0.35898100  1
  La  La15  1  0.12049300  0.25716900  0.52605900  1
  La  La16  1  0.76505900  0.48595800  0.93463500  1
  La  La17  1  0.02042000  0.09585600  0.24544800  1
  La  La18  1  0.97958000  0.90414400  0.75455200  1
  La  La19  1  0.24967500  0.43868200  0.81235500  1
  La  La20  1  0.75032500  0.56131800  0.18764500  1
  La  La21  1  0.50939200  0.26172300  0.76301800  1
  La  La22  1  0.50763800  0.04663200  0.12329600  1
  La  La23  1  0.77080300  0.87136100  0.08127200  1
  Al  Al0  1  0.94973500  0.25665900  0.86065500  1
  Al  Al1  1  0.44948400  0.67247900  0.11757400  1
  Al  Al2  1  0.82240000  0.36686000  0.45417300  1
  Al  Al3  1  0.78673400  0.13360300  0.82197300  1
  Al  Al4  1  0.81302400  0.94152500  0.19947500  1
  Al  Al5  1  0.21326600  0.86639700  0.17802700  1
  Al  Al6  1  0.05026500  0.74334100  0.13934500  1
  Al  Al7  1  0.57664600  0.55762400  0.52335200  1
  Al  Al8  1  0.42335400  0.44237600  0.47664800  1
  Al  Al9  1  0.55051600  0.32752100  0.88242600  1
  Al  Al10  1  0.18697600  0.05847500  0.80052500  1
  Al  Al11  1  0.17760000  0.63314000  0.54582700  1
  I  I0  1  0.17623200  0.54680200  0.29469800  1
  I  I1  1  0.77256600  0.83211600  0.95844600  1
  I  I2  1  0.96227100  0.57873000  0.81042800  1
  I  I3  1  0.82376800  0.45319800  0.70530200  1
  I  I4  1  0.93048500  0.10963300  0.46886600  1
  I  I5  1  0.28385900  0.79952400  0.82859600  1
  I  I6  1  0.53101300  0.37651500  0.05699600  1
  I  I7  1  0.41626600  0.05759500  0.34265100  1
  I  I8  1  0.75395400  0.73544500  0.70065100  1
  I  I9  1  0.39877000  0.13287900  0.59937200  1
  I  I10  1  0.58373400  0.94240500  0.65734900  1
  I  I11  1  0.60123000  0.86712100  0.40062800  1
  I  I12  1  0.71614100  0.20047600  0.17140400  1
  I  I13  1  0.06951500  0.89036700  0.53113400  1
  I  I14  1  0.88825900  0.70566800  0.34788500  1
  I  I15  1  0.11174100  0.29433200  0.65211500  1
  I  I16  1  0.22743400  0.16788400  0.04155400  1
  I  I17  1  0.46898700  0.62348500  0.94300400  1
  I  I18  1  0.24604600  0.26455500  0.29934900  1
  I  I19  1  0.03772900  0.42127000  0.18957200  1
  I  I20  1  0.50000000  0.00000000  0.00000000  1
loop_
_geom_bond_atom_site_label_1
_geom_bond_atom_site_label_2
_geom_bond_distance
_geom_bond_site_symmetry_2
Al0 Al9 2.138949 1_555
Al0 La4 2.676050 1_655
Al0 Al3 2.815904 1_555
Al0 La21 3.244235 1_555
Al0 La2 3.299135 1_555
Al0 La21 3.322289 1_655
Al0 La19 3.613573 1_655
Al1 Al6 2.138949 1_555
Al1 La20 2.670584 1_555
Al2 Al8 2.192932 1_555
Al2 La15 2.676412 1_655
Al2 La14 2.978562 1_555
Al2 La14 3.486431 1_655
Al2 La8 3.506451 1_555
Al3 La21 2.682780 1_555
Al3 La4 3.232345 1_655
Al3 La1 3.237941 1_555
Al3 La4 3.300854 1_555
Al3 La12 3.596595 1_545
Al4 Al5 2.183790 1_655
Al4 La22 2.712394 1_565
Al4 La0 3.042933 1_655
Al4 La17 3.501310 1_665
Al4 La0 3.524511 1_555
Al5 La3 2.682780 1_555
Al5 Al6 2.815904 1_555
Al5 La23 3.232345 1_455
Al5 La0 3.237941 1_555
Al5 La23 3.300854 1_555
Al5 La22 3.596595 1_565
Al6 La23 2.676050 1_455
Al6 La3 3.244235 1_555
Al6 La9 3.299135 1_555
Al6 La3 3.322289 1_455
Al6 La20 3.613573 1_455
Al7 La11 2.648945 1_555
Al7 Al8 2.793845 1_555
Al7 La5 3.175280 1_555
Al7 La13 3.238253 1_555
Al7 La13 3.391634 1_655
Al7 La7 3.673111 1_555
Al8 La13 2.648945 1_555
Al8 La14 3.175280 1_555
Al8 La11 3.238253 1_555
Al8 La11 3.391634 1_455
Al8 La15 3.673111 1_555
Al9 La19 2.670584 1_555
Al10 Al3 2.183790 1_455
Al10 La12 2.712394 1_545
Al10 La1 3.042933 1_455
Al10 La18 3.501310 1_445
Al10 La1 3.524511 1_555
Al11 Al7 2.192932 1_555
Al11 La7 2.676412 1_455
Al11 La5 2.978562 1_555
Al11 La5 3.486431 1_455
Al11 La6 3.506451 1_555
I0 La14 2.804932 1_555
I0 La20 3.371319 1_455
I0 La13 3.401980 1_555
I0 La20 3.524437 1_555
I0 La3 3.822260 1_555
I1 La9 2.797290 1_656
I1 La12 2.902214 1_555
I1 La23 3.367191 1_556
I2 La19 2.684111 1_655
I2 La16 3.338798 1_555
I3 La5 2.804932 1_555
I3 La19 3.371319 1_655
I3 La11 3.401980 1_555
I3 La19 3.524437 1_555
I3 La21 3.822260 1_555
I4 La8 2.673677 1_555
I4 La15 3.526536 1_655
I5 La18 2.673260 1_455
I5 La12 3.524625 1_555
I6 La10 2.709082 1_555
I6 La2 3.043053 1_554
I6 La16 3.454502 1_554
I6 La2 3.840004 1_454
I7 La17 3.042339 1_555
I7 La17 3.473980 1_655
I7 La0 3.565055 1_545
I7 La8 3.772708 1_555
I8 La6 3.039864 1_555
I8 La5 3.547884 1_555
I8 La6 3.553468 1_655
I8 La18 3.876118 1_555
I9 La15 2.810920 1_555
I9 La1 3.178432 1_555
I9 La1 3.539824 1_455
I10 La18 3.042339 1_555
I10 La18 3.473980 1_455
I10 La1 3.565055 1_565
I10 La6 3.772708 1_555
I11 La7 2.810920 1_555
I11 La0 3.178432 1_555
I11 La0 3.539824 1_655
I12 La17 2.673260 1_655
I12 La22 3.524625 1_555
I13 La6 2.673677 1_555
I13 La7 3.526536 1_455
I14 La13 2.909836 1_655
I14 La3 3.343411 1_555
I14 La7 3.429640 1_555
I14 La3 3.682652 1_655
I14 La0 3.829196 1_655
I15 La11 2.909836 1_455
I15 La21 3.343411 1_555
I15 La15 3.429640 1_555
I15 La21 3.682652 1_455
I15 La1 3.829196 1_455
I16 La2 2.797290 1_454
I16 La22 2.902214 1_555
I16 La4 3.367191 1_554
I17 La16 2.709082 1_555
I17 La9 3.043053 1_556
I17 La10 3.454502 1_556
I17 La9 3.840004 1_656
I18 La8 3.039864 1_555
I18 La14 3.547884 1_555
I18 La8 3.553468 1_455
I18 La17 3.876118 1_555
I19 La20 2.684111 1_455
I19 La10 3.338798 1_555
I20 La23 2.956092 1_545
I20 La4 2.956092 1_554
I20 La12 3.441483 1_544
I20 La22 3.441483 1_555
