# generated using pymatgen
data_CeAgAs2
_symmetry_space_group_name_H-M   'P 1'
_cell_length_a   4.05608574
_cell_length_b   4.05608574
_cell_length_c   21.04790225
_cell_angle_alpha   90.00000000
_cell_angle_beta   90.00000000
_cell_angle_gamma   89.98463708
_symmetry_Int_Tables_number   1
_chemical_formula_structural   CeAgAs2
_chemical_formula_sum   'Ce4 Ag4 As8'
_cell_volume   346.27652918
_cell_formula_units_Z   4
loop_
 _symmetry_equiv_pos_site_id
 _symmetry_equiv_pos_as_xyz
  1  'x, y, z'
loop_
 _atom_site_type_symbol
 _atom_site_label
 _atom_site_symmetry_multiplicity
 _atom_site_fract_x
 _atom_site_fract_y
 _atom_site_fract_z
 _atom_site_occupancy
  Ce  Ce0  1  0.25421774  0.25421774  0.38769058  1
  Ce  Ce1  1  0.74578226  0.74578226  0.61230942  1
  Ce  Ce2  1  0.75421774  0.75421774  0.11230942  1
  Ce  Ce3  1  0.24578226  0.24578226  0.88769058  1
  Ag  Ag0  1  0.24328537  0.74328537  0.75000000  1
  Ag  Ag1  1  0.25671463  0.75671463  0.25000000  1
  Ag  Ag2  1  0.75671463  0.25671463  0.25000000  1
  Ag  Ag3  1  0.74328537  0.24328537  0.75000000  1
  As  As0  1  0.74549246  0.74549246  0.83968426  1
  As  As1  1  0.25450754  0.25450754  0.16031574  1
  As  As2  1  0.24549246  0.24549246  0.66031574  1
  As  As3  1  0.75450754  0.75450754  0.33968426  1
  As  As4  1  0.25425866  0.74574134  -0.00000000  1
  As  As5  1  0.24574134  0.75425866  0.50000000  1
  As  As6  1  0.74574134  0.25425866  -0.00000000  1
  As  As7  1  0.75425866  0.24574134  0.50000000  1
loop_
_geom_bond_atom_site_label_1
_geom_bond_atom_site_label_2
_geom_bond_distance
_geom_bond_site_symmetry_2
Ag0 As2 2.764069 1_555
Ag0 As0 2.764069 1_455
Ag0 As0 2.777178 1_555
Ag0 As2 2.777178 1_565
Ag0 Ag3 2.867701 1_555
Ag0 Ag3 2.867701 1_465
Ag0 Ag3 2.868470 1_565
Ag0 Ag3 2.868470 1_455
Ag0 Ce3 3.531437 1_555
Ag0 Ce1 3.531437 1_455
Ag0 Ce1 3.543053 1_555
Ag0 Ce3 3.543053 1_565
Ag1 As1 2.764069 1_565
Ag1 As3 2.764069 1_555
Ag1 As3 2.777178 1_455
Ag1 As1 2.777178 1_555
Ag1 Ag2 2.867701 1_555
Ag1 Ag2 2.867701 1_465
Ag1 Ag2 2.868470 1_455
Ag1 Ag2 2.868470 1_565
Ag1 Ce2 3.531437 1_555
Ag1 Ce0 3.531437 1_565
Ag1 Ce2 3.543053 1_455
Ag1 Ce0 3.543053 1_555
Ag2 As1 2.764069 1_655
Ag2 As3 2.764069 1_555
Ag2 As3 2.777178 1_545
Ag2 As1 2.777178 1_555
Ag2 Ce2 3.531437 1_555
Ag2 Ce0 3.531437 1_655
Ag2 Ce2 3.543053 1_545
Ag2 Ce0 3.543053 1_555
Ag3 As2 2.764069 1_555
Ag3 As0 2.764069 1_545
Ag3 As0 2.777178 1_555
Ag3 As2 2.777178 1_655
Ag3 Ce3 3.531437 1_555
Ag3 Ce1 3.531437 1_545
Ag3 Ce1 3.543053 1_555
Ag3 Ce3 3.543053 1_655
As0 Ce3 3.039664 1_555
As0 Ce3 3.040508 1_565
As0 Ce3 3.040508 1_655
As0 Ce3 3.042801 1_665
As1 Ce2 3.039664 1_555
As1 Ce2 3.040508 1_545
As1 Ce2 3.040508 1_455
As1 Ce2 3.042801 1_445
As2 Ce1 3.039664 1_445
As2 Ce1 3.040508 1_455
As2 Ce1 3.040508 1_545
As2 Ce1 3.042801 1_555
As3 Ce0 3.039664 1_665
As3 Ce0 3.040508 1_655
As3 Ce0 3.040508 1_565
As3 Ce0 3.042801 1_555
As4 As6 2.818851 1_555
As4 As6 2.868886 1_565
As4 As6 2.868886 1_455
As4 As6 2.916551 1_465
As4 Ce3 3.114711 1_554
As4 Ce2 3.114711 1_555
As4 Ce3 3.114915 1_564
As4 Ce2 3.114915 1_455
As5 As7 2.818851 1_465
As5 As7 2.868886 1_565
As5 As7 2.868886 1_455
As5 As7 2.916551 1_555
As5 Ce1 3.114711 1_455
As5 Ce0 3.114711 1_565
As5 Ce0 3.114915 1_555
As5 Ce1 3.114915 1_555
As6 Ce3 3.114711 1_554
As6 Ce2 3.114711 1_555
As6 Ce3 3.114915 1_654
As6 Ce2 3.114915 1_545
As7 Ce1 3.114711 1_545
As7 Ce0 3.114711 1_655
As7 Ce0 3.114915 1_555
As7 Ce1 3.114915 1_555
