# generated using pymatgen
data_Cs3Yb
_symmetry_space_group_name_H-M   'P 1'
_cell_length_a   10.13685976
_cell_length_b   10.13685976
_cell_length_c   8.12963900
_cell_angle_alpha   90.00000000
_cell_angle_beta   90.00000000
_cell_angle_gamma   119.99999845
_symmetry_Int_Tables_number   1
_chemical_formula_structural   Cs3Yb
_chemical_formula_sum   'Cs6 Yb2'
_cell_volume   723.45042500
_cell_formula_units_Z   2
loop_
 _symmetry_equiv_pos_site_id
 _symmetry_equiv_pos_as_xyz
  1  'x, y, z'
loop_
 _atom_site_type_symbol
 _atom_site_label
 _atom_site_symmetry_multiplicity
 _atom_site_fract_x
 _atom_site_fract_y
 _atom_site_fract_z
 _atom_site_occupancy
  Cs  Cs0  1  0.65256400  0.82628200  0.25000000  1
  Cs  Cs1  1  0.17371800  0.34743600  0.25000000  1
  Cs  Cs2  1  0.17371800  0.82628200  0.25000000  1
  Cs  Cs3  1  0.82628200  0.65256400  0.75000000  1
  Cs  Cs4  1  0.34743600  0.17371800  0.75000000  1
  Cs  Cs5  1  0.82628200  0.17371800  0.75000000  1
  Yb  Yb0  1  0.33333300  0.66666700  0.75000000  1
  Yb  Yb1  1  0.66666700  0.33333300  0.25000000  1
loop_
_geom_bond_atom_site_label_1
_geom_bond_atom_site_label_2
_geom_bond_distance
_geom_bond_site_symmetry_2
Cs0 Cs2 4.853995 1_555
Cs0 Cs1 4.853995 1_555
Cs0 Yb0 4.937259 1_554
Cs0 Yb0 4.937259 1_555
Cs0 Yb1 5.069937 1_565
Cs0 Yb1 5.069947 1_555
Cs0 Cs3 5.081894 1_554
Cs0 Cs3 5.081894 1_555
Cs0 Cs5 5.081894 1_564
Cs0 Cs5 5.081894 1_565
Cs0 Cs2 5.282865 1_655
Cs0 Cs1 5.282865 1_665
Cs1 Cs2 4.853995 1_555
Cs1 Yb0 4.937259 1_555
Cs1 Yb0 4.937259 1_554
Cs1 Yb1 5.069937 1_455
Cs1 Yb1 5.069947 1_555
Cs1 Cs4 5.081894 1_555
Cs1 Cs4 5.081894 1_554
Cs1 Cs5 5.081894 1_454
Cs1 Cs5 5.081894 1_455
Cs1 Cs2 5.282865 1_545
Cs2 Yb0 4.937254 1_555
Cs2 Yb0 4.937254 1_554
Cs2 Yb1 5.069942 1_455
Cs2 Yb1 5.069942 1_565
Cs2 Cs4 5.081894 1_565
Cs2 Cs3 5.081894 1_455
Cs2 Cs4 5.081894 1_564
Cs2 Cs3 5.081894 1_454
Cs3 Cs5 4.853995 1_555
Cs3 Cs4 4.853995 1_555
Cs3 Yb1 4.937259 1_555
Cs3 Yb1 4.937259 1_556
Cs3 Yb0 5.069937 1_655
Cs3 Yb0 5.069947 1_555
Cs3 Cs5 5.282865 1_565
Cs3 Cs4 5.282865 1_665
Cs4 Cs5 4.853995 1_555
Cs4 Yb1 4.937259 1_555
Cs4 Yb1 4.937259 1_556
Cs4 Yb0 5.069937 1_545
Cs4 Yb0 5.069947 1_555
Cs4 Cs5 5.282865 1_455
Cs5 Yb1 4.937254 1_555
Cs5 Yb1 4.937254 1_556
Cs5 Yb0 5.069942 1_545
Cs5 Yb0 5.069942 1_655
