# generated using pymatgen
data_Tm2C3
_symmetry_space_group_name_H-M   'P 1'
_cell_length_a   7.00642091
_cell_length_b   7.00642091
_cell_length_c   7.00642091
_cell_angle_alpha   109.47122063
_cell_angle_beta   109.47122063
_cell_angle_gamma   109.47122063
_symmetry_Int_Tables_number   1
_chemical_formula_structural   Tm2C3
_chemical_formula_sum   'Tm8 C12'
_cell_volume   264.76878447
_cell_formula_units_Z   4
loop_
 _symmetry_equiv_pos_site_id
 _symmetry_equiv_pos_as_xyz
  1  'x, y, z'
loop_
 _atom_site_type_symbol
 _atom_site_label
 _atom_site_symmetry_multiplicity
 _atom_site_fract_x
 _atom_site_fract_y
 _atom_site_fract_z
 _atom_site_occupancy
  Tm  Tm0  1  0.60063600  0.60063600  0.60063600  1
  Tm  Tm1  1  0.50000000  0.00000000  0.39936400  1
  Tm  Tm2  1  0.00000000  0.39936400  0.50000000  1
  Tm  Tm3  1  0.39936400  0.50000000  0.00000000  1
  Tm  Tm4  1  0.00000000  0.89936400  0.50000000  1
  Tm  Tm5  1  0.89936400  0.50000000  0.00000000  1
  Tm  Tm6  1  0.50000000  0.00000000  0.89936400  1
  Tm  Tm7  1  0.10063600  0.10063600  0.10063600  1
  C  C0  1  0.79198000  0.04198000  0.75000000  1
  C  C1  1  0.95802000  0.20802000  0.75000000  1
  C  C2  1  0.25000000  0.54198000  0.29198000  1
  C  C3  1  0.29198000  0.25000000  0.54198000  1
  C  C4  1  0.75000000  0.95802000  0.20802000  1
  C  C5  1  0.20802000  0.75000000  0.95802000  1
  C  C6  1  0.70802000  0.45802000  0.25000000  1
  C  C7  1  0.45802000  0.25000000  0.70802000  1
  C  C8  1  0.54198000  0.29198000  0.25000000  1
  C  C9  1  0.25000000  0.70802000  0.45802000  1
  C  C10  1  0.75000000  0.79198000  0.04198000  1
  C  C11  1  0.04198000  0.75000000  0.79198000  1
loop_
_geom_bond_atom_site_label_1
_geom_bond_atom_site_label_2
_geom_bond_distance
_geom_bond_site_symmetry_2
C0 C1 1.343316 1_555
C0 Tm7 2.464459 1_656
C0 Tm1 2.464459 1_555
C0 Tm6 2.568664 1_555
C0 Tm0 2.568664 1_545
C1 Tm4 2.464459 1_645
C1 Tm5 2.464459 1_556
C1 Tm2 2.568664 1_655
C1 Tm3 2.568664 1_656
C2 C9 1.343316 1_555
C2 Tm0 2.464459 1_555
C2 Tm5 2.464459 1_455
C2 Tm3 2.568664 1_555
C2 Tm7 2.568664 1_555
C3 C7 1.343316 1_555
C3 Tm0 2.464459 1_555
C3 Tm4 2.464459 1_545
C3 Tm2 2.568664 1_555
C3 Tm7 2.568664 1_555
C4 Tm6 2.464459 1_564
C4 Tm4 2.464459 1_655
C4 Tm2 2.568664 1_665
C4 Tm1 2.568664 1_565
C5 Tm5 2.464459 1_456
C5 Tm6 2.464459 1_565
C5 Tm3 2.568664 1_556
C5 Tm1 2.568664 1_566
C6 C8 1.343316 1_555
C6 Tm2 2.464459 1_655
C6 Tm3 2.464459 1_555
C6 Tm4 2.568664 1_655
C6 Tm5 2.568664 1_555
C7 Tm3 2.464459 1_556
C7 Tm1 2.464459 1_555
C7 Tm5 2.568664 1_556
C7 Tm6 2.568664 1_555
C8 Tm0 2.464459 1_555
C8 Tm6 2.464459 1_554
C8 Tm1 2.568664 1_555
C8 Tm7 2.568664 1_555
C9 Tm1 2.464459 1_565
C9 Tm2 2.464459 1_555
C9 Tm4 2.568664 1_555
C9 Tm6 2.568664 1_565
C10 C4 1.343316 1_555
C10 Tm7 2.464459 1_665
C10 Tm3 2.464459 1_555
C10 Tm5 2.568664 1_555
C10 Tm0 2.568664 1_554
C11 C5 1.343316 1_555
C11 Tm7 2.464459 1_566
C11 Tm2 2.464459 1_555
C11 Tm4 2.568664 1_555
C11 Tm0 2.568664 1_455
