# generated using pymatgen
data_Eu2MgSi2O7
_symmetry_space_group_name_H-M   'P 1'
_cell_length_a   8.06409400
_cell_length_b   8.06409400
_cell_length_c   5.21822300
_cell_angle_alpha   90.00000000
_cell_angle_beta   90.00000000
_cell_angle_gamma   90.00000000
_symmetry_Int_Tables_number   1
_chemical_formula_structural   Eu2MgSi2O7
_chemical_formula_sum   'Eu4 Mg2 Si4 O14'
_cell_volume   339.33901723
_cell_formula_units_Z   2
loop_
 _symmetry_equiv_pos_site_id
 _symmetry_equiv_pos_as_xyz
  1  'x, y, z'
loop_
 _atom_site_type_symbol
 _atom_site_label
 _atom_site_symmetry_multiplicity
 _atom_site_fract_x
 _atom_site_fract_y
 _atom_site_fract_z
 _atom_site_occupancy
  Eu  Eu0  1  0.33452900  0.83452900  0.49094200  1
  Eu  Eu1  1  0.66547100  0.16547100  0.49094200  1
  Eu  Eu2  1  0.16547100  0.33452900  0.50905800  1
  Eu  Eu3  1  0.83452900  0.66547100  0.50905800  1
  Mg  Mg0  1  0.00000000  0.00000000  0.00000000  1
  Mg  Mg1  1  0.50000000  0.50000000  0.00000000  1
  Si  Si0  1  0.13940100  0.63940100  0.05845000  1
  Si  Si1  1  0.86059900  0.36059900  0.05845000  1
  Si  Si2  1  0.36059900  0.13940100  0.94155000  1
  Si  Si3  1  0.63940100  0.86059900  0.94155000  1
  O  O0  1  0.00000000  0.50000000  0.16506300  1
  O  O1  1  0.07946800  0.81091300  0.20181000  1
  O  O2  1  0.31091300  0.57946800  0.20181000  1
  O  O3  1  0.68908700  0.42053200  0.20181000  1
  O  O4  1  0.92053200  0.18908700  0.20181000  1
  O  O5  1  0.35809700  0.14190300  0.25233400  1
  O  O6  1  0.64190300  0.85809700  0.25233400  1
  O  O7  1  0.14190300  0.64190300  0.74766600  1
  O  O8  1  0.85809700  0.35809700  0.74766600  1
  O  O9  1  0.18908700  0.07946800  0.79819000  1
  O  O10  1  0.42053200  0.31091300  0.79819000  1
  O  O11  1  0.57946800  0.68908700  0.79819000  1
  O  O12  1  0.81091300  0.92053200  0.79819000  1
  O  O13  1  0.50000000  0.00000000  0.83493700  1
loop_
_geom_bond_atom_site_label_1
_geom_bond_atom_site_label_2
_geom_bond_distance
_geom_bond_site_symmetry_2
Eu0 O2 2.557965 1_555
Eu0 O1 2.557965 1_555
Eu0 O7 2.573026 1_555
Eu0 O13 2.604474 1_565
Eu0 O6 2.780348 1_555
Eu0 O5 2.780348 1_565
Eu0 O11 2.801355 1_555
Eu0 O9 2.801355 1_565
Eu1 O3 2.557965 1_555
Eu1 O4 2.557965 1_555
Eu1 O8 2.573026 1_555
Eu1 O13 2.604474 1_555
Eu1 O6 2.780348 1_545
Eu1 O5 2.780348 1_555
Eu1 O10 2.801355 1_555
Eu1 O12 2.801355 1_545
Eu2 O9 2.557965 1_555
Eu2 O10 2.557965 1_555
Eu2 O5 2.573026 1_555
Eu2 O0 2.604474 1_555
Eu2 O7 2.780348 1_555
Eu2 O8 2.780348 1_455
Eu2 O2 2.801355 1_555
Eu2 O4 2.801355 1_455
Eu3 O11 2.557965 1_555
Eu3 O12 2.557965 1_555
Eu3 O6 2.573026 1_555
Eu3 O0 2.604474 1_655
Eu3 O8 2.780348 1_555
Eu3 O7 2.780348 1_655
Eu3 O3 2.801355 1_555
Eu3 O1 2.801355 1_655
Mg0 O9 1.960799 1_554
Mg0 O12 1.960799 1_444
Mg0 O4 1.960799 1_455
Mg0 O1 1.960799 1_545
Mg1 O10 1.960799 1_554
Mg1 O11 1.960799 1_554
Mg1 O2 1.960799 1_555
Mg1 O3 1.960799 1_555
O0 Si1 1.684309 1_455
O0 Si0 1.684309 1_555
O1 Si0 1.645038 1_555
O2 Si0 1.645038 1_555
O3 Si1 1.645038 1_555
O4 Si1 1.645038 1_555
O5 Si2 1.621991 1_554
O6 Si3 1.621991 1_554
O7 Si0 1.621991 1_556
O8 Si1 1.621991 1_556
O9 Si2 1.645038 1_555
O10 Si2 1.645038 1_555
O11 Si3 1.645038 1_555
O12 Si3 1.645038 1_555
O13 Si2 1.684309 1_555
O13 Si3 1.684309 1_545
