# generated using pymatgen
data_SrGaSnH
_symmetry_space_group_name_H-M   'P 1'
_cell_length_a   4.48741715
_cell_length_b   4.48741715
_cell_length_c   5.16552400
_cell_angle_alpha   90.00000000
_cell_angle_beta   90.00000000
_cell_angle_gamma   119.99998742
_symmetry_Int_Tables_number   1
_chemical_formula_structural   SrGaSnH
_chemical_formula_sum   'Sr1 Ga1 Sn1 H1'
_cell_volume   90.08198689
_cell_formula_units_Z   1
loop_
 _symmetry_equiv_pos_site_id
 _symmetry_equiv_pos_as_xyz
  1  'x, y, z'
loop_
 _atom_site_type_symbol
 _atom_site_label
 _atom_site_symmetry_multiplicity
 _atom_site_fract_x
 _atom_site_fract_y
 _atom_site_fract_z
 _atom_site_occupancy
  Sr  Sr0  1  0.66666700  0.33333300  0.99845800  1
  Ga  Ga0  1  0.33333300  0.66666700  0.60088500  1
  Sn  Sn0  1  0.00000000  0.00000000  0.45056300  1
  H  H0  1  0.33333300  0.66666700  0.93939600  1
loop_
_geom_bond_atom_site_label_1
_geom_bond_atom_site_label_2
_geom_bond_distance
_geom_bond_site_symmetry_2
Ga0 H0 1.748587 1_555
Ga0 Sn0 2.704668 1_565
Ga0 Sn0 2.704672 1_665
Ga0 Sn0 2.704672 1_555
Sn0 Sr0 3.488007 1_454
Sn0 Sr0 3.488010 1_444
Sn0 Sr0 3.488010 1_554
H0 Sr0 2.608710 1_455
H0 Sr0 2.608710 1_565
H0 Sr0 2.608718 1_555
