# generated using pymatgen
data_YbPu3
_symmetry_space_group_name_H-M   'P 1'
_cell_length_a   5.76520590
_cell_length_b   5.76520590
_cell_length_c   5.76520590
_cell_angle_alpha   132.28434156
_cell_angle_beta   132.28434156
_cell_angle_gamma   69.78030936
_symmetry_Int_Tables_number   1
_chemical_formula_structural   YbPu3
_chemical_formula_sum   'Yb1 Pu3'
_cell_volume   102.85380172
_cell_formula_units_Z   1
loop_
 _symmetry_equiv_pos_site_id
 _symmetry_equiv_pos_as_xyz
  1  'x, y, z'
loop_
 _atom_site_type_symbol
 _atom_site_label
 _atom_site_symmetry_multiplicity
 _atom_site_fract_x
 _atom_site_fract_y
 _atom_site_fract_z
 _atom_site_occupancy
  Yb  Yb0  1  0.00000000  0.00000000  0.00000000  1
  Pu  Pu0  1  0.75000000  0.25000000  0.50000000  1
  Pu  Pu1  1  0.25000000  0.75000000  0.50000000  1
  Pu  Pu2  1  0.50000000  0.50000000  0.00000000  1
loop_
_geom_bond_atom_site_label_1
_geom_bond_atom_site_label_2
_geom_bond_distance
_geom_bond_site_symmetry_2
Pu0 Pu1 3.297726 1_645
Pu0 Pu1 3.297726 1_555
Pu0 Pu1 3.297726 1_656
Pu0 Pu1 3.297726 1_544
Pu0 Yb0 3.320866 1_666
Pu0 Yb0 3.320866 1_656
Pu0 Yb0 3.320866 1_555
Pu0 Pu2 3.320866 1_556
Pu0 Pu2 3.320866 1_555
Pu0 Pu2 3.320866 1_545
Pu0 Yb0 3.320866 1_655
Pu0 Pu2 3.320866 1_656
Pu1 Yb0 3.320866 1_566
Pu1 Yb0 3.320866 1_666
Pu1 Yb0 3.320866 1_565
Pu1 Pu2 3.320866 1_566
Pu1 Yb0 3.320866 1_555
Pu1 Pu2 3.320866 1_455
Pu1 Pu2 3.320866 1_556
Pu1 Pu2 3.320866 1_555
Pu2 Yb0 3.297726 1_554
Pu2 Yb0 3.297726 1_655
Pu2 Yb0 3.297726 1_666
Pu2 Yb0 3.297726 1_565
