# generated using pymatgen
data_Hf2CuRe
_symmetry_space_group_name_H-M   'P 1'
_cell_length_a   4.58861700
_cell_length_b   4.58861700
_cell_length_c   4.58861700
_cell_angle_alpha   60.00000000
_cell_angle_beta   60.00000000
_cell_angle_gamma   60.00000000
_symmetry_Int_Tables_number   1
_chemical_formula_structural   Hf2CuRe
_chemical_formula_sum   'Hf2 Cu1 Re1'
_cell_volume   68.31725888
_cell_formula_units_Z   1
loop_
 _symmetry_equiv_pos_site_id
 _symmetry_equiv_pos_as_xyz
  1  'x, y, z'
loop_
 _atom_site_type_symbol
 _atom_site_label
 _atom_site_symmetry_multiplicity
 _atom_site_fract_x
 _atom_site_fract_y
 _atom_site_fract_z
 _atom_site_occupancy
  Hf  Hf0  1  -0.00000000  0.00000000  0.00000000  1
  Hf  Hf1  1  0.49999900  0.49999900  0.49999900  1
  Cu  Cu0  1  0.25000000  0.25000000  0.25000000  1
  Re  Re0  1  0.74999900  0.74999900  0.74999900  1
loop_
_geom_bond_atom_site_label_1
_geom_bond_atom_site_label_2
_geom_bond_distance
_geom_bond_site_symmetry_2
Hf0 Re0 2.809939 1_445
Hf0 Re0 2.809939 1_544
Hf0 Re0 2.809939 1_454
Hf0 Re0 2.809954 1_444
Hf1 Re0 2.809943 1_455
Hf1 Re0 2.809943 1_545
Hf1 Re0 2.809943 1_554
Hf1 Re0 2.809943 1_555
Cu0 Hf1 2.809931 1_555
Cu0 Hf0 2.809943 1_555
Cu0 Hf0 2.809943 1_556
Cu0 Hf0 2.809943 1_655
Cu0 Hf0 2.809943 1_565
Cu0 Hf1 2.809946 1_554
Cu0 Hf1 2.809946 1_455
Cu0 Hf1 2.809946 1_545
