# generated using pymatgen
data_YbFeB4
_symmetry_space_group_name_H-M   'P 1'
_cell_length_a   3.32603800
_cell_length_b   5.89117500
_cell_length_c   11.40376100
_cell_angle_alpha   90.00000000
_cell_angle_beta   90.00000000
_cell_angle_gamma   90.00000000
_symmetry_Int_Tables_number   1
_chemical_formula_structural   YbFeB4
_chemical_formula_sum   'Yb4 Fe4 B16'
_cell_volume   223.44839388
_cell_formula_units_Z   4
loop_
 _symmetry_equiv_pos_site_id
 _symmetry_equiv_pos_as_xyz
  1  'x, y, z'
loop_
 _atom_site_type_symbol
 _atom_site_label
 _atom_site_symmetry_multiplicity
 _atom_site_fract_x
 _atom_site_fract_y
 _atom_site_fract_z
 _atom_site_occupancy
  Yb  Yb0  1  0.00000000  0.12616600  0.65096300  1
  Yb  Yb1  1  0.00000000  0.87383400  0.34903700  1
  Yb  Yb2  1  0.00000000  0.62616600  0.84903700  1
  Yb  Yb3  1  0.00000000  0.37383400  0.15096300  1
  Fe  Fe0  1  0.00000000  0.12687000  0.91710000  1
  Fe  Fe1  1  0.00000000  0.87313000  0.08290000  1
  Fe  Fe2  1  0.00000000  0.62687000  0.58290000  1
  Fe  Fe3  1  0.00000000  0.37313000  0.41710000  1
  B  B0  1  0.50000000  0.36132200  0.96772500  1
  B  B1  1  0.50000000  0.63867800  0.03227500  1
  B  B2  1  0.50000000  0.86132200  0.53227500  1
  B  B3  1  0.50000000  0.13867800  0.46772500  1
  B  B4  1  0.50000000  0.47526100  0.69036400  1
  B  B5  1  0.50000000  0.52473900  0.30963600  1
  B  B6  1  0.50000000  0.97526100  0.80963600  1
  B  B7  1  0.50000000  0.02473900  0.19036400  1
  B  B8  1  0.50000000  0.27912600  0.81745600  1
  B  B9  1  0.50000000  0.72087400  0.18254400  1
  B  B10  1  0.50000000  0.77912600  0.68254400  1
  B  B11  1  0.50000000  0.22087400  0.31745600  1
  B  B12  1  0.50000000  0.38772200  0.54644300  1
  B  B13  1  0.50000000  0.61227800  0.45355700  1
  B  B14  1  0.50000000  0.88772200  0.95355700  1
  B  B15  1  0.50000000  0.11227800  0.04644300  1
loop_
_geom_bond_atom_site_label_1
_geom_bond_atom_site_label_2
_geom_bond_distance
_geom_bond_site_symmetry_2
B0 B15 1.719999 1_556
B0 B8 1.780734 1_555
B0 B1 1.792111 1_556
B0 Fe0 2.237551 1_655
B0 Fe0 2.237551 1_555
B0 Yb2 2.651777 1_555
B0 Yb2 2.651777 1_655
B0 Yb3 2.671611 1_556
B0 Yb3 2.671611 1_656
B1 B14 1.719999 1_554
B1 B9 1.780734 1_555
B1 Fe1 2.237551 1_655
B1 Fe1 2.237551 1_555
B1 Yb3 2.651777 1_555
B1 Yb3 2.651777 1_655
B1 Yb2 2.671611 1_654
B1 Yb2 2.671611 1_554
B2 B3 1.792111 1_565
B2 Fe2 2.237551 1_655
B2 Fe2 2.237551 1_555
B2 Yb0 2.651777 1_565
B2 Yb0 2.651777 1_665
B2 Yb1 2.671611 1_655
B2 Yb1 2.671611 1_555
B3 Fe3 2.237551 1_555
B3 Fe3 2.237551 1_655
B3 Yb1 2.651777 1_545
B3 Yb1 2.651777 1_645
B3 Yb0 2.671611 1_655
B3 Yb0 2.671611 1_555
B4 B8 1.853550 1_555
B4 Fe2 2.250598 1_655
B4 Fe2 2.250598 1_555
B4 Yb2 2.613455 1_555
B4 Yb2 2.613455 1_655
B4 Yb0 2.682730 1_655
B4 Yb0 2.682730 1_555
B5 B9 1.853550 1_555
B5 Fe3 2.250598 1_555
B5 Fe3 2.250598 1_655
B5 Yb3 2.613455 1_655
B5 Yb3 2.613455 1_555
B5 Yb1 2.682730 1_655
B5 Yb1 2.682730 1_555
B6 B8 1.792342 1_565
B6 Fe0 2.250598 1_565
B6 Fe0 2.250598 1_665
B6 Yb0 2.613455 1_665
B6 Yb0 2.613455 1_565
B6 Yb2 2.682730 1_655
B6 Yb2 2.682730 1_555
B7 B9 1.792342 1_545
B7 Fe1 2.250598 1_545
B7 Fe1 2.250598 1_645
B7 Yb1 2.613455 1_645
B7 Yb1 2.613455 1_545
B7 Yb3 2.682730 1_555
B7 Yb3 2.682730 1_655
B8 Fe0 2.204857 1_655
B8 Fe0 2.204857 1_555
B8 Yb2 2.659926 1_555
B8 Yb2 2.659926 1_655
B8 Yb0 2.680018 1_655
B8 Yb0 2.680018 1_555
B9 Fe1 2.204857 1_555
B9 Fe1 2.204857 1_655
B9 Yb3 2.659926 1_555
B9 Yb3 2.659926 1_655
B9 Yb1 2.680018 1_655
B9 Yb1 2.680018 1_555
B10 B2 1.780734 1_555
B10 B4 1.792342 1_555
B10 B6 1.853550 1_555
B10 Fe2 2.204857 1_655
B10 Fe2 2.204857 1_555
B10 Yb0 2.659926 1_565
B10 Yb0 2.659926 1_665
B10 Yb2 2.680018 1_555
B10 Yb2 2.680018 1_655
B11 B3 1.780734 1_555
B11 B5 1.792342 1_555
B11 B7 1.853550 1_555
B11 Fe3 2.204857 1_555
B11 Fe3 2.204857 1_655
B11 Yb1 2.659926 1_545
B11 Yb1 2.659926 1_645
B11 Yb3 2.680018 1_555
B11 Yb3 2.680018 1_655
B12 B13 1.694719 1_555
B12 B3 1.719999 1_555
B12 B4 1.720356 1_555
B12 Fe2 2.218867 1_555
B12 Fe2 2.218867 1_655
B12 Fe3 2.224553 1_555
B12 Fe3 2.224553 1_655
B12 Yb0 2.561366 1_655
B12 Yb0 2.561366 1_555
B13 B2 1.719999 1_555
B13 B5 1.720356 1_555
B13 Fe3 2.218867 1_555
B13 Fe3 2.218867 1_655
B13 Fe2 2.224553 1_555
B13 Fe2 2.224553 1_655
B13 Yb1 2.561366 1_655
B13 Yb1 2.561366 1_555
B14 B15 1.694719 1_566
B14 B6 1.720356 1_555
B14 Fe0 2.218867 1_565
B14 Fe0 2.218867 1_665
B14 Fe1 2.224553 1_656
B14 Fe1 2.224553 1_556
B14 Yb2 2.561366 1_555
B14 Yb2 2.561366 1_655
B15 B7 1.720356 1_555
B15 Fe1 2.218867 1_545
B15 Fe1 2.218867 1_645
B15 Fe0 2.224553 1_554
B15 Fe0 2.224553 1_654
B15 Yb3 2.561366 1_555
B15 Yb3 2.561366 1_655
