# generated using pymatgen
data_Re
_symmetry_space_group_name_H-M   'P 1'
_cell_length_a   5.53383139
_cell_length_b   5.53383240
_cell_length_c   13.77037037
_cell_angle_alpha   78.45146800
_cell_angle_beta   101.54853414
_cell_angle_gamma   119.95550966
_symmetry_Int_Tables_number   1
_chemical_formula_structural   Re
_chemical_formula_sum   Re24
_cell_volume   355.46064103
_cell_formula_units_Z   24
loop_
 _symmetry_equiv_pos_site_id
 _symmetry_equiv_pos_as_xyz
  1  'x, y, z'
loop_
 _atom_site_type_symbol
 _atom_site_label
 _atom_site_symmetry_multiplicity
 _atom_site_fract_x
 _atom_site_fract_y
 _atom_site_fract_z
 _atom_site_occupancy
  Re  Re0_0  1  0.00000000  0.00000000  0.00000000  1
  Re  Re0_1  1  0.00000000  0.00000000  0.50000000  1
  Re  Re0_2  1  0.00000000  0.50000000  0.00000000  1
  Re  Re0_3  1  0.00000000  0.50000000  0.50000000  1
  Re  Re0_4  1  0.50000000  0.00000000  0.00000000  1
  Re  Re0_5  1  0.50000000  0.00000000  0.50000000  1
  Re  Re0_6  1  0.50000000  0.50000000  0.00000000  1
  Re  Re0_7  1  0.50000000  0.50000000  0.50000000  1
  Re  Re1_0  1  0.38886999  0.11112951  0.16673918  1
  Re  Re1_1  1  0.38886999  0.11112952  0.66673918  1
  Re  Re1_2  1  0.38886999  0.61112952  0.16673918  1
  Re  Re1_3  1  0.38886999  0.61112952  0.66673918  1
  Re  Re1_4  1  0.88886998  0.11112952  0.16673918  1
  Re  Re1_5  1  0.88886999  0.11112952  0.66673918  1
  Re  Re1_6  1  0.88886998  0.61112952  0.16673918  1
  Re  Re1_7  1  0.88886999  0.61112952  0.66673918  1
  Re  Re2_0  1  0.11112902  0.38887048  0.33326033  1
  Re  Re2_1  1  0.11112902  0.38887048  0.83326033  1
  Re  Re2_2  1  0.11112902  0.88887049  0.33326033  1
  Re  Re2_3  1  0.11112902  0.88887049  0.83326033  1
  Re  Re2_4  1  0.61112901  0.38887048  0.33326033  1
  Re  Re2_5  1  0.61112902  0.38887048  0.83326033  1
  Re  Re2_6  1  0.61112902  0.88887049  0.33326033  1
  Re  Re2_7  1  0.61112902  0.88887049  0.83326033  1
loop_
_geom_bond_atom_site_label_1
_geom_bond_atom_site_label_2
_geom_bond_distance
_geom_bond_site_symmetry_2
Re0_0 Re1_4 2.745304 1_455
Re0_0 Re2_3 2.745307 1_544
Re0_0 Re1_0 2.747061 1_555
Re0_0 Re1_6 2.747063 1_445
Re0_0 Re2_1 2.747067 1_554
Re0_0 Re2_7 2.747069 1_444
Re0_0 Re0_4 2.766916 1_555
Re0_0 Re0_4 2.766916 1_455
Re0_0 Re0_2 2.766916 1_555
Re0_0 Re0_2 2.766916 1_545
Re0_0 Re0_6 2.768776 1_445
Re0_0 Re0_6 2.768776 1_555
Re0_1 Re1_5 2.745304 1_455
Re0_1 Re2_2 2.745307 1_545
Re0_1 Re1_1 2.747061 1_555
Re0_1 Re1_7 2.747063 1_445
Re0_1 Re2_0 2.747067 1_555
Re0_1 Re2_6 2.747069 1_445
Re0_1 Re0_5 2.766916 1_555
Re0_1 Re0_5 2.766916 1_455
Re0_1 Re0_3 2.766916 1_545
Re0_1 Re0_3 2.766916 1_555
Re0_1 Re0_7 2.768776 1_555
Re0_1 Re0_7 2.768776 1_445
Re0_2 Re1_6 2.745304 1_455
Re0_2 Re2_1 2.745307 1_554
Re0_2 Re1_2 2.747061 1_555
Re0_2 Re1_4 2.747063 1_455
Re0_2 Re2_3 2.747067 1_554
Re0_2 Re2_5 2.747069 1_454
Re0_2 Re0_6 2.766916 1_455
Re0_2 Re0_6 2.766916 1_555
Re0_2 Re0_4 2.768776 1_455
Re0_2 Re0_4 2.768776 1_565
Re0_3 Re1_7 2.745304 1_455
Re0_3 Re2_0 2.745307 1_555
Re0_3 Re1_3 2.747061 1_555
Re0_3 Re1_5 2.747063 1_455
Re0_3 Re2_2 2.747067 1_555
Re0_3 Re2_4 2.747069 1_455
Re0_3 Re0_7 2.766916 1_455
Re0_3 Re0_7 2.766916 1_555
Re0_3 Re0_5 2.768776 1_565
Re0_3 Re0_5 2.768776 1_455
Re0_4 Re1_0 2.745304 1_555
Re0_4 Re2_7 2.745307 1_544
Re0_4 Re1_4 2.747061 1_555
Re0_4 Re1_2 2.747063 1_545
Re0_4 Re2_5 2.747067 1_554
Re0_4 Re2_3 2.747069 1_544
Re0_4 Re0_6 2.766916 1_555
Re0_4 Re0_6 2.766916 1_545
Re0_5 Re1_1 2.745304 1_555
Re0_5 Re2_6 2.745307 1_545
Re0_5 Re1_5 2.747061 1_555
Re0_5 Re1_3 2.747063 1_545
Re0_5 Re2_4 2.747067 1_555
Re0_5 Re2_2 2.747069 1_545
Re0_5 Re0_7 2.766916 1_555
Re0_5 Re0_7 2.766916 1_545
Re0_6 Re1_2 2.745304 1_555
Re0_6 Re2_5 2.745307 1_554
Re0_6 Re1_6 2.747061 1_555
Re0_6 Re1_0 2.747063 1_555
Re0_6 Re2_7 2.747067 1_554
Re0_6 Re2_1 2.747069 1_554
Re0_7 Re1_3 2.745304 1_555
Re0_7 Re2_4 2.745307 1_555
Re0_7 Re1_7 2.747061 1_555
Re0_7 Re1_1 2.747063 1_555
Re0_7 Re2_6 2.747067 1_555
Re0_7 Re2_0 2.747069 1_555
Re1_0 Re2_2 2.743575 1_545
Re1_0 Re2_4 2.743575 1_555
Re1_0 Re2_6 2.745154 1_545
Re1_0 Re1_4 2.766916 1_555
Re1_0 Re1_4 2.766916 1_455
Re1_0 Re1_2 2.766916 1_545
Re1_0 Re1_2 2.766916 1_555
Re1_0 Re1_6 2.768776 1_445
Re1_0 Re1_6 2.768776 1_555
Re1_1 Re2_3 2.743575 1_545
Re1_1 Re2_5 2.743575 1_555
Re1_1 Re2_7 2.745154 1_545
Re1_1 Re1_5 2.766916 1_555
Re1_1 Re1_5 2.766916 1_455
Re1_1 Re1_3 2.766916 1_545
Re1_1 Re1_3 2.766916 1_555
Re1_1 Re1_7 2.768776 1_445
Re1_1 Re1_7 2.768776 1_555
Re1_2 Re2_0 2.743575 1_555
Re1_2 Re2_6 2.743575 1_555
Re1_2 Re2_4 2.745154 1_555
Re1_2 Re1_6 2.766916 1_555
Re1_2 Re1_6 2.766916 1_455
Re1_2 Re1_4 2.768776 1_565
Re1_2 Re1_4 2.768776 1_455
Re1_3 Re2_1 2.743575 1_555
Re1_3 Re2_7 2.743575 1_555
Re1_3 Re2_5 2.745154 1_555
Re1_3 Re1_7 2.766916 1_455
Re1_3 Re1_7 2.766916 1_555
Re1_3 Re1_5 2.768776 1_565
Re1_3 Re1_5 2.768776 1_455
Re1_4 Re2_6 2.743575 1_545
Re1_4 Re2_0 2.743575 1_655
Re1_4 Re2_2 2.745154 1_645
Re1_4 Re1_6 2.766916 1_555
Re1_4 Re1_6 2.766916 1_545
Re1_5 Re2_7 2.743575 1_545
Re1_5 Re2_1 2.743575 1_655
Re1_5 Re2_3 2.745154 1_645
Re1_5 Re1_7 2.766916 1_555
Re1_5 Re1_7 2.766916 1_545
Re1_6 Re2_4 2.743575 1_555
Re1_6 Re2_2 2.743575 1_655
Re1_6 Re2_0 2.745154 1_655
Re1_7 Re2_5 2.743575 1_555
Re1_7 Re2_3 2.743575 1_655
Re1_7 Re2_1 2.745154 1_655
Re2_0 Re2_4 2.766916 1_555
Re2_0 Re2_4 2.766916 1_455
Re2_0 Re2_2 2.766916 1_545
Re2_0 Re2_2 2.766916 1_555
Re2_0 Re2_6 2.768776 1_445
Re2_0 Re2_6 2.768776 1_555
Re2_1 Re2_5 2.766916 1_555
Re2_1 Re2_5 2.766916 1_455
Re2_1 Re2_3 2.766916 1_545
Re2_1 Re2_3 2.766916 1_555
Re2_1 Re2_7 2.768776 1_445
Re2_1 Re2_7 2.768776 1_555
Re2_2 Re2_6 2.766916 1_455
Re2_2 Re2_6 2.766916 1_555
Re2_2 Re2_4 2.768776 1_565
Re2_2 Re2_4 2.768776 1_455
Re2_3 Re2_7 2.766916 1_555
Re2_3 Re2_7 2.766916 1_455
Re2_3 Re2_5 2.768776 1_565
Re2_3 Re2_5 2.768776 1_455
Re2_4 Re2_6 2.766916 1_545
Re2_4 Re2_6 2.766916 1_555
Re2_5 Re2_7 2.766916 1_545
Re2_5 Re2_7 2.766916 1_555
