# generated using pymatgen
data_ReAg3
_symmetry_space_group_name_H-M   'P 1'
_cell_length_a   5.83378747
_cell_length_b   5.83378747
_cell_length_c   4.60589200
_cell_angle_alpha   90.00000000
_cell_angle_beta   90.00000000
_cell_angle_gamma   119.99999403
_symmetry_Int_Tables_number   1
_chemical_formula_structural   ReAg3
_chemical_formula_sum   'Re2 Ag6'
_cell_volume   135.75180578
_cell_formula_units_Z   2
loop_
 _symmetry_equiv_pos_site_id
 _symmetry_equiv_pos_as_xyz
  1  'x, y, z'
loop_
 _atom_site_type_symbol
 _atom_site_label
 _atom_site_symmetry_multiplicity
 _atom_site_fract_x
 _atom_site_fract_y
 _atom_site_fract_z
 _atom_site_occupancy
  Re  Re0  1  0.33333300  0.66666700  0.75000000  1
  Re  Re1  1  0.66666700  0.33333300  0.25000000  1
  Ag  Ag0  1  0.16936600  0.33873200  0.25000000  1
  Ag  Ag1  1  0.66126800  0.83063400  0.25000000  1
  Ag  Ag2  1  0.16936600  0.83063400  0.25000000  1
  Ag  Ag3  1  0.83063400  0.66126800  0.75000000  1
  Ag  Ag4  1  0.33873200  0.16936600  0.75000000  1
  Ag  Ag5  1  0.83063400  0.16936600  0.75000000  1
loop_
_geom_bond_atom_site_label_1
_geom_bond_atom_site_label_2
_geom_bond_distance
_geom_bond_site_symmetry_2
Ag0 Re0 2.836994 1_555
Ag0 Re0 2.836994 1_554
Ag0 Ag4 2.869192 1_555
Ag0 Ag4 2.869192 1_554
Ag0 Ag5 2.869192 1_454
Ag0 Ag5 2.869192 1_455
Ag0 Ag2 2.869652 1_555
Ag0 Ag1 2.869652 1_555
Ag0 Re1 2.917018 1_455
Ag0 Re1 2.917024 1_555
Ag0 Ag2 2.964136 1_545
Ag0 Ag1 2.964136 1_445
Ag1 Re0 2.836994 1_555
Ag1 Re0 2.836994 1_554
Ag1 Ag3 2.869192 1_554
Ag1 Ag3 2.869192 1_555
Ag1 Ag5 2.869192 1_565
Ag1 Ag5 2.869192 1_564
Ag1 Ag2 2.869652 1_555
Ag1 Re1 2.917018 1_565
Ag1 Re1 2.917024 1_555
Ag1 Ag2 2.964136 1_655
Ag2 Re0 2.836991 1_555
Ag2 Re0 2.836991 1_554
Ag2 Ag4 2.869192 1_565
Ag2 Ag4 2.869192 1_564
Ag2 Ag3 2.869192 1_455
Ag2 Ag3 2.869192 1_454
Ag2 Re1 2.917021 1_455
Ag2 Re1 2.917021 1_565
Ag3 Re1 2.836994 1_556
Ag3 Re1 2.836994 1_555
Ag3 Ag5 2.869652 1_555
Ag3 Ag4 2.869652 1_555
Ag3 Re0 2.917018 1_655
Ag3 Re0 2.917024 1_555
Ag3 Ag5 2.964136 1_565
Ag3 Ag4 2.964136 1_665
Ag4 Re1 2.836994 1_556
Ag4 Re1 2.836994 1_555
Ag4 Ag5 2.869652 1_555
Ag4 Re0 2.917018 1_545
Ag4 Re0 2.917024 1_555
Ag4 Ag5 2.964136 1_455
Ag5 Re1 2.836991 1_556
Ag5 Re1 2.836991 1_555
Ag5 Re0 2.917021 1_545
Ag5 Re0 2.917021 1_655
