# generated using pymatgen
data_In2(SO4)3
_symmetry_space_group_name_H-M   'P 1'
_cell_length_a   8.50412106
_cell_length_b   8.84099910
_cell_length_c   11.96173062
_cell_angle_alpha   89.99999769
_cell_angle_beta   91.19365422
_cell_angle_gamma   89.99999798
_symmetry_Int_Tables_number   1
_chemical_formula_structural   In2(SO4)3
_chemical_formula_sum   'In8 S12 O48'
_cell_volume   899.14667942
_cell_formula_units_Z   4
loop_
 _symmetry_equiv_pos_site_id
 _symmetry_equiv_pos_as_xyz
  1  'x, y, z'
loop_
 _atom_site_type_symbol
 _atom_site_label
 _atom_site_symmetry_multiplicity
 _atom_site_fract_x
 _atom_site_fract_y
 _atom_site_fract_z
 _atom_site_occupancy
  In  In0  1  0.25143864  0.46323913  0.88451773  1
  In  In1  1  0.24856068  0.96323788  0.61548272  1
  In  In2  1  0.74856071  0.53676212  0.11548271  1
  In  In3  1  0.75143862  0.03676090  0.38451773  1
  In  In4  1  0.24830502  0.03346815  0.11409837  1
  In  In5  1  0.25169632  0.53346686  0.38590195  1
  In  In6  1  0.75169634  0.96653310  0.88590198  1
  In  In7  1  0.74830503  0.46653184  0.61409836  1
  S  S0  1  0.45952731  0.75309821  0.00379119  1
  S  S1  1  0.04047357  0.25309765  0.49620893  1
  S  S2  1  0.54047359  0.24690237  0.99620891  1
  S  S3  1  0.95952732  0.74690186  0.50379122  1
  S  S4  1  0.39242424  0.88232741  0.35381578  1
  S  S5  1  0.10757418  0.38232763  0.14618436  1
  S  S6  1  0.60757414  0.11767238  0.64618437  1
  S  S7  1  0.89242426  0.61767257  0.85381579  1
  S  S8  1  0.10282618  0.12084405  0.84456184  1
  S  S9  1  0.39717313  0.62084486  0.65543833  1
  S  S10  1  0.89717314  0.87915511  0.15543835  1
  S  S11  1  0.60282623  0.37915590  0.34456182  1
  O  O0  1  0.28296479  0.92332526  0.44193652  1
  O  O1  1  0.21703348  0.42331985  0.05806227  1
  O  O2  1  0.71703339  0.07668017  0.55806226  1
  O  O3  1  0.78296484  0.57667472  0.94193654  1
  O  O4  1  0.31399590  0.81876532  0.04642274  1
  O  O5  1  0.18600517  0.31876409  0.45357913  1
  O  O6  1  0.68600521  0.18123590  0.95357915  1
  O  O7  1  0.81399599  0.68123472  0.54642273  1
  O  O8  1  0.94127818  0.08107402  0.81185525  1
  O  O9  1  0.55871444  0.58105709  0.68814754  1
  O  O10  1  0.05871450  0.91894280  0.18814754  1
  O  O11  1  0.44127818  0.41892587  0.31185532  1
  O  O12  1  0.38042455  0.99252426  0.26298120  1
  O  O13  1  0.11957788  0.49252486  0.23701833  1
  O  O14  1  0.61957788  0.00747517  0.73701834  1
  O  O15  1  0.88042454  0.50747571  0.76298121  1
  O  O16  1  0.21422484  0.02293185  0.78646550  1
  O  O17  1  0.55846095  0.70043632  0.09805969  1
  O  O18  1  0.44153641  0.29955890  0.90194043  1
  O  O19  1  0.05846096  0.79956356  0.59805973  1
  O  O20  1  0.85202070  0.76891432  0.81179871  1
  O  O21  1  0.64798445  0.26891220  0.68820123  1
  O  O22  1  0.14798452  0.23108781  0.18820127  1
  O  O23  1  0.35202071  0.73108569  0.31179870  1
  O  O24  1  0.04130903  0.63236905  0.43869564  1
  O  O25  1  0.45869323  0.13236943  0.06130481  1
  O  O26  1  0.95869328  0.36763066  0.56130482  1
  O  O27  1  0.54130903  0.86763114  0.93869567  1
  O  O28  1  0.05567825  0.61652953  0.89752146  1
  O  O29  1  0.44431973  0.11652877  0.60247816  1
  O  O30  1  0.94431979  0.38347125  0.10247811  1
  O  O31  1  0.55567820  0.88347046  0.39752149  1
  O  O32  1  0.62566695  0.22029210  0.31360294  1
  O  O33  1  0.87434870  0.72028673  0.18639314  1
  O  O34  1  0.37434885  0.77971327  0.68639301  1
  O  O35  1  0.12566683  0.27970791  0.81360306  1
  O  O36  1  0.92024067  0.87244465  0.42860820  1
  O  O37  1  0.57975726  0.37244732  0.07139107  1
  O  O38  1  0.07975724  0.12755268  0.57139110  1
  O  O39  1  0.42024063  0.62755547  0.92860807  1
  O  O40  1  0.62548940  0.39777326  0.46537989  1
  O  O41  1  0.87451103  0.89777334  0.03462019  1
  O  O42  1  0.37451109  0.60222651  0.53462019  1
  O  O43  1  0.12548927  0.10222651  0.96537990  1
  O  O44  1  0.71422475  0.47706824  0.28646550  1
  O  O45  1  0.78576468  0.97705656  0.21353520  1
  O  O46  1  0.28576459  0.52294354  0.71353517  1
  O  O47  1  0.94153636  0.20044115  0.40194046  1
loop_
_geom_bond_atom_site_label_1
_geom_bond_atom_site_label_2
_geom_bond_distance
_geom_bond_site_symmetry_2
In0 O39 2.101832 1_555
In0 O35 2.111534 1_555
In0 O1 2.131854 1_556
In0 O46 2.138164 1_555
In0 O28 2.154790 1_555
In0 O18 2.176448 1_555
In1 O38 2.101835 1_565
In1 O34 2.111538 1_555
In1 O0 2.131862 1_555
In1 O16 2.138157 1_565
In1 O29 2.154785 1_565
In1 O19 2.176426 1_555
In2 O37 2.101835 1_555
In2 O33 2.111538 1_555
In2 O3 2.131862 1_554
In2 O44 2.138157 1_555
In2 O30 2.154785 1_555
In2 O17 2.176426 1_555
In3 O36 2.101832 1_545
In3 O32 2.111534 1_555
In3 O2 2.131854 1_555
In3 O45 2.138164 1_545
In3 O31 2.154790 1_545
In3 O47 2.176448 1_555
In4 O25 2.100366 1_555
In4 O10 2.113947 1_545
In4 O12 2.116990 1_545
In4 O43 2.132503 1_554
In4 O4 2.142279 1_545
In4 O22 2.144203 1_555
In5 O24 2.100363 1_555
In5 O11 2.113943 1_555
In5 O13 2.116990 1_555
In5 O42 2.132501 1_555
In5 O5 2.142286 1_555
In5 O23 2.144212 1_555
In6 O27 2.100363 1_555
In6 O8 2.113943 1_565
In6 O14 2.116991 1_565
In6 O41 2.132500 1_556
In6 O6 2.142286 1_565
In6 O20 2.144212 1_555
In7 O26 2.100366 1_555
In7 O9 2.113947 1_555
In7 O15 2.116990 1_555
In7 O40 2.132504 1_555
In7 O7 2.142279 1_555
In7 O21 2.144203 1_555
O0 S4 1.466230 1_555
O1 S5 1.466228 1_555
O2 S6 1.466228 1_555
O3 S7 1.466230 1_555
O4 S0 1.468022 1_555
O5 S1 1.468014 1_555
O6 S2 1.468014 1_555
O7 S3 1.468022 1_555
O8 S8 1.463450 1_655
O9 S9 1.463442 1_555
O10 S10 1.463442 1_455
O11 S11 1.463450 1_555
O12 S4 1.461343 1_555
O13 S5 1.461342 1_555
O14 S6 1.461342 1_555
O15 S7 1.461343 1_555
O16 S8 1.468729 1_555
O17 S0 1.468542 1_555
O18 S2 1.468543 1_555
O19 S3 1.468541 1_455
O20 S7 1.466758 1_555
O21 S6 1.466755 1_555
O22 S5 1.466755 1_555
O23 S4 1.466758 1_555
O24 S3 1.462152 1_455
O25 S2 1.462150 1_554
O26 S1 1.462150 1_655
O27 S0 1.462153 1_556
O28 S7 1.473310 1_455
O29 S6 1.473316 1_555
O30 S5 1.473316 1_655
O31 S4 1.473310 1_555
O32 S11 1.466467 1_555
O33 S10 1.466474 1_555
O34 S9 1.466474 1_555
O35 S8 1.466467 1_555
O36 S3 1.462809 1_555
O37 S2 1.462811 1_554
O38 S1 1.462811 1_555
O39 S0 1.462809 1_556
O40 S11 1.463289 1_555
O41 S10 1.463290 1_555
O42 S9 1.463290 1_555
O43 S8 1.463289 1_555
O44 S11 1.468728 1_555
O45 S10 1.468730 1_555
O46 S9 1.468730 1_555
O47 S1 1.468543 1_655
