# generated using pymatgen
data_PmHo
_symmetry_space_group_name_H-M   'P 1'
_cell_length_a   7.30502240
_cell_length_b   7.30499108
_cell_length_c   11.73547422
_cell_angle_alpha   90.00191768
_cell_angle_beta   89.99815779
_cell_angle_gamma   120.00217146
_symmetry_Int_Tables_number   1
_chemical_formula_structural   PmHo
_chemical_formula_sum   'Pm8 Ho8'
_cell_volume   542.32923205
_cell_formula_units_Z   8
loop_
 _symmetry_equiv_pos_site_id
 _symmetry_equiv_pos_as_xyz
  1  'x, y, z'
loop_
 _atom_site_type_symbol
 _atom_site_label
 _atom_site_symmetry_multiplicity
 _atom_site_fract_x
 _atom_site_fract_y
 _atom_site_fract_z
 _atom_site_occupancy
  Pm  Pm0_0  1  0.16667250  0.33332426  0.12499039  1
  Pm  Pm0_1  1  0.16667250  0.33332426  0.62499039  1
  Pm  Pm0_2  1  0.16667250  0.83332426  0.12499039  1
  Pm  Pm0_3  1  0.16667250  0.83332426  0.62499039  1
  Pm  Pm0_4  1  0.66667250  0.33332426  0.12499039  1
  Pm  Pm0_5  1  0.66667250  0.33332427  0.62499039  1
  Pm  Pm0_6  1  0.66667250  0.83332426  0.12499039  1
  Pm  Pm0_7  1  0.66667250  0.83332426  0.62499039  1
  Ho  Ho0_0  1  0.33332800  0.16667624  0.37501011  1
  Ho  Ho0_1  1  0.33332800  0.16667624  0.87501011  1
  Ho  Ho0_2  1  0.33332800  0.66667623  0.37501011  1
  Ho  Ho0_3  1  0.33332800  0.66667623  0.87501011  1
  Ho  Ho0_4  1  0.83332800  0.16667623  0.37501011  1
  Ho  Ho0_5  1  0.83332800  0.16667623  0.87501011  1
  Ho  Ho0_6  1  0.83332800  0.66667624  0.37501011  1
  Ho  Ho0_7  1  0.83332800  0.66667623  0.87501011  1
loop_
_geom_bond_atom_site_label_1
_geom_bond_atom_site_label_2
_geom_bond_distance
_geom_bond_site_symmetry_2
Pm0_0 Pm0_6 3.652383 1_445
Pm0_0 Pm0_6 3.652383 1_555
Pm0_0 Pm0_2 3.652496 1_555
Pm0_0 Pm0_2 3.652496 1_545
Pm0_0 Pm0_4 3.652511 1_555
Pm0_0 Pm0_4 3.652511 1_455
Pm0_1 Pm0_7 3.652383 1_555
Pm0_1 Pm0_7 3.652383 1_445
Pm0_1 Pm0_3 3.652496 1_555
Pm0_1 Pm0_3 3.652496 1_545
Pm0_1 Pm0_5 3.652511 1_455
Pm0_1 Pm0_5 3.652511 1_555
Pm0_2 Pm0_4 3.652383 1_455
Pm0_2 Pm0_4 3.652383 1_565
Pm0_2 Pm0_6 3.652511 1_455
Pm0_2 Pm0_6 3.652511 1_555
Pm0_3 Pm0_5 3.652383 1_455
Pm0_3 Pm0_5 3.652383 1_565
Pm0_3 Pm0_7 3.652511 1_455
Pm0_3 Pm0_7 3.652511 1_555
Pm0_4 Pm0_6 3.652496 1_555
Pm0_4 Pm0_6 3.652496 1_545
Pm0_5 Pm0_7 3.652496 1_555
Pm0_5 Pm0_7 3.652496 1_545
Ho0_0 Pm0_1 3.612753 1_555
Ho0_0 Pm0_5 3.612962 1_555
Ho0_0 Pm0_3 3.612989 1_545
Ho0_0 Pm0_0 3.613259 1_555
Ho0_0 Pm0_4 3.613277 1_555
Ho0_0 Pm0_2 3.613296 1_545
Ho0_0 Ho0_6 3.652383 1_445
Ho0_0 Ho0_6 3.652383 1_555
Ho0_0 Ho0_2 3.652496 1_555
Ho0_0 Ho0_2 3.652496 1_545
Ho0_0 Ho0_4 3.652511 1_455
Ho0_0 Ho0_4 3.652511 1_555
Ho0_1 Pm0_0 3.612753 1_556
Ho0_1 Pm0_4 3.612962 1_556
Ho0_1 Pm0_2 3.612989 1_546
Ho0_1 Pm0_1 3.613259 1_555
Ho0_1 Pm0_5 3.613277 1_555
Ho0_1 Pm0_3 3.613296 1_545
Ho0_1 Ho0_7 3.652383 1_555
Ho0_1 Ho0_7 3.652383 1_445
Ho0_1 Ho0_3 3.652496 1_555
Ho0_1 Ho0_3 3.652496 1_545
Ho0_1 Ho0_5 3.652511 1_455
Ho0_1 Ho0_5 3.652511 1_555
Ho0_2 Pm0_3 3.612753 1_555
Ho0_2 Pm0_7 3.612962 1_555
Ho0_2 Pm0_1 3.612989 1_555
Ho0_2 Pm0_2 3.613259 1_555
Ho0_2 Pm0_6 3.613277 1_555
Ho0_2 Pm0_0 3.613296 1_555
Ho0_2 Ho0_4 3.652383 1_455
Ho0_2 Ho0_4 3.652383 1_565
Ho0_2 Ho0_6 3.652511 1_555
Ho0_2 Ho0_6 3.652511 1_455
Ho0_3 Pm0_2 3.612753 1_556
Ho0_3 Pm0_6 3.612962 1_556
Ho0_3 Pm0_0 3.612989 1_556
Ho0_3 Pm0_3 3.613259 1_555
Ho0_3 Pm0_7 3.613277 1_555
Ho0_3 Pm0_1 3.613296 1_555
Ho0_3 Ho0_5 3.652383 1_455
Ho0_3 Ho0_5 3.652383 1_565
Ho0_3 Ho0_7 3.652511 1_455
Ho0_3 Ho0_7 3.652511 1_555
Ho0_4 Pm0_5 3.612753 1_555
Ho0_4 Pm0_1 3.612962 1_655
Ho0_4 Pm0_7 3.612989 1_545
Ho0_4 Pm0_4 3.613259 1_555
Ho0_4 Pm0_0 3.613277 1_655
Ho0_4 Pm0_6 3.613296 1_545
Ho0_4 Ho0_6 3.652496 1_545
Ho0_4 Ho0_6 3.652496 1_555
Ho0_5 Pm0_4 3.612753 1_556
Ho0_5 Pm0_0 3.612962 1_656
Ho0_5 Pm0_6 3.612989 1_546
Ho0_5 Pm0_5 3.613259 1_555
Ho0_5 Pm0_1 3.613277 1_655
Ho0_5 Pm0_7 3.613296 1_545
Ho0_5 Ho0_7 3.652496 1_555
Ho0_5 Ho0_7 3.652496 1_545
Ho0_6 Pm0_7 3.612753 1_555
Ho0_6 Pm0_3 3.612962 1_655
Ho0_6 Pm0_5 3.612989 1_555
Ho0_6 Pm0_6 3.613259 1_555
Ho0_6 Pm0_2 3.613277 1_655
Ho0_6 Pm0_4 3.613296 1_555
Ho0_7 Pm0_6 3.612753 1_556
Ho0_7 Pm0_2 3.612962 1_656
Ho0_7 Pm0_4 3.612989 1_556
Ho0_7 Pm0_7 3.613259 1_555
Ho0_7 Pm0_3 3.613277 1_655
Ho0_7 Pm0_5 3.613296 1_555
