# generated using pymatgen
data_Rh3Pb
_symmetry_space_group_name_H-M   'P 1'
_cell_length_a   4.79526352
_cell_length_b   4.79526352
_cell_length_c   4.79526352
_cell_angle_alpha   129.71207552
_cell_angle_beta   129.71207552
_cell_angle_gamma   73.86748050
_symmetry_Int_Tables_number   1
_chemical_formula_structural   Rh3Pb
_chemical_formula_sum   'Rh3 Pb1'
_cell_volume   63.64810981
_cell_formula_units_Z   1
loop_
 _symmetry_equiv_pos_site_id
 _symmetry_equiv_pos_as_xyz
  1  'x, y, z'
loop_
 _atom_site_type_symbol
 _atom_site_label
 _atom_site_symmetry_multiplicity
 _atom_site_fract_x
 _atom_site_fract_y
 _atom_site_fract_z
 _atom_site_occupancy
  Rh  Rh0  1  0.75000000  0.25000000  0.50000000  1
  Rh  Rh1  1  0.25000000  0.75000000  0.50000000  1
  Rh  Rh2  1  0.50000000  0.50000000  0.00000000  1
  Pb  Pb0  1  0.00000000  0.00000000  0.00000000  1
loop_
_geom_bond_atom_site_label_1
_geom_bond_atom_site_label_2
_geom_bond_distance
_geom_bond_site_symmetry_2
Rh0 Rh2 2.797195 1_555
Rh0 Rh2 2.797195 1_556
Rh0 Rh2 2.797195 1_656
Rh0 Rh2 2.797195 1_545
Rh0 Rh1 2.881431 1_555
Rh0 Rh1 2.881431 1_645
Rh0 Rh1 2.881431 1_544
Rh0 Rh1 2.881431 1_656
Rh1 Rh2 2.797195 1_555
Rh1 Rh2 2.797195 1_556
Rh1 Rh2 2.797195 1_455
Rh1 Rh2 2.797195 1_566
Pb0 Rh1 2.797195 1_545
Pb0 Rh1 2.797195 1_555
Pb0 Rh1 2.797195 1_444
Pb0 Rh0 2.797195 1_455
Pb0 Rh0 2.797195 1_444
Pb0 Rh0 2.797195 1_454
Pb0 Rh0 2.797195 1_555
Pb0 Rh1 2.797195 1_544
Pb0 Rh2 2.881431 1_556
Pb0 Rh2 2.881431 1_444
Pb0 Rh2 2.881431 1_545
Pb0 Rh2 2.881431 1_455
