# generated using pymatgen
data_U2Cr3Si
_symmetry_space_group_name_H-M   'P 1'
_cell_length_a   5.12067197
_cell_length_b   5.12067197
_cell_length_c   8.06224600
_cell_angle_alpha   90.00000000
_cell_angle_beta   90.00000000
_cell_angle_gamma   119.99999959
_symmetry_Int_Tables_number   1
_chemical_formula_structural   U2Cr3Si
_chemical_formula_sum   'U4 Cr6 Si2'
_cell_volume   183.07986789
_cell_formula_units_Z   2
loop_
 _symmetry_equiv_pos_site_id
 _symmetry_equiv_pos_as_xyz
  1  'x, y, z'
loop_
 _atom_site_type_symbol
 _atom_site_label
 _atom_site_symmetry_multiplicity
 _atom_site_fract_x
 _atom_site_fract_y
 _atom_site_fract_z
 _atom_site_occupancy
  U  U0  1  0.33333300  0.66666700  0.08595600  1
  U  U1  1  0.66666700  0.33333300  0.58595600  1
  U  U2  1  0.66666700  0.33333300  0.91404400  1
  U  U3  1  0.33333300  0.66666700  0.41404400  1
  Cr  Cr0  1  0.34460200  0.17230100  0.25000000  1
  Cr  Cr1  1  0.82769900  0.65539800  0.25000000  1
  Cr  Cr2  1  0.82769900  0.17230100  0.25000000  1
  Cr  Cr3  1  0.17230100  0.34460200  0.75000000  1
  Cr  Cr4  1  0.17230100  0.82769900  0.75000000  1
  Cr  Cr5  1  0.65539800  0.82769900  0.75000000  1
  Si  Si0  1  0.00000000  0.00000000  0.00000000  1
  Si  Si1  1  0.00000000  0.00000000  0.50000000  1
loop_
_geom_bond_atom_site_label_1
_geom_bond_atom_site_label_2
_geom_bond_distance
_geom_bond_site_symmetry_2
U0 U3 2.645126 1_555
U1 U2 2.645126 1_555
Cr0 Cr2 2.473781 1_555
Cr0 Cr1 2.473781 1_555
Cr0 Si1 2.529394 1_555
Cr0 Si0 2.529394 1_555
Cr0 Cr2 2.646891 1_455
Cr0 Cr1 2.646891 1_445
Cr0 U0 2.882183 1_545
Cr0 U3 2.882183 1_545
Cr0 U3 2.882187 1_555
Cr0 U0 2.882187 1_555
Cr0 U2 3.062053 1_554
Cr0 U1 3.062053 1_555
Cr1 Cr2 2.473781 1_555
Cr1 Si1 2.529394 1_665
Cr1 Si0 2.529394 1_665
Cr1 Cr2 2.646891 1_565
Cr1 U0 2.882183 1_655
Cr1 U3 2.882183 1_655
Cr1 U3 2.882187 1_555
Cr1 U0 2.882187 1_555
Cr1 U2 3.062053 1_554
Cr1 U1 3.062053 1_555
Cr2 Si0 2.529394 1_655
Cr2 Si1 2.529394 1_655
Cr2 U3 2.882185 1_545
Cr2 U3 2.882185 1_655
Cr2 U0 2.882185 1_655
Cr2 U0 2.882185 1_545
Cr2 U2 3.062050 1_554
Cr2 U1 3.062050 1_555
Cr3 Cr4 2.473781 1_555
Cr3 Cr5 2.473781 1_555
Cr3 Si1 2.529394 1_555
Cr3 Si0 2.529394 1_556
Cr3 Cr4 2.646891 1_545
Cr3 Cr5 2.646891 1_445
Cr3 U1 2.882183 1_455
Cr3 U2 2.882183 1_455
Cr3 U2 2.882187 1_555
Cr3 U1 2.882187 1_555
Cr3 U0 3.062053 1_556
Cr3 U3 3.062053 1_555
Cr4 Cr5 2.473781 1_555
Cr4 Si1 2.529394 1_565
Cr4 Si0 2.529394 1_566
Cr4 Cr5 2.646891 1_455
Cr4 U1 2.882185 1_455
Cr4 U2 2.882185 1_455
Cr4 U2 2.882185 1_565
Cr4 U1 2.882185 1_565
Cr4 U0 3.062050 1_556
Cr4 U3 3.062050 1_555
Cr5 Si1 2.529394 1_665
Cr5 Si0 2.529394 1_666
Cr5 U2 2.882183 1_565
Cr5 U1 2.882183 1_565
Cr5 U2 2.882187 1_555
Cr5 U1 2.882187 1_555
Cr5 U0 3.062053 1_556
Cr5 U3 3.062053 1_555
Si0 U0 3.036553 1_545
Si0 U2 3.036553 1_454
Si0 U0 3.036558 1_555
Si0 U0 3.036558 1_445
Si0 U2 3.036558 1_444
Si0 U2 3.036558 1_554
Si1 U1 3.036553 1_455
Si1 U3 3.036553 1_545
Si1 U1 3.036558 1_555
Si1 U3 3.036558 1_445
Si1 U1 3.036558 1_445
Si1 U3 3.036558 1_555
