# generated using pymatgen
data_LiNbIr2
_symmetry_space_group_name_H-M   'P 1'
_cell_length_a   4.34576622
_cell_length_b   4.34576766
_cell_length_c   4.34576190
_cell_angle_alpha   60.00002201
_cell_angle_beta   60.00007681
_cell_angle_gamma   60.00001098
_symmetry_Int_Tables_number   1
_chemical_formula_structural   LiNbIr2
_chemical_formula_sum   'Li1 Nb1 Ir2'
_cell_volume   58.03422042
_cell_formula_units_Z   1
loop_
 _symmetry_equiv_pos_site_id
 _symmetry_equiv_pos_as_xyz
  1  'x, y, z'
loop_
 _atom_site_type_symbol
 _atom_site_label
 _atom_site_symmetry_multiplicity
 _atom_site_fract_x
 _atom_site_fract_y
 _atom_site_fract_z
 _atom_site_occupancy
  Li  Li0  1  0.25000000  0.25000000  0.25000000  1
  Nb  Nb0  1  0.75000000  0.75000100  0.75000100  1
  Ir  Ir0  1  -0.00000000  -0.00000000  0.00000000  1
  Ir  Ir1  1  0.49999900  0.49999900  0.49999900  1
loop_
_geom_bond_atom_site_label_1
_geom_bond_atom_site_label_2
_geom_bond_distance
_geom_bond_site_symmetry_2
Ir0 Nb0 2.661219 1_444
Ir0 Li0 2.661226 1_555
Ir0 Li0 2.661227 1_554
Ir0 Li0 2.661228 1_545
Ir0 Li0 2.661229 1_455
Ir0 Nb0 2.661229 1_544
Ir0 Nb0 2.661230 1_445
Ir0 Nb0 2.661232 1_454
Ir1 Li0 2.661215 1_555
Ir1 Nb0 2.661220 1_554
Ir1 Nb0 2.661221 1_545
Ir1 Nb0 2.661226 1_455
Ir1 Li0 2.661230 1_556
Ir1 Li0 2.661232 1_565
Ir1 Li0 2.661233 1_655
Ir1 Nb0 2.661244 1_555
