# generated using pymatgen
data_K3Ho
_symmetry_space_group_name_H-M   'P 1'
_cell_length_a   6.86852556
_cell_length_b   6.86852556
_cell_length_c   6.86852556
_cell_angle_alpha   60.00000000
_cell_angle_beta   60.00000000
_cell_angle_gamma   60.00000000
_symmetry_Int_Tables_number   1
_chemical_formula_structural   K3Ho
_chemical_formula_sum   'K3 Ho1'
_cell_volume   229.12662513
_cell_formula_units_Z   1
loop_
 _symmetry_equiv_pos_site_id
 _symmetry_equiv_pos_as_xyz
  1  'x, y, z'
loop_
 _atom_site_type_symbol
 _atom_site_label
 _atom_site_symmetry_multiplicity
 _atom_site_fract_x
 _atom_site_fract_y
 _atom_site_fract_z
 _atom_site_occupancy
  K  K0  1  0.25000000  0.25000000  0.25000000  1
  K  K1  1  0.75000000  0.75000000  0.75000000  1
  K  K2  1  0.50000000  0.50000000  0.50000000  1
  Ho  Ho0  1  0.00000000  0.00000000  0.00000000  1
loop_
_geom_bond_atom_site_label_1
_geom_bond_atom_site_label_2
_geom_bond_distance
_geom_bond_site_symmetry_2
K0 K2 4.206096 1_555
K0 K2 4.206096 1_545
K0 K2 4.206096 1_455
K0 K2 4.206096 1_554
K1 K2 4.206096 1_555
K1 K2 4.206096 1_655
K1 K2 4.206096 1_565
K1 K2 4.206096 1_556
Ho0 K0 4.206096 1_554
Ho0 K1 4.206096 1_454
Ho0 K0 4.206096 1_455
Ho0 K0 4.206096 1_555
Ho0 K1 4.206096 1_444
Ho0 K1 4.206096 1_445
Ho0 K0 4.206096 1_545
Ho0 K1 4.206096 1_544
