# generated using pymatgen
data_Ba4Sb2O
_symmetry_space_group_name_H-M   'P 1'
_cell_length_a   5.31331121
_cell_length_b   5.31331101
_cell_length_c   9.93871091
_cell_angle_alpha   105.50388200
_cell_angle_beta   105.50388320
_cell_angle_gamma   90.00000336
_symmetry_Int_Tables_number   1
_chemical_formula_structural   Ba4Sb2O
_chemical_formula_sum   'Ba4 Sb2 O1'
_cell_volume   259.76202421
_cell_formula_units_Z   1
loop_
 _symmetry_equiv_pos_site_id
 _symmetry_equiv_pos_as_xyz
  1  'x, y, z'
loop_
 _atom_site_type_symbol
 _atom_site_label
 _atom_site_symmetry_multiplicity
 _atom_site_fract_x
 _atom_site_fract_y
 _atom_site_fract_z
 _atom_site_occupancy
  Ba  Ba0  1  0.67066324  0.67066324  0.34132848  1
  Ba  Ba1  1  0.32933676  0.32933676  0.65867152  1
  Ba  Ba2  1  0.00000000  0.50000000  -0.00000000  1
  Ba  Ba3  1  0.50000000  0.00000000  -0.00000000  1
  Sb  Sb0  1  0.86250429  0.86250429  0.72500759  1
  Sb  Sb1  1  0.13749571  0.13749571  0.27499241  1
  O  O0  1  0.50000000  0.50000000  -0.00000000  1
loop_
_geom_bond_atom_site_label_1
_geom_bond_atom_site_label_2
_geom_bond_distance
_geom_bond_site_symmetry_2
Ba0 O0 3.140637 1_555
Ba0 Sb0 3.530314 1_555
Ba0 Sb1 3.806332 1_555
Ba0 Sb1 3.806336 1_565
Ba0 Sb1 3.806336 1_655
Ba0 Sb1 3.806339 1_665
Ba1 O0 3.140637 1_556
Ba1 Sb1 3.530314 1_555
Ba1 Sb0 3.806332 1_555
Ba1 Sb0 3.806336 1_545
Ba1 Sb0 3.806336 1_455
Ba1 Sb0 3.806339 1_445
Ba2 O0 2.656656 1_555
Ba2 O0 2.656656 1_455
Ba2 Sb0 3.668793 1_444
Ba2 Sb1 3.668793 1_565
Ba2 Sb0 3.668796 1_454
Ba2 Sb1 3.668796 1_555
Ba3 O0 2.656656 1_545
Ba3 O0 2.656656 1_555
Ba3 Sb0 3.668793 1_444
Ba3 Sb1 3.668793 1_655
Ba3 Sb0 3.668797 1_544
Ba3 Sb1 3.668797 1_555
