# generated using pymatgen
data_Sr
_symmetry_space_group_name_H-M   'P 1'
_cell_length_a   8.32151180
_cell_length_b   8.32151140
_cell_length_c   8.32151306
_cell_angle_alpha   109.47123508
_cell_angle_beta   109.47123416
_cell_angle_gamma   109.47118575
_symmetry_Int_Tables_number   1
_chemical_formula_structural   Sr
_chemical_formula_sum   Sr8
_cell_volume   443.59321103
_cell_formula_units_Z   8
loop_
 _symmetry_equiv_pos_site_id
 _symmetry_equiv_pos_as_xyz
  1  'x, y, z'
loop_
 _atom_site_type_symbol
 _atom_site_label
 _atom_site_symmetry_multiplicity
 _atom_site_fract_x
 _atom_site_fract_y
 _atom_site_fract_z
 _atom_site_occupancy
  Sr  Sr0_0  1  0.00000000  0.00000000  0.00000000  1
  Sr  Sr0_1  1  0.00000000  0.00000000  0.50000000  1
  Sr  Sr0_2  1  1.00000000  0.50000000  0.00000000  1
  Sr  Sr0_3  1  1.00000000  0.50000000  0.50000000  1
  Sr  Sr0_4  1  0.50000000  0.00000000  0.00000000  1
  Sr  Sr0_5  1  0.50000000  0.00000000  0.50000000  1
  Sr  Sr0_6  1  0.50000000  0.50000000  0.00000000  1
  Sr  Sr0_7  1  0.50000000  0.50000000  0.50000000  1
loop_
_geom_bond_atom_site_label_1
_geom_bond_atom_site_label_2
_geom_bond_distance
_geom_bond_site_symmetry_2
Sr0_0 Sr0_2 4.160756 1_455
Sr0_0 Sr0_2 4.160756 1_445
Sr0_0 Sr0_4 4.160756 1_455
Sr0_0 Sr0_4 4.160756 1_555
Sr0_0 Sr0_7 4.160757 1_555
Sr0_0 Sr0_7 4.160757 1_444
Sr0_0 Sr0_1 4.160757 1_555
Sr0_0 Sr0_1 4.160757 1_554
Sr0_1 Sr0_3 4.160756 1_445
Sr0_1 Sr0_3 4.160756 1_455
Sr0_1 Sr0_5 4.160756 1_455
Sr0_1 Sr0_5 4.160756 1_555
Sr0_1 Sr0_6 4.160757 1_556
Sr0_1 Sr0_6 4.160757 1_445
Sr0_2 Sr0_6 4.160756 1_555
Sr0_2 Sr0_6 4.160756 1_655
Sr0_2 Sr0_5 4.160757 1_554
Sr0_2 Sr0_5 4.160757 1_665
Sr0_2 Sr0_3 4.160757 1_555
Sr0_2 Sr0_3 4.160757 1_554
Sr0_3 Sr0_7 4.160756 1_555
Sr0_3 Sr0_7 4.160756 1_655
Sr0_3 Sr0_4 4.160757 1_555
Sr0_3 Sr0_4 4.160757 1_666
Sr0_4 Sr0_6 4.160756 1_555
Sr0_4 Sr0_6 4.160756 1_545
Sr0_4 Sr0_5 4.160757 1_555
Sr0_4 Sr0_5 4.160757 1_554
Sr0_5 Sr0_7 4.160756 1_555
Sr0_5 Sr0_7 4.160756 1_545
Sr0_6 Sr0_7 4.160757 1_555
Sr0_6 Sr0_7 4.160757 1_554
