# generated using pymatgen
data_GdMgNi4
_symmetry_space_group_name_H-M   'P 1'
_cell_length_a   4.92356428
_cell_length_b   4.92351639
_cell_length_c   4.92351639
_cell_angle_alpha   60.00000000
_cell_angle_beta   60.00032172
_cell_angle_gamma   60.00032172
_symmetry_Int_Tables_number   1
_chemical_formula_structural   GdMgNi4
_chemical_formula_sum   'Gd1 Mg1 Ni4'
_cell_volume   84.39515267
_cell_formula_units_Z   1
loop_
 _symmetry_equiv_pos_site_id
 _symmetry_equiv_pos_as_xyz
  1  'x, y, z'
loop_
 _atom_site_type_symbol
 _atom_site_label
 _atom_site_symmetry_multiplicity
 _atom_site_fract_x
 _atom_site_fract_y
 _atom_site_fract_z
 _atom_site_occupancy
  Gd  Gd0  1  0.00000312  0.99999863  0.99999863  1
  Mg  Mg0  1  0.24999965  0.25000012  0.25000012  1
  Ni  Ni0  1  0.62360714  0.62360820  0.12917746  1
  Ni  Ni1  1  0.62360714  0.12917746  0.62360820  1
  Ni  Ni2  1  0.12917482  0.62360839  0.62360839  1
  Ni  Ni3  1  0.62360714  0.62360820  0.62360820  1
loop_
_geom_bond_atom_site_label_1
_geom_bond_atom_site_label_2
_geom_bond_distance
_geom_bond_site_symmetry_2
Gd0 Ni2 2.889633 1_555
Gd0 Ni2 2.889637 1_565
Gd0 Ni2 2.889637 1_556
Gd0 Ni0 2.889653 1_456
Gd0 Ni1 2.889653 1_465
Gd0 Ni3 2.889654 1_555
Gd0 Ni3 2.889657 1_465
Gd0 Ni3 2.889657 1_456
Gd0 Ni1 2.889658 1_565
Gd0 Ni0 2.889658 1_556
Gd0 Ni1 2.889661 1_466
Gd0 Ni0 2.889661 1_466
Gd0 Mg0 3.015025 1_556
Gd0 Mg0 3.015025 1_565
Gd0 Mg0 3.015029 1_566
Gd0 Mg0 3.015084 1_466
Mg0 Ni2 2.883794 1_555
Mg0 Ni2 2.883794 1_545
Mg0 Ni2 2.883794 1_554
Mg0 Ni1 2.883801 1_554
Mg0 Ni0 2.883801 1_545
Mg0 Ni3 2.883803 1_545
Mg0 Ni3 2.883803 1_554
Mg0 Ni1 2.883805 1_555
Mg0 Ni0 2.883805 1_555
Mg0 Ni0 2.883824 1_455
Mg0 Ni1 2.883824 1_455
Mg0 Ni3 2.883826 1_455
Ni0 Ni1 2.434338 1_555
Ni0 Ni3 2.434338 1_555
Ni0 Ni2 2.434366 1_555
Ni0 Ni1 2.489179 1_564
Ni0 Ni3 2.489179 1_554
Ni0 Ni2 2.489198 1_654
Ni1 Ni3 2.434338 1_555
Ni1 Ni2 2.434366 1_555
Ni1 Ni3 2.489179 1_545
Ni1 Ni2 2.489198 1_645
Ni2 Ni3 2.434368 1_555
Ni2 Ni3 2.489196 1_455
