# generated using pymatgen
data_KYb(CO3)2
_symmetry_space_group_name_H-M   'P 1'
_cell_length_a   6.52217455
_cell_length_b   6.52217455
_cell_length_c   7.07756294
_cell_angle_alpha   76.91814133
_cell_angle_beta   76.91814133
_cell_angle_gamma   99.05524608
_symmetry_Int_Tables_number   1
_chemical_formula_structural   KYb(CO3)2
_chemical_formula_sum   'K2 Yb2 C4 O12'
_cell_volume   278.65574442
_cell_formula_units_Z   2
loop_
 _symmetry_equiv_pos_site_id
 _symmetry_equiv_pos_as_xyz
  1  'x, y, z'
loop_
 _atom_site_type_symbol
 _atom_site_label
 _atom_site_symmetry_multiplicity
 _atom_site_fract_x
 _atom_site_fract_y
 _atom_site_fract_z
 _atom_site_occupancy
  K  K0  1  0.87216900  0.12783100  0.75000000  1
  K  K1  1  0.12783100  0.87216900  0.25000000  1
  Yb  Yb0  1  0.40612000  0.59388000  0.75000000  1
  Yb  Yb1  1  0.59388000  0.40612000  0.25000000  1
  C  C0  1  0.60600800  0.85741000  0.25197100  1
  C  C1  1  0.14259000  0.39399200  0.24802900  1
  C  C2  1  0.39399200  0.14259000  0.74802900  1
  C  C3  1  0.85741000  0.60600800  0.75197100  1
  O  O0  1  0.05355800  0.58570800  0.72109400  1
  O  O1  1  0.41429200  0.94644200  0.77890600  1
  O  O2  1  0.94644200  0.41429200  0.27890600  1
  O  O3  1  0.58570800  0.05355800  0.22109400  1
  O  O4  1  0.80097700  0.75472100  0.63430600  1
  O  O5  1  0.24527900  0.19902300  0.86569400  1
  O  O6  1  0.19902300  0.24527900  0.36569400  1
  O  O7  1  0.75472100  0.80097700  0.13430600  1
  O  O8  1  0.70713200  0.46975800  0.90035700  1
  O  O9  1  0.53024200  0.29286800  0.59964300  1
  O  O10  1  0.29286800  0.53024200  0.09964300  1
  O  O11  1  0.46975800  0.70713200  0.40035700  1
loop_
_geom_bond_atom_site_label_1
_geom_bond_atom_site_label_2
_geom_bond_distance
_geom_bond_site_symmetry_2
K0 O4 2.743432 1_545
K0 O5 2.743432 1_655
K0 O6 2.906445 1_655
K0 O7 2.906445 1_546
K0 O8 2.928454 1_555
K0 O9 2.928454 1_555
K0 O1 2.976833 1_545
K0 O0 2.976833 1_655
K1 O7 2.743432 1_455
K1 O6 2.743432 1_565
K1 O5 2.906445 1_564
K1 O4 2.906445 1_455
K1 O11 2.928454 1_555
K1 O10 2.928454 1_555
K1 O3 2.976833 1_565
K1 O2 2.976833 1_455
C0 O3 1.281320 1_565
C0 O7 1.286562 1_555
C0 O11 1.300266 1_555
C1 O2 1.281320 1_455
C1 O6 1.286562 1_555
C1 O10 1.300266 1_555
C2 O1 1.281320 1_545
C2 O5 1.286562 1_555
C2 O9 1.300266 1_555
C3 O0 1.281320 1_655
C3 O4 1.286562 1_555
C3 O8 1.300266 1_555
O0 Yb0 2.347675 1_555
O1 Yb0 2.347675 1_555
O2 Yb1 2.347675 1_555
O3 Yb1 2.347675 1_555
O4 Yb0 2.491870 1_555
O5 Yb0 2.491870 1_555
O6 Yb1 2.491870 1_555
O7 Yb1 2.491870 1_555
O8 Yb1 2.335103 1_556
O8 Yb0 2.588093 1_555
O9 Yb1 2.335103 1_555
O9 Yb0 2.588093 1_555
O10 Yb0 2.335103 1_554
O10 Yb1 2.588093 1_555
O11 Yb0 2.335103 1_555
O11 Yb1 2.588093 1_555
