# generated using pymatgen
data_NaTl2Pd
_symmetry_space_group_name_H-M   'P 1'
_cell_length_a   4.94472353
_cell_length_b   4.94488343
_cell_length_c   4.94239646
_cell_angle_alpha   60.02855757
_cell_angle_beta   59.99333244
_cell_angle_gamma   59.99158093
_symmetry_Int_Tables_number   1
_chemical_formula_structural   NaTl2Pd
_chemical_formula_sum   'Na1 Tl2 Pd1'
_cell_volume   85.46036629
_cell_formula_units_Z   1
loop_
 _symmetry_equiv_pos_site_id
 _symmetry_equiv_pos_as_xyz
  1  'x, y, z'
loop_
 _atom_site_type_symbol
 _atom_site_label
 _atom_site_symmetry_multiplicity
 _atom_site_fract_x
 _atom_site_fract_y
 _atom_site_fract_z
 _atom_site_occupancy
  Na  Na0  1  0.25000000  0.25000000  0.25000000  1
  Tl  Tl0  1  0.99998726  0.99994225  0.00002595  1
  Tl  Tl1  1  0.50001274  0.50005875  0.49997505  1
  Pd  Pd0  1  0.75000000  0.75000000  0.75000000  1
loop_
_geom_bond_atom_site_label_1
_geom_bond_atom_site_label_2
_geom_bond_distance
_geom_bond_site_symmetry_2
Na0 Tl1 3.027254 1_554
Na0 Tl0 3.027258 1_446
Na0 Tl1 3.027398 1_455
Na0 Tl0 3.027398 1_545
Na0 Tl0 3.027647 1_445
Na0 Tl1 3.027655 1_555
Na0 Tl1 3.028385 1_545
Na0 Tl0 3.028389 1_455
Pd0 Tl0 3.027048 1_555
Pd0 Tl1 3.027052 1_556
Pd0 Tl1 3.027279 1_555
Pd0 Tl0 3.027287 1_556
Pd0 Tl0 3.027501 1_456
Pd0 Tl1 3.027501 1_655
Pd0 Tl0 3.028855 1_546
Pd0 Tl1 3.028859 1_565
