# generated using pymatgen
data_HfSiNi
_symmetry_space_group_name_H-M   'P 1'
_cell_length_a   4.15184252
_cell_length_b   4.15184252
_cell_length_c   4.15184252
_cell_angle_alpha   60.00000000
_cell_angle_beta   60.00000000
_cell_angle_gamma   60.00000000
_symmetry_Int_Tables_number   1
_chemical_formula_structural   HfSiNi
_chemical_formula_sum   'Hf1 Si1 Ni1'
_cell_volume   50.60665345
_cell_formula_units_Z   1
loop_
 _symmetry_equiv_pos_site_id
 _symmetry_equiv_pos_as_xyz
  1  'x, y, z'
loop_
 _atom_site_type_symbol
 _atom_site_label
 _atom_site_symmetry_multiplicity
 _atom_site_fract_x
 _atom_site_fract_y
 _atom_site_fract_z
 _atom_site_occupancy
  Hf  Hf0  1  0.00000000  0.00000000  0.00000000  1
  Si  Si0  1  0.25000000  0.25000000  0.25000000  1
  Ni  Ni0  1  0.50000000  0.50000000  0.50000000  1
loop_
_geom_bond_atom_site_label_1
_geom_bond_atom_site_label_2
_geom_bond_distance
_geom_bond_site_symmetry_2
Hf0 Si0 2.542474 1_554
Hf0 Si0 2.542474 1_455
Hf0 Si0 2.542474 1_545
Hf0 Si0 2.542474 1_555
Hf0 Ni0 2.935796 1_554
Hf0 Ni0 2.935796 1_455
Hf0 Ni0 2.935796 1_454
Hf0 Ni0 2.935796 1_544
Hf0 Ni0 2.935796 1_445
Hf0 Ni0 2.935796 1_545
Ni0 Si0 2.542474 1_565
Ni0 Si0 2.542474 1_556
Ni0 Si0 2.542474 1_555
Ni0 Si0 2.542474 1_655
