# generated using pymatgen
data_Mn2Co2O5
_symmetry_space_group_name_H-M   'P 1'
_cell_length_a   3.64792500
_cell_length_b   3.64792500
_cell_length_c   7.27687700
_cell_angle_alpha   90.00000000
_cell_angle_beta   90.00000000
_cell_angle_gamma   90.00000000
_symmetry_Int_Tables_number   1
_chemical_formula_structural   Mn2Co2O5
_chemical_formula_sum   'Mn2 Co2 O5'
_cell_volume   96.83599867
_cell_formula_units_Z   1
loop_
 _symmetry_equiv_pos_site_id
 _symmetry_equiv_pos_as_xyz
  1  'x, y, z'
loop_
 _atom_site_type_symbol
 _atom_site_label
 _atom_site_symmetry_multiplicity
 _atom_site_fract_x
 _atom_site_fract_y
 _atom_site_fract_z
 _atom_site_occupancy
  Mn  Mn0  1  0.00000000  0.00000000  0.00000000  1
  Mn  Mn1  1  0.00000000  0.00000000  0.50000000  1
  Co  Co0  1  0.50000000  0.50000000  0.76107100  1
  Co  Co1  1  0.50000000  0.50000000  0.23892900  1
  O  O0  1  0.00000000  0.50000000  0.81345800  1
  O  O1  1  0.00000000  0.50000000  0.18654200  1
  O  O2  1  0.50000000  0.50000000  0.50000000  1
  O  O3  1  0.50000000  0.00000000  0.81345800  1
  O  O4  1  0.50000000  0.00000000  0.18654200  1
loop_
_geom_bond_atom_site_label_1
_geom_bond_atom_site_label_2
_geom_bond_distance
_geom_bond_site_symmetry_2
Mn0 O4 2.273652 1_555
Mn0 O4 2.273652 1_455
Mn0 O1 2.273652 1_555
Mn0 O1 2.273652 1_545
Mn0 O0 2.273652 1_544
Mn0 O0 2.273652 1_554
Mn0 O3 2.273652 1_554
Mn0 O3 2.273652 1_454
Mn1 O2 2.579473 1_555
Mn1 O2 2.579473 1_455
Mn1 O2 2.579473 1_445
Mn1 O2 2.579473 1_545
Co0 O3 1.863374 1_565
Co0 O0 1.863374 1_655
Co0 O3 1.863374 1_555
Co0 O0 1.863374 1_555
Co0 O2 1.899782 1_555
Co1 O4 1.863374 1_555
Co1 O1 1.863374 1_555
Co1 O1 1.863374 1_655
Co1 O4 1.863374 1_565
Co1 O2 1.899782 1_555
