# generated using pymatgen
data_RbSbF6
_symmetry_space_group_name_H-M   'P 1'
_cell_length_a   5.04621453
_cell_length_b   5.04621476
_cell_length_c   5.04621546
_cell_angle_alpha   96.83467720
_cell_angle_beta   96.83466614
_cell_angle_gamma   96.83466395
_symmetry_Int_Tables_number   1
_chemical_formula_structural   RbSbF6
_chemical_formula_sum   'Rb1 Sb1 F6'
_cell_volume   125.51739941
_cell_formula_units_Z   1
loop_
 _symmetry_equiv_pos_site_id
 _symmetry_equiv_pos_as_xyz
  1  'x, y, z'
loop_
 _atom_site_type_symbol
 _atom_site_label
 _atom_site_symmetry_multiplicity
 _atom_site_fract_x
 _atom_site_fract_y
 _atom_site_fract_z
 _atom_site_occupancy
  Rb  Rb0  1  0.50000000  0.50000000  0.50000000  1
  Sb  Sb0  1  0.00000000  -0.00000000  -0.00000000  1
  F  F0  1  0.20261545  0.31607388  0.92236736  1
  F  F1  1  0.31607388  0.92236736  0.20261545  1
  F  F2  1  0.07763264  0.79738455  0.68392612  1
  F  F3  1  0.68392612  0.07763264  0.79738455  1
  F  F4  1  0.79738455  0.68392612  0.07763264  1
  F  F5  1  0.92236736  0.20261545  0.31607388  1
loop_
_geom_bond_atom_site_label_1
_geom_bond_atom_site_label_2
_geom_bond_distance
_geom_bond_site_symmetry_2
F0 Sb0 1.897028 1_556
F0 Rb0 2.925182 1_555
F0 Rb0 3.097307 1_556
F1 Sb0 1.897028 1_565
F1 Rb0 2.925182 1_555
F1 Rb0 3.097307 1_565
F2 Sb0 1.897028 1_566
F2 Rb0 2.925182 1_555
F2 Rb0 3.097307 1_455
F3 Sb0 1.897028 1_656
F3 Rb0 2.925182 1_555
F3 Rb0 3.097307 1_545
F4 Sb0 1.897028 1_665
F4 Rb0 2.925182 1_555
F4 Rb0 3.097307 1_554
F5 Sb0 1.897028 1_655
F5 Rb0 2.925182 1_555
F5 Rb0 3.097307 1_655
