# generated using pymatgen
data_In4SbTe3
_symmetry_space_group_name_H-M   'P 1'
_cell_length_a   7.61196393
_cell_length_b   7.61196393
_cell_length_c   7.61196393
_cell_angle_alpha   131.29455417
_cell_angle_beta   131.29455417
_cell_angle_gamma   71.34551018
_symmetry_Int_Tables_number   1
_chemical_formula_structural   In4SbTe3
_chemical_formula_sum   'In4 Sb1 Te3'
_cell_volume   243.68969985
_cell_formula_units_Z   1
loop_
 _symmetry_equiv_pos_site_id
 _symmetry_equiv_pos_as_xyz
  1  'x, y, z'
loop_
 _atom_site_type_symbol
 _atom_site_label
 _atom_site_symmetry_multiplicity
 _atom_site_fract_x
 _atom_site_fract_y
 _atom_site_fract_z
 _atom_site_occupancy
  In  In0  1  0.50000000  0.00000000  0.50000000  1
  In  In1  1  0.00000000  0.50000000  0.50000000  1
  In  In2  1  0.74768200  0.74768200  0.00000000  1
  In  In3  1  0.25231800  0.25231800  0.00000000  1
  Sb  Sb0  1  0.50000000  0.50000000  0.00000000  1
  Te  Te0  1  0.25000000  0.75000000  0.50000000  1
  Te  Te1  1  0.75000000  0.25000000  0.50000000  1
  Te  Te2  1  0.00000000  0.00000000  0.00000000  1
loop_
_geom_bond_atom_site_label_1
_geom_bond_atom_site_label_2
_geom_bond_distance
_geom_bond_site_symmetry_2
In0 Te0 3.091831 1_545
In0 Te1 3.091831 1_555
In0 Te2 3.138815 1_656
In0 Sb0 3.138815 1_556
In0 Te2 3.138815 1_555
In0 Sb0 3.138815 1_545
In1 Te0 3.091831 1_555
In1 Te1 3.091831 1_455
In1 Sb0 3.138815 1_455
In1 Sb0 3.138815 1_556
In1 Te2 3.138815 1_555
In1 Te2 3.138815 1_566
In2 Sb0 3.063164 1_555
In2 Te2 3.120498 1_665
In2 Te1 3.138946 1_554
In2 Te1 3.138946 1_565
In2 Te0 3.138946 1_554
In2 Te0 3.138946 1_655
In3 Sb0 3.063164 1_555
In3 Te2 3.120498 1_555
In3 Te0 3.138946 1_544
In3 Te0 3.138946 1_555
In3 Te1 3.138946 1_555
In3 Te1 3.138946 1_454
