# generated using pymatgen
data_NaMg3
_symmetry_space_group_name_H-M   'P 1'
_cell_length_a   6.60749343
_cell_length_b   6.60749343
_cell_length_c   5.37588900
_cell_angle_alpha   90.00000000
_cell_angle_beta   90.00000000
_cell_angle_gamma   119.99999428
_symmetry_Int_Tables_number   1
_chemical_formula_structural   NaMg3
_chemical_formula_sum   'Na2 Mg6'
_cell_volume   203.26117391
_cell_formula_units_Z   2
loop_
 _symmetry_equiv_pos_site_id
 _symmetry_equiv_pos_as_xyz
  1  'x, y, z'
loop_
 _atom_site_type_symbol
 _atom_site_label
 _atom_site_symmetry_multiplicity
 _atom_site_fract_x
 _atom_site_fract_y
 _atom_site_fract_z
 _atom_site_occupancy
  Na  Na0  1  0.66666700  0.33333300  0.25000000  1
  Na  Na1  1  0.33333300  0.66666700  0.75000000  1
  Mg  Mg0  1  0.16264600  0.32529300  0.25000000  1
  Mg  Mg1  1  0.16264600  0.83735400  0.25000000  1
  Mg  Mg2  1  0.67470700  0.83735400  0.25000000  1
  Mg  Mg3  1  0.32529300  0.16264600  0.75000000  1
  Mg  Mg4  1  0.83735400  0.16264600  0.75000000  1
  Mg  Mg5  1  0.83735400  0.67470700  0.75000000  1
loop_
_geom_bond_atom_site_label_1
_geom_bond_atom_site_label_2
_geom_bond_distance
_geom_bond_site_symmetry_2
Mg0 Mg1 3.224054 1_545
Mg0 Mg2 3.224054 1_445
Mg0 Mg4 3.269537 1_455
Mg0 Mg4 3.269537 1_454
Mg0 Mg3 3.269543 1_555
Mg0 Mg3 3.269543 1_554
Mg0 Na0 3.304060 1_455
Mg0 Na0 3.304074 1_555
Mg0 Na1 3.322790 1_554
Mg0 Na1 3.322790 1_555
Mg0 Mg1 3.383440 1_555
Mg0 Mg2 3.383440 1_555
Mg1 Mg2 3.224054 1_455
Mg1 Mg3 3.269537 1_564
Mg1 Mg3 3.269537 1_565
Mg1 Mg5 3.269537 1_455
Mg1 Mg5 3.269537 1_454
Mg1 Na0 3.304067 1_455
Mg1 Na0 3.304067 1_565
Mg1 Na1 3.322790 1_555
Mg1 Na1 3.322790 1_554
Mg1 Mg2 3.383440 1_555
Mg2 Mg4 3.269537 1_565
Mg2 Mg4 3.269537 1_564
Mg2 Mg5 3.269543 1_554
Mg2 Mg5 3.269543 1_555
Mg2 Na0 3.304060 1_565
Mg2 Na0 3.304074 1_555
Mg2 Na1 3.322790 1_555
Mg2 Na1 3.322790 1_554
Mg3 Mg4 3.224054 1_455
Mg3 Mg5 3.224054 1_445
Mg3 Na1 3.304060 1_545
Mg3 Na1 3.304074 1_555
Mg3 Na0 3.322790 1_555
Mg3 Na0 3.322790 1_556
Mg3 Mg4 3.383440 1_555
Mg3 Mg5 3.383440 1_555
Mg4 Mg5 3.224054 1_545
Mg4 Na1 3.304067 1_545
Mg4 Na1 3.304067 1_655
Mg4 Na0 3.322790 1_555
Mg4 Na0 3.322790 1_556
Mg4 Mg5 3.383440 1_555
Mg5 Na1 3.304060 1_655
Mg5 Na1 3.304074 1_555
Mg5 Na0 3.322790 1_555
Mg5 Na0 3.322790 1_556
