# generated using pymatgen
data_TiPd
_symmetry_space_group_name_H-M   'P 1'
_cell_length_a   9.14090372
_cell_length_b   5.55017998
_cell_length_c   9.75156260
_cell_angle_alpha   90.00000000
_cell_angle_beta   90.00000000
_cell_angle_gamma   90.00000000
_symmetry_Int_Tables_number   1
_chemical_formula_structural   TiPd
_chemical_formula_sum   'Ti16 Pd16'
_cell_volume   494.73246947
_cell_formula_units_Z   16
loop_
 _symmetry_equiv_pos_site_id
 _symmetry_equiv_pos_as_xyz
  1  'x, y, z'
loop_
 _atom_site_type_symbol
 _atom_site_label
 _atom_site_symmetry_multiplicity
 _atom_site_fract_x
 _atom_site_fract_y
 _atom_site_fract_z
 _atom_site_occupancy
  Ti  Ti0_0  1  0.12500050  0.00000000  0.10123843  1
  Ti  Ti0_1  1  0.12500050  0.00000000  0.60123843  1
  Ti  Ti0_2  1  0.12500050  0.50000000  0.10123843  1
  Ti  Ti0_3  1  0.12500050  0.50000000  0.60123843  1
  Ti  Ti0_4  1  0.62500050  0.00000000  0.10123843  1
  Ti  Ti0_5  1  0.62500050  0.00000000  0.60123843  1
  Ti  Ti0_6  1  0.62500050  0.50000000  0.10123843  1
  Ti  Ti0_7  1  0.62500050  0.50000000  0.60123843  1
  Ti  Ti1_0  1  0.37500000  0.00000000  0.39876057  1
  Ti  Ti1_1  1  0.37500000  0.00000000  0.89876057  1
  Ti  Ti1_2  1  0.37500000  0.50000000  0.39876057  1
  Ti  Ti1_3  1  0.37500000  0.50000000  0.89876057  1
  Ti  Ti1_4  1  0.87500000  0.00000000  0.39876057  1
  Ti  Ti1_5  1  0.87500000  0.00000000  0.89876057  1
  Ti  Ti1_6  1  0.87500000  0.50000000  0.39876057  1
  Ti  Ti1_7  1  0.87500000  0.50000000  0.89876057  1
  Pd  Pd0_0  1  0.12500050  0.25000000  0.34330174  1
  Pd  Pd0_1  1  0.12500050  0.25000000  0.84330174  1
  Pd  Pd0_2  1  0.12500050  0.75000000  0.34330174  1
  Pd  Pd0_3  1  0.12500050  0.75000000  0.84330174  1
  Pd  Pd0_4  1  0.62500050  0.25000000  0.34330174  1
  Pd  Pd0_5  1  0.62500050  0.25000000  0.84330174  1
  Pd  Pd0_6  1  0.62500050  0.75000000  0.34330174  1
  Pd  Pd0_7  1  0.62500050  0.75000000  0.84330174  1
  Pd  Pd1_0  1  0.37500000  0.25000000  0.15669726  1
  Pd  Pd1_1  1  0.37500000  0.25000000  0.65669726  1
  Pd  Pd1_2  1  0.37500000  0.75000000  0.15669726  1
  Pd  Pd1_3  1  0.37500000  0.75000000  0.65669726  1
  Pd  Pd1_4  1  0.87500000  0.25000000  0.15669726  1
  Pd  Pd1_5  1  0.87500000  0.25000000  0.65669726  1
  Pd  Pd1_6  1  0.87500000  0.75000000  0.15669726  1
  Pd  Pd1_7  1  0.87500000  0.75000000  0.65669726  1
loop_
_geom_bond_atom_site_label_1
_geom_bond_atom_site_label_2
_geom_bond_distance
_geom_bond_site_symmetry_2
Ti0_0 Ti0_2 2.775090 1_545
Ti0_0 Ti0_2 2.775090 1_555
Ti0_0 Ti1_1 3.020065 1_554
Ti0_0 Ti1_5 3.020072 1_454
Ti0_1 Ti0_3 2.775090 1_545
Ti0_1 Ti0_3 2.775090 1_555
Ti0_1 Ti1_0 3.020065 1_555
Ti0_1 Ti1_4 3.020072 1_455
Ti0_2 Ti1_3 3.020065 1_554
Ti0_2 Ti1_7 3.020072 1_454
Ti0_3 Ti1_2 3.020065 1_555
Ti0_3 Ti1_6 3.020072 1_455
Ti0_4 Ti0_6 2.775090 1_545
Ti0_4 Ti0_6 2.775090 1_555
Ti0_4 Ti1_5 3.020065 1_554
Ti0_4 Ti1_1 3.020072 1_554
Ti0_5 Ti0_7 2.775090 1_555
Ti0_5 Ti0_7 2.775090 1_545
Ti0_5 Ti1_4 3.020065 1_555
Ti0_5 Ti1_0 3.020072 1_555
Ti0_6 Ti1_7 3.020065 1_554
Ti0_6 Ti1_3 3.020072 1_554
Ti0_7 Ti1_6 3.020065 1_555
Ti0_7 Ti1_2 3.020072 1_555
Ti1_0 Ti1_2 2.775090 1_545
Ti1_0 Ti1_2 2.775090 1_555
Ti1_1 Ti1_3 2.775090 1_555
Ti1_1 Ti1_3 2.775090 1_545
Ti1_4 Ti1_6 2.775090 1_555
Ti1_4 Ti1_6 2.775090 1_545
Ti1_5 Ti1_7 2.775090 1_555
Ti1_5 Ti1_7 2.775090 1_545
Pd0_0 Ti1_0 2.727635 1_555
Pd0_0 Ti1_2 2.727635 1_555
Pd0_0 Ti1_6 2.727643 1_455
Pd0_0 Ti1_4 2.727643 1_455
Pd0_0 Ti0_2 2.738105 1_555
Pd0_0 Ti0_0 2.738105 1_555
Pd0_0 Pd0_2 2.775090 1_545
Pd0_0 Pd0_2 2.775090 1_555
Pd0_0 Ti0_3 2.872620 1_555
Pd0_0 Ti0_1 2.872620 1_555
Pd0_0 Pd1_0 2.921214 1_555
Pd0_0 Pd1_4 2.921221 1_455
Pd0_1 Ti1_1 2.727635 1_555
Pd0_1 Ti1_3 2.727635 1_555
Pd0_1 Ti1_5 2.727643 1_455
Pd0_1 Ti1_7 2.727643 1_455
Pd0_1 Ti0_1 2.738105 1_555
Pd0_1 Ti0_3 2.738105 1_555
Pd0_1 Pd0_3 2.775090 1_545
Pd0_1 Pd0_3 2.775090 1_555
Pd0_1 Ti0_2 2.872620 1_556
Pd0_1 Ti0_0 2.872620 1_556
Pd0_1 Pd1_1 2.921214 1_555
Pd0_1 Pd1_5 2.921221 1_455
Pd0_2 Ti1_0 2.727635 1_565
Pd0_2 Ti1_2 2.727635 1_555
Pd0_2 Ti1_4 2.727643 1_465
Pd0_2 Ti1_6 2.727643 1_455
Pd0_2 Ti0_0 2.738105 1_565
Pd0_2 Ti0_2 2.738105 1_555
Pd0_2 Ti0_1 2.872620 1_565
Pd0_2 Ti0_3 2.872620 1_555
Pd0_2 Pd1_2 2.921214 1_555
Pd0_2 Pd1_6 2.921221 1_455
Pd0_3 Ti1_1 2.727635 1_565
Pd0_3 Ti1_3 2.727635 1_555
Pd0_3 Ti1_5 2.727643 1_465
Pd0_3 Ti1_7 2.727643 1_455
Pd0_3 Ti0_1 2.738105 1_565
Pd0_3 Ti0_3 2.738105 1_555
Pd0_3 Ti0_0 2.872620 1_566
Pd0_3 Ti0_2 2.872620 1_556
Pd0_3 Pd1_3 2.921214 1_555
Pd0_3 Pd1_7 2.921221 1_455
Pd0_4 Ti1_6 2.727635 1_555
Pd0_4 Ti1_4 2.727635 1_555
Pd0_4 Ti1_2 2.727643 1_555
Pd0_4 Ti1_0 2.727643 1_555
Pd0_4 Ti0_6 2.738105 1_555
Pd0_4 Ti0_4 2.738105 1_555
Pd0_4 Pd0_6 2.775090 1_545
Pd0_4 Pd0_6 2.775090 1_555
Pd0_4 Ti0_7 2.872620 1_555
Pd0_4 Ti0_5 2.872620 1_555
Pd0_4 Pd1_4 2.921214 1_555
Pd0_4 Pd1_0 2.921221 1_555
Pd0_5 Ti1_5 2.727635 1_555
Pd0_5 Ti1_7 2.727635 1_555
Pd0_5 Ti1_3 2.727643 1_555
Pd0_5 Ti1_1 2.727643 1_555
Pd0_5 Ti0_5 2.738105 1_555
Pd0_5 Ti0_7 2.738105 1_555
Pd0_5 Pd0_7 2.775090 1_545
Pd0_5 Pd0_7 2.775090 1_555
Pd0_5 Ti0_6 2.872620 1_556
Pd0_5 Ti0_4 2.872620 1_556
Pd0_5 Pd1_5 2.921214 1_555
Pd0_5 Pd1_1 2.921221 1_555
Pd0_6 Ti1_4 2.727635 1_565
Pd0_6 Ti1_6 2.727635 1_555
Pd0_6 Ti1_0 2.727643 1_565
Pd0_6 Ti1_2 2.727643 1_555
Pd0_6 Ti0_4 2.738105 1_565
Pd0_6 Ti0_6 2.738105 1_555
Pd0_6 Ti0_5 2.872620 1_565
Pd0_6 Ti0_7 2.872620 1_555
Pd0_6 Pd1_6 2.921214 1_555
Pd0_6 Pd1_2 2.921221 1_555
Pd0_7 Ti1_5 2.727635 1_565
Pd0_7 Ti1_7 2.727635 1_555
Pd0_7 Ti1_1 2.727643 1_565
Pd0_7 Ti1_3 2.727643 1_555
Pd0_7 Ti0_5 2.738105 1_565
Pd0_7 Ti0_7 2.738105 1_555
Pd0_7 Ti0_4 2.872620 1_566
Pd0_7 Ti0_6 2.872620 1_556
Pd0_7 Pd1_7 2.921214 1_555
Pd0_7 Pd1_3 2.921221 1_555
Pd1_0 Ti0_2 2.727635 1_555
Pd1_0 Ti0_0 2.727635 1_555
Pd1_0 Ti0_4 2.727643 1_555
Pd1_0 Ti0_6 2.727643 1_555
Pd1_0 Ti1_2 2.738105 1_555
Pd1_0 Ti1_0 2.738105 1_555
Pd1_0 Pd1_2 2.775090 1_545
Pd1_0 Pd1_2 2.775090 1_555
Pd1_0 Ti1_3 2.872620 1_554
Pd1_0 Ti1_1 2.872620 1_554
Pd1_1 Ti0_3 2.727635 1_555
Pd1_1 Ti0_1 2.727635 1_555
Pd1_1 Ti0_7 2.727643 1_555
Pd1_1 Ti0_5 2.727643 1_555
Pd1_1 Ti1_1 2.738105 1_555
Pd1_1 Ti1_3 2.738105 1_555
Pd1_1 Pd1_3 2.775090 1_545
Pd1_1 Pd1_3 2.775090 1_555
Pd1_1 Ti1_0 2.872620 1_555
Pd1_1 Ti1_2 2.872620 1_555
Pd1_2 Ti0_0 2.727635 1_565
Pd1_2 Ti0_2 2.727635 1_555
Pd1_2 Ti0_4 2.727643 1_565
Pd1_2 Ti0_6 2.727643 1_555
Pd1_2 Ti1_0 2.738105 1_565
Pd1_2 Ti1_2 2.738105 1_555
Pd1_2 Ti1_1 2.872620 1_564
Pd1_2 Ti1_3 2.872620 1_554
Pd1_3 Ti0_1 2.727635 1_565
Pd1_3 Ti0_3 2.727635 1_555
Pd1_3 Ti0_5 2.727643 1_565
Pd1_3 Ti0_7 2.727643 1_555
Pd1_3 Ti1_1 2.738105 1_565
Pd1_3 Ti1_3 2.738105 1_555
Pd1_3 Ti1_0 2.872620 1_565
Pd1_3 Ti1_2 2.872620 1_555
Pd1_4 Ti0_4 2.727635 1_555
Pd1_4 Ti0_6 2.727635 1_555
Pd1_4 Ti0_0 2.727643 1_655
Pd1_4 Ti0_2 2.727643 1_655
Pd1_4 Ti1_4 2.738105 1_555
Pd1_4 Ti1_6 2.738105 1_555
Pd1_4 Pd1_6 2.775090 1_545
Pd1_4 Pd1_6 2.775090 1_555
Pd1_4 Ti1_7 2.872620 1_554
Pd1_4 Ti1_5 2.872620 1_554
Pd1_5 Ti0_7 2.727635 1_555
Pd1_5 Ti0_5 2.727635 1_555
Pd1_5 Ti0_3 2.727643 1_655
Pd1_5 Ti0_1 2.727643 1_655
Pd1_5 Ti1_7 2.738105 1_555
Pd1_5 Ti1_5 2.738105 1_555
Pd1_5 Pd1_7 2.775090 1_545
Pd1_5 Pd1_7 2.775090 1_555
Pd1_5 Ti1_4 2.872620 1_555
Pd1_5 Ti1_6 2.872620 1_555
Pd1_6 Ti0_4 2.727635 1_565
Pd1_6 Ti0_6 2.727635 1_555
Pd1_6 Ti0_0 2.727643 1_665
Pd1_6 Ti0_2 2.727643 1_655
Pd1_6 Ti1_4 2.738105 1_565
Pd1_6 Ti1_6 2.738105 1_555
Pd1_6 Ti1_5 2.872620 1_564
Pd1_6 Ti1_7 2.872620 1_554
Pd1_7 Ti0_5 2.727635 1_565
Pd1_7 Ti0_7 2.727635 1_555
Pd1_7 Ti0_1 2.727643 1_665
Pd1_7 Ti0_3 2.727643 1_655
Pd1_7 Ti1_5 2.738105 1_565
Pd1_7 Ti1_7 2.738105 1_555
Pd1_7 Ti1_4 2.872620 1_565
Pd1_7 Ti1_6 2.872620 1_555
