# generated using pymatgen
data_B2(CN2)3
_symmetry_space_group_name_H-M   'P 1'
_cell_length_a   8.81470198
_cell_length_b   8.81470198
_cell_length_c   5.68523526
_cell_angle_alpha   74.29450060
_cell_angle_beta   74.29450060
_cell_angle_gamma   17.60082148
_symmetry_Int_Tables_number   1
_chemical_formula_structural   B2(CN2)3
_chemical_formula_sum   'B2 C3 N6'
_cell_volume   128.46520172
_cell_formula_units_Z   1
loop_
 _symmetry_equiv_pos_site_id
 _symmetry_equiv_pos_as_xyz
  1  'x, y, z'
loop_
 _atom_site_type_symbol
 _atom_site_label
 _atom_site_symmetry_multiplicity
 _atom_site_fract_x
 _atom_site_fract_y
 _atom_site_fract_z
 _atom_site_occupancy
  B  B0  1  0.09906600  0.09906600  0.76584400  1
  B  B1  1  0.90093400  0.90093400  0.23415600  1
  C  C0  1  0.34316500  0.34316500  0.96765100  1
  C  C1  1  0.65683500  0.65683500  0.03234900  1
  C  C2  1  0.00000000  0.00000000  0.50000000  1
  N  N0  1  0.62426900  0.62426900  0.84294500  1
  N  N1  1  0.95940100  0.95940100  0.35960800  1
  N  N2  1  0.04059900  0.04059900  0.64039200  1
  N  N3  1  0.32174600  0.32174600  0.79053300  1
  N  N4  1  0.37573100  0.37573100  0.15705500  1
  N  N5  1  0.67825400  0.67825400  0.20946700  1
loop_
_geom_bond_atom_site_label_1
_geom_bond_atom_site_label_2
_geom_bond_distance
_geom_bond_site_symmetry_2
B0 N2 1.394360 1_555
B0 N0 1.519559 1_455
B0 N0 1.519559 1_545
B1 N1 1.394360 1_555
B1 N4 1.519559 1_565
B1 N4 1.519559 1_655
C0 N3 1.165788 1_555
C0 N4 1.347628 1_556
C1 N5 1.165788 1_555
C1 N0 1.347628 1_554
C2 N2 1.202759 1_555
C2 N1 1.202759 1_445
