# generated using pymatgen
data_Sm3Ni7B2
_symmetry_space_group_name_H-M   'P 1'
_cell_length_a   5.15990405
_cell_length_b   5.15990405
_cell_length_c   14.41831400
_cell_angle_alpha   90.00000000
_cell_angle_beta   90.00000000
_cell_angle_gamma   120.00000061
_symmetry_Int_Tables_number   1
_chemical_formula_structural   Sm3Ni7B2
_chemical_formula_sum   'Sm6 Ni14 B4'
_cell_volume   332.45154810
_cell_formula_units_Z   2
loop_
 _symmetry_equiv_pos_site_id
 _symmetry_equiv_pos_as_xyz
  1  'x, y, z'
loop_
 _atom_site_type_symbol
 _atom_site_label
 _atom_site_symmetry_multiplicity
 _atom_site_fract_x
 _atom_site_fract_y
 _atom_site_fract_z
 _atom_site_occupancy
  Sm  Sm0  1  0.33333300  0.66666700  0.75000000  1
  Sm  Sm1  1  0.66666700  0.33333300  0.25000000  1
  Sm  Sm2  1  0.33333300  0.66666700  0.53133400  1
  Sm  Sm3  1  0.66666700  0.33333300  0.03133400  1
  Sm  Sm4  1  0.66666700  0.33333300  0.46866600  1
  Sm  Sm5  1  0.33333300  0.66666700  0.96866600  1
  Ni  Ni0  1  0.00000000  0.00000000  0.00000000  1
  Ni  Ni1  1  0.00000000  0.00000000  0.50000000  1
  Ni  Ni2  1  0.16521100  0.33042200  0.15105800  1
  Ni  Ni3  1  0.83478900  0.66957800  0.65105800  1
  Ni  Ni4  1  0.66957800  0.83478900  0.15105800  1
  Ni  Ni5  1  0.16521100  0.83478900  0.15105800  1
  Ni  Ni6  1  0.83478900  0.16521100  0.65105800  1
  Ni  Ni7  1  0.33042200  0.16521100  0.65105800  1
  Ni  Ni8  1  0.83478900  0.66957800  0.84894200  1
  Ni  Ni9  1  0.83478900  0.16521100  0.84894200  1
  Ni  Ni10  1  0.33042200  0.16521100  0.84894200  1
  Ni  Ni11  1  0.66957800  0.83478900  0.34894200  1
  Ni  Ni12  1  0.16521100  0.83478900  0.34894200  1
  Ni  Ni13  1  0.16521100  0.33042200  0.34894200  1
  B  B0  1  0.33333300  0.66666700  0.25000000  1
  B  B1  1  0.66666700  0.33333300  0.75000000  1
  B  B2  1  0.00000000  0.00000000  0.25000000  1
  B  B3  1  0.00000000  0.00000000  0.75000000  1
loop_
_geom_bond_atom_site_label_1
_geom_bond_atom_site_label_2
_geom_bond_distance
_geom_bond_site_symmetry_2
Sm0 Sm5 3.152795 1_555
Sm0 Sm2 3.152795 1_555
Sm1 Sm4 3.152795 1_555
Sm1 Sm3 3.152795 1_555
Ni0 Ni4 2.631316 1_445
Ni0 Ni8 2.631316 1_444
Ni0 Ni10 2.631316 1_554
Ni0 Ni2 2.631316 1_555
Ni0 Ni9 2.631316 1_454
Ni0 Ni5 2.631316 1_545
Ni0 Sm3 3.013131 1_455
Ni0 Sm5 3.013131 1_544
Ni0 Sm3 3.013136 1_445
Ni0 Sm3 3.013136 1_555
Ni0 Sm5 3.013136 1_554
Ni0 Sm5 3.013136 1_444
Ni1 Ni7 2.631316 1_555
Ni1 Ni13 2.631316 1_555
Ni1 Ni11 2.631316 1_445
Ni1 Ni3 2.631316 1_445
Ni1 Ni6 2.631316 1_455
Ni1 Ni12 2.631316 1_545
Ni1 Sm2 3.013131 1_545
Ni1 Sm4 3.013131 1_455
Ni1 Sm2 3.013136 1_555
Ni1 Sm2 3.013136 1_445
Ni1 Sm4 3.013136 1_555
Ni1 Sm4 3.013136 1_445
Ni2 Sm1 2.948123 1_455
Ni2 Sm1 2.948128 1_555
Ni2 Sm5 3.028765 1_554
Ni2 Sm3 3.104213 1_455
Ni2 Sm3 3.104217 1_555
Ni3 Sm0 2.948123 1_655
Ni3 Sm0 2.948128 1_555
Ni3 Sm4 3.028765 1_555
Ni3 Sm2 3.104213 1_655
Ni3 Sm2 3.104217 1_555
Ni4 Sm1 2.948123 1_565
Ni4 Sm1 2.948128 1_555
Ni4 Sm5 3.028765 1_554
Ni4 Sm3 3.104213 1_565
Ni4 Sm3 3.104217 1_555
Ni5 Sm1 2.948125 1_455
Ni5 Sm1 2.948125 1_565
Ni5 Sm5 3.028763 1_554
Ni5 Sm3 3.104215 1_455
Ni5 Sm3 3.104215 1_565
Ni6 Sm0 2.948125 1_545
Ni6 Sm0 2.948125 1_655
Ni6 Sm4 3.028763 1_555
Ni6 Sm2 3.104215 1_545
Ni6 Sm2 3.104215 1_655
Ni7 Sm0 2.948123 1_545
Ni7 Sm0 2.948128 1_555
Ni7 Sm4 3.028765 1_555
Ni7 Sm2 3.104213 1_545
Ni7 Sm2 3.104217 1_555
Ni8 Sm0 2.948123 1_655
Ni8 Sm0 2.948128 1_555
Ni8 Sm3 3.028765 1_556
Ni8 Sm5 3.104213 1_655
Ni8 Sm5 3.104217 1_555
Ni9 Sm0 2.948125 1_545
Ni9 Sm0 2.948125 1_655
Ni9 Sm3 3.028763 1_556
Ni9 Sm5 3.104215 1_545
Ni9 Sm5 3.104215 1_655
Ni10 Sm0 2.948123 1_545
Ni10 Sm0 2.948128 1_555
Ni10 Sm3 3.028765 1_556
Ni10 Sm5 3.104213 1_545
Ni10 Sm5 3.104217 1_555
Ni11 Sm1 2.948123 1_565
Ni11 Sm1 2.948128 1_555
Ni11 Sm2 3.028765 1_555
Ni11 Sm4 3.104213 1_565
Ni11 Sm4 3.104217 1_555
Ni12 Sm1 2.948125 1_565
Ni12 Sm1 2.948125 1_455
Ni12 Sm2 3.028763 1_555
Ni12 Sm4 3.104215 1_455
Ni12 Sm4 3.104215 1_565
Ni13 Sm1 2.948123 1_455
Ni13 Sm1 2.948128 1_555
Ni13 Sm2 3.028765 1_555
Ni13 Sm4 3.104213 1_455
Ni13 Sm4 3.104217 1_555
B0 Ni12 2.071897 1_555
B0 Ni5 2.071897 1_555
B0 Ni13 2.071900 1_555
B0 Ni4 2.071900 1_555
B0 Ni11 2.071900 1_555
B0 Ni2 2.071900 1_555
B0 Sm1 2.979069 1_455
B0 Sm1 2.979069 1_565
B0 Sm1 2.979078 1_555
B1 Ni9 2.071897 1_555
B1 Ni6 2.071897 1_555
B1 Ni10 2.071900 1_555
B1 Ni7 2.071900 1_555
B1 Ni8 2.071900 1_555
B1 Ni3 2.071900 1_555
B1 Sm0 2.979069 1_545
B1 Sm0 2.979069 1_655
B1 Sm0 2.979078 1_555
B2 Ni13 2.053108 1_555
B2 Ni11 2.053108 1_445
B2 Ni2 2.053108 1_555
B2 Ni4 2.053108 1_445
B2 Ni12 2.053108 1_545
B2 Ni5 2.053108 1_545
B2 Sm1 2.979069 1_455
B2 Sm1 2.979073 1_445
B2 Sm1 2.979073 1_555
B3 Ni10 2.053108 1_555
B3 Ni7 2.053108 1_555
B3 Ni8 2.053108 1_445
B3 Ni3 2.053108 1_445
B3 Ni9 2.053108 1_455
B3 Ni6 2.053108 1_455
B3 Sm0 2.979069 1_545
B3 Sm0 2.979073 1_445
B3 Sm0 2.979073 1_555
