# generated using pymatgen
data_Ca3Pt2
_symmetry_space_group_name_H-M   'P 1'
_cell_length_a   7.57889310
_cell_length_b   7.57889374
_cell_length_c   7.57889390
_cell_angle_alpha   70.93981588
_cell_angle_beta   109.06019127
_cell_angle_gamma   109.06018954
_symmetry_Int_Tables_number   1
_chemical_formula_structural   Ca3Pt2
_chemical_formula_sum   'Ca9 Pt6'
_cell_volume   376.93638033
_cell_formula_units_Z   3
loop_
 _symmetry_equiv_pos_site_id
 _symmetry_equiv_pos_as_xyz
  1  'x, y, z'
loop_
 _atom_site_type_symbol
 _atom_site_label
 _atom_site_symmetry_multiplicity
 _atom_site_fract_x
 _atom_site_fract_y
 _atom_site_fract_z
 _atom_site_occupancy
  Ca  Ca0  1  0.00000000  -0.00000000  0.00000000  1
  Ca  Ca1  1  0.60248405  0.66736585  0.15247352  1
  Ca  Ca2  1  0.79955534  0.20044566  0.20044466  1
  Ca  Ca3  1  0.15247352  0.60248505  0.33263315  1
  Ca  Ca4  1  0.33263315  0.15247352  0.39751595  1
  Ca  Ca5  1  0.66736685  0.84752648  0.60248605  1
  Ca  Ca6  1  0.84752648  0.39751595  0.66736585  1
  Ca  Ca7  1  0.20044466  0.79955534  0.79955534  1
  Ca  Ca8  1  0.39751495  0.33263315  0.84752648  1
  Pt  Pt0  1  0.15882547  0.41362044  0.04576555  1
  Pt  Pt1  1  0.41361944  0.95423545  0.15882447  1
  Pt  Pt2  1  0.95423545  0.84117553  0.41362044  1
  Pt  Pt3  1  0.04576555  0.15882447  0.58638056  1
  Pt  Pt4  1  0.58638056  0.04576555  0.84117553  1
  Pt  Pt5  1  0.84117653  0.58638056  0.95423545  1
loop_
_geom_bond_atom_site_label_1
_geom_bond_atom_site_label_2
_geom_bond_distance
_geom_bond_site_symmetry_2
Ca0 Pt1 3.060887 1_545
Ca0 Pt5 3.060887 1_444
Ca0 Pt4 3.060890 1_454
Ca0 Pt3 3.060890 1_554
Ca0 Pt2 3.060895 1_445
Ca0 Pt0 3.060897 1_555
Ca0 Ca7 3.383089 1_544
Ca0 Ca2 3.383095 1_455
Ca0 Ca5 3.489679 1_444
Ca0 Ca8 3.489684 1_554
Ca0 Ca3 3.489685 1_545
Ca0 Ca4 3.489690 1_555
Ca0 Ca1 3.489692 1_445
Ca0 Ca6 3.489693 1_454
Ca1 Pt2 2.953398 1_555
Ca1 Pt1 2.987310 1_555
Ca1 Pt5 3.001530 1_554
Ca1 Pt4 3.070371 1_564
Ca1 Pt0 3.267236 1_555
Ca2 Pt5 2.890318 1_554
Ca2 Pt1 2.890327 1_545
Ca2 Pt3 2.890327 1_655
Ca2 Pt4 3.061555 1_554
Ca2 Pt0 3.061558 1_655
Ca2 Pt2 3.061563 1_545
Ca3 Pt1 2.953388 1_555
Ca3 Pt0 2.987300 1_555
Ca3 Pt2 3.001526 1_455
Ca3 Pt5 3.070358 1_454
Ca3 Pt3 3.267253 1_555
Ca4 Pt0 2.953389 1_555
Ca4 Pt3 2.987297 1_555
Ca4 Pt1 3.001528 1_545
Ca4 Pt2 3.070361 1_445
Ca4 Pt4 3.267248 1_555
Ca5 Pt5 2.953387 1_555
Ca5 Pt2 2.987309 1_555
Ca5 Pt4 3.001522 1_565
Ca5 Pt3 3.070367 1_665
Ca5 Pt1 3.267260 1_555
Ca6 Pt4 2.953391 1_555
Ca6 Pt5 2.987307 1_555
Ca6 Pt3 3.001530 1_655
Ca6 Pt0 3.070375 1_656
Ca6 Pt2 3.267243 1_555
Ca7 Pt2 2.890318 1_455
Ca7 Pt0 2.890321 1_556
Ca7 Pt4 2.890327 1_565
Ca7 Pt5 3.061549 1_455
Ca7 Pt3 3.061552 1_565
Ca7 Pt1 3.061555 1_556
Ca8 Pt3 2.953383 1_555
Ca8 Pt4 2.987302 1_555
Ca8 Pt0 3.001526 1_556
Ca8 Pt1 3.070361 1_546
Ca8 Pt5 3.267259 1_555
Pt0 Pt5 2.892411 1_454
Pt1 Pt4 2.892416 1_564
Pt2 Pt3 2.892411 1_665
