# generated using pymatgen
data_LiCr2(PO4)3
_symmetry_space_group_name_H-M   'P 1'
_cell_length_a   8.32462900
_cell_length_b   8.34424688
_cell_length_c   8.68302937
_cell_angle_alpha   118.44634004
_cell_angle_beta   90.24742162
_cell_angle_gamma   119.84613132
_symmetry_Int_Tables_number   1
_chemical_formula_structural   LiCr2(PO4)3
_chemical_formula_sum   'Li2 Cr4 P6 O24'
_cell_volume   436.33876575
_cell_formula_units_Z   2
loop_
 _symmetry_equiv_pos_site_id
 _symmetry_equiv_pos_as_xyz
  1  'x, y, z'
loop_
 _atom_site_type_symbol
 _atom_site_label
 _atom_site_symmetry_multiplicity
 _atom_site_fract_x
 _atom_site_fract_y
 _atom_site_fract_z
 _atom_site_occupancy
  Li  Li0  1  0.07098400  0.60109200  0.57627100  1
  Li  Li1  1  0.92901600  0.39890800  0.42372900  1
  Cr  Cr0  1  0.28048700  0.93106900  0.92697100  1
  Cr  Cr1  1  0.77222700  0.91967600  0.43491600  1
  Cr  Cr2  1  0.22777300  0.08032400  0.56508400  1
  Cr  Cr3  1  0.71951300  0.06893100  0.07302900  1
  P  P0  1  0.74802000  0.21267300  0.25080400  1
  P  P1  1  0.52859600  0.50133200  0.75298100  1
  P  P2  1  0.97297400  0.22449900  0.74771100  1
  P  P3  1  0.02702600  0.77550100  0.25228900  1
  P  P4  1  0.47140400  0.49866800  0.24701900  1
  P  P5  1  0.25198000  0.78732700  0.74919600  1
  O  O0  1  0.59394500  0.35653600  0.75319800  1
  O  O1  1  0.39184300  0.03395200  0.43141100  1
  O  O2  1  0.03147300  0.54600000  0.07855700  1
  O  O3  1  0.60801500  0.01324100  0.24480000  1
  O  O4  1  0.73008800  0.13969200  0.76990600  1
  O  O5  1  0.13308800  0.25007100  0.94583200  1
  O  O6  1  0.91152000  0.20822700  0.26915700  1
  O  O7  1  0.29779500  0.58397800  0.58862200  1
  O  O8  1  0.77086700  0.75744600  0.70519400  1
  O  O9  1  0.38956000  0.37382000  0.39083900  1
  O  O10  1  0.78619600  0.07249400  0.92567900  1
  O  O11  1  0.07859200  0.12568100  0.69745000  1
  O  O12  1  0.92140800  0.87431900  0.30255000  1
  O  O13  1  0.21380400  0.92750600  0.07432100  1
  O  O14  1  0.61044000  0.62618000  0.60916100  1
  O  O15  1  0.22913300  0.24255400  0.29480600  1
  O  O16  1  0.70220500  0.41602200  0.41137800  1
  O  O17  1  0.08848000  0.79177300  0.73084300  1
  O  O18  1  0.86691200  0.74992900  0.05416800  1
  O  O19  1  0.26991200  0.86030800  0.23009400  1
  O  O20  1  0.39198500  0.98675900  0.75520000  1
  O  O21  1  0.96852700  0.45400000  0.92144300  1
  O  O22  1  0.60815700  0.96604800  0.56858900  1
  O  O23  1  0.40605500  0.64346400  0.24680200  1
loop_
_geom_bond_atom_site_label_1
_geom_bond_atom_site_label_2
_geom_bond_distance
_geom_bond_site_symmetry_2
Li0 Li1 1.367635 1_455
Li0 O17 1.444780 1_555
Li0 P5 1.538398 1_555
Li0 O7 1.969289 1_555
Li1 O6 1.444780 1_555
Li1 P0 1.538398 1_555
Li1 O16 1.969289 1_555
Cr0 P5 1.351814 1_555
Cr0 O13 1.404263 1_556
Cr0 O17 1.745726 1_555
Cr0 O20 1.882799 1_555
Cr1 O12 1.752776 1_555
Cr1 O22 1.863933 1_555
Cr2 O11 1.752776 1_555
Cr2 O1 1.863933 1_555
Cr3 P0 1.351814 1_555
Cr3 O10 1.404263 1_554
Cr3 O6 1.745726 1_555
Cr3 O3 1.882799 1_555
O0 P1 1.553094 1_555
O1 O19 1.514342 1_545
O2 O21 1.149233 1_454
O2 P3 1.806437 1_555
O3 P0 1.454887 1_555
O4 P2 1.826270 1_555
O5 P2 2.031978 1_455
O6 P0 1.390439 1_555
O7 P5 1.833975 1_555
O9 P4 1.910289 1_555
O11 P2 1.423203 1_455
O11 O5 1.823404 1_555
O12 P3 1.423203 1_655
O12 O18 1.823404 1_555
O14 O8 1.158825 1_555
O14 P1 1.910289 1_555
O15 O9 1.158825 1_555
O16 P0 1.833975 1_555
O17 P5 1.390439 1_555
O18 P3 2.031978 1_655
O19 P3 1.826270 1_555
O20 P5 1.454887 1_555
O21 P2 1.806437 1_555
O22 O4 1.514342 1_565
O23 P4 1.553094 1_555
