# generated using pymatgen
data_CsMg149
_symmetry_space_group_name_H-M   'P 1'
_cell_length_a   15.95032965
_cell_length_b   15.95033485
_cell_length_c   15.79410256
_cell_angle_alpha   90.00000000
_cell_angle_beta   90.00000000
_cell_angle_gamma   120.00001284
_symmetry_Int_Tables_number   1
_chemical_formula_structural   CsMg149
_chemical_formula_sum   'Cs1 Mg149'
_cell_volume   3479.88584349
_cell_formula_units_Z   1
loop_
 _symmetry_equiv_pos_site_id
 _symmetry_equiv_pos_as_xyz
  1  'x, y, z'
loop_
 _atom_site_type_symbol
 _atom_site_label
 _atom_site_symmetry_multiplicity
 _atom_site_fract_x
 _atom_site_fract_y
 _atom_site_fract_z
 _atom_site_occupancy
  Cs  Cs0  1  0.00000000  0.00000000  0.00000000  1
  Mg  Mg0  1  0.60039772  0.20079645  0.00000000  1
  Mg  Mg1  1  0.40229604  0.20114802  0.00000000  1
  Mg  Mg2  1  0.79885198  0.20114902  0.00000000  1
  Mg  Mg3  1  0.00199583  0.21376866  0.00000000  1
  Mg  Mg4  1  0.21177283  0.21376866  0.00000000  1
  Mg  Mg5  1  0.60039772  0.39960128  0.00000000  1
  Mg  Mg6  1  0.79920355  0.39960128  0.00000000  1
  Mg  Mg7  1  0.40306337  0.40376661  0.00000000  1
  Mg  Mg8  1  0.00070324  0.40376661  0.00000000  1
  Mg  Mg9  1  0.20196164  0.40392229  0.00000000  1
  Mg  Mg10  1  0.59623339  0.59693663  0.00000000  1
  Mg  Mg11  1  0.00070324  0.59693663  0.00000000  1
  Mg  Mg12  1  0.79885198  0.59770296  0.00000000  1
  Mg  Mg13  1  0.20112090  0.60056045  0.00000000  1
  Mg  Mg14  1  0.39943955  0.60056045  0.00000000  1
  Mg  Mg15  1  0.00199583  0.78822717  0.00000000  1
  Mg  Mg16  1  0.78623134  0.78822717  0.00000000  1
  Mg  Mg17  1  0.59607771  0.79803836  0.00000000  1
  Mg  Mg18  1  0.20196164  0.79803936  0.00000000  1
  Mg  Mg19  1  0.39943955  0.79887910  0.00000000  1
  Mg  Mg20  1  0.21177283  0.99800417  0.00000000  1
  Mg  Mg21  1  0.78623134  0.99800417  0.00000000  1
  Mg  Mg22  1  0.40306337  0.99929676  0.00000000  1
  Mg  Mg23  1  0.59623339  0.99929676  0.00000000  1
  Mg  Mg24  1  0.26281903  0.13140952  0.16511421  1
  Mg  Mg25  1  0.86859048  0.13140952  0.16511421  1
  Mg  Mg26  1  0.86859048  0.73718097  0.16511421  1
  Mg  Mg27  1  0.66666600  0.33333300  0.16619034  1
  Mg  Mg28  1  0.46550936  0.13280136  0.16636577  1
  Mg  Mg29  1  0.66729100  0.13280136  0.16636577  1
  Mg  Mg30  1  0.46550936  0.33270900  0.16636577  1
  Mg  Mg31  1  0.86719864  0.33270900  0.16636577  1
  Mg  Mg32  1  0.86719864  0.53448964  0.16636577  1
  Mg  Mg33  1  0.66729100  0.53448964  0.16636577  1
  Mg  Mg34  1  0.26710815  0.53421531  0.16723671  1
  Mg  Mg35  1  0.46578369  0.73289185  0.16723671  1
  Mg  Mg36  1  0.26710815  0.73289185  0.16723671  1
  Mg  Mg37  1  0.46654821  0.53345079  0.16796183  1
  Mg  Mg38  1  0.06690257  0.53345079  0.16796183  1
  Mg  Mg39  1  0.46654821  0.93309743  0.16796183  1
  Mg  Mg40  1  0.26886524  0.33656592  0.16810223  1
  Mg  Mg41  1  0.06770068  0.33656692  0.16810223  1
  Mg  Mg42  1  0.66343408  0.73113376  0.16810223  1
  Mg  Mg43  1  0.06770068  0.73113376  0.16810223  1
  Mg  Mg44  1  0.26886524  0.93229932  0.16810223  1
  Mg  Mg45  1  0.66343408  0.93229932  0.16810223  1
  Mg  Mg46  1  0.07112552  0.14225105  0.17718242  1
  Mg  Mg47  1  0.85774895  0.92887448  0.17718242  1
  Mg  Mg48  1  0.07112552  0.92887448  0.17718242  1
  Mg  Mg49  1  0.39990932  0.19995416  0.33252278  1
  Mg  Mg50  1  0.80004584  0.19995516  0.33252278  1
  Mg  Mg51  1  0.80004584  0.60009168  0.33252278  1
  Mg  Mg52  1  0.60004748  0.20009395  0.33304636  1
  Mg  Mg53  1  0.79990505  0.39995252  0.33304636  1
  Mg  Mg54  1  0.60004748  0.39995252  0.33304636  1
  Mg  Mg55  1  0.19980092  0.59990046  0.33376625  1
  Mg  Mg56  1  0.40009954  0.59990046  0.33376625  1
  Mg  Mg57  1  0.40009954  0.80019908  0.33376625  1
  Mg  Mg58  1  0.19992699  0.39985399  0.33370516  1
  Mg  Mg59  1  0.60014601  0.80007301  0.33370516  1
  Mg  Mg60  1  0.19992699  0.80007301  0.33370516  1
  Mg  Mg61  1  0.40083238  0.00024969  0.33390124  1
  Mg  Mg62  1  0.59941731  0.00024969  0.33390124  1
  Mg  Mg63  1  0.40083238  0.40058269  0.33390124  1
  Mg  Mg64  1  0.99974931  0.40058269  0.33390124  1
  Mg  Mg65  1  0.99974931  0.59916662  0.33390124  1
  Mg  Mg66  1  0.59941731  0.59916662  0.33390124  1
  Mg  Mg67  1  0.00000000  0.00000000  0.33393196  1
  Mg  Mg68  1  0.20215074  0.00079243  0.33594946  1
  Mg  Mg69  1  0.79864169  0.00079243  0.33594946  1
  Mg  Mg70  1  0.20215074  0.20135831  0.33594946  1
  Mg  Mg71  1  0.99920757  0.20135831  0.33594946  1
  Mg  Mg72  1  0.79864169  0.79784926  0.33594946  1
  Mg  Mg73  1  0.99920757  0.79784926  0.33594946  1
  Mg  Mg74  1  0.06674439  0.13348777  0.50000000  1
  Mg  Mg75  1  0.86621415  0.13378585  0.50000000  1
  Mg  Mg76  1  0.26757170  0.13378585  0.50000000  1
  Mg  Mg77  1  0.46705436  0.13406310  0.50000000  1
  Mg  Mg78  1  0.66700874  0.13406410  0.50000000  1
  Mg  Mg79  1  0.46705436  0.33299026  0.50000000  1
  Mg  Mg80  1  0.86593690  0.33299126  0.50000000  1
  Mg  Mg81  1  0.66666600  0.33333300  0.50000000  1
  Mg  Mg82  1  0.06711130  0.33421904  0.50000000  1
  Mg  Mg83  1  0.26710774  0.33421904  0.50000000  1
  Mg  Mg84  1  0.86593690  0.53294564  0.50000000  1
  Mg  Mg85  1  0.66700874  0.53294564  0.50000000  1
  Mg  Mg86  1  0.06679247  0.53339624  0.50000000  1
  Mg  Mg87  1  0.46660376  0.53339624  0.50000000  1
  Mg  Mg88  1  0.26693344  0.53386687  0.50000000  1
  Mg  Mg89  1  0.86621415  0.73242830  0.50000000  1
  Mg  Mg90  1  0.06711130  0.73289226  0.50000000  1
  Mg  Mg91  1  0.66578096  0.73289226  0.50000000  1
  Mg  Mg92  1  0.46613313  0.73306656  0.50000000  1
  Mg  Mg93  1  0.26693344  0.73306656  0.50000000  1
  Mg  Mg94  1  0.26710774  0.93288870  0.50000000  1
  Mg  Mg95  1  0.66578096  0.93288870  0.50000000  1
  Mg  Mg96  1  0.46660376  0.93320653  0.50000000  1
  Mg  Mg97  1  0.86651223  0.93325561  0.50000000  1
  Mg  Mg98  1  0.06674439  0.93325661  0.50000000  1
  Mg  Mg99  1  0.20215074  0.00079243  0.66405054  1
  Mg  Mg100  1  0.79864169  0.00079243  0.66405054  1
  Mg  Mg101  1  0.20215074  0.20135831  0.66405054  1
  Mg  Mg102  1  0.99920757  0.20135831  0.66405054  1
  Mg  Mg103  1  0.79864169  0.79784926  0.66405054  1
  Mg  Mg104  1  0.99920757  0.79784926  0.66405054  1
  Mg  Mg105  1  0.00000000  0.00000000  0.66606804  1
  Mg  Mg106  1  0.40083238  0.00024969  0.66609876  1
  Mg  Mg107  1  0.59941731  0.00024969  0.66609876  1
  Mg  Mg108  1  0.40083238  0.40058269  0.66609876  1
  Mg  Mg109  1  0.99974931  0.40058269  0.66609876  1
  Mg  Mg110  1  0.99974931  0.59916662  0.66609876  1
  Mg  Mg111  1  0.59941731  0.59916662  0.66609876  1
  Mg  Mg112  1  0.19992699  0.39985399  0.66629484  1
  Mg  Mg113  1  0.60014601  0.80007301  0.66629484  1
  Mg  Mg114  1  0.19992699  0.80007301  0.66629484  1
  Mg  Mg115  1  0.19980092  0.59990046  0.66623275  1
  Mg  Mg116  1  0.40009954  0.59990046  0.66623275  1
  Mg  Mg117  1  0.40009954  0.80019908  0.66623275  1
  Mg  Mg118  1  0.60004748  0.20009395  0.66695364  1
  Mg  Mg119  1  0.79990505  0.39995252  0.66695364  1
  Mg  Mg120  1  0.60004748  0.39995252  0.66695364  1
  Mg  Mg121  1  0.39990932  0.19995416  0.66747722  1
  Mg  Mg122  1  0.80004584  0.19995516  0.66747722  1
  Mg  Mg123  1  0.80004584  0.60009168  0.66747722  1
  Mg  Mg124  1  0.07112552  0.14225105  0.82281758  1
  Mg  Mg125  1  0.85774895  0.92887448  0.82281758  1
  Mg  Mg126  1  0.07112552  0.92887448  0.82281758  1
  Mg  Mg127  1  0.26886524  0.33656592  0.83189777  1
  Mg  Mg128  1  0.06770068  0.33656692  0.83189777  1
  Mg  Mg129  1  0.66343408  0.73113376  0.83189777  1
  Mg  Mg130  1  0.06770068  0.73113376  0.83189777  1
  Mg  Mg131  1  0.26886524  0.93229932  0.83189777  1
  Mg  Mg132  1  0.66343408  0.93229932  0.83189777  1
  Mg  Mg133  1  0.46654821  0.53345079  0.83203817  1
  Mg  Mg134  1  0.06690257  0.53345079  0.83203817  1
  Mg  Mg135  1  0.46654821  0.93309743  0.83203817  1
  Mg  Mg136  1  0.26710815  0.53421531  0.83276329  1
  Mg  Mg137  1  0.46578369  0.73289185  0.83276329  1
  Mg  Mg138  1  0.26710815  0.73289185  0.83276329  1
  Mg  Mg139  1  0.46550936  0.13280136  0.83363423  1
  Mg  Mg140  1  0.66729100  0.13280136  0.83363423  1
  Mg  Mg141  1  0.46550936  0.33270900  0.83363423  1
  Mg  Mg142  1  0.86719864  0.33270900  0.83363423  1
  Mg  Mg143  1  0.86719864  0.53448964  0.83363423  1
  Mg  Mg144  1  0.66729100  0.53448964  0.83363423  1
  Mg  Mg145  1  0.66666600  0.33333300  0.83381066  1
  Mg  Mg146  1  0.26281903  0.13140952  0.83488579  1
  Mg  Mg147  1  0.86859048  0.13140952  0.83488579  1
  Mg  Mg148  1  0.86859048  0.73718097  0.83488579  1
loop_
_geom_bond_atom_site_label_1
_geom_bond_atom_site_label_2
_geom_bond_distance
_geom_bond_site_symmetry_2
Cs0 Mg16 3.393875 1_445
Cs0 Mg4 3.393875 1_555
Cs0 Mg21 3.393875 1_445
Cs0 Mg20 3.393876 1_545
Cs0 Mg3 3.393877 1_555
Cs0 Mg15 3.393877 1_545
Cs0 Mg125 3.419409 1_444
Cs0 Mg47 3.419409 1_445
Cs0 Mg126 3.419409 1_544
Cs0 Mg48 3.419409 1_545
Cs0 Mg124 3.419409 1_554
Cs0 Mg46 3.419409 1_555
Mg0 Mg1 3.162595 1_555
Mg0 Mg2 3.162603 1_555
Mg0 Mg5 3.171004 1_555
Mg0 Mg6 3.171010 1_555
Mg0 Mg22 3.181287 1_545
Mg0 Mg23 3.181296 1_545
Mg0 Mg145 3.200217 1_554
Mg0 Mg27 3.200230 1_555
Mg0 Mg139 3.221196 1_554
Mg0 Mg28 3.221196 1_555
Mg0 Mg29 3.221197 1_555
Mg0 Mg140 3.221197 1_554
Mg1 Mg20 3.144396 1_545
Mg1 Mg4 3.144396 1_555
Mg1 Mg5 3.162595 1_555
Mg1 Mg139 3.195073 1_554
Mg1 Mg28 3.195073 1_555
Mg1 Mg30 3.195081 1_555
Mg1 Mg141 3.195081 1_554
Mg1 Mg7 3.225732 1_555
Mg1 Mg22 3.225732 1_545
Mg1 Mg24 3.242339 1_555
Mg1 Mg146 3.242339 1_554
Mg2 Mg3 3.144403 1_655
Mg2 Mg21 3.144413 1_545
Mg2 Mg6 3.162580 1_555
Mg2 Mg31 3.195073 1_555
Mg2 Mg29 3.195080 1_555
Mg2 Mg8 3.225723 1_655
Mg2 Mg23 3.225739 1_545
Mg2 Mg25 3.242348 1_555
Mg3 Mg8 3.040892 1_555
Mg3 Mg9 3.114218 1_555
Mg3 Mg41 3.151376 1_555
Mg3 Mg4 3.346012 1_555
Mg3 Mg46 3.406780 1_555
Mg4 Mg7 3.040891 1_555
Mg4 Mg9 3.114210 1_555
Mg4 Mg40 3.151368 1_555
Mg4 Mg46 3.406780 1_555
Mg5 Mg6 3.171019 1_555
Mg5 Mg7 3.181288 1_555
Mg6 Mg8 3.181288 1_655
Mg7 Mg9 3.208881 1_555
Mg8 Mg9 3.208897 1_555
Mg10 Mg16 3.040891 1_555
Mg10 Mg7 3.081125 1_555
Mg10 Mg14 3.168223 1_555
Mg10 Mg5 3.181296 1_555
Mg10 Mg133 3.201083 1_554
Mg10 Mg37 3.201083 1_555
Mg10 Mg17 3.208882 1_555
Mg10 Mg144 3.210901 1_554
Mg10 Mg33 3.210901 1_555
Mg10 Mg12 3.225739 1_555
Mg10 Mg42 3.238120 1_555
Mg10 Mg129 3.238120 1_554
Mg11 Mg15 3.040892 1_555
Mg11 Mg8 3.081127 1_555
Mg11 Mg13 3.168223 1_555
Mg11 Mg6 3.181295 1_455
Mg11 Mg134 3.201084 1_554
Mg11 Mg38 3.201084 1_555
Mg11 Mg18 3.208897 1_555
Mg11 Mg143 3.210900 1_454
Mg11 Mg32 3.210900 1_455
Mg11 Mg12 3.225723 1_455
Mg11 Mg43 3.238120 1_555
Mg11 Mg130 3.238120 1_554
Mg12 Mg15 3.144403 1_655
Mg12 Mg16 3.144413 1_555
Mg12 Mg6 3.162596 1_555
Mg12 Mg5 3.162603 1_555
Mg12 Mg143 3.195073 1_554
Mg12 Mg32 3.195073 1_555
Mg12 Mg144 3.195080 1_554
Mg12 Mg33 3.195080 1_555
Mg12 Mg26 3.242348 1_555
Mg12 Mg148 3.242348 1_554
Mg13 Mg9 3.143171 1_555
Mg13 Mg18 3.143171 1_555
Mg13 Mg19 3.163248 1_555
Mg13 Mg14 3.163248 1_555
Mg13 Mg8 3.168223 1_555
Mg13 Mg138 3.212187 1_554
Mg13 Mg36 3.212187 1_555
Mg13 Mg136 3.212194 1_554
Mg13 Mg34 3.212194 1_555
Mg13 Mg134 3.236469 1_554
Mg13 Mg38 3.236469 1_555
Mg14 Mg9 3.143162 1_555
Mg14 Mg17 3.143162 1_555
Mg14 Mg19 3.163249 1_555
Mg14 Mg7 3.168224 1_555
Mg14 Mg34 3.212186 1_555
Mg14 Mg35 3.212187 1_555
Mg14 Mg37 3.236470 1_555
Mg15 Mg18 3.114218 1_555
Mg15 Mg43 3.151376 1_555
Mg15 Mg26 3.202965 1_455
Mg15 Mg20 3.346012 1_555
Mg15 Mg48 3.406780 1_555
Mg15 Mg16 3.441515 1_455
Mg16 Mg17 3.114209 1_555
Mg16 Mg42 3.151368 1_555
Mg16 Mg26 3.202965 1_555
Mg16 Mg21 3.346013 1_555
Mg16 Mg47 3.406780 1_555
Mg17 Mg21 3.114218 1_555
Mg17 Mg19 3.143170 1_555
Mg17 Mg35 3.196254 1_555
Mg17 Mg23 3.208898 1_555
Mg17 Mg45 3.238627 1_555
Mg17 Mg42 3.238627 1_555
Mg18 Mg20 3.114210 1_555
Mg18 Mg19 3.143162 1_555
Mg18 Mg36 3.196254 1_555
Mg18 Mg22 3.208881 1_555
Mg18 Mg44 3.238619 1_555
Mg18 Mg43 3.238626 1_555
Mg19 Mg23 3.168223 1_555
Mg19 Mg22 3.168224 1_555
Mg19 Mg36 3.212186 1_555
Mg19 Mg35 3.212187 1_555
Mg19 Mg39 3.236470 1_555
Mg20 Mg22 3.040891 1_555
Mg20 Mg44 3.151368 1_555
Mg20 Mg24 3.202965 1_565
Mg20 Mg48 3.406780 1_555
Mg20 Mg4 3.441516 1_565
Mg21 Mg23 3.040891 1_555
Mg21 Mg45 3.151368 1_555
Mg21 Mg25 3.202965 1_565
Mg21 Mg47 3.406780 1_555
Mg21 Mg3 3.441515 1_665
Mg22 Mg23 3.081125 1_555
Mg22 Mg39 3.201076 1_555
Mg22 Mg28 3.210901 1_565
Mg22 Mg44 3.238128 1_555
Mg23 Mg39 3.201083 1_555
Mg23 Mg29 3.210900 1_565
Mg23 Mg45 3.238128 1_555
Mg24 Mg48 3.153368 1_545
Mg24 Mg46 3.153368 1_555
Mg24 Mg4 3.202965 1_555
Mg24 Mg28 3.221995 1_555
Mg24 Mg30 3.222003 1_555
Mg24 Mg40 3.225521 1_555
Mg24 Mg44 3.225521 1_545
Mg24 Mg70 3.246703 1_555
Mg24 Mg68 3.246703 1_555
Mg24 Mg49 3.252249 1_555
Mg25 Mg46 3.153368 1_655
Mg25 Mg47 3.153369 1_545
Mg25 Mg3 3.202965 1_655
Mg25 Mg29 3.222011 1_555
Mg25 Mg31 3.222012 1_555
Mg25 Mg45 3.225519 1_545
Mg25 Mg41 3.225528 1_655
Mg25 Mg71 3.246702 1_555
Mg25 Mg69 3.246703 1_555
Mg25 Mg50 3.252250 1_555
Mg26 Mg48 3.153368 1_655
Mg26 Mg47 3.153369 1_555
Mg26 Mg33 3.222011 1_555
Mg26 Mg32 3.222012 1_555
Mg26 Mg42 3.225512 1_555
Mg26 Mg43 3.225528 1_655
Mg26 Mg73 3.246702 1_555
Mg26 Mg72 3.246702 1_555
Mg26 Mg51 3.252242 1_555
Mg27 Mg5 3.200230 1_555
Mg27 Mg6 3.200238 1_555
Mg27 Mg28 3.203543 1_555
Mg27 Mg33 3.203544 1_555
Mg27 Mg29 3.203544 1_555
Mg27 Mg32 3.203551 1_555
Mg27 Mg30 3.203551 1_555
Mg27 Mg31 3.203551 1_555
Mg27 Mg54 3.214397 1_555
Mg27 Mg53 3.214405 1_555
Mg27 Mg52 3.214405 1_555
Mg28 Mg44 3.167873 1_545
Mg28 Mg30 3.188594 1_555
Mg28 Mg39 3.193761 1_545
Mg28 Mg49 3.201533 1_555
Mg28 Mg61 3.217898 1_555
Mg28 Mg29 3.218484 1_555
Mg28 Mg52 3.222449 1_555
Mg29 Mg45 3.167882 1_545
Mg29 Mg31 3.188593 1_555
Mg29 Mg39 3.193760 1_545
Mg29 Mg50 3.201548 1_555
Mg29 Mg62 3.217898 1_555
Mg29 Mg52 3.222434 1_555
Mg30 Mg40 3.167865 1_555
Mg30 Mg37 3.193745 1_555
Mg30 Mg49 3.201548 1_555
Mg30 Mg7 3.210893 1_555
Mg30 Mg63 3.217890 1_555
Mg30 Mg33 3.218476 1_555
Mg30 Mg5 3.221196 1_555
Mg30 Mg54 3.222449 1_555
Mg31 Mg41 3.167873 1_655
Mg31 Mg38 3.193752 1_655
Mg31 Mg50 3.201540 1_555
Mg31 Mg8 3.210900 1_655
Mg31 Mg64 3.217890 1_555
Mg31 Mg32 3.218469 1_555
Mg31 Mg6 3.221189 1_555
Mg31 Mg53 3.222442 1_555
Mg32 Mg43 3.167873 1_655
Mg32 Mg33 3.188593 1_555
Mg32 Mg38 3.193760 1_655
Mg32 Mg51 3.201548 1_555
Mg32 Mg65 3.217890 1_555
Mg32 Mg6 3.221197 1_555
Mg32 Mg53 3.222442 1_555
Mg33 Mg42 3.167866 1_555
Mg33 Mg37 3.193760 1_555
Mg33 Mg51 3.201548 1_555
Mg33 Mg66 3.217890 1_555
Mg33 Mg5 3.221197 1_555
Mg33 Mg54 3.222442 1_555
Mg34 Mg41 3.166709 1_555
Mg34 Mg40 3.166710 1_555
Mg34 Mg35 3.168948 1_555
Mg34 Mg36 3.168957 1_555
Mg34 Mg37 3.187270 1_555
Mg34 Mg38 3.187286 1_555
Mg34 Mg9 3.196246 1_555
Mg34 Mg56 3.208245 1_555
Mg34 Mg55 3.208253 1_555
Mg34 Mg58 3.218304 1_555
Mg35 Mg45 3.166724 1_555
Mg35 Mg42 3.166733 1_555
Mg35 Mg36 3.168940 1_555
Mg35 Mg39 3.187287 1_555
Mg35 Mg37 3.187287 1_555
Mg35 Mg57 3.208245 1_555
Mg35 Mg56 3.208245 1_555
Mg35 Mg59 3.218311 1_555
Mg36 Mg43 3.166716 1_555
Mg36 Mg44 3.166725 1_555
Mg36 Mg39 3.187278 1_555
Mg36 Mg38 3.187286 1_555
Mg36 Mg57 3.208245 1_555
Mg36 Mg55 3.208245 1_555
Mg36 Mg60 3.218312 1_555
Mg37 Mg40 3.146764 1_555
Mg37 Mg42 3.146771 1_555
Mg37 Mg56 3.198099 1_555
Mg37 Mg63 3.199626 1_555
Mg37 Mg66 3.199633 1_555
Mg37 Mg7 3.201076 1_555
Mg38 Mg41 3.146749 1_555
Mg38 Mg43 3.146765 1_555
Mg38 Mg55 3.198098 1_555
Mg38 Mg64 3.199626 1_455
Mg38 Mg65 3.199633 1_455
Mg38 Mg8 3.201076 1_555
Mg39 Mg44 3.146764 1_555
Mg39 Mg45 3.146780 1_555
Mg39 Mg57 3.198099 1_555
Mg39 Mg61 3.199625 1_565
Mg39 Mg62 3.199633 1_565
Mg40 Mg46 3.130345 1_555
Mg40 Mg58 3.190488 1_555
Mg40 Mg63 3.190816 1_555
Mg40 Mg41 3.208649 1_555
Mg40 Mg7 3.238128 1_555
Mg40 Mg9 3.238619 1_555
Mg40 Mg70 3.242869 1_555
Mg41 Mg46 3.130362 1_555
Mg41 Mg58 3.190487 1_555
Mg41 Mg64 3.190817 1_455
Mg41 Mg8 3.238120 1_555
Mg41 Mg9 3.238626 1_555
Mg41 Mg71 3.242876 1_455
Mg42 Mg47 3.130353 1_555
Mg42 Mg59 3.190496 1_555
Mg42 Mg66 3.190816 1_555
Mg42 Mg45 3.208658 1_555
Mg42 Mg72 3.242868 1_555
Mg43 Mg48 3.130362 1_555
Mg43 Mg60 3.190487 1_555
Mg43 Mg65 3.190817 1_455
Mg43 Mg44 3.208649 1_555
Mg43 Mg73 3.242876 1_455
Mg44 Mg48 3.130345 1_555
Mg44 Mg60 3.190488 1_555
Mg44 Mg61 3.190816 1_565
Mg44 Mg68 3.242869 1_565
Mg45 Mg47 3.130345 1_555
Mg45 Mg59 3.190488 1_555
Mg45 Mg62 3.190816 1_565
Mg45 Mg69 3.242868 1_565
Mg46 Mg70 3.094213 1_555
Mg46 Mg71 3.094214 1_455
Mg46 Mg67 3.160742 1_555
Mg46 Mg47 3.403427 1_445
Mg46 Mg48 3.403428 1_545
Mg47 Mg69 3.094214 1_565
Mg47 Mg72 3.094214 1_555
Mg47 Mg67 3.160741 1_665
Mg47 Mg48 3.403427 1_655
Mg48 Mg68 3.094213 1_565
Mg48 Mg73 3.094214 1_455
Mg48 Mg67 3.160741 1_565
Mg49 Mg68 3.166027 1_555
Mg49 Mg70 3.166035 1_555
Mg49 Mg54 3.191166 1_555
Mg49 Mg52 3.191166 1_555
Mg49 Mg61 3.192814 1_555
Mg49 Mg63 3.192830 1_555
Mg49 Mg76 3.215358 1_555
Mg49 Mg79 3.220869 1_555
Mg49 Mg77 3.220869 1_555
Mg50 Mg71 3.166027 1_555
Mg50 Mg69 3.166036 1_555
Mg50 Mg52 3.191158 1_555
Mg50 Mg53 3.191159 1_555
Mg50 Mg64 3.192805 1_555
Mg50 Mg62 3.192829 1_555
Mg50 Mg75 3.215359 1_555
Mg50 Mg80 3.220869 1_555
Mg50 Mg78 3.220877 1_555
Mg51 Mg73 3.166019 1_555
Mg51 Mg72 3.166020 1_555
Mg51 Mg54 3.191174 1_555
Mg51 Mg53 3.191175 1_555
Mg51 Mg66 3.192813 1_555
Mg51 Mg65 3.192813 1_555
Mg51 Mg89 3.215351 1_555
Mg51 Mg85 3.220877 1_555
Mg51 Mg84 3.220877 1_555
Mg52 Mg62 3.182598 1_555
Mg52 Mg61 3.182605 1_555
Mg52 Mg53 3.187802 1_555
Mg52 Mg54 3.187811 1_555
Mg52 Mg78 3.213719 1_555
Mg52 Mg77 3.213735 1_555
Mg52 Mg81 3.215670 1_555
Mg53 Mg65 3.182597 1_555
Mg53 Mg64 3.182597 1_555
Mg53 Mg54 3.187794 1_555
Mg53 Mg80 3.213735 1_555
Mg53 Mg84 3.213735 1_555
Mg53 Mg81 3.215669 1_555
Mg54 Mg66 3.182598 1_555
Mg54 Mg63 3.182613 1_555
Mg54 Mg79 3.213735 1_555
Mg54 Mg85 3.213735 1_555
Mg54 Mg81 3.215662 1_555
Mg55 Mg64 3.185053 1_455
Mg55 Mg65 3.185053 1_455
Mg55 Mg58 3.191814 1_555
Mg55 Mg60 3.191814 1_555
Mg55 Mg57 3.194829 1_555
Mg55 Mg56 3.194829 1_555
Mg55 Mg86 3.204525 1_555
Mg55 Mg93 3.205786 1_555
Mg55 Mg88 3.205786 1_555
Mg56 Mg63 3.185046 1_555
Mg56 Mg66 3.185053 1_555
Mg56 Mg58 3.191813 1_555
Mg56 Mg59 3.191813 1_555
Mg56 Mg57 3.194830 1_555
Mg56 Mg87 3.204525 1_555
Mg56 Mg88 3.205786 1_555
Mg56 Mg92 3.205786 1_555
Mg57 Mg62 3.185045 1_565
Mg57 Mg61 3.185046 1_565
Mg57 Mg59 3.191813 1_555
Mg57 Mg60 3.191813 1_555
Mg57 Mg96 3.204517 1_555
Mg57 Mg93 3.205786 1_555
Mg57 Mg92 3.205786 1_555
Mg58 Mg71 3.184152 1_455
Mg58 Mg70 3.184153 1_555
Mg58 Mg63 3.198713 1_555
Mg58 Mg64 3.198729 1_455
Mg58 Mg82 3.203814 1_555
Mg58 Mg83 3.203814 1_555
Mg58 Mg88 3.213289 1_555
Mg59 Mg69 3.184152 1_565
Mg59 Mg72 3.184152 1_555
Mg59 Mg62 3.198714 1_565
Mg59 Mg66 3.198730 1_555
Mg59 Mg95 3.203814 1_555
Mg59 Mg91 3.203814 1_555
Mg59 Mg92 3.213289 1_555
Mg60 Mg73 3.184152 1_455
Mg60 Mg68 3.184153 1_565
Mg60 Mg61 3.198713 1_565
Mg60 Mg65 3.198729 1_455
Mg60 Mg90 3.203814 1_555
Mg60 Mg94 3.203814 1_555
Mg60 Mg93 3.213289 1_555
Mg61 Mg62 3.167495 1_555
Mg61 Mg68 3.173540 1_555
Mg61 Mg96 3.201259 1_545
Mg61 Mg94 3.208474 1_545
Mg61 Mg77 3.209189 1_555
Mg62 Mg69 3.173540 1_555
Mg62 Mg96 3.201251 1_545
Mg62 Mg95 3.208474 1_545
Mg62 Mg78 3.209197 1_555
Mg63 Mg66 3.167487 1_555
Mg63 Mg70 3.173540 1_555
Mg63 Mg87 3.201251 1_555
Mg63 Mg83 3.208474 1_555
Mg63 Mg79 3.209197 1_555
Mg64 Mg65 3.167480 1_555
Mg64 Mg71 3.173549 1_555
Mg64 Mg86 3.201251 1_655
Mg64 Mg82 3.208482 1_655
Mg64 Mg80 3.209181 1_555
Mg65 Mg73 3.173549 1_555
Mg65 Mg86 3.201251 1_655
Mg65 Mg90 3.208482 1_655
Mg65 Mg84 3.209181 1_555
Mg66 Mg72 3.173548 1_555
Mg66 Mg87 3.201251 1_555
Mg66 Mg91 3.208482 1_555
Mg66 Mg85 3.209181 1_555
Mg67 Mg97 3.206184 1_445
Mg67 Mg74 3.206185 1_555
Mg67 Mg98 3.206185 1_545
Mg67 Mg70 3.218227 1_555
Mg67 Mg72 3.218227 1_445
Mg67 Mg68 3.218228 1_555
Mg67 Mg69 3.218228 1_455
Mg67 Mg73 3.218229 1_445
Mg67 Mg71 3.218229 1_455
Mg68 Mg94 3.175242 1_545
Mg68 Mg76 3.176262 1_555
Mg68 Mg98 3.195610 1_545
Mg68 Mg70 3.199093 1_555
Mg68 Mg73 3.237010 1_445
Mg69 Mg95 3.175242 1_545
Mg69 Mg75 3.176262 1_555
Mg69 Mg97 3.195618 1_545
Mg69 Mg71 3.199092 1_555
Mg69 Mg72 3.237012 1_545
Mg70 Mg83 3.175242 1_555
Mg70 Mg76 3.176262 1_555
Mg70 Mg74 3.195610 1_555
Mg70 Mg71 3.237010 1_455
Mg71 Mg82 3.175242 1_655
Mg71 Mg75 3.176261 1_555
Mg71 Mg74 3.195618 1_655
Mg72 Mg91 3.175242 1_555
Mg72 Mg89 3.176262 1_555
Mg72 Mg97 3.195610 1_555
Mg72 Mg73 3.199092 1_555
Mg73 Mg90 3.175242 1_655
Mg73 Mg89 3.176261 1_555
Mg73 Mg98 3.195618 1_655
Mg74 Mg98 3.193754 1_545
Mg74 Mg97 3.193769 1_445
Mg74 Mg83 3.198800 1_555
Mg74 Mg82 3.198809 1_555
Mg74 Mg76 3.200887 1_555
Mg74 Mg75 3.200903 1_455
Mg75 Mg80 3.179606 1_555
Mg75 Mg78 3.179613 1_555
Mg75 Mg82 3.200682 1_655
Mg75 Mg95 3.200682 1_545
Mg75 Mg97 3.200904 1_545
Mg76 Mg99 3.176262 1_555
Mg76 Mg79 3.179597 1_555
Mg76 Mg77 3.179605 1_555
Mg76 Mg94 3.200683 1_545
Mg76 Mg83 3.200683 1_555
Mg76 Mg98 3.200887 1_545
Mg77 Mg79 3.172955 1_555
Mg77 Mg81 3.181149 1_555
Mg77 Mg78 3.189330 1_555
Mg77 Mg94 3.199051 1_545
Mg77 Mg96 3.200142 1_545
Mg78 Mg80 3.172962 1_555
Mg78 Mg81 3.181143 1_555
Mg78 Mg95 3.199068 1_545
Mg78 Mg96 3.200141 1_545
Mg79 Mg81 3.181142 1_555
Mg79 Mg85 3.189346 1_555
Mg79 Mg83 3.199059 1_555
Mg79 Mg87 3.200142 1_555
Mg80 Mg81 3.181165 1_555
Mg80 Mg84 3.189339 1_555
Mg80 Mg82 3.199051 1_655
Mg80 Mg86 3.200125 1_655
Mg81 Mg85 3.181159 1_555
Mg81 Mg84 3.181165 1_555
Mg82 Mg86 3.179489 1_555
Mg82 Mg88 3.185840 1_555
Mg82 Mg83 3.190009 1_555
Mg83 Mg87 3.179488 1_555
Mg83 Mg88 3.185841 1_555
Mg84 Mg85 3.172970 1_555
Mg84 Mg89 3.179606 1_555
Mg84 Mg90 3.199051 1_655
Mg84 Mg86 3.200125 1_655
Mg85 Mg89 3.179605 1_555
Mg85 Mg91 3.199052 1_555
Mg85 Mg87 3.200125 1_555
Mg86 Mg90 3.179489 1_555
Mg86 Mg93 3.188567 1_555
Mg86 Mg88 3.188568 1_555
Mg87 Mg91 3.179488 1_555
Mg87 Mg88 3.188567 1_555
Mg87 Mg92 3.188568 1_555
Mg88 Mg92 3.177301 1_555
Mg88 Mg93 3.177302 1_555
Mg89 Mg90 3.200682 1_655
Mg89 Mg91 3.200682 1_555
Mg89 Mg97 3.200888 1_555
Mg89 Mg98 3.200903 1_655
Mg90 Mg93 3.185840 1_555
Mg90 Mg94 3.190009 1_555
Mg90 Mg98 3.198809 1_555
Mg91 Mg92 3.185840 1_555
Mg91 Mg95 3.190010 1_555
Mg91 Mg97 3.198800 1_555
Mg92 Mg93 3.177301 1_555
Mg92 Mg95 3.185840 1_555
Mg92 Mg96 3.188553 1_555
Mg93 Mg94 3.185841 1_555
Mg93 Mg96 3.188559 1_555
Mg94 Mg99 3.175242 1_565
Mg94 Mg96 3.179496 1_555
Mg94 Mg98 3.198800 1_555
Mg95 Mg96 3.179480 1_555
Mg95 Mg97 3.198808 1_555
Mg97 Mg98 3.193761 1_655
Mg98 Mg99 3.195610 1_565
Mg100 Mg125 3.094214 1_545
Mg100 Mg122 3.166036 1_555
Mg100 Mg107 3.173540 1_555
Mg100 Mg95 3.175242 1_545
Mg100 Mg75 3.176262 1_555
Mg100 Mg113 3.184152 1_545
Mg100 Mg97 3.195618 1_545
Mg100 Mg102 3.199092 1_555
Mg100 Mg105 3.218228 1_655
Mg100 Mg103 3.237012 1_545
Mg100 Mg132 3.242868 1_545
Mg100 Mg147 3.246703 1_555
Mg101 Mg124 3.094213 1_555
Mg101 Mg121 3.166035 1_555
Mg101 Mg108 3.173540 1_555
Mg101 Mg83 3.175242 1_555
Mg101 Mg76 3.176262 1_555
Mg101 Mg112 3.184153 1_555
Mg101 Mg74 3.195610 1_555
Mg101 Mg99 3.199093 1_555
Mg101 Mg105 3.218227 1_555
Mg101 Mg102 3.237010 1_455
Mg101 Mg127 3.242869 1_555
Mg101 Mg146 3.246703 1_555
Mg102 Mg124 3.094214 1_655
Mg102 Mg122 3.166027 1_555
Mg102 Mg109 3.173549 1_555
Mg102 Mg82 3.175242 1_655
Mg102 Mg75 3.176261 1_555
Mg102 Mg112 3.184152 1_655
Mg102 Mg74 3.195618 1_655
Mg102 Mg105 3.218229 1_655
Mg102 Mg128 3.242876 1_655
Mg102 Mg147 3.246702 1_555
Mg103 Mg125 3.094214 1_555
Mg103 Mg123 3.166020 1_555
Mg103 Mg111 3.173548 1_555
Mg103 Mg91 3.175242 1_555
Mg103 Mg89 3.176262 1_555
Mg103 Mg113 3.184152 1_555
Mg103 Mg97 3.195610 1_555
Mg103 Mg104 3.199092 1_555
Mg103 Mg105 3.218227 1_665
Mg103 Mg129 3.242868 1_555
Mg103 Mg148 3.246702 1_555
Mg104 Mg126 3.094214 1_655
Mg104 Mg123 3.166019 1_555
Mg104 Mg110 3.173549 1_555
Mg104 Mg90 3.175242 1_655
Mg104 Mg89 3.176261 1_555
Mg104 Mg114 3.184152 1_655
Mg104 Mg98 3.195618 1_655
Mg104 Mg105 3.218229 1_665
Mg104 Mg99 3.237010 1_665
Mg104 Mg130 3.242876 1_655
Mg104 Mg148 3.246702 1_555
Mg105 Mg125 3.160741 1_445
Mg105 Mg126 3.160741 1_545
Mg105 Mg124 3.160742 1_555
Mg105 Mg97 3.206184 1_445
Mg105 Mg74 3.206185 1_555
Mg105 Mg98 3.206185 1_545
Mg105 Mg99 3.218228 1_555
Mg106 Mg107 3.167495 1_555
Mg106 Mg99 3.173540 1_555
Mg106 Mg118 3.182605 1_555
Mg106 Mg117 3.185046 1_545
Mg106 Mg131 3.190816 1_545
Mg106 Mg121 3.192814 1_555
Mg106 Mg114 3.198713 1_545
Mg106 Mg135 3.199625 1_545
Mg106 Mg96 3.201259 1_545
Mg106 Mg94 3.208474 1_545
Mg106 Mg77 3.209189 1_555
Mg106 Mg139 3.217898 1_555
Mg107 Mg118 3.182598 1_555
Mg107 Mg117 3.185045 1_545
Mg107 Mg132 3.190816 1_545
Mg107 Mg122 3.192829 1_555
Mg107 Mg113 3.198714 1_545
Mg107 Mg135 3.199633 1_545
Mg107 Mg96 3.201251 1_545
Mg107 Mg95 3.208474 1_545
Mg107 Mg78 3.209197 1_555
Mg107 Mg140 3.217898 1_555
Mg108 Mg111 3.167487 1_555
Mg108 Mg120 3.182613 1_555
Mg108 Mg116 3.185046 1_555
Mg108 Mg127 3.190816 1_555
Mg108 Mg121 3.192830 1_555
Mg108 Mg112 3.198713 1_555
Mg108 Mg133 3.199626 1_555
Mg108 Mg87 3.201251 1_555
Mg108 Mg83 3.208474 1_555
Mg108 Mg79 3.209197 1_555
Mg108 Mg141 3.217890 1_555
Mg109 Mg110 3.167480 1_555
Mg109 Mg119 3.182597 1_555
Mg109 Mg115 3.185053 1_655
Mg109 Mg128 3.190817 1_655
Mg109 Mg122 3.192805 1_555
Mg109 Mg112 3.198729 1_655
Mg109 Mg134 3.199626 1_655
Mg109 Mg86 3.201251 1_655
Mg109 Mg82 3.208482 1_655
Mg109 Mg80 3.209181 1_555
Mg109 Mg142 3.217890 1_555
Mg110 Mg119 3.182597 1_555
Mg110 Mg115 3.185053 1_655
Mg110 Mg130 3.190817 1_655
Mg110 Mg123 3.192813 1_555
Mg110 Mg114 3.198729 1_655
Mg110 Mg134 3.199633 1_655
Mg110 Mg86 3.201251 1_655
Mg110 Mg90 3.208482 1_655
Mg110 Mg84 3.209181 1_555
Mg110 Mg143 3.217890 1_555
Mg111 Mg120 3.182598 1_555
Mg111 Mg116 3.185053 1_555
Mg111 Mg129 3.190816 1_555
Mg111 Mg123 3.192813 1_555
Mg111 Mg113 3.198730 1_555
Mg111 Mg133 3.199633 1_555
Mg111 Mg87 3.201251 1_555
Mg111 Mg91 3.208482 1_555
Mg111 Mg85 3.209181 1_555
Mg111 Mg144 3.217890 1_555
Mg112 Mg128 3.190487 1_555
Mg112 Mg127 3.190488 1_555
Mg112 Mg116 3.191813 1_555
Mg112 Mg115 3.191814 1_555
Mg112 Mg82 3.203814 1_555
Mg112 Mg83 3.203814 1_555
Mg112 Mg88 3.213289 1_555
Mg112 Mg136 3.218304 1_555
Mg113 Mg132 3.190488 1_555
Mg113 Mg129 3.190496 1_555
Mg113 Mg116 3.191813 1_555
Mg113 Mg117 3.191813 1_555
Mg113 Mg95 3.203814 1_555
Mg113 Mg91 3.203814 1_555
Mg113 Mg92 3.213289 1_555
Mg113 Mg137 3.218311 1_555
Mg114 Mg99 3.184153 1_565
Mg114 Mg130 3.190487 1_555
Mg114 Mg131 3.190488 1_555
Mg114 Mg117 3.191813 1_555
Mg114 Mg115 3.191814 1_555
Mg114 Mg90 3.203814 1_555
Mg114 Mg94 3.203814 1_555
Mg114 Mg93 3.213289 1_555
Mg114 Mg138 3.218312 1_555
Mg115 Mg117 3.194829 1_555
Mg115 Mg116 3.194829 1_555
Mg115 Mg134 3.198111 1_555
Mg115 Mg86 3.204512 1_555
Mg115 Mg93 3.205773 1_555
Mg115 Mg88 3.205773 1_555
Mg115 Mg138 3.208258 1_555
Mg115 Mg136 3.208266 1_555
Mg116 Mg117 3.194830 1_555
Mg116 Mg133 3.198112 1_555
Mg116 Mg87 3.204512 1_555
Mg116 Mg88 3.205773 1_555
Mg116 Mg92 3.205773 1_555
Mg116 Mg136 3.208258 1_555
Mg116 Mg137 3.208258 1_555
Mg117 Mg135 3.198112 1_555
Mg117 Mg96 3.204504 1_555
Mg117 Mg93 3.205773 1_555
Mg117 Mg92 3.205773 1_555
Mg117 Mg138 3.208258 1_555
Mg117 Mg137 3.208258 1_555
Mg118 Mg119 3.187802 1_555
Mg118 Mg120 3.187811 1_555
Mg118 Mg122 3.191158 1_555
Mg118 Mg121 3.191166 1_555
Mg118 Mg78 3.213719 1_555
Mg118 Mg77 3.213735 1_555
Mg118 Mg145 3.214418 1_555
Mg118 Mg81 3.215670 1_555
Mg118 Mg140 3.222434 1_555
Mg118 Mg139 3.222449 1_555
Mg119 Mg120 3.187794 1_555
Mg119 Mg122 3.191159 1_555
Mg119 Mg123 3.191175 1_555
Mg119 Mg80 3.213735 1_555
Mg119 Mg84 3.213735 1_555
Mg119 Mg145 3.214418 1_555
Mg119 Mg81 3.215669 1_555
Mg119 Mg142 3.222442 1_555
Mg119 Mg143 3.222442 1_555
Mg120 Mg121 3.191166 1_555
Mg120 Mg123 3.191174 1_555
Mg120 Mg79 3.213735 1_555
Mg120 Mg85 3.213735 1_555
Mg120 Mg145 3.214410 1_555
Mg120 Mg81 3.215662 1_555
Mg120 Mg144 3.222442 1_555
Mg120 Mg141 3.222449 1_555
Mg121 Mg99 3.166027 1_555
Mg121 Mg139 3.201533 1_555
Mg121 Mg141 3.201548 1_555
Mg121 Mg76 3.215358 1_555
Mg121 Mg79 3.220869 1_555
Mg121 Mg77 3.220869 1_555
Mg121 Mg146 3.252249 1_555
Mg122 Mg142 3.201540 1_555
Mg122 Mg140 3.201548 1_555
Mg122 Mg75 3.215359 1_555
Mg122 Mg80 3.220869 1_555
Mg122 Mg78 3.220877 1_555
Mg122 Mg147 3.252250 1_555
Mg123 Mg144 3.201548 1_555
Mg123 Mg143 3.201548 1_555
Mg123 Mg89 3.215351 1_555
Mg123 Mg85 3.220877 1_555
Mg123 Mg84 3.220877 1_555
Mg123 Mg148 3.252242 1_555
Mg124 Mg127 3.130345 1_555
Mg124 Mg128 3.130362 1_555
Mg124 Mg147 3.153368 1_455
Mg124 Mg146 3.153368 1_555
Mg124 Mg125 3.403427 1_445
Mg124 Mg126 3.403428 1_545
Mg124 Mg4 3.406780 1_556
Mg124 Mg3 3.406780 1_556
Mg125 Mg132 3.130345 1_555
Mg125 Mg129 3.130353 1_555
Mg125 Mg147 3.153369 1_565
Mg125 Mg148 3.153369 1_555
Mg125 Mg126 3.403427 1_655
Mg125 Mg21 3.406780 1_556
Mg125 Mg16 3.406780 1_556
Mg126 Mg99 3.094213 1_565
Mg126 Mg131 3.130345 1_555
Mg126 Mg130 3.130362 1_555
Mg126 Mg148 3.153368 1_455
Mg126 Mg146 3.153368 1_565
Mg126 Mg20 3.406780 1_556
Mg126 Mg15 3.406780 1_556
Mg127 Mg133 3.146764 1_555
Mg127 Mg4 3.151368 1_556
Mg127 Mg136 3.166710 1_555
Mg127 Mg141 3.167865 1_555
Mg127 Mg128 3.208649 1_555
Mg127 Mg146 3.225521 1_555
Mg127 Mg7 3.238128 1_556
Mg127 Mg9 3.238619 1_556
Mg128 Mg134 3.146749 1_555
Mg128 Mg3 3.151376 1_556
Mg128 Mg136 3.166709 1_555
Mg128 Mg142 3.167873 1_455
Mg128 Mg147 3.225528 1_455
Mg128 Mg8 3.238120 1_556
Mg128 Mg9 3.238626 1_556
Mg129 Mg133 3.146771 1_555
Mg129 Mg16 3.151368 1_556
Mg129 Mg137 3.166733 1_555
Mg129 Mg144 3.167866 1_555
Mg129 Mg132 3.208658 1_555
Mg129 Mg148 3.225512 1_555
Mg129 Mg17 3.238627 1_556
Mg130 Mg134 3.146765 1_555
Mg130 Mg15 3.151376 1_556
Mg130 Mg138 3.166716 1_555
Mg130 Mg143 3.167873 1_455
Mg130 Mg131 3.208649 1_555
Mg130 Mg148 3.225528 1_455
Mg130 Mg18 3.238626 1_556
Mg131 Mg135 3.146764 1_555
Mg131 Mg20 3.151368 1_556
Mg131 Mg138 3.166725 1_555
Mg131 Mg139 3.167873 1_565
Mg131 Mg146 3.225521 1_565
Mg131 Mg22 3.238128 1_556
Mg131 Mg18 3.238619 1_556
Mg131 Mg99 3.242869 1_565
Mg132 Mg135 3.146780 1_555
Mg132 Mg21 3.151368 1_556
Mg132 Mg137 3.166724 1_555
Mg132 Mg140 3.167882 1_565
Mg132 Mg147 3.225519 1_565
Mg132 Mg23 3.238128 1_556
Mg132 Mg17 3.238627 1_556
Mg133 Mg136 3.187270 1_555
Mg133 Mg137 3.187287 1_555
Mg133 Mg141 3.193745 1_555
Mg133 Mg144 3.193760 1_555
Mg133 Mg7 3.201076 1_556
Mg133 Mg14 3.236470 1_556
Mg134 Mg138 3.187286 1_555
Mg134 Mg136 3.187286 1_555
Mg134 Mg142 3.193752 1_455
Mg134 Mg143 3.193760 1_455
Mg134 Mg8 3.201076 1_556
Mg135 Mg138 3.187278 1_555
Mg135 Mg137 3.187287 1_555
Mg135 Mg140 3.193760 1_565
Mg135 Mg139 3.193761 1_565
Mg135 Mg22 3.201076 1_556
Mg135 Mg23 3.201083 1_556
Mg135 Mg19 3.236470 1_556
Mg136 Mg137 3.168948 1_555
Mg136 Mg138 3.168957 1_555
Mg136 Mg9 3.196246 1_556
Mg136 Mg14 3.212186 1_556
Mg137 Mg138 3.168940 1_555
Mg137 Mg17 3.196254 1_556
Mg137 Mg19 3.212187 1_556
Mg137 Mg14 3.212187 1_556
Mg138 Mg18 3.196254 1_556
Mg138 Mg19 3.212186 1_556
Mg139 Mg141 3.188594 1_555
Mg139 Mg145 3.203543 1_555
Mg139 Mg22 3.210901 1_546
Mg139 Mg140 3.218484 1_555
Mg139 Mg146 3.221995 1_555
Mg140 Mg142 3.188593 1_555
Mg140 Mg2 3.195080 1_556
Mg140 Mg145 3.203544 1_555
Mg140 Mg23 3.210900 1_546
Mg140 Mg147 3.222011 1_555
Mg141 Mg145 3.203551 1_555
Mg141 Mg7 3.210893 1_556
Mg141 Mg144 3.218476 1_555
Mg141 Mg5 3.221196 1_556
Mg141 Mg146 3.222003 1_555
Mg142 Mg2 3.195073 1_556
Mg142 Mg145 3.203551 1_555
Mg142 Mg8 3.210900 1_656
Mg142 Mg143 3.218469 1_555
Mg142 Mg6 3.221189 1_556
Mg142 Mg147 3.222012 1_555
Mg143 Mg144 3.188593 1_555
Mg143 Mg145 3.203551 1_555
Mg143 Mg6 3.221197 1_556
Mg143 Mg148 3.222012 1_555
Mg144 Mg145 3.203544 1_555
Mg144 Mg5 3.221197 1_556
Mg144 Mg148 3.222011 1_555
Mg145 Mg5 3.200217 1_556
Mg145 Mg6 3.200225 1_556
Mg146 Mg4 3.202965 1_556
Mg146 Mg20 3.202965 1_546
Mg146 Mg99 3.246703 1_555
Mg147 Mg3 3.202965 1_656
Mg147 Mg21 3.202965 1_546
Mg147 Mg2 3.242348 1_556
Mg148 Mg15 3.202965 1_656
Mg148 Mg16 3.202965 1_556
