# generated using pymatgen
data_RhI
_symmetry_space_group_name_H-M   'P 1'
_cell_length_a   4.09250449
_cell_length_b   4.09250449
_cell_length_c   7.44699800
_cell_angle_alpha   90.00000000
_cell_angle_beta   90.00000000
_cell_angle_gamma   120.00000799
_symmetry_Int_Tables_number   1
_chemical_formula_structural   RhI
_chemical_formula_sum   'Rh2 I2'
_cell_volume   108.01651567
_cell_formula_units_Z   2
loop_
 _symmetry_equiv_pos_site_id
 _symmetry_equiv_pos_as_xyz
  1  'x, y, z'
loop_
 _atom_site_type_symbol
 _atom_site_label
 _atom_site_symmetry_multiplicity
 _atom_site_fract_x
 _atom_site_fract_y
 _atom_site_fract_z
 _atom_site_occupancy
  Rh  Rh0  1  0.66666700  0.33333300  0.86445400  1
  Rh  Rh1  1  0.33333300  0.66666700  0.36445400  1
  I  I0  1  0.66666700  0.33333300  0.51054600  1
  I  I1  1  0.33333300  0.66666700  0.01054600  1
loop_
_geom_bond_atom_site_label_1
_geom_bond_atom_site_label_2
_geom_bond_distance
_geom_bond_site_symmetry_2
I0 Rh1 2.601246 1_545
I0 Rh1 2.601246 1_655
I0 Rh1 2.601253 1_555
I0 Rh0 2.635552 1_555
I1 Rh0 2.601246 1_454
I1 Rh0 2.601246 1_564
I1 Rh0 2.601253 1_554
I1 Rh1 2.635552 1_555
