# generated using pymatgen
data_Ni3S
_symmetry_space_group_name_H-M   'P 1'
_cell_length_a   5.08592726
_cell_length_b   5.08592726
_cell_length_c   4.01591700
_cell_angle_alpha   90.00000000
_cell_angle_beta   90.00000000
_cell_angle_gamma   119.99999043
_symmetry_Int_Tables_number   1
_chemical_formula_structural   Ni3S
_chemical_formula_sum   'Ni6 S2'
_cell_volume   89.96129358
_cell_formula_units_Z   2
loop_
 _symmetry_equiv_pos_site_id
 _symmetry_equiv_pos_as_xyz
  1  'x, y, z'
loop_
 _atom_site_type_symbol
 _atom_site_label
 _atom_site_symmetry_multiplicity
 _atom_site_fract_x
 _atom_site_fract_y
 _atom_site_fract_z
 _atom_site_occupancy
  Ni  Ni0  1  0.16685800  0.33371600  0.25000000  1
  Ni  Ni1  1  0.66628400  0.83314200  0.25000000  1
  Ni  Ni2  1  0.16685800  0.83314200  0.25000000  1
  Ni  Ni3  1  0.83314200  0.66628400  0.75000000  1
  Ni  Ni4  1  0.33371600  0.16685800  0.75000000  1
  Ni  Ni5  1  0.83314200  0.16685800  0.75000000  1
  S  S0  1  0.33333300  0.66666700  0.75000000  1
  S  S1  1  0.66666700  0.33333300  0.25000000  1
loop_
_geom_bond_atom_site_label_1
_geom_bond_atom_site_label_2
_geom_bond_distance
_geom_bond_site_symmetry_2
Ni0 S0 2.486465 1_554
Ni0 S0 2.486465 1_555
Ni0 Ni4 2.488454 1_555
Ni0 Ni4 2.488454 1_554
Ni0 Ni5 2.488454 1_455
Ni0 Ni5 2.488454 1_454
Ni0 Ni2 2.540044 1_555
Ni0 Ni1 2.540045 1_555
Ni0 S1 2.542962 1_455
Ni0 S1 2.542967 1_555
Ni0 Ni2 2.545883 1_545
Ni0 Ni1 2.545883 1_445
Ni1 S0 2.486465 1_554
Ni1 S0 2.486465 1_555
Ni1 Ni3 2.488454 1_555
Ni1 Ni3 2.488454 1_554
Ni1 Ni5 2.488454 1_565
Ni1 Ni5 2.488454 1_564
Ni1 Ni2 2.540044 1_555
Ni1 S1 2.542962 1_565
Ni1 S1 2.542967 1_555
Ni1 Ni2 2.545883 1_655
Ni2 S0 2.486463 1_554
Ni2 S0 2.486463 1_555
Ni2 Ni3 2.488454 1_455
Ni2 Ni4 2.488454 1_564
Ni2 Ni3 2.488454 1_454
Ni2 Ni4 2.488454 1_565
Ni2 S1 2.542965 1_455
Ni2 S1 2.542965 1_565
Ni3 S1 2.486465 1_556
Ni3 S1 2.486465 1_555
Ni3 Ni5 2.540044 1_555
Ni3 Ni4 2.540045 1_555
Ni3 S0 2.542962 1_655
Ni3 S0 2.542967 1_555
Ni3 Ni5 2.545883 1_565
Ni3 Ni4 2.545883 1_665
Ni4 S1 2.486465 1_556
Ni4 S1 2.486465 1_555
Ni4 Ni5 2.540044 1_555
Ni4 S0 2.542962 1_545
Ni4 S0 2.542967 1_555
Ni4 Ni5 2.545883 1_455
Ni5 S1 2.486463 1_556
Ni5 S1 2.486463 1_555
Ni5 S0 2.542965 1_545
Ni5 S0 2.542965 1_655
