# generated using pymatgen
data_FeRe
_symmetry_space_group_name_H-M   'P 1'
_cell_length_a   5.37742691
_cell_length_b   5.37742691
_cell_length_c   8.27985800
_cell_angle_alpha   90.00000000
_cell_angle_beta   90.00000000
_cell_angle_gamma   119.99998663
_symmetry_Int_Tables_number   1
_chemical_formula_structural   FeRe
_chemical_formula_sum   'Fe8 Re8'
_cell_volume   207.34931823
_cell_formula_units_Z   8
loop_
 _symmetry_equiv_pos_site_id
 _symmetry_equiv_pos_as_xyz
  1  'x, y, z'
loop_
 _atom_site_type_symbol
 _atom_site_label
 _atom_site_symmetry_multiplicity
 _atom_site_fract_x
 _atom_site_fract_y
 _atom_site_fract_z
 _atom_site_occupancy
  Fe  Fe0_0  1  0.33333350  0.16666650  0.25000000  1
  Fe  Fe0_1  1  0.33333350  0.16666650  0.75000000  1
  Fe  Fe0_2  1  0.33333350  0.66666650  0.25000000  1
  Fe  Fe0_3  1  0.33333350  0.66666650  0.75000000  1
  Fe  Fe0_4  1  0.83333350  0.16666650  0.25000000  1
  Fe  Fe0_5  1  0.83333350  0.16666650  0.75000000  1
  Fe  Fe0_6  1  0.83333350  0.66666650  0.25000000  1
  Fe  Fe0_7  1  0.83333350  0.66666650  0.75000000  1
  Re  Re0_0  1  0.16666650  0.33333350  0.00000000  1
  Re  Re0_1  1  0.16666650  0.33333350  0.50000000  1
  Re  Re0_2  1  0.16666650  0.83333350  0.00000000  1
  Re  Re0_3  1  0.16666650  0.83333350  0.50000000  1
  Re  Re0_4  1  0.66666650  0.33333350  0.00000000  1
  Re  Re0_5  1  0.66666650  0.33333350  0.50000000  1
  Re  Re0_6  1  0.66666650  0.83333350  0.00000000  1
  Re  Re0_7  1  0.66666650  0.83333350  0.50000000  1
loop_
_geom_bond_atom_site_label_1
_geom_bond_atom_site_label_2
_geom_bond_distance
_geom_bond_site_symmetry_2
Fe0_0 Re0_4 2.587368 1_555
Fe0_0 Re0_3 2.587368 1_545
Fe0_0 Re0_2 2.587368 1_545
Fe0_0 Re0_5 2.587368 1_555
Fe0_0 Re0_0 2.587371 1_555
Fe0_0 Re0_1 2.587371 1_555
Fe0_0 Fe0_4 2.688713 1_555
Fe0_0 Fe0_2 2.688713 1_545
Fe0_0 Fe0_2 2.688713 1_555
Fe0_0 Fe0_4 2.688713 1_455
Fe0_0 Fe0_6 2.688714 1_555
Fe0_0 Fe0_6 2.688714 1_445
Fe0_1 Re0_3 2.587368 1_545
Fe0_1 Re0_4 2.587368 1_556
Fe0_1 Re0_2 2.587368 1_546
Fe0_1 Re0_5 2.587368 1_555
Fe0_1 Re0_0 2.587371 1_556
Fe0_1 Re0_1 2.587371 1_555
Fe0_1 Fe0_3 2.688713 1_545
Fe0_1 Fe0_5 2.688713 1_555
Fe0_1 Fe0_5 2.688713 1_455
Fe0_1 Fe0_3 2.688713 1_555
Fe0_1 Fe0_7 2.688714 1_555
Fe0_1 Fe0_7 2.688714 1_445
Fe0_2 Re0_7 2.587368 1_555
Fe0_2 Re0_6 2.587368 1_555
Fe0_2 Re0_1 2.587368 1_555
Fe0_2 Re0_0 2.587368 1_555
Fe0_2 Re0_2 2.587371 1_555
Fe0_2 Re0_3 2.587371 1_555
Fe0_2 Fe0_6 2.688713 1_555
Fe0_2 Fe0_6 2.688713 1_455
Fe0_2 Fe0_4 2.688714 1_455
Fe0_2 Fe0_4 2.688714 1_565
Fe0_3 Re0_7 2.587368 1_555
Fe0_3 Re0_6 2.587368 1_556
Fe0_3 Re0_1 2.587368 1_555
Fe0_3 Re0_0 2.587368 1_556
Fe0_3 Re0_2 2.587371 1_556
Fe0_3 Re0_3 2.587371 1_555
Fe0_3 Fe0_7 2.688713 1_555
Fe0_3 Fe0_7 2.688713 1_455
Fe0_3 Fe0_5 2.688714 1_455
Fe0_3 Fe0_5 2.688714 1_565
Fe0_4 Re0_6 2.587368 1_545
Fe0_4 Re0_0 2.587368 1_655
Fe0_4 Re0_1 2.587368 1_655
Fe0_4 Re0_7 2.587368 1_545
Fe0_4 Re0_4 2.587371 1_555
Fe0_4 Re0_5 2.587371 1_555
Fe0_4 Fe0_6 2.688713 1_555
Fe0_4 Fe0_6 2.688713 1_545
Fe0_5 Re0_0 2.587368 1_656
Fe0_5 Re0_1 2.587368 1_655
Fe0_5 Re0_6 2.587368 1_546
Fe0_5 Re0_7 2.587368 1_545
Fe0_5 Re0_4 2.587371 1_556
Fe0_5 Re0_5 2.587371 1_555
Fe0_5 Fe0_7 2.688713 1_555
Fe0_5 Fe0_7 2.688713 1_545
Fe0_6 Re0_4 2.587368 1_555
Fe0_6 Re0_5 2.587368 1_555
Fe0_6 Re0_3 2.587368 1_655
Fe0_6 Re0_2 2.587368 1_655
Fe0_6 Re0_6 2.587371 1_555
Fe0_6 Re0_7 2.587371 1_555
Fe0_7 Re0_4 2.587368 1_556
Fe0_7 Re0_5 2.587368 1_555
Fe0_7 Re0_3 2.587368 1_655
Fe0_7 Re0_2 2.587368 1_656
Fe0_7 Re0_6 2.587371 1_556
Fe0_7 Re0_7 2.587371 1_555
Re0_0 Re0_4 2.688713 1_555
Re0_0 Re0_2 2.688713 1_555
Re0_0 Re0_4 2.688713 1_455
Re0_0 Re0_2 2.688713 1_545
Re0_0 Re0_6 2.688714 1_555
Re0_0 Re0_6 2.688714 1_445
Re0_1 Re0_3 2.688713 1_555
Re0_1 Re0_5 2.688713 1_555
Re0_1 Re0_3 2.688713 1_545
Re0_1 Re0_5 2.688713 1_455
Re0_1 Re0_7 2.688714 1_555
Re0_1 Re0_7 2.688714 1_445
Re0_2 Re0_6 2.688713 1_555
Re0_2 Re0_6 2.688713 1_455
Re0_2 Re0_4 2.688714 1_565
Re0_2 Re0_4 2.688714 1_455
Re0_3 Re0_7 2.688713 1_555
Re0_3 Re0_7 2.688713 1_455
Re0_3 Re0_5 2.688714 1_455
Re0_3 Re0_5 2.688714 1_565
Re0_4 Re0_6 2.688713 1_545
Re0_4 Re0_6 2.688713 1_555
Re0_5 Re0_7 2.688713 1_545
Re0_5 Re0_7 2.688713 1_555
