# generated using pymatgen
data_TbSc
_symmetry_space_group_name_H-M   'P 1'
_cell_length_a   7.00057102
_cell_length_b   7.00072576
_cell_length_c   10.77835362
_cell_angle_alpha   90.00163248
_cell_angle_beta   89.99807183
_cell_angle_gamma   119.99721266
_symmetry_Int_Tables_number   1
_chemical_formula_structural   TbSc
_chemical_formula_sum   'Tb8 Sc8'
_cell_volume   457.47965805
_cell_formula_units_Z   8
loop_
 _symmetry_equiv_pos_site_id
 _symmetry_equiv_pos_as_xyz
  1  'x, y, z'
loop_
 _atom_site_type_symbol
 _atom_site_label
 _atom_site_symmetry_multiplicity
 _atom_site_fract_x
 _atom_site_fract_y
 _atom_site_fract_z
 _atom_site_occupancy
  Tb  Tb0_0  1  0.16666306  0.33335669  0.12502029  1
  Tb  Tb0_1  1  0.16666306  0.33335670  0.62502029  1
  Tb  Tb0_2  1  0.16666306  0.83335670  0.12502029  1
  Tb  Tb0_3  1  0.16666306  0.83335669  0.62502029  1
  Tb  Tb0_4  1  0.66666306  0.33335669  0.12502029  1
  Tb  Tb0_5  1  0.66666306  0.33335669  0.62502029  1
  Tb  Tb0_6  1  0.66666306  0.83335670  0.12502029  1
  Tb  Tb0_7  1  0.66666306  0.83335670  0.62502029  1
  Sc  Sc0_0  1  0.33333694  0.16664281  0.37498021  1
  Sc  Sc0_1  1  0.33333694  0.16664281  0.87498021  1
  Sc  Sc0_2  1  0.33333694  0.66664280  0.37498021  1
  Sc  Sc0_3  1  0.33333694  0.66664281  0.87498021  1
  Sc  Sc0_4  1  0.83333694  0.16664281  0.37498021  1
  Sc  Sc0_5  1  0.83333694  0.16664281  0.87498021  1
  Sc  Sc0_6  1  0.83333694  0.66664281  0.37498021  1
  Sc  Sc0_7  1  0.83333694  0.66664281  0.87498021  1
loop_
_geom_bond_atom_site_label_1
_geom_bond_atom_site_label_2
_geom_bond_distance
_geom_bond_site_symmetry_2
Tb0_0 Tb0_4 3.500286 1_555
Tb0_0 Tb0_4 3.500286 1_455
Tb0_0 Tb0_2 3.500363 1_545
Tb0_0 Tb0_2 3.500363 1_555
Tb0_0 Tb0_6 3.500472 1_445
Tb0_0 Tb0_6 3.500472 1_555
Tb0_1 Tb0_5 3.500286 1_455
Tb0_1 Tb0_5 3.500286 1_555
Tb0_1 Tb0_3 3.500363 1_555
Tb0_1 Tb0_3 3.500363 1_545
Tb0_1 Tb0_7 3.500472 1_445
Tb0_1 Tb0_7 3.500472 1_555
Tb0_2 Tb0_6 3.500286 1_555
Tb0_2 Tb0_6 3.500286 1_455
Tb0_2 Tb0_4 3.500472 1_565
Tb0_2 Tb0_4 3.500472 1_455
Tb0_3 Tb0_7 3.500286 1_555
Tb0_3 Tb0_7 3.500286 1_455
Tb0_3 Tb0_5 3.500472 1_565
Tb0_3 Tb0_5 3.500472 1_455
Tb0_4 Tb0_6 3.500363 1_545
Tb0_4 Tb0_6 3.500363 1_555
Tb0_5 Tb0_7 3.500363 1_545
Tb0_5 Tb0_7 3.500363 1_555
Sc0_0 Tb0_2 3.367727 1_545
Sc0_0 Tb0_4 3.367831 1_555
Sc0_0 Tb0_0 3.368112 1_555
Sc0_0 Tb0_3 3.368462 1_545
Sc0_0 Tb0_5 3.368595 1_555
Sc0_0 Tb0_1 3.368687 1_555
Sc0_0 Sc0_4 3.500286 1_455
Sc0_0 Sc0_4 3.500286 1_555
Sc0_0 Sc0_2 3.500363 1_555
Sc0_0 Sc0_2 3.500363 1_545
Sc0_0 Sc0_6 3.500472 1_445
Sc0_0 Sc0_6 3.500472 1_555
Sc0_1 Tb0_3 3.367727 1_545
Sc0_1 Tb0_5 3.367831 1_555
Sc0_1 Tb0_1 3.368112 1_555
Sc0_1 Tb0_2 3.368462 1_546
Sc0_1 Tb0_4 3.368595 1_556
Sc0_1 Tb0_0 3.368687 1_556
Sc0_1 Sc0_5 3.500286 1_555
Sc0_1 Sc0_5 3.500286 1_455
Sc0_1 Sc0_3 3.500363 1_545
Sc0_1 Sc0_3 3.500363 1_555
Sc0_1 Sc0_7 3.500472 1_445
Sc0_1 Sc0_7 3.500472 1_555
Sc0_2 Tb0_0 3.367727 1_555
Sc0_2 Tb0_6 3.367831 1_555
Sc0_2 Tb0_2 3.368112 1_555
Sc0_2 Tb0_1 3.368462 1_555
Sc0_2 Tb0_7 3.368595 1_555
Sc0_2 Tb0_3 3.368687 1_555
Sc0_2 Sc0_6 3.500286 1_555
Sc0_2 Sc0_6 3.500286 1_455
Sc0_2 Sc0_4 3.500472 1_455
Sc0_2 Sc0_4 3.500472 1_565
Sc0_3 Tb0_1 3.367727 1_555
Sc0_3 Tb0_7 3.367831 1_555
Sc0_3 Tb0_3 3.368112 1_555
Sc0_3 Tb0_0 3.368462 1_556
Sc0_3 Tb0_6 3.368595 1_556
Sc0_3 Tb0_2 3.368687 1_556
Sc0_3 Sc0_7 3.500286 1_455
Sc0_3 Sc0_7 3.500286 1_555
Sc0_3 Sc0_5 3.500472 1_565
Sc0_3 Sc0_5 3.500472 1_455
Sc0_4 Tb0_6 3.367727 1_545
Sc0_4 Tb0_0 3.367831 1_655
Sc0_4 Tb0_4 3.368112 1_555
Sc0_4 Tb0_7 3.368462 1_545
Sc0_4 Tb0_1 3.368595 1_655
Sc0_4 Tb0_5 3.368687 1_555
Sc0_4 Sc0_6 3.500363 1_545
Sc0_4 Sc0_6 3.500363 1_555
Sc0_5 Tb0_7 3.367727 1_545
Sc0_5 Tb0_1 3.367831 1_655
Sc0_5 Tb0_5 3.368112 1_555
Sc0_5 Tb0_6 3.368462 1_546
Sc0_5 Tb0_0 3.368595 1_656
Sc0_5 Tb0_4 3.368687 1_556
Sc0_5 Sc0_7 3.500363 1_545
Sc0_5 Sc0_7 3.500363 1_555
Sc0_6 Tb0_4 3.367727 1_555
Sc0_6 Tb0_2 3.367831 1_655
Sc0_6 Tb0_6 3.368112 1_555
Sc0_6 Tb0_5 3.368462 1_555
Sc0_6 Tb0_3 3.368595 1_655
Sc0_6 Tb0_7 3.368687 1_555
Sc0_7 Tb0_5 3.367727 1_555
Sc0_7 Tb0_3 3.367831 1_655
Sc0_7 Tb0_7 3.368112 1_555
Sc0_7 Tb0_4 3.368462 1_556
Sc0_7 Tb0_2 3.368595 1_656
Sc0_7 Tb0_6 3.368687 1_556
