# generated using pymatgen
data_Rb3Yb
_symmetry_space_group_name_H-M   'P 1'
_cell_length_a   9.52755417
_cell_length_b   9.52755417
_cell_length_c   7.73631900
_cell_angle_alpha   90.00000000
_cell_angle_beta   90.00000000
_cell_angle_gamma   120.00000120
_symmetry_Int_Tables_number   1
_chemical_formula_structural   Rb3Yb
_chemical_formula_sum   'Rb6 Yb2'
_cell_volume   608.17399938
_cell_formula_units_Z   2
loop_
 _symmetry_equiv_pos_site_id
 _symmetry_equiv_pos_as_xyz
  1  'x, y, z'
loop_
 _atom_site_type_symbol
 _atom_site_label
 _atom_site_symmetry_multiplicity
 _atom_site_fract_x
 _atom_site_fract_y
 _atom_site_fract_z
 _atom_site_occupancy
  Rb  Rb0  1  0.17083200  0.34166400  0.25000000  1
  Rb  Rb1  1  0.65833600  0.82916800  0.25000000  1
  Rb  Rb2  1  0.17083200  0.82916800  0.25000000  1
  Rb  Rb3  1  0.82916800  0.65833600  0.75000000  1
  Rb  Rb4  1  0.34166400  0.17083200  0.75000000  1
  Rb  Rb5  1  0.82916800  0.17083200  0.75000000  1
  Yb  Yb0  1  0.33333300  0.66666700  0.75000000  1
  Yb  Yb1  1  0.66666700  0.33333300  0.25000000  1
loop_
_geom_bond_atom_site_label_1
_geom_bond_atom_site_label_2
_geom_bond_distance
_geom_bond_site_symmetry_2
Rb0 Rb1 4.644721 1_555
Rb0 Rb2 4.644721 1_555
Rb0 Yb0 4.706784 1_554
Rb0 Yb0 4.706784 1_555
Rb0 Yb1 4.764268 1_455
Rb0 Yb1 4.764278 1_555
Rb0 Rb5 4.786440 1_455
Rb0 Rb5 4.786440 1_454
Rb0 Rb4 4.786440 1_554
Rb0 Rb4 4.786440 1_555
Rb0 Rb1 4.882833 1_445
Rb0 Rb2 4.882833 1_545
Rb1 Rb2 4.644721 1_555
Rb1 Yb0 4.706784 1_554
Rb1 Yb0 4.706784 1_555
Rb1 Yb1 4.764268 1_565
Rb1 Yb1 4.764278 1_555
Rb1 Rb5 4.786440 1_564
Rb1 Rb5 4.786440 1_565
Rb1 Rb3 4.786440 1_555
Rb1 Rb3 4.786440 1_554
Rb1 Rb2 4.882833 1_655
Rb2 Yb0 4.706779 1_555
Rb2 Yb0 4.706779 1_554
Rb2 Yb1 4.764273 1_455
Rb2 Yb1 4.764273 1_565
Rb2 Rb3 4.786440 1_454
Rb2 Rb3 4.786440 1_455
Rb2 Rb4 4.786440 1_565
Rb2 Rb4 4.786440 1_564
Rb3 Rb4 4.644721 1_555
Rb3 Rb5 4.644721 1_555
Rb3 Yb1 4.706784 1_555
Rb3 Yb1 4.706784 1_556
Rb3 Yb0 4.764268 1_655
Rb3 Yb0 4.764278 1_555
Rb3 Rb4 4.882833 1_665
Rb3 Rb5 4.882833 1_565
Rb4 Rb5 4.644721 1_555
Rb4 Yb1 4.706784 1_555
Rb4 Yb1 4.706784 1_556
Rb4 Yb0 4.764268 1_545
Rb4 Yb0 4.764278 1_555
Rb4 Rb5 4.882833 1_455
Rb5 Yb1 4.706779 1_555
Rb5 Yb1 4.706779 1_556
Rb5 Yb0 4.764273 1_545
Rb5 Yb0 4.764273 1_655
