# generated using pymatgen
data_Li3Ga
_symmetry_space_group_name_H-M   'P 1'
_cell_length_a   4.69527511
_cell_length_b   4.69527511
_cell_length_c   4.69527511
_cell_angle_alpha   127.78867031
_cell_angle_beta   127.78867031
_cell_angle_gamma   76.96762467
_symmetry_Int_Tables_number   1
_chemical_formula_structural   Li3Ga
_chemical_formula_sum   'Li3 Ga1'
_cell_volume   62.75460551
_cell_formula_units_Z   1
loop_
 _symmetry_equiv_pos_site_id
 _symmetry_equiv_pos_as_xyz
  1  'x, y, z'
loop_
 _atom_site_type_symbol
 _atom_site_label
 _atom_site_symmetry_multiplicity
 _atom_site_fract_x
 _atom_site_fract_y
 _atom_site_fract_z
 _atom_site_occupancy
  Li  Li0  1  0.74999900  0.24999900  0.50000000  1
  Li  Li1  1  0.24999900  0.74999900  0.50000000  1
  Li  Li2  1  0.50000000  0.50000000  -0.00000000  1
  Ga  Ga0  1  0.00000000  0.00000000  -0.00000000  1
loop_
_geom_bond_atom_site_label_1
_geom_bond_atom_site_label_2
_geom_bond_distance
_geom_bond_site_symmetry_2
Li0 Li2 2.765079 1_556
Li0 Li2 2.765079 1_545
Li0 Li2 2.765089 1_656
Li0 Li2 2.765089 1_555
Li0 Li1 2.921839 1_544
Li0 Li1 2.921839 1_656
Li0 Li1 2.921839 1_645
Li0 Li1 2.921839 1_555
Li1 Li2 2.765079 1_556
Li1 Li2 2.765079 1_455
Li1 Li2 2.765089 1_566
Li1 Li2 2.765089 1_555
Ga0 Li1 2.765079 1_544
Ga0 Li0 2.765079 1_454
Ga0 Li0 2.765079 1_555
Ga0 Li1 2.765079 1_555
Ga0 Li0 2.765089 1_444
Ga0 Li1 2.765089 1_545
Ga0 Li0 2.765089 1_455
Ga0 Li1 2.765089 1_444
Ga0 Li2 2.921839 1_545
Ga0 Li2 2.921839 1_455
Ga0 Li2 2.921839 1_556
Ga0 Li2 2.921839 1_444
