# generated using pymatgen
data_Sr3MnN3
_symmetry_space_group_name_H-M   'P 1'
_cell_length_a   7.67070334
_cell_length_b   7.67070187
_cell_length_c   5.26100725
_cell_angle_alpha   90.00000000
_cell_angle_beta   90.00000000
_cell_angle_gamma   119.99998577
_symmetry_Int_Tables_number   1
_chemical_formula_structural   Sr3MnN3
_chemical_formula_sum   'Sr6 Mn2 N6'
_cell_volume   268.08337656
_cell_formula_units_Z   2
loop_
 _symmetry_equiv_pos_site_id
 _symmetry_equiv_pos_as_xyz
  1  'x, y, z'
loop_
 _atom_site_type_symbol
 _atom_site_label
 _atom_site_symmetry_multiplicity
 _atom_site_fract_x
 _atom_site_fract_y
 _atom_site_fract_z
 _atom_site_occupancy
  Sr  Sr0  1  0.63710251  0.72383228  0.75000000  1
  Sr  Sr1  1  0.91327539  0.63709658  0.25000000  1
  Sr  Sr2  1  0.72382219  0.08672461  0.25000000  1
  Sr  Sr3  1  0.27616772  0.91327023  0.75000000  1
  Sr  Sr4  1  0.08672977  0.36289749  0.75000000  1
  Sr  Sr5  1  0.36290342  0.27617781  0.25000000  1
  Mn  Mn0  1  0.33333400  0.66666700  0.25000000  1
  Mn  Mn1  1  0.66666700  0.33333300  0.75000000  1
  N  N0  1  0.88017608  0.57176292  0.75000000  1
  N  N1  1  0.30844930  0.88017913  0.25000000  1
  N  N2  1  0.57172984  0.69155070  0.25000000  1
  N  N3  1  0.42823608  0.30841315  0.75000000  1
  N  N4  1  0.69158685  0.11982392  0.75000000  1
  N  N5  1  0.11982087  0.42827016  0.25000000  1
loop_
_geom_bond_atom_site_label_1
_geom_bond_atom_site_label_2
_geom_bond_distance
_geom_bond_site_symmetry_2
Mn0 N2 1.741091 1_555
Mn0 N1 1.741095 1_555
Mn0 N5 1.741099 1_555
Mn1 N4 1.741228 1_555
Mn1 N0 1.741233 1_555
Mn1 N3 1.741244 1_555
N0 Sr0 2.648047 1_555
N0 Sr1 2.666070 1_555
N0 Sr1 2.666070 1_556
N0 Sr4 2.759653 1_655
N0 Sr3 2.851631 1_655
N1 Sr1 2.648245 1_455
N1 Sr3 2.666112 1_554
N1 Sr3 2.666112 1_555
N1 Sr2 2.759346 1_565
N1 Sr5 2.851773 1_565
N2 Sr2 2.648244 1_565
N2 Sr0 2.666112 1_554
N2 Sr0 2.666112 1_555
N2 Sr5 2.759346 1_555
N2 Sr1 2.851781 1_555
N3 Sr3 2.648048 1_545
N3 Sr5 2.666069 1_555
N3 Sr5 2.666069 1_556
N3 Sr0 2.759653 1_555
N3 Sr4 2.851623 1_555
N4 Sr4 2.648048 1_655
N4 Sr2 2.666071 1_556
N4 Sr2 2.666071 1_555
N4 Sr3 2.759654 1_545
N4 Sr0 2.851630 1_545
N5 Sr5 2.648250 1_555
N5 Sr4 2.666112 1_555
N5 Sr4 2.666112 1_554
N5 Sr1 2.759339 1_455
N5 Sr2 2.851777 1_455
