# generated using pymatgen
data_Sc3Cd
_symmetry_space_group_name_H-M   'P 1'
_cell_length_a   6.38224749
_cell_length_b   6.38159267
_cell_length_c   5.23225491
_cell_angle_alpha   90.00000000
_cell_angle_beta   90.00000000
_cell_angle_gamma   120.00154549
_symmetry_Int_Tables_number   1
_chemical_formula_structural   Sc3Cd
_chemical_formula_sum   'Sc6 Cd2'
_cell_volume   184.55060959
_cell_formula_units_Z   2
loop_
 _symmetry_equiv_pos_site_id
 _symmetry_equiv_pos_as_xyz
  1  'x, y, z'
loop_
 _atom_site_type_symbol
 _atom_site_label
 _atom_site_symmetry_multiplicity
 _atom_site_fract_x
 _atom_site_fract_y
 _atom_site_fract_z
 _atom_site_occupancy
  Sc  Sc0  1  0.16968696  0.33935199  0.24999900  1
  Sc  Sc1  1  0.66030058  0.83007321  0.24999900  1
  Sc  Sc2  1  0.16959610  0.83013815  0.24999900  1
  Sc  Sc3  1  0.83035758  0.66067957  0.75000000  1
  Sc  Sc4  1  0.33958488  0.16988096  0.75000000  1
  Sc  Sc5  1  0.83033096  0.16991859  0.75000000  1
  Cd  Cd0  1  0.33338722  0.66667831  0.75000000  1
  Cd  Cd1  1  0.66675573  0.33328022  0.24999900  1
loop_
_geom_bond_atom_site_label_1
_geom_bond_atom_site_label_2
_geom_bond_distance
_geom_bond_site_symmetry_2
Sc0 Sc1 3.131327 1_555
Sc0 Sc2 3.132287 1_555
Sc0 Sc5 3.219034 1_454
Sc0 Sc5 3.219043 1_455
Sc0 Sc4 3.219045 1_554
Sc0 Sc4 3.219054 1_555
Sc0 Sc2 3.249305 1_545
Sc0 Sc1 3.250444 1_445
Sc1 Sc2 3.132005 1_555
Sc1 Sc3 3.219309 1_554
Sc1 Sc3 3.219317 1_555
Sc1 Sc5 3.220498 1_564
Sc1 Sc5 3.220507 1_565
Sc1 Sc2 3.250243 1_655
Sc2 Sc3 3.218656 1_454
Sc2 Sc3 3.218664 1_455
Sc2 Sc4 3.220168 1_564
Sc2 Sc4 3.220176 1_565
Sc3 Sc5 3.131752 1_555
Sc3 Sc4 3.132082 1_555
Sc3 Sc4 3.249689 1_665
Sc3 Sc5 3.249841 1_565
Sc4 Sc5 3.131943 1_555
Sc4 Sc5 3.250305 1_455
Cd0 Sc1 3.179453 1_556
Cd0 Sc1 3.179462 1_555
Cd0 Sc2 3.180486 1_556
Cd0 Sc2 3.180494 1_555
Cd0 Sc0 3.180646 1_556
Cd0 Sc0 3.180654 1_555
Cd0 Sc4 3.190321 1_555
Cd0 Sc5 3.190492 1_455
Cd0 Sc3 3.191102 1_555
Cd0 Sc3 3.191490 1_455
Cd0 Sc4 3.191640 1_565
Cd0 Sc5 3.191658 1_565
Cd1 Sc5 3.179499 1_554
Cd1 Sc5 3.179507 1_555
Cd1 Sc4 3.180263 1_554
Cd1 Sc4 3.180271 1_555
Cd1 Sc3 3.180875 1_554
Cd1 Sc3 3.180884 1_555
Cd1 Sc2 3.190098 1_655
Cd1 Sc0 3.190633 1_655
Cd1 Sc1 3.190861 1_545
Cd1 Sc1 3.191130 1_555
Cd1 Sc0 3.191967 1_555
Cd1 Sc2 3.192016 1_545
