# generated using pymatgen
data_NdVGe3
_symmetry_space_group_name_H-M   'P 1'
_cell_length_a   6.21831062
_cell_length_b   6.21844740
_cell_length_c   5.62042085
_cell_angle_alpha   90.00000000
_cell_angle_beta   90.00000000
_cell_angle_gamma   119.99928167
_symmetry_Int_Tables_number   1
_chemical_formula_structural   NdVGe3
_chemical_formula_sum   'Nd2 V2 Ge6'
_cell_volume   188.21619490
_cell_formula_units_Z   2
loop_
 _symmetry_equiv_pos_site_id
 _symmetry_equiv_pos_as_xyz
  1  'x, y, z'
loop_
 _atom_site_type_symbol
 _atom_site_label
 _atom_site_symmetry_multiplicity
 _atom_site_fract_x
 _atom_site_fract_y
 _atom_site_fract_z
 _atom_site_occupancy
  Nd  Nd0  1  0.66662332  0.33324664  0.25000000  1
  Nd  Nd1  1  0.33337668  0.66675336  0.75000000  1
  V  V0  1  -0.00000000  0.00000000  -0.00000000  1
  V  V1  1  -0.00000000  0.00000000  0.50000000  1
  Ge  Ge0  1  0.19528771  0.39057642  0.25000000  1
  Ge  Ge1  1  0.19525223  0.80466434  0.25000000  1
  Ge  Ge2  1  0.60941311  0.80466434  0.25000000  1
  Ge  Ge3  1  0.39058789  0.19533566  0.75000000  1
  Ge  Ge4  1  0.80474777  0.19533566  0.75000000  1
  Ge  Ge5  1  0.80471229  0.60942358  0.75000000  1
loop_
_geom_bond_atom_site_label_1
_geom_bond_atom_site_label_2
_geom_bond_distance
_geom_bond_site_symmetry_2
Ge0 V0 2.529547 1_555
Ge0 V1 2.529547 1_555
Ge0 Ge1 2.575094 1_555
Ge0 Ge2 2.575100 1_555
Ge0 Nd0 3.124444 1_455
Ge0 Nd0 3.124450 1_555
Ge0 Nd1 3.179527 1_555
Ge0 Nd1 3.179527 1_554
Ge1 V0 2.529561 1_565
Ge1 V1 2.529561 1_565
Ge1 Ge2 2.575381 1_555
Ge1 Nd0 3.124314 1_565
Ge1 Nd0 3.124587 1_455
Ge1 Nd1 3.179155 1_555
Ge1 Nd1 3.179155 1_554
Ge2 V1 2.529556 1_665
Ge2 V0 2.529556 1_665
Ge2 Nd0 3.124317 1_565
Ge2 Nd0 3.124584 1_555
Ge2 Nd1 3.179158 1_555
Ge2 Nd1 3.179158 1_554
Ge3 V0 2.529560 1_556
Ge3 V1 2.529560 1_555
Ge3 Ge5 2.575097 1_555
Ge3 Ge4 2.575375 1_555
Ge3 Nd1 3.124315 1_545
Ge3 Nd1 3.124588 1_555
Ge3 Nd0 3.179155 1_555
Ge3 Nd0 3.179155 1_556
Ge4 V0 2.529561 1_656
Ge4 V1 2.529561 1_655
Ge4 Ge5 2.575094 1_555
Ge4 Nd1 3.124314 1_545
Ge4 Nd1 3.124587 1_655
Ge4 Nd0 3.179155 1_555
Ge4 Nd0 3.179155 1_556
Ge5 V0 2.529547 1_666
Ge5 V1 2.529547 1_665
Ge5 Nd1 3.124444 1_655
Ge5 Nd1 3.124450 1_555
Ge5 Nd0 3.179527 1_555
Ge5 Nd0 3.179527 1_556
