# generated using pymatgen
data_UGa
_symmetry_space_group_name_H-M   'P 1'
_cell_length_a   5.82247498
_cell_length_b   5.82247498
_cell_length_c   10.63219968
_cell_angle_alpha   90.00000000
_cell_angle_beta   90.00000000
_cell_angle_gamma   119.99997473
_symmetry_Int_Tables_number   1
_chemical_formula_structural   UGa
_chemical_formula_sum   'U8 Ga8'
_cell_volume   312.15416070
_cell_formula_units_Z   8
loop_
 _symmetry_equiv_pos_site_id
 _symmetry_equiv_pos_as_xyz
  1  'x, y, z'
loop_
 _atom_site_type_symbol
 _atom_site_label
 _atom_site_symmetry_multiplicity
 _atom_site_fract_x
 _atom_site_fract_y
 _atom_site_fract_z
 _atom_site_occupancy
  U  U0_0  1  0.16666650  0.33333350  0.00000000  1
  U  U0_1  1  0.16666650  0.33333350  0.50000000  1
  U  U0_2  1  0.16666650  0.83333350  0.00000000  1
  U  U0_3  1  0.16666650  0.83333350  0.50000000  1
  U  U0_4  1  0.66666650  0.33333350  0.00000000  1
  U  U0_5  1  0.66666650  0.33333350  0.50000000  1
  U  U0_6  1  0.66666650  0.83333350  0.00000000  1
  U  U0_7  1  0.66666650  0.83333350  0.50000000  1
  Ga  Ga0_0  1  0.33333350  0.16666650  0.25000000  1
  Ga  Ga0_1  1  0.33333350  0.16666650  0.75000000  1
  Ga  Ga0_2  1  0.33333350  0.66666650  0.25000000  1
  Ga  Ga0_3  1  0.33333350  0.66666650  0.75000000  1
  Ga  Ga0_4  1  0.83333350  0.16666650  0.25000000  1
  Ga  Ga0_5  1  0.83333350  0.16666650  0.75000000  1
  Ga  Ga0_6  1  0.83333350  0.66666650  0.25000000  1
  Ga  Ga0_7  1  0.83333350  0.66666650  0.75000000  1
loop_
_geom_bond_atom_site_label_1
_geom_bond_atom_site_label_2
_geom_bond_distance
_geom_bond_site_symmetry_2
U0_0 U0_2 2.911237 1_555
U0_0 U0_4 2.911237 1_455
U0_0 U0_2 2.911237 1_545
U0_0 U0_4 2.911237 1_555
U0_0 U0_6 2.911239 1_555
U0_0 U0_6 2.911239 1_445
U0_1 U0_3 2.911237 1_555
U0_1 U0_5 2.911237 1_455
U0_1 U0_3 2.911237 1_545
U0_1 U0_5 2.911237 1_555
U0_1 U0_7 2.911239 1_555
U0_1 U0_7 2.911239 1_445
U0_2 U0_6 2.911237 1_555
U0_2 U0_6 2.911237 1_455
U0_2 U0_4 2.911239 1_455
U0_2 U0_4 2.911239 1_565
U0_3 U0_7 2.911237 1_455
U0_3 U0_7 2.911237 1_555
U0_3 U0_5 2.911239 1_565
U0_3 U0_5 2.911239 1_455
U0_4 U0_6 2.911237 1_555
U0_4 U0_6 2.911237 1_545
U0_5 U0_7 2.911237 1_555
U0_5 U0_7 2.911237 1_545
Ga0_0 Ga0_2 2.911237 1_555
Ga0_0 Ga0_4 2.911237 1_455
Ga0_0 Ga0_2 2.911237 1_545
Ga0_0 Ga0_4 2.911237 1_555
Ga0_0 Ga0_6 2.911239 1_555
Ga0_0 Ga0_6 2.911239 1_445
Ga0_0 U0_2 3.144889 1_545
Ga0_0 U0_3 3.144889 1_545
Ga0_0 U0_4 3.144889 1_555
Ga0_0 U0_5 3.144889 1_555
Ga0_0 U0_1 3.144891 1_555
Ga0_0 U0_0 3.144891 1_555
Ga0_1 Ga0_3 2.911237 1_555
Ga0_1 Ga0_5 2.911237 1_455
Ga0_1 Ga0_5 2.911237 1_555
Ga0_1 Ga0_3 2.911237 1_545
Ga0_1 Ga0_7 2.911239 1_555
Ga0_1 Ga0_7 2.911239 1_445
Ga0_1 U0_2 3.144889 1_546
Ga0_1 U0_4 3.144889 1_556
Ga0_1 U0_3 3.144889 1_545
Ga0_1 U0_5 3.144889 1_555
Ga0_1 U0_0 3.144891 1_556
Ga0_1 U0_1 3.144891 1_555
Ga0_2 Ga0_6 2.911237 1_455
Ga0_2 Ga0_6 2.911237 1_555
Ga0_2 Ga0_4 2.911239 1_455
Ga0_2 Ga0_4 2.911239 1_565
Ga0_2 U0_7 3.144889 1_555
Ga0_2 U0_0 3.144889 1_555
Ga0_2 U0_6 3.144889 1_555
Ga0_2 U0_1 3.144889 1_555
Ga0_2 U0_3 3.144891 1_555
Ga0_2 U0_2 3.144891 1_555
Ga0_3 Ga0_7 2.911237 1_455
Ga0_3 Ga0_7 2.911237 1_555
Ga0_3 Ga0_5 2.911239 1_455
Ga0_3 Ga0_5 2.911239 1_565
Ga0_3 U0_0 3.144889 1_556
Ga0_3 U0_7 3.144889 1_555
Ga0_3 U0_6 3.144889 1_556
Ga0_3 U0_1 3.144889 1_555
Ga0_3 U0_3 3.144891 1_555
Ga0_3 U0_2 3.144891 1_556
Ga0_4 Ga0_6 2.911237 1_555
Ga0_4 Ga0_6 2.911237 1_545
Ga0_4 U0_0 3.144889 1_655
Ga0_4 U0_1 3.144889 1_655
Ga0_4 U0_7 3.144889 1_545
Ga0_4 U0_6 3.144889 1_545
Ga0_4 U0_4 3.144891 1_555
Ga0_4 U0_5 3.144891 1_555
Ga0_5 Ga0_7 2.911237 1_555
Ga0_5 Ga0_7 2.911237 1_545
Ga0_5 U0_0 3.144889 1_656
Ga0_5 U0_1 3.144889 1_655
Ga0_5 U0_7 3.144889 1_545
Ga0_5 U0_6 3.144889 1_546
Ga0_5 U0_4 3.144891 1_556
Ga0_5 U0_5 3.144891 1_555
Ga0_6 U0_4 3.144889 1_555
Ga0_6 U0_5 3.144889 1_555
Ga0_6 U0_2 3.144889 1_655
Ga0_6 U0_3 3.144889 1_655
Ga0_6 U0_6 3.144891 1_555
Ga0_6 U0_7 3.144891 1_555
Ga0_7 U0_5 3.144889 1_555
Ga0_7 U0_4 3.144889 1_556
Ga0_7 U0_2 3.144889 1_656
Ga0_7 U0_3 3.144889 1_655
Ga0_7 U0_6 3.144891 1_556
Ga0_7 U0_7 3.144891 1_555
