# generated using pymatgen
data_Zr(FeGe)6
_symmetry_space_group_name_H-M   'P 1'
_cell_length_a   5.06194756
_cell_length_b   5.06194905
_cell_length_c   8.16529384
_cell_angle_alpha   89.99999802
_cell_angle_beta   90.00000048
_cell_angle_gamma   119.99898178
_symmetry_Int_Tables_number   1
_chemical_formula_structural   Zr(FeGe)6
_chemical_formula_sum   'Zr1 Fe6 Ge6'
_cell_volume   181.19337600
_cell_formula_units_Z   1
loop_
 _symmetry_equiv_pos_site_id
 _symmetry_equiv_pos_as_xyz
  1  'x, y, z'
loop_
 _atom_site_type_symbol
 _atom_site_label
 _atom_site_symmetry_multiplicity
 _atom_site_fract_x
 _atom_site_fract_y
 _atom_site_fract_z
 _atom_site_occupancy
  Zr  Zr0  1  -0.00000002  -0.00000005  -0.00002070  1
  Fe  Fe0  1  0.49999930  0.00000015  0.24960226  1
  Fe  Fe1  1  0.50000079  0.50000087  0.24960241  1
  Fe  Fe2  1  0.99999982  0.49999900  0.24960240  1
  Fe  Fe3  1  0.50000079  0.50000059  0.75040427  1
  Fe  Fe4  1  0.00000005  0.49999939  0.75040371  1
  Fe  Fe5  1  0.49999909  0.99999997  0.75040307  1
  Ge  Ge0  1  0.33333250  0.66667074  1.00001836  1
  Ge  Ge1  1  0.66666756  0.33332933  1.00001828  1
  Ge  Ge2  1  0.00000005  0.00000001  0.34302601  1
  Ge  Ge3  1  0.66666744  0.33332899  0.49998664  1
  Ge  Ge4  1  0.33333266  0.66667101  0.49998659  1
  Ge  Ge5  1  -0.00000003  0.00000002  0.65696770  1
loop_
_geom_bond_atom_site_label_1
_geom_bond_atom_site_label_2
_geom_bond_distance
_geom_bond_site_symmetry_2
Fe0 Ge1 2.507671 1_554
Fe0 Ge0 2.507671 1_544
Fe0 Ge3 2.512984 1_555
Fe0 Ge4 2.512984 1_545
Fe0 Fe1 2.530974 1_555
Fe0 Fe1 2.530975 1_545
Fe0 Fe2 2.531012 1_555
Fe0 Fe2 2.531015 1_445
Fe0 Ge2 2.643430 1_555
Fe0 Ge2 2.643438 1_655
Fe0 Zr0 3.249654 1_555
Fe0 Zr0 3.249660 1_655
Fe1 Ge0 2.507681 1_554
Fe1 Ge1 2.507682 1_554
Fe1 Ge4 2.512994 1_555
Fe1 Ge3 2.512994 1_555
Fe1 Fe2 2.530974 1_555
Fe1 Fe2 2.530974 1_455
Fe1 Ge2 2.643467 1_665
Fe1 Ge2 2.643475 1_555
Fe1 Zr0 3.249685 1_665
Fe1 Zr0 3.249692 1_555
Fe2 Ge1 2.507679 1_554
Fe2 Ge0 2.507680 1_654
Fe2 Ge3 2.512992 1_555
Fe2 Ge4 2.512993 1_655
Fe2 Ge2 2.643430 1_655
Fe2 Ge2 2.643438 1_665
Fe2 Zr0 3.249655 1_655
Fe2 Zr0 3.249662 1_665
Fe3 Ge1 2.507879 1_555
Fe3 Ge0 2.507881 1_555
Fe3 Ge3 2.513216 1_555
Fe3 Ge4 2.513217 1_555
Fe3 Fe4 2.530973 1_655
Fe3 Fe5 2.530973 1_545
Fe3 Fe4 2.530974 1_555
Fe3 Fe5 2.530976 1_555
Fe3 Ge5 2.643498 1_665
Fe3 Ge5 2.643505 1_555
Fe3 Zr0 3.249439 1_666
Fe3 Zr0 3.249445 1_556
Fe4 Ge1 2.507882 1_455
Fe4 Ge0 2.507882 1_555
Fe4 Ge3 2.513211 1_455
Fe4 Ge4 2.513211 1_555
Fe4 Fe5 2.531012 1_555
Fe4 Fe5 2.531014 1_445
Fe4 Ge5 2.643460 1_555
Fe4 Ge5 2.643466 1_565
Fe4 Zr0 3.249413 1_556
Fe4 Zr0 3.249417 1_566
Fe5 Ge1 2.507878 1_565
Fe5 Ge0 2.507879 1_555
Fe5 Ge3 2.513197 1_565
Fe5 Ge4 2.513198 1_555
Fe5 Ge5 2.643457 1_565
Fe5 Ge5 2.643465 1_665
Fe5 Zr0 3.249414 1_566
Fe5 Zr0 3.249421 1_666
Ge0 Zr0 2.922481 1_566
Ge0 Zr0 2.922550 1_666
Ge0 Zr0 2.922566 1_556
Ge1 Zr0 2.922481 1_656
Ge1 Zr0 2.922551 1_556
Ge1 Zr0 2.922565 1_666
Ge2 Ge5 2.563426 1_555
Ge2 Zr0 2.801077 1_555
Ge5 Zr0 2.800791 1_556
