# generated using pymatgen
data_LaReN3
_symmetry_space_group_name_H-M   'P 1'
_cell_length_a   5.57726150
_cell_length_b   5.57726150
_cell_length_c   5.57726133
_cell_angle_alpha   60.28365003
_cell_angle_beta   60.28365003
_cell_angle_gamma   60.28363382
_symmetry_Int_Tables_number   1
_chemical_formula_structural   LaReN3
_chemical_formula_sum   'La2 Re2 N6'
_cell_volume   123.46020169
_cell_formula_units_Z   2
loop_
 _symmetry_equiv_pos_site_id
 _symmetry_equiv_pos_as_xyz
  1  'x, y, z'
loop_
 _atom_site_type_symbol
 _atom_site_label
 _atom_site_symmetry_multiplicity
 _atom_site_fract_x
 _atom_site_fract_y
 _atom_site_fract_z
 _atom_site_occupancy
  La  La0  1  0.75000000  0.75000000  0.75000000  1
  La  La1  1  0.25000000  0.25000000  0.25000000  1
  Re  Re0  1  0.00000000  0.00000000  -0.00000000  1
  Re  Re1  1  0.50000000  0.50000000  0.50000000  1
  N  N0  1  0.25000000  0.78852103  0.71147897  1
  N  N1  1  0.71147897  0.25000000  0.78852103  1
  N  N2  1  0.21147897  0.28852103  0.75000000  1
  N  N3  1  0.28852103  0.75000000  0.21147897  1
  N  N4  1  0.75000000  0.21147897  0.28852103  1
  N  N5  1  0.78852103  0.71147897  0.25000000  1
loop_
_geom_bond_atom_site_label_1
_geom_bond_atom_site_label_2
_geom_bond_distance
_geom_bond_site_symmetry_2
La0 N2 2.584815 1_655
La0 N3 2.584816 1_556
La0 N4 2.584816 1_565
La0 N5 2.796965 1_555
La0 N5 2.796965 1_556
La0 N0 2.796965 1_555
La0 N1 2.796965 1_565
La0 N0 2.796965 1_655
La0 N1 2.796965 1_555
La0 N2 3.016340 1_565
La0 N4 3.016340 1_556
La0 N3 3.016340 1_655
La1 N5 2.584815 1_455
La1 N0 2.584816 1_545
La1 N1 2.584816 1_554
La1 N2 2.796965 1_555
La1 N2 2.796965 1_554
La1 N4 2.796965 1_555
La1 N3 2.796965 1_545
La1 N3 2.796965 1_555
La1 N4 2.796965 1_455
La1 N5 3.016340 1_545
La1 N1 3.016340 1_455
La1 N0 3.016340 1_554
N0 Re1 1.987832 1_555
N0 Re0 1.987832 1_566
N1 Re0 1.987832 1_656
N1 Re1 1.987832 1_555
N2 Re0 1.987833 1_556
N2 Re1 1.987833 1_555
N3 Re0 1.987832 1_565
N3 Re1 1.987832 1_555
N4 Re1 1.987832 1_555
N4 Re0 1.987832 1_655
N5 Re0 1.987833 1_665
N5 Re1 1.987833 1_555
