# generated using pymatgen
data_Hf9AsW4
_symmetry_space_group_name_H-M   'P 1'
_cell_length_a   8.70299632
_cell_length_b   8.70299632
_cell_length_c   8.70966800
_cell_angle_alpha   90.00000000
_cell_angle_beta   90.00000000
_cell_angle_gamma   120.00000247
_symmetry_Int_Tables_number   1
_chemical_formula_structural   Hf9AsW4
_chemical_formula_sum   'Hf18 As2 W8'
_cell_volume   571.30736366
_cell_formula_units_Z   2
loop_
 _symmetry_equiv_pos_site_id
 _symmetry_equiv_pos_as_xyz
  1  'x, y, z'
loop_
 _atom_site_type_symbol
 _atom_site_label
 _atom_site_symmetry_multiplicity
 _atom_site_fract_x
 _atom_site_fract_y
 _atom_site_fract_z
 _atom_site_occupancy
  Hf  Hf0  1  0.19518200  0.39036300  0.04596100  1
  Hf  Hf1  1  0.80481800  0.60963700  0.54596100  1
  Hf  Hf2  1  0.60963700  0.80481800  0.04596100  1
  Hf  Hf3  1  0.19518200  0.80481800  0.04596100  1
  Hf  Hf4  1  0.80481800  0.19518200  0.54596100  1
  Hf  Hf5  1  0.39036300  0.19518200  0.54596100  1
  Hf  Hf6  1  0.80481800  0.60963700  0.95403900  1
  Hf  Hf7  1  0.80481800  0.19518200  0.95403900  1
  Hf  Hf8  1  0.39036300  0.19518200  0.95403900  1
  Hf  Hf9  1  0.60963700  0.80481800  0.45403900  1
  Hf  Hf10  1  0.19518200  0.80481800  0.45403900  1
  Hf  Hf11  1  0.19518200  0.39036300  0.45403900  1
  Hf  Hf12  1  0.54009300  0.08018500  0.25000000  1
  Hf  Hf13  1  0.45990700  0.91981500  0.75000000  1
  Hf  Hf14  1  0.91981500  0.45990700  0.25000000  1
  Hf  Hf15  1  0.54009300  0.45990700  0.25000000  1
  Hf  Hf16  1  0.45990700  0.54009300  0.75000000  1
  Hf  Hf17  1  0.08018500  0.54009300  0.75000000  1
  As  As0  1  0.33333300  0.66666700  0.25000000  1
  As  As1  1  0.66666700  0.33333300  0.75000000  1
  W  W0  1  0.00000000  0.00000000  0.00000000  1
  W  W1  1  0.00000000  0.00000000  0.50000000  1
  W  W2  1  0.88994300  0.77988600  0.25000000  1
  W  W3  1  0.11005700  0.22011400  0.75000000  1
  W  W4  1  0.22011400  0.11005700  0.25000000  1
  W  W5  1  0.88994300  0.11005700  0.25000000  1
  W  W6  1  0.11005700  0.88994300  0.75000000  1
  W  W7  1  0.77988600  0.88994300  0.75000000  1
loop_
_geom_bond_atom_site_label_1
_geom_bond_atom_site_label_2
_geom_bond_distance
_geom_bond_site_symmetry_2
Hf0 W3 2.879440 1_554
Hf0 W0 2.969279 1_555
Hf0 W4 3.112187 1_555
Hf0 W5 3.112191 1_455
Hf1 W2 2.879440 1_555
Hf1 W1 2.969279 1_665
Hf1 W7 3.112187 1_555
Hf1 W6 3.112191 1_655
Hf2 W7 2.879440 1_554
Hf2 W0 2.969279 1_665
Hf2 W2 3.112187 1_555
Hf2 W5 3.112191 1_565
Hf3 W6 2.879443 1_554
Hf3 W0 2.969287 1_565
Hf3 W4 3.112194 1_565
Hf3 W2 3.112194 1_455
Hf4 W5 2.879443 1_555
Hf4 W1 2.969287 1_655
Hf4 W3 3.112194 1_655
Hf4 W7 3.112194 1_545
Hf5 W4 2.879440 1_555
Hf5 W1 2.969279 1_555
Hf5 W3 3.112187 1_555
Hf5 W6 3.112191 1_545
Hf6 W2 2.879440 1_556
Hf6 W0 2.969279 1_666
Hf6 W7 3.112187 1_555
Hf6 W6 3.112191 1_655
Hf7 W5 2.879443 1_556
Hf7 W0 2.969287 1_656
Hf7 W3 3.112194 1_655
Hf7 W7 3.112194 1_545
Hf8 W4 2.879440 1_556
Hf8 W0 2.969279 1_556
Hf8 W3 3.112187 1_555
Hf8 W6 3.112191 1_545
Hf9 W7 2.879440 1_555
Hf9 W1 2.969279 1_665
Hf9 W2 3.112187 1_555
Hf9 W5 3.112191 1_565
Hf10 W6 2.879443 1_555
Hf10 W1 2.969287 1_565
Hf10 W4 3.112194 1_565
Hf10 W2 3.112194 1_455
Hf11 W3 2.879440 1_555
Hf11 W1 2.969279 1_555
Hf11 W4 3.112187 1_555
Hf11 W5 3.112191 1_455
Hf12 W5 2.923438 1_555
Hf12 W4 2.923447 1_555
Hf13 W6 2.923438 1_555
Hf13 W7 2.923447 1_555
Hf14 W5 2.923438 1_555
Hf14 W2 2.923447 1_555
Hf15 W4 2.923442 1_555
Hf15 W2 2.923442 1_555
Hf16 W3 2.923442 1_555
Hf16 W7 2.923442 1_555
Hf17 W6 2.923438 1_555
Hf17 W3 2.923447 1_555
As0 Hf10 2.737682 1_555
As0 Hf3 2.737682 1_555
As0 Hf9 2.737693 1_555
As0 Hf11 2.737693 1_555
As0 Hf2 2.737693 1_555
As0 Hf0 2.737693 1_555
As0 Hf12 3.116692 1_565
As0 Hf14 3.116692 1_455
As0 Hf15 3.116707 1_555
As1 Hf7 2.737682 1_555
As1 Hf4 2.737682 1_555
As1 Hf6 2.737693 1_555
As1 Hf1 2.737693 1_555
As1 Hf8 2.737693 1_555
As1 Hf5 2.737693 1_555
As1 Hf17 3.116692 1_655
As1 Hf13 3.116692 1_545
As1 Hf16 3.116707 1_555
W0 W3 2.737414 1_554
W0 W4 2.737414 1_555
W0 W2 2.737414 1_445
W0 W7 2.737414 1_444
W0 W6 2.737414 1_544
W0 W5 2.737414 1_455
W1 W3 2.737414 1_555
W1 W4 2.737414 1_555
W1 W2 2.737414 1_445
W1 W7 2.737414 1_445
W1 W6 2.737414 1_545
W1 W5 2.737414 1_455
W2 W4 2.873477 1_665
W2 W5 2.873477 1_565
W3 W7 2.873477 1_445
W3 W6 2.873477 1_545
W4 W5 2.873477 1_455
W6 W7 2.873477 1_455
