# generated using pymatgen
data_CsInF3
_symmetry_space_group_name_H-M   'P 1'
_cell_length_a   4.67430100
_cell_length_b   4.67430100
_cell_length_c   4.67430100
_cell_angle_alpha   90.00000000
_cell_angle_beta   90.00000000
_cell_angle_gamma   90.00000000
_symmetry_Int_Tables_number   1
_chemical_formula_structural   CsInF3
_chemical_formula_sum   'Cs1 In1 F3'
_cell_volume   102.12922248
_cell_formula_units_Z   1
loop_
 _symmetry_equiv_pos_site_id
 _symmetry_equiv_pos_as_xyz
  1  'x, y, z'
loop_
 _atom_site_type_symbol
 _atom_site_label
 _atom_site_symmetry_multiplicity
 _atom_site_fract_x
 _atom_site_fract_y
 _atom_site_fract_z
 _atom_site_occupancy
  Cs  Cs0  1  0.50000000  0.50000000  0.50000000  1
  In  In0  1  0.00000000  0.00000000  0.00000000  1
  F  F0  1  0.50000000  0.00000000  0.00000000  1
  F  F1  1  0.00000000  0.50000000  0.00000000  1
  F  F2  1  0.00000000  0.00000000  0.50000000  1
loop_
_geom_bond_atom_site_label_1
_geom_bond_atom_site_label_2
_geom_bond_distance
_geom_bond_site_symmetry_2
Cs0 F0 3.305230 1_565
Cs0 F1 3.305230 1_555
Cs0 F2 3.305230 1_665
Cs0 F1 3.305230 1_556
Cs0 F0 3.305230 1_566
Cs0 F2 3.305230 1_555
Cs0 F1 3.305230 1_655
Cs0 F1 3.305230 1_656
Cs0 F0 3.305230 1_555
Cs0 F2 3.305230 1_565
Cs0 F0 3.305230 1_556
Cs0 F2 3.305230 1_655
F0 In0 2.337150 1_655
F0 In0 2.337150 1_555
F1 In0 2.337150 1_565
F1 In0 2.337150 1_555
F2 In0 2.337150 1_556
F2 In0 2.337150 1_555
