# generated using pymatgen
data_Rb3BAs2
_symmetry_space_group_name_H-M   'P 1'
_cell_length_a   6.83648503
_cell_length_b   6.83648541
_cell_length_c   9.61509844
_cell_angle_alpha   75.26548727
_cell_angle_beta   75.26549436
_cell_angle_gamma   87.83661433
_symmetry_Int_Tables_number   1
_chemical_formula_structural   Rb3BAs2
_chemical_formula_sum   'Rb6 B2 As4'
_cell_volume   420.14120146
_cell_formula_units_Z   2
loop_
 _symmetry_equiv_pos_site_id
 _symmetry_equiv_pos_as_xyz
  1  'x, y, z'
loop_
 _atom_site_type_symbol
 _atom_site_label
 _atom_site_symmetry_multiplicity
 _atom_site_fract_x
 _atom_site_fract_y
 _atom_site_fract_z
 _atom_site_occupancy
  Rb  Rb0  1  0.85169029  0.14830971  0.75000000  1
  Rb  Rb1  1  0.14830971  0.85169029  0.25000000  1
  Rb  Rb2  1  0.24328614  0.34935526  0.98150488  1
  Rb  Rb3  1  0.65064474  0.75671386  0.51849512  1
  Rb  Rb4  1  0.75671386  0.65064474  0.01849512  1
  Rb  Rb5  1  0.34935526  0.24328614  0.48150488  1
  B  B0  1  0.78330379  0.21669621  0.25000000  1
  B  B1  1  0.21669621  0.78330379  0.75000000  1
  As  As0  1  0.90631489  0.34817204  0.35582010  1
  As  As1  1  0.65182796  0.09368511  0.14417990  1
  As  As2  1  0.34817204  0.90631489  0.85582010  1
  As  As3  1  0.09368511  0.65182796  0.64417990  1
loop_
_geom_bond_atom_site_label_1
_geom_bond_atom_site_label_2
_geom_bond_distance
_geom_bond_site_symmetry_2
B0 Rb4 3.255000 1_555
B0 Rb5 3.255000 1_555
B0 Rb1 3.461720 1_645
B0 Rb3 3.502974 1_545
B0 Rb2 3.502974 1_654
B1 Rb2 3.255000 1_555
B1 Rb3 3.255000 1_555
B1 Rb0 3.461720 1_465
B1 Rb5 3.502974 1_565
B1 Rb4 3.502974 1_456
As0 B0 1.872938 1_555
As0 Rb5 3.522155 1_655
As0 Rb0 3.613223 1_555
As0 Rb1 3.662477 1_655
As0 Rb3 3.710173 1_555
As0 Rb5 3.727924 1_555
As0 Rb4 3.736012 1_555
As0 Rb2 3.745595 1_654
As1 B0 1.872938 1_555
As1 Rb4 3.522155 1_545
As1 Rb0 3.613223 1_554
As1 Rb1 3.662477 1_545
As1 Rb2 3.710173 1_554
As1 Rb4 3.727924 1_555
As1 Rb5 3.736013 1_555
As1 Rb3 3.745595 1_545
As2 B1 1.872938 1_555
As2 Rb2 3.522155 1_565
As2 Rb1 3.613223 1_556
As2 Rb0 3.662477 1_565
As2 Rb4 3.710173 1_556
As2 Rb2 3.727924 1_555
As2 Rb3 3.736013 1_555
As2 Rb5 3.745595 1_565
As3 B1 1.872938 1_555
As3 Rb3 3.522155 1_455
As3 Rb1 3.613223 1_555
As3 Rb0 3.662477 1_455
As3 Rb5 3.710173 1_555
As3 Rb3 3.727924 1_555
As3 Rb2 3.736012 1_555
As3 Rb4 3.745595 1_456
