# generated using pymatgen
data_TbTa3O9
_symmetry_space_group_name_H-M   'P 1'
_cell_length_a   8.81492529
_cell_length_b   8.81492529
_cell_length_c   9.68875044
_cell_angle_alpha   56.91639777
_cell_angle_beta   56.91639777
_cell_angle_gamma   36.78678402
_symmetry_Int_Tables_number   1
_chemical_formula_structural   TbTa3O9
_chemical_formula_sum   'Tb2 Ta6 O18'
_cell_volume   368.77064630
_cell_formula_units_Z   2
loop_
 _symmetry_equiv_pos_site_id
 _symmetry_equiv_pos_as_xyz
  1  'x, y, z'
loop_
 _atom_site_type_symbol
 _atom_site_label
 _atom_site_symmetry_multiplicity
 _atom_site_fract_x
 _atom_site_fract_y
 _atom_site_fract_z
 _atom_site_occupancy
  Tb  Tb0  1  0.31597200  0.32689700  0.50499700  1
  Tb  Tb1  1  0.67310300  0.68402800  0.49500300  1
  Ta  Ta0  1  0.07461100  0.07502600  0.75699500  1
  Ta  Ta1  1  0.58252800  0.58164300  0.25387700  1
  Ta  Ta2  1  0.74745700  0.74812500  0.76427200  1
  Ta  Ta3  1  0.25187500  0.25254300  0.23572800  1
  Ta  Ta4  1  0.92497400  0.92538900  0.24300500  1
  Ta  Ta5  1  0.41835700  0.41747200  0.74612300  1
  O  O0  1  0.50305800  0.49694200  0.50000000  1
  O  O1  1  0.57275800  0.09550600  0.72637600  1
  O  O2  1  0.09713000  0.57270500  0.72628600  1
  O  O3  1  0.93173700  0.42153500  0.71906400  1
  O  O4  1  0.18374800  0.16816300  0.50011400  1
  O  O5  1  0.83183700  0.81625200  0.49988600  1
  O  O6  1  0.00223700  0.99776300  0.00000000  1
  O  O7  1  0.66582200  0.66211500  0.00386800  1
  O  O8  1  0.72557200  0.24788500  0.27361000  1
  O  O9  1  0.57846500  0.06826300  0.28093600  1
  O  O10  1  0.43186900  0.91843800  0.71883500  1
  O  O11  1  0.24934800  0.72683000  0.27310900  1
  O  O12  1  0.75211500  0.27442800  0.72639000  1
  O  O13  1  0.27317000  0.75065200  0.72689100  1
  O  O14  1  0.33788500  0.33417800  0.99613200  1
  O  O15  1  0.08156200  0.56813100  0.28116500  1
  O  O16  1  0.90449400  0.42724200  0.27362400  1
  O  O17  1  0.42729500  0.90287000  0.27371400  1
loop_
_geom_bond_atom_site_label_1
_geom_bond_atom_site_label_2
_geom_bond_distance
_geom_bond_site_symmetry_2
O0 Ta5 1.950624 1_555
O0 Ta1 1.950624 1_555
O0 Tb0 2.960049 1_555
O0 Tb1 2.960049 1_555
O1 Ta2 1.928655 1_545
O1 Ta5 2.016248 1_555
O1 Tb0 2.648317 1_555
O2 Ta2 1.943163 1_455
O2 Ta5 2.007016 1_555
O2 Tb0 2.621901 1_555
O3 Ta0 2.041823 1_655
O3 Ta2 2.056166 1_555
O3 Tb0 2.482621 1_655
O3 Tb1 2.595021 1_555
O4 Ta0 2.052874 1_555
O4 Ta3 2.105115 1_555
O4 Tb0 2.462369 1_555
O4 Tb1 2.708067 1_545
O4 Tb1 2.855522 1_455
O5 Ta4 2.052874 1_555
O5 Ta2 2.105115 1_555
O5 Tb1 2.462369 1_555
O5 Tb0 2.708067 1_655
O5 Tb0 2.855522 1_565
O6 Ta4 1.928644 1_455
O6 Ta0 1.928644 1_564
O7 Ta2 1.900058 1_554
O7 Ta1 1.981522 1_555
O8 Ta4 1.899099 1_545
O8 Ta1 1.997319 1_555
O8 Tb0 2.717942 1_555
O9 Ta4 2.041823 1_545
O9 Ta3 2.056166 1_555
O9 Tb1 2.482621 1_545
O9 Tb0 2.595021 1_555
O10 Ta2 2.027924 1_555
O10 Ta0 2.069511 1_565
O10 Tb1 2.512803 1_555
O10 Tb0 2.564188 1_565
O11 Ta4 1.913469 1_455
O11 Ta1 1.985121 1_555
O11 Tb0 2.701506 1_555
O12 Ta0 1.899099 1_655
O12 Ta5 1.997319 1_555
O12 Tb1 2.717942 1_555
O13 Ta0 1.913469 1_565
O13 Ta5 1.985121 1_555
O13 Tb1 2.701506 1_555
O14 Ta3 1.900058 1_556
O14 Ta5 1.981522 1_555
O15 Ta3 2.027924 1_555
O15 Ta4 2.069511 1_455
O15 Tb0 2.512803 1_555
O15 Tb1 2.564188 1_455
O16 Ta3 1.928655 1_655
O16 Ta1 2.016248 1_555
O16 Tb1 2.648317 1_555
O17 Ta3 1.943163 1_565
O17 Ta1 2.007016 1_555
O17 Tb1 2.621901 1_555
