# generated using pymatgen
data_Ho2Ge2O5
_symmetry_space_group_name_H-M   'P 1'
_cell_length_a   4.10068500
_cell_length_b   4.10068500
_cell_length_c   6.63963300
_cell_angle_alpha   90.00000000
_cell_angle_beta   90.00000000
_cell_angle_gamma   90.00000000
_symmetry_Int_Tables_number   1
_chemical_formula_structural   Ho2Ge2O5
_chemical_formula_sum   'Ho2 Ge2 O5'
_cell_volume   111.64952866
_cell_formula_units_Z   1
loop_
 _symmetry_equiv_pos_site_id
 _symmetry_equiv_pos_as_xyz
  1  'x, y, z'
loop_
 _atom_site_type_symbol
 _atom_site_label
 _atom_site_symmetry_multiplicity
 _atom_site_fract_x
 _atom_site_fract_y
 _atom_site_fract_z
 _atom_site_occupancy
  Ho  Ho0  1  0.00000000  0.00000000  0.00000000  1
  Ho  Ho1  1  0.00000000  0.00000000  0.50000000  1
  Ge  Ge0  1  0.50000000  0.50000000  0.21396600  1
  Ge  Ge1  1  0.50000000  0.50000000  0.78603400  1
  O  O0  1  0.50000000  0.00000000  0.23173100  1
  O  O1  1  0.50000000  0.00000000  0.76826900  1
  O  O2  1  0.50000000  0.50000000  0.50000000  1
  O  O3  1  0.00000000  0.50000000  0.23173100  1
  O  O4  1  0.00000000  0.50000000  0.76826900  1
loop_
_geom_bond_atom_site_label_1
_geom_bond_atom_site_label_2
_geom_bond_distance
_geom_bond_site_symmetry_2
Ho0 O4 2.563439 1_544
Ho0 O0 2.563439 1_455
Ho0 O1 2.563439 1_454
Ho0 O3 2.563439 1_555
Ho0 O0 2.563439 1_555
Ho0 O4 2.563439 1_554
Ho0 O1 2.563439 1_554
Ho0 O3 2.563439 1_545
Ho1 O1 2.715991 1_455
Ho1 O4 2.715991 1_555
Ho1 O1 2.715991 1_555
Ho1 O3 2.715991 1_545
Ho1 O4 2.715991 1_545
Ho1 O3 2.715991 1_555
Ho1 O0 2.715991 1_555
Ho1 O0 2.715991 1_455
Ho1 O2 2.899622 1_545
Ho1 O2 2.899622 1_445
Ho1 O2 2.899622 1_455
Ho1 O2 2.899622 1_555
Ge0 O2 1.899161 1_555
Ge0 O0 2.053733 1_555
Ge0 O3 2.053733 1_555
Ge0 O3 2.053733 1_655
Ge0 O0 2.053733 1_565
Ge1 O2 1.899161 1_555
Ge1 O4 2.053733 1_655
Ge1 O1 2.053733 1_565
Ge1 O4 2.053733 1_555
Ge1 O1 2.053733 1_555
