# generated using pymatgen
data_Rb3Ba
_symmetry_space_group_name_H-M   'P 1'
_cell_length_a   8.77896594
_cell_length_b   8.77896594
_cell_length_c   8.77896594
_cell_angle_alpha   134.83190274
_cell_angle_beta   134.83190274
_cell_angle_gamma   65.79149715
_symmetry_Int_Tables_number   1
_chemical_formula_structural   Rb3Ba
_chemical_formula_sum   'Rb3 Ba1'
_cell_volume   335.15266049
_cell_formula_units_Z   1
loop_
 _symmetry_equiv_pos_site_id
 _symmetry_equiv_pos_as_xyz
  1  'x, y, z'
loop_
 _atom_site_type_symbol
 _atom_site_label
 _atom_site_symmetry_multiplicity
 _atom_site_fract_x
 _atom_site_fract_y
 _atom_site_fract_z
 _atom_site_occupancy
  Rb  Rb0  1  0.75000000  0.25000000  0.50000000  1
  Rb  Rb1  1  0.25000000  0.75000000  0.50000000  1
  Rb  Rb2  1  0.50000000  0.50000000  0.00000000  1
  Ba  Ba0  1  0.00000000  0.00000000  0.00000000  1
loop_
_geom_bond_atom_site_label_1
_geom_bond_atom_site_label_2
_geom_bond_distance
_geom_bond_site_symmetry_2
Rb0 Rb1 4.767963 1_544
Rb0 Rb1 4.767963 1_555
Rb0 Rb1 4.767963 1_645
Rb0 Rb1 4.767963 1_656
Rb0 Rb2 4.995090 1_545
Rb0 Rb2 4.995090 1_656
Rb0 Rb2 4.995090 1_555
Rb0 Rb2 4.995090 1_556
Rb1 Rb2 4.995090 1_555
Rb1 Rb2 4.995090 1_455
Rb1 Rb2 4.995090 1_566
Rb1 Rb2 4.995090 1_556
Ba0 Rb2 4.767963 1_556
Ba0 Rb2 4.767963 1_444
Ba0 Rb2 4.767963 1_545
Ba0 Rb2 4.767963 1_455
Ba0 Rb1 4.995090 1_555
Ba0 Rb0 4.995090 1_454
Ba0 Rb1 4.995090 1_545
Ba0 Rb0 4.995090 1_444
Ba0 Rb1 4.995090 1_444
Ba0 Rb1 4.995090 1_544
Ba0 Rb0 4.995090 1_455
Ba0 Rb0 4.995090 1_555
