# generated using pymatgen
data_Ce2HfS5
_symmetry_space_group_name_H-M   'P 1'
_cell_length_a   7.37866684
_cell_length_b   8.10202799
_cell_length_c   11.46044733
_cell_angle_alpha   90.00000000
_cell_angle_beta   90.00000000
_cell_angle_gamma   90.00000000
_symmetry_Int_Tables_number   1
_chemical_formula_structural   Ce2HfS5
_chemical_formula_sum   'Ce8 Hf4 S20'
_cell_volume   685.13035631
_cell_formula_units_Z   4
loop_
 _symmetry_equiv_pos_site_id
 _symmetry_equiv_pos_as_xyz
  1  'x, y, z'
loop_
 _atom_site_type_symbol
 _atom_site_label
 _atom_site_symmetry_multiplicity
 _atom_site_fract_x
 _atom_site_fract_y
 _atom_site_fract_z
 _atom_site_occupancy
  Ce  Ce0  1  0.44504617  0.99937929  0.32779222  1
  Ce  Ce1  1  0.94504617  0.00062071  0.17220778  1
  Ce  Ce2  1  0.05495383  0.50062071  0.82779222  1
  Ce  Ce3  1  0.55495383  0.49937929  0.67220778  1
  Ce  Ce4  1  0.55495383  0.00062071  0.67220778  1
  Ce  Ce5  1  0.05495383  0.99937929  0.82779222  1
  Ce  Ce6  1  0.94504617  0.49937929  0.17220778  1
  Ce  Ce7  1  0.44504617  0.50062071  0.32779222  1
  Hf  Hf0  1  0.92913356  0.75000000  0.49181006  1
  Hf  Hf1  1  0.42913356  0.25000000  0.00818994  1
  Hf  Hf2  1  0.57086644  0.75000000  0.99181006  1
  Hf  Hf3  1  0.07086644  0.25000000  0.50818994  1
  S  S0  1  0.14082666  0.75000000  0.30985820  1
  S  S1  1  0.64082666  0.25000000  0.19014180  1
  S  S2  1  0.35917334  0.75000000  0.80985820  1
  S  S3  1  0.85917334  0.25000000  0.69014180  1
  S  S4  1  0.17485383  0.53417262  0.57531791  1
  S  S5  1  0.67485383  0.46582738  0.92468209  1
  S  S6  1  0.32514617  0.96582738  0.07531791  1
  S  S7  1  0.82514617  0.03417262  0.42468209  1
  S  S8  1  0.82514617  0.46582738  0.42468209  1
  S  S9  1  0.32514617  0.53417262  0.07531791  1
  S  S10  1  0.67485383  0.03417262  0.92468209  1
  S  S11  1  0.17485383  0.96582738  0.57531791  1
  S  S12  1  0.83811513  0.75000000  0.70696783  1
  S  S13  1  0.33811513  0.25000000  0.79303217  1
  S  S14  1  0.66188487  0.75000000  0.20696783  1
  S  S15  1  0.16188487  0.25000000  0.29303217  1
  S  S16  1  0.55872317  0.75000000  0.49538063  1
  S  S17  1  0.05872317  0.25000000  0.00461937  1
  S  S18  1  0.94127683  0.75000000  0.99538063  1
  S  S19  1  0.44127683  0.25000000  0.50461937  1
loop_
_geom_bond_atom_site_label_1
_geom_bond_atom_site_label_2
_geom_bond_distance
_geom_bond_site_symmetry_2
Ce0 S19 2.868907 1_565
Ce0 S16 2.911141 1_555
Ce0 S14 2.925691 1_555
Ce0 S15 2.940607 1_565
Ce0 S1 2.949332 1_565
Ce0 S0 3.027112 1_555
Ce0 S7 3.029590 1_565
Ce0 S6 3.037886 1_555
Ce0 S11 3.477895 1_555
Ce1 S18 2.868907 1_544
Ce1 S17 2.911141 1_655
Ce1 S15 2.925691 1_655
Ce1 S14 2.940607 1_545
Ce1 S0 2.949332 1_645
Ce1 S1 3.027112 1_555
Ce1 S6 3.029590 1_645
Ce1 S7 3.037886 1_555
Ce1 S10 3.477895 1_554
Ce2 S17 2.868907 1_556
Ce2 S18 2.911141 1_455
Ce2 S12 2.925691 1_455
Ce2 S13 2.940607 1_555
Ce2 S3 2.949332 1_455
Ce2 S2 3.027112 1_555
Ce2 S5 3.029590 1_455
Ce2 S4 3.037886 1_555
Ce2 S9 3.477895 1_556
Ce3 S16 2.868907 1_555
Ce3 S19 2.911141 1_555
Ce3 S13 2.925691 1_555
Ce3 S12 2.940607 1_555
Ce3 S2 2.949332 1_555
Ce3 S3 3.027112 1_555
Ce3 S4 3.029590 1_555
Ce3 S5 3.037886 1_555
Ce3 S8 3.477895 1_555
Ce4 S16 2.868907 1_545
Ce4 S19 2.911141 1_555
Ce4 S13 2.925691 1_555
Ce4 S12 2.940607 1_545
Ce4 S2 2.949332 1_545
Ce4 S3 3.027112 1_555
Ce4 S11 3.029590 1_545
Ce4 S10 3.037886 1_555
Ce4 S7 3.477895 1_555
Ce5 S17 2.868907 1_566
Ce5 S18 2.911141 1_455
Ce5 S12 2.925691 1_455
Ce5 S13 2.940607 1_565
Ce5 S3 2.949332 1_465
Ce5 S2 3.027112 1_555
Ce5 S10 3.029590 1_465
Ce5 S11 3.037886 1_555
Ce5 S6 3.477895 1_556
Ce6 S18 2.868907 1_554
Ce6 S17 2.911141 1_655
Ce6 S15 2.925691 1_655
Ce6 S14 2.940607 1_555
Ce6 S0 2.949332 1_655
Ce6 S1 3.027112 1_555
Ce6 S9 3.029590 1_655
Ce6 S8 3.037886 1_555
Ce6 S5 3.477895 1_554
Ce7 S19 2.868907 1_555
Ce7 S16 2.911141 1_555
Ce7 S14 2.925691 1_555
Ce7 S15 2.940607 1_555
Ce7 S1 2.949332 1_555
Ce7 S0 3.027112 1_555
Ce7 S8 3.029590 1_555
Ce7 S9 3.037886 1_555
Ce7 S4 3.477895 1_555
Hf0 S8 2.545881 1_555
Hf0 S7 2.545881 1_565
Hf0 S12 2.555627 1_555
Hf0 S0 2.605408 1_655
Hf0 S4 2.694615 1_655
Hf0 S11 2.694615 1_655
Hf0 S16 2.733441 1_555
Hf1 S9 2.545881 1_555
Hf1 S6 2.545881 1_545
Hf1 S13 2.555627 1_554
Hf1 S1 2.605408 1_555
Hf1 S5 2.694615 1_554
Hf1 S10 2.694615 1_554
Hf1 S17 2.733441 1_555
Hf2 S5 2.545881 1_555
Hf2 S10 2.545881 1_565
Hf2 S14 2.555627 1_556
Hf2 S2 2.605408 1_555
Hf2 S9 2.694615 1_556
Hf2 S6 2.694615 1_556
Hf2 S18 2.733441 1_555
Hf3 S4 2.545881 1_555
Hf3 S11 2.545881 1_545
Hf3 S15 2.555627 1_555
Hf3 S3 2.605408 1_455
Hf3 S8 2.694615 1_455
Hf3 S7 2.694615 1_455
Hf3 S19 2.733441 1_555
