# generated using pymatgen
data_Er2S3
_symmetry_space_group_name_H-M   'P 1'
_cell_length_a   3.89084190
_cell_length_b   10.90255543
_cell_length_c   11.15983962
_cell_angle_alpha   108.86251729
_cell_angle_beta   90.00000000
_cell_angle_gamma   90.00000000
_symmetry_Int_Tables_number   1
_chemical_formula_structural   Er2S3
_chemical_formula_sum   'Er8 S12'
_cell_volume   447.97866624
_cell_formula_units_Z   4
loop_
 _symmetry_equiv_pos_site_id
 _symmetry_equiv_pos_as_xyz
  1  'x, y, z'
loop_
 _atom_site_type_symbol
 _atom_site_label
 _atom_site_symmetry_multiplicity
 _atom_site_fract_x
 _atom_site_fract_y
 _atom_site_fract_z
 _atom_site_occupancy
  Er  Er0  1  0.25000000  0.33896722  0.91625649  1
  Er  Er1  1  0.75000000  0.66103278  0.08374351  1
  Er  Er2  1  0.25000000  0.45654680  0.30996590  1
  Er  Er3  1  0.75000000  0.54345320  0.69003410  1
  Er  Er4  1  0.25000000  0.81776126  0.49680655  1
  Er  Er5  1  0.75000000  0.18223874  0.50319345  1
  Er  Er6  1  0.25000000  0.06746690  0.16831238  1
  Er  Er7  1  0.75000000  0.93253310  0.83168762  1
  S  S0  1  0.25000000  0.38956679  0.53756768  1
  S  S1  1  0.75000000  0.61043321  0.46243232  1
  S  S2  1  0.25000000  0.69132412  0.24944408  1
  S  S3  1  0.75000000  0.30867588  0.75055592  1
  S  S4  1  0.25000000  0.02276422  0.38667226  1
  S  S5  1  0.75000000  0.97723578  0.61332774  1
  S  S6  1  0.25000000  0.58131975  0.90179189  1
  S  S7  1  0.75000000  0.41868025  0.09820811  1
  S  S8  1  0.75000000  0.24555468  0.27699632  1
  S  S9  1  0.25000000  0.75444532  0.72300368  1
  S  S10  1  0.75000000  0.89780450  0.06333709  1
  S  S11  1  0.25000000  0.10219550  0.93666291  1
loop_
_geom_bond_atom_site_label_1
_geom_bond_atom_site_label_2
_geom_bond_distance
_geom_bond_site_symmetry_2
Er0 S3 2.630278 1_455
Er0 S3 2.630278 1_555
Er0 S11 2.663774 1_555
Er0 S6 2.698776 1_555
Er0 S7 2.742634 1_456
Er0 S7 2.742634 1_556
Er1 S2 2.630278 1_655
Er1 S2 2.630278 1_555
Er1 S10 2.663774 1_555
Er1 S7 2.698776 1_555
Er1 S6 2.742634 1_654
Er1 S6 2.742634 1_554
Er2 S1 2.765644 1_555
Er2 S1 2.765644 1_455
Er2 S2 2.850609 1_555
Er2 S0 2.860804 1_555
Er2 S8 2.943535 1_555
Er2 S8 2.943535 1_455
Er2 S7 2.984778 1_455
Er2 S7 2.984778 1_555
Er3 S0 2.765644 1_655
Er3 S0 2.765644 1_555
Er3 S3 2.850609 1_555
Er3 S1 2.860804 1_555
Er3 S9 2.943535 1_555
Er3 S9 2.943535 1_655
Er3 S6 2.984778 1_655
Er3 S6 2.984778 1_555
Er4 S5 2.652679 1_555
Er4 S5 2.652679 1_455
Er4 S2 2.657104 1_555
Er4 S9 2.824086 1_555
Er4 S4 2.877909 1_565
Er4 S1 2.912143 1_455
Er4 S1 2.912143 1_555
Er5 S4 2.652679 1_655
Er5 S4 2.652679 1_555
Er5 S3 2.657104 1_555
Er5 S8 2.824086 1_555
Er5 S5 2.877909 1_545
Er5 S0 2.912143 1_555
Er5 S0 2.912143 1_655
Er6 S4 2.635102 1_555
Er6 S10 2.679087 1_445
Er6 S10 2.679087 1_545
Er6 S11 2.731186 1_554
Er6 S8 2.739145 1_455
Er6 S8 2.739145 1_555
Er7 S5 2.635102 1_555
Er7 S11 2.679087 1_565
Er7 S11 2.679087 1_665
Er7 S10 2.731186 1_556
Er7 S9 2.739145 1_555
Er7 S9 2.739145 1_655
