# generated using pymatgen
data_KCa9Mg(PO4)7
_symmetry_space_group_name_H-M   'P 1'
_cell_length_a   13.66777665
_cell_length_b   13.66777665
_cell_length_c   13.66777625
_cell_angle_alpha   44.70202286
_cell_angle_beta   44.70202286
_cell_angle_gamma   44.70202132
_symmetry_Int_Tables_number   1
_chemical_formula_structural   KCa9Mg(PO4)7
_chemical_formula_sum   'K2 Ca18 Mg2 P14 O56'
_cell_volume   1149.14974479
_cell_formula_units_Z   2
loop_
 _symmetry_equiv_pos_site_id
 _symmetry_equiv_pos_as_xyz
  1  'x, y, z'
loop_
 _atom_site_type_symbol
 _atom_site_label
 _atom_site_symmetry_multiplicity
 _atom_site_fract_x
 _atom_site_fract_y
 _atom_site_fract_z
 _atom_site_occupancy
  K  K0  1  0.68370258  0.68370258  0.68370258  1
  K  K1  1  0.18370258  0.18370258  0.18370258  1
  Ca  Ca0  1  0.55973425  0.94366812  0.97084114  1
  Ca  Ca1  1  0.97084114  0.55973425  0.94366812  1
  Ca  Ca2  1  0.94366812  0.97084114  0.55973425  1
  Ca  Ca3  1  0.05973425  0.47084114  0.44366812  1
  Ca  Ca4  1  0.44366812  0.05973425  0.47084114  1
  Ca  Ca5  1  0.47084114  0.44366812  0.05973425  1
  Ca  Ca6  1  0.90713686  0.34366417  0.94542051  1
  Ca  Ca7  1  0.94542051  0.90713686  0.34366417  1
  Ca  Ca8  1  0.34366417  0.94542151  0.90713686  1
  Ca  Ca9  1  0.40713686  0.44542051  0.84366417  1
  Ca  Ca10  1  0.84366417  0.40713686  0.44542051  1
  Ca  Ca11  1  0.44542051  0.84366417  0.40713686  1
  Ca  Ca12  1  0.07279117  0.65937530  0.06286518  1
  Ca  Ca13  1  0.06286518  0.07279117  0.65937530  1
  Ca  Ca14  1  0.65937530  0.06286518  0.07279117  1
  Ca  Ca15  1  0.57279117  0.56286518  0.15937530  1
  Ca  Ca16  1  0.15937530  0.57279117  0.56286518  1
  Ca  Ca17  1  0.56286518  0.15937530  0.57279117  1
  Mg  Mg0  1  0.49985981  0.49985981  0.49985981  1
  Mg  Mg1  1  0.99985981  0.99985981  0.99985981  1
  P  P0  1  0.81465014  0.77370621  0.31738615  1
  P  P1  1  0.17763359  0.22646433  0.68819400  1
  P  P2  1  0.68819400  0.17763359  0.22646433  1
  P  P3  1  0.22646433  0.68819400  0.17763359  1
  P  P4  1  0.77370621  0.31738615  0.81465014  1
  P  P5  1  0.18819400  0.72646433  0.67763359  1
  P  P6  1  0.31738615  0.81465014  0.77370621  1
  P  P7  1  0.72646433  0.67763359  0.18819400  1
  P  P8  1  0.81738615  0.27370621  0.31465014  1
  P  P9  1  0.31465014  0.81738615  0.27370621  1
  P  P10  1  0.76764755  0.76764755  0.76764755  1
  P  P11  1  0.26764755  0.26764755  0.26764755  1
  P  P12  1  0.67763359  0.18819400  0.72646433  1
  P  P13  1  0.27370621  0.31465014  0.81738615  1
  O  O0  1  0.66926408  0.11285729  0.68881127  1
  O  O1  1  0.68881127  0.66926408  0.11285729  1
  O  O2  1  0.11285729  0.68881127  0.66926408  1
  O  O3  1  0.16926408  0.18881127  0.61285729  1
  O  O4  1  0.61285729  0.16926408  0.18881127  1
  O  O5  1  0.18881127  0.61285729  0.16926408  1
  O  O6  1  0.61005122  0.36394355  0.63854794  1
  O  O7  1  0.63854794  0.61005122  0.36394355  1
  O  O8  1  0.36394355  0.63854794  0.61005122  1
  O  O9  1  0.11005122  0.13854794  0.86394355  1
  O  O10  1  0.86394355  0.11005122  0.13854794  1
  O  O11  1  0.13854794  0.86394355  0.11005122  1
  O  O12  1  0.84604722  0.13199977  0.67608437  1
  O  O13  1  0.67608437  0.84604722  0.13199977  1
  O  O14  1  0.13199977  0.67608437  0.84604722  1
  O  O15  1  0.34604722  0.17608437  0.63199977  1
  O  O16  1  0.63199977  0.34604722  0.17608437  1
  O  O17  1  0.17608437  0.63199977  0.34604722  1
  O  O18  1  0.58223242  0.14654951  0.89932102  1
  O  O19  1  0.89932102  0.58223242  0.14654951  1
  O  O20  1  0.14654951  0.89932102  0.58223242  1
  O  O21  1  0.08223242  0.39932102  0.64654951  1
  O  O22  1  0.84497585  0.38418462  0.63971158  1
  O  O23  1  0.64654951  0.08223242  0.39932102  1
  O  O24  1  0.87292755  0.14245622  0.87700163  1
  O  O25  1  0.87700163  0.87292755  0.14245622  1
  O  O26  1  0.14245622  0.87700163  0.87292755  1
  O  O27  1  0.37292755  0.37700163  0.64245622  1
  O  O28  1  0.64245622  0.37292755  0.37700163  1
  O  O29  1  0.37700163  0.64245622  0.37292755  1
  O  O30  1  0.61168459  0.33408066  0.88958492  1
  O  O31  1  0.88958492  0.61168459  0.33408066  1
  O  O32  1  0.33408066  0.88958492  0.61168459  1
  O  O33  1  0.11168459  0.38958492  0.83408066  1
  O  O34  1  0.83408066  0.11168459  0.38958492  1
  O  O35  1  0.38958492  0.83408066  0.11168459  1
  O  O36  1  0.30928349  0.30928349  0.30928349  1
  O  O37  1  0.80928349  0.80928349  0.80928349  1
  O  O38  1  0.10918824  0.26335616  0.38984874  1
  O  O39  1  0.26335616  0.38984874  0.10918824  1
  O  O40  1  0.38984874  0.10918824  0.26335616  1
  O  O41  1  0.76335616  0.60918824  0.88984874  1
  O  O42  1  0.60918824  0.88984874  0.76335616  1
  O  O43  1  0.88984874  0.76335616  0.60918824  1
  O  O44  1  0.36971225  0.89655381  0.25669897  1
  O  O45  1  0.89655381  0.25669897  0.36971225  1
  O  O46  1  0.25669897  0.36971225  0.89655381  1
  O  O47  1  0.39655381  0.86971225  0.75669897  1
  O  O48  1  0.86971225  0.75669897  0.39655381  1
  O  O49  1  0.75669897  0.39655381  0.86971225  1
  O  O50  1  0.13971158  0.88418462  0.34497585  1
  O  O51  1  0.88418462  0.34497585  0.13971158  1
  O  O52  1  0.34497585  0.13971158  0.88418462  1
  O  O53  1  0.38418462  0.63971158  0.84497585  1
  O  O54  1  0.63971158  0.84497585  0.38418462  1
  O  O55  1  0.39932102  0.64654951  0.08223242  1
loop_
_geom_bond_atom_site_label_1
_geom_bond_atom_site_label_2
_geom_bond_distance
_geom_bond_site_symmetry_2
K0 O47 2.591803 1_555
K0 O48 2.591803 1_555
K0 O49 2.591803 1_555
K1 O44 2.591803 1_545
K1 O46 2.591803 1_554
K1 O45 2.591803 1_455
Ca0 O18 2.381355 1_565
Ca0 O35 2.417917 1_556
Ca0 O37 2.456913 1_555
Ca0 O1 2.461633 1_556
Ca0 O52 2.539374 1_565
Ca0 O0 2.548293 1_565
Ca0 O44 2.607884 1_556
Ca0 O13 2.635572 1_556
Ca0 O42 2.928103 1_555
Ca1 O19 2.381355 1_556
Ca1 O33 2.417917 1_655
Ca1 O37 2.456913 1_555
Ca1 O2 2.461634 1_655
Ca1 O51 2.539374 1_556
Ca1 O1 2.548293 1_556
Ca1 O46 2.607884 1_655
Ca1 O14 2.635572 1_655
Ca1 O41 2.928104 1_555
Ca2 O20 2.381355 1_655
Ca2 O34 2.417917 1_565
Ca2 O37 2.456913 1_555
Ca2 O0 2.461633 1_565
Ca2 O50 2.539374 1_655
Ca2 O2 2.548293 1_655
Ca2 O45 2.607884 1_565
Ca2 O12 2.635572 1_565
Ca2 O43 2.928104 1_555
Ca3 O21 2.381355 1_555
Ca3 O31 2.417917 1_455
Ca3 O36 2.456913 1_555
Ca3 O5 2.461634 1_555
Ca3 O22 2.539374 1_455
Ca3 O3 2.548293 1_555
Ca3 O48 2.607884 1_455
Ca3 O17 2.635572 1_555
Ca3 O38 2.928104 1_555
Ca4 O23 2.381355 1_555
Ca4 O32 2.417917 1_545
Ca4 O36 2.456913 1_555
Ca4 O3 2.461633 1_555
Ca4 O54 2.539374 1_545
Ca4 O4 2.548293 1_555
Ca4 O47 2.607884 1_545
Ca4 O15 2.635572 1_555
Ca4 O40 2.928103 1_555
Ca5 O55 2.381355 1_555
Ca5 O30 2.417917 1_554
Ca5 O36 2.456913 1_555
Ca5 O4 2.461633 1_555
Ca5 O53 2.539374 1_554
Ca5 O5 2.548293 1_555
Ca5 O49 2.607884 1_554
Ca5 O16 2.635572 1_555
Ca5 O39 2.928104 1_555
Ca6 O33 2.369487 1_655
Ca6 O49 2.381033 1_555
Ca6 O41 2.382111 1_555
Ca6 O9 2.405454 1_655
Ca6 O10 2.448349 1_556
Ca6 O51 2.454793 1_556
Ca6 O16 2.683336 1_556
Ca6 O21 2.695567 1_655
Ca7 O34 2.369486 1_565
Ca7 O48 2.381033 1_555
Ca7 O43 2.382111 1_555
Ca7 O10 2.405454 1_565
Ca7 O11 2.448349 1_655
Ca7 O50 2.454793 1_655
Ca7 O17 2.683336 1_655
Ca7 O23 2.695567 1_565
Ca8 O35 2.369481 1_556
Ca8 O47 2.381044 1_555
Ca8 O42 2.382109 1_555
Ca8 O11 2.405461 1_556
Ca8 O9 2.448349 1_565
Ca8 O52 2.454780 1_565
Ca8 O15 2.683334 1_565
Ca8 O55 2.695576 1_556
Ca9 O30 2.369486 1_555
Ca9 O46 2.381033 1_555
Ca9 O39 2.382111 1_556
Ca9 O6 2.405454 1_555
Ca9 O8 2.448349 1_555
Ca9 O53 2.454793 1_555
Ca9 O14 2.683336 1_555
Ca9 O18 2.695567 1_555
Ca10 O31 2.369487 1_555
Ca10 O45 2.381033 1_555
Ca10 O38 2.382111 1_655
Ca10 O7 2.405454 1_555
Ca10 O6 2.448349 1_555
Ca10 O22 2.454793 1_555
Ca10 O12 2.683336 1_555
Ca10 O19 2.695567 1_555
Ca11 O32 2.369486 1_555
Ca11 O44 2.381033 1_555
Ca11 O40 2.382111 1_565
Ca11 O8 2.405454 1_555
Ca11 O7 2.448349 1_555
Ca11 O54 2.454793 1_555
Ca11 O13 2.683336 1_555
Ca11 O20 2.695567 1_555
Ca12 O14 2.319583 1_554
Ca12 O5 2.358848 1_555
Ca12 O19 2.454721 1_455
Ca12 O26 2.455353 1_554
Ca12 O31 2.475179 1_455
Ca12 O25 2.477065 1_455
Ca12 O39 2.478796 1_555
Ca13 O12 2.319583 1_455
Ca13 O3 2.358848 1_555
Ca13 O20 2.454721 1_545
Ca13 O24 2.455353 1_455
Ca13 O32 2.475179 1_545
Ca13 O26 2.477065 1_545
Ca13 O38 2.478796 1_555
Ca14 O13 2.319583 1_545
Ca14 O4 2.358848 1_555
Ca14 O18 2.454721 1_554
Ca14 O25 2.455353 1_545
Ca14 O30 2.475179 1_554
Ca14 O24 2.477065 1_554
Ca14 O40 2.478796 1_555
Ca15 O16 2.319583 1_555
Ca15 O1 2.358848 1_555
Ca15 O55 2.454721 1_555
Ca15 O28 2.455353 1_555
Ca15 O35 2.475179 1_555
Ca15 O29 2.477065 1_555
Ca15 O41 2.478796 1_554
Ca16 O17 2.319583 1_555
Ca16 O2 2.358848 1_555
Ca16 O21 2.454721 1_555
Ca16 O29 2.455353 1_555
Ca16 O33 2.475179 1_555
Ca16 O27 2.477065 1_555
Ca16 O43 2.478796 1_455
Ca17 O15 2.319583 1_555
Ca17 O0 2.358848 1_555
Ca17 O23 2.454721 1_555
Ca17 O27 2.455353 1_555
Ca17 O34 2.475179 1_555
Ca17 O28 2.477065 1_555
Ca17 O42 2.478796 1_545
Mg0 O29 2.076143 1_555
Mg0 O28 2.076143 1_555
Mg0 O27 2.076143 1_555
Mg0 O6 2.094687 1_555
Mg0 O8 2.094687 1_555
Mg0 O7 2.094687 1_555
Mg1 O26 2.076143 1_655
Mg1 O24 2.076143 1_565
Mg1 O25 2.076143 1_556
Mg1 O10 2.094687 1_566
Mg1 O11 2.094687 1_656
Mg1 O9 2.094687 1_665
O0 P12 1.530558 1_555
O1 P7 1.530558 1_555
O2 P5 1.530558 1_555
O3 P1 1.530558 1_555
O4 P2 1.530558 1_555
O5 P3 1.530558 1_555
O6 P12 1.545218 1_555
O7 P7 1.545218 1_555
O8 P5 1.545218 1_555
O9 P1 1.545218 1_555
O10 P2 1.545218 1_555
O11 P3 1.545218 1_555
O12 P12 1.532306 1_555
O13 P7 1.532306 1_555
O14 P5 1.532306 1_555
O15 P1 1.532306 1_555
O16 P2 1.532306 1_555
O17 P3 1.532306 1_555
O18 P12 1.539513 1_555
O19 P7 1.539513 1_555
O20 P5 1.539513 1_555
O21 P1 1.539513 1_555
O22 P4 1.532814 1_555
O23 P2 1.539513 1_555
O24 P4 1.555310 1_555
O25 P0 1.555310 1_555
O26 P6 1.555310 1_555
O27 P13 1.555310 1_555
O28 P8 1.555310 1_555
O29 P9 1.555310 1_555
O30 P4 1.547484 1_555
O31 P0 1.547484 1_555
O32 P6 1.547484 1_555
O33 P13 1.547484 1_555
O34 P8 1.547484 1_555
O35 P9 1.547484 1_555
O36 P11 1.533817 1_555
O37 P10 1.533817 1_555
O38 P11 1.543632 1_555
O39 P11 1.543632 1_555
O40 P11 1.543632 1_555
O41 P10 1.543632 1_555
O42 P10 1.543632 1_555
O43 P10 1.543632 1_555
O44 P9 1.530553 1_555
O45 P8 1.530553 1_555
O46 P13 1.530553 1_555
O47 P6 1.530553 1_555
O48 P0 1.530553 1_555
O49 P4 1.530553 1_555
O50 P9 1.532814 1_555
O51 P8 1.532814 1_555
O52 P13 1.532814 1_555
O53 P6 1.532814 1_555
O54 P0 1.532814 1_555
O55 P3 1.539513 1_555
