# generated using pymatgen
data_Li3Mg
_symmetry_space_group_name_H-M   'P 1'
_cell_length_a   4.30344030
_cell_length_b   4.30344030
_cell_length_c   4.30344527
_cell_angle_alpha   90.00000000
_cell_angle_beta   90.00000000
_cell_angle_gamma   90.00000000
_symmetry_Int_Tables_number   1
_chemical_formula_structural   Li3Mg
_chemical_formula_sum   'Li3 Mg1'
_cell_volume   79.69807820
_cell_formula_units_Z   1
loop_
 _symmetry_equiv_pos_site_id
 _symmetry_equiv_pos_as_xyz
  1  'x, y, z'
loop_
 _atom_site_type_symbol
 _atom_site_label
 _atom_site_symmetry_multiplicity
 _atom_site_fract_x
 _atom_site_fract_y
 _atom_site_fract_z
 _atom_site_occupancy
  Li  Li0  1  0.49999900  0.49999900  -0.00000000  1
  Li  Li1  1  0.49999900  0.00000000  0.49999900  1
  Li  Li2  1  -0.00000000  0.49999900  0.49999900  1
  Mg  Mg0  1  -0.00000000  0.00000000  -0.00000000  1
loop_
_geom_bond_atom_site_label_1
_geom_bond_atom_site_label_2
_geom_bond_distance
_geom_bond_site_symmetry_2
Li0 Mg0 3.042986 1_555
Li0 Li1 3.042987 1_555
Li0 Li2 3.042987 1_555
Li0 Mg0 3.042992 1_565
Li0 Mg0 3.042992 1_655
Li0 Li2 3.042994 1_655
Li0 Li1 3.042994 1_565
Li0 Li1 3.042994 1_554
Li0 Li2 3.042994 1_554
Li0 Mg0 3.042998 1_665
Li0 Li1 3.043000 1_564
Li0 Li2 3.043000 1_654
Li1 Li2 3.042986 1_555
Li1 Mg0 3.042987 1_555
Li1 Li2 3.042992 1_545
Li1 Li2 3.042992 1_655
Li1 Mg0 3.042994 1_655
Li1 Mg0 3.042994 1_556
Li1 Li2 3.042998 1_645
Li1 Mg0 3.043000 1_656
Li2 Mg0 3.042987 1_555
Li2 Mg0 3.042994 1_565
Li2 Mg0 3.042994 1_556
Li2 Mg0 3.043000 1_566
