# generated using pymatgen
data_Cu3SbSe4
_symmetry_space_group_name_H-M   'P 1'
_cell_length_a   5.66440410
_cell_length_b   5.66440408
_cell_length_c   6.90842987
_cell_angle_alpha   114.20252313
_cell_angle_beta   114.20252266
_cell_angle_gamma   90.00000403
_symmetry_Int_Tables_number   1
_chemical_formula_structural   Cu3SbSe4
_chemical_formula_sum   'Cu3 Sb1 Se4'
_cell_volume   180.60350210
_cell_formula_units_Z   1
loop_
 _symmetry_equiv_pos_site_id
 _symmetry_equiv_pos_as_xyz
  1  'x, y, z'
loop_
 _atom_site_type_symbol
 _atom_site_label
 _atom_site_symmetry_multiplicity
 _atom_site_fract_x
 _atom_site_fract_y
 _atom_site_fract_z
 _atom_site_occupancy
  Cu  Cu0  1  0.75000000  0.25000000  0.50000000  1
  Cu  Cu1  1  0.50000000  0.50000000  -0.00000000  1
  Cu  Cu2  1  0.25000000  0.75000000  0.50000000  1
  Sb  Sb0  1  -0.00000000  -0.00000000  -0.00000000  1
  Se  Se0  1  0.13207273  0.13207273  0.73268437  1
  Se  Se1  1  0.60061164  0.60061164  0.73268437  1
  Se  Se2  1  0.86792727  0.39938836  0.26731563  1
  Se  Se3  1  0.39938836  0.86792727  0.26731563  1
loop_
_geom_bond_atom_site_label_1
_geom_bond_atom_site_label_2
_geom_bond_distance
_geom_bond_site_symmetry_2
Cu0 Se3 2.396243 1_545
Cu0 Se2 2.396243 1_555
Cu0 Se1 2.396243 1_555
Cu0 Se0 2.396243 1_655
Cu1 Se0 2.405386 1_554
Cu1 Se1 2.405386 1_554
Cu1 Se3 2.405386 1_555
Cu1 Se2 2.405386 1_555
Cu2 Se2 2.396243 1_455
Cu2 Se3 2.396243 1_555
Cu2 Se0 2.396243 1_565
Cu2 Se1 2.396243 1_555
Sb0 Se1 2.606784 1_444
Sb0 Se0 2.606784 1_554
Sb0 Se2 2.606785 1_455
Sb0 Se3 2.606785 1_545
