# generated using pymatgen
data_Nd(Ge3Pt)4
_symmetry_space_group_name_H-M   'P 1'
_cell_length_a   7.55665015
_cell_length_b   7.55665015
_cell_length_c   7.55665015
_cell_angle_alpha   109.47122063
_cell_angle_beta   109.47122063
_cell_angle_gamma   109.47122063
_symmetry_Int_Tables_number   1
_chemical_formula_structural   Nd(Ge3Pt)4
_chemical_formula_sum   'Nd1 Ge12 Pt4'
_cell_volume   332.17432278
_cell_formula_units_Z   1
loop_
 _symmetry_equiv_pos_site_id
 _symmetry_equiv_pos_as_xyz
  1  'x, y, z'
loop_
 _atom_site_type_symbol
 _atom_site_label
 _atom_site_symmetry_multiplicity
 _atom_site_fract_x
 _atom_site_fract_y
 _atom_site_fract_z
 _atom_site_occupancy
  Nd  Nd0  1  0.00000000  0.00000000  0.00000000  1
  Ge  Ge0  1  0.35398400  0.50480000  0.15081600  1
  Ge  Ge1  1  0.64601600  0.79683100  0.15081600  1
  Ge  Ge2  1  0.84918400  0.35398400  0.20316900  1
  Ge  Ge3  1  0.50480000  0.15081600  0.35398400  1
  Ge  Ge4  1  0.20316900  0.84918400  0.35398400  1
  Ge  Ge5  1  0.84918400  0.64601600  0.49520000  1
  Ge  Ge6  1  0.15081600  0.35398400  0.50480000  1
  Ge  Ge7  1  0.79683100  0.15081600  0.64601600  1
  Ge  Ge8  1  0.49520000  0.84918400  0.64601600  1
  Ge  Ge9  1  0.15081600  0.64601600  0.79683100  1
  Ge  Ge10  1  0.35398400  0.20316900  0.84918400  1
  Ge  Ge11  1  0.64601600  0.49520000  0.84918400  1
  Pt  Pt0  1  0.50000000  0.00000000  0.00000000  1
  Pt  Pt1  1  0.00000000  0.50000000  0.00000000  1
  Pt  Pt2  1  0.00000000  0.00000000  0.50000000  1
  Pt  Pt3  1  0.50000000  0.50000000  0.50000000  1
loop_
_geom_bond_atom_site_label_1
_geom_bond_atom_site_label_2
_geom_bond_distance
_geom_bond_site_symmetry_2
Ge0 Pt1 2.516113 1_555
Ge0 Pt3 2.516113 1_555
Ge0 Ge1 2.548170 1_555
Ge0 Ge10 2.631936 1_554
Ge0 Nd0 3.357400 1_555
Ge1 Pt2 2.516112 1_665
Ge1 Pt0 2.516120 1_565
Ge1 Ge11 2.631936 1_554
Ge1 Nd0 3.357402 1_665
Ge2 Pt0 2.516112 1_555
Ge2 Pt1 2.516120 1_655
Ge2 Ge5 2.548170 1_555
Ge2 Ge6 2.631936 1_655
Ge2 Nd0 3.357402 1_655
Ge3 Pt0 2.516113 1_555
Ge3 Pt3 2.516113 1_555
Ge3 Ge7 2.548170 1_555
Ge3 Ge4 2.631936 1_545
Ge3 Nd0 3.357400 1_555
Ge4 Pt1 2.516112 1_555
Ge4 Pt2 2.516120 1_565
Ge4 Ge8 2.548170 1_555
Ge4 Nd0 3.357402 1_565
Ge5 Pt3 2.516113 1_555
Ge5 Pt2 2.516113 1_665
Ge5 Ge9 2.631936 1_655
Ge5 Nd0 3.357400 1_666
Ge6 Pt2 2.516113 1_555
Ge6 Pt3 2.516113 1_555
Ge6 Ge9 2.548170 1_555
Ge6 Nd0 3.357400 1_555
Ge7 Pt1 2.516112 1_656
Ge7 Pt2 2.516120 1_655
Ge7 Ge8 2.631936 1_545
Ge7 Nd0 3.357402 1_656
Ge8 Pt3 2.516113 1_555
Ge8 Pt0 2.516113 1_566
Ge8 Nd0 3.357400 1_666
Ge9 Pt0 2.516112 1_566
Ge9 Pt1 2.516120 1_556
Ge9 Nd0 3.357402 1_566
Ge10 Pt2 2.516112 1_555
Ge10 Pt0 2.516120 1_556
Ge10 Ge11 2.548170 1_555
Ge10 Nd0 3.357402 1_556
Ge11 Pt3 2.516113 1_555
Ge11 Pt1 2.516113 1_656
Ge11 Nd0 3.357400 1_666
