# generated using pymatgen
data_B4C
_symmetry_space_group_name_H-M   'P 1'
_cell_length_a   5.11642600
_cell_length_b   5.11644032
_cell_length_c   22.36454111
_cell_angle_alpha   94.81435722
_cell_angle_beta   92.88310096
_cell_angle_gamma   114.40326898
_symmetry_Int_Tables_number   1
_chemical_formula_structural   B4C
_chemical_formula_sum   'B56 C14'
_cell_volume   528.93644545
_cell_formula_units_Z   14
loop_
 _symmetry_equiv_pos_site_id
 _symmetry_equiv_pos_as_xyz
  1  'x, y, z'
loop_
 _atom_site_type_symbol
 _atom_site_label
 _atom_site_symmetry_multiplicity
 _atom_site_fract_x
 _atom_site_fract_y
 _atom_site_fract_z
 _atom_site_occupancy
  B  B0  1  0.99056100  0.67103600  0.00153100  1
  B  B1  1  0.19274800  0.00176800  0.93433700  1
  B  B2  1  0.32352500  0.00398900  0.00138100  1
  B  B3  1  0.60451200  0.66439500  0.80000500  1
  B  B4  1  0.80328000  0.99337000  0.73404300  1
  B  B5  1  0.60903100  0.79971700  0.86460900  1
  B  B6  1  0.30769800  0.32520200  0.96207500  1
  B  B7  1  0.94865800  0.99483200  0.80013100  1
  B  B8  1  0.78794600  0.80477800  0.96207600  1
  B  B9  1  0.40514900  0.99937600  0.53202600  1
  B  B10  1  0.92402200  0.31522400  0.75976500  1
  B  B11  1  0.20765300  0.79970900  0.66316400  1
  B  B12  1  0.80151500  0.19906700  0.84014900  1
  B  B13  1  0.53269400  0.99968100  0.59881700  1
  B  B14  1  0.40149500  0.79847400  0.75956000  1
  B  B15  1  0.98265800  0.20514600  0.93757600  1
  B  B16  1  0.27896900  0.68248300  0.84023000  1
  B  B17  1  0.81635900  0.66135700  0.39724900  1
  B  B18  1  0.81765800  0.79653800  0.46212100  1
  B  B19  1  0.51994900  0.32257500  0.55957800  1
  B  B20  1  0.39474100  0.20394400  0.63998200  1
  B  B21  1  0.14652500  0.99156000  0.39707000  1
  B  B22  1  0.00330000  0.80013200  0.55950500  1
  B  B23  1  0.87727400  0.68072700  0.64020000  1
  B  B24  1  0.58939500  0.19771400  0.73660400  1
  B  B25  1  0.39557100  0.00175300  0.86777500  1
  B  B26  1  0.59626500  0.32962300  0.80101300  1
  B  B27  1  0.40461400  0.66852400  0.19892400  1
  B  B28  1  0.13425500  0.31239000  0.35726000  1
  B  B29  1  0.41062300  0.79938100  0.26320200  1
  B  B30  1  0.01095800  0.19453200  0.43760800  1
  B  B31  1  0.86452500  0.00505700  0.59985000  1
  B  B32  1  0.73435300  0.99824500  0.19892500  1
  B  B33  1  0.61533800  0.79330300  0.35723600  1
  B  B34  1  0.49148300  0.67564100  0.43759900  1
  B  B35  1  0.19341900  0.20379700  0.53518400  1
  B  B36  1  0.99560000  0.00593300  0.66576900  1
  B  B37  1  0.19523000  0.34946500  0.59972800  1
  B  B38  1  0.71989400  0.31842400  0.16012200  1
  B  B39  1  0.99749400  0.80402700  0.06594400  1
  B  B40  1  0.59664500  0.19848200  0.24040800  1
  B  B41  1  0.47775900  0.99618800  0.39794700  1
  B  B42  1  0.20082500  0.79935900  0.16012500  1
  B  B43  1  0.07994600  0.68177400  0.24040600  1
  B  B44  1  0.80324100  0.19393000  0.33408000  1
  B  B45  1  0.60430700  0.99740100  0.46527200  1
  B  B46  1  0.80878300  0.32727800  0.39809400  1
  B  B47  1  0.18608200  0.20448100  0.04258800  1
  B  B48  1  0.06472000  0.00274300  0.20080400  1
  B  B49  1  0.39144400  0.19838200  0.13658800  1
  B  B50  1  0.66684600  0.68542600  0.04261800  1
  B  B51  1  0.19334400  0.00045500  0.26859600  1
  B  B52  1  0.39446300  0.33249700  0.20080500  1
  B  B53  1  0.65292900  0.00700000  0.00258200  1
  B  B54  1  0.98438900  0.33836400  0.00275400  1
  B  B55  1  0.78189900  0.00500200  0.07084800  1
  C  C0  1  0.58512400  0.63071600  0.92770400  1
  C  C1  1  0.20070700  0.67895800  0.59906400  1
  C  C2  1  0.20450200  0.61974100  0.72367300  1
  C  C3  1  0.99941000  0.37498700  0.87537000  1
  C  C4  1  0.00468100  0.99341000  0.33382300  1
  C  C5  1  0.27613800  0.99816600  0.80078400  1
  C  C6  1  0.80273100  0.62518500  0.52427800  1
  C  C7  1  0.59103500  0.37600700  0.67608100  1
  C  C8  1  0.59223500  0.99991400  0.13578500  1
  C  C9  1  0.41809700  0.61624800  0.32167900  1
  C  C10  1  0.21358300  0.36911700  0.47211500  1
  C  C11  1  0.99819300  0.62621800  0.12506900  1
  C  C12  1  0.80360100  0.37363800  0.27414200  1
  C  C13  1  0.39540400  0.37603800  0.07599700  1
loop_
_geom_bond_atom_site_label_1
_geom_bond_atom_site_label_2
_geom_bond_distance
_geom_bond_site_symmetry_2
B0 B39 1.532929 1_555
B0 B54 1.691853 1_555
B0 B8 1.707931 1_554
B0 B2 1.846002 1_665
B1 B6 1.567151 1_555
B1 B2 1.608103 1_556
B1 B15 1.778453 1_455
B1 B25 1.856972 1_555
B1 B8 2.049296 1_445
B2 B53 1.677903 1_555
B2 B47 1.702550 1_555
B3 B5 1.543685 1_555
B3 B7 1.870185 1_555
B4 B7 1.618900 1_555
B5 C0 1.699586 1_555
B6 C0 1.878068 1_555
B7 C5 1.667865 1_655
B8 C0 1.225603 1_555
B9 C1 2.276608 1_555
B10 B4 1.545627 1_545
B10 B24 1.602807 1_555
B10 C2 1.902239 1_655
B11 C1 1.505370 1_555
B11 B23 1.581632 1_455
B11 C2 1.696618 1_555
B11 B36 1.798833 1_465
B12 C3 1.226178 1_555
B12 B26 1.703056 1_555
B13 B9 1.599329 1_555
B13 B31 1.685567 1_565
B13 B20 1.717963 1_565
B13 C1 1.810318 1_555
B14 C2 1.236973 1_555
B14 C5 1.657747 1_555
B14 B3 1.722259 1_555
B14 B4 2.016339 1_555
B15 B54 1.554484 1_556
B15 B6 1.565555 1_655
B15 C3 1.688583 1_555
B16 B25 1.546822 1_565
B16 B5 1.588826 1_555
B16 C3 1.897332 1_455
B16 C5 1.909052 1_555
B17 B18 1.552459 1_555
B17 B46 1.695375 1_555
B17 B33 1.702040 1_555
B17 B21 1.830707 1_655
B17 B34 1.955201 1_555
B17 C4 2.239696 1_655
B18 B34 1.570492 1_555
B18 C6 1.693164 1_555
B18 B45 1.781934 1_555
B19 B9 1.564974 1_545
B19 B35 1.572194 1_555
B19 C6 1.892834 1_555
B20 C7 1.226384 1_555
B20 B36 2.009086 1_455
B21 C4 1.559557 1_555
B21 B41 1.684188 1_555
B22 C6 1.231367 1_455
B22 C1 1.645250 1_555
B22 B31 1.714181 1_465
B22 B9 2.035806 1_555
B23 B36 1.560500 1_565
B23 C7 1.913375 1_555
B23 C1 1.936239 1_655
B24 B26 1.530956 1_555
B24 C7 1.693060 1_555
B24 B4 1.798777 1_545
B25 C5 1.585066 1_545
B26 B3 1.697931 1_555
B26 C5 1.805887 1_545
B27 B29 1.527331 1_555
B27 B42 1.694534 1_555
B27 B52 1.702617 1_555
B27 B32 1.827685 1_555
B27 B43 1.965243 1_555
B27 C8 2.232401 1_555
B28 C4 1.518295 1_545
B28 B44 1.585922 1_455
B28 C9 1.901987 1_555
B29 B43 1.582710 1_555
B29 C9 1.679300 1_555
B30 C10 1.227539 1_555
B30 B46 1.703402 1_455
B30 B45 2.056497 1_445
B31 B36 1.587491 1_555
B31 B37 1.872339 1_655
B32 C8 1.557781 1_555
B32 B48 1.679271 1_665
B33 C9 1.230596 1_555
B33 B41 1.706350 1_555
B33 C4 1.949434 1_655
B34 B45 1.560201 1_555
B34 C10 1.883660 1_555
B35 C10 1.690691 1_555
B35 B9 1.789969 1_545
B36 B4 1.849108 1_545
B37 C1 1.675781 1_555
B38 C8 1.521314 1_545
B38 B49 1.575496 1_555
B38 C11 1.894386 1_555
B39 B50 1.584978 1_555
B39 C11 1.667417 1_555
B40 C12 1.231082 1_555
B40 B52 1.708973 1_555
B41 B45 1.607299 1_555
B41 B46 1.834639 1_565
B42 C11 1.231679 1_455
B42 B48 1.702665 1_565
B42 C8 1.965997 1_555
B43 B51 1.549717 1_565
B43 C12 1.875887 1_455
B44 B46 1.527047 1_555
B44 C12 1.687619 1_555
B44 C4 1.728640 1_645
B45 B9 1.851012 1_555
B47 C13 1.228155 1_555
B47 B54 1.709344 1_455
B48 B51 1.625076 1_555
B48 B52 1.827787 1_555
B49 B52 1.535353 1_555
B49 C13 1.690324 1_555
B49 C8 1.716881 1_545
B50 B55 1.553269 1_565
B50 C13 1.864912 1_555
B51 C4 1.784043 1_545
B53 B55 1.635024 1_555
B53 B8 1.692514 1_544
B53 B54 1.836538 1_555
B54 B6 1.949795 1_654
B55 C8 1.782901 1_545
