# generated using pymatgen
data_TmAl3
_symmetry_space_group_name_H-M   'P 1'
_cell_length_a   6.14525704
_cell_length_b   6.14525911
_cell_length_c   4.59077319
_cell_angle_alpha   90.00000000
_cell_angle_beta   90.00000000
_cell_angle_gamma   120.00000935
_symmetry_Int_Tables_number   1
_chemical_formula_structural   TmAl3
_chemical_formula_sum   'Tm2 Al6'
_cell_volume   150.14009272
_cell_formula_units_Z   2
loop_
 _symmetry_equiv_pos_site_id
 _symmetry_equiv_pos_as_xyz
  1  'x, y, z'
loop_
 _atom_site_type_symbol
 _atom_site_label
 _atom_site_symmetry_multiplicity
 _atom_site_fract_x
 _atom_site_fract_y
 _atom_site_fract_z
 _atom_site_occupancy
  Tm  Tm0  1  0.33333300  0.66666600  0.74999900  1
  Tm  Tm1  1  0.66666700  0.33333400  0.25000100  1
  Al  Al0  1  0.85144996  0.70289993  0.74999900  1
  Al  Al1  1  0.29710207  0.14855104  0.74999900  1
  Al  Al2  1  0.85144996  0.14855104  0.74999900  1
  Al  Al3  1  0.14855004  0.29709907  0.25000100  1
  Al  Al4  1  0.70289993  0.85144896  0.25000100  1
  Al  Al5  1  0.14855004  0.85144896  0.25000100  1
loop_
_geom_bond_atom_site_label_1
_geom_bond_atom_site_label_2
_geom_bond_distance
_geom_bond_site_symmetry_2
Al0 Al2 2.738642 1_565
Al0 Al1 2.738644 1_665
Al0 Al4 2.787253 1_555
Al0 Al5 2.787256 1_655
Al0 Al4 2.787268 1_556
Al0 Al5 2.787271 1_656
Al0 Tm1 3.022764 1_555
Al0 Tm1 3.022778 1_556
Al0 Tm0 3.078674 1_555
Al0 Tm0 3.078674 1_655
Al1 Al2 2.738647 1_455
Al1 Al3 2.787256 1_555
Al1 Al5 2.787262 1_545
Al1 Al3 2.787271 1_556
Al1 Al5 2.787278 1_546
Al1 Tm1 3.022760 1_555
Al1 Tm1 3.022774 1_556
Al1 Tm0 3.078671 1_555
Al1 Tm0 3.078677 1_545
Al2 Al3 2.787256 1_655
Al2 Al4 2.787262 1_545
Al2 Al3 2.787271 1_656
Al2 Al4 2.787278 1_546
Al2 Tm1 3.022764 1_555
Al2 Tm1 3.022778 1_556
Al2 Tm0 3.078667 1_655
Al2 Tm0 3.078679 1_545
Al3 Al4 2.738635 1_445
Al3 Al5 2.738635 1_545
Al3 Tm0 3.022768 1_555
Al3 Tm0 3.022782 1_554
Al3 Tm1 3.078671 1_555
Al3 Tm1 3.078677 1_455
Al4 Al5 2.738634 1_655
Al4 Tm0 3.022767 1_555
Al4 Tm0 3.022781 1_554
Al4 Tm1 3.078665 1_555
Al4 Tm1 3.078684 1_565
Al5 Tm0 3.022764 1_555
Al5 Tm0 3.022778 1_554
Al5 Tm1 3.078667 1_455
Al5 Tm1 3.078679 1_565
