# generated using pymatgen
data_NdZnPO
_symmetry_space_group_name_H-M   'P 1'
_cell_length_a   4.00228307
_cell_length_b   4.00228307
_cell_length_c   10.66105900
_cell_angle_alpha   79.18107914
_cell_angle_beta   79.18107914
_cell_angle_gamma   60.00001533
_symmetry_Int_Tables_number   1
_chemical_formula_structural   NdZnPO
_chemical_formula_sum   'Nd2 Zn2 P2 O2'
_cell_volume   144.37704005
_cell_formula_units_Z   2
loop_
 _symmetry_equiv_pos_site_id
 _symmetry_equiv_pos_as_xyz
  1  'x, y, z'
loop_
 _atom_site_type_symbol
 _atom_site_label
 _atom_site_symmetry_multiplicity
 _atom_site_fract_x
 _atom_site_fract_y
 _atom_site_fract_z
 _atom_site_occupancy
  Nd  Nd0  1  0.61869500  0.61869500  0.14391500  1
  Nd  Nd1  1  0.38130500  0.38130500  0.85608500  1
  Zn  Zn0  1  0.19612300  0.19612300  0.41163100  1
  Zn  Zn1  1  0.80387700  0.80387700  0.58836900  1
  P  P0  1  0.11418000  0.11418000  0.65746000  1
  P  P1  1  0.88582000  0.88582000  0.34254000  1
  O  O0  1  0.69493300  0.69493300  0.91520100  1
  O  O1  1  0.30506700  0.30506700  0.08479900  1
loop_
_geom_bond_atom_site_label_1
_geom_bond_atom_site_label_2
_geom_bond_distance
_geom_bond_site_symmetry_2
Nd0 O0 2.380371 1_554
Nd0 O1 2.391227 1_555
Nd0 O1 2.391227 1_655
Nd0 O1 2.391227 1_565
Nd0 P1 3.100452 1_555
Nd0 P1 3.100452 1_545
Nd0 P1 3.100452 1_455
Nd1 O1 2.380371 1_556
Nd1 O0 2.391227 1_555
Nd1 O0 2.391227 1_455
Nd1 O0 2.391227 1_545
Nd1 P0 3.100452 1_555
Nd1 P0 3.100452 1_655
Nd1 P0 3.100452 1_565
P0 Zn1 2.420018 1_445
P0 Zn1 2.420019 1_545
P0 Zn1 2.420019 1_455
P0 Zn0 2.558497 1_555
P1 Zn0 2.420018 1_665
P1 Zn0 2.420019 1_565
P1 Zn0 2.420019 1_655
P1 Zn1 2.558497 1_555
