# generated using pymatgen
data_AlAg2
_symmetry_space_group_name_H-M   'P 1'
_cell_length_a   5.00705575
_cell_length_b   5.00705557
_cell_length_c   4.58486256
_cell_angle_alpha   90.00000000
_cell_angle_beta   90.00000000
_cell_angle_gamma   120.87801454
_symmetry_Int_Tables_number   1
_chemical_formula_structural   AlAg2
_chemical_formula_sum   'Al2 Ag4'
_cell_volume   98.65315793
_cell_formula_units_Z   2
loop_
 _symmetry_equiv_pos_site_id
 _symmetry_equiv_pos_as_xyz
  1  'x, y, z'
loop_
 _atom_site_type_symbol
 _atom_site_label
 _atom_site_symmetry_multiplicity
 _atom_site_fract_x
 _atom_site_fract_y
 _atom_site_fract_z
 _atom_site_occupancy
  Al  Al0  1  0.01089500  0.01089500  0.00000000  1
  Al  Al1  1  0.65583014  0.65583014  0.50000000  1
  Ag  Ag0  1  0.67970649  0.35770150  0.00000000  1
  Ag  Ag1  1  0.35770150  0.67970649  0.00000000  1
  Ag  Ag2  1  0.30910713  0.98709173  0.50000000  1
  Ag  Ag3  1  0.98709173  0.30910713  0.50000000  1
loop_
_geom_bond_atom_site_label_1
_geom_bond_atom_site_label_2
_geom_bond_distance
_geom_bond_site_symmetry_2
Al0 Al1 2.886590 1_445
Al0 Al1 2.886590 1_444
Ag0 Al1 2.771462 1_555
Ag0 Al1 2.771462 1_554
Ag0 Ag1 2.804852 1_555
Ag0 Al0 2.807084 1_665
Ag0 Ag3 2.840359 1_554
Ag0 Ag3 2.840359 1_555
Ag0 Al0 2.874183 1_555
Ag0 Ag1 2.916488 1_545
Ag0 Ag1 2.916488 1_655
Ag0 Ag2 2.933879 1_544
Ag0 Ag2 2.933879 1_545
Ag0 Al0 2.953118 1_655
Ag1 Al1 2.771462 1_554
Ag1 Al1 2.771462 1_555
Ag1 Al0 2.807084 1_665
Ag1 Ag2 2.840358 1_555
Ag1 Ag2 2.840358 1_554
Ag1 Al0 2.874183 1_555
Ag1 Ag3 2.933879 1_454
Ag1 Ag3 2.933879 1_455
Ag1 Al0 2.953118 1_565
Ag2 Al0 2.771579 1_566
Ag2 Al0 2.771579 1_565
Ag2 Ag3 2.804942 1_465
Ag2 Al1 2.807442 1_455
Ag2 Al1 2.873867 1_565
Ag2 Ag3 2.916440 1_455
Ag2 Ag3 2.916440 1_565
Ag2 Al1 2.953068 1_555
Ag3 Al0 2.771579 1_655
Ag3 Al0 2.771579 1_656
Ag3 Al1 2.807441 1_545
Ag3 Al1 2.873867 1_655
Ag3 Al1 2.953068 1_555
