# generated using pymatgen
data_K2AsAuS4
_symmetry_space_group_name_H-M   'P 1'
_cell_length_a   6.93280871
_cell_length_b   6.61767417
_cell_length_c   9.58799398
_cell_angle_alpha   87.05264167
_cell_angle_beta   90.00000000
_cell_angle_gamma   90.00000000
_symmetry_Int_Tables_number   1
_chemical_formula_structural   K2AsAuS4
_chemical_formula_sum   'K4 As2 Au2 S8'
_cell_volume   439.30635330
_cell_formula_units_Z   2
loop_
 _symmetry_equiv_pos_site_id
 _symmetry_equiv_pos_as_xyz
  1  'x, y, z'
loop_
 _atom_site_type_symbol
 _atom_site_label
 _atom_site_symmetry_multiplicity
 _atom_site_fract_x
 _atom_site_fract_y
 _atom_site_fract_z
 _atom_site_occupancy
  K  K0  1  0.25000000  0.79964334  0.53478438  1
  K  K1  1  0.75000000  0.52900715  0.83877135  1
  K  K2  1  0.75000000  0.20035666  0.46521562  1
  K  K3  1  0.25000000  0.47099285  0.16122865  1
  As  As0  1  0.75000000  0.72630654  0.28094415  1
  As  As1  1  0.25000000  0.27369346  0.71905585  1
  Au  Au0  1  -0.00000000  -0.00000000  -0.00000000  1
  Au  Au1  1  0.50000000  -0.00000000  -0.00000000  1
  S  S0  1  0.25000000  0.30610651  0.49601354  1
  S  S1  1  0.75000000  0.69389349  0.50398646  1
  S  S2  1  0.25000000  0.54806405  0.82720398  1
  S  S3  1  0.75000000  0.45193595  0.17279602  1
  S  S4  1  0.51209812  0.09274518  0.76607926  1
  S  S5  1  0.98790188  0.09274518  0.76607926  1
  S  S6  1  0.48790188  0.90725482  0.23392074  1
  S  S7  1  0.01209812  0.90725482  0.23392074  1
loop_
_geom_bond_atom_site_label_1
_geom_bond_atom_site_label_2
_geom_bond_distance
_geom_bond_site_symmetry_2
K0 S2 3.186314 1_555
K0 S0 3.306090 1_555
K0 S0 3.353109 1_565
K0 S6 3.367126 1_555
K0 S7 3.367126 1_555
K0 S4 3.524820 1_565
K0 S5 3.524820 1_465
K0 S1 3.551641 1_555
K0 S1 3.551641 1_455
K1 S3 3.216982 1_556
K1 S1 3.336766 1_555
K1 S5 3.427532 1_555
K1 S4 3.427532 1_555
K1 S2 3.470263 1_555
K1 S2 3.470263 1_655
K2 S3 3.186314 1_555
K2 S1 3.306090 1_555
K2 S1 3.353109 1_545
K2 S4 3.367126 1_555
K2 S5 3.367126 1_555
K2 S6 3.524820 1_545
K2 S7 3.524820 1_645
K2 S0 3.551641 1_555
K2 S0 3.551641 1_655
K3 S2 3.216982 1_554
K3 S0 3.336766 1_555
K3 S6 3.427532 1_555
K3 S7 3.427532 1_555
K3 S3 3.470263 1_455
K3 S3 3.470263 1_555
As0 S3 2.136720 1_555
As0 S1 2.138256 1_555
As0 S6 2.209847 1_555
As0 S7 2.209847 1_655
As1 S2 2.136720 1_555
As1 S0 2.138256 1_555
As1 S4 2.209847 1_555
As1 S5 2.209847 1_455
Au0 S5 2.296184 1_454
Au0 S7 2.296184 1_545
Au1 S4 2.296184 1_554
Au1 S6 2.296184 1_545
