# generated using pymatgen
data_AcDy3
_symmetry_space_group_name_H-M   'P 1'
_cell_length_a   6.31431517
_cell_length_b   6.31431517
_cell_length_c   6.31431517
_cell_angle_alpha   131.34458582
_cell_angle_beta   131.34458582
_cell_angle_gamma   71.26617318
_symmetry_Int_Tables_number   1
_chemical_formula_structural   AcDy3
_chemical_formula_sum   'Ac1 Dy3'
_cell_volume   138.90027974
_cell_formula_units_Z   1
loop_
 _symmetry_equiv_pos_site_id
 _symmetry_equiv_pos_as_xyz
  1  'x, y, z'
loop_
 _atom_site_type_symbol
 _atom_site_label
 _atom_site_symmetry_multiplicity
 _atom_site_fract_x
 _atom_site_fract_y
 _atom_site_fract_z
 _atom_site_occupancy
  Ac  Ac0  1  0.00000000  0.00000000  0.00000000  1
  Dy  Dy0  1  0.75000000  0.25000000  0.50000000  1
  Dy  Dy1  1  0.25000000  0.75000000  0.50000000  1
  Dy  Dy2  1  0.50000000  0.50000000  0.00000000  1
loop_
_geom_bond_atom_site_label_1
_geom_bond_atom_site_label_2
_geom_bond_distance
_geom_bond_site_symmetry_2
Ac0 Dy0 3.653875 1_455
Ac0 Dy0 3.653875 1_444
Ac0 Dy0 3.653875 1_454
Ac0 Dy1 3.653875 1_444
Ac0 Dy0 3.653875 1_555
Ac0 Dy1 3.653875 1_544
Ac0 Dy1 3.653875 1_555
Ac0 Dy1 3.653875 1_545
Ac0 Dy2 3.678672 1_444
Ac0 Dy2 3.678672 1_455
Ac0 Dy2 3.678672 1_545
Ac0 Dy2 3.678672 1_556
Dy0 Dy2 3.653875 1_555
Dy0 Dy2 3.653875 1_545
Dy0 Dy2 3.653875 1_556
Dy0 Dy2 3.653875 1_656
Dy0 Dy1 3.678672 1_544
Dy0 Dy1 3.678672 1_645
Dy0 Dy1 3.678672 1_656
Dy0 Dy1 3.678672 1_555
Dy1 Dy2 3.653875 1_555
Dy1 Dy2 3.653875 1_556
Dy1 Dy2 3.653875 1_566
Dy1 Dy2 3.653875 1_455
