# generated using pymatgen
data_PrGeRu
_symmetry_space_group_name_H-M   'P 1'
_cell_length_a   4.31688819
_cell_length_b   4.31688610
_cell_length_c   6.94301053
_cell_angle_alpha   90.00016591
_cell_angle_beta   89.99991702
_cell_angle_gamma   89.99994452
_symmetry_Int_Tables_number   1
_chemical_formula_structural   PrGeRu
_chemical_formula_sum   'Pr2 Ge2 Ru2'
_cell_volume   129.38657426
_cell_formula_units_Z   2
loop_
 _symmetry_equiv_pos_site_id
 _symmetry_equiv_pos_as_xyz
  1  'x, y, z'
loop_
 _atom_site_type_symbol
 _atom_site_label
 _atom_site_symmetry_multiplicity
 _atom_site_fract_x
 _atom_site_fract_y
 _atom_site_fract_z
 _atom_site_occupancy
  Pr  Pr0  1  0.25000000  0.24999900  0.68808365  1
  Pr  Pr1  1  0.75000000  0.75000000  0.31191635  1
  Ge  Ge0  1  0.25000000  0.25000000  0.18628087  1
  Ge  Ge1  1  0.75000000  0.75000000  0.81371913  1
  Ru  Ru0  1  0.75000000  0.25000000  -0.00000000  1
  Ru  Ru1  1  0.25000000  0.75000000  0.00000100  1
loop_
_geom_bond_atom_site_label_1
_geom_bond_atom_site_label_2
_geom_bond_distance
_geom_bond_site_symmetry_2
Pr0 Ru0 3.057590 1_456
Pr0 Ru0 3.057595 1_556
Pr0 Ru1 3.057595 1_556
Pr0 Ru1 3.057598 1_546
Pr1 Ru1 3.057585 1_655
Pr1 Ru0 3.057587 1_555
Pr1 Ru1 3.057590 1_555
Pr1 Ru0 3.057596 1_565
Ge0 Ru1 2.516266 1_545
Ge0 Ru0 2.516272 1_555
Ge0 Ru1 2.516273 1_555
Ge0 Ru0 2.516276 1_455
Ge0 Pr1 3.174684 1_455
Ge0 Pr1 3.174689 1_555
Ge0 Pr1 3.174689 1_545
Ge0 Pr1 3.174690 1_445
Ge0 Pr0 3.484022 1_555
Ge1 Ru0 2.516270 1_566
Ge1 Ru1 2.516276 1_556
Ge1 Ru0 2.516276 1_556
Ge1 Ru1 2.516279 1_656
Ge1 Pr0 3.174686 1_565
Ge1 Pr0 3.174687 1_655
Ge1 Pr0 3.174687 1_665
Ge1 Pr0 3.174692 1_555
Ge1 Pr1 3.484022 1_555
