# generated using pymatgen
data_LiMnSO4F
_symmetry_space_group_name_H-M   'P 1'
_cell_length_a   5.27669554
_cell_length_b   5.67095678
_cell_length_c   7.57354937
_cell_angle_alpha   107.14321792
_cell_angle_beta   108.41858000
_cell_angle_gamma   96.33692047
_symmetry_Int_Tables_number   1
_chemical_formula_structural   LiMnSO4F
_chemical_formula_sum   'Li2 Mn2 S2 O8 F2'
_cell_volume   200.22441326
_cell_formula_units_Z   2
loop_
 _symmetry_equiv_pos_site_id
 _symmetry_equiv_pos_as_xyz
  1  'x, y, z'
loop_
 _atom_site_type_symbol
 _atom_site_label
 _atom_site_symmetry_multiplicity
 _atom_site_fract_x
 _atom_site_fract_y
 _atom_site_fract_z
 _atom_site_occupancy
  Li  Li0  1  0.26068200  0.62001200  0.79279500  1
  Li  Li1  1  0.73938400  0.37988700  0.20711000  1
  Mn  Mn0  1  0.99997800  0.00010500  0.00015000  1
  Mn  Mn1  1  0.99985900  0.99969200  0.50001900  1
  S  S0  1  0.32657600  0.63106700  0.24279000  1
  S  S1  1  0.67340400  0.36897500  0.75714800  1
  O  O0  1  0.60028500  0.75123800  0.40016000  1
  O  O1  1  0.39957400  0.24880500  0.59987700  1
  O  O2  1  0.10729500  0.65068300  0.32855200  1
  O  O3  1  0.89259900  0.34926000  0.67127800  1
  O  O4  1  0.32840300  0.35889400  0.14913600  1
  O  O5  1  0.67166500  0.64122400  0.85077900  1
  O  O6  1  0.27362700  0.75200300  0.08775700  1
  O  O7  1  0.72652100  0.24812000  0.91226400  1
  F  F0  1  0.12119500  0.89848500  0.75454000  1
  F  F1  1  0.87895400  0.10155000  0.24564500  1
loop_
_geom_bond_atom_site_label_1
_geom_bond_atom_site_label_2
_geom_bond_distance
_geom_bond_site_symmetry_2
Li0 O5 2.054205 1_555
Li0 O3 2.087100 1_455
Li0 O6 2.112305 1_556
Li0 O1 2.511442 1_555
Li1 O4 2.054355 1_555
Li1 O2 2.086621 1_655
Li1 O7 2.111574 1_554
Li1 O0 2.513060 1_555
Mn0 O7 2.212762 1_554
Mn0 O6 2.213195 1_645
Mn0 O4 2.246972 1_655
Mn0 O5 2.246997 1_544
Mn1 O0 2.170494 1_555
Mn1 O1 2.172726 1_665
Mn1 O2 2.263351 1_655
Mn1 O3 2.264565 1_565
O0 S0 1.478856 1_555
O1 S1 1.479014 1_555
O2 S0 1.494597 1_555
O3 S1 1.494735 1_555
O4 S0 1.499244 1_555
O5 S1 1.499473 1_555
O6 S0 1.495580 1_555
O7 S1 1.495786 1_555
F0 Li0 1.873805 1_555
F0 Mn0 2.098239 1_466
F0 Mn1 2.099648 1_455
F1 Li1 1.873870 1_555
F1 Mn0 2.096781 1_555
F1 Mn1 2.100677 1_545
