# generated using pymatgen
data_PrPd
_symmetry_space_group_name_H-M   'P 1'
_cell_length_a   3.93068553
_cell_length_b   4.65075077
_cell_length_c   5.78396949
_cell_angle_alpha   90.00000000
_cell_angle_beta   70.13583247
_cell_angle_gamma   90.00000000
_symmetry_Int_Tables_number   1
_chemical_formula_structural   PrPd
_chemical_formula_sum   'Pr2 Pd2'
_cell_volume   99.44353092
_cell_formula_units_Z   2
loop_
 _symmetry_equiv_pos_site_id
 _symmetry_equiv_pos_as_xyz
  1  'x, y, z'
loop_
 _atom_site_type_symbol
 _atom_site_label
 _atom_site_symmetry_multiplicity
 _atom_site_fract_x
 _atom_site_fract_y
 _atom_site_fract_z
 _atom_site_occupancy
  Pr  Pr0  1  0.13672882  0.75000000  0.72654135  1
  Pr  Pr1  1  0.86327118  0.25000000  0.27345865  1
  Pd  Pd0  1  0.41518185  0.75000000  0.16963530  1
  Pd  Pd1  1  0.58481815  0.25000000  0.83036470  1
loop_
_geom_bond_atom_site_label_1
_geom_bond_atom_site_label_2
_geom_bond_distance
_geom_bond_site_symmetry_2
Pd0 Pd1 2.968756 1_554
Pd0 Pd1 2.968756 1_564
Pd0 Pr0 3.029473 1_555
Pd0 Pr1 3.096596 1_455
Pd0 Pr1 3.096596 1_465
Pd0 Pr1 3.096601 1_565
Pd0 Pr1 3.096601 1_555
Pd0 Pr0 3.110045 1_654
Pd0 Pr0 3.110046 1_554
Pd1 Pr1 3.029473 1_555
Pd1 Pr0 3.096596 1_655
Pd1 Pr0 3.096596 1_645
Pd1 Pr0 3.096601 1_555
Pd1 Pr0 3.096601 1_545
Pd1 Pr1 3.110045 1_456
Pd1 Pr1 3.110046 1_556
