# generated using pymatgen
data_Nb3Cr
_symmetry_space_group_name_H-M   'P 1'
_cell_length_a   4.13638200
_cell_length_b   4.13638200
_cell_length_c   4.13638200
_cell_angle_alpha   90.00000000
_cell_angle_beta   90.00000000
_cell_angle_gamma   90.00000000
_symmetry_Int_Tables_number   1
_chemical_formula_structural   Nb3Cr
_chemical_formula_sum   'Nb3 Cr1'
_cell_volume   70.77207331
_cell_formula_units_Z   1
loop_
 _symmetry_equiv_pos_site_id
 _symmetry_equiv_pos_as_xyz
  1  'x, y, z'
loop_
 _atom_site_type_symbol
 _atom_site_label
 _atom_site_symmetry_multiplicity
 _atom_site_fract_x
 _atom_site_fract_y
 _atom_site_fract_z
 _atom_site_occupancy
  Nb  Nb0  1  0.00000000  0.50000000  0.50000000  1
  Nb  Nb1  1  0.50000000  0.50000000  0.00000000  1
  Nb  Nb2  1  0.50000000  0.00000000  0.50000000  1
  Cr  Cr0  1  0.00000000  0.00000000  0.00000000  1
loop_
_geom_bond_atom_site_label_1
_geom_bond_atom_site_label_2
_geom_bond_distance
_geom_bond_site_symmetry_2
Nb0 Nb2 2.924864 1_455
Nb0 Nb2 2.924864 1_555
Nb0 Nb1 2.924864 1_455
Nb0 Nb2 2.924864 1_465
Nb0 Nb2 2.924864 1_565
Nb0 Nb1 2.924864 1_456
Nb0 Nb1 2.924864 1_556
Nb0 Nb1 2.924864 1_555
Nb1 Nb2 2.924864 1_555
Nb1 Nb2 2.924864 1_554
Nb1 Nb2 2.924864 1_564
Nb1 Nb2 2.924864 1_565
Cr0 Nb2 2.924864 1_555
Cr0 Nb2 2.924864 1_554
Cr0 Nb0 2.924864 1_555
Cr0 Nb0 2.924864 1_554
Cr0 Nb0 2.924864 1_545
Cr0 Nb1 2.924864 1_445
Cr0 Nb1 2.924864 1_455
Cr0 Nb2 2.924864 1_454
Cr0 Nb1 2.924864 1_545
Cr0 Nb0 2.924864 1_544
Cr0 Nb2 2.924864 1_455
Cr0 Nb1 2.924864 1_555
