# generated using pymatgen
data_Ti2Si2O5
_symmetry_space_group_name_H-M   'P 1'
_cell_length_a   3.78656700
_cell_length_b   3.78656700
_cell_length_c   5.80933000
_cell_angle_alpha   90.00000000
_cell_angle_beta   90.00000000
_cell_angle_gamma   90.00000000
_symmetry_Int_Tables_number   1
_chemical_formula_structural   Ti2Si2O5
_chemical_formula_sum   'Ti2 Si2 O5'
_cell_volume   83.29469432
_cell_formula_units_Z   1
loop_
 _symmetry_equiv_pos_site_id
 _symmetry_equiv_pos_as_xyz
  1  'x, y, z'
loop_
 _atom_site_type_symbol
 _atom_site_label
 _atom_site_symmetry_multiplicity
 _atom_site_fract_x
 _atom_site_fract_y
 _atom_site_fract_z
 _atom_site_occupancy
  Ti  Ti0  1  0.00000000  0.00000000  0.00000000  1
  Ti  Ti1  1  0.00000000  0.00000000  0.50000000  1
  Si  Si0  1  0.50000000  0.50000000  0.20917700  1
  Si  Si1  1  0.50000000  0.50000000  0.79082300  1
  O  O0  1  0.50000000  0.00000000  0.22792900  1
  O  O1  1  0.50000000  0.00000000  0.77207100  1
  O  O2  1  0.50000000  0.50000000  0.50000000  1
  O  O3  1  0.00000000  0.50000000  0.22792900  1
  O  O4  1  0.00000000  0.50000000  0.77207100  1
loop_
_geom_bond_atom_site_label_1
_geom_bond_atom_site_label_2
_geom_bond_distance
_geom_bond_site_symmetry_2
O0 Si0 1.896415 1_555
O0 Si0 1.896415 1_545
O0 Ti0 2.310368 1_555
O0 Ti0 2.310368 1_655
O0 Ti1 2.466305 1_655
O0 Ti1 2.466305 1_555
O1 Si1 1.896415 1_555
O1 Si1 1.896415 1_545
O1 Ti0 2.310368 1_556
O1 Ti0 2.310368 1_656
O1 Ti1 2.466305 1_555
O1 Ti1 2.466305 1_655
O2 Si1 1.689487 1_555
O2 Si0 1.689487 1_555
O2 Ti1 2.677507 1_555
O2 Ti1 2.677507 1_565
O2 Ti1 2.677507 1_655
O2 Ti1 2.677507 1_665
O3 Si0 1.896415 1_455
O3 Si0 1.896415 1_555
O3 Ti0 2.310368 1_555
O3 Ti0 2.310368 1_565
O3 Ti1 2.466305 1_555
O3 Ti1 2.466305 1_565
O4 Si1 1.896415 1_455
O4 Si1 1.896415 1_555
O4 Ti0 2.310368 1_556
O4 Ti0 2.310368 1_566
O4 Ti1 2.466305 1_555
O4 Ti1 2.466305 1_565
