# generated using pymatgen
data_Ca3GeO
_symmetry_space_group_name_H-M   'P 1'
_cell_length_a   4.71483028
_cell_length_b   4.71483028
_cell_length_c   4.71483028
_cell_angle_alpha   90.00000000
_cell_angle_beta   90.00000000
_cell_angle_gamma   90.00000000
_symmetry_Int_Tables_number   1
_chemical_formula_structural   Ca3GeO
_chemical_formula_sum   'Ca3 Ge1 O1'
_cell_volume   104.80890703
_cell_formula_units_Z   1
loop_
 _symmetry_equiv_pos_site_id
 _symmetry_equiv_pos_as_xyz
  1  'x, y, z'
loop_
 _atom_site_type_symbol
 _atom_site_label
 _atom_site_symmetry_multiplicity
 _atom_site_fract_x
 _atom_site_fract_y
 _atom_site_fract_z
 _atom_site_occupancy
  Ca  Ca0  1  0.50000000  0.50000000  -0.00000000  1
  Ca  Ca1  1  0.50000000  -0.00000000  0.50000000  1
  Ca  Ca2  1  -0.00000000  0.50000000  0.50000000  1
  Ge  Ge0  1  -0.00000000  -0.00000000  -0.00000000  1
  O  O0  1  0.50000000  0.50000000  0.50000000  1
loop_
_geom_bond_atom_site_label_1
_geom_bond_atom_site_label_2
_geom_bond_distance
_geom_bond_site_symmetry_2
Ca0 O0 2.357415 1_555
Ca0 O0 2.357415 1_554
Ca0 Ge0 3.333888 1_555
Ca0 Ge0 3.333888 1_565
Ca0 Ge0 3.333888 1_665
Ca0 Ge0 3.333888 1_655
Ca1 O0 2.357415 1_555
Ca1 O0 2.357415 1_545
Ca1 Ge0 3.333888 1_555
Ca1 Ge0 3.333888 1_556
Ca1 Ge0 3.333888 1_656
Ca1 Ge0 3.333888 1_655
Ca2 O0 2.357415 1_455
Ca2 O0 2.357415 1_555
Ca2 Ge0 3.333888 1_555
Ca2 Ge0 3.333888 1_556
Ca2 Ge0 3.333888 1_565
Ca2 Ge0 3.333888 1_566
