# generated using pymatgen
data_NaSnSb
_symmetry_space_group_name_H-M   'P 1'
_cell_length_a   4.32609995
_cell_length_b   4.32609959
_cell_length_c   11.77028027
_cell_angle_alpha   90.00000000
_cell_angle_beta   90.00000000
_cell_angle_gamma   120.00000270
_symmetry_Int_Tables_number   1
_chemical_formula_structural   NaSnSb
_chemical_formula_sum   'Na2 Sn2 Sb2'
_cell_volume   190.77017847
_cell_formula_units_Z   2
loop_
 _symmetry_equiv_pos_site_id
 _symmetry_equiv_pos_as_xyz
  1  'x, y, z'
loop_
 _atom_site_type_symbol
 _atom_site_label
 _atom_site_symmetry_multiplicity
 _atom_site_fract_x
 _atom_site_fract_y
 _atom_site_fract_z
 _atom_site_occupancy
  Na  Na0  1  0.33333300  0.66666700  0.99801191  1
  Na  Na1  1  0.66666700  0.33333300  0.49801191  1
  Sn  Sn0  1  -0.00000000  0.00000000  0.30567905  1
  Sn  Sn1  1  0.00000000  -0.00000000  0.80567905  1
  Sb  Sb0  1  0.33333300  0.66666700  0.68080804  1
  Sb  Sb1  1  0.66666700  0.33333300  0.18080804  1
loop_
_geom_bond_atom_site_label_1
_geom_bond_atom_site_label_2
_geom_bond_distance
_geom_bond_site_symmetry_2
Na0 Sb1 3.296602 1_566
Na0 Sb1 3.296602 1_456
Na0 Sb1 3.296608 1_556
Na0 Sn1 3.370936 1_565
Na0 Sn1 3.370939 1_555
Na0 Sn1 3.370939 1_665
Na1 Sb0 3.296602 1_545
Na1 Sb0 3.296602 1_655
Na1 Sb0 3.296608 1_555
Na1 Sn0 3.370936 1_655
Na1 Sn0 3.370939 1_665
Na1 Sn0 3.370939 1_555
Sb0 Sn1 2.898031 1_565
Sb0 Sn1 2.898034 1_555
Sb0 Sn1 2.898034 1_665
Sb1 Sn0 2.898031 1_655
Sb1 Sn0 2.898034 1_665
Sb1 Sn0 2.898034 1_555
