# generated using pymatgen
data_La8MgAl7O24
_symmetry_space_group_name_H-M   'P 1'
_cell_length_a   7.66872900
_cell_length_b   7.66872900
_cell_length_c   7.66872900
_cell_angle_alpha   90.00000000
_cell_angle_beta   90.00000000
_cell_angle_gamma   90.00000000
_symmetry_Int_Tables_number   1
_chemical_formula_structural   La8MgAl7O24
_chemical_formula_sum   'La8 Mg1 Al7 O24'
_cell_volume   450.99338557
_cell_formula_units_Z   1
loop_
 _symmetry_equiv_pos_site_id
 _symmetry_equiv_pos_as_xyz
  1  'x, y, z'
loop_
 _atom_site_type_symbol
 _atom_site_label
 _atom_site_symmetry_multiplicity
 _atom_site_fract_x
 _atom_site_fract_y
 _atom_site_fract_z
 _atom_site_occupancy
  La  La0  1  0.24890100  0.24890100  0.24890100  1
  La  La1  1  0.24890100  0.24890100  0.75109900  1
  La  La2  1  0.24890100  0.75109900  0.24890100  1
  La  La3  1  0.24890100  0.75109900  0.75109900  1
  La  La4  1  0.75109900  0.24890100  0.24890100  1
  La  La5  1  0.75109900  0.24890100  0.75109900  1
  La  La6  1  0.75109900  0.75109900  0.24890100  1
  La  La7  1  0.75109900  0.75109900  0.75109900  1
  Mg  Mg0  1  0.00000000  0.00000000  0.00000000  1
  Al  Al0  1  0.00000000  0.00000000  0.50000000  1
  Al  Al1  1  0.00000000  0.50000000  0.00000000  1
  Al  Al2  1  0.00000000  0.50000000  0.50000000  1
  Al  Al3  1  0.50000000  0.00000000  0.00000000  1
  Al  Al4  1  0.50000000  0.00000000  0.50000000  1
  Al  Al5  1  0.50000000  0.50000000  0.00000000  1
  Al  Al6  1  0.50000000  0.50000000  0.50000000  1
  O  O0  1  0.00000000  0.26060300  0.00000000  1
  O  O1  1  0.00000000  0.25181000  0.50000000  1
  O  O2  1  0.00000000  0.73939700  0.00000000  1
  O  O3  1  0.00000000  0.74819000  0.50000000  1
  O  O4  1  0.50000000  0.25181000  0.00000000  1
  O  O5  1  0.50000000  0.25025600  0.50000000  1
  O  O6  1  0.50000000  0.74819000  0.00000000  1
  O  O7  1  0.50000000  0.74974400  0.50000000  1
  O  O8  1  0.00000000  0.00000000  0.26060300  1
  O  O9  1  0.00000000  0.00000000  0.73939700  1
  O  O10  1  0.00000000  0.50000000  0.25181000  1
  O  O11  1  0.00000000  0.50000000  0.74819000  1
  O  O12  1  0.50000000  0.00000000  0.25181000  1
  O  O13  1  0.50000000  0.00000000  0.74819000  1
  O  O14  1  0.50000000  0.50000000  0.25025600  1
  O  O15  1  0.50000000  0.50000000  0.74974400  1
  O  O16  1  0.26060300  0.00000000  0.00000000  1
  O  O17  1  0.25181000  0.00000000  0.50000000  1
  O  O18  1  0.25181000  0.50000000  0.00000000  1
  O  O19  1  0.25025600  0.50000000  0.50000000  1
  O  O20  1  0.73939700  0.00000000  0.00000000  1
  O  O21  1  0.74819000  0.00000000  0.50000000  1
  O  O22  1  0.74819000  0.50000000  0.00000000  1
  O  O23  1  0.74974400  0.50000000  0.50000000  1
loop_
_geom_bond_atom_site_label_1
_geom_bond_atom_site_label_2
_geom_bond_distance
_geom_bond_site_symmetry_2
La0 O8 2.700877 1_555
La0 O0 2.700877 1_555
La0 O16 2.700877 1_555
La0 O12 2.711423 1_555
La0 O10 2.711423 1_555
La0 O17 2.711423 1_555
La0 O4 2.711423 1_555
La0 O1 2.711423 1_555
La0 O18 2.711423 1_555
La0 O5 2.723244 1_555
La0 O14 2.723244 1_555
La0 O19 2.723244 1_555
La1 O9 2.700877 1_555
La1 O16 2.700877 1_556
La1 O0 2.700877 1_556
La1 O13 2.711423 1_555
La1 O4 2.711423 1_556
La1 O17 2.711423 1_555
La1 O11 2.711423 1_555
La1 O1 2.711423 1_555
La1 O18 2.711423 1_556
La1 O15 2.723244 1_555
La1 O5 2.723244 1_555
La1 O19 2.723244 1_555
La2 O16 2.700877 1_565
La2 O8 2.700877 1_565
La2 O2 2.700877 1_555
La2 O10 2.711423 1_555
La2 O12 2.711423 1_565
La2 O3 2.711423 1_555
La2 O17 2.711423 1_565
La2 O6 2.711423 1_555
La2 O18 2.711423 1_555
La2 O14 2.723244 1_555
La2 O7 2.723244 1_555
La2 O19 2.723244 1_555
La3 O2 2.700877 1_556
La3 O9 2.700877 1_565
La3 O16 2.700877 1_566
La3 O3 2.711423 1_555
La3 O11 2.711423 1_555
La3 O13 2.711423 1_565
La3 O17 2.711423 1_565
La3 O6 2.711423 1_556
La3 O18 2.711423 1_556
La3 O15 2.723244 1_555
La3 O7 2.723244 1_555
La3 O19 2.723244 1_555
La4 O20 2.700877 1_555
La4 O8 2.700877 1_655
La4 O0 2.700877 1_655
La4 O22 2.711423 1_555
La4 O12 2.711423 1_555
La4 O4 2.711423 1_555
La4 O1 2.711423 1_655
La4 O10 2.711423 1_655
La4 O21 2.711423 1_555
La4 O23 2.723244 1_555
La4 O5 2.723244 1_555
La4 O14 2.723244 1_555
La5 O9 2.700877 1_655
La5 O20 2.700877 1_556
La5 O0 2.700877 1_656
La5 O13 2.711423 1_555
La5 O4 2.711423 1_556
La5 O22 2.711423 1_556
La5 O1 2.711423 1_655
La5 O21 2.711423 1_555
La5 O11 2.711423 1_655
La5 O23 2.723244 1_555
La5 O15 2.723244 1_555
La5 O5 2.723244 1_555
La6 O20 2.700877 1_565
La6 O2 2.700877 1_655
La6 O8 2.700877 1_665
La6 O22 2.711423 1_555
La6 O12 2.711423 1_565
La6 O3 2.711423 1_655
La6 O21 2.711423 1_565
La6 O10 2.711423 1_655
La6 O6 2.711423 1_555
La6 O23 2.723244 1_555
La6 O14 2.723244 1_555
La6 O7 2.723244 1_555
La7 O9 2.700877 1_665
La7 O20 2.700877 1_566
La7 O2 2.700877 1_656
La7 O3 2.711423 1_655
La7 O22 2.711423 1_556
La7 O21 2.711423 1_565
La7 O13 2.711423 1_565
La7 O6 2.711423 1_556
La7 O11 2.711423 1_655
La7 O23 2.723244 1_555
La7 O15 2.723244 1_555
La7 O7 2.723244 1_555
Mg0 O8 1.998494 1_555
Mg0 O0 1.998494 1_555
Mg0 O16 1.998494 1_555
Mg0 O2 1.998494 1_545
Mg0 O20 1.998494 1_455
Mg0 O9 1.998494 1_554
Al0 O9 1.835871 1_555
Al0 O8 1.835871 1_555
Al0 O21 1.931063 1_455
Al0 O17 1.931063 1_555
Al0 O1 1.931063 1_555
Al0 O3 1.931063 1_545
Al1 O2 1.835871 1_555
Al1 O0 1.835871 1_555
Al1 O11 1.931063 1_554
Al1 O18 1.931063 1_555
Al1 O22 1.931063 1_455
Al1 O10 1.931063 1_555
Al2 O10 1.903302 1_555
Al2 O3 1.903302 1_555
Al2 O11 1.903302 1_555
Al2 O1 1.903302 1_555
Al2 O19 1.919145 1_555
Al2 O23 1.919145 1_455
Al3 O20 1.835871 1_555
Al3 O16 1.835871 1_555
Al3 O4 1.931063 1_555
Al3 O6 1.931063 1_545
Al3 O13 1.931063 1_554
Al3 O12 1.931063 1_555
Al4 O12 1.903302 1_555
Al4 O13 1.903302 1_555
Al4 O21 1.903302 1_555
Al4 O17 1.903302 1_555
Al4 O5 1.919145 1_555
Al4 O7 1.919145 1_545
Al5 O6 1.903302 1_555
Al5 O18 1.903302 1_555
Al5 O22 1.903302 1_555
Al5 O4 1.903302 1_555
Al5 O14 1.919145 1_555
Al5 O15 1.919145 1_554
Al6 O15 1.915219 1_555
Al6 O7 1.915219 1_555
Al6 O23 1.915219 1_555
Al6 O5 1.915219 1_555
Al6 O14 1.915219 1_555
Al6 O19 1.915219 1_555
