# generated using pymatgen
data_Re3Si
_symmetry_space_group_name_H-M   'P 1'
_cell_length_a   5.49228806
_cell_length_b   5.49228806
_cell_length_c   4.42665200
_cell_angle_alpha   90.00000000
_cell_angle_beta   90.00000000
_cell_angle_gamma   120.00000070
_symmetry_Int_Tables_number   1
_chemical_formula_structural   Re3Si
_chemical_formula_sum   'Re6 Si2'
_cell_volume   115.64120911
_cell_formula_units_Z   2
loop_
 _symmetry_equiv_pos_site_id
 _symmetry_equiv_pos_as_xyz
  1  'x, y, z'
loop_
 _atom_site_type_symbol
 _atom_site_label
 _atom_site_symmetry_multiplicity
 _atom_site_fract_x
 _atom_site_fract_y
 _atom_site_fract_z
 _atom_site_occupancy
  Re  Re0  1  0.17028900  0.34057800  0.25000000  1
  Re  Re1  1  0.65942200  0.82971100  0.25000000  1
  Re  Re2  1  0.17028900  0.82971100  0.25000000  1
  Re  Re3  1  0.82971100  0.65942200  0.75000000  1
  Re  Re4  1  0.34057800  0.17028900  0.75000000  1
  Re  Re5  1  0.82971100  0.17028900  0.75000000  1
  Si  Si0  1  0.33333300  0.66666700  0.75000000  1
  Si  Si1  1  0.66666700  0.33333300  0.25000000  1
loop_
_geom_bond_atom_site_label_1
_geom_bond_atom_site_label_2
_geom_bond_distance
_geom_bond_site_symmetry_2
Re0 Re1 2.686459 1_555
Re0 Re2 2.686459 1_555
Re0 Si0 2.702685 1_554
Re0 Si0 2.702685 1_555
Re0 Re5 2.742816 1_455
Re0 Re5 2.742816 1_454
Re0 Re4 2.742816 1_555
Re0 Re4 2.742816 1_554
Re0 Si1 2.746357 1_455
Re0 Si1 2.746363 1_555
Re0 Re1 2.805829 1_445
Re0 Re2 2.805829 1_545
Re1 Re2 2.686459 1_555
Re1 Si0 2.702685 1_554
Re1 Si0 2.702685 1_555
Re1 Re5 2.742816 1_564
Re1 Re5 2.742816 1_565
Re1 Re3 2.742816 1_554
Re1 Re3 2.742816 1_555
Re1 Si1 2.746357 1_565
Re1 Si1 2.746363 1_555
Re1 Re2 2.805829 1_655
Re2 Si0 2.702682 1_555
Re2 Si0 2.702682 1_554
Re2 Re4 2.742816 1_565
Re2 Re4 2.742816 1_564
Re2 Re3 2.742816 1_455
Re2 Re3 2.742816 1_454
Re2 Si1 2.746360 1_455
Re2 Si1 2.746360 1_565
Re3 Re4 2.686459 1_555
Re3 Re5 2.686459 1_555
Re3 Si1 2.702685 1_556
Re3 Si1 2.702685 1_555
Re3 Si0 2.746357 1_655
Re3 Si0 2.746363 1_555
Re3 Re4 2.805829 1_665
Re3 Re5 2.805829 1_565
Re4 Re5 2.686459 1_555
Re4 Si1 2.702685 1_556
Re4 Si1 2.702685 1_555
Re4 Si0 2.746357 1_545
Re4 Si0 2.746363 1_555
Re4 Re5 2.805829 1_455
Re5 Si1 2.702682 1_555
Re5 Si1 2.702682 1_556
Re5 Si0 2.746360 1_655
Re5 Si0 2.746360 1_545
