# generated using pymatgen
data_Si3W
_symmetry_space_group_name_H-M   'P 1'
_cell_length_a   5.25197632
_cell_length_b   5.25197632
_cell_length_c   4.80038500
_cell_angle_alpha   90.00000000
_cell_angle_beta   90.00000000
_cell_angle_gamma   120.00000397
_symmetry_Int_Tables_number   1
_chemical_formula_structural   Si3W
_chemical_formula_sum   'Si6 W2'
_cell_volume   114.67063095
_cell_formula_units_Z   2
loop_
 _symmetry_equiv_pos_site_id
 _symmetry_equiv_pos_as_xyz
  1  'x, y, z'
loop_
 _atom_site_type_symbol
 _atom_site_label
 _atom_site_symmetry_multiplicity
 _atom_site_fract_x
 _atom_site_fract_y
 _atom_site_fract_z
 _atom_site_occupancy
  Si  Si0  1  0.17653100  0.35306200  0.25000000  1
  Si  Si1  1  0.64693800  0.82346900  0.25000000  1
  Si  Si2  1  0.17653100  0.82346900  0.25000000  1
  Si  Si3  1  0.82346900  0.64693800  0.75000000  1
  Si  Si4  1  0.35306200  0.17653100  0.75000000  1
  Si  Si5  1  0.82346900  0.17653100  0.75000000  1
  W  W0  1  0.33333300  0.66666700  0.75000000  1
  W  W1  1  0.66666700  0.33333300  0.25000000  1
loop_
_geom_bond_atom_site_label_1
_geom_bond_atom_site_label_2
_geom_bond_distance
_geom_bond_site_symmetry_2
Si0 Si1 2.470566 1_555
Si0 Si2 2.470566 1_555
Si0 W1 2.627518 1_455
Si0 W1 2.627524 1_555
Si0 Si1 2.781410 1_445
Si0 Si2 2.781410 1_545
Si0 W0 2.792041 1_555
Si0 W0 2.792041 1_554
Si0 Si5 2.887849 1_455
Si0 Si5 2.887849 1_454
Si0 Si4 2.887849 1_554
Si0 Si4 2.887849 1_555
Si1 Si2 2.470566 1_555
Si1 W1 2.627518 1_565
Si1 W1 2.627524 1_555
Si1 Si2 2.781410 1_655
Si1 W0 2.792041 1_555
Si1 W0 2.792041 1_554
Si1 Si5 2.887849 1_564
Si1 Si5 2.887849 1_565
Si1 Si3 2.887849 1_555
Si1 Si3 2.887849 1_554
Si2 W1 2.627521 1_455
Si2 W1 2.627521 1_565
Si2 W0 2.792039 1_555
Si2 W0 2.792039 1_554
Si2 Si3 2.887849 1_455
Si2 Si3 2.887849 1_454
Si2 Si4 2.887849 1_564
Si2 Si4 2.887849 1_565
Si3 Si4 2.470566 1_555
Si3 Si5 2.470566 1_555
Si3 W0 2.627518 1_655
Si3 W0 2.627524 1_555
Si3 Si4 2.781410 1_665
Si3 Si5 2.781410 1_565
Si3 W1 2.792041 1_555
Si3 W1 2.792041 1_556
Si4 Si5 2.470566 1_555
Si4 W0 2.627518 1_545
Si4 W0 2.627524 1_555
Si4 Si5 2.781410 1_455
Si4 W1 2.792041 1_555
Si4 W1 2.792041 1_556
Si5 W0 2.627521 1_545
Si5 W0 2.627521 1_655
Si5 W1 2.792039 1_555
Si5 W1 2.792039 1_556
