# generated using pymatgen
data_Sr2Sn
_symmetry_space_group_name_H-M   'P 1'
_cell_length_a   5.37720745
_cell_length_b   8.45901413
_cell_length_c   10.10101403
_cell_angle_alpha   90.00003173
_cell_angle_beta   90.00000000
_cell_angle_gamma   90.00000000
_symmetry_Int_Tables_number   1
_chemical_formula_structural   Sr2Sn
_chemical_formula_sum   'Sr8 Sn4'
_cell_volume   459.45344942
_cell_formula_units_Z   4
loop_
 _symmetry_equiv_pos_site_id
 _symmetry_equiv_pos_as_xyz
  1  'x, y, z'
loop_
 _atom_site_type_symbol
 _atom_site_label
 _atom_site_symmetry_multiplicity
 _atom_site_fract_x
 _atom_site_fract_y
 _atom_site_fract_z
 _atom_site_occupancy
  Sr  Sr0  1  0.25000000  0.47875022  0.82014817  1
  Sr  Sr1  1  0.75000000  0.52126201  0.17985977  1
  Sr  Sr2  1  0.25000000  0.97875022  0.67985183  1
  Sr  Sr3  1  0.75000000  0.02126201  0.32014023  1
  Sr  Sr4  1  0.74999900  0.15492734  0.92622622  1
  Sr  Sr5  1  0.24999900  0.84507204  0.07376946  1
  Sr  Sr6  1  0.74999900  0.65492734  0.57377378  1
  Sr  Sr7  1  0.24999900  0.34507204  0.42623054  1
  Sn  Sn0  1  0.25000100  0.74833640  0.39353020  1
  Sn  Sn1  1  0.75000100  0.25165199  0.60647814  1
  Sn  Sn2  1  0.25000100  0.24833740  0.10646880  1
  Sn  Sn3  1  0.75000100  0.75165099  0.89352186  1
loop_
_geom_bond_atom_site_label_1
_geom_bond_atom_site_label_2
_geom_bond_distance
_geom_bond_site_symmetry_2
Sr0 Sr6 3.955098 1_555
Sr0 Sr6 3.955105 1_455
Sr0 Sr4 3.984973 1_555
Sr0 Sr4 3.984980 1_455
Sr0 Sr5 4.020578 1_556
Sr0 Sr7 4.136527 1_555
Sr1 Sr7 3.955116 1_655
Sr1 Sr7 3.955123 1_555
Sr1 Sr5 3.984931 1_655
Sr1 Sr5 3.984938 1_555
Sr1 Sr4 4.020741 1_554
Sr1 Sr6 4.136462 1_555
Sr2 Sr4 3.955097 1_565
Sr2 Sr4 3.955104 1_465
Sr2 Sr6 3.984972 1_555
Sr2 Sr6 3.984979 1_455
Sr2 Sr7 4.020581 1_565
Sr2 Sr5 4.136528 1_556
Sr3 Sr5 3.955115 1_645
Sr3 Sr5 3.955122 1_545
Sr3 Sr7 3.984930 1_655
Sr3 Sr7 3.984938 1_555
Sr3 Sr6 4.020743 1_545
Sr3 Sr4 4.136463 1_554
Sr4 Sr5 4.039766 1_646
Sr4 Sr5 4.039766 1_546
Sr6 Sr7 4.039765 1_555
Sr6 Sr7 4.039765 1_655
Sn0 Sr5 3.331952 1_555
Sn0 Sr6 3.341797 1_555
Sn0 Sr6 3.341815 1_455
Sn0 Sr7 3.427174 1_555
Sn0 Sr2 3.487599 1_555
Sn0 Sr3 3.620514 1_565
Sn0 Sr3 3.620522 1_465
Sn0 Sr1 3.946686 1_555
Sn0 Sr1 3.946694 1_455
Sn1 Sr4 3.331805 1_555
Sn1 Sr7 3.341841 1_655
Sn1 Sr7 3.341859 1_555
Sn1 Sr6 3.427270 1_555
Sn1 Sr3 3.487623 1_555
Sn1 Sr2 3.620351 1_645
Sn1 Sr2 3.620359 1_545
Sn1 Sr0 3.946782 1_655
Sn1 Sr0 3.946790 1_555
Sn2 Sr7 3.331959 1_555
Sn2 Sr4 3.341793 1_554
Sn2 Sr4 3.341811 1_454
Sn2 Sr5 3.427181 1_545
Sn2 Sr0 3.487588 1_554
Sn2 Sr1 3.620510 1_555
Sn2 Sr1 3.620518 1_455
Sn2 Sr3 3.946697 1_555
Sn2 Sr3 3.946705 1_455
Sn3 Sr6 3.331802 1_555
Sn3 Sr5 3.341843 1_656
Sn3 Sr5 3.341860 1_556
Sn3 Sr4 3.427278 1_565
Sn3 Sr1 3.487620 1_556
Sn3 Sr0 3.620345 1_655
Sn3 Sr0 3.620353 1_555
Sn3 Sr2 3.946788 1_655
Sn3 Sr2 3.946795 1_555
