# generated using pymatgen
data_ZrFeSe
_symmetry_space_group_name_H-M   'P 1'
_cell_length_a   4.13728178
_cell_length_b   4.13728178
_cell_length_c   4.13728178
_cell_angle_alpha   60.00000000
_cell_angle_beta   60.00000000
_cell_angle_gamma   60.00000000
_symmetry_Int_Tables_number   1
_chemical_formula_structural   ZrFeSe
_chemical_formula_sum   'Zr1 Fe1 Se1'
_cell_volume   50.07607751
_cell_formula_units_Z   1
loop_
 _symmetry_equiv_pos_site_id
 _symmetry_equiv_pos_as_xyz
  1  'x, y, z'
loop_
 _atom_site_type_symbol
 _atom_site_label
 _atom_site_symmetry_multiplicity
 _atom_site_fract_x
 _atom_site_fract_y
 _atom_site_fract_z
 _atom_site_occupancy
  Zr  Zr0  1  0.50000000  0.50000000  0.50000000  1
  Fe  Fe0  1  0.25000000  0.25000000  0.25000000  1
  Se  Se0  1  0.00000000  0.00000000  0.00000000  1
loop_
_geom_bond_atom_site_label_1
_geom_bond_atom_site_label_2
_geom_bond_distance
_geom_bond_site_symmetry_2
Fe0 Zr0 2.533557 1_555
Fe0 Zr0 2.533557 1_554
Fe0 Se0 2.533557 1_556
Fe0 Se0 2.533557 1_555
Fe0 Se0 2.533557 1_655
Fe0 Se0 2.533557 1_565
Fe0 Zr0 2.533557 1_545
Fe0 Zr0 2.533557 1_455
Se0 Zr0 2.925500 1_445
Se0 Zr0 2.925500 1_545
Se0 Zr0 2.925500 1_455
Se0 Zr0 2.925500 1_554
Se0 Zr0 2.925500 1_454
Se0 Zr0 2.925500 1_544
