# generated using pymatgen
data_NaCu
_symmetry_space_group_name_H-M   'P 1'
_cell_length_a   5.67318893
_cell_length_b   5.67318893
_cell_length_c   9.92075200
_cell_angle_alpha   90.00000000
_cell_angle_beta   90.00000000
_cell_angle_gamma   120.00001082
_symmetry_Int_Tables_number   1
_chemical_formula_structural   NaCu
_chemical_formula_sum   'Na8 Cu8'
_cell_volume   276.52198822
_cell_formula_units_Z   8
loop_
 _symmetry_equiv_pos_site_id
 _symmetry_equiv_pos_as_xyz
  1  'x, y, z'
loop_
 _atom_site_type_symbol
 _atom_site_label
 _atom_site_symmetry_multiplicity
 _atom_site_fract_x
 _atom_site_fract_y
 _atom_site_fract_z
 _atom_site_occupancy
  Na  Na0_0  1  0.33333350  0.16666650  0.00000000  1
  Na  Na0_1  1  0.33333350  0.16666650  0.50000000  1
  Na  Na0_2  1  0.33333350  0.66666650  0.00000000  1
  Na  Na0_3  1  0.33333350  0.66666650  0.50000000  1
  Na  Na0_4  1  0.83333350  0.16666650  0.00000000  1
  Na  Na0_5  1  0.83333350  0.16666650  0.50000000  1
  Na  Na0_6  1  0.83333350  0.66666650  0.00000000  1
  Na  Na0_7  1  0.83333350  0.66666650  0.50000000  1
  Cu  Cu0_0  1  0.00000000  0.00000000  0.25000000  1
  Cu  Cu0_1  1  0.00000000  0.00000000  0.75000000  1
  Cu  Cu0_2  1  0.00000000  0.50000000  0.25000000  1
  Cu  Cu0_3  1  0.00000000  0.50000000  0.75000000  1
  Cu  Cu0_4  1  0.50000000  0.00000000  0.25000000  1
  Cu  Cu0_5  1  0.50000000  0.00000000  0.75000000  1
  Cu  Cu0_6  1  0.50000000  0.50000000  0.25000000  1
  Cu  Cu0_7  1  0.50000000  0.50000000  0.75000000  1
loop_
_geom_bond_atom_site_label_1
_geom_bond_atom_site_label_2
_geom_bond_distance
_geom_bond_site_symmetry_2
Na0_0 Na0_6 2.836594 1_445
Na0_0 Na0_6 2.836594 1_555
Na0_0 Na0_4 2.836594 1_455
Na0_0 Na0_2 2.836594 1_555
Na0_0 Na0_2 2.836594 1_545
Na0_0 Na0_4 2.836594 1_555
Na0_1 Na0_7 2.836594 1_445
Na0_1 Na0_7 2.836594 1_555
Na0_1 Na0_3 2.836594 1_555
Na0_1 Na0_5 2.836594 1_455
Na0_1 Na0_5 2.836594 1_555
Na0_1 Na0_3 2.836594 1_545
Na0_2 Na0_4 2.836594 1_455
Na0_2 Na0_4 2.836594 1_565
Na0_2 Na0_6 2.836594 1_455
Na0_2 Na0_6 2.836594 1_555
Na0_3 Na0_5 2.836594 1_455
Na0_3 Na0_5 2.836594 1_565
Na0_3 Na0_7 2.836594 1_455
Na0_3 Na0_7 2.836594 1_555
Na0_4 Na0_6 2.836594 1_555
Na0_4 Na0_6 2.836594 1_545
Na0_5 Na0_7 2.836594 1_545
Na0_5 Na0_7 2.836594 1_555
Cu0_0 Cu0_6 2.836594 1_445
Cu0_0 Cu0_6 2.836594 1_555
Cu0_0 Cu0_4 2.836594 1_455
Cu0_0 Cu0_2 2.836594 1_555
Cu0_0 Cu0_2 2.836594 1_545
Cu0_0 Cu0_4 2.836594 1_555
Cu0_0 Na0_4 2.972106 1_455
Cu0_0 Na0_5 2.972106 1_455
Cu0_0 Na0_0 2.972108 1_555
Cu0_0 Na0_1 2.972108 1_555
Cu0_0 Na0_7 2.972108 1_445
Cu0_0 Na0_6 2.972108 1_445
Cu0_1 Cu0_7 2.836594 1_445
Cu0_1 Cu0_7 2.836594 1_555
Cu0_1 Cu0_5 2.836594 1_455
Cu0_1 Cu0_3 2.836594 1_555
Cu0_1 Cu0_5 2.836594 1_555
Cu0_1 Cu0_3 2.836594 1_545
Cu0_1 Na0_4 2.972106 1_456
Cu0_1 Na0_5 2.972106 1_455
Cu0_1 Na0_6 2.972108 1_446
Cu0_1 Na0_0 2.972108 1_556
Cu0_1 Na0_1 2.972108 1_555
Cu0_1 Na0_7 2.972108 1_445
Cu0_2 Cu0_4 2.836594 1_455
Cu0_2 Cu0_4 2.836594 1_565
Cu0_2 Cu0_6 2.836594 1_555
Cu0_2 Cu0_6 2.836594 1_455
Cu0_2 Na0_6 2.972106 1_455
Cu0_2 Na0_7 2.972106 1_455
Cu0_2 Na0_3 2.972108 1_555
Cu0_2 Na0_2 2.972108 1_555
Cu0_2 Na0_5 2.972108 1_455
Cu0_2 Na0_4 2.972108 1_455
Cu0_3 Cu0_5 2.836594 1_455
Cu0_3 Cu0_5 2.836594 1_565
Cu0_3 Cu0_7 2.836594 1_555
Cu0_3 Cu0_7 2.836594 1_455
Cu0_3 Na0_6 2.972106 1_456
Cu0_3 Na0_7 2.972106 1_455
Cu0_3 Na0_2 2.972108 1_556
Cu0_3 Na0_4 2.972108 1_456
Cu0_3 Na0_3 2.972108 1_555
Cu0_3 Na0_5 2.972108 1_455
Cu0_4 Cu0_6 2.836594 1_555
Cu0_4 Cu0_6 2.836594 1_545
Cu0_4 Na0_1 2.972106 1_555
Cu0_4 Na0_0 2.972106 1_555
Cu0_4 Na0_4 2.972108 1_555
Cu0_4 Na0_5 2.972108 1_555
Cu0_4 Na0_2 2.972108 1_545
Cu0_4 Na0_3 2.972108 1_545
Cu0_5 Cu0_7 2.836594 1_545
Cu0_5 Cu0_7 2.836594 1_555
Cu0_5 Na0_0 2.972106 1_556
Cu0_5 Na0_1 2.972106 1_555
Cu0_5 Na0_4 2.972108 1_556
Cu0_5 Na0_2 2.972108 1_546
Cu0_5 Na0_3 2.972108 1_545
Cu0_5 Na0_5 2.972108 1_555
Cu0_6 Na0_3 2.972106 1_555
Cu0_6 Na0_2 2.972106 1_555
Cu0_6 Na0_0 2.972108 1_555
Cu0_6 Na0_1 2.972108 1_555
Cu0_6 Na0_7 2.972108 1_555
Cu0_6 Na0_6 2.972108 1_555
Cu0_7 Na0_3 2.972106 1_555
Cu0_7 Na0_2 2.972106 1_556
Cu0_7 Na0_6 2.972108 1_556
Cu0_7 Na0_0 2.972108 1_556
Cu0_7 Na0_1 2.972108 1_555
Cu0_7 Na0_7 2.972108 1_555
