# generated using pymatgen
data_Y4C5
_symmetry_space_group_name_H-M   'P 1'
_cell_length_a   3.66828226
_cell_length_b   6.59126917
_cell_length_c   11.96341893
_cell_angle_alpha   90.00000000
_cell_angle_beta   90.00000000
_cell_angle_gamma   90.00000000
_symmetry_Int_Tables_number   1
_chemical_formula_structural   Y4C5
_chemical_formula_sum   'Y8 C10'
_cell_volume   289.25914884
_cell_formula_units_Z   2
loop_
 _symmetry_equiv_pos_site_id
 _symmetry_equiv_pos_as_xyz
  1  'x, y, z'
loop_
 _atom_site_type_symbol
 _atom_site_label
 _atom_site_symmetry_multiplicity
 _atom_site_fract_x
 _atom_site_fract_y
 _atom_site_fract_z
 _atom_site_occupancy
  Y  Y0  1  0.00000000  0.25629954  0.54269464  1
  Y  Y1  1  -0.00000000  0.74370046  0.45730536  1
  Y  Y2  1  0.00000000  0.75629954  0.95730536  1
  Y  Y3  1  0.00000000  0.24370046  0.04269464  1
  Y  Y4  1  0.50000000  0.10760191  0.80447297  1
  Y  Y5  1  0.50000000  0.89239809  0.19552703  1
  Y  Y6  1  0.50000000  0.60760191  0.69552703  1
  Y  Y7  1  0.50000000  0.39239809  0.30447297  1
  C  C0  1  0.50000000  0.50000000  0.50000000  1
  C  C1  1  0.50000000  0.00000000  -0.00000000  1
  C  C2  1  -0.00000000  0.36189450  0.73541468  1
  C  C3  1  -0.00000000  0.63810550  0.26458532  1
  C  C4  1  0.00000000  0.86189450  0.76458532  1
  C  C5  1  -0.00000000  0.13810550  0.23541468  1
  C  C6  1  -0.00000000  0.40112322  0.84417111  1
  C  C7  1  0.00000000  0.59887678  0.15582889  1
  C  C8  1  0.00000000  0.09887678  0.34417111  1
  C  C9  1  -0.00000000  0.90112322  0.65582889  1
loop_
_geom_bond_atom_site_label_1
_geom_bond_atom_site_label_2
_geom_bond_distance
_geom_bond_site_symmetry_2
C0 Y7 2.444327 1_555
C0 Y6 2.444327 1_555
C0 Y1 2.491014 1_555
C0 Y1 2.491014 1_655
C0 Y0 2.491014 1_555
C0 Y0 2.491014 1_655
C1 Y4 2.444327 1_554
C1 Y5 2.444327 1_545
C1 Y2 2.491014 1_544
C1 Y3 2.491014 1_555
C1 Y3 2.491014 1_655
C1 Y2 2.491014 1_644
C2 C6 1.326542 1_555
C2 Y0 2.408354 1_555
C2 Y6 2.492919 1_455
C2 Y6 2.492919 1_555
C2 Y4 2.618393 1_455
C2 Y4 2.618393 1_555
C3 C7 1.326542 1_555
C3 Y1 2.408354 1_555
C3 Y7 2.492919 1_555
C3 Y7 2.492919 1_455
C3 Y5 2.618393 1_555
C3 Y5 2.618393 1_455
C4 C9 1.326542 1_555
C4 Y2 2.408354 1_555
C4 Y4 2.492919 1_565
C4 Y4 2.492919 1_465
C4 Y6 2.618393 1_555
C4 Y6 2.618393 1_455
C5 C8 1.326542 1_555
C5 Y3 2.408354 1_555
C5 Y5 2.492919 1_545
C5 Y5 2.492919 1_445
C5 Y7 2.618393 1_455
C5 Y7 2.618393 1_555
C6 Y3 2.591788 1_556
C6 Y2 2.704156 1_555
C6 Y4 2.707879 1_455
C6 Y4 2.707879 1_555
C6 Y6 2.894581 1_455
C6 Y6 2.894581 1_555
C7 Y2 2.591788 1_554
C7 Y3 2.704156 1_555
C7 Y5 2.707879 1_555
C7 Y5 2.707879 1_455
C7 Y7 2.894581 1_455
C7 Y7 2.894581 1_555
C8 Y0 2.591788 1_555
C8 Y1 2.704156 1_545
C8 Y7 2.707879 1_555
C8 Y7 2.707879 1_455
C8 Y5 2.894581 1_545
C8 Y5 2.894581 1_445
C9 Y1 2.591788 1_555
C9 Y0 2.704156 1_565
C9 Y6 2.707879 1_555
C9 Y6 2.707879 1_455
C9 Y4 2.894581 1_565
C9 Y4 2.894581 1_465
