# generated using pymatgen
data_Pt3Rh
_symmetry_space_group_name_H-M   'P 1'
_cell_length_a   3.91018318
_cell_length_b   3.90984765
_cell_length_c   3.90957614
_cell_angle_alpha   90.03923286
_cell_angle_beta   90.03723849
_cell_angle_gamma   89.95158181
_symmetry_Int_Tables_number   1
_chemical_formula_structural   Pt3Rh
_chemical_formula_sum   'Pt3 Rh1'
_cell_volume   59.77041418
_cell_formula_units_Z   1
loop_
 _symmetry_equiv_pos_site_id
 _symmetry_equiv_pos_as_xyz
  1  'x, y, z'
loop_
 _atom_site_type_symbol
 _atom_site_label
 _atom_site_symmetry_multiplicity
 _atom_site_fract_x
 _atom_site_fract_y
 _atom_site_fract_z
 _atom_site_occupancy
  Pt  Pt0  1  0.99999816  0.49999993  0.50000119  1
  Pt  Pt1  1  0.49999911  -0.00000035  0.49999944  1
  Pt  Pt2  1  0.49999907  0.49999814  0.00000196  1
  Rh  Rh0  1  0.00000066  0.00000028  0.99999741  1
loop_
_geom_bond_atom_site_label_1
_geom_bond_atom_site_label_2
_geom_bond_distance
_geom_bond_site_symmetry_2
Pt0 Pt1 2.763627 1_565
Pt0 Rh0 2.763628 1_665
Pt0 Pt1 2.763633 1_655
Pt0 Rh0 2.763647 1_654
Pt0 Pt2 2.763799 1_555
Pt0 Pt2 2.763808 1_656
Pt0 Rh0 2.765519 1_655
Pt0 Rh0 2.765542 1_664
Pt0 Pt2 2.765600 1_556
Pt0 Pt2 2.765601 1_655
Pt0 Pt1 2.765965 1_555
Pt0 Pt1 2.765968 1_665
Pt1 Pt2 2.763634 1_545
Pt1 Pt2 2.763640 1_556
Pt1 Rh0 2.763803 1_655
Pt1 Rh0 2.763805 1_554
Pt1 Pt2 2.765519 1_555
Pt1 Pt2 2.765541 1_546
Pt1 Rh0 2.765591 1_555
Pt1 Rh0 2.765611 1_654
Pt2 Rh0 2.763628 1_654
Pt2 Rh0 2.763631 1_564
Pt2 Rh0 2.765956 1_554
Pt2 Rh0 2.765977 1_664
