# generated using pymatgen
data_HoErRh2
_symmetry_space_group_name_H-M   'P 1'
_cell_length_a   4.77855543
_cell_length_b   4.77855543
_cell_length_c   4.77855543
_cell_angle_alpha   60.00000000
_cell_angle_beta   60.00000000
_cell_angle_gamma   60.00000000
_symmetry_Int_Tables_number   1
_chemical_formula_structural   HoErRh2
_chemical_formula_sum   'Ho1 Er1 Rh2'
_cell_volume   77.15692071
_cell_formula_units_Z   1
loop_
 _symmetry_equiv_pos_site_id
 _symmetry_equiv_pos_as_xyz
  1  'x, y, z'
loop_
 _atom_site_type_symbol
 _atom_site_label
 _atom_site_symmetry_multiplicity
 _atom_site_fract_x
 _atom_site_fract_y
 _atom_site_fract_z
 _atom_site_occupancy
  Ho  Ho0  1  0.74999900  0.74999900  0.74999900  1
  Er  Er0  1  0.25000000  0.25000000  0.25000000  1
  Rh  Rh0  1  0.00000000  -0.00000000  -0.00000000  1
  Rh  Rh1  1  0.49999900  0.49999900  0.49999900  1
loop_
_geom_bond_atom_site_label_1
_geom_bond_atom_site_label_2
_geom_bond_distance
_geom_bond_site_symmetry_2
Ho0 Rh0 2.926252 1_665
Ho0 Rh0 2.926252 1_566
Ho0 Rh0 2.926252 1_656
Ho0 Rh1 2.926256 1_555
Ho0 Rh1 2.926256 1_655
Ho0 Rh1 2.926256 1_556
Ho0 Rh1 2.926256 1_565
Ho0 Rh0 2.926267 1_666
Er0 Rh1 2.926244 1_555
Er0 Rh0 2.926256 1_555
Er0 Rh0 2.926256 1_556
Er0 Rh0 2.926256 1_565
Er0 Rh0 2.926256 1_655
Er0 Rh1 2.926260 1_554
Er0 Rh1 2.926260 1_455
Er0 Rh1 2.926260 1_545
