# generated using pymatgen
data_ErCrB4
_symmetry_space_group_name_H-M   'P 1'
_cell_length_a   5.90757562
_cell_length_b   11.41954081
_cell_length_c   3.42718033
_cell_angle_alpha   89.99995982
_cell_angle_beta   89.99998734
_cell_angle_gamma   90.00004206
_symmetry_Int_Tables_number   1
_chemical_formula_structural   ErCrB4
_chemical_formula_sum   'Er4 Cr4 B16'
_cell_volume   231.20375700
_cell_formula_units_Z   4
loop_
 _symmetry_equiv_pos_site_id
 _symmetry_equiv_pos_as_xyz
  1  'x, y, z'
loop_
 _atom_site_type_symbol
 _atom_site_label
 _atom_site_symmetry_multiplicity
 _atom_site_fract_x
 _atom_site_fract_y
 _atom_site_fract_z
 _atom_site_occupancy
  Er  Er0  1  0.12432429  0.15108783  0.00000150  1
  Er  Er1  1  0.87568616  0.84891587  -0.00000004  1
  Er  Er2  1  0.62431517  0.34890759  0.99999934  1
  Er  Er3  1  0.37567562  0.65109123  0.99999812  1
  Cr  Cr0  1  0.12677911  0.41709190  -0.00000092  1
  Cr  Cr1  1  0.87321597  0.58291161  -0.00000134  1
  Cr  Cr2  1  0.62678706  0.08289881  0.00000100  1
  Cr  Cr3  1  0.37321964  0.91709518  0.00000043  1
  B  B0  1  0.47484121  0.19177110  0.50000066  1
  B  B1  1  0.52516105  0.80823532  0.49999948  1
  B  B2  1  0.97483938  0.30822312  0.50000071  1
  B  B3  1  0.02515576  0.69177175  0.49999855  1
  B  B4  1  0.28303642  0.31508860  0.50000084  1
  B  B5  1  0.71695589  0.68490669  0.49999705  1
  B  B6  1  0.78304687  0.18490676  0.50000094  1
  B  B7  1  0.21696144  0.81510132  0.50000068  1
  B  B8  1  0.36338373  0.46793656  0.49999900  1
  B  B9  1  0.63660188  0.53205550  0.49999733  1
  B  B10  1  0.86339876  0.03206191  0.50000065  1
  B  B11  1  0.13661644  0.96794599  0.50000110  1
  B  B12  1  0.38639035  0.04695410  0.50000185  1
  B  B13  1  0.61362111  0.95304797  0.50000118  1
  B  B14  1  0.88637888  0.45304282  0.49999802  1
  B  B15  1  0.11360983  0.54695246  0.49999786  1
loop_
_geom_bond_atom_site_label_1
_geom_bond_atom_site_label_2
_geom_bond_distance
_geom_bond_site_symmetry_2
B0 B12 1.734331 1_555
B0 B4 1.807493 1_555
B0 B6 1.822435 1_555
B0 Cr2 2.299534 1_555
B0 Cr2 2.299535 1_556
B0 Er2 2.633645 1_555
B0 Er2 2.633649 1_554
B0 Er0 2.727644 1_555
B0 Er0 2.727647 1_556
B1 B13 1.734300 1_555
B1 B5 1.807555 1_555
B1 B7 1.822400 1_555
B1 Cr3 2.299445 1_555
B1 Cr3 2.299451 1_556
B1 Er3 2.633725 1_555
B1 Er3 2.633733 1_554
B1 Er1 2.727675 1_555
B1 Er1 2.727678 1_556
B2 B6 1.807436 1_555
B2 B4 1.822384 1_655
B2 Cr0 2.299495 1_656
B2 Cr0 2.299502 1_655
B2 Er0 2.633659 1_655
B2 Er0 2.633661 1_656
B2 Er2 2.727678 1_555
B2 Er2 2.727684 1_554
B3 B7 1.807602 1_555
B3 B5 1.822401 1_455
B3 Cr1 2.299444 1_456
B3 Cr1 2.299445 1_455
B3 Er1 2.633695 1_455
B3 Er1 2.633702 1_456
B3 Er3 2.727653 1_555
B3 Er3 2.727654 1_554
B4 B8 1.808841 1_555
B4 Cr0 2.268330 1_556
B4 Cr0 2.268338 1_555
B4 Er2 2.674005 1_555
B4 Er2 2.674011 1_554
B4 Er0 2.706089 1_555
B4 Er0 2.706090 1_556
B5 B9 1.808887 1_555
B5 Cr1 2.268289 1_555
B5 Cr1 2.268297 1_556
B5 Er3 2.674007 1_554
B5 Er3 2.674011 1_555
B5 Er1 2.706186 1_555
B5 Er1 2.706200 1_556
B6 Cr2 2.268366 1_556
B6 Cr2 2.268368 1_555
B6 Er0 2.674001 1_655
B6 Er0 2.674004 1_656
B6 Er2 2.706128 1_555
B6 Er2 2.706134 1_554
B7 Cr3 2.268280 1_555
B7 Cr3 2.268281 1_556
B7 Er1 2.673984 1_456
B7 Er1 2.673987 1_455
B7 Er3 2.706162 1_555
B7 Er3 2.706175 1_554
B8 B9 1.772373 1_555
B8 Cr0 2.286317 1_556
B8 Cr0 2.286317 1_555
B8 Er2 2.675838 1_554
B8 Er2 2.675838 1_555
B8 Er3 2.704849 1_555
B8 Er3 2.704851 1_554
B9 Cr1 2.286380 1_555
B9 Cr1 2.286388 1_556
B9 Er3 2.675857 1_554
B9 Er3 2.675862 1_555
B9 Er2 2.704786 1_554
B9 Er2 2.704793 1_555
B10 B13 1.729591 1_545
B10 B11 1.772358 1_645
B10 B6 1.808815 1_555
B10 Cr2 2.286319 1_555
B10 Cr2 2.286321 1_556
B10 Er0 2.675796 1_655
B10 Er0 2.675802 1_656
B10 Er1 2.704771 1_546
B10 Er1 2.704775 1_545
B11 B12 1.729538 1_565
B11 B7 1.808802 1_555
B11 Cr3 2.286328 1_556
B11 Cr3 2.286332 1_555
B11 Er1 2.675836 1_456
B11 Er1 2.675843 1_455
B11 Er0 2.704735 1_565
B11 Er0 2.704739 1_566
B12 B13 1.718127 1_545
B12 Cr2 2.263124 1_556
B12 Cr2 2.263127 1_555
B12 Cr3 2.267488 1_546
B12 Cr3 2.267497 1_545
B12 Er0 2.597564 1_556
B12 Er0 2.597565 1_555
B13 Cr3 2.263157 1_556
B13 Cr3 2.263162 1_555
B13 Cr2 2.267431 1_565
B13 Cr2 2.267432 1_566
B13 Er1 2.597549 1_556
B13 Er1 2.597555 1_555
B14 B15 1.718152 1_655
B14 B9 1.729582 1_555
B14 B2 1.734378 1_555
B14 Cr0 2.263149 1_655
B14 Cr0 2.263155 1_656
B14 Cr1 2.267563 1_555
B14 Cr1 2.267568 1_556
B14 Er2 2.597561 1_554
B14 Er2 2.597565 1_555
B15 B8 1.729585 1_555
B15 B3 1.734363 1_555
B15 Cr1 2.263143 1_455
B15 Cr1 2.263147 1_456
B15 Cr0 2.267503 1_555
B15 Cr0 2.267507 1_556
B15 Er3 2.597587 1_554
B15 Er3 2.597590 1_555
