# generated using pymatgen
data_Ca3ReO6
_symmetry_space_group_name_H-M   'P 1'
_cell_length_a   5.83147848
_cell_length_b   5.51588721
_cell_length_c   9.76920437
_cell_angle_alpha   55.18215705
_cell_angle_beta   90.00000000
_cell_angle_gamma   90.00000000
_symmetry_Int_Tables_number   1
_chemical_formula_structural   Ca3ReO6
_chemical_formula_sum   'Ca6 Re2 O12'
_cell_volume   257.97718394
_cell_formula_units_Z   2
loop_
 _symmetry_equiv_pos_site_id
 _symmetry_equiv_pos_as_xyz
  1  'x, y, z'
loop_
 _atom_site_type_symbol
 _atom_site_label
 _atom_site_symmetry_multiplicity
 _atom_site_fract_x
 _atom_site_fract_y
 _atom_site_fract_z
 _atom_site_occupancy
  Ca  Ca0  1  0.56081869  0.23198802  0.25343251  1
  Ca  Ca1  1  0.06081869  0.76801198  0.24656749  1
  Ca  Ca2  1  0.50000000  0.00000000  -0.00000000  1
  Ca  Ca3  1  0.00000000  0.00000000  0.50000000  1
  Ca  Ca4  1  0.93918131  0.23198802  0.75343251  1
  Ca  Ca5  1  0.43918131  0.76801198  0.74656749  1
  Re  Re0  1  0.00000000  0.50000000  -0.00000000  1
  Re  Re1  1  0.50000000  0.50000000  0.50000000  1
  O  O0  1  0.55458412  0.38845481  0.72646559  1
  O  O1  1  0.05458412  0.61154519  0.77353441  1
  O  O2  1  0.44541588  0.61154519  0.27353441  1
  O  O3  1  0.94541588  0.38845481  0.22646559  1
  O  O4  1  0.77929795  0.74067037  0.42826681  1
  O  O5  1  0.27929795  0.25932963  0.07173319  1
  O  O6  1  0.22070205  0.25932963  0.57173319  1
  O  O7  1  0.72070205  0.74067037  0.92826681  1
  O  O8  1  0.17139001  0.83035313  0.95243771  1
  O  O9  1  0.67139001  0.16964687  0.54756229  1
  O  O10  1  0.82860999  0.16964687  0.04756229  1
  O  O11  1  0.32860999  0.83035313  0.45243771  1
loop_
_geom_bond_atom_site_label_1
_geom_bond_atom_site_label_2
_geom_bond_distance
_geom_bond_site_symmetry_2
Ca0 O2 2.311728 1_555
Ca0 O5 2.358600 1_555
Ca0 O3 2.363185 1_555
Ca0 O11 2.367034 1_545
Ca0 O4 2.568871 1_545
Ca0 O10 2.718735 1_555
Ca0 O9 2.768067 1_555
Ca0 O7 2.941887 1_554
Ca1 O3 2.311728 1_455
Ca1 O4 2.358600 1_455
Ca1 O2 2.363185 1_555
Ca1 O10 2.367034 1_465
Ca1 O5 2.568871 1_565
Ca1 O11 2.718735 1_555
Ca1 O8 2.768067 1_554
Ca1 O6 2.941887 1_555
Ca2 O10 2.293507 1_555
Ca2 O8 2.293507 1_544
Ca2 O0 2.301025 1_554
Ca2 O2 2.301025 1_545
Ca2 O5 2.310485 1_555
Ca2 O7 2.310485 1_544
Ca3 O11 2.293507 1_545
Ca3 O9 2.293507 1_455
Ca3 O3 2.301025 1_455
Ca3 O1 2.301025 1_545
Ca3 O4 2.310485 1_445
Ca3 O6 2.310485 1_555
Ca4 O1 2.311728 1_655
Ca4 O6 2.358600 1_655
Ca4 O0 2.363185 1_555
Ca4 O8 2.367034 1_645
Ca4 O7 2.568871 1_545
Ca4 O9 2.718735 1_555
Ca4 O10 2.768067 1_556
Ca4 O4 2.941887 1_555
Ca5 O0 2.311728 1_555
Ca5 O7 2.358600 1_555
Ca5 O1 2.363185 1_555
Ca5 O9 2.367034 1_565
Ca5 O6 2.568871 1_565
Ca5 O8 2.718735 1_555
Ca5 O11 2.768067 1_555
Ca5 O5 2.941887 1_556
O0 Re1 1.954511 1_555
O1 Re0 1.954511 1_556
O2 Re1 1.954511 1_555
O3 Re0 1.954511 1_655
O4 Re1 1.960553 1_555
O5 Re0 1.960553 1_555
O6 Re1 1.960553 1_555
O7 Re0 1.960553 1_656
O8 Re0 1.889005 1_556
O9 Re1 1.889005 1_555
O10 Re0 1.889005 1_655
O11 Re1 1.889005 1_555
