# generated using pymatgen
data_EuHgAu2
_symmetry_space_group_name_H-M   'P 1'
_cell_length_a   5.06736096
_cell_length_b   5.06736096
_cell_length_c   5.06736096
_cell_angle_alpha   60.00000000
_cell_angle_beta   60.00000000
_cell_angle_gamma   60.00000000
_symmetry_Int_Tables_number   1
_chemical_formula_structural   EuHgAu2
_chemical_formula_sum   'Eu1 Hg1 Au2'
_cell_volume   92.00904578
_cell_formula_units_Z   1
loop_
 _symmetry_equiv_pos_site_id
 _symmetry_equiv_pos_as_xyz
  1  'x, y, z'
loop_
 _atom_site_type_symbol
 _atom_site_label
 _atom_site_symmetry_multiplicity
 _atom_site_fract_x
 _atom_site_fract_y
 _atom_site_fract_z
 _atom_site_occupancy
  Eu  Eu0  1  0.24999900  0.24999900  0.24999900  1
  Hg  Hg0  1  0.75000000  0.75000000  0.75000000  1
  Au  Au0  1  0.49999900  0.49999900  0.49999900  1
  Au  Au1  1  -0.00000000  0.00000000  0.00000000  1
loop_
_geom_bond_atom_site_label_1
_geom_bond_atom_site_label_2
_geom_bond_distance
_geom_bond_site_symmetry_2
Au0 Hg0 3.103108 1_545
Au0 Hg0 3.103108 1_455
Au0 Hg0 3.103108 1_554
Au0 Eu0 3.103112 1_555
Au0 Eu0 3.103112 1_556
Au0 Eu0 3.103112 1_565
Au0 Eu0 3.103112 1_655
Au0 Hg0 3.103125 1_555
Au1 Eu0 3.103100 1_555
Au1 Hg0 3.103112 1_454
Au1 Hg0 3.103112 1_544
Au1 Hg0 3.103112 1_444
Au1 Hg0 3.103112 1_445
Au1 Eu0 3.103116 1_554
Au1 Eu0 3.103116 1_455
Au1 Eu0 3.103116 1_545
