# generated using pymatgen
data_ZrCo2
_symmetry_space_group_name_H-M   'P 1'
_cell_length_a   4.90800912
_cell_length_b   4.90806129
_cell_length_c   4.90801039
_cell_angle_alpha   59.99972961
_cell_angle_beta   59.99920880
_cell_angle_gamma   59.99957919
_symmetry_Int_Tables_number   1
_chemical_formula_structural   ZrCo2
_chemical_formula_sum   'Zr2 Co4'
_cell_volume   83.59897427
_cell_formula_units_Z   2
loop_
 _symmetry_equiv_pos_site_id
 _symmetry_equiv_pos_as_xyz
  1  'x, y, z'
loop_
 _atom_site_type_symbol
 _atom_site_label
 _atom_site_symmetry_multiplicity
 _atom_site_fract_x
 _atom_site_fract_y
 _atom_site_fract_z
 _atom_site_occupancy
  Zr  Zr0  1  0.87499823  0.87501081  0.87500171  1
  Zr  Zr1  1  0.12500177  0.12498919  0.12499829  1
  Co  Co0  1  0.50000000  0.50000000  0.50000000  1
  Co  Co1  1  0.50000000  0.50000000  -0.00000000  1
  Co  Co2  1  0.00000000  0.50000000  0.50000000  1
  Co  Co3  1  0.50000000  0.00000000  0.50000000  1
loop_
_geom_bond_atom_site_label_1
_geom_bond_atom_site_label_2
_geom_bond_distance
_geom_bond_site_symmetry_2
Co0 Co2 2.454005 1_655
Co0 Co2 2.454005 1_555
Co0 Co1 2.454005 1_556
Co0 Co1 2.454005 1_555
Co0 Co3 2.454031 1_555
Co0 Co3 2.454031 1_565
Co0 Zr1 2.877560 1_565
Co0 Zr0 2.877560 1_545
Co0 Zr1 2.877575 1_556
Co0 Zr0 2.877575 1_554
Co0 Zr1 2.877583 1_655
Co0 Zr0 2.877583 1_455
Co1 Co2 2.453976 1_654
Co1 Co2 2.453976 1_555
Co1 Co3 2.454008 1_564
Co1 Co3 2.454008 1_555
Co1 Zr1 2.877540 1_565
Co1 Zr0 2.877540 1_544
Co1 Zr1 2.877573 1_655
Co1 Zr0 2.877573 1_454
Co1 Zr1 2.877635 1_555
Co1 Zr0 2.877635 1_554
Co2 Co3 2.454002 1_465
Co2 Co3 2.454002 1_555
Co2 Zr0 2.877553 1_445
Co2 Zr1 2.877553 1_565
Co2 Zr1 2.877570 1_556
Co2 Zr0 2.877570 1_454
Co2 Zr1 2.877639 1_555
Co2 Zr0 2.877639 1_455
Co3 Zr0 2.877526 1_544
Co3 Zr1 2.877526 1_556
Co3 Zr1 2.877542 1_655
Co3 Zr0 2.877542 1_445
Co3 Zr1 2.877605 1_555
Co3 Zr0 2.877605 1_545
