# generated using pymatgen
data_YTmHg2
_symmetry_space_group_name_H-M   'P 1'
_cell_length_a   5.19313581
_cell_length_b   5.19313581
_cell_length_c   5.19313581
_cell_angle_alpha   60.00000000
_cell_angle_beta   60.00000000
_cell_angle_gamma   60.00000000
_symmetry_Int_Tables_number   1
_chemical_formula_structural   YTmHg2
_chemical_formula_sum   'Y1 Tm1 Hg2'
_cell_volume   99.03165667
_cell_formula_units_Z   1
loop_
 _symmetry_equiv_pos_site_id
 _symmetry_equiv_pos_as_xyz
  1  'x, y, z'
loop_
 _atom_site_type_symbol
 _atom_site_label
 _atom_site_symmetry_multiplicity
 _atom_site_fract_x
 _atom_site_fract_y
 _atom_site_fract_z
 _atom_site_occupancy
  Y  Y0  1  0.75000100  0.75000100  0.75000100  1
  Tm  Tm0  1  0.25000000  0.25000000  0.25000000  1
  Hg  Hg0  1  0.00000000  0.00000000  0.00000000  1
  Hg  Hg1  1  0.50000000  0.50000000  0.50000000  1
loop_
_geom_bond_atom_site_label_1
_geom_bond_atom_site_label_2
_geom_bond_distance
_geom_bond_site_symmetry_2
Hg0 Y0 3.180121 1_444
Hg0 Tm0 3.180133 1_545
Hg0 Tm0 3.180133 1_455
Hg0 Tm0 3.180133 1_555
Hg0 Tm0 3.180133 1_554
Hg0 Y0 3.180137 1_544
Hg0 Y0 3.180137 1_454
Hg0 Y0 3.180137 1_445
Hg1 Y0 3.180129 1_545
Hg1 Y0 3.180129 1_554
Hg1 Y0 3.180129 1_455
Hg1 Tm0 3.180133 1_565
Hg1 Tm0 3.180133 1_655
Hg1 Tm0 3.180133 1_555
Hg1 Tm0 3.180133 1_556
Hg1 Y0 3.180146 1_555
