# generated using pymatgen
data_Li3ClO
_symmetry_space_group_name_H-M   'P 1'
_cell_length_a   3.90833700
_cell_length_b   3.90833700
_cell_length_c   3.90833700
_cell_angle_alpha   90.00000000
_cell_angle_beta   90.00000000
_cell_angle_gamma   90.00000000
_symmetry_Int_Tables_number   1
_chemical_formula_structural   Li3ClO
_chemical_formula_sum   'Li3 Cl1 O1'
_cell_volume   59.70023110
_cell_formula_units_Z   1
loop_
 _symmetry_equiv_pos_site_id
 _symmetry_equiv_pos_as_xyz
  1  'x, y, z'
loop_
 _atom_site_type_symbol
 _atom_site_label
 _atom_site_symmetry_multiplicity
 _atom_site_fract_x
 _atom_site_fract_y
 _atom_site_fract_z
 _atom_site_occupancy
  Li  Li0  1  0.00000000  0.50000000  0.50000000  1
  Li  Li1  1  0.50000000  0.00000000  0.50000000  1
  Li  Li2  1  0.50000000  0.50000000  0.00000000  1
  Cl  Cl0  1  0.00000000  0.00000000  0.00000000  1
  O  O0  1  0.50000000  0.50000000  0.50000000  1
loop_
_geom_bond_atom_site_label_1
_geom_bond_atom_site_label_2
_geom_bond_distance
_geom_bond_site_symmetry_2
Li0 O0 1.954168 1_455
Li0 O0 1.954168 1_555
Li1 O0 1.954168 1_555
Li1 O0 1.954168 1_545
Li2 O0 1.954168 1_555
Li2 O0 1.954168 1_554
Cl0 Li0 2.763612 1_544
Cl0 Li2 2.763612 1_455
Cl0 Li2 2.763612 1_555
Cl0 Li2 2.763612 1_445
Cl0 Li1 2.763612 1_555
Cl0 Li2 2.763612 1_545
Cl0 Li1 2.763612 1_554
Cl0 Li0 2.763612 1_555
Cl0 Li1 2.763612 1_455
Cl0 Li1 2.763612 1_454
Cl0 Li0 2.763612 1_554
Cl0 Li0 2.763612 1_545
