# generated using pymatgen
data_K2NbCuS4
_symmetry_space_group_name_H-M   'P 1'
_cell_length_a   13.50841932
_cell_length_b   12.06708849
_cell_length_c   7.24178097
_cell_angle_alpha   84.88546082
_cell_angle_beta   62.84117037
_cell_angle_gamma   32.27336881
_symmetry_Int_Tables_number   1
_chemical_formula_structural   K2NbCuS4
_chemical_formula_sum   'K4 Nb2 Cu2 S8'
_cell_volume   437.92127288
_cell_formula_units_Z   2
loop_
 _symmetry_equiv_pos_site_id
 _symmetry_equiv_pos_as_xyz
  1  'x, y, z'
loop_
 _atom_site_type_symbol
 _atom_site_label
 _atom_site_symmetry_multiplicity
 _atom_site_fract_x
 _atom_site_fract_y
 _atom_site_fract_z
 _atom_site_occupancy
  K  K0  1  0.67852200  0.67852200  0.32147800  1
  K  K1  1  0.32147800  0.32147800  0.67852200  1
  K  K2  1  0.57147800  0.57147800  0.92852200  1
  K  K3  1  0.92852200  0.92852200  0.57147800  1
  Nb  Nb0  1  0.50000000  0.50000000  0.50000000  1
  Nb  Nb1  1  0.75000000  0.75000000  0.75000000  1
  Cu  Cu0  1  0.00000000  0.00000000  0.00000000  1
  Cu  Cu1  1  0.25000000  0.25000000  0.25000000  1
  S  S0  1  0.89872300  0.21188500  0.30039200  1
  S  S1  1  0.58900100  0.30039200  0.21188500  1
  S  S2  1  0.94960800  0.66099900  0.35127700  1
  S  S3  1  0.03811500  0.35127700  0.66099900  1
  S  S4  1  0.35127700  0.03811500  0.94960800  1
  S  S5  1  0.66099900  0.94960800  0.03811500  1
  S  S6  1  0.30039200  0.58900100  0.89872300  1
  S  S7  1  0.21188500  0.89872300  0.58900100  1
loop_
_geom_bond_atom_site_label_1
_geom_bond_atom_site_label_2
_geom_bond_distance
_geom_bond_site_symmetry_2
K0 S4 3.433212 1_565
K0 S3 3.433218 1_654
K0 S7 3.463180 1_555
K0 S0 3.463182 1_555
K0 S4 3.488483 1_654
K0 S3 3.488484 1_565
K0 S2 3.592353 1_555
K0 S5 3.592357 1_555
K1 S2 3.433215 1_545
K1 S5 3.433217 1_456
K1 S1 3.463189 1_555
K1 S6 3.463193 1_555
K1 S2 3.488482 1_456
K1 S5 3.488488 1_545
K1 S4 3.592363 1_555
K1 S3 3.592366 1_555
K2 S0 3.433212 1_555
K2 S7 3.433218 1_556
K2 S3 3.463180 1_655
K2 S4 3.463182 1_565
K2 S0 3.488483 1_466
K2 S7 3.488484 1_645
K2 S6 3.592353 1_555
K2 S1 3.592357 1_556
K3 S6 3.433215 1_565
K3 S1 3.433217 1_655
K3 S5 3.463189 1_556
K3 S2 3.463193 1_555
K3 S6 3.488482 1_654
K3 S1 3.488488 1_566
K3 S0 3.592363 1_565
K3 S7 3.592366 1_655
Nb0 S1 2.304251 1_555
Nb0 S6 2.304257 1_555
Nb0 S7 2.304259 1_555
Nb0 S0 2.304262 1_555
Nb1 S5 2.304251 1_556
Nb1 S2 2.304257 1_555
Nb1 S3 2.304259 1_655
Nb1 S4 2.304262 1_565
Cu0 S1 2.345391 1_455
Cu0 S6 2.345393 1_544
Cu0 S7 2.345395 1_544
Cu0 S0 2.345401 1_455
Cu1 S5 2.345391 1_545
Cu1 S2 2.345393 1_455
Cu1 S3 2.345395 1_555
Cu1 S4 2.345401 1_554
