# generated using pymatgen
data_Pm2ZnAg
_symmetry_space_group_name_H-M   'P 1'
_cell_length_a   5.20674653
_cell_length_b   5.20674653
_cell_length_c   5.20674653
_cell_angle_alpha   60.00000000
_cell_angle_beta   60.00000000
_cell_angle_gamma   60.00000000
_symmetry_Int_Tables_number   1
_chemical_formula_structural   Pm2ZnAg
_chemical_formula_sum   'Pm2 Zn1 Ag1'
_cell_volume   99.81235699
_cell_formula_units_Z   1
loop_
 _symmetry_equiv_pos_site_id
 _symmetry_equiv_pos_as_xyz
  1  'x, y, z'
loop_
 _atom_site_type_symbol
 _atom_site_label
 _atom_site_symmetry_multiplicity
 _atom_site_fract_x
 _atom_site_fract_y
 _atom_site_fract_z
 _atom_site_occupancy
  Pm  Pm0  1  0.00000000  -0.00000000  0.00000000  1
  Pm  Pm1  1  0.50000000  0.50000000  0.50000000  1
  Zn  Zn0  1  0.75000000  0.75000000  0.75000000  1
  Ag  Ag0  1  0.24999900  0.24999900  0.24999900  1
loop_
_geom_bond_atom_site_label_1
_geom_bond_atom_site_label_2
_geom_bond_distance
_geom_bond_site_symmetry_2
Pm0 Zn0 3.188468 1_454
Pm0 Zn0 3.188468 1_544
Pm0 Zn0 3.188468 1_445
Pm0 Zn0 3.188468 1_444
Pm1 Zn0 3.188468 1_455
Pm1 Zn0 3.188468 1_545
Pm1 Zn0 3.188468 1_555
Pm1 Zn0 3.188468 1_554
Ag0 Pm0 3.188455 1_555
Ag0 Pm1 3.188464 1_545
Ag0 Pm1 3.188464 1_455
Ag0 Pm1 3.188464 1_554
Ag0 Pm0 3.188472 1_565
Ag0 Pm0 3.188472 1_655
Ag0 Pm0 3.188472 1_556
Ag0 Pm1 3.188481 1_555
