# generated using pymatgen
data_Tc2P3
_symmetry_space_group_name_H-M   'P 1'
_cell_length_a   6.30914419
_cell_length_b   6.33095143
_cell_length_c   7.68028838
_cell_angle_alpha   95.63105516
_cell_angle_beta   101.74858564
_cell_angle_gamma   104.42065286
_symmetry_Int_Tables_number   1
_chemical_formula_structural   Tc2P3
_chemical_formula_sum   'Tc8 P12'
_cell_volume   287.27771564
_cell_formula_units_Z   4
loop_
 _symmetry_equiv_pos_site_id
 _symmetry_equiv_pos_as_xyz
  1  'x, y, z'
loop_
 _atom_site_type_symbol
 _atom_site_label
 _atom_site_symmetry_multiplicity
 _atom_site_fract_x
 _atom_site_fract_y
 _atom_site_fract_z
 _atom_site_occupancy
  Tc  Tc0  1  0.90284050  0.41309987  0.14676787  1
  Tc  Tc1  1  0.09715950  0.58690013  0.85323213  1
  Tc  Tc2  1  0.37721107  0.41457249  0.14079170  1
  Tc  Tc3  1  0.62278893  0.58542751  0.85920830  1
  Tc  Tc4  1  0.53564326  0.86113280  0.36155058  1
  Tc  Tc5  1  0.46435674  0.13886720  0.63844942  1
  Tc  Tc6  1  0.07940713  0.86840377  0.36878188  1
  Tc  Tc7  1  0.92059287  0.13159623  0.63121812  1
  P  P0  1  0.73540921  0.57632834  0.36135839  1
  P  P1  1  0.26459079  0.42367166  0.63864161  1
  P  P2  1  0.23465649  0.56160982  0.38111895  1
  P  P3  1  0.76534351  0.43839018  0.61888105  1
  P  P4  1  0.86106707  0.13236726  0.31905786  1
  P  P5  1  0.13893293  0.86763274  0.68094214  1
  P  P6  1  0.37031413  0.14941702  0.32305710  1
  P  P7  1  0.62968587  0.85058298  0.67694290  1
  P  P8  1  0.53777251  0.18398261  0.96412682  1
  P  P9  1  0.46222749  0.81601739  0.03587318  1
  P  P10  1  0.03359318  0.17839948  0.95799186  1
  P  P11  1  0.96640682  0.82160052  0.04200814  1
loop_
_geom_bond_atom_site_label_1
_geom_bond_atom_site_label_2
_geom_bond_distance
_geom_bond_site_symmetry_2
P0 P3 2.231402 1_555
P0 Tc0 2.412163 1_555
P0 Tc4 2.443712 1_555
P0 Tc2 2.444068 1_555
P0 Tc6 2.462287 1_655
P1 P2 2.231402 1_555
P1 Tc1 2.412163 1_555
P1 Tc5 2.443712 1_555
P1 Tc3 2.444068 1_555
P1 Tc7 2.462287 1_455
P2 Tc4 2.367085 1_555
P2 Tc0 2.378924 1_455
P2 Tc6 2.384700 1_555
P2 Tc2 2.416246 1_555
P3 Tc5 2.367085 1_555
P3 Tc1 2.378924 1_655
P3 Tc7 2.384700 1_555
P3 Tc3 2.416246 1_555
P4 Tc0 2.312892 1_555
P4 Tc7 2.350642 1_555
P4 Tc6 2.427711 1_645
P4 Tc4 2.428460 1_545
P5 Tc1 2.312892 1_555
P5 Tc6 2.350642 1_555
P5 Tc7 2.427711 1_465
P5 Tc5 2.428460 1_565
P6 Tc2 2.286710 1_555
P6 Tc6 2.327183 1_545
P6 Tc4 2.331307 1_545
P6 Tc5 2.385426 1_555
P7 Tc3 2.286710 1_555
P7 Tc7 2.327183 1_565
P7 Tc5 2.331307 1_565
P7 Tc4 2.385426 1_555
P8 P9 2.400738 1_546
P8 Tc5 2.423778 1_555
P8 Tc2 2.430217 1_556
P8 Tc0 2.449012 1_556
P8 Tc3 2.700984 1_555
P9 Tc4 2.423778 1_555
P9 Tc3 2.430217 1_554
P9 Tc1 2.449012 1_554
P9 Tc2 2.700984 1_555
P10 P11 2.370463 1_446
P10 Tc2 2.375013 1_556
P10 Tc0 2.380178 1_456
P10 Tc7 2.432066 1_455
P10 Tc1 2.742220 1_555
P11 Tc3 2.375013 1_554
P11 Tc1 2.380178 1_654
P11 Tc6 2.432066 1_655
P11 Tc0 2.742220 1_555
