# generated using pymatgen
data_Nd(NiBi)2
_symmetry_space_group_name_H-M   'P 1'
_cell_length_a   4.68263700
_cell_length_b   4.68263700
_cell_length_c   10.20726800
_cell_angle_alpha   90.00000000
_cell_angle_beta   90.00000000
_cell_angle_gamma   90.00000000
_symmetry_Int_Tables_number   1
_chemical_formula_structural   Nd(NiBi)2
_chemical_formula_sum   'Nd2 Ni4 Bi4'
_cell_volume   223.81567668
_cell_formula_units_Z   2
loop_
 _symmetry_equiv_pos_site_id
 _symmetry_equiv_pos_as_xyz
  1  'x, y, z'
loop_
 _atom_site_type_symbol
 _atom_site_label
 _atom_site_symmetry_multiplicity
 _atom_site_fract_x
 _atom_site_fract_y
 _atom_site_fract_z
 _atom_site_occupancy
  Nd  Nd0  1  0.50000000  0.00000000  0.76691000  1
  Nd  Nd1  1  0.00000000  0.50000000  0.23309000  1
  Ni  Ni0  1  0.50000000  0.00000000  0.37610200  1
  Ni  Ni1  1  0.00000000  0.50000000  0.62389800  1
  Ni  Ni2  1  0.00000000  0.00000000  0.00000000  1
  Ni  Ni3  1  0.50000000  0.50000000  0.00000000  1
  Bi  Bi0  1  0.50000000  0.00000000  0.12454400  1
  Bi  Bi1  1  0.00000000  0.50000000  0.87545600  1
  Bi  Bi2  1  0.00000000  0.00000000  0.50000000  1
  Bi  Bi3  1  0.50000000  0.50000000  0.50000000  1
loop_
_geom_bond_atom_site_label_1
_geom_bond_atom_site_label_2
_geom_bond_distance
_geom_bond_site_symmetry_2
Nd0 Ni3 3.338027 1_546
Nd0 Ni2 3.338027 1_556
Nd0 Ni2 3.338027 1_656
Nd0 Ni3 3.338027 1_556
Nd0 Ni1 3.618625 1_555
Nd0 Ni1 3.618625 1_655
Nd0 Ni1 3.618625 1_645
Nd0 Ni1 3.618625 1_545
Nd1 Ni3 3.338027 1_555
Nd1 Ni3 3.338027 1_455
Nd1 Ni2 3.338027 1_555
Nd1 Ni2 3.338027 1_565
Nd1 Ni0 3.618625 1_555
Nd1 Ni0 3.618625 1_565
Nd1 Ni0 3.618625 1_465
Nd1 Ni0 3.618625 1_455
Bi0 Ni0 2.567720 1_555
Bi0 Ni2 2.664181 1_655
Bi0 Ni3 2.664181 1_545
Bi0 Ni2 2.664181 1_555
Bi0 Ni3 2.664181 1_555
Bi0 Nd1 3.491578 1_655
Bi0 Nd1 3.491578 1_645
Bi0 Nd1 3.491578 1_555
Bi0 Nd1 3.491578 1_545
Bi0 Nd0 3.650466 1_554
Bi1 Ni1 2.567720 1_555
Bi1 Ni3 2.664181 1_456
Bi1 Ni3 2.664181 1_556
Bi1 Ni2 2.664181 1_556
Bi1 Ni2 2.664181 1_566
Bi1 Nd0 3.491578 1_455
Bi1 Nd0 3.491578 1_555
Bi1 Nd0 3.491578 1_465
Bi1 Nd0 3.491578 1_565
Bi1 Nd1 3.650466 1_556
Bi2 Ni1 2.661041 1_555
Bi2 Ni1 2.661041 1_545
Bi2 Ni0 2.661041 1_455
Bi2 Ni0 2.661041 1_555
Bi2 Nd1 3.592248 1_555
Bi2 Nd1 3.592248 1_545
Bi2 Nd0 3.592248 1_455
Bi2 Nd0 3.592248 1_555
Bi3 Ni1 2.661041 1_655
Bi3 Ni1 2.661041 1_555
Bi3 Ni0 2.661041 1_555
Bi3 Ni0 2.661041 1_565
Bi3 Nd1 3.592248 1_555
Bi3 Nd1 3.592248 1_655
Bi3 Nd0 3.592248 1_565
Bi3 Nd0 3.592248 1_555
