# generated using pymatgen
data_Ta3Ru
_symmetry_space_group_name_H-M   'P 1'
_cell_length_a   4.55134337
_cell_length_b   4.55134409
_cell_length_c   4.55134625
_cell_angle_alpha   60.00001573
_cell_angle_beta   59.99998952
_cell_angle_gamma   59.99999476
_symmetry_Int_Tables_number   1
_chemical_formula_structural   Ta3Ru
_chemical_formula_sum   'Ta3 Ru1'
_cell_volume   66.66596203
_cell_formula_units_Z   1
loop_
 _symmetry_equiv_pos_site_id
 _symmetry_equiv_pos_as_xyz
  1  'x, y, z'
loop_
 _atom_site_type_symbol
 _atom_site_label
 _atom_site_symmetry_multiplicity
 _atom_site_fract_x
 _atom_site_fract_y
 _atom_site_fract_z
 _atom_site_occupancy
  Ta  Ta0  1  0.00000000  0.00000000  -0.00000000  1
  Ta  Ta1  1  0.49999900  0.49999900  0.49999900  1
  Ta  Ta2  1  0.25000000  0.25000000  0.25000000  1
  Ru  Ru0  1  0.74999900  0.74999900  0.74999900  1
loop_
_geom_bond_atom_site_label_1
_geom_bond_atom_site_label_2
_geom_bond_distance
_geom_bond_site_symmetry_2
Ta0 Ta2 2.787117 1_455
Ta0 Ta2 2.787118 1_555
Ta0 Ta2 2.787118 1_545
Ta0 Ta2 2.787119 1_554
Ta1 Ta2 2.787107 1_555
Ta1 Ta2 2.787120 1_655
Ta1 Ta2 2.787122 1_565
Ta1 Ta2 2.787123 1_556
Ru0 Ta0 2.787113 1_566
Ru0 Ta0 2.787114 1_656
Ru0 Ta0 2.787115 1_665
Ru0 Ta1 2.787117 1_655
Ru0 Ta1 2.787118 1_565
Ru0 Ta1 2.787118 1_555
Ru0 Ta1 2.787119 1_556
Ru0 Ta0 2.787129 1_666
