# generated using pymatgen
data_VFeRu2
_symmetry_space_group_name_H-M   'P 1'
_cell_length_a   4.22206129
_cell_length_b   4.22206129
_cell_length_c   4.22206129
_cell_angle_alpha   60.00018504
_cell_angle_beta   60.00018504
_cell_angle_gamma   60.00018504
_symmetry_Int_Tables_number   1
_chemical_formula_structural   VFeRu2
_chemical_formula_sum   'V1 Fe1 Ru2'
_cell_volume   53.21822989
_cell_formula_units_Z   1
loop_
 _symmetry_equiv_pos_site_id
 _symmetry_equiv_pos_as_xyz
  1  'x, y, z'
loop_
 _atom_site_type_symbol
 _atom_site_label
 _atom_site_symmetry_multiplicity
 _atom_site_fract_x
 _atom_site_fract_y
 _atom_site_fract_z
 _atom_site_occupancy
  V  V0  1  0.74999800  0.74999800  0.74999800  1
  Fe  Fe0  1  0.24999900  0.24999900  0.24999900  1
  Ru  Ru0  1  0.00000035  0.00000035  0.00000035  1
  Ru  Ru1  1  0.50000065  0.50000065  0.50000065  1
loop_
_geom_bond_atom_site_label_1
_geom_bond_atom_site_label_2
_geom_bond_distance
_geom_bond_site_symmetry_2
Fe0 Ru0 2.585456 1_555
Fe0 Ru1 2.585474 1_455
Fe0 Ru1 2.585474 1_545
Fe0 Ru1 2.585474 1_554
Fe0 Ru0 2.585485 1_655
Fe0 Ru0 2.585485 1_556
Fe0 Ru0 2.585485 1_565
Fe0 Ru1 2.585487 1_555
Ru0 V0 2.585472 1_454
Ru0 V0 2.585472 1_445
Ru0 V0 2.585472 1_544
Ru0 V0 2.585495 1_444
Ru1 V0 2.585443 1_555
Ru1 V0 2.585489 1_455
Ru1 V0 2.585489 1_545
Ru1 V0 2.585489 1_554
