# generated using pymatgen
data_YTcN3
_symmetry_space_group_name_H-M   'P 1'
_cell_length_a   7.38838168
_cell_length_b   7.38838168
_cell_length_c   6.26996299
_cell_angle_alpha   72.79971744
_cell_angle_beta   72.79971744
_cell_angle_gamma   82.27238098
_symmetry_Int_Tables_number   1
_chemical_formula_structural   YTcN3
_chemical_formula_sum   'Y4 Tc4 N12'
_cell_volume   311.92124900
_cell_formula_units_Z   4
loop_
 _symmetry_equiv_pos_site_id
 _symmetry_equiv_pos_as_xyz
  1  'x, y, z'
loop_
 _atom_site_type_symbol
 _atom_site_label
 _atom_site_symmetry_multiplicity
 _atom_site_fract_x
 _atom_site_fract_y
 _atom_site_fract_z
 _atom_site_occupancy
  Y  Y0  1  0.09146000  0.90854000  0.25000000  1
  Y  Y1  1  0.70809200  0.29190800  0.25000000  1
  Y  Y2  1  0.90854000  0.09146000  0.75000000  1
  Y  Y3  1  0.29190800  0.70809200  0.75000000  1
  Tc  Tc0  1  0.62268000  0.79609600  0.28111900  1
  Tc  Tc1  1  0.20390400  0.37732000  0.21888100  1
  Tc  Tc2  1  0.37732000  0.20390400  0.71888100  1
  Tc  Tc3  1  0.79609600  0.62268000  0.78111900  1
  N  N0  1  0.99520900  0.78076200  0.66189800  1
  N  N1  1  0.86875200  0.37545200  0.83960300  1
  N  N2  1  0.63587900  0.66670400  0.58334300  1
  N  N3  1  0.62454800  0.13124800  0.66039700  1
  N  N4  1  0.78076200  0.99520900  0.16189800  1
  N  N5  1  0.37545200  0.86875200  0.33960300  1
  N  N6  1  0.33329600  0.36412100  0.91665700  1
  N  N7  1  0.66670400  0.63587900  0.08334300  1
  N  N8  1  0.36412100  0.33329600  0.41665700  1
  N  N9  1  0.00479100  0.21923800  0.33810200  1
  N  N10  1  0.21923800  0.00479100  0.83810200  1
  N  N11  1  0.13124800  0.62454800  0.16039700  1
loop_
_geom_bond_atom_site_label_1
_geom_bond_atom_site_label_2
_geom_bond_distance
_geom_bond_site_symmetry_2
N0 Tc3 1.839150 1_555
N0 Y3 2.371301 1_655
N0 Y0 2.391465 1_655
N0 Y2 2.475926 1_565
N1 Tc3 1.793246 1_555
N1 Y2 2.288730 1_555
N1 Y1 2.421253 1_556
N2 Tc0 1.878040 1_555
N2 Tc3 1.889663 1_555
N2 Y3 2.460378 1_555
N3 Tc2 1.793246 1_555
N3 Y2 2.288730 1_555
N3 Y1 2.421253 1_555
N4 Tc0 1.839150 1_555
N4 Y1 2.371301 1_565
N4 Y2 2.391465 1_564
N4 Y0 2.475926 1_655
N5 Tc0 1.793246 1_555
N5 Y0 2.288730 1_555
N5 Y3 2.421253 1_555
N6 Tc1 1.878040 1_556
N6 Tc2 1.889663 1_555
N6 Y3 2.460378 1_555
N7 Tc3 1.878040 1_554
N7 Tc0 1.889663 1_555
N7 Y1 2.460378 1_555
N8 Tc2 1.878040 1_555
N8 Tc1 1.889663 1_555
N8 Y1 2.460378 1_555
N9 Tc1 1.839150 1_555
N9 Y1 2.371301 1_455
N9 Y2 2.391465 1_455
N9 Y0 2.475926 1_545
N10 Tc2 1.839150 1_555
N10 Y3 2.371301 1_545
N10 Y0 2.391465 1_546
N10 Y2 2.475926 1_455
N11 Tc1 1.793246 1_555
N11 Y0 2.288730 1_555
N11 Y3 2.421253 1_554
