# generated using pymatgen
data_K2Dy4Cu4Se9
_symmetry_space_group_name_H-M   'P 1'
_cell_length_a   7.45518570
_cell_length_b   7.45518570
_cell_length_c   16.51981366
_cell_angle_alpha   71.41021735
_cell_angle_beta   71.41021735
_cell_angle_gamma   32.04020648
_symmetry_Int_Tables_number   1
_chemical_formula_structural   K2Dy4Cu4Se9
_chemical_formula_sum   'K2 Dy4 Cu4 Se9'
_cell_volume   459.52885311
_cell_formula_units_Z   1
loop_
 _symmetry_equiv_pos_site_id
 _symmetry_equiv_pos_as_xyz
  1  'x, y, z'
loop_
 _atom_site_type_symbol
 _atom_site_label
 _atom_site_symmetry_multiplicity
 _atom_site_fract_x
 _atom_site_fract_y
 _atom_site_fract_z
 _atom_site_occupancy
  K  K0  1  0.03271300  0.03271300  0.73059300  1
  K  K1  1  0.96728700  0.96728700  0.26940700  1
  Dy  Dy0  1  0.23181600  0.23181600  0.89684600  1
  Dy  Dy1  1  0.34496500  0.34496500  0.55626300  1
  Dy  Dy2  1  0.65503500  0.65503500  0.44373700  1
  Dy  Dy3  1  0.76818400  0.76818400  0.10315400  1
  Cu  Cu0  1  0.42436500  0.42436500  0.97134300  1
  Cu  Cu1  1  0.75979500  0.75979500  0.72864200  1
  Cu  Cu2  1  0.24020500  0.24020500  0.27135800  1
  Cu  Cu3  1  0.57563500  0.57563500  0.02865700  1
  Se  Se0  1  0.86481800  0.86481800  0.92203100  1
  Se  Se1  1  0.60706600  0.60706600  0.87029300  1
  Se  Se2  1  0.35566200  0.35566200  0.72287000  1
  Se  Se3  1  0.69857600  0.69857600  0.60430500  1
  Se  Se4  1  0.00000000  0.00000000  0.50000000  1
  Se  Se5  1  0.30142400  0.30142400  0.39569500  1
  Se  Se6  1  0.64433800  0.64433800  0.27713000  1
  Se  Se7  1  0.39293400  0.39293400  0.12970700  1
  Se  Se8  1  0.13518200  0.13518200  0.07796900  1
loop_
_geom_bond_atom_site_label_1
_geom_bond_atom_site_label_2
_geom_bond_distance
_geom_bond_site_symmetry_2
K0 Se0 3.277715 1_445
K0 Se2 3.301872 1_545
K0 Se2 3.301872 1_455
K0 Se3 3.308512 1_545
K0 Se3 3.308512 1_455
K0 Se1 3.510813 1_455
K0 Se1 3.510813 1_545
K1 Se8 3.277715 1_665
K1 Se6 3.301872 1_655
K1 Se6 3.301872 1_565
K1 Se5 3.308512 1_565
K1 Se5 3.308512 1_655
K1 Se7 3.510813 1_655
K1 Se7 3.510813 1_565
Dy0 Se2 2.833125 1_555
Dy0 Se8 2.849907 1_556
Dy0 Se1 2.853427 1_545
Dy0 Se1 2.853427 1_455
Dy0 Se0 2.926673 1_455
Dy0 Se0 2.926673 1_545
Dy1 Se2 2.806891 1_555
Dy1 Se3 2.856545 1_455
Dy1 Se3 2.856545 1_545
Dy1 Se5 2.919482 1_555
Dy1 Se4 2.943421 1_565
Dy1 Se4 2.943421 1_655
Dy2 Se6 2.806891 1_555
Dy2 Se5 2.856545 1_565
Dy2 Se5 2.856545 1_655
Dy2 Se3 2.919482 1_555
Dy2 Se4 2.943421 1_565
Dy2 Se4 2.943421 1_655
Dy3 Se6 2.833125 1_555
Dy3 Se0 2.849907 1_554
Dy3 Se7 2.853427 1_655
Dy3 Se7 2.853427 1_565
Dy3 Se8 2.926673 1_655
Dy3 Se8 2.926673 1_565
Cu0 Se0 2.467002 1_455
Cu0 Se0 2.467002 1_545
Cu0 Se7 2.503079 1_556
Cu0 Se1 2.596731 1_555
Cu1 Se2 2.458224 1_565
Cu1 Se2 2.458224 1_655
Cu1 Se3 2.486798 1_555
Cu1 Se1 2.620902 1_555
Cu2 Se6 2.458224 1_545
Cu2 Se6 2.458224 1_455
Cu2 Se5 2.486798 1_555
Cu2 Se7 2.620902 1_555
Cu3 Se8 2.467002 1_655
Cu3 Se8 2.467002 1_565
Cu3 Se1 2.503079 1_554
Cu3 Se7 2.596731 1_555
