# generated using pymatgen
data_LiIn3
_symmetry_space_group_name_H-M   'P 1'
_cell_length_a   5.57789223
_cell_length_b   5.57789223
_cell_length_c   5.57789223
_cell_angle_alpha   132.68984581
_cell_angle_beta   132.68984581
_cell_angle_gamma   69.14164845
_symmetry_Int_Tables_number   1
_chemical_formula_structural   LiIn3
_chemical_formula_sum   'Li1 In3'
_cell_volume   92.01970112
_cell_formula_units_Z   1
loop_
 _symmetry_equiv_pos_site_id
 _symmetry_equiv_pos_as_xyz
  1  'x, y, z'
loop_
 _atom_site_type_symbol
 _atom_site_label
 _atom_site_symmetry_multiplicity
 _atom_site_fract_x
 _atom_site_fract_y
 _atom_site_fract_z
 _atom_site_occupancy
  Li  Li0  1  -0.00000000  -0.00000000  0.00000000  1
  In  In0  1  0.74999800  0.24999900  0.49999900  1
  In  In1  1  0.24999900  0.74999800  0.49999900  1
  In  In2  1  0.50000100  0.50000100  0.00000000  1
loop_
_geom_bond_atom_site_label_1
_geom_bond_atom_site_label_2
_geom_bond_distance
_geom_bond_site_symmetry_2
In0 In1 3.165026 1_555
In0 In1 3.165033 1_656
In0 In1 3.165033 1_544
In0 In1 3.165039 1_645
In0 In2 3.206633 1_545
In0 In2 3.206633 1_556
In0 Li0 3.206636 1_555
In0 Li0 3.206643 1_656
In0 Li0 3.206653 1_666
In0 Li0 3.206653 1_655
In0 In2 3.206656 1_555
In0 In2 3.206662 1_656
In1 In2 3.206633 1_455
In1 In2 3.206633 1_556
In1 Li0 3.206636 1_555
In1 Li0 3.206643 1_566
In1 Li0 3.206653 1_565
In1 Li0 3.206653 1_666
In1 In2 3.206656 1_555
In1 In2 3.206662 1_566
In2 Li0 3.165033 1_655
In2 Li0 3.165033 1_565
In2 Li0 3.165033 1_554
In2 Li0 3.165033 1_666
