# generated using pymatgen
data_Rb
_symmetry_space_group_name_H-M   'P 1'
_cell_length_a   9.12750748
_cell_length_b   9.12750748
_cell_length_c   9.12750748
_cell_angle_alpha   90.00000000
_cell_angle_beta   90.00000000
_cell_angle_gamma   90.00000000
_symmetry_Int_Tables_number   1
_chemical_formula_structural   Rb
_chemical_formula_sum   Rb8
_cell_volume   760.42536093
_cell_formula_units_Z   8
loop_
 _symmetry_equiv_pos_site_id
 _symmetry_equiv_pos_as_xyz
  1  'x, y, z'
loop_
 _atom_site_type_symbol
 _atom_site_label
 _atom_site_symmetry_multiplicity
 _atom_site_fract_x
 _atom_site_fract_y
 _atom_site_fract_z
 _atom_site_occupancy
  Rb  Rb0  1  0.00000000  0.00000000  0.00000000  1
  Rb  Rb1  1  0.50000000  0.25000100  0.00000000  1
  Rb  Rb2  1  0.50000000  0.75000100  0.00000000  1
  Rb  Rb3  1  0.00000000  0.50000000  0.25000100  1
  Rb  Rb4  1  0.25000100  0.00000000  0.50000000  1
  Rb  Rb5  1  0.75000100  0.00000000  0.50000000  1
  Rb  Rb6  1  0.50000000  0.50000000  0.50000000  1
  Rb  Rb7  1  0.00000000  0.50000000  0.75000100  1
loop_
_geom_bond_atom_site_label_1
_geom_bond_atom_site_label_2
_geom_bond_distance
_geom_bond_site_symmetry_2
Rb0 Rb7 5.102428 1_554
Rb0 Rb2 5.102428 1_445
Rb0 Rb5 5.102428 1_455
Rb0 Rb7 5.102428 1_544
Rb0 Rb2 5.102428 1_545
Rb0 Rb5 5.102428 1_454
Rb0 Rb3 5.102436 1_545
Rb0 Rb4 5.102436 1_555
Rb0 Rb3 5.102436 1_555
Rb0 Rb1 5.102436 1_555
Rb0 Rb4 5.102436 1_554
Rb0 Rb1 5.102436 1_455
Rb1 Rb2 4.563754 1_555
Rb1 Rb2 4.563754 1_545
Rb1 Rb6 5.102428 1_554
Rb1 Rb6 5.102428 1_555
Rb2 Rb6 5.102436 1_554
Rb2 Rb6 5.102436 1_555
Rb3 Rb7 4.563754 1_555
Rb3 Rb7 4.563754 1_554
Rb3 Rb6 5.102428 1_455
Rb3 Rb6 5.102428 1_555
Rb4 Rb5 4.563754 1_555
Rb4 Rb5 4.563754 1_455
Rb4 Rb6 5.102428 1_545
Rb4 Rb6 5.102428 1_555
Rb5 Rb6 5.102436 1_545
Rb5 Rb6 5.102436 1_555
Rb6 Rb7 5.102436 1_655
Rb6 Rb7 5.102436 1_555
