# generated using pymatgen
data_Pr3Cd
_symmetry_space_group_name_H-M   'P 1'
_cell_length_a   6.20156515
_cell_length_b   6.20156515
_cell_length_c   6.20156515
_cell_angle_alpha   133.12540277
_cell_angle_beta   133.12540277
_cell_angle_gamma   68.45727896
_symmetry_Int_Tables_number   1
_chemical_formula_structural   Pr3Cd
_chemical_formula_sum   'Pr3 Cd1'
_cell_volume   124.78837745
_cell_formula_units_Z   1
loop_
 _symmetry_equiv_pos_site_id
 _symmetry_equiv_pos_as_xyz
  1  'x, y, z'
loop_
 _atom_site_type_symbol
 _atom_site_label
 _atom_site_symmetry_multiplicity
 _atom_site_fract_x
 _atom_site_fract_y
 _atom_site_fract_z
 _atom_site_occupancy
  Pr  Pr0  1  0.75000000  0.24999900  0.50000100  1
  Pr  Pr1  1  0.24999900  0.75000000  0.50000100  1
  Pr  Pr2  1  0.50000000  0.50000000  -0.00000000  1
  Cd  Cd0  1  -0.00000000  -0.00000000  -0.00000000  1
loop_
_geom_bond_atom_site_label_1
_geom_bond_atom_site_label_2
_geom_bond_distance
_geom_bond_site_symmetry_2
Pr0 Pr1 3.488353 1_645
Pr0 Pr1 3.488360 1_656
Pr0 Pr1 3.488360 1_544
Pr0 Pr1 3.488367 1_555
Pr0 Pr2 3.557663 1_556
Pr0 Pr2 3.557663 1_545
Pr0 Pr2 3.557674 1_656
Pr0 Pr2 3.557681 1_555
Pr1 Pr2 3.557663 1_556
Pr1 Pr2 3.557663 1_455
Pr1 Pr2 3.557674 1_566
Pr1 Pr2 3.557681 1_555
Cd0 Pr2 3.488360 1_455
Cd0 Pr2 3.488360 1_545
Cd0 Pr2 3.488360 1_556
Cd0 Pr2 3.488360 1_444
Cd0 Pr0 3.557659 1_454
Cd0 Pr1 3.557659 1_544
Cd0 Pr1 3.557666 1_555
Cd0 Pr0 3.557666 1_555
Cd0 Pr1 3.557678 1_444
Cd0 Pr0 3.557678 1_444
Cd0 Pr1 3.557678 1_545
Cd0 Pr0 3.557678 1_455
