# generated using pymatgen
data_RbPbBr3
_symmetry_space_group_name_H-M   'P 1'
_cell_length_a   4.45838734
_cell_length_b   7.67661782
_cell_length_c   11.22836159
_cell_angle_alpha   90.00000000
_cell_angle_beta   90.00000000
_cell_angle_gamma   106.84583844
_symmetry_Int_Tables_number   1
_chemical_formula_structural   RbPbBr3
_chemical_formula_sum   'Rb2 Pb2 Br6'
_cell_volume   367.80358519
_cell_formula_units_Z   2
loop_
 _symmetry_equiv_pos_site_id
 _symmetry_equiv_pos_as_xyz
  1  'x, y, z'
loop_
 _atom_site_type_symbol
 _atom_site_label
 _atom_site_symmetry_multiplicity
 _atom_site_fract_x
 _atom_site_fract_y
 _atom_site_fract_z
 _atom_site_occupancy
  Rb  Rb0  1  0.24950145  0.50044687  0.00963802  1
  Rb  Rb1  1  0.75049855  0.49955213  0.50963802  1
  Pb  Pb0  1  0.00119046  0.00029857  0.75954033  1
  Pb  Pb1  1  0.99880754  0.99970143  0.25953933  1
  Br  Br0  1  0.36369604  0.72587970  0.70599862  1
  Br  Br1  1  0.63630096  0.27411930  0.20599862  1
  Br  Br2  1  0.36228142  0.72518870  0.31300040  1
  Br  Br3  1  0.63772158  0.27481130  0.81300040  1
  Br  Br4  1  0.92516944  0.85400051  0.00952464  1
  Br  Br5  1  0.07483156  0.14600049  0.50952364  1
loop_
_geom_bond_atom_site_label_1
_geom_bond_atom_site_label_2
_geom_bond_distance
_geom_bond_site_symmetry_2
Br0 Pb0 3.063435 1_565
Br0 Pb0 3.067090 1_665
Br0 Rb1 3.548294 1_555
Br0 Rb1 3.549771 1_455
Br0 Rb0 3.790410 1_556
Br1 Pb1 3.063429 1_545
Br1 Pb1 3.067082 1_445
Br1 Rb0 3.548286 1_555
Br1 Rb0 3.549779 1_655
Br1 Rb1 3.790410 1_555
Br2 Pb1 3.064075 1_555
Br2 Pb1 3.067002 1_455
Br2 Rb1 3.546334 1_455
Br2 Rb1 3.550850 1_555
Br2 Rb0 3.785389 1_555
Br3 Pb0 3.064089 1_555
Br3 Pb0 3.066984 1_655
Br3 Rb0 3.546324 1_656
Br3 Rb0 3.550854 1_556
Br3 Rb1 3.785386 1_555
Br4 Pb1 3.004439 1_555
Br4 Pb0 3.005714 1_664
Br4 Rb0 3.420832 1_555
Br4 Rb0 3.425185 1_655
Br5 Pb0 3.004463 1_555
Br5 Pb1 3.005717 1_445
Br5 Rb1 3.420821 1_555
Br5 Rb1 3.425174 1_455
