# generated using pymatgen
data_SbIrS
_symmetry_space_group_name_H-M   'P 1'
_cell_length_a   6.08126230
_cell_length_b   6.06713006
_cell_length_c   6.08358891
_cell_angle_alpha   90.00000000
_cell_angle_beta   90.00000000
_cell_angle_gamma   90.00000000
_symmetry_Int_Tables_number   1
_chemical_formula_structural   SbIrS
_chemical_formula_sum   'Sb4 Ir4 S4'
_cell_volume   224.45893630
_cell_formula_units_Z   4
loop_
 _symmetry_equiv_pos_site_id
 _symmetry_equiv_pos_as_xyz
  1  'x, y, z'
loop_
 _atom_site_type_symbol
 _atom_site_label
 _atom_site_symmetry_multiplicity
 _atom_site_fract_x
 _atom_site_fract_y
 _atom_site_fract_z
 _atom_site_occupancy
  Sb  Sb0  1  0.38009404  0.63434003  0.38259024  1
  Sb  Sb1  1  0.61990596  0.36565997  0.88259024  1
  Sb  Sb2  1  0.11990596  0.63434003  0.88259024  1
  Sb  Sb3  1  0.88009404  0.36565997  0.38259024  1
  Ir  Ir0  1  0.50977324  0.76512766  0.99947275  1
  Ir  Ir1  1  0.49022676  0.23487234  0.49947275  1
  Ir  Ir2  1  0.99022676  0.76512766  0.49947275  1
  Ir  Ir3  1  0.00977324  0.23487234  0.99947275  1
  S  S0  1  0.11750900  0.12676873  0.62013700  1
  S  S1  1  0.88249100  0.87323127  0.12013700  1
  S  S2  1  0.38249100  0.12676873  0.12013700  1
  S  S3  1  0.61750900  0.87323127  0.62013700  1
loop_
_geom_bond_atom_site_label_1
_geom_bond_atom_site_label_2
_geom_bond_distance
_geom_bond_site_symmetry_2
Ir0 S2 2.439707 1_566
Ir0 S1 2.471131 1_556
Ir0 S3 2.486968 1_555
Ir0 Sb0 2.585316 1_556
Ir0 Sb2 2.599300 1_555
Ir0 Sb1 2.613067 1_555
Ir1 S3 2.439707 1_545
Ir1 S0 2.471131 1_555
Ir1 S2 2.486968 1_555
Ir1 Sb1 2.585316 1_555
Ir1 Sb3 2.599300 1_555
Ir1 Sb0 2.613067 1_555
Ir2 S0 2.439707 1_665
Ir2 S3 2.471131 1_555
Ir2 S1 2.486968 1_555
Ir2 Sb2 2.585316 1_655
Ir2 Sb0 2.599300 1_655
Ir2 Sb3 2.613067 1_555
Ir3 S1 2.439707 1_446
Ir3 S2 2.471131 1_556
Ir3 S0 2.486968 1_555
Ir3 Sb3 2.585316 1_456
Ir3 Sb1 2.599300 1_455
Ir3 Sb2 2.613067 1_555
S0 Sb3 2.504724 1_455
S1 Sb2 2.504724 1_654
S2 Sb1 2.504724 1_554
S3 Sb0 2.504724 1_555
