# generated using pymatgen
data_Sm(Mg4Al3)4
_symmetry_space_group_name_H-M   'P 1'
_cell_length_a   9.14083752
_cell_length_b   9.14083752
_cell_length_c   9.14083752
_cell_angle_alpha   109.47122063
_cell_angle_beta   109.47122063
_cell_angle_gamma   109.47122063
_symmetry_Int_Tables_number   1
_chemical_formula_structural   Sm(Mg4Al3)4
_chemical_formula_sum   'Sm1 Mg16 Al12'
_cell_volume   587.94415417
_cell_formula_units_Z   1
loop_
 _symmetry_equiv_pos_site_id
 _symmetry_equiv_pos_as_xyz
  1  'x, y, z'
loop_
 _atom_site_type_symbol
 _atom_site_label
 _atom_site_symmetry_multiplicity
 _atom_site_fract_x
 _atom_site_fract_y
 _atom_site_fract_z
 _atom_site_occupancy
  Sm  Sm0  1  0.00000000  0.00000000  0.00000000  1
  Mg  Mg0  1  0.64022400  0.00000000  0.00000000  1
  Mg  Mg1  1  0.35977600  0.35977600  0.35977600  1
  Mg  Mg2  1  0.28301800  0.60251700  0.60251700  1
  Mg  Mg3  1  0.71698200  0.31949900  0.31949900  1
  Mg  Mg4  1  0.00000000  0.68050100  0.39748300  1
  Mg  Mg5  1  0.39748300  0.00000000  0.68050100  1
  Mg  Mg6  1  0.60251700  0.60251700  0.28301800  1
  Mg  Mg7  1  0.00000000  0.00000000  0.64022400  1
  Mg  Mg8  1  0.31949900  0.71698200  0.31949900  1
  Mg  Mg9  1  0.68050100  0.39748300  0.00000000  1
  Mg  Mg10  1  0.68050100  0.00000000  0.39748300  1
  Mg  Mg11  1  0.31949900  0.31949900  0.71698200  1
  Mg  Mg12  1  0.00000000  0.64022400  0.00000000  1
  Mg  Mg13  1  0.60251700  0.28301800  0.60251700  1
  Mg  Mg14  1  0.39748300  0.68050100  0.00000000  1
  Mg  Mg15  1  0.00000000  0.39748300  0.68050100  1
  Al  Al0  1  0.81784900  0.63041600  0.63041600  1
  Al  Al1  1  0.18215100  0.81256700  0.81256700  1
  Al  Al2  1  0.00000000  0.36958400  0.18743300  1
  Al  Al3  1  0.36958400  0.18743300  0.00000000  1
  Al  Al4  1  0.63041600  0.81784900  0.63041600  1
  Al  Al5  1  0.18743300  0.36958400  0.00000000  1
  Al  Al6  1  0.81256700  0.18215100  0.81256700  1
  Al  Al7  1  0.18743300  0.00000000  0.36958400  1
  Al  Al8  1  0.81256700  0.81256700  0.18215100  1
  Al  Al9  1  0.63041600  0.63041600  0.81784900  1
  Al  Al10  1  0.36958400  0.00000000  0.18743300  1
  Al  Al11  1  0.00000000  0.18743300  0.36958400  1
loop_
_geom_bond_atom_site_label_1
_geom_bond_atom_site_label_2
_geom_bond_distance
_geom_bond_site_symmetry_2
Mg0 Mg3 3.021999 1_555
Mg0 Mg5 3.021999 1_554
Mg0 Mg14 3.021999 1_545
Mg0 Sm0 3.288654 1_655
Mg1 Mg6 3.021999 1_555
Mg1 Mg13 3.021999 1_555
Mg1 Mg2 3.021999 1_555
Mg1 Sm0 3.288654 1_555
Mg2 Mg4 3.098563 1_555
Mg2 Mg5 3.169495 1_565
Mg2 Mg8 3.169495 1_555
Mg3 Mg4 3.098563 1_655
Mg3 Mg9 3.169495 1_555
Mg3 Mg6 3.169495 1_555
Mg4 Mg7 3.021999 1_565
Mg4 Mg5 3.169495 1_565
Mg4 Mg8 3.169495 1_555
Mg4 Mg9 3.169495 1_455
Mg4 Mg6 3.169495 1_455
Mg5 Mg8 3.098563 1_545
Mg5 Mg9 3.169495 1_556
Mg6 Mg9 3.098563 1_555
Mg6 Mg8 3.169495 1_555
Mg7 Sm0 3.288654 1_556
Mg10 Mg7 3.021999 1_655
Mg10 Mg13 3.098563 1_555
Mg10 Mg8 3.098563 1_545
Mg10 Mg3 3.169495 1_555
Mg10 Mg15 3.169495 1_655
Mg10 Mg14 3.169495 1_545
Mg10 Mg6 3.169495 1_545
Mg11 Mg7 3.021999 1_555
Mg11 Mg9 3.098563 1_556
Mg11 Mg14 3.098563 1_556
Mg11 Mg15 3.169495 1_555
Mg11 Mg5 3.169495 1_555
Mg11 Mg2 3.169495 1_555
Mg11 Mg13 3.169495 1_555
Mg12 Mg8 3.021999 1_555
Mg12 Mg9 3.021999 1_455
Mg12 Mg15 3.021999 1_554
Mg12 Sm0 3.288654 1_565
Mg13 Mg5 3.098563 1_555
Mg13 Mg15 3.169495 1_655
Mg13 Mg3 3.169495 1_555
Mg13 Mg9 3.169495 1_556
Mg14 Mg6 3.098563 1_555
Mg14 Mg15 3.169495 1_554
Mg14 Mg8 3.169495 1_555
Mg14 Mg2 3.169495 1_554
Mg15 Mg3 3.098563 1_455
Mg15 Mg2 3.098563 1_555
Al0 Al1 2.718954 1_655
Al0 Al9 2.797798 1_555
Al0 Al4 2.797798 1_555
Al0 Mg3 2.850588 1_555
Al0 Mg13 2.996949 1_555
Al0 Mg6 2.996949 1_555
Al0 Mg15 3.165514 1_655
Al0 Mg4 3.165514 1_655
Al0 Mg7 3.184632 1_665
Al0 Mg12 3.184632 1_656
Al0 Sm0 3.238773 1_666
Al1 Al3 2.797798 1_566
Al1 Al10 2.797798 1_566
Al1 Mg2 2.850588 1_555
Al1 Mg14 2.996949 1_556
Al1 Mg5 2.996949 1_565
Al1 Mg15 3.165514 1_555
Al1 Mg4 3.165514 1_555
Al1 Mg12 3.184632 1_556
Al1 Mg7 3.184632 1_565
Al1 Sm0 3.238773 1_566
Al2 Al5 2.797798 1_555
Al2 Al6 2.797798 1_454
Al2 Mg4 2.850588 1_555
Al2 Mg9 2.996949 1_455
Al2 Mg8 2.996949 1_555
Al2 Mg3 3.165514 1_455
Al2 Mg2 3.165514 1_555
Al2 Mg1 3.184632 1_555
Al2 Mg0 3.184632 1_455
Al2 Sm0 3.238773 1_555
Al3 Al5 2.718954 1_555
Al3 Mg9 2.850588 1_555
Al3 Mg5 2.996949 1_554
Al3 Mg3 2.996949 1_555
Al3 Mg6 3.165514 1_555
Al3 Mg11 3.165514 1_554
Al3 Mg7 3.184632 1_554
Al3 Mg1 3.184632 1_555
Al3 Sm0 3.238773 1_555
Al4 Al6 2.718954 1_565
Al4 Al9 2.797798 1_555
Al4 Mg8 2.850588 1_555
Al4 Mg2 2.996949 1_555
Al4 Mg6 2.996949 1_555
Al4 Mg10 3.165514 1_565
Al4 Mg5 3.165514 1_565
Al4 Mg0 3.184632 1_566
Al4 Mg7 3.184632 1_665
Al4 Sm0 3.238773 1_666
Al5 Al6 2.797798 1_454
Al5 Mg14 2.850588 1_555
Al5 Mg15 2.996949 1_554
Al5 Mg8 2.996949 1_555
Al5 Mg11 3.165514 1_554
Al5 Mg6 3.165514 1_555
Al5 Mg1 3.184632 1_555
Al5 Mg7 3.184632 1_554
Al5 Sm0 3.238773 1_555
Al6 Mg13 2.850588 1_555
Al6 Mg9 2.996949 1_556
Al6 Mg15 2.996949 1_655
Al6 Mg10 3.165514 1_555
Al6 Mg5 3.165514 1_555
Al6 Mg7 3.184632 1_655
Al6 Mg0 3.184632 1_556
Al6 Sm0 3.238773 1_656
Al7 Al8 2.797798 1_445
Al7 Mg5 2.850588 1_555
Al7 Mg4 2.996949 1_545
Al7 Mg11 2.996949 1_555
Al7 Mg8 3.165514 1_545
Al7 Mg13 3.165514 1_555
Al7 Mg12 3.184632 1_545
Al7 Mg1 3.184632 1_555
Al7 Sm0 3.238773 1_555
Al8 Al9 2.718954 1_554
Al8 Mg6 2.850588 1_555
Al8 Mg4 2.996949 1_655
Al8 Mg10 2.996949 1_565
Al8 Mg14 3.165514 1_555
Al8 Mg9 3.165514 1_555
Al8 Mg0 3.184632 1_565
Al8 Mg12 3.184632 1_655
Al8 Sm0 3.238773 1_665
Al9 Mg11 2.850588 1_555
Al9 Mg2 2.996949 1_555
Al9 Mg13 2.996949 1_555
Al9 Mg14 3.165514 1_556
Al9 Mg9 3.165514 1_556
Al9 Mg12 3.184632 1_656
Al9 Mg0 3.184632 1_566
Al9 Sm0 3.238773 1_666
Al10 Al7 2.718954 1_555
Al10 Al3 2.797798 1_555
Al10 Mg10 2.850588 1_555
Al10 Mg14 2.996949 1_545
Al10 Mg3 2.996949 1_555
Al10 Mg8 3.165514 1_545
Al10 Mg13 3.165514 1_555
Al10 Mg1 3.184632 1_555
Al10 Mg12 3.184632 1_545
Al10 Sm0 3.238773 1_555
Al11 Al2 2.718954 1_555
Al11 Al7 2.797798 1_555
Al11 Al8 2.797798 1_445
Al11 Mg15 2.850588 1_555
Al11 Mg10 2.996949 1_455
Al11 Mg11 2.996949 1_555
Al11 Mg2 3.165514 1_555
Al11 Mg3 3.165514 1_455
Al11 Mg0 3.184632 1_455
Al11 Mg1 3.184632 1_555
Al11 Sm0 3.238773 1_555
