# generated using pymatgen
data_ErLuMg2
_symmetry_space_group_name_H-M   'P 1'
_cell_length_a   5.28009182
_cell_length_b   5.28009109
_cell_length_c   5.28009326
_cell_angle_alpha   59.99985049
_cell_angle_beta   59.99984592
_cell_angle_gamma   59.99985049
_symmetry_Int_Tables_number   1
_chemical_formula_structural   ErLuMg2
_chemical_formula_sum   'Er1 Lu1 Mg2'
_cell_volume   104.08975782
_cell_formula_units_Z   1
loop_
 _symmetry_equiv_pos_site_id
 _symmetry_equiv_pos_as_xyz
  1  'x, y, z'
loop_
 _atom_site_type_symbol
 _atom_site_label
 _atom_site_symmetry_multiplicity
 _atom_site_fract_x
 _atom_site_fract_y
 _atom_site_fract_z
 _atom_site_occupancy
  Er  Er0  1  0.24999900  0.24999900  0.24999900  1
  Lu  Lu0  1  0.75000000  0.75000000  0.75000000  1
  Mg  Mg0  1  0.00000000  -0.00000000  -0.00000000  1
  Mg  Mg1  1  0.50000000  0.50000100  0.50000000  1
loop_
_geom_bond_atom_site_label_1
_geom_bond_atom_site_label_2
_geom_bond_distance
_geom_bond_site_symmetry_2
Er0 Mg1 3.233368 1_545
Er0 Mg1 3.233372 1_455
Er0 Mg1 3.233373 1_554
Er0 Mg0 3.233374 1_555
Er0 Mg0 3.233381 1_565
Er0 Mg0 3.233381 1_655
Er0 Mg0 3.233382 1_556
Er0 Mg1 3.233404 1_555
Lu0 Mg0 3.233376 1_656
Lu0 Mg0 3.233376 1_566
Lu0 Mg1 3.233376 1_655
Lu0 Mg0 3.233377 1_665
Lu0 Mg1 3.233377 1_556
Lu0 Mg1 3.233381 1_565
Lu0 Mg1 3.233382 1_555
Lu0 Mg0 3.233387 1_666
