# generated using pymatgen
data_Nd3Ho
_symmetry_space_group_name_H-M   'P 1'
_cell_length_a   6.29299628
_cell_length_b   6.29299628
_cell_length_c   6.29299628
_cell_angle_alpha   131.48491219
_cell_angle_beta   131.48491219
_cell_angle_gamma   71.04377887
_symmetry_Int_Tables_number   1
_chemical_formula_structural   Nd3Ho
_chemical_formula_sum   'Nd3 Ho1'
_cell_volume   136.94404811
_cell_formula_units_Z   1
loop_
 _symmetry_equiv_pos_site_id
 _symmetry_equiv_pos_as_xyz
  1  'x, y, z'
loop_
 _atom_site_type_symbol
 _atom_site_label
 _atom_site_symmetry_multiplicity
 _atom_site_fract_x
 _atom_site_fract_y
 _atom_site_fract_z
 _atom_site_occupancy
  Nd  Nd0  1  0.75000000  0.25000000  0.49999900  1
  Nd  Nd1  1  0.25000000  0.75000000  0.49999900  1
  Nd  Nd2  1  0.49999900  0.49999900  0.00000000  1
  Ho  Ho0  1  0.00000000  -0.00000000  -0.00000000  1
loop_
_geom_bond_atom_site_label_1
_geom_bond_atom_site_label_2
_geom_bond_distance
_geom_bond_site_symmetry_2
Nd0 Nd2 3.639028 1_555
Nd0 Nd2 3.639032 1_656
Nd0 Nd2 3.639050 1_545
Nd0 Nd2 3.639053 1_556
Nd0 Nd1 3.656319 1_656
Nd0 Nd1 3.656319 1_645
Nd0 Nd1 3.656319 1_555
Nd0 Nd1 3.656319 1_544
Nd1 Nd2 3.639028 1_555
Nd1 Nd2 3.639032 1_566
Nd1 Nd2 3.639050 1_455
Nd1 Nd2 3.639053 1_556
Ho0 Nd1 3.639035 1_545
Ho0 Nd0 3.639035 1_455
Ho0 Nd1 3.639039 1_444
Ho0 Nd0 3.639039 1_444
Ho0 Nd0 3.639042 1_555
Ho0 Nd1 3.639042 1_555
Ho0 Nd1 3.639046 1_544
Ho0 Nd0 3.639046 1_454
Ho0 Nd2 3.656319 1_444
Ho0 Nd2 3.656319 1_556
Ho0 Nd2 3.656319 1_545
Ho0 Nd2 3.656319 1_455
