# generated using pymatgen
data_Re3Sn
_symmetry_space_group_name_H-M   'P 1'
_cell_length_a   5.02429969
_cell_length_b   5.02429969
_cell_length_c   5.02429969
_cell_angle_alpha   133.79717957
_cell_angle_beta   133.79717957
_cell_angle_gamma   67.40496700
_symmetry_Int_Tables_number   1
_chemical_formula_structural   Re3Sn
_chemical_formula_sum   'Re3 Sn1'
_cell_volume   64.97440851
_cell_formula_units_Z   1
loop_
 _symmetry_equiv_pos_site_id
 _symmetry_equiv_pos_as_xyz
  1  'x, y, z'
loop_
 _atom_site_type_symbol
 _atom_site_label
 _atom_site_symmetry_multiplicity
 _atom_site_fract_x
 _atom_site_fract_y
 _atom_site_fract_z
 _atom_site_occupancy
  Re  Re0  1  0.75000000  0.25000000  0.50000000  1
  Re  Re1  1  0.25000000  0.75000000  0.50000000  1
  Re  Re2  1  0.50000000  0.50000000  0.00000000  1
  Sn  Sn0  1  0.00000000  0.00000000  0.00000000  1
loop_
_geom_bond_atom_site_label_1
_geom_bond_atom_site_label_2
_geom_bond_distance
_geom_bond_site_symmetry_2
Re0 Re1 2.787886 1_656
Re0 Re1 2.787886 1_645
Re0 Re1 2.787886 1_544
Re0 Re1 2.787886 1_555
Re0 Re2 2.872973 1_545
Re0 Re2 2.872973 1_555
Re0 Sn0 2.872973 1_656
Re0 Sn0 2.872973 1_666
Re0 Re2 2.872973 1_556
Re0 Sn0 2.872973 1_555
Re0 Sn0 2.872973 1_655
Re0 Re2 2.872973 1_656
Re1 Re2 2.872973 1_555
Re1 Re2 2.872973 1_455
Re1 Sn0 2.872973 1_666
Re1 Sn0 2.872973 1_565
Re1 Re2 2.872973 1_556
Re1 Sn0 2.872973 1_555
Re1 Re2 2.872973 1_566
Re1 Sn0 2.872973 1_566
Re2 Sn0 2.787886 1_655
Re2 Sn0 2.787886 1_554
Re2 Sn0 2.787886 1_565
Re2 Sn0 2.787886 1_666
