# generated using pymatgen
data_LiTm2Au
_symmetry_space_group_name_H-M   'P 1'
_cell_length_a   5.03532860
_cell_length_b   5.03532860
_cell_length_c   5.03532860
_cell_angle_alpha   60.00000000
_cell_angle_beta   60.00000000
_cell_angle_gamma   60.00000000
_symmetry_Int_Tables_number   1
_chemical_formula_structural   LiTm2Au
_chemical_formula_sum   'Li1 Tm2 Au1'
_cell_volume   90.27519909
_cell_formula_units_Z   1
loop_
 _symmetry_equiv_pos_site_id
 _symmetry_equiv_pos_as_xyz
  1  'x, y, z'
loop_
 _atom_site_type_symbol
 _atom_site_label
 _atom_site_symmetry_multiplicity
 _atom_site_fract_x
 _atom_site_fract_y
 _atom_site_fract_z
 _atom_site_occupancy
  Li  Li0  1  0.00000000  0.00000000  0.00000000  1
  Tm  Tm0  1  0.25000000  0.25000000  0.25000000  1
  Tm  Tm1  1  0.75000000  0.75000000  0.75000000  1
  Au  Au0  1  0.50000000  0.50000000  0.50000000  1
loop_
_geom_bond_atom_site_label_1
_geom_bond_atom_site_label_2
_geom_bond_distance
_geom_bond_site_symmetry_2
Li0 Tm0 3.083496 1_555
Li0 Tm0 3.083496 1_545
Li0 Tm1 3.083496 1_445
Li0 Tm1 3.083496 1_444
Li0 Tm1 3.083496 1_454
Li0 Tm0 3.083496 1_455
Li0 Tm1 3.083496 1_544
Li0 Tm0 3.083496 1_554
Au0 Tm1 3.083496 1_554
Au0 Tm0 3.083496 1_655
Au0 Tm0 3.083496 1_555
Au0 Tm1 3.083496 1_555
Au0 Tm1 3.083496 1_545
Au0 Tm0 3.083496 1_556
Au0 Tm0 3.083496 1_565
Au0 Tm1 3.083496 1_455
