# generated using pymatgen
data_MgZr3
_symmetry_space_group_name_H-M   'P 1'
_cell_length_a   6.35192369
_cell_length_b   6.35213719
_cell_length_c   5.16253371
_cell_angle_alpha   90.00000000
_cell_angle_beta   90.00000000
_cell_angle_gamma   119.99944863
_symmetry_Int_Tables_number   1
_chemical_formula_structural   MgZr3
_chemical_formula_sum   'Mg2 Zr6'
_cell_volume   180.39358354
_cell_formula_units_Z   2
loop_
 _symmetry_equiv_pos_site_id
 _symmetry_equiv_pos_as_xyz
  1  'x, y, z'
loop_
 _atom_site_type_symbol
 _atom_site_label
 _atom_site_symmetry_multiplicity
 _atom_site_fract_x
 _atom_site_fract_y
 _atom_site_fract_z
 _atom_site_occupancy
  Mg  Mg0  1  0.66673247  0.33344778  0.24999900  1
  Mg  Mg1  1  0.33329450  0.66656716  0.75000000  1
  Zr  Zr0  1  0.16875824  0.33753112  0.24999900  1
  Zr  Zr1  1  0.16881753  0.83129778  0.24999900  1
  Zr  Zr2  1  0.66248590  0.83130965  0.24999900  1
  Zr  Zr3  1  0.33751502  0.16869990  0.75000000  1
  Zr  Zr4  1  0.83117618  0.16868063  0.75000000  1
  Zr  Zr5  1  0.83121917  0.66246598  0.75000000  1
loop_
_geom_bond_atom_site_label_1
_geom_bond_atom_site_label_2
_geom_bond_distance
_geom_bond_site_symmetry_2
Mg0 Zr5 3.152606 1_554
Mg0 Zr5 3.152615 1_555
Mg0 Zr4 3.153189 1_554
Mg0 Zr4 3.153197 1_555
Mg0 Zr3 3.153201 1_554
Mg0 Zr3 3.153209 1_555
Mg0 Zr1 3.175920 1_655
Mg0 Zr0 3.175940 1_655
Mg0 Zr2 3.176060 1_555
Mg0 Zr0 3.176142 1_555
Mg0 Zr2 3.176249 1_545
Mg0 Zr1 3.176334 1_545
Mg1 Zr0 3.152662 1_556
Mg1 Zr0 3.152671 1_555
Mg1 Zr2 3.153118 1_556
Mg1 Zr2 3.153127 1_555
Mg1 Zr1 3.153178 1_556
Mg1 Zr1 3.153187 1_555
Mg1 Zr5 3.175885 1_555
Mg1 Zr3 3.176010 1_555
Mg1 Zr4 3.176113 1_565
Mg1 Zr4 3.176142 1_455
Mg1 Zr5 3.176199 1_455
Mg1 Zr3 3.176297 1_565
Zr0 Zr1 3.136285 1_555
Zr0 Zr2 3.136361 1_555
Zr0 Zr4 3.179851 1_454
Zr0 Zr4 3.179859 1_455
Zr0 Zr3 3.179879 1_554
Zr0 Zr3 3.179888 1_555
Zr0 Zr2 3.215723 1_445
Zr0 Zr1 3.215852 1_545
Zr1 Zr2 3.135706 1_555
Zr1 Zr3 3.179309 1_564
Zr1 Zr3 3.179318 1_565
Zr1 Zr5 3.179903 1_454
Zr1 Zr5 3.179912 1_455
Zr1 Zr2 3.216218 1_455
Zr2 Zr4 3.179209 1_564
Zr2 Zr4 3.179218 1_565
Zr2 Zr5 3.179844 1_554
Zr2 Zr5 3.179852 1_555
Zr3 Zr4 3.135759 1_555
Zr3 Zr5 3.136247 1_555
Zr3 Zr5 3.215837 1_445
Zr3 Zr4 3.216164 1_455
Zr4 Zr5 3.136456 1_555
Zr4 Zr5 3.215681 1_545
