# generated using pymatgen
data_YbOs3
_symmetry_space_group_name_H-M   'P 1'
_cell_length_a   4.59771196
_cell_length_b   4.59771196
_cell_length_c   4.59771196
_cell_angle_alpha   124.56978853
_cell_angle_beta   124.56978853
_cell_angle_gamma   82.25183073
_symmetry_Int_Tables_number   1
_chemical_formula_structural   YbOs3
_chemical_formula_sum   'Yb1 Os3'
_cell_volume   63.34035172
_cell_formula_units_Z   1
loop_
 _symmetry_equiv_pos_site_id
 _symmetry_equiv_pos_as_xyz
  1  'x, y, z'
loop_
 _atom_site_type_symbol
 _atom_site_label
 _atom_site_symmetry_multiplicity
 _atom_site_fract_x
 _atom_site_fract_y
 _atom_site_fract_z
 _atom_site_occupancy
  Yb  Yb0  1  0.00000000  0.00000000  0.00000000  1
  Os  Os0  1  0.75000000  0.25000000  0.50000000  1
  Os  Os1  1  0.25000000  0.75000000  0.50000000  1
  Os  Os2  1  0.50000000  0.50000000  0.00000000  1
loop_
_geom_bond_atom_site_label_1
_geom_bond_atom_site_label_2
_geom_bond_distance
_geom_bond_site_symmetry_2
Os0 Os2 2.751521 1_555
Os0 Os2 2.751521 1_556
Os0 Yb0 2.751521 1_656
Os0 Os2 2.751521 1_545
Os0 Yb0 2.751521 1_655
Os0 Yb0 2.751521 1_666
Os0 Os2 2.751521 1_656
Os0 Yb0 2.751521 1_555
Os1 Yb0 2.751521 1_565
Os1 Os2 2.751521 1_555
Os1 Os2 2.751521 1_556
Os1 Yb0 2.751521 1_555
Os1 Os2 2.751521 1_566
Os1 Yb0 2.751521 1_566
Os1 Os2 2.751521 1_455
Os1 Yb0 2.751521 1_666
Os2 Yb0 3.023989 1_554
Os2 Yb0 3.023989 1_666
Os2 Yb0 3.023989 1_655
Os2 Yb0 3.023989 1_565
