# generated using pymatgen
data_NbTe
_symmetry_space_group_name_H-M   'P 1'
_cell_length_a   3.70297439
_cell_length_b   3.70297439
_cell_length_c   3.69421100
_cell_angle_alpha   90.00000000
_cell_angle_beta   90.00000000
_cell_angle_gamma   120.00000691
_symmetry_Int_Tables_number   1
_chemical_formula_structural   NbTe
_chemical_formula_sum   'Nb1 Te1'
_cell_volume   43.86859393
_cell_formula_units_Z   1
loop_
 _symmetry_equiv_pos_site_id
 _symmetry_equiv_pos_as_xyz
  1  'x, y, z'
loop_
 _atom_site_type_symbol
 _atom_site_label
 _atom_site_symmetry_multiplicity
 _atom_site_fract_x
 _atom_site_fract_y
 _atom_site_fract_z
 _atom_site_occupancy
  Nb  Nb0  1  0.00000000  0.00000000  0.50000000  1
  Te  Te0  1  0.66666700  0.33333300  0.00000000  1
loop_
_geom_bond_atom_site_label_1
_geom_bond_atom_site_label_2
_geom_bond_distance
_geom_bond_site_symmetry_2
Nb0 Te0 2.825325 1_456
Nb0 Te0 2.825325 1_455
Nb0 Te0 2.825328 1_446
Nb0 Te0 2.825328 1_555
Nb0 Te0 2.825328 1_556
Nb0 Te0 2.825328 1_445
