# generated using pymatgen
data_Tm(Al2Cr)4
_symmetry_space_group_name_H-M   'P 1'
_cell_length_a   6.77139271
_cell_length_b   6.77139271
_cell_length_c   6.77139271
_cell_angle_alpha   97.99819110
_cell_angle_beta   97.99819110
_cell_angle_gamma   136.19636590
_symmetry_Int_Tables_number   1
_chemical_formula_structural   Tm(Al2Cr)4
_chemical_formula_sum   'Tm1 Al8 Cr4'
_cell_volume   199.39968586
_cell_formula_units_Z   1
loop_
 _symmetry_equiv_pos_site_id
 _symmetry_equiv_pos_as_xyz
  1  'x, y, z'
loop_
 _atom_site_type_symbol
 _atom_site_label
 _atom_site_symmetry_multiplicity
 _atom_site_fract_x
 _atom_site_fract_y
 _atom_site_fract_z
 _atom_site_occupancy
  Tm  Tm0  1  0.00000000  0.00000000  0.00000000  1
  Al  Al0  1  0.72124000  0.50000000  0.22124000  1
  Al  Al1  1  0.50000000  0.27876000  0.77876000  1
  Al  Al2  1  0.33560300  0.00000000  0.33560300  1
  Al  Al3  1  0.00000000  0.66439700  0.66439700  1
  Al  Al4  1  0.66439700  0.00000000  0.66439700  1
  Al  Al5  1  0.00000000  0.33560300  0.33560300  1
  Al  Al6  1  0.50000000  0.72124000  0.22124000  1
  Al  Al7  1  0.27876000  0.50000000  0.77876000  1
  Cr  Cr0  1  0.50000000  0.50000000  0.50000000  1
  Cr  Cr1  1  0.00000000  0.00000000  0.50000000  1
  Cr  Cr2  1  0.00000000  0.50000000  0.00000000  1
  Cr  Cr3  1  0.50000000  0.00000000  0.00000000  1
loop_
_geom_bond_atom_site_label_1
_geom_bond_atom_site_label_2
_geom_bond_distance
_geom_bond_site_symmetry_2
Al0 Cr3 2.567928 1_555
Al0 Cr0 2.567928 1_555
Al0 Cr2 2.567928 1_655
Al0 Cr1 2.567928 1_665
Al0 Al2 2.722571 1_665
Al0 Al2 2.722571 1_555
Al0 Al6 2.779953 1_555
Al0 Al1 2.779953 1_554
Al0 Al3 2.875422 1_655
Al0 Al5 2.875422 1_655
Al0 Tm0 3.200620 1_665
Al0 Tm0 3.200620 1_555
Al1 Cr2 2.567928 1_656
Al1 Cr3 2.567928 1_556
Al1 Cr0 2.567928 1_555
Al1 Cr1 2.567928 1_555
Al1 Al3 2.722571 1_545
Al1 Al3 2.722571 1_655
Al1 Al7 2.779953 1_555
Al1 Al4 2.875422 1_555
Al1 Al2 2.875422 1_555
Al1 Tm0 3.200620 1_666
Al1 Tm0 3.200620 1_556
Al2 Cr1 2.665980 1_555
Al2 Cr3 2.665980 1_555
Al2 Cr2 2.665980 1_545
Al2 Cr0 2.665980 1_555
Al2 Al6 2.875422 1_545
Al2 Al4 2.921344 1_555
Al2 Tm0 2.981842 1_555
Al3 Cr1 2.665980 1_565
Al3 Cr2 2.665980 1_556
Al3 Cr0 2.665980 1_455
Al3 Cr3 2.665980 1_566
Al3 Al7 2.875422 1_555
Al3 Al5 2.921344 1_555
Al3 Tm0 2.981842 1_566
Al4 Cr0 2.665980 1_545
Al4 Cr1 2.665980 1_655
Al4 Cr2 2.665980 1_656
Al4 Cr3 2.665980 1_556
Al4 Al7 2.722571 1_545
Al4 Al7 2.722571 1_655
Al4 Al6 2.875422 1_545
Al4 Tm0 2.981842 1_656
Al5 Cr2 2.665980 1_555
Al5 Cr1 2.665980 1_555
Al5 Cr3 2.665980 1_455
Al5 Cr0 2.665980 1_555
Al5 Al6 2.722571 1_555
Al5 Al6 2.722571 1_445
Al5 Al7 2.875422 1_555
Al5 Tm0 2.981842 1_555
Al6 Cr3 2.567928 1_565
Al6 Cr0 2.567928 1_555
Al6 Cr1 2.567928 1_665
Al6 Cr2 2.567928 1_555
Al6 Al7 2.779953 1_554
Al6 Tm0 3.200620 1_665
Al6 Tm0 3.200620 1_555
Al7 Cr0 2.567928 1_555
Al7 Cr3 2.567928 1_566
Al7 Cr2 2.567928 1_556
Al7 Cr1 2.567928 1_555
Al7 Tm0 3.200620 1_666
Al7 Tm0 3.200620 1_556
Cr0 Cr1 2.525846 1_665
Cr0 Cr1 2.525846 1_555
Cr0 Tm0 3.385696 1_555
Cr0 Tm0 3.385696 1_666
Cr1 Tm0 3.385696 1_555
Cr1 Tm0 3.385696 1_556
Cr2 Cr3 2.525846 1_565
Cr2 Cr3 2.525846 1_455
Cr2 Tm0 3.385696 1_555
Cr2 Tm0 3.385696 1_565
Cr3 Tm0 3.385696 1_555
Cr3 Tm0 3.385696 1_655
