# generated using pymatgen
data_Ba3BAsO3
_symmetry_space_group_name_H-M   'P 1'
_cell_length_a   5.59639814
_cell_length_b   5.59639814
_cell_length_c   14.03245000
_cell_angle_alpha   90.00000000
_cell_angle_beta   90.00000000
_cell_angle_gamma   120.00000166
_symmetry_Int_Tables_number   1
_chemical_formula_structural   Ba3BAsO3
_chemical_formula_sum   'Ba6 B2 As2 O6'
_cell_volume   380.61099953
_cell_formula_units_Z   2
loop_
 _symmetry_equiv_pos_site_id
 _symmetry_equiv_pos_as_xyz
  1  'x, y, z'
loop_
 _atom_site_type_symbol
 _atom_site_label
 _atom_site_symmetry_multiplicity
 _atom_site_fract_x
 _atom_site_fract_y
 _atom_site_fract_z
 _atom_site_occupancy
  Ba  Ba0  1  0.33333300  0.66666700  0.39846000  1
  Ba  Ba1  1  0.00000000  0.00000000  0.25000000  1
  Ba  Ba2  1  0.00000000  0.00000000  0.75000000  1
  Ba  Ba3  1  0.66666700  0.33333300  0.89846000  1
  Ba  Ba4  1  0.66666700  0.33333300  0.60154000  1
  Ba  Ba5  1  0.33333300  0.66666700  0.10154000  1
  B  B0  1  0.66666700  0.33333300  0.25000000  1
  B  B1  1  0.33333300  0.66666700  0.75000000  1
  As  As0  1  0.00000000  0.00000000  0.00000000  1
  As  As1  1  0.00000000  0.00000000  0.50000000  1
  O  O0  1  0.47771900  0.95543800  0.75000000  1
  O  O1  1  0.52228100  0.47771900  0.25000000  1
  O  O2  1  0.52228100  0.04456200  0.25000000  1
  O  O3  1  0.04456200  0.52228100  0.75000000  1
  O  O4  1  0.47771900  0.52228100  0.75000000  1
  O  O5  1  0.95543800  0.47771900  0.25000000  1
loop_
_geom_bond_atom_site_label_1
_geom_bond_atom_site_label_2
_geom_bond_distance
_geom_bond_site_symmetry_2
Ba0 O5 2.773879 1_455
Ba0 O2 2.773879 1_565
Ba0 O1 2.773883 1_555
Ba1 O1 2.806522 1_555
Ba1 O1 2.806522 1_445
Ba1 O2 2.806522 1_555
Ba1 O5 2.806522 1_445
Ba1 O5 2.806522 1_455
Ba1 O2 2.806522 1_455
Ba2 O4 2.806522 1_555
Ba2 O4 2.806522 1_445
Ba2 O0 2.806522 1_445
Ba2 O3 2.806522 1_555
Ba2 O0 2.806522 1_545
Ba2 O3 2.806522 1_545
Ba3 O3 2.773879 1_655
Ba3 O0 2.773879 1_545
Ba3 O4 2.773883 1_555
Ba4 O0 2.773879 1_545
Ba4 O3 2.773879 1_655
Ba4 O4 2.773883 1_555
Ba5 O5 2.773879 1_455
Ba5 O2 2.773879 1_565
Ba5 O1 2.773883 1_555
B0 O5 1.399564 1_555
B0 O2 1.399564 1_555
B0 O1 1.399569 1_555
B1 O3 1.399564 1_555
B1 O0 1.399564 1_555
B1 O4 1.399569 1_555
As0 Ba1 3.508113 1_555
As0 Ba2 3.508113 1_554
As0 Ba5 3.531300 1_545
As0 Ba3 3.531300 1_454
As0 Ba3 3.531305 1_444
As0 Ba5 3.531305 1_555
As0 Ba5 3.531305 1_445
As0 Ba3 3.531305 1_554
As1 Ba2 3.508113 1_555
As1 Ba1 3.508113 1_555
As1 Ba0 3.531300 1_545
As1 Ba4 3.531300 1_455
As1 Ba0 3.531305 1_555
As1 Ba4 3.531305 1_445
As1 Ba0 3.531305 1_445
As1 Ba4 3.531305 1_555
