# generated using pymatgen
data_Li2PmGe
_symmetry_space_group_name_H-M   'P 1'
_cell_length_a   4.64000426
_cell_length_b   4.64000426
_cell_length_c   4.64000426
_cell_angle_alpha   60.00000000
_cell_angle_beta   60.00000000
_cell_angle_gamma   60.00000000
_symmetry_Int_Tables_number   1
_chemical_formula_structural   Li2PmGe
_chemical_formula_sum   'Li2 Pm1 Ge1'
_cell_volume   70.63828412
_cell_formula_units_Z   1
loop_
 _symmetry_equiv_pos_site_id
 _symmetry_equiv_pos_as_xyz
  1  'x, y, z'
loop_
 _atom_site_type_symbol
 _atom_site_label
 _atom_site_symmetry_multiplicity
 _atom_site_fract_x
 _atom_site_fract_y
 _atom_site_fract_z
 _atom_site_occupancy
  Li  Li0  1  0.00000000  0.00000000  -0.00000000  1
  Li  Li1  1  0.50000100  0.50000100  0.50000100  1
  Pm  Pm0  1  0.75000000  0.75000000  0.75000000  1
  Ge  Ge0  1  0.25000100  0.25000100  0.25000100  1
loop_
_geom_bond_atom_site_label_1
_geom_bond_atom_site_label_2
_geom_bond_distance
_geom_bond_site_symmetry_2
Li0 Pm0 2.841411 1_454
Li0 Pm0 2.841411 1_544
Li0 Pm0 2.841411 1_444
Li0 Pm0 2.841411 1_445
Li1 Pm0 2.841399 1_555
Li1 Pm0 2.841415 1_455
Li1 Pm0 2.841415 1_545
Li1 Pm0 2.841415 1_554
Ge0 Li0 2.841407 1_565
Ge0 Li0 2.841407 1_655
Ge0 Li0 2.841407 1_556
Ge0 Li1 2.841411 1_455
Ge0 Li1 2.841411 1_554
Ge0 Li1 2.841411 1_545
Ge0 Li1 2.841411 1_555
Ge0 Li0 2.841422 1_555
Ge0 Pm0 3.280972 1_545
Ge0 Pm0 3.280972 1_455
Ge0 Pm0 3.280972 1_554
Ge0 Pm0 3.280985 1_454
Ge0 Pm0 3.280985 1_544
Ge0 Pm0 3.280985 1_445
