# generated using pymatgen
data_Sm2(ReB2)3
_symmetry_space_group_name_H-M   'P 1'
_cell_length_a   6.26513081
_cell_length_b   6.26513081
_cell_length_c   7.55647636
_cell_angle_alpha   89.42583624
_cell_angle_beta   89.42583624
_cell_angle_gamma   114.32410280
_symmetry_Int_Tables_number   1
_chemical_formula_structural   Sm2(ReB2)3
_chemical_formula_sum   'Sm4 Re6 B12'
_cell_volume   270.22995847
_cell_formula_units_Z   2
loop_
 _symmetry_equiv_pos_site_id
 _symmetry_equiv_pos_as_xyz
  1  'x, y, z'
loop_
 _atom_site_type_symbol
 _atom_site_label
 _atom_site_symmetry_multiplicity
 _atom_site_fract_x
 _atom_site_fract_y
 _atom_site_fract_z
 _atom_site_occupancy
  Sm  Sm0  1  0.44263848  0.09606577  0.17550727  1
  Sm  Sm1  1  0.90393423  0.55736152  0.32449273  1
  Sm  Sm2  1  0.55736152  0.90393423  0.82449273  1
  Sm  Sm3  1  0.09606577  0.44263848  0.67550727  1
  Re  Re0  1  0.80581095  0.98978488  0.41209996  1
  Re  Re1  1  0.01021512  0.19418905  0.08790004  1
  Re  Re2  1  0.19418905  0.01021512  0.58790004  1
  Re  Re3  1  0.98978488  0.80581095  0.91209996  1
  Re  Re4  1  0.41472738  0.58527262  0.25000000  1
  Re  Re5  1  0.58527262  0.41472738  0.75000000  1
  B  B0  1  0.15098112  0.24470611  0.36864045  1
  B  B1  1  0.75529389  0.84901888  0.13135955  1
  B  B2  1  0.84901888  0.75529389  0.63135955  1
  B  B3  1  0.24470611  0.15098112  0.86864045  1
  B  B4  1  0.15909627  0.58622320  0.02045543  1
  B  B5  1  0.41377680  0.84090373  0.47954457  1
  B  B6  1  0.84090373  0.41377680  0.97954457  1
  B  B7  1  0.58622320  0.15909627  0.52045543  1
  B  B8  1  0.34956983  0.44137990  0.96585736  1
  B  B9  1  0.55862010  0.65043017  0.53414264  1
  B  B10  1  0.65043017  0.55862010  0.03414264  1
  B  B11  1  0.44137990  0.34956983  0.46585736  1
loop_
_geom_bond_atom_site_label_1
_geom_bond_atom_site_label_2
_geom_bond_distance
_geom_bond_site_symmetry_2
B0 B11 1.825713 1_555
B0 Re0 2.113102 1_445
B0 Re4 2.261483 1_555
B0 Re1 2.280205 1_555
B0 Re2 2.294449 1_555
B0 Sm3 2.725114 1_555
B0 Sm0 2.776980 1_555
B0 Sm1 2.973009 1_455
B1 B10 1.825713 1_555
B1 Re1 2.113102 1_665
B1 Re4 2.261483 1_555
B1 Re0 2.280205 1_555
B1 Re3 2.294449 1_554
B1 Sm2 2.725114 1_554
B1 Sm1 2.776980 1_555
B1 Sm0 2.973009 1_565
B2 B9 1.825713 1_555
B2 Re2 2.113102 1_665
B2 Re5 2.261483 1_555
B2 Re3 2.280205 1_555
B2 Re0 2.294449 1_555
B2 Sm1 2.725114 1_555
B2 Sm2 2.776980 1_555
B2 Sm3 2.973009 1_655
B3 B8 1.825713 1_555
B3 Re3 2.113102 1_445
B3 Re5 2.261483 1_555
B3 Re2 2.280205 1_555
B3 Re1 2.294449 1_556
B3 Sm0 2.725114 1_556
B3 Sm3 2.776980 1_555
B3 Sm2 2.973009 1_545
B4 B8 1.818653 1_554
B4 B6 1.865932 1_454
B4 Re3 2.210275 1_454
B4 Re1 2.289214 1_555
B4 Re4 2.374241 1_555
B4 Sm3 2.744902 1_554
B4 Sm1 2.747091 1_455
B4 Sm2 2.855893 1_554
B4 Sm0 3.189639 1_565
B5 B9 1.818653 1_555
B5 B7 1.865932 1_565
B5 Re2 2.210275 1_565
B5 Re0 2.289214 1_555
B5 Re4 2.374241 1_555
B5 Sm2 2.744902 1_555
B5 Sm0 2.747091 1_565
B5 Sm3 2.855893 1_555
B5 Sm1 3.189639 1_455
B6 Re1 2.210275 1_656
B6 Re3 2.289214 1_555
B6 Re5 2.374241 1_555
B6 Sm1 2.744902 1_556
B6 Sm3 2.747091 1_655
B6 Sm0 2.855893 1_556
B6 Sm2 3.189639 1_545
B7 Re0 2.210275 1_545
B7 Re2 2.289214 1_555
B7 Re5 2.374241 1_555
B7 Sm0 2.744902 1_555
B7 Sm2 2.747091 1_545
B7 Sm1 2.855893 1_555
B7 Sm3 3.189639 1_655
B8 Re1 2.233564 1_556
B8 Re5 2.242638 1_555
B8 Re4 2.311420 1_556
B8 Sm3 2.723252 1_555
B8 Sm2 2.834826 1_555
B8 Sm0 2.918769 1_556
B9 Re0 2.233564 1_555
B9 Re5 2.242638 1_555
B9 Re4 2.311420 1_555
B9 Sm2 2.723252 1_555
B9 Sm3 2.834826 1_555
B9 Sm1 2.918769 1_555
B10 B8 1.801460 1_554
B10 B6 1.818653 1_554
B10 Re3 2.233564 1_554
B10 Re4 2.242638 1_555
B10 Re5 2.311420 1_554
B10 Sm1 2.723252 1_555
B10 Sm0 2.834826 1_555
B10 Sm2 2.918769 1_554
B11 B9 1.801460 1_555
B11 B7 1.818653 1_555
B11 Re2 2.233564 1_555
B11 Re4 2.242638 1_555
B11 Re5 2.311420 1_555
B11 Sm0 2.723252 1_555
B11 Sm1 2.834826 1_555
B11 Sm3 2.918769 1_555
