# generated using pymatgen
data_Li2SnHg
_symmetry_space_group_name_H-M   'P 1'
_cell_length_a   4.72409022
_cell_length_b   4.72525670
_cell_length_c   4.72303427
_cell_angle_alpha   59.99603215
_cell_angle_beta   60.02589682
_cell_angle_gamma   59.98123683
_symmetry_Int_Tables_number   1
_chemical_formula_structural   Li2SnHg
_chemical_formula_sum   'Li2 Sn1 Hg1'
_cell_volume   74.55211042
_cell_formula_units_Z   1
loop_
 _symmetry_equiv_pos_site_id
 _symmetry_equiv_pos_as_xyz
  1  'x, y, z'
loop_
 _atom_site_type_symbol
 _atom_site_label
 _atom_site_symmetry_multiplicity
 _atom_site_fract_x
 _atom_site_fract_y
 _atom_site_fract_z
 _atom_site_occupancy
  Li  Li0  1  0.00004291  0.00001052  -0.00001228  1
  Li  Li1  1  0.49995744  0.49998920  0.50001253  1
  Sn  Sn0  1  0.75000069  0.74999988  0.75000067  1
  Hg  Hg0  1  0.25000096  0.25000240  0.25000009  1
loop_
_geom_bond_atom_site_label_1
_geom_bond_atom_site_label_2
_geom_bond_distance
_geom_bond_site_symmetry_2
Li0 Sn0 2.892890 1_454
Li0 Sn0 2.892922 1_445
Li0 Sn0 2.892925 1_544
Li0 Sn0 2.893056 1_444
Li1 Sn0 2.892890 1_545
Li1 Sn0 2.892918 1_554
Li1 Sn0 2.892921 1_455
Li1 Sn0 2.893064 1_555
Hg0 Li1 2.892731 1_555
Hg0 Li0 2.892757 1_555
Hg0 Li1 2.892824 1_554
Hg0 Li0 2.892824 1_556
Hg0 Li0 2.892963 1_565
Hg0 Li1 2.892982 1_545
Hg0 Li0 2.893249 1_655
Hg0 Li1 2.893255 1_455
