# generated using pymatgen
data_EuNiGe3
_symmetry_space_group_name_H-M   'P 1'
_cell_length_a   5.78399439
_cell_length_b   5.78399439
_cell_length_c   5.78399439
_cell_angle_alpha   136.02053060
_cell_angle_beta   136.02053060
_cell_angle_gamma   63.94859619
_symmetry_Int_Tables_number   1
_chemical_formula_structural   EuNiGe3
_chemical_formula_sum   'Eu1 Ni1 Ge3'
_cell_volume   92.05583106
_cell_formula_units_Z   1
loop_
 _symmetry_equiv_pos_site_id
 _symmetry_equiv_pos_as_xyz
  1  'x, y, z'
loop_
 _atom_site_type_symbol
 _atom_site_label
 _atom_site_symmetry_multiplicity
 _atom_site_fract_x
 _atom_site_fract_y
 _atom_site_fract_z
 _atom_site_occupancy
  Eu  Eu0  1  0.00163299  0.00163299  -0.00000000  1
  Ni  Ni0  1  0.34593768  0.34593768  -0.00000000  1
  Ge  Ge0  1  0.24737291  0.74737291  0.50000000  1
  Ge  Ge1  1  0.74737291  0.24737291  0.50000000  1
  Ge  Ge2  1  0.58318451  0.58318451  0.00000000  1
loop_
_geom_bond_atom_site_label_1
_geom_bond_atom_site_label_2
_geom_bond_distance
_geom_bond_site_symmetry_2
Eu0 Ge2 3.165670 1_444
Eu0 Ge2 3.165670 1_556
Eu0 Ge2 3.165670 1_545
Eu0 Ge2 3.165670 1_455
Eu0 Ge1 3.241226 1_454
Eu0 Ge0 3.241226 1_555
Eu0 Ge0 3.241226 1_544
Eu0 Ge1 3.241226 1_555
Eu0 Ge0 3.303902 1_444
Eu0 Ge0 3.303902 1_545
Eu0 Ge1 3.303902 1_444
Eu0 Ge1 3.303902 1_455
Eu0 Ni0 3.378648 1_555
Eu0 Ni0 3.422764 1_556
Eu0 Ni0 3.422764 1_444
Eu0 Ni0 3.422764 1_455
Eu0 Ni0 3.422764 1_545
Ge0 Ni0 2.371924 1_555
Ge0 Ni0 2.371924 1_566
Ge0 Ge2 2.699334 1_556
Ge0 Ge2 2.699334 1_455
Ge1 Ni0 2.371924 1_555
Ge1 Ni0 2.371924 1_656
Ge1 Ge2 2.699334 1_545
Ge1 Ge2 2.699334 1_556
Ge2 Ni0 2.328094 1_555
