# generated using pymatgen
data_NaScS2
_symmetry_space_group_name_H-M   'P 1'
_cell_length_a   3.75888648
_cell_length_b   3.75888679
_cell_length_c   6.90391368
_cell_angle_alpha   74.20306546
_cell_angle_beta   74.20306230
_cell_angle_gamma   59.99998838
_symmetry_Int_Tables_number   1
_chemical_formula_structural   NaScS2
_chemical_formula_sum   'Na1 Sc1 S2'
_cell_volume   80.19591520
_cell_formula_units_Z   1
loop_
 _symmetry_equiv_pos_site_id
 _symmetry_equiv_pos_as_xyz
  1  'x, y, z'
loop_
 _atom_site_type_symbol
 _atom_site_label
 _atom_site_symmetry_multiplicity
 _atom_site_fract_x
 _atom_site_fract_y
 _atom_site_fract_z
 _atom_site_occupancy
  Na  Na0  1  0.50000000  0.50000000  0.50000000  1
  Sc  Sc0  1  -0.00000000  -0.00000000  0.00000000  1
  S  S0  1  0.73954317  0.73954317  0.78137050  1
  S  S1  1  0.26045683  0.26045683  0.21862950  1
loop_
_geom_bond_atom_site_label_1
_geom_bond_atom_site_label_2
_geom_bond_distance
_geom_bond_site_symmetry_2
Na0 S0 2.847877 1_455
Na0 S1 2.847877 1_655
Na0 S0 2.847877 1_545
Na0 S1 2.847877 1_565
Na0 S0 2.847878 1_555
Na0 S1 2.847878 1_555
S0 Sc0 2.600559 1_566
S0 Sc0 2.600559 1_656
S0 Sc0 2.600559 1_666
S1 Sc0 2.600559 1_655
S1 Sc0 2.600559 1_565
S1 Sc0 2.600559 1_555
