# generated using pymatgen
data_AgBiO2
_symmetry_space_group_name_H-M   'P 1'
_cell_length_a   6.64182977
_cell_length_b   6.64182977
_cell_length_c   6.70145401
_cell_angle_alpha   82.07692725
_cell_angle_beta   82.07692725
_cell_angle_gamma   31.48339616
_symmetry_Int_Tables_number   1
_chemical_formula_structural   AgBiO2
_chemical_formula_sum   'Ag2 Bi2 O4'
_cell_volume   152.80025596
_cell_formula_units_Z   2
loop_
 _symmetry_equiv_pos_site_id
 _symmetry_equiv_pos_as_xyz
  1  'x, y, z'
loop_
 _atom_site_type_symbol
 _atom_site_label
 _atom_site_symmetry_multiplicity
 _atom_site_fract_x
 _atom_site_fract_y
 _atom_site_fract_z
 _atom_site_occupancy
  Ag  Ag0  1  0.00000000  0.00000000  0.00000000  1
  Ag  Ag1  1  0.50000000  0.50000000  0.50000000  1
  Bi  Bi0  1  0.75374000  0.75374000  0.73903000  1
  Bi  Bi1  1  0.24626000  0.24626000  0.26097000  1
  O  O0  1  0.33613000  0.33613000  0.51698000  1
  O  O1  1  0.66387000  0.66387000  0.48302000  1
  O  O2  1  0.83927000  0.83927000  0.11651000  1
  O  O3  1  0.16073000  0.16073000  0.88349000  1
loop_
_geom_bond_atom_site_label_1
_geom_bond_atom_site_label_2
_geom_bond_distance
_geom_bond_site_symmetry_2
Ag0 O3 2.091194 1_554
Ag0 O2 2.091194 1_445
Ag1 O1 2.081903 1_555
Ag1 O0 2.081903 1_555
Bi0 O1 2.197346 1_555
Bi0 O3 2.295335 1_655
Bi0 O3 2.295335 1_565
Bi0 O0 2.474256 1_655
Bi0 O0 2.474256 1_565
Bi1 O0 2.197346 1_555
Bi1 O2 2.295335 1_455
Bi1 O2 2.295335 1_545
Bi1 O1 2.474256 1_545
Bi1 O1 2.474256 1_455
