# generated using pymatgen
data_Yb3In3Ge2Au
_symmetry_space_group_name_H-M   'P 1'
_cell_length_a   7.39381781
_cell_length_b   7.39381781
_cell_length_c   4.45907900
_cell_angle_alpha   90.00000000
_cell_angle_beta   90.00000000
_cell_angle_gamma   119.99999830
_symmetry_Int_Tables_number   1
_chemical_formula_structural   Yb3In3Ge2Au
_chemical_formula_sum   'Yb3 In3 Ge2 Au1'
_cell_volume   211.11218262
_cell_formula_units_Z   1
loop_
 _symmetry_equiv_pos_site_id
 _symmetry_equiv_pos_as_xyz
  1  'x, y, z'
loop_
 _atom_site_type_symbol
 _atom_site_label
 _atom_site_symmetry_multiplicity
 _atom_site_fract_x
 _atom_site_fract_y
 _atom_site_fract_z
 _atom_site_occupancy
  Yb  Yb0  1  0.41787100  0.00000000  0.50000000  1
  Yb  Yb1  1  0.00000000  0.41787100  0.50000000  1
  Yb  Yb2  1  0.58212900  0.58212900  0.50000000  1
  In  In0  1  0.74868500  0.00000000  0.00000000  1
  In  In1  1  0.00000000  0.74868500  0.00000000  1
  In  In2  1  0.25131500  0.25131500  0.00000000  1
  Ge  Ge0  1  0.33333300  0.66666700  0.00000000  1
  Ge  Ge1  1  0.66666700  0.33333300  0.00000000  1
  Au  Au0  1  0.00000000  0.00000000  0.50000000  1
loop_
_geom_bond_atom_site_label_1
_geom_bond_atom_site_label_2
_geom_bond_distance
_geom_bond_site_symmetry_2
In0 In1 3.218458 1_645
In0 In2 3.218458 1_655
In0 Yb0 3.309631 1_555
In0 Yb0 3.309631 1_554
In0 Yb2 3.496933 1_544
In0 Yb2 3.496933 1_545
In0 Yb1 3.496933 1_654
In0 Yb1 3.496933 1_655
In1 In2 3.218458 1_565
In1 Yb1 3.309631 1_554
In1 Yb1 3.309631 1_555
In1 Yb2 3.496933 1_455
In1 Yb2 3.496933 1_454
In1 Yb0 3.496933 1_564
In1 Yb0 3.496933 1_565
In2 Yb2 3.309631 1_555
In2 Yb2 3.309631 1_554
In2 Yb0 3.496933 1_555
In2 Yb0 3.496933 1_554
In2 Yb1 3.496933 1_555
In2 Yb1 3.496933 1_554
Ge0 In1 2.817201 1_555
Ge0 In0 2.817206 1_565
Ge0 In2 2.817209 1_555
Ge0 Yb0 3.145679 1_565
Ge0 Yb0 3.145679 1_564
Ge0 Yb1 3.145680 1_554
Ge0 Yb1 3.145680 1_555
Ge0 Yb2 3.145684 1_554
Ge0 Yb2 3.145684 1_555
Ge1 In0 2.817201 1_555
Ge1 In1 2.817206 1_655
Ge1 In2 2.817209 1_555
Ge1 Yb1 3.145679 1_655
Ge1 Yb1 3.145679 1_654
Ge1 Yb0 3.145680 1_555
Ge1 Yb0 3.145680 1_554
Ge1 Yb2 3.145684 1_554
Ge1 Yb2 3.145684 1_555
Au0 In1 2.902356 1_545
Au0 In1 2.902356 1_546
Au0 In0 2.902356 1_455
Au0 In0 2.902356 1_456
Au0 In2 2.902356 1_555
Au0 In2 2.902356 1_556
Au0 Yb0 3.089662 1_555
Au0 Yb1 3.089662 1_555
Au0 Yb2 3.089662 1_445
