# generated using pymatgen
data_KF2
_symmetry_space_group_name_H-M   'P 1'
_cell_length_a   4.94757198
_cell_length_b   4.94728542
_cell_length_c   4.94090774
_cell_angle_alpha   90.00000000
_cell_angle_beta   90.00000000
_cell_angle_gamma   90.00017950
_symmetry_Int_Tables_number   1
_chemical_formula_structural   KF2
_chemical_formula_sum   'K2 F4'
_cell_volume   120.93884936
_cell_formula_units_Z   2
loop_
 _symmetry_equiv_pos_site_id
 _symmetry_equiv_pos_as_xyz
  1  'x, y, z'
loop_
 _atom_site_type_symbol
 _atom_site_label
 _atom_site_symmetry_multiplicity
 _atom_site_fract_x
 _atom_site_fract_y
 _atom_site_fract_z
 _atom_site_occupancy
  K  K0  1  0.99998521  0.00000316  0.00000000  1
  K  K1  1  0.49998635  0.49999801  0.50000000  1
  F  F0  1  0.36178345  0.36178425  -0.00000000  1
  F  F1  1  0.63823031  0.63818453  -0.00000000  1
  F  F2  1  0.86178323  0.13821585  0.50000000  1
  F  F3  1  0.13823045  0.86181520  0.50000000  1
loop_
_geom_bond_atom_site_label_1
_geom_bond_atom_site_label_2
_geom_bond_distance
_geom_bond_site_symmetry_2
F0 K0 2.531337 1_455
F0 K1 2.652968 1_555
F0 K1 2.652968 1_554
F1 K0 2.531317 1_565
F1 K1 2.652985 1_555
F1 K1 2.652985 1_554
F2 K1 2.531344 1_555
F2 K0 2.652966 1_555
F2 K0 2.652966 1_556
F3 K1 2.531323 1_555
F3 K0 2.652990 1_466
F3 K0 2.652990 1_465
