# generated using pymatgen
data_RbZn4P3
_symmetry_space_group_name_H-M   'P 1'
_cell_length_a   4.03390773
_cell_length_b   4.03390773
_cell_length_c   10.09839462
_cell_angle_alpha   90.00000000
_cell_angle_beta   90.00000000
_cell_angle_gamma   90.00000000
_symmetry_Int_Tables_number   1
_chemical_formula_structural   RbZn4P3
_chemical_formula_sum   'Rb1 Zn4 P3'
_cell_volume   164.32523349
_cell_formula_units_Z   1
loop_
 _symmetry_equiv_pos_site_id
 _symmetry_equiv_pos_as_xyz
  1  'x, y, z'
loop_
 _atom_site_type_symbol
 _atom_site_label
 _atom_site_symmetry_multiplicity
 _atom_site_fract_x
 _atom_site_fract_y
 _atom_site_fract_z
 _atom_site_occupancy
  Rb  Rb0  1  0.00000000  -0.00000000  0.50000100  1
  Zn  Zn0  1  0.00000000  0.50000100  0.15649044  1
  Zn  Zn1  1  -0.00000000  0.50000100  0.84350856  1
  Zn  Zn2  1  0.50000100  -0.00000000  0.84350856  1
  Zn  Zn3  1  0.50000100  -0.00000000  0.15649044  1
  P  P0  1  0.00000000  -0.00000000  -0.00000000  1
  P  P1  1  0.50000100  0.50000100  0.28371354  1
  P  P2  1  0.50000100  0.50000100  0.71628646  1
loop_
_geom_bond_atom_site_label_1
_geom_bond_atom_site_label_2
_geom_bond_distance
_geom_bond_site_symmetry_2
P0 Zn0 2.562312 1_545
P0 Zn3 2.562312 1_455
P0 Zn1 2.562318 1_544
P0 Zn2 2.562318 1_454
P0 Zn3 2.562318 1_555
P0 Zn0 2.562318 1_555
P0 Zn1 2.562324 1_554
P0 Zn2 2.562324 1_554
P1 Zn0 2.391373 1_655
P1 Zn3 2.391373 1_565
P1 Zn3 2.391380 1_555
P1 Zn0 2.391380 1_555
P1 Rb0 3.592591 1_665
P1 Rb0 3.592596 1_655
P1 Rb0 3.592596 1_565
P1 Rb0 3.592600 1_555
P2 Zn1 2.391368 1_655
P2 Zn2 2.391368 1_565
P2 Zn1 2.391375 1_555
P2 Zn2 2.391375 1_555
P2 Rb0 3.592579 1_665
P2 Rb0 3.592583 1_565
P2 Rb0 3.592583 1_655
P2 Rb0 3.592588 1_555
