# generated using pymatgen
data_TiAu
_symmetry_space_group_name_H-M   'P 1'
_cell_length_a   9.23014274
_cell_length_b   5.91038880
_cell_length_c   9.89502600
_cell_angle_alpha   90.00000000
_cell_angle_beta   90.00000000
_cell_angle_gamma   90.00000000
_symmetry_Int_Tables_number   1
_chemical_formula_structural   TiAu
_chemical_formula_sum   'Ti16 Au16'
_cell_volume   539.81059924
_cell_formula_units_Z   16
loop_
 _symmetry_equiv_pos_site_id
 _symmetry_equiv_pos_as_xyz
  1  'x, y, z'
loop_
 _atom_site_type_symbol
 _atom_site_label
 _atom_site_symmetry_multiplicity
 _atom_site_fract_x
 _atom_site_fract_y
 _atom_site_fract_z
 _atom_site_occupancy
  Ti  Ti0_0  1  0.12500000  0.00000000  0.16009500  1
  Ti  Ti0_1  1  0.12500000  0.00000000  0.66009500  1
  Ti  Ti0_2  1  0.12500000  0.50000000  0.16009500  1
  Ti  Ti0_3  1  0.12500000  0.50000000  0.66009500  1
  Ti  Ti0_4  1  0.62500000  0.00000000  0.16009500  1
  Ti  Ti0_5  1  0.62500000  0.00000000  0.66009500  1
  Ti  Ti0_6  1  0.62500000  0.50000000  0.16009500  1
  Ti  Ti0_7  1  0.62500000  0.50000000  0.66009500  1
  Ti  Ti1_0  1  0.37500000  0.00000000  0.33990450  1
  Ti  Ti1_1  1  0.37500000  0.00000000  0.83990450  1
  Ti  Ti1_2  1  0.37500000  0.50000000  0.33990450  1
  Ti  Ti1_3  1  0.37500000  0.50000000  0.83990450  1
  Ti  Ti1_4  1  0.87500000  0.00000000  0.33990450  1
  Ti  Ti1_5  1  0.87500000  0.00000000  0.83990450  1
  Ti  Ti1_6  1  0.87500000  0.50000000  0.33990450  1
  Ti  Ti1_7  1  0.87500000  0.50000000  0.83990450  1
  Au  Au0_0  1  0.12500000  0.25000000  0.41205499  1
  Au  Au0_1  1  0.12500000  0.25000000  0.91205499  1
  Au  Au0_2  1  0.12500000  0.75000000  0.41205499  1
  Au  Au0_3  1  0.12500000  0.75000000  0.91205499  1
  Au  Au0_4  1  0.62500000  0.25000000  0.41205499  1
  Au  Au0_5  1  0.62500000  0.25000000  0.91205499  1
  Au  Au0_6  1  0.62500000  0.75000000  0.41205499  1
  Au  Au0_7  1  0.62500000  0.75000000  0.91205499  1
  Au  Au1_0  1  0.37500000  0.25000000  0.08794501  1
  Au  Au1_1  1  0.37500000  0.25000000  0.58794501  1
  Au  Au1_2  1  0.37500000  0.75000000  0.08794501  1
  Au  Au1_3  1  0.37500000  0.75000000  0.58794501  1
  Au  Au1_4  1  0.87500000  0.25000000  0.08794501  1
  Au  Au1_5  1  0.87500000  0.25000000  0.58794501  1
  Au  Au1_6  1  0.87500000  0.75000000  0.08794501  1
  Au  Au1_7  1  0.87500000  0.75000000  0.58794501  1
loop_
_geom_bond_atom_site_label_1
_geom_bond_atom_site_label_2
_geom_bond_distance
_geom_bond_site_symmetry_2
Ti0_0 Ti1_4 2.913819 1_455
Ti0_0 Ti1_0 2.913819 1_555
Ti0_0 Ti0_2 2.955194 1_555
Ti0_0 Ti0_2 2.955194 1_545
Ti0_1 Ti1_5 2.913819 1_455
Ti0_1 Ti1_1 2.913819 1_555
Ti0_1 Ti0_3 2.955194 1_545
Ti0_1 Ti0_3 2.955194 1_555
Ti0_2 Ti1_6 2.913819 1_455
Ti0_2 Ti1_2 2.913819 1_555
Ti0_3 Ti1_7 2.913819 1_455
Ti0_3 Ti1_3 2.913819 1_555
Ti0_4 Ti1_0 2.913819 1_555
Ti0_4 Ti1_4 2.913819 1_555
Ti0_4 Ti0_6 2.955194 1_545
Ti0_4 Ti0_6 2.955194 1_555
Ti0_5 Ti1_1 2.913819 1_555
Ti0_5 Ti1_5 2.913819 1_555
Ti0_5 Ti0_7 2.955194 1_555
Ti0_5 Ti0_7 2.955194 1_545
Ti0_6 Ti1_2 2.913819 1_555
Ti0_6 Ti1_6 2.913819 1_555
Ti0_7 Ti1_3 2.913819 1_555
Ti0_7 Ti1_7 2.913819 1_555
Ti1_0 Ti1_2 2.955194 1_545
Ti1_0 Ti1_2 2.955194 1_555
Ti1_1 Ti1_3 2.955194 1_545
Ti1_1 Ti1_3 2.955194 1_555
Ti1_4 Ti1_6 2.955194 1_545
Ti1_4 Ti1_6 2.955194 1_555
Ti1_5 Ti1_7 2.955194 1_555
Ti1_5 Ti1_7 2.955194 1_545
Au0_0 Ti1_6 2.831556 1_455
Au0_0 Ti1_4 2.831556 1_455
Au0_0 Ti1_2 2.831556 1_555
Au0_0 Ti1_0 2.831556 1_555
Au0_0 Ti0_3 2.864819 1_555
Au0_0 Ti0_1 2.864819 1_555
Au0_0 Au1_1 2.890301 1_555
Au0_0 Au1_5 2.890301 1_455
Au0_0 Ti0_2 2.898119 1_555
Au0_0 Ti0_0 2.898119 1_555
Au0_0 Au0_2 2.955194 1_555
Au0_0 Au0_2 2.955194 1_545
Au0_1 Ti1_7 2.831556 1_455
Au0_1 Ti1_5 2.831556 1_455
Au0_1 Ti1_3 2.831556 1_555
Au0_1 Ti1_1 2.831556 1_555
Au0_1 Ti0_2 2.864819 1_556
Au0_1 Ti0_0 2.864819 1_556
Au0_1 Au1_4 2.890301 1_456
Au0_1 Au1_0 2.890301 1_556
Au0_1 Ti0_1 2.898119 1_555
Au0_1 Ti0_3 2.898119 1_555
Au0_1 Au0_3 2.955194 1_555
Au0_1 Au0_3 2.955194 1_545
Au0_2 Ti1_6 2.831556 1_455
Au0_2 Ti1_4 2.831556 1_465
Au0_2 Ti1_0 2.831556 1_565
Au0_2 Ti1_2 2.831556 1_555
Au0_2 Ti0_1 2.864819 1_565
Au0_2 Ti0_3 2.864819 1_555
Au0_2 Au1_3 2.890301 1_555
Au0_2 Au1_7 2.890301 1_455
Au0_2 Ti0_0 2.898119 1_565
Au0_2 Ti0_2 2.898119 1_555
Au0_3 Ti1_5 2.831556 1_465
Au0_3 Ti1_7 2.831556 1_455
Au0_3 Ti1_1 2.831556 1_565
Au0_3 Ti1_3 2.831556 1_555
Au0_3 Ti0_2 2.864819 1_556
Au0_3 Ti0_0 2.864819 1_566
Au0_3 Au1_6 2.890301 1_456
Au0_3 Au1_2 2.890301 1_556
Au0_3 Ti0_3 2.898119 1_555
Au0_3 Ti0_1 2.898119 1_565
Au0_4 Ti1_2 2.831556 1_555
Au0_4 Ti1_0 2.831556 1_555
Au0_4 Ti1_6 2.831556 1_555
Au0_4 Ti1_4 2.831556 1_555
Au0_4 Ti0_5 2.864819 1_555
Au0_4 Ti0_7 2.864819 1_555
Au0_4 Au1_1 2.890301 1_555
Au0_4 Au1_5 2.890301 1_555
Au0_4 Ti0_4 2.898119 1_555
Au0_4 Ti0_6 2.898119 1_555
Au0_4 Au0_6 2.955194 1_555
Au0_4 Au0_6 2.955194 1_545
Au0_5 Ti1_3 2.831556 1_555
Au0_5 Ti1_1 2.831556 1_555
Au0_5 Ti1_7 2.831556 1_555
Au0_5 Ti1_5 2.831556 1_555
Au0_5 Ti0_6 2.864819 1_556
Au0_5 Ti0_4 2.864819 1_556
Au0_5 Au1_0 2.890301 1_556
Au0_5 Au1_4 2.890301 1_556
Au0_5 Ti0_7 2.898119 1_555
Au0_5 Ti0_5 2.898119 1_555
Au0_5 Au0_7 2.955194 1_555
Au0_5 Au0_7 2.955194 1_545
Au0_6 Ti1_2 2.831556 1_555
Au0_6 Ti1_6 2.831556 1_555
Au0_6 Ti1_0 2.831556 1_565
Au0_6 Ti1_4 2.831556 1_565
Au0_6 Ti0_5 2.864819 1_565
Au0_6 Ti0_7 2.864819 1_555
Au0_6 Au1_3 2.890301 1_555
Au0_6 Au1_7 2.890301 1_555
Au0_6 Ti0_6 2.898119 1_555
Au0_6 Ti0_4 2.898119 1_565
Au0_7 Ti1_5 2.831556 1_565
Au0_7 Ti1_3 2.831556 1_555
Au0_7 Ti1_7 2.831556 1_555
Au0_7 Ti1_1 2.831556 1_565
Au0_7 Ti0_4 2.864819 1_566
Au0_7 Ti0_6 2.864819 1_556
Au0_7 Au1_2 2.890301 1_556
Au0_7 Au1_6 2.890301 1_556
Au0_7 Ti0_5 2.898119 1_565
Au0_7 Ti0_7 2.898119 1_555
Au1_0 Ti0_4 2.831555 1_555
Au1_0 Ti0_6 2.831555 1_555
Au1_0 Ti0_2 2.831555 1_555
Au1_0 Ti0_0 2.831555 1_555
Au1_0 Ti1_1 2.864823 1_554
Au1_0 Ti1_3 2.864823 1_554
Au1_0 Ti1_2 2.898115 1_555
Au1_0 Ti1_0 2.898115 1_555
Au1_0 Au1_2 2.955194 1_555
Au1_0 Au1_2 2.955194 1_545
Au1_1 Ti0_5 2.831555 1_555
Au1_1 Ti0_7 2.831555 1_555
Au1_1 Ti0_3 2.831555 1_555
Au1_1 Ti0_1 2.831555 1_555
Au1_1 Ti1_0 2.864823 1_555
Au1_1 Ti1_2 2.864823 1_555
Au1_1 Ti1_3 2.898115 1_555
Au1_1 Ti1_1 2.898115 1_555
Au1_1 Au1_3 2.955194 1_545
Au1_1 Au1_3 2.955194 1_555
Au1_2 Ti0_4 2.831555 1_565
Au1_2 Ti0_6 2.831555 1_555
Au1_2 Ti0_2 2.831555 1_555
Au1_2 Ti0_0 2.831555 1_565
Au1_2 Ti1_1 2.864823 1_564
Au1_2 Ti1_3 2.864823 1_554
Au1_2 Ti1_2 2.898115 1_555
Au1_2 Ti1_0 2.898115 1_565
Au1_3 Ti0_5 2.831555 1_565
Au1_3 Ti0_7 2.831555 1_555
Au1_3 Ti0_1 2.831555 1_565
Au1_3 Ti0_3 2.831555 1_555
Au1_3 Ti1_2 2.864823 1_555
Au1_3 Ti1_0 2.864823 1_565
Au1_3 Ti1_3 2.898115 1_555
Au1_3 Ti1_1 2.898115 1_565
Au1_4 Ti0_6 2.831555 1_555
Au1_4 Ti0_2 2.831555 1_655
Au1_4 Ti0_4 2.831555 1_555
Au1_4 Ti0_0 2.831555 1_655
Au1_4 Ti1_7 2.864823 1_554
Au1_4 Ti1_5 2.864823 1_554
Au1_4 Ti1_4 2.898115 1_555
Au1_4 Ti1_6 2.898115 1_555
Au1_4 Au1_6 2.955194 1_555
Au1_4 Au1_6 2.955194 1_545
Au1_5 Ti0_7 2.831555 1_555
Au1_5 Ti0_3 2.831555 1_655
Au1_5 Ti0_1 2.831555 1_655
Au1_5 Ti0_5 2.831555 1_555
Au1_5 Ti1_4 2.864823 1_555
Au1_5 Ti1_6 2.864823 1_555
Au1_5 Ti1_7 2.898115 1_555
Au1_5 Ti1_5 2.898115 1_555
Au1_5 Au1_7 2.955194 1_545
Au1_5 Au1_7 2.955194 1_555
Au1_6 Ti0_6 2.831555 1_555
Au1_6 Ti0_2 2.831555 1_655
Au1_6 Ti0_0 2.831555 1_665
Au1_6 Ti0_4 2.831555 1_565
Au1_6 Ti1_7 2.864823 1_554
Au1_6 Ti1_5 2.864823 1_564
Au1_6 Ti1_6 2.898115 1_555
Au1_6 Ti1_4 2.898115 1_565
Au1_7 Ti0_5 2.831555 1_565
Au1_7 Ti0_7 2.831555 1_555
Au1_7 Ti0_3 2.831555 1_655
Au1_7 Ti0_1 2.831555 1_665
Au1_7 Ti1_6 2.864823 1_555
Au1_7 Ti1_4 2.864823 1_565
Au1_7 Ti1_7 2.898115 1_555
Au1_7 Ti1_5 2.898115 1_565
