# generated using pymatgen
data_RbTl3
_symmetry_space_group_name_H-M   'P 1'
_cell_length_a   5.82372721
_cell_length_b   5.82372721
_cell_length_c   5.82372721
_cell_angle_alpha   60.00000000
_cell_angle_beta   60.00000000
_cell_angle_gamma   60.00000000
_symmetry_Int_Tables_number   1
_chemical_formula_structural   RbTl3
_chemical_formula_sum   'Rb1 Tl3'
_cell_volume   139.66515682
_cell_formula_units_Z   1
loop_
 _symmetry_equiv_pos_site_id
 _symmetry_equiv_pos_as_xyz
  1  'x, y, z'
loop_
 _atom_site_type_symbol
 _atom_site_label
 _atom_site_symmetry_multiplicity
 _atom_site_fract_x
 _atom_site_fract_y
 _atom_site_fract_z
 _atom_site_occupancy
  Rb  Rb0  1  0.00000000  0.00000000  0.00000000  1
  Tl  Tl0  1  0.25000000  0.25000000  0.25000000  1
  Tl  Tl1  1  0.75000000  0.75000000  0.75000000  1
  Tl  Tl2  1  0.50000000  0.50000000  0.50000000  1
loop_
_geom_bond_atom_site_label_1
_geom_bond_atom_site_label_2
_geom_bond_distance
_geom_bond_site_symmetry_2
Rb0 Tl0 3.566290 1_554
Rb0 Tl1 3.566290 1_445
Rb0 Tl1 3.566290 1_444
Rb0 Tl0 3.566290 1_555
Rb0 Tl0 3.566290 1_455
Rb0 Tl1 3.566290 1_454
Rb0 Tl1 3.566290 1_544
Rb0 Tl0 3.566290 1_545
Rb0 Tl2 4.117997 1_545
Rb0 Tl2 4.117997 1_454
Rb0 Tl2 4.117997 1_554
Rb0 Tl2 4.117997 1_455
Rb0 Tl2 4.117997 1_445
Rb0 Tl2 4.117997 1_544
Tl0 Tl2 3.566290 1_555
Tl0 Tl2 3.566290 1_554
Tl0 Tl2 3.566290 1_545
Tl0 Tl2 3.566290 1_455
Tl1 Tl2 3.566290 1_555
Tl1 Tl2 3.566290 1_556
Tl1 Tl2 3.566290 1_565
Tl1 Tl2 3.566290 1_655
