# generated using pymatgen
data_SmGa2Co
_symmetry_space_group_name_H-M   'P 1'
_cell_length_a   9.00203525
_cell_length_b   9.00203525
_cell_length_c   4.08976790
_cell_angle_alpha   90.00000000
_cell_angle_beta   90.00000000
_cell_angle_gamma   26.35343726
_symmetry_Int_Tables_number   1
_chemical_formula_structural   SmGa2Co
_chemical_formula_sum   'Sm2 Ga4 Co2'
_cell_volume   147.12015798
_cell_formula_units_Z   2
loop_
 _symmetry_equiv_pos_site_id
 _symmetry_equiv_pos_as_xyz
  1  'x, y, z'
loop_
 _atom_site_type_symbol
 _atom_site_label
 _atom_site_symmetry_multiplicity
 _atom_site_fract_x
 _atom_site_fract_y
 _atom_site_fract_z
 _atom_site_occupancy
  Sm  Sm0  1  0.85737564  0.85737564  -0.00000000  1
  Sm  Sm1  1  0.14262436  0.14262436  -0.00000000  1
  Ga  Ga0  1  -0.00000000  -0.00000000  0.50000000  1
  Ga  Ga1  1  0.50000000  0.50000000  -0.00000000  1
  Ga  Ga2  1  0.70768090  0.70768090  0.50000000  1
  Ga  Ga3  1  0.29231910  0.29231910  0.50000000  1
  Co  Co0  1  0.57248700  0.57248700  0.50000000  1
  Co  Co1  1  0.42751200  0.42751200  0.50000000  1
loop_
_geom_bond_atom_site_label_1
_geom_bond_atom_site_label_2
_geom_bond_distance
_geom_bond_site_symmetry_2
Ga0 Sm0 3.229956 1_446
Ga0 Sm0 3.229956 1_445
Ga0 Sm1 3.229956 1_556
Ga0 Sm1 3.229956 1_555
Ga1 Sm0 3.234504 1_545
Ga1 Sm0 3.234504 1_455
Ga1 Sm1 3.234504 1_565
Ga1 Sm1 3.234504 1_655
Ga2 Ga3 2.532263 1_565
Ga2 Ga3 2.532263 1_655
Ga2 Sm1 3.113377 1_566
Ga2 Sm1 3.113377 1_565
Ga2 Sm1 3.113377 1_655
Ga2 Sm1 3.113377 1_656
Ga2 Sm0 3.326823 1_556
Ga2 Sm0 3.326823 1_555
Ga3 Sm0 3.113377 1_456
Ga3 Sm0 3.113377 1_455
Ga3 Sm0 3.113377 1_546
Ga3 Sm0 3.113377 1_545
Ga3 Sm1 3.326823 1_556
Ga3 Sm1 3.326823 1_555
Co0 Ga2 2.369956 1_555
Co0 Ga1 2.407536 1_556
Co0 Ga1 2.407536 1_555
Co0 Ga0 2.413635 1_655
Co0 Ga0 2.413635 1_565
Co0 Co1 2.541419 1_555
Co0 Sm1 3.147095 1_565
Co0 Sm1 3.147095 1_655
Co0 Sm1 3.147095 1_566
Co0 Sm1 3.147095 1_656
Co1 Ga3 2.369939 1_555
Co1 Ga1 2.407546 1_555
Co1 Ga1 2.407546 1_556
Co1 Ga0 2.413645 1_655
Co1 Ga0 2.413645 1_565
Co1 Sm0 3.147088 1_455
Co1 Sm0 3.147088 1_456
Co1 Sm0 3.147088 1_546
Co1 Sm0 3.147088 1_545
