# generated using pymatgen
data_Si3Mo
_symmetry_space_group_name_H-M   'P 1'
_cell_length_a   5.21028460
_cell_length_b   5.21028460
_cell_length_c   4.84001900
_cell_angle_alpha   90.00000000
_cell_angle_beta   90.00000000
_cell_angle_gamma   120.00000764
_symmetry_Int_Tables_number   1
_chemical_formula_structural   Si3Mo
_chemical_formula_sum   'Si6 Mo2'
_cell_volume   113.78907255
_cell_formula_units_Z   2
loop_
 _symmetry_equiv_pos_site_id
 _symmetry_equiv_pos_as_xyz
  1  'x, y, z'
loop_
 _atom_site_type_symbol
 _atom_site_label
 _atom_site_symmetry_multiplicity
 _atom_site_fract_x
 _atom_site_fract_y
 _atom_site_fract_z
 _atom_site_occupancy
  Si  Si0  1  0.82542100  0.17457900  0.75000000  1
  Si  Si1  1  0.34915800  0.17457900  0.75000000  1
  Si  Si2  1  0.82542100  0.65084200  0.75000000  1
  Si  Si3  1  0.17457900  0.82542100  0.25000000  1
  Si  Si4  1  0.65084200  0.82542100  0.25000000  1
  Si  Si5  1  0.17457900  0.34915800  0.25000000  1
  Mo  Mo0  1  0.66666700  0.33333300  0.25000000  1
  Mo  Mo1  1  0.33333300  0.66666700  0.75000000  1
loop_
_geom_bond_atom_site_label_1
_geom_bond_atom_site_label_2
_geom_bond_distance
_geom_bond_site_symmetry_2
Si0 Si1 2.481466 1_555
Si0 Si2 2.481466 1_555
Si0 Si2 2.728819 1_545
Si0 Si1 2.728819 1_655
Si0 Si4 2.887663 1_545
Si0 Si5 2.887663 1_656
Si0 Si4 2.887663 1_546
Si0 Si5 2.887663 1_655
Si1 Si2 2.481465 1_555
Si1 Si2 2.728819 1_445
Si1 Si3 2.887663 1_546
Si1 Si3 2.887663 1_545
Si1 Si5 2.887663 1_556
Si1 Si5 2.887663 1_555
Si2 Si3 2.887663 1_655
Si2 Si3 2.887663 1_656
Si2 Si4 2.887663 1_556
Si2 Si4 2.887663 1_555
Si3 Si5 2.481466 1_555
Si3 Si4 2.481466 1_555
Si3 Si4 2.728819 1_455
Si3 Si5 2.728819 1_565
Si4 Si5 2.481465 1_555
Si4 Si5 2.728819 1_665
Mo0 Si5 2.606118 1_655
Mo0 Si4 2.606118 1_545
Mo0 Si3 2.606120 1_545
Mo0 Si3 2.606120 1_655
Mo0 Si4 2.606123 1_555
Mo0 Si5 2.606123 1_555
Mo0 Si0 2.812294 1_555
Mo0 Si0 2.812294 1_554
Mo0 Si1 2.812296 1_555
Mo0 Si1 2.812296 1_554
Mo0 Si2 2.812296 1_555
Mo0 Si2 2.812296 1_554
Mo1 Si1 2.606118 1_565
Mo1 Si2 2.606118 1_455
Mo1 Si0 2.606120 1_455
Mo1 Si0 2.606120 1_565
Mo1 Si2 2.606123 1_555
Mo1 Si1 2.606123 1_555
Mo1 Si3 2.812294 1_555
Mo1 Si3 2.812294 1_556
Mo1 Si5 2.812296 1_556
Mo1 Si5 2.812296 1_555
Mo1 Si4 2.812296 1_556
Mo1 Si4 2.812296 1_555
