# generated using pymatgen
data_In
_symmetry_space_group_name_H-M   'P 1'
_cell_length_a   6.67097026
_cell_length_b   6.67096887
_cell_length_c   11.01828584
_cell_angle_alpha   90.00000000
_cell_angle_beta   90.00000000
_cell_angle_gamma   120.00000700
_symmetry_Int_Tables_number   1
_chemical_formula_structural   In
_chemical_formula_sum   In16
_cell_volume   424.64161634
_cell_formula_units_Z   16
loop_
 _symmetry_equiv_pos_site_id
 _symmetry_equiv_pos_as_xyz
  1  'x, y, z'
loop_
 _atom_site_type_symbol
 _atom_site_label
 _atom_site_symmetry_multiplicity
 _atom_site_fract_x
 _atom_site_fract_y
 _atom_site_fract_z
 _atom_site_occupancy
  In  In0_0  1  0.16666650  0.33333300  0.12499950  1
  In  In0_1  1  0.16666650  0.33333300  0.62499950  1
  In  In0_2  1  0.16666650  0.83333300  0.12499950  1
  In  In0_3  1  0.16666650  0.83333300  0.62499950  1
  In  In0_4  1  0.66666650  0.33333300  0.12499950  1
  In  In0_5  1  0.66666650  0.33333300  0.62499950  1
  In  In0_6  1  0.66666650  0.83333300  0.12499950  1
  In  In0_7  1  0.66666650  0.83333300  0.62499950  1
  In  In1_0  1  0.33333300  0.16666650  0.37500000  1
  In  In1_1  1  0.33333300  0.16666650  0.87500000  1
  In  In1_2  1  0.33333300  0.66666650  0.37500000  1
  In  In1_3  1  0.33333300  0.66666650  0.87500000  1
  In  In1_4  1  0.83333300  0.16666650  0.37500000  1
  In  In1_5  1  0.83333300  0.16666650  0.87500000  1
  In  In1_6  1  0.83333300  0.66666650  0.37500000  1
  In  In1_7  1  0.83333300  0.66666650  0.87500000  1
loop_
_geom_bond_atom_site_label_1
_geom_bond_atom_site_label_2
_geom_bond_distance
_geom_bond_site_symmetry_2
In0_0 In0_6 3.335484 1_555
In0_0 In0_6 3.335484 1_445
In0_0 In0_2 3.335484 1_555
In0_0 In0_2 3.335484 1_545
In0_0 In0_4 3.335485 1_455
In0_0 In0_4 3.335485 1_555
In0_0 In1_1 3.360969 1_554
In0_0 In1_3 3.360970 1_554
In0_0 In1_5 3.360971 1_454
In0_0 In1_0 3.360978 1_555
In0_0 In1_2 3.360979 1_555
In0_0 In1_4 3.360980 1_455
In0_1 In0_7 3.335484 1_555
In0_1 In0_7 3.335484 1_445
In0_1 In0_3 3.335484 1_555
In0_1 In0_3 3.335484 1_545
In0_1 In0_5 3.335485 1_555
In0_1 In0_5 3.335485 1_455
In0_1 In1_0 3.360969 1_555
In0_1 In1_2 3.360970 1_555
In0_1 In1_4 3.360971 1_455
In0_1 In1_1 3.360978 1_555
In0_1 In1_3 3.360979 1_555
In0_1 In1_5 3.360980 1_455
In0_2 In0_4 3.335484 1_565
In0_2 In0_4 3.335484 1_455
In0_2 In0_6 3.335485 1_555
In0_2 In0_6 3.335485 1_455
In0_2 In1_3 3.360969 1_554
In0_2 In1_1 3.360970 1_564
In0_2 In1_7 3.360971 1_454
In0_2 In1_2 3.360978 1_555
In0_2 In1_0 3.360979 1_565
In0_2 In1_6 3.360980 1_455
In0_3 In0_5 3.335484 1_565
In0_3 In0_5 3.335484 1_455
In0_3 In0_7 3.335485 1_555
In0_3 In0_7 3.335485 1_455
In0_3 In1_2 3.360969 1_555
In0_3 In1_0 3.360970 1_565
In0_3 In1_6 3.360971 1_455
In0_3 In1_3 3.360978 1_555
In0_3 In1_1 3.360979 1_565
In0_3 In1_7 3.360980 1_455
In0_4 In0_6 3.335484 1_545
In0_4 In0_6 3.335484 1_555
In0_4 In1_5 3.360969 1_554
In0_4 In1_7 3.360970 1_554
In0_4 In1_1 3.360971 1_554
In0_4 In1_4 3.360978 1_555
In0_4 In1_6 3.360979 1_555
In0_4 In1_0 3.360980 1_555
In0_5 In0_7 3.335484 1_555
In0_5 In0_7 3.335484 1_545
In0_5 In1_4 3.360969 1_555
In0_5 In1_6 3.360970 1_555
In0_5 In1_0 3.360971 1_555
In0_5 In1_5 3.360978 1_555
In0_5 In1_7 3.360979 1_555
In0_5 In1_1 3.360980 1_555
In0_6 In1_7 3.360969 1_554
In0_6 In1_5 3.360970 1_564
In0_6 In1_3 3.360971 1_554
In0_6 In1_6 3.360978 1_555
In0_6 In1_4 3.360979 1_565
In0_6 In1_2 3.360980 1_555
In0_7 In1_6 3.360969 1_555
In0_7 In1_4 3.360970 1_565
In0_7 In1_2 3.360971 1_555
In0_7 In1_7 3.360978 1_555
In0_7 In1_5 3.360979 1_565
In0_7 In1_3 3.360980 1_555
In1_0 In1_6 3.335484 1_445
In1_0 In1_6 3.335484 1_555
In1_0 In1_2 3.335484 1_555
In1_0 In1_2 3.335484 1_545
In1_0 In1_4 3.335485 1_455
In1_0 In1_4 3.335485 1_555
In1_1 In1_7 3.335484 1_445
In1_1 In1_7 3.335484 1_555
In1_1 In1_3 3.335484 1_555
In1_1 In1_3 3.335484 1_545
In1_1 In1_5 3.335485 1_455
In1_1 In1_5 3.335485 1_555
In1_2 In1_4 3.335484 1_455
In1_2 In1_4 3.335484 1_565
In1_2 In1_6 3.335485 1_455
In1_2 In1_6 3.335485 1_555
In1_3 In1_5 3.335484 1_455
In1_3 In1_5 3.335484 1_565
In1_3 In1_7 3.335485 1_555
In1_3 In1_7 3.335485 1_455
In1_4 In1_6 3.335484 1_555
In1_4 In1_6 3.335484 1_545
In1_5 In1_7 3.335484 1_555
In1_5 In1_7 3.335484 1_545
