# generated using pymatgen
data_Mg3Ta
_symmetry_space_group_name_H-M   'P 1'
_cell_length_a   4.29913100
_cell_length_b   4.29913100
_cell_length_c   4.29913100
_cell_angle_alpha   90.00000000
_cell_angle_beta   90.00000000
_cell_angle_gamma   90.00000000
_symmetry_Int_Tables_number   1
_chemical_formula_structural   Mg3Ta
_chemical_formula_sum   'Mg3 Ta1'
_cell_volume   79.45880631
_cell_formula_units_Z   1
loop_
 _symmetry_equiv_pos_site_id
 _symmetry_equiv_pos_as_xyz
  1  'x, y, z'
loop_
 _atom_site_type_symbol
 _atom_site_label
 _atom_site_symmetry_multiplicity
 _atom_site_fract_x
 _atom_site_fract_y
 _atom_site_fract_z
 _atom_site_occupancy
  Mg  Mg0  1  0.50000000  0.50000000  0.00000000  1
  Mg  Mg1  1  0.50000000  0.00000000  0.50000000  1
  Mg  Mg2  1  0.00000000  0.50000000  0.50000000  1
  Ta  Ta0  1  0.00000000  0.00000000  0.00000000  1
loop_
_geom_bond_atom_site_label_1
_geom_bond_atom_site_label_2
_geom_bond_distance
_geom_bond_site_symmetry_2
Mg0 Ta0 3.039945 1_655
Mg0 Mg2 3.039945 1_655
Mg0 Mg2 3.039945 1_554
Mg0 Ta0 3.039945 1_665
Mg0 Mg1 3.039945 1_555
Mg0 Ta0 3.039945 1_555
Mg0 Mg2 3.039945 1_555
Mg0 Mg1 3.039945 1_564
Mg0 Mg1 3.039945 1_565
Mg0 Mg2 3.039945 1_654
Mg0 Ta0 3.039945 1_565
Mg0 Mg1 3.039945 1_554
Mg1 Ta0 3.039945 1_655
Mg1 Mg2 3.039945 1_655
Mg1 Ta0 3.039945 1_656
Mg1 Ta0 3.039945 1_555
Mg1 Mg2 3.039945 1_555
Mg1 Mg2 3.039945 1_645
Mg1 Ta0 3.039945 1_556
Mg1 Mg2 3.039945 1_545
Mg2 Ta0 3.039945 1_566
Mg2 Ta0 3.039945 1_555
Mg2 Ta0 3.039945 1_556
Mg2 Ta0 3.039945 1_565
