# generated using pymatgen
data_Er2MgTl
_symmetry_space_group_name_H-M   'P 1'
_cell_length_a   5.26052619
_cell_length_b   5.26052619
_cell_length_c   5.26052619
_cell_angle_alpha   60.00000000
_cell_angle_beta   60.00000000
_cell_angle_gamma   60.00000000
_symmetry_Int_Tables_number   1
_chemical_formula_structural   Er2MgTl
_chemical_formula_sum   'Er2 Mg1 Tl1'
_cell_volume   102.93725029
_cell_formula_units_Z   1
loop_
 _symmetry_equiv_pos_site_id
 _symmetry_equiv_pos_as_xyz
  1  'x, y, z'
loop_
 _atom_site_type_symbol
 _atom_site_label
 _atom_site_symmetry_multiplicity
 _atom_site_fract_x
 _atom_site_fract_y
 _atom_site_fract_z
 _atom_site_occupancy
  Er  Er0  1  -0.00000000  -0.00000000  -0.00000000  1
  Er  Er1  1  0.50000000  0.50000000  0.50000000  1
  Mg  Mg0  1  0.24999900  0.24999900  0.24999900  1
  Tl  Tl0  1  0.75000000  0.75000000  0.75000000  1
loop_
_geom_bond_atom_site_label_1
_geom_bond_atom_site_label_2
_geom_bond_distance
_geom_bond_site_symmetry_2
Er0 Mg0 3.221388 1_555
Er0 Tl0 3.221401 1_445
Er0 Tl0 3.221401 1_544
Er0 Tl0 3.221401 1_444
Er0 Tl0 3.221401 1_454
Er0 Mg0 3.221406 1_545
Er0 Mg0 3.221406 1_554
Er0 Mg0 3.221406 1_455
Er1 Mg0 3.221397 1_565
Er1 Mg0 3.221397 1_655
Er1 Mg0 3.221397 1_556
Er1 Tl0 3.221401 1_455
Er1 Tl0 3.221401 1_555
Er1 Tl0 3.221401 1_545
Er1 Tl0 3.221401 1_554
Er1 Mg0 3.221414 1_555
