# generated using pymatgen
data_RbLaS2
_symmetry_space_group_name_H-M   'P 1'
_cell_length_a   8.05376260
_cell_length_b   8.05376260
_cell_length_c   8.05376161
_cell_angle_alpha   31.06605918
_cell_angle_beta   31.06605918
_cell_angle_gamma   31.06606142
_symmetry_Int_Tables_number   1
_chemical_formula_structural   RbLaS2
_chemical_formula_sum   'Rb1 La1 S2'
_cell_volume   123.41392644
_cell_formula_units_Z   1
loop_
 _symmetry_equiv_pos_site_id
 _symmetry_equiv_pos_as_xyz
  1  'x, y, z'
loop_
 _atom_site_type_symbol
 _atom_site_label
 _atom_site_symmetry_multiplicity
 _atom_site_fract_x
 _atom_site_fract_y
 _atom_site_fract_z
 _atom_site_occupancy
  Rb  Rb0  1  0.00000000  0.00000000  0.00000000  1
  La  La0  1  0.50000000  0.50000000  0.50000000  1
  S  S0  1  0.76696465  0.76696465  0.76696465  1
  S  S1  1  0.23303535  0.23303535  0.23303535  1
loop_
_geom_bond_atom_site_label_1
_geom_bond_atom_site_label_2
_geom_bond_distance
_geom_bond_site_symmetry_2
Rb0 S1 3.393093 1_554
Rb0 S0 3.393093 1_445
Rb0 S0 3.393094 1_544
Rb0 S1 3.393094 1_455
Rb0 S0 3.393094 1_454
Rb0 S1 3.393094 1_545
La0 S1 2.920204 1_556
La0 S0 2.920204 1_554
La0 S0 2.920205 1_545
La0 S1 2.920205 1_565
La0 S1 2.920205 1_655
La0 S0 2.920205 1_455
