# generated using pymatgen
data_TbYRh2
_symmetry_space_group_name_H-M   'P 1'
_cell_length_a   4.83620885
_cell_length_b   4.83620878
_cell_length_c   4.83620875
_cell_angle_alpha   59.99998535
_cell_angle_beta   59.99998530
_cell_angle_gamma   59.99998505
_symmetry_Int_Tables_number   1
_chemical_formula_structural   TbYRh2
_chemical_formula_sum   'Tb1 Y1 Rh2'
_cell_volume   79.98342243
_cell_formula_units_Z   1
loop_
 _symmetry_equiv_pos_site_id
 _symmetry_equiv_pos_as_xyz
  1  'x, y, z'
loop_
 _atom_site_type_symbol
 _atom_site_label
 _atom_site_symmetry_multiplicity
 _atom_site_fract_x
 _atom_site_fract_y
 _atom_site_fract_z
 _atom_site_occupancy
  Tb  Tb0  1  0.24999914  0.24999914  0.24999914  1
  Y  Y0  1  0.74999916  0.74999916  0.74999916  1
  Rh  Rh0  1  -0.00000001  -0.00000002  -0.00000002  1
  Rh  Rh1  1  0.50000072  0.50000073  0.50000072  1
loop_
_geom_bond_atom_site_label_1
_geom_bond_atom_site_label_2
_geom_bond_distance
_geom_bond_site_symmetry_2
Rh0 Tb0 2.961551 1_555
Rh0 Y0 2.961557 1_445
Rh0 Y0 2.961557 1_544
Rh0 Y0 2.961557 1_454
Rh0 Tb0 2.961564 1_554
Rh0 Tb0 2.961564 1_545
Rh0 Tb0 2.961564 1_455
Rh0 Y0 2.961571 1_444
Rh1 Y0 2.961543 1_555
Rh1 Tb0 2.961554 1_565
Rh1 Tb0 2.961554 1_556
Rh1 Tb0 2.961554 1_655
Rh1 Y0 2.961567 1_554
Rh1 Y0 2.961567 1_455
Rh1 Y0 2.961567 1_545
Rh1 Tb0 2.961580 1_555
