# generated using pymatgen
data_PmHo3
_symmetry_space_group_name_H-M   'P 1'
_cell_length_a   7.30115360
_cell_length_b   7.30083665
_cell_length_c   5.61614354
_cell_angle_alpha   90.00000000
_cell_angle_beta   90.00000000
_cell_angle_gamma   119.99776397
_symmetry_Int_Tables_number   1
_chemical_formula_structural   PmHo3
_chemical_formula_sum   'Pm2 Ho6'
_cell_volume   259.26430782
_cell_formula_units_Z   2
loop_
 _symmetry_equiv_pos_site_id
 _symmetry_equiv_pos_as_xyz
  1  'x, y, z'
loop_
 _atom_site_type_symbol
 _atom_site_label
 _atom_site_symmetry_multiplicity
 _atom_site_fract_x
 _atom_site_fract_y
 _atom_site_fract_z
 _atom_site_occupancy
  Pm  Pm0  1  0.33338694  0.66671105  0.74999900  1
  Pm  Pm1  1  0.66661584  0.33329033  0.24999900  1
  Ho  Ho0  1  0.16520988  0.33046012  0.24999900  1
  Ho  Ho1  1  0.66953093  0.83476407  0.24999900  1
  Ho  Ho2  1  0.16515685  0.83475665  0.24999900  1
  Ho  Ho3  1  0.83478865  0.66953587  0.74999900  1
  Ho  Ho4  1  0.33046921  0.16523552  0.74999900  1
  Ho  Ho5  1  0.83483869  0.16524339  0.74999900  1
loop_
_geom_bond_atom_site_label_1
_geom_bond_atom_site_label_2
_geom_bond_distance
_geom_bond_site_symmetry_2
Ho0 Ho5 3.499871 1_454
Ho0 Ho5 3.499871 1_455
Ho0 Ho4 3.500228 1_555
Ho0 Ho4 3.500228 1_554
Ho0 Pm0 3.522133 1_555
Ho0 Pm0 3.522133 1_554
Ho0 Ho2 3.618856 1_545
Ho0 Ho1 3.619134 1_445
Ho0 Pm1 3.650555 1_555
Ho0 Pm1 3.650686 1_455
Ho0 Ho2 3.681980 1_555
Ho0 Ho1 3.682108 1_555
Ho1 Ho5 3.500225 1_565
Ho1 Ho5 3.500225 1_564
Ho1 Ho3 3.500235 1_555
Ho1 Ho3 3.500235 1_554
Ho1 Pm0 3.521780 1_555
Ho1 Pm0 3.521780 1_554
Ho1 Ho2 3.618668 1_655
Ho1 Pm1 3.650346 1_565
Ho1 Pm1 3.650583 1_555
Ho1 Ho2 3.682486 1_555
Ho2 Ho3 3.499860 1_455
Ho2 Ho3 3.499860 1_454
Ho2 Ho4 3.500224 1_565
Ho2 Ho4 3.500224 1_564
Ho2 Pm0 3.522212 1_555
Ho2 Pm0 3.522212 1_554
Ho2 Pm1 3.650642 1_565
Ho2 Pm1 3.650694 1_455
Ho3 Pm1 3.522112 1_555
Ho3 Pm1 3.522112 1_556
Ho3 Ho5 3.618897 1_565
Ho3 Ho4 3.619153 1_665
Ho3 Pm0 3.650544 1_555
Ho3 Pm0 3.650697 1_655
Ho3 Ho5 3.681940 1_555
Ho3 Ho4 3.682089 1_555
Ho4 Pm1 3.521790 1_555
Ho4 Pm1 3.521790 1_556
Ho4 Ho5 3.618703 1_455
Ho4 Pm0 3.650343 1_545
Ho4 Pm0 3.650587 1_555
Ho4 Ho5 3.682450 1_555
Ho5 Pm1 3.522189 1_555
Ho5 Pm1 3.522189 1_556
Ho5 Pm0 3.650610 1_545
Ho5 Pm0 3.650725 1_655
