# generated using pymatgen
data_Cs2IBrCl6
_symmetry_space_group_name_H-M   'P 1'
_cell_length_a   8.04110659
_cell_length_b   8.04110659
_cell_length_c   8.04110659
_cell_angle_alpha   60.00000000
_cell_angle_beta   60.00000000
_cell_angle_gamma   60.00000000
_symmetry_Int_Tables_number   1
_chemical_formula_structural   Cs2IBrCl6
_chemical_formula_sum   'Cs2 I1 Br1 Cl6'
_cell_volume   367.64821322
_cell_formula_units_Z   1
loop_
 _symmetry_equiv_pos_site_id
 _symmetry_equiv_pos_as_xyz
  1  'x, y, z'
loop_
 _atom_site_type_symbol
 _atom_site_label
 _atom_site_symmetry_multiplicity
 _atom_site_fract_x
 _atom_site_fract_y
 _atom_site_fract_z
 _atom_site_occupancy
  Cs  Cs0  1  0.25000000  0.25000000  0.25000000  1
  Cs  Cs1  1  0.75000000  0.75000000  0.75000000  1
  I  I0  1  0.00000000  0.00000000  0.00000000  1
  Br  Br0  1  0.50000000  0.50000000  0.50000000  1
  Cl  Cl0  1  0.22816000  0.77184000  0.77184000  1
  Cl  Cl1  1  0.22816000  0.77184000  0.22816000  1
  Cl  Cl2  1  0.77184000  0.22816000  0.77184000  1
  Cl  Cl3  1  0.77184000  0.77184000  0.22816000  1
  Cl  Cl4  1  0.22816000  0.22816000  0.77184000  1
  Cl  Cl5  1  0.77184000  0.22816000  0.22816000  1
loop_
_geom_bond_atom_site_label_1
_geom_bond_atom_site_label_2
_geom_bond_distance
_geom_bond_site_symmetry_2
Cl0 I0 2.594599 1_566
Cl0 Cs1 4.028217 1_555
Cl0 Cs0 4.028217 1_556
Cl0 Cs1 4.028217 1_455
Cl0 Cs0 4.028217 1_565
Cl1 I0 2.594599 1_565
Cl1 Cs1 4.028217 1_455
Cl1 Cs1 4.028217 1_554
Cl1 Cs0 4.028217 1_565
Cl1 Cs0 4.028217 1_555
Cl2 I0 2.594599 1_656
Cl2 Cs1 4.028217 1_555
Cl2 Cs1 4.028217 1_545
Cl2 Cs0 4.028217 1_655
Cl2 Cs0 4.028217 1_556
Cl3 I0 2.594599 1_665
Cl3 Cs0 4.028217 1_655
Cl3 Cs1 4.028217 1_555
Cl3 Cs1 4.028217 1_554
Cl3 Cs0 4.028217 1_565
Cl4 I0 2.594599 1_556
Cl4 Cs1 4.028217 1_545
Cl4 Cs1 4.028217 1_455
Cl4 Cs0 4.028217 1_556
Cl4 Cs0 4.028217 1_555
Cl5 I0 2.594599 1_655
Cl5 Cs1 4.028217 1_545
Cl5 Cs0 4.028217 1_655
Cl5 Cs1 4.028217 1_554
Cl5 Cs0 4.028217 1_555
