# generated using pymatgen
data_ZrSb2
_symmetry_space_group_name_H-M   'P 1'
_cell_length_a   3.93402915
_cell_length_b   10.05032662
_cell_length_c   15.05298149
_cell_angle_alpha   90.00000000
_cell_angle_beta   90.00000000
_cell_angle_gamma   90.00000000
_symmetry_Int_Tables_number   1
_chemical_formula_structural   ZrSb2
_chemical_formula_sum   'Zr8 Sb16'
_cell_volume   595.16896523
_cell_formula_units_Z   8
loop_
 _symmetry_equiv_pos_site_id
 _symmetry_equiv_pos_as_xyz
  1  'x, y, z'
loop_
 _atom_site_type_symbol
 _atom_site_label
 _atom_site_symmetry_multiplicity
 _atom_site_fract_x
 _atom_site_fract_y
 _atom_site_fract_z
 _atom_site_occupancy
  Zr  Zr0  1  0.50000000  0.66895404  0.99302553  1
  Zr  Zr1  1  0.50000000  0.33104596  0.00697447  1
  Zr  Zr2  1  0.00000000  0.16895404  0.50697447  1
  Zr  Zr3  1  -0.00000000  0.83104596  0.49302553  1
  Zr  Zr4  1  0.00000000  0.97989476  0.74890132  1
  Zr  Zr5  1  -0.00000000  0.02010524  0.25109868  1
  Zr  Zr6  1  0.50000000  0.47989476  0.75109868  1
  Zr  Zr7  1  0.50000000  0.52010524  0.24890132  1
  Sb  Sb0  1  0.00000000  0.88349731  0.94179344  1
  Sb  Sb1  1  0.00000000  0.11650269  0.05820656  1
  Sb  Sb2  1  0.50000000  0.38349731  0.55820656  1
  Sb  Sb3  1  0.50000000  0.61650269  0.44179344  1
  Sb  Sb4  1  0.00000000  0.66279129  0.65910162  1
  Sb  Sb5  1  0.00000000  0.33720871  0.34089838  1
  Sb  Sb6  1  0.50000000  0.16279129  0.84089838  1
  Sb  Sb7  1  0.50000000  0.83720871  0.15910162  1
  Sb  Sb8  1  0.50000000  0.77131318  0.80211589  1
  Sb  Sb9  1  0.50000000  0.22868682  0.19788411  1
  Sb  Sb10  1  -0.00000000  0.27131318  0.69788411  1
  Sb  Sb11  1  -0.00000000  0.72868682  0.30211589  1
  Sb  Sb12  1  0.50000000  0.98804509  0.60244193  1
  Sb  Sb13  1  0.50000000  0.01195491  0.39755807  1
  Sb  Sb14  1  -0.00000000  0.48804509  0.89755807  1
  Sb  Sb15  1  0.00000000  0.51195491  0.10244193  1
loop_
_geom_bond_atom_site_label_1
_geom_bond_atom_site_label_2
_geom_bond_distance
_geom_bond_site_symmetry_2
Sb0 Sb1 2.924845 1_566
Sb0 Zr0 3.018810 1_555
Sb0 Zr0 3.018810 1_455
Sb0 Zr4 3.060968 1_555
Sb0 Sb8 3.092110 1_455
Sb0 Sb8 3.092110 1_555
Sb1 Zr1 3.018810 1_555
Sb1 Zr1 3.018810 1_455
Sb1 Zr5 3.060968 1_555
Sb1 Sb9 3.092110 1_455
Sb1 Sb9 3.092110 1_555
Sb2 Sb3 2.924845 1_555
Sb2 Zr2 3.018810 1_555
Sb2 Zr2 3.018810 1_655
Sb2 Zr6 3.060968 1_555
Sb3 Zr3 3.018810 1_655
Sb3 Zr3 3.018810 1_555
Sb3 Zr7 3.060968 1_555
Sb4 Zr3 3.018150 1_555
Sb4 Zr6 3.027502 1_555
Sb4 Zr6 3.027502 1_455
Sb4 Zr4 3.461815 1_555
Sb5 Zr2 3.018150 1_555
Sb5 Zr7 3.027502 1_455
Sb5 Zr7 3.027502 1_555
Sb5 Zr5 3.461815 1_555
Sb6 Zr1 3.018150 1_556
Sb6 Zr4 3.027502 1_645
Sb6 Zr4 3.027502 1_545
Sb6 Zr6 3.461815 1_555
Sb7 Zr0 3.018150 1_554
Sb7 Zr5 3.027502 1_665
Sb7 Zr5 3.027502 1_565
Sb7 Zr7 3.461815 1_555
Sb8 Zr4 2.984181 1_655
Sb8 Zr4 2.984181 1_555
Sb8 Zr6 3.027859 1_555
Sb8 Zr0 3.052344 1_555
Sb9 Zr5 2.984181 1_655
Sb9 Zr5 2.984181 1_555
Sb9 Zr7 3.027859 1_555
Sb9 Zr1 3.052344 1_555
Sb10 Zr6 2.984181 1_555
Sb10 Zr6 2.984181 1_455
Sb10 Zr4 3.027859 1_545
Sb10 Zr2 3.052344 1_555
Sb10 Sb2 3.092110 1_455
Sb10 Sb2 3.092110 1_555
Sb11 Zr7 2.984181 1_555
Sb11 Zr7 2.984181 1_455
Sb11 Zr5 3.027859 1_565
Sb11 Zr3 3.052344 1_555
Sb11 Sb3 3.092110 1_455
Sb11 Sb3 3.092110 1_555
Sb12 Zr4 2.955730 1_555
Sb12 Zr4 2.955730 1_655
Sb12 Zr3 3.011917 1_555
Sb12 Zr3 3.011917 1_655
Sb12 Zr2 3.039761 1_565
Sb12 Zr2 3.039761 1_665
Sb13 Zr5 2.955730 1_555
Sb13 Zr5 2.955730 1_655
Sb13 Zr2 3.011917 1_555
Sb13 Zr2 3.011917 1_655
Sb13 Zr3 3.039761 1_545
Sb13 Zr3 3.039761 1_645
Sb14 Zr6 2.955730 1_555
Sb14 Zr6 2.955730 1_455
Sb14 Zr1 3.011917 1_456
Sb14 Zr1 3.011917 1_556
Sb14 Zr0 3.039761 1_455
Sb14 Zr0 3.039761 1_555
Sb15 Zr7 2.955730 1_555
Sb15 Zr7 2.955730 1_455
Sb15 Zr0 3.011917 1_554
Sb15 Zr0 3.011917 1_454
Sb15 Zr1 3.039761 1_555
Sb15 Zr1 3.039761 1_455
