# generated using pymatgen
data_UZn3
_symmetry_space_group_name_H-M   'P 1'
_cell_length_a   6.32370596
_cell_length_b   6.32370596
_cell_length_c   4.38695100
_cell_angle_alpha   90.00000000
_cell_angle_beta   90.00000000
_cell_angle_gamma   119.99999962
_symmetry_Int_Tables_number   1
_chemical_formula_structural   UZn3
_chemical_formula_sum   'U2 Zn6'
_cell_volume   151.92762654
_cell_formula_units_Z   2
loop_
 _symmetry_equiv_pos_site_id
 _symmetry_equiv_pos_as_xyz
  1  'x, y, z'
loop_
 _atom_site_type_symbol
 _atom_site_label
 _atom_site_symmetry_multiplicity
 _atom_site_fract_x
 _atom_site_fract_y
 _atom_site_fract_z
 _atom_site_occupancy
  U  U0  1  0.33333300  0.66666700  0.75000000  1
  U  U1  1  0.66666700  0.33333300  0.25000000  1
  Zn  Zn0  1  0.15013800  0.30027700  0.25000000  1
  Zn  Zn1  1  0.69972300  0.84986200  0.25000000  1
  Zn  Zn2  1  0.15013800  0.84986200  0.25000000  1
  Zn  Zn3  1  0.84986200  0.69972300  0.75000000  1
  Zn  Zn4  1  0.30027700  0.15013800  0.75000000  1
  Zn  Zn5  1  0.84986200  0.15013800  0.75000000  1
loop_
_geom_bond_atom_site_label_1
_geom_bond_atom_site_label_2
_geom_bond_distance
_geom_bond_site_symmetry_2
U0 Zn2 2.972794 1_555
U0 Zn2 2.972794 1_556
U0 Zn1 2.972794 1_555
U0 Zn1 2.972794 1_556
U0 Zn0 2.972794 1_555
U0 Zn0 2.972794 1_556
U0 Zn3 3.167025 1_455
U0 Zn4 3.167025 1_565
U0 Zn5 3.167032 1_455
U0 Zn5 3.167032 1_565
U0 Zn4 3.167037 1_555
U0 Zn3 3.167037 1_555
U1 Zn5 2.972794 1_555
U1 Zn5 2.972794 1_554
U1 Zn3 2.972794 1_554
U1 Zn3 2.972794 1_555
U1 Zn4 2.972794 1_554
U1 Zn4 2.972794 1_555
U1 Zn1 3.167025 1_545
U1 Zn0 3.167025 1_655
U1 Zn2 3.167032 1_545
U1 Zn2 3.167032 1_655
U1 Zn0 3.167037 1_555
U1 Zn1 3.167037 1_555
Zn0 Zn5 2.741456 1_455
Zn0 Zn5 2.741456 1_454
Zn0 Zn4 2.741462 1_554
Zn0 Zn4 2.741462 1_555
Zn0 Zn2 2.848292 1_545
Zn0 Zn1 2.848292 1_445
Zn1 Zn5 2.741456 1_565
Zn1 Zn5 2.741456 1_564
Zn1 Zn3 2.741462 1_554
Zn1 Zn3 2.741462 1_555
Zn1 Zn2 2.848292 1_655
Zn2 Zn3 2.741456 1_455
Zn2 Zn3 2.741456 1_454
Zn2 Zn4 2.741456 1_565
Zn2 Zn4 2.741456 1_564
Zn3 Zn5 2.848292 1_565
Zn3 Zn4 2.848292 1_665
Zn4 Zn5 2.848292 1_455
