# generated using pymatgen
data_Pr(CoB)4
_symmetry_space_group_name_H-M   'P 1'
_cell_length_a   7.05062714
_cell_length_b   7.05063590
_cell_length_c   3.76824450
_cell_angle_alpha   89.99953188
_cell_angle_beta   89.99971214
_cell_angle_gamma   89.99931845
_symmetry_Int_Tables_number   1
_chemical_formula_structural   Pr(CoB)4
_chemical_formula_sum   'Pr2 Co8 B8'
_cell_volume   187.32472768
_cell_formula_units_Z   2
loop_
 _symmetry_equiv_pos_site_id
 _symmetry_equiv_pos_as_xyz
  1  'x, y, z'
loop_
 _atom_site_type_symbol
 _atom_site_label
 _atom_site_symmetry_multiplicity
 _atom_site_fract_x
 _atom_site_fract_y
 _atom_site_fract_z
 _atom_site_occupancy
  Pr  Pr0  1  0.25000077  0.25000948  0.25008258  1
  Pr  Pr1  1  0.75000223  0.75000231  0.74998314  1
  Co  Co0  1  0.63479073  0.10777235  0.35540069  1
  Co  Co1  1  0.86521622  0.39222872  0.35540606  1
  Co  Co2  1  0.89224039  0.13479065  0.85540802  1
  Co  Co3  1  0.60776830  0.36521391  0.85540775  1
  Co  Co4  1  0.36518470  0.89217634  0.64458607  1
  Co  Co5  1  0.13481180  0.60782060  0.64458615  1
  Co  Co6  1  0.10781436  0.86517752  0.14458310  1
  Co  Co7  1  0.39217865  0.63480998  0.14458186  1
  B  B0  1  0.04690030  0.58885101  0.14708256  1
  B  B1  1  0.45309981  0.91114599  0.14707933  1
  B  B2  1  0.41114818  0.54690870  0.64708116  1
  B  B3  1  0.08884346  0.95308188  0.64708131  1
  B  B4  1  0.95313273  0.41117226  0.85291375  1
  B  B5  1  0.54686500  0.08883435  0.85291363  1
  B  B6  1  0.58882668  0.45312504  0.35290922  1
  B  B7  1  0.91117469  0.04687791  0.35291362  1
loop_
_geom_bond_atom_site_label_1
_geom_bond_atom_site_label_2
_geom_bond_distance
_geom_bond_site_symmetry_2
Co0 Pr0 2.919520 1_555
Co0 Pr1 3.038686 1_545
Co1 Pr0 2.919443 1_655
Co1 Pr1 3.038718 1_555
Co2 Pr1 2.919595 1_545
Co2 Pr0 3.038845 1_656
Co3 Pr1 2.919578 1_555
Co3 Pr0 3.038841 1_556
Co4 Pr1 2.919589 1_555
Co4 Pr0 3.038858 1_565
Co5 Pr1 2.919554 1_455
Co5 Pr0 3.038755 1_555
Co6 Pr0 2.919794 1_565
Co6 Pr1 3.038928 1_454
Co7 Pr0 2.919560 1_555
Co7 Pr1 3.039006 1_554
B0 B4 1.798688 1_454
B0 Co5 1.979054 1_555
B0 Co6 1.995081 1_555
B0 Co5 1.996877 1_554
B0 Co1 2.044272 1_455
B0 Co7 2.455922 1_555
B0 Pr0 2.812239 1_555
B0 Pr1 2.812834 1_454
B0 Pr1 3.291555 1_455
B1 B5 1.798705 1_564
B1 Co4 1.979065 1_555
B1 Co7 1.995158 1_555
B1 Co4 1.996882 1_554
B1 Co0 2.044333 1_565
B1 Co6 2.455981 1_555
B1 Pr0 2.812370 1_565
B1 Pr1 2.812827 1_554
B1 Pr1 3.291566 1_555
B2 B6 1.798715 1_555
B2 Co7 1.979020 1_556
B2 Co5 1.995134 1_555
B2 Co7 1.996864 1_555
B2 Co3 2.044298 1_555
B2 Co4 2.455847 1_555
B2 Pr1 2.812271 1_555
B2 Pr0 2.812660 1_555
B2 Pr0 3.291816 1_556
B3 B7 1.798691 1_465
B3 Co6 1.979023 1_556
B3 Co4 1.995157 1_555
B3 Co6 1.996876 1_555
B3 Co2 2.044282 1_465
B3 Co5 2.455807 1_555
B3 Pr1 2.812137 1_455
B3 Pr0 2.812813 1_565
B3 Pr0 3.291999 1_566
B4 Co1 1.979067 1_555
B4 Co2 1.995428 1_555
B4 Co1 1.996861 1_556
B4 Co5 2.044381 1_655
B4 Co3 2.456523 1_555
B4 Pr1 2.812242 1_555
B4 Pr0 2.812848 1_656
B4 Pr0 3.291268 1_655
B5 Co0 1.979096 1_555
B5 Co3 1.995430 1_555
B5 Co0 1.996868 1_556
B5 Co4 2.044446 1_545
B5 Co2 2.456598 1_555
B5 Pr1 2.812281 1_545
B5 Pr0 2.812863 1_556
B5 Pr0 3.291282 1_555
B6 Co3 1.979031 1_554
B6 Co1 1.995476 1_555
B6 Co3 1.996870 1_555
B6 Co7 2.044389 1_555
B6 Co0 2.456442 1_555
B6 Pr0 2.812142 1_555
B6 Pr1 2.812776 1_555
B6 Pr1 3.291591 1_554
B7 Co2 1.979038 1_554
B7 Co0 1.995435 1_555
B7 Co2 1.996863 1_555
B7 Co6 2.044425 1_645
B7 Co1 2.456423 1_555
B7 Pr0 2.812196 1_655
B7 Pr1 2.812725 1_545
B7 Pr1 3.291618 1_544
