# generated using pymatgen
data_Sm(AgGe)2
_symmetry_space_group_name_H-M   'P 1'
_cell_length_a   6.31021728
_cell_length_b   6.31021728
_cell_length_c   6.31021728
_cell_angle_alpha   140.71953883
_cell_angle_beta   140.71953883
_cell_angle_gamma   56.76239386
_symmetry_Int_Tables_number   1
_chemical_formula_structural   Sm(AgGe)2
_chemical_formula_sum   'Sm1 Ag2 Ge2'
_cell_volume   99.89636399
_cell_formula_units_Z   1
loop_
 _symmetry_equiv_pos_site_id
 _symmetry_equiv_pos_as_xyz
  1  'x, y, z'
loop_
 _atom_site_type_symbol
 _atom_site_label
 _atom_site_symmetry_multiplicity
 _atom_site_fract_x
 _atom_site_fract_y
 _atom_site_fract_z
 _atom_site_occupancy
  Sm  Sm0  1  -0.00000000  -0.00000000  -0.00000000  1
  Ag  Ag0  1  0.25000000  0.74999900  0.49999900  1
  Ag  Ag1  1  0.74999900  0.25000000  0.49999900  1
  Ge  Ge0  1  0.39120635  0.39120635  -0.00000000  1
  Ge  Ge1  1  0.60879365  0.60879365  0.00000000  1
loop_
_geom_bond_atom_site_label_1
_geom_bond_atom_site_label_2
_geom_bond_distance
_geom_bond_site_symmetry_2
Ag0 Ge0 2.637549 1_555
Ag0 Ge1 2.637552 1_455
Ag0 Ge1 2.637552 1_556
Ag0 Ge0 2.637555 1_566
Ag0 Ag1 2.999464 1_555
Ag0 Ag1 2.999470 1_454
Ag0 Ag1 2.999470 1_566
Ag0 Ag1 2.999476 1_465
Ag0 Sm0 3.493408 1_555
Ag0 Sm0 3.493410 1_666
Ag0 Sm0 3.493410 1_565
Ag0 Sm0 3.493413 1_566
Ag1 Ge0 2.637549 1_555
Ag1 Ge1 2.637552 1_545
Ag1 Ge1 2.637552 1_556
Ag1 Ge0 2.637555 1_656
Ag1 Sm0 3.493408 1_555
Ag1 Sm0 3.493410 1_666
Ag1 Sm0 3.493410 1_655
Ag1 Sm0 3.493413 1_656
Ge0 Ge1 2.415984 1_555
Ge0 Sm0 3.233584 1_666
Ge0 Sm0 3.233584 1_565
Ge0 Sm0 3.233584 1_655
Ge0 Sm0 3.233584 1_554
Ge1 Sm0 3.233584 1_655
Ge1 Sm0 3.233584 1_666
Ge1 Sm0 3.233584 1_554
Ge1 Sm0 3.233584 1_565
