# generated using pymatgen
data_C
_symmetry_space_group_name_H-M   'P 1'
_cell_length_a   3.55378566
_cell_length_b   3.55378566
_cell_length_c   3.55378566
_cell_angle_alpha   90.00000000
_cell_angle_beta   90.00000000
_cell_angle_gamma   90.00000000
_symmetry_Int_Tables_number   1
_chemical_formula_structural   C
_chemical_formula_sum   C8
_cell_volume   44.88215402
_cell_formula_units_Z   8
loop_
 _symmetry_equiv_pos_site_id
 _symmetry_equiv_pos_as_xyz
  1  'x, y, z'
loop_
 _atom_site_type_symbol
 _atom_site_label
 _atom_site_symmetry_multiplicity
 _atom_site_fract_x
 _atom_site_fract_y
 _atom_site_fract_z
 _atom_site_occupancy
  C  C0_0  1  0.00000000  0.00000000  0.00000000  1
  C  C0_1  1  0.00000000  0.00000000  0.50000000  1
  C  C0_2  1  0.00000000  0.50000000  0.00000000  1
  C  C0_3  1  0.00000000  0.50000000  0.50000000  1
  C  C0_4  1  0.50000000  0.00000000  0.00000000  1
  C  C0_5  1  0.50000000  0.00000000  0.50000000  1
  C  C0_6  1  0.50000000  0.50000000  0.00000000  1
  C  C0_7  1  0.50000000  0.50000000  0.50000000  1
loop_
_geom_bond_atom_site_label_1
_geom_bond_atom_site_label_2
_geom_bond_distance
_geom_bond_site_symmetry_2
C0_0 C0_4 1.776893 1_555
C0_0 C0_1 1.776893 1_555
C0_0 C0_2 1.776893 1_555
C0_0 C0_1 1.776893 1_554
C0_0 C0_4 1.776893 1_455
C0_0 C0_2 1.776893 1_545
C0_1 C0_3 1.776893 1_555
C0_1 C0_5 1.776893 1_455
C0_1 C0_3 1.776893 1_545
C0_1 C0_5 1.776893 1_555
C0_2 C0_3 1.776893 1_555
C0_2 C0_3 1.776893 1_554
C0_2 C0_6 1.776893 1_555
C0_2 C0_6 1.776893 1_455
C0_3 C0_7 1.776893 1_555
C0_3 C0_7 1.776893 1_455
C0_4 C0_6 1.776893 1_545
C0_4 C0_5 1.776893 1_554
C0_4 C0_6 1.776893 1_555
C0_4 C0_5 1.776893 1_555
C0_5 C0_7 1.776893 1_545
C0_5 C0_7 1.776893 1_555
C0_6 C0_7 1.776893 1_555
C0_6 C0_7 1.776893 1_554
