# generated using pymatgen
data_Nd2ZnAg
_symmetry_space_group_name_H-M   'P 1'
_cell_length_a   5.24655012
_cell_length_b   5.24655012
_cell_length_c   5.24655012
_cell_angle_alpha   60.00000000
_cell_angle_beta   60.00000000
_cell_angle_gamma   60.00000000
_symmetry_Int_Tables_number   1
_chemical_formula_structural   Nd2ZnAg
_chemical_formula_sum   'Nd2 Zn1 Ag1'
_cell_volume   102.11898300
_cell_formula_units_Z   1
loop_
 _symmetry_equiv_pos_site_id
 _symmetry_equiv_pos_as_xyz
  1  'x, y, z'
loop_
 _atom_site_type_symbol
 _atom_site_label
 _atom_site_symmetry_multiplicity
 _atom_site_fract_x
 _atom_site_fract_y
 _atom_site_fract_z
 _atom_site_occupancy
  Nd  Nd0  1  -0.00000000  0.00000000  0.00000000  1
  Nd  Nd1  1  0.50000100  0.50000100  0.50000100  1
  Zn  Zn0  1  0.75000000  0.75000000  0.75000000  1
  Ag  Ag0  1  0.25000000  0.25000000  0.25000000  1
loop_
_geom_bond_atom_site_label_1
_geom_bond_atom_site_label_2
_geom_bond_distance
_geom_bond_site_symmetry_2
Nd0 Zn0 3.212843 1_544
Nd0 Zn0 3.212843 1_454
Nd0 Zn0 3.212843 1_445
Nd0 Zn0 3.212843 1_444
Nd1 Zn0 3.212830 1_555
Nd1 Zn0 3.212847 1_455
Nd1 Zn0 3.212847 1_545
Nd1 Zn0 3.212847 1_554
Ag0 Nd1 3.212838 1_545
Ag0 Nd1 3.212838 1_455
Ag0 Nd1 3.212838 1_554
Ag0 Nd0 3.212843 1_555
Ag0 Nd0 3.212843 1_556
Ag0 Nd0 3.212843 1_565
Ag0 Nd0 3.212843 1_655
Ag0 Nd1 3.212856 1_555
