# generated using pymatgen
data_Rb2SnSe3
_symmetry_space_group_name_H-M   'P 1'
_cell_length_a   7.24454952
_cell_length_b   7.95348064
_cell_length_c   9.03162479
_cell_angle_alpha   74.52687653
_cell_angle_beta   71.55497861
_cell_angle_gamma   66.53490473
_symmetry_Int_Tables_number   1
_chemical_formula_structural   Rb2SnSe3
_chemical_formula_sum   'Rb4 Sn2 Se6'
_cell_volume   446.87085772
_cell_formula_units_Z   2
loop_
 _symmetry_equiv_pos_site_id
 _symmetry_equiv_pos_as_xyz
  1  'x, y, z'
loop_
 _atom_site_type_symbol
 _atom_site_label
 _atom_site_symmetry_multiplicity
 _atom_site_fract_x
 _atom_site_fract_y
 _atom_site_fract_z
 _atom_site_occupancy
  Rb  Rb0  1  0.65101126  0.45958467  0.68772235  1
  Rb  Rb1  1  0.34898874  0.54041533  0.31227765  1
  Rb  Rb2  1  0.90569152  0.79783612  0.87647214  1
  Rb  Rb3  1  0.09430848  0.20216388  0.12352786  1
  Sn  Sn0  1  0.63913714  0.93887751  0.31050339  1
  Sn  Sn1  1  0.36086286  0.06112249  0.68949661  1
  Se  Se0  1  0.26813675  0.95718157  0.47765277  1
  Se  Se1  1  0.73186325  0.04281843  0.52234723  1
  Se  Se2  1  0.37251729  0.81474172  0.92509089  1
  Se  Se3  1  0.62748271  0.18525828  0.07490911  1
  Se  Se4  1  0.16062180  0.38981957  0.71961111  1
  Se  Se5  1  0.83937820  0.61018043  0.28038889  1
loop_
_geom_bond_atom_site_label_1
_geom_bond_atom_site_label_2
_geom_bond_distance
_geom_bond_site_symmetry_2
Rb0 Se2 3.549817 1_555
Rb0 Se5 3.550320 1_555
Rb0 Se3 3.586917 1_556
Rb0 Se4 3.602375 1_655
Rb0 Se4 3.721467 1_555
Rb0 Se1 3.755438 1_555
Rb1 Se3 3.549817 1_555
Rb1 Se4 3.550320 1_555
Rb1 Se2 3.586917 1_554
Rb1 Se5 3.602375 1_455
Rb1 Se5 3.721467 1_555
Rb1 Se0 3.755438 1_555
Rb2 Se4 3.460258 1_655
Rb2 Se5 3.510462 1_556
Rb2 Se3 3.533264 1_566
Rb2 Se1 3.589023 1_565
Rb2 Se2 3.603024 1_655
Rb2 Se2 3.698006 1_555
Rb2 Se0 3.962903 1_655
Rb3 Se5 3.460258 1_455
Rb3 Se4 3.510462 1_554
Rb3 Se2 3.533264 1_544
Rb3 Se0 3.589023 1_545
Rb3 Se3 3.603024 1_455
Rb3 Se3 3.698006 1_555
Rb3 Se1 3.962903 1_455
Se0 Sn0 2.600423 1_555
Se0 Sn1 2.625813 1_565
Se1 Sn1 2.600423 1_555
Se1 Sn0 2.625813 1_545
Se2 Sn1 2.476240 1_565
Se3 Sn0 2.476240 1_545
Se4 Sn1 2.474343 1_555
Se5 Sn0 2.474343 1_555
