# generated using pymatgen
data_Zr2Co12P7
_symmetry_space_group_name_H-M   'P 1'
_cell_length_a   8.83917346
_cell_length_b   8.83921620
_cell_length_c   3.54261168
_cell_angle_alpha   90.00000000
_cell_angle_beta   90.00000000
_cell_angle_gamma   119.99982304
_symmetry_Int_Tables_number   1
_chemical_formula_structural   Zr2Co12P7
_chemical_formula_sum   'Zr2 Co12 P7'
_cell_volume   239.70680821
_cell_formula_units_Z   1
loop_
 _symmetry_equiv_pos_site_id
 _symmetry_equiv_pos_as_xyz
  1  'x, y, z'
loop_
 _atom_site_type_symbol
 _atom_site_label
 _atom_site_symmetry_multiplicity
 _atom_site_fract_x
 _atom_site_fract_y
 _atom_site_fract_z
 _atom_site_occupancy
  Zr  Zr0  1  0.33334463  0.66665980  -0.00000000  1
  Zr  Zr1  1  0.66668406  0.33334955  0.50000000  1
  Co  Co0  1  0.43614428  0.06250358  -0.00000000  1
  Co  Co1  1  0.93750057  0.37363391  -0.00000000  1
  Co  Co2  1  0.62636987  0.56387256  -0.00000000  1
  Co  Co3  1  0.38405446  0.43650131  0.50000000  1
  Co  Co4  1  0.56350998  0.94755835  0.50000000  1
  Co  Co5  1  0.05243668  0.61593875  0.50000000  1
  Co  Co6  1  0.15504178  0.27484114  -0.00000000  1
  Co  Co7  1  0.72515516  0.88021111  -0.00000000  1
  Co  Co8  1  0.11977941  0.84494190  0.00000000  1
  Co  Co9  1  0.23324547  0.10124141  0.50000000  1
  Co  Co10  1  0.89875518  0.13200698  0.50000000  1
  Co  Co11  1  0.86798397  0.76674826  0.50000000  1
  P  P0  1  0.11645371  0.40784989  0.50000000  1
  P  P1  1  0.59215469  0.70861579  0.50000000  1
  P  P2  1  0.29138314  0.88352744  0.50000000  1
  P  P3  1  -0.00000376  -0.00000114  0.00000000  1
  P  P4  1  0.41083844  0.29489777  -0.00000000  1
  P  P5  1  0.70510697  0.11594170  -0.00000000  1
  P  P6  1  0.88406129  0.58916194  -0.00000000  1
loop_
_geom_bond_atom_site_label_1
_geom_bond_atom_site_label_2
_geom_bond_distance
_geom_bond_site_symmetry_2
Co0 P4 2.174668 1_555
Co0 P5 2.179958 1_555
Co0 P2 2.292007 1_544
Co0 P2 2.292007 1_545
Co0 Zr1 2.853607 1_554
Co0 Zr1 2.853607 1_555
Co0 Zr0 3.144672 1_545
Co1 P5 2.174629 1_555
Co1 P6 2.180002 1_555
Co1 P0 2.291873 1_654
Co1 P0 2.291873 1_655
Co1 Zr1 2.853452 1_554
Co1 Zr1 2.853452 1_555
Co1 Zr0 3.144622 1_655
Co2 P6 2.174645 1_555
Co2 P4 2.180061 1_555
Co2 P1 2.291906 1_555
Co2 P1 2.291906 1_554
Co2 Zr1 2.853523 1_555
Co2 Zr1 2.853523 1_554
Co2 Zr0 3.144415 1_555
Co3 P1 2.178200 1_555
Co3 P4 2.248681 1_556
Co3 P4 2.248681 1_555
Co3 P0 2.249460 1_555
Co3 Zr0 2.896411 1_555
Co3 Zr0 2.896411 1_556
Co4 P2 2.178251 1_555
Co4 P5 2.248655 1_566
Co4 P5 2.248655 1_565
Co4 P1 2.249375 1_555
Co4 Zr0 2.896566 1_555
Co4 Zr0 2.896566 1_556
Co5 P0 2.178113 1_555
Co5 P6 2.248627 1_456
Co5 P6 2.248627 1_455
Co5 P2 2.249400 1_555
Co5 Zr0 2.896650 1_555
Co5 Zr0 2.896650 1_556
Co6 P3 2.109677 1_555
Co6 P4 2.177808 1_555
Co6 P0 2.244355 1_555
Co6 P0 2.244355 1_554
Co6 Zr0 3.003406 1_555
Co7 P3 2.109663 1_665
Co7 P5 2.177692 1_565
Co7 P1 2.244338 1_554
Co7 P1 2.244338 1_555
Co7 Zr0 3.003349 1_555
Co8 P3 2.109659 1_565
Co8 P6 2.177652 1_455
Co8 P2 2.244393 1_554
Co8 P2 2.244393 1_555
Co8 Zr0 3.003625 1_555
Co9 P2 2.226300 1_545
Co9 P4 2.417601 1_556
Co9 P4 2.417601 1_555
Co9 P3 2.518743 1_556
Co9 P3 2.518743 1_555
Co10 P0 2.226211 1_655
Co10 P5 2.417541 1_556
Co10 P5 2.417541 1_555
Co10 P3 2.518745 1_655
Co10 P3 2.518745 1_656
Co11 P1 2.226113 1_555
Co11 P6 2.417607 1_556
Co11 P6 2.417607 1_555
Co11 P3 2.518760 1_665
Co11 P3 2.518760 1_666
P0 Zr0 2.767785 1_555
P0 Zr0 2.767785 1_556
P1 Zr0 2.767686 1_555
P1 Zr0 2.767686 1_556
P2 Zr0 2.767806 1_555
P2 Zr0 2.767806 1_556
P4 Zr1 2.756562 1_555
P4 Zr1 2.756562 1_554
P5 Zr1 2.756542 1_555
P5 Zr1 2.756542 1_554
P6 Zr1 2.756390 1_555
P6 Zr1 2.756390 1_554
