# generated using pymatgen
data_BeGaO3
_symmetry_space_group_name_H-M   'P 1'
_cell_length_a   3.46252300
_cell_length_b   3.46252300
_cell_length_c   3.46252300
_cell_angle_alpha   90.00000000
_cell_angle_beta   90.00000000
_cell_angle_gamma   90.00000000
_symmetry_Int_Tables_number   1
_chemical_formula_structural   BeGaO3
_chemical_formula_sum   'Be1 Ga1 O3'
_cell_volume   41.51241513
_cell_formula_units_Z   1
loop_
 _symmetry_equiv_pos_site_id
 _symmetry_equiv_pos_as_xyz
  1  'x, y, z'
loop_
 _atom_site_type_symbol
 _atom_site_label
 _atom_site_symmetry_multiplicity
 _atom_site_fract_x
 _atom_site_fract_y
 _atom_site_fract_z
 _atom_site_occupancy
  Be  Be0  1  0.50000000  0.50000000  0.50000000  1
  Ga  Ga0  1  0.00000000  0.00000000  0.00000000  1
  O  O0  1  0.50000000  0.50000000  0.00000000  1
  O  O1  1  0.50000000  0.00000000  0.50000000  1
  O  O2  1  0.00000000  0.50000000  0.50000000  1
loop_
_geom_bond_atom_site_label_1
_geom_bond_atom_site_label_2
_geom_bond_distance
_geom_bond_site_symmetry_2
Be0 O2 1.731262 1_555
Be0 O1 1.731262 1_565
Be0 O0 1.731262 1_556
Be0 O2 1.731262 1_655
Be0 O1 1.731262 1_555
Be0 O0 1.731262 1_555
Ga0 O2 2.448373 1_544
Ga0 O2 2.448373 1_545
Ga0 O1 2.448373 1_455
Ga0 O1 2.448373 1_454
Ga0 O0 2.448373 1_545
Ga0 O1 2.448373 1_555
Ga0 O0 2.448373 1_555
Ga0 O0 2.448373 1_445
Ga0 O1 2.448373 1_554
Ga0 O2 2.448373 1_555
Ga0 O2 2.448373 1_554
Ga0 O0 2.448373 1_455
