# generated using pymatgen
data_Nd3Sm
_symmetry_space_group_name_H-M   'P 1'
_cell_length_a   5.19126642
_cell_length_b   5.19126749
_cell_length_c   5.19127715
_cell_angle_alpha   90.00000000
_cell_angle_beta   90.00000000
_cell_angle_gamma   90.00000000
_symmetry_Int_Tables_number   1
_chemical_formula_structural   Nd3Sm
_chemical_formula_sum   'Nd3 Sm1'
_cell_volume   139.90103922
_cell_formula_units_Z   1
loop_
 _symmetry_equiv_pos_site_id
 _symmetry_equiv_pos_as_xyz
  1  'x, y, z'
loop_
 _atom_site_type_symbol
 _atom_site_label
 _atom_site_symmetry_multiplicity
 _atom_site_fract_x
 _atom_site_fract_y
 _atom_site_fract_z
 _atom_site_occupancy
  Nd  Nd0  1  0.00000000  0.49999900  0.49999900  1
  Nd  Nd1  1  0.49999900  0.00000000  0.49999900  1
  Nd  Nd2  1  0.49999900  0.49999900  -0.00000000  1
  Sm  Sm0  1  0.00000000  0.00000000  -0.00000000  1
loop_
_geom_bond_atom_site_label_1
_geom_bond_atom_site_label_2
_geom_bond_distance
_geom_bond_site_symmetry_2
Nd0 Nd1 3.670773 1_555
Nd0 Nd2 3.670776 1_555
Nd0 Sm0 3.670777 1_555
Nd0 Nd1 3.670780 1_455
Nd0 Nd1 3.670780 1_565
Nd0 Nd2 3.670783 1_455
Nd0 Nd2 3.670783 1_556
Nd0 Sm0 3.670784 1_565
Nd0 Sm0 3.670784 1_556
Nd0 Nd1 3.670787 1_465
Nd0 Nd2 3.670791 1_456
Nd0 Sm0 3.670791 1_566
Nd1 Sm0 3.670776 1_555
Nd1 Nd2 3.670777 1_555
Nd1 Sm0 3.670783 1_655
Nd1 Sm0 3.670783 1_556
Nd1 Nd2 3.670784 1_545
Nd1 Nd2 3.670784 1_556
Nd1 Sm0 3.670791 1_656
Nd1 Nd2 3.670791 1_546
Nd2 Sm0 3.670773 1_555
Nd2 Sm0 3.670780 1_655
Nd2 Sm0 3.670780 1_565
Nd2 Sm0 3.670787 1_665
