# generated using pymatgen
data_NiAu3
_symmetry_space_group_name_H-M   'P 1'
_cell_length_a   5.66973341
_cell_length_b   5.66973341
_cell_length_c   4.68889700
_cell_angle_alpha   90.00000000
_cell_angle_beta   90.00000000
_cell_angle_gamma   119.99999316
_symmetry_Int_Tables_number   1
_chemical_formula_structural   NiAu3
_chemical_formula_sum   'Ni2 Au6'
_cell_volume   130.53489761
_cell_formula_units_Z   2
loop_
 _symmetry_equiv_pos_site_id
 _symmetry_equiv_pos_as_xyz
  1  'x, y, z'
loop_
 _atom_site_type_symbol
 _atom_site_label
 _atom_site_symmetry_multiplicity
 _atom_site_fract_x
 _atom_site_fract_y
 _atom_site_fract_z
 _atom_site_occupancy
  Ni  Ni0  1  0.66666700  0.33333300  0.25000000  1
  Ni  Ni1  1  0.33333300  0.66666700  0.75000000  1
  Au  Au0  1  0.83007600  0.66015300  0.75000000  1
  Au  Au1  1  0.33984700  0.16992400  0.75000000  1
  Au  Au2  1  0.83007600  0.16992400  0.75000000  1
  Au  Au3  1  0.66015300  0.83007600  0.25000000  1
  Au  Au4  1  0.16992400  0.83007600  0.25000000  1
  Au  Au5  1  0.16992400  0.33984700  0.25000000  1
loop_
_geom_bond_atom_site_label_1
_geom_bond_atom_site_label_2
_geom_bond_distance
_geom_bond_site_symmetry_2
Au0 Au2 2.779468 1_555
Au0 Au1 2.779468 1_555
Au0 Ni1 2.835047 1_555
Au0 Ni1 2.835047 1_655
Au0 Ni0 2.841056 1_555
Au0 Ni0 2.841056 1_556
Au0 Au3 2.877666 1_556
Au0 Au3 2.877666 1_555
Au0 Au4 2.877672 1_655
Au0 Au4 2.877672 1_656
Au0 Au2 2.890266 1_565
Au0 Au1 2.890266 1_665
Au1 Au2 2.779468 1_555
Au1 Ni1 2.835047 1_555
Au1 Ni1 2.835047 1_545
Au1 Ni0 2.841056 1_555
Au1 Ni0 2.841056 1_556
Au1 Au5 2.877666 1_555
Au1 Au5 2.877666 1_556
Au1 Au4 2.877672 1_545
Au1 Au4 2.877672 1_546
Au1 Au2 2.890266 1_455
Au2 Ni1 2.835047 1_545
Au2 Ni1 2.835047 1_655
Au2 Ni0 2.841050 1_555
Au2 Ni0 2.841050 1_556
Au2 Au3 2.877672 1_546
Au2 Au3 2.877672 1_545
Au2 Au5 2.877672 1_655
Au2 Au5 2.877672 1_656
Au3 Au4 2.779468 1_555
Au3 Au5 2.779468 1_555
Au3 Ni0 2.835047 1_555
Au3 Ni0 2.835047 1_565
Au3 Ni1 2.841056 1_555
Au3 Ni1 2.841056 1_554
Au3 Au4 2.890266 1_655
Au3 Au5 2.890266 1_665
Au4 Au5 2.779468 1_555
Au4 Ni0 2.835047 1_455
Au4 Ni0 2.835047 1_565
Au4 Ni1 2.841050 1_554
Au4 Ni1 2.841050 1_555
Au4 Au5 2.890266 1_565
Au5 Ni0 2.835047 1_555
Au5 Ni0 2.835047 1_455
Au5 Ni1 2.841056 1_555
Au5 Ni1 2.841056 1_554
