# generated using pymatgen
data_BaHfS3
_symmetry_space_group_name_H-M   'P 1'
_cell_length_a   5.78630824
_cell_length_b   5.78630824
_cell_length_c   4.09153800
_cell_angle_alpha   90.00000000
_cell_angle_beta   90.00000000
_cell_angle_gamma   120.00000275
_symmetry_Int_Tables_number   1
_chemical_formula_structural   BaHfS3
_chemical_formula_sum   'Ba1 Hf1 S3'
_cell_volume   118.63704994
_cell_formula_units_Z   1
loop_
 _symmetry_equiv_pos_site_id
 _symmetry_equiv_pos_as_xyz
  1  'x, y, z'
loop_
 _atom_site_type_symbol
 _atom_site_label
 _atom_site_symmetry_multiplicity
 _atom_site_fract_x
 _atom_site_fract_y
 _atom_site_fract_z
 _atom_site_occupancy
  Ba  Ba0  1  0.00000000  0.00000000  0.00000000  1
  Hf  Hf0  1  0.50000000  0.50000000  0.50000000  1
  S  S0  1  0.50000000  0.50000000  0.00000000  1
  S  S1  1  0.50000000  0.00000000  0.50000000  1
  S  S2  1  0.00000000  0.50000000  0.50000000  1
loop_
_geom_bond_atom_site_label_1
_geom_bond_atom_site_label_2
_geom_bond_distance
_geom_bond_site_symmetry_2
Ba0 S0 2.893154 1_445
Ba0 S0 2.893154 1_555
Ba0 S2 3.543376 1_554
Ba0 S2 3.543376 1_555
Ba0 S2 3.543376 1_545
Ba0 S1 3.543376 1_455
Ba0 S1 3.543376 1_454
Ba0 S2 3.543376 1_544
Ba0 S1 3.543376 1_555
Ba0 S1 3.543376 1_554
Hf0 S0 2.045769 1_556
Hf0 S0 2.045769 1_555
Hf0 S2 2.893154 1_655
Hf0 S1 2.893154 1_555
Hf0 S1 2.893154 1_565
Hf0 S2 2.893154 1_555
