# generated using pymatgen
data_CsSrBr3
_symmetry_space_group_name_H-M   'P 1'
_cell_length_a   4.55408501
_cell_length_b   7.88881463
_cell_length_c   11.54804055
_cell_angle_alpha   90.00000000
_cell_angle_beta   90.00000000
_cell_angle_gamma   106.79819037
_symmetry_Int_Tables_number   1
_chemical_formula_structural   CsSrBr3
_chemical_formula_sum   'Cs2 Sr2 Br6'
_cell_volume   397.17529804
_cell_formula_units_Z   2
loop_
 _symmetry_equiv_pos_site_id
 _symmetry_equiv_pos_as_xyz
  1  'x, y, z'
loop_
 _atom_site_type_symbol
 _atom_site_label
 _atom_site_symmetry_multiplicity
 _atom_site_fract_x
 _atom_site_fract_y
 _atom_site_fract_z
 _atom_site_occupancy
  Cs  Cs0  1  0.25275942  0.50604141  0.01038661  1
  Cs  Cs1  1  0.74724158  0.49395859  0.51038561  1
  Sr  Sr0  1  0.00122647  0.00023736  0.75921782  1
  Sr  Sr1  1  -0.00122547  -0.00023636  0.25921782  1
  Br  Br0  1  0.36857687  0.73534228  0.71238783  1
  Br  Br1  1  0.63142213  0.26465772  0.21238683  1
  Br  Br2  1  0.36694885  0.73518611  0.30659747  1
  Br  Br3  1  0.63305115  0.26481289  0.80659747  1
  Br  Br4  1  0.94278363  0.88092481  0.00911227  1
  Br  Br5  1  0.05721637  0.11907419  0.50911227  1
loop_
_geom_bond_atom_site_label_1
_geom_bond_atom_site_label_2
_geom_bond_distance
_geom_bond_site_symmetry_2
Br0 Sr0 3.078760 1_565
Br0 Sr0 3.079010 1_665
Br0 Cs1 3.733573 1_555
Br0 Cs1 3.736311 1_455
Br0 Cs0 3.852460 1_556
Br1 Sr1 3.078762 1_655
Br1 Sr1 3.079002 1_555
Br1 Cs0 3.733553 1_555
Br1 Cs0 3.736302 1_655
Br1 Cs1 3.852460 1_555
Br2 Sr1 3.076334 1_665
Br2 Sr1 3.080565 1_565
Br2 Cs1 3.744361 1_455
Br2 Cs1 3.750210 1_555
Br2 Cs0 3.833493 1_555
Br3 Sr0 3.076325 1_555
Br3 Sr0 3.080555 1_655
Br3 Cs0 3.744374 1_656
Br3 Cs0 3.750220 1_556
Br3 Cs1 3.833507 1_555
Br4 Sr0 3.023203 1_664
Br4 Sr1 3.024503 1_665
Br4 Cs0 3.626593 1_655
Br4 Cs0 3.640001 1_555
Br5 Sr1 3.023198 1_555
Br5 Sr0 3.024498 1_555
Br5 Cs1 3.626597 1_455
Br5 Cs1 3.640008 1_555
