# generated using pymatgen
data_Li3Ga
_symmetry_space_group_name_H-M   'P 1'
_cell_length_a   4.44879020
_cell_length_b   4.44879020
_cell_length_c   4.44879020
_cell_angle_alpha   60.00000000
_cell_angle_beta   60.00000000
_cell_angle_gamma   60.00000000
_symmetry_Int_Tables_number   1
_chemical_formula_structural   Li3Ga
_chemical_formula_sum   'Li3 Ga1'
_cell_volume   62.26023835
_cell_formula_units_Z   1
loop_
 _symmetry_equiv_pos_site_id
 _symmetry_equiv_pos_as_xyz
  1  'x, y, z'
loop_
 _atom_site_type_symbol
 _atom_site_label
 _atom_site_symmetry_multiplicity
 _atom_site_fract_x
 _atom_site_fract_y
 _atom_site_fract_z
 _atom_site_occupancy
  Li  Li0  1  0.00000000  0.00000000  0.00000000  1
  Li  Li1  1  0.50000000  0.50000000  0.50000000  1
  Li  Li2  1  0.25000100  0.25000100  0.25000100  1
  Ga  Ga0  1  0.75000100  0.75000100  0.75000100  1
loop_
_geom_bond_atom_site_label_1
_geom_bond_atom_site_label_2
_geom_bond_distance
_geom_bond_site_symmetry_2
Li0 Li2 2.724313 1_545
Li0 Li2 2.724313 1_455
Li0 Li2 2.724313 1_554
Li0 Li2 2.724327 1_555
Li1 Li2 2.724306 1_555
Li1 Li2 2.724320 1_655
Li1 Li2 2.724320 1_556
Li1 Li2 2.724320 1_565
Ga0 Li0 2.724306 1_666
Ga0 Li1 2.724313 1_556
Ga0 Li1 2.724313 1_565
Ga0 Li1 2.724313 1_655
Ga0 Li0 2.724320 1_656
Ga0 Li0 2.724320 1_665
Ga0 Li0 2.724320 1_566
Ga0 Li1 2.724327 1_555
Ga0 Li2 3.145770 1_565
Ga0 Li2 3.145770 1_655
Ga0 Li2 3.145770 1_556
Ga0 Li2 3.145770 1_656
Ga0 Li2 3.145770 1_665
Ga0 Li2 3.145770 1_566
