# generated using pymatgen
data_Ba4Nd4Zn3PtO15
_symmetry_space_group_name_H-M   'P 1'
_cell_length_a   11.88159962
_cell_length_b   11.88159962
_cell_length_c   6.87062400
_cell_angle_alpha   90.00000000
_cell_angle_beta   90.00000000
_cell_angle_gamma   119.99999789
_symmetry_Int_Tables_number   1
_chemical_formula_structural   Ba4Nd4Zn3PtO15
_chemical_formula_sum   'Ba8 Nd8 Zn6 Pt2 O30'
_cell_volume   839.99490223
_cell_formula_units_Z   2
loop_
 _symmetry_equiv_pos_site_id
 _symmetry_equiv_pos_as_xyz
  1  'x, y, z'
loop_
 _atom_site_type_symbol
 _atom_site_label
 _atom_site_symmetry_multiplicity
 _atom_site_fract_x
 _atom_site_fract_y
 _atom_site_fract_z
 _atom_site_occupancy
  Ba  Ba0  1  0.34615700  0.17307900  0.15853300  1
  Ba  Ba1  1  0.17307900  0.34615700  0.65853300  1
  Ba  Ba2  1  0.17307900  0.82692100  0.65853300  1
  Ba  Ba3  1  0.82692100  0.17307900  0.15853300  1
  Ba  Ba4  1  0.65384300  0.82692100  0.65853300  1
  Ba  Ba5  1  0.82692100  0.65384300  0.15853300  1
  Ba  Ba6  1  0.33333300  0.66666700  0.33894000  1
  Ba  Ba7  1  0.66666700  0.33333300  0.83894000  1
  Nd  Nd0  1  0.00000000  0.00000000  0.34141900  1
  Nd  Nd1  1  0.52302100  0.47697900  0.50029200  1
  Nd  Nd2  1  0.47697900  0.95395800  0.00029200  1
  Nd  Nd3  1  0.52302100  0.04604200  0.50029200  1
  Nd  Nd4  1  0.95395800  0.47697900  0.50029200  1
  Nd  Nd5  1  0.00000000  0.00000000  0.84141900  1
  Nd  Nd6  1  0.04604200  0.52302100  0.00029200  1
  Nd  Nd7  1  0.47697900  0.52302100  0.00029200  1
  Zn  Zn0  1  0.65729500  0.82864700  0.17558700  1
  Zn  Zn1  1  0.82864700  0.65729500  0.67558700  1
  Zn  Zn2  1  0.82864700  0.17135300  0.67558700  1
  Zn  Zn3  1  0.17135300  0.82864700  0.17558700  1
  Zn  Zn4  1  0.17135300  0.34270500  0.17558700  1
  Zn  Zn5  1  0.34270500  0.17135300  0.67558700  1
  Pt  Pt0  1  0.33333300  0.66666700  0.81573800  1
  Pt  Pt1  1  0.66666700  0.33333300  0.31573800  1
  O  O0  1  0.83298400  0.91649200  0.07077300  1
  O  O1  1  0.91649200  0.83298400  0.57077300  1
  O  O2  1  0.91649200  0.08350800  0.57077300  1
  O  O3  1  0.08350800  0.91649200  0.07077300  1
  O  O4  1  0.08350800  0.16701600  0.07077300  1
  O  O5  1  0.16701600  0.08350800  0.57077300  1
  O  O6  1  0.60504900  0.66182800  0.29996000  1
  O  O7  1  0.33817200  0.94322100  0.29996000  1
  O  O8  1  0.05677900  0.39495100  0.29996000  1
  O  O9  1  0.94322100  0.60504900  0.79996000  1
  O  O10  1  0.39495100  0.33817200  0.79996000  1
  O  O11  1  0.66182800  0.05677900  0.79996000  1
  O  O12  1  0.60504900  0.94322100  0.29996000  1
  O  O13  1  0.66182800  0.60504900  0.79996000  1
  O  O14  1  0.94322100  0.33817200  0.79996000  1
  O  O15  1  0.05677900  0.66182800  0.29996000  1
  O  O16  1  0.33817200  0.39495100  0.29996000  1
  O  O17  1  0.39495100  0.05677900  0.79996000  1
  O  O18  1  0.49778200  0.74889100  0.98835200  1
  O  O19  1  0.74889100  0.49778200  0.48835200  1
  O  O20  1  0.74889100  0.25110900  0.48835200  1
  O  O21  1  0.25110900  0.74889100  0.98835200  1
  O  O22  1  0.25110900  0.50221800  0.98835200  1
  O  O23  1  0.50221800  0.25110900  0.48835200  1
  O  O24  1  0.83323900  0.41661900  0.15551900  1
  O  O25  1  0.41661900  0.83323900  0.65551900  1
  O  O26  1  0.41661900  0.58338100  0.65551900  1
  O  O27  1  0.58338100  0.41661900  0.15551900  1
  O  O28  1  0.58338100  0.16676100  0.15551900  1
  O  O29  1  0.16676100  0.58338100  0.65551900  1
loop_
_geom_bond_atom_site_label_1
_geom_bond_atom_site_label_2
_geom_bond_distance
_geom_bond_site_symmetry_2
Ba0 O23 2.777361 1_555
Ba0 O16 2.855313 1_555
Ba0 O7 2.855324 1_545
Ba0 O27 2.856937 1_555
Ba0 O28 2.856949 1_555
Ba0 O10 3.019283 1_554
Ba0 O17 3.019289 1_554
Ba0 O4 3.143669 1_555
Ba0 O3 3.143675 1_545
Ba0 O5 3.379350 1_555
Ba1 O22 2.777361 1_555
Ba1 O10 2.855313 1_555
Ba1 O14 2.855324 1_455
Ba1 O26 2.856937 1_555
Ba1 O29 2.856949 1_555
Ba1 O16 3.019283 1_555
Ba1 O8 3.019289 1_555
Ba1 O5 3.143669 1_555
Ba1 O2 3.143675 1_455
Ba1 O4 3.379350 1_556
Ba2 O21 2.777355 1_555
Ba2 O9 2.855319 1_455
Ba2 O17 2.855319 1_565
Ba2 O25 2.856926 1_555
Ba2 O29 2.856926 1_555
Ba2 O15 3.019284 1_555
Ba2 O7 3.019284 1_555
Ba2 O1 3.143681 1_455
Ba2 O5 3.143681 1_565
Ba2 O3 3.379356 1_556
Ba3 O20 2.777355 1_555
Ba3 O12 2.855319 1_545
Ba3 O8 2.855319 1_655
Ba3 O24 2.856926 1_555
Ba3 O28 2.856926 1_555
Ba3 O11 3.019284 1_554
Ba3 O14 3.019284 1_554
Ba3 O0 3.143681 1_545
Ba3 O4 3.143681 1_655
Ba3 O2 3.379356 1_555
Ba4 O18 2.777361 1_555
Ba4 O13 2.855313 1_555
Ba4 O11 2.855324 1_565
Ba4 O26 2.856937 1_555
Ba4 O25 2.856949 1_555
Ba4 O6 3.019283 1_555
Ba4 O12 3.019289 1_555
Ba4 O1 3.143669 1_555
Ba4 O2 3.143675 1_565
Ba4 O0 3.379350 1_556
Ba5 O19 2.777361 1_555
Ba5 O6 2.855313 1_555
Ba5 O15 2.855324 1_655
Ba5 O27 2.856937 1_555
Ba5 O24 2.856949 1_555
Ba5 O13 3.019283 1_554
Ba5 O9 3.019289 1_554
Ba5 O0 3.143669 1_555
Ba5 O3 3.143675 1_655
Ba5 O1 3.379350 1_555
Ba6 O26 2.769258 1_555
Ba6 O25 2.769258 1_555
Ba6 O29 2.769258 1_555
Ba6 O21 2.943710 1_554
Ba6 O18 2.943716 1_554
Ba6 O22 2.943716 1_554
Ba6 O7 3.268528 1_555
Ba6 O15 3.268528 1_555
Ba6 O12 3.268533 1_555
Ba6 O8 3.268533 1_555
Ba6 O6 3.268539 1_555
Ba6 O16 3.268539 1_555
Ba7 O27 2.769258 1_556
Ba7 O24 2.769258 1_556
Ba7 O28 2.769258 1_556
Ba7 O20 2.943710 1_555
Ba7 O19 2.943716 1_555
Ba7 O23 2.943716 1_555
Ba7 O14 3.268528 1_555
Ba7 O11 3.268528 1_555
Ba7 O9 3.268533 1_555
Ba7 O17 3.268533 1_555
Ba7 O13 3.268539 1_555
Ba7 O10 3.268539 1_555
Nd0 O2 2.331651 1_455
Nd0 O5 2.331651 1_555
Nd0 O1 2.331651 1_445
Nd0 O3 2.532035 1_545
Nd0 O4 2.532035 1_555
Nd0 O0 2.532035 1_445
Nd1 O16 2.351076 1_555
Nd1 O6 2.351076 1_555
Nd1 O26 2.435619 1_555
Nd1 O19 2.570353 1_555
Nd1 O23 2.570353 1_555
Nd1 O10 2.600960 1_555
Nd1 O13 2.600960 1_555
Nd1 O27 2.674744 1_555
Nd2 O17 2.351076 1_564
Nd2 O11 2.351076 1_564
Nd2 O28 2.435609 1_565
Nd2 O18 2.570353 1_554
Nd2 O21 2.570353 1_554
Nd2 O12 2.600960 1_555
Nd2 O7 2.600960 1_555
Nd2 O25 2.674739 1_554
Nd3 O12 2.351076 1_545
Nd3 O7 2.351076 1_545
Nd3 O25 2.435609 1_545
Nd3 O23 2.570353 1_555
Nd3 O20 2.570353 1_555
Nd3 O17 2.600960 1_555
Nd3 O11 2.600960 1_555
Nd3 O28 2.674739 1_555
Nd4 O8 2.351076 1_655
Nd4 O15 2.351076 1_655
Nd4 O29 2.435609 1_655
Nd4 O19 2.570353 1_555
Nd4 O20 2.570353 1_555
Nd4 O9 2.600960 1_555
Nd4 O14 2.600960 1_555
Nd4 O24 2.674739 1_555
Nd5 O3 2.331651 1_546
Nd5 O4 2.331651 1_556
Nd5 O0 2.331651 1_446
Nd5 O2 2.532035 1_455
Nd5 O5 2.532035 1_555
Nd5 O1 2.532035 1_445
Nd6 O9 2.351076 1_454
Nd6 O14 2.351076 1_454
Nd6 O24 2.435609 1_455
Nd6 O22 2.570353 1_554
Nd6 O21 2.570353 1_554
Nd6 O8 2.600960 1_555
Nd6 O15 2.600960 1_555
Nd6 O29 2.674739 1_554
Nd7 O13 2.351076 1_554
Nd7 O10 2.351076 1_554
Nd7 O27 2.435619 1_555
Nd7 O18 2.570353 1_554
Nd7 O22 2.570353 1_554
Nd7 O16 2.600960 1_555
Nd7 O6 2.600960 1_555
Nd7 O26 2.674744 1_554
O0 Zn0 1.945954 1_555
O1 Zn1 1.945954 1_555
O2 Zn2 1.945963 1_555
O3 Zn3 1.945963 1_555
O4 Zn4 1.945954 1_555
O5 Zn5 1.945954 1_555
O6 Zn0 1.952889 1_555
O7 Zn3 1.952892 1_555
O8 Zn4 1.952900 1_555
O9 Zn1 1.952900 1_555
O10 Zn5 1.952889 1_555
O11 Zn2 1.952892 1_555
O12 Zn0 1.952900 1_555
O13 Zn1 1.952889 1_555
O14 Zn2 1.952892 1_555
O15 Zn3 1.952892 1_555
O16 Zn4 1.952889 1_555
O17 Zn5 1.952900 1_555
O18 Pt0 2.066364 1_555
O18 Zn0 2.085405 1_556
O19 Pt1 2.066364 1_555
O19 Zn1 2.085405 1_555
O20 Pt1 2.066355 1_555
O20 Zn2 2.085397 1_555
O21 Pt0 2.066355 1_555
O21 Zn3 2.085397 1_556
O22 Pt0 2.066364 1_555
O22 Zn4 2.085405 1_556
O23 Pt1 2.066364 1_555
O23 Zn5 2.085405 1_555
O24 Pt1 2.037038 1_555
O25 Pt0 2.037038 1_555
O26 Pt0 2.037038 1_555
O27 Pt1 2.037038 1_555
O28 Pt1 2.037038 1_555
O29 Pt0 2.037038 1_555
