# generated using pymatgen
data_CsAu3Se2
_symmetry_space_group_name_H-M   'P 1'
_cell_length_a   6.43627982
_cell_length_b   6.43628056
_cell_length_c   5.27461582
_cell_angle_alpha   90.00000000
_cell_angle_beta   90.00000000
_cell_angle_gamma   119.99999617
_symmetry_Int_Tables_number   1
_chemical_formula_structural   CsAu3Se2
_chemical_formula_sum   'Cs1 Au3 Se2'
_cell_volume   189.23059968
_cell_formula_units_Z   1
loop_
 _symmetry_equiv_pos_site_id
 _symmetry_equiv_pos_as_xyz
  1  'x, y, z'
loop_
 _atom_site_type_symbol
 _atom_site_label
 _atom_site_symmetry_multiplicity
 _atom_site_fract_x
 _atom_site_fract_y
 _atom_site_fract_z
 _atom_site_occupancy
  Cs  Cs0  1  0.00000000  0.00000000  0.50000000  1
  Au  Au0  1  0.00000000  0.50000000  0.00000000  1
  Au  Au1  1  0.50000000  0.00000000  0.00000000  1
  Au  Au2  1  0.50000000  0.50000000  0.00000000  1
  Se  Se0  1  0.33333300  0.66666700  0.69785682  1
  Se  Se1  1  0.66666700  0.33333300  0.30214318  1
loop_
_geom_bond_atom_site_label_1
_geom_bond_atom_site_label_2
_geom_bond_distance
_geom_bond_site_symmetry_2
Cs0 Se1 3.859751 1_455
Cs0 Se0 3.859751 1_545
Cs0 Se0 3.859757 1_445
Cs0 Se1 3.859757 1_555
Cs0 Se0 3.859757 1_555
Cs0 Se1 3.859757 1_445
Au0 Se1 2.447852 1_455
Au0 Se0 2.447852 1_554
Au0 Cs0 4.160748 1_555
Au0 Cs0 4.160748 1_554
Au0 Cs0 4.160748 1_564
Au0 Cs0 4.160748 1_565
Au1 Se0 2.447852 1_544
Au1 Se1 2.447852 1_555
Au1 Cs0 4.160747 1_655
Au1 Cs0 4.160747 1_654
Au1 Cs0 4.160747 1_555
Au1 Cs0 4.160747 1_554
Au2 Se0 2.447856 1_554
Au2 Se1 2.447856 1_555
Au2 Cs0 4.160748 1_555
Au2 Cs0 4.160748 1_554
Au2 Cs0 4.160748 1_665
Au2 Cs0 4.160748 1_664
