# generated using pymatgen
data_K3Hg
_symmetry_space_group_name_H-M   'P 1'
_cell_length_a   6.47312228
_cell_length_b   6.47312228
_cell_length_c   6.47312228
_cell_angle_alpha   60.00000000
_cell_angle_beta   60.00000000
_cell_angle_gamma   60.00000000
_symmetry_Int_Tables_number   1
_chemical_formula_structural   K3Hg
_chemical_formula_sum   'K3 Hg1'
_cell_volume   191.79021039
_cell_formula_units_Z   1
loop_
 _symmetry_equiv_pos_site_id
 _symmetry_equiv_pos_as_xyz
  1  'x, y, z'
loop_
 _atom_site_type_symbol
 _atom_site_label
 _atom_site_symmetry_multiplicity
 _atom_site_fract_x
 _atom_site_fract_y
 _atom_site_fract_z
 _atom_site_occupancy
  K  K0  1  -0.00000000  0.00000000  0.00000000  1
  K  K1  1  0.49999900  0.49999900  0.49999900  1
  K  K2  1  0.25000000  0.25000000  0.25000000  1
  Hg  Hg0  1  0.75000000  0.75000000  0.75000000  1
loop_
_geom_bond_atom_site_label_1
_geom_bond_atom_site_label_2
_geom_bond_distance
_geom_bond_site_symmetry_2
K0 K2 3.963962 1_545
K0 K2 3.963962 1_455
K0 K2 3.963962 1_554
K0 K2 3.963962 1_555
K1 K2 3.963946 1_555
K1 K2 3.963967 1_655
K1 K2 3.963967 1_565
K1 K2 3.963967 1_556
Hg0 K1 3.963956 1_655
Hg0 K1 3.963956 1_556
Hg0 K1 3.963956 1_565
Hg0 K0 3.963962 1_656
Hg0 K0 3.963962 1_566
Hg0 K0 3.963962 1_666
Hg0 K0 3.963962 1_665
Hg0 K1 3.963978 1_555
