# generated using pymatgen
data_YReN3
_symmetry_space_group_name_H-M   'P 1'
_cell_length_a   7.43632244
_cell_length_b   7.43632244
_cell_length_c   6.33476527
_cell_angle_alpha   72.54185260
_cell_angle_beta   72.54185260
_cell_angle_gamma   81.91295632
_symmetry_Int_Tables_number   1
_chemical_formula_structural   YReN3
_chemical_formula_sum   'Y4 Re4 N12'
_cell_volume   318.28150220
_cell_formula_units_Z   4
loop_
 _symmetry_equiv_pos_site_id
 _symmetry_equiv_pos_as_xyz
  1  'x, y, z'
loop_
 _atom_site_type_symbol
 _atom_site_label
 _atom_site_symmetry_multiplicity
 _atom_site_fract_x
 _atom_site_fract_y
 _atom_site_fract_z
 _atom_site_occupancy
  Y  Y0  1  0.90561400  0.09438600  0.75000000  1
  Y  Y1  1  0.09438600  0.90561400  0.25000000  1
  Y  Y2  1  0.71131600  0.28868400  0.25000000  1
  Y  Y3  1  0.28868400  0.71131600  0.75000000  1
  Re  Re0  1  0.62330700  0.79435200  0.28462100  1
  Re  Re1  1  0.20564800  0.37669300  0.21537900  1
  Re  Re2  1  0.37669300  0.20564800  0.71537900  1
  Re  Re3  1  0.79435200  0.62330700  0.78462100  1
  N  N0  1  0.66934200  0.63647600  0.08732700  1
  N  N1  1  0.37432100  0.86747200  0.34098200  1
  N  N2  1  0.36352400  0.33065800  0.41267300  1
  N  N3  1  0.13252800  0.62567900  0.15901800  1
  N  N4  1  0.00712100  0.21943400  0.33663200  1
  N  N5  1  0.78056600  0.99287900  0.16336800  1
  N  N6  1  0.21943400  0.00712100  0.83663200  1
  N  N7  1  0.62567900  0.13252800  0.65901800  1
  N  N8  1  0.33065800  0.36352400  0.91267300  1
  N  N9  1  0.86747200  0.37432100  0.84098200  1
  N  N10  1  0.63647600  0.66934200  0.58732700  1
  N  N11  1  0.99287900  0.78056600  0.66336800  1
loop_
_geom_bond_atom_site_label_1
_geom_bond_atom_site_label_2
_geom_bond_distance
_geom_bond_site_symmetry_2
N0 Re0 1.888954 1_555
N0 Re3 1.889000 1_554
N0 Y2 2.492987 1_555
N1 Re0 1.813259 1_555
N1 Y1 2.280730 1_555
N1 Y3 2.424899 1_555
N2 Re1 1.888954 1_555
N2 Re2 1.889000 1_555
N2 Y2 2.492987 1_555
N3 Re1 1.813259 1_555
N3 Y1 2.280730 1_555
N3 Y3 2.424899 1_554
N4 Re1 1.844837 1_555
N4 Y2 2.375100 1_455
N4 Y0 2.417009 1_455
N4 Y1 2.509375 1_545
N5 Re0 1.844837 1_555
N5 Y2 2.375100 1_565
N5 Y0 2.417009 1_564
N5 Y1 2.509375 1_655
N6 Re2 1.844837 1_555
N6 Y3 2.375100 1_545
N6 Y1 2.417009 1_546
N6 Y0 2.509375 1_455
N7 Re2 1.813259 1_555
N7 Y0 2.280730 1_555
N7 Y2 2.424899 1_555
N8 Re2 1.888954 1_555
N8 Re1 1.889000 1_556
N8 Y3 2.492987 1_555
N9 Re3 1.813259 1_555
N9 Y0 2.280730 1_555
N9 Y2 2.424899 1_556
N10 Re3 1.888954 1_555
N10 Re0 1.889000 1_555
N10 Y3 2.492987 1_555
N11 Re3 1.844837 1_555
N11 Y3 2.375100 1_655
N11 Y1 2.417009 1_655
N11 Y0 2.509375 1_565
