# generated using pymatgen
data_NiH2SeO5
_symmetry_space_group_name_H-M   'P 1'
_cell_length_a   5.16956562
_cell_length_b   7.96480371
_cell_length_c   5.16705469
_cell_angle_alpha   71.93596868
_cell_angle_beta   87.94158089
_cell_angle_gamma   71.96678754
_symmetry_Int_Tables_number   1
_chemical_formula_structural   NiH2SeO5
_chemical_formula_sum   'Ni2 H4 Se2 O10'
_cell_volume   191.90397587
_cell_formula_units_Z   2
loop_
 _symmetry_equiv_pos_site_id
 _symmetry_equiv_pos_as_xyz
  1  'x, y, z'
loop_
 _atom_site_type_symbol
 _atom_site_label
 _atom_site_symmetry_multiplicity
 _atom_site_fract_x
 _atom_site_fract_y
 _atom_site_fract_z
 _atom_site_occupancy
  Ni  Ni0  1  0.50006000  0.50008400  0.99989700  1
  Ni  Ni1  1  0.49969900  0.00013900  0.00003700  1
  H  H0  1  0.99283300  0.99953300  0.72850200  1
  H  H1  1  0.77171600  0.50032700  0.50749100  1
  H  H2  1  0.22838700  0.49952000  0.49266000  1
  H  H3  1  0.00738300  0.00046600  0.27158100  1
  Se  Se0  1  0.19081700  0.24996200  0.30925900  1
  Se  Se1  1  0.80910700  0.75011900  0.69066400  1
  O  O0  1  0.43383300  0.25032100  0.06504600  1
  O  O1  1  0.56616300  0.74966400  0.93498300  1
  O  O2  1  0.13555700  0.06678000  0.17473900  1
  O  O3  1  0.32502800  0.43331700  0.36419100  1
  O  O4  1  0.67496400  0.56659100  0.63593700  1
  O  O5  1  0.86430200  0.93339800  0.82513600  1
  O  O6  1  0.24734900  0.10983400  0.63398900  1
  O  O7  1  0.86564400  0.38886800  0.25588900  1
  O  O8  1  0.13427700  0.61112400  0.74421200  1
  O  O9  1  0.75287900  0.88995400  0.36578000  1
loop_
_geom_bond_atom_site_label_1
_geom_bond_atom_site_label_2
_geom_bond_distance
_geom_bond_site_symmetry_2
Ni0 O1 2.044431 1_555
Ni0 O0 2.045972 1_556
Ni0 O4 2.047289 1_555
Ni0 O3 2.049262 1_556
Ni0 O7 2.126611 1_556
Ni0 O8 2.126656 1_555
Ni1 O0 2.046028 1_555
Ni1 O1 2.047972 1_544
Ni1 O2 2.048578 1_555
Ni1 O5 2.051129 1_544
Ni1 O6 2.118794 1_554
Ni1 O9 2.119577 1_545
H0 O5 0.999014 1_555
H1 O4 0.999572 1_555
H1 O7 1.765639 1_555
H2 O3 0.999207 1_555
H2 O8 1.766244 1_555
H3 O2 0.998680 1_555
O0 Se0 1.748333 1_555
O1 Se1 1.748456 1_555
O2 Se0 1.895962 1_555
O3 Se0 1.895576 1_555
O4 Se1 1.896218 1_555
O5 Se1 1.896393 1_555
O6 Se0 1.678787 1_555
O7 Se0 1.678832 1_655
O8 Se1 1.679027 1_455
O9 Se1 1.678716 1_555
