# generated using pymatgen
data_Au3Br
_symmetry_space_group_name_H-M   'P 1'
_cell_length_a   5.37990170
_cell_length_b   5.37990170
_cell_length_c   5.37990170
_cell_angle_alpha   134.01108496
_cell_angle_beta   134.01108496
_cell_angle_gamma   67.07069512
_symmetry_Int_Tables_number   1
_chemical_formula_structural   Au3Br
_chemical_formula_sum   'Au3 Br1'
_cell_volume   79.22644992
_cell_formula_units_Z   1
loop_
 _symmetry_equiv_pos_site_id
 _symmetry_equiv_pos_as_xyz
  1  'x, y, z'
loop_
 _atom_site_type_symbol
 _atom_site_label
 _atom_site_symmetry_multiplicity
 _atom_site_fract_x
 _atom_site_fract_y
 _atom_site_fract_z
 _atom_site_occupancy
  Au  Au0  1  0.75000000  0.25000000  0.50000000  1
  Au  Au1  1  0.25000000  0.75000000  0.50000000  1
  Au  Au2  1  0.50000000  0.50000000  0.00000000  1
  Br  Br0  1  0.00000000  0.00000000  0.00000000  1
loop_
_geom_bond_atom_site_label_1
_geom_bond_atom_site_label_2
_geom_bond_distance
_geom_bond_site_symmetry_2
Au0 Au1 2.972134 1_645
Au0 Au1 2.972134 1_544
Au0 Au1 2.972134 1_555
Au0 Au1 2.972134 1_656
Au0 Au2 3.073147 1_555
Au0 Au2 3.073147 1_556
Au0 Br0 3.073147 1_555
Au0 Au2 3.073147 1_656
Au0 Au2 3.073147 1_545
Au0 Br0 3.073147 1_656
Au0 Br0 3.073147 1_655
Au0 Br0 3.073147 1_666
Au1 Au2 3.073147 1_555
Au1 Au2 3.073147 1_455
Au1 Au2 3.073147 1_566
Au1 Br0 3.073147 1_555
Au1 Br0 3.073147 1_565
Au1 Au2 3.073147 1_556
Au1 Br0 3.073147 1_566
Au1 Br0 3.073147 1_666
Au2 Br0 2.972134 1_554
Au2 Br0 2.972134 1_565
Au2 Br0 2.972134 1_655
Au2 Br0 2.972134 1_666
