# generated using pymatgen
data_Na
_symmetry_space_group_name_H-M   'P 1'
_cell_length_a   7.40076716
_cell_length_b   7.40076532
_cell_length_c   25.07464308
_cell_angle_alpha   90.00000000
_cell_angle_beta   90.00000000
_cell_angle_gamma   120.00001732
_symmetry_Int_Tables_number   1
_chemical_formula_structural   Na
_chemical_formula_sum   Na32
_cell_volume   1189.37468251
_cell_formula_units_Z   32
loop_
 _symmetry_equiv_pos_site_id
 _symmetry_equiv_pos_as_xyz
  1  'x, y, z'
loop_
 _atom_site_type_symbol
 _atom_site_label
 _atom_site_symmetry_multiplicity
 _atom_site_fract_x
 _atom_site_fract_y
 _atom_site_fract_z
 _atom_site_occupancy
  Na  Na0_0  1  0.00000000  0.00000000  0.00000062  1
  Na  Na0_1  1  0.00000000  0.00000000  0.50000062  1
  Na  Na0_2  1  0.00000000  0.50000000  0.00000062  1
  Na  Na0_3  1  0.00000000  0.50000000  0.50000062  1
  Na  Na0_4  1  0.50000000  0.00000000  0.00000062  1
  Na  Na0_5  1  0.50000000  0.00000000  0.50000062  1
  Na  Na0_6  1  0.50000000  0.50000000  0.00000062  1
  Na  Na0_7  1  0.50000000  0.50000000  0.50000062  1
  Na  Na1_0  1  0.16666700  0.33333400  0.12500000  1
  Na  Na1_1  1  0.16666700  0.33333400  0.62500000  1
  Na  Na1_2  1  0.16666700  0.83333400  0.12500000  1
  Na  Na1_3  1  0.16666700  0.83333400  0.62500000  1
  Na  Na1_4  1  0.66666700  0.33333400  0.12500000  1
  Na  Na1_5  1  0.66666700  0.33333400  0.62500000  1
  Na  Na1_6  1  0.66666700  0.83333400  0.12500000  1
  Na  Na1_7  1  0.66666700  0.83333400  0.62500000  1
  Na  Na2_0  1  0.00000000  0.00000000  0.24999937  1
  Na  Na2_1  1  0.00000000  0.00000000  0.74999937  1
  Na  Na2_2  1  0.00000000  0.50000000  0.24999937  1
  Na  Na2_3  1  0.00000000  0.50000000  0.74999937  1
  Na  Na2_4  1  0.50000000  0.00000000  0.24999937  1
  Na  Na2_5  1  0.50000000  0.00000000  0.74999937  1
  Na  Na2_6  1  0.50000000  0.50000000  0.24999937  1
  Na  Na2_7  1  0.50000000  0.50000000  0.74999937  1
  Na  Na3_0  1  0.33333300  0.16666600  0.37500000  1
  Na  Na3_1  1  0.33333300  0.16666600  0.87500000  1
  Na  Na3_2  1  0.33333300  0.66666600  0.37500000  1
  Na  Na3_3  1  0.33333300  0.66666600  0.87500000  1
  Na  Na3_4  1  0.83333300  0.16666600  0.37500000  1
  Na  Na3_5  1  0.83333300  0.16666600  0.87500000  1
  Na  Na3_6  1  0.83333300  0.66666600  0.37500000  1
  Na  Na3_7  1  0.83333300  0.66666600  0.87500000  1
loop_
_geom_bond_atom_site_label_1
_geom_bond_atom_site_label_2
_geom_bond_distance
_geom_bond_site_symmetry_2
Na0_0 Na0_6 3.700382 1_445
Na0_0 Na0_6 3.700382 1_555
Na0_0 Na0_2 3.700383 1_545
Na0_0 Na0_2 3.700383 1_555
Na0_0 Na0_4 3.700384 1_555
Na0_0 Na0_4 3.700384 1_455
Na0_0 Na1_6 3.793178 1_445
Na0_0 Na1_2 3.793178 1_545
Na0_0 Na1_0 3.793181 1_555
Na0_0 Na3_1 3.793204 1_554
Na0_0 Na3_5 3.793204 1_454
Na0_0 Na3_7 3.793207 1_444
Na0_1 Na0_7 3.700382 1_445
Na0_1 Na0_7 3.700382 1_555
Na0_1 Na0_3 3.700383 1_545
Na0_1 Na0_3 3.700383 1_555
Na0_1 Na0_5 3.700384 1_555
Na0_1 Na0_5 3.700384 1_455
Na0_1 Na1_7 3.793178 1_445
Na0_1 Na1_3 3.793178 1_545
Na0_1 Na1_1 3.793181 1_555
Na0_1 Na3_0 3.793204 1_555
Na0_1 Na3_4 3.793204 1_455
Na0_1 Na3_6 3.793207 1_445
Na0_2 Na0_4 3.700382 1_455
Na0_2 Na0_4 3.700382 1_565
Na0_2 Na0_6 3.700384 1_555
Na0_2 Na0_6 3.700384 1_455
Na0_2 Na1_4 3.793178 1_455
Na0_2 Na1_0 3.793178 1_555
Na0_2 Na1_2 3.793181 1_555
Na0_2 Na3_3 3.793204 1_554
Na0_2 Na3_7 3.793204 1_454
Na0_2 Na3_5 3.793207 1_454
Na0_3 Na0_5 3.700382 1_455
Na0_3 Na0_5 3.700382 1_565
Na0_3 Na0_7 3.700384 1_555
Na0_3 Na0_7 3.700384 1_455
Na0_3 Na1_5 3.793178 1_455
Na0_3 Na1_1 3.793178 1_555
Na0_3 Na1_3 3.793181 1_555
Na0_3 Na3_2 3.793204 1_555
Na0_3 Na3_6 3.793204 1_455
Na0_3 Na3_4 3.793207 1_455
Na0_4 Na0_6 3.700383 1_545
Na0_4 Na0_6 3.700383 1_555
Na0_4 Na1_2 3.793178 1_545
Na0_4 Na1_6 3.793178 1_545
Na0_4 Na1_4 3.793181 1_555
Na0_4 Na3_5 3.793204 1_554
Na0_4 Na3_1 3.793204 1_554
Na0_4 Na3_3 3.793207 1_544
Na0_5 Na0_7 3.700383 1_555
Na0_5 Na0_7 3.700383 1_545
Na0_5 Na1_3 3.793178 1_545
Na0_5 Na1_7 3.793178 1_545
Na0_5 Na1_5 3.793181 1_555
Na0_5 Na3_4 3.793204 1_555
Na0_5 Na3_0 3.793204 1_555
Na0_5 Na3_2 3.793207 1_545
Na0_6 Na1_0 3.793178 1_555
Na0_6 Na1_4 3.793178 1_555
Na0_6 Na1_6 3.793181 1_555
Na0_6 Na3_7 3.793204 1_554
Na0_6 Na3_3 3.793204 1_554
Na0_6 Na3_1 3.793207 1_554
Na0_7 Na1_1 3.793178 1_555
Na0_7 Na1_5 3.793178 1_555
Na0_7 Na1_7 3.793181 1_555
Na0_7 Na3_6 3.793204 1_555
Na0_7 Na3_2 3.793204 1_555
Na0_7 Na3_0 3.793207 1_555
Na1_0 Na1_6 3.700382 1_555
Na1_0 Na1_6 3.700382 1_445
Na1_0 Na1_2 3.700383 1_555
Na1_0 Na1_2 3.700383 1_545
Na1_0 Na1_4 3.700384 1_555
Na1_0 Na1_4 3.700384 1_455
Na1_0 Na2_6 3.793178 1_555
Na1_0 Na2_2 3.793178 1_555
Na1_0 Na2_0 3.793181 1_555
Na1_1 Na1_7 3.700382 1_555
Na1_1 Na1_7 3.700382 1_445
Na1_1 Na1_3 3.700383 1_555
Na1_1 Na1_3 3.700383 1_545
Na1_1 Na1_5 3.700384 1_555
Na1_1 Na1_5 3.700384 1_455
Na1_1 Na2_7 3.793178 1_555
Na1_1 Na2_3 3.793178 1_555
Na1_1 Na2_1 3.793181 1_555
Na1_2 Na1_4 3.700382 1_565
Na1_2 Na1_4 3.700382 1_455
Na1_2 Na1_6 3.700384 1_555
Na1_2 Na1_6 3.700384 1_455
Na1_2 Na2_4 3.793178 1_565
Na1_2 Na2_0 3.793178 1_565
Na1_2 Na2_2 3.793181 1_555
Na1_3 Na1_5 3.700382 1_565
Na1_3 Na1_5 3.700382 1_455
Na1_3 Na1_7 3.700384 1_555
Na1_3 Na1_7 3.700384 1_455
Na1_3 Na2_5 3.793178 1_565
Na1_3 Na2_1 3.793178 1_565
Na1_3 Na2_3 3.793181 1_555
Na1_4 Na1_6 3.700383 1_555
Na1_4 Na1_6 3.700383 1_545
Na1_4 Na2_2 3.793178 1_655
Na1_4 Na2_6 3.793178 1_555
Na1_4 Na2_4 3.793181 1_555
Na1_5 Na1_7 3.700383 1_555
Na1_5 Na1_7 3.700383 1_545
Na1_5 Na2_3 3.793178 1_655
Na1_5 Na2_7 3.793178 1_555
Na1_5 Na2_5 3.793181 1_555
Na1_6 Na2_0 3.793178 1_665
Na1_6 Na2_4 3.793178 1_565
Na1_6 Na2_6 3.793181 1_555
Na1_7 Na2_1 3.793178 1_665
Na1_7 Na2_5 3.793178 1_565
Na1_7 Na2_7 3.793181 1_555
Na2_0 Na2_6 3.700382 1_555
Na2_0 Na2_6 3.700382 1_445
Na2_0 Na2_2 3.700383 1_545
Na2_0 Na2_2 3.700383 1_555
Na2_0 Na2_4 3.700384 1_555
Na2_0 Na2_4 3.700384 1_455
Na2_0 Na3_0 3.793204 1_555
Na2_0 Na3_4 3.793204 1_455
Na2_0 Na3_6 3.793207 1_445
Na2_1 Na2_7 3.700382 1_555
Na2_1 Na2_7 3.700382 1_445
Na2_1 Na2_3 3.700383 1_555
Na2_1 Na2_3 3.700383 1_545
Na2_1 Na2_5 3.700384 1_555
Na2_1 Na2_5 3.700384 1_455
Na2_1 Na3_1 3.793204 1_555
Na2_1 Na3_5 3.793204 1_455
Na2_1 Na3_7 3.793207 1_445
Na2_2 Na2_4 3.700382 1_455
Na2_2 Na2_4 3.700382 1_565
Na2_2 Na2_6 3.700384 1_555
Na2_2 Na2_6 3.700384 1_455
Na2_2 Na3_2 3.793204 1_555
Na2_2 Na3_6 3.793204 1_455
Na2_2 Na3_4 3.793207 1_455
Na2_3 Na2_5 3.700382 1_455
Na2_3 Na2_5 3.700382 1_565
Na2_3 Na2_7 3.700384 1_555
Na2_3 Na2_7 3.700384 1_455
Na2_3 Na3_3 3.793204 1_555
Na2_3 Na3_7 3.793204 1_455
Na2_3 Na3_5 3.793207 1_455
Na2_4 Na2_6 3.700383 1_545
Na2_4 Na2_6 3.700383 1_555
Na2_4 Na3_4 3.793204 1_555
Na2_4 Na3_0 3.793204 1_555
Na2_4 Na3_2 3.793207 1_545
Na2_5 Na2_7 3.700383 1_555
Na2_5 Na2_7 3.700383 1_545
Na2_5 Na3_5 3.793204 1_555
Na2_5 Na3_1 3.793204 1_555
Na2_5 Na3_3 3.793207 1_545
Na2_6 Na3_6 3.793204 1_555
Na2_6 Na3_2 3.793204 1_555
Na2_6 Na3_0 3.793207 1_555
Na2_7 Na3_7 3.793204 1_555
Na2_7 Na3_3 3.793204 1_555
Na2_7 Na3_1 3.793207 1_555
Na3_0 Na3_6 3.700382 1_555
Na3_0 Na3_6 3.700382 1_445
Na3_0 Na3_2 3.700383 1_555
Na3_0 Na3_2 3.700383 1_545
Na3_0 Na3_4 3.700384 1_555
Na3_0 Na3_4 3.700384 1_455
Na3_1 Na3_7 3.700382 1_555
Na3_1 Na3_7 3.700382 1_445
Na3_1 Na3_3 3.700383 1_555
Na3_1 Na3_3 3.700383 1_545
Na3_1 Na3_5 3.700384 1_555
Na3_1 Na3_5 3.700384 1_455
Na3_2 Na3_4 3.700382 1_565
Na3_2 Na3_4 3.700382 1_455
Na3_2 Na3_6 3.700384 1_455
Na3_2 Na3_6 3.700384 1_555
Na3_3 Na3_5 3.700382 1_565
Na3_3 Na3_5 3.700382 1_455
Na3_3 Na3_7 3.700384 1_555
Na3_3 Na3_7 3.700384 1_455
Na3_4 Na3_6 3.700383 1_545
Na3_4 Na3_6 3.700383 1_555
Na3_5 Na3_7 3.700383 1_545
Na3_5 Na3_7 3.700383 1_555
