# generated using pymatgen
data_CsDyS2
_symmetry_space_group_name_H-M   'P 1'
_cell_length_a   4.07546189
_cell_length_b   4.07546556
_cell_length_c   16.11753766
_cell_angle_alpha   89.99971478
_cell_angle_beta   89.99964442
_cell_angle_gamma   119.99992339
_symmetry_Int_Tables_number   1
_chemical_formula_structural   CsDyS2
_chemical_formula_sum   'Cs2 Dy2 S4'
_cell_volume   231.83752093
_cell_formula_units_Z   2
loop_
 _symmetry_equiv_pos_site_id
 _symmetry_equiv_pos_as_xyz
  1  'x, y, z'
loop_
 _atom_site_type_symbol
 _atom_site_label
 _atom_site_symmetry_multiplicity
 _atom_site_fract_x
 _atom_site_fract_y
 _atom_site_fract_z
 _atom_site_occupancy
  Cs  Cs0  1  0.66664539  0.33333322  0.75000345  1
  Cs  Cs1  1  0.33331572  0.66666337  0.24999675  1
  Dy  Dy0  1  0.99998074  0.00000076  0.50002577  1
  Dy  Dy1  1  0.99999408  0.99999847  0.99997474  1
  S  S0  1  0.33332744  0.66666605  0.90907829  1
  S  S1  1  0.66665131  0.33333384  0.40915435  1
  S  S2  1  0.66666092  0.33333141  0.09084366  1
  S  S3  1  0.33331740  0.66666688  0.59092399  1
loop_
_geom_bond_atom_site_label_1
_geom_bond_atom_site_label_2
_geom_bond_distance
_geom_bond_site_symmetry_2
Cs0 S0 3.479906 1_555
Cs0 S0 3.479933 1_545
Cs0 S3 3.479990 1_555
Cs0 S3 3.479997 1_655
Cs0 S0 3.480001 1_655
Cs0 S3 3.480018 1_545
Cs1 S2 3.480864 1_565
Cs1 S2 3.480865 1_455
Cs1 S2 3.480899 1_555
Cs1 S1 3.480907 1_455
Cs1 S1 3.480926 1_555
Cs1 S1 3.480956 1_565
Dy0 S1 2.771556 1_555
Dy0 S1 2.771568 1_655
Dy0 S1 2.771583 1_545
Dy0 S3 2.771775 1_545
Dy0 S3 2.771808 1_645
Dy0 S3 2.771809 1_655
Dy1 S2 2.771539 1_556
Dy1 S2 2.771544 1_566
Dy1 S2 2.771561 1_666
Dy1 S0 2.771775 1_665
Dy1 S0 2.771777 1_655
Dy1 S0 2.771794 1_555
