# generated using pymatgen
data_Ba6In2NF
_symmetry_space_group_name_H-M   'P 1'
_cell_length_a   7.97057835
_cell_length_b   7.97057835
_cell_length_c   7.97057835
_cell_angle_alpha   60.00000000
_cell_angle_beta   60.00000000
_cell_angle_gamma   60.00000000
_symmetry_Int_Tables_number   1
_chemical_formula_structural   Ba6In2NF
_chemical_formula_sum   'Ba6 In2 N1 F1'
_cell_volume   358.05892835
_cell_formula_units_Z   1
loop_
 _symmetry_equiv_pos_site_id
 _symmetry_equiv_pos_as_xyz
  1  'x, y, z'
loop_
 _atom_site_type_symbol
 _atom_site_label
 _atom_site_symmetry_multiplicity
 _atom_site_fract_x
 _atom_site_fract_y
 _atom_site_fract_z
 _atom_site_occupancy
  Ba  Ba0  1  0.24169600  0.75830400  0.75830400  1
  Ba  Ba1  1  0.24169600  0.75830400  0.24169600  1
  Ba  Ba2  1  0.75830400  0.24169600  0.75830400  1
  Ba  Ba3  1  0.75830400  0.75830400  0.24169600  1
  Ba  Ba4  1  0.24169600  0.24169600  0.75830400  1
  Ba  Ba5  1  0.75830400  0.24169600  0.24169600  1
  In  In0  1  0.25000000  0.25000000  0.25000000  1
  In  In1  1  0.75000000  0.75000000  0.75000000  1
  N  N0  1  0.00000000  0.00000000  0.00000000  1
  F  F0  1  0.50000000  0.50000000  0.50000000  1
loop_
_geom_bond_atom_site_label_1
_geom_bond_atom_site_label_2
_geom_bond_distance
_geom_bond_site_symmetry_2
Ba0 N0 2.724421 1_566
Ba0 F0 2.911629 1_555
Ba0 In1 3.986388 1_455
Ba0 In1 3.986388 1_555
Ba0 In0 3.986388 1_565
Ba0 In0 3.986388 1_556
Ba1 N0 2.724421 1_565
Ba1 F0 2.911629 1_555
Ba1 In1 3.986388 1_554
Ba1 In1 3.986388 1_455
Ba1 In0 3.986388 1_555
Ba1 In0 3.986388 1_565
Ba2 N0 2.724421 1_656
Ba2 F0 2.911629 1_555
Ba2 In0 3.986388 1_556
Ba2 In1 3.986388 1_555
Ba2 In1 3.986388 1_545
Ba2 In0 3.986388 1_655
Ba3 N0 2.724421 1_665
Ba3 F0 2.911629 1_555
Ba3 In1 3.986388 1_554
Ba3 In1 3.986388 1_555
Ba3 In0 3.986388 1_565
Ba3 In0 3.986388 1_655
Ba4 N0 2.724421 1_556
Ba4 F0 2.911629 1_555
Ba4 In0 3.986388 1_556
Ba4 In0 3.986388 1_555
Ba4 In1 3.986388 1_455
Ba4 In1 3.986388 1_545
Ba5 N0 2.724421 1_655
Ba5 F0 2.911629 1_555
Ba5 In1 3.986388 1_545
Ba5 In0 3.986388 1_655
Ba5 In1 3.986388 1_554
Ba5 In0 3.986388 1_555
