# generated using pymatgen
data_NaTm
_symmetry_space_group_name_H-M   'P 1'
_cell_length_a   6.86544321
_cell_length_b   6.86544321
_cell_length_c   12.43919600
_cell_angle_alpha   90.00000000
_cell_angle_beta   90.00000000
_cell_angle_gamma   119.99999239
_symmetry_Int_Tables_number   1
_chemical_formula_structural   NaTm
_chemical_formula_sum   'Na8 Tm8'
_cell_volume   507.76192765
_cell_formula_units_Z   8
loop_
 _symmetry_equiv_pos_site_id
 _symmetry_equiv_pos_as_xyz
  1  'x, y, z'
loop_
 _atom_site_type_symbol
 _atom_site_label
 _atom_site_symmetry_multiplicity
 _atom_site_fract_x
 _atom_site_fract_y
 _atom_site_fract_z
 _atom_site_occupancy
  Na  Na0_0  1  0.16666650  0.33333350  0.25000000  1
  Na  Na0_1  1  0.16666650  0.33333350  0.75000000  1
  Na  Na0_2  1  0.16666650  0.83333350  0.25000000  1
  Na  Na0_3  1  0.16666650  0.83333350  0.75000000  1
  Na  Na0_4  1  0.66666650  0.33333350  0.25000000  1
  Na  Na0_5  1  0.66666650  0.33333350  0.75000000  1
  Na  Na0_6  1  0.66666650  0.83333350  0.25000000  1
  Na  Na0_7  1  0.66666650  0.83333350  0.75000000  1
  Tm  Tm0_0  1  0.00000000  0.00000000  0.00000000  1
  Tm  Tm0_1  1  0.00000000  0.00000000  0.50000000  1
  Tm  Tm0_2  1  0.00000000  0.50000000  0.00000000  1
  Tm  Tm0_3  1  0.00000000  0.50000000  0.50000000  1
  Tm  Tm0_4  1  0.50000000  0.00000000  0.00000000  1
  Tm  Tm0_5  1  0.50000000  0.00000000  0.50000000  1
  Tm  Tm0_6  1  0.50000000  0.50000000  0.00000000  1
  Tm  Tm0_7  1  0.50000000  0.50000000  0.50000000  1
loop_
_geom_bond_atom_site_label_1
_geom_bond_atom_site_label_2
_geom_bond_distance
_geom_bond_site_symmetry_2
Na0_0 Na0_4 3.432722 1_455
Na0_0 Na0_2 3.432722 1_545
Na0_0 Na0_4 3.432722 1_555
Na0_0 Na0_2 3.432722 1_555
Na0_0 Na0_6 3.432722 1_555
Na0_0 Na0_6 3.432722 1_445
Na0_0 Tm0_2 3.687642 1_555
Na0_0 Tm0_3 3.687642 1_555
Na0_0 Tm0_6 3.687643 1_555
Na0_0 Tm0_7 3.687643 1_555
Na0_0 Tm0_1 3.687643 1_555
Na0_0 Tm0_0 3.687643 1_555
Na0_1 Na0_3 3.432722 1_545
Na0_1 Na0_5 3.432722 1_455
Na0_1 Na0_5 3.432722 1_555
Na0_1 Na0_3 3.432722 1_555
Na0_1 Na0_7 3.432722 1_555
Na0_1 Na0_7 3.432722 1_445
Na0_1 Tm0_3 3.687642 1_555
Na0_1 Tm0_2 3.687642 1_556
Na0_1 Tm0_6 3.687643 1_556
Na0_1 Tm0_7 3.687643 1_555
Na0_1 Tm0_0 3.687643 1_556
Na0_1 Tm0_1 3.687643 1_555
Na0_2 Na0_6 3.432722 1_555
Na0_2 Na0_6 3.432722 1_455
Na0_2 Na0_4 3.432722 1_565
Na0_2 Na0_4 3.432722 1_455
Na0_2 Tm0_1 3.687642 1_565
Na0_2 Tm0_0 3.687642 1_565
Na0_2 Tm0_5 3.687643 1_565
Na0_2 Tm0_2 3.687643 1_555
Na0_2 Tm0_3 3.687643 1_555
Na0_2 Tm0_4 3.687643 1_565
Na0_3 Na0_7 3.432722 1_555
Na0_3 Na0_7 3.432722 1_455
Na0_3 Na0_5 3.432722 1_565
Na0_3 Na0_5 3.432722 1_455
Na0_3 Tm0_1 3.687642 1_565
Na0_3 Tm0_0 3.687642 1_566
Na0_3 Tm0_5 3.687643 1_565
Na0_3 Tm0_2 3.687643 1_556
Na0_3 Tm0_4 3.687643 1_566
Na0_3 Tm0_3 3.687643 1_555
Na0_4 Na0_6 3.432722 1_545
Na0_4 Na0_6 3.432722 1_555
Na0_4 Tm0_6 3.687642 1_555
Na0_4 Tm0_7 3.687642 1_555
Na0_4 Tm0_2 3.687643 1_655
Na0_4 Tm0_5 3.687643 1_555
Na0_4 Tm0_3 3.687643 1_655
Na0_4 Tm0_4 3.687643 1_555
Na0_5 Na0_7 3.432722 1_545
Na0_5 Na0_7 3.432722 1_555
Na0_5 Tm0_7 3.687642 1_555
Na0_5 Tm0_6 3.687642 1_556
Na0_5 Tm0_2 3.687643 1_656
Na0_5 Tm0_4 3.687643 1_556
Na0_5 Tm0_5 3.687643 1_555
Na0_5 Tm0_3 3.687643 1_655
Na0_6 Tm0_4 3.687642 1_565
Na0_6 Tm0_5 3.687642 1_565
Na0_6 Tm0_7 3.687643 1_555
Na0_6 Tm0_6 3.687643 1_555
Na0_6 Tm0_0 3.687643 1_665
Na0_6 Tm0_1 3.687643 1_665
Na0_7 Tm0_4 3.687642 1_566
Na0_7 Tm0_5 3.687642 1_565
Na0_7 Tm0_6 3.687643 1_556
Na0_7 Tm0_7 3.687643 1_555
Na0_7 Tm0_0 3.687643 1_666
Na0_7 Tm0_1 3.687643 1_665
Tm0_0 Tm0_4 3.432722 1_555
Tm0_0 Tm0_2 3.432722 1_555
Tm0_0 Tm0_2 3.432722 1_545
Tm0_0 Tm0_4 3.432722 1_455
Tm0_0 Tm0_6 3.432722 1_445
Tm0_0 Tm0_6 3.432722 1_555
Tm0_1 Tm0_3 3.432722 1_555
Tm0_1 Tm0_5 3.432722 1_455
Tm0_1 Tm0_3 3.432722 1_545
Tm0_1 Tm0_5 3.432722 1_555
Tm0_1 Tm0_7 3.432722 1_555
Tm0_1 Tm0_7 3.432722 1_445
Tm0_2 Tm0_6 3.432722 1_555
Tm0_2 Tm0_6 3.432722 1_455
Tm0_2 Tm0_4 3.432722 1_455
Tm0_2 Tm0_4 3.432722 1_565
Tm0_3 Tm0_7 3.432722 1_555
Tm0_3 Tm0_7 3.432722 1_455
Tm0_3 Tm0_5 3.432722 1_455
Tm0_3 Tm0_5 3.432722 1_565
Tm0_4 Tm0_6 3.432722 1_545
Tm0_4 Tm0_6 3.432722 1_555
Tm0_5 Tm0_7 3.432722 1_545
Tm0_5 Tm0_7 3.432722 1_555
