# generated using pymatgen
data_PrEr3
_symmetry_space_group_name_H-M   'P 1'
_cell_length_a   6.13400974
_cell_length_b   6.13400974
_cell_length_c   6.13400974
_cell_angle_alpha   131.20582796
_cell_angle_beta   131.20582796
_cell_angle_gamma   71.48626500
_symmetry_Int_Tables_number   1
_chemical_formula_structural   PrEr3
_chemical_formula_sum   'Pr1 Er3'
_cell_volume   127.84427188
_cell_formula_units_Z   1
loop_
 _symmetry_equiv_pos_site_id
 _symmetry_equiv_pos_as_xyz
  1  'x, y, z'
loop_
 _atom_site_type_symbol
 _atom_site_label
 _atom_site_symmetry_multiplicity
 _atom_site_fract_x
 _atom_site_fract_y
 _atom_site_fract_z
 _atom_site_occupancy
  Pr  Pr0  1  -0.00000000  -0.00000000  -0.00000000  1
  Er  Er0  1  0.75000100  0.25000000  0.50000100  1
  Er  Er1  1  0.25000000  0.75000100  0.50000100  1
  Er  Er2  1  0.50000000  0.50000000  -0.00000000  1
loop_
_geom_bond_atom_site_label_1
_geom_bond_atom_site_label_2
_geom_bond_distance
_geom_bond_site_symmetry_2
Er0 Pr0 3.551946 1_656
Er0 Er2 3.551946 1_656
Er0 Er2 3.551949 1_556
Er0 Er2 3.551949 1_545
Er0 Pr0 3.551949 1_666
Er0 Pr0 3.551949 1_655
Er0 Pr0 3.551953 1_555
Er0 Er2 3.551953 1_555
Er0 Er1 3.583189 1_645
Er0 Er1 3.583196 1_656
Er0 Er1 3.583196 1_544
Er0 Er1 3.583204 1_555
Er1 Pr0 3.551946 1_566
Er1 Er2 3.551946 1_566
Er1 Er2 3.551949 1_556
Er1 Er2 3.551949 1_455
Er1 Pr0 3.551949 1_666
Er1 Pr0 3.551949 1_565
Er1 Pr0 3.551953 1_555
Er1 Er2 3.551953 1_555
Er2 Pr0 3.583196 1_655
Er2 Pr0 3.583196 1_565
Er2 Pr0 3.583196 1_666
Er2 Pr0 3.583196 1_554
