# generated using pymatgen
data_KTm
_symmetry_space_group_name_H-M   'P 1'
_cell_length_a   7.19325289
_cell_length_b   7.19325289
_cell_length_c   14.32907800
_cell_angle_alpha   90.00000000
_cell_angle_beta   90.00000000
_cell_angle_gamma   120.00000822
_symmetry_Int_Tables_number   1
_chemical_formula_structural   KTm
_chemical_formula_sum   'K8 Tm8'
_cell_volume   642.09531433
_cell_formula_units_Z   8
loop_
 _symmetry_equiv_pos_site_id
 _symmetry_equiv_pos_as_xyz
  1  'x, y, z'
loop_
 _atom_site_type_symbol
 _atom_site_label
 _atom_site_symmetry_multiplicity
 _atom_site_fract_x
 _atom_site_fract_y
 _atom_site_fract_z
 _atom_site_occupancy
  K  K0_0  1  0.33333350  0.16666650  0.25000000  1
  K  K0_1  1  0.33333350  0.16666650  0.75000000  1
  K  K0_2  1  0.33333350  0.66666650  0.25000000  1
  K  K0_3  1  0.33333350  0.66666650  0.75000000  1
  K  K0_4  1  0.83333350  0.16666650  0.25000000  1
  K  K0_5  1  0.83333350  0.16666650  0.75000000  1
  K  K0_6  1  0.83333350  0.66666650  0.25000000  1
  K  K0_7  1  0.83333350  0.66666650  0.75000000  1
  Tm  Tm0_0  1  0.16666650  0.33333350  0.00000000  1
  Tm  Tm0_1  1  0.16666650  0.33333350  0.50000000  1
  Tm  Tm0_2  1  0.16666650  0.83333350  0.00000000  1
  Tm  Tm0_3  1  0.16666650  0.83333350  0.50000000  1
  Tm  Tm0_4  1  0.66666650  0.33333350  0.00000000  1
  Tm  Tm0_5  1  0.66666650  0.33333350  0.50000000  1
  Tm  Tm0_6  1  0.66666650  0.83333350  0.00000000  1
  Tm  Tm0_7  1  0.66666650  0.83333350  0.50000000  1
loop_
_geom_bond_atom_site_label_1
_geom_bond_atom_site_label_2
_geom_bond_distance
_geom_bond_site_symmetry_2
K0_0 K0_6 3.596626 1_555
K0_0 K0_6 3.596626 1_445
K0_0 K0_4 3.596626 1_555
K0_0 K0_2 3.596626 1_555
K0_0 K0_2 3.596626 1_545
K0_0 K0_4 3.596626 1_455
K0_0 Tm0_5 4.140598 1_555
K0_0 Tm0_2 4.140598 1_545
K0_0 Tm0_3 4.140598 1_545
K0_0 Tm0_4 4.140598 1_555
K0_0 Tm0_1 4.140601 1_555
K0_0 Tm0_0 4.140601 1_555
K0_1 K0_7 3.596626 1_555
K0_1 K0_7 3.596626 1_445
K0_1 K0_5 3.596626 1_555
K0_1 K0_3 3.596626 1_555
K0_1 K0_5 3.596626 1_455
K0_1 K0_3 3.596626 1_545
K0_1 Tm0_5 4.140598 1_555
K0_1 Tm0_3 4.140598 1_545
K0_1 Tm0_4 4.140598 1_556
K0_1 Tm0_2 4.140598 1_546
K0_1 Tm0_1 4.140601 1_555
K0_1 Tm0_0 4.140601 1_556
K0_2 K0_4 3.596626 1_455
K0_2 K0_4 3.596626 1_565
K0_2 K0_6 3.596626 1_555
K0_2 K0_6 3.596626 1_455
K0_2 Tm0_6 4.140598 1_555
K0_2 Tm0_1 4.140598 1_555
K0_2 Tm0_0 4.140598 1_555
K0_2 Tm0_7 4.140598 1_555
K0_2 Tm0_2 4.140601 1_555
K0_2 Tm0_3 4.140601 1_555
K0_3 K0_5 3.596626 1_565
K0_3 K0_5 3.596626 1_455
K0_3 K0_7 3.596626 1_555
K0_3 K0_7 3.596626 1_455
K0_3 Tm0_1 4.140598 1_555
K0_3 Tm0_7 4.140598 1_555
K0_3 Tm0_6 4.140598 1_556
K0_3 Tm0_0 4.140598 1_556
K0_3 Tm0_3 4.140601 1_555
K0_3 Tm0_2 4.140601 1_556
K0_4 K0_6 3.596626 1_555
K0_4 K0_6 3.596626 1_545
K0_4 Tm0_6 4.140598 1_545
K0_4 Tm0_7 4.140598 1_545
K0_4 Tm0_0 4.140598 1_655
K0_4 Tm0_1 4.140598 1_655
K0_4 Tm0_5 4.140601 1_555
K0_4 Tm0_4 4.140601 1_555
K0_5 K0_7 3.596626 1_545
K0_5 K0_7 3.596626 1_555
K0_5 Tm0_7 4.140598 1_545
K0_5 Tm0_1 4.140598 1_655
K0_5 Tm0_0 4.140598 1_656
K0_5 Tm0_6 4.140598 1_546
K0_5 Tm0_5 4.140601 1_555
K0_5 Tm0_4 4.140601 1_556
K0_6 Tm0_5 4.140598 1_555
K0_6 Tm0_4 4.140598 1_555
K0_6 Tm0_3 4.140598 1_655
K0_6 Tm0_2 4.140598 1_655
K0_6 Tm0_7 4.140601 1_555
K0_6 Tm0_6 4.140601 1_555
K0_7 Tm0_3 4.140598 1_655
K0_7 Tm0_5 4.140598 1_555
K0_7 Tm0_2 4.140598 1_656
K0_7 Tm0_4 4.140598 1_556
K0_7 Tm0_7 4.140601 1_555
K0_7 Tm0_6 4.140601 1_556
Tm0_0 Tm0_6 3.596626 1_555
Tm0_0 Tm0_6 3.596626 1_445
Tm0_0 Tm0_4 3.596626 1_555
Tm0_0 Tm0_2 3.596626 1_555
Tm0_0 Tm0_2 3.596626 1_545
Tm0_0 Tm0_4 3.596626 1_455
Tm0_1 Tm0_7 3.596626 1_555
Tm0_1 Tm0_7 3.596626 1_445
Tm0_1 Tm0_5 3.596626 1_555
Tm0_1 Tm0_3 3.596626 1_545
Tm0_1 Tm0_3 3.596626 1_555
Tm0_1 Tm0_5 3.596626 1_455
Tm0_2 Tm0_4 3.596626 1_565
Tm0_2 Tm0_4 3.596626 1_455
Tm0_2 Tm0_6 3.596626 1_455
Tm0_2 Tm0_6 3.596626 1_555
Tm0_3 Tm0_5 3.596626 1_565
Tm0_3 Tm0_5 3.596626 1_455
Tm0_3 Tm0_7 3.596626 1_455
Tm0_3 Tm0_7 3.596626 1_555
Tm0_4 Tm0_6 3.596626 1_555
Tm0_4 Tm0_6 3.596626 1_545
Tm0_5 Tm0_7 3.596626 1_555
Tm0_5 Tm0_7 3.596626 1_545
