# generated using pymatgen
data_CsNa7Ta8O24
_symmetry_space_group_name_H-M   'P 1'
_cell_length_a   8.00338400
_cell_length_b   8.00338400
_cell_length_c   8.00338400
_cell_angle_alpha   90.00000000
_cell_angle_beta   90.00000000
_cell_angle_gamma   90.00000000
_symmetry_Int_Tables_number   1
_chemical_formula_structural   CsNa7Ta8O24
_chemical_formula_sum   'Cs1 Na7 Ta8 O24'
_cell_volume   512.65000287
_cell_formula_units_Z   1
loop_
 _symmetry_equiv_pos_site_id
 _symmetry_equiv_pos_as_xyz
  1  'x, y, z'
loop_
 _atom_site_type_symbol
 _atom_site_label
 _atom_site_symmetry_multiplicity
 _atom_site_fract_x
 _atom_site_fract_y
 _atom_site_fract_z
 _atom_site_occupancy
  Cs  Cs0  1  0.00000000  0.00000000  0.00000000  1
  Na  Na0  1  0.00000000  0.00000000  0.50000000  1
  Na  Na1  1  0.00000000  0.50000000  0.00000000  1
  Na  Na2  1  0.00000000  0.50000000  0.50000000  1
  Na  Na3  1  0.50000000  0.00000000  0.00000000  1
  Na  Na4  1  0.50000000  0.00000000  0.50000000  1
  Na  Na5  1  0.50000000  0.50000000  0.00000000  1
  Na  Na6  1  0.50000000  0.50000000  0.50000000  1
  Ta  Ta0  1  0.25186000  0.25186000  0.25186000  1
  Ta  Ta1  1  0.25186000  0.25186000  0.74814000  1
  Ta  Ta2  1  0.25186000  0.74814000  0.25186000  1
  Ta  Ta3  1  0.25186000  0.74814000  0.74814000  1
  Ta  Ta4  1  0.74814000  0.25186000  0.25186000  1
  Ta  Ta5  1  0.74814000  0.25186000  0.74814000  1
  Ta  Ta6  1  0.74814000  0.74814000  0.25186000  1
  Ta  Ta7  1  0.74814000  0.74814000  0.74814000  1
  O  O0  1  0.25700400  0.00000000  0.25700400  1
  O  O1  1  0.25700400  0.00000000  0.74299600  1
  O  O2  1  0.25203200  0.50000000  0.25203200  1
  O  O3  1  0.25203200  0.50000000  0.74796800  1
  O  O4  1  0.74299600  0.00000000  0.25700400  1
  O  O5  1  0.74299600  0.00000000  0.74299600  1
  O  O6  1  0.74796800  0.50000000  0.25203200  1
  O  O7  1  0.74796800  0.50000000  0.74796800  1
  O  O8  1  0.00000000  0.25700400  0.25700400  1
  O  O9  1  0.00000000  0.25700400  0.74299600  1
  O  O10  1  0.00000000  0.74299600  0.25700400  1
  O  O11  1  0.00000000  0.74299600  0.74299600  1
  O  O12  1  0.50000000  0.25203200  0.25203200  1
  O  O13  1  0.50000000  0.25203200  0.74796800  1
  O  O14  1  0.50000000  0.74796800  0.25203200  1
  O  O15  1  0.50000000  0.74796800  0.74796800  1
  O  O16  1  0.25700400  0.25700400  0.00000000  1
  O  O17  1  0.25203200  0.25203200  0.50000000  1
  O  O18  1  0.25700400  0.74299600  0.00000000  1
  O  O19  1  0.25203200  0.74796800  0.50000000  1
  O  O20  1  0.74299600  0.25700400  0.00000000  1
  O  O21  1  0.74796800  0.25203200  0.50000000  1
  O  O22  1  0.74299600  0.74299600  0.00000000  1
  O  O23  1  0.74796800  0.74796800  0.50000000  1
loop_
_geom_bond_atom_site_label_1
_geom_bond_atom_site_label_2
_geom_bond_distance
_geom_bond_site_symmetry_2
Cs0 O8 2.908898 1_555
Cs0 O0 2.908898 1_555
Cs0 O4 2.908898 1_455
Cs0 O16 2.908898 1_555
Cs0 O10 2.908898 1_545
Cs0 O1 2.908898 1_554
Cs0 O20 2.908898 1_455
Cs0 O18 2.908898 1_545
Cs0 O22 2.908898 1_445
Cs0 O11 2.908898 1_544
Cs0 O9 2.908898 1_554
Cs0 O5 2.908898 1_454
Na0 O0 2.830734 1_555
Na0 O9 2.830734 1_555
Na0 O4 2.830734 1_455
Na0 O11 2.830734 1_545
Na0 O1 2.830734 1_555
Na0 O8 2.830734 1_555
Na0 O5 2.830734 1_455
Na0 O10 2.830734 1_545
Na0 O17 2.852623 1_555
Na0 O21 2.852623 1_455
Na0 O19 2.852623 1_545
Na0 O23 2.852623 1_445
Na1 O10 2.830734 1_555
Na1 O22 2.830734 1_455
Na1 O16 2.830734 1_555
Na1 O20 2.830734 1_455
Na1 O11 2.830734 1_554
Na1 O8 2.830734 1_555
Na1 O9 2.830734 1_554
Na1 O18 2.830734 1_555
Na1 O2 2.852623 1_555
Na1 O6 2.852623 1_455
Na1 O3 2.852623 1_554
Na1 O7 2.852623 1_454
Na2 O11 2.750349 1_555
Na2 O8 2.750349 1_555
Na2 O10 2.750349 1_555
Na2 O9 2.750349 1_555
Na2 O3 2.829717 1_555
Na2 O19 2.829717 1_555
Na2 O21 2.829717 1_455
Na2 O7 2.829717 1_455
Na2 O23 2.829717 1_455
Na2 O2 2.829717 1_555
Na2 O17 2.829717 1_555
Na2 O6 2.829717 1_455
Na3 O0 2.830734 1_555
Na3 O16 2.830734 1_555
Na3 O1 2.830734 1_554
Na3 O20 2.830734 1_555
Na3 O18 2.830734 1_545
Na3 O5 2.830734 1_554
Na3 O22 2.830734 1_545
Na3 O4 2.830734 1_555
Na3 O12 2.852623 1_555
Na3 O14 2.852623 1_545
Na3 O13 2.852623 1_554
Na3 O15 2.852623 1_544
Na4 O4 2.750349 1_555
Na4 O1 2.750349 1_555
Na4 O5 2.750349 1_555
Na4 O0 2.750349 1_555
Na4 O13 2.829717 1_555
Na4 O23 2.829717 1_545
Na4 O14 2.829717 1_545
Na4 O12 2.829717 1_555
Na4 O17 2.829717 1_555
Na4 O15 2.829717 1_545
Na4 O21 2.829717 1_555
Na4 O19 2.829717 1_545
Na5 O18 2.750349 1_555
Na5 O22 2.750349 1_555
Na5 O16 2.750349 1_555
Na5 O20 2.750349 1_555
Na5 O14 2.829717 1_555
Na5 O6 2.829717 1_555
Na5 O12 2.829717 1_555
Na5 O7 2.829717 1_554
Na5 O2 2.829717 1_555
Na5 O15 2.829717 1_554
Na5 O3 2.829717 1_554
Na5 O13 2.829717 1_554
Na6 O15 2.806624 1_555
Na6 O7 2.806624 1_555
Na6 O23 2.806624 1_555
Na6 O3 2.806624 1_555
Na6 O2 2.806624 1_555
Na6 O17 2.806624 1_555
Na6 O21 2.806624 1_555
Na6 O12 2.806624 1_555
Na6 O14 2.806624 1_555
Na6 O6 2.806624 1_555
Na6 O13 2.806624 1_555
Na6 O19 2.806624 1_555
O0 Ta2 2.016573 1_545
O0 Ta0 2.016573 1_555
O1 Ta3 2.016573 1_545
O1 Ta1 2.016573 1_555
O2 Ta2 1.985961 1_555
O2 Ta0 1.985961 1_555
O3 Ta3 1.985961 1_555
O3 Ta1 1.985961 1_555
O4 Ta6 2.016573 1_545
O4 Ta4 2.016573 1_555
O5 Ta5 2.016573 1_555
O5 Ta7 2.016573 1_545
O6 Ta4 1.985961 1_555
O6 Ta6 1.985961 1_555
O7 Ta7 1.985961 1_555
O7 Ta5 1.985961 1_555
O8 Ta0 2.016573 1_555
O8 Ta4 2.016573 1_455
O9 Ta1 2.016573 1_555
O9 Ta5 2.016573 1_455
O10 Ta2 2.016573 1_555
O10 Ta6 2.016573 1_455
O11 Ta7 2.016573 1_455
O11 Ta3 2.016573 1_555
O12 Ta4 1.985961 1_555
O12 Ta0 1.985961 1_555
O13 Ta1 1.985961 1_555
O13 Ta5 1.985961 1_555
O14 Ta2 1.985961 1_555
O14 Ta6 1.985961 1_555
O15 Ta3 1.985961 1_555
O15 Ta7 1.985961 1_555
O16 Ta0 2.016573 1_555
O16 Ta1 2.016573 1_554
O17 Ta1 1.985961 1_555
O17 Ta0 1.985961 1_555
O18 Ta2 2.016573 1_555
O18 Ta3 2.016573 1_554
O19 Ta3 1.985961 1_555
O19 Ta2 1.985961 1_555
O20 Ta5 2.016573 1_554
O20 Ta4 2.016573 1_555
O21 Ta4 1.985961 1_555
O21 Ta5 1.985961 1_555
O22 Ta6 2.016573 1_555
O22 Ta7 2.016573 1_554
O23 Ta7 1.985961 1_555
O23 Ta6 1.985961 1_555
