# generated using pymatgen
data_RuF4
_symmetry_space_group_name_H-M   'P 1'
_cell_length_a   5.57180308
_cell_length_b   4.95058554
_cell_length_c   5.37187397
_cell_angle_alpha   90.00240091
_cell_angle_beta   121.11005348
_cell_angle_gamma   89.99855689
_symmetry_Int_Tables_number   1
_chemical_formula_structural   RuF4
_chemical_formula_sum   'Ru2 F8'
_cell_volume   126.86488030
_cell_formula_units_Z   2
loop_
 _symmetry_equiv_pos_site_id
 _symmetry_equiv_pos_as_xyz
  1  'x, y, z'
loop_
 _atom_site_type_symbol
 _atom_site_label
 _atom_site_symmetry_multiplicity
 _atom_site_fract_x
 _atom_site_fract_y
 _atom_site_fract_z
 _atom_site_occupancy
  Ru  Ru0  1  0.00001550  -0.00001842  0.00008743  1
  Ru  Ru1  1  0.50001414  0.50002860  0.50007275  1
  F  F0  1  0.12482261  0.66719726  0.24294462  1
  F  F1  1  0.61956091  0.64468778  0.26767885  1
  F  F2  1  0.88033312  0.14490727  0.23232199  1
  F  F3  1  0.37528300  0.16765057  0.25696066  1
  F  F4  1  0.62483074  0.83278423  0.74294052  1
  F  F5  1  0.11956875  0.85532332  0.76768849  1
  F  F6  1  0.38030214  0.35506692  0.73235444  1
  F  F7  1  0.87526810  0.33236947  0.75694925  1
loop_
_geom_bond_atom_site_label_1
_geom_bond_atom_site_label_2
_geom_bond_distance
_geom_bond_site_symmetry_2
F0 Ru0 1.990571 1_565
F0 Ru1 1.994763 1_555
F1 Ru1 1.836957 1_555
F2 Ru0 1.837215 1_655
F3 Ru1 1.989492 1_555
F3 Ru0 1.995874 1_555
F4 Ru1 1.990419 1_555
F4 Ru0 1.994807 1_666
F5 Ru0 1.836951 1_566
F6 Ru1 1.837676 1_555
F7 Ru0 1.989661 1_656
F7 Ru1 1.995808 1_555
