# generated using pymatgen
data_U2Si4W3
_symmetry_space_group_name_H-M   'P 1'
_cell_length_a   6.90673499
_cell_length_b   6.72892499
_cell_length_c   6.87591011
_cell_angle_alpha   70.50860958
_cell_angle_beta   90.00000000
_cell_angle_gamma   90.00000000
_symmetry_Int_Tables_number   1
_chemical_formula_structural   U2Si4W3
_chemical_formula_sum   'U4 Si8 W6'
_cell_volume   301.24394450
_cell_formula_units_Z   2
loop_
 _symmetry_equiv_pos_site_id
 _symmetry_equiv_pos_as_xyz
  1  'x, y, z'
loop_
 _atom_site_type_symbol
 _atom_site_label
 _atom_site_symmetry_multiplicity
 _atom_site_fract_x
 _atom_site_fract_y
 _atom_site_fract_z
 _atom_site_occupancy
  U  U0  1  0.66558615  0.44189971  0.18792926  1
  U  U1  1  0.16558615  0.05810029  0.81207074  1
  U  U2  1  0.33441385  0.55810029  0.81207074  1
  U  U3  1  0.83441385  0.94189971  0.18792926  1
  Si  Si0  1  0.86706829  0.13118038  0.50193433  1
  Si  Si1  1  0.36706829  0.36881962  0.49806567  1
  Si  Si2  1  0.13293171  0.86881962  0.49806567  1
  Si  Si3  1  0.63293171  0.63118038  0.50193433  1
  Si  Si4  1  0.54325784  0.87080519  0.90974441  1
  Si  Si5  1  0.04325784  0.62919481  0.09025559  1
  Si  Si6  1  0.95674216  0.37080519  0.90974441  1
  Si  Si7  1  0.45674216  0.12919481  0.09025559  1
  W  W0  1  0.66373115  0.25298884  0.75496475  1
  W  W1  1  0.16373115  0.24701116  0.24503525  1
  W  W2  1  0.50000000  -0.00000000  0.50000000  1
  W  W3  1  -0.00000000  0.50000000  0.50000000  1
  W  W4  1  0.33626885  0.74701116  0.24503525  1
  W  W5  1  0.83626885  0.75298884  0.75496475  1
loop_
_geom_bond_atom_site_label_1
_geom_bond_atom_site_label_2
_geom_bond_distance
_geom_bond_site_symmetry_2
U0 W4 3.175002 1_555
U0 W5 3.236605 1_554
U0 W2 3.239779 1_555
U0 W3 3.263701 1_655
U1 W5 3.175002 1_445
U1 W4 3.236605 1_546
U1 W3 3.239779 1_555
U1 W2 3.263701 1_555
U2 W0 3.175002 1_555
U2 W1 3.236605 1_556
U2 W2 3.239779 1_565
U2 W3 3.263701 1_555
U3 W1 3.175002 1_665
U3 W0 3.236605 1_564
U3 W3 3.239779 1_655
U3 W2 3.263701 1_565
Si0 Si2 2.553529 1_645
Si0 W5 2.567822 1_545
Si0 W0 2.573464 1_555
Si0 W3 2.642013 1_655
Si0 W1 2.647118 1_655
Si0 W2 2.686007 1_555
Si0 U0 2.820834 1_555
Si0 U3 2.858278 1_545
Si0 U1 2.887976 1_655
Si1 Si3 2.553529 1_555
Si1 W4 2.567822 1_555
Si1 W1 2.573464 1_555
Si1 W2 2.642013 1_555
Si1 W0 2.647118 1_555
Si1 W3 2.686007 1_555
Si1 U1 2.820834 1_555
Si1 U2 2.858278 1_555
Si1 U0 2.887976 1_555
Si2 W1 2.567822 1_565
Si2 W4 2.573464 1_555
Si2 W3 2.642013 1_555
Si2 W5 2.647118 1_455
Si2 W2 2.686007 1_565
Si2 U2 2.820834 1_555
Si2 U1 2.858278 1_565
Si2 U3 2.887976 1_455
Si3 W0 2.567822 1_555
Si3 W5 2.573464 1_555
Si3 W2 2.642013 1_565
Si3 W4 2.647118 1_555
Si3 W3 2.686007 1_655
Si3 U3 2.820834 1_555
Si3 U0 2.858278 1_555
Si3 U2 2.887976 1_555
Si4 Si7 2.522046 1_566
Si4 W5 2.533717 1_555
Si4 W0 2.571404 1_565
Si4 W4 2.602143 1_556
Si4 W2 2.673594 1_565
Si4 U2 2.811086 1_555
Si4 U1 2.877274 1_565
Si4 U3 2.922682 1_556
Si4 U0 3.003003 1_556
Si5 Si6 2.522046 1_454
Si5 W4 2.533717 1_555
Si5 W1 2.571404 1_555
Si5 W5 2.602143 1_454
Si5 W3 2.673594 1_555
Si5 U3 2.811086 1_455
Si5 U0 2.877274 1_455
Si5 U2 2.922682 1_554
Si5 U1 3.003003 1_564
Si6 W0 2.533717 1_555
Si6 W5 2.571404 1_555
Si6 W1 2.602143 1_656
Si6 W3 2.673594 1_655
Si6 U1 2.811086 1_655
Si6 U2 2.877274 1_655
Si6 U0 2.922682 1_556
Si6 U3 3.003003 1_546
Si7 W1 2.533717 1_555
Si7 W4 2.571404 1_545
Si7 W0 2.602143 1_554
Si7 W2 2.673594 1_555
Si7 U0 2.811086 1_555
Si7 U3 2.877274 1_545
Si7 U1 2.922682 1_554
Si7 U2 3.003003 1_554
