# generated using pymatgen
data_Sr3Tm
_symmetry_space_group_name_H-M   'P 1'
_cell_length_a   8.04819360
_cell_length_b   8.04819360
_cell_length_c   6.57836700
_cell_angle_alpha   90.00000000
_cell_angle_beta   90.00000000
_cell_angle_gamma   119.99999674
_symmetry_Int_Tables_number   1
_chemical_formula_structural   Sr3Tm
_chemical_formula_sum   'Sr6 Tm2'
_cell_volume   369.01632088
_cell_formula_units_Z   2
loop_
 _symmetry_equiv_pos_site_id
 _symmetry_equiv_pos_as_xyz
  1  'x, y, z'
loop_
 _atom_site_type_symbol
 _atom_site_label
 _atom_site_symmetry_multiplicity
 _atom_site_fract_x
 _atom_site_fract_y
 _atom_site_fract_z
 _atom_site_occupancy
  Sr  Sr0  1  0.17183600  0.34367200  0.25000000  1
  Sr  Sr1  1  0.65632800  0.82816400  0.25000000  1
  Sr  Sr2  1  0.17183600  0.82816400  0.25000000  1
  Sr  Sr3  1  0.82816400  0.65632800  0.75000000  1
  Sr  Sr4  1  0.34367200  0.17183600  0.75000000  1
  Sr  Sr5  1  0.82816400  0.17183600  0.75000000  1
  Tm  Tm0  1  0.33333300  0.66666700  0.75000000  1
  Tm  Tm1  1  0.66666700  0.33333300  0.25000000  1
loop_
_geom_bond_atom_site_label_1
_geom_bond_atom_site_label_2
_geom_bond_distance
_geom_bond_site_symmetry_2
Sr0 Sr2 3.899285 1_555
Sr0 Sr1 3.899286 1_555
Sr0 Tm0 3.985835 1_554
Sr0 Tm0 3.985835 1_555
Sr0 Tm1 4.024738 1_455
Sr0 Tm1 4.024746 1_555
Sr0 Sr4 4.068973 1_555
Sr0 Sr4 4.068973 1_554
Sr0 Sr5 4.068973 1_455
Sr0 Sr5 4.068973 1_454
Sr0 Sr2 4.148908 1_545
Sr0 Sr1 4.148908 1_445
Sr1 Sr2 3.899285 1_555
Sr1 Tm0 3.985835 1_554
Sr1 Tm0 3.985835 1_555
Sr1 Tm1 4.024738 1_565
Sr1 Tm1 4.024746 1_555
Sr1 Sr3 4.068973 1_555
Sr1 Sr3 4.068973 1_554
Sr1 Sr5 4.068973 1_564
Sr1 Sr5 4.068973 1_565
Sr1 Sr2 4.148908 1_655
Sr2 Tm0 3.985831 1_554
Sr2 Tm0 3.985831 1_555
Sr2 Tm1 4.024742 1_455
Sr2 Tm1 4.024742 1_565
Sr2 Sr4 4.068973 1_565
Sr2 Sr4 4.068973 1_564
Sr2 Sr3 4.068973 1_455
Sr2 Sr3 4.068973 1_454
Sr3 Sr5 3.899285 1_555
Sr3 Sr4 3.899286 1_555
Sr3 Tm1 3.985835 1_556
Sr3 Tm1 3.985835 1_555
Sr3 Tm0 4.024738 1_655
Sr3 Tm0 4.024746 1_555
Sr3 Sr5 4.148908 1_565
Sr3 Sr4 4.148908 1_665
Sr4 Sr5 3.899285 1_555
Sr4 Tm1 3.985835 1_556
Sr4 Tm1 3.985835 1_555
Sr4 Tm0 4.024738 1_545
Sr4 Tm0 4.024746 1_555
Sr4 Sr5 4.148908 1_455
Sr5 Tm1 3.985831 1_555
Sr5 Tm1 3.985831 1_556
Sr5 Tm0 4.024742 1_545
Sr5 Tm0 4.024742 1_655
