# generated using pymatgen
data_Ag8GeS6
_symmetry_space_group_name_H-M   'P 1'
_cell_length_a   7.49334839
_cell_length_b   10.62364144
_cell_length_c   15.16898778
_cell_angle_alpha   90.00000000
_cell_angle_beta   90.00000000
_cell_angle_gamma   90.00000000
_symmetry_Int_Tables_number   1
_chemical_formula_structural   Ag8GeS6
_chemical_formula_sum   'Ag32 Ge4 S24'
_cell_volume   1207.55224767
_cell_formula_units_Z   4
loop_
 _symmetry_equiv_pos_site_id
 _symmetry_equiv_pos_as_xyz
  1  'x, y, z'
loop_
 _atom_site_type_symbol
 _atom_site_label
 _atom_site_symmetry_multiplicity
 _atom_site_fract_x
 _atom_site_fract_y
 _atom_site_fract_z
 _atom_site_occupancy
  Ag  Ag0  1  0.99228678  0.08812309  0.77480053  1
  Ag  Ag1  1  0.86440986  0.40820352  0.74039741  1
  Ag  Ag2  1  0.13559014  0.90820352  0.25960259  1
  Ag  Ag3  1  0.63559014  0.40820352  0.24039741  1
  Ag  Ag4  1  0.51787175  0.11260354  0.48495788  1
  Ag  Ag5  1  0.48212825  0.61260354  0.51504212  1
  Ag  Ag6  1  0.98212825  0.11260354  0.98495788  1
  Ag  Ag7  1  0.01787175  0.61260354  0.01504212  1
  Ag  Ag8  1  0.87698632  0.19080617  0.23026564  1
  Ag  Ag9  1  0.12301368  0.69080617  0.76973436  1
  Ag  Ag10  1  0.62301368  0.19080617  0.73026564  1
  Ag  Ag11  1  0.37698632  0.69080617  0.26973436  1
  Ag  Ag12  1  0.60929511  0.19407914  0.08952458  1
  Ag  Ag13  1  0.39070489  0.69407914  0.91047542  1
  Ag  Ag14  1  0.89070489  0.19407914  0.58952458  1
  Ag  Ag15  1  0.10929511  0.69407914  0.41047542  1
  Ag  Ag16  1  0.00771322  0.58812309  0.22519947  1
  Ag  Ag17  1  0.36440986  0.90820352  0.75960259  1
  Ag  Ag18  1  0.49228678  0.58812309  0.72519947  1
  Ag  Ag19  1  0.50771322  0.08812309  0.27480053  1
  Ag  Ag20  1  0.57217301  0.51796945  0.06819955  1
  Ag  Ag21  1  0.42782699  0.01796945  0.93180045  1
  Ag  Ag22  1  0.92782699  0.51796945  0.56819955  1
  Ag  Ag23  1  0.07217301  0.01796945  0.43180045  1
  Ag  Ag24  1  0.73417451  0.33619221  0.43956951  1
  Ag  Ag25  1  0.26582549  0.83619221  0.56043049  1
  Ag  Ag26  1  0.76582549  0.33619221  0.93956951  1
  Ag  Ag27  1  0.23417451  0.83619221  0.06043049  1
  Ag  Ag28  1  0.76894544  0.87113946  0.36835679  1
  Ag  Ag29  1  0.23105456  0.37113946  0.63164321  1
  Ag  Ag30  1  0.73105456  0.87113946  0.86835679  1
  Ag  Ag31  1  0.26894544  0.37113946  0.13164321  1
  Ge  Ge0  1  0.73319791  0.85013809  0.12359940  1
  Ge  Ge1  1  0.26680209  0.35013809  0.87640060  1
  Ge  Ge2  1  0.76680209  0.85013809  0.62359940  1
  Ge  Ge3  1  0.23319791  0.35013809  0.37640060  1
  S  S0  1  0.77131848  0.10700546  0.37868607  1
  S  S1  1  0.22868152  0.60700546  0.62131393  1
  S  S2  1  0.72868152  0.10700546  0.87868607  1
  S  S3  1  0.27131848  0.60700546  0.12131393  1
  S  S4  1  0.82467007  0.36809734  0.11316102  1
  S  S5  1  0.17532993  0.86809734  0.88683898  1
  S  S6  1  0.67532993  0.36809734  0.61316102  1
  S  S7  1  0.32467007  0.86809734  0.38683898  1
  S  S8  1  0.72854018  0.72588515  0.24080635  1
  S  S9  1  0.27145982  0.22588515  0.75919365  1
  S  S10  1  0.77145982  0.72588515  0.74080635  1
  S  S11  1  0.22854018  0.22588515  0.25919365  1
  S  S12  1  0.97360389  0.97448893  0.12758679  1
  S  S13  1  0.02639611  0.47448893  0.87241321  1
  S  S14  1  0.52639611  0.97448893  0.62758679  1
  S  S15  1  0.47360389  0.47448893  0.37241321  1
  S  S16  1  0.77143910  0.72912762  0.50431611  1
  S  S17  1  0.22856090  0.22912762  0.49568389  1
  S  S18  1  0.72856090  0.72912762  0.00431611  1
  S  S19  1  0.27143910  0.22912762  0.99568389  1
  S  S20  1  0.99558640  0.47604182  0.37872896  1
  S  S21  1  0.00441360  0.97604182  0.62127104  1
  S  S22  1  0.50441360  0.47604182  0.87872896  1
  S  S23  1  0.49558640  0.97604182  0.12127104  1
loop_
_geom_bond_atom_site_label_1
_geom_bond_atom_site_label_2
_geom_bond_distance
_geom_bond_site_symmetry_2
Ag0 S2 2.534810 1_555
Ag0 S9 2.564020 1_655
Ag0 S21 2.617206 1_645
Ag1 S6 2.431884 1_555
Ag1 S13 2.445288 1_655
Ag2 S7 2.431884 1_555
Ag2 S12 2.445288 1_455
Ag3 S4 2.431884 1_555
Ag3 S15 2.445288 1_555
Ag4 S0 2.491791 1_555
Ag4 S17 2.501742 1_555
Ag4 S14 2.614934 1_545
Ag5 S1 2.491791 1_555
Ag5 S16 2.501742 1_555
Ag5 S15 2.614934 1_555
Ag6 S2 2.491791 1_555
Ag6 S19 2.501742 1_655
Ag6 S12 2.614934 1_546
Ag7 S3 2.491791 1_555
Ag7 S18 2.501742 1_455
Ag7 S13 2.614934 1_554
Ag8 S0 2.547211 1_555
Ag8 S4 2.618515 1_555
Ag8 S11 2.696489 1_655
Ag8 S12 2.869012 1_545
Ag9 S1 2.547211 1_555
Ag9 S5 2.618515 1_555
Ag9 S10 2.696489 1_455
Ag9 S13 2.869012 1_555
Ag10 S2 2.547211 1_555
Ag10 S6 2.618515 1_555
Ag10 S9 2.696489 1_555
Ag10 S14 2.869012 1_545
Ag11 S3 2.547211 1_555
Ag11 S7 2.618515 1_555
Ag11 S8 2.696489 1_555
Ag11 S15 2.869012 1_555
Ag12 S4 2.480096 1_555
Ag12 S23 2.514634 1_545
Ag12 S19 2.928185 1_554
Ag13 S5 2.480096 1_555
Ag13 S22 2.514634 1_555
Ag13 S18 2.928185 1_556
Ag14 S6 2.480096 1_555
Ag14 S21 2.514634 1_645
Ag14 S17 2.928185 1_655
Ag15 S7 2.480096 1_555
Ag15 S20 2.514634 1_455
Ag15 S16 2.928185 1_455
Ag16 S3 2.534810 1_555
Ag16 S8 2.564020 1_455
Ag16 S20 2.617206 1_455
Ag17 S5 2.431884 1_555
Ag17 S14 2.445288 1_555
Ag18 S1 2.534810 1_555
Ag18 S10 2.564020 1_555
Ag18 S22 2.617206 1_555
Ag19 S0 2.534810 1_555
Ag19 S11 2.564020 1_555
Ag19 S23 2.617206 1_545
Ag20 S4 2.565163 1_555
Ag20 S3 2.574140 1_555
Ag20 S18 2.710089 1_555
Ag20 S22 2.952376 1_554
Ag21 S5 2.565163 1_545
Ag21 S2 2.574140 1_555
Ag21 S19 2.710089 1_555
Ag21 S23 2.952376 1_546
Ag22 S6 2.565163 1_555
Ag22 S1 2.574140 1_655
Ag22 S16 2.710089 1_555
Ag22 S20 2.952376 1_555
Ag23 S7 2.565163 1_545
Ag23 S0 2.574140 1_455
Ag23 S17 2.710089 1_555
Ag23 S21 2.952376 1_545
Ag24 S0 2.618900 1_555
Ag24 S20 2.626054 1_555
Ag24 S15 2.647407 1_555
Ag24 S6 2.691301 1_555
Ag25 S1 2.618900 1_555
Ag25 S21 2.626054 1_555
Ag25 S14 2.647407 1_555
Ag25 S7 2.691301 1_555
Ag26 S2 2.618900 1_555
Ag26 S22 2.626054 1_555
Ag26 S13 2.647407 1_655
Ag26 S4 2.691301 1_556
Ag27 S3 2.618900 1_555
Ag27 S23 2.626054 1_555
Ag27 S12 2.647407 1_455
Ag27 S5 2.691301 1_554
Ag28 S8 2.493274 1_555
Ag28 S0 2.510713 1_565
Ag28 S16 2.555352 1_555
Ag29 S9 2.493274 1_555
Ag29 S1 2.510713 1_555
Ag29 S17 2.555352 1_555
Ag30 S10 2.493274 1_555
Ag30 S2 2.510713 1_565
Ag30 S18 2.555352 1_556
Ag31 S11 2.493274 1_555
Ag31 S3 2.510713 1_555
Ag31 S19 2.555352 1_554
Ge0 S8 2.214641 1_555
Ge0 S18 2.219877 1_555
Ge0 S23 2.227219 1_555
Ge0 S12 2.234740 1_555
Ge1 S9 2.214641 1_555
Ge1 S19 2.219877 1_555
Ge1 S22 2.227219 1_555
Ge1 S13 2.234740 1_555
Ge2 S10 2.214641 1_555
Ge2 S16 2.219877 1_555
Ge2 S21 2.227219 1_655
Ge2 S14 2.234740 1_555
Ge3 S11 2.214641 1_555
Ge3 S17 2.219877 1_555
Ge3 S20 2.227219 1_455
Ge3 S15 2.234740 1_555
