# generated using pymatgen
data_Ba3BPO3
_symmetry_space_group_name_H-M   'P 1'
_cell_length_a   5.57506755
_cell_length_b   5.57506755
_cell_length_c   13.70876000
_cell_angle_alpha   90.00000000
_cell_angle_beta   90.00000000
_cell_angle_gamma   119.99999470
_symmetry_Int_Tables_number   1
_chemical_formula_structural   Ba3BPO3
_chemical_formula_sum   'Ba6 B2 P2 O6'
_cell_volume   369.00231977
_cell_formula_units_Z   2
loop_
 _symmetry_equiv_pos_site_id
 _symmetry_equiv_pos_as_xyz
  1  'x, y, z'
loop_
 _atom_site_type_symbol
 _atom_site_label
 _atom_site_symmetry_multiplicity
 _atom_site_fract_x
 _atom_site_fract_y
 _atom_site_fract_z
 _atom_site_occupancy
  Ba  Ba0  1  0.33333300  0.66666700  0.40183500  1
  Ba  Ba1  1  0.00000000  0.00000000  0.25000000  1
  Ba  Ba2  1  0.00000000  0.00000000  0.75000000  1
  Ba  Ba3  1  0.66666700  0.33333300  0.90183500  1
  Ba  Ba4  1  0.66666700  0.33333300  0.59816500  1
  Ba  Ba5  1  0.33333300  0.66666700  0.09816500  1
  B  B0  1  0.66666700  0.33333300  0.25000000  1
  B  B1  1  0.33333300  0.66666700  0.75000000  1
  P  P0  1  0.00000000  0.00000000  0.00000000  1
  P  P1  1  0.00000000  0.00000000  0.50000000  1
  O  O0  1  0.47815100  0.95630100  0.75000000  1
  O  O1  1  0.52184900  0.47815100  0.25000000  1
  O  O2  1  0.52184900  0.04369900  0.25000000  1
  O  O3  1  0.04369900  0.52184900  0.75000000  1
  O  O4  1  0.47815100  0.52184900  0.75000000  1
  O  O5  1  0.95630100  0.47815100  0.25000000  1
loop_
_geom_bond_atom_site_label_1
_geom_bond_atom_site_label_2
_geom_bond_distance
_geom_bond_site_symmetry_2
Ba0 O1 2.765186 1_555
Ba0 O2 2.765186 1_565
Ba0 O5 2.765186 1_455
Ba0 P1 3.488754 1_565
Ba0 P1 3.488758 1_555
Ba0 P1 3.488758 1_665
Ba1 O5 2.795504 1_445
Ba1 O2 2.795504 1_555
Ba1 O1 2.795507 1_555
Ba1 O1 2.795507 1_445
Ba1 O2 2.795510 1_455
Ba1 O5 2.795510 1_455
Ba1 P0 3.427190 1_555
Ba1 P1 3.427190 1_555
Ba2 O0 2.795504 1_445
Ba2 O3 2.795504 1_555
Ba2 O4 2.795507 1_555
Ba2 O4 2.795507 1_445
Ba2 O3 2.795510 1_545
Ba2 O0 2.795510 1_545
Ba2 P1 3.427190 1_555
Ba2 P0 3.427190 1_556
Ba3 O4 2.765186 1_555
Ba3 O3 2.765186 1_655
Ba3 O0 2.765186 1_545
Ba3 P0 3.488754 1_656
Ba3 P0 3.488758 1_556
Ba3 P0 3.488758 1_666
Ba4 O4 2.765186 1_555
Ba4 O3 2.765186 1_655
Ba4 O0 2.765186 1_545
Ba4 P1 3.488754 1_655
Ba4 P1 3.488758 1_555
Ba4 P1 3.488758 1_665
Ba5 O1 2.765186 1_555
Ba5 O2 2.765186 1_565
Ba5 O5 2.765186 1_455
Ba5 P0 3.488754 1_565
Ba5 P0 3.488758 1_555
Ba5 P0 3.488758 1_665
B0 O5 1.398397 1_555
B0 O2 1.398397 1_555
B0 O1 1.398406 1_555
B1 O0 1.398397 1_555
B1 O3 1.398397 1_555
B1 O4 1.398406 1_555
