# generated using pymatgen
data_Pt3Rh
_symmetry_space_group_name_H-M   'P 1'
_cell_length_a   4.80465151
_cell_length_b   4.80465151
_cell_length_c   4.80465151
_cell_angle_alpha   131.95385959
_cell_angle_beta   131.95385959
_cell_angle_gamma   70.30191042
_symmetry_Int_Tables_number   1
_chemical_formula_structural   Pt3Rh
_chemical_formula_sum   'Pt3 Rh1'
_cell_volume   60.11992740
_cell_formula_units_Z   1
loop_
 _symmetry_equiv_pos_site_id
 _symmetry_equiv_pos_as_xyz
  1  'x, y, z'
loop_
 _atom_site_type_symbol
 _atom_site_label
 _atom_site_symmetry_multiplicity
 _atom_site_fract_x
 _atom_site_fract_y
 _atom_site_fract_z
 _atom_site_occupancy
  Pt  Pt0  1  0.75000000  0.25000100  0.49999900  1
  Pt  Pt1  1  0.25000100  0.75000000  0.49999900  1
  Pt  Pt2  1  0.50000000  0.50000000  -0.00000000  1
  Rh  Rh0  1  -0.00000000  -0.00000000  -0.00000000  1
loop_
_geom_bond_atom_site_label_1
_geom_bond_atom_site_label_2
_geom_bond_distance
_geom_bond_site_symmetry_2
Pt0 Pt1 2.766189 1_555
Pt0 Pt1 2.766195 1_544
Pt0 Pt1 2.766195 1_656
Pt0 Pt1 2.766200 1_645
Pt0 Pt2 2.772018 1_555
Pt0 Rh0 2.772020 1_655
Pt0 Rh0 2.772020 1_666
Pt0 Pt2 2.772023 1_656
Pt0 Rh0 2.772029 1_555
Pt0 Pt2 2.772031 1_545
Pt0 Pt2 2.772031 1_556
Pt0 Rh0 2.772034 1_656
Pt1 Pt2 2.772018 1_555
Pt1 Rh0 2.772020 1_565
Pt1 Rh0 2.772020 1_666
Pt1 Pt2 2.772023 1_566
Pt1 Rh0 2.772029 1_555
Pt1 Pt2 2.772031 1_455
Pt1 Pt2 2.772031 1_556
Pt1 Rh0 2.772034 1_566
Pt2 Rh0 2.766195 1_655
Pt2 Rh0 2.766195 1_565
Pt2 Rh0 2.766195 1_666
Pt2 Rh0 2.766195 1_554
