# generated using pymatgen
data_CaTlF3
_symmetry_space_group_name_H-M   'P 1'
_cell_length_a   6.25654266
_cell_length_b   6.25654327
_cell_length_c   6.25654401
_cell_angle_alpha   60.44334883
_cell_angle_beta   60.44334560
_cell_angle_gamma   60.44335176
_symmetry_Int_Tables_number   1
_chemical_formula_structural   CaTlF3
_chemical_formula_sum   'Ca2 Tl2 F6'
_cell_volume   174.91206828
_cell_formula_units_Z   2
loop_
 _symmetry_equiv_pos_site_id
 _symmetry_equiv_pos_as_xyz
  1  'x, y, z'
loop_
 _atom_site_type_symbol
 _atom_site_label
 _atom_site_symmetry_multiplicity
 _atom_site_fract_x
 _atom_site_fract_y
 _atom_site_fract_z
 _atom_site_occupancy
  Ca  Ca0  1  0.00797988  0.00797988  0.00797988  1
  Ca  Ca1  1  0.50797988  0.50797988  0.50797988  1
  Tl  Tl0  1  0.26832290  0.26832290  0.26832290  1
  Tl  Tl1  1  0.76832290  0.76832290  0.76832290  1
  F  F0  1  0.23812711  0.81308493  0.70098318  1
  F  F1  1  0.81308493  0.70098318  0.23812711  1
  F  F2  1  0.70098318  0.23812711  0.81308493  1
  F  F3  1  0.20098318  0.31308493  0.73812711  1
  F  F4  1  0.73812711  0.20098318  0.31308493  1
  F  F5  1  0.31308493  0.73812711  0.20098318  1
loop_
_geom_bond_atom_site_label_1
_geom_bond_atom_site_label_2
_geom_bond_distance
_geom_bond_site_symmetry_2
Ca0 F3 2.244040 1_554
Ca0 F5 2.244040 1_545
Ca0 F4 2.244040 1_455
Ca0 F1 2.258168 1_445
Ca0 F2 2.258168 1_454
Ca0 F0 2.258168 1_544
Ca1 F1 2.244039 1_555
Ca1 F0 2.244040 1_555
Ca1 F2 2.244040 1_555
Ca1 F3 2.258168 1_555
Ca1 F4 2.258168 1_555
Ca1 F5 2.258168 1_555
