# generated using pymatgen
data_Nd2ZnGa
_symmetry_space_group_name_H-M   'P 1'
_cell_length_a   5.21000860
_cell_length_b   5.21000860
_cell_length_c   5.21000860
_cell_angle_alpha   60.00000000
_cell_angle_beta   60.00000000
_cell_angle_gamma   60.00000000
_symmetry_Int_Tables_number   1
_chemical_formula_structural   Nd2ZnGa
_chemical_formula_sum   'Nd2 Zn1 Ga1'
_cell_volume   100.00007421
_cell_formula_units_Z   1
loop_
 _symmetry_equiv_pos_site_id
 _symmetry_equiv_pos_as_xyz
  1  'x, y, z'
loop_
 _atom_site_type_symbol
 _atom_site_label
 _atom_site_symmetry_multiplicity
 _atom_site_fract_x
 _atom_site_fract_y
 _atom_site_fract_z
 _atom_site_occupancy
  Nd  Nd0  1  0.00000000  0.00000000  0.00000000  1
  Nd  Nd1  1  0.50000000  0.50000000  0.50000000  1
  Zn  Zn0  1  0.75000000  0.75000000  0.75000000  1
  Ga  Ga0  1  0.25000000  0.25000000  0.25000000  1
loop_
_geom_bond_atom_site_label_1
_geom_bond_atom_site_label_2
_geom_bond_distance
_geom_bond_site_symmetry_2
Nd0 Zn0 3.190466 1_544
Nd0 Zn0 3.190466 1_454
Nd0 Zn0 3.190466 1_445
Nd0 Zn0 3.190466 1_444
Nd1 Zn0 3.190466 1_455
Nd1 Zn0 3.190466 1_555
Nd1 Zn0 3.190466 1_554
Nd1 Zn0 3.190466 1_545
Ga0 Nd0 3.190466 1_655
Ga0 Nd1 3.190466 1_455
Ga0 Nd0 3.190466 1_556
Ga0 Nd1 3.190466 1_555
Ga0 Nd1 3.190466 1_545
Ga0 Nd0 3.190466 1_565
Ga0 Nd1 3.190466 1_554
Ga0 Nd0 3.190466 1_555
