# generated using pymatgen
data_Rb5Tl11Cd2
_symmetry_space_group_name_H-M   'P 1'
_cell_length_a   5.62970611
_cell_length_b   11.10148052
_cell_length_c   11.10148052
_cell_angle_alpha   72.51791675
_cell_angle_beta   90.00000000
_cell_angle_gamma   90.00000000
_symmetry_Int_Tables_number   1
_chemical_formula_structural   Rb5Tl11Cd2
_chemical_formula_sum   'Rb5 Tl11 Cd2'
_cell_volume   661.77418849
_cell_formula_units_Z   1
loop_
 _symmetry_equiv_pos_site_id
 _symmetry_equiv_pos_as_xyz
  1  'x, y, z'
loop_
 _atom_site_type_symbol
 _atom_site_label
 _atom_site_symmetry_multiplicity
 _atom_site_fract_x
 _atom_site_fract_y
 _atom_site_fract_z
 _atom_site_occupancy
  Rb  Rb0  1  0.00000000  0.39501382  0.21963320  1
  Rb  Rb1  1  0.50000100  0.11041818  0.50940792  1
  Rb  Rb2  1  0.00000000  0.78036680  0.60498618  1
  Rb  Rb3  1  0.00000000  0.37076251  0.62923649  1
  Rb  Rb4  1  0.50000100  0.49059308  0.88958282  1
  Tl  Tl0  1  0.50000100  0.65356293  0.14036306  1
  Tl  Tl1  1  0.50000100  0.16894371  0.14784403  1
  Tl  Tl2  1  0.00000000  0.71519553  0.28480347  1
  Tl  Tl3  1  0.00000000  0.03035484  0.28955443  1
  Tl  Tl4  1  0.50000100  0.85963694  0.34643707  1
  Tl  Tl5  1  0.50000100  0.56257673  0.43742227  1
  Tl  Tl6  1  0.00000000  0.01896157  0.78373133  1
  Tl  Tl7  1  0.50000100  0.17010594  0.82989306  1
  Tl  Tl8  1  0.50000100  0.85215597  0.83105629  1
  Tl  Tl9  1  0.00000000  0.71044457  0.96964516  1
  Tl  Tl10  1  0.00000000  0.21626867  0.98103943  1
  Cd  Cd0  1  0.25054121  0.93986811  0.06013189  1
  Cd  Cd1  1  0.74945879  0.93986811  0.06013189  1
loop_
_geom_bond_atom_site_label_1
_geom_bond_atom_site_label_2
_geom_bond_distance
_geom_bond_site_symmetry_2
Rb0 Tl10 3.756503 1_554
Rb0 Tl9 3.758371 1_554
Rb0 Tl2 3.834438 1_555
Rb0 Tl3 3.886246 1_555
Rb0 Tl0 3.926665 1_455
Rb0 Tl0 3.926673 1_555
Rb0 Tl1 4.007356 1_455
Rb0 Tl1 4.007364 1_555
Rb1 Tl4 3.748391 1_545
Rb1 Tl7 3.809707 1_555
Rb1 Tl8 3.849630 1_545
Rb1 Tl1 3.868671 1_555
Rb1 Tl3 3.996718 1_655
Rb1 Tl3 3.996726 1_555
Rb1 Tl6 4.046100 1_655
Rb1 Tl6 4.046108 1_555
Rb2 Tl6 3.756513 1_565
Rb2 Tl3 3.758379 1_565
Rb2 Tl2 3.834454 1_555
Rb2 Tl9 3.886245 1_555
Rb2 Tl4 3.926665 1_455
Rb2 Tl4 3.926673 1_555
Rb2 Tl8 4.007356 1_455
Rb2 Tl8 4.007364 1_555
Rb3 Tl6 3.764325 1_555
Rb3 Tl10 3.764344 1_555
Rb3 Tl5 3.777285 1_455
Rb3 Tl5 3.777293 1_555
Rb3 Tl7 3.855685 1_455
Rb3 Tl7 3.855694 1_555
Rb4 Tl0 3.748373 1_556
Rb4 Tl7 3.809739 1_555
Rb4 Tl1 3.849633 1_556
Rb4 Tl8 3.868658 1_555
Rb4 Tl9 3.996699 1_655
Rb4 Tl9 3.996707 1_555
Rb4 Tl10 4.046107 1_655
Rb4 Tl10 4.046115 1_555
Tl0 Tl5 3.145535 1_555
Tl0 Tl9 3.345885 1_654
Tl0 Tl9 3.345894 1_554
Tl0 Tl2 3.409092 1_655
Tl0 Tl2 3.409102 1_555
Tl0 Tl8 3.478930 1_554
Tl1 Tl10 3.323243 1_654
Tl1 Tl10 3.323253 1_554
Tl1 Tl3 3.363211 1_655
Tl1 Tl3 3.363221 1_555
Tl1 Tl4 3.478930 1_545
Tl1 Tl7 3.525872 1_554
Tl2 Tl4 3.409102 1_455
Tl2 Tl4 3.409111 1_555
Tl2 Tl5 3.455418 1_455
Tl2 Tl5 3.455427 1_555
Tl2 Tl9 3.514928 1_554
Tl2 Tl3 3.514939 1_565
Tl3 Tl4 3.345885 1_445
Tl3 Tl4 3.345894 1_545
Tl4 Tl5 3.145545 1_555
Tl6 Tl8 3.323249 1_445
Tl6 Tl8 3.323259 1_545
Tl6 Tl7 3.393825 1_455
Tl6 Tl7 3.393834 1_555
Tl6 Tl9 3.426842 1_545
Tl7 Tl8 3.525858 1_545
Tl8 Tl9 3.363215 1_655
Tl8 Tl9 3.363224 1_555
Tl10 Tl7 3.393840 1_455
Tl10 Tl7 3.393850 1_555
Tl10 Tl3 3.426824 1_556
Tl10 Tl6 3.532478 1_555
Cd0 Cd1 2.808759 1_555
Cd0 Cd1 2.820947 1_455
Cd0 Tl6 3.249165 1_564
Cd0 Tl10 3.249165 1_564
Cd0 Tl2 3.270132 1_555
Cd0 Tl1 3.297801 1_565
Cd0 Tl8 3.297801 1_554
Cd0 Tl3 3.320024 1_565
Cd0 Tl9 3.320033 1_554
Cd0 Tl7 3.333656 1_564
Cd0 Tl4 3.341711 1_555
Cd0 Tl0 3.341711 1_555
Cd1 Tl6 3.249165 1_664
Cd1 Tl10 3.249165 1_664
Cd1 Tl2 3.270132 1_655
Cd1 Tl1 3.297796 1_565
Cd1 Tl8 3.297796 1_554
Cd1 Tl3 3.320024 1_665
Cd1 Tl9 3.320033 1_654
Cd1 Tl7 3.333652 1_564
Cd1 Tl0 3.341706 1_555
Cd1 Tl4 3.341706 1_555
