# generated using pymatgen
data_VFeSe
_symmetry_space_group_name_H-M   'P 1'
_cell_length_a   3.94145138
_cell_length_b   3.94145138
_cell_length_c   3.94145138
_cell_angle_alpha   60.00000000
_cell_angle_beta   60.00000000
_cell_angle_gamma   60.00000000
_symmetry_Int_Tables_number   1
_chemical_formula_structural   VFeSe
_chemical_formula_sum   'V1 Fe1 Se1'
_cell_volume   43.29657313
_cell_formula_units_Z   1
loop_
 _symmetry_equiv_pos_site_id
 _symmetry_equiv_pos_as_xyz
  1  'x, y, z'
loop_
 _atom_site_type_symbol
 _atom_site_label
 _atom_site_symmetry_multiplicity
 _atom_site_fract_x
 _atom_site_fract_y
 _atom_site_fract_z
 _atom_site_occupancy
  V  V0  1  0.50000000  0.50000000  0.50000000  1
  Fe  Fe0  1  0.25000000  0.25000000  0.25000000  1
  Se  Se0  1  0.00000000  0.00000000  0.00000000  1
loop_
_geom_bond_atom_site_label_1
_geom_bond_atom_site_label_2
_geom_bond_distance
_geom_bond_site_symmetry_2
Fe0 V0 2.413636 1_545
Fe0 Se0 2.413636 1_655
Fe0 V0 2.413636 1_554
Fe0 Se0 2.413636 1_556
Fe0 V0 2.413636 1_555
Fe0 Se0 2.413636 1_565
Fe0 Se0 2.413636 1_555
Fe0 V0 2.413636 1_455
Se0 V0 2.787027 1_544
Se0 V0 2.787027 1_455
Se0 V0 2.787027 1_545
Se0 V0 2.787027 1_554
Se0 V0 2.787027 1_454
Se0 V0 2.787027 1_445
