# generated using pymatgen
data_W
_symmetry_space_group_name_H-M   'P 1'
_cell_length_a   5.49114744
_cell_length_b   5.49114761
_cell_length_c   5.49114918
_cell_angle_alpha   109.47124142
_cell_angle_beta   109.47124187
_cell_angle_gamma   109.47119867
_symmetry_Int_Tables_number   1
_chemical_formula_structural   W
_chemical_formula_sum   W8
_cell_volume   127.45810817
_cell_formula_units_Z   8
loop_
 _symmetry_equiv_pos_site_id
 _symmetry_equiv_pos_as_xyz
  1  'x, y, z'
loop_
 _atom_site_type_symbol
 _atom_site_label
 _atom_site_symmetry_multiplicity
 _atom_site_fract_x
 _atom_site_fract_y
 _atom_site_fract_z
 _atom_site_occupancy
  W  W0_0  1  0.00000000  0.00000000  0.00000000  1
  W  W0_1  1  0.00000000  0.00000000  0.50000000  1
  W  W0_2  1  0.00000000  0.50000000  0.00000000  1
  W  W0_3  1  0.00000000  0.50000000  0.50000000  1
  W  W0_4  1  0.50000000  0.00000000  0.00000000  1
  W  W0_5  1  0.50000000  0.00000000  0.50000000  1
  W  W0_6  1  0.50000000  0.50000000  0.00000000  1
  W  W0_7  1  0.50000000  0.50000000  0.50000000  1
loop_
_geom_bond_atom_site_label_1
_geom_bond_atom_site_label_2
_geom_bond_distance
_geom_bond_site_symmetry_2
W0_0 W0_7 2.745573 1_555
W0_0 W0_7 2.745573 1_444
W0_0 W0_4 2.745574 1_555
W0_0 W0_4 2.745574 1_455
W0_0 W0_2 2.745574 1_555
W0_0 W0_2 2.745574 1_545
W0_0 W0_1 2.745575 1_555
W0_0 W0_1 2.745575 1_554
W0_1 W0_6 2.745573 1_556
W0_1 W0_6 2.745573 1_445
W0_1 W0_5 2.745574 1_555
W0_1 W0_5 2.745574 1_455
W0_1 W0_3 2.745574 1_555
W0_1 W0_3 2.745574 1_545
W0_2 W0_5 2.745573 1_454
W0_2 W0_5 2.745573 1_565
W0_2 W0_6 2.745574 1_555
W0_2 W0_6 2.745574 1_455
W0_2 W0_3 2.745575 1_554
W0_2 W0_3 2.745575 1_555
W0_3 W0_4 2.745573 1_566
W0_3 W0_4 2.745573 1_455
W0_3 W0_7 2.745574 1_455
W0_3 W0_7 2.745574 1_555
W0_4 W0_6 2.745574 1_545
W0_4 W0_6 2.745574 1_555
W0_4 W0_5 2.745575 1_554
W0_4 W0_5 2.745575 1_555
W0_5 W0_7 2.745574 1_545
W0_5 W0_7 2.745574 1_555
W0_6 W0_7 2.745575 1_554
W0_6 W0_7 2.745575 1_555
