# generated using pymatgen
data_SmFe12
_symmetry_space_group_name_H-M   'P 1'
_cell_length_a   6.72943262
_cell_length_b   6.72943262
_cell_length_c   6.72943262
_cell_angle_alpha   95.97106385
_cell_angle_beta   95.97106385
_cell_angle_gamma   142.36789478
_symmetry_Int_Tables_number   1
_chemical_formula_structural   SmFe12
_chemical_formula_sum   'Sm1 Fe12'
_cell_volume   176.12945701
_cell_formula_units_Z   1
loop_
 _symmetry_equiv_pos_site_id
 _symmetry_equiv_pos_as_xyz
  1  'x, y, z'
loop_
 _atom_site_type_symbol
 _atom_site_label
 _atom_site_symmetry_multiplicity
 _atom_site_fract_x
 _atom_site_fract_y
 _atom_site_fract_z
 _atom_site_occupancy
  Sm  Sm0  1  0.00000000  0.00000000  0.00000000  1
  Fe  Fe0  1  0.26138900  0.50000000  0.76138900  1
  Fe  Fe1  1  0.50000000  0.26138900  0.76138900  1
  Fe  Fe2  1  0.73861100  0.50000000  0.23861100  1
  Fe  Fe3  1  0.50000000  0.73861100  0.23861100  1
  Fe  Fe4  1  0.22509700  0.22509700  0.45019400  1
  Fe  Fe5  1  0.77490300  0.22509700  0.00000000  1
  Fe  Fe6  1  0.77490300  0.77490300  0.54980600  1
  Fe  Fe7  1  0.22509700  0.77490300  0.00000000  1
  Fe  Fe8  1  0.36552900  0.00000000  0.36552900  1
  Fe  Fe9  1  0.00000000  0.36552900  0.36552900  1
  Fe  Fe10  1  0.63447100  0.00000000  0.63447100  1
  Fe  Fe11  1  0.00000000  0.63447100  0.63447100  1
loop_
_geom_bond_atom_site_label_1
_geom_bond_atom_site_label_2
_geom_bond_distance
_geom_bond_site_symmetry_2
Fe0 Fe10 2.453164 1_565
Fe0 Fe10 2.453164 1_455
Fe0 Fe4 2.497886 1_555
Fe0 Fe7 2.497886 1_556
Fe0 Fe11 2.647980 1_555
Fe0 Fe9 2.647980 1_555
Fe0 Fe5 2.972772 1_566
Fe0 Fe6 2.972772 1_555
Fe0 Fe5 2.972772 1_456
Fe0 Fe6 2.972772 1_445
Fe0 Fe3 3.039811 1_556
Fe0 Fe1 3.039811 1_555
Fe0 Sm0 3.054681 1_556
Fe0 Sm0 3.054681 1_666
Fe1 Fe11 2.453164 1_655
Fe1 Fe11 2.453164 1_545
Fe1 Fe5 2.497886 1_556
Fe1 Fe4 2.497886 1_555
Fe1 Fe10 2.647980 1_555
Fe1 Fe8 2.647980 1_555
Fe1 Fe7 2.972772 1_656
Fe1 Fe6 2.972772 1_555
Fe1 Fe7 2.972772 1_546
Fe1 Fe6 2.972772 1_445
Fe1 Fe2 3.039811 1_556
Fe1 Sm0 3.054681 1_556
Fe1 Sm0 3.054681 1_666
Fe2 Fe8 2.453164 1_555
Fe2 Fe8 2.453164 1_665
Fe2 Fe6 2.497886 1_555
Fe2 Fe5 2.497886 1_555
Fe2 Fe9 2.647980 1_655
Fe2 Fe7 2.972772 1_545
Fe2 Fe4 2.972772 1_555
Fe2 Fe4 2.972772 1_665
Fe2 Fe7 2.972772 1_655
Fe2 Fe3 3.039811 1_555
Fe2 Sm0 3.054681 1_555
Fe2 Sm0 3.054681 1_665
Fe3 Fe9 2.453164 1_665
Fe3 Fe9 2.453164 1_555
Fe3 Fe6 2.497886 1_555
Fe3 Fe7 2.497886 1_555
Fe3 Fe8 2.647980 1_565
Fe3 Fe4 2.972772 1_665
Fe3 Fe5 2.972772 1_565
Fe3 Fe5 2.972772 1_455
Fe3 Fe4 2.972772 1_555
Fe3 Sm0 3.054681 1_555
Fe3 Sm0 3.054681 1_665
Fe4 Fe6 2.261295 1_445
Fe4 Fe6 2.261295 1_555
Fe4 Fe9 2.389989 1_555
Fe4 Fe8 2.389989 1_555
Fe4 Sm0 2.867648 1_555
Fe5 Fe7 2.261295 1_655
Fe5 Fe7 2.261295 1_545
Fe5 Fe9 2.389989 1_655
Fe5 Sm0 2.867648 1_655
Fe6 Sm0 2.867648 1_666
Fe7 Fe8 2.389989 1_565
Fe7 Sm0 2.867648 1_565
Fe8 Fe9 2.765066 1_655
Fe8 Fe9 2.765066 1_545
Fe10 Fe6 2.389989 1_545
Fe10 Fe5 2.389989 1_556
Fe10 Fe8 2.422701 1_555
Fe10 Fe3 2.647980 1_545
Fe10 Fe11 2.765066 1_545
Fe10 Fe11 2.765066 1_655
Fe10 Fe9 2.765066 1_655
Fe10 Fe9 2.765066 1_545
Fe11 Fe7 2.389989 1_556
Fe11 Fe6 2.389989 1_455
Fe11 Fe9 2.422701 1_555
Fe11 Fe2 2.647980 1_455
Fe11 Fe8 2.765066 1_565
Fe11 Fe8 2.765066 1_455
