# generated using pymatgen
data_LaWN3
_symmetry_space_group_name_H-M   'P 1'
_cell_length_a   4.65611176
_cell_length_b   4.65611176
_cell_length_c   3.29236800
_cell_angle_alpha   90.00000000
_cell_angle_beta   90.00000000
_cell_angle_gamma   119.99999662
_symmetry_Int_Tables_number   1
_chemical_formula_structural   LaWN3
_chemical_formula_sum   'La1 W1 N3'
_cell_volume   61.81385242
_cell_formula_units_Z   1
loop_
 _symmetry_equiv_pos_site_id
 _symmetry_equiv_pos_as_xyz
  1  'x, y, z'
loop_
 _atom_site_type_symbol
 _atom_site_label
 _atom_site_symmetry_multiplicity
 _atom_site_fract_x
 _atom_site_fract_y
 _atom_site_fract_z
 _atom_site_occupancy
  La  La0  1  0.95458200  0.95458200  0.95458200  1
  W  W0  1  0.44918600  0.44918600  0.44918600  1
  N  N0  1  0.40407000  0.91308200  0.40407000  1
  N  N1  1  0.40407000  0.40407000  0.91308200  1
  N  N2  1  0.91308200  0.40407000  0.40407000  1
loop_
_geom_bond_atom_site_label_1
_geom_bond_atom_site_label_2
_geom_bond_distance
_geom_bond_site_symmetry_2
La0 N1 2.097322 1_665
La0 N1 2.566885 1_555
La0 N2 2.647994 1_566
La0 N0 2.647994 1_656
La0 N2 2.847269 1_565
La0 N0 2.847269 1_655
La0 N2 2.881374 1_556
La0 N0 2.881374 1_556
La0 N2 3.065515 1_555
La0 N0 3.065515 1_555
N0 W0 2.277128 1_555
N0 W0 2.402634 1_565
N1 W0 1.541695 1_555
N1 W0 1.777508 1_556
N2 W0 2.277128 1_555
N2 W0 2.402634 1_655
