# generated using pymatgen
data_Tm3Th
_symmetry_space_group_name_H-M   'P 1'
_cell_length_a   6.02642301
_cell_length_b   6.02642301
_cell_length_c   6.02642301
_cell_angle_alpha   130.56105231
_cell_angle_beta   130.56105231
_cell_angle_gamma   72.51140924
_symmetry_Int_Tables_number   1
_chemical_formula_structural   Tm3Th
_chemical_formula_sum   'Tm3 Th1'
_cell_volume   123.45239761
_cell_formula_units_Z   1
loop_
 _symmetry_equiv_pos_site_id
 _symmetry_equiv_pos_as_xyz
  1  'x, y, z'
loop_
 _atom_site_type_symbol
 _atom_site_label
 _atom_site_symmetry_multiplicity
 _atom_site_fract_x
 _atom_site_fract_y
 _atom_site_fract_z
 _atom_site_occupancy
  Tm  Tm0  1  0.75000100  0.25000000  0.50000100  1
  Tm  Tm1  1  0.25000000  0.75000100  0.50000100  1
  Tm  Tm2  1  0.50000000  0.50000000  0.00000000  1
  Th  Th0  1  -0.00000000  0.00000000  0.00000000  1
loop_
_geom_bond_atom_site_label_1
_geom_bond_atom_site_label_2
_geom_bond_distance
_geom_bond_site_symmetry_2
Tm0 Tm2 3.500697 1_656
Tm0 Tm2 3.500701 1_556
Tm0 Tm2 3.500701 1_545
Tm0 Tm2 3.500705 1_555
Tm0 Tm1 3.563959 1_645
Tm0 Tm1 3.563966 1_656
Tm0 Tm1 3.563966 1_544
Tm0 Tm1 3.563973 1_555
Tm1 Tm2 3.500697 1_566
Tm1 Tm2 3.500701 1_556
Tm1 Tm2 3.500701 1_455
Tm1 Tm2 3.500705 1_555
Th0 Tm0 3.500697 1_454
Th0 Tm1 3.500697 1_544
Th0 Tm0 3.500701 1_444
Th0 Tm1 3.500701 1_444
Th0 Tm1 3.500701 1_545
Th0 Tm0 3.500701 1_455
Th0 Tm1 3.500705 1_555
Th0 Tm0 3.500705 1_555
Th0 Tm2 3.563966 1_556
Th0 Tm2 3.563966 1_444
Th0 Tm2 3.563966 1_545
Th0 Tm2 3.563966 1_455
