# generated using pymatgen
data_Sr4La4Mn7CuO24
_symmetry_space_group_name_H-M   'P 1'
_cell_length_a   5.45798800
_cell_length_b   5.55202998
_cell_length_c   18.19424486
_cell_angle_alpha   97.41998097
_cell_angle_beta   90.03037952
_cell_angle_gamma   119.41839319
_symmetry_Int_Tables_number   1
_chemical_formula_structural   Sr4La4Mn7CuO24
_chemical_formula_sum   'Sr4 La4 Mn7 Cu1 O24'
_cell_volume   474.91791722
_cell_formula_units_Z   1
loop_
 _symmetry_equiv_pos_site_id
 _symmetry_equiv_pos_as_xyz
  1  'x, y, z'
loop_
 _atom_site_type_symbol
 _atom_site_label
 _atom_site_symmetry_multiplicity
 _atom_site_fract_x
 _atom_site_fract_y
 _atom_site_fract_z
 _atom_site_occupancy
  Sr  Sr0  1  0.43782000  0.24813700  0.43855800  1
  Sr  Sr1  1  0.19023200  0.25148500  0.18712600  1
  Sr  Sr2  1  0.56218000  0.75186300  0.56144200  1
  Sr  Sr3  1  0.80976800  0.74851500  0.81287400  1
  La  La0  1  0.68663000  0.25231700  0.68503900  1
  La  La1  1  0.93407800  0.24765200  0.93893600  1
  La  La2  1  0.06592200  0.75234800  0.06106400  1
  La  La3  1  0.31337000  0.74768300  0.31496100  1
  Mn  Mn0  1  0.37647400  0.99918200  0.87458300  1
  Mn  Mn1  1  0.12499900  0.99951500  0.62439600  1
  Mn  Mn2  1  0.87500100  0.00048500  0.37560400  1
  Mn  Mn3  1  0.62352600  0.00081800  0.12541700  1
  Mn  Mn4  1  0.24906500  0.49921800  0.74962100  1
  Mn  Mn5  1  0.00000000  0.50000000  0.50000000  1
  Mn  Mn6  1  0.75093500  0.50078200  0.25037900  1
  Cu  Cu0  1  0.50000000  0.50000000  0.00000000  1
  O  O0  1  0.30726200  0.74519000  0.81286100  1
  O  O1  1  0.05358000  0.74037400  0.56595100  1
  O  O2  1  0.81561400  0.74920500  0.31094900  1
  O  O3  1  0.57905600  0.77590900  0.06335800  1
  O  O4  1  0.69086900  0.70072200  0.69725900  1
  O  O5  1  0.44630600  0.71926600  0.44342500  1
  O  O6  1  0.20260800  0.71521900  0.20020100  1
  O  O7  1  0.95179300  0.70209300  0.94852100  1
  O  O8  1  0.23679400  0.21226000  0.82484500  1
  O  O9  1  0.99708500  0.21643300  0.57434500  1
  O  O10  1  0.74133100  0.20577900  0.31991700  1
  O  O11  1  0.48939000  0.19883300  0.07084000  1
  O  O12  1  0.18438600  0.25079500  0.68905100  1
  O  O13  1  0.94642000  0.25962600  0.43404900  1
  O  O14  1  0.69273800  0.25481000  0.18713900  1
  O  O15  1  0.42094400  0.22409100  0.93664200  1
  O  O16  1  0.25866900  0.79422100  0.68008300  1
  O  O17  1  0.00291500  0.78356700  0.42565500  1
  O  O18  1  0.76320600  0.78774000  0.17515500  1
  O  O19  1  0.51061000  0.80116700  0.92916000  1
  O  O20  1  0.55369400  0.28073400  0.55657500  1
  O  O21  1  0.79739200  0.28478100  0.79979900  1
  O  O22  1  0.04820700  0.29790700  0.05147900  1
  O  O23  1  0.30913100  0.29927800  0.30274100  1
loop_
_geom_bond_atom_site_label_1
_geom_bond_atom_site_label_2
_geom_bond_distance
_geom_bond_site_symmetry_2
La0 O21 2.133541 1_555
La0 O16 2.457094 1_545
La0 O4 2.459332 1_555
La0 O20 2.494039 1_555
La0 O9 2.683034 1_555
La1 O22 2.083033 1_656
La1 O19 2.403306 1_545
La1 O7 2.460149 1_555
La1 O21 2.700253 1_555
La1 O8 2.700853 1_655
La1 O7 3.104589 1_545
La2 O7 2.083033 1_454
La2 O11 2.403306 1_565
La2 O22 2.460149 1_555
La2 O6 2.700253 1_555
La2 O18 2.700853 1_455
La2 O22 3.104589 1_565
La3 O6 2.133541 1_555
La3 O10 2.457094 1_565
La3 O23 2.459332 1_555
La3 O5 2.494039 1_555
La3 O17 2.683034 1_555
Mn0 O15 1.493614 1_565
Mn0 O0 1.568312 1_555
Mn0 O19 1.950008 1_555
Mn0 O8 1.990335 1_565
Mn0 O21 2.574003 1_565
Mn0 O7 2.592993 1_455
Mn1 O1 1.551186 1_555
Mn1 O12 1.602089 1_565
Mn1 O9 1.968675 1_465
Mn1 O16 1.993072 1_555
Mn1 O20 2.519323 1_565
Mn1 O4 2.614145 1_455
Mn2 O13 1.551186 1_555
Mn2 O2 1.602089 1_545
Mn2 O17 1.968675 1_645
Mn2 O10 1.993072 1_555
Mn2 O5 2.519323 1_545
Mn2 O23 2.614145 1_655
Mn3 O3 1.493614 1_545
Mn3 O14 1.568312 1_555
Mn3 O11 1.950008 1_555
Mn3 O18 1.990335 1_545
Mn3 O6 2.574003 1_545
Mn3 O22 2.592993 1_655
Mn4 O12 1.539516 1_555
Mn4 O0 1.567611 1_555
Mn4 O16 2.176467 1_555
Mn4 O8 2.207809 1_555
Mn4 O4 2.366739 1_555
Mn4 O21 2.393350 1_455
Mn5 O13 1.583992 1_455
Mn5 O1 1.583992 1_555
Mn5 O9 2.198640 1_455
Mn5 O17 2.198640 1_555
Mn5 O20 2.426616 1_455
Mn5 O5 2.426616 1_555
Mn6 O2 1.539516 1_555
Mn6 O14 1.567611 1_555
Mn6 O10 2.176467 1_555
Mn6 O18 2.207809 1_555
Mn6 O23 2.366739 1_555
Mn6 O6 2.393350 1_655
Cu0 O3 1.660018 1_555
Cu0 O15 1.660018 1_554
Cu0 O11 2.218566 1_555
Cu0 O19 2.218566 1_554
Cu0 O22 2.402635 1_555
Cu0 O7 2.402635 1_554
O4 Sr3 2.145134 1_555
O4 Sr2 2.656225 1_555
O5 Sr2 2.197517 1_555
O5 Sr0 2.583243 1_555
O5 Sr0 2.971976 1_565
O6 Sr1 2.522101 1_555
O6 Sr1 3.050630 1_565
O7 Sr3 2.667742 1_555
O8 Sr3 2.463401 1_445
O9 Sr2 2.484124 1_545
O11 Sr1 2.746023 1_555
O17 Sr0 2.484124 1_565
O18 Sr1 2.463401 1_665
O19 Sr3 2.746023 1_555
O20 Sr0 2.197517 1_555
O20 Sr2 2.583243 1_555
O20 Sr2 2.971976 1_545
O21 Sr3 2.522101 1_555
O21 Sr3 3.050630 1_545
O22 Sr1 2.667742 1_555
O23 Sr1 2.145134 1_555
O23 Sr0 2.656225 1_555
