# generated using pymatgen
data_Na3Pt
_symmetry_space_group_name_H-M   'P 1'
_cell_length_a   5.12026368
_cell_length_b   5.12026368
_cell_length_c   5.12026368
_cell_angle_alpha   124.17928529
_cell_angle_beta   124.17928529
_cell_angle_gamma   82.90189612
_symmetry_Int_Tables_number   1
_chemical_formula_structural   Na3Pt
_chemical_formula_sum   'Na3 Pt1'
_cell_volume   88.18194978
_cell_formula_units_Z   1
loop_
 _symmetry_equiv_pos_site_id
 _symmetry_equiv_pos_as_xyz
  1  'x, y, z'
loop_
 _atom_site_type_symbol
 _atom_site_label
 _atom_site_symmetry_multiplicity
 _atom_site_fract_x
 _atom_site_fract_y
 _atom_site_fract_z
 _atom_site_occupancy
  Na  Na0  1  0.75000000  0.25000000  0.50000000  1
  Na  Na1  1  0.25000000  0.75000000  0.50000000  1
  Na  Na2  1  0.50000000  0.50000000  0.00000000  1
  Pt  Pt0  1  0.00000000  0.00000000  0.00000000  1
loop_
_geom_bond_atom_site_label_1
_geom_bond_atom_site_label_2
_geom_bond_distance
_geom_bond_site_symmetry_2
Na0 Na2 3.070254 1_555
Na0 Na2 3.070254 1_545
Na0 Pt0 3.070254 1_655
Na0 Pt0 3.070254 1_656
Na0 Na2 3.070254 1_556
Na0 Pt0 3.070254 1_666
Na0 Na2 3.070254 1_656
Na0 Pt0 3.070254 1_555
Na1 Na2 3.070254 1_566
Na1 Pt0 3.070254 1_555
Na1 Pt0 3.070254 1_566
Na1 Pt0 3.070254 1_565
Na1 Na2 3.070254 1_556
Na1 Na2 3.070254 1_555
Na1 Na2 3.070254 1_455
Na1 Pt0 3.070254 1_666
Na2 Pt0 3.389505 1_655
Na2 Pt0 3.389505 1_565
Na2 Pt0 3.389505 1_666
Na2 Pt0 3.389505 1_554
