# generated using pymatgen
data_HoCuGe
_symmetry_space_group_name_H-M   'P 1'
_cell_length_a   4.22005206
_cell_length_b   4.22005206
_cell_length_c   7.15250689
_cell_angle_alpha   90.00000000
_cell_angle_beta   90.00000000
_cell_angle_gamma   119.99998529
_symmetry_Int_Tables_number   1
_chemical_formula_structural   HoCuGe
_chemical_formula_sum   'Ho2 Cu2 Ge2'
_cell_volume   110.31246734
_cell_formula_units_Z   2
loop_
 _symmetry_equiv_pos_site_id
 _symmetry_equiv_pos_as_xyz
  1  'x, y, z'
loop_
 _atom_site_type_symbol
 _atom_site_label
 _atom_site_symmetry_multiplicity
 _atom_site_fract_x
 _atom_site_fract_y
 _atom_site_fract_z
 _atom_site_occupancy
  Ho  Ho0  1  -0.00000000  -0.00000000  0.75004578  1
  Ho  Ho1  1  -0.00000000  -0.00000000  0.25004578  1
  Cu  Cu0  1  0.66666700  0.33333300  0.53660876  1
  Cu  Cu1  1  0.33333300  0.66666700  0.03660876  1
  Ge  Ge0  1  0.33333300  0.66666700  0.47404746  1
  Ge  Ge1  1  0.66666700  0.33333300  0.97404746  1
loop_
_geom_bond_atom_site_label_1
_geom_bond_atom_site_label_2
_geom_bond_distance
_geom_bond_site_symmetry_2
Cu0 Ge0 2.477196 1_655
Cu0 Ge0 2.477196 1_545
Cu0 Ge0 2.477202 1_555
Cu0 Ho0 2.875205 1_655
Cu0 Ho0 2.875209 1_555
Cu0 Ho0 2.875209 1_665
Cu0 Ge1 3.128783 1_555
Cu0 Ho1 3.183914 1_655
Cu0 Ho1 3.183917 1_665
Cu0 Ho1 3.183917 1_555
Cu1 Ge1 2.477196 1_454
Cu1 Ge1 2.477196 1_564
Cu1 Ge1 2.477202 1_554
Cu1 Ho1 2.875205 1_565
Cu1 Ho1 2.875209 1_665
Cu1 Ho1 2.875209 1_555
Cu1 Ge0 3.128783 1_555
Cu1 Ho0 3.183914 1_564
Cu1 Ho0 3.183917 1_554
Cu1 Ho0 3.183917 1_664
Ge0 Ho1 2.916029 1_565
Ge0 Ho1 2.916033 1_555
Ge0 Ho1 2.916033 1_665
Ge0 Ho0 3.135803 1_565
Ge0 Ho0 3.135806 1_665
Ge0 Ho0 3.135806 1_555
Ge1 Ho0 2.916029 1_655
Ge1 Ho0 2.916033 1_555
Ge1 Ho0 2.916033 1_665
Ge1 Ho1 3.135803 1_656
Ge1 Ho1 3.135806 1_556
Ge1 Ho1 3.135806 1_666
