# generated using pymatgen
data_Li5Mg
_symmetry_space_group_name_H-M   'P 1'
_cell_length_a   16.17515171
_cell_length_b   16.17515171
_cell_length_c   10.09020838
_cell_angle_alpha   90.00000000
_cell_angle_beta   90.00000000
_cell_angle_gamma   158.20954768
_symmetry_Int_Tables_number   1
_chemical_formula_structural   Li5Mg
_chemical_formula_sum   'Li40 Mg8'
_cell_volume   979.98666238
_cell_formula_units_Z   8
loop_
 _symmetry_equiv_pos_site_id
 _symmetry_equiv_pos_as_xyz
  1  'x, y, z'
loop_
 _atom_site_type_symbol
 _atom_site_label
 _atom_site_symmetry_multiplicity
 _atom_site_fract_x
 _atom_site_fract_y
 _atom_site_fract_z
 _atom_site_occupancy
  Li  Li0_0  1  0.00096031  0.49903969  0.25000000  1
  Li  Li0_1  1  0.00096031  0.49903969  0.75000000  1
  Li  Li0_2  1  0.00096031  0.99903969  0.25000000  1
  Li  Li0_3  1  0.00096031  0.99903969  0.75000000  1
  Li  Li0_4  1  0.50096032  0.49903969  0.25000000  1
  Li  Li0_5  1  0.50096032  0.49903969  0.75000000  1
  Li  Li0_6  1  0.50096032  0.99903968  0.25000000  1
  Li  Li0_7  1  0.50096032  0.99903968  0.75000000  1
  Li  Li1_0  1  0.33382599  0.16617401  0.25000000  1
  Li  Li1_1  1  0.33382599  0.16617401  0.75000000  1
  Li  Li1_2  1  0.33382599  0.66617401  0.25000000  1
  Li  Li1_3  1  0.33382599  0.66617401  0.75000000  1
  Li  Li1_4  1  0.83382599  0.16617401  0.25000000  1
  Li  Li1_5  1  0.83382599  0.16617401  0.75000000  1
  Li  Li1_6  1  0.83382599  0.66617401  0.25000000  1
  Li  Li1_7  1  0.83382599  0.66617401  0.75000000  1
  Li  Li2_0  1  0.16672138  0.33327862  0.25000000  1
  Li  Li2_1  1  0.16672138  0.33327862  0.75000000  1
  Li  Li2_2  1  0.16672138  0.83327862  0.25000000  1
  Li  Li2_3  1  0.16672138  0.83327862  0.75000000  1
  Li  Li2_4  1  0.66672138  0.33327862  0.25000000  1
  Li  Li2_5  1  0.66672138  0.33327862  0.75000000  1
  Li  Li2_6  1  0.66672138  0.83327862  0.25000000  1
  Li  Li2_7  1  0.66672138  0.83327862  0.75000000  1
  Li  Li3_0  1  0.27727840  0.22272160  0.00000000  1
  Li  Li3_1  1  0.27727840  0.22272160  0.50000000  1
  Li  Li3_2  1  0.27727840  0.72272160  0.00000000  1
  Li  Li3_3  1  0.27727840  0.72272160  0.50000000  1
  Li  Li3_4  1  0.77727840  0.22272160  0.00000000  1
  Li  Li3_5  1  0.77727840  0.22272160  0.50000000  1
  Li  Li3_6  1  0.77727840  0.72272160  0.00000000  1
  Li  Li3_7  1  0.77727840  0.72272160  0.50000000  1
  Li  Li4_0  1  0.44428926  0.05571074  0.00000000  1
  Li  Li4_1  1  0.44428926  0.05571074  0.50000000  1
  Li  Li4_2  1  0.44428925  0.55571074  0.00000000  1
  Li  Li4_3  1  0.44428925  0.55571074  0.50000000  1
  Li  Li4_4  1  0.94428926  0.05571074  0.00000000  1
  Li  Li4_5  1  0.94428926  0.05571074  0.50000000  1
  Li  Li4_6  1  0.94428926  0.55571074  0.00000000  1
  Li  Li4_7  1  0.94428926  0.55571074  0.50000000  1
  Mg  Mg0_0  1  0.11025366  0.38974634  0.00000000  1
  Mg  Mg0_1  1  0.11025366  0.38974634  0.50000000  1
  Mg  Mg0_2  1  0.11025366  0.88974634  0.00000000  1
  Mg  Mg0_3  1  0.11025366  0.88974634  0.50000000  1
  Mg  Mg0_4  1  0.61025366  0.38974634  0.00000000  1
  Mg  Mg0_5  1  0.61025366  0.38974634  0.50000000  1
  Mg  Mg0_6  1  0.61025366  0.88974634  0.00000000  1
  Mg  Mg0_7  1  0.61025366  0.88974634  0.50000000  1
loop_
_geom_bond_atom_site_label_1
_geom_bond_atom_site_label_2
_geom_bond_distance
_geom_bond_site_symmetry_2
Li0_0 Li1_2 3.044073 1_555
Li0_0 Li1_4 3.044073 1_455
Li0_0 Li0_6 3.057324 1_445
Li0_0 Li0_6 3.057324 1_555
Li0_0 Li3_3 3.065788 1_555
Li0_0 Li3_4 3.065788 1_455
Li0_0 Li3_5 3.065788 1_455
Li0_0 Li3_2 3.065788 1_555
Li0_0 Li2_4 3.081876 1_455
Li0_0 Li2_2 3.081876 1_555
Li0_0 Li4_6 3.099076 1_455
Li0_0 Li4_7 3.099076 1_455
Li0_1 Li1_3 3.044073 1_555
Li0_1 Li1_5 3.044073 1_455
Li0_1 Li0_7 3.057324 1_445
Li0_1 Li0_7 3.057324 1_555
Li0_1 Li3_2 3.065788 1_556
Li0_1 Li3_3 3.065788 1_555
Li0_1 Li3_4 3.065788 1_456
Li0_1 Li3_5 3.065788 1_455
Li0_1 Li2_5 3.081876 1_455
Li0_1 Li2_3 3.081876 1_555
Li0_1 Li4_7 3.099076 1_455
Li0_1 Li4_6 3.099076 1_456
Li0_2 Li1_0 3.044073 1_565
Li0_2 Li1_6 3.044073 1_455
Li0_2 Li0_4 3.057324 1_455
Li0_2 Li0_4 3.057324 1_565
Li0_2 Li3_1 3.065788 1_565
Li0_2 Li3_0 3.065788 1_565
Li0_2 Li3_7 3.065788 1_455
Li0_2 Li3_6 3.065788 1_455
Li0_2 Li2_0 3.081876 1_565
Li0_2 Li2_6 3.081876 1_455
Li0_2 Li4_4 3.099076 1_465
Li0_2 Li4_5 3.099076 1_465
Li0_3 Li1_1 3.044073 1_565
Li0_3 Li1_7 3.044073 1_455
Li0_3 Li0_5 3.057324 1_455
Li0_3 Li0_5 3.057324 1_565
Li0_3 Li3_0 3.065788 1_566
Li0_3 Li3_1 3.065788 1_565
Li0_3 Li3_6 3.065788 1_456
Li0_3 Li3_7 3.065788 1_455
Li0_3 Li2_1 3.081876 1_565
Li0_3 Li2_7 3.081876 1_455
Li0_3 Li4_4 3.099076 1_466
Li0_3 Li4_5 3.099076 1_465
Li0_4 Li1_0 3.044073 1_555
Li0_4 Li1_6 3.044073 1_555
Li0_4 Li3_1 3.065788 1_555
Li0_4 Li3_0 3.065788 1_555
Li0_4 Li3_7 3.065788 1_555
Li0_4 Li3_6 3.065788 1_555
Li0_4 Li2_0 3.081876 1_555
Li0_4 Li2_6 3.081876 1_555
Li0_4 Li4_3 3.099076 1_555
Li0_4 Li4_2 3.099076 1_555
Li0_5 Li1_1 3.044073 1_555
Li0_5 Li1_7 3.044073 1_555
Li0_5 Li3_0 3.065788 1_556
Li0_5 Li3_1 3.065788 1_555
Li0_5 Li3_7 3.065788 1_555
Li0_5 Li3_6 3.065788 1_556
Li0_5 Li2_7 3.081876 1_555
Li0_5 Li2_1 3.081876 1_555
Li0_5 Li4_3 3.099076 1_555
Li0_5 Li4_2 3.099076 1_556
Li0_6 Li1_4 3.044073 1_565
Li0_6 Li1_2 3.044073 1_555
Li0_6 Li3_5 3.065788 1_565
Li0_6 Li3_4 3.065788 1_565
Li0_6 Li3_2 3.065788 1_555
Li0_6 Li3_3 3.065788 1_555
Li0_6 Li2_4 3.081876 1_565
Li0_6 Li2_2 3.081876 1_555
Li0_6 Li4_1 3.099076 1_565
Li0_6 Li4_0 3.099076 1_565
Li0_7 Li1_3 3.044073 1_555
Li0_7 Li1_5 3.044073 1_565
Li0_7 Li3_4 3.065788 1_566
Li0_7 Li3_5 3.065788 1_565
Li0_7 Li3_2 3.065788 1_556
Li0_7 Li3_3 3.065788 1_555
Li0_7 Li2_5 3.081876 1_565
Li0_7 Li2_3 3.081876 1_555
Li0_7 Li4_1 3.099076 1_565
Li0_7 Li4_0 3.099076 1_566
Li1_0 Li2_2 3.044889 1_545
Li1_0 Li2_4 3.044889 1_555
Li1_0 Li1_6 3.057324 1_445
Li1_0 Li1_6 3.057324 1_555
Li1_0 Mg0_3 3.066740 1_545
Li1_0 Mg0_4 3.066740 1_555
Li1_0 Mg0_5 3.066740 1_555
Li1_0 Mg0_2 3.066740 1_545
Li1_0 Li3_0 3.096800 1_555
Li1_0 Li3_1 3.096800 1_555
Li1_1 Li2_3 3.044889 1_545
Li1_1 Li2_5 3.044889 1_555
Li1_1 Li1_7 3.057324 1_445
Li1_1 Li1_7 3.057324 1_555
Li1_1 Mg0_4 3.066740 1_556
Li1_1 Mg0_3 3.066740 1_545
Li1_1 Mg0_2 3.066740 1_546
Li1_1 Mg0_5 3.066740 1_555
Li1_1 Li3_0 3.096800 1_556
Li1_1 Li3_1 3.096800 1_555
Li1_2 Li2_6 3.044889 1_555
Li1_2 Li2_0 3.044889 1_555
Li1_2 Li1_4 3.057324 1_565
Li1_2 Li1_4 3.057324 1_455
Li1_2 Mg0_0 3.066740 1_555
Li1_2 Mg0_1 3.066740 1_555
Li1_2 Mg0_6 3.066740 1_555
Li1_2 Mg0_7 3.066740 1_555
Li1_2 Li3_2 3.096800 1_555
Li1_2 Li3_3 3.096800 1_555
Li1_3 Li2_7 3.044889 1_555
Li1_3 Li2_1 3.044889 1_555
Li1_3 Li1_5 3.057324 1_565
Li1_3 Li1_5 3.057324 1_455
Li1_3 Mg0_0 3.066740 1_556
Li1_3 Mg0_1 3.066740 1_555
Li1_3 Mg0_7 3.066740 1_555
Li1_3 Mg0_6 3.066740 1_556
Li1_3 Li3_3 3.096800 1_555
Li1_3 Li3_2 3.096800 1_556
Li1_4 Li2_0 3.044889 1_655
Li1_4 Li2_6 3.044889 1_545
Li1_4 Mg0_0 3.066740 1_655
Li1_4 Mg0_1 3.066740 1_655
Li1_4 Mg0_6 3.066740 1_545
Li1_4 Mg0_7 3.066740 1_545
Li1_4 Li3_4 3.096800 1_555
Li1_4 Li3_5 3.096800 1_555
Li1_5 Li2_1 3.044889 1_655
Li1_5 Li2_7 3.044889 1_545
Li1_5 Mg0_0 3.066740 1_656
Li1_5 Mg0_1 3.066740 1_655
Li1_5 Mg0_7 3.066740 1_545
Li1_5 Mg0_6 3.066740 1_546
Li1_5 Li3_4 3.096800 1_556
Li1_5 Li3_5 3.096800 1_555
Li1_6 Li2_2 3.044889 1_655
Li1_6 Li2_4 3.044889 1_555
Li1_6 Mg0_2 3.066740 1_655
Li1_6 Mg0_3 3.066740 1_655
Li1_6 Mg0_4 3.066740 1_555
Li1_6 Mg0_5 3.066740 1_555
Li1_6 Li3_6 3.096800 1_555
Li1_6 Li3_7 3.096800 1_555
Li1_7 Li2_3 3.044889 1_655
Li1_7 Li2_5 3.044889 1_555
Li1_7 Mg0_2 3.066740 1_656
Li1_7 Mg0_3 3.066740 1_655
Li1_7 Mg0_4 3.066740 1_556
Li1_7 Mg0_5 3.066740 1_555
Li1_7 Li3_6 3.096800 1_556
Li1_7 Li3_7 3.096800 1_555
Li2_0 Li2_6 3.057324 1_555
Li2_0 Li2_6 3.057324 1_445
Li2_0 Li4_2 3.076852 1_555
Li2_0 Li4_3 3.076852 1_555
Li2_0 Li4_4 3.076852 1_455
Li2_0 Li4_5 3.076852 1_455
Li2_0 Mg0_0 3.095329 1_555
Li2_0 Mg0_1 3.095329 1_555
Li2_1 Li2_7 3.057324 1_555
Li2_1 Li2_7 3.057324 1_445
Li2_1 Li4_2 3.076852 1_556
Li2_1 Li4_3 3.076852 1_555
Li2_1 Li4_4 3.076852 1_456
Li2_1 Li4_5 3.076852 1_455
Li2_1 Mg0_0 3.095329 1_556
Li2_1 Mg0_1 3.095329 1_555
Li2_2 Li2_4 3.057324 1_455
Li2_2 Li2_4 3.057324 1_565
Li2_2 Li4_7 3.076852 1_455
Li2_2 Li4_0 3.076852 1_565
Li2_2 Li4_1 3.076852 1_565
Li2_2 Li4_6 3.076852 1_455
Li2_2 Mg0_2 3.095329 1_555
Li2_2 Mg0_3 3.095329 1_555
Li2_3 Li2_5 3.057324 1_455
Li2_3 Li2_5 3.057324 1_565
Li2_3 Li4_7 3.076852 1_455
Li2_3 Li4_6 3.076852 1_456
Li2_3 Li4_0 3.076852 1_566
Li2_3 Li4_1 3.076852 1_565
Li2_3 Mg0_2 3.095329 1_556
Li2_3 Mg0_3 3.095329 1_555
Li2_4 Li4_0 3.076852 1_555
Li2_4 Li4_7 3.076852 1_555
Li2_4 Li4_1 3.076852 1_555
Li2_4 Li4_6 3.076852 1_555
Li2_4 Mg0_4 3.095329 1_555
Li2_4 Mg0_5 3.095329 1_555
Li2_5 Li4_6 3.076852 1_556
Li2_5 Li4_0 3.076852 1_556
Li2_5 Li4_7 3.076852 1_555
Li2_5 Li4_1 3.076852 1_555
Li2_5 Mg0_4 3.095329 1_556
Li2_5 Mg0_5 3.095329 1_555
Li2_6 Li4_2 3.076852 1_555
Li2_6 Li4_4 3.076852 1_565
Li2_6 Li4_5 3.076852 1_565
Li2_6 Li4_3 3.076852 1_555
Li2_6 Mg0_6 3.095329 1_555
Li2_6 Mg0_7 3.095329 1_555
Li2_7 Li4_4 3.076852 1_566
Li2_7 Li4_2 3.076852 1_556
Li2_7 Li4_5 3.076852 1_565
Li2_7 Li4_3 3.076852 1_555
Li2_7 Mg0_7 3.095329 1_555
Li2_7 Mg0_6 3.095329 1_556
Li3_0 Mg0_2 3.047084 1_545
Li3_0 Mg0_4 3.047084 1_555
Li3_0 Li4_4 3.047465 1_455
Li3_0 Li4_2 3.047465 1_555
Li3_0 Li3_6 3.057324 1_555
Li3_0 Li3_6 3.057324 1_445
Li3_1 Mg0_3 3.047084 1_545
Li3_1 Mg0_5 3.047084 1_555
Li3_1 Li4_5 3.047465 1_455
Li3_1 Li4_3 3.047465 1_555
Li3_1 Li3_7 3.057324 1_555
Li3_1 Li3_7 3.057324 1_445
Li3_2 Mg0_0 3.047084 1_555
Li3_2 Mg0_6 3.047084 1_555
Li3_2 Li4_6 3.047465 1_455
Li3_2 Li4_0 3.047465 1_565
Li3_2 Li3_4 3.057324 1_455
Li3_2 Li3_4 3.057324 1_565
Li3_3 Mg0_1 3.047084 1_555
Li3_3 Mg0_7 3.047084 1_555
Li3_3 Li4_7 3.047465 1_455
Li3_3 Li4_1 3.047465 1_565
Li3_3 Li3_5 3.057324 1_455
Li3_3 Li3_5 3.057324 1_565
Li3_4 Mg0_0 3.047084 1_655
Li3_4 Mg0_6 3.047084 1_545
Li3_4 Li4_6 3.047465 1_555
Li3_4 Li4_0 3.047465 1_555
Li3_5 Mg0_1 3.047084 1_655
Li3_5 Mg0_7 3.047084 1_545
Li3_5 Li4_1 3.047465 1_555
Li3_5 Li4_7 3.047465 1_555
Li3_6 Mg0_2 3.047084 1_655
Li3_6 Mg0_4 3.047084 1_555
Li3_6 Li4_2 3.047465 1_555
Li3_6 Li4_4 3.047465 1_565
Li3_7 Mg0_3 3.047084 1_655
Li3_7 Mg0_5 3.047084 1_555
Li3_7 Li4_3 3.047465 1_555
Li3_7 Li4_5 3.047465 1_565
Li4_0 Li4_6 3.057324 1_445
Li4_0 Li4_6 3.057324 1_555
Li4_0 Mg0_4 3.076269 1_555
Li4_0 Mg0_2 3.076269 1_545
Li4_1 Li4_7 3.057324 1_555
Li4_1 Li4_7 3.057324 1_445
Li4_1 Mg0_5 3.076269 1_555
Li4_1 Mg0_3 3.076269 1_545
Li4_2 Li4_4 3.057324 1_455
Li4_2 Li4_4 3.057324 1_565
Li4_2 Mg0_6 3.076269 1_555
Li4_2 Mg0_0 3.076269 1_555
Li4_3 Li4_5 3.057324 1_455
Li4_3 Li4_5 3.057324 1_565
Li4_3 Mg0_7 3.076269 1_555
Li4_3 Mg0_1 3.076269 1_555
Li4_4 Mg0_6 3.076269 1_545
Li4_4 Mg0_0 3.076269 1_655
Li4_5 Mg0_7 3.076269 1_545
Li4_5 Mg0_1 3.076269 1_655
Li4_6 Mg0_4 3.076269 1_555
Li4_6 Mg0_2 3.076269 1_655
Li4_7 Mg0_5 3.076269 1_555
Li4_7 Mg0_3 3.076269 1_655
Mg0_0 Mg0_6 3.057324 1_555
Mg0_0 Mg0_6 3.057324 1_445
Mg0_1 Mg0_7 3.057324 1_555
Mg0_1 Mg0_7 3.057324 1_445
Mg0_2 Mg0_4 3.057324 1_565
Mg0_2 Mg0_4 3.057324 1_455
Mg0_3 Mg0_5 3.057324 1_565
Mg0_3 Mg0_5 3.057324 1_455
