# generated using pymatgen
data_KAgBr3
_symmetry_space_group_name_H-M   'P 1'
_cell_length_a   5.35361294
_cell_length_b   5.33953111
_cell_length_c   5.35115276
_cell_angle_alpha   89.88452946
_cell_angle_beta   89.97814515
_cell_angle_gamma   90.03146015
_symmetry_Int_Tables_number   1
_chemical_formula_structural   KAgBr3
_chemical_formula_sum   'K1 Ag1 Br3'
_cell_volume   152.96654601
_cell_formula_units_Z   1
loop_
 _symmetry_equiv_pos_site_id
 _symmetry_equiv_pos_as_xyz
  1  'x, y, z'
loop_
 _atom_site_type_symbol
 _atom_site_label
 _atom_site_symmetry_multiplicity
 _atom_site_fract_x
 _atom_site_fract_y
 _atom_site_fract_z
 _atom_site_occupancy
  K  K0  1  0.00058490  0.00320760  0.00228341  1
  Ag  Ag0  1  0.50001715  0.51393619  0.50212619  1
  Br  Br0  1  -0.00008625  0.51401889  0.50530094  1
  Br  Br1  1  0.49738659  0.01393913  0.49821265  1
  Br  Br2  1  0.50209760  0.51489918  0.00207680  1
loop_
_geom_bond_atom_site_label_1
_geom_bond_atom_site_label_2
_geom_bond_distance
_geom_bond_site_symmetry_2
Ag0 Br1 2.669866 1_565
Ag0 Br1 2.669904 1_555
Ag0 Br2 2.675355 1_556
Ag0 Br2 2.675854 1_555
Ag0 Br0 2.676313 1_655
Ag0 Br0 2.677408 1_555
Br0 K0 3.731396 1_566
Br0 K0 3.746969 1_565
Br0 K0 3.805598 1_556
Br0 K0 3.835909 1_555
Br1 K0 3.758411 1_555
Br1 K0 3.781334 1_655
Br1 K0 3.787702 1_556
Br1 K0 3.813316 1_656
Br2 K0 3.729958 1_665
Br2 K0 3.743611 1_565
Br2 K0 3.820325 1_655
Br2 K0 3.829559 1_555
