# generated using pymatgen
data_Rb(TeMo)3
_symmetry_space_group_name_H-M   'P 1'
_cell_length_a   10.04342817
_cell_length_b   10.04296532
_cell_length_c   4.60709789
_cell_angle_alpha   90.00000000
_cell_angle_beta   90.00000000
_cell_angle_gamma   119.99658325
_symmetry_Int_Tables_number   1
_chemical_formula_structural   Rb(TeMo)3
_chemical_formula_sum   'Rb2 Te6 Mo6'
_cell_volume   402.45466346
_cell_formula_units_Z   2
loop_
 _symmetry_equiv_pos_site_id
 _symmetry_equiv_pos_as_xyz
  1  'x, y, z'
loop_
 _atom_site_type_symbol
 _atom_site_label
 _atom_site_symmetry_multiplicity
 _atom_site_fract_x
 _atom_site_fract_y
 _atom_site_fract_z
 _atom_site_occupancy
  Rb  Rb0  1  0.33334373  0.66668343  0.25000000  1
  Rb  Rb1  1  0.66667058  0.33332715  0.75000000  1
  Te  Te0  1  0.34784699  0.05133395  0.25000000  1
  Te  Te1  1  0.94855778  0.29647417  0.25000000  1
  Te  Te2  1  0.70346336  0.65222187  0.25000000  1
  Te  Te3  1  0.65204345  0.94864443  0.75000000  1
  Te  Te4  1  0.29658896  0.34798185  0.75000000  1
  Te  Te5  1  0.05141565  0.70333333  0.75000000  1
  Mo  Mo0  1  0.83742036  0.97588702  0.25000000  1
  Mo  Mo1  1  0.13850028  0.16256699  0.25000000  1
  Mo  Mo2  1  0.02410245  0.86153806  0.25000000  1
  Mo  Mo3  1  0.16254046  0.02406886  0.75000000  1
  Mo  Mo4  1  0.97592459  0.13848182  0.75000000  1
  Mo  Mo5  1  0.86157836  0.83745307  0.75000000  1
loop_
_geom_bond_atom_site_label_1
_geom_bond_atom_site_label_2
_geom_bond_distance
_geom_bond_site_symmetry_2
Rb0 Te2 3.791968 1_555
Rb0 Te0 3.792307 1_565
Rb0 Te1 3.793604 1_455
Rb0 Te5 3.808077 1_555
Rb0 Te5 3.808077 1_554
Rb0 Te4 3.808640 1_555
Rb0 Te4 3.808640 1_554
Rb0 Te3 3.808859 1_555
Rb0 Te3 3.808859 1_554
Rb1 Te3 3.792045 1_545
Rb1 Te5 3.792427 1_655
Rb1 Te4 3.792611 1_555
Rb1 Te1 3.808707 1_556
Rb1 Te1 3.808707 1_555
Rb1 Te0 3.809547 1_555
Rb1 Te0 3.809547 1_556
Rb1 Te2 3.810053 1_555
Rb1 Te2 3.810053 1_556
Mo0 Mo2 2.643319 1_655
Mo0 Mo1 2.643886 1_665
Mo0 Mo5 2.763222 1_555
Mo0 Mo5 2.763222 1_554
Mo0 Mo4 2.763437 1_565
Mo0 Mo4 2.763437 1_564
Mo0 Te2 2.829026 1_555
Mo0 Te1 2.831717 1_565
Mo0 Te3 2.887599 1_555
Mo0 Te3 2.887599 1_554
Mo1 Mo2 2.643254 1_545
Mo1 Mo3 2.763173 1_555
Mo1 Mo3 2.763173 1_554
Mo1 Mo4 2.763336 1_454
Mo1 Mo4 2.763336 1_455
Mo1 Te1 2.830724 1_455
Mo1 Te0 2.831472 1_555
Mo1 Te4 2.887645 1_555
Mo1 Te4 2.887645 1_554
Mo2 Mo5 2.763052 1_454
Mo2 Mo5 2.763052 1_455
Mo2 Mo3 2.763080 1_564
Mo2 Mo3 2.763080 1_565
Mo2 Te0 2.829922 1_565
Mo2 Te2 2.832064 1_455
Mo2 Te5 2.888221 1_554
Mo2 Te5 2.888221 1_555
Mo3 Mo5 2.642864 1_445
Mo3 Mo4 2.643210 1_455
Mo3 Te4 2.831203 1_555
Mo3 Te5 2.833140 1_545
Mo3 Te0 2.887126 1_555
Mo3 Te0 2.887126 1_556
Mo4 Mo5 2.643324 1_545
Mo4 Te3 2.831077 1_545
Mo4 Te4 2.832580 1_655
Mo4 Te1 2.887146 1_556
Mo4 Te1 2.887146 1_555
Mo5 Te5 2.831495 1_655
Mo5 Te3 2.832928 1_555
Mo5 Te2 2.887024 1_556
Mo5 Te2 2.887024 1_555
