# generated using pymatgen
data_CsAg5Te3
_symmetry_space_group_name_H-M   'P 1'
_cell_length_a   14.79655142
_cell_length_b   14.79655142
_cell_length_c   4.60427631
_cell_angle_alpha   90.00000000
_cell_angle_beta   90.00000000
_cell_angle_gamma   90.00000000
_symmetry_Int_Tables_number   1
_chemical_formula_structural   CsAg5Te3
_chemical_formula_sum   'Cs4 Ag20 Te12'
_cell_volume   1008.05074253
_cell_formula_units_Z   4
loop_
 _symmetry_equiv_pos_site_id
 _symmetry_equiv_pos_as_xyz
  1  'x, y, z'
loop_
 _atom_site_type_symbol
 _atom_site_label
 _atom_site_symmetry_multiplicity
 _atom_site_fract_x
 _atom_site_fract_y
 _atom_site_fract_z
 _atom_site_occupancy
  Cs  Cs0  1  0.88768060  0.11231940  0.50000000  1
  Cs  Cs1  1  0.61231940  0.61231940  0.00000000  1
  Cs  Cs2  1  0.38768060  0.38768060  0.00000000  1
  Cs  Cs3  1  0.11231940  0.88768060  0.50000000  1
  Ag  Ag0  1  0.67826873  0.32173127  0.00000000  1
  Ag  Ag1  1  0.82173127  0.82173127  0.50000000  1
  Ag  Ag2  1  0.17826873  0.17826873  0.50000000  1
  Ag  Ag3  1  0.32173127  0.67826873  0.00000000  1
  Ag  Ag4  1  0.39759874  0.98320735  0.50000000  1
  Ag  Ag5  1  0.60240126  0.01679265  0.50000000  1
  Ag  Ag6  1  0.51679265  0.89759874  0.00000000  1
  Ag  Ag7  1  0.48320735  0.10240126  0.00000000  1
  Ag  Ag8  1  0.98320735  0.39759874  0.50000000  1
  Ag  Ag9  1  0.89759874  0.51679265  -0.00000000  1
  Ag  Ag10  1  0.10240126  0.48320735  -0.00000000  1
  Ag  Ag11  1  0.01679265  0.60240126  0.50000000  1
  Ag  Ag12  1  0.42022496  0.78777400  0.50000000  1
  Ag  Ag13  1  0.57977504  0.21222600  0.50000000  1
  Ag  Ag14  1  0.71222600  0.92022496  -0.00000000  1
  Ag  Ag15  1  0.28777400  0.07977504  -0.00000000  1
  Ag  Ag16  1  0.21222600  0.57977504  0.50000000  1
  Ag  Ag17  1  0.07977504  0.28777400  -0.00000000  1
  Ag  Ag18  1  0.92022496  0.71222600  -0.00000000  1
  Ag  Ag19  1  0.78777400  0.42022496  0.50000000  1
  Te  Te0  1  0.10136167  0.10136167  -0.00000000  1
  Te  Te1  1  0.60136167  0.39863833  0.50000000  1
  Te  Te2  1  0.39863833  0.60136167  0.50000000  1
  Te  Te3  1  0.89863833  0.89863833  0.00000000  1
  Te  Te4  1  0.32770546  0.88337578  -0.00000000  1
  Te  Te5  1  0.67229454  0.11662422  0.00000000  1
  Te  Te6  1  0.61662422  0.82770546  0.50000000  1
  Te  Te7  1  0.38337578  0.17229454  0.50000000  1
  Te  Te8  1  0.88337578  0.32770546  0.00000000  1
  Te  Te9  1  0.82770546  0.61662422  0.50000000  1
  Te  Te10  1  0.17229454  0.38337578  0.50000000  1
  Te  Te11  1  0.11662422  0.67229454  0.00000000  1
loop_
_geom_bond_atom_site_label_1
_geom_bond_atom_site_label_2
_geom_bond_distance
_geom_bond_site_symmetry_2
Cs0 Te3 3.914428 1_545
Cs0 Te3 3.914428 1_546
Cs0 Te0 3.914428 1_655
Cs0 Te0 3.914428 1_656
Cs0 Te5 3.932007 1_555
Cs0 Te5 3.932007 1_556
Cs0 Te8 3.932007 1_556
Cs0 Te8 3.932007 1_555
Cs1 Te2 3.914428 1_555
Cs1 Te1 3.914428 1_555
Cs1 Te1 3.914428 1_554
Cs1 Te2 3.914428 1_554
Cs1 Te9 3.932007 1_554
Cs1 Te6 3.932007 1_554
Cs1 Te6 3.932007 1_555
Cs1 Te9 3.932007 1_555
Cs2 Te2 3.914428 1_555
Cs2 Te1 3.914428 1_554
Cs2 Te2 3.914428 1_554
Cs2 Te1 3.914428 1_555
Cs2 Te7 3.932007 1_554
Cs2 Te10 3.932007 1_554
Cs2 Te7 3.932007 1_555
Cs2 Te10 3.932007 1_555
Cs3 Te3 3.914428 1_456
Cs3 Te3 3.914428 1_455
Cs3 Te0 3.914428 1_565
Cs3 Te0 3.914428 1_566
Cs3 Te11 3.932007 1_556
Cs3 Te11 3.932007 1_555
Cs3 Te4 3.932007 1_555
Cs3 Te4 3.932007 1_556
Ag0 Te1 2.808869 1_555
Ag0 Te1 2.808869 1_554
Ag0 Te5 3.036164 1_555
Ag0 Te8 3.036164 1_555
Ag0 Ag13 3.170037 1_555
Ag0 Ag19 3.170037 1_555
Ag0 Ag19 3.170037 1_554
Ag0 Ag13 3.170037 1_554
Ag1 Te3 2.808869 1_556
Ag1 Te3 2.808869 1_555
Ag1 Te6 3.036164 1_555
Ag1 Te9 3.036164 1_555
Ag1 Ag18 3.170037 1_555
Ag1 Ag14 3.170037 1_555
Ag1 Ag14 3.170037 1_556
Ag1 Ag18 3.170037 1_556
Ag2 Te0 2.808869 1_555
Ag2 Te0 2.808869 1_556
Ag2 Te10 3.036164 1_555
Ag2 Te7 3.036164 1_555
Ag3 Te2 2.808869 1_554
Ag3 Te2 2.808869 1_555
Ag3 Te11 3.036164 1_555
Ag3 Te4 3.036164 1_555
Ag4 Te7 2.805742 1_565
Ag4 Te4 2.924274 1_555
Ag4 Te4 2.924274 1_556
Ag5 Te6 2.805742 1_545
Ag5 Te5 2.924274 1_555
Ag5 Te5 2.924274 1_556
Ag6 Te4 2.805742 1_555
Ag6 Te6 2.924274 1_554
Ag6 Te6 2.924274 1_555
Ag7 Te5 2.805742 1_555
Ag7 Te7 2.924274 1_554
Ag7 Te7 2.924274 1_555
Ag8 Te10 2.805742 1_655
Ag8 Te8 2.924274 1_555
Ag8 Te8 2.924274 1_556
Ag9 Te8 2.805742 1_555
Ag9 Te9 2.924274 1_554
Ag9 Te9 2.924274 1_555
Ag10 Te11 2.805742 1_555
Ag10 Ag17 2.911055 1_555
Ag10 Te10 2.924274 1_555
Ag10 Te10 2.924274 1_554
Ag10 Ag16 3.159465 1_554
Ag10 Ag16 3.159465 1_555
Ag11 Te9 2.805742 1_455
Ag11 Ag16 2.911055 1_555
Ag11 Te11 2.924274 1_556
Ag11 Te11 2.924274 1_555
Ag11 Ag18 3.159465 1_456
Ag11 Ag18 3.159465 1_455
Ag12 Te2 2.776692 1_555
Ag12 Ag4 2.911055 1_555
Ag12 Te6 2.965488 1_555
Ag12 Te4 3.029017 1_555
Ag12 Te4 3.029017 1_556
Ag12 Ag6 3.159465 1_556
Ag12 Ag6 3.159465 1_555
Ag12 Ag3 3.170037 1_556
Ag12 Ag3 3.170037 1_555
Ag13 Te1 2.776692 1_555
Ag13 Ag5 2.911055 1_555
Ag13 Te7 2.965488 1_555
Ag13 Te5 3.029017 1_556
Ag13 Te5 3.029017 1_555
Ag13 Ag7 3.159465 1_556
Ag13 Ag7 3.159465 1_555
Ag14 Te3 2.776692 1_555
Ag14 Ag6 2.911055 1_555
Ag14 Te5 2.965488 1_565
Ag14 Te6 3.029017 1_554
Ag14 Te6 3.029017 1_555
Ag14 Ag5 3.159465 1_565
Ag14 Ag5 3.159465 1_564
Ag15 Te0 2.776692 1_555
Ag15 Ag7 2.911055 1_555
Ag15 Te4 2.965488 1_545
Ag15 Te7 3.029017 1_554
Ag15 Te7 3.029017 1_555
Ag15 Ag4 3.159465 1_545
Ag15 Ag4 3.159465 1_544
Ag15 Ag2 3.170037 1_555
Ag15 Ag2 3.170037 1_554
Ag16 Te2 2.776692 1_555
Ag16 Te10 2.965488 1_555
Ag16 Te11 3.029017 1_556
Ag16 Te11 3.029017 1_555
Ag16 Ag3 3.170037 1_556
Ag16 Ag3 3.170037 1_555
Ag17 Te0 2.776692 1_555
Ag17 Te8 2.965488 1_455
Ag17 Te10 3.029017 1_554
Ag17 Te10 3.029017 1_555
Ag17 Ag8 3.159465 1_454
Ag17 Ag8 3.159465 1_455
Ag17 Ag2 3.170037 1_555
Ag17 Ag2 3.170037 1_554
Ag18 Te3 2.776692 1_555
Ag18 Ag9 2.911055 1_555
Ag18 Te11 2.965488 1_655
Ag18 Te9 3.029017 1_554
Ag18 Te9 3.029017 1_555
Ag19 Te1 2.776692 1_555
Ag19 Ag8 2.911055 1_555
Ag19 Te9 2.965488 1_555
Ag19 Te8 3.029017 1_555
Ag19 Te8 3.029017 1_556
Ag19 Ag9 3.159465 1_556
Ag19 Ag9 3.159465 1_555
