# generated using pymatgen
data_K(ThSe3)2
_symmetry_space_group_name_H-M   'P 1'
_cell_length_a   11.60595405
_cell_length_b   11.60597730
_cell_length_c   11.60599580
_cell_angle_alpha   158.97419119
_cell_angle_beta   152.17541003
_cell_angle_gamma   35.13489485
_symmetry_Int_Tables_number   1
_chemical_formula_structural   K(ThSe3)2
_chemical_formula_sum   'K1 Th2 Se6'
_cell_volume   261.53120712
_cell_formula_units_Z   1
loop_
 _symmetry_equiv_pos_site_id
 _symmetry_equiv_pos_as_xyz
  1  'x, y, z'
loop_
 _atom_site_type_symbol
 _atom_site_label
 _atom_site_symmetry_multiplicity
 _atom_site_fract_x
 _atom_site_fract_y
 _atom_site_fract_z
 _atom_site_occupancy
  K  K0  1  0.00002616  0.00002933  0.00001154  1
  Th  Th0  1  0.32304229  0.82304199  0.50001975  1
  Th  Th1  1  0.67696329  0.17695494  0.49999383  1
  Se  Se0  1  0.22817170  0.22816022  0.00000709  1
  Se  Se1  1  0.35742869  0.60259971  0.75481271  1
  Se  Se2  1  0.64256738  0.39744161  0.24515983  1
  Se  Se3  1  0.15226590  0.39744547  0.75486192  1
  Se  Se4  1  0.84777922  0.60260559  0.24515396  1
  Se  Se5  1  0.77175638  0.77172114  -0.00002063  1
loop_
_geom_bond_atom_site_label_1
_geom_bond_atom_site_label_2
_geom_bond_distance
_geom_bond_site_symmetry_2
K0 Se1 3.414664 1_555
K0 Se1 3.414756 1_544
K0 Se4 3.414839 1_455
K0 Se3 3.414897 1_544
K0 Se4 3.414943 1_444
K0 Se2 3.414952 1_444
K0 Se3 3.414981 1_555
K0 Se2 3.415014 1_455
Se0 Th0 2.981871 1_544
Se0 Th0 2.981929 1_555
Se0 Th1 3.011715 1_555
Se0 Th1 3.011784 1_454
Se1 Se4 2.736602 1_556
Se1 Se4 2.844394 1_455
Se1 Th1 3.010636 1_566
Se1 Th1 3.010640 1_555
Se2 Se3 2.736372 1_554
Se2 Se3 2.844625 1_655
Se2 Th0 3.010959 1_555
Se2 Th0 3.010994 1_544
Se3 Th0 3.011055 1_556
Se3 Th0 3.011108 1_545
Se4 Th1 3.010512 1_554
Se4 Th1 3.010515 1_565
Se5 Th1 2.980539 1_554
Se5 Th1 2.980676 1_565
Se5 Th0 3.012435 1_554
Se5 Th0 3.012447 1_655
