# generated using pymatgen
data_Tm6Al7Cu16
_symmetry_space_group_name_H-M   'P 1'
_cell_length_a   8.58165935
_cell_length_b   8.58165744
_cell_length_c   8.58165015
_cell_angle_alpha   59.99123641
_cell_angle_beta   59.99129856
_cell_angle_gamma   59.99129565
_symmetry_Int_Tables_number   1
_chemical_formula_structural   Tm6Al7Cu16
_chemical_formula_sum   'Tm6 Al7 Cu16'
_cell_volume   446.79915995
_cell_formula_units_Z   1
loop_
 _symmetry_equiv_pos_site_id
 _symmetry_equiv_pos_as_xyz
  1  'x, y, z'
loop_
 _atom_site_type_symbol
 _atom_site_label
 _atom_site_symmetry_multiplicity
 _atom_site_fract_x
 _atom_site_fract_y
 _atom_site_fract_z
 _atom_site_occupancy
  Tm  Tm0  1  0.71225234  0.28776207  0.28776121  1
  Tm  Tm1  1  0.28774680  0.71223857  0.71223840  1
  Tm  Tm2  1  0.28776158  0.71225306  0.28776161  1
  Tm  Tm3  1  0.28776156  0.28776209  0.71225240  1
  Tm  Tm4  1  0.71223836  0.28774767  0.71223855  1
  Tm  Tm5  1  0.71223878  0.71223890  0.28774658  1
  Al  Al0  1  0.49999983  -0.00000079  0.00000090  1
  Al  Al1  1  -0.00000023  0.49999965  0.50000013  1
  Al  Al2  1  -0.00000013  0.50000013  0.00000008  1
  Al  Al3  1  0.00000037  -0.00000045  0.49999999  1
  Al  Al4  1  0.50000005  -0.00000049  0.50000024  1
  Al  Al5  1  0.50000000  0.49999957  0.00000006  1
  Al  Al6  1  -0.00000032  -0.00000054  0.00000031  1
  Cu  Cu0  1  0.32676785  0.32676785  0.32676801  1
  Cu  Cu1  1  0.32677407  0.32677381  0.01966637  1
  Cu  Cu2  1  0.01966568  0.32677418  0.32677438  1
  Cu  Cu3  1  0.32677377  0.01966611  0.32677393  1
  Cu  Cu4  1  0.67323210  0.67323204  0.67323207  1
  Cu  Cu5  1  0.67322591  0.67322574  0.98033386  1
  Cu  Cu6  1  0.67322645  0.98033361  0.67322586  1
  Cu  Cu7  1  0.98033400  0.67322524  0.67322610  1
  Cu  Cu8  1  0.12184816  0.12184896  0.12184738  1
  Cu  Cu9  1  0.12184731  0.12184686  0.63445748  1
  Cu  Cu10  1  0.63445670  0.12184827  0.12184628  1
  Cu  Cu11  1  0.12184847  0.63445633  0.12184647  1
  Cu  Cu12  1  0.87815092  0.87815117  0.87815145  1
  Cu  Cu13  1  0.87815223  0.87815376  0.36554332  1
  Cu  Cu14  1  0.87815265  0.36554199  0.87815344  1
  Cu  Cu15  1  0.36554274  0.87815364  0.87815316  1
loop_
_geom_bond_atom_site_label_1
_geom_bond_atom_site_label_2
_geom_bond_distance
_geom_bond_site_symmetry_2
Tm0 Tm3 3.642356 1_555
Tm0 Tm2 3.642356 1_555
Tm0 Tm5 3.642594 1_555
Tm0 Tm4 3.642594 1_555
Tm1 Tm4 3.642359 1_555
Tm1 Tm5 3.642364 1_555
Tm1 Tm2 3.642586 1_555
Tm1 Tm3 3.642588 1_555
Tm2 Tm3 3.642351 1_555
Tm2 Tm5 3.642593 1_555
Tm3 Tm4 3.642594 1_555
Tm4 Tm5 3.642357 1_555
Al0 Cu3 2.480895 1_555
Al0 Cu5 2.480901 1_544
Al0 Cu1 2.480905 1_555
Al0 Cu6 2.480906 1_544
Al0 Cu12 2.650119 1_544
Al0 Cu8 2.650123 1_555
Al0 Cu15 2.650570 1_544
Al0 Cu10 2.650576 1_555
Al0 Tm5 3.068132 1_545
Al0 Tm2 3.068133 1_545
Al0 Tm3 3.068147 1_554
Al0 Tm4 3.068149 1_554
Al1 Cu4 2.480828 1_455
Al1 Cu0 2.480828 1_555
Al1 Cu2 2.481285 1_555
Al1 Cu7 2.481288 1_455
Al1 Cu9 2.650117 1_555
Al1 Cu14 2.650119 1_455
Al1 Cu11 2.650121 1_555
Al1 Cu13 2.650126 1_455
Al1 Tm4 3.068428 1_455
Al1 Tm3 3.068432 1_555
Al1 Tm5 3.068432 1_455
Al1 Tm2 3.068439 1_555
Al2 Cu7 2.480898 1_454
Al2 Cu2 2.480900 1_555
Al2 Cu5 2.480902 1_454
Al2 Cu1 2.480904 1_555
Al2 Cu12 2.650116 1_454
Al2 Cu8 2.650118 1_555
Al2 Cu11 2.650576 1_555
Al2 Cu14 2.650582 1_454
Al2 Tm5 3.068139 1_455
Al2 Tm1 3.068140 1_554
Al2 Tm0 3.068141 1_455
Al2 Tm3 3.068143 1_554
Al3 Cu3 2.480899 1_555
Al3 Cu6 2.480901 1_445
Al3 Cu2 2.480903 1_555
Al3 Cu7 2.480904 1_445
Al3 Cu12 2.650117 1_445
Al3 Cu8 2.650125 1_555
Al3 Cu13 2.650571 1_445
Al3 Cu9 2.650579 1_555
Al3 Tm1 3.068135 1_545
Al3 Tm2 3.068138 1_545
Al3 Tm0 3.068148 1_455
Al3 Tm4 3.068149 1_455
Al4 Cu4 2.480823 1_545
Al4 Cu0 2.480828 1_555
Al4 Cu6 2.481290 1_545
Al4 Cu3 2.481291 1_555
Al4 Cu13 2.650115 1_545
Al4 Cu15 2.650116 1_545
Al4 Cu9 2.650119 1_555
Al4 Cu10 2.650123 1_555
Al4 Tm1 3.068432 1_545
Al4 Tm5 3.068433 1_545
Al4 Tm0 3.068436 1_555
Al4 Tm3 3.068437 1_555
Al5 Cu0 2.480824 1_555
Al5 Cu4 2.480826 1_554
Al5 Cu1 2.481287 1_555
Al5 Cu5 2.481290 1_554
Al5 Cu10 2.650107 1_555
Al5 Cu11 2.650111 1_555
Al5 Cu14 2.650119 1_554
Al5 Cu15 2.650126 1_554
Al5 Tm0 3.068426 1_555
Al5 Tm4 3.068428 1_554
Al5 Tm1 3.068434 1_554
Al5 Tm2 3.068438 1_555
Al6 Cu14 2.561036 1_454
Al6 Cu9 2.561036 1_554
Al6 Cu13 2.561037 1_445
Al6 Cu11 2.561040 1_545
Al6 Cu10 2.561041 1_455
Al6 Cu15 2.561042 1_544
Al6 Cu8 2.561504 1_555
Al6 Cu12 2.561510 1_444
Cu0 Cu1 2.635387 1_555
Cu0 Cu3 2.635391 1_555
Cu0 Cu2 2.635392 1_555
Cu0 Cu11 2.638406 1_555
Cu0 Cu10 2.638412 1_555
Cu0 Cu9 2.638412 1_555
Cu0 Tm3 3.010712 1_555
Cu0 Tm0 3.010715 1_555
Cu0 Tm2 3.010720 1_555
Cu1 Cu3 2.635142 1_555
Cu1 Cu2 2.635150 1_555
Cu1 Cu10 2.638600 1_555
Cu1 Cu11 2.638601 1_555
Cu1 Cu8 2.638706 1_555
Cu1 Tm1 3.010165 1_554
Cu1 Tm4 3.010165 1_554
Cu1 Tm3 3.010456 1_554
Cu2 Cu3 2.635150 1_555
Cu2 Cu9 2.638608 1_555
Cu2 Cu8 2.638712 1_555
Cu2 Tm4 3.010161 1_455
Cu2 Tm5 3.010164 1_455
Cu2 Tm0 3.010458 1_455
Cu3 Cu9 2.638609 1_555
Cu3 Cu8 2.638710 1_555
Cu3 Tm1 3.010161 1_545
Cu3 Tm5 3.010168 1_545
Cu3 Tm2 3.010451 1_545
Cu4 Cu5 2.635387 1_555
Cu4 Cu7 2.635389 1_555
Cu4 Cu6 2.635390 1_555
Cu4 Tm4 3.010712 1_555
Cu4 Tm5 3.010716 1_555
Cu4 Tm1 3.010721 1_555
Cu5 Cu6 2.635145 1_555
Cu5 Cu7 2.635148 1_555
Cu5 Tm0 3.010157 1_556
Cu5 Tm2 3.010165 1_556
Cu5 Tm5 3.010454 1_556
Cu6 Cu7 2.635149 1_555
Cu6 Tm0 3.010165 1_565
Cu6 Tm3 3.010171 1_565
Cu6 Tm4 3.010460 1_565
Cu7 Tm3 3.010158 1_655
Cu7 Tm2 3.010164 1_655
Cu7 Tm1 3.010455 1_655
Cu8 Tm3 2.902661 1_554
Cu8 Tm2 2.902670 1_545
Cu8 Tm0 2.902671 1_455
Cu9 Tm1 2.902819 1_545
Cu9 Tm4 2.902825 1_455
Cu9 Tm3 2.903390 1_555
Cu10 Cu3 2.638612 1_555
Cu10 Tm4 2.902811 1_554
Cu10 Tm5 2.902825 1_545
Cu10 Tm0 2.903388 1_555
Cu10 Cu14 2.957357 1_554
Cu10 Cu12 2.957372 1_544
Cu10 Cu13 2.957373 1_545
Cu11 Cu2 2.638608 1_555
Cu11 Tm1 2.902813 1_554
Cu11 Tm5 2.902829 1_455
Cu11 Tm2 2.903391 1_555
Cu11 Cu15 2.957369 1_554
Cu11 Cu12 2.957373 1_454
Cu11 Cu13 2.957386 1_455
Cu12 Cu6 2.638696 1_555
Cu12 Cu5 2.638700 1_555
Cu12 Cu7 2.638704 1_555
Cu12 Tm5 2.902660 1_556
Cu12 Tm1 2.902670 1_655
Cu12 Tm4 2.902671 1_565
Cu12 Cu9 2.957372 1_665
Cu13 Cu4 2.638411 1_555
Cu13 Cu6 2.638598 1_555
Cu13 Cu7 2.638606 1_555
Cu13 Tm0 2.902818 1_565
Cu13 Tm2 2.902828 1_655
Cu13 Tm5 2.903392 1_555
Cu13 Cu8 2.957366 1_665
Cu14 Cu4 2.638415 1_555
Cu14 Cu7 2.638609 1_555
Cu14 Cu5 2.638611 1_555
Cu14 Tm0 2.902814 1_556
Cu14 Tm3 2.902826 1_655
Cu14 Tm4 2.903383 1_555
Cu14 Cu8 2.957355 1_656
Cu14 Cu9 2.957367 1_655
Cu15 Cu4 2.638419 1_555
Cu15 Cu5 2.638607 1_555
Cu15 Cu6 2.638608 1_555
Cu15 Tm2 2.902816 1_556
Cu15 Tm3 2.902819 1_565
Cu15 Tm1 2.903398 1_555
Cu15 Cu8 2.957358 1_566
Cu15 Cu9 2.957365 1_565
