# generated using pymatgen
data_HfTlCuSe3
_symmetry_space_group_name_H-M   'P 1'
_cell_length_a   3.85306400
_cell_length_b   7.69899772
_cell_length_c   10.14654400
_cell_angle_alpha   90.00000000
_cell_angle_beta   90.00000000
_cell_angle_gamma   104.49121352
_symmetry_Int_Tables_number   1
_chemical_formula_structural   HfTlCuSe3
_chemical_formula_sum   'Hf2 Tl2 Cu2 Se6'
_cell_volume   291.41866645
_cell_formula_units_Z   2
loop_
 _symmetry_equiv_pos_site_id
 _symmetry_equiv_pos_as_xyz
  1  'x, y, z'
loop_
 _atom_site_type_symbol
 _atom_site_label
 _atom_site_symmetry_multiplicity
 _atom_site_fract_x
 _atom_site_fract_y
 _atom_site_fract_z
 _atom_site_occupancy
  Hf  Hf0  1  0.00000000  0.00000000  0.50000000  1
  Hf  Hf1  1  0.00000000  0.00000000  0.00000000  1
  Tl  Tl0  1  0.24813200  0.49626400  0.25000000  1
  Tl  Tl1  1  0.75186800  0.50373600  0.75000000  1
  Cu  Cu0  1  0.46450400  0.92900800  0.75000000  1
  Cu  Cu1  1  0.53549600  0.07099200  0.25000000  1
  Se  Se0  1  0.62351800  0.24703600  0.04876600  1
  Se  Se1  1  0.37648200  0.75296400  0.95123400  1
  Se  Se2  1  0.37648200  0.75296400  0.54876600  1
  Se  Se3  1  0.62351800  0.24703600  0.45123400  1
  Se  Se4  1  0.06656700  0.13313400  0.75000000  1
  Se  Se5  1  0.93343300  0.86686600  0.25000000  1
loop_
_geom_bond_atom_site_label_1
_geom_bond_atom_site_label_2
_geom_bond_distance
_geom_bond_site_symmetry_2
Hf0 Se3 2.710571 1_455
Hf0 Se2 2.710571 1_545
Hf0 Se2 2.710571 1_445
Hf0 Se3 2.710571 1_555
Hf0 Se5 2.723850 1_445
Hf0 Se4 2.723850 1_555
Hf1 Se0 2.710571 1_455
Hf1 Se1 2.710571 1_544
Hf1 Se0 2.710571 1_555
Hf1 Se1 2.710571 1_444
Hf1 Se5 2.723850 1_445
Hf1 Se4 2.723850 1_554
Cu0 Se2 2.427148 1_555
Cu0 Se1 2.427148 1_555
Cu0 Se4 2.454933 1_665
Cu0 Se4 2.454933 1_565
Cu1 Se0 2.427148 1_555
Cu1 Se3 2.427148 1_555
Cu1 Se5 2.454933 1_445
Cu1 Se5 2.454933 1_545
Se0 Tl0 3.366284 1_555
Se0 Tl0 3.366284 1_655
Se1 Tl1 3.366284 1_555
Se1 Tl1 3.366284 1_455
Se2 Tl1 3.366284 1_555
Se2 Tl1 3.366284 1_455
Se3 Tl0 3.366284 1_555
Se3 Tl0 3.366284 1_655
Se4 Tl1 3.367919 1_455
Se4 Tl1 3.367919 1_555
Se5 Tl0 3.367919 1_555
Se5 Tl0 3.367919 1_655
