# generated using pymatgen
data_CsTlF3
_symmetry_space_group_name_H-M   'P 1'
_cell_length_a   4.79643536
_cell_length_b   4.79643536
_cell_length_c   4.79672200
_cell_angle_alpha   90.00000000
_cell_angle_beta   90.00000000
_cell_angle_gamma   90.15156832
_symmetry_Int_Tables_number   1
_chemical_formula_structural   CsTlF3
_chemical_formula_sum   'Cs1 Tl1 F3'
_cell_volume   110.35200316
_cell_formula_units_Z   1
loop_
 _symmetry_equiv_pos_site_id
 _symmetry_equiv_pos_as_xyz
  1  'x, y, z'
loop_
 _atom_site_type_symbol
 _atom_site_label
 _atom_site_symmetry_multiplicity
 _atom_site_fract_x
 _atom_site_fract_y
 _atom_site_fract_z
 _atom_site_occupancy
  Cs  Cs0  1  0.00427300  0.99572700  0.50000000  1
  Tl  Tl0  1  0.50284000  0.49716000  0.00000000  1
  F  F0  1  0.50634100  0.99741400  0.00000000  1
  F  F1  1  0.49566100  0.50433900  0.50000000  1
  F  F2  1  0.00258600  0.49365900  0.00000000  1
loop_
_geom_bond_atom_site_label_1
_geom_bond_atom_site_label_2
_geom_bond_distance
_geom_bond_site_symmetry_2
Cs0 F1 3.337581 1_555
Cs0 F0 3.384712 1_455
Cs0 F0 3.384712 1_456
Cs0 F2 3.384712 1_565
Cs0 F2 3.384712 1_566
Cs0 F1 3.387608 1_565
Cs0 F1 3.387608 1_455
Cs0 F2 3.398709 1_556
Cs0 F2 3.398709 1_555
Cs0 F0 3.398709 1_556
Cs0 F0 3.398709 1_555
Cs0 F1 3.454569 1_465
F0 Tl0 2.397103 1_565
F0 Tl0 2.399450 1_555
F1 Tl0 2.398857 1_555
F1 Tl0 2.398857 1_556
F2 Tl0 2.397103 1_455
F2 Tl0 2.399450 1_555
