# generated using pymatgen
data_LiBeH3
_symmetry_space_group_name_H-M   'P 1'
_cell_length_a   5.86683167
_cell_length_b   5.86683167
_cell_length_c   8.32258400
_cell_angle_alpha   90.00000000
_cell_angle_beta   90.00000000
_cell_angle_gamma   120.22448204
_symmetry_Int_Tables_number   1
_chemical_formula_structural   LiBeH3
_chemical_formula_sum   'Li6 Be6 H18'
_cell_volume   247.51939548
_cell_formula_units_Z   6
loop_
 _symmetry_equiv_pos_site_id
 _symmetry_equiv_pos_as_xyz
  1  'x, y, z'
loop_
 _atom_site_type_symbol
 _atom_site_label
 _atom_site_symmetry_multiplicity
 _atom_site_fract_x
 _atom_site_fract_y
 _atom_site_fract_z
 _atom_site_occupancy
  Li  Li0  1  0.50000000  0.50000000  0.50000000  1
  Li  Li1  1  0.17185400  0.82814600  0.50000000  1
  Li  Li2  1  0.82814600  0.17185400  0.50000000  1
  Li  Li3  1  0.50000000  0.50000000  0.00000000  1
  Li  Li4  1  0.17185400  0.82814600  0.00000000  1
  Li  Li5  1  0.82814600  0.17185400  0.00000000  1
  Be  Be0  1  0.08039400  0.08039400  0.75000000  1
  Be  Be1  1  0.83446800  0.58972500  0.75000000  1
  Be  Be2  1  0.58972500  0.83446800  0.75000000  1
  Be  Be3  1  0.91960600  0.91960600  0.25000000  1
  Be  Be4  1  0.41027500  0.16553200  0.25000000  1
  Be  Be5  1  0.16553200  0.41027500  0.25000000  1
  H  H0  1  0.19160400  0.19160400  0.59922600  1
  H  H1  1  0.83436000  0.47710900  0.60163000  1
  H  H2  1  0.47710900  0.83436000  0.60163000  1
  H  H3  1  0.59056900  0.59056900  0.75000000  1
  H  H4  1  0.07921800  0.83567300  0.75000000  1
  H  H5  1  0.83567300  0.07921800  0.75000000  1
  H  H6  1  0.83436000  0.47710900  0.89837000  1
  H  H7  1  0.47710900  0.83436000  0.89837000  1
  H  H8  1  0.19160400  0.19160400  0.90077400  1
  H  H9  1  0.80839600  0.80839600  0.09922600  1
  H  H10  1  0.52289100  0.16564000  0.10163000  1
  H  H11  1  0.16564000  0.52289100  0.10163000  1
  H  H12  1  0.40943100  0.40943100  0.25000000  1
  H  H13  1  0.16432700  0.92078200  0.25000000  1
  H  H14  1  0.92078200  0.16432700  0.25000000  1
  H  H15  1  0.52289100  0.16564000  0.39837000  1
  H  H16  1  0.16564000  0.52289100  0.39837000  1
  H  H17  1  0.80839600  0.80839600  0.40077400  1
loop_
_geom_bond_atom_site_label_1
_geom_bond_atom_site_label_2
_geom_bond_distance
_geom_bond_site_symmetry_2
Be0 H8 1.413295 1_555
Be0 H0 1.413295 1_555
Be0 H4 1.432276 1_545
Be0 H5 1.432276 1_455
Be1 H1 1.400317 1_555
Be1 H6 1.400317 1_555
Be1 H3 1.433413 1_555
Be1 H4 1.434547 1_655
Be2 H2 1.400317 1_555
Be2 H7 1.400317 1_555
Be2 H3 1.433413 1_555
Be2 H5 1.434547 1_565
Be3 H17 1.413295 1_555
Be3 H9 1.413295 1_555
Be3 H13 1.432276 1_655
Be3 H14 1.432276 1_565
Be4 H10 1.400317 1_555
Be4 H15 1.400317 1_555
Be4 H12 1.433413 1_555
Be4 H13 1.434547 1_545
Be5 H11 1.400317 1_555
Be5 H16 1.400317 1_555
Be5 H12 1.433413 1_555
Be5 H14 1.434547 1_455
H0 Li0 1.983274 1_555
H0 Li2 2.234626 1_455
H0 Li1 2.234626 1_545
H1 Li2 1.964247 1_555
H1 Li1 2.184466 1_655
H1 Li0 2.201520 1_555
H2 Li1 1.964247 1_555
H2 Li2 2.184466 1_565
H2 Li0 2.201520 1_555
H3 Li0 2.146977 1_555
H3 Li3 2.146977 1_556
H4 Li1 2.156518 1_555
H4 Li4 2.156518 1_556
H5 Li5 2.156518 1_556
H5 Li2 2.156518 1_555
H6 Li5 1.964247 1_556
H6 Li4 2.184466 1_656
H6 Li3 2.201520 1_556
H7 Li4 1.964247 1_556
H7 Li5 2.184466 1_566
H7 Li3 2.201520 1_556
H8 Li3 1.983274 1_556
H8 Li5 2.234626 1_456
H8 Li4 2.234626 1_546
H9 Li3 1.983274 1_555
H9 Li5 2.234626 1_565
H9 Li4 2.234626 1_655
H10 Li5 1.964247 1_555
H10 Li4 2.184466 1_545
H10 Li3 2.201520 1_555
H11 Li4 1.964247 1_555
H11 Li5 2.184466 1_455
H11 Li3 2.201520 1_555
H12 Li3 2.146977 1_555
H12 Li0 2.146977 1_555
H13 Li1 2.156518 1_555
H13 Li4 2.156518 1_555
H14 Li5 2.156518 1_555
H14 Li2 2.156518 1_555
H15 Li2 1.964247 1_555
H15 Li1 2.184466 1_545
H15 Li0 2.201520 1_555
H16 Li1 1.964247 1_555
H16 Li2 2.184466 1_455
H16 Li0 2.201520 1_555
H17 Li0 1.983274 1_555
H17 Li2 2.234626 1_565
H17 Li1 2.234626 1_655
