# generated using pymatgen
data_Li3Cr
_symmetry_space_group_name_H-M   'P 1'
_cell_length_a   5.86603670
_cell_length_b   5.86603670
_cell_length_c   4.89948700
_cell_angle_alpha   90.00000000
_cell_angle_beta   90.00000000
_cell_angle_gamma   120.00000786
_symmetry_Int_Tables_number   1
_chemical_formula_structural   Li3Cr
_chemical_formula_sum   'Li6 Cr2'
_cell_volume   146.00601845
_cell_formula_units_Z   2
loop_
 _symmetry_equiv_pos_site_id
 _symmetry_equiv_pos_as_xyz
  1  'x, y, z'
loop_
 _atom_site_type_symbol
 _atom_site_label
 _atom_site_symmetry_multiplicity
 _atom_site_fract_x
 _atom_site_fract_y
 _atom_site_fract_z
 _atom_site_occupancy
  Li  Li0  1  0.16721400  0.33442700  0.25000000  1
  Li  Li1  1  0.66557300  0.83278600  0.25000000  1
  Li  Li2  1  0.16721400  0.83278600  0.25000000  1
  Li  Li3  1  0.83278600  0.66557300  0.75000000  1
  Li  Li4  1  0.33442700  0.16721400  0.75000000  1
  Li  Li5  1  0.83278600  0.16721400  0.75000000  1
  Cr  Cr0  1  0.33333300  0.66666700  0.75000000  1
  Cr  Cr1  1  0.66666700  0.33333300  0.25000000  1
loop_
_geom_bond_atom_site_label_1
_geom_bond_atom_site_label_2
_geom_bond_distance
_geom_bond_site_symmetry_2
Li0 Li1 2.923392 1_555
Li0 Li2 2.923392 1_555
Li0 Li1 2.942644 1_445
Li0 Li2 2.942645 1_545
Li0 Li4 2.981209 1_554
Li0 Li4 2.981209 1_555
Li0 Li5 2.981214 1_455
Li0 Li5 2.981214 1_454
Li1 Li2 2.923392 1_555
Li1 Li2 2.942645 1_655
Li1 Li3 2.981209 1_555
Li1 Li3 2.981209 1_554
Li1 Li5 2.981214 1_564
Li1 Li5 2.981214 1_565
Li2 Li4 2.981214 1_565
Li2 Li4 2.981214 1_564
Li2 Li3 2.981214 1_455
Li2 Li3 2.981214 1_454
Li3 Li4 2.923392 1_555
Li3 Li5 2.923392 1_555
Li3 Li4 2.942644 1_665
Li3 Li5 2.942645 1_565
Li4 Li5 2.923392 1_555
Li4 Li5 2.942645 1_455
Cr0 Li5 2.933023 1_565
Cr0 Li5 2.933023 1_455
Cr0 Li4 2.933024 1_565
Cr0 Li3 2.933024 1_455
Cr0 Li3 2.933024 1_555
Cr0 Li4 2.933024 1_555
Cr0 Li2 2.974888 1_555
Cr0 Li2 2.974888 1_556
Cr0 Li0 2.974894 1_556
Cr0 Li0 2.974894 1_555
Cr0 Li1 2.974894 1_555
Cr0 Li1 2.974894 1_556
Cr1 Li2 2.933023 1_655
Cr1 Li2 2.933023 1_545
Cr1 Li0 2.933024 1_655
Cr1 Li1 2.933024 1_545
Cr1 Li1 2.933024 1_555
Cr1 Li0 2.933024 1_555
Cr1 Li5 2.974888 1_554
Cr1 Li5 2.974888 1_555
Cr1 Li3 2.974894 1_554
Cr1 Li4 2.974894 1_554
Cr1 Li3 2.974894 1_555
Cr1 Li4 2.974894 1_555
