# generated using pymatgen
data_SrAs3
_symmetry_space_group_name_H-M   'P 1'
_cell_length_a   5.93021440
_cell_length_b   6.18916343
_cell_length_c   6.18916383
_cell_angle_alpha   77.15707776
_cell_angle_beta   72.35830884
_cell_angle_gamma   72.35829562
_symmetry_Int_Tables_number   1
_chemical_formula_structural   SrAs3
_chemical_formula_sum   'Sr2 As6'
_cell_volume   204.15830866
_cell_formula_units_Z   2
loop_
 _symmetry_equiv_pos_site_id
 _symmetry_equiv_pos_as_xyz
  1  'x, y, z'
loop_
 _atom_site_type_symbol
 _atom_site_label
 _atom_site_symmetry_multiplicity
 _atom_site_fract_x
 _atom_site_fract_y
 _atom_site_fract_z
 _atom_site_occupancy
  Sr  Sr0  1  0.33489545  0.33606509  0.33606509  1
  Sr  Sr1  1  0.66510455  0.66393491  0.66393491  1
  As  As0  1  0.80703574  0.12782943  0.59446388  1
  As  As1  1  0.19296426  0.40553612  0.87217057  1
  As  As2  1  0.78886468  0.00256554  0.00256554  1
  As  As3  1  0.21113532  0.99743446  0.99743446  1
  As  As4  1  0.80703574  0.59446388  0.12782943  1
  As  As5  1  0.19296426  0.87217057  0.40553612  1
loop_
_geom_bond_atom_site_label_1
_geom_bond_atom_site_label_2
_geom_bond_distance
_geom_bond_site_symmetry_2
As0 As2 2.451021 1_556
As0 As5 2.472716 1_645
As0 Sr1 3.135796 1_545
As0 Sr1 3.259577 1_555
As0 Sr0 3.415945 1_555
As0 Sr0 3.537263 1_655
As1 As3 2.451021 1_545
As1 As4 2.472716 1_456
As1 Sr0 3.135796 1_556
As1 Sr0 3.259577 1_555
As1 Sr1 3.415946 1_555
As1 Sr1 3.537262 1_455
As2 As4 2.451021 1_545
As2 As3 2.485328 1_644
As2 Sr0 3.305486 1_555
As3 As5 2.451021 1_556
As3 Sr1 3.305486 1_555
As4 Sr1 3.135796 1_554
As4 Sr1 3.259577 1_555
As4 Sr0 3.415946 1_555
As4 Sr0 3.537262 1_655
As5 Sr0 3.135796 1_565
As5 Sr0 3.259577 1_555
As5 Sr1 3.415945 1_555
As5 Sr1 3.537263 1_455
