# generated using pymatgen
data_Li(Fe2O3)4
_symmetry_space_group_name_H-M   'P 1'
_cell_length_a   5.97719948
_cell_length_b   5.99319591
_cell_length_c   13.44468737
_cell_angle_alpha   103.09989205
_cell_angle_beta   103.09598309
_cell_angle_gamma   89.94287530
_symmetry_Int_Tables_number   1
_chemical_formula_structural   Li(Fe2O3)4
_chemical_formula_sum   'Li2 Fe16 O24'
_cell_volume   456.24479474
_cell_formula_units_Z   2
loop_
 _symmetry_equiv_pos_site_id
 _symmetry_equiv_pos_as_xyz
  1  'x, y, z'
loop_
 _atom_site_type_symbol
 _atom_site_label
 _atom_site_symmetry_multiplicity
 _atom_site_fract_x
 _atom_site_fract_y
 _atom_site_fract_z
 _atom_site_occupancy
  Li  Li0  1  0.45504400  0.21127600  0.41617500  1
  Li  Li1  1  0.45850900  0.20941800  0.91670000  1
  Fe  Fe0  1  0.99661300  0.99290700  0.99750700  1
  Fe  Fe1  1  0.78537200  0.53222500  0.08042100  1
  Fe  Fe2  1  0.29059800  0.53492400  0.07954900  1
  Fe  Fe3  1  0.57950000  0.08498300  0.16368600  1
  Fe  Fe4  1  0.13482000  0.87923800  0.25429400  1
  Fe  Fe5  1  0.13458100  0.37243500  0.25234700  1
  Fe  Fe6  1  0.67396900  0.66868800  0.33838700  1
  Fe  Fe7  1  0.96395800  0.20980000  0.41667600  1
  Fe  Fe8  1  0.24836900  0.74741200  0.49957600  1
  Fe  Fe9  1  0.78332500  0.03855200  0.58082900  1
  Fe  Fe10  1  0.78719100  0.54312700  0.58291500  1
  Fe  Fe11  1  0.33622100  0.33092000  0.66731900  1
  Fe  Fe12  1  0.62720700  0.88156300  0.75355200  1
  Fe  Fe13  1  0.12597900  0.88082600  0.75163500  1
  Fe  Fe14  1  0.91897000  0.42122200  0.83467000  1
  Fe  Fe15  1  0.45397000  0.70591600  0.91603400  1
  O  O0  1  0.54828000  0.30694100  0.08318300  1
  O  O1  1  0.54434500  0.77836700  0.07641400  1
  O  O2  1  0.03858000  0.30258500  0.08683200  1
  O  O3  1  0.03935700  0.78083000  0.08948000  1
  O  O4  1  0.88780300  0.62193200  0.24350200  1
  O  O5  1  0.36364700  0.62576100  0.25148900  1
  O  O6  1  0.35672800  0.12259200  0.24549700  1
  O  O7  1  0.88682300  0.12714300  0.25356900  1
  O  O8  1  0.19092600  0.97371800  0.40731400  1
  O  O9  1  0.19106200  0.43377000  0.40509500  1
  O  O10  1  0.72059300  0.97151300  0.42637100  1
  O  O11  1  0.72278500  0.45977100  0.42784100  1
  O  O12  1  0.56370200  0.29403700  0.58684200  1
  O  O13  1  0.02682400  0.29143100  0.58085200  1
  O  O14  1  0.02480400  0.80210700  0.59951200  1
  O  O15  1  0.56533800  0.79519600  0.59220500  1
  O  O16  1  0.87748800  0.64122800  0.74647700  1
  O  O17  1  0.87579500  0.10743800  0.74724800  1
  O  O18  1  0.37463800  0.64474400  0.75386700  1
  O  O19  1  0.36904500  0.09837800  0.74534300  1
  O  O20  1  0.21184300  0.94409900  0.90558100  1
  O  O21  1  0.69723000  0.94278600  0.90729500  1
  O  O22  1  0.69950500  0.47055500  0.92178000  1
  O  O23  1  0.21866400  0.46764400  0.91414100  1
loop_
_geom_bond_atom_site_label_1
_geom_bond_atom_site_label_2
_geom_bond_distance
_geom_bond_site_symmetry_2
Li0 O9 2.066227 1_555
Li0 O8 2.091846 1_545
Li0 O11 2.142140 1_555
Li0 O10 2.142213 1_545
Li0 O6 2.174903 1_555
Li0 O12 2.177674 1_555
Li1 O22 2.107243 1_555
Li1 O23 2.109223 1_555
Li1 O0 2.122005 1_556
Li1 O20 2.126407 1_545
Li1 O21 2.142694 1_545
Li1 O19 2.187223 1_555
Fe0 O21 1.901544 1_555
Fe0 O3 1.943821 1_656
Fe0 O2 1.950343 1_666
Fe0 O20 1.955495 1_655
Fe1 O0 1.970542 1_555
Fe1 O22 2.023896 1_554
Fe1 O2 2.045160 1_655
Fe1 O1 2.061840 1_555
Fe1 O4 2.080686 1_555
Fe1 O3 2.092342 1_655
Fe2 O0 2.057552 1_555
Fe2 O2 2.085778 1_555
Fe2 O3 2.107656 1_555
Fe2 O23 2.110347 1_554
Fe2 O1 2.119455 1_555
Fe2 O5 2.191685 1_555
Fe3 O0 1.880540 1_555
Fe3 O6 1.893250 1_555
Fe3 O1 1.925970 1_545
Fe3 O7 1.937799 1_555
Fe4 O8 1.955828 1_555
Fe4 O6 2.013347 1_565
Fe4 O5 2.042838 1_555
Fe4 O4 2.094057 1_455
Fe4 O7 2.097725 1_465
Fe4 O3 2.102096 1_555
Fe5 O9 1.952034 1_555
Fe5 O6 2.000650 1_555
Fe5 O5 2.049156 1_555
Fe5 O7 2.093034 1_455
Fe5 O4 2.102969 1_455
Fe5 O2 2.110926 1_555
Fe6 O11 1.903190 1_555
Fe6 O10 1.910295 1_555
Fe6 O5 1.937604 1_555
Fe6 O4 1.978807 1_555
Fe7 O8 1.962403 1_645
Fe7 O9 1.965404 1_655
Fe7 O7 2.077674 1_555
Fe7 O11 2.082489 1_555
Fe7 O10 2.084919 1_545
Fe7 O13 2.094682 1_655
Fe8 O9 1.996495 1_555
Fe8 O15 1.998150 1_555
Fe8 O8 2.016135 1_555
Fe8 O14 2.076423 1_555
Fe9 O10 1.970706 1_545
Fe9 O15 2.010834 1_545
Fe9 O12 2.015504 1_555
Fe9 O14 2.036527 1_645
Fe9 O13 2.102188 1_655
Fe9 O17 2.122131 1_555
Fe10 O11 1.977167 1_555
Fe10 O15 2.010417 1_555
Fe10 O12 2.021758 1_555
Fe10 O14 2.044452 1_655
Fe10 O13 2.079072 1_655
Fe10 O16 2.085536 1_555
Fe11 O12 1.904210 1_555
Fe11 O19 1.910530 1_555
Fe11 O13 1.931161 1_555
Fe11 O18 1.957519 1_555
Fe12 O21 1.961343 1_555
Fe12 O19 2.016335 1_565
Fe12 O17 2.039753 1_565
Fe12 O15 2.058698 1_555
Fe12 O18 2.074462 1_555
Fe12 O16 2.078404 1_555
Fe13 O14 1.942679 1_555
Fe13 O20 1.963242 1_555
Fe13 O19 1.981764 1_565
Fe13 O17 2.019036 1_465
Fe13 O16 2.045795 1_455
Fe13 O18 2.051020 1_555
Fe14 O23 1.851157 1_655
Fe14 O22 1.928290 1_555
Fe14 O16 1.944426 1_555
Fe14 O17 1.961167 1_555
Fe15 O23 1.997331 1_555
Fe15 O22 2.035543 1_555
Fe15 O20 2.036320 1_555
Fe15 O1 2.044018 1_556
Fe15 O18 2.069397 1_555
Fe15 O21 2.073738 1_555
