# generated using pymatgen
data_Na
_symmetry_space_group_name_H-M   'P 1'
_cell_length_a   7.39448056
_cell_length_b   7.39219961
_cell_length_c   19.22796693
_cell_angle_alpha   78.72173424
_cell_angle_beta   101.27929954
_cell_angle_gamma   119.70566347
_symmetry_Int_Tables_number   1
_chemical_formula_structural   Na
_chemical_formula_sum   Na24
_cell_volume   889.24887661
_cell_formula_units_Z   24
loop_
 _symmetry_equiv_pos_site_id
 _symmetry_equiv_pos_as_xyz
  1  'x, y, z'
loop_
 _atom_site_type_symbol
 _atom_site_label
 _atom_site_symmetry_multiplicity
 _atom_site_fract_x
 _atom_site_fract_y
 _atom_site_fract_z
 _atom_site_occupancy
  Na  Na0_0  1  0.00000000  0.00000000  0.00000000  1
  Na  Na0_1  1  0.00000000  0.00000000  0.50000000  1
  Na  Na0_2  1  0.00000000  0.50000000  0.00000000  1
  Na  Na0_3  1  1.00000000  0.50000000  0.50000000  1
  Na  Na0_4  1  0.50000000  0.00000000  0.00000000  1
  Na  Na0_5  1  0.50000000  0.00000000  0.50000000  1
  Na  Na0_6  1  0.50000000  0.50000000  0.00000000  1
  Na  Na0_7  1  0.50000000  0.50000000  0.50000000  1
  Na  Na1_0  1  0.38838150  0.11079650  0.16666200  1
  Na  Na1_1  1  0.38838150  0.11079650  0.66666200  1
  Na  Na1_2  1  0.38838150  0.61079650  0.16666200  1
  Na  Na1_3  1  0.38838150  0.61079650  0.66666200  1
  Na  Na1_4  1  0.88838150  0.11079650  0.16666200  1
  Na  Na1_5  1  0.88838150  0.11079650  0.66666200  1
  Na  Na1_6  1  0.88838150  0.61079650  0.16666200  1
  Na  Na1_7  1  0.88838150  0.61079650  0.66666200  1
  Na  Na2_0  1  0.11161850  0.38920350  0.33333800  1
  Na  Na2_1  1  0.11161850  0.38920350  0.83333800  1
  Na  Na2_2  1  0.11161850  0.88920350  0.33333800  1
  Na  Na2_3  1  0.11161850  0.88920350  0.83333800  1
  Na  Na2_4  1  0.61161850  0.38920350  0.33333800  1
  Na  Na2_5  1  0.61161850  0.38920350  0.83333800  1
  Na  Na2_6  1  0.61161850  0.88920350  0.33333800  1
  Na  Na2_7  1  0.61161850  0.88920350  0.83333800  1
loop_
_geom_bond_atom_site_label_1
_geom_bond_atom_site_label_2
_geom_bond_distance
_geom_bond_site_symmetry_2
Na0_0 Na0_2 3.696100 1_545
Na0_0 Na0_2 3.696100 1_555
Na0_0 Na0_4 3.697240 1_455
Na0_0 Na0_4 3.697240 1_555
Na0_0 Na0_6 3.713104 1_445
Na0_0 Na0_6 3.713104 1_555
Na0_0 Na1_0 3.779297 1_555
Na0_0 Na2_7 3.779297 1_444
Na0_0 Na1_6 3.781920 1_445
Na0_0 Na2_1 3.781920 1_554
Na0_0 Na1_4 3.788477 1_455
Na0_0 Na2_3 3.788477 1_544
Na0_1 Na0_3 3.696100 1_445
Na0_1 Na0_3 3.696100 1_455
Na0_1 Na0_5 3.697240 1_455
Na0_1 Na0_5 3.697240 1_555
Na0_1 Na0_7 3.713104 1_445
Na0_1 Na0_7 3.713104 1_555
Na0_1 Na1_1 3.779297 1_555
Na0_1 Na2_6 3.779297 1_445
Na0_1 Na1_7 3.781920 1_445
Na0_1 Na2_0 3.781920 1_555
Na0_1 Na2_2 3.788477 1_545
Na0_1 Na1_5 3.788477 1_455
Na0_2 Na0_6 3.697240 1_455
Na0_2 Na0_6 3.697240 1_555
Na0_2 Na0_4 3.713104 1_565
Na0_2 Na0_4 3.713104 1_455
Na0_2 Na1_2 3.779297 1_555
Na0_2 Na2_5 3.779297 1_454
Na0_2 Na1_4 3.781920 1_455
Na0_2 Na2_3 3.781920 1_554
Na0_2 Na1_6 3.788477 1_455
Na0_2 Na2_1 3.788477 1_554
Na0_3 Na0_7 3.697240 1_555
Na0_3 Na0_7 3.697240 1_655
Na0_3 Na0_5 3.713104 1_555
Na0_3 Na0_5 3.713104 1_665
Na0_3 Na2_4 3.779297 1_555
Na0_3 Na1_3 3.779297 1_655
Na0_3 Na2_2 3.781920 1_655
Na0_3 Na1_5 3.781920 1_555
Na0_3 Na1_7 3.788477 1_555
Na0_3 Na2_0 3.788477 1_655
Na0_4 Na0_6 3.696100 1_545
Na0_4 Na0_6 3.696100 1_555
Na0_4 Na1_4 3.779297 1_555
Na0_4 Na2_3 3.779297 1_544
Na0_4 Na1_2 3.781920 1_545
Na0_4 Na2_5 3.781920 1_554
Na0_4 Na1_0 3.788477 1_555
Na0_4 Na2_7 3.788477 1_544
Na0_5 Na0_7 3.696100 1_545
Na0_5 Na0_7 3.696100 1_555
Na0_5 Na2_2 3.779297 1_545
Na0_5 Na1_5 3.779297 1_555
Na0_5 Na1_3 3.781920 1_545
Na0_5 Na2_4 3.781920 1_555
Na0_5 Na2_6 3.788477 1_545
Na0_5 Na1_1 3.788477 1_555
Na0_6 Na1_6 3.779297 1_555
Na0_6 Na2_1 3.779297 1_554
Na0_6 Na1_0 3.781920 1_555
Na0_6 Na2_7 3.781920 1_554
Na0_6 Na1_2 3.788477 1_555
Na0_6 Na2_5 3.788477 1_554
Na0_7 Na2_0 3.779297 1_555
Na0_7 Na1_7 3.779297 1_555
Na0_7 Na2_6 3.781920 1_555
Na0_7 Na1_1 3.781920 1_555
Na0_7 Na2_4 3.788477 1_555
Na0_7 Na1_3 3.788477 1_555
Na1_0 Na1_2 3.696100 1_545
Na1_0 Na1_2 3.696100 1_555
Na1_0 Na1_4 3.697240 1_555
Na1_0 Na1_4 3.697240 1_455
Na1_0 Na1_6 3.713104 1_445
Na1_0 Na1_6 3.713104 1_555
Na1_0 Na2_6 3.773077 1_545
Na1_0 Na2_2 3.785802 1_545
Na1_0 Na2_4 3.791418 1_555
Na1_1 Na1_3 3.696100 1_545
Na1_1 Na1_3 3.696100 1_555
Na1_1 Na1_5 3.697240 1_455
Na1_1 Na1_5 3.697240 1_555
Na1_1 Na1_7 3.713104 1_445
Na1_1 Na1_7 3.713104 1_555
Na1_1 Na2_7 3.773077 1_545
Na1_1 Na2_3 3.785802 1_545
Na1_1 Na2_5 3.791418 1_555
Na1_2 Na1_6 3.697240 1_455
Na1_2 Na1_6 3.697240 1_555
Na1_2 Na1_4 3.713104 1_565
Na1_2 Na1_4 3.713104 1_455
Na1_2 Na2_4 3.773077 1_555
Na1_2 Na2_0 3.785802 1_555
Na1_2 Na2_6 3.791418 1_555
Na1_3 Na1_7 3.697240 1_455
Na1_3 Na1_7 3.697240 1_555
Na1_3 Na1_5 3.713104 1_455
Na1_3 Na1_5 3.713104 1_565
Na1_3 Na2_5 3.773077 1_555
Na1_3 Na2_1 3.785802 1_555
Na1_3 Na2_7 3.791418 1_555
Na1_4 Na1_6 3.696100 1_555
Na1_4 Na1_6 3.696100 1_545
Na1_4 Na2_2 3.773077 1_645
Na1_4 Na2_6 3.785802 1_545
Na1_4 Na2_0 3.791418 1_655
Na1_5 Na1_7 3.696100 1_545
Na1_5 Na1_7 3.696100 1_555
Na1_5 Na2_3 3.773077 1_645
Na1_5 Na2_7 3.785802 1_545
Na1_5 Na2_1 3.791418 1_655
Na1_6 Na2_0 3.773077 1_655
Na1_6 Na2_4 3.785802 1_555
Na1_6 Na2_2 3.791418 1_655
Na1_7 Na2_1 3.773077 1_655
Na1_7 Na2_5 3.785802 1_555
Na1_7 Na2_3 3.791418 1_655
Na2_0 Na2_2 3.696100 1_555
Na2_0 Na2_2 3.696100 1_545
Na2_0 Na2_4 3.697240 1_555
Na2_0 Na2_4 3.697240 1_455
Na2_0 Na2_6 3.713104 1_445
Na2_0 Na2_6 3.713104 1_555
Na2_1 Na2_3 3.696100 1_555
Na2_1 Na2_3 3.696100 1_545
Na2_1 Na2_5 3.697240 1_455
Na2_1 Na2_5 3.697240 1_555
Na2_1 Na2_7 3.713104 1_555
Na2_1 Na2_7 3.713104 1_445
Na2_2 Na2_6 3.697240 1_455
Na2_2 Na2_6 3.697240 1_555
Na2_2 Na2_4 3.713104 1_455
Na2_2 Na2_4 3.713104 1_565
Na2_3 Na2_7 3.697240 1_455
Na2_3 Na2_7 3.697240 1_555
Na2_3 Na2_5 3.713104 1_565
Na2_3 Na2_5 3.713104 1_455
Na2_4 Na2_6 3.696100 1_555
Na2_4 Na2_6 3.696100 1_545
Na2_5 Na2_7 3.696100 1_555
Na2_5 Na2_7 3.696100 1_545
