# generated using pymatgen
data_Sn
_symmetry_space_group_name_H-M   'P 1'
_cell_length_a   12.23420454
_cell_length_b   12.23420454
_cell_length_c   12.23420454
_cell_angle_alpha   90.00000000
_cell_angle_beta   90.00000000
_cell_angle_gamma   90.00000000
_symmetry_Int_Tables_number   1
_chemical_formula_structural   Sn
_chemical_formula_sum   Sn46
_cell_volume   1831.16387141
_cell_formula_units_Z   46
loop_
 _symmetry_equiv_pos_site_id
 _symmetry_equiv_pos_as_xyz
  1  'x, y, z'
loop_
 _atom_site_type_symbol
 _atom_site_label
 _atom_site_symmetry_multiplicity
 _atom_site_fract_x
 _atom_site_fract_y
 _atom_site_fract_z
 _atom_site_occupancy
  Sn  Sn0  1  0.50000000  0.38302041  0.19169117  1
  Sn  Sn1  1  0.50000000  0.61697959  0.80830883  1
  Sn  Sn2  1  0.38302041  0.19169117  0.50000000  1
  Sn  Sn3  1  0.61697959  0.19169117  0.50000000  1
  Sn  Sn4  1  0.19169117  0.50000000  0.38302041  1
  Sn  Sn5  1  0.80830883  0.50000000  0.38302041  1
  Sn  Sn6  1  0.00000000  0.69169117  0.11697959  1
  Sn  Sn7  1  0.00000000  0.30830883  0.88302041  1
  Sn  Sn8  1  0.25000000  0.00000000  0.50000000  1
  Sn  Sn9  1  0.75000000  0.00000000  0.50000000  1
  Sn  Sn10  1  0.00000000  0.50000000  0.25000000  1
  Sn  Sn11  1  0.00000000  0.50000000  0.75000000  1
  Sn  Sn12  1  0.50000000  0.75000000  -0.00000000  1
  Sn  Sn13  1  0.50000000  0.25000000  -0.00000000  1
  Sn  Sn14  1  0.18354270  0.18354270  0.18354270  1
  Sn  Sn15  1  0.68354270  0.31645730  0.68354270  1
  Sn  Sn16  1  0.68354270  0.68354270  0.31645730  1
  Sn  Sn17  1  0.31645730  0.68354270  0.68354270  1
  Sn  Sn18  1  0.81645730  0.81645730  0.18354270  1
  Sn  Sn19  1  0.18354270  0.81645730  0.81645730  1
  Sn  Sn20  1  0.81645730  0.18354270  0.81645730  1
  Sn  Sn21  1  0.31645730  0.31645730  0.31645730  1
  Sn  Sn22  1  0.81645730  0.81645730  0.81645730  1
  Sn  Sn23  1  0.31645730  0.68354270  0.31645730  1
  Sn  Sn24  1  0.31645730  0.31645730  0.68354270  1
  Sn  Sn25  1  0.68354270  0.31645730  0.31645730  1
  Sn  Sn26  1  0.18354270  0.18354270  0.81645730  1
  Sn  Sn27  1  0.81645730  0.18354270  0.18354270  1
  Sn  Sn28  1  0.18354270  0.81645730  0.18354270  1
  Sn  Sn29  1  0.68354270  0.68354270  0.68354270  1
  Sn  Sn30  1  0.00000000  0.30830883  0.11697959  1
  Sn  Sn31  1  0.50000000  0.38302041  0.80830883  1
  Sn  Sn32  1  0.50000000  0.61697959  0.19169117  1
  Sn  Sn33  1  0.61697959  0.80830883  0.50000000  1
  Sn  Sn34  1  0.38302041  0.80830883  0.50000000  1
  Sn  Sn35  1  0.19169117  0.50000000  0.61697959  1
  Sn  Sn36  1  0.80830883  0.50000000  0.61697959  1
  Sn  Sn37  1  0.11697959  0.00000000  0.30830883  1
  Sn  Sn38  1  0.30830883  0.11697959  -0.00000000  1
  Sn  Sn39  1  0.69169117  0.88302041  -0.00000000  1
  Sn  Sn40  1  0.11697959  0.00000000  0.69169117  1
  Sn  Sn41  1  0.69169117  0.11697959  -0.00000000  1
  Sn  Sn42  1  0.88302041  0.00000000  0.30830883  1
  Sn  Sn43  1  0.88302041  0.00000000  0.69169117  1
  Sn  Sn44  1  0.30830883  0.88302041  -0.00000000  1
  Sn  Sn45  1  0.00000000  0.69169117  0.88302041  1
loop_
_geom_bond_atom_site_label_1
_geom_bond_atom_site_label_2
_geom_bond_distance
_geom_bond_site_symmetry_2
Sn0 Sn25 2.834672 1_555
Sn0 Sn21 2.834672 1_555
Sn0 Sn13 2.854529 1_555
Sn0 Sn32 2.862304 1_555
Sn1 Sn29 2.834672 1_555
Sn1 Sn17 2.834672 1_555
Sn1 Sn12 2.854529 1_556
Sn1 Sn31 2.862304 1_555
Sn2 Sn24 2.834672 1_555
Sn2 Sn21 2.834672 1_555
Sn2 Sn8 2.854529 1_555
Sn2 Sn3 2.862304 1_555
Sn3 Sn9 2.854529 1_555
Sn10 Sn30 2.854529 1_555
Sn10 Sn4 2.854529 1_555
Sn10 Sn6 2.854529 1_555
Sn10 Sn5 2.854529 1_455
Sn11 Sn35 2.854529 1_555
Sn11 Sn7 2.854529 1_555
Sn11 Sn36 2.854529 1_455
Sn11 Sn45 2.854529 1_555
Sn12 Sn32 2.854529 1_555
Sn12 Sn44 2.854529 1_555
Sn12 Sn39 2.854529 1_555
Sn13 Sn38 2.854529 1_555
Sn13 Sn41 2.854529 1_555
Sn13 Sn31 2.854529 1_554
Sn14 Sn21 2.816495 1_555
Sn14 Sn38 2.834672 1_555
Sn14 Sn30 2.834672 1_555
Sn14 Sn37 2.834672 1_555
Sn15 Sn20 2.816495 1_555
Sn15 Sn3 2.834672 1_555
Sn15 Sn31 2.834672 1_555
Sn15 Sn36 2.834672 1_555
Sn16 Sn18 2.816495 1_555
Sn16 Sn32 2.834672 1_555
Sn16 Sn5 2.834672 1_555
Sn16 Sn33 2.834672 1_555
Sn17 Sn19 2.816495 1_555
Sn17 Sn35 2.834672 1_555
Sn17 Sn34 2.834672 1_555
Sn18 Sn39 2.834672 1_555
Sn18 Sn6 2.834672 1_655
Sn18 Sn42 2.834672 1_565
Sn19 Sn45 2.834672 1_555
Sn19 Sn40 2.834672 1_565
Sn19 Sn44 2.834672 1_556
Sn20 Sn43 2.834672 1_555
Sn20 Sn41 2.834672 1_556
Sn20 Sn7 2.834672 1_655
Sn21 Sn4 2.834672 1_555
Sn22 Sn29 2.816495 1_555
Sn22 Sn39 2.834672 1_556
Sn22 Sn43 2.834672 1_565
Sn22 Sn45 2.834672 1_655
Sn23 Sn28 2.816495 1_555
Sn23 Sn4 2.834672 1_555
Sn23 Sn32 2.834672 1_555
Sn23 Sn34 2.834672 1_555
Sn24 Sn26 2.816495 1_555
Sn24 Sn35 2.834672 1_555
Sn24 Sn31 2.834672 1_555
Sn25 Sn27 2.816495 1_555
Sn25 Sn3 2.834672 1_555
Sn25 Sn5 2.834672 1_555
Sn26 Sn40 2.834672 1_555
Sn26 Sn7 2.834672 1_555
Sn26 Sn38 2.834672 1_556
Sn27 Sn41 2.834672 1_555
Sn27 Sn42 2.834672 1_555
Sn27 Sn30 2.834672 1_655
Sn28 Sn6 2.834672 1_555
Sn28 Sn44 2.834672 1_555
Sn28 Sn37 2.834672 1_565
Sn29 Sn36 2.834672 1_555
Sn29 Sn33 2.834672 1_555
Sn30 Sn7 2.862304 1_554
Sn33 Sn9 2.854529 1_565
Sn33 Sn34 2.862304 1_555
Sn34 Sn8 2.854529 1_565
Sn35 Sn4 2.862304 1_555
Sn36 Sn5 2.862304 1_555
Sn37 Sn8 2.854529 1_555
Sn37 Sn42 2.862304 1_455
Sn38 Sn44 2.862304 1_545
Sn39 Sn41 2.862304 1_565
Sn40 Sn8 2.854529 1_555
Sn40 Sn43 2.862304 1_455
Sn42 Sn9 2.854529 1_555
Sn43 Sn9 2.854529 1_555
Sn45 Sn6 2.862304 1_556
