# generated using pymatgen
data_NbCr3
_symmetry_space_group_name_H-M   'P 1'
_cell_length_a   5.09890436
_cell_length_b   5.09890436
_cell_length_c   5.09890436
_cell_angle_alpha   139.77182950
_cell_angle_beta   139.77182950
_cell_angle_gamma   58.19990727
_symmetry_Int_Tables_number   1
_chemical_formula_structural   NbCr3
_chemical_formula_sum   'Nb1 Cr3'
_cell_volume   54.79355649
_cell_formula_units_Z   1
loop_
 _symmetry_equiv_pos_site_id
 _symmetry_equiv_pos_as_xyz
  1  'x, y, z'
loop_
 _atom_site_type_symbol
 _atom_site_label
 _atom_site_symmetry_multiplicity
 _atom_site_fract_x
 _atom_site_fract_y
 _atom_site_fract_z
 _atom_site_occupancy
  Nb  Nb0  1  0.00000000  0.00000000  0.00000000  1
  Cr  Cr0  1  0.50000000  0.50000000  0.00000000  1
  Cr  Cr1  1  0.75000000  0.25000000  0.50000000  1
  Cr  Cr2  1  0.25000000  0.75000000  0.50000000  1
loop_
_geom_bond_atom_site_label_1
_geom_bond_atom_site_label_2
_geom_bond_distance
_geom_bond_site_symmetry_2
Cr0 Nb0 2.479774 1_666
Cr0 Nb0 2.479774 1_554
Cr0 Nb0 2.479774 1_655
Cr0 Nb0 2.479774 1_565
Cr0 Cr1 2.834965 1_454
Cr0 Cr1 2.834965 1_554
Cr0 Cr2 2.834965 1_544
Cr0 Cr1 2.834965 1_555
Cr0 Cr2 2.834965 1_554
Cr0 Cr1 2.834965 1_565
Cr0 Cr2 2.834965 1_655
Cr0 Cr2 2.834965 1_555
Cr1 Cr2 2.479774 1_544
Cr1 Cr2 2.479774 1_645
Cr1 Cr2 2.479774 1_555
Cr1 Cr2 2.479774 1_656
Cr1 Nb0 2.834965 1_656
Cr1 Nb0 2.834965 1_555
Cr1 Nb0 2.834965 1_666
Cr1 Nb0 2.834965 1_655
Cr2 Nb0 2.834965 1_666
Cr2 Nb0 2.834965 1_555
Cr2 Nb0 2.834965 1_566
Cr2 Nb0 2.834965 1_565
