# generated using pymatgen
data_Na(SnAs)2
_symmetry_space_group_name_H-M   'P 1'
_cell_length_a   9.53855770
_cell_length_b   9.53855733
_cell_length_c   9.53855830
_cell_angle_alpha   24.37008599
_cell_angle_beta   24.37008760
_cell_angle_gamma   24.37009139
_symmetry_Int_Tables_number   1
_chemical_formula_structural   Na(SnAs)2
_chemical_formula_sum   'Na1 Sn2 As2'
_cell_volume   129.89508992
_cell_formula_units_Z   1
loop_
 _symmetry_equiv_pos_site_id
 _symmetry_equiv_pos_as_xyz
  1  'x, y, z'
loop_
 _atom_site_type_symbol
 _atom_site_label
 _atom_site_symmetry_multiplicity
 _atom_site_fract_x
 _atom_site_fract_y
 _atom_site_fract_z
 _atom_site_occupancy
  Na  Na0  1  -0.00000000  0.00000000  -0.00000000  1
  Sn  Sn0  1  0.21123572  0.21123572  0.21123572  1
  Sn  Sn1  1  0.78876428  0.78876428  0.78876428  1
  As  As0  1  0.40667046  0.40667046  0.40667046  1
  As  As1  1  0.59332954  0.59332954  0.59332954  1
loop_
_geom_bond_atom_site_label_1
_geom_bond_atom_site_label_2
_geom_bond_distance
_geom_bond_site_symmetry_2
As0 Sn1 2.689936 1_554
As0 Sn1 2.689937 1_545
As0 Sn1 2.689937 1_455
As0 Na0 3.089819 1_556
As0 Na0 3.089820 1_655
As0 Na0 3.089820 1_565
As1 Sn0 2.689936 1_556
As1 Sn0 2.689937 1_565
As1 Sn0 2.689937 1_655
As1 Na0 3.089819 1_665
As1 Na0 3.089820 1_566
As1 Na0 3.089820 1_656
