# generated using pymatgen
data_Na3Re
_symmetry_space_group_name_H-M   'P 1'
_cell_length_a   6.61861189
_cell_length_b   6.61861189
_cell_length_c   5.47343100
_cell_angle_alpha   90.00000000
_cell_angle_beta   90.00000000
_cell_angle_gamma   119.99999888
_symmetry_Int_Tables_number   1
_chemical_formula_structural   Na3Re
_chemical_formula_sum   'Na6 Re2'
_cell_volume   207.64626045
_cell_formula_units_Z   2
loop_
 _symmetry_equiv_pos_site_id
 _symmetry_equiv_pos_as_xyz
  1  'x, y, z'
loop_
 _atom_site_type_symbol
 _atom_site_label
 _atom_site_symmetry_multiplicity
 _atom_site_fract_x
 _atom_site_fract_y
 _atom_site_fract_z
 _atom_site_occupancy
  Na  Na0  1  0.17394700  0.34789400  0.25000000  1
  Na  Na1  1  0.65210600  0.82605300  0.25000000  1
  Na  Na2  1  0.17394700  0.82605300  0.25000000  1
  Na  Na3  1  0.82605300  0.65210600  0.75000000  1
  Na  Na4  1  0.34789400  0.17394700  0.75000000  1
  Na  Na5  1  0.82605300  0.17394700  0.75000000  1
  Re  Re0  1  0.33333300  0.66666700  0.75000000  1
  Re  Re1  1  0.66666700  0.33333300  0.25000000  1
loop_
_geom_bond_atom_site_label_1
_geom_bond_atom_site_label_2
_geom_bond_distance
_geom_bond_site_symmetry_2
Na0 Re0 3.290618 1_554
Na0 Re0 3.290618 1_555
Na0 Re1 3.310355 1_455
Na0 Re1 3.310362 1_555
Na1 Re0 3.290618 1_554
Na1 Re0 3.290618 1_555
Na1 Re1 3.310355 1_565
Na1 Re1 3.310362 1_555
Na2 Re0 3.290614 1_554
Na2 Re0 3.290614 1_555
Na2 Re1 3.310358 1_455
Na2 Re1 3.310358 1_565
Na3 Re1 3.290618 1_555
Na3 Re1 3.290618 1_556
Na3 Re0 3.310355 1_655
Na3 Re0 3.310362 1_555
Na4 Re1 3.290618 1_555
Na4 Re1 3.290618 1_556
Na4 Re0 3.310355 1_545
Na4 Re0 3.310362 1_555
Na5 Re1 3.290614 1_556
Na5 Re1 3.290614 1_555
Na5 Re0 3.310358 1_545
Na5 Re0 3.310358 1_655
