# generated using pymatgen
data_LiSm(CuP)2
_symmetry_space_group_name_H-M   'P 1'
_cell_length_a   4.01217347
_cell_length_b   4.01217347
_cell_length_c   6.66571300
_cell_angle_alpha   90.00000000
_cell_angle_beta   90.00000000
_cell_angle_gamma   119.99999131
_symmetry_Int_Tables_number   1
_chemical_formula_structural   LiSm(CuP)2
_chemical_formula_sum   'Li1 Sm1 Cu2 P2'
_cell_volume   92.92588049
_cell_formula_units_Z   1
loop_
 _symmetry_equiv_pos_site_id
 _symmetry_equiv_pos_as_xyz
  1  'x, y, z'
loop_
 _atom_site_type_symbol
 _atom_site_label
 _atom_site_symmetry_multiplicity
 _atom_site_fract_x
 _atom_site_fract_y
 _atom_site_fract_z
 _atom_site_occupancy
  Li  Li0  1  0.00000000  0.00000000  0.50000000  1
  Sm  Sm0  1  0.00000000  0.00000000  0.00000000  1
  Cu  Cu0  1  0.33333300  0.66666700  0.34070900  1
  Cu  Cu1  1  0.66666700  0.33333300  0.65929100  1
  P  P0  1  0.33333300  0.66666700  0.73264900  1
  P  P1  1  0.66666700  0.33333300  0.26735100  1
loop_
_geom_bond_atom_site_label_1
_geom_bond_atom_site_label_2
_geom_bond_distance
_geom_bond_site_symmetry_2
Li0 P0 2.787602 1_545
Li0 P1 2.787602 1_455
Li0 P1 2.787605 1_555
Li0 P1 2.787605 1_445
Li0 P0 2.787605 1_555
Li0 P0 2.787605 1_445
Cu0 P1 2.367476 1_455
Cu0 P1 2.367476 1_565
Cu0 P1 2.367482 1_555
Cu0 Li0 2.548181 1_565
Cu0 Li0 2.548185 1_555
Cu0 Li0 2.548185 1_665
Cu0 P0 2.612560 1_555
Cu1 P0 2.367476 1_545
Cu1 P0 2.367476 1_655
Cu1 P0 2.367482 1_555
Cu1 Li0 2.548181 1_655
Cu1 Li0 2.548185 1_555
Cu1 Li0 2.548185 1_665
Cu1 P1 2.612560 1_555
P0 Sm0 2.922612 1_566
P0 Sm0 2.922615 1_666
P0 Sm0 2.922615 1_556
P1 Sm0 2.922612 1_655
P1 Sm0 2.922615 1_665
P1 Sm0 2.922615 1_555
