# generated using pymatgen
data_KAg2SbS4
_symmetry_space_group_name_H-M   'P 1'
_cell_length_a   6.66930375
_cell_length_b   6.66930375
_cell_length_c   6.66930375
_cell_angle_alpha   92.32653866
_cell_angle_beta   118.66598662
_cell_angle_gamma   118.66598662
_symmetry_Int_Tables_number   1
_chemical_formula_structural   KAg2SbS4
_chemical_formula_sum   'K1 Ag2 Sb1 S4'
_cell_volume   213.80070957
_cell_formula_units_Z   1
loop_
 _symmetry_equiv_pos_site_id
 _symmetry_equiv_pos_as_xyz
  1  'x, y, z'
loop_
 _atom_site_type_symbol
 _atom_site_label
 _atom_site_symmetry_multiplicity
 _atom_site_fract_x
 _atom_site_fract_y
 _atom_site_fract_z
 _atom_site_occupancy
  K  K0  1  0.00000000  0.00000000  0.00000000  1
  Ag  Ag0  1  0.50000000  0.75000000  0.25000000  1
  Ag  Ag1  1  0.50000000  0.25000000  0.75000000  1
  Sb  Sb0  1  0.00000000  0.50000000  0.50000000  1
  S  S0  1  0.59804500  0.14836700  0.14836700  1
  S  S1  1  0.00000000  0.44967800  0.85163300  1
  S  S2  1  0.00000000  0.85163300  0.44967800  1
  S  S3  1  0.40195500  0.55032200  0.55032200  1
loop_
_geom_bond_atom_site_label_1
_geom_bond_atom_site_label_2
_geom_bond_distance
_geom_bond_site_symmetry_2
K0 S2 3.195980 1_545
K0 S0 3.195980 1_555
K0 S1 3.195980 1_554
K0 S3 3.195980 1_444
Ag0 S3 2.617336 1_555
Ag0 S0 2.617336 1_565
Ag0 S2 2.617336 1_655
Ag0 S1 2.617336 1_554
Ag1 S3 2.617336 1_555
Ag1 S0 2.617336 1_556
Ag1 S1 2.617336 1_655
Ag1 S2 2.617336 1_545
S0 Sb0 2.382489 1_655
S1 Sb0 2.382489 1_555
S2 Sb0 2.382489 1_555
S3 Sb0 2.382489 1_555
