# generated using pymatgen
data_Cs2ZrCu3F12
_symmetry_space_group_name_H-M   'P 1'
_cell_length_a   8.19901072
_cell_length_b   8.19901072
_cell_length_c   8.19900997
_cell_angle_alpha   52.35971960
_cell_angle_beta   52.35971960
_cell_angle_gamma   52.35971891
_symmetry_Int_Tables_number   1
_chemical_formula_structural   Cs2ZrCu3F12
_chemical_formula_sum   'Cs2 Zr1 Cu3 F12'
_cell_volume   319.80132229
_cell_formula_units_Z   1
loop_
 _symmetry_equiv_pos_site_id
 _symmetry_equiv_pos_as_xyz
  1  'x, y, z'
loop_
 _atom_site_type_symbol
 _atom_site_label
 _atom_site_symmetry_multiplicity
 _atom_site_fract_x
 _atom_site_fract_y
 _atom_site_fract_z
 _atom_site_occupancy
  Cs  Cs0  1  0.89411600  0.89411600  0.89411600  1
  Cs  Cs1  1  0.10588400  0.10588400  0.10588400  1
  Zr  Zr0  1  0.50000000  0.50000000  0.50000000  1
  Cu  Cu0  1  0.00000000  0.50000000  0.50000000  1
  Cu  Cu1  1  0.50000000  0.00000000  0.50000000  1
  Cu  Cu2  1  0.50000000  0.50000000  0.00000000  1
  F  F0  1  0.41735500  0.41735500  0.82542700  1
  F  F1  1  0.82542700  0.41735500  0.41735500  1
  F  F2  1  0.41735500  0.82542700  0.41735500  1
  F  F3  1  0.58264500  0.17457300  0.58264500  1
  F  F4  1  0.58264500  0.58264500  0.17457300  1
  F  F5  1  0.17457300  0.58264500  0.58264500  1
  F  F6  1  0.57605500  0.19241000  0.19241000  1
  F  F7  1  0.19241000  0.19241000  0.57605500  1
  F  F8  1  0.19241000  0.57605500  0.19241000  1
  F  F9  1  0.80759000  0.42394500  0.80759000  1
  F  F10  1  0.42394500  0.80759000  0.80759000  1
  F  F11  1  0.80759000  0.80759000  0.42394500  1
loop_
_geom_bond_atom_site_label_1
_geom_bond_atom_site_label_2
_geom_bond_distance
_geom_bond_site_symmetry_2
Cs0 F8 3.238744 1_656
Cs0 F6 3.238744 1_566
Cs0 F7 3.238744 1_665
Cs0 F5 3.457110 1_655
Cs0 F3 3.457110 1_565
Cs0 F4 3.457110 1_556
Cs0 F11 3.600556 1_556
Cs0 F9 3.600557 1_565
Cs0 F10 3.600557 1_655
Cs0 F1 3.641021 1_565
Cs0 F2 3.641021 1_655
Cs0 F1 3.641021 1_556
Cs0 F2 3.641021 1_556
Cs0 F0 3.641021 1_565
Cs0 F0 3.641021 1_655
Cs1 F10 3.238744 1_544
Cs1 F9 3.238744 1_454
Cs1 F11 3.238744 1_445
Cs1 F1 3.457110 1_455
Cs1 F2 3.457110 1_545
Cs1 F0 3.457110 1_554
Cs1 F7 3.600556 1_554
Cs1 F6 3.600557 1_455
Cs1 F8 3.600557 1_545
Cs1 F3 3.641021 1_455
Cs1 F5 3.641021 1_545
Cs1 F5 3.641021 1_554
Cs1 F3 3.641021 1_554
Cs1 F4 3.641021 1_455
Cs1 F4 3.641021 1_545
Cu0 F8 1.912870 1_555
Cu0 F9 1.912870 1_455
Cu0 F7 1.912870 1_555
Cu0 F11 1.912870 1_455
Cu0 F5 2.428380 1_555
Cu0 F1 2.428380 1_455
Cu1 F10 1.912870 1_545
Cu1 F6 1.912870 1_555
Cu1 F7 1.912870 1_555
Cu1 F11 1.912870 1_545
Cu1 F3 2.428380 1_555
Cu1 F2 2.428380 1_545
Cu2 F8 1.912870 1_555
Cu2 F9 1.912870 1_554
Cu2 F10 1.912870 1_554
Cu2 F6 1.912870 1_555
Cu2 F4 2.428380 1_555
Cu2 F0 2.428380 1_554
F0 Zr0 2.044933 1_555
F1 Zr0 2.044933 1_555
F2 Zr0 2.044933 1_555
F3 Zr0 2.044933 1_555
F4 Zr0 2.044933 1_555
F5 Zr0 2.044933 1_555
