# generated using pymatgen
data_Sm(BRh)4
_symmetry_space_group_name_H-M   'P 1'
_cell_length_a   5.33100619
_cell_length_b   5.33100619
_cell_length_c   7.47122193
_cell_angle_alpha   90.00000000
_cell_angle_beta   90.00000000
_cell_angle_gamma   90.00000000
_symmetry_Int_Tables_number   1
_chemical_formula_structural   Sm(BRh)4
_chemical_formula_sum   'Sm2 B8 Rh8'
_cell_volume   212.32934047
_cell_formula_units_Z   2
loop_
 _symmetry_equiv_pos_site_id
 _symmetry_equiv_pos_as_xyz
  1  'x, y, z'
loop_
 _atom_site_type_symbol
 _atom_site_label
 _atom_site_symmetry_multiplicity
 _atom_site_fract_x
 _atom_site_fract_y
 _atom_site_fract_z
 _atom_site_occupancy
  Sm  Sm0  1  0.74999900  0.25000000  0.25000000  1
  Sm  Sm1  1  0.25000000  0.74999900  0.75000000  1
  B  B0  1  0.25000000  0.08006639  0.09880035  1
  B  B1  1  0.25000000  0.41993161  0.09880035  1
  B  B2  1  0.58006739  0.74999900  0.40119965  1
  B  B3  1  0.91993261  0.74999900  0.40119965  1
  B  B4  1  0.08006639  0.25000000  0.59879935  1
  B  B5  1  0.41993161  0.25000000  0.59879935  1
  B  B6  1  0.74999900  0.58006739  0.90119965  1
  B  B7  1  0.74999900  0.91993261  0.90119965  1
  Rh  Rh0  1  0.00152135  0.74999900  0.10566145  1
  Rh  Rh1  1  0.49847865  0.74999900  0.10566145  1
  Rh  Rh2  1  0.25000000  0.99847965  0.39433855  1
  Rh  Rh3  1  0.25000000  0.50152035  0.39433855  1
  Rh  Rh4  1  0.74999900  0.00152135  0.60566145  1
  Rh  Rh5  1  0.74999900  0.49847865  0.60566145  1
  Rh  Rh6  1  0.99847965  0.25000000  0.89433855  1
  Rh  Rh7  1  0.50152035  0.25000000  0.89433855  1
loop_
_geom_bond_atom_site_label_1
_geom_bond_atom_site_label_2
_geom_bond_distance
_geom_bond_site_symmetry_2
B0 B1 1.811824 1_555
B0 Rh1 2.203058 1_545
B0 Rh0 2.203058 1_545
B0 Rh6 2.225327 1_454
B0 Rh7 2.225327 1_554
B0 Rh2 2.250461 1_545
B0 Sm0 3.033425 1_555
B0 Sm0 3.033434 1_455
B0 Sm1 3.144394 1_544
B1 Rh1 2.203058 1_555
B1 Rh0 2.203058 1_555
B1 Rh6 2.225323 1_454
B1 Rh7 2.225323 1_554
B1 Rh3 2.250463 1_555
B1 Sm0 3.033421 1_555
B1 Sm0 3.033431 1_455
B1 Sm1 3.144394 1_554
B2 B3 1.811824 1_555
B2 Rh3 2.203058 1_555
B2 Rh2 2.203064 1_555
B2 Rh5 2.225323 1_555
B2 Rh4 2.225329 1_565
B2 Rh1 2.250463 1_555
B2 Sm0 3.033421 1_555
B2 Sm0 3.033431 1_565
B2 Sm1 3.144394 1_555
B3 Rh3 2.203058 1_655
B3 Rh2 2.203064 1_655
B3 Rh5 2.225327 1_555
B3 Rh4 2.225334 1_565
B3 Rh0 2.250463 1_655
B3 Sm0 3.033425 1_555
B3 Sm0 3.033434 1_565
B3 Sm1 3.144394 1_655
B4 B5 1.811824 1_555
B4 Rh4 2.203058 1_455
B4 Rh5 2.203058 1_455
B4 Rh2 2.225322 1_545
B4 Rh3 2.225322 1_555
B4 Rh6 2.250468 1_455
B4 Sm1 3.033427 1_555
B4 Sm1 3.033437 1_545
B4 Sm0 3.144388 1_455
B5 Rh5 2.203058 1_555
B5 Rh4 2.203058 1_555
B5 Rh2 2.225318 1_545
B5 Rh3 2.225318 1_555
B5 Rh7 2.250471 1_555
B5 Sm1 3.033424 1_555
B5 Sm1 3.033434 1_545
B5 Sm0 3.144388 1_555
B6 B7 1.811824 1_555
B6 Rh7 2.203058 1_555
B6 Rh6 2.203064 1_555
B6 Rh1 2.225323 1_556
B6 Rh0 2.225329 1_656
B6 Rh5 2.250463 1_555
B6 Sm1 3.033421 1_555
B6 Sm1 3.033431 1_655
B6 Sm0 3.144394 1_556
B7 Rh7 2.203058 1_565
B7 Rh6 2.203064 1_565
B7 Rh1 2.225327 1_556
B7 Rh0 2.225334 1_656
B7 Rh4 2.250463 1_565
B7 Sm1 3.033425 1_555
B7 Sm1 3.033434 1_655
B7 Sm0 3.144394 1_566
Rh0 Sm1 2.969095 1_554
Rh0 Sm0 3.172652 1_455
Rh0 Sm0 3.172661 1_465
Rh1 Sm1 2.969095 1_554
Rh1 Sm0 3.172647 1_555
Rh1 Sm0 3.172656 1_565
Rh2 Sm1 2.969099 1_555
Rh2 Sm0 3.172647 1_565
Rh2 Sm0 3.172656 1_465
Rh3 Sm1 2.969095 1_555
Rh3 Sm0 3.172647 1_555
Rh3 Sm0 3.172656 1_455
Rh4 Sm0 2.969095 1_555
Rh4 Sm1 3.172652 1_545
Rh4 Sm1 3.172661 1_645
Rh5 Sm0 2.969095 1_555
Rh5 Sm1 3.172647 1_555
Rh5 Sm1 3.172656 1_655
Rh6 Sm0 2.969099 1_556
Rh6 Sm1 3.172647 1_655
Rh6 Sm1 3.172656 1_645
Rh7 Sm0 2.969095 1_556
Rh7 Sm1 3.172647 1_555
Rh7 Sm1 3.172656 1_545
