# generated using pymatgen
data_PrTm3
_symmetry_space_group_name_H-M   'P 1'
_cell_length_a   6.11987284
_cell_length_b   6.11987284
_cell_length_c   6.11987284
_cell_angle_alpha   131.32809299
_cell_angle_beta   131.32809299
_cell_angle_gamma   71.29232384
_symmetry_Int_Tables_number   1
_chemical_formula_structural   PrTm3
_chemical_formula_sum   'Pr1 Tm3'
_cell_volume   126.51935132
_cell_formula_units_Z   1
loop_
 _symmetry_equiv_pos_site_id
 _symmetry_equiv_pos_as_xyz
  1  'x, y, z'
loop_
 _atom_site_type_symbol
 _atom_site_label
 _atom_site_symmetry_multiplicity
 _atom_site_fract_x
 _atom_site_fract_y
 _atom_site_fract_z
 _atom_site_occupancy
  Pr  Pr0  1  -0.00000000  -0.00000000  -0.00000000  1
  Tm  Tm0  1  0.75000100  0.25000000  0.50000100  1
  Tm  Tm1  1  0.25000000  0.75000100  0.50000100  1
  Tm  Tm2  1  0.50000000  0.50000000  -0.00000000  1
loop_
_geom_bond_atom_site_label_1
_geom_bond_atom_site_label_2
_geom_bond_distance
_geom_bond_site_symmetry_2
Pr0 Tm1 3.541640 1_544
Pr0 Tm0 3.541640 1_454
Pr0 Tm0 3.541644 1_444
Pr0 Tm1 3.541644 1_444
Pr0 Tm1 3.541644 1_545
Pr0 Tm0 3.541644 1_455
Pr0 Tm0 3.541647 1_555
Pr0 Tm1 3.541647 1_555
Pr0 Tm2 3.566527 1_455
Pr0 Tm2 3.566527 1_556
Pr0 Tm2 3.566527 1_444
Pr0 Tm2 3.566527 1_545
Tm0 Tm2 3.541640 1_656
Tm0 Tm2 3.541644 1_556
Tm0 Tm2 3.541644 1_545
Tm0 Tm2 3.541647 1_555
Tm0 Tm1 3.566519 1_645
Tm0 Tm1 3.566527 1_544
Tm0 Tm1 3.566527 1_656
Tm0 Tm1 3.566534 1_555
Tm1 Tm2 3.541640 1_566
Tm1 Tm2 3.541644 1_556
Tm1 Tm2 3.541644 1_455
Tm1 Tm2 3.541647 1_555
