# generated using pymatgen
data_MnNbGe
_symmetry_space_group_name_H-M   'P 1'
_cell_length_a   6.62342884
_cell_length_b   6.62331807
_cell_length_c   3.68919076
_cell_angle_alpha   89.99998665
_cell_angle_beta   90.00000310
_cell_angle_gamma   119.99867598
_symmetry_Int_Tables_number   1
_chemical_formula_structural   MnNbGe
_chemical_formula_sum   'Mn3 Nb3 Ge3'
_cell_volume   140.16062483
_cell_formula_units_Z   3
loop_
 _symmetry_equiv_pos_site_id
 _symmetry_equiv_pos_as_xyz
  1  'x, y, z'
loop_
 _atom_site_type_symbol
 _atom_site_label
 _atom_site_symmetry_multiplicity
 _atom_site_fract_x
 _atom_site_fract_y
 _atom_site_fract_z
 _atom_site_occupancy
  Mn  Mn0  1  -0.00000256  0.75109270  0.00000022  1
  Mn  Mn1  1  0.24890849  0.24890874  -0.00000012  1
  Mn  Mn2  1  0.75108759  -0.00000213  -0.00000009  1
  Nb  Nb0  1  0.00000619  0.41578017  0.50000001  1
  Nb  Nb1  1  0.58423156  0.58422433  0.49999991  1
  Nb  Nb2  1  0.41576623  0.99999895  0.49999999  1
  Ge  Ge0  1  0.33334572  0.66667933  -0.00000002  1
  Ge  Ge1  1  0.66667889  0.33332516  -0.00000001  1
  Ge  Ge2  1  0.99997791  -0.00000726  0.50000011  1
loop_
_geom_bond_atom_site_label_1
_geom_bond_atom_site_label_2
_geom_bond_distance
_geom_bond_site_symmetry_2
Ge0 Mn2 2.534036 1_565
Ge0 Mn1 2.534123 1_555
Ge0 Mn0 2.534134 1_555
Ge0 Nb2 2.714639 1_554
Ge0 Nb2 2.714640 1_555
Ge0 Nb1 2.714698 1_555
Ge0 Nb1 2.714699 1_554
Ge0 Nb0 2.714745 1_555
Ge0 Nb0 2.714745 1_554
Ge1 Mn2 2.533947 1_555
Ge1 Mn0 2.534129 1_655
Ge1 Mn1 2.534215 1_555
Ge1 Nb0 2.714657 1_654
Ge1 Nb0 2.714657 1_655
Ge1 Nb2 2.714705 1_545
Ge1 Nb2 2.714706 1_544
Ge1 Nb1 2.714720 1_554
Ge1 Nb1 2.714721 1_555
Ge2 Mn2 2.473896 1_556
Ge2 Mn2 2.473897 1_555
Ge2 Mn0 2.473953 1_645
Ge2 Mn0 2.473953 1_646
Ge2 Mn1 2.474043 1_656
Ge2 Mn1 2.474044 1_655
Ge2 Nb1 2.753772 1_545
Ge2 Nb0 2.753799 1_655
Ge2 Nb2 2.753924 1_645
