# generated using pymatgen
data_Sm3Sc
_symmetry_space_group_name_H-M   'P 1'
_cell_length_a   7.26248206
_cell_length_b   7.26246742
_cell_length_c   5.62065915
_cell_angle_alpha   90.00000000
_cell_angle_beta   90.00000000
_cell_angle_gamma   120.00009982
_symmetry_Int_Tables_number   1
_chemical_formula_structural   Sm3Sc
_chemical_formula_sum   'Sm6 Sc2'
_cell_volume   256.73596666
_cell_formula_units_Z   2
loop_
 _symmetry_equiv_pos_site_id
 _symmetry_equiv_pos_as_xyz
  1  'x, y, z'
loop_
 _atom_site_type_symbol
 _atom_site_label
 _atom_site_symmetry_multiplicity
 _atom_site_fract_x
 _atom_site_fract_y
 _atom_site_fract_z
 _atom_site_occupancy
  Sm  Sm0  1  0.17048189  0.34096378  0.25000000  1
  Sm  Sm1  1  0.65903722  0.82951811  0.25000000  1
  Sm  Sm2  1  0.17048289  0.82951811  0.25000000  1
  Sm  Sm3  1  0.82952330  0.17047770  0.75000100  1
  Sm  Sm4  1  0.34095441  0.17047870  0.75000100  1
  Sm  Sm5  1  0.82952330  0.65904659  0.75000100  1
  Sc  Sc0  1  0.66666700  0.33333300  0.25000000  1
  Sc  Sc1  1  0.33333400  0.66666800  0.75000100  1
loop_
_geom_bond_atom_site_label_1
_geom_bond_atom_site_label_2
_geom_bond_distance
_geom_bond_site_symmetry_2
Sm0 Sm4 3.535051 1_554
Sm0 Sm3 3.535054 1_454
Sm0 Sm4 3.535060 1_555
Sm0 Sm3 3.535063 1_455
Sm0 Sm2 3.548106 1_555
Sm0 Sm1 3.548112 1_555
Sm0 Sm1 3.714352 1_445
Sm0 Sm2 3.714361 1_545
Sm1 Sm5 3.535051 1_554
Sm1 Sm3 3.535055 1_564
Sm1 Sm5 3.535060 1_555
Sm1 Sm3 3.535064 1_565
Sm1 Sm2 3.548117 1_555
Sm1 Sm2 3.714365 1_655
Sm2 Sm5 3.535058 1_454
Sm2 Sm4 3.535059 1_564
Sm2 Sm5 3.535067 1_455
Sm2 Sm4 3.535068 1_565
Sm3 Sm5 3.548216 1_555
Sm3 Sm4 3.548226 1_555
Sm3 Sm5 3.714252 1_545
Sm3 Sm4 3.714256 1_655
Sm4 Sm5 3.548210 1_555
Sm4 Sm5 3.714254 1_445
Sc0 Sm3 3.477718 1_554
Sc0 Sm4 3.477721 1_554
Sc0 Sm5 3.477722 1_554
Sc0 Sm3 3.477727 1_555
Sc0 Sm4 3.477730 1_555
Sc0 Sm5 3.477731 1_555
Sc0 Sm2 3.631545 1_545
Sc0 Sm1 3.631551 1_545
Sc0 Sm1 3.631551 1_555
Sc0 Sm2 3.631553 1_655
Sc0 Sm0 3.631555 1_655
Sc0 Sm0 3.631562 1_555
Sc1 Sm2 3.477679 1_556
Sc1 Sm1 3.477686 1_556
Sc1 Sm0 3.477687 1_556
Sc1 Sm2 3.477688 1_555
Sc1 Sm1 3.477695 1_555
Sc1 Sm0 3.477696 1_555
Sc1 Sm3 3.631544 1_565
Sc1 Sm4 3.631547 1_555
Sc1 Sm3 3.631552 1_455
Sc1 Sm4 3.631553 1_565
Sc1 Sm5 3.631557 1_455
Sc1 Sm5 3.631557 1_555
