# generated using pymatgen
data_DyYZn2
_symmetry_space_group_name_H-M   'P 1'
_cell_length_a   5.03161075
_cell_length_b   5.03161075
_cell_length_c   5.03161075
_cell_angle_alpha   60.00000000
_cell_angle_beta   60.00000000
_cell_angle_gamma   60.00000000
_symmetry_Int_Tables_number   1
_chemical_formula_structural   DyYZn2
_chemical_formula_sum   'Dy1 Y1 Zn2'
_cell_volume   90.07538157
_cell_formula_units_Z   1
loop_
 _symmetry_equiv_pos_site_id
 _symmetry_equiv_pos_as_xyz
  1  'x, y, z'
loop_
 _atom_site_type_symbol
 _atom_site_label
 _atom_site_symmetry_multiplicity
 _atom_site_fract_x
 _atom_site_fract_y
 _atom_site_fract_z
 _atom_site_occupancy
  Dy  Dy0  1  0.25000000  0.25000000  0.25000000  1
  Y  Y0  1  0.75000000  0.75000000  0.75000000  1
  Zn  Zn0  1  0.00000000  0.00000000  0.00000000  1
  Zn  Zn1  1  0.50000100  0.50000100  0.50000100  1
loop_
_geom_bond_atom_site_label_1
_geom_bond_atom_site_label_2
_geom_bond_distance
_geom_bond_site_symmetry_2
Dy0 Zn1 3.081216 1_455
Dy0 Zn1 3.081216 1_545
Dy0 Zn1 3.081216 1_554
Dy0 Zn0 3.081220 1_555
Dy0 Zn0 3.081220 1_556
Dy0 Zn0 3.081220 1_565
Dy0 Zn0 3.081220 1_655
Dy0 Zn1 3.081232 1_555
Y0 Zn1 3.081207 1_555
Y0 Zn0 3.081220 1_665
Y0 Zn0 3.081220 1_666
Y0 Zn0 3.081220 1_656
Y0 Zn0 3.081220 1_566
Y0 Zn1 3.081224 1_565
Y0 Zn1 3.081224 1_556
Y0 Zn1 3.081224 1_655
