# generated using pymatgen
data_CsSmS2
_symmetry_space_group_name_H-M   'P 1'
_cell_length_a   8.45543048
_cell_length_b   8.45543048
_cell_length_c   8.45543002
_cell_angle_alpha   28.57147853
_cell_angle_beta   28.57147853
_cell_angle_gamma   28.57148115
_symmetry_Int_Tables_number   1
_chemical_formula_structural   CsSmS2
_chemical_formula_sum   'Cs1 Sm1 S2'
_cell_volume   122.22314935
_cell_formula_units_Z   1
loop_
 _symmetry_equiv_pos_site_id
 _symmetry_equiv_pos_as_xyz
  1  'x, y, z'
loop_
 _atom_site_type_symbol
 _atom_site_label
 _atom_site_symmetry_multiplicity
 _atom_site_fract_x
 _atom_site_fract_y
 _atom_site_fract_z
 _atom_site_occupancy
  Cs  Cs0  1  -0.00000000  -0.00000000  0.00000000  1
  Sm  Sm0  1  0.50000000  0.50000000  0.50000000  1
  S  S0  1  0.77170362  0.77170362  0.77170362  1
  S  S1  1  0.22829638  0.22829638  0.22829638  1
loop_
_geom_bond_atom_site_label_1
_geom_bond_atom_site_label_2
_geom_bond_distance
_geom_bond_site_symmetry_2
Cs0 S1 3.510983 1_554
Cs0 S0 3.510983 1_445
Cs0 S1 3.510984 1_455
Cs0 S0 3.510984 1_454
Cs0 S1 3.510984 1_545
Cs0 S0 3.510984 1_544
S0 Sm0 2.837230 1_556
S0 Sm0 2.837230 1_655
S0 Sm0 2.837230 1_565
S1 Sm0 2.837230 1_554
S1 Sm0 2.837230 1_455
S1 Sm0 2.837230 1_545
