# generated using pymatgen
data_SbBrO
_symmetry_space_group_name_H-M   'P 1'
_cell_length_a   3.83533600
_cell_length_b   3.83533600
_cell_length_c   8.77040200
_cell_angle_alpha   90.00000000
_cell_angle_beta   90.00000000
_cell_angle_gamma   90.00000000
_symmetry_Int_Tables_number   1
_chemical_formula_structural   SbBrO
_chemical_formula_sum   'Sb2 Br2 O2'
_cell_volume   129.01087892
_cell_formula_units_Z   2
loop_
 _symmetry_equiv_pos_site_id
 _symmetry_equiv_pos_as_xyz
  1  'x, y, z'
loop_
 _atom_site_type_symbol
 _atom_site_label
 _atom_site_symmetry_multiplicity
 _atom_site_fract_x
 _atom_site_fract_y
 _atom_site_fract_z
 _atom_site_occupancy
  Sb  Sb0  1  0.00000000  0.50000000  0.85976800  1
  Sb  Sb1  1  0.50000000  0.00000000  0.14023200  1
  Br  Br0  1  0.50000000  0.00000000  0.67876800  1
  Br  Br1  1  0.00000000  0.50000000  0.32123200  1
  O  O0  1  0.00000000  0.00000000  0.00000000  1
  O  O1  1  0.50000000  0.50000000  0.00000000  1
loop_
_geom_bond_atom_site_label_1
_geom_bond_atom_site_label_2
_geom_bond_distance
_geom_bond_site_symmetry_2
Br0 Sb0 3.142431 1_645
Br0 Sb0 3.142431 1_655
Br0 Sb0 3.142431 1_555
Br0 Sb0 3.142431 1_545
Br1 Sb1 3.142431 1_555
Br1 Sb1 3.142431 1_565
Br1 Sb1 3.142431 1_455
Br1 Sb1 3.142431 1_465
O0 Sb1 2.278175 1_455
O0 Sb1 2.278175 1_555
O0 Sb0 2.278175 1_554
O0 Sb0 2.278175 1_544
O1 Sb1 2.278175 1_565
O1 Sb1 2.278175 1_555
O1 Sb0 2.278175 1_654
O1 Sb0 2.278175 1_554
