# generated using pymatgen
data_Yb2Mg
_symmetry_space_group_name_H-M   'P 1'
_cell_length_a   13.10054013
_cell_length_b   13.10054013
_cell_length_c   18.82494170
_cell_angle_alpha   68.69876474
_cell_angle_beta   68.69876474
_cell_angle_gamma   33.63625160
_symmetry_Int_Tables_number   1
_chemical_formula_structural   Yb2Mg
_chemical_formula_sum   'Yb32 Mg16'
_cell_volume   1655.72782710
_cell_formula_units_Z   16
loop_
 _symmetry_equiv_pos_site_id
 _symmetry_equiv_pos_as_xyz
  1  'x, y, z'
loop_
 _atom_site_type_symbol
 _atom_site_label
 _atom_site_symmetry_multiplicity
 _atom_site_fract_x
 _atom_site_fract_y
 _atom_site_fract_z
 _atom_site_occupancy
  Yb  Yb0_0  1  0.08095250  0.08095250  0.45175050  1
  Yb  Yb0_1  1  0.08095250  0.08095250  0.95175050  1
  Yb  Yb0_2  1  0.08095250  0.58095250  0.45175050  1
  Yb  Yb0_3  1  0.08095250  0.58095250  0.95175050  1
  Yb  Yb0_4  1  0.58095250  0.08095250  0.45175050  1
  Yb  Yb0_5  1  0.58095250  0.08095250  0.95175050  1
  Yb  Yb0_6  1  0.58095250  0.58095250  0.45175050  1
  Yb  Yb0_7  1  0.58095250  0.58095250  0.95175050  1
  Yb  Yb1_0  1  0.41904750  0.41904750  0.04824950  1
  Yb  Yb1_1  1  0.41904750  0.41904750  0.54824950  1
  Yb  Yb1_2  1  0.41904750  0.91904750  0.04824950  1
  Yb  Yb1_3  1  0.41904750  0.91904750  0.54824950  1
  Yb  Yb1_4  1  0.91904750  0.41904750  0.04824950  1
  Yb  Yb1_5  1  0.91904750  0.41904750  0.54824950  1
  Yb  Yb1_6  1  0.91904750  0.91904750  0.04824950  1
  Yb  Yb1_7  1  0.91904750  0.91904750  0.54824950  1
  Yb  Yb2_0  1  0.25500600  0.25500600  0.14762100  1
  Yb  Yb2_1  1  0.25500600  0.25500600  0.64762100  1
  Yb  Yb2_2  1  0.25500600  0.75500600  0.14762100  1
  Yb  Yb2_3  1  0.25500600  0.75500600  0.64762100  1
  Yb  Yb2_4  1  0.75500600  0.25500600  0.14762100  1
  Yb  Yb2_5  1  0.75500600  0.25500600  0.64762100  1
  Yb  Yb2_6  1  0.75500600  0.75500600  0.14762100  1
  Yb  Yb2_7  1  0.75500600  0.75500600  0.64762100  1
  Yb  Yb3_0  1  0.24499400  0.24499400  0.35237900  1
  Yb  Yb3_1  1  0.24499400  0.24499400  0.85237900  1
  Yb  Yb3_2  1  0.24499400  0.74499400  0.35237900  1
  Yb  Yb3_3  1  0.24499400  0.74499400  0.85237900  1
  Yb  Yb3_4  1  0.74499400  0.24499400  0.35237900  1
  Yb  Yb3_5  1  0.74499400  0.24499400  0.85237900  1
  Yb  Yb3_6  1  0.74499400  0.74499400  0.35237900  1
  Yb  Yb3_7  1  0.74499400  0.74499400  0.85237900  1
  Mg  Mg0_0  1  0.09645200  0.09645200  0.21008150  1
  Mg  Mg0_1  1  0.09645200  0.09645200  0.71008150  1
  Mg  Mg0_2  1  0.09645200  0.59645200  0.21008150  1
  Mg  Mg0_3  1  0.09645200  0.59645200  0.71008150  1
  Mg  Mg0_4  1  0.59645200  0.09645200  0.21008150  1
  Mg  Mg0_5  1  0.59645200  0.09645200  0.71008150  1
  Mg  Mg0_6  1  0.59645200  0.59645200  0.21008150  1
  Mg  Mg0_7  1  0.59645200  0.59645200  0.71008150  1
  Mg  Mg1_0  1  0.40354800  0.40354800  0.28991850  1
  Mg  Mg1_1  1  0.40354800  0.40354800  0.78991850  1
  Mg  Mg1_2  1  0.40354800  0.90354800  0.28991850  1
  Mg  Mg1_3  1  0.40354800  0.90354800  0.78991850  1
  Mg  Mg1_4  1  0.90354800  0.40354800  0.28991850  1
  Mg  Mg1_5  1  0.90354800  0.40354800  0.78991850  1
  Mg  Mg1_6  1  0.90354800  0.90354800  0.28991850  1
  Mg  Mg1_7  1  0.90354800  0.90354800  0.78991850  1
loop_
_geom_bond_atom_site_label_1
_geom_bond_atom_site_label_2
_geom_bond_distance
_geom_bond_site_symmetry_2
Yb0_0 Yb1_7 3.766960 1_445
Yb0_0 Yb0_6 3.790440 1_455
Yb0_0 Yb0_6 3.790440 1_545
Yb0_0 Yb3_0 3.818989 1_555
Yb0_0 Yb3_4 3.847082 1_455
Yb0_0 Yb3_2 3.847082 1_545
Yb0_0 Yb1_5 3.849671 1_455
Yb0_0 Yb1_3 3.849671 1_545
Yb0_0 Yb2_5 3.935104 1_455
Yb0_0 Yb2_3 3.935104 1_545
Yb0_1 Yb1_6 3.766960 1_446
Yb0_1 Yb0_7 3.790440 1_455
Yb0_1 Yb0_7 3.790440 1_545
Yb0_1 Yb3_1 3.818989 1_555
Yb0_1 Yb3_3 3.847082 1_545
Yb0_1 Yb3_5 3.847082 1_455
Yb0_1 Yb1_2 3.849671 1_546
Yb0_1 Yb1_4 3.849671 1_456
Yb0_1 Yb2_2 3.935104 1_546
Yb0_1 Yb2_4 3.935104 1_456
Yb0_2 Yb1_5 3.766960 1_455
Yb0_2 Yb0_4 3.790440 1_555
Yb0_2 Yb0_4 3.790440 1_465
Yb0_2 Yb3_2 3.818989 1_555
Yb0_2 Yb3_0 3.847082 1_555
Yb0_2 Yb3_6 3.847082 1_455
Yb0_2 Yb1_7 3.849671 1_455
Yb0_2 Yb1_1 3.849671 1_555
Yb0_2 Yb2_1 3.935104 1_555
Yb0_2 Yb2_7 3.935104 1_455
Yb0_3 Yb1_4 3.766960 1_456
Yb0_3 Yb0_5 3.790440 1_555
Yb0_3 Yb0_5 3.790440 1_465
Yb0_3 Yb3_3 3.818989 1_555
Yb0_3 Yb3_7 3.847082 1_455
Yb0_3 Yb3_1 3.847082 1_555
Yb0_3 Yb1_6 3.849671 1_456
Yb0_3 Yb1_0 3.849671 1_556
Yb0_3 Yb2_0 3.935104 1_556
Yb0_3 Yb2_6 3.935104 1_456
Yb0_4 Yb1_3 3.766960 1_545
Yb0_4 Yb3_4 3.818989 1_555
Yb0_4 Yb3_0 3.847082 1_555
Yb0_4 Yb3_6 3.847082 1_545
Yb0_4 Yb1_7 3.849671 1_545
Yb0_4 Yb1_1 3.849671 1_555
Yb0_4 Yb2_7 3.935104 1_545
Yb0_4 Yb2_1 3.935104 1_555
Yb0_5 Yb1_2 3.766960 1_546
Yb0_5 Yb3_5 3.818989 1_555
Yb0_5 Yb3_7 3.847082 1_545
Yb0_5 Yb3_1 3.847082 1_555
Yb0_5 Yb1_6 3.849671 1_546
Yb0_5 Yb1_0 3.849671 1_556
Yb0_5 Yb2_6 3.935104 1_546
Yb0_5 Yb2_0 3.935104 1_556
Yb0_6 Yb1_1 3.766960 1_555
Yb0_6 Yb3_6 3.818989 1_555
Yb0_6 Yb3_4 3.847082 1_555
Yb0_6 Yb3_2 3.847082 1_555
Yb0_6 Yb1_3 3.849671 1_555
Yb0_6 Yb1_5 3.849671 1_555
Yb0_6 Yb2_5 3.935104 1_555
Yb0_6 Yb2_3 3.935104 1_555
Yb0_7 Yb1_0 3.766960 1_556
Yb0_7 Yb3_7 3.818989 1_555
Yb0_7 Yb3_5 3.847082 1_555
Yb0_7 Yb3_3 3.847082 1_555
Yb0_7 Yb1_2 3.849671 1_556
Yb0_7 Yb1_4 3.849671 1_556
Yb0_7 Yb2_4 3.935104 1_556
Yb0_7 Yb2_2 3.935104 1_556
Yb1_0 Yb1_6 3.790440 1_545
Yb1_0 Yb1_6 3.790440 1_455
Yb1_0 Yb2_0 3.818989 1_555
Yb1_0 Yb2_2 3.847082 1_555
Yb1_0 Yb2_4 3.847082 1_555
Yb1_0 Yb3_3 3.935104 1_554
Yb1_0 Yb3_5 3.935104 1_554
Yb1_1 Yb1_7 3.790440 1_545
Yb1_1 Yb1_7 3.790440 1_455
Yb1_1 Yb2_1 3.818989 1_555
Yb1_1 Yb2_3 3.847082 1_555
Yb1_1 Yb2_5 3.847082 1_555
Yb1_1 Yb3_2 3.935104 1_555
Yb1_1 Yb3_4 3.935104 1_555
Yb1_2 Yb1_4 3.790440 1_555
Yb1_2 Yb1_4 3.790440 1_465
Yb1_2 Yb2_2 3.818989 1_555
Yb1_2 Yb2_6 3.847082 1_555
Yb1_2 Yb2_0 3.847082 1_565
Yb1_2 Yb3_7 3.935104 1_554
Yb1_2 Yb3_1 3.935104 1_564
Yb1_3 Yb1_5 3.790440 1_555
Yb1_3 Yb1_5 3.790440 1_465
Yb1_3 Yb2_3 3.818989 1_555
Yb1_3 Yb2_7 3.847082 1_555
Yb1_3 Yb2_1 3.847082 1_565
Yb1_3 Yb3_6 3.935104 1_555
Yb1_3 Yb3_0 3.935104 1_565
Yb1_4 Yb2_4 3.818989 1_555
Yb1_4 Yb2_6 3.847082 1_555
Yb1_4 Yb2_0 3.847082 1_655
Yb1_4 Yb3_7 3.935104 1_554
Yb1_4 Yb3_1 3.935104 1_654
Yb1_5 Yb2_5 3.818989 1_555
Yb1_5 Yb2_1 3.847082 1_655
Yb1_5 Yb2_7 3.847082 1_555
Yb1_5 Yb3_6 3.935104 1_555
Yb1_5 Yb3_0 3.935104 1_655
Yb1_6 Yb2_6 3.818989 1_555
Yb1_6 Yb2_2 3.847082 1_655
Yb1_6 Yb2_4 3.847082 1_565
Yb1_6 Yb3_3 3.935104 1_654
Yb1_6 Yb3_5 3.935104 1_564
Yb1_7 Yb2_7 3.818989 1_555
Yb1_7 Yb2_3 3.847082 1_655
Yb1_7 Yb2_5 3.847082 1_565
Yb1_7 Yb3_2 3.935104 1_655
Yb1_7 Yb3_4 3.935104 1_565
Yb2_0 Yb3_0 3.766434 1_555
Yb2_0 Yb2_6 3.790440 1_545
Yb2_0 Yb2_6 3.790440 1_455
Yb2_1 Yb3_1 3.766434 1_555
Yb2_1 Yb2_7 3.790440 1_545
Yb2_1 Yb2_7 3.790440 1_455
Yb2_2 Yb3_2 3.766434 1_555
Yb2_2 Yb2_4 3.790440 1_555
Yb2_2 Yb2_4 3.790440 1_465
Yb2_3 Yb3_3 3.766434 1_555
Yb2_3 Yb2_5 3.790440 1_465
Yb2_3 Yb2_5 3.790440 1_555
Yb2_4 Yb3_4 3.766434 1_555
Yb2_5 Yb3_5 3.766434 1_555
Yb2_6 Yb3_6 3.766434 1_555
Yb2_7 Yb3_7 3.766434 1_555
Yb3_0 Yb3_6 3.790440 1_545
Yb3_0 Yb3_6 3.790440 1_455
Yb3_1 Yb3_7 3.790440 1_455
Yb3_1 Yb3_7 3.790440 1_545
Yb3_2 Yb3_4 3.790440 1_465
Yb3_2 Yb3_4 3.790440 1_555
Yb3_3 Yb3_5 3.790440 1_555
Yb3_3 Yb3_5 3.790440 1_465
Mg0_0 Mg1_4 3.087841 1_455
Mg0_0 Mg1_2 3.087841 1_545
Mg0_0 Yb1_2 3.460906 1_545
Mg0_0 Yb1_4 3.460906 1_455
Mg0_0 Yb3_4 3.474031 1_455
Mg0_0 Yb3_2 3.474031 1_545
Mg0_0 Yb2_4 3.504482 1_455
Mg0_0 Yb2_2 3.504482 1_545
Mg0_0 Yb2_0 3.694179 1_555
Mg0_1 Mg1_5 3.087841 1_455
Mg0_1 Mg1_3 3.087841 1_545
Mg0_1 Yb1_5 3.460906 1_455
Mg0_1 Yb1_3 3.460906 1_545
Mg0_1 Yb3_3 3.474031 1_545
Mg0_1 Yb3_5 3.474031 1_455
Mg0_1 Yb2_5 3.504482 1_455
Mg0_1 Yb2_3 3.504482 1_545
Mg0_1 Yb2_1 3.694179 1_555
Mg0_2 Mg1_0 3.087841 1_555
Mg0_2 Mg1_6 3.087841 1_455
Mg0_2 Yb1_0 3.460906 1_555
Mg0_2 Yb1_6 3.460906 1_455
Mg0_2 Yb3_0 3.474031 1_555
Mg0_2 Yb3_6 3.474031 1_455
Mg0_2 Yb2_0 3.504482 1_555
Mg0_2 Yb2_6 3.504482 1_455
Mg0_2 Yb2_2 3.694179 1_555
Mg0_3 Mg1_7 3.087841 1_455
Mg0_3 Mg1_1 3.087841 1_555
Mg0_3 Yb1_7 3.460906 1_455
Mg0_3 Yb1_1 3.460906 1_555
Mg0_3 Yb3_7 3.474031 1_455
Mg0_3 Yb3_1 3.474031 1_555
Mg0_3 Yb2_1 3.504482 1_555
Mg0_3 Yb2_7 3.504482 1_455
Mg0_3 Yb2_3 3.694179 1_555
Mg0_4 Mg1_0 3.087841 1_555
Mg0_4 Mg1_6 3.087841 1_545
Mg0_4 Yb1_6 3.460906 1_545
Mg0_4 Yb1_0 3.460906 1_555
Mg0_4 Yb3_0 3.474031 1_555
Mg0_4 Yb3_6 3.474031 1_545
Mg0_4 Yb2_0 3.504482 1_555
Mg0_4 Yb2_6 3.504482 1_545
Mg0_4 Yb2_4 3.694179 1_555
Mg0_5 Mg1_7 3.087841 1_545
Mg0_5 Mg1_1 3.087841 1_555
Mg0_5 Yb1_7 3.460906 1_545
Mg0_5 Yb1_1 3.460906 1_555
Mg0_5 Yb3_7 3.474031 1_545
Mg0_5 Yb3_1 3.474031 1_555
Mg0_5 Yb2_1 3.504482 1_555
Mg0_5 Yb2_7 3.504482 1_545
Mg0_5 Yb2_5 3.694179 1_555
Mg0_6 Mg1_4 3.087841 1_555
Mg0_6 Mg1_2 3.087841 1_555
Mg0_6 Yb1_2 3.460906 1_555
Mg0_6 Yb1_4 3.460906 1_555
Mg0_6 Yb3_4 3.474031 1_555
Mg0_6 Yb3_2 3.474031 1_555
Mg0_6 Yb2_4 3.504482 1_555
Mg0_6 Yb2_2 3.504482 1_555
Mg0_6 Yb2_6 3.694179 1_555
Mg0_7 Mg1_5 3.087841 1_555
Mg0_7 Mg1_3 3.087841 1_555
Mg0_7 Yb1_3 3.460906 1_555
Mg0_7 Yb1_5 3.460906 1_555
Mg0_7 Yb3_5 3.474031 1_555
Mg0_7 Yb3_3 3.474031 1_555
Mg0_7 Yb2_5 3.504482 1_555
Mg0_7 Yb2_3 3.504482 1_555
Mg0_7 Yb2_7 3.694179 1_555
Mg1_0 Yb0_2 3.460906 1_555
Mg1_0 Yb0_4 3.460906 1_555
Mg1_0 Yb2_2 3.474031 1_555
Mg1_0 Yb2_4 3.474031 1_555
Mg1_0 Yb3_2 3.504482 1_555
Mg1_0 Yb3_4 3.504482 1_555
Mg1_0 Yb3_0 3.694179 1_555
Mg1_1 Yb0_3 3.460906 1_555
Mg1_1 Yb0_5 3.460906 1_555
Mg1_1 Yb2_3 3.474031 1_555
Mg1_1 Yb2_5 3.474031 1_555
Mg1_1 Yb3_5 3.504482 1_555
Mg1_1 Yb3_3 3.504482 1_555
Mg1_1 Yb3_1 3.694179 1_555
Mg1_2 Yb0_0 3.460906 1_565
Mg1_2 Yb0_6 3.460906 1_555
Mg1_2 Yb2_6 3.474031 1_555
Mg1_2 Yb2_0 3.474031 1_565
Mg1_2 Yb3_6 3.504482 1_555
Mg1_2 Yb3_0 3.504482 1_565
Mg1_2 Yb3_2 3.694179 1_555
Mg1_3 Yb0_7 3.460906 1_555
Mg1_3 Yb0_1 3.460906 1_565
Mg1_3 Yb2_7 3.474031 1_555
Mg1_3 Yb2_1 3.474031 1_565
Mg1_3 Yb3_1 3.504482 1_565
Mg1_3 Yb3_7 3.504482 1_555
Mg1_3 Yb3_3 3.694179 1_555
Mg1_4 Yb0_0 3.460906 1_655
Mg1_4 Yb0_6 3.460906 1_555
Mg1_4 Yb2_6 3.474031 1_555
Mg1_4 Yb2_0 3.474031 1_655
Mg1_4 Yb3_6 3.504482 1_555
Mg1_4 Yb3_0 3.504482 1_655
Mg1_4 Yb3_4 3.694179 1_555
Mg1_5 Yb0_1 3.460906 1_655
Mg1_5 Yb0_7 3.460906 1_555
Mg1_5 Yb2_7 3.474031 1_555
Mg1_5 Yb2_1 3.474031 1_655
Mg1_5 Yb3_7 3.504482 1_555
Mg1_5 Yb3_1 3.504482 1_655
Mg1_5 Yb3_5 3.694179 1_555
Mg1_6 Yb0_4 3.460906 1_565
Mg1_6 Yb0_2 3.460906 1_655
Mg1_6 Yb2_2 3.474031 1_655
Mg1_6 Yb2_4 3.474031 1_565
Mg1_6 Yb3_2 3.504482 1_655
Mg1_6 Yb3_4 3.504482 1_565
Mg1_6 Yb3_6 3.694179 1_555
Mg1_7 Yb0_5 3.460906 1_565
Mg1_7 Yb0_3 3.460906 1_655
Mg1_7 Yb2_3 3.474031 1_655
Mg1_7 Yb2_5 3.474031 1_565
Mg1_7 Yb3_3 3.504482 1_655
Mg1_7 Yb3_5 3.504482 1_565
Mg1_7 Yb3_7 3.694179 1_555
