# generated using pymatgen
data_Mo4HS8
_symmetry_space_group_name_H-M   'P 1'
_cell_length_a   3.14475400
_cell_length_b   13.03443800
_cell_length_c   29.66873500
_cell_angle_alpha   90.00000000
_cell_angle_beta   90.00000000
_cell_angle_gamma   90.00000000
_symmetry_Int_Tables_number   1
_chemical_formula_structural   Mo4HS8
_chemical_formula_sum   'Mo8 H2 S16'
_cell_volume   1216.12444533
_cell_formula_units_Z   2
loop_
 _symmetry_equiv_pos_site_id
 _symmetry_equiv_pos_as_xyz
  1  'x, y, z'
loop_
 _atom_site_type_symbol
 _atom_site_label
 _atom_site_symmetry_multiplicity
 _atom_site_fract_x
 _atom_site_fract_y
 _atom_site_fract_z
 _atom_site_occupancy
  Mo  Mo0  1  0.00000000  0.50000000  0.37464000  1
  Mo  Mo1  1  0.50000000  0.00000000  0.53049800  1
  Mo  Mo2  1  0.50000000  0.50000000  0.65293200  1
  Mo  Mo3  1  0.00000000  0.00000000  0.62066000  1
  Mo  Mo4  1  0.00000000  0.00000000  0.43648900  1
  Mo  Mo5  1  0.00000000  0.50000000  0.56299800  1
  Mo  Mo6  1  0.50000000  0.00000000  0.34788400  1
  Mo  Mo7  1  0.50000000  0.50000000  0.46934600  1
  H  H0  1  0.50000000  0.90575100  0.70131400  1
  H  H1  1  0.50000000  0.09424900  0.70131400  1
  S  S0  1  0.00000000  0.87696900  0.37365100  1
  S  S1  1  0.50000000  0.61691200  0.34222600  1
  S  S2  1  0.00000000  0.37820600  0.62652000  1
  S  S3  1  0.50000000  0.88029900  0.46812500  1
  S  S4  1  0.00000000  0.87617300  0.56115900  1
  S  S5  1  0.00000000  0.62004400  0.43729000  1
  S  S6  1  0.50000000  0.38308800  0.34222600  1
  S  S7  1  0.50000000  0.11970100  0.46812500  1
  S  S8  1  0.50000000  0.87885400  0.65719900  1
  S  S9  1  0.00000000  0.62179400  0.62652000  1
  S  S10  1  0.00000000  0.12382700  0.56115900  1
  S  S11  1  0.50000000  0.12114600  0.65719900  1
  S  S12  1  0.00000000  0.37995600  0.43729000  1
  S  S13  1  0.00000000  0.12303100  0.37365100  1
  S  S14  1  0.50000000  0.61995500  0.53144200  1
  S  S15  1  0.50000000  0.38004500  0.53144200  1
loop_
_geom_bond_atom_site_label_1
_geom_bond_atom_site_label_2
_geom_bond_distance
_geom_bond_site_symmetry_2
Mo0 S1 2.391531 1_455
Mo0 S1 2.391531 1_555
Mo0 S6 2.391531 1_455
Mo0 S6 2.391531 1_555
Mo0 S12 2.429659 1_555
Mo0 S5 2.429659 1_555
Mo1 S3 2.420493 1_545
Mo1 S7 2.420493 1_555
Mo1 S10 2.430004 1_555
Mo1 S4 2.430004 1_545
Mo1 S4 2.430004 1_645
Mo1 S10 2.430004 1_655
Mo2 S9 2.367831 1_655
Mo2 S9 2.367831 1_555
Mo2 S2 2.367831 1_655
Mo2 S2 2.367831 1_555
Mo3 S4 2.391944 1_545
Mo3 S10 2.391944 1_555
Mo3 S8 2.478110 1_445
Mo3 S8 2.478110 1_545
Mo3 S11 2.478110 1_455
Mo3 S11 2.478110 1_555
Mo4 S3 2.405758 1_445
Mo4 S3 2.405758 1_545
Mo4 S7 2.405758 1_455
Mo4 S7 2.405758 1_555
Mo4 S13 2.459139 1_555
Mo4 S0 2.459139 1_545
Mo5 S15 2.406983 1_555
Mo5 S15 2.406983 1_455
Mo5 S14 2.406983 1_455
Mo5 S14 2.406983 1_555
Mo5 S9 2.464141 1_555
Mo5 S2 2.464141 1_555
Mo6 S13 2.372436 1_655
Mo6 S13 2.372436 1_555
Mo6 S0 2.372436 1_645
Mo6 S0 2.372436 1_545
Mo7 S12 2.413543 1_555
Mo7 S12 2.413543 1_655
Mo7 S5 2.413543 1_655
Mo7 S5 2.413543 1_555
Mo7 S15 2.416357 1_555
Mo7 S14 2.416357 1_555
H0 S8 1.354977 1_555
H1 S11 1.354977 1_555
