# generated using pymatgen
data_Yb3Ti
_symmetry_space_group_name_H-M   'P 1'
_cell_length_a   4.74949237
_cell_length_b   4.74949237
_cell_length_c   4.74949237
_cell_angle_alpha   90.00000000
_cell_angle_beta   90.00000000
_cell_angle_gamma   90.00000000
_symmetry_Int_Tables_number   1
_chemical_formula_structural   Yb3Ti
_chemical_formula_sum   'Yb3 Ti1'
_cell_volume   107.13751846
_cell_formula_units_Z   1
loop_
 _symmetry_equiv_pos_site_id
 _symmetry_equiv_pos_as_xyz
  1  'x, y, z'
loop_
 _atom_site_type_symbol
 _atom_site_label
 _atom_site_symmetry_multiplicity
 _atom_site_fract_x
 _atom_site_fract_y
 _atom_site_fract_z
 _atom_site_occupancy
  Yb  Yb0  1  0.00000000  0.50000000  0.50000000  1
  Yb  Yb1  1  0.50000000  0.00000000  0.50000000  1
  Yb  Yb2  1  0.50000000  0.50000000  0.00000000  1
  Ti  Ti0  1  0.00000000  0.00000000  0.00000000  1
loop_
_geom_bond_atom_site_label_1
_geom_bond_atom_site_label_2
_geom_bond_distance
_geom_bond_site_symmetry_2
Yb0 Yb2 3.358398 1_455
Yb0 Yb1 3.358398 1_555
Yb0 Yb1 3.358398 1_465
Yb0 Yb2 3.358398 1_456
Yb0 Yb2 3.358398 1_556
Yb0 Yb2 3.358398 1_555
Yb0 Yb1 3.358398 1_455
Yb0 Yb1 3.358398 1_565
Yb1 Yb2 3.358398 1_556
Yb1 Yb2 3.358398 1_555
Yb1 Yb2 3.358398 1_546
Yb1 Yb2 3.358398 1_545
Ti0 Yb0 3.358398 1_544
Ti0 Yb2 3.358398 1_455
Ti0 Yb1 3.358398 1_555
Ti0 Yb1 3.358398 1_454
Ti0 Yb2 3.358398 1_555
Ti0 Yb2 3.358398 1_445
Ti0 Yb0 3.358398 1_545
Ti0 Yb0 3.358398 1_555
Ti0 Yb2 3.358398 1_545
Ti0 Yb1 3.358398 1_455
Ti0 Yb0 3.358398 1_554
Ti0 Yb1 3.358398 1_554
