# generated using pymatgen
data_Tm(AlC)3
_symmetry_space_group_name_H-M   'P 1'
_cell_length_a   3.39557985
_cell_length_b   3.39557967
_cell_length_c   17.11257072
_cell_angle_alpha   90.00000000
_cell_angle_beta   90.00000000
_cell_angle_gamma   120.00000185
_symmetry_Int_Tables_number   1
_chemical_formula_structural   Tm(AlC)3
_chemical_formula_sum   'Tm2 Al6 C6'
_cell_volume   170.87312103
_cell_formula_units_Z   2
loop_
 _symmetry_equiv_pos_site_id
 _symmetry_equiv_pos_as_xyz
  1  'x, y, z'
loop_
 _atom_site_type_symbol
 _atom_site_label
 _atom_site_symmetry_multiplicity
 _atom_site_fract_x
 _atom_site_fract_y
 _atom_site_fract_z
 _atom_site_occupancy
  Tm  Tm0  1  0.00000000  0.00000000  0.00000000  1
  Tm  Tm1  1  0.00000000  0.00000000  0.50000000  1
  Al  Al0  1  0.33333293  0.66666587  0.13307409  1
  Al  Al1  1  0.66666654  0.33333109  0.25000000  1
  Al  Al2  1  0.33333293  0.66666587  0.36692591  1
  Al  Al3  1  0.66666807  0.33333513  0.63307409  1
  Al  Al4  1  0.33333446  0.66666991  0.75000000  1
  Al  Al5  1  0.66666807  0.33333513  0.86692591  1
  C  C0  1  0.66666744  0.33333288  0.09152761  1
  C  C1  1  0.33333023  0.66666247  0.25000000  1
  C  C2  1  0.66666744  0.33333288  0.40847239  1
  C  C3  1  0.33333356  0.66666712  0.59152761  1
  C  C4  1  0.66666877  0.33333453  0.75000000  1
  C  C5  1  0.33333356  0.66666712  0.90847339  1
loop_
_geom_bond_atom_site_label_1
_geom_bond_atom_site_label_2
_geom_bond_distance
_geom_bond_site_symmetry_2
Al0 C1 2.000903 1_555
Al0 C0 2.085373 1_455
Al0 C0 2.085377 1_565
Al0 C0 2.085379 1_555
Al1 C1 1.960430 1_655
Al1 C1 1.960442 1_555
Al1 C1 1.960445 1_545
Al2 C1 2.000903 1_555
Al2 C2 2.085373 1_455
Al2 C2 2.085377 1_565
Al2 C2 2.085379 1_555
Al3 C4 2.000903 1_555
Al3 C3 2.085373 1_655
Al3 C3 2.085376 1_555
Al3 C3 2.085380 1_545
Al4 C4 1.960433 1_565
Al4 C4 1.960436 1_455
Al4 C4 1.960448 1_555
Al5 C4 2.000903 1_555
Al5 C5 2.085379 1_655
Al5 C5 2.085382 1_555
Al5 C5 2.085386 1_545
C0 Tm0 2.509286 1_655
C0 Tm0 2.509290 1_665
C0 Tm0 2.509291 1_555
C2 Tm1 2.509286 1_655
C2 Tm1 2.509290 1_665
C2 Tm1 2.509291 1_555
C3 Tm1 2.509288 1_665
C3 Tm1 2.509288 1_565
C3 Tm1 2.509290 1_555
C5 Tm0 2.509278 1_666
C5 Tm0 2.509278 1_566
C5 Tm0 2.509279 1_556
