# generated using pymatgen
data_Lu2AlZn
_symmetry_space_group_name_H-M   'P 1'
_cell_length_a   4.92905142
_cell_length_b   4.92905221
_cell_length_c   4.92905173
_cell_angle_alpha   60.00037304
_cell_angle_beta   60.00038026
_cell_angle_gamma   60.00037461
_symmetry_Int_Tables_number   1
_chemical_formula_structural   Lu2AlZn
_chemical_formula_sum   'Lu2 Al1 Zn1'
_cell_volume   84.67960966
_cell_formula_units_Z   1
loop_
 _symmetry_equiv_pos_site_id
 _symmetry_equiv_pos_as_xyz
  1  'x, y, z'
loop_
 _atom_site_type_symbol
 _atom_site_label
 _atom_site_symmetry_multiplicity
 _atom_site_fract_x
 _atom_site_fract_y
 _atom_site_fract_z
 _atom_site_occupancy
  Lu  Lu0  1  -0.00000001  -0.00000020  -0.00000016  1
  Lu  Lu1  1  0.50000063  0.50000070  0.50000063  1
  Al  Al0  1  0.24999930  0.24999935  0.24999937  1
  Zn  Zn0  1  0.75000009  0.75000015  0.75000017  1
loop_
_geom_bond_atom_site_label_1
_geom_bond_atom_site_label_2
_geom_bond_distance
_geom_bond_site_symmetry_2
Lu0 Zn0 3.018404 1_444
Lu0 Zn0 3.018430 1_544
Lu0 Zn0 3.018431 1_445
Lu0 Zn0 3.018431 1_454
Lu1 Zn0 3.018401 1_555
Lu1 Zn0 3.018432 1_554
Lu1 Zn0 3.018432 1_455
Lu1 Zn0 3.018432 1_545
Al0 Lu0 3.018400 1_555
Al0 Lu1 3.018423 1_555
Al0 Lu1 3.018424 1_455
Al0 Lu1 3.018424 1_545
Al0 Lu1 3.018425 1_554
Al0 Lu0 3.018432 1_556
Al0 Lu0 3.018432 1_565
Al0 Lu0 3.018432 1_655
