# generated using pymatgen
data_Lu3Ga
_symmetry_space_group_name_H-M   'P 1'
_cell_length_a   6.60652210
_cell_length_b   6.60652210
_cell_length_c   5.23462500
_cell_angle_alpha   90.00000000
_cell_angle_beta   90.00000000
_cell_angle_gamma   120.00000102
_symmetry_Int_Tables_number   1
_chemical_formula_structural   Lu3Ga
_chemical_formula_sum   'Lu6 Ga2'
_cell_volume   197.86181414
_cell_formula_units_Z   2
loop_
 _symmetry_equiv_pos_site_id
 _symmetry_equiv_pos_as_xyz
  1  'x, y, z'
loop_
 _atom_site_type_symbol
 _atom_site_label
 _atom_site_symmetry_multiplicity
 _atom_site_fract_x
 _atom_site_fract_y
 _atom_site_fract_z
 _atom_site_occupancy
  Lu  Lu0  1  0.17183300  0.34366500  0.25000000  1
  Lu  Lu1  1  0.65633500  0.82816700  0.25000000  1
  Lu  Lu2  1  0.17183300  0.82816700  0.25000000  1
  Lu  Lu3  1  0.82816700  0.65633500  0.75000000  1
  Lu  Lu4  1  0.34366500  0.17183300  0.75000000  1
  Lu  Lu5  1  0.82816700  0.17183300  0.75000000  1
  Ga  Ga0  1  0.33333300  0.66666700  0.75000000  1
  Ga  Ga1  1  0.66666700  0.33333300  0.25000000  1
loop_
_geom_bond_atom_site_label_1
_geom_bond_atom_site_label_2
_geom_bond_distance
_geom_bond_site_symmetry_2
Lu0 Lu1 3.200873 1_555
Lu0 Lu2 3.200873 1_555
Lu0 Lu4 3.273598 1_555
Lu0 Lu4 3.273598 1_554
Lu0 Lu5 3.273605 1_455
Lu0 Lu5 3.273605 1_454
Lu0 Lu1 3.405649 1_445
Lu0 Lu2 3.405649 1_545
Lu1 Lu2 3.200873 1_555
Lu1 Lu3 3.273598 1_555
Lu1 Lu3 3.273598 1_554
Lu1 Lu5 3.273605 1_564
Lu1 Lu5 3.273605 1_565
Lu1 Lu2 3.405649 1_655
Lu2 Lu4 3.273605 1_565
Lu2 Lu4 3.273605 1_564
Lu2 Lu3 3.273605 1_454
Lu2 Lu3 3.273605 1_455
Lu3 Lu4 3.200873 1_555
Lu3 Lu5 3.200873 1_555
Lu3 Lu4 3.405649 1_665
Lu3 Lu5 3.405649 1_565
Lu4 Lu5 3.200873 1_555
Lu4 Lu5 3.405649 1_455
Ga0 Lu2 3.203981 1_555
Ga0 Lu2 3.203981 1_556
Ga0 Lu1 3.203987 1_556
Ga0 Lu1 3.203987 1_555
Ga0 Lu0 3.203987 1_556
Ga0 Lu0 3.203987 1_555
Ga0 Lu5 3.303790 1_565
Ga0 Lu5 3.303790 1_455
Ga0 Lu4 3.303790 1_565
Ga0 Lu3 3.303790 1_455
Ga0 Lu4 3.303790 1_555
Ga0 Lu3 3.303790 1_555
Ga1 Lu5 3.203981 1_555
Ga1 Lu5 3.203981 1_554
Ga1 Lu3 3.203987 1_554
Ga1 Lu4 3.203987 1_554
Ga1 Lu4 3.203987 1_555
Ga1 Lu3 3.203987 1_555
Ga1 Lu2 3.303790 1_655
Ga1 Lu2 3.303790 1_545
Ga1 Lu0 3.303790 1_655
Ga1 Lu1 3.303790 1_545
Ga1 Lu1 3.303790 1_555
Ga1 Lu0 3.303790 1_555
