# generated using pymatgen
data_Zr3Tl
_symmetry_space_group_name_H-M   'P 1'
_cell_length_a   4.47389973
_cell_length_b   4.47389973
_cell_length_c   4.47389973
_cell_angle_alpha   90.00000000
_cell_angle_beta   90.00000000
_cell_angle_gamma   90.00000000
_symmetry_Int_Tables_number   1
_chemical_formula_structural   Zr3Tl
_chemical_formula_sum   'Zr3 Tl1'
_cell_volume   89.54858734
_cell_formula_units_Z   1
loop_
 _symmetry_equiv_pos_site_id
 _symmetry_equiv_pos_as_xyz
  1  'x, y, z'
loop_
 _atom_site_type_symbol
 _atom_site_label
 _atom_site_symmetry_multiplicity
 _atom_site_fract_x
 _atom_site_fract_y
 _atom_site_fract_z
 _atom_site_occupancy
  Zr  Zr0  1  0.00000000  0.49999900  0.49999900  1
  Zr  Zr1  1  0.49999900  0.00000000  0.49999900  1
  Zr  Zr2  1  0.49999900  0.49999900  0.00000000  1
  Tl  Tl0  1  0.00000000  0.00000000  0.00000000  1
loop_
_geom_bond_atom_site_label_1
_geom_bond_atom_site_label_2
_geom_bond_distance
_geom_bond_site_symmetry_2
Zr0 Zr2 3.163519 1_555
Zr0 Zr1 3.163519 1_555
Zr0 Zr2 3.163525 1_455
Zr0 Zr2 3.163525 1_556
Zr0 Zr1 3.163525 1_565
Zr0 Zr1 3.163525 1_455
Zr0 Zr1 3.163531 1_465
Zr0 Zr2 3.163531 1_456
Zr1 Zr2 3.163519 1_555
Zr1 Zr2 3.163525 1_556
Zr1 Zr2 3.163525 1_545
Zr1 Zr2 3.163531 1_546
Tl0 Zr2 3.163519 1_555
Tl0 Zr1 3.163519 1_555
Tl0 Zr0 3.163519 1_555
Tl0 Zr1 3.163525 1_554
Tl0 Zr2 3.163525 1_455
Tl0 Zr0 3.163525 1_545
Tl0 Zr2 3.163525 1_545
Tl0 Zr1 3.163525 1_455
Tl0 Zr0 3.163525 1_554
Tl0 Zr2 3.163531 1_445
Tl0 Zr1 3.163531 1_454
Tl0 Zr0 3.163531 1_544
