# generated using pymatgen
data_KHfCuS3
_symmetry_space_group_name_H-M   'P 1'
_cell_length_a   3.73226400
_cell_length_b   7.39057371
_cell_length_c   9.76200900
_cell_angle_alpha   90.00000000
_cell_angle_beta   90.00000000
_cell_angle_gamma   104.62559602
_symmetry_Int_Tables_number   1
_chemical_formula_structural   KHfCuS3
_chemical_formula_sum   'K2 Hf2 Cu2 S6'
_cell_volume   260.54574532
_cell_formula_units_Z   2
loop_
 _symmetry_equiv_pos_site_id
 _symmetry_equiv_pos_as_xyz
  1  'x, y, z'
loop_
 _atom_site_type_symbol
 _atom_site_label
 _atom_site_symmetry_multiplicity
 _atom_site_fract_x
 _atom_site_fract_y
 _atom_site_fract_z
 _atom_site_occupancy
  K  K0  1  0.25468200  0.50936400  0.25000000  1
  K  K1  1  0.74531800  0.49063600  0.75000000  1
  Hf  Hf0  1  0.00000000  0.00000000  0.00000000  1
  Hf  Hf1  1  0.00000000  0.00000000  0.50000000  1
  Cu  Cu0  1  0.53455200  0.06910400  0.25000000  1
  Cu  Cu1  1  0.46544800  0.93089600  0.75000000  1
  S  S0  1  0.38062400  0.76124800  0.55118600  1
  S  S1  1  0.61937600  0.23875200  0.44881400  1
  S  S2  1  0.61937600  0.23875200  0.05118600  1
  S  S3  1  0.06310800  0.12621600  0.75000000  1
  S  S4  1  0.93689200  0.87378400  0.25000000  1
  S  S5  1  0.38062400  0.76124800  0.94881400  1
loop_
_geom_bond_atom_site_label_1
_geom_bond_atom_site_label_2
_geom_bond_distance
_geom_bond_site_symmetry_2
K0 S4 3.205260 1_455
K0 S4 3.205260 1_555
K0 S1 3.315741 1_555
K0 S1 3.315741 1_455
K0 S2 3.315741 1_555
K0 S2 3.315741 1_455
K0 S0 3.448064 1_555
K0 S5 3.448064 1_554
K1 S3 3.205260 1_555
K1 S3 3.205260 1_655
K1 S5 3.315741 1_655
K1 S5 3.315741 1_555
K1 S0 3.315741 1_555
K1 S0 3.315741 1_655
K1 S2 3.448064 1_556
K1 S1 3.448064 1_555
Hf0 S2 2.578203 1_555
Hf0 S2 2.578203 1_455
Hf0 S5 2.578203 1_544
Hf0 S5 2.578203 1_444
Hf0 S3 2.602058 1_554
Hf0 S4 2.602058 1_445
Hf1 S1 2.578203 1_555
Hf1 S1 2.578203 1_455
Hf1 S0 2.578203 1_545
Hf1 S0 2.578203 1_445
Hf1 S3 2.602058 1_555
Hf1 S4 2.602058 1_445
Cu0 S1 2.288794 1_555
Cu0 S2 2.288794 1_555
Cu0 S4 2.330958 1_545
Cu0 S4 2.330958 1_445
Cu1 S5 2.288794 1_555
Cu1 S0 2.288794 1_555
Cu1 S3 2.330958 1_665
Cu1 S3 2.330958 1_565
