# generated using pymatgen
data_SrCaTl2
_symmetry_space_group_name_H-M   'P 1'
_cell_length_a   5.62476094
_cell_length_b   5.62423522
_cell_length_c   5.62492154
_cell_angle_alpha   60.01579530
_cell_angle_beta   60.00826971
_cell_angle_gamma   60.01881628
_symmetry_Int_Tables_number   1
_chemical_formula_structural   SrCaTl2
_chemical_formula_sum   'Sr1 Ca1 Tl2'
_cell_volume   125.86637282
_cell_formula_units_Z   1
loop_
 _symmetry_equiv_pos_site_id
 _symmetry_equiv_pos_as_xyz
  1  'x, y, z'
loop_
 _atom_site_type_symbol
 _atom_site_label
 _atom_site_symmetry_multiplicity
 _atom_site_fract_x
 _atom_site_fract_y
 _atom_site_fract_z
 _atom_site_occupancy
  Sr  Sr0  1  0.75000000  0.75000000  0.75000000  1
  Ca  Ca0  1  0.24999900  0.25000000  0.25000100  1
  Tl  Tl0  1  0.00004712  0.00005073  0.00004455  1
  Tl  Tl1  1  0.49995388  0.49994927  0.49995545  1
loop_
_geom_bond_atom_site_label_1
_geom_bond_atom_site_label_2
_geom_bond_distance
_geom_bond_site_symmetry_2
Sr0 Tl1 3.444651 1_555
Sr0 Tl0 3.444656 1_666
Sr0 Tl1 3.444723 1_565
Sr0 Tl0 3.444723 1_656
Sr0 Tl0 3.444800 1_566
Sr0 Tl1 3.444805 1_655
Sr0 Tl1 3.444806 1_556
Sr0 Tl0 3.444806 1_665
Ca0 Tl0 3.443348 1_555
Ca0 Tl1 3.443353 1_555
Ca0 Tl0 3.445189 1_565
Ca0 Tl1 3.445189 1_545
Ca0 Tl0 3.445210 1_556
Ca0 Tl1 3.445219 1_554
Ca0 Tl1 3.445224 1_455
Ca0 Tl0 3.445238 1_655
