# generated using pymatgen
data_PrDy3
_symmetry_space_group_name_H-M   'P 1'
_cell_length_a   5.07739571
_cell_length_b   5.07738499
_cell_length_c   5.07738928
_cell_angle_alpha   90.00000000
_cell_angle_beta   90.00000000
_cell_angle_gamma   90.00000000
_symmetry_Int_Tables_number   1
_chemical_formula_structural   PrDy3
_chemical_formula_sum   'Pr1 Dy3'
_cell_volume   130.89455117
_cell_formula_units_Z   1
loop_
 _symmetry_equiv_pos_site_id
 _symmetry_equiv_pos_as_xyz
  1  'x, y, z'
loop_
 _atom_site_type_symbol
 _atom_site_label
 _atom_site_symmetry_multiplicity
 _atom_site_fract_x
 _atom_site_fract_y
 _atom_site_fract_z
 _atom_site_occupancy
  Pr  Pr0  1  0.00000000  0.00000000  -0.00000000  1
  Dy  Dy0  1  0.00000000  0.50000000  0.50000000  1
  Dy  Dy1  1  0.50000000  0.00000000  0.50000000  1
  Dy  Dy2  1  0.50000000  0.50000000  0.00000000  1
loop_
_geom_bond_atom_site_label_1
_geom_bond_atom_site_label_2
_geom_bond_distance
_geom_bond_site_symmetry_2
Dy0 Pr0 3.590255 1_566
Dy0 Pr0 3.590255 1_555
Dy0 Pr0 3.590255 1_556
Dy0 Pr0 3.590255 1_565
Dy0 Dy1 3.590257 1_455
Dy0 Dy1 3.590257 1_565
Dy0 Dy1 3.590257 1_555
Dy0 Dy1 3.590257 1_465
Dy0 Dy2 3.590259 1_555
Dy0 Dy2 3.590259 1_455
Dy0 Dy2 3.590259 1_556
Dy0 Dy2 3.590259 1_456
Dy1 Dy2 3.590255 1_546
Dy1 Dy2 3.590255 1_555
Dy1 Dy2 3.590255 1_545
Dy1 Dy2 3.590255 1_556
Dy1 Pr0 3.590259 1_556
Dy1 Pr0 3.590259 1_655
Dy1 Pr0 3.590259 1_656
Dy1 Pr0 3.590259 1_555
Dy2 Pr0 3.590257 1_565
Dy2 Pr0 3.590257 1_555
Dy2 Pr0 3.590257 1_655
Dy2 Pr0 3.590257 1_665
