# generated using pymatgen
data_MgInAg2
_symmetry_space_group_name_H-M   'P 1'
_cell_length_a   4.73434798
_cell_length_b   4.73434804
_cell_length_c   4.73434798
_cell_angle_alpha   59.99896087
_cell_angle_beta   59.99896206
_cell_angle_gamma   59.99896167
_symmetry_Int_Tables_number   1
_chemical_formula_structural   MgInAg2
_chemical_formula_sum   'Mg1 In1 Ag2'
_cell_volume   75.03351802
_cell_formula_units_Z   1
loop_
 _symmetry_equiv_pos_site_id
 _symmetry_equiv_pos_as_xyz
  1  'x, y, z'
loop_
 _atom_site_type_symbol
 _atom_site_label
 _atom_site_symmetry_multiplicity
 _atom_site_fract_x
 _atom_site_fract_y
 _atom_site_fract_z
 _atom_site_occupancy
  Mg  Mg0  1  0.74999907  0.74999903  0.74999901  1
  In  In0  1  0.25000083  0.25000085  0.25000085  1
  Ag  Ag0  1  0.50000084  0.50000087  0.50000087  1
  Ag  Ag1  1  0.00000026  0.00000025  0.00000026  1
loop_
_geom_bond_atom_site_label_1
_geom_bond_atom_site_label_2
_geom_bond_distance
_geom_bond_site_symmetry_2
In0 Mg0 3.347651 1_455
In0 Mg0 3.347651 1_545
In0 Mg0 3.347651 1_554
In0 Mg0 3.347675 1_445
In0 Mg0 3.347675 1_454
In0 Mg0 3.347676 1_544
Ag0 In0 2.899146 1_556
Ag0 In0 2.899146 1_565
Ag0 In0 2.899146 1_655
Ag0 Mg0 2.899153 1_455
Ag0 Mg0 2.899153 1_545
Ag0 Mg0 2.899153 1_554
Ag0 Mg0 2.899186 1_555
Ag0 In0 2.899207 1_555
Ag1 Mg0 2.899141 1_445
Ag1 Mg0 2.899142 1_454
Ag1 Mg0 2.899142 1_544
Ag1 In0 2.899144 1_545
Ag1 In0 2.899144 1_554
Ag1 In0 2.899144 1_455
Ag1 In0 2.899214 1_555
Ag1 Mg0 2.899221 1_444
