# generated using pymatgen
data_Rb2GeSe3
_symmetry_space_group_name_H-M   'P 1'
_cell_length_a   7.20477811
_cell_length_b   7.86801064
_cell_length_c   9.15984822
_cell_angle_alpha   72.06155268
_cell_angle_beta   66.84123170
_cell_angle_gamma   62.75137927
_symmetry_Int_Tables_number   1
_chemical_formula_structural   Rb2GeSe3
_chemical_formula_sum   'Rb4 Ge2 Se6'
_cell_volume   419.19606373
_cell_formula_units_Z   2
loop_
 _symmetry_equiv_pos_site_id
 _symmetry_equiv_pos_as_xyz
  1  'x, y, z'
loop_
 _atom_site_type_symbol
 _atom_site_label
 _atom_site_symmetry_multiplicity
 _atom_site_fract_x
 _atom_site_fract_y
 _atom_site_fract_z
 _atom_site_occupancy
  Rb  Rb0  1  0.81116553  0.55861867  0.81905027  1
  Rb  Rb1  1  0.18883447  0.44138133  0.18094973  1
  Rb  Rb2  1  0.58755306  0.19573581  0.62915907  1
  Rb  Rb3  1  0.41244694  0.80426419  0.37084093  1
  Ge  Ge0  1  0.88043832  0.05422146  0.18490290  1
  Ge  Ge1  1  0.11956168  0.94577854  0.81509710  1
  Se  Se0  1  0.29889192  0.62695733  0.77525883  1
  Se  Se1  1  0.70110808  0.37304267  0.22474117  1
  Se  Se2  1  0.24824097  -0.00000000  -0.00000000  1
  Se  Se3  1  0.75175903  0.00000000  0.00000000  1
  Se  Se4  1  0.88761166  0.81712876  0.40764792  1
  Se  Se5  1  0.11238834  0.18287124  0.59235208  1
loop_
_geom_bond_atom_site_label_1
_geom_bond_atom_site_label_2
_geom_bond_distance
_geom_bond_site_symmetry_2
Rb0 Se1 3.459775 1_556
Rb0 Se5 3.481918 1_655
Rb0 Se0 3.645071 1_655
Rb0 Se0 3.645071 1_555
Rb0 Se4 3.648691 1_555
Rb1 Se0 3.459775 1_554
Rb1 Se4 3.481918 1_455
Rb1 Se1 3.645071 1_455
Rb1 Se1 3.645071 1_555
Rb1 Se5 3.648691 1_555
Rb2 Se0 3.431324 1_555
Rb2 Se1 3.437456 1_555
Rb2 Se4 3.469892 1_545
Rb2 Se5 3.618024 1_655
Rb2 Se5 3.618031 1_555
Rb2 Se3 3.685117 1_556
Rb2 Se2 3.685120 1_556
Rb3 Se1 3.431324 1_555
Rb3 Se0 3.437456 1_555
Rb3 Se5 3.469892 1_565
Rb3 Se4 3.618024 1_455
Rb3 Se4 3.618031 1_555
Rb3 Se2 3.685117 1_565
Rb3 Se3 3.685120 1_565
Ge0 Se4 2.301212 1_545
Ge0 Se1 2.306555 1_555
Ge0 Se2 2.439754 1_655
Ge0 Se3 2.439759 1_555
Ge1 Se5 2.301212 1_565
Ge1 Se0 2.306555 1_555
Ge1 Se3 2.439754 1_466
Ge1 Se2 2.439759 1_566
