# generated using pymatgen
data_Ca2YAgO5
_symmetry_space_group_name_H-M   'P 1'
_cell_length_a   5.80271099
_cell_length_b   5.95880673
_cell_length_c   8.83219716
_cell_angle_alpha   109.62842327
_cell_angle_beta   109.83452317
_cell_angle_gamma   90.05154598
_symmetry_Int_Tables_number   1
_chemical_formula_structural   Ca2YAgO5
_chemical_formula_sum   'Ca4 Y2 Ag2 O10'
_cell_volume   268.29858733
_cell_formula_units_Z   2
loop_
 _symmetry_equiv_pos_site_id
 _symmetry_equiv_pos_as_xyz
  1  'x, y, z'
loop_
 _atom_site_type_symbol
 _atom_site_label
 _atom_site_symmetry_multiplicity
 _atom_site_fract_x
 _atom_site_fract_y
 _atom_site_fract_z
 _atom_site_occupancy
  Ca  Ca0  1  0.13524959  0.63502755  0.21337961  1
  Ca  Ca1  1  0.42831101  0.92516222  0.79045593  1
  Ca  Ca2  1  0.93079236  0.36787854  0.79038528  1
  Ca  Ca3  1  0.63284973  0.08037129  0.21336919  1
  Y  Y0  1  0.30708983  0.29924224  0.50190344  1
  Y  Y1  1  0.80790284  0.70574714  0.50319462  1
  Ag  Ag0  1  0.49542722  0.50303479  0.00174196  1
  Ag  Ag1  1  0.99348716  0.00062428  0.00150314  1
  O  O0  1  0.68536514  0.35599994  0.50045612  1
  O  O1  1  0.18603145  0.64741439  0.50129585  1
  O  O2  1  0.55623680  0.75937816  0.28253342  1
  O  O3  1  0.27421910  0.24218321  0.71936089  1
  O  O4  1  0.05621449  0.02490198  0.28016866  1
  O  O5  1  0.77769204  0.97977215  0.72204184  1
  O  O6  1  0.22307487  0.73430976  0.93086259  1
  O  O7  1  0.27917508  0.27783841  0.06985464  1
  O  O8  1  0.78063363  0.29424042  0.07101166  1
  O  O9  1  0.72193869  0.69794553  0.92798014  1
loop_
_geom_bond_atom_site_label_1
_geom_bond_atom_site_label_2
_geom_bond_distance
_geom_bond_site_symmetry_2
Ca0 O4 2.284797 1_565
Ca0 O2 2.360057 1_555
Ca0 O7 2.396568 1_555
Ca0 O1 2.433956 1_555
Ca0 O8 2.541690 1_455
Ca0 O6 2.947903 1_554
Ca1 O3 2.276253 1_565
Ca1 O5 2.354445 1_555
Ca1 O9 2.432318 1_555
Ca1 O1 2.440836 1_555
Ca1 O6 2.489331 1_555
Ca1 O8 2.837150 1_566
Ca1 O7 3.036979 1_566
Ca2 O5 2.279582 1_545
Ca2 O3 2.336905 1_655
Ca2 O6 2.434915 1_655
Ca2 O0 2.448207 1_555
Ca2 O9 2.492361 1_555
Ca2 O7 2.823604 1_656
Ca2 O8 3.048029 1_556
Ca3 O2 2.279719 1_545
Ca3 O4 2.375169 1_655
Ca3 O8 2.397210 1_555
Ca3 O0 2.428286 1_555
Ca3 O7 2.538528 1_555
Ca3 O6 2.939431 1_544
Ag0 O8 2.118767 1_555
Ag0 O9 2.141878 1_554
Ag0 O6 2.168152 1_554
Ag0 O7 2.188345 1_555
Ag0 O2 2.338443 1_555
Ag0 O3 2.345933 1_554
Ag1 O7 2.118313 1_655
Ag1 O6 2.141282 1_644
Ag1 O9 2.161299 1_544
Ag1 O8 2.181826 1_555
Ag1 O4 2.315992 1_655
Ag1 O5 2.317757 1_544
O0 Y1 2.191198 1_555
O0 Y0 2.225597 1_555
O1 Y0 2.192116 1_555
O1 Y1 2.226638 1_455
O2 Y1 2.126248 1_555
O3 Y0 2.127910 1_555
O4 Y0 2.130048 1_555
O5 Y1 2.131457 1_555
