# generated using pymatgen
data_ZnCoF5
_symmetry_space_group_name_H-M   'P 1'
_cell_length_a   5.32057376
_cell_length_b   5.30144948
_cell_length_c   7.48752569
_cell_angle_alpha   97.70512871
_cell_angle_beta   110.68296730
_cell_angle_gamma   108.25464775
_symmetry_Int_Tables_number   1
_chemical_formula_structural   ZnCoF5
_chemical_formula_sum   'Zn2 Co2 F10'
_cell_volume   180.38518440
_cell_formula_units_Z   2
loop_
 _symmetry_equiv_pos_site_id
 _symmetry_equiv_pos_as_xyz
  1  'x, y, z'
loop_
 _atom_site_type_symbol
 _atom_site_label
 _atom_site_symmetry_multiplicity
 _atom_site_fract_x
 _atom_site_fract_y
 _atom_site_fract_z
 _atom_site_occupancy
  Zn  Zn0  1  0.28211237  0.52945593  0.75457919  1
  Zn  Zn1  1  0.72516475  0.47088254  0.25648934  1
  Co  Co0  1  0.99553035  -0.00170120  0.00056695  1
  Co  Co1  1  0.50000329  0.00209598  0.50070196  1
  F  F0  1  0.37384225  0.12660049  0.25001031  1
  F  F1  1  0.62186007  0.87724096  0.75208435  1
  F  F2  1  0.58515031  0.73565400  0.37704074  1
  F  F3  1  0.85842449  0.21195299  0.12603518  1
  F  F4  1  0.75040822  0.67658738  0.04751040  1
  F  F5  1  0.13649208  0.71432112  0.45747706  1
  F  F6  1  0.23103832  0.31960325  0.95182964  1
  F  F7  1  0.86779941  0.29303201  0.54589387  1
  F  F8  1  0.13345070  0.78561511  0.87419481  1
  F  F9  1  0.42034038  0.27231444  0.62672822  1
loop_
_geom_bond_atom_site_label_1
_geom_bond_atom_site_label_2
_geom_bond_distance
_geom_bond_site_symmetry_2
Co0 F3 1.847719 1_555
Co0 F8 1.851454 1_644
Co0 F6 1.938375 1_654
Co0 F4 1.955600 1_545
Co0 F1 2.023276 1_544
Co0 F0 2.036793 1_655
Co1 F2 1.845073 1_545
Co1 F9 1.850058 1_555
Co1 F5 1.936450 1_545
Co1 F7 1.955572 1_555
Co1 F0 2.032083 1_555
Co1 F1 2.035233 1_545
F0 Zn1 2.145357 1_555
F1 Zn0 2.147678 1_555
F2 Zn1 2.032326 1_555
F3 Zn1 2.020031 1_555
F4 Zn1 2.042049 1_555
F5 Zn1 2.025611 1_455
F6 Zn0 2.006874 1_555
F7 Zn0 2.045137 1_655
F8 Zn0 2.029576 1_555
F9 Zn0 2.022662 1_555
