# generated using pymatgen
data_V2ZnS4
_symmetry_space_group_name_H-M   'P 1'
_cell_length_a   7.13363610
_cell_length_b   7.14195653
_cell_length_c   7.11843397
_cell_angle_alpha   59.86722564
_cell_angle_beta   59.99284872
_cell_angle_gamma   60.12081898
_symmetry_Int_Tables_number   1
_chemical_formula_structural   V2ZnS4
_chemical_formula_sum   'V4 Zn2 S8'
_cell_volume   256.40745228
_cell_formula_units_Z   2
loop_
 _symmetry_equiv_pos_site_id
 _symmetry_equiv_pos_as_xyz
  1  'x, y, z'
loop_
 _atom_site_type_symbol
 _atom_site_label
 _atom_site_symmetry_multiplicity
 _atom_site_fract_x
 _atom_site_fract_y
 _atom_site_fract_z
 _atom_site_occupancy
  V  V0  1  0.49963611  0.49933359  0.49434319  1
  V  V1  1  0.49424818  0.49566929  0.01621134  1
  V  V2  1  0.00641438  0.49920786  0.49473346  1
  V  V3  1  0.49962997  0.00504815  0.49560920  1
  Zn  Zn0  1  0.87659972  0.87629551  0.87073161  1
  Zn  Zn1  1  0.12504137  0.13012367  0.11982141  1
  S  S0  1  0.73897149  0.73634300  0.74283979  1
  S  S1  1  0.25981999  0.25848625  0.72196330  1
  S  S2  1  0.25511325  0.73070732  0.25902882  1
  S  S3  1  0.72642908  0.25580652  0.26101424  1
  S  S4  1  0.73789605  0.28066174  0.74319223  1
  S  S5  1  0.28199655  0.73614150  0.74276207  1
  S  S6  1  0.25683065  0.25585039  0.26100467  1
  S  S7  1  0.74137720  0.74032020  0.27674666  1
loop_
_geom_bond_atom_site_label_1
_geom_bond_atom_site_label_2
_geom_bond_distance
_geom_bond_site_symmetry_2
S0 Zn0 2.361600 1_555
S0 V1 2.454100 1_556
S0 V2 2.457836 1_655
S0 V3 2.458686 1_565
S1 Zn1 2.309468 1_556
S1 V0 2.423225 1_555
S1 V2 2.424047 1_555
S1 V3 2.425911 1_555
S2 Zn1 2.329095 1_565
S2 V1 2.413772 1_555
S2 V0 2.418824 1_555
S2 V2 2.419974 1_555
S3 Zn1 2.325035 1_655
S3 V1 2.403613 1_555
S3 V3 2.407381 1_555
S3 V0 2.410447 1_555
S4 Zn0 2.358517 1_545
S4 V2 2.460118 1_655
S4 V0 2.460676 1_555
S4 V1 2.472744 1_556
S5 Zn0 2.364632 1_455
S5 V1 2.455954 1_556
S5 V0 2.457317 1_555
S5 V3 2.457709 1_565
S6 Zn1 2.322147 1_555
S6 V1 2.404225 1_555
S6 V3 2.407501 1_555
S6 V2 2.411890 1_555
S7 Zn0 2.356606 1_554
S7 V0 2.438078 1_555
S7 V2 2.440412 1_655
S7 V3 2.448952 1_565
