# generated using pymatgen
data_Al(CuO2)3
_symmetry_space_group_name_H-M   'P 1'
_cell_length_a   9.35825496
_cell_length_b   2.85550305
_cell_length_c   11.22888129
_cell_angle_alpha   90.55939344
_cell_angle_beta   90.24311298
_cell_angle_gamma   117.02445850
_symmetry_Int_Tables_number   1
_chemical_formula_structural   Al(CuO2)3
_chemical_formula_sum   'Al2 Cu6 O12'
_cell_volume   267.27543720
_cell_formula_units_Z   2
loop_
 _symmetry_equiv_pos_site_id
 _symmetry_equiv_pos_as_xyz
  1  'x, y, z'
loop_
 _atom_site_type_symbol
 _atom_site_label
 _atom_site_symmetry_multiplicity
 _atom_site_fract_x
 _atom_site_fract_y
 _atom_site_fract_z
 _atom_site_occupancy
  Al  Al0  1  0.66370119  0.99778382  0.00034966  1
  Al  Al1  1  0.00306345  0.00723645  0.50108098  1
  Cu  Cu0  1  0.22536973  0.33420299  0.75346828  1
  Cu  Cu1  1  0.56400343  0.33506917  0.74771622  1
  Cu  Cu2  1  0.87875097  0.32464006  0.74875372  1
  Cu  Cu3  1  0.10775013  0.66235535  0.25070289  1
  Cu  Cu4  1  0.43990920  0.66250362  0.25036235  1
  Cu  Cu5  1  0.78076112  0.67704007  0.24972301  1
  O  O0  1  0.08174980  0.62128235  0.40785261  1
  O  O1  1  0.43419330  0.63861681  0.40432714  1
  O  O2  1  0.81979007  0.73403517  0.40050130  1
  O  O3  1  0.22789833  0.34173168  0.90645565  1
  O  O4  1  0.58314465  0.37425926  0.90563221  1
  O  O5  1  0.84585902  0.26990917  0.89950859  1
  O  O6  1  0.11544388  0.68057806  0.09981653  1
  O  O7  1  0.47981968  0.72806847  0.09688814  1
  O  O8  1  0.74451120  0.62164213  0.09435206  1
  O  O9  1  0.18594812  0.27937352  0.59989997  1
  O  O10  1  0.54744353  0.30268498  0.59642376  1
  O  O11  1  0.92309920  0.39106487  0.59439192  1
loop_
_geom_bond_atom_site_label_1
_geom_bond_atom_site_label_2
_geom_bond_distance
_geom_bond_site_symmetry_2
Al0 O7 1.886056 1_555
Al0 O8 1.895210 1_565
Al0 O8 1.895574 1_555
Al0 O4 1.898964 1_554
Al0 O4 1.899257 1_564
Al0 O5 1.903087 1_564
Al1 O9 1.876900 1_555
Al1 O0 1.890566 1_545
Al1 O2 1.891090 1_445
Al1 O0 1.892521 1_555
Al1 O11 1.894376 1_455
Al1 O11 1.897299 1_445
Cu0 O3 1.717730 1_555
Cu0 O9 1.752430 1_555
Cu1 O10 1.703032 1_555
Cu1 O4 1.778801 1_555
Cu2 O5 1.717744 1_555
Cu2 O11 1.775830 1_555
Cu3 O6 1.696421 1_555
Cu3 O0 1.780050 1_555
Cu4 O1 1.730958 1_555
Cu4 O7 1.758602 1_555
Cu5 O2 1.720969 1_555
Cu5 O8 1.767683 1_555
