# generated using pymatgen
data_MgCrSiO5
_symmetry_space_group_name_H-M   'P 1'
_cell_length_a   5.30402373
_cell_length_b   5.30402373
_cell_length_c   6.92346715
_cell_angle_alpha   75.02268918
_cell_angle_beta   75.02268918
_cell_angle_gamma   104.22013002
_symmetry_Int_Tables_number   1
_chemical_formula_structural   MgCrSiO5
_chemical_formula_sum   'Mg2 Cr2 Si2 O10'
_cell_volume   171.27685546
_cell_formula_units_Z   2
loop_
 _symmetry_equiv_pos_site_id
 _symmetry_equiv_pos_as_xyz
  1  'x, y, z'
loop_
 _atom_site_type_symbol
 _atom_site_label
 _atom_site_symmetry_multiplicity
 _atom_site_fract_x
 _atom_site_fract_y
 _atom_site_fract_z
 _atom_site_occupancy
  Mg  Mg0  1  0.82855100  0.17144900  0.75000000  1
  Mg  Mg1  1  0.17144900  0.82855100  0.25000000  1
  Cr  Cr0  1  0.50000000  0.50000000  0.50000000  1
  Cr  Cr1  1  0.50000000  0.50000000  0.00000000  1
  Si  Si0  1  0.17666100  0.82333900  0.75000000  1
  Si  Si1  1  0.82333900  0.17666100  0.25000000  1
  O  O0  1  0.39383500  0.82523500  0.87816800  1
  O  O1  1  0.17476500  0.60616500  0.62183200  1
  O  O2  1  0.60616500  0.17476500  0.12183200  1
  O  O3  1  0.82523500  0.39383500  0.37816800  1
  O  O4  1  0.77679300  0.86068400  0.40546000  1
  O  O5  1  0.13931600  0.22320700  0.09454000  1
  O  O6  1  0.22320700  0.13931600  0.59454000  1
  O  O7  1  0.86068400  0.77679300  0.90546000  1
  O  O8  1  0.41927300  0.58072700  0.25000000  1
  O  O9  1  0.58072700  0.41927300  0.75000000  1
loop_
_geom_bond_atom_site_label_1
_geom_bond_atom_site_label_2
_geom_bond_distance
_geom_bond_site_symmetry_2
Mg0 O9 2.074729 1_555
Mg0 O7 2.162138 1_545
Mg0 O6 2.162138 1_655
Mg0 O0 2.344353 1_545
Mg0 O1 2.344353 1_655
Mg0 O2 2.546186 1_556
Mg0 O3 2.546186 1_555
Mg1 O8 2.074729 1_555
Mg1 O4 2.162138 1_455
Mg1 O5 2.162138 1_565
Mg1 O3 2.344353 1_455
Mg1 O2 2.344353 1_565
Mg1 O1 2.546186 1_555
Mg1 O0 2.546186 1_554
Cr0 O9 1.858129 1_555
Cr0 O8 1.858129 1_555
Cr0 O4 1.928699 1_555
Cr0 O6 1.928699 1_555
Cr0 O3 1.993748 1_555
Cr0 O1 1.993748 1_555
Cr1 O9 1.858129 1_554
Cr1 O8 1.858129 1_555
Cr1 O7 1.928699 1_554
Cr1 O5 1.928699 1_555
Cr1 O0 1.993748 1_554
Cr1 O2 1.993748 1_555
O0 Si0 1.625310 1_555
O1 Si0 1.625310 1_555
O2 Si1 1.625310 1_555
O3 Si1 1.625310 1_555
O4 Si1 1.659890 1_565
O5 Si1 1.659890 1_455
O6 Si0 1.659890 1_545
O7 Si0 1.659890 1_655
