# generated using pymatgen
data_NaMnIO6
_symmetry_space_group_name_H-M   'P 1'
_cell_length_a   5.00096183
_cell_length_b   5.00096183
_cell_length_c   5.11020265
_cell_angle_alpha   90.00000000
_cell_angle_beta   90.00000000
_cell_angle_gamma   119.99998636
_symmetry_Int_Tables_number   1
_chemical_formula_structural   NaMnIO6
_chemical_formula_sum   'Na1 Mn1 I1 O6'
_cell_volume   110.68171852
_cell_formula_units_Z   1
loop_
 _symmetry_equiv_pos_site_id
 _symmetry_equiv_pos_as_xyz
  1  'x, y, z'
loop_
 _atom_site_type_symbol
 _atom_site_label
 _atom_site_symmetry_multiplicity
 _atom_site_fract_x
 _atom_site_fract_y
 _atom_site_fract_z
 _atom_site_occupancy
  Na  Na0  1  0.66666700  0.33333300  0.50000000  1
  Mn  Mn0  1  0.33333300  0.66666700  0.00000000  1
  I  I0  1  0.00000000  -0.00000000  0.00000000  1
  O  O0  1  0.03868860  0.33062989  0.79499325  1
  O  O1  1  0.29194129  0.96131140  0.79499325  1
  O  O2  1  0.29194129  0.33062989  0.20500675  1
  O  O3  1  0.66937011  0.70805871  0.79499325  1
  O  O4  1  0.66937011  0.96131140  0.20500675  1
  O  O5  1  0.03868860  0.70805871  0.20500675  1
loop_
_geom_bond_atom_site_label_1
_geom_bond_atom_site_label_2
_geom_bond_distance
_geom_bond_site_symmetry_2
Na0 O0 2.399822 1_655
Na0 O4 2.399822 1_545
Na0 O5 2.399825 1_655
Na0 O1 2.399825 1_545
Na0 O3 2.399826 1_555
Na0 O2 2.399826 1_555
Mn0 O1 1.901736 1_554
Mn0 O5 1.901736 1_555
Mn0 O4 1.901739 1_555
Mn0 O0 1.901739 1_554
Mn0 O3 1.901740 1_554
Mn0 O2 1.901740 1_555
I0 O5 1.883878 1_545
I0 O1 1.883878 1_544
I0 O4 1.883878 1_445
I0 O0 1.883878 1_554
I0 O3 1.883878 1_444
I0 O2 1.883878 1_555
