# generated using pymatgen
data_MoH8(NF2)3
_symmetry_space_group_name_H-M   'P 1'
_cell_length_a   6.80775256
_cell_length_b   6.80775256
_cell_length_c   6.80775256
_cell_angle_alpha   60.00000000
_cell_angle_beta   60.00000000
_cell_angle_gamma   60.00000000
_symmetry_Int_Tables_number   1
_chemical_formula_structural   MoH8(NF2)3
_chemical_formula_sum   'Mo1 H8 N3 F6'
_cell_volume   223.09831422
_cell_formula_units_Z   1
loop_
 _symmetry_equiv_pos_site_id
 _symmetry_equiv_pos_as_xyz
  1  'x, y, z'
loop_
 _atom_site_type_symbol
 _atom_site_label
 _atom_site_symmetry_multiplicity
 _atom_site_fract_x
 _atom_site_fract_y
 _atom_site_fract_z
 _atom_site_occupancy
  Mo  Mo0  1  0.00000000  0.00000000  0.00000000  1
  H  H0  1  0.81173400  0.81173400  0.81173400  1
  H  H1  1  0.18826600  0.18826600  0.18826600  1
  H  H2  1  0.56479700  0.81173400  0.81173400  1
  H  H3  1  0.81173400  0.56479700  0.81173400  1
  H  H4  1  0.43520300  0.18826600  0.18826600  1
  H  H5  1  0.18826600  0.43520300  0.18826600  1
  H  H6  1  0.81173400  0.81173400  0.56479700  1
  H  H7  1  0.18826600  0.18826600  0.43520300  1
  N  N0  1  0.75000000  0.75000000  0.75000000  1
  N  N1  1  0.25000000  0.25000000  0.25000000  1
  N  N2  1  0.50000000  0.50000000  0.50000000  1
  F  F0  1  0.79274600  0.79274600  0.20725400  1
  F  F1  1  0.20725400  0.20725400  0.79274600  1
  F  F2  1  0.79274600  0.20725400  0.79274600  1
  F  F3  1  0.20725400  0.79274600  0.20725400  1
  F  F4  1  0.20725400  0.79274600  0.79274600  1
  F  F5  1  0.79274600  0.20725400  0.20725400  1
loop_
_geom_bond_atom_site_label_1
_geom_bond_atom_site_label_2
_geom_bond_distance
_geom_bond_site_symmetry_2
H0 N0 1.029447 1_555
H1 N1 1.029447 1_555
H2 N0 1.029452 1_555
H3 N0 1.029452 1_555
H4 N1 1.029452 1_555
H5 N1 1.029452 1_555
H6 N0 1.029452 1_555
H7 N1 1.029452 1_555
F0 Mo0 1.995362 1_665
F0 H6 2.569840 1_555
F0 H4 2.569844 1_565
F0 H5 2.569844 1_655
F0 H0 2.569847 1_554
F0 N2 2.818446 1_555
F1 Mo0 1.995362 1_556
F1 H7 2.569840 1_555
F1 H2 2.569844 1_545
F1 H3 2.569844 1_455
F1 H1 2.569847 1_556
F1 N2 2.818446 1_555
F2 Mo0 1.995362 1_656
F2 H3 2.569840 1_555
F2 H7 2.569844 1_655
F2 H4 2.569844 1_556
F2 H0 2.569847 1_545
F2 N2 2.818446 1_555
F3 Mo0 1.995362 1_565
F3 H5 2.569840 1_555
F3 H2 2.569844 1_554
F3 H6 2.569844 1_455
F3 H1 2.569847 1_565
F3 N2 2.818446 1_555
F4 Mo0 1.995362 1_566
F4 H2 2.569840 1_555
F4 H7 2.569844 1_565
F4 H5 2.569844 1_556
F4 H0 2.569847 1_455
F4 N2 2.818446 1_555
F5 Mo0 1.995362 1_655
F5 H4 2.569840 1_555
F5 H6 2.569844 1_545
F5 H3 2.569844 1_554
F5 H1 2.569847 1_655
F5 N2 2.818446 1_555
