# generated using pymatgen
data_Lu3S4
_symmetry_space_group_name_H-M   'P 1'
_cell_length_a   5.34605624
_cell_length_b   5.34605624
_cell_length_c   6.52322650
_cell_angle_alpha   65.80954380
_cell_angle_beta   65.80954380
_cell_angle_gamma   90.00000000
_symmetry_Int_Tables_number   1
_chemical_formula_structural   Lu3S4
_chemical_formula_sum   'Lu3 S4'
_cell_volume   151.93956007
_cell_formula_units_Z   1
loop_
 _symmetry_equiv_pos_site_id
 _symmetry_equiv_pos_as_xyz
  1  'x, y, z'
loop_
 _atom_site_type_symbol
 _atom_site_label
 _atom_site_symmetry_multiplicity
 _atom_site_fract_x
 _atom_site_fract_y
 _atom_site_fract_z
 _atom_site_occupancy
  Lu  Lu0  1  0.25000000  0.75000000  0.50000000  1
  Lu  Lu1  1  0.50000000  0.50000000  -0.00000000  1
  Lu  Lu2  1  0.75000000  0.25000000  0.50000000  1
  S  S0  1  0.50000000  0.00000000  -0.00000000  1
  S  S1  1  0.74940301  0.74940301  0.50119497  1
  S  S2  1  0.00000000  0.50000000  -0.00000000  1
  S  S3  1  0.25059699  0.25059699  0.49880503  1
loop_
_geom_bond_atom_site_label_1
_geom_bond_atom_site_label_2
_geom_bond_distance
_geom_bond_site_symmetry_2
Lu0 S2 2.658115 1_556
Lu0 S0 2.658115 1_565
Lu0 S1 2.673033 1_455
Lu0 S3 2.673033 1_565
Lu0 S1 2.673038 1_555
Lu0 S3 2.673038 1_555
Lu1 S1 2.651763 1_554
Lu1 S3 2.651763 1_555
Lu1 S0 2.673028 1_555
Lu1 S2 2.673028 1_655
Lu1 S0 2.673028 1_565
Lu1 S2 2.673028 1_555
Lu2 S0 2.658115 1_556
Lu2 S2 2.658115 1_655
Lu2 S1 2.673033 1_545
Lu2 S3 2.673033 1_655
Lu2 S1 2.673038 1_555
Lu2 S3 2.673038 1_555
