# generated using pymatgen
data_La6Zn(SiS7)2
_symmetry_space_group_name_H-M   'P 1'
_cell_length_a   10.37303180
_cell_length_b   10.37303180
_cell_length_c   5.77586800
_cell_angle_alpha   90.00000000
_cell_angle_beta   90.00000000
_cell_angle_gamma   119.99999875
_symmetry_Int_Tables_number   1
_chemical_formula_structural   La6Zn(SiS7)2
_chemical_formula_sum   'La6 Zn1 Si2 S14'
_cell_volume   538.21936004
_cell_formula_units_Z   1
loop_
 _symmetry_equiv_pos_site_id
 _symmetry_equiv_pos_as_xyz
  1  'x, y, z'
loop_
 _atom_site_type_symbol
 _atom_site_label
 _atom_site_symmetry_multiplicity
 _atom_site_fract_x
 _atom_site_fract_y
 _atom_site_fract_z
 _atom_site_occupancy
  La  La0  1  0.97719500  0.54451800  0.25124700  1
  La  La1  1  0.45548200  0.43267800  0.25124700  1
  La  La2  1  0.56732200  0.02280500  0.25124700  1
  La  La3  1  0.68924200  0.78891600  0.75087000  1
  La  La4  1  0.21108400  0.90032500  0.75087000  1
  La  La5  1  0.09967500  0.31075800  0.75087000  1
  Zn  Zn0  1  0.33333300  0.66666700  0.48794400  1
  Si  Si0  1  0.66666700  0.33333300  0.83548500  1
  Si  Si1  1  0.00000000  0.00000000  0.33720400  1
  S  S0  1  0.66666700  0.33333300  0.47117900  1
  S  S1  1  0.00000000  0.00000000  0.97242600  1
  S  S2  1  0.09020100  0.58350800  0.72990900  1
  S  S3  1  0.41649200  0.50669300  0.72990900  1
  S  S4  1  0.49330700  0.90979900  0.72990900  1
  S  S5  1  0.57607700  0.74789600  0.25054200  1
  S  S6  1  0.25210400  0.82818100  0.25054200  1
  S  S7  1  0.17181900  0.42392300  0.25054200  1
  S  S8  1  0.80926400  0.25829200  0.97679000  1
  S  S9  1  0.74170800  0.55097300  0.97679000  1
  S  S10  1  0.44902700  0.19073600  0.97679000  1
  S  S11  1  0.85795600  0.07563400  0.47787700  1
  S  S12  1  0.92436600  0.78232200  0.47787700  1
  S  S13  1  0.21767800  0.14204400  0.47787700  1
loop_
_geom_bond_atom_site_label_1
_geom_bond_atom_site_label_2
_geom_bond_distance
_geom_bond_site_symmetry_2
La0 S7 2.857624 1_655
La0 S6 2.898113 1_655
La0 S9 2.940721 1_554
La0 S2 2.950774 1_655
La0 S8 3.031597 1_554
La0 S12 3.074144 1_555
La0 S0 3.119589 1_555
La0 S2 3.182887 1_654
La1 S5 2.857615 1_555
La1 S7 2.898108 1_555
La1 S10 2.940721 1_554
La1 S3 2.950771 1_555
La1 S9 3.031597 1_554
La1 S13 3.074150 1_555
La1 S0 3.119603 1_555
La1 S3 3.182884 1_554
La2 S6 2.857616 1_545
La2 S5 2.898118 1_545
La2 S8 2.940721 1_554
La2 S4 2.950774 1_545
La2 S10 3.031597 1_554
La2 S11 3.074153 1_555
La2 S0 3.119585 1_555
La2 S4 3.182886 1_544
La3 S4 2.875120 1_555
La3 S3 2.882178 1_555
La3 S12 2.933629 1_555
La3 S11 3.031417 1_565
La3 S5 3.064107 1_556
La3 S5 3.067676 1_555
La3 S9 3.071505 1_555
La3 S1 3.124850 1_665
La4 S2 2.875111 1_555
La4 S4 2.882173 1_555
La4 S13 2.933638 1_565
La4 S12 3.031418 1_455
La4 S6 3.064104 1_556
La4 S6 3.067673 1_555
La4 S10 3.071517 1_565
La4 S1 3.124858 1_565
La5 S3 2.875112 1_555
La5 S2 2.882183 1_555
La5 S11 2.933634 1_455
La5 S13 3.031410 1_555
La5 S7 3.064106 1_556
La5 S7 3.067675 1_555
La5 S8 3.071523 1_455
La5 S1 3.124849 1_555
S0 Si0 2.104183 1_555
S1 Si1 2.106910 1_556
S2 Zn0 2.623416 1_555
S2 S8 3.474936 1_455
S3 Zn0 2.623424 1_555
S3 S9 3.474932 1_555
S4 Zn0 2.623418 1_555
S5 Zn0 2.609368 1_555
S5 S9 3.624088 1_554
S6 Zn0 2.609359 1_555
S7 Zn0 2.609366 1_555
S7 S8 3.624097 1_454
S8 Si0 2.147402 1_555
S9 Si0 2.147420 1_555
S10 Si0 2.147417 1_555
S10 S4 3.474942 1_545
S10 S6 3.624096 1_546
S11 Si1 2.145382 1_655
S11 S5 3.448295 1_545
S11 S4 3.588718 1_545
S12 Si1 2.145382 1_665
S12 S6 3.448295 1_655
S12 S2 3.588718 1_655
S13 Si1 2.145382 1_555
S13 S7 3.448295 1_555
S13 S3 3.588718 1_555
