# generated using pymatgen
data_Pr2CuAs3
_symmetry_space_group_name_H-M   'P 1'
_cell_length_a   17.06569800
_cell_length_b   17.06569800
_cell_length_c   76.22371600
_cell_angle_alpha   90.00000000
_cell_angle_beta   90.00000000
_cell_angle_gamma   90.00000000
_symmetry_Int_Tables_number   1
_chemical_formula_structural   Pr2CuAs3
_chemical_formula_sum   'Pr16 Cu8 As24'
_cell_volume   22199.24627646
_cell_formula_units_Z   8
loop_
 _symmetry_equiv_pos_site_id
 _symmetry_equiv_pos_as_xyz
  1  'x, y, z'
loop_
 _atom_site_type_symbol
 _atom_site_label
 _atom_site_symmetry_multiplicity
 _atom_site_fract_x
 _atom_site_fract_y
 _atom_site_fract_z
 _atom_site_occupancy
  Pr  Pr0_0  1  0.25000000  0.25000000  0.12153500  1
  Pr  Pr0_1  1  0.25000000  0.25000000  0.62153500  1
  Pr  Pr0_2  1  0.25000000  0.75000000  0.12153500  1
  Pr  Pr0_3  1  0.25000000  0.75000000  0.62153500  1
  Pr  Pr0_4  1  0.75000000  0.25000000  0.12153500  1
  Pr  Pr0_5  1  0.75000000  0.25000000  0.62153500  1
  Pr  Pr0_6  1  0.75000000  0.75000000  0.12153500  1
  Pr  Pr0_7  1  0.75000000  0.75000000  0.62153500  1
  Pr  Pr1_0  1  0.25000000  0.25000000  0.37846500  1
  Pr  Pr1_1  1  0.25000000  0.25000000  0.87846500  1
  Pr  Pr1_2  1  0.25000000  0.75000000  0.37846500  1
  Pr  Pr1_3  1  0.25000000  0.75000000  0.87846500  1
  Pr  Pr1_4  1  0.75000000  0.25000000  0.37846500  1
  Pr  Pr1_5  1  0.75000000  0.25000000  0.87846500  1
  Pr  Pr1_6  1  0.75000000  0.75000000  0.37846500  1
  Pr  Pr1_7  1  0.75000000  0.75000000  0.87846500  1
  Cu  Cu0_0  1  0.25000000  0.25000000  0.25000000  1
  Cu  Cu0_1  1  0.25000000  0.25000000  0.75000000  1
  Cu  Cu0_2  1  0.25000000  0.75000000  0.25000000  1
  Cu  Cu0_3  1  0.25000000  0.75000000  0.75000000  1
  Cu  Cu0_4  1  0.75000000  0.25000000  0.25000000  1
  Cu  Cu0_5  1  0.75000000  0.25000000  0.75000000  1
  Cu  Cu0_6  1  0.75000000  0.75000000  0.25000000  1
  Cu  Cu0_7  1  0.75000000  0.75000000  0.75000000  1
  As  As0_0  1  0.25000000  0.25000000  0.34567000  1
  As  As0_1  1  0.25000000  0.25000000  0.84567000  1
  As  As0_2  1  0.25000000  0.75000000  0.34567000  1
  As  As0_3  1  0.25000000  0.75000000  0.84567000  1
  As  As0_4  1  0.75000000  0.25000000  0.34567000  1
  As  As0_5  1  0.75000000  0.25000000  0.84567000  1
  As  As0_6  1  0.75000000  0.75000000  0.34567000  1
  As  As0_7  1  0.75000000  0.75000000  0.84567000  1
  As  As1_0  1  0.25000000  0.25000000  0.15433000  1
  As  As1_1  1  0.25000000  0.25000000  0.65433000  1
  As  As1_2  1  0.25000000  0.75000000  0.15433000  1
  As  As1_3  1  0.25000000  0.75000000  0.65433000  1
  As  As1_4  1  0.75000000  0.25000000  0.15433000  1
  As  As1_5  1  0.75000000  0.25000000  0.65433000  1
  As  As1_6  1  0.75000000  0.75000000  0.15433000  1
  As  As1_7  1  0.75000000  0.75000000  0.65433000  1
  As  As2_0  1  0.25000000  0.25000000  0.00000000  1
  As  As2_1  1  0.25000000  0.25000000  0.50000000  1
  As  As2_2  1  0.25000000  0.75000000  0.00000000  1
  As  As2_3  1  0.25000000  0.75000000  0.50000000  1
  As  As2_4  1  0.75000000  0.25000000  0.00000000  1
  As  As2_5  1  0.75000000  0.25000000  0.50000000  1
  As  As2_6  1  0.75000000  0.75000000  0.00000000  1
  As  As2_7  1  0.75000000  0.75000000  0.50000000  1
loop_
_geom_bond_atom_site_label_1
_geom_bond_atom_site_label_2
_geom_bond_distance
_geom_bond_site_symmetry_2
Cu0_0 Cu0_4 8.532849 1_455
Cu0_0 Cu0_2 8.532849 1_545
Cu0_0 Cu0_4 8.532849 1_555
Cu0_0 Cu0_2 8.532849 1_555
Cu0_1 Cu0_3 8.532849 1_545
Cu0_1 Cu0_5 8.532849 1_455
Cu0_1 Cu0_5 8.532849 1_555
Cu0_1 Cu0_3 8.532849 1_555
Cu0_2 Cu0_6 8.532849 1_455
Cu0_2 Cu0_6 8.532849 1_555
Cu0_3 Cu0_7 8.532849 1_455
Cu0_3 Cu0_7 8.532849 1_555
Cu0_4 Cu0_6 8.532849 1_545
Cu0_4 Cu0_6 8.532849 1_555
Cu0_5 Cu0_7 8.532849 1_545
Cu0_5 Cu0_7 8.532849 1_555
As0_0 Pr1_0 2.499757 1_555
As0_0 Cu0_0 7.292323 1_555
As0_1 Pr1_1 2.499757 1_555
As0_1 Cu0_1 7.292323 1_555
As0_2 Pr1_2 2.499757 1_555
As0_2 Cu0_2 7.292323 1_555
As0_3 Pr1_3 2.499757 1_555
As0_3 Cu0_3 7.292323 1_555
As0_4 Pr1_4 2.499757 1_555
As0_4 Cu0_4 7.292323 1_555
As0_5 Pr1_5 2.499757 1_555
As0_5 Cu0_5 7.292323 1_555
As0_6 Pr1_6 2.499757 1_555
As0_6 Cu0_6 7.292323 1_555
As0_7 Pr1_7 2.499757 1_555
As0_7 Cu0_7 7.292323 1_555
As1_0 Pr0_0 2.499757 1_555
As1_0 Cu0_0 7.292323 1_555
As1_1 Pr0_1 2.499757 1_555
As1_1 Cu0_1 7.292323 1_555
As1_2 Pr0_2 2.499757 1_555
As1_2 Cu0_2 7.292323 1_555
As1_3 Pr0_3 2.499757 1_555
As1_3 Cu0_3 7.292323 1_555
As1_4 Pr0_4 2.499757 1_555
As1_4 Cu0_4 7.292323 1_555
As1_5 Pr0_5 2.499757 1_555
As1_5 Cu0_5 7.292323 1_555
As1_6 Pr0_6 2.499757 1_555
As1_6 Cu0_6 7.292323 1_555
As1_7 Pr0_7 2.499757 1_555
As1_7 Cu0_7 7.292323 1_555
As2_0 As2_4 8.532849 1_455
As2_0 As2_2 8.532849 1_545
As2_0 As2_2 8.532849 1_555
As2_0 As2_4 8.532849 1_555
As2_0 Pr0_0 9.263849 1_555
As2_0 Pr1_1 9.263849 1_554
As2_1 As2_3 8.532849 1_545
As2_1 As2_5 8.532849 1_455
As2_1 As2_5 8.532849 1_555
As2_1 As2_3 8.532849 1_555
As2_1 Pr1_0 9.263849 1_555
As2_1 Pr0_1 9.263849 1_555
As2_2 As2_6 8.532849 1_455
As2_2 As2_6 8.532849 1_555
As2_2 Pr0_2 9.263849 1_555
As2_2 Pr1_3 9.263849 1_554
As2_3 As2_7 8.532849 1_455
As2_3 As2_7 8.532849 1_555
As2_3 Pr1_2 9.263849 1_555
As2_3 Pr0_3 9.263849 1_555
As2_4 As2_6 8.532849 1_545
As2_4 As2_6 8.532849 1_555
As2_4 Pr0_4 9.263849 1_555
As2_4 Pr1_5 9.263849 1_554
As2_5 As2_7 8.532849 1_545
As2_5 As2_7 8.532849 1_555
As2_5 Pr1_4 9.263849 1_555
As2_5 Pr0_5 9.263849 1_555
As2_6 Pr0_6 9.263849 1_555
As2_6 Pr1_7 9.263849 1_554
As2_7 Pr1_6 9.263849 1_555
As2_7 Pr0_7 9.263849 1_555
