# generated using pymatgen
data_Tm12(OsC3)5
_symmetry_space_group_name_H-M   'P 1'
_cell_length_a   4.95515480
_cell_length_b   10.57289444
_cell_length_c   10.57290259
_cell_angle_alpha   119.99978659
_cell_angle_beta   89.99999889
_cell_angle_gamma   90.00000368
_symmetry_Int_Tables_number   1
_chemical_formula_structural   Tm12(OsC3)5
_chemical_formula_sum   'Tm12 Os5 C15'
_cell_volume   479.70795376
_cell_formula_units_Z   1
loop_
 _symmetry_equiv_pos_site_id
 _symmetry_equiv_pos_as_xyz
  1  'x, y, z'
loop_
 _atom_site_type_symbol
 _atom_site_label
 _atom_site_symmetry_multiplicity
 _atom_site_fract_x
 _atom_site_fract_y
 _atom_site_fract_z
 _atom_site_occupancy
  Tm  Tm0  1  0.49999974  0.20717469  0.20726753  1
  Tm  Tm1  1  0.50000003  0.00008752  0.79282305  1
  Tm  Tm2  1  0.50000038  0.79273290  -0.00009211  1
  Tm  Tm3  1  0.00000008  0.72844233  0.18405669  1
  Tm  Tm4  1  -0.00000005  0.45561605  0.27155907  1
  Tm  Tm5  1  -0.00000003  0.54454381  0.81605845  1
  Tm  Tm6  1  0.00000002  0.81594064  0.54438170  1
  Tm  Tm7  1  0.00000009  0.18394044  0.72848181  1
  Tm  Tm8  1  -0.00000001  0.27151648  0.45545886  1
  Tm  Tm9  1  0.49999996  0.56151611  0.56136014  1
  Tm  Tm10  1  0.50000017  0.99984188  0.43849149  1
  Tm  Tm11  1  0.49999982  0.43864263  0.00015654  1
  Os  Os0  1  0.00000002  0.83892805  0.83901295  1
  Os  Os1  1  0.00000021  0.00008825  0.16107805  1
  Os  Os2  1  -0.00000051  0.16098939  -0.00008994  1
  Os  Os3  1  0.49999995  0.66666455  0.33333086  1
  Os  Os4  1  0.50000003  0.33333038  0.66666278  1
  C  C0  1  -0.00000001  0.66248128  0.66249327  1
  C  C1  1  0.00000011  0.00001329  0.33751909  1
  C  C2  1  -0.00000016  0.33750575  -0.00001430  1
  C  C3  1  -0.00000014  0.21162033  0.21140430  1
  C  C4  1  -0.00000000  -0.00021811  0.78837617  1
  C  C5  1  0.00000015  0.78859674  0.00021788  1
  C  C6  1  -0.00000008  0.53626375  0.53635956  1
  C  C7  1  0.00000008  0.00009407  0.46373702  1
  C  C8  1  0.00000001  0.46363960  -0.00009580  1
  C  C9  1  0.50000013  0.71769943  0.18375105  1
  C  C10  1  0.49999983  0.46605657  0.28230776  1
  C  C11  1  0.50000000  0.53370034  0.81594668  1
  C  C12  1  0.50000009  0.81625593  0.53395319  1
  C  C13  1  0.50000008  0.18404803  0.71774911  1
  C  C14  1  0.50000002  0.28224689  0.46629912  1
loop_
_geom_bond_atom_site_label_1
_geom_bond_atom_site_label_2
_geom_bond_distance
_geom_bond_site_symmetry_2
Os0 Tm2 3.178304 1_456
Os0 Tm2 3.178307 1_556
Os0 Tm1 3.179994 1_565
Os0 Tm1 3.179994 1_465
Os1 Tm0 3.178292 1_555
Os1 Tm0 3.178296 1_455
Os1 Tm2 3.180046 1_445
Os1 Tm2 3.180048 1_545
Os2 Tm1 3.178308 1_454
Os2 Tm1 3.178312 1_554
Os2 Tm0 3.180057 1_455
Os2 Tm0 3.180059 1_555
C0 C6 1.334047 1_555
C0 Os0 1.865945 1_555
C0 Tm5 2.493109 1_555
C0 Tm6 2.493620 1_555
C0 Tm9 2.698118 1_555
C0 Tm9 2.698118 1_455
C1 C7 1.334063 1_555
C1 Os1 1.865890 1_555
C1 Tm8 2.493118 1_555
C1 Tm3 2.493631 1_545
C1 Tm10 2.698154 1_445
C1 Tm10 2.698155 1_545
C2 C8 1.334031 1_555
C2 Os2 1.865889 1_555
C2 Tm7 2.493129 1_554
C2 Tm4 2.493653 1_555
C2 Tm11 2.698126 1_555
C2 Tm11 2.698126 1_455
C3 Os2 2.022307 1_555
C3 Os1 2.023625 1_555
C3 Tm4 2.327840 1_555
C3 Tm8 2.329217 1_555
C3 Tm0 2.477994 1_555
C3 Tm0 2.477995 1_455
C4 Os0 2.022247 1_545
C4 Os2 2.023649 1_556
C4 Tm6 2.327838 1_545
C4 Tm7 2.329199 1_555
C4 Tm1 2.477995 1_455
C4 Tm1 2.477995 1_555
C5 Os1 2.022281 1_565
C5 Os0 2.023651 1_554
C5 Tm3 2.327813 1_555
C5 Tm5 2.329211 1_554
C5 Tm2 2.477993 1_455
C5 Tm2 2.477996 1_555
C6 Tm8 2.484471 1_555
C6 Tm4 2.485598 1_555
C6 Tm9 2.491780 1_455
C6 Tm9 2.491781 1_555
C7 Tm7 2.484457 1_555
C7 Tm6 2.485574 1_545
C7 Tm10 2.491772 1_445
C7 Tm10 2.491773 1_545
C8 Tm5 2.484487 1_554
C8 Tm3 2.485617 1_555
C8 Tm11 2.491776 1_555
C8 Tm11 2.491778 1_455
C9 Os3 1.909350 1_555
C9 Tm2 2.439171 1_555
C9 Tm3 2.480107 1_655
C9 Tm3 2.480108 1_555
C9 Tm11 2.597291 1_555
C9 Tm10 2.849282 1_555
C10 Os3 1.909318 1_555
C10 Tm0 2.439211 1_555
C10 Tm4 2.480109 1_555
C10 Tm4 2.480111 1_655
C10 Tm9 2.597251 1_555
C10 Tm11 2.849314 1_555
C11 Os4 1.906701 1_555
C11 Tm2 2.440667 1_556
C11 Tm5 2.480201 1_655
C11 Tm5 2.480202 1_555
C11 Tm11 2.600153 1_556
C11 Tm9 2.850167 1_555
C12 Os3 1.909447 1_555
C12 Tm1 2.439100 1_565
C12 Tm6 2.480106 1_655
C12 Tm6 2.480106 1_555
C12 Tm10 2.597192 1_555
C12 Tm9 2.849294 1_555
C13 Os4 1.906680 1_555
C13 Tm1 2.440671 1_555
C13 Tm7 2.480201 1_555
C13 Tm7 2.480201 1_655
C13 Tm10 2.600076 1_545
C13 Tm11 2.850243 1_556
C14 Os4 1.906641 1_555
C14 Tm0 2.440652 1_555
C14 Tm8 2.480200 1_655
C14 Tm8 2.480201 1_555
C14 Tm9 2.600168 1_555
C14 Tm10 2.850231 1_545
