# generated using pymatgen
data_Fe(Mo3Se4)2
_symmetry_space_group_name_H-M   'P 1'
_cell_length_a   6.84307400
_cell_length_b   6.86545950
_cell_length_c   6.87016436
_cell_angle_alpha   93.49192629
_cell_angle_beta   90.48763385
_cell_angle_gamma   93.87402557
_symmetry_Int_Tables_number   1
_chemical_formula_structural   Fe(Mo3Se4)2
_chemical_formula_sum   'Fe1 Mo6 Se8'
_cell_volume   321.40491069
_cell_formula_units_Z   1
loop_
 _symmetry_equiv_pos_site_id
 _symmetry_equiv_pos_as_xyz
  1  'x, y, z'
loop_
 _atom_site_type_symbol
 _atom_site_label
 _atom_site_symmetry_multiplicity
 _atom_site_fract_x
 _atom_site_fract_y
 _atom_site_fract_z
 _atom_site_occupancy
  Fe  Fe0  1  0.49396200  0.87372000  0.95436900  1
  Mo  Mo0  1  0.44486400  0.76882500  0.58400800  1
  Mo  Mo1  1  0.55045500  0.24127900  0.41797900  1
  Mo  Mo2  1  0.76048100  0.58567900  0.44739300  1
  Mo  Mo3  1  0.23510500  0.41930400  0.54596000  1
  Mo  Mo4  1  0.57789900  0.46519300  0.77158700  1
  Mo  Mo5  1  0.42081200  0.54597500  0.23389800  1
  Se  Se0  1  0.86609800  0.27899100  0.62473200  1
  Se  Se1  1  0.13155300  0.73005700  0.37666100  1
  Se  Se2  1  0.24288000  0.61348100  0.88551300  1
  Se  Se3  1  0.73679100  0.37545900  0.12225600  1
  Se  Se4  1  0.78692900  0.79498700  0.77898700  1
  Se  Se5  1  0.22887200  0.21282400  0.22062800  1
  Se  Se6  1  0.64085400  0.88184400  0.27964700  1
  Se  Se7  1  0.37014300  0.13048200  0.73568300  1
loop_
_geom_bond_atom_site_label_1
_geom_bond_atom_site_label_2
_geom_bond_distance
_geom_bond_site_symmetry_2
Fe0 Se2 2.415875 1_555
Fe0 Se4 2.423094 1_555
Fe0 Se6 2.438539 1_556
Fe0 Se7 2.566195 1_565
Fe0 Mo0 2.614426 1_555
Fe0 Mo5 3.064659 1_556
Fe0 Se5 3.487877 1_566
Mo0 Se1 2.553735 1_555
Mo0 Se6 2.622574 1_555
Mo0 Se4 2.677006 1_555
Mo0 Mo3 2.708995 1_555
Mo0 Se7 2.716197 1_565
Mo0 Mo2 2.717410 1_555
Mo0 Mo4 2.720049 1_555
Mo0 Se2 2.730787 1_555
Mo0 Mo5 2.768460 1_555
Mo1 Se0 2.564668 1_555
Mo1 Se5 2.564765 1_555
Mo1 Se3 2.591439 1_555
Mo1 Se7 2.643190 1_555
Mo1 Mo2 2.678581 1_555
Mo1 Mo3 2.679833 1_555
Mo1 Se6 2.702950 1_545
Mo1 Mo5 2.704870 1_555
Mo1 Mo4 2.792577 1_555
Mo2 Se6 2.574278 1_555
Mo2 Se3 2.582322 1_555
Mo2 Se4 2.616589 1_555
Mo2 Se0 2.635000 1_555
Mo2 Mo4 2.708904 1_555
Mo2 Se1 2.721422 1_655
Mo2 Mo5 2.726910 1_555
Mo3 Se5 2.571225 1_555
Mo3 Se2 2.613691 1_555
Mo3 Se1 2.626625 1_555
Mo3 Se7 2.650783 1_555
Mo3 Mo5 2.663042 1_555
Mo3 Se0 2.712058 1_455
Mo3 Mo4 2.789878 1_555
Mo4 Se4 2.592740 1_555
Mo4 Se0 2.599807 1_555
Mo4 Se7 2.616510 1_555
Mo4 Se2 2.674649 1_555
Mo4 Se3 2.755454 1_556
Mo5 Se5 2.555689 1_555
Mo5 Se1 2.587929 1_555
Mo5 Se3 2.625844 1_555
Mo5 Se6 2.667910 1_555
Mo5 Se2 2.754593 1_554
Se0 Se4 3.557219 1_545
Se0 Se3 3.572076 1_556
Se1 Se2 3.521899 1_554
Se1 Se5 3.567168 1_565
Se3 Se6 3.639045 1_545
Se5 Se7 3.500469 1_554
