# generated using pymatgen
data_KTmBr3
_symmetry_space_group_name_H-M   'P 1'
_cell_length_a   7.60302300
_cell_length_b   7.98206000
_cell_length_c   10.93947800
_cell_angle_alpha   90.00000000
_cell_angle_beta   90.00000000
_cell_angle_gamma   90.00000000
_symmetry_Int_Tables_number   1
_chemical_formula_structural   KTmBr3
_chemical_formula_sum   'K4 Tm4 Br12'
_cell_volume   663.89269727
_cell_formula_units_Z   4
loop_
 _symmetry_equiv_pos_site_id
 _symmetry_equiv_pos_as_xyz
  1  'x, y, z'
loop_
 _atom_site_type_symbol
 _atom_site_label
 _atom_site_symmetry_multiplicity
 _atom_site_fract_x
 _atom_site_fract_y
 _atom_site_fract_z
 _atom_site_occupancy
  K  K0  1  0.02741600  0.42848800  0.25000000  1
  K  K1  1  0.97258400  0.57151200  0.75000000  1
  K  K2  1  0.52741600  0.07151200  0.75000000  1
  K  K3  1  0.47258400  0.92848800  0.25000000  1
  Tm  Tm0  1  0.00000000  0.00000000  0.00000000  1
  Tm  Tm1  1  0.50000000  0.50000000  0.00000000  1
  Tm  Tm2  1  0.00000000  0.00000000  0.50000000  1
  Tm  Tm3  1  0.50000000  0.50000000  0.50000000  1
  Br  Br0  1  0.30001500  0.20402600  0.04449000  1
  Br  Br1  1  0.69998500  0.79597400  0.95551000  1
  Br  Br2  1  0.80001500  0.29597400  0.95551000  1
  Br  Br3  1  0.69998500  0.79597400  0.54449000  1
  Br  Br4  1  0.19998500  0.70402600  0.04449000  1
  Br  Br5  1  0.30001500  0.20402600  0.45551000  1
  Br  Br6  1  0.19998500  0.70402600  0.45551000  1
  Br  Br7  1  0.80001500  0.29597400  0.54449000  1
  Br  Br8  1  0.59981600  0.52316000  0.25000000  1
  Br  Br9  1  0.40018400  0.47684000  0.75000000  1
  Br  Br10  1  0.09981600  0.97684000  0.75000000  1
  Br  Br11  1  0.90018400  0.02316000  0.25000000  1
loop_
_geom_bond_atom_site_label_1
_geom_bond_atom_site_label_2
_geom_bond_distance
_geom_bond_site_symmetry_2
Br0 Tm0 2.844661 1_555
Br0 Tm1 2.851331 1_555
Br0 K3 3.407775 1_545
Br0 K0 3.543999 1_555
Br0 K2 3.806115 1_554
Br1 Tm0 2.844661 1_666
Br1 Tm1 2.851331 1_556
Br1 K2 3.407775 1_565
Br1 K1 3.543999 1_555
Br1 K3 3.806115 1_556
Br2 Tm1 2.844661 1_556
Br2 Tm0 2.851331 1_656
Br2 K1 3.407775 1_555
Br2 K2 3.543999 1_555
Br2 K0 3.806115 1_656
Br3 Tm2 2.844661 1_665
Br3 Tm3 2.851331 1_555
Br3 K2 3.407775 1_565
Br3 K1 3.543999 1_555
Br3 K3 3.806115 1_555
Br4 Tm1 2.844661 1_555
Br4 Tm0 2.851331 1_565
Br4 K0 3.407775 1_555
Br4 K3 3.543999 1_555
Br4 K1 3.806115 1_454
Br5 Tm2 2.844661 1_555
Br5 Tm3 2.851331 1_555
Br5 K3 3.407775 1_545
Br5 K0 3.543999 1_555
Br5 K2 3.806115 1_555
Br6 Tm3 2.844661 1_555
Br6 Tm2 2.851331 1_565
Br6 K0 3.407775 1_555
Br6 K3 3.543999 1_555
Br6 K1 3.806115 1_455
Br7 Tm3 2.844661 1_555
Br7 Tm2 2.851331 1_655
Br7 K1 3.407775 1_555
Br7 K2 3.543999 1_555
Br7 K0 3.806115 1_655
Br8 Tm1 2.844226 1_555
Br8 Tm3 2.844226 1_555
Br8 K0 3.337723 1_655
Br8 K3 3.376872 1_555
Br9 Tm1 2.844226 1_556
Br9 Tm3 2.844226 1_555
Br9 K1 3.337723 1_455
Br9 K2 3.376872 1_555
Br10 Tm0 2.844226 1_566
Br10 Tm2 2.844226 1_565
Br10 K2 3.337723 1_565
Br10 K1 3.376872 1_455
Br11 Tm2 2.844226 1_655
Br11 Tm0 2.844226 1_655
Br11 K3 3.337723 1_545
Br11 K0 3.376872 1_655
