# generated using pymatgen
data_KCa(PO3)3
_symmetry_space_group_name_H-M   'P 1'
_cell_length_a   6.92176137
_cell_length_b   6.92176137
_cell_length_c   10.49772100
_cell_angle_alpha   90.00000000
_cell_angle_beta   90.00000000
_cell_angle_gamma   119.99999395
_symmetry_Int_Tables_number   1
_chemical_formula_structural   KCa(PO3)3
_chemical_formula_sum   'K2 Ca2 P6 O18'
_cell_volume   435.57097248
_cell_formula_units_Z   2
loop_
 _symmetry_equiv_pos_site_id
 _symmetry_equiv_pos_as_xyz
  1  'x, y, z'
loop_
 _atom_site_type_symbol
 _atom_site_label
 _atom_site_symmetry_multiplicity
 _atom_site_fract_x
 _atom_site_fract_y
 _atom_site_fract_z
 _atom_site_occupancy
  K  K0  1  0.66666700  0.33333300  0.50000000  1
  K  K1  1  0.66666700  0.33333300  0.00000000  1
  Ca  Ca0  1  0.33333300  0.66666700  0.50000000  1
  Ca  Ca1  1  0.33333300  0.66666700  0.00000000  1
  P  P0  1  0.73201200  0.77132600  0.25000000  1
  P  P1  1  0.22867400  0.96068600  0.25000000  1
  P  P2  1  0.03931400  0.26798800  0.25000000  1
  P  P3  1  0.03931400  0.77132600  0.75000000  1
  P  P4  1  0.22867400  0.26798800  0.75000000  1
  P  P5  1  0.73201200  0.96068600  0.75000000  1
  O  O0  1  0.05343800  0.38554200  0.37273100  1
  O  O1  1  0.61445800  0.94656200  0.62726900  1
  O  O2  1  0.61445800  0.66789600  0.37273100  1
  O  O3  1  0.33210400  0.94656200  0.37273100  1
  O  O4  1  0.61445800  0.66789600  0.12726900  1
  O  O5  1  0.33210400  0.94656200  0.12726900  1
  O  O6  1  0.05343800  0.38554200  0.12726900  1
  O  O7  1  0.33210400  0.38554200  0.87273100  1
  O  O8  1  0.05343800  0.66789600  0.87273100  1
  O  O9  1  0.05343800  0.66789600  0.62726900  1
  O  O10  1  0.80725200  0.77408000  0.75000000  1
  O  O11  1  0.96682700  0.19274800  0.75000000  1
  O  O12  1  0.22592000  0.03317300  0.75000000  1
  O  O13  1  0.22592000  0.19274800  0.25000000  1
  O  O14  1  0.96682700  0.77408000  0.25000000  1
  O  O15  1  0.80725200  0.03317300  0.25000000  1
  O  O16  1  0.61445800  0.94656200  0.87273100  1
  O  O17  1  0.33210400  0.38554200  0.62726900  1
loop_
_geom_bond_atom_site_label_1
_geom_bond_atom_site_label_2
_geom_bond_distance
_geom_bond_site_symmetry_2
K0 O0 2.848716 1_655
K0 O1 2.848716 1_545
K0 O9 2.848719 1_655
K0 O3 2.848719 1_545
K0 O2 2.848722 1_555
K0 O17 2.848722 1_555
K1 O6 2.848716 1_655
K1 O16 2.848716 1_544
K1 O8 2.848719 1_654
K1 O5 2.848719 1_545
K1 O4 2.848722 1_555
K1 O7 2.848722 1_554
Ca0 O3 2.356890 1_555
Ca0 O9 2.356890 1_555
Ca0 O1 2.356893 1_555
Ca0 O0 2.356893 1_555
Ca0 O17 2.356896 1_555
Ca0 O2 2.356896 1_555
Ca1 O5 2.356890 1_555
Ca1 O8 2.356890 1_554
Ca1 O6 2.356893 1_555
Ca1 O16 2.356893 1_554
Ca1 O4 2.356896 1_555
Ca1 O7 2.356896 1_554
O0 P2 1.500683 1_555
O1 P5 1.500683 1_555
O2 P0 1.500683 1_555
O3 P1 1.500683 1_555
O4 P0 1.500683 1_555
O5 P1 1.500683 1_555
O6 P2 1.500683 1_555
O7 P4 1.500683 1_555
O8 P3 1.500683 1_555
O9 P3 1.500683 1_555
O10 P3 1.615893 1_655
O10 P5 1.616244 1_555
O11 P5 1.615890 1_545
O11 P4 1.616250 1_655
O12 P4 1.615886 1_555
O12 P3 1.616249 1_545
O13 P1 1.615893 1_545
O13 P2 1.616244 1_555
O14 P0 1.615886 1_555
O14 P1 1.616249 1_655
O15 P2 1.615890 1_655
O15 P0 1.616250 1_545
O16 P5 1.500683 1_555
O17 P4 1.500683 1_555
