# generated using pymatgen
data_Cs2Tm2Mg(WO4)4
_symmetry_space_group_name_H-M   'P 1'
_cell_length_a   7.56724218
_cell_length_b   7.92916662
_cell_length_c   7.52701835
_cell_angle_alpha   63.82416877
_cell_angle_beta   63.84258119
_cell_angle_gamma   90.62553486
_symmetry_Int_Tables_number   1
_chemical_formula_structural   Cs2Tm2Mg(WO4)4
_chemical_formula_sum   'Cs2 Tm2 Mg1 W4 O16'
_cell_volume   351.78394293
_cell_formula_units_Z   1
loop_
 _symmetry_equiv_pos_site_id
 _symmetry_equiv_pos_as_xyz
  1  'x, y, z'
loop_
 _atom_site_type_symbol
 _atom_site_label
 _atom_site_symmetry_multiplicity
 _atom_site_fract_x
 _atom_site_fract_y
 _atom_site_fract_z
 _atom_site_occupancy
  Cs  Cs0  1  0.77869306  0.24047628  0.71935432  1
  Cs  Cs1  1  0.21158803  0.80556724  0.24980928  1
  Tm  Tm0  1  0.29356724  0.79943342  0.71784151  1
  Tm  Tm1  1  0.76263024  0.19887524  0.24495648  1
  Mg  Mg0  1  0.93496518  0.93005187  0.90193575  1
  W  W0  1  0.28908562  0.31436058  0.69810324  1
  W  W1  1  0.69174685  0.66266425  0.32765740  1
  W  W2  1  0.69028782  0.69758775  0.80746162  1
  W  W3  1  0.31009214  0.29682061  0.19843398  1
  O  O0  1  0.36925905  0.25383362  0.94280409  1
  O  O1  1  0.63553877  0.75948341  0.05152659  1
  O  O2  1  0.75807406  0.62553769  0.57646108  1
  O  O3  1  0.24142921  0.36893114  0.43023926  1
  O  O4  1  0.61465898  0.91876397  0.63659316  1
  O  O5  1  0.39302642  0.07950839  0.35197687  1
  O  O6  1  0.03639611  0.33085379  0.88594053  1
  O  O7  1  0.94881147  0.66025460  0.12257432  1
  O  O8  1  0.40209988  0.62459129  0.54412636  1
  O  O9  1  0.58472449  0.36154939  0.46619792  1
  O  O10  1  0.37575492  0.58578408  0.96640709  1
  O  O11  1  0.63821780  0.42174654  0.03050718  1
  O  O12  1  0.21795408  0.03524125  0.79185678  1
  O  O13  1  0.77708122  0.95107925  0.19047043  1
  O  O14  1  0.96671554  0.79948815  0.70577734  1
  O  O15  1  0.03593479  0.21918320  0.29813040  1
loop_
_geom_bond_atom_site_label_1
_geom_bond_atom_site_label_2
_geom_bond_distance
_geom_bond_site_symmetry_2
Cs0 O9 2.754976 1_555
Cs0 O2 2.786470 1_555
Cs0 Mg0 2.803152 1_545
Cs0 O0 2.830068 1_555
Cs0 O6 2.967634 1_655
Cs0 O15 2.984648 1_655
Cs0 O3 3.046747 1_655
Cs0 O11 3.080476 1_556
Cs0 O4 3.232737 1_545
Cs0 O13 3.259253 1_546
Cs0 O1 3.328560 1_546
Cs1 O7 2.966723 1_455
Cs1 O1 2.989710 1_555
Cs1 O8 3.016882 1_555
Cs1 O2 3.036043 1_455
Cs1 O14 3.075719 1_455
Cs1 O12 3.084495 1_564
Cs1 O5 3.087739 1_565
Cs1 O0 3.102766 1_564
Cs1 O3 3.165615 1_555
Cs1 O10 3.181395 1_554
Cs1 O13 3.642084 1_455
Cs1 O15 3.657375 1_565
Mg0 O12 1.937752 1_665
Mg0 O13 2.051350 1_556
Mg0 O14 2.085843 1_555
Mg0 O7 2.090308 1_556
Mg0 O1 2.138021 1_556
O0 W3 1.959927 1_556
O0 W0 2.050021 1_555
O0 O15 2.641887 1_556
O0 O10 2.716489 1_555
O1 W2 1.978943 1_554
O1 W1 2.114008 1_555
O1 O13 2.627318 1_555
O1 O11 2.751206 1_555
O1 O10 2.828757 1_554
O2 W2 1.925915 1_555
O2 W1 2.047278 1_555
O3 W3 1.930954 1_555
O3 W0 2.063298 1_555
O3 O9 2.726630 1_555
O4 W2 1.933440 1_555
O4 Tm0 2.302664 1_555
O4 Tm1 2.477044 1_565
O5 W3 1.898631 1_555
O5 Tm0 2.412993 1_545
O5 Tm1 2.578833 1_555
O6 W0 1.859411 1_555
O6 Tm1 2.282815 1_456
O7 W1 1.883250 1_555
O7 Tm0 2.696007 1_654
O7 O9 2.839052 1_555
O8 W1 1.988200 1_555
O8 W0 2.165755 1_555
O8 Tm0 2.232383 1_555
O9 W0 2.038222 1_555
O9 W1 2.111980 1_555
O9 Tm1 2.491129 1_555
O10 W3 2.055831 1_556
O10 W2 2.095208 1_555
O10 Tm0 2.238246 1_555
O10 O11 2.493363 1_556
O10 O4 2.560902 1_555
O10 O3 2.777667 1_556
O11 W2 1.978876 1_554
O11 W3 2.195158 1_555
O11 Tm1 2.339731 1_555
O11 O5 2.607704 1_555
O11 O2 2.734339 1_554
O12 W0 1.986725 1_555
O12 Tm0 2.189771 1_545
O13 W1 2.002392 1_555
O13 Tm1 2.171804 1_565
O14 W2 1.902674 1_555
O14 Tm0 2.514716 1_655
O15 W3 1.854197 1_555
O15 Tm1 2.289721 1_455
O15 O3 2.679828 1_555
