# generated using pymatgen
data_HfZrW4
_symmetry_space_group_name_H-M   'P 1'
_cell_length_a   5.38323061
_cell_length_b   5.38323061
_cell_length_c   5.38323061
_cell_angle_alpha   60.00000000
_cell_angle_beta   60.00000000
_cell_angle_gamma   60.00000000
_symmetry_Int_Tables_number   1
_chemical_formula_structural   HfZrW4
_chemical_formula_sum   'Hf1 Zr1 W4'
_cell_volume   110.30976435
_cell_formula_units_Z   1
loop_
 _symmetry_equiv_pos_site_id
 _symmetry_equiv_pos_as_xyz
  1  'x, y, z'
loop_
 _atom_site_type_symbol
 _atom_site_label
 _atom_site_symmetry_multiplicity
 _atom_site_fract_x
 _atom_site_fract_y
 _atom_site_fract_z
 _atom_site_occupancy
  Hf  Hf0  1  0.25000000  0.25000000  0.25000000  1
  Zr  Zr0  1  -0.00000000  -0.00000000  -0.00000000  1
  W  W0  1  0.62497024  0.62497024  0.12509029  1
  W  W1  1  0.62497024  0.12509029  0.62497024  1
  W  W2  1  0.12509029  0.62497024  0.62497024  1
  W  W3  1  0.62497024  0.62497024  0.62497024  1
loop_
_geom_bond_atom_site_label_1
_geom_bond_atom_site_label_2
_geom_bond_distance
_geom_bond_site_symmetry_2
Hf0 W0 3.156128 1_455
Hf0 W2 3.156128 1_545
Hf0 W1 3.156128 1_554
Hf0 W1 3.156128 1_455
Hf0 W2 3.156128 1_554
Hf0 W0 3.156128 1_545
Hf0 W3 3.156130 1_545
Hf0 W3 3.156130 1_554
Hf0 W3 3.156130 1_455
Hf0 W1 3.156133 1_555
Hf0 W2 3.156133 1_555
Hf0 W0 3.156133 1_555
Hf0 Zr0 3.296542 1_565
Hf0 Zr0 3.296542 1_555
Hf0 Zr0 3.296542 1_556
Hf0 Zr0 3.296542 1_655
W0 W1 2.690969 1_555
W0 W3 2.690969 1_555
W0 W2 2.690969 1_555
W0 W1 2.692262 1_564
W0 W2 2.692262 1_654
W0 W3 2.692262 1_554
W0 Zr0 3.156265 1_665
W0 Zr0 3.156269 1_565
W0 Zr0 3.156269 1_655
W1 W3 2.690969 1_555
W1 W2 2.690969 1_555
W1 W2 2.692262 1_645
W1 W3 2.692262 1_545
W1 Zr0 3.156265 1_656
W1 Zr0 3.156269 1_556
W1 Zr0 3.156269 1_655
W2 W3 2.690969 1_555
W2 W3 2.692262 1_455
W2 Zr0 3.156265 1_566
W2 Zr0 3.156269 1_565
W2 Zr0 3.156269 1_556
W3 Zr0 3.156267 1_665
W3 Zr0 3.156267 1_656
W3 Zr0 3.156267 1_566
