# generated using pymatgen
data_NaNb13O33
_symmetry_space_group_name_H-M   'P 1'
_cell_length_a   3.85149413
_cell_length_b   11.53113351
_cell_length_c   15.57667188
_cell_angle_alpha   91.53869391
_cell_angle_beta   89.99885929
_cell_angle_gamma   99.61168503
_symmetry_Int_Tables_number   1
_chemical_formula_structural   NaNb13O33
_chemical_formula_sum   'Na1 Nb13 O33'
_cell_volume   681.82828182
_cell_formula_units_Z   1
loop_
 _symmetry_equiv_pos_site_id
 _symmetry_equiv_pos_as_xyz
  1  'x, y, z'
loop_
 _atom_site_type_symbol
 _atom_site_label
 _atom_site_symmetry_multiplicity
 _atom_site_fract_x
 _atom_site_fract_y
 _atom_site_fract_z
 _atom_site_occupancy
  Na  Na0  1  0.49999933  -0.00000034  0.50000023  1
  Nb  Nb0  1  0.00000325  0.00000039  -0.00000051  1
  Nb  Nb1  1  0.06997778  0.14049730  0.22903423  1
  Nb  Nb2  1  0.93003206  0.85950280  0.77096550  1
  Nb  Nb3  1  0.22456429  0.44913439  0.13720155  1
  Nb  Nb4  1  0.77543505  0.55086450  0.86279842  1
  Nb  Nb5  1  0.15526512  0.31106003  0.90471407  1
  Nb  Nb6  1  0.84473346  0.68893885  0.09528545  1
  Nb  Nb7  1  0.13675779  0.27336746  0.46859551  1
  Nb  Nb8  1  0.86323200  0.72663493  0.53140310  1
  Nb  Nb9  1  0.29236615  0.58457888  0.37392172  1
  Nb  Nb10  1  0.70763356  0.41542031  0.62607849  1
  Nb  Nb11  1  0.08655238  0.17374662  0.67559272  1
  Nb  Nb12  1  0.91345312  0.82625330  0.32440765  1
  O  O0  1  0.08194057  0.16407752  0.95147196  1
  O  O1  1  0.91805931  0.83592310  0.04852826  1
  O  O2  1  0.49999996  0.00000030  -0.00000021  1
  O  O3  1  0.32009082  0.64001621  0.09991754  1
  O  O4  1  0.67990928  0.35998565  0.90008247  1
  O  O5  1  0.25067059  0.50141945  0.86262031  1
  O  O6  1  0.74932938  0.49858195  0.13737980  1
  O  O7  1  0.15316617  0.30644154  0.19489241  1
  O  O8  1  0.84683293  0.69355765  0.80510800  1
  O  O9  1  0.42927127  0.85870874  0.75280241  1
  O  O10  1  0.57072794  0.14129072  0.24719750  1
  O  O11  1  0.19506031  0.39000946  0.02612135  1
  O  O12  1  0.80493785  0.60999083  0.97387979  1
  O  O13  1  0.03501014  0.06974670  0.11993885  1
  O  O14  1  0.96498875  0.93025349  0.88006168  1
  O  O15  1  0.12877727  0.25755665  0.78668473  1
  O  O16  1  0.87122221  0.74244410  0.21331577  1
  O  O17  1  0.26724483  0.53416082  0.26373056  1
  O  O18  1  0.73275733  0.46584028  0.73626988  1
  O  O19  1  0.09924739  0.19839442  0.36628253  1
  O  O20  1  0.90075015  0.80160420  0.63371624  1
  O  O21  1  0.01130731  0.02304763  0.70897188  1
  O  O22  1  0.98869366  0.97695259  0.29102869  1
  O  O23  1  0.39014682  0.77988732  0.33717984  1
  O  O24  1  0.60985499  0.22011330  0.66281985  1
  O  O25  1  0.18119715  0.36267659  0.61125881  1
  O  O26  1  0.81880236  0.63732315  0.38874122  1
  O  O27  1  0.22250195  0.44513851  0.43118918  1
  O  O28  1  0.77749802  0.55486058  0.56881078  1
  O  O29  1  0.34733739  0.69471417  0.50277296  1
  O  O30  1  0.65265939  0.30528551  0.49722680  1
  O  O31  1  0.06825384  0.13661445  0.54494601  1
  O  O32  1  0.93174833  0.86338501  0.45505403  1
loop_
_geom_bond_atom_site_label_1
_geom_bond_atom_site_label_2
_geom_bond_distance
_geom_bond_site_symmetry_2
Na0 O32 2.559554 1_445
Na0 O31 2.559563 1_655
Na0 O31 2.559767 1_555
Na0 O32 2.559778 1_545
Nb0 O2 1.925735 1_555
Nb0 O2 1.925760 1_455
Nb0 O14 2.009580 1_444
Nb0 O13 2.009599 1_555
Nb0 O0 2.031754 1_554
Nb0 O1 2.031764 1_445
Nb1 O13 1.860203 1_555
Nb1 O10 1.945052 1_455
Nb1 O10 1.947757 1_555
Nb1 O7 1.974075 1_555
Nb1 O22 2.118398 1_445
Nb1 O19 2.219717 1_555
Nb2 O14 1.860214 1_555
Nb2 O9 1.945012 1_655
Nb2 O9 1.947796 1_555
Nb2 O8 1.974088 1_555
Nb2 O21 2.118392 1_665
Nb2 O20 2.219736 1_555
Nb3 O11 1.839108 1_555
Nb3 O7 1.875855 1_555
Nb3 O6 2.005937 1_455
Nb3 O6 2.006281 1_555
Nb3 O17 2.171445 1_555
Nb3 O3 2.261775 1_555
Nb4 O12 1.839130 1_555
Nb4 O8 1.875855 1_555
Nb4 O5 2.005927 1_655
Nb4 O5 2.006275 1_555
Nb4 O18 2.171428 1_555
Nb4 O4 2.261743 1_555
Nb5 O0 1.840997 1_555
Nb5 O15 1.920732 1_555
Nb5 O4 2.005628 1_455
Nb5 O4 2.007004 1_555
Nb5 O11 2.071129 1_556
Nb5 O5 2.278412 1_555
Nb6 O1 1.841011 1_555
Nb6 O16 1.920753 1_555
Nb6 O3 2.005619 1_655
Nb6 O3 2.006994 1_555
Nb6 O12 2.071099 1_554
Nb6 O6 2.278388 1_555
Nb7 O19 1.786742 1_555
Nb7 O31 1.983041 1_555
Nb7 O30 2.007362 1_555
Nb7 O30 2.007745 1_455
Nb7 O27 2.053126 1_555
Nb7 O25 2.417926 1_555
Nb8 O20 1.786725 1_555
Nb8 O32 1.983000 1_555
Nb8 O29 2.007333 1_555
Nb8 O29 2.007777 1_655
Nb8 O28 2.053169 1_555
Nb8 O26 2.417918 1_555
Nb9 O17 1.794732 1_555
Nb9 O27 1.840117 1_555
Nb9 O26 2.028003 1_455
Nb9 O26 2.028520 1_555
Nb9 O23 2.308123 1_555
Nb9 O29 2.336529 1_555
Nb10 O18 1.794741 1_555
Nb10 O28 1.840118 1_555
Nb10 O25 2.028000 1_655
Nb10 O25 2.028520 1_555
Nb10 O24 2.308105 1_555
Nb10 O30 2.336532 1_555
Nb11 O21 1.803987 1_555
Nb11 O15 1.952582 1_555
Nb11 O24 2.007453 1_455
Nb11 O24 2.008361 1_555
Nb11 O31 2.067082 1_555
Nb11 O25 2.394855 1_555
Nb12 O22 1.803990 1_555
Nb12 O16 1.952576 1_555
Nb12 O23 2.007435 1_655
Nb12 O23 2.008373 1_555
Nb12 O32 2.067076 1_555
Nb12 O26 2.394854 1_555
O3 O6 2.585530 1_555
O3 O6 2.585850 1_455
O4 O5 2.585526 1_555
O4 O5 2.585847 1_655
O11 O4 2.764177 1_554
O11 O4 2.764995 1_454
O12 O3 2.764164 1_556
O12 O3 2.764988 1_656
O15 O24 2.750347 1_555
O15 O24 2.751503 1_455
O16 O23 2.750331 1_555
O16 O23 2.751500 1_655
O17 O6 2.774925 1_555
O17 O6 2.775672 1_455
O18 O5 2.774928 1_555
O18 O5 2.775663 1_655
O23 O26 2.655283 1_555
O23 O26 2.655690 1_455
O23 O29 2.779748 1_555
O23 O32 2.807856 1_555
O23 O32 2.808539 1_455
O24 O25 2.655280 1_555
O24 O25 2.655677 1_655
O24 O30 2.779743 1_555
O24 O31 2.807855 1_555
O24 O31 2.808542 1_655
O27 O30 2.717124 1_455
O27 O30 2.717532 1_555
O28 O29 2.717119 1_655
O28 O29 2.717547 1_555
