# generated using pymatgen
data_CeGe2Pt
_symmetry_space_group_name_H-M   'P 1'
_cell_length_a   4.45224838
_cell_length_b   8.79257505
_cell_length_c   9.64332778
_cell_angle_alpha   117.12215174
_cell_angle_beta   103.34688469
_cell_angle_gamma   90.00000000
_symmetry_Int_Tables_number   1
_chemical_formula_structural   CeGe2Pt
_chemical_formula_sum   'Ce4 Ge8 Pt4'
_cell_volume   324.49497141
_cell_formula_units_Z   4
loop_
 _symmetry_equiv_pos_site_id
 _symmetry_equiv_pos_as_xyz
  1  'x, y, z'
loop_
 _atom_site_type_symbol
 _atom_site_label
 _atom_site_symmetry_multiplicity
 _atom_site_fract_x
 _atom_site_fract_y
 _atom_site_fract_z
 _atom_site_occupancy
  Ce  Ce0  1  0.00000000  0.25310019  0.00000000  1
  Ce  Ce1  1  0.00000000  0.74689981  0.00000000  1
  Ce  Ce2  1  0.79647744  0.29647744  0.59295489  1
  Ce  Ce3  1  0.20352256  0.70352256  0.40704511  1
  Ge  Ge0  1  0.42659978  0.92659978  0.85319856  1
  Ge  Ge1  1  0.57340022  0.07340022  0.14680144  1
  Ge  Ge2  1  0.42561951  0.42561951  0.85124002  1
  Ge  Ge3  1  0.57438049  0.57438049  0.14875998  1
  Ge  Ge4  1  0.19811032  0.04767558  0.39622065  1
  Ge  Ge5  1  0.80188968  0.95232442  0.60377935  1
  Ge  Ge6  1  0.19811032  0.34854507  0.39622065  1
  Ge  Ge7  1  0.80188968  0.65145493  0.60377935  1
  Pt  Pt0  1  0.34989009  0.09667507  0.69978118  1
  Pt  Pt1  1  0.65010991  0.90332493  0.30021882  1
  Pt  Pt2  1  0.34989009  0.60310611  0.69978118  1
  Pt  Pt3  1  0.65010991  0.39689389  0.30021882  1
loop_
_geom_bond_atom_site_label_1
_geom_bond_atom_site_label_2
_geom_bond_distance
_geom_bond_site_symmetry_2
Ce0 Pt3 3.339416 1_455
Ce0 Pt0 3.339416 1_554
Ce0 Pt3 3.339419 1_555
Ce0 Pt0 3.339419 1_454
Ce0 Ge2 3.344978 1_554
Ce0 Ge2 3.344981 1_454
Ce0 Ge3 3.344984 1_455
Ce0 Ge3 3.344987 1_555
Ce0 Ge0 3.374727 1_444
Ce0 Ge0 3.374729 1_544
Ce0 Ge1 3.374732 1_555
Ce0 Ge1 3.374735 1_455
Ce0 Ge6 3.406144 1_555
Ce0 Ge5 3.406144 1_444
Ce1 Pt2 3.339416 1_554
Ce1 Pt1 3.339416 1_455
Ce1 Pt2 3.339419 1_454
Ce1 Pt1 3.339419 1_555
Ce1 Ge3 3.344978 1_455
Ce1 Ge3 3.344981 1_555
Ce1 Ge2 3.344984 1_554
Ce1 Ge2 3.344987 1_454
Ce1 Ge1 3.374727 1_565
Ce1 Ge1 3.374729 1_465
Ce1 Ge0 3.374732 1_454
Ce1 Ge0 3.374735 1_554
Ce1 Ge7 3.406144 1_454
Ce1 Ge4 3.406144 1_565
Ce2 Ge4 3.060162 1_655
Ce2 Ge6 3.060163 1_655
Ce2 Ge4 3.060163 1_555
Ce2 Ge6 3.060163 1_555
Ce2 Ge5 3.074888 1_545
Ce2 Ge7 3.074888 1_555
Ce2 Ge2 3.088592 1_655
Ce2 Ge2 3.088595 1_555
Ce2 Pt1 3.255222 1_545
Ce2 Pt3 3.255222 1_555
Ce2 Pt0 3.270576 1_655
Ce2 Pt2 3.270576 1_655
Ce2 Pt0 3.270579 1_555
Ce2 Pt2 3.270579 1_555
Ce3 Ge5 3.060162 1_455
Ce3 Ge7 3.060163 1_455
Ce3 Ge5 3.060163 1_555
Ce3 Ge7 3.060163 1_555
Ce3 Ge4 3.074888 1_565
Ce3 Ge6 3.074888 1_555
Ce3 Ge3 3.088592 1_455
Ce3 Ge3 3.088595 1_555
Ce3 Pt0 3.255222 1_565
Ce3 Pt2 3.255222 1_555
Ce3 Pt1 3.270576 1_455
Ce3 Pt3 3.270576 1_455
Ce3 Pt1 3.270579 1_555
Ce3 Pt3 3.270579 1_555
Ge0 Ge1 2.433732 1_566
Ge0 Pt0 2.515067 1_565
Ge0 Pt2 2.515074 1_555
Ge0 Ge5 3.313557 1_555
Ge0 Ge5 3.313560 1_455
Ge0 Ge7 3.313561 1_555
Ge0 Ge7 3.313564 1_455
Ge1 Pt1 2.515067 1_545
Ge1 Pt3 2.515074 1_555
Ge1 Ge4 3.313557 1_555
Ge1 Ge4 3.313560 1_655
Ge1 Ge6 3.313561 1_555
Ge1 Ge6 3.313564 1_655
Ge2 Ge3 2.466202 1_556
Ge2 Pt0 2.555997 1_555
Ge2 Pt2 2.556005 1_555
Ge3 Pt1 2.555997 1_555
Ge3 Pt3 2.556005 1_555
Ge4 Pt1 2.511288 1_445
Ge4 Pt1 2.511292 1_545
Ge4 Ge6 2.645418 1_555
Ge4 Pt0 2.673634 1_555
Ge5 Pt0 2.511288 1_665
Ge5 Pt0 2.511292 1_565
Ge5 Ge7 2.645418 1_555
Ge5 Pt1 2.673634 1_555
Ge6 Pt3 2.511288 1_455
Ge6 Pt3 2.511292 1_555
Ge6 Pt2 2.673634 1_555
Ge7 Pt2 2.511288 1_655
Ge7 Pt2 2.511292 1_555
Ge7 Pt3 2.673634 1_555
