# generated using pymatgen
data_ZrNO6
_symmetry_space_group_name_H-M   'P 1'
_cell_length_a   6.08479484
_cell_length_b   6.08479484
_cell_length_c   8.67570476
_cell_angle_alpha   77.53368746
_cell_angle_beta   77.53368746
_cell_angle_gamma   73.44861903
_symmetry_Int_Tables_number   1
_chemical_formula_structural   ZrNO6
_chemical_formula_sum   'Zr2 N2 O12'
_cell_volume   296.52907448
_cell_formula_units_Z   2
loop_
 _symmetry_equiv_pos_site_id
 _symmetry_equiv_pos_as_xyz
  1  'x, y, z'
loop_
 _atom_site_type_symbol
 _atom_site_label
 _atom_site_symmetry_multiplicity
 _atom_site_fract_x
 _atom_site_fract_y
 _atom_site_fract_z
 _atom_site_occupancy
  Zr  Zr0  1  0.15447400  0.15447400  0.50380300  1
  Zr  Zr1  1  0.84552600  0.84552600  0.49619700  1
  N  N0  1  0.24654000  0.24654000  0.79947400  1
  N  N1  1  0.75346000  0.75346000  0.20052600  1
  O  O0  1  0.95196600  0.95196600  0.65516200  1
  O  O1  1  0.04803400  0.04803400  0.34483800  1
  O  O2  1  0.08881800  0.53253300  0.42837100  1
  O  O3  1  0.53253300  0.08881800  0.42837100  1
  O  O4  1  0.91118200  0.46746700  0.57162900  1
  O  O5  1  0.46746700  0.91118200  0.57162900  1
  O  O6  1  0.44971500  0.44971500  0.71870800  1
  O  O7  1  0.55028500  0.55028500  0.28129200  1
  O  O8  1  0.22976500  0.22976500  0.93609100  1
  O  O9  1  0.77023500  0.77023500  0.06390900  1
  O  O10  1  0.50754800  0.50754800  0.15665600  1
  O  O11  1  0.49245200  0.49245200  0.84334400  1
loop_
_geom_bond_atom_site_label_1
_geom_bond_atom_site_label_2
_geom_bond_distance
_geom_bond_site_symmetry_2
N0 O8 1.152009 1_555
N1 O9 1.152009 1_555
O0 Zr1 1.936802 1_555
O0 Zr0 2.056457 1_665
O1 Zr0 1.936802 1_555
O1 Zr1 2.056457 1_445
O2 O4 1.523532 1_455
O2 Zr1 2.160163 1_455
O2 Zr0 2.195241 1_555
O3 O5 1.523532 1_545
O3 Zr1 2.160163 1_545
O3 Zr0 2.195241 1_555
O4 Zr0 2.160163 1_655
O4 Zr1 2.195241 1_555
O5 Zr0 2.160163 1_565
O5 Zr1 2.195241 1_555
O10 O7 1.259283 1_555
O11 O6 1.259283 1_555
