# generated using pymatgen
data_ZnCr4(CuO4)3
_symmetry_space_group_name_H-M   'P 1'
_cell_length_a   6.35183077
_cell_length_b   6.36566180
_cell_length_c   6.36522988
_cell_angle_alpha   70.48853784
_cell_angle_beta   70.56204124
_cell_angle_gamma   109.42098417
_symmetry_Int_Tables_number   1
_chemical_formula_structural   ZnCr4(CuO4)3
_chemical_formula_sum   'Zn1 Cr4 Cu3 O12'
_cell_volume   198.22849480
_cell_formula_units_Z   1
loop_
 _symmetry_equiv_pos_site_id
 _symmetry_equiv_pos_as_xyz
  1  'x, y, z'
loop_
 _atom_site_type_symbol
 _atom_site_label
 _atom_site_symmetry_multiplicity
 _atom_site_fract_x
 _atom_site_fract_y
 _atom_site_fract_z
 _atom_site_occupancy
  Zn  Zn0  1  0.99999900  0.00000100  0.99999800  1
  Cr  Cr0  1  0.50001700  0.50000600  0.49999400  1
  Cr  Cr1  1  0.99999500  0.50000400  0.00000200  1
  Cr  Cr2  1  0.00000800  0.00000000  0.49999000  1
  Cr  Cr3  1  0.49998700  0.99999300  0.00002100  1
  Cu  Cu0  1  0.50000400  0.50000400  0.99999400  1
  Cu  Cu1  1  0.49999300  0.99999800  0.50000300  1
  Cu  Cu2  1  0.99999700  0.49999700  0.50000600  1
  O  O0  1  0.69111600  0.17005600  0.14069600  1
  O  O1  1  0.30888800  0.82994600  0.85930600  1
  O  O2  1  0.31044100  0.16944500  0.52028300  1
  O  O3  1  0.14099800  0.31032300  0.16944800  1
  O  O4  1  0.16815000  0.85923900  0.31077700  1
  O  O5  1  0.83067900  0.52020500  0.31033200  1
  O  O6  1  0.52108800  0.68923300  0.17003900  1
  O  O7  1  0.83184800  0.14075800  0.68921500  1
  O  O8  1  0.68955700  0.83055300  0.47971700  1
  O  O9  1  0.85900100  0.68967700  0.83055100  1
  O  O10  1  0.16932400  0.47979800  0.68966500  1
  O  O11  1  0.47891100  0.31076500  0.82996300  1
loop_
_geom_bond_atom_site_label_1
_geom_bond_atom_site_label_2
_geom_bond_distance
_geom_bond_site_symmetry_2
Cr0 O11 1.973727 1_555
Cr0 O6 1.973741 1_555
Cr0 O5 1.978477 1_555
Cr0 O10 1.978627 1_555
Cr0 O8 1.980927 1_555
Cr0 O2 1.981018 1_555
Cr1 O0 1.973936 1_555
Cr1 O1 1.973954 1_654
Cr1 O9 1.978710 1_554
Cr1 O3 1.978771 1_655
Cr1 O5 1.980599 1_555
Cr1 O10 1.980674 1_654
Cr2 O4 1.973633 1_545
Cr2 O7 1.973717 1_455
Cr2 O2 1.978987 1_555
Cr2 O8 1.979012 1_445
Cr2 O3 1.980940 1_555
Cr2 O9 1.980984 1_445
Cr3 O4 1.985800 1_555
Cr3 O7 1.986028 1_564
Cr3 O0 1.986109 1_565
Cr3 O1 1.986161 1_554
Cr3 O6 1.986252 1_555
Cr3 O11 1.986283 1_564
Cu0 O9 1.866300 1_555
Cu0 O3 1.866346 1_556
Cu0 O11 1.870965 1_555
Cu0 O6 1.870983 1_556
Cu1 O2 1.866270 1_565
Cu1 O8 1.866324 1_555
Cu1 O1 1.870968 1_555
Cu1 O0 1.870993 1_565
Cu2 O10 1.866324 1_655
Cu2 O5 1.866357 1_555
Cu2 O7 1.870973 1_555
Cu2 O4 1.870993 1_655
O0 O8 2.486706 1_545
O0 Zn0 2.591090 1_554
O1 O2 2.486720 1_565
O1 Zn0 2.591110 1_465
O2 Zn0 2.598764 1_455
O3 Zn0 2.599489 1_454
O4 O5 2.486811 1_455
O4 Zn0 2.591428 1_464
O5 Zn0 2.599699 1_564
O6 O9 2.486232 1_554
O6 Zn0 2.591320 1_564
O7 Zn0 2.591440 1_555
O8 Zn0 2.598778 1_564
O9 Zn0 2.599482 1_565
O10 O7 2.486870 1_455
O10 Zn0 2.599695 1_455
O11 O3 2.486228 1_556
O11 Zn0 2.591328 1_455
