# generated using pymatgen
data_Hg(PO3)2
_symmetry_space_group_name_H-M   'P 1'
_cell_length_a   7.13918621
_cell_length_b   9.81935138
_cell_length_c   13.80801360
_cell_angle_alpha   90.00004792
_cell_angle_beta   90.00000818
_cell_angle_gamma   89.99996440
_symmetry_Int_Tables_number   1
_chemical_formula_structural   Hg(PO3)2
_chemical_formula_sum   'Hg8 P16 O48'
_cell_volume   967.97182671
_cell_formula_units_Z   8
loop_
 _symmetry_equiv_pos_site_id
 _symmetry_equiv_pos_as_xyz
  1  'x, y, z'
loop_
 _atom_site_type_symbol
 _atom_site_label
 _atom_site_symmetry_multiplicity
 _atom_site_fract_x
 _atom_site_fract_y
 _atom_site_fract_z
 _atom_site_occupancy
  Hg  Hg0  1  0.54584624  0.99419108  0.29485966  1
  Hg  Hg1  1  0.04583993  0.50580237  0.70514678  1
  Hg  Hg2  1  0.45415038  0.49419717  0.20514010  1
  Hg  Hg3  1  0.95415434  0.00580113  0.79485338  1
  Hg  Hg4  1  0.45415464  0.00580187  0.70514677  1
  Hg  Hg5  1  0.95415000  0.49419655  0.29486026  1
  Hg  Hg6  1  0.54583982  0.50580217  0.79485321  1
  Hg  Hg7  1  0.04584634  0.99419115  0.20514031  1
  P  P0  1  0.07884732  0.29911597  0.09722668  1
  P  P1  1  0.57883669  0.20088555  0.90277271  1
  P  P2  1  0.92115394  0.79912546  0.40277874  1
  P  P3  1  0.42116701  0.70089671  0.59722414  1
  P  P4  1  0.92116663  0.70089663  0.90277595  1
  P  P5  1  0.42115400  0.79912517  0.09722106  1
  P  P6  1  0.07883633  0.20088573  0.59722759  1
  P  P7  1  0.57884691  0.29911609  0.40277372  1
  P  P8  1  0.68212778  0.21264860  0.10335211  1
  P  P9  1  0.18211341  0.28733363  0.89665256  1
  P  P10  1  0.31787732  0.71265620  0.39665100  1
  P  P11  1  0.81787937  0.78734917  0.60335177  1
  P  P12  1  0.31787858  0.78734935  0.89664816  1
  P  P13  1  0.81787737  0.71265571  0.10334904  1
  P  P14  1  0.68211232  0.28733323  0.60334755  1
  P  P15  1  0.18212709  0.21264882  0.39664801  1
  O  O0  1  0.65500582  0.13779586  0.00124295  1
  O  O1  1  0.15498961  0.36220538  0.99874974  1
  O  O2  1  0.34500201  0.63779294  0.49875614  1
  O  O3  1  0.84501097  0.86221304  0.50125396  1
  O  O4  1  0.34501119  0.86221294  0.99874598  1
  O  O5  1  0.84500221  0.63779264  0.00124371  1
  O  O6  1  0.65498949  0.36220533  0.50125074  1
  O  O7  1  0.15500585  0.13779543  0.49875691  1
  O  O8  1  0.85691321  0.31112800  0.08628588  1
  O  O9  1  0.35691069  0.18886880  0.91372362  1
  O  O10  1  0.14308924  0.81113216  0.41372130  1
  O  O11  1  0.64309032  0.68887582  0.58627398  1
  O  O12  1  0.14308951  0.68887644  0.91372586  1
  O  O13  1  0.64308922  0.81113205  0.08627823  1
  O  O14  1  0.85690987  0.18886815  0.58627628  1
  O  O15  1  0.35691288  0.31112808  0.41371428  1
  O  O16  1  0.13743410  0.15411933  0.10256617  1
  O  O17  1  0.13394459  0.39699671  0.17564760  1
  O  O18  1  0.63741855  0.34589228  0.89743331  1
  O  O19  1  0.36257982  0.84588831  0.60256116  1
  O  O20  1  0.86257791  0.84588784  0.89743860  1
  O  O21  1  0.36256979  0.65411773  0.10255728  1
  O  O22  1  0.13741751  0.34589303  0.60256652  1
  O  O23  1  0.63743420  0.15411946  0.39743314  1
  O  O24  1  0.01537574  0.29841477  0.37815542  1
  O  O25  1  0.51538505  0.20157332  0.62183422  1
  O  O26  1  0.98462217  0.79841112  0.12184351  1
  O  O27  1  0.48462211  0.70158280  0.87815433  1
  O  O28  1  0.98462233  0.70158298  0.62184561  1
  O  O29  1  0.48462032  0.79841155  0.37815596  1
  O  O30  1  0.01538545  0.20157334  0.87816580  1
  O  O31  1  0.51537594  0.29841464  0.12184522  1
  O  O32  1  0.23496397  0.10464602  0.32526939  1
  O  O33  1  0.73495506  0.39533102  0.67473945  1
  O  O34  1  0.76503020  0.60464906  0.17473315  1
  O  O35  1  0.26503391  0.89533649  0.82526379  1
  O  O36  1  0.76503412  0.89533683  0.67473637  1
  O  O37  1  0.26502944  0.60464892  0.32526670  1
  O  O38  1  0.23495539  0.39533075  0.82526091  1
  O  O39  1  0.73496436  0.10464634  0.17473015  1
  O  O40  1  0.63394241  0.39699914  0.32435429  1
  O  O41  1  0.13393399  0.10301545  0.67564920  1
  O  O42  1  0.36605864  0.89699313  0.17564463  1
  O  O43  1  0.86607162  0.60301574  0.82434921  1
  O  O44  1  0.36607172  0.60301608  0.67565086  1
  O  O45  1  0.86605829  0.89699308  0.32435550  1
  O  O46  1  0.63393381  0.10301538  0.82435113  1
  O  O47  1  0.86256967  0.65411778  0.39744259  1
loop_
_geom_bond_atom_site_label_1
_geom_bond_atom_site_label_2
_geom_bond_distance
_geom_bond_site_symmetry_2
Hg0 O23 2.213521 1_565
Hg0 O29 2.282467 1_555
Hg0 O42 2.295235 1_555
Hg0 O39 2.398065 1_565
Hg0 O32 2.505714 1_565
Hg0 O45 2.510545 1_555
Hg1 O22 2.213426 1_555
Hg1 O28 2.282497 1_455
Hg1 O43 2.295096 1_455
Hg1 O38 2.397979 1_555
Hg1 O33 2.505795 1_455
Hg1 O44 2.510733 1_555
Hg2 O21 2.213535 1_555
Hg2 O31 2.282479 1_555
Hg2 O40 2.295245 1_555
Hg2 O37 2.398031 1_555
Hg2 O34 2.505680 1_555
Hg2 O17 2.510506 1_555
Hg3 O20 2.213497 1_545
Hg3 O30 2.282524 1_655
Hg3 O41 2.295164 1_655
Hg3 O36 2.397993 1_545
Hg3 O35 2.505740 1_645
Hg3 O46 2.510665 1_555
Hg4 O19 2.213498 1_545
Hg4 O25 2.282519 1_555
Hg4 O46 2.295160 1_555
Hg4 O35 2.398001 1_545
Hg4 O36 2.505741 1_545
Hg4 O41 2.510663 1_555
Hg5 O47 2.213533 1_555
Hg5 O24 2.282476 1_655
Hg5 O17 2.295247 1_655
Hg5 O34 2.398036 1_555
Hg5 O37 2.505678 1_655
Hg5 O40 2.510511 1_555
Hg6 O18 2.213433 1_555
Hg6 O27 2.282496 1_555
Hg6 O44 2.295098 1_555
Hg6 O33 2.397971 1_555
Hg6 O38 2.505794 1_555
Hg6 O43 2.510732 1_555
Hg7 O16 2.213527 1_565
Hg7 O26 2.282470 1_455
Hg7 O45 2.295241 1_455
Hg7 O32 2.398056 1_565
Hg7 O39 2.505714 1_465
Hg7 O42 2.510546 1_555
O0 P1 1.590034 1_554
O0 P8 1.601752 1_555
O1 P0 1.590047 1_556
O1 P9 1.601694 1_555
O2 P3 1.590051 1_555
O2 P10 1.601754 1_555
O3 P2 1.590020 1_555
O3 P11 1.601674 1_555
O4 P5 1.590020 1_556
O4 P12 1.601673 1_555
O5 P4 1.590049 1_554
O5 P13 1.601755 1_555
O6 P7 1.590047 1_555
O6 P14 1.601691 1_555
O7 P6 1.590042 1_555
O7 P15 1.601753 1_555
O8 P0 1.595979 1_655
O8 P8 1.596151 1_555
O9 P1 1.595939 1_555
O9 P9 1.596140 1_555
O10 P2 1.595986 1_455
O10 P10 1.596153 1_555
O11 P3 1.595921 1_555
O11 P11 1.596159 1_555
O12 P4 1.595917 1_455
O12 P12 1.596156 1_555
O13 P5 1.595986 1_555
O13 P13 1.596157 1_555
O14 P6 1.595943 1_655
O14 P14 1.596143 1_555
O15 P7 1.595978 1_555
O15 P15 1.596152 1_555
O16 P0 1.485768 1_555
O17 P0 1.500340 1_555
O18 P1 1.485854 1_555
O19 P3 1.485720 1_555
O20 P4 1.485720 1_555
O21 P5 1.485863 1_555
O22 P6 1.485857 1_555
O23 P7 1.485770 1_555
O24 P15 1.480426 1_555
O25 P14 1.480241 1_555
O26 P13 1.480334 1_555
O27 P12 1.480387 1_555
O28 P11 1.480382 1_555
O29 P10 1.480325 1_555
O30 P9 1.480247 1_555
O31 P8 1.480430 1_555
O32 P15 1.496124 1_555
O33 P14 1.496220 1_555
O34 P13 1.496220 1_555
O35 P12 1.496082 1_555
O36 P11 1.496088 1_555
O37 P10 1.496226 1_555
O38 P9 1.496213 1_555
O39 P8 1.496115 1_555
O40 P7 1.500338 1_555
O41 P6 1.500283 1_555
O42 P5 1.500282 1_555
O43 P4 1.500395 1_555
O44 P3 1.500395 1_555
O45 P2 1.500279 1_555
O46 P1 1.500280 1_555
O47 P2 1.485865 1_555
