# generated using pymatgen
data_KEr(SO4)2
_symmetry_space_group_name_H-M   'P 1'
_cell_length_a   13.50114500
_cell_length_b   5.49625500
_cell_length_c   10.18016136
_cell_angle_alpha   60.70701716
_cell_angle_beta   90.00000000
_cell_angle_gamma   90.00000000
_symmetry_Int_Tables_number   1
_chemical_formula_structural   KEr(SO4)2
_chemical_formula_sum   'K4 Er4 S8 O32'
_cell_volume   658.82939124
_cell_formula_units_Z   4
loop_
 _symmetry_equiv_pos_site_id
 _symmetry_equiv_pos_as_xyz
  1  'x, y, z'
loop_
 _atom_site_type_symbol
 _atom_site_label
 _atom_site_symmetry_multiplicity
 _atom_site_fract_x
 _atom_site_fract_y
 _atom_site_fract_z
 _atom_site_occupancy
  K  K0  1  0.08830800  0.59025300  0.65611900  1
  K  K1  1  0.58830800  0.40974700  0.84388100  1
  K  K2  1  0.91169200  0.40974700  0.34388100  1
  K  K3  1  0.41169200  0.59025300  0.15611900  1
  Er  Er0  1  0.34855800  0.09029700  0.68689500  1
  Er  Er1  1  0.84855800  0.90970300  0.81310500  1
  Er  Er2  1  0.65144200  0.90970300  0.31310500  1
  Er  Er3  1  0.15144200  0.09029700  0.18689500  1
  S  S0  1  0.11669000  0.82324700  0.92006700  1
  S  S1  1  0.61669000  0.17675300  0.57993300  1
  S  S2  1  0.88331000  0.17675300  0.07993300  1
  S  S3  1  0.38331000  0.82324700  0.42006700  1
  S  S4  1  0.33740000  0.36019000  0.88695400  1
  S  S5  1  0.83740000  0.63981000  0.61304600  1
  S  S6  1  0.66260000  0.63981000  0.11304600  1
  S  S7  1  0.16260000  0.36019000  0.38695400  1
  O  O0  1  0.03334500  0.93611200  0.81116600  1
  O  O1  1  0.53334500  0.06388800  0.68883400  1
  O  O2  1  0.96665500  0.06388800  0.18883400  1
  O  O3  1  0.46665500  0.93611200  0.31116600  1
  O  O4  1  0.37864800  0.96870000  0.51023000  1
  O  O5  1  0.87864800  0.03130000  0.98977000  1
  O  O6  1  0.62135200  0.03130000  0.48977000  1
  O  O7  1  0.12135200  0.96870000  0.01023000  1
  O  O8  1  0.10128400  0.51999800  0.02159500  1
  O  O9  1  0.60128400  0.48000200  0.47840500  1
  O  O10  1  0.89871600  0.48000200  0.97840500  1
  O  O11  1  0.39871600  0.51999800  0.52159500  1
  O  O12  1  0.21125500  0.86371100  0.83732700  1
  O  O13  1  0.71125500  0.13628900  0.66267300  1
  O  O14  1  0.78874500  0.13628900  0.16267300  1
  O  O15  1  0.28874500  0.86371100  0.33732700  1
  O  O16  1  0.23316500  0.41575900  0.26407500  1
  O  O17  1  0.73316500  0.58424100  0.23592500  1
  O  O18  1  0.76683500  0.58424100  0.73592500  1
  O  O19  1  0.26683500  0.41575900  0.76407500  1
  O  O20  1  0.29063300  0.25794400  0.03582300  1
  O  O21  1  0.79063300  0.74205600  0.46417700  1
  O  O22  1  0.70936700  0.74205600  0.96417700  1
  O  O23  1  0.20936700  0.25794400  0.53582300  1
  O  O24  1  0.10335900  0.61530200  0.35182600  1
  O  O25  1  0.60335900  0.38469800  0.14817400  1
  O  O26  1  0.89664100  0.38469800  0.64817400  1
  O  O27  1  0.39664100  0.61530200  0.85182600  1
  O  O28  1  0.09362500  0.13924600  0.39251100  1
  O  O29  1  0.59362500  0.86075400  0.10748900  1
  O  O30  1  0.90637500  0.86075400  0.60748900  1
  O  O31  1  0.40637500  0.13924600  0.89251100  1
loop_
_geom_bond_atom_site_label_1
_geom_bond_atom_site_label_2
_geom_bond_distance
_geom_bond_site_symmetry_2
K0 O19 2.627898 1_555
K0 O30 2.787234 1_455
K0 O26 2.840543 1_455
K0 O28 2.896153 1_565
K0 O24 3.039568 1_555
K0 O0 3.097035 1_555
K0 O23 3.113808 1_555
K0 O0 3.227263 1_545
K1 O18 2.627898 1_555
K1 O31 2.787234 1_555
K1 O27 2.840543 1_555
K1 O29 2.896153 1_546
K1 O25 3.039568 1_556
K1 O1 3.097035 1_555
K1 O22 3.113808 1_555
K1 O1 3.227263 1_565
K2 O17 2.627898 1_555
K2 O28 2.787234 1_655
K2 O24 2.840543 1_655
K2 O30 2.896153 1_545
K2 O26 3.039568 1_555
K2 O2 3.097035 1_555
K2 O21 3.113808 1_555
K2 O2 3.227263 1_565
K3 O16 2.627898 1_555
K3 O29 2.787234 1_555
K3 O25 2.840543 1_555
K3 O31 2.896153 1_564
K3 O27 3.039568 1_554
K3 O3 3.097035 1_555
K3 O20 3.113808 1_555
K3 O3 3.227263 1_545
Er0 O11 2.231395 1_555
Er0 O4 2.241075 1_545
Er0 O23 2.314976 1_555
Er0 O12 2.338013 1_545
Er0 O31 2.369448 1_555
Er0 O27 2.401432 1_545
Er0 O1 2.498572 1_555
Er0 O19 2.531787 1_555
Er1 O10 2.231395 1_555
Er1 O5 2.241075 1_565
Er1 O22 2.314976 1_555
Er1 O13 2.338013 1_565
Er1 O30 2.369448 1_555
Er1 O26 2.401432 1_565
Er1 O0 2.498572 1_655
Er1 O18 2.531787 1_555
Er2 O9 2.231395 1_555
Er2 O6 2.241075 1_565
Er2 O21 2.314976 1_555
Er2 O14 2.338013 1_565
Er2 O29 2.369448 1_555
Er2 O25 2.401432 1_565
Er2 O3 2.498572 1_555
Er2 O17 2.531787 1_555
Er3 O8 2.231395 1_555
Er3 O7 2.241075 1_545
Er3 O20 2.314976 1_555
Er3 O15 2.338013 1_545
Er3 O28 2.369448 1_555
Er3 O24 2.401432 1_545
Er3 O2 2.498572 1_455
Er3 O16 2.531787 1_555
O0 S0 1.485631 1_555
O1 S1 1.485631 1_555
O2 S2 1.485631 1_555
O3 S3 1.485631 1_555
O4 S3 1.484460 1_555
O5 S2 1.484460 1_556
O6 S1 1.484460 1_555
O7 S0 1.484460 1_554
O8 S0 1.484519 1_554
O9 S1 1.484519 1_555
O10 S2 1.484519 1_556
O11 S3 1.484519 1_555
O12 S0 1.485155 1_555
O13 S1 1.485155 1_555
O14 S2 1.485155 1_555
O15 S3 1.485155 1_555
O16 S7 1.480504 1_555
O17 S6 1.480504 1_555
O18 S5 1.480504 1_555
O19 S4 1.480504 1_555
O20 S4 1.475755 1_554
O21 S5 1.475755 1_555
O22 S6 1.475755 1_556
O23 S7 1.475755 1_555
O24 S7 1.497659 1_555
O25 S6 1.497659 1_555
O26 S5 1.497659 1_555
O27 S4 1.497659 1_555
O28 S7 1.509261 1_555
O29 S6 1.509261 1_555
O30 S5 1.509261 1_555
O31 S4 1.509261 1_555
