# generated using pymatgen
data_La2Rh2I
_symmetry_space_group_name_H-M   'P 1'
_cell_length_a   8.64374946
_cell_length_b   8.64375915
_cell_length_c   35.43974604
_cell_angle_alpha   89.99999404
_cell_angle_beta   90.00000502
_cell_angle_gamma   120.00025612
_symmetry_Int_Tables_number   1
_chemical_formula_structural   La2Rh2I
_chemical_formula_sum   'La32 Rh32 I16'
_cell_volume   2293.11026900
_cell_formula_units_Z   16
loop_
 _symmetry_equiv_pos_site_id
 _symmetry_equiv_pos_as_xyz
  1  'x, y, z'
loop_
 _atom_site_type_symbol
 _atom_site_label
 _atom_site_symmetry_multiplicity
 _atom_site_fract_x
 _atom_site_fract_y
 _atom_site_fract_z
 _atom_site_occupancy
  La  La0_0  1  0.99999938  0.99999995  0.05269888  1
  La  La0_1  1  0.99999938  0.99999995  0.55269888  1
  La  La0_2  1  0.99999938  0.49999995  0.05269888  1
  La  La0_3  1  0.99999937  0.49999995  0.55269888  1
  La  La0_4  1  0.49999937  0.99999995  0.05269888  1
  La  La0_5  1  0.49999937  0.99999995  0.55269888  1
  La  La0_6  1  0.49999937  0.49999995  0.05269889  1
  La  La0_7  1  0.49999938  0.49999995  0.55269888  1
  La  La1_0  1  0.00000044  0.99999973  0.44733191  1
  La  La1_1  1  0.00000044  0.99999973  0.94733191  1
  La  La1_2  1  0.00000044  0.49999973  0.44733191  1
  La  La1_3  1  0.00000044  0.49999973  0.94733190  1
  La  La1_4  1  0.50000044  0.99999973  0.44733191  1
  La  La1_5  1  0.50000044  0.99999973  0.94733191  1
  La  La1_6  1  0.50000044  0.49999973  0.44733191  1
  La  La1_7  1  0.50000044  0.49999973  0.94733190  1
  La  La2_0  1  0.00000069  0.00000008  0.30270827  1
  La  La2_1  1  0.00000069  0.00000007  0.80270827  1
  La  La2_2  1  0.00000069  0.50000007  0.30270827  1
  La  La2_3  1  0.00000069  0.50000008  0.80270827  1
  La  La2_4  1  0.50000069  0.00000007  0.30270827  1
  La  La2_5  1  0.50000069  0.00000008  0.80270827  1
  La  La2_6  1  0.50000069  0.50000007  0.30270827  1
  La  La2_7  1  0.50000069  0.50000008  0.80270827  1
  La  La3_0  1  0.49999938  0.49999978  0.19726025  1
  La  La3_1  1  0.49999938  0.49999978  0.69726025  1
  La  La3_2  1  0.49999938  0.99999978  0.19726025  1
  La  La3_3  1  0.49999938  0.99999978  0.69726025  1
  La  La3_4  1  0.99999938  0.49999978  0.19726025  1
  La  La3_5  1  0.99999937  0.49999977  0.69726025  1
  La  La3_6  1  0.99999937  0.99999978  0.19726025  1
  La  La3_7  1  0.99999938  0.99999978  0.69726025  1
  Rh  Rh0_0  1  0.16666675  0.33333264  0.25033084  1
  Rh  Rh0_1  1  0.16666675  0.33333264  0.75033084  1
  Rh  Rh0_2  1  0.16666675  0.83333264  0.25033084  1
  Rh  Rh0_3  1  0.16666675  0.83333264  0.75033084  1
  Rh  Rh0_4  1  0.66666676  0.33333264  0.25033084  1
  Rh  Rh0_5  1  0.66666676  0.33333264  0.75033084  1
  Rh  Rh0_6  1  0.66666675  0.83333264  0.25033084  1
  Rh  Rh0_7  1  0.66666676  0.83333264  0.75033084  1
  Rh  Rh1_0  1  0.33333273  0.16666655  0.24963857  1
  Rh  Rh1_1  1  0.33333273  0.16666655  0.74963856  1
  Rh  Rh1_2  1  0.33333273  0.66666656  0.24963857  1
  Rh  Rh1_3  1  0.33333273  0.66666655  0.74963856  1
  Rh  Rh1_4  1  0.83333273  0.16666655  0.24963857  1
  Rh  Rh1_5  1  0.83333273  0.16666655  0.74963856  1
  Rh  Rh1_6  1  0.83333273  0.66666656  0.24963857  1
  Rh  Rh1_7  1  0.83333273  0.66666656  0.74963856  1
  Rh  Rh2_0  1  0.33333256  0.16666606  0.00036945  1
  Rh  Rh2_1  1  0.33333255  0.16666606  0.50036945  1
  Rh  Rh2_2  1  0.33333256  0.66666606  0.00036945  1
  Rh  Rh2_3  1  0.33333256  0.66666606  0.50036945  1
  Rh  Rh2_4  1  0.83333256  0.16666606  0.00036945  1
  Rh  Rh2_5  1  0.83333255  0.16666606  0.50036945  1
  Rh  Rh2_6  1  0.83333256  0.66666606  0.00036945  1
  Rh  Rh2_7  1  0.83333256  0.66666606  0.50036945  1
  Rh  Rh3_0  1  0.16666685  0.33333358  0.49967431  1
  Rh  Rh3_1  1  0.16666686  0.33333358  0.99967431  1
  Rh  Rh3_2  1  0.16666686  0.83333359  0.49967431  1
  Rh  Rh3_3  1  0.16666685  0.83333358  0.99967431  1
  Rh  Rh3_4  1  0.66666685  0.33333358  0.49967431  1
  Rh  Rh3_5  1  0.66666685  0.33333358  0.99967431  1
  Rh  Rh3_6  1  0.66666685  0.83333359  0.49967431  1
  Rh  Rh3_7  1  0.66666686  0.83333359  0.99967431  1
  I  I0_0  1  0.16665613  0.33333966  0.12494687  1
  I  I0_1  1  0.16665613  0.33333966  0.62494687  1
  I  I0_2  1  0.16665613  0.83333966  0.12494687  1
  I  I0_3  1  0.16665613  0.83333966  0.62494687  1
  I  I0_4  1  0.66665613  0.33333966  0.12494687  1
  I  I0_5  1  0.66665613  0.33333965  0.62494687  1
  I  I0_6  1  0.66665613  0.83333966  0.12494687  1
  I  I0_7  1  0.66665613  0.83333966  0.62494687  1
  I  I1_0  1  0.33334508  0.16666148  0.37504114  1
  I  I1_1  1  0.33334508  0.16666148  0.87504114  1
  I  I1_2  1  0.33334508  0.66666148  0.37504114  1
  I  I1_3  1  0.33334508  0.66666148  0.87504114  1
  I  I1_4  1  0.83334508  0.16666148  0.37504115  1
  I  I1_5  1  0.83334508  0.16666148  0.87504114  1
  I  I1_6  1  0.83334508  0.66666148  0.37504114  1
  I  I1_7  1  0.83334509  0.66666148  0.87504114  1
loop_
_geom_bond_atom_site_label_1
_geom_bond_atom_site_label_2
_geom_bond_distance
_geom_bond_site_symmetry_2
La0_0 Rh2_0 3.108937 1_665
La0_0 Rh2_6 3.108943 1_555
La0_0 Rh2_4 3.108944 1_565
La0_0 Rh3_7 3.123691 1_554
La0_0 Rh3_1 3.123700 1_664
La0_0 Rh3_3 3.123708 1_654
La0_1 Rh2_1 3.108937 1_665
La0_1 Rh2_7 3.108943 1_555
La0_1 Rh2_5 3.108944 1_565
La0_1 Rh3_6 3.123691 1_555
La0_1 Rh3_0 3.123700 1_665
La0_1 Rh3_2 3.123708 1_655
La0_2 Rh2_2 3.108937 1_655
La0_2 Rh2_4 3.108943 1_555
La0_2 Rh2_6 3.108944 1_555
La0_2 Rh3_5 3.123691 1_554
La0_2 Rh3_3 3.123700 1_654
La0_2 Rh3_1 3.123708 1_654
La0_3 Rh2_3 3.108937 1_655
La0_3 Rh2_5 3.108943 1_555
La0_3 Rh2_7 3.108944 1_555
La0_3 Rh3_4 3.123691 1_555
La0_3 Rh3_2 3.123700 1_655
La0_3 Rh3_0 3.123708 1_655
La0_4 Rh2_4 3.108937 1_565
La0_4 Rh2_2 3.108943 1_555
La0_4 Rh2_0 3.108944 1_565
La0_4 Rh3_3 3.123691 1_554
La0_4 Rh3_5 3.123700 1_564
La0_4 Rh3_7 3.123708 1_554
La0_5 Rh2_5 3.108937 1_565
La0_5 Rh2_3 3.108943 1_555
La0_5 Rh2_1 3.108944 1_565
La0_5 Rh3_2 3.123691 1_555
La0_5 Rh3_4 3.123700 1_565
La0_5 Rh3_6 3.123708 1_555
La0_6 Rh2_6 3.108937 1_555
La0_6 Rh2_0 3.108943 1_555
La0_6 Rh2_2 3.108944 1_555
La0_6 Rh3_1 3.123691 1_554
La0_6 Rh3_7 3.123700 1_554
La0_6 Rh3_5 3.123708 1_554
La0_7 Rh2_7 3.108937 1_555
La0_7 Rh2_1 3.108943 1_555
La0_7 Rh2_3 3.108944 1_555
La0_7 Rh3_0 3.123691 1_555
La0_7 Rh3_6 3.123700 1_555
La0_7 Rh3_4 3.123708 1_555
La1_0 Rh3_6 3.109214 1_455
La1_0 Rh3_2 3.109216 1_555
La1_0 Rh3_0 3.109217 1_565
La1_0 Rh2_1 3.123965 1_565
La1_0 Rh2_7 3.123977 1_455
La1_0 Rh2_5 3.123987 1_465
La1_1 Rh3_7 3.109214 1_455
La1_1 Rh3_3 3.109216 1_555
La1_1 Rh3_1 3.109217 1_565
La1_1 Rh2_0 3.123965 1_566
La1_1 Rh2_6 3.123977 1_456
La1_1 Rh2_4 3.123987 1_466
La1_2 Rh3_4 3.109214 1_455
La1_2 Rh3_0 3.109216 1_555
La1_2 Rh3_2 3.109217 1_555
La1_2 Rh2_3 3.123965 1_555
La1_2 Rh2_5 3.123977 1_455
La1_2 Rh2_7 3.123987 1_455
La1_3 Rh3_5 3.109214 1_455
La1_3 Rh3_1 3.109216 1_555
La1_3 Rh3_3 3.109217 1_555
La1_3 Rh2_2 3.123965 1_556
La1_3 Rh2_4 3.123977 1_456
La1_3 Rh2_6 3.123987 1_456
La1_4 Rh3_2 3.109214 1_555
La1_4 Rh3_6 3.109216 1_555
La1_4 Rh3_4 3.109217 1_565
La1_4 Rh2_5 3.123965 1_565
La1_4 Rh2_3 3.123977 1_555
La1_4 Rh2_1 3.123987 1_565
La1_5 Rh3_3 3.109214 1_555
La1_5 Rh3_7 3.109216 1_555
La1_5 Rh3_5 3.109217 1_565
La1_5 Rh2_4 3.123965 1_566
La1_5 Rh2_2 3.123977 1_556
La1_5 Rh2_0 3.123987 1_566
La1_6 Rh3_0 3.109214 1_555
La1_6 Rh3_4 3.109216 1_555
La1_6 Rh3_6 3.109217 1_555
La1_6 Rh2_7 3.123965 1_555
La1_6 Rh2_1 3.123977 1_555
La1_6 Rh2_3 3.123987 1_555
La1_7 Rh3_1 3.109214 1_555
La1_7 Rh3_5 3.109216 1_555
La1_7 Rh3_7 3.109217 1_555
La1_7 Rh2_6 3.123965 1_556
La1_7 Rh2_0 3.123977 1_556
La1_7 Rh2_2 3.123987 1_556
La2_0 Rh0_0 3.109950 1_555
La2_0 Rh0_6 3.109956 1_445
La2_0 Rh0_2 3.109963 1_545
La2_0 Rh1_0 3.124651 1_555
La2_0 Rh1_6 3.124662 1_445
La2_0 Rh1_4 3.124674 1_455
La2_1 Rh0_1 3.109950 1_555
La2_1 Rh0_7 3.109956 1_445
La2_1 Rh0_3 3.109963 1_545
La2_1 Rh1_1 3.124651 1_555
La2_1 Rh1_7 3.124662 1_445
La2_1 Rh1_5 3.124674 1_455
La2_2 Rh0_2 3.109950 1_555
La2_2 Rh0_4 3.109956 1_455
La2_2 Rh0_0 3.109963 1_555
La2_2 Rh1_2 3.124651 1_555
La2_2 Rh1_4 3.124662 1_455
La2_2 Rh1_6 3.124674 1_455
La2_3 Rh0_3 3.109950 1_555
La2_3 Rh0_5 3.109956 1_455
La2_3 Rh0_1 3.109963 1_555
La2_3 Rh1_3 3.124651 1_555
La2_3 Rh1_5 3.124662 1_455
La2_3 Rh1_7 3.124674 1_455
La2_4 Rh0_4 3.109950 1_555
La2_4 Rh0_2 3.109956 1_545
La2_4 Rh0_6 3.109963 1_545
La2_4 Rh1_4 3.124651 1_555
La2_4 Rh1_2 3.124662 1_545
La2_4 Rh1_0 3.124674 1_555
La2_5 Rh0_5 3.109950 1_555
La2_5 Rh0_3 3.109956 1_545
La2_5 Rh0_7 3.109963 1_545
La2_5 Rh1_5 3.124651 1_555
La2_5 Rh1_3 3.124662 1_545
La2_5 Rh1_1 3.124674 1_555
La2_6 Rh0_6 3.109950 1_555
La2_6 Rh0_0 3.109956 1_555
La2_6 Rh0_4 3.109963 1_555
La2_6 Rh1_6 3.124651 1_555
La2_6 Rh1_0 3.124662 1_555
La2_6 Rh1_2 3.124674 1_555
La2_7 Rh0_7 3.109950 1_555
La2_7 Rh0_1 3.109956 1_555
La2_7 Rh0_5 3.109963 1_555
La2_7 Rh1_7 3.124651 1_555
La2_7 Rh1_1 3.124662 1_555
La2_7 Rh1_3 3.124674 1_555
La3_0 Rh1_6 3.109971 1_555
La3_0 Rh1_0 3.109973 1_555
La3_0 Rh1_2 3.109981 1_555
La3_0 Rh0_0 3.124673 1_555
La3_0 Rh0_6 3.124677 1_555
La3_0 Rh0_4 3.124693 1_555
La3_1 Rh1_7 3.109971 1_555
La3_1 Rh1_1 3.109973 1_555
La3_1 Rh1_3 3.109981 1_555
La3_1 Rh0_1 3.124673 1_555
La3_1 Rh0_7 3.124677 1_555
La3_1 Rh0_5 3.124693 1_555
La3_2 Rh1_4 3.109971 1_565
La3_2 Rh1_2 3.109973 1_555
La3_2 Rh1_0 3.109981 1_565
La3_2 Rh0_2 3.124673 1_555
La3_2 Rh0_4 3.124677 1_565
La3_2 Rh0_6 3.124693 1_555
La3_3 Rh1_5 3.109971 1_565
La3_3 Rh1_3 3.109973 1_555
La3_3 Rh1_1 3.109981 1_565
La3_3 Rh0_3 3.124673 1_555
La3_3 Rh0_5 3.124677 1_565
La3_3 Rh0_7 3.124693 1_555
La3_4 Rh1_2 3.109971 1_655
La3_4 Rh1_4 3.109973 1_555
La3_4 Rh1_6 3.109981 1_555
La3_4 Rh0_4 3.124673 1_555
La3_4 Rh0_2 3.124677 1_655
La3_4 Rh0_0 3.124693 1_655
La3_5 Rh1_3 3.109971 1_655
La3_5 Rh1_5 3.109973 1_555
La3_5 Rh1_7 3.109981 1_555
La3_5 Rh0_5 3.124673 1_555
La3_5 Rh0_3 3.124677 1_655
La3_5 Rh0_1 3.124693 1_655
La3_6 Rh1_0 3.109971 1_665
La3_6 Rh1_6 3.109973 1_555
La3_6 Rh1_4 3.109981 1_565
La3_6 Rh0_6 3.124673 1_555
La3_6 Rh0_0 3.124677 1_665
La3_6 Rh0_2 3.124693 1_655
La3_7 Rh1_1 3.109971 1_665
La3_7 Rh1_7 3.109973 1_555
La3_7 Rh1_5 3.109981 1_565
La3_7 Rh0_7 3.124673 1_555
La3_7 Rh0_1 3.124677 1_665
La3_7 Rh0_3 3.124693 1_655
Rh0_0 Rh1_0 2.495351 1_555
Rh0_0 Rh1_4 2.495355 1_455
Rh0_0 Rh1_2 2.495357 1_555
Rh0_1 Rh1_1 2.495351 1_555
Rh0_1 Rh1_5 2.495355 1_455
Rh0_1 Rh1_3 2.495357 1_555
Rh0_2 Rh1_2 2.495351 1_555
Rh0_2 Rh1_6 2.495355 1_455
Rh0_2 Rh1_0 2.495357 1_565
Rh0_3 Rh1_3 2.495351 1_555
Rh0_3 Rh1_7 2.495355 1_455
Rh0_3 Rh1_1 2.495357 1_565
Rh0_4 Rh1_4 2.495351 1_555
Rh0_4 Rh1_0 2.495355 1_555
Rh0_4 Rh1_6 2.495357 1_555
Rh0_5 Rh1_5 2.495351 1_555
Rh0_5 Rh1_1 2.495355 1_555
Rh0_5 Rh1_7 2.495357 1_555
Rh0_6 Rh1_6 2.495351 1_555
Rh0_6 Rh1_2 2.495355 1_555
Rh0_6 Rh1_4 2.495357 1_565
Rh0_7 Rh1_7 2.495351 1_555
Rh0_7 Rh1_3 2.495355 1_555
Rh0_7 Rh1_5 2.495357 1_565
Rh2_0 Rh3_3 2.495347 1_544
Rh2_0 Rh3_5 2.495358 1_554
Rh2_0 Rh3_1 2.495361 1_554
Rh2_1 Rh3_2 2.495347 1_545
Rh2_1 Rh3_4 2.495358 1_555
Rh2_1 Rh3_0 2.495361 1_555
Rh2_2 Rh3_1 2.495347 1_554
Rh2_2 Rh3_7 2.495358 1_554
Rh2_2 Rh3_3 2.495361 1_554
Rh2_3 Rh3_0 2.495347 1_555
Rh2_3 Rh3_6 2.495358 1_555
Rh2_3 Rh3_2 2.495361 1_555
Rh2_4 Rh3_7 2.495347 1_544
Rh2_4 Rh3_1 2.495358 1_654
Rh2_4 Rh3_5 2.495361 1_554
Rh2_5 Rh3_6 2.495347 1_545
Rh2_5 Rh3_0 2.495358 1_655
Rh2_5 Rh3_4 2.495361 1_555
Rh2_6 Rh3_5 2.495347 1_554
Rh2_6 Rh3_3 2.495358 1_654
Rh2_6 Rh3_7 2.495361 1_554
Rh2_7 Rh3_4 2.495347 1_555
Rh2_7 Rh3_2 2.495358 1_655
Rh2_7 Rh3_6 2.495361 1_555
I0_0 La0_2 3.575125 1_455
I0_0 La0_0 3.575238 1_445
I0_0 La0_6 3.575255 1_555
I0_0 La3_4 3.576785 1_455
I0_0 La3_6 3.576899 1_445
I0_0 La3_0 3.576914 1_555
I0_0 I0_6 4.321860 1_445
I0_0 I0_6 4.321860 1_555
I0_0 I0_4 4.321875 1_555
I0_0 I0_4 4.321875 1_455
I0_0 I0_2 4.321880 1_545
I0_0 I0_2 4.321880 1_555
I0_1 La0_3 3.575125 1_455
I0_1 La0_1 3.575238 1_445
I0_1 La0_7 3.575255 1_555
I0_1 La3_5 3.576785 1_455
I0_1 La3_7 3.576899 1_445
I0_1 La3_1 3.576914 1_555
I0_1 I0_7 4.321860 1_445
I0_1 I0_7 4.321860 1_555
I0_1 I0_5 4.321875 1_555
I0_1 I0_5 4.321875 1_455
I0_1 I0_3 4.321880 1_545
I0_1 I0_3 4.321880 1_555
I0_2 La0_0 3.575125 1_455
I0_2 La0_2 3.575238 1_455
I0_2 La0_4 3.575255 1_555
I0_2 La3_6 3.576785 1_455
I0_2 La3_4 3.576899 1_455
I0_2 La3_2 3.576914 1_555
I0_2 I0_4 4.321860 1_565
I0_2 I0_4 4.321860 1_455
I0_2 I0_6 4.321875 1_455
I0_2 I0_6 4.321875 1_555
I0_3 La0_1 3.575125 1_455
I0_3 La0_3 3.575238 1_455
I0_3 La0_5 3.575255 1_555
I0_3 La3_7 3.576785 1_455
I0_3 La3_5 3.576899 1_455
I0_3 La3_3 3.576914 1_555
I0_3 I0_5 4.321860 1_565
I0_3 I0_5 4.321860 1_455
I0_3 I0_7 4.321875 1_555
I0_3 I0_7 4.321875 1_455
I0_4 La0_6 3.575125 1_555
I0_4 La0_4 3.575238 1_545
I0_4 La0_2 3.575255 1_555
I0_4 La3_0 3.576785 1_555
I0_4 La3_2 3.576899 1_545
I0_4 La3_4 3.576914 1_555
I0_4 I0_6 4.321880 1_545
I0_4 I0_6 4.321880 1_555
I0_5 La0_7 3.575125 1_555
I0_5 La0_5 3.575238 1_545
I0_5 La0_3 3.575255 1_555
I0_5 La3_1 3.576785 1_555
I0_5 La3_3 3.576899 1_545
I0_5 La3_5 3.576914 1_555
I0_5 I0_7 4.321880 1_545
I0_5 I0_7 4.321880 1_555
I0_6 La0_4 3.575125 1_555
I0_6 La0_6 3.575238 1_555
I0_6 La0_0 3.575255 1_555
I0_6 La3_2 3.576785 1_555
I0_6 La3_0 3.576899 1_555
I0_6 La3_6 3.576914 1_555
I0_7 La0_5 3.575125 1_555
I0_7 La0_7 3.575238 1_555
I0_7 La0_1 3.575255 1_555
I0_7 La3_3 3.576785 1_555
I0_7 La3_1 3.576899 1_555
I0_7 La3_7 3.576914 1_555
I1_0 La1_4 3.576211 1_545
I1_0 La1_6 3.576316 1_555
I1_0 La1_0 3.576348 1_545
I1_0 La2_4 3.577281 1_555
I1_0 La2_6 3.577387 1_555
I1_0 La2_0 3.577415 1_555
I1_0 I1_6 4.321860 1_555
I1_0 I1_6 4.321860 1_445
I1_0 I1_4 4.321875 1_555
I1_0 I1_4 4.321875 1_455
I1_0 I1_2 4.321880 1_555
I1_0 I1_2 4.321880 1_545
I1_1 La1_5 3.576211 1_545
I1_1 La1_7 3.576316 1_555
I1_1 La1_1 3.576348 1_545
I1_1 La2_5 3.577281 1_555
I1_1 La2_7 3.577387 1_555
I1_1 La2_1 3.577415 1_555
I1_1 I1_7 4.321860 1_445
I1_1 I1_7 4.321860 1_555
I1_1 I1_5 4.321875 1_555
I1_1 I1_5 4.321875 1_455
I1_1 I1_3 4.321880 1_555
I1_1 I1_3 4.321880 1_545
I1_2 La1_6 3.576211 1_555
I1_2 La1_4 3.576316 1_555
I1_2 La1_2 3.576348 1_555
I1_2 La2_6 3.577281 1_555
I1_2 La2_4 3.577387 1_565
I1_2 La2_2 3.577415 1_555
I1_2 I1_4 4.321860 1_455
I1_2 I1_4 4.321860 1_565
I1_2 I1_6 4.321875 1_555
I1_2 I1_6 4.321875 1_455
I1_3 La1_7 3.576211 1_555
I1_3 La1_5 3.576316 1_555
I1_3 La1_3 3.576348 1_555
I1_3 La2_7 3.577281 1_555
I1_3 La2_5 3.577387 1_565
I1_3 La2_3 3.577415 1_555
I1_3 I1_5 4.321860 1_565
I1_3 I1_5 4.321860 1_455
I1_3 I1_7 4.321875 1_455
I1_3 I1_7 4.321875 1_555
I1_4 La1_0 3.576211 1_645
I1_4 La1_2 3.576316 1_655
I1_4 La1_4 3.576348 1_545
I1_4 La2_0 3.577281 1_655
I1_4 La2_2 3.577387 1_655
I1_4 La2_4 3.577415 1_555
I1_4 I1_6 4.321880 1_555
I1_4 I1_6 4.321880 1_545
I1_5 La1_1 3.576211 1_645
I1_5 La1_3 3.576316 1_655
I1_5 La1_5 3.576348 1_545
I1_5 La2_1 3.577281 1_655
I1_5 La2_3 3.577387 1_655
I1_5 La2_5 3.577415 1_555
I1_5 I1_7 4.321880 1_555
I1_5 I1_7 4.321880 1_545
I1_6 La1_2 3.576211 1_655
I1_6 La1_0 3.576316 1_655
I1_6 La1_6 3.576348 1_555
I1_6 La2_2 3.577281 1_655
I1_6 La2_0 3.577387 1_665
I1_6 La2_6 3.577415 1_555
I1_7 La1_3 3.576211 1_655
I1_7 La1_1 3.576316 1_655
I1_7 La1_7 3.576348 1_555
I1_7 La2_3 3.577281 1_655
I1_7 La2_1 3.577387 1_665
I1_7 La2_7 3.577415 1_555
