# generated using pymatgen
data_MgV6O5F19
_symmetry_space_group_name_H-M   'P 1'
_cell_length_a   5.57909645
_cell_length_b   5.03155673
_cell_length_c   15.77946830
_cell_angle_alpha   91.61196506
_cell_angle_beta   104.01256513
_cell_angle_gamma   91.72901015
_symmetry_Int_Tables_number   1
_chemical_formula_structural   MgV6O5F19
_chemical_formula_sum   'Mg1 V6 O5 F19'
_cell_volume   429.29030234
_cell_formula_units_Z   1
loop_
 _symmetry_equiv_pos_site_id
 _symmetry_equiv_pos_as_xyz
  1  'x, y, z'
loop_
 _atom_site_type_symbol
 _atom_site_label
 _atom_site_symmetry_multiplicity
 _atom_site_fract_x
 _atom_site_fract_y
 _atom_site_fract_z
 _atom_site_occupancy
  Mg  Mg0  1  0.31709700  0.51368900  0.15794300  1
  V  V0  1  0.05349500  0.95848100  0.99920500  1
  V  V1  1  0.11230000  0.46230600  0.33548600  1
  V  V2  1  0.26602600  0.03518500  0.66130500  1
  V  V3  1  0.54365100  0.47323900  0.98436900  1
  V  V4  1  0.64298800  0.99115500  0.33514200  1
  V  V5  1  0.77346000  0.48804200  0.66262200  1
  O  O0  1  0.01594800  0.21165300  0.63422100  1
  O  O1  1  0.51665100  0.29719700  0.63463200  1
  O  O2  1  0.75041500  0.28885600  0.95956900  1
  O  O3  1  0.25802200  0.72569200  0.04219500  1
  O  O4  1  0.86954300  0.23092600  0.29938500  1
  F  F0  1  0.27370300  0.21815200  0.95621900  1
  F  F1  1  0.14320200  0.73086600  0.69838500  1
  F  F2  1  0.10862400  0.19995800  0.10095000  1
  F  F3  1  0.23407100  0.37944700  0.44672300  1
  F  F4  1  0.40246900  0.13842500  0.77122700  1
  F  F5  1  0.07666200  0.61777900  0.22088500  1
  F  F6  1  0.28522800  0.87916200  0.56147900  1
  F  F7  1  0.42007000  0.64388200  0.88934000  1
  F  F8  1  0.37627400  0.24883400  0.29013600  1
  F  F9  1  0.39900900  0.74610700  0.36384400  1
  F  F10  1  0.65341000  0.78941900  0.69754700  1
  F  F11  1  0.57876200  0.37929900  0.10136600  1
  F  F12  1  0.69990700  0.13042200  0.44104600  1
  F  F13  1  0.90203000  0.39325300  0.77089700  1
  F  F14  1  0.55046700  0.80975700  0.22483000  1
  F  F15  1  0.79509400  0.61127300  0.56053200  1
  F  F16  1  0.91408100  0.87087700  0.88740800  1
  F  F17  1  0.76139400  0.77470400  0.03121900  1
  F  F18  1  0.90118300  0.73696000  0.36918300  1
loop_
_geom_bond_atom_site_label_1
_geom_bond_atom_site_label_2
_geom_bond_distance
_geom_bond_site_symmetry_2
Mg0 O3 2.102781 1_555
O0 V2 1.650753 1_555
O0 V5 2.082573 1_455
O1 V5 1.660308 1_555
O1 V2 2.018723 1_555
O2 V3 1.614709 1_555
O3 V0 1.698426 1_554
O4 V1 1.734385 1_655
O4 V4 1.913915 1_545
F0 V3 1.907927 1_555
F0 V0 2.008251 1_545
F0 F11 2.593122 1_556
F0 F7 2.609214 1_555
F0 F16 2.623806 1_445
F0 O2 2.660208 1_555
F0 F2 2.664115 1_556
F1 V2 1.826945 1_565
F1 V5 2.304745 1_455
F1 F4 2.549877 1_565
F2 V0 1.943446 1_544
F2 Mg0 1.989017 1_555
F2 O2 2.668706 1_454
F3 V1 1.788039 1_555
F3 F9 2.564510 1_555
F4 V2 1.773096 1_555
F5 Mg0 1.928320 1_555
F5 V1 1.958683 1_555
F5 F9 2.573567 1_555
F5 F8 2.617467 1_555
F5 O4 2.711356 1_455
F6 V2 1.768119 1_565
F7 V3 1.751734 1_555
F8 V4 2.013953 1_545
F8 V1 2.096973 1_555
F8 Mg0 2.466875 1_555
F8 F9 2.715659 1_555
F8 O4 2.724720 1_555
F8 F9 2.807247 1_545
F9 V4 1.951114 1_555
F9 V1 2.068222 1_555
F10 V5 1.801326 1_555
F10 V2 2.475827 1_565
F11 V3 1.884040 1_554
F11 Mg0 2.010515 1_555
F11 O3 2.565580 1_555
F11 F17 2.601778 1_555
F12 V4 1.745901 1_545
F12 F9 2.592802 1_545
F12 F18 2.662832 1_545
F12 F8 2.710749 1_555
F13 V5 1.770323 1_555
F14 V4 1.891157 1_555
F14 Mg0 2.038953 1_555
F14 F9 2.559129 1_555
F14 F18 2.661393 1_555
F14 F8 2.715437 1_565
F15 V5 1.771989 1_555
F16 V0 1.783927 1_655
F16 F17 2.661278 1_556
F17 V3 1.927145 1_554
F17 V0 2.024856 1_654
F17 F7 2.616975 1_554
F17 O2 2.657041 1_554
F18 V4 1.942809 1_555
F18 V1 1.984934 1_655
F18 F3 2.721605 1_655
F18 O4 2.729097 1_555
