# generated using pymatgen
data_Dy(FeGe)6
_symmetry_space_group_name_H-M   'P 1'
_cell_length_a   5.13162900
_cell_length_b   8.15042600
_cell_length_c   9.72080087
_cell_angle_alpha   114.78573476
_cell_angle_beta   90.00000000
_cell_angle_gamma   90.00000000
_symmetry_Int_Tables_number   1
_chemical_formula_structural   Dy(FeGe)6
_chemical_formula_sum   'Dy2 Fe12 Ge12'
_cell_volume   369.11947205
_cell_formula_units_Z   2
loop_
 _symmetry_equiv_pos_site_id
 _symmetry_equiv_pos_as_xyz
  1  'x, y, z'
loop_
 _atom_site_type_symbol
 _atom_site_label
 _atom_site_symmetry_multiplicity
 _atom_site_fract_x
 _atom_site_fract_y
 _atom_site_fract_z
 _atom_site_occupancy
  Dy  Dy0  1  0.25000000  0.12691200  0.25382500  1
  Dy  Dy1  1  0.75000000  0.87308800  0.74617500  1
  Fe  Fe0  1  0.50000000  0.00000000  0.50000000  1
  Fe  Fe1  1  0.50000000  0.50000000  0.50000000  1
  Fe  Fe2  1  0.00000000  0.00000000  0.50000000  1
  Fe  Fe3  1  0.00000000  0.50000000  0.50000000  1
  Fe  Fe4  1  0.50000000  0.74986900  0.00000000  1
  Fe  Fe5  1  0.00000000  0.74986900  0.00000000  1
  Fe  Fe6  1  0.50000000  0.25013100  0.00000000  1
  Fe  Fe7  1  0.00000000  0.25013100  0.00000000  1
  Fe  Fe8  1  0.75000000  0.87502700  0.25021000  1
  Fe  Fe9  1  0.25000000  0.62481800  0.74979000  1
  Fe  Fe10  1  0.25000000  0.12497300  0.74979000  1
  Fe  Fe11  1  0.75000000  0.37518200  0.25021000  1
  Ge  Ge0  1  0.75000000  0.04232200  0.08464500  1
  Ge  Ge1  1  0.25000000  0.95767800  0.91535500  1
  Ge  Ge2  1  0.75000000  0.54095900  0.08191900  1
  Ge  Ge3  1  0.25000000  0.45904100  0.91808100  1
  Ge  Ge4  1  0.75000000  0.21073800  0.42147600  1
  Ge  Ge5  1  0.25000000  0.78926200  0.57852400  1
  Ge  Ge6  1  0.75000000  0.70525600  0.41051300  1
  Ge  Ge7  1  0.25000000  0.29474400  0.58948700  1
  Ge  Ge8  1  0.25000000  0.77798400  0.24888600  1
  Ge  Ge9  1  0.75000000  0.52909700  0.75111400  1
  Ge  Ge10  1  0.75000000  0.22201600  0.75111400  1
  Ge  Ge11  1  0.25000000  0.47090300  0.24888600  1
loop_
_geom_bond_atom_site_label_1
_geom_bond_atom_site_label_2
_geom_bond_distance
_geom_bond_site_symmetry_2
Dy0 Ge8 2.824121 1_545
Dy0 Ge11 2.824137 1_555
Dy0 Ge4 2.961849 1_555
Dy0 Ge4 2.961849 1_455
Dy0 Ge7 2.962331 1_555
Dy0 Ge0 2.968613 1_455
Dy0 Ge0 2.968613 1_555
Dy0 Ge1 2.987112 1_544
Dy0 Fe2 3.243111 1_555
Dy0 Fe0 3.243111 1_555
Dy0 Fe3 3.243116 1_555
Dy0 Fe1 3.243116 1_555
Dy0 Fe11 3.277016 1_555
Dy0 Fe11 3.277016 1_455
Dy0 Fe8 3.277016 1_445
Dy0 Fe8 3.277016 1_545
Dy0 Fe5 3.289383 1_545
Dy0 Fe4 3.289383 1_545
Dy0 Fe7 3.289388 1_555
Dy0 Fe6 3.289388 1_555
Dy1 Ge10 2.824121 1_565
Dy1 Ge9 2.824137 1_555
Dy1 Ge5 2.961849 1_555
Dy1 Ge5 2.961849 1_655
Dy1 Ge6 2.962331 1_555
Dy1 Ge1 2.968613 1_655
Dy1 Ge1 2.968613 1_555
Dy1 Ge0 2.987112 1_566
Dy1 Fe2 3.243111 1_665
Dy1 Fe0 3.243111 1_565
Dy1 Fe3 3.243116 1_655
Dy1 Fe1 3.243116 1_555
Dy1 Fe10 3.277016 1_665
Dy1 Fe10 3.277016 1_565
Dy1 Fe9 3.277016 1_555
Dy1 Fe9 3.277016 1_655
Dy1 Fe7 3.289383 1_666
Dy1 Fe6 3.289383 1_566
Dy1 Fe4 3.289388 1_556
Dy1 Fe5 3.289388 1_656
Fe0 Ge5 2.505582 1_545
Fe0 Ge4 2.505582 1_555
Fe0 Ge6 2.534052 1_545
Fe0 Ge7 2.534052 1_555
Fe0 Fe8 2.550606 1_545
Fe0 Fe10 2.550606 1_555
Fe0 Fe2 2.565815 1_555
Fe0 Fe2 2.565815 1_655
Fe0 Ge10 2.678680 1_555
Fe0 Ge8 2.678680 1_545
Fe1 Ge5 2.505582 1_555
Fe1 Ge4 2.505582 1_555
Fe1 Ge7 2.534045 1_555
Fe1 Ge6 2.534045 1_555
Fe1 Fe11 2.550606 1_555
Fe1 Fe9 2.550606 1_555
Fe1 Fe3 2.565815 1_655
Fe1 Fe3 2.565815 1_555
Fe1 Ge11 2.678682 1_555
Fe1 Ge9 2.678682 1_555
Fe2 Ge5 2.505582 1_545
Fe2 Ge4 2.505582 1_455
Fe2 Ge6 2.534052 1_445
Fe2 Ge7 2.534052 1_555
Fe2 Fe8 2.550606 1_445
Fe2 Ge10 2.678680 1_455
Fe2 Ge8 2.678680 1_545
Fe3 Ge5 2.505582 1_555
Fe3 Ge4 2.505582 1_455
Fe3 Ge7 2.534045 1_555
Fe3 Ge6 2.534045 1_455
Fe3 Fe9 2.550606 1_555
Fe3 Ge11 2.678682 1_555
Fe3 Ge9 2.678682 1_455
Fe4 Ge3 2.513165 1_554
Fe4 Ge2 2.513172 1_555
Fe4 Ge0 2.521917 1_565
Fe4 Ge1 2.521924 1_554
Fe4 Fe8 2.553810 1_555
Fe4 Fe9 2.553810 1_554
Fe4 Fe5 2.565815 1_555
Fe4 Fe5 2.565815 1_655
Fe4 Ge8 2.662120 1_555
Fe4 Ge9 2.662122 1_554
Fe5 Ge3 2.513165 1_554
Fe5 Ge2 2.513172 1_455
Fe5 Ge0 2.521917 1_465
Fe5 Ge1 2.521924 1_554
Fe5 Fe8 2.553810 1_455
Fe5 Fe9 2.553810 1_554
Fe5 Ge8 2.662120 1_555
Fe5 Ge9 2.662122 1_454
Fe6 Ge2 2.513165 1_555
Fe6 Ge3 2.513172 1_554
Fe6 Ge1 2.521917 1_544
Fe6 Ge0 2.521924 1_555
Fe6 Fe7 2.565815 1_555
Fe6 Fe7 2.565815 1_655
Fe6 Ge10 2.662120 1_554
Fe6 Ge11 2.662122 1_555
Fe7 Ge2 2.513165 1_455
Fe7 Ge3 2.513172 1_554
Fe7 Ge1 2.521917 1_544
Fe7 Ge0 2.521924 1_455
Fe7 Ge10 2.662120 1_454
Fe7 Ge11 2.662122 1_555
Fe8 Ge6 2.480065 1_555
Fe8 Ge0 2.507873 1_565
Fe8 Ge2 2.520944 1_555
Fe8 Ge4 2.537519 1_565
Fe8 Ge8 2.683398 1_655
Fe8 Ge8 2.683398 1_555
Fe9 Ge7 2.480065 1_555
Fe9 Ge1 2.507873 1_555
Fe9 Ge3 2.520944 1_555
Fe9 Ge5 2.537513 1_555
Fe9 Ge9 2.683403 1_555
Fe9 Ge9 2.683403 1_455
Fe10 Ge7 2.480065 1_555
Fe10 Ge1 2.507873 1_545
Fe10 Ge3 2.520944 1_555
Fe10 Ge5 2.537519 1_545
Fe10 Fe2 2.550606 1_555
Fe10 Fe6 2.553810 1_556
Fe10 Fe7 2.553810 1_556
Fe10 Ge10 2.683398 1_455
Fe10 Ge10 2.683398 1_555
Fe11 Ge6 2.480065 1_555
Fe11 Ge0 2.507873 1_555
Fe11 Ge2 2.520944 1_555
Fe11 Ge4 2.537513 1_555
Fe11 Fe3 2.550606 1_655
Fe11 Fe7 2.553810 1_655
Fe11 Fe6 2.553810 1_555
Fe11 Ge11 2.683403 1_655
Fe11 Ge11 2.683403 1_555
Ge0 Ge1 2.969102 1_544
Ge0 Ge1 2.969102 1_644
Ge0 Ge4 2.972648 1_555
Ge1 Ge5 2.972648 1_555
Ge2 Ge6 2.899953 1_555
Ge2 Ge3 2.945183 1_654
Ge2 Ge3 2.945183 1_554
Ge2 Ge9 3.176372 1_554
Ge2 Ge8 3.212600 1_655
Ge2 Ge8 3.212600 1_555
Ge3 Ge7 2.899953 1_555
Ge3 Ge8 3.176372 1_556
Ge3 Ge9 3.212594 1_555
Ge3 Ge9 3.212594 1_455
Ge4 Ge7 2.963438 1_555
Ge4 Ge7 2.963438 1_655
Ge4 Ge9 3.166906 1_555
Ge5 Ge6 2.963438 1_455
Ge5 Ge6 2.963438 1_555
Ge5 Ge8 3.166910 1_555
Ge6 Ge8 3.191259 1_555
Ge6 Ge8 3.191259 1_655
Ge7 Ge9 3.191252 1_555
Ge7 Ge9 3.191252 1_455
Ge10 Ge9 2.502841 1_555
Ge10 Ge4 3.166910 1_555
Ge10 Ge2 3.176372 1_556
Ge10 Ge7 3.191259 1_555
Ge10 Ge7 3.191259 1_655
Ge10 Ge3 3.212600 1_555
Ge10 Ge3 3.212600 1_655
Ge11 Ge8 2.502841 1_555
Ge11 Ge5 3.166906 1_555
Ge11 Ge3 3.176372 1_554
Ge11 Ge6 3.191252 1_455
Ge11 Ge6 3.191252 1_555
Ge11 Ge2 3.212594 1_555
Ge11 Ge2 3.212594 1_455
