# generated using pymatgen
data_MnH7C3NO6
_symmetry_space_group_name_H-M   'P 1'
_cell_length_a   12.51578498
_cell_length_b   12.51580032
_cell_length_c   8.62412390
_cell_angle_alpha   90.00000000
_cell_angle_beta   90.00000000
_cell_angle_gamma   119.99895293
_symmetry_Int_Tables_number   1
_chemical_formula_structural   MnH7C3NO6
_chemical_formula_sum   'Mn6 H42 C18 N6 O36'
_cell_volume   1169.94897195
_cell_formula_units_Z   6
loop_
 _symmetry_equiv_pos_site_id
 _symmetry_equiv_pos_as_xyz
  1  'x, y, z'
loop_
 _atom_site_type_symbol
 _atom_site_label
 _atom_site_symmetry_multiplicity
 _atom_site_fract_x
 _atom_site_fract_y
 _atom_site_fract_z
 _atom_site_occupancy
  Mn  Mn0  1  0.33655986  0.32911904  0.58853437  1
  Mn  Mn1  1  0.67088606  0.00746539  0.58853815  1
  Mn  Mn2  1  0.99242555  0.66339582  0.58857277  1
  Mn  Mn3  1  0.66344014  0.67088093  0.08853435  1
  Mn  Mn4  1  0.32911397  0.99253458  0.08853814  1
  Mn  Mn5  1  0.00757443  0.33660418  0.08857277  1
  H  H0  1  0.27856469  0.15913936  0.29868867  1
  H  H1  1  0.84086536  0.11942693  0.29867017  1
  H  H2  1  0.88068027  0.72148870  0.29860014  1
  H  H3  1  0.72143534  0.84086066  0.79868870  1
  H  H4  1  0.15913466  0.88057307  0.79867020  1
  H  H5  1  0.11931973  0.27851133  0.79860017  1
  H  H6  1  0.49541931  0.44511814  0.28761994  1
  H  H7  1  0.55487310  0.05030103  0.28760616  1
  H  H8  1  0.94969634  0.50454025  0.28759824  1
  H  H9  1  0.50458072  0.55488189  0.78761991  1
  H  H10  1  0.44512693  0.94969895  0.78760619  1
  H  H11  1  0.05030368  0.49545975  0.78759821  1
  H  H12  1  0.15645253  0.38146705  0.39796745  1
  H  H13  1  0.61855562  0.77510075  0.39783334  1
  H  H14  1  0.22485918  0.84342065  0.39786875  1
  H  H15  1  0.84354748  0.61853295  0.89796745  1
  H  H16  1  0.38144438  0.22489925  0.89783337  1
  H  H17  1  0.77514082  0.15657937  0.89786878  1
  H  H18  1  0.57703490  0.30194587  0.49591002  1
  H  H19  1  0.69806308  0.27509533  0.49590007  1
  H  H20  1  0.72490245  0.42296274  0.49590791  1
  H  H21  1  0.42296510  0.69805413  0.99591002  1
  H  H22  1  0.30193692  0.72490365  0.99590010  1
  H  H23  1  0.27509758  0.57703726  0.99590791  1
  H  H24  1  0.66667594  0.33333908  0.65194531  1
  H  H25  1  0.33332403  0.66666089  0.15194531  1
  H  H26  1  0.35837308  0.60326198  0.49151521  1
  H  H27  1  0.39672736  0.75512338  0.49150579  1
  H  H28  1  0.24486011  0.64161754  0.49151095  1
  H  H29  1  0.64162692  0.39673802  0.99151524  1
  H  H30  1  0.60327264  0.24487662  0.99150579  1
  H  H31  1  0.75513989  0.35838246  0.99151092  1
  H  H32  1  0.33332251  0.66667819  0.64775090  1
  H  H33  1  0.66667746  0.33332178  0.14775089  1
  H  H34  1  0.02933153  0.08934970  0.18579237  1
  H  H35  1  0.91064235  0.93998822  0.18578444  1
  H  H36  1  0.06001467  0.97066453  0.18579826  1
  H  H37  1  0.97066849  0.91065031  0.68579234  1
  H  H38  1  0.08935766  0.06001178  0.68578441  1
  H  H39  1  0.93998533  0.02933549  0.68579823  1
  H  H40  1  0.00001268  0.00001943  0.02980503  1
  H  H41  1  0.99998732  0.99998057  0.52980504  1
  C  C0  1  0.37614645  0.18949185  0.32198697  1
  C  C1  1  0.81051219  0.18665487  0.32198511  1
  C  C2  1  0.81341492  0.62392574  0.32194979  1
  C  C3  1  0.62385358  0.81050812  0.82198700  1
  C  C4  1  0.18948778  0.81334515  0.82198413  1
  C  C5  1  0.18658508  0.37607429  0.82194976  1
  C  C6  1  0.46498166  0.51138922  0.31634210  1
  C  C7  1  0.48860246  0.95359426  0.31633258  1
  C  C8  1  0.04640913  0.53500615  0.31633653  1
  C  C9  1  0.53501837  0.48861078  0.81634210  1
  C  C10  1  0.51139757  0.04640575  0.81633255  1
  C  C11  1  0.95359087  0.46499382  0.81633653  1
  C  C12  1  0.13265436  0.28674336  0.36684957  1
  C  C13  1  0.71331516  0.84597136  0.36678673  1
  C  C14  1  0.15399588  0.86731941  0.36681754  1
  C  C15  1  0.86734562  0.71325664  0.86684957  1
  C  C16  1  0.28668484  0.15402864  0.86678673  1
  C  C17  1  0.84600412  0.13268059  0.86681752  1
  N  N0  1  0.66667061  0.33333926  0.53405626  1
  N  N1  1  0.33332936  0.66666071  0.03405627  1
  N  N2  1  0.33331623  0.66666407  0.52971822  1
  N  N3  1  0.66668374  0.33333590  0.02971822  1
  N  N4  1  0.99999940  0.00000578  0.14775554  1
  N  N5  1  0.00000060  0.99999422  0.64775554  1
  O  O0  1  0.42361482  0.25576585  0.44148784  1
  O  O1  1  0.74423106  0.16783483  0.44148754  1
  O  O2  1  0.83222295  0.57645356  0.44144674  1
  O  O3  1  0.57638518  0.74423418  0.94148781  1
  O  O4  1  0.25576897  0.83216515  0.94148751  1
  O  O5  1  0.16777702  0.42354644  0.94144671  1
  O  O6  1  0.43307741  0.15723976  0.23039304  1
  O  O7  1  0.84277295  0.27584796  0.23041207  1
  O  O8  1  0.72418107  0.56701779  0.23042286  1
  O  O9  1  0.56692257  0.84276024  0.73039306  1
  O  O10  1  0.15722702  0.72415204  0.73041208  1
  O  O11  1  0.27581893  0.43298218  0.73042287  1
  O  O12  1  0.39957186  0.49019268  0.43722217  1
  O  O13  1  0.50980189  0.90938090  0.43720737  1
  O  O14  1  0.09060458  0.60042848  0.43720166  1
  O  O15  1  0.60042814  0.50980729  0.93722217  1
  O  O16  1  0.49019811  0.09061908  0.93720737  1
  O  O17  1  0.90939541  0.39957155  0.93720166  1
  O  O18  1  0.49806958  0.60329105  0.22908821  1
  O  O19  1  0.39669476  0.89477926  0.22908653  1
  O  O20  1  0.10524629  0.50192720  0.22909612  1
  O  O21  1  0.50193042  0.39670895  0.72908823  1
  O  O22  1  0.60330524  0.10522075  0.72908653  1
  O  O23  1  0.89475373  0.49807280  0.72909611  1
  O  O24  1  0.16685223  0.22932019  0.45495686  1
  O  O25  1  0.77078137  0.93752254  0.45497409  1
  O  O26  1  0.06244471  0.83324702  0.45500727  1
  O  O27  1  0.83314778  0.77067978  0.95495683  1
  O  O28  1  0.22921860  0.06247744  0.95497406  1
  O  O29  1  0.93755531  0.16675300  0.95500727  1
  O  O30  1  0.07242967  0.24319563  0.24227503  1
  O  O31  1  0.75686668  0.82929864  0.24221171  1
  O  O32  1  0.17067466  0.92754212  0.24224357  1
  O  O33  1  0.92757031  0.75680434  0.74227505  1
  O  O34  1  0.24313329  0.17070134  0.74221168  1
  O  O35  1  0.82932533  0.07245785  0.74224356  1
loop_
_geom_bond_atom_site_label_1
_geom_bond_atom_site_label_2
_geom_bond_distance
_geom_bond_site_symmetry_2
Mn0 O0 2.153710 1_555
Mn0 O21 2.172082 1_555
Mn0 O34 2.176382 1_555
Mn0 O24 2.178476 1_555
Mn0 O11 2.180209 1_555
Mn0 O12 2.190686 1_555
Mn1 O1 2.153408 1_555
Mn1 O22 2.171721 1_555
Mn1 O35 2.176717 1_555
Mn1 O25 2.179617 1_545
Mn1 O9 2.181047 1_545
Mn1 O13 2.190899 1_545
Mn2 O2 2.152334 1_555
Mn2 O23 2.171425 1_555
Mn2 O33 2.175233 1_555
Mn2 O26 2.179691 1_655
Mn2 O10 2.181869 1_655
Mn2 O14 2.191698 1_655
Mn3 O3 2.153711 1_554
Mn3 O18 2.172082 1_555
Mn3 O31 2.176383 1_555
Mn3 O27 2.178477 1_554
Mn3 O8 2.180209 1_555
Mn3 O15 2.190685 1_554
Mn4 O4 2.153408 1_554
Mn4 O19 2.171720 1_555
Mn4 O32 2.176718 1_555
Mn4 O28 2.179618 1_564
Mn4 O6 2.181047 1_565
Mn4 O16 2.190898 1_564
Mn5 O5 2.152334 1_554
Mn5 O20 2.171425 1_555
Mn5 O30 2.175234 1_555
Mn5 O29 2.179691 1_454
Mn5 O7 2.181869 1_455
Mn5 O17 2.191699 1_454
H18 N0 1.039423 1_555
H18 O0 1.769639 1_555
H19 N0 1.039449 1_555
H19 O1 1.769731 1_555
H20 N0 1.039303 1_555
H20 O2 1.770585 1_555
H21 N1 1.039423 1_556
H21 O3 1.769639 1_555
H22 N1 1.039438 1_556
H22 O4 1.769742 1_555
H23 N1 1.039302 1_556
H23 O5 1.770586 1_555
H24 N0 1.016690 1_555
H25 N1 1.016690 1_555
H26 N2 1.041840 1_555
H27 N2 1.041912 1_555
H28 N2 1.041858 1_555
H29 N3 1.041841 1_556
H30 N3 1.041912 1_556
H31 N3 1.041858 1_556
H32 N2 1.017929 1_555
H33 N3 1.017928 1_555
H34 N4 1.040325 1_455
H35 N4 1.040440 1_565
H36 N4 1.040450 1_465
H37 N5 1.040325 1_655
H38 N5 1.040440 1_545
H39 N5 1.040450 1_645
H40 N4 1.017220 1_455
H41 N5 1.017220 1_655
C0 H0 1.101065 1_555
C0 O6 1.257868 1_555
C0 O0 1.268985 1_555
C1 H1 1.101072 1_555
C1 O7 1.257843 1_555
C1 O1 1.269016 1_555
C2 H2 1.101079 1_555
C2 O8 1.257868 1_555
C2 O2 1.268989 1_555
C3 H3 1.101065 1_555
C3 O9 1.257869 1_555
C3 O3 1.268984 1_555
C4 H4 1.101069 1_555
C4 O10 1.257838 1_555
C4 O4 1.269023 1_555
C5 H5 1.101079 1_555
C5 O11 1.257868 1_555
C5 O5 1.268989 1_555
C6 H6 1.100186 1_555
C6 O18 1.258743 1_555
C6 O12 1.268927 1_555
C7 H7 1.100194 1_565
C7 O19 1.258754 1_555
C7 O13 1.268901 1_555
C8 H8 1.100202 1_455
C8 O20 1.258812 1_555
C8 O14 1.268866 1_555
C9 H9 1.100186 1_555
C9 O21 1.258743 1_555
C9 O15 1.268926 1_555
C10 H10 1.100194 1_545
C10 O22 1.258754 1_555
C10 O16 1.268901 1_555
C11 H11 1.100203 1_655
C11 O23 1.258812 1_555
C11 O17 1.268866 1_555
C12 H12 1.101427 1_555
C12 O24 1.258845 1_555
C12 O30 1.268315 1_555
C13 H13 1.101405 1_555
C13 O25 1.258793 1_555
C13 O31 1.268316 1_555
C14 H14 1.101393 1_555
C14 O26 1.258818 1_555
C14 O32 1.268293 1_555
C15 H15 1.101427 1_555
C15 O27 1.258845 1_555
C15 O33 1.268315 1_555
C16 H16 1.101405 1_555
C16 O28 1.258793 1_555
C16 O34 1.268317 1_555
C17 H17 1.101393 1_555
C17 O29 1.258819 1_555
C17 O35 1.268293 1_555
