# generated using pymatgen
data_Ag3Sb4F24
_symmetry_space_group_name_H-M   'P 1'
_cell_length_a   10.98733358
_cell_length_b   10.98733358
_cell_length_c   10.98733358
_cell_angle_alpha   109.47122063
_cell_angle_beta   109.47122063
_cell_angle_gamma   109.47122063
_symmetry_Int_Tables_number   1
_chemical_formula_structural   Ag3Sb4F24
_chemical_formula_sum   'Ag6 Sb8 F48'
_cell_volume   1021.06887867
_cell_formula_units_Z   2
loop_
 _symmetry_equiv_pos_site_id
 _symmetry_equiv_pos_as_xyz
  1  'x, y, z'
loop_
 _atom_site_type_symbol
 _atom_site_label
 _atom_site_symmetry_multiplicity
 _atom_site_fract_x
 _atom_site_fract_y
 _atom_site_fract_z
 _atom_site_occupancy
  Ag  Ag0  1  0.12500000  0.75000000  0.87500000  1
  Ag  Ag1  1  0.37500000  0.25000000  0.62500000  1
  Ag  Ag2  1  0.75000000  0.87500000  0.12500000  1
  Ag  Ag3  1  0.25000000  0.62500000  0.37500000  1
  Ag  Ag4  1  0.87500000  0.12500000  0.75000000  1
  Ag  Ag5  1  0.62500000  0.37500000  0.25000000  1
  Sb  Sb0  1  0.50000000  0.00000000  0.37681500  1
  Sb  Sb1  1  0.37681500  0.50000000  0.00000000  1
  Sb  Sb2  1  0.12318500  0.12318500  0.12318500  1
  Sb  Sb3  1  0.00000000  0.37681500  0.50000000  1
  Sb  Sb4  1  0.87681500  0.50000000  0.00000000  1
  Sb  Sb5  1  0.50000000  0.00000000  0.87681500  1
  Sb  Sb6  1  0.62318500  0.62318500  0.62318500  1
  Sb  Sb7  1  0.00000000  0.87681500  0.50000000  1
  F  F0  1  0.66988500  0.11244100  0.57721300  1
  F  F1  1  0.46477200  0.38755900  0.05744400  1
  F  F2  1  0.03522800  0.09267200  0.92278700  1
  F  F3  1  0.83011500  0.40732800  0.44255600  1
  F  F4  1  0.07721300  0.61244100  0.16988500  1
  F  F5  1  0.55744400  0.88755900  0.96477200  1
  F  F6  1  0.42278700  0.59267200  0.53522800  1
  F  F7  1  0.94255600  0.90732800  0.33011500  1
  F  F8  1  0.11244100  0.57721300  0.66988500  1
  F  F9  1  0.38755900  0.05744400  0.46477200  1
  F  F10  1  0.09267200  0.92278700  0.03522800  1
  F  F11  1  0.40732800  0.44255600  0.83011500  1
  F  F12  1  0.61244100  0.16988500  0.07721300  1
  F  F13  1  0.88755900  0.96477200  0.55744400  1
  F  F14  1  0.59267200  0.53522800  0.42278700  1
  F  F15  1  0.90732800  0.33011500  0.94255600  1
  F  F16  1  0.57721300  0.66988500  0.11244100  1
  F  F17  1  0.05744400  0.46477200  0.38755900  1
  F  F18  1  0.92278700  0.03522800  0.09267200  1
  F  F19  1  0.44255600  0.83011500  0.40732800  1
  F  F20  1  0.16988500  0.07721300  0.61244100  1
  F  F21  1  0.96477200  0.55744400  0.88755900  1
  F  F22  1  0.53522800  0.42278700  0.59267200  1
  F  F23  1  0.33011500  0.94255600  0.90732800  1
  F  F24  1  0.32877000  0.88156600  0.18272800  1
  F  F25  1  0.30116100  0.61843400  0.94720400  1
  F  F26  1  0.19883900  0.14604300  0.31727200  1
  F  F27  1  0.17123000  0.35395700  0.55279600  1
  F  F28  1  0.68272800  0.38156600  0.82877000  1
  F  F29  1  0.44720400  0.11843400  0.80116100  1
  F  F30  1  0.81727200  0.64604300  0.69883900  1
  F  F31  1  0.05279600  0.85395700  0.67123000  1
  F  F32  1  0.88156600  0.18272800  0.32877000  1
  F  F33  1  0.61843400  0.94720400  0.30116100  1
  F  F34  1  0.14604300  0.31727200  0.19883900  1
  F  F35  1  0.35395700  0.55279600  0.17123000  1
  F  F36  1  0.38156600  0.82877000  0.68272800  1
  F  F37  1  0.11843400  0.80116100  0.44720400  1
  F  F38  1  0.64604300  0.69883900  0.81727200  1
  F  F39  1  0.85395700  0.67123000  0.05279600  1
  F  F40  1  0.18272800  0.32877000  0.88156600  1
  F  F41  1  0.94720400  0.30116100  0.61843400  1
  F  F42  1  0.31727200  0.19883900  0.14604300  1
  F  F43  1  0.55279600  0.17123000  0.35395700  1
  F  F44  1  0.82877000  0.68272800  0.38156600  1
  F  F45  1  0.80116100  0.44720400  0.11843400  1
  F  F46  1  0.69883900  0.81727200  0.64604300  1
  F  F47  1  0.67123000  0.05279600  0.85395700  1
loop_
_geom_bond_atom_site_label_1
_geom_bond_atom_site_label_2
_geom_bond_distance
_geom_bond_site_symmetry_2
Ag0 F10 2.338360 1_556
Ag0 F8 2.338360 1_555
Ag0 F23 2.338360 1_555
Ag0 F21 2.338360 1_455
Ag0 F31 2.841034 1_555
Ag0 F25 2.841034 1_555
Ag0 F24 2.841043 1_556
Ag0 F30 2.841043 1_455
Ag1 F22 2.338360 1_555
Ag1 F11 2.338360 1_555
Ag1 F9 2.338360 1_555
Ag1 F20 2.338360 1_555
Ag1 F27 2.841034 1_555
Ag1 F29 2.841034 1_555
Ag1 F28 2.841043 1_555
Ag1 F26 2.841043 1_555
Ag2 F18 2.338360 1_565
Ag2 F16 2.338360 1_555
Ag2 F7 2.338360 1_555
Ag2 F5 2.338360 1_554
Ag2 F39 2.841034 1_555
Ag2 F33 2.841034 1_555
Ag2 F32 2.841043 1_565
Ag2 F38 2.841043 1_554
Ag3 F6 2.338360 1_555
Ag3 F19 2.338360 1_555
Ag3 F4 2.338360 1_555
Ag3 F17 2.338360 1_555
Ag3 F35 2.841034 1_555
Ag3 F37 2.841034 1_555
Ag3 F36 2.841043 1_555
Ag3 F34 2.841043 1_555
Ag4 F2 2.338360 1_655
Ag4 F0 2.338360 1_555
Ag4 F15 2.338360 1_555
Ag4 F13 2.338360 1_545
Ag4 F47 2.841034 1_555
Ag4 F41 2.841034 1_555
Ag4 F40 2.841043 1_655
Ag4 F46 2.841043 1_545
Ag5 F14 2.338360 1_555
Ag5 F3 2.338360 1_555
Ag5 F1 2.338360 1_555
Ag5 F12 2.338360 1_555
Ag5 F43 2.841034 1_555
Ag5 F45 2.841034 1_555
Ag5 F44 2.841043 1_555
Ag5 F42 2.841043 1_555
F0 Sb0 1.941067 1_555
F0 F9 2.685460 1_555
F0 F19 2.685460 1_545
F0 F33 2.704968 1_545
F1 Sb1 1.941067 1_555
F1 F16 2.685460 1_555
F1 F11 2.685460 1_554
F1 F35 2.704968 1_555
F2 Sb2 1.941067 1_556
F2 F34 2.704963 1_556
F3 Sb3 1.941067 1_655
F3 F8 2.685460 1_655
F3 F32 2.704959 1_555
F4 Sb4 1.941067 1_455
F4 F45 2.704968 1_455
F5 Sb5 1.941067 1_565
F6 Sb6 1.941067 1_555
F7 Sb7 1.941067 1_655
F8 Sb3 1.941067 1_555
F9 Sb0 1.941067 1_555
F10 Sb2 1.941067 1_565
F10 F18 2.685460 1_465
F10 F2 2.685460 1_564
F10 F42 2.704963 1_565
F11 Sb1 1.941067 1_556
F11 F16 2.685460 1_556
F11 F40 2.704959 1_555
F12 Sb5 1.941067 1_554
F12 F5 2.685460 1_544
F12 F23 2.685460 1_544
F12 F29 2.704968 1_554
F13 Sb7 1.941067 1_655
F13 F20 2.685460 1_665
F13 F7 2.685460 1_555
F13 F31 2.704968 1_655
F14 Sb6 1.941067 1_555
F14 F22 2.685460 1_555
F14 F6 2.685460 1_555
F14 F30 2.704963 1_555
F15 Sb4 1.941067 1_556
F15 F21 2.685460 1_555
F15 F4 2.685460 1_656
F15 F28 2.704959 1_555
F16 Sb1 1.941067 1_555
F16 F25 2.704968 1_554
F17 Sb3 1.941067 1_555
F17 F8 2.685460 1_555
F17 F3 2.685460 1_455
F17 F27 2.704968 1_555
F18 Sb2 1.941067 1_655
F18 F2 2.685460 1_654
F18 F26 2.704963 1_655
F19 Sb0 1.941067 1_565
F19 F9 2.685460 1_565
F19 F24 2.704959 1_555
F20 Sb7 1.941067 1_545
F20 F7 2.685460 1_445
F20 F37 2.704968 1_545
F21 Sb4 1.941067 1_556
F21 F4 2.685460 1_656
F21 F39 2.704968 1_556
F22 Sb6 1.941067 1_555
F22 F6 2.685460 1_555
F22 F38 2.704963 1_555
F23 Sb5 1.941067 1_565
F23 F5 2.685460 1_555
F23 F36 2.704959 1_555
F24 Sb0 1.903583 1_565
F25 Sb1 1.903590 1_556
F26 Sb2 1.903579 1_555
F27 Sb3 1.903590 1_555
F28 Sb4 1.903583 1_556
F29 Sb5 1.903590 1_555
F30 Sb6 1.903579 1_555
F31 Sb7 1.903590 1_555
F32 Sb3 1.903583 1_655
F33 Sb0 1.903590 1_565
F34 Sb2 1.903579 1_555
F35 Sb1 1.903590 1_555
F36 Sb5 1.903583 1_565
F37 Sb7 1.903590 1_555
F38 Sb6 1.903579 1_555
F39 Sb4 1.903590 1_555
F40 Sb1 1.903583 1_556
F41 Sb3 1.903590 1_655
F41 F8 2.704968 1_655
F42 Sb2 1.903579 1_555
F43 Sb0 1.903590 1_555
F43 F9 2.704968 1_555
F44 Sb7 1.903583 1_655
F44 F7 2.704959 1_555
F45 Sb4 1.903590 1_555
F46 Sb6 1.903579 1_555
F46 F6 2.704963 1_555
F47 Sb5 1.903590 1_555
F47 F5 2.704968 1_545
