# generated using pymatgen
data_CoP3H16N4O11
_symmetry_space_group_name_H-M   'P 1'
_cell_length_a   10.74880000
_cell_length_b   7.95432400
_cell_length_c   9.13742712
_cell_angle_alpha   80.49958974
_cell_angle_beta   90.00000000
_cell_angle_gamma   90.00000000
_symmetry_Int_Tables_number   1
_chemical_formula_structural   CoP3H16N4O11
_chemical_formula_sum   'Co2 P6 H32 N8 O22'
_cell_volume   770.52965450
_cell_formula_units_Z   2
loop_
 _symmetry_equiv_pos_site_id
 _symmetry_equiv_pos_as_xyz
  1  'x, y, z'
loop_
 _atom_site_type_symbol
 _atom_site_label
 _atom_site_symmetry_multiplicity
 _atom_site_fract_x
 _atom_site_fract_y
 _atom_site_fract_z
 _atom_site_occupancy
  Co  Co0  1  0.50721100  0.79438300  0.61541100  1
  Co  Co1  1  0.00721100  0.20561700  0.38458900  1
  P  P0  1  0.49702300  0.33281200  0.21858000  1
  P  P1  1  0.99702300  0.66718800  0.78142000  1
  P  P2  1  0.44980700  0.19711700  0.53312000  1
  P  P3  1  0.94980700  0.80288300  0.46688000  1
  P  P4  1  0.64673700  0.09855000  0.76073700  1
  P  P5  1  0.14673700  0.90145000  0.23926300  1
  H  H0  1  0.53170400  0.85255100  0.05410300  1
  H  H1  1  0.03170400  0.14744900  0.94589700  1
  H  H2  1  0.43326100  0.51671200  0.78045500  1
  H  H3  1  0.93326100  0.48328800  0.21954500  1
  H  H4  1  0.30600500  0.91977900  0.90492800  1
  H  H5  1  0.80600500  0.08022100  0.09507200  1
  H  H6  1  0.47772900  0.55501200  0.33593800  1
  H  H7  1  0.97772900  0.44498800  0.66406200  1
  H  H8  1  0.68514200  0.62078700  0.75245200  1
  H  H9  1  0.18514200  0.37921300  0.24754800  1
  H  H10  1  0.60727300  0.45511700  0.67976300  1
  H  H11  1  0.10727300  0.54488300  0.32023700  1
  H  H12  1  0.32863700  0.57549400  0.55770400  1
  H  H13  1  0.82863700  0.42450600  0.44229600  1
  H  H14  1  0.32280200  0.76287500  0.44530500  1
  H  H15  1  0.82280200  0.23712500  0.55469500  1
  H  H16  1  0.26779200  0.74665200  0.61624900  1
  H  H17  1  0.76779200  0.25334800  0.38375100  1
  H  H18  1  0.51594200  0.79548600  0.12571100  1
  H  H19  1  0.01594200  0.20451400  0.87428900  1
  H  H20  1  0.68203200  0.72301400  0.44327000  1
  H  H21  1  0.18203200  0.27698600  0.55673000  1
  H  H22  1  0.61001700  0.90337200  0.37575900  1
  H  H23  1  0.11001700  0.09662800  0.62424100  1
  H  H24  1  0.77293200  0.76579100  0.11812600  1
  H  H25  1  0.27293200  0.23420900  0.88187400  1
  H  H26  1  0.69836700  0.60032900  0.10759700  1
  H  H27  1  0.19836700  0.39967100  0.89240300  1
  H  H28  1  0.33176600  0.33738400  0.06516200  1
  H  H29  1  0.83176600  0.66261600  0.93483800  1
  H  H30  1  0.58527700  0.19242500  0.97202000  1
  H  H31  1  0.08527700  0.80757500  0.02798000  1
  N  N0  1  0.50074200  0.60619900  0.79285300  1
  N  N1  1  0.00074200  0.39380100  0.20714700  1
  N  N2  1  0.60334300  0.56429700  0.72731900  1
  N  N3  1  0.10334300  0.43570300  0.27268100  1
  N  N4  1  0.33684500  0.70486800  0.55442900  1
  N  N5  1  0.83684500  0.29513200  0.44557100  1
  N  N6  1  0.59981400  0.78844200  0.44368200  1
  N  N7  1  0.09981400  0.21155800  0.55631800  1
  O  O0  1  0.58940000  0.30095400  0.10549600  1
  O  O1  1  0.08940000  0.69904600  0.89450400  1
  O  O2  1  0.35611100  0.33328800  0.17512000  1
  O  O3  1  0.85611100  0.66671200  0.82488000  1
  O  O4  1  0.53177700  0.51055800  0.26489300  1
  O  O5  1  0.03177700  0.48944200  0.73510700  1
  O  O6  1  0.50878200  0.19393000  0.36595700  1
  O  O7  1  0.00878200  0.80607000  0.63404300  1
  O  O8  1  0.40202400  0.02012000  0.58637000  1
  O  O9  1  0.90202400  0.97988000  0.41363000  1
  O  O10  1  0.36624900  0.34883600  0.52498100  1
  O  O11  1  0.86624900  0.65116400  0.47501900  1
  O  O12  1  0.57378600  0.23143300  0.62262400  1
  O  O13  1  0.07378600  0.76856700  0.37737600  1
  O  O14  1  0.56135100  0.11656300  0.89833300  1
  O  O15  1  0.06135100  0.88343700  0.10166700  1
  O  O16  1  0.77299100  0.17561600  0.76221400  1
  O  O17  1  0.27299100  0.82438400  0.23778600  1
  O  O18  1  0.63066600  0.91896700  0.72940600  1
  O  O19  1  0.13066600  0.08103300  0.27059400  1
  O  O20  1  0.78136200  0.65150200  0.09327200  1
  O  O21  1  0.28136200  0.34849800  0.90672800  1
loop_
_geom_bond_atom_site_label_1
_geom_bond_atom_site_label_2
_geom_bond_distance
_geom_bond_site_symmetry_2
Co0 N6 1.865407 1_555
Co0 N0 2.018198 1_555
Co0 O18 2.041734 1_555
Co0 N4 2.074092 1_555
Co0 O8 2.101330 1_565
Co0 N2 2.201158 1_555
Co1 N7 1.865407 1_555
Co1 N1 2.018198 1_555
Co1 O19 2.041734 1_555
Co1 N5 2.074092 1_455
Co1 O9 2.101330 1_445
Co1 N3 2.201158 1_555
H0 H18 0.751548 1_555
H0 H4 2.790835 1_554
H1 H19 0.751548 1_555
H1 H5 2.790835 1_456
H2 N0 1.035491 1_555
H3 N1 1.035491 1_655
H4 O1 2.927075 1_555
H4 O17 3.031563 1_556
H4 O8 3.067259 1_565
H4 O14 3.155278 1_565
H5 O0 2.927075 1_555
H5 O16 3.031563 1_554
H5 O9 3.067259 1_545
H5 O15 3.155278 1_645
H6 O4 0.979660 1_555
H7 O5 0.979660 1_655
H8 N2 1.030425 1_555
H9 N3 1.030425 1_555
H10 N2 1.034116 1_555
H10 O12 1.968390 1_555
H11 N3 1.034116 1_555
H11 O13 1.968390 1_555
H12 N4 1.028360 1_555
H12 O10 1.918669 1_555
H13 N5 1.028360 1_555
H13 O11 1.918669 1_555
H14 N4 1.038287 1_555
H14 O17 1.953285 1_555
H15 N5 1.038287 1_555
H15 O16 1.953285 1_555
H16 N4 1.021000 1_555
H16 H4 3.197212 1_555
H17 N5 1.021000 1_555
H17 H5 3.197212 1_555
H20 N6 1.025923 1_555
H20 O11 2.068068 1_555
H21 N7 1.025923 1_555
H21 O10 2.068068 1_555
H22 N6 1.022579 1_555
H22 H5 3.435658 1_565
H23 N7 1.022579 1_555
H23 H4 3.435658 1_545
H24 O20 0.976927 1_555
H24 H5 2.500444 1_565
H25 O21 0.976927 1_555
H25 H4 2.500444 1_545
H26 O20 0.980341 1_555
H27 O21 0.980341 1_555
H28 O2 1.033547 1_555
H29 O3 1.033547 1_555
H30 O14 1.008829 1_555
H30 O0 1.606942 1_556
H30 H5 2.712669 1_556
H31 O15 1.008829 1_555
H31 O1 1.606942 1_554
H31 H4 2.712669 1_554
N0 N2 1.323557 1_555
N1 N3 1.323557 1_555
O0 P0 1.484685 1_555
O1 P1 1.484685 1_455
O2 P0 1.565674 1_555
O3 P1 1.565674 1_555
O4 P0 1.585910 1_555
O5 P1 1.585910 1_455
O6 P0 1.599604 1_555
O6 P2 1.657812 1_555
O7 P1 1.599604 1_455
O7 P3 1.657812 1_455
O8 P2 1.502187 1_555
O9 P3 1.502187 1_555
O10 P2 1.496327 1_555
O11 P3 1.496327 1_555
O12 P2 1.610263 1_555
O12 P4 1.698353 1_555
O13 P3 1.610263 1_455
O13 P5 1.698353 1_555
O14 P4 1.582114 1_555
O15 P5 1.582114 1_555
O16 P4 1.490086 1_555
O17 P5 1.490086 1_555
O18 P4 1.512382 1_565
O19 P5 1.512382 1_545
