# generated using pymatgen
data_Nb3Au2
_symmetry_space_group_name_H-M   'P 1'
_cell_length_a   7.13659200
_cell_length_b   7.13659200
_cell_length_c   7.13659200
_cell_angle_alpha   90.00000000
_cell_angle_beta   90.00000000
_cell_angle_gamma   90.00000000
_symmetry_Int_Tables_number   1
_chemical_formula_structural   Nb3Au2
_chemical_formula_sum   'Nb12 Au8'
_cell_volume   363.47337731
_cell_formula_units_Z   4
loop_
 _symmetry_equiv_pos_site_id
 _symmetry_equiv_pos_as_xyz
  1  'x, y, z'
loop_
 _atom_site_type_symbol
 _atom_site_label
 _atom_site_symmetry_multiplicity
 _atom_site_fract_x
 _atom_site_fract_y
 _atom_site_fract_z
 _atom_site_occupancy
  Nb  Nb0  1  0.80826100  0.94173900  0.37500000  1
  Nb  Nb1  1  0.69173900  0.05826100  0.87500000  1
  Nb  Nb2  1  0.19173900  0.44173900  0.12500000  1
  Nb  Nb3  1  0.30826100  0.55826100  0.62500000  1
  Nb  Nb4  1  0.94173900  0.37500000  0.80826100  1
  Nb  Nb5  1  0.05826100  0.87500000  0.69173900  1
  Nb  Nb6  1  0.44173900  0.12500000  0.19173900  1
  Nb  Nb7  1  0.55826100  0.62500000  0.30826100  1
  Nb  Nb8  1  0.37500000  0.80826100  0.94173900  1
  Nb  Nb9  1  0.87500000  0.69173900  0.05826100  1
  Nb  Nb10  1  0.12500000  0.19173900  0.44173900  1
  Nb  Nb11  1  0.62500000  0.30826100  0.55826100  1
  Au  Au0  1  0.19956300  0.80043700  0.30043700  1
  Au  Au1  1  0.30043700  0.19956300  0.80043700  1
  Au  Au2  1  0.80043700  0.30043700  0.19956300  1
  Au  Au3  1  0.69956300  0.69956300  0.69956300  1
  Au  Au4  1  0.55043700  0.44956300  0.94956300  1
  Au  Au5  1  0.44956300  0.94956300  0.55043700  1
  Au  Au6  1  0.94956300  0.55043700  0.44956300  1
  Au  Au7  1  0.05043700  0.05043700  0.05043700  1
loop_
_geom_bond_atom_site_label_1
_geom_bond_atom_site_label_2
_geom_bond_distance
_geom_bond_site_symmetry_2
Nb0 Nb5 2.918837 1_655
Nb0 Nb9 2.918837 1_555
Nb0 Nb7 2.918837 1_555
Nb0 Nb10 2.918837 1_665
Nb0 Nb11 3.203587 1_565
Nb0 Nb6 3.203587 1_565
Nb1 Nb11 2.918837 1_555
Nb1 Nb4 2.918837 1_555
Nb1 Nb8 2.918837 1_545
Nb1 Nb6 2.918837 1_556
Nb1 Nb5 3.203587 1_645
Nb1 Nb9 3.203587 1_546
Nb2 Nb4 2.918837 1_454
Nb2 Nb9 2.918837 1_455
Nb2 Nb6 2.918837 1_555
Nb2 Nb7 3.203587 1_555
Nb2 Nb8 3.203587 1_554
Nb3 Nb7 2.918837 1_555
Nb3 Nb8 2.918837 1_555
Nb3 Nb5 2.918837 1_555
Nb3 Nb4 3.203587 1_455
Nb4 Nb9 2.918837 1_556
Nb5 Nb8 2.918837 1_555
Nb5 Nb9 3.203587 1_456
Nb6 Nb8 2.918837 1_544
Nb7 Nb9 2.918837 1_555
Nb7 Nb8 3.203587 1_554
Nb10 Nb6 2.918837 1_555
Nb10 Nb2 2.918837 1_555
Nb10 Nb5 2.918837 1_545
Nb10 Nb3 3.203587 1_555
Nb10 Nb4 3.203587 1_455
Nb11 Nb4 2.918837 1_555
Nb11 Nb7 2.918837 1_555
Nb11 Nb3 2.918837 1_555
Nb11 Nb6 3.203587 1_555
Au0 Au5 2.738430 1_555
Au0 Au7 2.738430 1_565
Au0 Au6 2.738430 1_455
Au0 Nb2 2.850205 1_555
Au0 Nb8 2.850205 1_554
Au0 Nb7 2.850205 1_555
Au0 Nb6 2.992314 1_565
Au0 Nb9 2.992314 1_455
Au0 Nb3 2.992314 1_555
Au0 Nb0 3.016366 1_455
Au0 Nb5 3.016366 1_555
Au0 Nb10 3.016366 1_565
Au1 Au4 2.738430 1_555
Au1 Au7 2.738430 1_556
Au1 Au5 2.738430 1_545
Au1 Nb10 2.850205 1_555
Au1 Nb4 2.850205 1_455
Au1 Nb3 2.850205 1_555
Au1 Nb11 2.992314 1_555
Au1 Nb2 2.992314 1_556
Au1 Nb5 2.992314 1_545
Au1 Nb1 3.016366 1_555
Au1 Nb8 3.016366 1_545
Au1 Nb6 3.016366 1_556
Au2 Au6 2.738430 1_555
Au2 Au7 2.738430 1_655
Au2 Au4 2.738430 1_554
Au2 Nb6 2.850205 1_555
Au2 Nb0 2.850205 1_545
Au2 Nb11 2.850205 1_555
Au2 Nb7 2.992314 1_555
Au2 Nb1 2.992314 1_554
Au2 Nb10 2.992314 1_655
Au2 Nb9 3.016366 1_555
Au2 Nb4 3.016366 1_554
Au2 Nb2 3.016366 1_655
Au3 Au5 2.738430 1_555
Au3 Au6 2.738430 1_555
Au3 Au4 2.738430 1_555
Au3 Nb9 2.850205 1_556
Au3 Nb1 2.850205 1_565
Au3 Nb5 2.850205 1_655
Au3 Nb8 2.992314 1_555
Au3 Nb0 2.992314 1_555
Au3 Nb4 2.992314 1_555
Au3 Nb7 3.016366 1_555
Au3 Nb11 3.016366 1_555
Au3 Nb3 3.016366 1_555
Au4 Nb8 2.850205 1_555
Au4 Nb2 2.850205 1_556
Au4 Nb7 2.850205 1_556
Au4 Nb3 2.992314 1_555
Au4 Nb9 2.992314 1_556
Au4 Nb6 2.992314 1_556
Au4 Nb11 3.016366 1_555
Au4 Nb4 3.016366 1_555
Au4 Nb1 3.016366 1_555
Au5 Nb0 2.850205 1_555
Au5 Nb6 2.850205 1_565
Au5 Nb11 2.850205 1_565
Au5 Nb7 2.992314 1_555
Au5 Nb1 2.992314 1_565
Au5 Nb10 2.992314 1_565
Au5 Nb3 3.016366 1_555
Au5 Nb8 3.016366 1_555
Au5 Nb5 3.016366 1_555
Au6 Nb4 2.850205 1_555
Au6 Nb10 2.850205 1_655
Au6 Nb3 2.850205 1_655
Au6 Nb11 2.992314 1_555
Au6 Nb5 2.992314 1_655
Au6 Nb2 2.992314 1_655
Au6 Nb7 3.016366 1_555
Au6 Nb0 3.016366 1_555
Au6 Nb9 3.016366 1_555
Au7 Nb5 2.850205 1_544
Au7 Nb1 2.850205 1_454
Au7 Nb9 2.850205 1_445
Au7 Nb0 2.992314 1_445
Au7 Nb8 2.992314 1_544
Au7 Nb4 2.992314 1_454
Au7 Nb10 3.016366 1_555
Au7 Nb2 3.016366 1_555
Au7 Nb6 3.016366 1_555
