# generated using pymatgen
data_U3CrSb5
_symmetry_space_group_name_H-M   'P 1'
_cell_length_a   6.12582400
_cell_length_b   9.06689353
_cell_length_c   9.06350853
_cell_angle_alpha   120.01235760
_cell_angle_beta   90.00000000
_cell_angle_gamma   90.00000000
_symmetry_Int_Tables_number   1
_chemical_formula_structural   U3CrSb5
_chemical_formula_sum   'U6 Cr2 Sb10'
_cell_volume   435.90908204
_cell_formula_units_Z   2
loop_
 _symmetry_equiv_pos_site_id
 _symmetry_equiv_pos_as_xyz
  1  'x, y, z'
loop_
 _atom_site_type_symbol
 _atom_site_label
 _atom_site_symmetry_multiplicity
 _atom_site_fract_x
 _atom_site_fract_y
 _atom_site_fract_z
 _atom_site_occupancy
  U  U0  1  0.74999400  0.61111300  0.00000000  1
  U  U1  1  0.75000500  0.38882800  0.38862400  1
  U  U2  1  0.75000500  0.00020400  0.61137600  1
  U  U3  1  0.24999400  0.38888700  0.00000000  1
  U  U4  1  0.25000500  0.61117200  0.61137600  1
  U  U5  1  0.25000500  0.99979600  0.38862400  1
  Cr  Cr0  1  0.49998100  0.99997800  0.00000000  1
  Cr  Cr1  1  0.99998100  0.00002200  0.00000000  1
  Sb  Sb0  1  0.75000600  0.25710200  0.00000000  1
  Sb  Sb1  1  0.75000200  0.74282700  0.74311100  1
  Sb  Sb2  1  0.75000200  0.99971600  0.25688900  1
  Sb  Sb3  1  0.25000600  0.74289800  0.00000000  1
  Sb  Sb4  1  0.25000200  0.25717300  0.25688900  1
  Sb  Sb5  1  0.25000200  0.00028400  0.74311100  1
  Sb  Sb6  1  0.50000300  0.33332900  0.66665300  1
  Sb  Sb7  1  0.50000300  0.66667500  0.33334700  1
  Sb  Sb8  1  0.00000300  0.66667100  0.33334700  1
  Sb  Sb9  1  0.00000300  0.33332500  0.66665300  1
loop_
_geom_bond_atom_site_label_1
_geom_bond_atom_site_label_2
_geom_bond_distance
_geom_bond_site_symmetry_2
U0 U3 3.666231 1_555
U0 U3 3.666231 1_655
U1 U4 3.667423 1_555
U1 U4 3.667423 1_655
U2 U5 3.667423 1_545
U2 U5 3.667423 1_645
Cr0 Sb1 2.787892 1_554
Cr0 Sb2 2.787892 1_555
Cr0 Sb4 2.787918 1_565
Cr0 Sb5 2.787918 1_564
Cr0 Sb3 2.788918 1_555
Cr0 Sb0 2.789419 1_565
Cr0 Cr1 3.062912 1_465
Cr0 Cr1 3.062912 1_565
Cr1 Sb4 2.787892 1_655
Cr1 Sb5 2.787892 1_654
Cr1 Sb1 2.787918 1_544
Cr1 Sb2 2.787918 1_545
Cr1 Sb0 2.788918 1_555
Cr1 Sb3 2.789419 1_645
Sb0 U2 3.102358 1_554
Sb0 U1 3.102358 1_555
Sb0 U0 3.209780 1_555
Sb0 U3 3.287662 1_655
Sb0 U3 3.287799 1_555
Sb0 Sb8 3.746987 1_655
Sb0 Sb9 3.746993 1_654
Sb0 Sb7 3.747024 1_555
Sb0 Sb6 3.747029 1_554
Sb1 U0 3.103040 1_556
Sb1 U2 3.107837 1_565
Sb1 U1 3.210685 1_555
Sb1 U4 3.287255 1_555
Sb1 U4 3.287289 1_655
Sb1 Sb6 3.746611 1_555
Sb1 Sb9 3.746649 1_655
Sb1 Sb8 3.748308 1_655
Sb1 Sb7 3.748314 1_555
Sb2 U0 3.103039 1_555
Sb2 U1 3.107837 1_565
Sb2 U2 3.210685 1_565
Sb2 U5 3.287255 1_555
Sb2 U5 3.287289 1_655
Sb2 Sb7 3.746619 1_555
Sb2 Sb8 3.746657 1_655
Sb2 Sb9 3.748311 1_665
Sb2 Sb6 3.748317 1_565
Sb3 U5 3.102358 1_555
Sb3 U4 3.102358 1_554
Sb3 U3 3.209780 1_555
Sb3 U0 3.287662 1_555
Sb3 U0 3.287799 1_455
Sb3 Sb6 3.746987 1_554
Sb3 Sb7 3.746993 1_555
Sb3 Sb9 3.747024 1_554
Sb3 Sb8 3.747029 1_555
Sb4 U3 3.103040 1_555
Sb4 U5 3.107837 1_545
Sb4 U4 3.210685 1_555
Sb4 U1 3.287255 1_455
Sb4 U1 3.287289 1_555
Sb4 Sb8 3.746611 1_555
Sb4 Sb7 3.746649 1_555
Sb4 Sb6 3.748308 1_555
Sb4 Sb9 3.748314 1_555
Sb5 U3 3.103039 1_556
Sb5 U4 3.107837 1_545
Sb5 U5 3.210685 1_545
Sb5 U2 3.287255 1_455
Sb5 U2 3.287289 1_555
Sb5 Sb9 3.746619 1_555
Sb5 Sb6 3.746657 1_555
Sb5 Sb7 3.748311 1_545
Sb5 Sb8 3.748317 1_545
Sb6 Sb9 3.062912 1_655
Sb6 Sb9 3.062912 1_555
Sb6 U0 3.194457 1_556
Sb6 U3 3.194524 1_556
Sb6 U4 3.194549 1_555
Sb6 U2 3.194600 1_555
Sb6 U1 3.196420 1_555
Sb6 U5 3.196433 1_545
Sb7 Sb8 3.062912 1_555
Sb7 Sb8 3.062912 1_655
Sb7 U0 3.194459 1_555
Sb7 U3 3.194521 1_555
Sb7 U5 3.194557 1_555
Sb7 U1 3.194592 1_555
Sb7 U2 3.196425 1_565
Sb7 U4 3.196428 1_555
Sb8 U3 3.194457 1_555
Sb8 U0 3.194524 1_455
Sb8 U1 3.194549 1_455
Sb8 U5 3.194600 1_555
Sb8 U4 3.196420 1_555
Sb8 U2 3.196433 1_465
Sb9 U3 3.194459 1_556
Sb9 U0 3.194521 1_456
Sb9 U2 3.194557 1_455
Sb9 U4 3.194592 1_555
Sb9 U5 3.196425 1_545
Sb9 U1 3.196428 1_455
