# generated using pymatgen
data_Tm(Ni2As)2
_symmetry_space_group_name_H-M   'P 1'
_cell_length_a   7.16371098
_cell_length_b   7.16371098
_cell_length_c   3.71899367
_cell_angle_alpha   90.00000000
_cell_angle_beta   90.00000000
_cell_angle_gamma   90.00000000
_symmetry_Int_Tables_number   1
_chemical_formula_structural   Tm(Ni2As)2
_chemical_formula_sum   'Tm2 Ni8 As4'
_cell_volume   190.85412502
_cell_formula_units_Z   2
loop_
 _symmetry_equiv_pos_site_id
 _symmetry_equiv_pos_as_xyz
  1  'x, y, z'
loop_
 _atom_site_type_symbol
 _atom_site_label
 _atom_site_symmetry_multiplicity
 _atom_site_fract_x
 _atom_site_fract_y
 _atom_site_fract_z
 _atom_site_occupancy
  Tm  Tm0  1  0.50000000  0.50000000  0.00000000  1
  Tm  Tm1  1  -0.00000000  0.00000000  0.50000000  1
  Ni  Ni0  1  0.58749033  0.15466767  0.50000000  1
  Ni  Ni1  1  0.41250967  0.84533233  0.50000000  1
  Ni  Ni2  1  0.08749033  0.34533233  0.00000000  1
  Ni  Ni3  1  0.91250967  0.65466767  -0.00000000  1
  Ni  Ni4  1  0.15466767  0.58749033  0.50000000  1
  Ni  Ni5  1  0.84533233  0.41250967  0.50000000  1
  Ni  Ni6  1  0.34533233  0.08749033  -0.00000000  1
  Ni  Ni7  1  0.65466767  0.91250967  0.00000000  1
  As  As0  1  0.71816448  0.71816448  0.50000000  1
  As  As1  1  0.28183552  0.28183552  0.50000000  1
  As  As2  1  0.21816448  0.78183552  -0.00000000  1
  As  As3  1  0.78183552  0.21816448  0.00000000  1
loop_
_geom_bond_atom_site_label_1
_geom_bond_atom_site_label_2
_geom_bond_distance
_geom_bond_site_symmetry_2
Ni0 Ni1 2.545957 1_545
Ni0 Ni7 2.588180 1_545
Ni0 Ni7 2.588180 1_546
Ni0 Ni6 2.588180 1_555
Ni0 Ni6 2.588180 1_556
Ni0 Ni5 2.612202 1_555
Ni0 Tm1 3.155989 1_655
Ni0 Tm0 3.157616 1_555
Ni0 Tm0 3.157616 1_556
Ni1 Ni7 2.588180 1_556
Ni1 Ni6 2.588180 1_565
Ni1 Ni7 2.588180 1_555
Ni1 Ni6 2.588180 1_566
Ni1 Ni4 2.612202 1_555
Ni1 Tm1 3.155989 1_565
Ni1 Tm0 3.157616 1_555
Ni1 Tm0 3.157616 1_556
Ni2 Ni3 2.545957 1_455
Ni2 Ni4 2.588180 1_555
Ni2 Ni5 2.588180 1_455
Ni2 Ni5 2.588180 1_454
Ni2 Ni4 2.588180 1_554
Ni2 Ni6 2.612202 1_555
Ni2 Tm0 3.155989 1_555
Ni2 Tm1 3.157616 1_554
Ni2 Tm1 3.157616 1_555
Ni3 Ni4 2.588180 1_654
Ni3 Ni4 2.588180 1_655
Ni3 Ni5 2.588180 1_554
Ni3 Ni5 2.588180 1_555
Ni3 Ni7 2.612202 1_555
Ni3 Tm0 3.155989 1_555
Ni3 Tm1 3.157616 1_664
Ni3 Tm1 3.157616 1_665
Ni4 Ni5 2.545957 1_455
Ni4 Tm1 3.155989 1_565
Ni4 Tm0 3.157616 1_555
Ni4 Tm0 3.157616 1_556
Ni5 Tm1 3.155989 1_655
Ni5 Tm0 3.157616 1_555
Ni5 Tm0 3.157616 1_556
Ni6 Ni7 2.545957 1_545
Ni6 Tm0 3.155989 1_555
Ni6 Tm1 3.157616 1_554
Ni6 Tm1 3.157616 1_555
Ni7 Tm0 3.155989 1_555
Ni7 Tm1 3.157616 1_665
Ni7 Tm1 3.157616 1_664
As0 Ni3 2.367055 1_555
As0 Ni7 2.367055 1_555
As0 Ni3 2.367055 1_556
As0 Ni7 2.367055 1_556
As0 Ni1 2.371573 1_555
As0 Ni5 2.371573 1_555
As0 Tm1 2.855281 1_665
As0 Tm0 2.888397 1_555
As0 Tm0 2.888397 1_556
As1 Ni6 2.367055 1_555
As1 Ni2 2.367055 1_555
As1 Ni6 2.367055 1_556
As1 Ni2 2.367055 1_556
As1 Ni0 2.371573 1_555
As1 Ni4 2.371573 1_555
As1 Tm1 2.855281 1_555
As1 Tm0 2.888397 1_555
As1 Tm0 2.888397 1_556
As2 Ni4 2.367055 1_554
As2 Ni4 2.367055 1_555
As2 Ni1 2.367055 1_555
As2 Ni1 2.367055 1_554
As2 Ni3 2.371573 1_455
As2 Ni6 2.371573 1_565
As2 Tm0 2.855281 1_555
As2 Tm1 2.888397 1_564
As2 Tm1 2.888397 1_565
As3 Ni0 2.367055 1_554
As3 Ni0 2.367055 1_555
As3 Ni5 2.367055 1_554
As3 Ni5 2.367055 1_555
As3 Ni7 2.371573 1_545
As3 Ni2 2.371573 1_655
As3 Tm0 2.855281 1_555
As3 Tm1 2.888397 1_654
As3 Tm1 2.888397 1_655
