# generated using pymatgen
data_Lu12In2Fe3
_symmetry_space_group_name_H-M   'P 1'
_cell_length_a   8.15749244
_cell_length_b   8.15748797
_cell_length_c   8.15752811
_cell_angle_alpha   108.89905187
_cell_angle_beta   108.89905825
_cell_angle_gamma   110.62113047
_symmetry_Int_Tables_number   1
_chemical_formula_structural   Lu12In2Fe3
_chemical_formula_sum   'Lu12 In2 Fe3'
_cell_volume   417.75470690
_cell_formula_units_Z   1
loop_
 _symmetry_equiv_pos_site_id
 _symmetry_equiv_pos_as_xyz
  1  'x, y, z'
loop_
 _atom_site_type_symbol
 _atom_site_label
 _atom_site_symmetry_multiplicity
 _atom_site_fract_x
 _atom_site_fract_y
 _atom_site_fract_z
 _atom_site_occupancy
  Lu  Lu0  1  0.30954223  0.30954045  0.61908235  1
  Lu  Lu1  1  0.69046410  0.69046267  0.38092777  1
  Lu  Lu2  1  0.69046304  0.30953880  0.00000322  1
  Lu  Lu3  1  0.30954133  0.69046267  0.00000358  1
  Lu  Lu4  1  0.18899951  0.42758507  0.23858637  1
  Lu  Lu5  1  0.81100271  0.57241359  0.76141526  1
  Lu  Lu6  1  0.18899859  0.95041137  0.76141587  1
  Lu  Lu7  1  0.95041191  0.18899897  0.76141400  1
  Lu  Lu8  1  0.81100180  0.04958648  0.23858620  1
  Lu  Lu9  1  0.04958748  0.81100024  0.23858487  1
  Lu  Lu10  1  0.42758369  0.18899677  0.23858514  1
  Lu  Lu11  1  0.57241401  0.81099924  0.76141482  1
  In  In0  1  -0.00000436  0.50001227  0.50000210  1
  In  In1  1  0.49999662  0.00000737  0.50000266  1
  Fe  Fe0  1  0.37697047  0.37697126  0.00000868  1
  Fe  Fe1  1  0.62304014  0.62303999  0.00000331  1
  Fe  Fe2  1  -0.00001328  -0.00002720  -0.00003819  1
loop_
_geom_bond_atom_site_label_1
_geom_bond_atom_site_label_2
_geom_bond_distance
_geom_bond_site_symmetry_2
Lu0 Lu11 3.436780 1_555
Lu0 Lu5 3.436794 1_555
Lu0 Lu7 3.436796 1_455
Lu0 Lu6 3.436798 1_545
Lu0 Lu10 3.486313 1_555
Lu0 Lu4 3.486320 1_555
Lu0 Lu8 3.486337 1_455
Lu0 Lu9 3.486338 1_545
Lu0 Lu2 3.613376 1_556
Lu0 Lu3 3.613380 1_556
Lu1 Lu8 3.436803 1_565
Lu1 Lu9 3.436809 1_655
Lu1 Lu4 3.436809 1_555
Lu1 Lu10 3.436816 1_555
Lu1 Lu5 3.486279 1_555
Lu1 Lu11 3.486280 1_555
Lu1 Lu6 3.486288 1_655
Lu1 Lu7 3.486293 1_565
Lu1 Lu3 3.613393 1_555
Lu1 Lu2 3.613395 1_555
Lu2 Lu5 3.436796 1_554
Lu2 Lu9 3.436806 1_655
Lu2 Lu6 3.436826 1_544
Lu2 Lu8 3.486269 1_555
Lu2 Lu7 3.486281 1_554
Lu2 Lu4 3.486285 1_655
Lu3 Lu4 3.436780 1_555
Lu3 Lu8 3.436799 1_565
Lu3 Lu7 3.436823 1_454
Lu3 Lu9 3.486269 1_555
Lu3 Lu6 3.486278 1_554
Lu3 Lu5 3.486297 1_454
Lu4 Lu7 3.200665 1_454
Lu4 Lu8 3.509829 1_455
Lu4 Lu9 3.685288 1_555
Lu5 Lu9 3.200647 1_656
Lu5 Lu6 3.509815 1_655
Lu5 Lu7 3.685265 1_555
Lu6 Lu7 3.200641 1_465
Lu6 Lu9 3.685350 1_555
Lu7 Lu8 3.685325 1_555
Lu8 Lu9 3.200625 1_645
Lu10 Lu4 3.200629 1_555
Lu10 Lu6 3.200645 1_544
Lu10 Lu2 3.436786 1_555
Lu10 Lu3 3.486275 1_545
Lu10 Lu9 3.509812 1_545
Lu10 Lu8 3.685300 1_555
Lu10 Lu5 3.685355 1_555
Lu11 Lu5 3.200641 1_555
Lu11 Lu8 3.200659 1_566
Lu11 Lu3 3.436784 1_556
Lu11 Lu2 3.486302 1_566
Lu11 Lu7 3.509840 1_565
Lu11 Lu6 3.685291 1_555
Lu11 Lu4 3.685337 1_555
In0 Lu6 3.037811 1_555
In0 Lu5 3.037832 1_455
In0 Lu4 3.037952 1_555
In0 Lu8 3.037999 1_455
In0 Lu1 3.447420 1_455
In0 Lu2 3.447543 1_455
In0 Lu3 3.447617 1_556
In0 Lu0 3.447668 1_555
In0 Lu9 3.806259 1_555
In0 Lu10 3.806327 1_455
In0 Lu11 3.806359 1_555
In0 Lu7 3.806388 1_455
In1 Lu10 3.037851 1_555
In1 Lu9 3.037878 1_545
In1 Lu7 3.037929 1_555
In1 Lu11 3.037944 1_545
In1 Lu0 3.447465 1_555
In1 Lu2 3.447563 1_556
In1 Lu3 3.447591 1_545
In1 Lu1 3.447618 1_545
In1 Lu5 3.806285 1_555
In1 Lu6 3.806302 1_545
In1 Lu8 3.806364 1_555
In1 Lu4 3.806386 1_545
Fe0 Fe1 2.284854 1_555
Fe0 Lu3 2.798788 1_555
Fe0 Lu1 2.798812 1_555
Fe0 Lu2 2.798813 1_555
Fe0 Lu0 2.798844 1_554
Fe0 Lu4 2.857974 1_555
Fe0 Lu10 2.857988 1_555
Fe0 Lu7 2.858062 1_454
Fe0 Lu6 2.858068 1_544
Fe1 Lu3 2.798812 1_555
Fe1 Lu2 2.798830 1_555
Fe1 Lu0 2.798843 1_554
Fe1 Lu1 2.798853 1_555
Fe1 Lu11 2.857979 1_554
Fe1 Lu8 2.857979 1_565
Fe1 Lu9 2.857987 1_655
Fe1 Lu5 2.857999 1_554
Fe2 Lu6 2.863667 1_544
Fe2 Lu5 2.863690 1_444
Fe2 Lu7 2.863785 1_454
Fe2 Lu11 2.863790 1_444
Fe2 Lu9 2.863951 1_545
Fe2 Lu10 2.863974 1_555
Fe2 Lu8 2.864054 1_455
Fe2 Lu4 2.864084 1_555
