# generated using pymatgen
data_Sr3LaTaAl3O12
_symmetry_space_group_name_H-M   'P 1'
_cell_length_a   7.75672916
_cell_length_b   7.75672916
_cell_length_c   3.91820600
_cell_angle_alpha   90.00000000
_cell_angle_beta   90.00000000
_cell_angle_gamma   90.22193000
_symmetry_Int_Tables_number   1
_chemical_formula_structural   Sr3LaTaAl3O12
_chemical_formula_sum   'Sr3 La1 Ta1 Al3 O12'
_cell_volume   235.74433324
_cell_formula_units_Z   1
loop_
 _symmetry_equiv_pos_site_id
 _symmetry_equiv_pos_as_xyz
  1  'x, y, z'
loop_
 _atom_site_type_symbol
 _atom_site_label
 _atom_site_symmetry_multiplicity
 _atom_site_fract_x
 _atom_site_fract_y
 _atom_site_fract_z
 _atom_site_occupancy
  Sr  Sr0  1  0.73659600  0.26340400  0.00000000  1
  Sr  Sr1  1  0.26165000  0.26094300  0.00000000  1
  Sr  Sr2  1  0.73905700  0.73835000  0.00000000  1
  La  La0  1  0.26531500  0.73468500  0.00000000  1
  Ta  Ta0  1  0.99751400  0.00248600  0.50000000  1
  Al  Al0  1  0.49977400  0.00233900  0.50000000  1
  Al  Al1  1  0.99766100  0.50022600  0.50000000  1
  Al  Al2  1  0.50277900  0.49722100  0.50000000  1
  O  O0  1  0.49563000  0.99506800  0.00000000  1
  O  O1  1  0.00281200  0.99718800  0.00000000  1
  O  O2  1  0.49510100  0.50489900  0.00000000  1
  O  O3  1  0.00493200  0.50437000  0.00000000  1
  O  O4  1  0.00153400  0.25537800  0.50000000  1
  O  O5  1  0.49890400  0.25066400  0.50000000  1
  O  O6  1  0.00532900  0.74648500  0.50000000  1
  O  O7  1  0.49213900  0.74970400  0.50000000  1
  O  O8  1  0.74462200  0.99846600  0.50000000  1
  O  O9  1  0.25351500  0.99467100  0.50000000  1
  O  O10  1  0.74933600  0.50109600  0.50000000  1
  O  O11  1  0.25029600  0.50786100  0.50000000  1
loop_
_geom_bond_atom_site_label_1
_geom_bond_atom_site_label_2
_geom_bond_distance
_geom_bond_site_symmetry_2
La0 O2 2.525554 1_555
La0 O11 2.635451 1_555
La0 O11 2.635451 1_554
La0 O7 2.635451 1_555
La0 O7 2.635451 1_554
La0 O3 2.691258 1_555
La0 O0 2.691258 1_555
La0 O6 2.813314 1_555
La0 O6 2.813314 1_554
La0 O9 2.813314 1_555
La0 O9 2.813314 1_554
La0 O1 2.885143 1_555
Al0 O8 1.899574 1_545
Al0 O9 1.910860 1_545
Al0 O5 1.926228 1_555
Al0 O0 1.960175 1_546
Al0 O0 1.960175 1_545
Al0 O7 1.960287 1_545
Al1 O4 1.899574 1_655
Al1 O6 1.910860 1_655
Al1 O10 1.926228 1_555
Al1 O3 1.960175 1_655
Al1 O3 1.960175 1_656
Al1 O11 1.960287 1_655
Al2 O5 1.912596 1_555
Al2 O10 1.912596 1_555
Al2 O7 1.960500 1_555
Al2 O11 1.960500 1_555
Al2 O2 1.960920 1_556
Al2 O2 1.960920 1_555
O0 Sr2 2.749484 1_555
O0 Sr1 2.752471 1_565
O0 Sr0 2.792077 1_565
O1 Ta0 1.959968 1_465
O1 Ta0 1.959968 1_464
O1 Sr2 2.860908 1_455
O1 Sr1 2.860908 1_565
O1 Sr0 2.925952 1_465
O2 Sr1 2.614060 1_555
O2 Sr2 2.614060 1_555
O2 Sr0 2.654246 1_555
O3 Sr1 2.749484 1_555
O3 Sr2 2.752471 1_455
O3 Sr0 2.792077 1_455
O4 Ta0 1.961742 1_455
O4 Sr1 2.812505 1_556
O4 Sr1 2.812505 1_555
O4 Sr0 2.840104 1_455
O4 Sr0 2.840104 1_456
O5 Sr1 2.689301 1_555
O5 Sr1 2.689301 1_556
O5 Sr0 2.691786 1_555
O5 Sr0 2.691786 1_556
O6 Ta0 1.986890 1_465
O6 Sr2 2.847268 1_456
O6 Sr2 2.847268 1_455
O7 O9 2.657776 1_555
O7 Sr2 2.741428 1_556
O7 Sr2 2.741428 1_555
O8 Ta0 1.961742 1_565
O8 Sr2 2.812505 1_556
O8 Sr2 2.812505 1_555
O8 Sr0 2.840104 1_566
O8 Sr0 2.840104 1_565
O9 Ta0 1.986890 1_465
O9 Sr1 2.847268 1_565
O9 Sr1 2.847268 1_566
O10 Sr2 2.689301 1_555
O10 Sr2 2.689301 1_556
O10 Sr0 2.691786 1_555
O10 Sr0 2.691786 1_556
O11 O7 2.647795 1_555
O11 O6 2.657776 1_555
O11 Sr1 2.741428 1_555
O11 Sr1 2.741428 1_556
