# generated using pymatgen
data_CaCr2(CuO4)2
_symmetry_space_group_name_H-M   'P 1'
_cell_length_a   8.67753600
_cell_length_b   6.64878900
_cell_length_c   12.34043332
_cell_angle_alpha   86.97454188
_cell_angle_beta   90.00000000
_cell_angle_gamma   90.00000000
_symmetry_Int_Tables_number   1
_chemical_formula_structural   CaCr2(CuO4)2
_chemical_formula_sum   'Ca4 Cr8 Cu8 O32'
_cell_volume   710.99023301
_cell_formula_units_Z   4
loop_
 _symmetry_equiv_pos_site_id
 _symmetry_equiv_pos_as_xyz
  1  'x, y, z'
loop_
 _atom_site_type_symbol
 _atom_site_label
 _atom_site_symmetry_multiplicity
 _atom_site_fract_x
 _atom_site_fract_y
 _atom_site_fract_z
 _atom_site_occupancy
  Ca  Ca0  1  0.16748600  0.12816100  0.04348500  1
  Ca  Ca1  1  0.83251400  0.87183900  0.95651500  1
  Ca  Ca2  1  0.66748600  0.87183900  0.45651500  1
  Ca  Ca3  1  0.33251400  0.12816100  0.54348500  1
  Cr  Cr0  1  0.46198700  0.09961900  0.84537000  1
  Cr  Cr1  1  0.03801300  0.09961900  0.34537000  1
  Cr  Cr2  1  0.08492700  0.60608700  0.13636400  1
  Cr  Cr3  1  0.96198700  0.90038100  0.65463000  1
  Cr  Cr4  1  0.91507300  0.39391300  0.86363600  1
  Cr  Cr5  1  0.58492700  0.39391300  0.36363600  1
  Cr  Cr6  1  0.41507300  0.60608700  0.63636400  1
  Cr  Cr7  1  0.53801300  0.90038100  0.15463000  1
  Cu  Cu0  1  0.18488600  0.76133300  0.85711600  1
  Cu  Cu1  1  0.04949700  0.39203200  0.62869300  1
  Cu  Cu2  1  0.95050300  0.60796800  0.37130700  1
  Cu  Cu3  1  0.81511400  0.23866700  0.14288400  1
  Cu  Cu4  1  0.31511400  0.76133300  0.35711600  1
  Cu  Cu5  1  0.45050300  0.39203200  0.12869300  1
  Cu  Cu6  1  0.68488600  0.23866700  0.64288400  1
  Cu  Cu7  1  0.54949700  0.60796800  0.87130700  1
  O  O0  1  0.21980600  0.02398200  0.38141900  1
  O  O1  1  0.00094400  0.68012000  0.59963900  1
  O  O2  1  0.58063400  0.19921400  0.46130200  1
  O  O3  1  0.08063400  0.80078600  0.03869800  1
  O  O4  1  0.28019400  0.02398200  0.88141900  1
  O  O5  1  0.78019400  0.97601800  0.61858100  1
  O  O6  1  0.08580600  0.08827700  0.61315500  1
  O  O7  1  0.90880400  0.50339000  0.13527200  1
  O  O8  1  0.59119600  0.50339000  0.63527200  1
  O  O9  1  0.87576100  0.32030600  0.73663600  1
  O  O10  1  0.37576100  0.67969400  0.76336400  1
  O  O11  1  0.09119600  0.49661000  0.86472800  1
  O  O12  1  0.91419400  0.91172300  0.38684500  1
  O  O13  1  0.52315900  0.87097800  0.29081100  1
  O  O14  1  0.27634200  0.44141900  0.60133300  1
  O  O15  1  0.22365800  0.44141900  0.10133300  1
  O  O16  1  0.02315900  0.12902200  0.20918900  1
  O  O17  1  0.40880400  0.49661000  0.36472800  1
  O  O18  1  0.47684100  0.12902200  0.70918900  1
  O  O19  1  0.41936600  0.80078600  0.53869800  1
  O  O20  1  0.49905600  0.68012000  0.09963900  1
  O  O21  1  0.12423900  0.67969400  0.26336400  1
  O  O22  1  0.71980600  0.97601800  0.11858100  1
  O  O23  1  0.41419400  0.08827700  0.11315500  1
  O  O24  1  0.91936600  0.19921400  0.96130200  1
  O  O25  1  0.77634200  0.55858100  0.89866700  1
  O  O26  1  0.99905600  0.31988000  0.40036100  1
  O  O27  1  0.50094400  0.31988000  0.90036100  1
  O  O28  1  0.58580600  0.91172300  0.88684500  1
  O  O29  1  0.72365800  0.55858100  0.39866700  1
  O  O30  1  0.62423900  0.32030600  0.23663600  1
  O  O31  1  0.97684100  0.87097800  0.79081100  1
loop_
_geom_bond_atom_site_label_1
_geom_bond_atom_site_label_2
_geom_bond_distance
_geom_bond_site_symmetry_2
Ca0 O15 2.289574 1_555
Ca0 O3 2.307133 1_545
Ca0 O23 2.317010 1_555
Ca0 O4 2.362713 1_554
Ca0 O16 2.398172 1_555
Ca0 O24 2.415960 1_454
Ca1 O25 2.289574 1_555
Ca1 O24 2.307133 1_565
Ca1 O28 2.317010 1_555
Ca1 O22 2.362713 1_556
Ca1 O31 2.398172 1_555
Ca1 O3 2.415960 1_656
Ca2 O29 2.289574 1_555
Ca2 O2 2.307133 1_565
Ca2 O12 2.317010 1_555
Ca2 O5 2.362713 1_555
Ca2 O13 2.398172 1_555
Ca2 O19 2.415960 1_555
Ca3 O14 2.289574 1_555
Ca3 O19 2.307133 1_545
Ca3 O6 2.317010 1_555
Ca3 O0 2.362713 1_555
Ca3 O18 2.398172 1_555
Ca3 O2 2.415960 1_555
Cr0 O27 1.680586 1_555
Cr0 O18 1.686518 1_555
Cr0 O28 1.705754 1_545
Cr0 O4 1.707555 1_555
Cr1 O26 1.680586 1_455
Cr1 O16 1.686518 1_555
Cr1 O12 1.705754 1_445
Cr1 O0 1.707555 1_555
Cr2 O7 1.674254 1_455
Cr2 O15 1.698459 1_555
Cr2 O21 1.700903 1_555
Cr2 O3 1.721936 1_555
Cr3 O1 1.680586 1_655
Cr3 O31 1.686518 1_555
Cr3 O6 1.705754 1_665
Cr3 O5 1.707555 1_555
Cr4 O11 1.674254 1_655
Cr4 O25 1.698459 1_555
Cr4 O9 1.700903 1_555
Cr4 O24 1.721936 1_555
Cr5 O17 1.674254 1_555
Cr5 O29 1.698459 1_555
Cr5 O30 1.700903 1_555
Cr5 O2 1.721936 1_555
Cr6 O8 1.674254 1_555
Cr6 O14 1.698459 1_555
Cr6 O10 1.700903 1_555
Cr6 O19 1.721936 1_555
Cr7 O20 1.680586 1_555
Cr7 O13 1.686518 1_555
Cr7 O23 1.705754 1_565
Cr7 O22 1.707555 1_555
Cu0 O11 1.936555 1_555
Cu0 O4 1.969462 1_565
Cu0 O31 2.096941 1_455
Cu0 O10 2.107806 1_555
Cu0 O3 2.443448 1_556
Cu1 O1 1.975465 1_555
Cu1 O14 2.021122 1_555
Cu1 O9 2.051249 1_455
Cu1 O6 2.062937 1_555
Cu2 O26 1.975465 1_555
Cu2 O29 2.021122 1_555
Cu2 O21 2.051249 1_655
Cu2 O12 2.062937 1_555
Cu3 O7 1.936555 1_555
Cu3 O22 1.969462 1_545
Cu3 O16 2.096941 1_655
Cu3 O30 2.107806 1_555
Cu3 O24 2.443448 1_554
Cu4 O17 1.936555 1_555
Cu4 O0 1.969462 1_565
Cu4 O13 2.096941 1_555
Cu4 O21 2.107806 1_555
Cu4 O19 2.443448 1_555
Cu5 O20 1.975465 1_555
Cu5 O15 2.021122 1_555
Cu5 O30 2.051249 1_555
Cu5 O23 2.062937 1_555
Cu6 O8 1.936555 1_555
Cu6 O5 1.969462 1_545
Cu6 O18 2.096941 1_555
Cu6 O9 2.107806 1_555
Cu6 O2 2.443448 1_555
Cu7 O27 1.975465 1_555
Cu7 O25 2.021122 1_555
Cu7 O10 2.051249 1_555
Cu7 O28 2.062937 1_555
