# generated using pymatgen
data_B3H20(CN)3
_symmetry_space_group_name_H-M   'P 1'
_cell_length_a   6.18858900
_cell_length_b   18.33284700
_cell_length_c   10.73561481
_cell_angle_alpha   90.00000000
_cell_angle_beta   102.85336548
_cell_angle_gamma   90.00000000
_symmetry_Int_Tables_number   1
_chemical_formula_structural   B3H20(CN)3
_chemical_formula_sum   'B12 H80 C12 N12'
_cell_volume   1187.48330930
_cell_formula_units_Z   4
loop_
 _symmetry_equiv_pos_site_id
 _symmetry_equiv_pos_as_xyz
  1  'x, y, z'
loop_
 _atom_site_type_symbol
 _atom_site_label
 _atom_site_symmetry_multiplicity
 _atom_site_fract_x
 _atom_site_fract_y
 _atom_site_fract_z
 _atom_site_occupancy
  B  B0  1  0.68111000  0.95110700  0.69541800  1
  B  B1  1  0.31889000  0.45110700  0.80458200  1
  B  B2  1  0.31889000  0.04889300  0.30458200  1
  B  B3  1  0.68111000  0.54889300  0.19541800  1
  B  B4  1  0.81221100  0.85364300  0.53589900  1
  B  B5  1  0.18778900  0.35364300  0.96410100  1
  B  B6  1  0.18778900  0.14635700  0.46410100  1
  B  B7  1  0.81221100  0.64635700  0.03589900  1
  B  B8  1  0.60097100  0.84707900  0.29442800  1
  B  B9  1  0.39902900  0.34707900  0.20557200  1
  B  B10  1  0.39902900  0.15292100  0.70557200  1
  B  B11  1  0.60097100  0.65292100  0.79442800  1
  H  H0  1  0.49228400  0.95266000  0.62751900  1
  H  H1  1  0.50771600  0.45266000  0.87248100  1
  H  H2  1  0.50771600  0.04734000  0.37248100  1
  H  H3  1  0.49228400  0.54734000  0.12751900  1
  H  H4  1  0.79679500  0.99926800  0.66483100  1
  H  H5  1  0.20320500  0.49926800  0.83516900  1
  H  H6  1  0.20320500  0.00073200  0.33516900  1
  H  H7  1  0.79679500  0.50073200  0.16483100  1
  H  H8  1  0.67495200  0.95611700  0.80891000  1
  H  H9  1  0.32504800  0.45611700  0.69109000  1
  H  H10  1  0.32504800  0.04388300  0.19109000  1
  H  H11  1  0.67495200  0.54388300  0.30891000  1
  H  H12  1  0.69323600  0.83529800  0.70504000  1
  H  H13  1  0.30676400  0.33529800  0.79496000  1
  H  H14  1  0.30676400  0.16470200  0.29496000  1
  H  H15  1  0.69323600  0.66470200  0.20504000  1
  H  H16  1  0.88061400  0.79115100  0.53757300  1
  H  H17  1  0.11938600  0.29115100  0.96242700  1
  H  H18  1  0.11938600  0.20884900  0.46242700  1
  H  H19  1  0.88061400  0.70884900  0.03757300  1
  H  H20  1  0.93864700  0.89753000  0.50431700  1
  H  H21  1  0.06135300  0.39753000  0.99568300  1
  H  H22  1  0.06135300  0.10247000  0.49568300  1
  H  H23  1  0.93864700  0.60247000  0.00431700  1
  H  H24  1  0.51154500  0.90785500  0.44687000  1
  H  H25  1  0.48845500  0.40785500  0.05313000  1
  H  H26  1  0.48845500  0.09214500  0.55313000  1
  H  H27  1  0.51154500  0.59214500  0.94687000  1
  H  H28  1  0.70886800  0.79253800  0.28551400  1
  H  H29  1  0.29113200  0.29253800  0.21448600  1
  H  H30  1  0.29113200  0.20746200  0.71448600  1
  H  H31  1  0.70886800  0.70746200  0.78551400  1
  H  H32  1  0.41766300  0.84671000  0.22374500  1
  H  H33  1  0.58233700  0.34671000  0.27625500  1
  H  H34  1  0.58233700  0.15329000  0.77625500  1
  H  H35  1  0.41766300  0.65329000  0.72374500  1
  H  H36  1  0.87967000  0.92183700  0.31995300  1
  H  H37  1  0.12033000  0.42183700  0.18004700  1
  H  H38  1  0.12033000  0.07816300  0.68004700  1
  H  H39  1  0.87967000  0.57816300  0.81995300  1
  H  H40  1  0.64098700  0.96246300  0.26443300  1
  H  H41  1  0.35901300  0.46246300  0.23556700  1
  H  H42  1  0.35901300  0.03753700  0.73556700  1
  H  H43  1  0.64098700  0.53753700  0.76443300  1
  H  H44  1  0.12339700  0.90726700  0.73538100  1
  H  H45  1  0.87660300  0.40726700  0.76461900  1
  H  H46  1  0.87660300  0.09273300  0.26461900  1
  H  H47  1  0.12339700  0.59273300  0.23538100  1
  H  H48  1  0.00188100  0.87564000  0.86201900  1
  H  H49  1  0.99811900  0.37564000  0.63798100  1
  H  H50  1  0.99811900  0.12436000  0.13798100  1
  H  H51  1  0.00188100  0.62436000  0.36201900  1
  H  H52  1  0.07927200  0.81193400  0.75211600  1
  H  H53  1  0.92072800  0.31193400  0.74788400  1
  H  H54  1  0.92072800  0.18806600  0.24788400  1
  H  H55  1  0.07927200  0.68806600  0.25211500  1
  H  H56  1  0.38736300  0.80952400  0.55913400  1
  H  H57  1  0.61263700  0.30952400  0.94086600  1
  H  H58  1  0.61263700  0.19047600  0.44086600  1
  H  H59  1  0.38736300  0.69047600  0.05913400  1
  H  H60  1  0.48850600  0.74806000  0.45565000  1
  H  H61  1  0.51149400  0.24806000  0.04435000  1
  H  H62  1  0.51149400  0.25194000  0.54435000  1
  H  H63  1  0.48850600  0.75194000  0.95565000  1
  H  H64  1  0.26199100  0.80800900  0.39288100  1
  H  H65  1  0.73800900  0.30800900  0.10711900  1
  H  H66  1  0.73800900  0.19199100  0.60711900  1
  H  H67  1  0.26199100  0.69199100  0.89288100  1
  H  H68  1  0.86352800  0.95776500  0.10360000  1
  H  H69  1  0.13647200  0.45776500  0.39640000  1
  H  H70  1  0.13647200  0.04223500  0.89640000  1
  H  H71  1  0.86352800  0.54223500  0.60360000  1
  H  H72  1  0.60593600  0.90957300  0.05604900  1
  H  H73  1  0.39406400  0.40957300  0.44395100  1
  H  H74  1  0.39406400  0.09042700  0.94395100  1
  H  H75  1  0.60593600  0.59042700  0.55604900  1
  H  H76  1  0.85528000  0.86017300  0.11383400  1
  H  H77  1  0.14472000  0.36017300  0.38616600  1
  H  H78  1  0.14472000  0.13982700  0.88616600  1
  H  H79  1  0.85528000  0.63982700  0.61383400  1
  C  C0  1  0.01242400  0.86652100  0.76255500  1
  C  C1  1  0.98757600  0.36652100  0.73744500  1
  C  C2  1  0.98757600  0.13347900  0.23744500  1
  C  C3  1  0.01242400  0.63347900  0.26255500  1
  C  C4  1  0.41906700  0.80250100  0.46345400  1
  C  C5  1  0.58093300  0.30250100  0.03654600  1
  C  C6  1  0.58093300  0.19749900  0.53654600  1
  C  C7  1  0.41906700  0.69749900  0.96345400  1
  C  C8  1  0.76682400  0.91096300  0.12371000  1
  C  C9  1  0.23317600  0.41096300  0.37629000  1
  C  C10  1  0.23317600  0.08903700  0.87629000  1
  C  C11  1  0.76682400  0.58903700  0.62371000  1
  N  N0  1  0.79049900  0.87432200  0.67623000  1
  N  N1  1  0.20950100  0.37432200  0.82377000  1
  N  N2  1  0.20950100  0.12567800  0.32377000  1
  N  N3  1  0.79049900  0.62567800  0.17623000  1
  N  N4  1  0.58000100  0.85736000  0.43749200  1
  N  N5  1  0.41999900  0.35736000  0.06250800  1
  N  N6  1  0.41999900  0.14264000  0.56250800  1
  N  N7  1  0.58000100  0.64264000  0.93749200  1
  N  N8  1  0.73042200  0.91571100  0.25581000  1
  N  N9  1  0.26957800  0.41571100  0.24419000  1
  N  N10  1  0.26957800  0.08428900  0.74419000  1
  N  N11  1  0.73042200  0.58428900  0.75581000  1
loop_
_geom_bond_atom_site_label_1
_geom_bond_atom_site_label_2
_geom_bond_distance
_geom_bond_site_symmetry_2
B0 H4 1.226595 1_555
B0 H8 1.230878 1_555
B0 H0 1.232366 1_555
B0 N0 1.595099 1_555
B1 H5 1.226595 1_555
B1 H9 1.230878 1_555
B1 H1 1.232366 1_555
B1 N1 1.595099 1_555
B2 H6 1.226595 1_555
B2 H10 1.230878 1_555
B2 H2 1.232366 1_555
B2 N2 1.595099 1_555
B3 H7 1.226595 1_555
B3 H11 1.230878 1_555
B3 H3 1.232366 1_555
B3 N3 1.595099 1_555
B4 H16 1.220108 1_555
B4 H20 1.221709 1_555
B4 N4 1.584427 1_555
B4 N0 1.587923 1_555
B5 H17 1.220108 1_555
B5 H21 1.221709 1_555
B5 N5 1.584427 1_556
B5 N1 1.587923 1_555
B6 H18 1.220108 1_555
B6 H22 1.221709 1_555
B6 N6 1.584427 1_555
B6 N2 1.587923 1_555
B7 H19 1.220108 1_555
B7 H23 1.221709 1_555
B7 N7 1.584427 1_554
B7 N3 1.587923 1_555
B8 H32 1.216459 1_555
B8 H28 1.217881 1_555
B8 N4 1.581130 1_555
B8 N8 1.595169 1_555
B9 H33 1.216459 1_555
B9 H29 1.217881 1_555
B9 N5 1.581130 1_555
B9 N9 1.595169 1_555
B10 H34 1.216459 1_555
B10 H30 1.217881 1_555
B10 N6 1.581130 1_555
B10 N10 1.595169 1_555
B11 H35 1.216459 1_555
B11 H31 1.217881 1_555
B11 N7 1.581130 1_555
B11 N11 1.595169 1_555
H12 N0 1.025976 1_555
H13 N1 1.025976 1_555
H14 N2 1.025976 1_555
H15 N3 1.025976 1_555
H24 N4 1.032250 1_555
H25 N5 1.032250 1_555
H26 N6 1.032250 1_555
H27 N7 1.032250 1_555
H36 N8 1.028069 1_555
H37 N9 1.028069 1_555
H38 N10 1.028069 1_555
H39 N11 1.028069 1_555
H40 N8 1.035528 1_555
H41 N9 1.035528 1_555
H42 N10 1.035528 1_555
H43 N11 1.035528 1_555
C0 H48 1.097003 1_555
C0 H44 1.097218 1_555
C0 H52 1.098090 1_555
C0 N0 1.482994 1_455
C1 H49 1.097003 1_555
C1 H45 1.097218 1_555
C1 H53 1.098090 1_555
C1 N1 1.482994 1_655
C2 H50 1.097003 1_555
C2 H46 1.097218 1_555
C2 H54 1.098090 1_555
C2 N2 1.482994 1_655
C3 H51 1.097003 1_555
C3 H47 1.097218 1_555
C3 H55 1.098092 1_555
C3 N3 1.482994 1_455
C4 H56 1.095374 1_555
C4 H64 1.096123 1_555
C4 H60 1.097190 1_555
C4 N4 1.484786 1_555
C5 H57 1.095374 1_554
C5 H65 1.096123 1_555
C5 H61 1.097190 1_555
C5 N5 1.484786 1_555
C6 H58 1.095374 1_555
C6 H66 1.096123 1_555
C6 H62 1.097190 1_555
C6 N6 1.484786 1_555
C7 H59 1.095374 1_556
C7 H67 1.096123 1_555
C7 H63 1.097190 1_555
C7 N7 1.484786 1_555
C8 H72 1.094468 1_555
C8 H68 1.094732 1_555
C8 H76 1.097144 1_555
C8 N8 1.487174 1_555
C9 H73 1.094468 1_555
C9 H69 1.094732 1_555
C9 H77 1.097144 1_555
C9 N9 1.487174 1_555
C10 H74 1.094468 1_555
C10 H70 1.094732 1_555
C10 H78 1.097144 1_555
C10 N10 1.487174 1_555
C11 H75 1.094468 1_555
C11 H71 1.094732 1_555
C11 H79 1.097144 1_555
C11 N11 1.487174 1_555
