# generated using pymatgen
data_LaPr3Mn4O12
_symmetry_space_group_name_H-M   'P 1'
_cell_length_a   7.93024600
_cell_length_b   5.54034300
_cell_length_c   5.64868719
_cell_angle_alpha   89.93024518
_cell_angle_beta   90.00000000
_cell_angle_gamma   90.00000000
_symmetry_Int_Tables_number   1
_chemical_formula_structural   LaPr3Mn4O12
_chemical_formula_sum   'La1 Pr3 Mn4 O12'
_cell_volume   248.18213438
_cell_formula_units_Z   1
loop_
 _symmetry_equiv_pos_site_id
 _symmetry_equiv_pos_as_xyz
  1  'x, y, z'
loop_
 _atom_site_type_symbol
 _atom_site_label
 _atom_site_symmetry_multiplicity
 _atom_site_fract_x
 _atom_site_fract_y
 _atom_site_fract_z
 _atom_site_occupancy
  La  La0  1  0.50000000  0.48961600  0.53981300  1
  Pr  Pr0  1  0.50000000  0.01260700  0.04412800  1
  Pr  Pr1  1  0.00000000  0.51274800  0.45460000  1
  Pr  Pr2  1  0.00000000  0.98807200  0.95526000  1
  Mn  Mn0  1  0.24939800  0.00015700  0.50036300  1
  Mn  Mn1  1  0.75038300  0.49973600  0.99952100  1
  Mn  Mn2  1  0.75060200  0.00015700  0.50036300  1
  Mn  Mn3  1  0.24961700  0.49973600  0.99952100  1
  O  O0  1  0.29543300  0.21488900  0.79255100  1
  O  O1  1  0.70459900  0.28226400  0.28926300  1
  O  O2  1  0.79680900  0.78202100  0.21024800  1
  O  O3  1  0.20233900  0.71671400  0.70991000  1
  O  O4  1  0.20319100  0.78202100  0.21024800  1
  O  O5  1  0.79766100  0.71671400  0.70991000  1
  O  O6  1  0.70456700  0.21488900  0.79255100  1
  O  O7  1  0.29540100  0.28226400  0.28926300  1
  O  O8  1  0.50000000  0.58691300  0.97900400  1
  O  O9  1  0.50000000  0.91752000  0.47688800  1
  O  O10  1  0.00000000  0.41369800  0.02315300  1
  O  O11  1  0.00000000  0.08726400  0.52344200  1
loop_
_geom_bond_atom_site_label_1
_geom_bond_atom_site_label_2
_geom_bond_distance
_geom_bond_site_symmetry_2
La0 O9 2.396805 1_555
La0 O1 2.441165 1_555
La0 O7 2.441165 1_555
La0 O8 2.539384 1_555
La0 O6 2.642223 1_555
La0 O0 2.642223 1_555
La0 O5 2.842758 1_555
La0 O3 2.842758 1_555
Mn0 O7 1.998333 1_555
Mn0 O3 2.000469 1_545
Mn0 O11 2.040024 1_555
Mn0 O9 2.043734 1_545
Mn0 O0 2.068211 1_555
Mn0 O4 2.070084 1_545
Mn1 O6 1.998468 1_555
Mn1 O2 2.000732 1_556
Mn1 O10 2.040442 1_656
Mn1 O8 2.046748 1_555
Mn1 O5 2.063285 1_555
Mn1 O1 2.063346 1_556
Mn2 O1 1.998333 1_555
Mn2 O5 2.000469 1_545
Mn2 O11 2.040024 1_655
Mn2 O9 2.043734 1_545
Mn2 O6 2.068211 1_555
Mn2 O2 2.070084 1_545
Mn3 O0 1.998468 1_555
Mn3 O4 2.000732 1_556
Mn3 O10 2.040442 1_556
Mn3 O8 2.046748 1_555
Mn3 O3 2.063285 1_555
Mn3 O7 2.063346 1_556
O0 Pr0 2.429678 1_556
O0 Pr2 2.812481 1_545
O1 Pr0 2.605185 1_555
O1 Pr1 2.827288 1_655
O2 Pr2 2.443419 1_654
O2 Pr1 2.592730 1_655
O2 Pr0 2.837234 1_565
O3 Pr1 2.436297 1_555
O3 Pr2 2.600154 1_555
O4 Pr2 2.443419 1_554
O4 Pr1 2.592730 1_555
O4 Pr0 2.837234 1_565
O5 Pr1 2.436297 1_655
O5 Pr2 2.600154 1_655
O6 Pr0 2.429678 1_556
O6 Pr2 2.812481 1_645
O7 Pr0 2.605185 1_555
O7 Pr1 2.827288 1_555
O8 Pr0 2.387450 1_566
O9 Pr0 2.500021 1_565
O10 Pr2 2.389557 1_544
O10 Pr1 2.498781 1_555
O11 Pr1 2.388719 1_555
O11 Pr2 2.499694 1_545
