# generated using pymatgen
data_Ti4Ni4Ge7
_symmetry_space_group_name_H-M   'P 1'
_cell_length_a   9.52461613
_cell_length_b   9.52461613
_cell_length_c   9.52461613
_cell_angle_alpha   94.14779376
_cell_angle_beta   94.14779376
_cell_angle_gamma   148.79744004
_symmetry_Int_Tables_number   1
_chemical_formula_structural   Ti4Ni4Ge7
_chemical_formula_sum   'Ti8 Ni8 Ge14'
_cell_volume   431.14541564
_cell_formula_units_Z   2
loop_
 _symmetry_equiv_pos_site_id
 _symmetry_equiv_pos_as_xyz
  1  'x, y, z'
loop_
 _atom_site_type_symbol
 _atom_site_label
 _atom_site_symmetry_multiplicity
 _atom_site_fract_x
 _atom_site_fract_y
 _atom_site_fract_z
 _atom_site_occupancy
  Ti  Ti0  1  0.13499900  0.13499900  0.26999900  1
  Ti  Ti1  1  0.86500100  0.86500100  0.73000100  1
  Ti  Ti2  1  0.86500100  0.13499900  0.00000000  1
  Ti  Ti3  1  0.13499900  0.86500100  0.00000000  1
  Ti  Ti4  1  0.50000000  0.31066200  0.81066200  1
  Ti  Ti5  1  0.50000000  0.68933800  0.18933800  1
  Ti  Ti6  1  0.68933800  0.50000000  0.18933800  1
  Ti  Ti7  1  0.31066200  0.50000000  0.81066200  1
  Ni  Ni0  1  0.39970300  0.89970300  0.79940700  1
  Ni  Ni1  1  0.10029700  0.60029700  0.20059300  1
  Ni  Ni2  1  0.10029700  0.89970300  0.50000000  1
  Ni  Ni3  1  0.39970300  0.60029700  0.50000000  1
  Ni  Ni4  1  0.60029700  0.39970300  0.50000000  1
  Ni  Ni5  1  0.89970300  0.10029700  0.50000000  1
  Ni  Ni6  1  0.89970300  0.39970300  0.79940700  1
  Ni  Ni7  1  0.60029700  0.10029700  0.20059300  1
  Ge  Ge0  1  0.50000000  0.09580300  0.59580300  1
  Ge  Ge1  1  0.50000000  0.90419700  0.40419700  1
  Ge  Ge2  1  0.90419700  0.50000000  0.40419700  1
  Ge  Ge3  1  0.09580300  0.50000000  0.59580300  1
  Ge  Ge4  1  0.75096000  0.75096000  0.00000000  1
  Ge  Ge5  1  0.24904000  0.24904000  0.00000000  1
  Ge  Ge6  1  0.29899500  0.29899500  0.59799000  1
  Ge  Ge7  1  0.70100500  0.70100500  0.40201000  1
  Ge  Ge8  1  0.70100500  0.29899500  0.00000000  1
  Ge  Ge9  1  0.29899500  0.70100500  0.00000000  1
  Ge  Ge10  1  0.00000000  0.27977700  0.27977700  1
  Ge  Ge11  1  0.00000000  0.72022300  0.72022300  1
  Ge  Ge12  1  0.72022300  0.00000000  0.72022300  1
  Ge  Ge13  1  0.27977700  0.00000000  0.27977700  1
loop_
_geom_bond_atom_site_label_1
_geom_bond_atom_site_label_2
_geom_bond_distance
_geom_bond_site_symmetry_2
Ti0 Ti5 3.182146 1_445
Ti0 Ti6 3.182146 1_445
Ti0 Ti5 3.182150 1_555
Ti0 Ti6 3.182150 1_555
Ti1 Ti4 3.182146 1_665
Ti1 Ti7 3.182146 1_665
Ti1 Ti7 3.182150 1_555
Ti1 Ti4 3.182150 1_555
Ti2 Ti5 3.182146 1_545
Ti2 Ti7 3.182146 1_544
Ti2 Ti5 3.182146 1_655
Ti2 Ti7 3.182146 1_654
Ti3 Ti6 3.182146 1_455
Ti3 Ti4 3.182146 1_454
Ti3 Ti6 3.182146 1_565
Ti3 Ti4 3.182146 1_564
Ni0 Ni6 2.561563 1_565
Ni0 Ni6 2.561563 1_455
Ni0 Ti3 3.078737 1_556
Ni0 Ti2 3.078739 1_566
Ni1 Ni7 2.561563 1_455
Ni1 Ni7 2.561563 1_565
Ni1 Ti3 3.078737 1_555
Ni1 Ti2 3.078739 1_455
Ni2 Ni4 2.561563 1_455
Ni2 Ni4 2.561563 1_565
Ni2 Ti0 3.078736 1_565
Ni2 Ti1 3.078736 1_455
Ni3 Ni5 2.561563 1_565
Ni3 Ni5 2.561563 1_455
Ni3 Ti1 3.078738 1_555
Ni3 Ti0 3.078738 1_555
Ni4 Ti1 3.078738 1_555
Ni4 Ti0 3.078738 1_555
Ni5 Ti0 3.078736 1_655
Ni5 Ti1 3.078736 1_545
Ni6 Ti2 3.078737 1_556
Ni6 Ti3 3.078739 1_656
Ni7 Ti2 3.078737 1_555
Ni7 Ti3 3.078739 1_545
Ge0 Ni2 2.429291 1_545
Ge0 Ni4 2.429291 1_555
Ge0 Ni6 2.429297 1_555
Ge0 Ni0 2.429300 1_545
Ge0 Ge1 2.485813 1_545
Ge0 Ti4 2.787487 1_555
Ge0 Ge11 3.027731 1_655
Ge0 Ge11 3.027731 1_545
Ge1 Ni5 2.429291 1_565
Ge1 Ni3 2.429291 1_555
Ge1 Ni1 2.429297 1_555
Ge1 Ni7 2.429300 1_565
Ge1 Ti5 2.787487 1_555
Ge1 Ge10 3.027731 1_555
Ge1 Ge10 3.027731 1_665
Ge2 Ni2 2.429291 1_655
Ge2 Ni4 2.429291 1_555
Ge2 Ni7 2.429297 1_555
Ge2 Ni1 2.429300 1_655
Ge2 Ge3 2.485813 1_655
Ge2 Ti6 2.787487 1_555
Ge3 Ni5 2.429291 1_455
Ge3 Ni3 2.429291 1_555
Ge3 Ni0 2.429297 1_555
Ge3 Ni6 2.429300 1_455
Ge3 Ti7 2.787487 1_555
Ge4 Ge5 2.551727 1_665
Ge4 Ge5 2.571399 1_555
Ge4 Ti5 2.772521 1_555
Ge4 Ti6 2.772521 1_555
Ge4 Ti7 2.772521 1_554
Ge4 Ti4 2.772521 1_554
Ge4 Ti3 2.786173 1_655
Ge4 Ti2 2.786173 1_565
Ge4 Ti0 2.786180 1_665
Ge4 Ti1 2.786182 1_554
Ge5 Ti5 2.772521 1_555
Ge5 Ti6 2.772521 1_555
Ge5 Ti7 2.772521 1_554
Ge5 Ti4 2.772521 1_554
Ge5 Ti3 2.786173 1_545
Ge5 Ti2 2.786173 1_455
Ge5 Ti1 2.786180 1_444
Ge5 Ti0 2.786182 1_555
Ge6 Ni3 2.415527 1_555
Ge6 Ni4 2.415527 1_555
Ge6 Ni2 2.415527 1_545
Ge6 Ni5 2.415527 1_455
Ge6 Ti7 2.612141 1_555
Ge6 Ti4 2.612141 1_555
Ge6 Ti1 2.833405 1_445
Ge6 Ti1 2.833409 1_555
Ge6 Ti0 3.008890 1_555
Ge7 Ni4 2.415527 1_555
Ge7 Ni3 2.415527 1_555
Ge7 Ni2 2.415527 1_655
Ge7 Ni5 2.415527 1_565
Ge7 Ti6 2.612141 1_555
Ge7 Ti5 2.612141 1_555
Ge7 Ti0 2.833405 1_665
Ge7 Ti0 2.833409 1_555
Ge7 Ti1 3.008890 1_555
Ge8 Ni6 2.415519 1_554
Ge8 Ni7 2.415519 1_555
Ge8 Ni1 2.415521 1_655
Ge8 Ni0 2.415521 1_544
Ge8 Ti6 2.612141 1_555
Ge8 Ti4 2.612141 1_554
Ge8 Ti3 2.833411 1_655
Ge8 Ti3 2.833411 1_545
Ge8 Ti2 3.008899 1_555
Ge9 Ni0 2.415519 1_554
Ge9 Ni1 2.415519 1_555
Ge9 Ni7 2.415521 1_565
Ge9 Ni6 2.415521 1_454
Ge9 Ti5 2.612141 1_555
Ge9 Ti7 2.612141 1_554
Ge9 Ti2 2.833411 1_565
Ge9 Ti2 2.833411 1_455
Ge9 Ti3 3.008899 1_555
Ge10 Ni5 2.499901 1_455
Ge10 Ni3 2.499901 1_555
Ge10 Ni7 2.499902 1_455
Ge10 Ni1 2.499905 1_555
Ge10 Ti0 2.568156 1_555
Ge10 Ti2 2.568157 1_455
Ge10 Ti5 2.817495 1_445
Ge10 Ti5 2.817495 1_555
Ge11 Ni2 2.499901 1_555
Ge11 Ni4 2.499901 1_455
Ge11 Ni0 2.499902 1_555
Ge11 Ni6 2.499905 1_455
Ge11 Ti1 2.568156 1_455
Ge11 Ti3 2.568157 1_556
Ge11 Ti4 2.817495 1_455
Ge11 Ti4 2.817495 1_565
Ge12 Ni5 2.499901 1_555
Ge12 Ni3 2.499901 1_545
Ge12 Ni6 2.499902 1_555
Ge12 Ni0 2.499905 1_545
Ge12 Ti1 2.568156 1_545
Ge12 Ti2 2.568157 1_556
Ge12 Ti7 2.817495 1_655
Ge12 Ti7 2.817495 1_545
Ge12 Ge3 3.027731 1_545
Ge12 Ge3 3.027731 1_655
Ge13 Ni2 2.499901 1_545
Ge13 Ni4 2.499901 1_555
Ge13 Ni1 2.499902 1_545
Ge13 Ni7 2.499905 1_555
Ge13 Ti0 2.568156 1_555
Ge13 Ti3 2.568157 1_545
Ge13 Ti6 2.817495 1_445
Ge13 Ti6 2.817495 1_555
Ge13 Ge2 3.027731 1_555
Ge13 Ge2 3.027731 1_445
