# generated using pymatgen
data_SmZnPd
_symmetry_space_group_name_H-M   'P 1'
_cell_length_a   7.33317802
_cell_length_b   7.33317802
_cell_length_c   3.92144266
_cell_angle_alpha   90.00000000
_cell_angle_beta   90.00000000
_cell_angle_gamma   119.99999296
_symmetry_Int_Tables_number   1
_chemical_formula_structural   SmZnPd
_chemical_formula_sum   'Sm3 Zn3 Pd3'
_cell_volume   182.62531902
_cell_formula_units_Z   3
loop_
 _symmetry_equiv_pos_site_id
 _symmetry_equiv_pos_as_xyz
  1  'x, y, z'
loop_
 _atom_site_type_symbol
 _atom_site_label
 _atom_site_symmetry_multiplicity
 _atom_site_fract_x
 _atom_site_fract_y
 _atom_site_fract_z
 _atom_site_occupancy
  Sm  Sm0  1  0.40685156  1.00000000  0.00000000  1
  Sm  Sm1  1  1.00000000  0.40685156  0.00000000  1
  Sm  Sm2  1  0.59314844  0.59314844  -0.00000000  1
  Zn  Zn0  1  0.75589482  0.00000000  0.50000000  1
  Zn  Zn1  1  0.00000000  0.75589482  0.50000000  1
  Zn  Zn2  1  0.24410518  0.24410518  0.50000000  1
  Pd  Pd0  1  -0.00000000  -0.00000000  -0.00000000  1
  Pd  Pd1  1  0.33333300  0.66666700  0.50000000  1
  Pd  Pd2  1  0.66666700  0.33333300  0.50000000  1
loop_
_geom_bond_atom_site_label_1
_geom_bond_atom_site_label_2
_geom_bond_distance
_geom_bond_site_symmetry_2
Sm0 Zn0 3.224277 1_565
Sm0 Zn0 3.224277 1_564
Sm0 Zn2 3.257213 1_564
Sm0 Zn2 3.257213 1_565
Sm0 Zn1 3.257213 1_555
Sm0 Zn1 3.257213 1_554
Sm1 Zn1 3.224277 1_655
Sm1 Zn1 3.224277 1_654
Sm1 Zn2 3.257213 1_655
Sm1 Zn2 3.257213 1_654
Sm1 Zn0 3.257213 1_554
Sm1 Zn0 3.257213 1_555
Sm2 Zn2 3.224277 1_555
Sm2 Zn2 3.224277 1_554
Sm2 Zn1 3.257213 1_654
Sm2 Zn1 3.257213 1_655
Sm2 Zn0 3.257213 1_565
Sm2 Zn0 3.257213 1_564
Zn0 Zn1 3.100486 1_645
Zn0 Zn2 3.100487 1_655
Zn1 Zn2 3.100487 1_565
Pd0 Zn1 2.654951 1_545
Pd0 Zn0 2.654951 1_455
Pd0 Zn0 2.654951 1_454
Pd0 Zn1 2.654951 1_544
Pd0 Zn2 2.654952 1_555
Pd0 Zn2 2.654952 1_554
Pd0 Sm0 2.983515 1_545
Pd0 Sm1 2.983515 1_455
Pd0 Sm2 2.983515 1_445
Pd1 Zn1 2.828887 1_555
Pd1 Zn0 2.828893 1_565
Pd1 Zn2 2.828895 1_555
Pd1 Sm0 2.965181 1_556
Pd1 Sm0 2.965181 1_555
Pd1 Sm1 2.965182 1_455
Pd1 Sm1 2.965182 1_456
Pd1 Sm2 2.965186 1_555
Pd1 Sm2 2.965186 1_556
Pd2 Zn0 2.828887 1_555
Pd2 Zn1 2.828893 1_655
Pd2 Zn2 2.828895 1_555
Pd2 Sm1 2.965181 1_555
Pd2 Sm1 2.965181 1_556
Pd2 Sm0 2.965182 1_546
Pd2 Sm0 2.965182 1_545
Pd2 Sm2 2.965186 1_555
Pd2 Sm2 2.965186 1_556
