# generated using pymatgen
data_Ce3AsS3
_symmetry_space_group_name_H-M   'P 1'
_cell_length_a   7.45973451
_cell_length_b   7.45973451
_cell_length_c   7.40890926
_cell_angle_alpha   70.51296191
_cell_angle_beta   70.51296191
_cell_angle_gamma   109.71352466
_symmetry_Int_Tables_number   1
_chemical_formula_structural   Ce3AsS3
_chemical_formula_sum   'Ce6 As2 S6'
_cell_volume   316.30091344
_cell_formula_units_Z   2
loop_
 _symmetry_equiv_pos_site_id
 _symmetry_equiv_pos_as_xyz
  1  'x, y, z'
loop_
 _atom_site_type_symbol
 _atom_site_label
 _atom_site_symmetry_multiplicity
 _atom_site_fract_x
 _atom_site_fract_y
 _atom_site_fract_z
 _atom_site_occupancy
  Ce  Ce0  1  0.12587900  0.37010200  0.24963600  1
  Ce  Ce1  1  0.37010200  0.12587900  0.74963600  1
  Ce  Ce2  1  0.25278200  0.87998300  0.37692600  1
  Ce  Ce3  1  0.74985800  0.62371900  0.12318100  1
  Ce  Ce4  1  0.62371900  0.74985800  0.62318100  1
  Ce  Ce5  1  0.87998300  0.25278200  0.87692600  1
  As  As0  1  0.49984400  0.84586500  0.00008300  1
  As  As1  1  0.84586500  0.49984400  0.50008300  1
  S  S0  1  0.34964100  0.50025900  0.50100400  1
  S  S1  1  0.14945100  0.65053000  0.84967500  1
  S  S2  1  0.00073300  0.00135300  0.64949400  1
  S  S3  1  0.50025900  0.34964100  0.00100400  1
  S  S4  1  0.65053000  0.14945100  0.34967500  1
  S  S5  1  0.00135300  0.00073300  0.14949400  1
loop_
_geom_bond_atom_site_label_1
_geom_bond_atom_site_label_2
_geom_bond_distance
_geom_bond_site_symmetry_2
Ce0 S2 2.863568 1_555
Ce0 S3 2.873845 1_555
Ce0 S1 2.907986 1_554
Ce0 S5 3.017053 1_555
Ce0 S4 3.054100 1_455
Ce0 S0 3.063409 1_555
Ce1 S5 2.863568 1_556
Ce1 S0 2.873845 1_555
Ce1 S4 2.907986 1_555
Ce1 S2 3.017053 1_555
Ce1 S1 3.054100 1_545
Ce1 S3 3.063409 1_556
Ce2 S4 2.861983 1_565
Ce2 S2 2.875426 1_565
Ce2 S1 3.016707 1_555
Ce2 S3 3.022526 1_565
Ce2 S5 3.066632 1_565
Ce2 S0 3.078568 1_555
Ce3 S3 2.873577 1_555
Ce3 S1 2.886015 1_654
Ce3 S0 2.906283 1_555
Ce3 S5 2.918502 1_665
Ce3 S2 3.036437 1_664
Ce3 S4 3.053306 1_555
Ce4 S0 2.873577 1_555
Ce4 S4 2.886015 1_565
Ce4 S3 2.906283 1_556
Ce4 S2 2.918502 1_665
Ce4 S5 3.036437 1_665
Ce4 S1 3.053306 1_555
Ce5 S1 2.861983 1_655
Ce5 S5 2.875426 1_656
Ce5 S4 3.016707 1_556
Ce5 S0 3.022526 1_655
Ce5 S2 3.066632 1_655
Ce5 S3 3.078568 1_556
As0 Ce2 2.934985 1_555
As0 Ce5 2.950719 1_564
As0 Ce1 2.952805 1_564
As0 Ce4 3.037052 1_554
As0 Ce3 3.044315 1_555
As0 Ce0 3.049257 1_555
As0 S0 3.250967 1_555
As0 S2 3.262571 1_664
As0 S1 3.264113 1_554
As1 Ce5 2.934985 1_555
As1 Ce2 2.950719 1_655
As1 Ce0 2.952805 1_655
As1 Ce3 3.037052 1_555
As1 Ce4 3.044315 1_555
As1 Ce1 3.049257 1_555
As1 S3 3.250967 1_556
As1 S5 3.262571 1_665
As1 S4 3.264113 1_555
S0 S1 3.263063 1_555
S0 S2 3.264752 1_555
S1 S2 3.278139 1_565
S3 S4 3.263063 1_555
S3 S5 3.264752 1_555
S4 S5 3.278139 1_655
