# generated using pymatgen
data_BaSr3Ca2(MoO6)2
_symmetry_space_group_name_H-M   'P 1'
_cell_length_a   10.26947275
_cell_length_b   10.26947275
_cell_length_c   10.26947283
_cell_angle_alpha   33.56352073
_cell_angle_beta   33.56352073
_cell_angle_gamma   33.56351675
_symmetry_Int_Tables_number   1
_chemical_formula_structural   BaSr3Ca2(MoO6)2
_chemical_formula_sum   'Ba1 Sr3 Ca2 Mo2 O12'
_cell_volume   294.86545407
_cell_formula_units_Z   1
loop_
 _symmetry_equiv_pos_site_id
 _symmetry_equiv_pos_as_xyz
  1  'x, y, z'
loop_
 _atom_site_type_symbol
 _atom_site_label
 _atom_site_symmetry_multiplicity
 _atom_site_fract_x
 _atom_site_fract_y
 _atom_site_fract_z
 _atom_site_occupancy
  Ba  Ba0  1  0.62502700  0.62502700  0.62502700  1
  Sr  Sr0  1  0.12496300  0.12496300  0.12496300  1
  Sr  Sr1  1  0.87479100  0.87479100  0.87479100  1
  Sr  Sr2  1  0.37520800  0.37520800  0.37520800  1
  Ca  Ca0  1  0.24987000  0.24987000  0.24987000  1
  Ca  Ca1  1  0.75012200  0.75012200  0.75012200  1
  Mo  Mo0  1  0.00029500  0.00029500  0.00029500  1
  Mo  Mo1  1  0.49970300  0.49970300  0.49970300  1
  O  O0  1  0.11563000  0.11563000  0.65346000  1
  O  O1  1  0.61567900  0.61567900  0.15265400  1
  O  O2  1  0.38320900  0.84772600  0.38320900  1
  O  O3  1  0.88547300  0.34620000  0.88547300  1
  O  O4  1  0.65346000  0.11563000  0.11563000  1
  O  O5  1  0.15265400  0.61567900  0.61567900  1
  O  O6  1  0.38320900  0.38320900  0.84772600  1
  O  O7  1  0.88547300  0.88547300  0.34620000  1
  O  O8  1  0.11563000  0.65346000  0.11563000  1
  O  O9  1  0.61567900  0.15265400  0.61567900  1
  O  O10  1  0.84772600  0.38320900  0.38320900  1
  O  O11  1  0.34620000  0.88547300  0.88547300  1
loop_
_geom_bond_atom_site_label_1
_geom_bond_atom_site_label_2
_geom_bond_distance
_geom_bond_site_symmetry_2
Ba0 O0 2.969368 1_565
Ba0 O0 2.969368 1_655
Ba0 O4 2.969369 1_556
Ba0 O8 2.969369 1_556
Ba0 O8 2.969369 1_655
Ba0 O4 2.969369 1_565
Ba0 O11 2.983577 1_555
Ba0 O3 2.983577 1_555
Ba0 O7 2.983577 1_555
Ba0 O2 2.985288 1_555
Ba0 O10 2.985288 1_555
Ba0 O6 2.985288 1_555
Ca0 O2 2.254213 1_545
Ca0 O10 2.254213 1_455
Ca0 O6 2.254213 1_554
Ca0 O8 2.258755 1_555
Ca0 O4 2.258755 1_555
Ca0 O0 2.258756 1_555
Ca1 O9 2.248182 1_565
Ca1 O5 2.248182 1_655
Ca1 O1 2.248182 1_556
Ca1 O11 2.252256 1_555
Ca1 O3 2.252256 1_555
Ca1 O7 2.252256 1_555
Mo0 O3 1.937863 1_454
Mo0 O11 1.937863 1_544
Mo0 O7 1.937863 1_445
Mo0 O4 1.941348 1_455
Mo0 O8 1.941348 1_545
Mo0 O0 1.941348 1_554
Mo1 O5 1.937770 1_555
Mo1 O9 1.937770 1_555
Mo1 O1 1.937770 1_555
Mo1 O2 1.941607 1_555
Mo1 O10 1.941607 1_555
Mo1 O6 1.941607 1_555
O0 Sr2 2.971692 1_555
O0 Sr1 2.976175 1_445
O1 Sr2 2.961694 1_555
O1 Sr1 2.965751 1_554
O1 Sr0 2.969089 1_655
O1 Sr0 2.969089 1_565
O2 Sr0 2.954183 1_565
O2 Sr1 2.969214 1_455
O2 Sr1 2.969214 1_554
O3 Sr0 2.952210 1_656
O3 Sr2 2.969256 1_556
O3 Sr2 2.969256 1_655
O4 Sr2 2.971691 1_555
O4 Sr1 2.976175 1_544
O5 Sr2 2.961694 1_555
O5 Sr1 2.965751 1_455
O5 Sr0 2.969090 1_565
O5 Sr0 2.969090 1_556
O6 Sr0 2.954183 1_556
O6 Sr1 2.969214 1_455
O6 Sr1 2.969214 1_545
O7 Sr0 2.952210 1_665
O7 Sr2 2.969256 1_565
O7 Sr2 2.969256 1_655
O8 Sr2 2.971691 1_555
O8 Sr1 2.976175 1_454
O9 Sr2 2.961694 1_555
O9 Sr1 2.965751 1_545
O9 Sr0 2.969090 1_655
O9 Sr0 2.969090 1_556
O10 Sr0 2.954183 1_655
O10 Sr1 2.969214 1_545
O10 Sr1 2.969214 1_554
O11 Sr0 2.952210 1_566
O11 Sr2 2.969256 1_556
O11 Sr2 2.969256 1_565
