# generated using pymatgen
data_Li4MnCo2O7
_symmetry_space_group_name_H-M   'P 1'
_cell_length_a   2.97319088
_cell_length_b   10.95020219
_cell_length_c   8.17922525
_cell_angle_alpha   78.21551648
_cell_angle_beta   90.00000000
_cell_angle_gamma   82.19745188
_symmetry_Int_Tables_number   1
_chemical_formula_structural   Li4MnCo2O7
_chemical_formula_sum   'Li8 Mn2 Co4 O14'
_cell_volume   258.15970732
_cell_formula_units_Z   2
loop_
 _symmetry_equiv_pos_site_id
 _symmetry_equiv_pos_as_xyz
  1  'x, y, z'
loop_
 _atom_site_type_symbol
 _atom_site_label
 _atom_site_symmetry_multiplicity
 _atom_site_fract_x
 _atom_site_fract_y
 _atom_site_fract_z
 _atom_site_occupancy
  Li  Li0  1  0.42720607  0.14558686  0.21669164  1
  Li  Li1  1  0.27683167  0.44633566  0.64756804  1
  Li  Li2  1  0.15173933  0.69652134  0.06671796  1
  Li  Li3  1  0.00136493  0.99727014  0.49759436  1
  Li  Li4  1  0.84897757  0.30204487  0.93095205  1
  Li  Li5  1  0.71428600  0.57142900  0.35714300  1
  Li  Li6  1  0.57959443  0.84081213  0.78333295  1
  Li  Li7  1  0.71428600  0.57142900  0.85714300  1
  Mn  Mn0  1  0.00112251  0.99775498  0.00420875  1
  Mn  Mn1  1  0.42744849  0.14510202  0.71007725  1
  Co  Co0  1  0.85248328  0.29503344  0.40818443  1
  Co  Co1  1  0.57608872  0.84782356  0.30610057  1
  Co  Co2  1  0.27921349  0.44157201  0.12131609  1
  Co  Co3  1  0.14935751  0.70128499  0.59296991  1
  O  O0  1  0.43843326  0.12313348  0.95930682  1
  O  O1  1  0.29129797  0.41740405  0.39340209  1
  O  O2  1  0.13942466  0.72115168  0.80764936  1
  O  O3  1  0.00238980  0.99522140  0.23278144  1
  O  O4  1  0.86775391  0.26449117  0.68253753  1
  O  O5  1  0.71805730  0.56388440  0.11099372  1
  O  O6  1  0.57054619  0.85890762  0.52562882  1
  O  O7  1  0.42618220  0.14763560  0.48150356  1
  O  O8  1  0.28914734  0.42170632  0.90663664  1
  O  O9  1  0.13727403  0.72545295  0.32088291  1
  O  O10  1  0.99013774  0.01972352  0.75497918  1
  O  O11  1  0.85802481  0.28394938  0.18865718  1
  O  O12  1  0.71051370  0.57897260  0.60329228  1
  O  O13  1  0.56081709  0.87836583  0.03174847  1
loop_
_geom_bond_atom_site_label_1
_geom_bond_atom_site_label_2
_geom_bond_distance
_geom_bond_site_symmetry_2
Li0 O11 2.091376 1_455
Li0 O11 2.091376 1_555
Li0 O0 2.168562 1_554
Li0 O7 2.170647 1_555
Li0 O3 2.190860 1_545
Li0 O3 2.190864 1_645
Li1 O12 2.048623 1_455
Li1 O12 2.048626 1_555
Li1 O8 2.080395 1_555
Li1 O1 2.165474 1_555
Li1 O4 2.439483 1_555
Li1 O4 2.439483 1_455
Li2 O5 2.048623 1_555
Li2 O5 2.048626 1_455
Li2 O2 2.080395 1_554
Li2 O9 2.165465 1_555
Li2 O13 2.439483 1_455
Li2 O13 2.439483 1_555
Li3 O6 2.091376 1_455
Li3 O6 2.091376 1_555
Li3 O10 2.168562 1_465
Li3 O3 2.170655 1_555
Li3 O7 2.190862 1_565
Li3 O7 2.190862 1_465
Li4 O8 1.956619 1_555
Li4 O8 1.956621 1_655
Li4 O11 2.076266 1_556
Li4 O4 2.153053 1_555
Li4 O0 2.417759 1_655
Li4 O0 2.417759 1_555
Li5 O12 2.031760 1_555
Li5 O5 2.031762 1_555
Li5 O9 2.210380 1_555
Li5 O9 2.210380 1_655
Li5 O1 2.210387 1_655
Li5 O1 2.210389 1_555
Li6 O2 1.956613 1_555
Li6 O2 1.956613 1_655
Li6 O6 2.076258 1_555
Li6 O13 2.153061 1_556
Li6 O10 2.417758 1_565
Li6 O10 2.417762 1_465
Li7 O5 2.060987 1_556
Li7 O12 2.060988 1_555
Li7 O8 2.177418 1_555
Li7 O8 2.177418 1_655
Li7 O2 2.177418 1_655
Li7 O2 2.177418 1_555
Mn0 O3 1.864076 1_555
Mn0 O13 1.953982 1_455
Mn0 O13 1.953982 1_555
Mn0 O0 1.997263 1_564
Mn0 O0 1.997263 1_464
Mn0 O10 2.002998 1_464
Mn1 O7 1.864084 1_555
Mn1 O4 1.953982 1_555
Mn1 O4 1.953982 1_455
Mn1 O10 1.997263 1_555
Mn1 O10 1.997263 1_455
Mn1 O0 2.002998 1_555
Co0 O11 1.824150 1_555
Co0 O1 1.980118 1_655
Co0 O1 1.980118 1_555
Co0 O7 2.175163 1_655
Co0 O7 2.175163 1_555
Co0 O4 2.199718 1_555
Co1 O6 1.824158 1_555
Co1 O9 1.980118 1_555
Co1 O9 1.980118 1_655
Co1 O3 2.175163 1_655
Co1 O3 2.175163 1_555
Co1 O13 2.199710 1_555
Co2 O8 1.812648 1_554
Co2 O5 1.982849 1_455
Co2 O5 1.982849 1_555
Co2 O1 2.186509 1_555
Co2 O11 2.247042 1_455
Co2 O11 2.247042 1_555
Co3 O2 1.812652 1_555
Co3 O12 1.982849 1_555
Co3 O12 1.982849 1_455
Co3 O9 2.186517 1_555
Co3 O6 2.247042 1_555
Co3 O6 2.247042 1_455
