# generated using pymatgen
data_K3ReN3
_symmetry_space_group_name_H-M   'P 1'
_cell_length_a   8.28430394
_cell_length_b   8.28238145
_cell_length_c   5.85481600
_cell_angle_alpha   90.00000000
_cell_angle_beta   90.00000000
_cell_angle_gamma   120.06229390
_symmetry_Int_Tables_number   1
_chemical_formula_structural   K3ReN3
_chemical_formula_sum   'K6 Re2 N6'
_cell_volume   347.68197798
_cell_formula_units_Z   2
loop_
 _symmetry_equiv_pos_site_id
 _symmetry_equiv_pos_as_xyz
  1  'x, y, z'
loop_
 _atom_site_type_symbol
 _atom_site_label
 _atom_site_symmetry_multiplicity
 _atom_site_fract_x
 _atom_site_fract_y
 _atom_site_fract_z
 _atom_site_occupancy
  K  K0  1  0.87817100  0.63286100  0.25000000  1
  K  K1  1  0.75451500  0.12183800  0.25000000  1
  K  K2  1  0.36712100  0.24515200  0.25000000  1
  K  K3  1  0.12182900  0.36713900  0.75000000  1
  K  K4  1  0.24548500  0.87816200  0.75000000  1
  K  K5  1  0.63287900  0.75484800  0.75000000  1
  Re  Re0  1  0.66658300  0.33334500  0.75000000  1
  Re  Re1  1  0.33341700  0.66665500  0.25000000  1
  N  N0  1  0.85348400  0.57451500  0.75000000  1
  N  N1  1  0.72103700  0.14645800  0.75000000  1
  N  N2  1  0.42549100  0.27902100  0.75000000  1
  N  N3  1  0.14651600  0.42548500  0.25000000  1
  N  N4  1  0.27896300  0.85354200  0.25000000  1
  N  N5  1  0.57450900  0.72097900  0.25000000  1
loop_
_geom_bond_atom_site_label_1
_geom_bond_atom_site_label_2
_geom_bond_distance
_geom_bond_site_symmetry_2
K0 N4 2.878347 1_655
K0 N5 2.949655 1_555
K0 N0 2.957372 1_555
K0 N0 2.957372 1_554
K0 N3 3.423072 1_655
K0 K2 3.822962 1_555
K0 K1 3.823534 1_555
K1 N5 2.878595 1_545
K1 N3 2.947596 1_655
K1 N1 2.957174 1_554
K1 N1 2.957174 1_555
K1 N4 3.418717 1_545
K1 K2 3.824472 1_555
K2 N3 2.881931 1_555
K2 N4 2.946215 1_545
K2 N2 2.957420 1_555
K2 N2 2.957420 1_554
K2 N5 3.420449 1_555
K3 N1 2.878347 1_455
K3 N2 2.949655 1_555
K3 N3 2.957372 1_556
K3 N3 2.957372 1_555
K3 N0 3.423072 1_455
K3 K5 3.822962 1_555
K3 K4 3.823534 1_555
K4 N2 2.878595 1_565
K4 N0 2.947596 1_455
K4 N4 2.957174 1_555
K4 N4 2.957174 1_556
K4 N1 3.418717 1_565
K4 K5 3.824472 1_555
K5 N0 2.881931 1_555
K5 N1 2.946215 1_565
K5 N5 2.957420 1_555
K5 N5 2.957420 1_556
K5 N2 3.420449 1_555
N0 Re0 1.813462 1_555
N1 Re0 1.816310 1_555
N2 Re0 1.814175 1_555
N3 Re1 1.813462 1_555
N4 Re1 1.816310 1_555
N5 Re1 1.814175 1_555
