# generated using pymatgen
data_Ba2YV3O8
_symmetry_space_group_name_H-M   'P 1'
_cell_length_a   5.62611828
_cell_length_b   5.66507644
_cell_length_c   12.67764944
_cell_angle_alpha   77.14719563
_cell_angle_beta   77.24105117
_cell_angle_gamma   90.26189736
_symmetry_Int_Tables_number   1
_chemical_formula_structural   Ba2YV3O8
_chemical_formula_sum   'Ba4 Y2 V6 O16'
_cell_volume   383.60253382
_cell_formula_units_Z   2
loop_
 _symmetry_equiv_pos_site_id
 _symmetry_equiv_pos_as_xyz
  1  'x, y, z'
loop_
 _atom_site_type_symbol
 _atom_site_label
 _atom_site_symmetry_multiplicity
 _atom_site_fract_x
 _atom_site_fract_y
 _atom_site_fract_z
 _atom_site_occupancy
  Ba  Ba0  1  0.41881900  0.91884800  0.16233000  1
  Ba  Ba1  1  0.91885200  0.41887500  0.16228800  1
  Ba  Ba2  1  0.08134300  0.58130900  0.83732900  1
  Ba  Ba3  1  0.58134200  0.08133500  0.83728200  1
  Y  Y0  1  0.25000800  0.74998400  0.50002200  1
  Y  Y1  1  0.74996700  0.24998500  0.50005100  1
  V  V0  1  0.50005100  0.50006200  0.99987900  1
  V  V1  1  0.00006800  0.00006100  0.99987300  1
  V  V2  1  0.82953600  0.82950600  0.34099200  1
  V  V3  1  0.32962700  0.32963100  0.34076200  1
  V  V4  1  0.67038400  0.67035100  0.65926200  1
  V  V5  1  0.17045800  0.17046500  0.65906900  1
  O  O0  1  0.25007300  0.24992600  0.99991700  1
  O  O1  1  0.75000100  0.75014000  0.99992000  1
  O  O2  1  0.25003100  0.75018800  0.99990100  1
  O  O3  1  0.75005100  0.24992300  0.99990200  1
  O  O4  1  0.40803700  0.40801100  0.18396200  1
  O  O5  1  0.90799500  0.90799500  0.18400400  1
  O  O6  1  0.59193500  0.59195300  0.81609500  1
  O  O7  1  0.09199000  0.09200300  0.81598700  1
  O  O8  1  0.55829600  0.05843400  0.38324900  1
  O  O9  1  0.05850500  0.55832100  0.38324800  1
  O  O10  1  0.05806400  0.05799000  0.38398000  1
  O  O11  1  0.55801900  0.55807500  0.38397700  1
  O  O12  1  0.94151800  0.44132700  0.61707400  1
  O  O13  1  0.44136400  0.94162300  0.61707400  1
  O  O14  1  0.44205000  0.44201000  0.61629100  1
  O  O15  1  0.94161800  0.94166800  0.61628600  1
loop_
_geom_bond_atom_site_label_1
_geom_bond_atom_site_label_2
_geom_bond_distance
_geom_bond_site_symmetry_2
Ba0 O3 2.790284 1_564
Ba0 O2 2.790316 1_554
Ba0 O0 2.796476 1_564
Ba0 O1 2.796752 1_554
Ba0 O5 2.825061 1_455
Ba0 O5 2.825196 1_555
Ba0 O4 2.844368 1_565
Ba0 O4 2.844589 1_555
Ba0 O9 3.321806 1_555
Ba0 O8 3.321987 1_565
Ba0 O10 3.334341 1_565
Ba0 O11 3.334365 1_555
Ba1 O2 2.790587 1_654
Ba1 O3 2.790704 1_554
Ba1 O1 2.796936 1_554
Ba1 O0 2.797229 1_654
Ba1 O4 2.825010 1_555
Ba1 O4 2.825247 1_655
Ba1 O5 2.844456 1_555
Ba1 O5 2.844686 1_545
Ba1 O8 3.322484 1_555
Ba1 O9 3.322560 1_655
Ba1 O11 3.335043 1_555
Ba1 O10 3.335096 1_655
Ba2 O3 2.792154 1_455
Ba2 O2 2.792273 1_555
Ba2 O0 2.798778 1_555
Ba2 O1 2.799088 1_455
Ba2 O6 2.824509 1_555
Ba2 O6 2.824780 1_455
Ba2 O7 2.844040 1_555
Ba2 O7 2.844283 1_565
Ba2 O12 3.315786 1_455
Ba2 O13 3.315799 1_555
Ba2 O14 3.328706 1_555
Ba2 O15 3.328813 1_455
Ba3 O2 2.791782 1_545
Ba3 O3 2.792041 1_555
Ba3 O1 2.798455 1_545
Ba3 O0 2.798560 1_555
Ba3 O7 2.824703 1_555
Ba3 O7 2.824719 1_655
Ba3 O6 2.843864 1_545
Ba3 O6 2.844123 1_555
Ba3 O13 3.314934 1_545
Ba3 O12 3.315051 1_555
Ba3 O14 3.328045 1_555
Ba3 O15 3.328163 1_545
O0 V1 1.991119 1_555
O0 V0 1.991772 1_555
O1 V1 1.991226 1_665
O1 V0 1.991743 1_555
O2 V1 1.999929 1_565
O2 V0 2.001176 1_555
O3 V1 2.000101 1_655
O3 V0 2.001148 1_555
O4 V3 1.887198 1_555
O4 V0 2.215568 1_554
O5 V2 1.889461 1_555
O5 V1 2.216146 1_664
O6 V4 1.887595 1_555
O6 V0 2.211969 1_555
O7 V5 1.888618 1_555
O7 V1 2.213197 1_555
O8 V3 2.064370 1_555
O8 V2 2.064894 1_545
O8 Y0 2.437337 1_545
O8 Y1 2.437748 1_555
O9 V3 2.064197 1_555
O9 V2 2.064797 1_455
O9 Y0 2.437286 1_555
O9 Y1 2.437882 1_455
O10 V2 2.057582 1_445
O10 V3 2.058219 1_555
O10 Y0 2.439663 1_545
O10 Y1 2.440419 1_455
O10 O15 2.795966 1_445
O11 V2 2.057419 1_555
O11 V3 2.058469 1_555
O11 Y0 2.439675 1_555
O11 Y1 2.440173 1_555
O11 O14 2.796062 1_555
O12 V5 2.062660 1_655
O12 V4 2.064654 1_555
O12 Y1 2.438930 1_555
O12 Y0 2.439698 1_655
O12 O9 2.814260 1_655
O13 V5 2.062490 1_565
O13 V4 2.065134 1_555
O13 Y1 2.438990 1_565
O13 Y0 2.439568 1_555
O13 O8 2.814248 1_565
O14 V4 2.056167 1_555
O14 V5 2.058322 1_555
O14 Y1 2.441101 1_555
O14 Y0 2.441437 1_555
O15 V4 2.055900 1_555
O15 V5 2.058582 1_665
O15 Y1 2.441062 1_565
O15 Y0 2.441682 1_655
