# generated using pymatgen
data_Rb6WN4
_symmetry_space_group_name_H-M   'P 1'
_cell_length_a   8.55652900
_cell_length_b   8.55652900
_cell_length_c   7.21645700
_cell_angle_alpha   90.00000000
_cell_angle_beta   90.00000000
_cell_angle_gamma   90.00000000
_symmetry_Int_Tables_number   1
_chemical_formula_structural   Rb6WN4
_chemical_formula_sum   'Rb12 W2 N8'
_cell_volume   528.34704330
_cell_formula_units_Z   2
loop_
 _symmetry_equiv_pos_site_id
 _symmetry_equiv_pos_as_xyz
  1  'x, y, z'
loop_
 _atom_site_type_symbol
 _atom_site_label
 _atom_site_symmetry_multiplicity
 _atom_site_fract_x
 _atom_site_fract_y
 _atom_site_fract_z
 _atom_site_occupancy
  Rb  Rb0  1  0.00000000  0.50000000  0.70308800  1
  Rb  Rb1  1  0.50000000  0.00000000  0.79691200  1
  Rb  Rb2  1  0.50000000  0.00000000  0.29691200  1
  Rb  Rb3  1  0.00000000  0.50000000  0.20308800  1
  Rb  Rb4  1  0.20425500  0.20425500  0.50000000  1
  Rb  Rb5  1  0.79574500  0.79574500  0.50000000  1
  Rb  Rb6  1  0.70425500  0.70425500  0.00000000  1
  Rb  Rb7  1  0.29574500  0.29574500  0.00000000  1
  Rb  Rb8  1  0.79574500  0.20425500  0.50000000  1
  Rb  Rb9  1  0.20425500  0.79574500  0.50000000  1
  Rb  Rb10  1  0.29574500  0.70425500  0.00000000  1
  Rb  Rb11  1  0.70425500  0.29574500  0.00000000  1
  W  W0  1  0.50000000  0.50000000  0.50000000  1
  W  W1  1  0.00000000  0.00000000  0.00000000  1
  N  N0  1  0.31067500  0.50000000  0.35535800  1
  N  N1  1  0.68932500  0.50000000  0.35535800  1
  N  N2  1  0.81067500  0.00000000  0.14464200  1
  N  N3  1  0.18932500  0.00000000  0.14464200  1
  N  N4  1  0.50000000  0.31067500  0.64464200  1
  N  N5  1  0.50000000  0.68932500  0.64464200  1
  N  N6  1  0.00000000  0.81067500  0.85535800  1
  N  N7  1  0.00000000  0.18932500  0.85535800  1
loop_
_geom_bond_atom_site_label_1
_geom_bond_atom_site_label_2
_geom_bond_distance
_geom_bond_site_symmetry_2
Rb0 Rb9 3.406773 1_555
Rb0 Rb5 3.406773 1_455
Rb0 Rb4 3.406773 1_555
Rb0 Rb8 3.406773 1_455
Rb0 Rb3 3.608228 1_555
Rb0 Rb3 3.608229 1_556
Rb0 Rb10 3.748220 1_556
Rb0 Rb7 3.748220 1_556
Rb0 Rb11 3.748220 1_456
Rb0 Rb6 3.748220 1_456
Rb1 Rb11 3.406773 1_556
Rb1 Rb7 3.406773 1_556
Rb1 Rb6 3.406773 1_546
Rb1 Rb10 3.406773 1_546
Rb1 Rb2 3.608228 1_555
Rb1 Rb2 3.608229 1_556
Rb1 Rb8 3.748220 1_555
Rb1 Rb5 3.748220 1_545
Rb1 Rb4 3.748220 1_555
Rb1 Rb9 3.748220 1_545
Rb2 Rb8 3.406773 1_555
Rb2 Rb5 3.406773 1_545
Rb2 Rb4 3.406773 1_555
Rb2 Rb9 3.406773 1_545
Rb2 Rb6 3.748220 1_545
Rb2 Rb7 3.748220 1_555
Rb3 Rb7 3.406773 1_555
Rb3 Rb6 3.406773 1_455
Rb3 Rb9 3.748220 1_555
Rb3 Rb5 3.748220 1_455
Rb3 Rb4 3.748220 1_555
Rb3 Rb8 3.748220 1_455
Rb4 Rb8 3.495428 1_455
Rb4 Rb9 3.495428 1_545
Rb5 Rb9 3.495428 1_655
Rb5 Rb8 3.495428 1_565
Rb10 Rb3 3.406773 1_555
Rb10 Rb6 3.495428 1_555
Rb10 Rb7 3.495428 1_555
Rb10 Rb2 3.748220 1_565
Rb11 Rb3 3.406773 1_655
Rb11 Rb6 3.495428 1_555
Rb11 Rb7 3.495428 1_555
Rb11 Rb2 3.748220 1_555
N0 W0 1.927125 1_555
N0 Rb3 2.876461 1_555
N0 Rb9 2.884853 1_555
N0 Rb4 2.884853 1_555
N0 Rb10 3.105979 1_555
N0 Rb7 3.105979 1_555
N0 Rb0 3.655617 1_555
N1 W0 1.927125 1_555
N1 Rb3 2.876461 1_655
N1 Rb5 2.884853 1_555
N1 Rb8 2.884853 1_555
N1 Rb6 3.105979 1_555
N1 Rb11 3.105979 1_555
N1 Rb0 3.655617 1_655
N2 W1 1.927125 1_655
N2 Rb2 2.876461 1_555
N2 Rb11 2.884853 1_555
N2 Rb6 2.884853 1_545
N2 Rb8 3.105979 1_555
N2 Rb5 3.105979 1_545
N2 Rb1 3.655617 1_554
N3 W1 1.927125 1_555
N3 Rb2 2.876461 1_555
N3 Rb7 2.884853 1_555
N3 Rb10 2.884853 1_545
N3 Rb4 3.105979 1_555
N3 Rb9 3.105979 1_545
N3 Rb1 3.655617 1_554
N4 W0 1.927125 1_555
N4 Rb1 2.876461 1_555
N4 Rb8 2.884853 1_555
N4 Rb4 2.884853 1_555
N4 Rb11 3.105979 1_556
N4 Rb7 3.105979 1_556
N4 Rb2 3.655617 1_555
N5 W0 1.927125 1_555
N5 Rb1 2.876461 1_565
N5 Rb5 2.884853 1_555
N5 Rb9 2.884853 1_555
N5 Rb6 3.105979 1_556
N5 Rb10 3.105979 1_556
N5 Rb2 3.655617 1_565
N6 W1 1.927125 1_566
N6 Rb0 2.876461 1_555
N6 Rb10 2.884853 1_556
N6 Rb6 2.884853 1_456
N6 Rb9 3.105979 1_555
N6 Rb5 3.105979 1_455
N6 Rb3 3.655617 1_556
N7 W1 1.927125 1_556
N7 Rb0 2.876461 1_555
N7 Rb7 2.884853 1_556
N7 Rb11 2.884853 1_456
N7 Rb4 3.105979 1_555
N7 Rb8 3.105979 1_455
N7 Rb3 3.655617 1_556
