# generated using pymatgen
data_Ga2Sn2S5
_symmetry_space_group_name_H-M   'P 1'
_cell_length_a   6.32470912
_cell_length_b   10.96325871
_cell_length_c   12.56695288
_cell_angle_alpha   90.00000000
_cell_angle_beta   90.00000000
_cell_angle_gamma   90.00000000
_symmetry_Int_Tables_number   1
_chemical_formula_structural   Ga2Sn2S5
_chemical_formula_sum   'Ga8 Sn8 S20'
_cell_volume   871.38525337
_cell_formula_units_Z   4
loop_
 _symmetry_equiv_pos_site_id
 _symmetry_equiv_pos_as_xyz
  1  'x, y, z'
loop_
 _atom_site_type_symbol
 _atom_site_label
 _atom_site_symmetry_multiplicity
 _atom_site_fract_x
 _atom_site_fract_y
 _atom_site_fract_z
 _atom_site_occupancy
  Ga  Ga0  1  0.64362469  0.11505813  0.76803044  1
  Ga  Ga1  1  0.35637531  0.61505813  0.23196956  1
  Ga  Ga2  1  0.85637531  0.11505813  0.26803044  1
  Ga  Ga3  1  0.14362469  0.61505813  0.73196956  1
  Ga  Ga4  1  0.15030350  0.28139707  0.81872438  1
  Ga  Ga5  1  0.84969650  0.78139707  0.18127562  1
  Ga  Ga6  1  0.34969650  0.28139707  0.31872438  1
  Ga  Ga7  1  0.65030350  0.78139707  0.68127562  1
  Sn  Sn0  1  0.54769650  0.48259836  0.54005288  1
  Sn  Sn1  1  0.45230350  0.98259836  0.45994712  1
  Sn  Sn2  1  0.95230350  0.48259836  0.04005288  1
  Sn  Sn3  1  0.04769650  0.98259836  0.95994712  1
  Sn  Sn4  1  0.55204107  0.25521223  0.01972931  1
  Sn  Sn5  1  0.44795893  0.75521223  0.98027069  1
  Sn  Sn6  1  0.94795893  0.25521223  0.51972931  1
  Sn  Sn7  1  0.05204107  0.75521223  0.48027069  1
  S  S0  1  0.47712584  0.96588329  0.67170464  1
  S  S1  1  0.52287416  0.46588329  0.32829536  1
  S  S2  1  0.02287416  0.96588329  0.17170464  1
  S  S3  1  0.97712584  0.46588329  0.82829536  1
  S  S4  1  0.50838911  0.80156037  0.22791645  1
  S  S5  1  0.49161089  0.30156037  0.77208355  1
  S  S6  1  0.99161089  0.80156037  0.72791645  1
  S  S7  1  0.00838911  0.30156037  0.27208355  1
  S  S8  1  0.14423765  0.53829683  0.56142657  1
  S  S9  1  0.85576235  0.03829683  0.43857343  1
  S  S10  1  0.35576235  0.53829683  0.06142657  1
  S  S11  1  0.64423765  0.03829683  0.93857343  1
  S  S12  1  0.64242255  0.72106453  0.50627180  1
  S  S13  1  0.35757745  0.22106453  0.49372820  1
  S  S14  1  0.85757745  0.72106453  0.00627180  1
  S  S15  1  0.14242255  0.22106453  0.99372820  1
  S  S16  1  0.98725403  0.13932619  0.71246943  1
  S  S17  1  0.01274597  0.63932619  0.28753057  1
  S  S18  1  0.51274597  0.13932619  0.21246943  1
  S  S19  1  0.48725403  0.63932619  0.78753057  1
loop_
_geom_bond_atom_site_label_1
_geom_bond_atom_site_label_2
_geom_bond_distance
_geom_bond_site_symmetry_2
Ga0 S5 2.260012 1_555
Ga0 S0 2.291062 1_545
Ga0 S16 2.298214 1_555
Ga0 S11 2.302511 1_555
Ga1 S4 2.260012 1_555
Ga1 S1 2.291062 1_555
Ga1 S17 2.298214 1_555
Ga1 S10 2.302511 1_555
Ga2 S7 2.260012 1_655
Ga2 S2 2.291062 1_645
Ga2 S18 2.298214 1_555
Ga2 S9 2.302511 1_555
Ga3 S6 2.260012 1_455
Ga3 S3 2.291062 1_455
Ga3 S19 2.298214 1_555
Ga3 S8 2.302511 1_555
Ga4 S5 2.247726 1_555
Ga4 S16 2.296188 1_455
Ga4 S15 2.297119 1_555
Ga4 S3 2.303245 1_455
Ga5 S4 2.247726 1_555
Ga5 S17 2.296188 1_655
Ga5 S14 2.297119 1_555
Ga5 S2 2.303245 1_655
Ga6 S7 2.247726 1_555
Ga6 S18 2.296188 1_555
Ga6 S13 2.297119 1_555
Ga6 S1 2.303245 1_555
Ga7 S6 2.247726 1_555
Ga7 S19 2.296188 1_555
Ga7 S12 2.297119 1_555
Ga7 S0 2.303245 1_555
Sn0 Sn6 3.562086 1_555
Sn1 Sn7 3.562086 1_555
Sn2 Sn4 3.562086 1_555
Sn3 Sn5 3.562086 1_555
S0 Sn1 2.672065 1_555
S1 Sn0 2.672065 1_555
S2 Sn3 2.672065 1_554
S3 Sn2 2.672065 1_556
S4 Sn5 3.176439 1_554
S4 Sn1 3.545096 1_555
S5 Sn4 3.176439 1_556
S5 Sn0 3.545096 1_555
S6 Sn7 3.176439 1_655
S6 Sn3 3.545096 1_655
S7 Sn6 3.176439 1_455
S7 Sn2 3.545096 1_455
S8 Sn0 2.637518 1_555
S8 Sn7 2.652460 1_555
S8 Sn6 3.383426 1_455
S9 Sn1 2.637518 1_545
S9 Sn6 2.652460 1_555
S9 Sn7 3.383426 1_645
S10 Sn2 2.637518 1_455
S10 Sn5 2.652460 1_554
S10 Sn4 3.383426 1_555
S11 Sn3 2.637518 1_645
S11 Sn4 2.652460 1_556
S11 Sn5 3.383426 1_545
S12 Sn7 2.637943 1_655
S12 Sn0 2.715524 1_555
S12 Sn1 3.163224 1_555
S13 Sn6 2.637943 1_455
S13 Sn1 2.715524 1_545
S13 Sn0 3.163224 1_555
S14 Sn5 2.637943 1_554
S14 Sn2 2.715524 1_555
S14 Sn3 3.163224 1_654
S15 Sn4 2.637943 1_556
S15 Sn3 2.715524 1_545
S15 Sn2 3.163224 1_456
S16 Sn6 2.746406 1_555
S16 Sn3 3.573635 1_645
S17 Sn7 2.746406 1_555
S17 Sn2 3.573635 1_455
S18 Sn4 2.746406 1_555
S18 Sn1 3.573635 1_545
S19 Sn5 2.746406 1_555
S19 Sn0 3.573635 1_555
