# generated using pymatgen
data_KFeN
_symmetry_space_group_name_H-M   'P 1'
_cell_length_a   19.71393200
_cell_length_b   7.05685800
_cell_length_c   13.33292800
_cell_angle_alpha   90.00000000
_cell_angle_beta   90.00000000
_cell_angle_gamma   90.00000000
_symmetry_Int_Tables_number   1
_chemical_formula_structural   KFeN
_chemical_formula_sum   'K32 Fe32 N32'
_cell_volume   1854.85586061
_cell_formula_units_Z   32
loop_
 _symmetry_equiv_pos_site_id
 _symmetry_equiv_pos_as_xyz
  1  'x, y, z'
loop_
 _atom_site_type_symbol
 _atom_site_label
 _atom_site_symmetry_multiplicity
 _atom_site_fract_x
 _atom_site_fract_y
 _atom_site_fract_z
 _atom_site_occupancy
  K  K0_0  1  0.34011200  0.12500000  0.02416250  1
  K  K0_1  1  0.34011200  0.12500000  0.52416250  1
  K  K0_2  1  0.34011200  0.62500000  0.02416250  1
  K  K0_3  1  0.34011200  0.62500000  0.52416250  1
  K  K0_4  1  0.84011200  0.12500000  0.02416250  1
  K  K0_5  1  0.84011200  0.12500000  0.52416250  1
  K  K0_6  1  0.84011200  0.62500000  0.02416250  1
  K  K0_7  1  0.84011200  0.62500000  0.52416250  1
  K  K1_0  1  0.09011200  0.12500000  0.22583750  1
  K  K1_1  1  0.09011200  0.12500000  0.72583750  1
  K  K1_2  1  0.09011200  0.62500000  0.22583750  1
  K  K1_3  1  0.09011200  0.62500000  0.72583750  1
  K  K1_4  1  0.59011200  0.12500000  0.22583750  1
  K  K1_5  1  0.59011200  0.12500000  0.72583750  1
  K  K1_6  1  0.59011200  0.62500000  0.22583750  1
  K  K1_7  1  0.59011200  0.62500000  0.72583750  1
  K  K2_0  1  0.15988800  0.37500000  0.47583750  1
  K  K2_1  1  0.15988800  0.37500000  0.97583750  1
  K  K2_2  1  0.15988800  0.87500000  0.47583750  1
  K  K2_3  1  0.15988800  0.87500000  0.97583750  1
  K  K2_4  1  0.65988800  0.37500000  0.47583750  1
  K  K2_5  1  0.65988800  0.37500000  0.97583750  1
  K  K2_6  1  0.65988800  0.87500000  0.47583750  1
  K  K2_7  1  0.65988800  0.87500000  0.97583750  1
  K  K3_0  1  0.40988800  0.37500000  0.27416250  1
  K  K3_1  1  0.40988800  0.37500000  0.77416250  1
  K  K3_2  1  0.40988800  0.87500000  0.27416250  1
  K  K3_3  1  0.40988800  0.87500000  0.77416250  1
  K  K3_4  1  0.90988800  0.37500000  0.27416250  1
  K  K3_5  1  0.90988800  0.37500000  0.77416250  1
  K  K3_6  1  0.90988800  0.87500000  0.27416250  1
  K  K3_7  1  0.90988800  0.87500000  0.77416250  1
  Fe  Fe0_0  1  0.26113700  0.12500000  0.30481300  1
  Fe  Fe0_1  1  0.26113700  0.12500000  0.80481300  1
  Fe  Fe0_2  1  0.26113700  0.62500000  0.30481300  1
  Fe  Fe0_3  1  0.26113700  0.62500000  0.80481300  1
  Fe  Fe0_4  1  0.76113700  0.12500000  0.30481300  1
  Fe  Fe0_5  1  0.76113700  0.12500000  0.80481300  1
  Fe  Fe0_6  1  0.76113700  0.62500000  0.30481300  1
  Fe  Fe0_7  1  0.76113700  0.62500000  0.80481300  1
  Fe  Fe1_0  1  0.01113700  0.12500000  0.44518700  1
  Fe  Fe1_1  1  0.01113700  0.12500000  0.94518700  1
  Fe  Fe1_2  1  0.01113700  0.62500000  0.44518700  1
  Fe  Fe1_3  1  0.01113700  0.62500000  0.94518700  1
  Fe  Fe1_4  1  0.51113700  0.12500000  0.44518700  1
  Fe  Fe1_5  1  0.51113700  0.12500000  0.94518700  1
  Fe  Fe1_6  1  0.51113700  0.62500000  0.44518700  1
  Fe  Fe1_7  1  0.51113700  0.62500000  0.94518700  1
  Fe  Fe2_0  1  0.23886300  0.37500000  0.19518700  1
  Fe  Fe2_1  1  0.23886300  0.37500000  0.69518700  1
  Fe  Fe2_2  1  0.23886300  0.87500000  0.19518700  1
  Fe  Fe2_3  1  0.23886300  0.87500000  0.69518700  1
  Fe  Fe2_4  1  0.73886300  0.37500000  0.19518700  1
  Fe  Fe2_5  1  0.73886300  0.37500000  0.69518700  1
  Fe  Fe2_6  1  0.73886300  0.87500000  0.19518700  1
  Fe  Fe2_7  1  0.73886300  0.87500000  0.69518700  1
  Fe  Fe3_0  1  0.48886300  0.37500000  0.05481300  1
  Fe  Fe3_1  1  0.48886300  0.37500000  0.55481300  1
  Fe  Fe3_2  1  0.48886300  0.87500000  0.05481300  1
  Fe  Fe3_3  1  0.48886300  0.87500000  0.55481300  1
  Fe  Fe3_4  1  0.98886300  0.37500000  0.05481300  1
  Fe  Fe3_5  1  0.98886300  0.37500000  0.55481300  1
  Fe  Fe3_6  1  0.98886300  0.87500000  0.05481300  1
  Fe  Fe3_7  1  0.98886300  0.87500000  0.55481300  1
  N  N0_0  1  0.48309950  0.12500000  0.07925750  1
  N  N0_1  1  0.48309950  0.12500000  0.57925750  1
  N  N0_2  1  0.48309950  0.62500000  0.07925750  1
  N  N0_3  1  0.48309950  0.62500000  0.57925750  1
  N  N0_4  1  0.98309950  0.12500000  0.07925750  1
  N  N0_5  1  0.98309950  0.12500000  0.57925750  1
  N  N0_6  1  0.98309950  0.62500000  0.07925750  1
  N  N0_7  1  0.98309950  0.62500000  0.57925750  1
  N  N1_0  1  0.23309950  0.12500000  0.17074250  1
  N  N1_1  1  0.23309950  0.12500000  0.67074250  1
  N  N1_2  1  0.23309950  0.62500000  0.17074250  1
  N  N1_3  1  0.23309950  0.62500000  0.67074250  1
  N  N1_4  1  0.73309950  0.12500000  0.17074250  1
  N  N1_5  1  0.73309950  0.12500000  0.67074250  1
  N  N1_6  1  0.73309950  0.62500000  0.17074250  1
  N  N1_7  1  0.73309950  0.62500000  0.67074250  1
  N  N2_0  1  0.01690050  0.37500000  0.42074250  1
  N  N2_1  1  0.01690050  0.37500000  0.92074250  1
  N  N2_2  1  0.01690050  0.87500000  0.42074250  1
  N  N2_3  1  0.01690050  0.87500000  0.92074250  1
  N  N2_4  1  0.51690050  0.37500000  0.42074250  1
  N  N2_5  1  0.51690050  0.37500000  0.92074250  1
  N  N2_6  1  0.51690050  0.87500000  0.42074250  1
  N  N2_7  1  0.51690050  0.87500000  0.92074250  1
  N  N3_0  1  0.26690050  0.37500000  0.32925750  1
  N  N3_1  1  0.26690050  0.37500000  0.82925750  1
  N  N3_2  1  0.26690050  0.87500000  0.32925750  1
  N  N3_3  1  0.26690050  0.87500000  0.82925750  1
  N  N3_4  1  0.76690050  0.37500000  0.32925750  1
  N  N3_5  1  0.76690050  0.37500000  0.82925750  1
  N  N3_6  1  0.76690050  0.87500000  0.32925750  1
  N  N3_7  1  0.76690050  0.87500000  0.82925750  1
loop_
_geom_bond_atom_site_label_1
_geom_bond_atom_site_label_2
_geom_bond_distance
_geom_bond_site_symmetry_2
K0_0 N1_0 2.875764 1_555
K0_0 N0_0 2.912988 1_555
K0_0 N3_3 3.456665 1_544
K0_0 N3_1 3.456665 1_554
K0_0 K0_2 3.528429 1_555
K0_0 K0_2 3.528429 1_545
K0_1 N1_1 2.875764 1_555
K0_1 N0_1 2.912988 1_555
K0_1 N3_2 3.456665 1_545
K0_1 N3_0 3.456665 1_555
K0_1 K0_3 3.528429 1_555
K0_1 K0_3 3.528429 1_545
K0_2 N1_2 2.875764 1_555
K0_2 N0_2 2.912988 1_555
K0_2 N3_1 3.456665 1_554
K0_2 N3_3 3.456665 1_554
K0_3 N1_3 2.875764 1_555
K0_3 N0_3 2.912988 1_555
K0_3 N3_0 3.456665 1_555
K0_3 N3_2 3.456665 1_555
K0_4 N1_4 2.875764 1_555
K0_4 N0_4 2.912988 1_555
K0_4 N3_5 3.456665 1_554
K0_4 N3_7 3.456665 1_544
K0_4 K0_6 3.528429 1_555
K0_4 K0_6 3.528429 1_545
K0_5 N1_5 2.875764 1_555
K0_5 N0_5 2.912988 1_555
K0_5 N3_4 3.456665 1_555
K0_5 N3_6 3.456665 1_545
K0_5 K0_7 3.528429 1_555
K0_5 K0_7 3.528429 1_545
K0_6 N1_6 2.875764 1_555
K0_6 N0_6 2.912988 1_555
K0_6 N3_5 3.456665 1_554
K0_6 N3_7 3.456665 1_554
K0_7 N1_7 2.875764 1_555
K0_7 N0_7 2.912988 1_555
K0_7 N3_4 3.456665 1_555
K0_7 N3_6 3.456665 1_555
K1_0 N0_4 2.875764 1_455
K1_0 N1_0 2.912988 1_555
K1_0 N2_2 3.456665 1_545
K1_0 N2_0 3.456665 1_555
K1_0 K1_2 3.528429 1_555
K1_0 K1_2 3.528429 1_545
K1_1 N0_5 2.875764 1_455
K1_1 N1_1 2.912988 1_555
K1_1 N2_3 3.456665 1_545
K1_1 N2_1 3.456665 1_555
K1_1 K1_3 3.528429 1_555
K1_1 K1_3 3.528429 1_545
K1_2 N0_6 2.875764 1_455
K1_2 N1_2 2.912988 1_555
K1_2 N2_0 3.456665 1_555
K1_2 N2_2 3.456665 1_555
K1_3 N0_7 2.875764 1_455
K1_3 N1_3 2.912988 1_555
K1_3 N2_1 3.456665 1_555
K1_3 N2_3 3.456665 1_555
K1_4 N0_0 2.875764 1_555
K1_4 N1_4 2.912988 1_555
K1_4 N2_6 3.456665 1_545
K1_4 N2_4 3.456665 1_555
K1_4 K1_6 3.528429 1_555
K1_4 K1_6 3.528429 1_545
K1_5 N0_1 2.875764 1_555
K1_5 N1_5 2.912988 1_555
K1_5 N2_5 3.456665 1_555
K1_5 N2_7 3.456665 1_545
K1_5 K1_7 3.528429 1_555
K1_5 K1_7 3.528429 1_545
K1_6 N0_2 2.875764 1_555
K1_6 N1_6 2.912988 1_555
K1_6 N2_4 3.456665 1_555
K1_6 N2_6 3.456665 1_555
K1_7 N0_3 2.875764 1_555
K1_7 N1_7 2.912988 1_555
K1_7 N2_5 3.456665 1_555
K1_7 N2_7 3.456665 1_555
K2_0 N3_0 2.875764 1_555
K2_0 N2_0 2.912988 1_555
K2_0 N1_3 3.456665 1_555
K2_0 N1_1 3.456665 1_555
K2_0 K2_2 3.528429 1_555
K2_0 K2_2 3.528429 1_545
K2_1 N3_1 2.875764 1_555
K2_1 N2_1 2.912988 1_555
K2_1 N1_2 3.456665 1_556
K2_1 N1_0 3.456665 1_556
K2_1 K2_3 3.528429 1_555
K2_1 K2_3 3.528429 1_545
K2_2 N3_2 2.875764 1_555
K2_2 N2_2 2.912988 1_555
K2_2 N1_1 3.456665 1_565
K2_2 N1_3 3.456665 1_555
K2_3 N3_3 2.875764 1_555
K2_3 N2_3 2.912988 1_555
K2_3 N1_0 3.456665 1_566
K2_3 N1_2 3.456665 1_556
K2_4 N3_4 2.875764 1_555
K2_4 N2_4 2.912988 1_555
K2_4 N1_7 3.456665 1_555
K2_4 N1_5 3.456665 1_555
K2_4 K2_6 3.528429 1_555
K2_4 K2_6 3.528429 1_545
K2_5 N3_5 2.875764 1_555
K2_5 N2_5 2.912988 1_555
K2_5 N1_6 3.456665 1_556
K2_5 N1_4 3.456665 1_556
K2_5 K2_7 3.528429 1_545
K2_5 K2_7 3.528429 1_555
K2_6 N3_6 2.875764 1_555
K2_6 N2_6 2.912988 1_555
K2_6 N1_5 3.456665 1_565
K2_6 N1_7 3.456665 1_555
K2_7 N3_7 2.875764 1_555
K2_7 N2_7 2.912988 1_555
K2_7 N1_4 3.456665 1_566
K2_7 N1_6 3.456665 1_556
K3_0 N2_4 2.875764 1_555
K3_0 N3_0 2.912988 1_555
K3_0 N0_2 3.456665 1_555
K3_0 N0_0 3.456665 1_555
K3_0 K3_2 3.528429 1_545
K3_0 K3_2 3.528429 1_555
K3_1 N2_5 2.875764 1_555
K3_1 N3_1 2.912988 1_555
K3_1 N0_3 3.456665 1_555
K3_1 N0_1 3.456665 1_555
K3_1 K3_3 3.528429 1_555
K3_1 K3_3 3.528429 1_545
K3_2 N2_6 2.875764 1_555
K3_2 N3_2 2.912988 1_555
K3_2 N0_0 3.456665 1_565
K3_2 N0_2 3.456665 1_555
K3_3 N2_7 2.875764 1_555
K3_3 N3_3 2.912988 1_555
K3_3 N0_1 3.456665 1_565
K3_3 N0_3 3.456665 1_555
K3_4 N2_0 2.875764 1_655
K3_4 N3_4 2.912988 1_555
K3_4 N0_6 3.456665 1_555
K3_4 N0_4 3.456665 1_555
K3_4 K3_6 3.528429 1_555
K3_4 K3_6 3.528429 1_545
K3_5 N2_1 2.875764 1_655
K3_5 N3_5 2.912988 1_555
K3_5 N0_7 3.456665 1_555
K3_5 N0_5 3.456665 1_555
K3_5 K3_7 3.528429 1_545
K3_5 K3_7 3.528429 1_555
K3_6 N2_2 2.875764 1_655
K3_6 N3_6 2.912988 1_555
K3_6 N0_4 3.456665 1_565
K3_6 N0_6 3.456665 1_555
K3_7 N2_3 2.875764 1_655
K3_7 N3_7 2.912988 1_555
K3_7 N0_5 3.456665 1_565
K3_7 N0_7 3.456665 1_555
Fe0_0 N3_0 1.797661 1_555
Fe0_0 N3_2 1.797661 1_545
Fe0_0 N1_0 1.871057 1_555
Fe0_0 K0_1 3.313167 1_555
Fe0_0 K3_2 3.446566 1_545
Fe0_0 K3_0 3.446566 1_555
Fe0_1 N3_3 1.797661 1_545
Fe0_1 N3_1 1.797661 1_555
Fe0_1 N1_1 1.871057 1_555
Fe0_1 K0_0 3.313167 1_556
Fe0_1 K3_1 3.446566 1_555
Fe0_1 K3_3 3.446566 1_545
Fe0_2 N3_0 1.797661 1_555
Fe0_2 N3_2 1.797661 1_555
Fe0_2 N1_2 1.871057 1_555
Fe0_2 K0_3 3.313167 1_555
Fe0_2 K3_0 3.446566 1_555
Fe0_2 K3_2 3.446566 1_555
Fe0_3 N3_1 1.797661 1_555
Fe0_3 N3_3 1.797661 1_555
Fe0_3 N1_3 1.871057 1_555
Fe0_3 K0_2 3.313167 1_556
Fe0_3 K3_1 3.446566 1_555
Fe0_3 K3_3 3.446566 1_555
Fe0_4 N3_4 1.797661 1_555
Fe0_4 N3_6 1.797661 1_545
Fe0_4 N1_4 1.871057 1_555
Fe0_4 K0_5 3.313167 1_555
Fe0_4 K3_6 3.446566 1_545
Fe0_4 K3_4 3.446566 1_555
Fe0_5 N3_7 1.797661 1_545
Fe0_5 N3_5 1.797661 1_555
Fe0_5 N1_5 1.871057 1_555
Fe0_5 K0_4 3.313167 1_556
Fe0_5 K3_5 3.446566 1_555
Fe0_5 K3_7 3.446566 1_545
Fe0_6 N3_4 1.797661 1_555
Fe0_6 N3_6 1.797661 1_555
Fe0_6 N1_6 1.871057 1_555
Fe0_6 K0_7 3.313167 1_555
Fe0_6 K3_4 3.446566 1_555
Fe0_6 K3_6 3.446566 1_555
Fe0_7 N3_5 1.797661 1_555
Fe0_7 N3_7 1.797661 1_555
Fe0_7 N1_7 1.871057 1_555
Fe0_7 K0_6 3.313167 1_556
Fe0_7 K3_5 3.446566 1_555
Fe0_7 K3_7 3.446566 1_555
Fe1_0 N2_2 1.797661 1_545
Fe1_0 N2_0 1.797661 1_555
Fe1_0 N0_5 1.871057 1_455
Fe1_0 K1_0 3.313167 1_555
Fe1_0 K2_0 3.446566 1_555
Fe1_0 K2_2 3.446566 1_545
Fe1_1 N2_1 1.797661 1_555
Fe1_1 N2_3 1.797661 1_545
Fe1_1 N0_4 1.871057 1_456
Fe1_1 K1_1 3.313167 1_555
Fe1_1 K2_3 3.446566 1_545
Fe1_1 K2_1 3.446566 1_555
Fe1_2 N2_0 1.797661 1_555
Fe1_2 N2_2 1.797661 1_555
Fe1_2 N0_7 1.871057 1_455
Fe1_2 K1_2 3.313167 1_555
Fe1_2 K2_0 3.446566 1_555
Fe1_2 K2_2 3.446566 1_555
Fe1_3 N2_1 1.797661 1_555
Fe1_3 N2_3 1.797661 1_555
Fe1_3 N0_6 1.871057 1_456
Fe1_3 K1_3 3.313167 1_555
Fe1_3 K2_1 3.446566 1_555
Fe1_3 K2_3 3.446566 1_555
Fe1_4 N2_6 1.797661 1_545
Fe1_4 N2_4 1.797661 1_555
Fe1_4 N0_1 1.871057 1_555
Fe1_4 K1_4 3.313167 1_555
Fe1_4 K2_6 3.446566 1_545
Fe1_4 K2_4 3.446566 1_555
Fe1_5 N2_5 1.797661 1_555
Fe1_5 N2_7 1.797661 1_545
Fe1_5 N0_0 1.871057 1_556
Fe1_5 K1_5 3.313167 1_555
Fe1_5 K2_5 3.446566 1_555
Fe1_5 K2_7 3.446566 1_545
Fe1_6 N2_4 1.797661 1_555
Fe1_6 N2_6 1.797661 1_555
Fe1_6 N0_3 1.871057 1_555
Fe1_6 K1_6 3.313167 1_555
Fe1_6 K2_4 3.446566 1_555
Fe1_6 K2_6 3.446566 1_555
Fe1_7 N2_5 1.797661 1_555
Fe1_7 N2_7 1.797661 1_555
Fe1_7 N0_2 1.871057 1_556
Fe1_7 K1_7 3.313167 1_555
Fe1_7 K2_5 3.446566 1_555
Fe1_7 K2_7 3.446566 1_555
Fe2_0 N1_2 1.797661 1_555
Fe2_0 N1_0 1.797661 1_555
Fe2_0 N3_0 1.871057 1_555
Fe2_0 K2_1 3.313167 1_554
Fe2_0 K1_0 3.446566 1_555
Fe2_0 K1_2 3.446566 1_555
Fe2_1 N1_3 1.797661 1_555
Fe2_1 N1_1 1.797661 1_555
Fe2_1 N3_1 1.871057 1_555
Fe2_1 K2_0 3.313167 1_555
Fe2_1 K1_3 3.446566 1_555
Fe2_1 K1_1 3.446566 1_555
Fe2_2 N1_0 1.797661 1_565
Fe2_2 N1_2 1.797661 1_555
Fe2_2 N3_2 1.871057 1_555
Fe2_2 K2_3 3.313167 1_554
Fe2_2 K1_0 3.446566 1_565
Fe2_2 K1_2 3.446566 1_555
Fe2_3 N1_1 1.797661 1_565
Fe2_3 N1_3 1.797661 1_555
Fe2_3 N3_3 1.871057 1_555
Fe2_3 K2_2 3.313167 1_555
Fe2_3 K1_1 3.446566 1_565
Fe2_3 K1_3 3.446566 1_555
Fe2_4 N1_6 1.797661 1_555
Fe2_4 N1_4 1.797661 1_555
Fe2_4 N3_4 1.871057 1_555
Fe2_4 K2_5 3.313167 1_554
Fe2_4 K1_6 3.446566 1_555
Fe2_4 K1_4 3.446566 1_555
Fe2_5 N1_7 1.797661 1_555
Fe2_5 N1_5 1.797661 1_555
Fe2_5 N3_5 1.871057 1_555
Fe2_5 K2_4 3.313167 1_555
Fe2_5 K1_5 3.446566 1_555
Fe2_5 K1_7 3.446566 1_555
Fe2_6 N1_4 1.797661 1_565
Fe2_6 N1_6 1.797661 1_555
Fe2_6 N3_6 1.871057 1_555
Fe2_6 K2_7 3.313167 1_554
Fe2_6 K1_4 3.446566 1_565
Fe2_6 K1_6 3.446566 1_555
Fe2_7 N1_5 1.797661 1_565
Fe2_7 N1_7 1.797661 1_555
Fe2_7 N3_7 1.871057 1_555
Fe2_7 K2_6 3.313167 1_555
Fe2_7 K1_5 3.446566 1_565
Fe2_7 K1_7 3.446566 1_555
Fe3_0 N0_2 1.797661 1_555
Fe3_0 N0_0 1.797661 1_555
Fe3_0 N2_5 1.871057 1_554
Fe3_0 K3_0 3.313167 1_555
Fe3_0 K0_2 3.446566 1_555
Fe3_0 K0_0 3.446566 1_555
Fe3_1 N0_3 1.797661 1_555
Fe3_1 N0_1 1.797661 1_555
Fe3_1 N2_4 1.871057 1_555
Fe3_1 K3_1 3.313167 1_555
Fe3_1 K0_1 3.446566 1_555
Fe3_1 K0_3 3.446566 1_555
Fe3_2 N0_0 1.797661 1_565
Fe3_2 N0_2 1.797661 1_555
Fe3_2 N2_7 1.871057 1_554
Fe3_2 K3_2 3.313167 1_555
Fe3_2 K0_0 3.446566 1_565
Fe3_2 K0_2 3.446566 1_555
Fe3_3 N0_1 1.797661 1_565
Fe3_3 N0_3 1.797661 1_555
Fe3_3 N2_6 1.871057 1_555
Fe3_3 K3_3 3.313167 1_555
Fe3_3 K0_1 3.446566 1_565
Fe3_3 K0_3 3.446566 1_555
Fe3_4 N0_6 1.797661 1_555
Fe3_4 N0_4 1.797661 1_555
Fe3_4 N2_1 1.871057 1_654
Fe3_4 K3_4 3.313167 1_555
Fe3_4 K0_6 3.446566 1_555
Fe3_4 K0_4 3.446566 1_555
Fe3_5 N0_7 1.797661 1_555
Fe3_5 N0_5 1.797661 1_555
Fe3_5 N2_0 1.871057 1_655
Fe3_5 K3_5 3.313167 1_555
Fe3_5 K0_7 3.446566 1_555
Fe3_5 K0_5 3.446566 1_555
Fe3_6 N0_4 1.797661 1_565
Fe3_6 N0_6 1.797661 1_555
Fe3_6 N2_3 1.871057 1_654
Fe3_6 K3_6 3.313167 1_555
Fe3_6 K0_4 3.446566 1_565
Fe3_6 K0_6 3.446566 1_555
Fe3_7 N0_5 1.797661 1_565
Fe3_7 N0_7 1.797661 1_555
Fe3_7 N2_2 1.871057 1_655
Fe3_7 K3_7 3.313167 1_555
Fe3_7 K0_5 3.446566 1_565
Fe3_7 K0_7 3.446566 1_555
