# generated using pymatgen
data_YMg14SiO16
_symmetry_space_group_name_H-M   'P 1'
_cell_length_a   8.77129200
_cell_length_b   8.77129200
_cell_length_c   4.38088700
_cell_angle_alpha   90.00000000
_cell_angle_beta   90.00000000
_cell_angle_gamma   90.00000000
_symmetry_Int_Tables_number   1
_chemical_formula_structural   YMg14SiO16
_chemical_formula_sum   'Y1 Mg14 Si1 O16'
_cell_volume   337.04600931
_cell_formula_units_Z   1
loop_
 _symmetry_equiv_pos_site_id
 _symmetry_equiv_pos_as_xyz
  1  'x, y, z'
loop_
 _atom_site_type_symbol
 _atom_site_label
 _atom_site_symmetry_multiplicity
 _atom_site_fract_x
 _atom_site_fract_y
 _atom_site_fract_z
 _atom_site_occupancy
  Y  Y0  1  0.00000000  0.00000000  0.00000000  1
  Mg  Mg0  1  0.50000000  0.00000000  0.00000000  1
  Mg  Mg1  1  0.00000000  0.50000000  0.00000000  1
  Mg  Mg2  1  0.26343300  0.00000000  0.50000000  1
  Mg  Mg3  1  0.73656700  0.00000000  0.50000000  1
  Mg  Mg4  1  0.24921600  0.50000000  0.50000000  1
  Mg  Mg5  1  0.75078400  0.50000000  0.50000000  1
  Mg  Mg6  1  0.00000000  0.26343300  0.50000000  1
  Mg  Mg7  1  0.50000000  0.24921600  0.50000000  1
  Mg  Mg8  1  0.00000000  0.73656700  0.50000000  1
  Mg  Mg9  1  0.50000000  0.75078400  0.50000000  1
  Mg  Mg10  1  0.25681600  0.25681600  0.00000000  1
  Mg  Mg11  1  0.74318400  0.25681600  0.00000000  1
  Mg  Mg12  1  0.25681600  0.74318400  0.00000000  1
  Mg  Mg13  1  0.74318400  0.74318400  0.00000000  1
  Si  Si0  1  0.50000000  0.50000000  0.00000000  1
  O  O0  1  0.00000000  0.25773800  0.00000000  1
  O  O1  1  0.50000000  0.23755200  0.00000000  1
  O  O2  1  0.00000000  0.74226200  0.00000000  1
  O  O3  1  0.50000000  0.76244800  0.00000000  1
  O  O4  1  0.25146500  0.25146500  0.50000000  1
  O  O5  1  0.74853500  0.25146500  0.50000000  1
  O  O6  1  0.25146500  0.74853500  0.50000000  1
  O  O7  1  0.74853500  0.74853500  0.50000000  1
  O  O8  1  0.00000000  0.00000000  0.50000000  1
  O  O9  1  0.50000000  0.00000000  0.50000000  1
  O  O10  1  0.00000000  0.50000000  0.50000000  1
  O  O11  1  0.50000000  0.50000000  0.50000000  1
  O  O12  1  0.25773800  0.00000000  0.00000000  1
  O  O13  1  0.74226200  0.00000000  0.00000000  1
  O  O14  1  0.23755200  0.50000000  0.00000000  1
  O  O15  1  0.76244800  0.50000000  0.00000000  1
loop_
_geom_bond_atom_site_label_1
_geom_bond_atom_site_label_2
_geom_bond_distance
_geom_bond_site_symmetry_2
Mg0 O1 2.083638 1_555
Mg0 O3 2.083638 1_545
Mg0 O13 2.124951 1_555
Mg0 O12 2.124951 1_555
Mg0 O9 2.190443 1_554
Mg0 O9 2.190443 1_555
Mg1 O14 2.083638 1_555
Mg1 O15 2.083638 1_455
Mg1 O2 2.124951 1_555
Mg1 O0 2.124951 1_555
Mg1 O10 2.190443 1_555
Mg1 O10 2.190443 1_554
Mg2 O9 2.074998 1_555
Mg2 O12 2.191013 1_556
Mg2 O12 2.191013 1_555
Mg2 O4 2.208170 1_555
Mg2 O6 2.208170 1_545
Mg2 O8 2.310648 1_555
Mg3 O9 2.074998 1_555
Mg3 O13 2.191013 1_555
Mg3 O13 2.191013 1_556
Mg3 O5 2.208170 1_555
Mg3 O7 2.208170 1_545
Mg3 O8 2.310648 1_655
Mg4 O6 2.180062 1_555
Mg4 O4 2.180062 1_555
Mg4 O10 2.185946 1_555
Mg4 O14 2.192831 1_556
Mg4 O14 2.192831 1_555
Mg4 O11 2.199700 1_555
Mg5 O7 2.180062 1_555
Mg5 O5 2.180062 1_555
Mg5 O10 2.185946 1_655
Mg5 O15 2.192831 1_556
Mg5 O15 2.192831 1_555
Mg5 O11 2.199700 1_555
Mg6 O10 2.074998 1_555
Mg6 O0 2.191013 1_555
Mg6 O0 2.191013 1_556
Mg6 O4 2.208170 1_555
Mg6 O5 2.208170 1_455
Mg6 O8 2.310648 1_555
Mg7 O5 2.180062 1_555
Mg7 O4 2.180062 1_555
Mg7 O9 2.185946 1_555
Mg7 O1 2.192831 1_556
Mg7 O1 2.192831 1_555
Mg7 O11 2.199700 1_555
Mg8 O10 2.074998 1_555
Mg8 O2 2.191013 1_555
Mg8 O2 2.191013 1_556
Mg8 O6 2.208170 1_555
Mg8 O7 2.208170 1_455
Mg8 O8 2.310648 1_565
Mg9 O7 2.180062 1_555
Mg9 O6 2.180062 1_555
Mg9 O9 2.185946 1_565
Mg9 O3 2.192831 1_556
Mg9 O3 2.192831 1_555
Mg9 O11 2.199700 1_555
Mg10 O1 2.139720 1_555
Mg10 O14 2.139720 1_555
Mg10 O4 2.191449 1_554
Mg10 O4 2.191449 1_555
Mg10 O12 2.252623 1_555
Mg10 O0 2.252623 1_555
Mg11 O1 2.139720 1_555
Mg11 O15 2.139720 1_555
Mg11 O5 2.191449 1_554
Mg11 O5 2.191449 1_555
Mg11 O13 2.252623 1_555
Mg11 O0 2.252623 1_655
Mg12 O14 2.139720 1_555
Mg12 O3 2.139720 1_555
Mg12 O6 2.191449 1_554
Mg12 O6 2.191449 1_555
Mg12 O2 2.252623 1_555
Mg12 O12 2.252623 1_565
Mg13 O15 2.139720 1_555
Mg13 O3 2.139720 1_555
Mg13 O7 2.191449 1_555
Mg13 O7 2.191449 1_554
Mg13 O2 2.252623 1_655
Mg13 O13 2.252623 1_565
O0 Y0 2.260695 1_555
O1 Si0 2.302008 1_555
O2 Y0 2.260695 1_565
O3 Si0 2.302008 1_555
O8 Y0 2.190443 1_555
O8 Y0 2.190443 1_556
O11 Si0 2.190443 1_556
O11 Si0 2.190443 1_555
O12 Y0 2.260695 1_555
O13 Y0 2.260695 1_655
O14 Si0 2.302008 1_555
O15 Si0 2.302008 1_555
