# generated using pymatgen
data_TaCuO4
_symmetry_space_group_name_H-M   'P 1'
_cell_length_a   8.99845300
_cell_length_b   6.50200300
_cell_length_c   11.73662357
_cell_angle_alpha   88.17357751
_cell_angle_beta   90.00000000
_cell_angle_gamma   90.00000000
_symmetry_Int_Tables_number   1
_chemical_formula_structural   TaCuO4
_chemical_formula_sum   'Ta8 Cu8 O32'
_cell_volume   686.33714312
_cell_formula_units_Z   8
loop_
 _symmetry_equiv_pos_site_id
 _symmetry_equiv_pos_as_xyz
  1  'x, y, z'
loop_
 _atom_site_type_symbol
 _atom_site_label
 _atom_site_symmetry_multiplicity
 _atom_site_fract_x
 _atom_site_fract_y
 _atom_site_fract_z
 _atom_site_occupancy
  Ta  Ta0  1  0.57632000  0.91079700  0.87385000  1
  Ta  Ta1  1  0.92368000  0.91079700  0.37385000  1
  Ta  Ta2  1  0.89531900  0.39219400  0.14359300  1
  Ta  Ta3  1  0.07632000  0.08920300  0.62615000  1
  Ta  Ta4  1  0.10468100  0.60780600  0.85640700  1
  Ta  Ta5  1  0.39531900  0.60780600  0.35640700  1
  Ta  Ta6  1  0.60468100  0.39219400  0.64359300  1
  Ta  Ta7  1  0.42368000  0.08920300  0.12615000  1
  Cu  Cu0  1  0.88644200  0.17824200  0.88998500  1
  Cu  Cu1  1  0.95647000  0.62737900  0.61031900  1
  Cu  Cu2  1  0.04353000  0.37262100  0.38968100  1
  Cu  Cu3  1  0.11355800  0.82175800  0.11001500  1
  Cu  Cu4  1  0.61355800  0.17824200  0.38998500  1
  Cu  Cu5  1  0.54353000  0.62737900  0.11031900  1
  Cu  Cu6  1  0.38644200  0.82175800  0.61001500  1
  Cu  Cu7  1  0.45647000  0.37262100  0.88968100  1
  O  O0  1  0.71448400  0.93090100  0.37187800  1
  O  O1  1  0.01476300  0.36143100  0.58743600  1
  O  O2  1  0.34550000  0.81188900  0.45769900  1
  O  O3  1  0.84550000  0.18811100  0.04230100  1
  O  O4  1  0.78551600  0.93090100  0.87187800  1
  O  O5  1  0.28551600  0.06909900  0.62812200  1
  O  O6  1  0.92466400  0.89938100  0.56687600  1
  O  O7  1  0.07047600  0.54235200  0.11516900  1
  O  O8  1  0.42952400  0.54235200  0.61516900  1
  O  O9  1  0.11611900  0.72217600  0.70189100  1
  O  O10  1  0.61611900  0.27782400  0.79810900  1
  O  O11  1  0.92952400  0.45764800  0.88483100  1
  O  O12  1  0.07533600  0.10061900  0.43312400  1
  O  O13  1  0.48468300  0.11811700  0.27545400  1
  O  O14  1  0.75127500  0.58066200  0.62562500  1
  O  O15  1  0.74872500  0.58066200  0.12562500  1
  O  O16  1  0.98468300  0.88188300  0.22454600  1
  O  O17  1  0.57047600  0.45764800  0.38483100  1
  O  O18  1  0.51531700  0.88188300  0.72454600  1
  O  O19  1  0.65450000  0.18811100  0.54230100  1
  O  O20  1  0.48523700  0.36143100  0.08743600  1
  O  O21  1  0.88388100  0.27782400  0.29810900  1
  O  O22  1  0.21448400  0.06909900  0.12812200  1
  O  O23  1  0.57533600  0.89938100  0.06687600  1
  O  O24  1  0.15450000  0.81188900  0.95769900  1
  O  O25  1  0.25127500  0.41933800  0.87437500  1
  O  O26  1  0.98523700  0.63856900  0.41256400  1
  O  O27  1  0.51476300  0.63856900  0.91256400  1
  O  O28  1  0.42466400  0.10061900  0.93312400  1
  O  O29  1  0.24872500  0.41933800  0.37437500  1
  O  O30  1  0.38388100  0.72217600  0.20189100  1
  O  O31  1  0.01531700  0.11811700  0.77545400  1
loop_
_geom_bond_atom_site_label_1
_geom_bond_atom_site_label_2
_geom_bond_distance
_geom_bond_site_symmetry_2
Cu0 O31 1.827038 1_655
Cu0 O3 1.828372 1_556
Cu0 O11 1.856701 1_555
Cu0 O4 1.864961 1_545
Cu1 O1 1.834938 1_655
Cu1 O6 1.847215 1_555
Cu1 O14 1.878933 1_555
Cu1 O9 1.908146 1_655
Cu1 O26 2.334195 1_555
Cu2 O26 1.834938 1_455
Cu2 O12 1.847215 1_555
Cu2 O29 1.878933 1_555
Cu2 O21 1.908146 1_455
Cu2 O1 2.334195 1_555
Cu3 O16 1.827038 1_455
Cu3 O24 1.828372 1_554
Cu3 O7 1.856701 1_555
Cu3 O22 1.864961 1_565
Cu4 O13 1.827038 1_555
Cu4 O19 1.828372 1_555
Cu4 O17 1.856701 1_555
Cu4 O0 1.864961 1_545
Cu5 O20 1.834938 1_555
Cu5 O23 1.847215 1_555
Cu5 O15 1.878933 1_555
Cu5 O30 1.908146 1_555
Cu5 O27 2.334195 1_554
Cu6 O18 1.827038 1_555
Cu6 O2 1.828372 1_555
Cu6 O8 1.856701 1_555
Cu6 O5 1.864961 1_565
Cu7 O27 1.834938 1_555
Cu7 O28 1.847215 1_555
Cu7 O25 1.878933 1_555
Cu7 O10 1.908146 1_555
Cu7 O20 2.334195 1_556
O0 Ta1 1.887064 1_555
O1 Ta3 1.896051 1_555
O1 O12 2.578507 1_555
O2 Ta5 1.864302 1_555
O3 Ta2 1.864302 1_555
O4 Ta0 1.887064 1_555
O5 Ta3 1.887064 1_555
O6 Ta3 1.980991 1_665
O6 Ta1 2.264341 1_555
O7 Ta2 1.878289 1_455
O8 Ta6 1.878289 1_555
O9 Ta4 1.940719 1_555
O9 Ta3 2.545233 1_565
O10 Ta6 1.940719 1_555
O10 Ta0 2.545233 1_545
O11 Ta4 1.878289 1_655
O12 Ta1 1.980991 1_445
O12 Ta3 2.264341 1_555
O12 O6 2.425615 1_445
O13 Ta7 1.851570 1_555
O14 Ta6 1.808239 1_555
O15 Ta2 1.808239 1_555
O16 Ta1 1.851570 1_555
O17 Ta5 1.878289 1_555
O18 Ta0 1.851570 1_555
O19 Ta6 1.864302 1_555
O20 Ta7 1.896051 1_555
O20 O28 2.578507 1_554
O21 Ta2 1.940719 1_555
O21 Ta1 2.545233 1_545
O22 Ta7 1.887064 1_555
O23 Ta7 1.980991 1_565
O23 Ta0 2.264341 1_554
O23 O28 2.425615 1_564
O23 O27 2.578507 1_554
O24 Ta4 1.864302 1_555
O25 Ta4 1.808239 1_555
O26 Ta1 1.896051 1_555
O26 O6 2.578507 1_555
O27 Ta0 1.896051 1_555
O28 Ta0 1.980991 1_545
O28 Ta7 2.264341 1_556
O29 Ta5 1.808239 1_555
O30 Ta5 1.940719 1_555
O30 Ta7 2.545233 1_565
O31 Ta3 1.851570 1_555
