# generated using pymatgen
data_Gd2AlCd
_symmetry_space_group_name_H-M   'P 1'
_cell_length_a   5.24072520
_cell_length_b   5.24072520
_cell_length_c   5.24072520
_cell_angle_alpha   60.00000000
_cell_angle_beta   60.00000000
_cell_angle_gamma   60.00000000
_symmetry_Int_Tables_number   1
_chemical_formula_structural   Gd2AlCd
_chemical_formula_sum   'Gd2 Al1 Cd1'
_cell_volume   101.77923135
_cell_formula_units_Z   1
loop_
 _symmetry_equiv_pos_site_id
 _symmetry_equiv_pos_as_xyz
  1  'x, y, z'
loop_
 _atom_site_type_symbol
 _atom_site_label
 _atom_site_symmetry_multiplicity
 _atom_site_fract_x
 _atom_site_fract_y
 _atom_site_fract_z
 _atom_site_occupancy
  Gd  Gd0  1  0.25000000  0.25000000  0.25000000  1
  Gd  Gd1  1  0.75000000  0.75000000  0.75000000  1
  Al  Al0  1  0.50000000  0.50000000  0.50000000  1
  Cd  Cd0  1  0.00000000  0.00000000  0.00000000  1
loop_
_geom_bond_atom_site_label_1
_geom_bond_atom_site_label_2
_geom_bond_distance
_geom_bond_site_symmetry_2
Gd0 Gd1 3.705752 1_445
Gd0 Gd1 3.705752 1_545
Gd0 Gd1 3.705752 1_454
Gd0 Gd1 3.705752 1_554
Gd0 Gd1 3.705752 1_455
Gd0 Gd1 3.705752 1_544
Al0 Gd0 3.209276 1_556
Al0 Gd1 3.209276 1_554
Al0 Gd0 3.209276 1_555
Al0 Gd1 3.209276 1_555
Al0 Gd1 3.209276 1_545
Al0 Gd0 3.209276 1_565
Al0 Gd0 3.209276 1_655
Al0 Gd1 3.209276 1_455
Al0 Cd0 3.705752 1_656
Al0 Cd0 3.705752 1_566
Al0 Cd0 3.705752 1_655
Al0 Cd0 3.705752 1_565
Al0 Cd0 3.705752 1_665
Al0 Cd0 3.705752 1_556
Cd0 Gd1 3.209276 1_445
Cd0 Gd1 3.209276 1_444
Cd0 Gd0 3.209276 1_555
Cd0 Gd0 3.209276 1_554
Cd0 Gd1 3.209276 1_544
Cd0 Gd0 3.209276 1_545
Cd0 Gd0 3.209276 1_455
Cd0 Gd1 3.209276 1_454
