# generated using pymatgen
data_Eu2Cu2O5
_symmetry_space_group_name_H-M   'P 1'
_cell_length_a   8.69468312
_cell_length_b   8.69468312
_cell_length_c   8.69468312
_cell_angle_alpha   144.23289749
_cell_angle_beta   142.80951314
_cell_angle_gamma   52.55281635
_symmetry_Int_Tables_number   1
_chemical_formula_structural   Eu2Cu2O5
_chemical_formula_sum   'Eu4 Cu4 O10'
_cell_volume   230.85422117
_cell_formula_units_Z   2
loop_
 _symmetry_equiv_pos_site_id
 _symmetry_equiv_pos_as_xyz
  1  'x, y, z'
loop_
 _atom_site_type_symbol
 _atom_site_label
 _atom_site_symmetry_multiplicity
 _atom_site_fract_x
 _atom_site_fract_y
 _atom_site_fract_z
 _atom_site_occupancy
  Eu  Eu0  1  0.90468300  0.39067200  0.51935900  1
  Eu  Eu1  1  0.09531700  0.61467500  0.48598900  1
  Eu  Eu2  1  0.37131400  0.89067200  0.48598900  1
  Eu  Eu3  1  0.62868600  0.11467500  0.51935900  1
  Cu  Cu0  1  0.00000000  0.00959800  0.00959800  1
  Cu  Cu1  1  0.50000000  0.50959800  0.00959800  1
  Cu  Cu2  1  0.70299600  0.72041700  0.92341300  1
  Cu  Cu3  1  0.29700400  0.22041700  0.01742100  1
  O  O0  1  0.26523300  0.26944900  0.51069800  1
  O  O1  1  0.73476700  0.24546500  0.00421700  1
  O  O2  1  0.25875100  0.76944900  0.00421700  1
  O  O3  1  0.74124900  0.74546500  0.51069800  1
  O  O4  1  0.92493200  0.89616800  0.09436200  1
  O  O5  1  0.07506800  0.16942900  0.97123600  1
  O  O6  1  0.30180700  0.39616800  0.97123600  1
  O  O7  1  0.69819300  0.66942900  0.09436200  1
  O  O8  1  0.64549700  0.34812400  0.49362200  1
  O  O9  1  0.35450300  0.84812400  0.70262700  1
loop_
_geom_bond_atom_site_label_1
_geom_bond_atom_site_label_2
_geom_bond_distance
_geom_bond_site_symmetry_2
Eu0 O8 2.311142 1_555
Eu0 O6 2.375446 1_655
Eu0 O1 2.527196 1_555
Eu0 O3 2.533148 1_555
Eu0 O4 2.550513 1_545
Eu0 O0 2.678295 1_655
Eu0 O2 2.686379 1_656
Eu0 O4 2.867608 1_556
Eu1 O9 2.311142 1_555
Eu1 O7 2.375446 1_455
Eu1 O0 2.527196 1_555
Eu1 O2 2.533151 1_556
Eu1 O5 2.550513 1_554
Eu1 O1 2.678293 1_455
Eu1 O3 2.686379 1_455
Eu1 O5 2.867608 1_565
Eu2 O9 2.311142 1_555
Eu2 O4 2.375448 1_455
Eu2 O3 2.527196 1_555
Eu2 O1 2.533141 1_566
Eu2 O6 2.550513 1_554
Eu2 O2 2.678281 1_555
Eu2 O0 2.686379 1_565
Eu2 O6 2.867608 1_565
Eu3 O8 2.311142 1_555
Eu3 O5 2.375448 1_655
Eu3 O2 2.527196 1_545
Eu3 O0 2.533139 1_555
Eu3 O7 2.550513 1_545
Eu3 O3 2.678284 1_545
Eu3 O1 2.686379 1_556
Eu3 O7 2.867608 1_556
Cu0 O2 1.928758 1_545
Cu0 O3 1.928759 1_444
Cu0 O0 1.938741 1_555
Cu0 O1 1.938741 1_455
Cu0 O5 2.161142 1_554
Cu0 O4 2.161151 1_445
Cu1 O0 1.928759 1_554
Cu1 O1 1.928760 1_555
Cu1 O2 1.938740 1_555
Cu1 O3 1.938741 1_555
Cu1 O7 2.161135 1_555
Cu1 O6 2.161142 1_554
Cu2 O4 1.896887 1_556
Cu2 O7 1.896901 1_556
Cu2 O8 2.013442 1_555
Cu2 O9 2.049240 1_555
Cu3 O6 1.896893 1_554
Cu3 O5 1.896893 1_554
Cu3 O9 2.013445 1_544
Cu3 O8 2.049243 1_555
