# generated using pymatgen
data_Li9Co7O16
_symmetry_space_group_name_H-M   'P 1'
_cell_length_a   2.94181500
_cell_length_b   10.03008789
_cell_length_c   10.19155969
_cell_angle_alpha   108.05437328
_cell_angle_beta   91.02614449
_cell_angle_gamma   91.86215013
_symmetry_Int_Tables_number   1
_chemical_formula_structural   Li9Co7O16
_chemical_formula_sum   'Li9 Co7 O16'
_cell_volume   285.63748254
_cell_formula_units_Z   1
loop_
 _symmetry_equiv_pos_site_id
 _symmetry_equiv_pos_as_xyz
  1  'x, y, z'
loop_
 _atom_site_type_symbol
 _atom_site_label
 _atom_site_symmetry_multiplicity
 _atom_site_fract_x
 _atom_site_fract_y
 _atom_site_fract_z
 _atom_site_occupancy
  Li  Li0  1  0.49758400  0.00075700  0.75128300  1
  Li  Li1  1  0.99943800  0.24805600  0.25092300  1
  Li  Li2  1  0.49894000  0.50005000  0.74574200  1
  Li  Li3  1  0.99248600  0.25310800  0.75024000  1
  Li  Li4  1  0.50106000  0.49995000  0.25425800  1
  Li  Li5  1  0.00056200  0.75194400  0.74907700  1
  Li  Li6  1  0.00751400  0.74689200  0.24976000  1
  Li  Li7  1  0.50241600  0.99924300  0.24871700  1
  Li  Li8  1  0.00000000  0.50000000  0.50000000  1
  Co  Co0  1  0.50496700  0.74229800  0.50036300  1
  Co  Co1  1  0.49503300  0.25770200  0.49963700  1
  Co  Co2  1  0.00000000  0.00000000  0.00000000  1
  Co  Co3  1  0.00000000  0.50000000  0.00000000  1
  Co  Co4  1  0.49982200  0.24959200  0.00012000  1
  Co  Co5  1  0.50017800  0.75040800  0.99988000  1
  Co  Co6  1  0.00000000  0.00000000  0.50000000  1
  O  O0  1  0.96688000  0.87978000  0.61141300  1
  O  O1  1  0.50737500  0.12051700  0.11681500  1
  O  O2  1  0.96823100  0.36352700  0.61474100  1
  O  O3  1  0.48707800  0.12460900  0.60470400  1
  O  O4  1  0.99906300  0.36953800  0.11822500  1
  O  O5  1  0.49782900  0.64323300  0.61398000  1
  O  O6  1  0.49587200  0.61870000  0.11574900  1
  O  O7  1  0.99740600  0.86752600  0.11831300  1
  O  O8  1  0.00259400  0.13247400  0.88168700  1
  O  O9  1  0.50217100  0.35676700  0.38602000  1
  O  O10  1  0.00093700  0.63046200  0.88177500  1
  O  O11  1  0.50412800  0.38130000  0.88425100  1
  O  O12  1  0.03176900  0.63647300  0.38525900  1
  O  O13  1  0.49262500  0.87948300  0.88318500  1
  O  O14  1  0.51292200  0.87539100  0.39529600  1
  O  O15  1  0.03312000  0.12022000  0.38858700  1
loop_
_geom_bond_atom_site_label_1
_geom_bond_atom_site_label_2
_geom_bond_distance
_geom_bond_site_symmetry_2
Li0 O13 2.073648 1_545
Li0 O8 2.105287 1_655
Li0 O0 2.125470 1_545
Li0 O0 2.160295 1_445
Li0 O8 2.176726 1_555
Li0 O3 2.219659 1_555
Li1 O9 2.040498 1_655
Li1 O1 2.079655 1_555
Li1 O4 2.082093 1_555
Li1 O9 2.114207 1_555
Li1 O15 2.177303 1_655
Li1 O1 2.202483 1_655
Li2 O11 2.110483 1_555
Li2 O10 2.119201 1_655
Li2 O2 2.149242 1_555
Li2 O2 2.179057 1_455
Li2 O10 2.202864 1_555
Li2 O5 2.249734 1_555
Li3 O2 2.021951 1_555
Li3 O8 2.065237 1_655
Li3 O11 2.120419 1_655
Li3 O3 2.164096 1_555
Li3 O11 2.164349 1_555
Li3 O3 2.234369 1_655
Li4 O6 2.110483 1_555
Li4 O4 2.119201 1_455
Li4 O12 2.149242 1_555
Li4 O12 2.179057 1_655
Li4 O4 2.202864 1_555
Li4 O9 2.249734 1_555
Li5 O5 2.040498 1_455
Li5 O13 2.079655 1_555
Li5 O10 2.082093 1_555
Li5 O5 2.114207 1_555
Li5 O0 2.177303 1_455
Li5 O13 2.202483 1_455
Li6 O12 2.021951 1_555
Li6 O7 2.065237 1_455
Li6 O6 2.120419 1_455
Li6 O14 2.164096 1_555
Li6 O6 2.164349 1_555
Li6 O14 2.234369 1_455
Li7 O1 2.073648 1_565
Li7 O7 2.105287 1_455
Li7 O15 2.125470 1_565
Li7 O15 2.160295 1_665
Li7 O7 2.176726 1_555
Li7 O14 2.219659 1_555
Li8 O2 2.058567 1_455
Li8 O12 2.058567 1_555
Li8 O5 2.079918 1_555
Li8 O9 2.079918 1_455
Li8 O5 2.181904 1_455
Li8 O9 2.181904 1_555
Co0 O5 1.743913 1_555
Co0 O12 1.874647 1_555
Co0 O14 1.952971 1_555
Co0 O0 1.970968 1_555
Co0 O12 2.074788 1_655
Co0 O0 2.219648 1_455
Co1 O9 1.743913 1_555
Co1 O2 1.874647 1_555
Co1 O3 1.952971 1_555
Co1 O15 1.970968 1_555
Co1 O2 2.074788 1_455
Co1 O15 2.219648 1_655
Co2 O1 2.008355 1_555
Co2 O13 2.008355 1_444
Co2 O8 2.052381 1_554
Co2 O7 2.052381 1_445
Co2 O1 2.064556 1_455
Co2 O13 2.064556 1_544
Co3 O6 1.972816 1_555
Co3 O11 1.972816 1_454
Co3 O10 2.035003 1_554
Co3 O4 2.035003 1_455
Co3 O6 2.077348 1_455
Co3 O11 2.077348 1_554
Co4 O8 1.980579 1_554
Co4 O4 1.994360 1_555
Co4 O1 2.011544 1_555
Co4 O11 2.026377 1_554
Co4 O8 2.079048 1_654
Co4 O4 2.085054 1_455
Co5 O7 1.980579 1_556
Co5 O10 1.994360 1_555
Co5 O13 2.011544 1_555
Co5 O6 2.026377 1_556
Co5 O7 2.079048 1_456
Co5 O10 2.085054 1_655
Co6 O0 1.896781 1_445
Co6 O15 1.896781 1_555
Co6 O3 1.938077 1_555
Co6 O14 1.938077 1_445
Co6 O3 2.081153 1_455
Co6 O14 2.081153 1_545
