# generated using pymatgen
data_Li2V3FeO8
_symmetry_space_group_name_H-M   'P 1'
_cell_length_a   5.92953542
_cell_length_b   5.92953542
_cell_length_c   9.60379995
_cell_angle_alpha   89.46096246
_cell_angle_beta   89.46096246
_cell_angle_gamma   120.28557948
_symmetry_Int_Tables_number   1
_chemical_formula_structural   Li2V3FeO8
_chemical_formula_sum   'Li4 V6 Fe2 O16'
_cell_volume   291.52818050
_cell_formula_units_Z   2
loop_
 _symmetry_equiv_pos_site_id
 _symmetry_equiv_pos_as_xyz
  1  'x, y, z'
loop_
 _atom_site_type_symbol
 _atom_site_label
 _atom_site_symmetry_multiplicity
 _atom_site_fract_x
 _atom_site_fract_y
 _atom_site_fract_z
 _atom_site_occupancy
  Li  Li0  1  0.33405600  0.66968900  0.10649300  1
  Li  Li1  1  0.00348800  0.99979300  0.00485100  1
  Li  Li2  1  0.99979300  0.00348800  0.50485100  1
  Li  Li3  1  0.66968900  0.33405600  0.60649300  1
  V  V0  1  0.17734700  0.34188900  0.78338100  1
  V  V1  1  0.65764400  0.82757200  0.79028600  1
  V  V2  1  0.17585600  0.83303500  0.78372300  1
  V  V3  1  0.83303500  0.17585600  0.28372300  1
  V  V4  1  0.34188900  0.17734700  0.28338100  1
  V  V5  1  0.82757200  0.65764400  0.29028600  1
  Fe  Fe0  1  0.32836300  0.66821800  0.50657700  1
  Fe  Fe1  1  0.66821800  0.32836300  0.00657700  1
  O  O0  1  0.16356200  0.33093900  0.39688400  1
  O  O1  1  0.47179300  0.51059700  0.66330300  1
  O  O2  1  0.31131600  0.65371600  0.89988400  1
  O  O3  1  0.00988000  0.00455400  0.69005300  1
  O  O4  1  0.00455400  0.00988000  0.19005300  1
  O  O5  1  0.67455200  0.84467100  0.39828400  1
  O  O6  1  0.04036900  0.52133200  0.66227900  1
  O  O7  1  0.47116600  0.96140400  0.66409300  1
  O  O8  1  0.84509400  0.16778600  0.89598600  1
  O  O9  1  0.16778600  0.84509400  0.39598600  1
  O  O10  1  0.52133200  0.04036900  0.16227900  1
  O  O11  1  0.96140400  0.47116600  0.16409300  1
  O  O12  1  0.65371600  0.31131600  0.39988400  1
  O  O13  1  0.33093900  0.16356200  0.89688400  1
  O  O14  1  0.51059700  0.47179300  0.16330300  1
  O  O15  1  0.84467100  0.67455200  0.89828400  1
loop_
_geom_bond_atom_site_label_1
_geom_bond_atom_site_label_2
_geom_bond_distance
_geom_bond_site_symmetry_2
Li0 O11 1.978759 1_455
Li0 O10 1.980593 1_565
Li0 O2 1.989979 1_554
Li0 O14 2.002014 1_555
Li1 O4 1.780174 1_565
Li1 O13 1.956916 1_564
Li1 O15 1.969006 1_454
Li1 O8 1.977364 1_464
Li2 O3 1.780174 1_655
Li2 O0 1.956916 1_655
Li2 O5 1.969006 1_545
Li2 O9 1.977364 1_645
Li3 O7 1.978759 1_545
Li3 O6 1.980593 1_655
Li3 O12 1.989979 1_555
Li3 O1 2.002014 1_555
Fe0 O9 2.034668 1_555
Fe0 O0 2.037696 1_555
Fe0 O5 2.040391 1_555
Fe0 O6 2.082796 1_555
Fe0 O7 2.148602 1_555
Fe0 O1 2.159092 1_555
Fe1 O8 2.034668 1_554
Fe1 O13 2.037696 1_554
Fe1 O15 2.040391 1_554
Fe1 O10 2.082796 1_555
Fe1 O11 2.148602 1_555
Fe1 O14 2.159092 1_555
O0 V4 2.025843 1_555
O0 V3 2.027040 1_455
O1 V0 1.886177 1_555
O1 V1 2.052692 1_555
O2 V0 1.968721 1_555
O2 V2 1.968805 1_555
O2 V1 2.047291 1_555
O3 V2 1.954781 1_545
O3 V0 1.958951 1_555
O3 V1 2.030419 1_445
O4 V3 1.954781 1_455
O4 V4 1.958951 1_555
O4 V5 2.030419 1_445
O5 V3 2.007125 1_565
O5 V5 2.036591 1_555
O6 V2 1.995574 1_555
O6 V0 2.002655 1_555
O7 V2 1.888622 1_555
O7 V1 2.052632 1_555
O8 V0 2.001025 1_655
O8 V1 2.033135 1_545
O9 V4 2.001025 1_565
O9 V5 2.033135 1_455
O10 V3 1.995574 1_555
O10 V4 2.002655 1_555
O11 V3 1.888622 1_555
O11 V5 2.052632 1_555
O12 V4 1.968721 1_555
O12 V3 1.968805 1_555
O12 V5 2.047291 1_555
O13 V0 2.025843 1_555
O13 V2 2.027040 1_545
O14 V4 1.886177 1_555
O14 V5 2.052692 1_555
O15 V2 2.007125 1_655
O15 V1 2.036591 1_555
