# generated using pymatgen
data_Rb2Ni3Se4
_symmetry_space_group_name_H-M   'P 1'
_cell_length_a   6.06373358
_cell_length_b   6.09102290
_cell_length_c   14.26902289
_cell_angle_alpha   83.92884178
_cell_angle_beta   77.73233197
_cell_angle_gamma   60.14809517
_symmetry_Int_Tables_number   1
_chemical_formula_structural   Rb2Ni3Se4
_chemical_formula_sum   'Rb4 Ni6 Se8'
_cell_volume   446.65228676
_cell_formula_units_Z   2
loop_
 _symmetry_equiv_pos_site_id
 _symmetry_equiv_pos_as_xyz
  1  'x, y, z'
loop_
 _atom_site_type_symbol
 _atom_site_label
 _atom_site_symmetry_multiplicity
 _atom_site_fract_x
 _atom_site_fract_y
 _atom_site_fract_z
 _atom_site_occupancy
  Rb  Rb0  1  0.54790693  0.75000000  0.90418514  1
  Rb  Rb1  1  0.70209307  0.75000000  0.59581486  1
  Rb  Rb2  1  0.45209307  0.25000000  0.09581486  1
  Rb  Rb3  1  0.29790693  0.25000000  0.40418514  1
  Ni  Ni0  1  0.87538120  0.75000000  0.24923660  1
  Ni  Ni1  1  0.37461880  0.75000000  0.25076340  1
  Ni  Ni2  1  0.12461880  0.25000000  0.75076340  1
  Ni  Ni3  1  0.12500000  0.75000000  0.75000000  1
  Ni  Ni4  1  0.87500000  0.25000000  0.25000000  1
  Ni  Ni5  1  0.62538120  0.25000000  0.74923660  1
  Se  Se0  1  0.23910690  0.41700955  0.85959515  1
  Se  Se1  1  0.01571160  0.08299045  0.64040485  1
  Se  Se2  1  0.34388355  0.41700955  0.64040485  1
  Se  Se3  1  0.90129695  0.08299045  0.85959515  1
  Se  Se4  1  0.76089310  0.58299045  0.14040485  1
  Se  Se5  1  0.98428840  0.91700955  0.35959515  1
  Se  Se6  1  0.65611645  0.58299045  0.35959515  1
  Se  Se7  1  0.09870305  0.91700955  0.14040485  1
loop_
_geom_bond_atom_site_label_1
_geom_bond_atom_site_label_2
_geom_bond_distance
_geom_bond_site_symmetry_2
Rb0 Se3 3.547523 1_565
Rb0 Se0 3.547523 1_555
Rb0 Se0 3.572412 1_655
Rb0 Se3 3.572412 1_465
Rb0 Se0 3.578160 1_565
Rb0 Se3 3.578160 1_555
Rb0 Se7 3.725662 1_556
Rb0 Se4 3.725667 1_556
Rb0 Rb2 4.051461 1_556
Rb0 Rb2 4.051466 1_566
Rb0 Rb1 4.299668 1_555
Rb1 Se2 3.547523 1_655
Rb1 Se1 3.547528 1_565
Rb1 Se1 3.572407 1_665
Rb1 Se2 3.572412 1_555
Rb1 Se1 3.578160 1_655
Rb1 Se2 3.578160 1_565
Rb1 Se5 3.725664 1_555
Rb1 Se6 3.725667 1_555
Rb1 Rb3 4.051461 1_655
Rb1 Rb3 4.051466 1_565
Rb2 Se7 3.547523 1_545
Rb2 Se4 3.547523 1_555
Rb2 Se4 3.572412 1_455
Rb2 Se7 3.572412 1_645
Rb2 Se4 3.578160 1_545
Rb2 Se7 3.578160 1_555
Rb2 Se3 3.725662 1_554
Rb2 Se0 3.725667 1_554
Rb2 Rb3 4.299668 1_555
Rb3 Se6 3.547523 1_455
Rb3 Se5 3.547528 1_545
Rb3 Se5 3.572407 1_445
Rb3 Se6 3.572412 1_555
Rb3 Se5 3.578160 1_455
Rb3 Se6 3.578160 1_545
Rb3 Se1 3.725664 1_555
Rb3 Se2 3.725667 1_555
Ni0 Se6 2.323821 1_555
Ni0 Se5 2.323825 1_555
Ni0 Se4 2.328877 1_555
Ni0 Se7 2.328885 1_655
Ni0 Rb2 3.721727 1_565
Ni0 Rb2 3.721732 1_655
Ni0 Rb3 3.734007 1_565
Ni0 Rb3 3.734007 1_655
Ni1 Se4 2.323821 1_555
Ni1 Se7 2.323821 1_555
Ni1 Se6 2.328877 1_555
Ni1 Se5 2.328881 1_455
Ni1 Rb3 3.721727 1_565
Ni1 Rb3 3.721732 1_555
Ni1 Rb2 3.734007 1_565
Ni1 Rb2 3.734007 1_555
Ni2 Se2 2.323821 1_555
Ni2 Se1 2.323825 1_555
Ni2 Se0 2.328877 1_555
Ni2 Se3 2.328885 1_455
Ni2 Rb0 3.721727 1_545
Ni2 Rb0 3.721732 1_455
Ni2 Rb1 3.734007 1_545
Ni2 Rb1 3.734007 1_455
Ni3 Se1 2.330209 1_565
Ni3 Se0 2.330209 1_555
Ni3 Se2 2.330209 1_555
Ni3 Se3 2.330209 1_465
Ni3 Rb1 3.716717 1_455
Ni3 Rb0 3.716717 1_555
Ni3 Rb1 3.716722 1_555
Ni3 Rb0 3.716722 1_455
Ni4 Se5 2.330209 1_545
Ni4 Se4 2.330209 1_555
Ni4 Se6 2.330209 1_555
Ni4 Se7 2.330209 1_645
Ni4 Rb3 3.716717 1_655
Ni4 Rb2 3.716717 1_555
Ni4 Rb3 3.716722 1_555
Ni4 Rb2 3.716722 1_655
Ni5 Se0 2.323821 1_555
Ni5 Se3 2.323821 1_555
Ni5 Se2 2.328877 1_555
Ni5 Se1 2.328881 1_655
Ni5 Rb1 3.721727 1_545
Ni5 Rb1 3.721732 1_555
Ni5 Rb0 3.734007 1_545
Ni5 Rb0 3.734007 1_555
