# generated using pymatgen
data_NaMg6Al
_symmetry_space_group_name_H-M   'P 1'
_cell_length_a   5.15433800
_cell_length_b   6.42555700
_cell_length_c   11.09605500
_cell_angle_alpha   90.00000000
_cell_angle_beta   90.00000000
_cell_angle_gamma   90.00000000
_symmetry_Int_Tables_number   1
_chemical_formula_structural   NaMg6Al
_chemical_formula_sum   'Na2 Mg12 Al2'
_cell_volume   367.49571164
_cell_formula_units_Z   2
loop_
 _symmetry_equiv_pos_site_id
 _symmetry_equiv_pos_as_xyz
  1  'x, y, z'
loop_
 _atom_site_type_symbol
 _atom_site_label
 _atom_site_symmetry_multiplicity
 _atom_site_fract_x
 _atom_site_fract_y
 _atom_site_fract_z
 _atom_site_occupancy
  Na  Na0  1  0.50000000  0.50000000  0.16820000  1
  Na  Na1  1  0.50000000  0.00000000  0.66820000  1
  Mg  Mg0  1  0.00000000  0.24624600  0.08281500  1
  Mg  Mg1  1  0.00000000  0.75375400  0.08281500  1
  Mg  Mg2  1  0.00000000  0.50000000  0.83304300  1
  Mg  Mg3  1  0.50000000  0.24406900  0.91551000  1
  Mg  Mg4  1  0.50000000  0.75593100  0.91551000  1
  Mg  Mg5  1  0.50000000  0.50000000  0.66549700  1
  Mg  Mg6  1  0.00000000  0.74624600  0.58281500  1
  Mg  Mg7  1  0.00000000  0.25375400  0.58281500  1
  Mg  Mg8  1  0.00000000  0.00000000  0.33304300  1
  Mg  Mg9  1  0.50000000  0.74406900  0.41551000  1
  Mg  Mg10  1  0.50000000  0.25593100  0.41551000  1
  Mg  Mg11  1  0.50000000  0.00000000  0.16549700  1
  Al  Al0  1  0.00000000  0.50000000  0.33661000  1
  Al  Al1  1  0.00000000  0.00000000  0.83661000  1
loop_
_geom_bond_atom_site_label_1
_geom_bond_atom_site_label_2
_geom_bond_distance
_geom_bond_site_symmetry_2
Mg0 Mg11 3.160233 1_455
Mg0 Mg11 3.160233 1_555
Mg0 Mg1 3.164535 1_545
Mg0 Mg3 3.176210 1_454
Mg0 Mg3 3.176210 1_554
Mg0 Na0 3.193431 1_555
Mg0 Na0 3.193431 1_455
Mg0 Mg8 3.195742 1_555
Mg0 Mg2 3.215539 1_554
Mg0 Mg1 3.261022 1_555
Mg1 Mg11 3.160233 1_565
Mg1 Mg11 3.160233 1_465
Mg1 Mg4 3.176210 1_554
Mg1 Mg4 3.176210 1_454
Mg1 Na0 3.193431 1_555
Mg1 Na0 3.193431 1_455
Mg1 Mg8 3.195742 1_565
Mg1 Mg2 3.215539 1_554
Mg2 Mg5 3.177743 1_555
Mg2 Mg5 3.177743 1_455
Mg2 Mg4 3.191161 1_555
Mg2 Mg4 3.191161 1_455
Mg2 Mg3 3.191161 1_455
Mg2 Mg3 3.191161 1_555
Mg2 Mg6 3.195742 1_555
Mg2 Mg7 3.195742 1_555
Mg3 Mg4 3.136559 1_545
Mg3 Na1 3.160687 1_555
Mg3 Mg5 3.224954 1_555
Mg3 Na0 3.250542 1_556
Mg3 Mg4 3.288998 1_555
Mg4 Na1 3.160687 1_565
Mg4 Mg5 3.224954 1_555
Mg4 Na0 3.250542 1_556
Mg5 Mg6 3.160233 1_555
Mg5 Mg7 3.160233 1_555
Mg5 Mg6 3.160233 1_655
Mg5 Mg7 3.160233 1_655
Mg5 Mg9 3.186511 1_555
Mg5 Na1 3.212918 1_565
Mg5 Na1 3.212918 1_555
Mg6 Mg7 3.164535 1_555
Mg6 Mg9 3.176210 1_455
Mg6 Mg9 3.176210 1_555
Mg6 Na1 3.193431 1_465
Mg6 Na1 3.193431 1_565
Mg6 Mg8 3.215539 1_565
Mg6 Mg7 3.261022 1_565
Mg7 Na1 3.193431 1_455
Mg7 Na1 3.193431 1_555
Mg7 Mg8 3.215539 1_555
Mg8 Mg9 3.191161 1_445
Mg8 Mg9 3.191161 1_545
Mg9 Na0 3.160687 1_555
Mg9 Na1 3.250542 1_565
Mg10 Mg9 3.136559 1_555
Mg10 Na0 3.160687 1_555
Mg10 Mg7 3.176210 1_555
Mg10 Mg7 3.176210 1_655
Mg10 Mg5 3.186511 1_555
Mg10 Mg8 3.191161 1_555
Mg10 Mg8 3.191161 1_655
Mg10 Mg11 3.224954 1_555
Mg10 Na1 3.250542 1_555
Mg10 Mg9 3.288998 1_545
Mg11 Mg8 3.177743 1_555
Mg11 Mg8 3.177743 1_655
Mg11 Mg3 3.186511 1_554
Mg11 Mg4 3.186511 1_544
Mg11 Na0 3.212918 1_555
Mg11 Na0 3.212918 1_545
Mg11 Mg9 3.224954 1_545
Al0 Mg9 3.141300 1_555
Al0 Mg9 3.141300 1_455
Al0 Mg10 3.141300 1_455
Al0 Mg10 3.141300 1_555
Al0 Mg6 3.157035 1_555
Al0 Mg7 3.157035 1_555
Al0 Na0 3.183361 1_455
Al0 Na0 3.183361 1_555
Al0 Mg8 3.213022 1_565
Al0 Mg8 3.213022 1_555
Al0 Mg1 3.254092 1_555
Al0 Mg0 3.254092 1_555
Al1 Mg3 3.141300 1_555
Al1 Mg3 3.141300 1_455
Al1 Mg4 3.141300 1_445
Al1 Mg4 3.141300 1_545
Al1 Mg0 3.157035 1_556
Al1 Mg1 3.157035 1_546
Al1 Na1 3.183361 1_555
Al1 Na1 3.183361 1_455
Al1 Mg2 3.213022 1_555
Al1 Mg2 3.213022 1_545
Al1 Mg6 3.254092 1_545
Al1 Mg7 3.254092 1_555
