# generated using pymatgen
data_Pr2VFeO6
_symmetry_space_group_name_H-M   'P 1'
_cell_length_a   5.68608100
_cell_length_b   5.52720800
_cell_length_c   9.66148850
_cell_angle_alpha   55.14408701
_cell_angle_beta   90.00000000
_cell_angle_gamma   90.00000000
_symmetry_Int_Tables_number   1
_chemical_formula_structural   Pr2VFeO6
_chemical_formula_sum   'Pr4 V2 Fe2 O12'
_cell_volume   249.16676068
_cell_formula_units_Z   2
loop_
 _symmetry_equiv_pos_site_id
 _symmetry_equiv_pos_as_xyz
  1  'x, y, z'
loop_
 _atom_site_type_symbol
 _atom_site_label
 _atom_site_symmetry_multiplicity
 _atom_site_fract_x
 _atom_site_fract_y
 _atom_site_fract_z
 _atom_site_occupancy
  Pr  Pr0  1  0.55413100  0.73735200  0.74983000  1
  Pr  Pr1  1  0.05413100  0.26264800  0.75017000  1
  Pr  Pr2  1  0.44586900  0.26264800  0.25017000  1
  Pr  Pr3  1  0.94586900  0.73735200  0.24983000  1
  V  V0  1  0.00000000  0.00000000  0.50000000  1
  V  V1  1  0.50000000  0.00000000  0.00000000  1
  Fe  Fe0  1  0.00000000  0.50000000  0.00000000  1
  Fe  Fe1  1  0.50000000  0.50000000  0.50000000  1
  O  O0  1  0.97510900  0.83819200  0.75159500  1
  O  O1  1  0.47510900  0.16180800  0.74840500  1
  O  O2  1  0.02489100  0.16180800  0.24840500  1
  O  O3  1  0.52489100  0.83819200  0.25159500  1
  O  O4  1  0.79253000  0.25083900  0.95319200  1
  O  O5  1  0.29253000  0.74916100  0.54680800  1
  O  O6  1  0.20772300  0.34501700  0.45271000  1
  O  O7  1  0.70772300  0.65498300  0.04729000  1
  O  O8  1  0.20747000  0.74916100  0.04680800  1
  O  O9  1  0.70747000  0.25083900  0.45319200  1
  O  O10  1  0.79227700  0.65498300  0.54729000  1
  O  O11  1  0.29227700  0.34501700  0.95271000  1
loop_
_geom_bond_atom_site_label_1
_geom_bond_atom_site_label_2
_geom_bond_distance
_geom_bond_site_symmetry_2
Fe0 O0 2.036216 1_454
Fe0 O2 2.036216 1_555
Fe0 O7 2.037612 1_455
Fe0 O11 2.037612 1_554
Fe0 O8 2.050525 1_555
Fe0 O4 2.050525 1_454
Fe1 O3 2.036216 1_555
Fe1 O1 2.036216 1_555
Fe1 O10 2.037612 1_555
Fe1 O6 2.037612 1_555
Fe1 O5 2.050525 1_555
Fe1 O9 2.050525 1_555
O0 V0 2.060021 1_665
O0 Pr1 2.380997 1_665
O0 Pr0 2.460016 1_555
O1 V1 2.060021 1_556
O1 Pr0 2.380997 1_545
O1 Pr1 2.460016 1_555
O2 V0 2.060021 1_555
O2 Pr3 2.380997 1_445
O2 Pr2 2.460016 1_555
O3 V1 2.060021 1_565
O3 Pr2 2.380997 1_565
O3 Pr3 2.460016 1_555
O4 V1 2.043719 1_556
O4 Pr1 2.432692 1_655
O4 Pr0 2.624850 1_555
O4 Pr3 2.780577 1_546
O5 V0 2.043719 1_565
O5 Pr0 2.432692 1_555
O5 Pr1 2.624850 1_555
O5 Pr2 2.780577 1_565
O6 V0 2.060216 1_555
O6 Pr3 2.429594 1_455
O6 Pr2 2.624583 1_555
O6 Pr1 2.780968 1_555
O7 V1 2.060216 1_565
O7 Pr2 2.429594 1_555
O7 Pr3 2.624583 1_555
O7 Pr0 2.780968 1_554
O8 V1 2.043719 1_565
O8 Pr3 2.432692 1_455
O8 Pr2 2.624850 1_555
O8 Pr1 2.780577 1_564
O9 V0 2.043719 1_655
O9 Pr2 2.432692 1_555
O9 Pr3 2.624850 1_555
O9 Pr0 2.780577 1_545
O10 V0 2.060216 1_665
O10 Pr1 2.429594 1_655
O10 Pr0 2.624583 1_555
O10 Pr3 2.780968 1_555
O11 V1 2.060216 1_556
O11 Pr0 2.429594 1_555
O11 Pr1 2.624583 1_555
O11 Pr2 2.780968 1_556
