# generated using pymatgen
data_Gd2Cr2C3
_symmetry_space_group_name_H-M   'P 1'
_cell_length_a   5.47595319
_cell_length_b   5.47595319
_cell_length_c   5.62681339
_cell_angle_alpha   75.62417286
_cell_angle_beta   75.62417286
_cell_angle_gamma   36.36739465
_symmetry_Int_Tables_number   1
_chemical_formula_structural   Gd2Cr2C3
_chemical_formula_sum   'Gd2 Cr2 C3'
_cell_volume   96.57112106
_cell_formula_units_Z   1
loop_
 _symmetry_equiv_pos_site_id
 _symmetry_equiv_pos_as_xyz
  1  'x, y, z'
loop_
 _atom_site_type_symbol
 _atom_site_label
 _atom_site_symmetry_multiplicity
 _atom_site_fract_x
 _atom_site_fract_y
 _atom_site_fract_z
 _atom_site_occupancy
  Gd  Gd0  1  0.39660948  0.39660948  0.81810675  1
  Gd  Gd1  1  0.60339052  0.60339052  0.18189325  1
  Cr  Cr0  1  0.15737888  0.15737888  0.60782319  1
  Cr  Cr1  1  0.84262112  0.84262112  0.39217681  1
  C  C0  1  0.00000000  0.00000000  0.50000000  1
  C  C1  1  0.71004613  0.71004613  0.72594987  1
  C  C2  1  0.28995387  0.28995387  0.27405013  1
loop_
_geom_bond_atom_site_label_1
_geom_bond_atom_site_label_2
_geom_bond_distance
_geom_bond_site_symmetry_2
Gd0 Gd1 3.334831 1_556
C0 Cr1 1.889135 1_445
C0 Cr0 1.889135 1_555
C0 Gd0 2.504972 1_455
C0 Gd0 2.504972 1_545
C0 Gd1 2.504972 1_545
C0 Gd1 2.504972 1_455
C1 Cr0 1.962817 1_655
C1 Cr0 1.962817 1_565
C1 Cr1 2.018903 1_555
C1 Gd1 2.515018 1_556
C1 Gd0 2.735578 1_655
C1 Gd0 2.735578 1_565
C2 Cr1 1.962817 1_545
C2 Cr1 1.962817 1_455
C2 Cr0 2.018903 1_555
C2 Gd0 2.515018 1_554
C2 Gd1 2.735578 1_455
C2 Gd1 2.735578 1_545
