# generated using pymatgen
data_Li5Fe3(SbO5)2
_symmetry_space_group_name_H-M   'P 1'
_cell_length_a   5.41061001
_cell_length_b   8.28363167
_cell_length_c   10.59662418
_cell_angle_alpha   101.23324210
_cell_angle_beta   80.80695536
_cell_angle_gamma   70.08122194
_symmetry_Int_Tables_number   1
_chemical_formula_structural   Li5Fe3(SbO5)2
_chemical_formula_sum   'Li10 Fe6 Sb4 O20'
_cell_volume   424.59703183
_cell_formula_units_Z   2
loop_
 _symmetry_equiv_pos_site_id
 _symmetry_equiv_pos_as_xyz
  1  'x, y, z'
loop_
 _atom_site_type_symbol
 _atom_site_label
 _atom_site_symmetry_multiplicity
 _atom_site_fract_x
 _atom_site_fract_y
 _atom_site_fract_z
 _atom_site_occupancy
  Li  Li0  1  0.00098200  0.49718200  0.49647800  1
  Li  Li1  1  0.00268400  0.49804900  0.99933200  1
  Li  Li2  1  0.80694500  0.42006600  0.26196100  1
  Li  Li3  1  0.82238400  0.40658200  0.74586000  1
  Li  Li4  1  0.18853800  0.59278000  0.73565000  1
  Li  Li5  1  0.16534400  0.59294400  0.25076900  1
  Li  Li6  1  0.61531500  0.78701800  0.74124600  1
  Li  Li7  1  0.59708100  0.83098200  0.26383100  1
  Li  Li8  1  0.37637200  0.21894900  0.26231100  1
  Li  Li9  1  0.41842900  0.17759300  0.73495800  1
  Fe  Fe0  1  0.99988300  0.00494000  0.24975900  1
  Fe  Fe1  1  0.80760900  0.88656300  0.99437900  1
  Fe  Fe2  1  0.19358200  0.11402000  0.50250100  1
  Fe  Fe3  1  0.99710700  0.99627100  0.74895200  1
  Fe  Fe4  1  0.81139000  0.89108300  0.49935900  1
  Fe  Fe5  1  0.20199100  0.10133400  0.99921100  1
  Sb  Sb0  1  0.39978300  0.71235200  0.49456400  1
  Sb  Sb1  1  0.40612000  0.69667700  0.00025200  1
  Sb  Sb2  1  0.59565300  0.30089700  0.49963100  1
  Sb  Sb3  1  0.59579600  0.29676700  0.00342900  1
  O  O0  1  0.21614000  0.84138000  0.88659500  1
  O  O1  1  0.20171500  0.88045400  0.37391300  1
  O  O2  1  0.80210100  0.14051400  0.10931000  1
  O  O3  1  0.78863300  0.14866300  0.61176800  1
  O  O4  1  0.39480800  0.94719800  0.62789500  1
  O  O5  1  0.41257400  0.91957400  0.11545500  1
  O  O6  1  0.60329400  0.07011400  0.38035700  1
  O  O7  1  0.58268400  0.08009300  0.88581800  1
  O  O8  1  0.61092700  0.51722200  0.61857400  1
  O  O9  1  0.59927900  0.52935900  0.11075600  1
  O  O10  1  0.40900800  0.42542300  0.37665500  1
  O  O11  1  0.40360700  0.46182300  0.89555100  1
  O  O12  1  0.96075500  0.25619200  0.37953200  1
  O  O13  1  0.95779600  0.24205500  0.88077700  1
  O  O14  1  0.97526100  0.77165300  0.64763100  1
  O  O15  1  0.04165700  0.74910500  0.11718500  1
  O  O16  1  0.79954200  0.66846000  0.37667800  1
  O  O17  1  0.76912300  0.65552800  0.88993400  1
  O  O18  1  0.23364600  0.33721500  0.61644000  1
  O  O19  1  0.23445800  0.33492700  0.11474400  1
loop_
_geom_bond_atom_site_label_1
_geom_bond_atom_site_label_2
_geom_bond_distance
_geom_bond_site_symmetry_2
Li0 O10 2.180700 1_555
Li0 O16 2.214194 1_455
Li0 O8 2.227236 1_455
Li0 O12 2.233066 1_455
Li0 O18 2.233279 1_555
Li0 O14 2.459378 1_455
Li1 O17 2.139286 1_455
Li1 O11 2.161177 1_555
Li1 O19 2.207584 1_556
Li1 O9 2.212898 1_456
Li1 O15 2.302199 1_556
Li1 O13 2.354677 1_455
Li2 O12 2.075548 1_555
Li2 O16 2.160286 1_555
Li2 O9 2.257575 1_555
Li2 O10 2.278731 1_555
Li2 O19 2.363953 1_655
Li2 O2 2.564226 1_555
Li3 O8 2.056322 1_555
Li3 O13 2.202641 1_555
Li3 O17 2.212312 1_555
Li3 O18 2.238095 1_655
Li3 O11 2.392036 1_555
Li3 O3 2.404788 1_555
Li4 O14 2.028385 1_455
Li4 O18 2.155121 1_555
Li4 O8 2.229512 1_555
Li4 O17 2.402600 1_455
Li4 O0 2.413307 1_555
Li4 O11 2.426505 1_555
Li5 O16 2.018953 1_455
Li5 O15 2.133354 1_555
Li5 O19 2.206473 1_555
Li5 O10 2.340900 1_555
Li5 O9 2.393947 1_555
Li5 O1 2.569871 1_555
Li6 O14 1.989407 1_555
Li6 O4 2.151029 1_555
Li6 O17 2.198041 1_555
Li6 O0 2.289949 1_555
Li6 O8 2.366265 1_555
Li6 O7 2.538594 1_565
Li7 O5 2.111661 1_555
Li7 O16 2.117372 1_555
Li7 O1 2.126928 1_555
Li7 O6 2.134334 1_565
Li7 O15 2.438083 1_655
Li7 O9 2.696022 1_555
Li8 O10 1.972652 1_555
Li8 O19 2.103347 1_555
Li8 O6 2.156938 1_555
Li8 O12 2.276054 1_455
Li8 O2 2.394408 1_555
Li8 O5 2.584198 1_545
Li9 O4 2.077206 1_545
Li9 O7 2.113191 1_555
Li9 O18 2.114854 1_555
Li9 O3 2.118772 1_555
Li9 O13 2.534868 1_455
Li9 O11 2.590856 1_555
Fe0 O1 2.051113 1_645
Fe0 O12 2.181572 1_555
Fe0 O6 2.186726 1_555
Fe0 O15 2.219927 1_645
Fe0 O2 2.227687 1_555
Fe0 O5 2.242318 1_645
Fe1 O17 2.109714 1_555
Fe1 O15 2.171398 1_656
Fe1 O0 2.189414 1_655
Fe1 O2 2.203844 1_566
Fe1 O5 2.208644 1_556
Fe1 O7 2.282749 1_565
Fe2 O18 2.100008 1_555
Fe2 O1 2.120770 1_545
Fe2 O12 2.187094 1_455
Fe2 O3 2.203428 1_455
Fe2 O4 2.238992 1_545
Fe2 O6 2.252143 1_555
Fe3 O14 2.010182 1_555
Fe3 O13 2.154932 1_565
Fe3 O4 2.181723 1_655
Fe3 O7 2.262979 1_565
Fe3 O3 2.290796 1_565
Fe3 O0 2.328826 1_655
Fe4 O16 2.065931 1_555
Fe4 O14 2.164840 1_555
Fe4 O3 2.184169 1_565
Fe4 O6 2.258712 1_565
Fe4 O1 2.272795 1_655
Fe4 O4 2.282563 1_555
Fe5 O7 2.144137 1_555
Fe5 O19 2.156678 1_556
Fe5 O2 2.171471 1_456
Fe5 O13 2.174832 1_455
Fe5 O0 2.219059 1_545
Fe5 O5 2.254898 1_546
O0 Sb1 2.015543 1_556
O1 Sb0 2.199238 1_555
O2 Sb3 2.040017 1_555
O3 Sb2 2.043416 1_555
O4 Sb0 2.159330 1_555
O5 Sb1 2.019910 1_555
O6 Sb2 2.059589 1_555
O7 Sb3 2.005800 1_556
O8 Sb2 2.015134 1_555
O8 Sb0 2.386139 1_555
O9 Sb3 2.045452 1_555
O9 Sb1 2.102565 1_555
O10 Sb2 2.004104 1_555
O10 Sb0 2.440300 1_555
O11 Sb1 2.048849 1_556
O11 Sb3 2.068213 1_556
O12 Sb2 2.042966 1_555
O13 Sb3 2.020683 1_556
O14 Sb0 2.424537 1_655
O15 Sb1 2.009648 1_555
O16 Sb0 2.189718 1_555
O17 Sb1 1.998818 1_556
O18 Sb2 2.034155 1_555
O19 Sb3 2.002581 1_555
