# generated using pymatgen
data_Na2TcF6
_symmetry_space_group_name_H-M   'P 1'
_cell_length_a   5.54392115
_cell_length_b   5.54391604
_cell_length_c   4.21389117
_cell_angle_alpha   89.99994359
_cell_angle_beta   90.00012639
_cell_angle_gamma   120.00011557
_symmetry_Int_Tables_number   1
_chemical_formula_structural   Na2TcF6
_chemical_formula_sum   'Na2 Tc1 F6'
_cell_volume   112.16235781
_cell_formula_units_Z   1
loop_
 _symmetry_equiv_pos_site_id
 _symmetry_equiv_pos_as_xyz
  1  'x, y, z'
loop_
 _atom_site_type_symbol
 _atom_site_label
 _atom_site_symmetry_multiplicity
 _atom_site_fract_x
 _atom_site_fract_y
 _atom_site_fract_z
 _atom_site_occupancy
  Na  Na0  1  0.33333300  0.66666700  0.67530387  1
  Na  Na1  1  0.66666700  0.33333300  0.32469613  1
  Tc  Tc0  1  0.00000000  0.00000000  -0.00000000  1
  F  F0  1  0.34286580  0.17143290  0.75683700  1
  F  F1  1  0.82856810  0.65713520  0.75683700  1
  F  F2  1  0.82856810  0.17143190  0.75683800  1
  F  F3  1  0.65713420  0.82856710  0.24316300  1
  F  F4  1  0.17143190  0.34286480  0.24316300  1
  F  F5  1  0.17143190  0.82856810  0.24316200  1
loop_
_geom_bond_atom_site_label_1
_geom_bond_atom_site_label_2
_geom_bond_distance
_geom_bond_site_symmetry_2
F0 Tc0 1.939014 1_556
F0 Na1 2.394346 1_555
F0 F5 2.628598 1_546
F0 F4 2.628609 1_556
F0 F1 2.692689 1_555
F0 F2 2.692698 1_555
F0 F4 2.719407 1_555
F0 F5 2.719408 1_545
F0 Na0 2.793541 1_545
F0 Na0 2.793546 1_555
F0 Na1 2.853559 1_556
F1 Tc0 1.939006 1_666
F1 Na1 2.394345 1_555
F1 F5 2.628594 1_656
F1 F3 2.628609 1_556
F1 F2 2.692698 1_555
F1 F3 2.719407 1_555
F1 F5 2.719408 1_655
F1 Na0 2.793542 1_655
F1 Na0 2.793551 1_555
F1 Na1 2.853563 1_556
F2 Tc0 1.939002 1_656
F2 Na1 2.394349 1_555
F2 F4 2.628594 1_656
F2 F3 2.628598 1_546
F2 F3 2.719408 1_545
F2 F4 2.719408 1_655
F2 Na0 2.793540 1_545
F2 Na0 2.793541 1_655
F2 Na1 2.853564 1_556
F3 Tc0 1.939014 1_665
F3 Na0 2.394346 1_555
F3 F4 2.692689 1_555
F3 F5 2.692698 1_555
F3 Na1 2.793541 1_565
F3 Na1 2.793546 1_555
F3 Na0 2.853559 1_554
F4 Tc0 1.939006 1_555
F4 Na0 2.394345 1_555
F4 F5 2.692698 1_555
F4 Na1 2.793542 1_455
F4 Na1 2.793551 1_555
F4 Na0 2.853563 1_554
F5 Tc0 1.939002 1_565
F5 Na0 2.394349 1_555
F5 Na1 2.793540 1_565
F5 Na1 2.793541 1_455
F5 Na0 2.853564 1_554
