# generated using pymatgen
data_Rb4Ta2S11
_symmetry_space_group_name_H-M   'P 1'
_cell_length_a   7.84373600
_cell_length_b   13.86015100
_cell_length_c   18.66958500
_cell_angle_alpha   90.00000000
_cell_angle_beta   90.00000000
_cell_angle_gamma   90.00000000
_symmetry_Int_Tables_number   1
_chemical_formula_structural   Rb4Ta2S11
_chemical_formula_sum   'Rb16 Ta8 S44'
_cell_volume   2029.67075447
_cell_formula_units_Z   4
loop_
 _symmetry_equiv_pos_site_id
 _symmetry_equiv_pos_as_xyz
  1  'x, y, z'
loop_
 _atom_site_type_symbol
 _atom_site_label
 _atom_site_symmetry_multiplicity
 _atom_site_fract_x
 _atom_site_fract_y
 _atom_site_fract_z
 _atom_site_occupancy
  Rb  Rb0  1  0.81385200  0.08547900  0.02687300  1
  Rb  Rb1  1  0.18614800  0.91452100  0.52687300  1
  Rb  Rb2  1  0.18614800  0.58547900  0.02687300  1
  Rb  Rb3  1  0.81385200  0.41452100  0.52687300  1
  Rb  Rb4  1  0.33071600  0.26905900  0.12674800  1
  Rb  Rb5  1  0.66928400  0.73094100  0.62674800  1
  Rb  Rb6  1  0.66928400  0.76905900  0.12674800  1
  Rb  Rb7  1  0.21028300  0.53966300  0.72870300  1
  Rb  Rb8  1  0.79529000  0.78616600  0.37893200  1
  Rb  Rb9  1  0.20471000  0.21383400  0.87893200  1
  Rb  Rb10  1  0.20471000  0.28616600  0.37893200  1
  Rb  Rb11  1  0.79529000  0.71383400  0.87893200  1
  Rb  Rb12  1  0.33071600  0.23094100  0.62674800  1
  Rb  Rb13  1  0.78971700  0.03966300  0.72870300  1
  Rb  Rb14  1  0.78971700  0.46033700  0.22870300  1
  Rb  Rb15  1  0.21028300  0.96033700  0.22870300  1
  Ta  Ta0  1  0.74124500  0.43702400  0.97060000  1
  Ta  Ta1  1  0.25875500  0.56297600  0.47060000  1
  Ta  Ta2  1  0.25875500  0.93702400  0.97060000  1
  Ta  Ta3  1  0.74124500  0.06297600  0.47060000  1
  Ta  Ta4  1  0.79466700  0.38011300  0.78971600  1
  Ta  Ta5  1  0.20533300  0.61988700  0.28971600  1
  Ta  Ta6  1  0.20533300  0.88011300  0.78971600  1
  Ta  Ta7  1  0.79466700  0.11988700  0.28971600  1
  S  S0  1  0.74817000  0.57660700  0.03287900  1
  S  S1  1  0.25183000  0.42339300  0.53287900  1
  S  S2  1  0.25183000  0.07660700  0.03287900  1
  S  S3  1  0.74817000  0.92339300  0.53287900  1
  S  S4  1  0.54226400  0.47799500  0.87117300  1
  S  S5  1  0.45773600  0.52200500  0.37117300  1
  S  S6  1  0.45773600  0.97799500  0.87117300  1
  S  S7  1  0.54226400  0.02200500  0.37117300  1
  S  S8  1  0.01424900  0.18400200  0.22764700  1
  S  S9  1  0.98575100  0.81599800  0.72764700  1
  S  S10  1  0.98575100  0.68400200  0.22764700  1
  S  S11  1  0.01424900  0.31599800  0.72764700  1
  S  S12  1  0.60199000  0.25795500  0.30709200  1
  S  S13  1  0.39801000  0.74204500  0.80709200  1
  S  S14  1  0.39801000  0.75795500  0.30709200  1
  S  S15  1  0.60199000  0.24204500  0.80709200  1
  S  S16  1  0.77259000  0.23646100  0.39158500  1
  S  S17  1  0.25125700  0.03896800  0.73403300  1
  S  S18  1  0.22741000  0.73646100  0.39158500  1
  S  S19  1  0.77259000  0.26353900  0.89158500  1
  S  S20  1  0.96271500  0.02368200  0.37868500  1
  S  S21  1  0.03728500  0.97631800  0.87868500  1
  S  S22  1  0.03728500  0.52368200  0.37868500  1
  S  S23  1  0.96271500  0.47631800  0.87868500  1
  S  S24  1  0.60428100  0.07118700  0.18761300  1
  S  S25  1  0.39571900  0.92881300  0.68761300  1
  S  S26  1  0.39571900  0.57118700  0.18761300  1
  S  S27  1  0.60428100  0.42881300  0.68761300  1
  S  S28  1  0.74874300  0.96103200  0.23403300  1
  S  S29  1  0.73942000  0.32288000  0.07505500  1
  S  S30  1  0.25125700  0.46103200  0.23403300  1
  S  S31  1  0.74874300  0.53896800  0.73403300  1
  S  S32  1  0.43549800  0.09832600  0.45670500  1
  S  S33  1  0.56450200  0.90167400  0.95670500  1
  S  S34  1  0.56450200  0.59832600  0.45670500  1
  S  S35  1  0.43549800  0.40167400  0.95670500  1
  S  S36  1  0.97377500  0.15921000  0.52405900  1
  S  S37  1  0.02622500  0.84079000  0.02405900  1
  S  S38  1  0.02622500  0.65921000  0.52405900  1
  S  S39  1  0.97377500  0.34079000  0.02405900  1
  S  S40  1  0.73942000  0.17712000  0.57505500  1
  S  S41  1  0.26058000  0.82288000  0.07505500  1
  S  S42  1  0.26058000  0.67712000  0.57505500  1
  S  S43  1  0.22741000  0.76353900  0.89158500  1
loop_
_geom_bond_atom_site_label_1
_geom_bond_atom_site_label_2
_geom_bond_distance
_geom_bond_site_symmetry_2
Rb0 S24 3.427401 1_555
Rb0 S2 3.439412 1_655
Rb0 S29 3.460757 1_555
Rb0 S33 3.468645 1_544
Rb0 S19 3.546123 1_554
Rb0 S21 3.607587 1_644
Rb0 S39 3.754770 1_555
Rb0 S37 3.778811 1_645
Rb0 S8 4.287857 1_655
Rb0 S2 4.411492 1_555
Rb1 S25 3.427401 1_555
Rb1 S3 3.439412 1_455
Rb1 S42 3.460757 1_555
Rb1 S32 3.468645 1_565
Rb1 S18 3.546123 1_555
Rb1 S20 3.607587 1_465
Rb1 S38 3.754770 1_555
Rb1 S36 3.778811 1_465
Rb1 S9 4.287857 1_455
Rb1 S3 4.411492 1_555
Rb2 S26 3.427401 1_555
Rb2 S0 3.439412 1_455
Rb2 S41 3.460757 1_555
Rb2 S35 3.468645 1_554
Rb2 S43 3.546123 1_554
Rb2 S23 3.607587 1_454
Rb2 S37 3.754770 1_555
Rb2 S39 3.778811 1_455
Rb2 S10 4.287857 1_455
Rb2 S0 4.411492 1_555
Rb3 S27 3.427401 1_555
Rb3 S1 3.439412 1_655
Rb3 S40 3.460757 1_555
Rb3 S34 3.468645 1_555
Rb3 S16 3.546123 1_555
Rb3 S22 3.607587 1_655
Rb3 S36 3.754770 1_555
Rb3 S38 3.778811 1_655
Rb3 S11 4.287857 1_655
Rb3 S1 4.411492 1_555
Rb4 S2 3.251031 1_555
Rb4 S8 3.331671 1_555
Rb4 S30 3.388221 1_555
Rb4 S29 3.429985 1_555
Rb4 S39 3.535895 1_455
Rb4 S24 3.662932 1_555
Rb4 S35 3.759290 1_554
Rb4 S12 3.985921 1_555
Rb5 S3 3.251031 1_555
Rb5 S9 3.331671 1_555
Rb5 S31 3.388221 1_555
Rb5 S42 3.429985 1_555
Rb5 S38 3.535895 1_655
Rb5 S25 3.662932 1_555
Rb5 S34 3.759290 1_555
Rb5 S13 3.985921 1_555
Rb6 S0 3.251031 1_555
Rb6 S10 3.331671 1_555
Rb6 S28 3.388221 1_555
Rb6 S41 3.429985 1_555
Rb6 S37 3.535895 1_655
Rb6 S26 3.662932 1_555
Rb6 S33 3.759290 1_554
Rb6 S14 3.985921 1_555
Rb7 S11 3.460479 1_555
Rb7 S42 3.466105 1_555
Rb7 S13 3.489739 1_555
Rb7 S23 3.518837 1_455
Rb7 S27 3.535489 1_555
Rb7 S31 3.621578 1_455
Rb7 S4 3.819170 1_555
Rb7 S1 4.008639 1_555
Rb7 S9 4.215608 1_455
Rb8 S14 3.414999 1_555
Rb8 S3 3.466231 1_555
Rb8 S18 3.466797 1_655
Rb8 S34 3.487608 1_555
Rb8 S10 3.494895 1_555
Rb8 S20 3.544281 1_565
Rb8 S28 3.650425 1_555
Rb8 S38 3.703865 1_655
Rb8 S7 3.826841 1_565
Rb8 S22 4.103476 1_655
Rb9 S15 3.414999 1_555
Rb9 S2 3.466231 1_556
Rb9 S19 3.466797 1_455
Rb9 S35 3.487608 1_555
Rb9 S11 3.494895 1_555
Rb9 S21 3.544281 1_545
Rb9 S17 3.650425 1_555
Rb9 S39 3.703865 1_456
Rb9 S6 3.826841 1_545
Rb9 S23 4.103476 1_455
Rb10 S12 3.414999 1_555
Rb10 S1 3.466231 1_555
Rb10 S16 3.466797 1_455
Rb10 S32 3.487608 1_555
Rb10 S8 3.494895 1_555
Rb10 S22 3.544281 1_555
Rb10 S30 3.650425 1_555
Rb10 S36 3.703865 1_455
Rb10 S5 3.826841 1_555
Rb10 S20 4.103476 1_455
Rb11 S13 3.414999 1_555
Rb11 S0 3.466231 1_556
Rb11 S43 3.466797 1_655
Rb11 S33 3.487608 1_555
Rb11 S9 3.494895 1_555
Rb11 S23 3.544281 1_555
Rb11 S31 3.650425 1_555
Rb11 S37 3.703865 1_656
Rb11 S4 3.826841 1_555
Rb11 S21 4.103476 1_655
Rb12 S1 3.251031 1_555
Rb12 S11 3.331671 1_555
Rb12 S17 3.388221 1_555
Rb12 S40 3.429985 1_555
Rb12 S36 3.535895 1_455
Rb12 S27 3.662932 1_555
Rb12 S32 3.759290 1_555
Rb12 S15 3.985921 1_555
Rb13 S9 3.460479 1_545
Rb13 S40 3.466105 1_555
Rb13 S15 3.489739 1_555
Rb13 S21 3.518837 1_645
Rb13 S25 3.535489 1_545
Rb13 S17 3.621578 1_655
Rb13 S6 3.819170 1_545
Rb13 S3 4.008639 1_545
Rb13 S11 4.215608 1_655
Rb14 S10 3.460479 1_555
Rb14 S29 3.466105 1_555
Rb14 S12 3.489739 1_555
Rb14 S22 3.518837 1_655
Rb14 S26 3.535489 1_555
Rb14 S30 3.621578 1_655
Rb14 S5 3.819170 1_555
Rb14 S0 4.008639 1_555
Rb14 S8 4.215608 1_655
Rb15 S8 3.460479 1_565
Rb15 S41 3.466105 1_555
Rb15 S14 3.489739 1_555
Rb15 S20 3.518837 1_465
Rb15 S24 3.535489 1_565
Rb15 S28 3.621578 1_455
Rb15 S7 3.819170 1_565
Rb15 S2 4.008639 1_565
Rb15 S10 4.215608 1_455
S0 Ta0 2.257812 1_554
S1 Ta1 2.257812 1_555
S2 Ta2 2.257812 1_544
S3 Ta3 2.257812 1_565
S4 Ta0 2.490809 1_555
S4 Ta4 2.841267 1_555
S5 Ta1 2.490809 1_555
S5 Ta5 2.841267 1_555
S6 Ta2 2.490809 1_555
S6 Ta6 2.841267 1_555
S7 Ta3 2.490809 1_555
S7 Ta7 2.841267 1_555
S8 Ta7 2.258091 1_455
S9 Ta6 2.258091 1_655
S10 Ta5 2.258091 1_655
S11 Ta4 2.258091 1_455
S12 S16 2.089909 1_555
S12 Ta7 2.459943 1_555
S13 S43 2.089909 1_555
S13 Ta6 2.459943 1_555
S14 S18 2.089909 1_555
S14 Ta5 2.459943 1_555
S15 S19 2.089909 1_555
S15 Ta4 2.459943 1_555
S16 Ta7 2.501524 1_555
S16 Ta3 2.831670 1_555
S17 S25 2.089508 1_545
S17 Ta6 2.461341 1_545
S17 S21 3.296064 1_545
S18 Ta5 2.501524 1_555
S18 Ta1 2.831670 1_555
S19 Ta4 2.501524 1_555
S19 Ta0 2.831670 1_555
S20 Ta3 2.501803 1_555
S20 Ta7 2.504879 1_555
S20 S28 3.296064 1_545
S20 S36 3.301855 1_555
S21 Ta2 2.501803 1_555
S21 Ta6 2.504879 1_555
S21 S37 3.301855 1_556
S22 Ta1 2.501803 1_555
S22 Ta5 2.504879 1_555
S22 S30 3.296064 1_555
S22 S38 3.301855 1_555
S23 Ta0 2.501803 1_555
S23 Ta4 2.504879 1_555
S23 S31 3.296064 1_555
S23 S39 3.301855 1_556
S24 S28 2.089508 1_545
S24 Ta7 2.513831 1_555
S25 Ta6 2.513831 1_555
S26 S30 2.089508 1_555
S26 Ta5 2.513831 1_555
S27 S31 2.089508 1_555
S27 Ta4 2.513831 1_555
S28 Ta7 2.461341 1_565
S29 S39 2.084973 1_555
S29 Ta0 2.511197 1_554
S30 Ta5 2.461341 1_555
S31 Ta4 2.461341 1_555
S32 S7 2.090507 1_555
S32 Ta3 2.461445 1_555
S33 S6 2.090507 1_555
S33 Ta2 2.461445 1_555
S34 S5 2.090507 1_555
S34 Ta1 2.461445 1_555
S35 S4 2.090507 1_555
S35 Ta0 2.461445 1_555
S36 S40 2.084973 1_555
S36 Ta3 2.470185 1_555
S37 S41 2.084973 1_555
S37 Ta2 2.470185 1_554
S38 S42 2.084973 1_555
S38 Ta1 2.470185 1_555
S39 Ta0 2.470185 1_554
S40 Ta3 2.511197 1_555
S41 Ta2 2.511197 1_554
S42 Ta1 2.511197 1_555
S43 Ta6 2.501524 1_555
S43 Ta2 2.831670 1_555
