# generated using pymatgen
data_CeSe2
_symmetry_space_group_name_H-M   'P 1'
_cell_length_a   13.76020248
_cell_length_b   14.93936162
_cell_length_c   14.93936162
_cell_angle_alpha   90.00000000
_cell_angle_beta   90.00000000
_cell_angle_gamma   90.00000000
_symmetry_Int_Tables_number   1
_chemical_formula_structural   CeSe2
_chemical_formula_sum   'Ce16 Se32'
_cell_volume   3071.06426284
_cell_formula_units_Z   16
loop_
 _symmetry_equiv_pos_site_id
 _symmetry_equiv_pos_as_xyz
  1  'x, y, z'
loop_
 _atom_site_type_symbol
 _atom_site_label
 _atom_site_symmetry_multiplicity
 _atom_site_fract_x
 _atom_site_fract_y
 _atom_site_fract_z
 _atom_site_occupancy
  Ce  Ce0  1  0.06182393  0.55206737  0.27968841  1
  Ce  Ce1  1  0.43817607  0.55206737  0.72031159  1
  Ce  Ce2  1  0.06182393  0.05206737  0.22031159  1
  Ce  Ce3  1  0.43817607  0.05206737  0.77968841  1
  Ce  Ce4  1  0.06182393  0.44793263  0.72031159  1
  Ce  Ce5  1  0.43817607  0.44793263  0.27968841  1
  Ce  Ce6  1  0.06182393  0.94793263  0.77968841  1
  Ce  Ce7  1  0.43817607  0.94793263  0.22031159  1
  Ce  Ce8  1  0.93817607  0.27968841  0.44793263  1
  Ce  Ce9  1  0.56182393  0.72031159  0.44793263  1
  Ce  Ce10  1  0.93817607  0.22031159  0.94793263  1
  Ce  Ce11  1  0.56182393  0.77968841  0.94793263  1
  Ce  Ce12  1  0.93817607  0.72031159  0.55206737  1
  Ce  Ce13  1  0.56182393  0.27968841  0.55206737  1
  Ce  Ce14  1  0.93817607  0.77968841  0.05206737  1
  Ce  Ce15  1  0.56182393  0.22031159  0.05206737  1
  Se  Se0  1  0.50000000  0.62075695  0.87924305  1
  Se  Se1  1  -0.00000000  0.62075695  0.12075695  1
  Se  Se2  1  0.50000000  0.12075695  0.62075695  1
  Se  Se3  1  -0.00000000  0.12075695  0.37924305  1
  Se  Se4  1  0.50000000  0.37924305  0.12075695  1
  Se  Se5  1  -0.00000000  0.37924305  0.87924305  1
  Se  Se6  1  0.50000000  0.87924305  0.37924305  1
  Se  Se7  1  -0.00000000  0.87924305  0.62075695  1
  Se  Se8  1  0.75000000  0.23950634  0.00000000  1
  Se  Se9  1  0.75000000  0.73950634  0.50000000  1
  Se  Se10  1  0.75000000  0.76049366  0.00000000  1
  Se  Se11  1  0.75000000  0.26049366  0.50000000  1
  Se  Se12  1  0.25000000  0.00000000  0.76049366  1
  Se  Se13  1  0.25000000  0.50000000  0.26049366  1
  Se  Se14  1  0.25000000  0.00000000  0.23950634  1
  Se  Se15  1  0.25000000  0.50000000  0.73950634  1
  Se  Se16  1  0.94532170  0.41083491  0.32175228  1
  Se  Se17  1  0.55467830  0.41083491  0.67824772  1
  Se  Se18  1  0.94532170  0.91083491  0.17824772  1
  Se  Se19  1  0.55467830  0.91083491  0.82175228  1
  Se  Se20  1  0.94532170  0.58916509  0.67824772  1
  Se  Se21  1  0.55467830  0.58916509  0.32175228  1
  Se  Se22  1  0.94532170  0.08916509  0.82175228  1
  Se  Se23  1  0.55467830  0.08916509  0.17824772  1
  Se  Se24  1  0.05467830  0.32175228  0.58916509  1
  Se  Se25  1  0.44532170  0.67824772  0.58916509  1
  Se  Se26  1  0.05467830  0.17824772  0.08916509  1
  Se  Se27  1  0.44532170  0.82175228  0.08916509  1
  Se  Se28  1  0.05467830  0.67824772  0.41083491  1
  Se  Se29  1  0.44532170  0.32175228  0.41083491  1
  Se  Se30  1  0.05467830  0.82175228  0.91083491  1
  Se  Se31  1  0.44532170  0.17824772  0.91083491  1
loop_
_geom_bond_atom_site_label_1
_geom_bond_atom_site_label_2
_geom_bond_distance
_geom_bond_site_symmetry_2
Ce0 Se13 2.718818 1_555
Ce0 Se28 2.720613 1_555
Ce0 Se1 2.722905 1_555
Ce0 Se16 2.723340 1_455
Ce1 Se15 2.718818 1_555
Ce1 Se25 2.720613 1_555
Ce1 Se0 2.722905 1_555
Ce1 Se17 2.723340 1_555
Ce2 Se14 2.718818 1_555
Ce2 Se26 2.720613 1_555
Ce2 Se3 2.722905 1_555
Ce2 Se18 2.723340 1_445
Ce3 Se12 2.718818 1_555
Ce3 Se31 2.720613 1_555
Ce3 Se2 2.722905 1_555
Ce3 Se19 2.723340 1_545
Ce4 Se15 2.718818 1_555
Ce4 Se24 2.720613 1_555
Ce4 Se5 2.722905 1_555
Ce4 Se20 2.723340 1_455
Ce5 Se13 2.718818 1_555
Ce5 Se29 2.720613 1_555
Ce5 Se4 2.722905 1_555
Ce5 Se21 2.723340 1_555
Ce6 Se12 2.718818 1_565
Ce6 Se30 2.720613 1_555
Ce6 Se7 2.722905 1_555
Ce6 Se22 2.723340 1_465
Ce7 Se14 2.718818 1_565
Ce7 Se27 2.720613 1_555
Ce7 Se6 2.722905 1_555
Ce7 Se23 2.723340 1_565
Ce8 Se11 2.718818 1_555
Ce8 Se16 2.720613 1_555
Ce8 Se3 2.722905 1_655
Ce8 Se24 2.723340 1_655
Ce9 Se9 2.718818 1_555
Ce9 Se21 2.720613 1_555
Ce9 Se6 2.722905 1_555
Ce9 Se25 2.723340 1_555
Ce10 Se8 2.718818 1_556
Ce10 Se22 2.720613 1_555
Ce10 Se5 2.722905 1_655
Ce10 Se26 2.723340 1_656
Ce11 Se10 2.718818 1_556
Ce11 Se19 2.720613 1_555
Ce11 Se0 2.722905 1_555
Ce11 Se27 2.723340 1_556
Ce12 Se9 2.718818 1_555
Ce12 Se20 2.720613 1_555
Ce12 Se7 2.722905 1_655
Ce12 Se28 2.723340 1_655
Ce13 Se11 2.718818 1_555
Ce13 Se17 2.720613 1_555
Ce13 Se2 2.722905 1_555
Ce13 Se29 2.723340 1_555
Ce14 Se10 2.718818 1_555
Ce14 Se18 2.720613 1_555
Ce14 Se1 2.722905 1_655
Ce14 Se30 2.723340 1_654
Ce15 Se8 2.718818 1_555
Ce15 Se23 2.720613 1_555
Ce15 Se4 2.722905 1_555
Ce15 Se31 2.723340 1_554
