# generated using pymatgen
data_Rb3HoF6
_symmetry_space_group_name_H-M   'P 1'
_cell_length_a   6.86397690
_cell_length_b   6.86397690
_cell_length_c   6.86397690
_cell_angle_alpha   91.32247143
_cell_angle_beta   119.23943068
_cell_angle_gamma   119.23943068
_symmetry_Int_Tables_number   1
_chemical_formula_structural   Rb3HoF6
_chemical_formula_sum   'Rb3 Ho1 F6'
_cell_volume   231.23385641
_cell_formula_units_Z   1
loop_
 _symmetry_equiv_pos_site_id
 _symmetry_equiv_pos_as_xyz
  1  'x, y, z'
loop_
 _atom_site_type_symbol
 _atom_site_label
 _atom_site_symmetry_multiplicity
 _atom_site_fract_x
 _atom_site_fract_y
 _atom_site_fract_z
 _atom_site_occupancy
  Rb  Rb0  1  0.50000000  0.75000000  0.25000000  1
  Rb  Rb1  1  0.50000000  0.25000000  0.75000000  1
  Rb  Rb2  1  0.00000000  0.50000000  0.50000000  1
  Ho  Ho0  1  0.00000000  -0.00000000  0.00000000  1
  F  F0  1  0.69255542  -0.00000000  0.69255542  1
  F  F1  1  0.30744458  0.00000000  0.30744458  1
  F  F2  1  0.69255542  0.69255542  -0.00000000  1
  F  F3  1  0.30744458  0.30744458  0.00000000  1
  F  F4  1  0.00000000  0.22795318  0.22795318  1
  F  F5  1  0.00000000  0.77204682  0.77204682  1
loop_
_geom_bond_atom_site_label_1
_geom_bond_atom_site_label_2
_geom_bond_distance
_geom_bond_site_symmetry_2
F0 Ho0 2.134506 1_656
F0 F1 2.673722 1_555
F0 Rb1 2.746006 1_555
F0 Rb0 2.746006 1_545
F1 Ho0 2.134506 1_555
F1 Rb1 2.746006 1_555
F1 Rb0 2.746006 1_545
F2 Ho0 2.134506 1_665
F2 F3 2.673722 1_555
F2 Rb1 2.746006 1_554
F2 Rb0 2.746006 1_555
F3 Ho0 2.134506 1_555
F3 Rb1 2.746006 1_554
F3 Rb0 2.746006 1_555
F4 Ho0 2.187087 1_555
F4 Rb2 2.610142 1_555
F4 Rb1 3.477805 1_454
F4 Rb0 3.477805 1_445
F4 Rb0 3.477805 1_555
F4 Rb1 3.477805 1_555
F5 Ho0 2.187087 1_566
F5 Rb2 2.610142 1_555
F5 Rb1 3.477805 1_565
F5 Rb0 3.477805 1_455
F5 Rb1 3.477805 1_455
F5 Rb0 3.477805 1_556
