# generated using pymatgen
data_La7SmCr2(FeO4)6
_symmetry_space_group_name_H-M   'P 1'
_cell_length_a   7.88051982
_cell_length_b   7.88051982
_cell_length_c   7.87928300
_cell_angle_alpha   90.00000000
_cell_angle_beta   90.00000000
_cell_angle_gamma   90.00497655
_symmetry_Int_Tables_number   1
_chemical_formula_structural   La7SmCr2(FeO4)6
_chemical_formula_sum   'La7 Sm1 Cr2 Fe6 O24'
_cell_volume   489.32390077
_cell_formula_units_Z   1
loop_
 _symmetry_equiv_pos_site_id
 _symmetry_equiv_pos_as_xyz
  1  'x, y, z'
loop_
 _atom_site_type_symbol
 _atom_site_label
 _atom_site_symmetry_multiplicity
 _atom_site_fract_x
 _atom_site_fract_y
 _atom_site_fract_z
 _atom_site_occupancy
  La  La0  1  0.00000000  0.50000000  0.74969700  1
  La  La1  1  0.50000000  0.50000000  0.74970200  1
  La  La2  1  0.00000000  0.50000000  0.25031000  1
  La  La3  1  0.50000000  0.50000000  0.25030200  1
  La  La4  1  0.50000000  0.00000000  0.74969700  1
  La  La5  1  0.00000000  0.00000000  0.25030400  1
  La  La6  1  0.50000000  0.00000000  0.25031000  1
  Sm  Sm0  1  0.00000000  0.00000000  0.74970300  1
  Cr  Cr0  1  0.24991000  0.75009000  0.50006700  1
  Cr  Cr1  1  0.75009000  0.24991000  0.50006700  1
  Fe  Fe0  1  0.75014600  0.75014600  0.99985000  1
  Fe  Fe1  1  0.24985100  0.75014900  0.99985500  1
  Fe  Fe2  1  0.75014700  0.75014700  0.50015400  1
  Fe  Fe3  1  0.75014900  0.24985100  0.99985500  1
  Fe  Fe4  1  0.24985400  0.24985400  0.99985000  1
  Fe  Fe5  1  0.24985300  0.24985300  0.50015400  1
  O  O0  1  0.74999600  0.49986400  0.00000300  1
  O  O1  1  0.25000400  0.50013600  0.00000300  1
  O  O2  1  0.74999800  0.49966300  0.50000200  1
  O  O3  1  0.25000200  0.50033700  0.50000200  1
  O  O4  1  0.75062100  0.00012600  0.99938100  1
  O  O5  1  0.24937900  0.99987400  0.99938100  1
  O  O6  1  0.75065300  0.00037300  0.50066000  1
  O  O7  1  0.24934700  0.99962700  0.50066000  1
  O  O8  1  0.75062000  0.75062000  0.74957600  1
  O  O9  1  0.24934300  0.75065700  0.74943300  1
  O  O10  1  0.74999500  0.74999500  0.25043400  1
  O  O11  1  0.24999900  0.75000100  0.25052900  1
  O  O12  1  0.75065700  0.24934300  0.74943300  1
  O  O13  1  0.24938000  0.24938000  0.74957600  1
  O  O14  1  0.75000100  0.24999900  0.25052900  1
  O  O15  1  0.25000500  0.25000500  0.25043400  1
  O  O16  1  0.00012600  0.75062100  0.99938100  1
  O  O17  1  0.49986400  0.74999600  0.00000300  1
  O  O18  1  0.00037300  0.75065300  0.50066000  1
  O  O19  1  0.49966300  0.74999800  0.50000200  1
  O  O20  1  0.99987400  0.24937900  0.99938100  1
  O  O21  1  0.50013600  0.25000400  0.00000300  1
  O  O22  1  0.99962700  0.24934700  0.50066000  1
  O  O23  1  0.50033700  0.25000200  0.50000200  1
loop_
_geom_bond_atom_site_label_1
_geom_bond_atom_site_label_2
_geom_bond_distance
_geom_bond_site_symmetry_2
La0 O18 2.784256 1_555
La0 O22 2.784256 1_455
La0 O3 2.784279 1_555
La0 O2 2.784279 1_455
La0 O9 2.786074 1_555
La0 O12 2.786074 1_455
La0 O13 2.786314 1_555
La0 O8 2.786314 1_455
La0 O16 2.787671 1_555
La0 O20 2.787671 1_455
La0 O0 2.787694 1_456
La0 O1 2.787694 1_556
La1 O19 2.784285 1_555
La1 O2 2.784285 1_555
La1 O3 2.784285 1_555
La1 O23 2.784285 1_555
La1 O1 2.787621 1_556
La1 O0 2.787621 1_556
La1 O17 2.787621 1_556
La1 O21 2.787621 1_556
La1 O13 2.792973 1_555
La1 O8 2.792973 1_555
La1 O12 2.793629 1_555
La1 O9 2.793629 1_555
La2 O3 2.784263 1_555
La2 O2 2.784263 1_455
La2 O11 2.786064 1_555
La2 O14 2.786064 1_455
La2 O10 2.786306 1_455
La2 O15 2.786306 1_555
La2 O1 2.787699 1_555
La2 O0 2.787699 1_455
La2 O18 2.791557 1_555
La2 O22 2.791557 1_455
La2 O16 2.794603 1_554
La2 O20 2.794603 1_454
La3 O19 2.784285 1_555
La3 O2 2.784285 1_555
La3 O23 2.784285 1_555
La3 O3 2.784285 1_555
La3 O10 2.786008 1_555
La3 O15 2.786008 1_555
La3 O11 2.786317 1_555
La3 O14 2.786317 1_555
La3 O17 2.787610 1_555
La3 O1 2.787610 1_555
La3 O21 2.787610 1_555
La3 O0 2.787610 1_555
La4 O6 2.784256 1_555
La4 O7 2.784256 1_545
La4 O23 2.784279 1_555
La4 O19 2.784279 1_545
La4 O12 2.786074 1_555
La4 O9 2.786074 1_545
La4 O8 2.786314 1_545
La4 O13 2.786314 1_555
La4 O5 2.787671 1_545
La4 O4 2.787671 1_555
La4 O21 2.787694 1_556
La4 O17 2.787694 1_546
La5 O22 2.784318 1_455
La5 O7 2.784318 1_545
La5 O6 2.784318 1_455
La5 O18 2.784318 1_545
La5 O15 2.786119 1_555
La5 O10 2.786119 1_445
La5 O14 2.786295 1_455
La5 O11 2.786295 1_545
La5 O4 2.787661 1_454
La5 O5 2.787661 1_544
La5 O20 2.787661 1_454
La5 O16 2.787661 1_544
La6 O23 2.784263 1_555
La6 O19 2.784263 1_545
La6 O14 2.786064 1_555
La6 O11 2.786064 1_545
La6 O15 2.786306 1_555
La6 O10 2.786306 1_545
La6 O21 2.787699 1_555
La6 O17 2.787699 1_545
La6 O6 2.791557 1_555
La6 O7 2.791557 1_545
La6 O5 2.794603 1_544
La6 O4 2.794603 1_554
Cr0 O9 1.964835 1_555
Cr0 O11 1.966181 1_555
Cr0 O7 1.966492 1_555
Cr0 O18 1.966492 1_555
Cr0 O19 1.968184 1_555
Cr0 O3 1.968184 1_555
Cr1 O12 1.964835 1_555
Cr1 O14 1.966181 1_555
Cr1 O22 1.966492 1_555
Cr1 O6 1.966492 1_555
Cr1 O2 1.968184 1_555
Cr1 O23 1.968184 1_555
Fe0 O4 1.969979 1_565
Fe0 O16 1.969979 1_655
Fe0 O8 1.971987 1_555
Fe0 O17 1.972353 1_556
Fe0 O0 1.972353 1_556
Fe0 O10 1.974423 1_556
Fe1 O5 1.967970 1_555
Fe1 O16 1.967970 1_555
Fe1 O1 1.970233 1_556
Fe1 O17 1.970233 1_556
Fe1 O9 1.973154 1_555
Fe1 O11 1.975132 1_556
Fe2 O8 1.965274 1_555
Fe2 O10 1.967615 1_555
Fe2 O18 1.971919 1_655
Fe2 O6 1.971919 1_565
Fe2 O19 1.973945 1_555
Fe2 O2 1.973945 1_555
Fe3 O20 1.967970 1_555
Fe3 O4 1.967970 1_555
Fe3 O21 1.970233 1_556
Fe3 O0 1.970233 1_556
Fe3 O12 1.973154 1_555
Fe3 O14 1.975132 1_556
Fe4 O5 1.969979 1_545
Fe4 O20 1.969979 1_455
Fe4 O13 1.971987 1_555
Fe4 O1 1.972353 1_556
Fe4 O21 1.972353 1_556
Fe4 O15 1.974423 1_556
Fe5 O13 1.965274 1_555
Fe5 O15 1.967615 1_555
Fe5 O22 1.971919 1_455
Fe5 O7 1.971919 1_545
Fe5 O3 1.973945 1_555
Fe5 O23 1.973945 1_555
O4 Sm0 2.780712 1_655
O5 Sm0 2.780712 1_565
O6 Sm0 2.776998 1_655
O7 Sm0 2.776998 1_565
O8 Sm0 2.779154 1_665
O9 Sm0 2.778984 1_565
O12 Sm0 2.778984 1_655
O13 Sm0 2.779154 1_555
O16 Sm0 2.780712 1_565
O18 Sm0 2.776998 1_565
O20 Sm0 2.780712 1_655
O22 Sm0 2.776998 1_655
