# generated using pymatgen
data_MgCd
_symmetry_space_group_name_H-M   'P 1'
_cell_length_a   12.15075013
_cell_length_b   12.15075013
_cell_length_c   14.56116138
_cell_angle_alpha   74.70813974
_cell_angle_beta   74.70813974
_cell_angle_gamma   29.57646340
_symmetry_Int_Tables_number   1
_chemical_formula_structural   MgCd
_chemical_formula_sum   'Mg24 Cd24'
_cell_volume   1020.87959178
_cell_formula_units_Z   24
loop_
 _symmetry_equiv_pos_site_id
 _symmetry_equiv_pos_as_xyz
  1  'x, y, z'
loop_
 _atom_site_type_symbol
 _atom_site_label
 _atom_site_symmetry_multiplicity
 _atom_site_fract_x
 _atom_site_fract_y
 _atom_site_fract_z
 _atom_site_occupancy
  Mg  Mg0_0  1  0.49836492  0.49836492  0.00325804  1
  Mg  Mg0_1  1  0.49836492  0.49836492  0.50325804  1
  Mg  Mg0_2  1  0.49836492  0.99836492  0.00325804  1
  Mg  Mg0_3  1  0.49836492  0.99836492  0.50325804  1
  Mg  Mg0_4  1  0.99836492  0.49836492  0.00325804  1
  Mg  Mg0_5  1  0.99836492  0.49836492  0.50325804  1
  Mg  Mg0_6  1  0.99836492  0.99836492  0.00325804  1
  Mg  Mg0_7  1  0.99836492  0.99836492  0.50325804  1
  Mg  Mg1_0  1  0.47283586  0.47283586  0.30329801  1
  Mg  Mg1_1  1  0.47283587  0.47283587  0.80329801  1
  Mg  Mg1_2  1  0.47283587  0.97283586  0.30329801  1
  Mg  Mg1_3  1  0.47283587  0.97283586  0.80329801  1
  Mg  Mg1_4  1  0.97283586  0.47283587  0.30329801  1
  Mg  Mg1_5  1  0.97283586  0.47283587  0.80329801  1
  Mg  Mg1_6  1  0.97283587  0.97283587  0.30329801  1
  Mg  Mg1_7  1  0.97283587  0.97283587  0.80329801  1
  Mg  Mg2_0  1  0.33464856  0.33464856  0.33290665  1
  Mg  Mg2_1  1  0.33464856  0.33464856  0.83290664  1
  Mg  Mg2_2  1  0.33464856  0.83464856  0.33290664  1
  Mg  Mg2_3  1  0.33464856  0.83464856  0.83290664  1
  Mg  Mg2_4  1  0.83464856  0.33464856  0.33290664  1
  Mg  Mg2_5  1  0.83464856  0.33464856  0.83290664  1
  Mg  Mg2_6  1  0.83464856  0.83464856  0.33290665  1
  Mg  Mg2_7  1  0.83464856  0.83464856  0.83290664  1
  Cd  Cd0_0  1  0.30529982  0.30529982  0.13960184  1
  Cd  Cd0_1  1  0.30529982  0.30529982  0.63960184  1
  Cd  Cd0_2  1  0.30529982  0.80529982  0.13960184  1
  Cd  Cd0_3  1  0.30529982  0.80529982  0.63960184  1
  Cd  Cd0_4  1  0.80529982  0.30529982  0.13960184  1
  Cd  Cd0_5  1  0.80529982  0.30529982  0.63960184  1
  Cd  Cd0_6  1  0.80529982  0.80529982  0.13960184  1
  Cd  Cd0_7  1  0.80529982  0.80529982  0.63960184  1
  Cd  Cd1_0  1  0.16651225  0.16651225  0.16730645  1
  Cd  Cd1_1  1  0.16651225  0.16651225  0.66730645  1
  Cd  Cd1_2  1  0.16651225  0.66651225  0.16730645  1
  Cd  Cd1_3  1  0.16651225  0.66651225  0.66730645  1
  Cd  Cd1_4  1  0.66651225  0.16651225  0.16730645  1
  Cd  Cd1_5  1  0.66651225  0.16651225  0.66730645  1
  Cd  Cd1_6  1  0.66651225  0.66651225  0.16730645  1
  Cd  Cd1_7  1  0.66651225  0.66651225  0.66730645  1
  Cd  Cd2_0  1  0.13900409  0.13900409  0.47029650  1
  Cd  Cd2_1  1  0.13900409  0.13900409  0.97029650  1
  Cd  Cd2_2  1  0.13900409  0.63900409  0.47029650  1
  Cd  Cd2_3  1  0.13900409  0.63900409  0.97029650  1
  Cd  Cd2_4  1  0.63900409  0.13900409  0.47029650  1
  Cd  Cd2_5  1  0.63900409  0.13900409  0.97029650  1
  Cd  Cd2_6  1  0.63900409  0.63900409  0.47029651  1
  Cd  Cd2_7  1  0.63900409  0.63900409  0.97029650  1
loop_
_geom_bond_atom_site_label_1
_geom_bond_atom_site_label_2
_geom_bond_distance
_geom_bond_site_symmetry_2
Mg0_0 Mg0_6 3.101445 1_455
Mg0_0 Mg0_6 3.101445 1_545
Mg0_0 Mg1_1 3.128950 1_554
Mg0_0 Mg2_5 3.150305 1_554
Mg0_0 Mg2_3 3.150305 1_554
Mg0_1 Mg0_7 3.101445 1_545
Mg0_1 Mg0_7 3.101445 1_455
Mg0_1 Mg1_0 3.128950 1_555
Mg0_1 Mg2_4 3.150305 1_555
Mg0_1 Mg2_2 3.150305 1_555
Mg0_2 Mg0_4 3.101445 1_465
Mg0_2 Mg0_4 3.101445 1_555
Mg0_2 Mg1_3 3.128950 1_554
Mg0_2 Mg2_1 3.150305 1_564
Mg0_2 Mg2_7 3.150305 1_554
Mg0_3 Mg0_5 3.101445 1_555
Mg0_3 Mg0_5 3.101445 1_465
Mg0_3 Mg1_2 3.128950 1_555
Mg0_3 Mg2_0 3.150305 1_565
Mg0_3 Mg2_6 3.150305 1_555
Mg0_4 Mg1_5 3.128950 1_554
Mg0_4 Mg2_1 3.150305 1_654
Mg0_4 Mg2_7 3.150305 1_554
Mg0_5 Mg1_4 3.128950 1_555
Mg0_5 Mg2_0 3.150305 1_655
Mg0_5 Mg2_6 3.150305 1_555
Mg0_6 Mg1_7 3.128950 1_554
Mg0_6 Mg2_5 3.150305 1_564
Mg0_6 Mg2_3 3.150305 1_654
Mg0_7 Mg1_6 3.128950 1_555
Mg0_7 Mg2_4 3.150305 1_565
Mg0_7 Mg2_2 3.150305 1_655
Mg1_0 Mg1_6 3.101445 1_455
Mg1_0 Mg1_6 3.101445 1_545
Mg1_0 Mg2_0 3.156691 1_555
Mg1_0 Mg2_4 3.179746 1_555
Mg1_0 Mg2_2 3.179746 1_555
Mg1_1 Mg1_7 3.101445 1_455
Mg1_1 Mg1_7 3.101445 1_545
Mg1_1 Mg2_1 3.156691 1_555
Mg1_1 Mg2_3 3.179746 1_555
Mg1_1 Mg2_5 3.179746 1_555
Mg1_2 Mg1_4 3.101445 1_555
Mg1_2 Mg1_4 3.101445 1_465
Mg1_2 Mg2_2 3.156691 1_555
Mg1_2 Mg2_0 3.179746 1_565
Mg1_2 Mg2_6 3.179746 1_555
Mg1_3 Mg1_5 3.101445 1_555
Mg1_3 Mg1_5 3.101445 1_465
Mg1_3 Mg2_3 3.156691 1_555
Mg1_3 Mg2_1 3.179746 1_565
Mg1_3 Mg2_7 3.179746 1_555
Mg1_4 Mg2_4 3.156691 1_555
Mg1_4 Mg2_0 3.179746 1_655
Mg1_4 Mg2_6 3.179746 1_555
Mg1_5 Mg2_5 3.156691 1_555
Mg1_5 Mg2_1 3.179746 1_655
Mg1_5 Mg2_7 3.179746 1_555
Mg1_6 Mg2_6 3.156691 1_555
Mg1_6 Mg2_2 3.179746 1_655
Mg1_6 Mg2_4 3.179746 1_565
Mg1_7 Mg2_7 3.156691 1_555
Mg1_7 Mg2_3 3.179746 1_655
Mg1_7 Mg2_5 3.179746 1_565
Mg2_0 Mg2_6 3.101445 1_545
Mg2_0 Mg2_6 3.101445 1_455
Mg2_1 Mg2_7 3.101445 1_545
Mg2_1 Mg2_7 3.101445 1_455
Mg2_2 Mg2_4 3.101445 1_555
Mg2_2 Mg2_4 3.101445 1_465
Mg2_3 Mg2_5 3.101445 1_555
Mg2_3 Mg2_5 3.101445 1_465
Cd0_0 Mg1_2 3.053045 1_545
Cd0_0 Mg1_4 3.053045 1_455
Cd0_0 Mg2_0 3.075261 1_555
Cd0_0 Mg0_2 3.095933 1_545
Cd0_0 Mg0_4 3.095933 1_455
Cd0_0 Cd0_6 3.101445 1_455
Cd0_0 Cd0_6 3.101445 1_545
Cd0_0 Cd2_5 3.115345 1_554
Cd0_0 Cd2_3 3.115345 1_554
Cd0_0 Cd1_4 3.157672 1_555
Cd0_0 Cd1_2 3.157672 1_555
Cd0_0 Cd1_0 3.174800 1_555
Cd0_1 Mg1_3 3.053045 1_545
Cd0_1 Mg1_5 3.053045 1_455
Cd0_1 Mg2_1 3.075261 1_555
Cd0_1 Mg0_3 3.095933 1_545
Cd0_1 Mg0_5 3.095933 1_455
Cd0_1 Cd0_7 3.101445 1_545
Cd0_1 Cd0_7 3.101445 1_455
Cd0_1 Cd2_4 3.115345 1_555
Cd0_1 Cd2_2 3.115345 1_555
Cd0_1 Cd1_3 3.157672 1_555
Cd0_1 Cd1_5 3.157672 1_555
Cd0_1 Cd1_1 3.174800 1_555
Cd0_2 Mg1_6 3.053045 1_455
Cd0_2 Mg1_0 3.053045 1_555
Cd0_2 Mg2_2 3.075261 1_555
Cd0_2 Mg0_6 3.095933 1_455
Cd0_2 Mg0_0 3.095933 1_555
Cd0_2 Cd0_4 3.101445 1_555
Cd0_2 Cd0_4 3.101445 1_465
Cd0_2 Cd2_1 3.115345 1_564
Cd0_2 Cd2_7 3.115345 1_554
Cd0_2 Cd1_0 3.157672 1_565
Cd0_2 Cd1_6 3.157672 1_555
Cd0_2 Cd1_2 3.174800 1_555
Cd0_3 Mg1_7 3.053045 1_455
Cd0_3 Mg1_1 3.053045 1_555
Cd0_3 Mg2_3 3.075261 1_555
Cd0_3 Mg0_7 3.095933 1_455
Cd0_3 Mg0_1 3.095933 1_555
Cd0_3 Cd0_5 3.101445 1_465
Cd0_3 Cd0_5 3.101445 1_555
Cd0_3 Cd2_0 3.115345 1_565
Cd0_3 Cd2_6 3.115345 1_555
Cd0_3 Cd1_1 3.157672 1_565
Cd0_3 Cd1_7 3.157672 1_555
Cd0_3 Cd1_3 3.174800 1_555
Cd0_4 Mg1_6 3.053045 1_545
Cd0_4 Mg1_0 3.053045 1_555
Cd0_4 Mg2_4 3.075261 1_555
Cd0_4 Mg0_6 3.095933 1_545
Cd0_4 Mg0_0 3.095933 1_555
Cd0_4 Cd2_1 3.115345 1_654
Cd0_4 Cd2_7 3.115345 1_554
Cd0_4 Cd1_6 3.157672 1_555
Cd0_4 Cd1_0 3.157672 1_655
Cd0_4 Cd1_4 3.174800 1_555
Cd0_5 Mg1_7 3.053045 1_545
Cd0_5 Mg1_1 3.053045 1_555
Cd0_5 Mg2_5 3.075261 1_555
Cd0_5 Mg0_7 3.095933 1_545
Cd0_5 Mg0_1 3.095933 1_555
Cd0_5 Cd2_0 3.115345 1_655
Cd0_5 Cd2_6 3.115345 1_555
Cd0_5 Cd1_1 3.157672 1_655
Cd0_5 Cd1_7 3.157672 1_555
Cd0_5 Cd1_5 3.174800 1_555
Cd0_6 Mg1_2 3.053045 1_555
Cd0_6 Mg1_4 3.053045 1_555
Cd0_6 Mg2_6 3.075261 1_555
Cd0_6 Mg0_2 3.095933 1_555
Cd0_6 Mg0_4 3.095933 1_555
Cd0_6 Cd2_3 3.115345 1_654
Cd0_6 Cd2_5 3.115345 1_564
Cd0_6 Cd1_4 3.157672 1_565
Cd0_6 Cd1_2 3.157672 1_655
Cd0_6 Cd1_6 3.174800 1_555
Cd0_7 Mg1_5 3.053045 1_555
Cd0_7 Mg1_3 3.053045 1_555
Cd0_7 Mg2_7 3.075261 1_555
Cd0_7 Mg0_5 3.095933 1_555
Cd0_7 Mg0_3 3.095933 1_555
Cd0_7 Cd2_2 3.115345 1_655
Cd0_7 Cd2_4 3.115345 1_565
Cd0_7 Cd1_5 3.157672 1_565
Cd0_7 Cd1_3 3.157672 1_655
Cd0_7 Cd1_7 3.174800 1_555
Cd1_0 Mg0_2 3.050148 1_545
Cd1_0 Mg0_4 3.050148 1_455
Cd1_0 Mg2_4 3.064116 1_455
Cd1_0 Mg2_2 3.064116 1_545
Cd1_0 Mg1_4 3.083339 1_455
Cd1_0 Mg1_2 3.083339 1_545
Cd1_0 Cd1_6 3.101445 1_545
Cd1_0 Cd1_6 3.101445 1_455
Cd1_0 Cd2_1 3.107844 1_554
Cd1_1 Mg0_3 3.050148 1_545
Cd1_1 Mg0_5 3.050148 1_455
Cd1_1 Mg2_5 3.064116 1_455
Cd1_1 Mg2_3 3.064116 1_545
Cd1_1 Mg1_3 3.083339 1_545
Cd1_1 Mg1_5 3.083339 1_455
Cd1_1 Cd1_7 3.101445 1_545
Cd1_1 Cd1_7 3.101445 1_455
Cd1_1 Cd2_0 3.107844 1_555
Cd1_2 Mg0_0 3.050148 1_555
Cd1_2 Mg0_6 3.050148 1_455
Cd1_2 Mg2_6 3.064116 1_455
Cd1_2 Mg2_0 3.064116 1_555
Cd1_2 Mg1_0 3.083339 1_555
Cd1_2 Mg1_6 3.083339 1_455
Cd1_2 Cd1_4 3.101445 1_555
Cd1_2 Cd1_4 3.101445 1_465
Cd1_2 Cd2_3 3.107844 1_554
Cd1_3 Mg0_7 3.050148 1_455
Cd1_3 Mg0_1 3.050148 1_555
Cd1_3 Mg2_7 3.064116 1_455
Cd1_3 Mg2_1 3.064116 1_555
Cd1_3 Mg1_1 3.083339 1_555
Cd1_3 Mg1_7 3.083339 1_455
Cd1_3 Cd1_5 3.101445 1_465
Cd1_3 Cd1_5 3.101445 1_555
Cd1_3 Cd2_2 3.107844 1_555
Cd1_4 Mg0_0 3.050148 1_555
Cd1_4 Mg0_6 3.050148 1_545
Cd1_4 Mg2_6 3.064116 1_545
Cd1_4 Mg2_0 3.064116 1_555
Cd1_4 Mg1_0 3.083339 1_555
Cd1_4 Mg1_6 3.083339 1_545
Cd1_4 Cd2_5 3.107844 1_554
Cd1_5 Mg0_7 3.050148 1_545
Cd1_5 Mg0_1 3.050148 1_555
Cd1_5 Mg2_7 3.064116 1_545
Cd1_5 Mg2_1 3.064116 1_555
Cd1_5 Mg1_1 3.083339 1_555
Cd1_5 Mg1_7 3.083339 1_545
Cd1_5 Cd2_4 3.107844 1_555
Cd1_6 Mg0_2 3.050148 1_555
Cd1_6 Mg0_4 3.050148 1_555
Cd1_6 Mg2_2 3.064116 1_555
Cd1_6 Mg2_4 3.064116 1_555
Cd1_6 Mg1_2 3.083339 1_555
Cd1_6 Mg1_4 3.083339 1_555
Cd1_6 Cd2_7 3.107844 1_554
Cd1_7 Mg0_5 3.050148 1_555
Cd1_7 Mg0_3 3.050148 1_555
Cd1_7 Mg2_3 3.064116 1_555
Cd1_7 Mg2_5 3.064116 1_555
Cd1_7 Mg1_5 3.083339 1_555
Cd1_7 Mg1_3 3.083339 1_555
Cd1_7 Cd2_6 3.107844 1_555
Cd2_0 Mg2_2 3.071157 1_545
Cd2_0 Mg2_4 3.071157 1_455
Cd2_0 Mg1_4 3.095924 1_455
Cd2_0 Mg1_2 3.095924 1_545
Cd2_0 Cd2_6 3.101445 1_455
Cd2_0 Cd2_6 3.101445 1_545
Cd2_0 Mg0_5 3.148136 1_455
Cd2_0 Mg0_3 3.148136 1_545
Cd2_0 Mg0_7 3.207031 1_445
Cd2_1 Mg2_3 3.071157 1_545
Cd2_1 Mg2_5 3.071157 1_455
Cd2_1 Mg1_3 3.095924 1_545
Cd2_1 Mg1_5 3.095924 1_455
Cd2_1 Cd2_7 3.101445 1_545
Cd2_1 Cd2_7 3.101445 1_455
Cd2_1 Mg0_2 3.148136 1_546
Cd2_1 Mg0_4 3.148136 1_456
Cd2_1 Mg0_6 3.207031 1_446
Cd2_2 Mg2_6 3.071157 1_455
Cd2_2 Mg2_0 3.071157 1_555
Cd2_2 Mg1_0 3.095924 1_555
Cd2_2 Mg1_6 3.095924 1_455
Cd2_2 Cd2_4 3.101445 1_555
Cd2_2 Cd2_4 3.101445 1_465
Cd2_2 Mg0_1 3.148136 1_555
Cd2_2 Mg0_7 3.148136 1_455
Cd2_2 Mg0_5 3.207031 1_455
Cd2_3 Mg2_7 3.071157 1_455
Cd2_3 Mg2_1 3.071157 1_555
Cd2_3 Mg1_1 3.095924 1_555
Cd2_3 Mg1_7 3.095924 1_455
Cd2_3 Cd2_5 3.101445 1_465
Cd2_3 Cd2_5 3.101445 1_555
Cd2_3 Mg0_0 3.148136 1_556
Cd2_3 Mg0_6 3.148136 1_456
Cd2_3 Mg0_4 3.207031 1_456
Cd2_4 Mg2_6 3.071157 1_545
Cd2_4 Mg2_0 3.071157 1_555
Cd2_4 Mg1_0 3.095924 1_555
Cd2_4 Mg1_6 3.095924 1_545
Cd2_4 Mg0_1 3.148136 1_555
Cd2_4 Mg0_7 3.148136 1_545
Cd2_4 Mg0_3 3.207031 1_545
Cd2_5 Mg2_7 3.071157 1_545
Cd2_5 Mg2_1 3.071157 1_555
Cd2_5 Mg1_1 3.095924 1_555
Cd2_5 Mg1_7 3.095924 1_545
Cd2_5 Mg0_0 3.148136 1_556
Cd2_5 Mg0_6 3.148136 1_546
Cd2_5 Mg0_2 3.207031 1_546
Cd2_6 Mg2_4 3.071157 1_555
Cd2_6 Mg2_2 3.071157 1_555
Cd2_6 Mg1_2 3.095924 1_555
Cd2_6 Mg1_4 3.095924 1_555
Cd2_6 Mg0_3 3.148136 1_555
Cd2_6 Mg0_5 3.148136 1_555
Cd2_6 Mg0_1 3.207031 1_555
Cd2_7 Mg2_5 3.071157 1_555
Cd2_7 Mg2_3 3.071157 1_555
Cd2_7 Mg1_3 3.095924 1_555
Cd2_7 Mg1_5 3.095924 1_555
Cd2_7 Mg0_4 3.148136 1_556
Cd2_7 Mg0_2 3.148136 1_556
Cd2_7 Mg0_0 3.207031 1_556
