# generated using pymatgen
data_RePO6
_symmetry_space_group_name_H-M   'P 1'
_cell_length_a   8.51755121
_cell_length_b   8.51755121
_cell_length_c   21.11623098
_cell_angle_alpha   87.97447188
_cell_angle_beta   87.97447188
_cell_angle_gamma   61.03411985
_symmetry_Int_Tables_number   1
_chemical_formula_structural   RePO6
_chemical_formula_sum   'Re12 P12 O72'
_cell_volume   1339.19122328
_cell_formula_units_Z   12
loop_
 _symmetry_equiv_pos_site_id
 _symmetry_equiv_pos_as_xyz
  1  'x, y, z'
loop_
 _atom_site_type_symbol
 _atom_site_label
 _atom_site_symmetry_multiplicity
 _atom_site_fract_x
 _atom_site_fract_y
 _atom_site_fract_z
 _atom_site_occupancy
  Re  Re0  1  0.36184800  0.32481100  0.77940200  1
  Re  Re1  1  0.67518900  0.63815200  0.72059800  1
  Re  Re2  1  0.63815200  0.67518900  0.22059800  1
  Re  Re3  1  0.32481100  0.36184800  0.27940200  1
  Re  Re4  1  0.66486400  0.67200100  0.46062700  1
  Re  Re5  1  0.32799900  0.33513600  0.03937300  1
  Re  Re6  1  0.33513600  0.32799900  0.53937300  1
  Re  Re7  1  0.67200100  0.66486400  0.96062700  1
  Re  Re8  1  0.00201100  0.00542600  0.13052800  1
  Re  Re9  1  0.99457400  0.99798900  0.36947200  1
  Re  Re10  1  0.99798900  0.99457400  0.86947200  1
  Re  Re11  1  0.00542600  0.00201100  0.63052800  1
  P  P0  1  0.93602400  0.64291700  0.82995300  1
  P  P1  1  0.35708300  0.06397600  0.67004700  1
  P  P2  1  0.06397600  0.35708300  0.17004700  1
  P  P3  1  0.64291700  0.93602400  0.32995300  1
  P  P4  1  0.64124800  0.41983900  0.35136000  1
  P  P5  1  0.58016100  0.35875200  0.14864000  1
  P  P6  1  0.35875200  0.58016100  0.64864000  1
  P  P7  1  0.41983900  0.64124800  0.85136000  1
  P  P8  1  0.23450500  0.02565600  0.48732400  1
  P  P9  1  0.97434400  0.76549500  0.01267600  1
  P  P10  1  0.76549500  0.97434400  0.51267600  1
  P  P11  1  0.02565600  0.23450500  0.98732400  1
  O  O0  1  0.43453200  0.41029000  0.60505500  1
  O  O1  1  0.58971000  0.56546800  0.89494500  1
  O  O2  1  0.56546800  0.58971000  0.39494500  1
  O  O3  1  0.41029000  0.43453200  0.10505500  1
  O  O4  1  0.10485500  0.05904600  0.54278000  1
  O  O5  1  0.94095400  0.89514500  0.95722000  1
  O  O6  1  0.89514500  0.94095400  0.45722000  1
  O  O7  1  0.05904600  0.10485500  0.04278000  1
  O  O8  1  0.86504500  0.94161300  0.57696000  1
  O  O9  1  0.05838700  0.13495500  0.92304000  1
  O  O10  1  0.13495500  0.05838700  0.42304000  1
  O  O11  1  0.94161300  0.86504500  0.07696000  1
  O  O12  1  0.27694200  0.23666500  0.71113300  1
  O  O13  1  0.76333500  0.72305800  0.78886700  1
  O  O14  1  0.72305800  0.76333500  0.28886700  1
  O  O15  1  0.23666500  0.27694200  0.21113300  1
  O  O16  1  0.20437200  0.01286300  0.66858000  1
  O  O17  1  0.98713700  0.79562800  0.83142000  1
  O  O18  1  0.79562800  0.98713700  0.33142000  1
  O  O19  1  0.01286300  0.20437200  0.16858000  1
  O  O20  1  0.38605500  0.47730200  0.84145800  1
  O  O21  1  0.52269800  0.61394500  0.65854200  1
  O  O22  1  0.61394500  0.52269800  0.15854200  1
  O  O23  1  0.47730200  0.38605500  0.34145800  1
  O  O24  1  0.29508000  0.17334100  0.48283000  1
  O  O25  1  0.82665900  0.70492000  0.01717000  1
  O  O26  1  0.70492000  0.82665900  0.51717000  1
  O  O27  1  0.17334100  0.29508000  0.98283000  1
  O  O28  1  0.60397800  0.16324400  0.51198100  1
  O  O29  1  0.83675600  0.39602200  0.98801900  1
  O  O30  1  0.39602200  0.83675600  0.48801900  1
  O  O31  1  0.16324400  0.60397800  0.01198100  1
  O  O32  1  0.08741700  0.48000700  0.79773200  1
  O  O33  1  0.51999300  0.91258300  0.70226800  1
  O  O34  1  0.91258300  0.51999300  0.20226800  1
  O  O35  1  0.48000700  0.08741700  0.29773200  1
  O  O36  1  0.21391400  0.73760300  0.61149100  1
  O  O37  1  0.26239700  0.78608600  0.88850900  1
  O  O38  1  0.78608600  0.26239700  0.38850900  1
  O  O39  1  0.73760300  0.21391400  0.11149100  1
  O  O40  1  0.29325200  0.54315200  0.71264600  1
  O  O41  1  0.45684800  0.70674800  0.78735400  1
  O  O42  1  0.70674800  0.45684800  0.28735400  1
  O  O43  1  0.54315200  0.29325200  0.21264600  1
  O  O44  1  0.94516600  0.92533700  0.69790500  1
  O  O45  1  0.07466300  0.05483400  0.80209500  1
  O  O46  1  0.05483400  0.07466300  0.30209500  1
  O  O47  1  0.92533700  0.94516600  0.19790500  1
  O  O48  1  0.89582200  0.59436700  0.89641500  1
  O  O49  1  0.40563300  0.10417800  0.60358500  1
  O  O50  1  0.10417800  0.40563300  0.10358500  1
  O  O51  1  0.59436700  0.89582200  0.39641500  1
  O  O52  1  0.85907100  0.22837400  0.63382500  1
  O  O53  1  0.77162600  0.14092900  0.86617500  1
  O  O54  1  0.14092900  0.77162600  0.36617500  1
  O  O55  1  0.22837400  0.85907100  0.13382500  1
  O  O56  1  0.68386300  0.51552800  0.51737100  1
  O  O57  1  0.48447200  0.31613700  0.98262900  1
  O  O58  1  0.31613700  0.48447200  0.48262900  1
  O  O59  1  0.51552800  0.68386300  0.01737100  1
  O  O60  1  0.57804800  0.23040700  0.74960200  1
  O  O61  1  0.76959300  0.42195200  0.75039800  1
  O  O62  1  0.42195200  0.76959300  0.25039800  1
  O  O63  1  0.23040700  0.57804800  0.24960200  1
  O  O64  1  0.12134700  0.42628500  0.57129100  1
  O  O65  1  0.57371500  0.87865300  0.92870900  1
  O  O66  1  0.87865300  0.57371500  0.42870900  1
  O  O67  1  0.42628500  0.12134700  0.07129100  1
  O  O68  1  0.37780100  0.16372400  0.83354900  1
  O  O69  1  0.83627600  0.62219900  0.66645100  1
  O  O70  1  0.62219900  0.83627600  0.16645100  1
  O  O71  1  0.16372400  0.37780100  0.33354900  1
loop_
_geom_bond_atom_site_label_1
_geom_bond_atom_site_label_2
_geom_bond_distance
_geom_bond_site_symmetry_2
O0 P6 1.582631 1_555
O0 Re6 1.964221 1_555
O1 P7 1.582631 1_555
O1 Re7 1.964221 1_555
O2 P4 1.582631 1_555
O2 Re4 1.964221 1_555
O3 P5 1.582631 1_555
O3 Re5 1.964221 1_555
O4 P8 1.516440 1_555
O4 Re11 2.147190 1_555
O5 P9 1.516440 1_556
O5 Re10 2.147190 1_555
O6 P10 1.516440 1_555
O6 Re9 2.147190 1_555
O7 P11 1.516440 1_554
O7 Re8 2.147190 1_555
O8 P10 1.570024 1_555
O8 Re11 1.925202 1_665
O9 P11 1.570024 1_555
O9 Re10 1.925202 1_445
O10 P8 1.570024 1_555
O10 Re9 1.925202 1_445
O11 P9 1.570024 1_555
O11 Re8 1.925202 1_665
O12 P1 1.567806 1_555
O12 Re0 1.959837 1_555
O13 P0 1.567806 1_555
O13 Re1 1.959837 1_555
O14 P3 1.567806 1_555
O14 Re2 1.959837 1_555
O15 P2 1.567806 1_555
O15 Re3 1.959837 1_555
O16 P1 1.560342 1_555
O16 Re11 1.943921 1_555
O17 P0 1.560342 1_555
O17 Re10 1.943921 1_555
O18 P3 1.560342 1_555
O18 Re9 1.943921 1_555
O19 P2 1.560342 1_555
O19 Re8 1.943921 1_555
O20 P7 1.578165 1_555
O20 Re0 1.960980 1_555
O21 P6 1.578165 1_555
O21 Re1 1.960980 1_555
O22 P5 1.578165 1_555
O22 Re2 1.960980 1_555
O23 P4 1.578165 1_555
O23 Re3 1.960980 1_555
O24 P8 1.572987 1_555
O24 Re6 1.962797 1_555
O25 P9 1.572987 1_555
O25 Re7 1.962797 1_554
O26 P10 1.572987 1_555
O26 Re4 1.962797 1_555
O27 P11 1.572987 1_555
O27 Re5 1.962797 1_556
O28 P10 1.528865 1_545
O28 Re6 2.097306 1_555
O29 P11 1.528865 1_655
O29 Re7 2.097306 1_555
O30 P8 1.528865 1_565
O30 Re4 2.097306 1_555
O31 P9 1.528865 1_455
O31 Re5 2.097306 1_555
O32 P0 1.524070 1_455
O32 Re0 2.083371 1_555
O33 P1 1.524070 1_565
O33 Re1 2.083371 1_555
O34 P2 1.524070 1_655
O34 Re2 2.083371 1_555
O35 P3 1.524070 1_545
O35 Re3 2.083371 1_555
O36 P6 1.525544 1_555
O36 Re11 2.127668 1_565
O37 P7 1.525544 1_555
O37 Re10 2.127668 1_455
O38 P4 1.525544 1_555
O38 Re9 2.127668 1_545
O39 P5 1.525544 1_555
O39 Re8 2.127668 1_655
O40 P6 1.524555 1_555
O40 Re0 2.146510 1_555
O41 P7 1.524555 1_555
O41 Re1 2.146510 1_555
O42 P4 1.524555 1_555
O42 Re2 2.146510 1_555
O43 P5 1.524555 1_555
O43 Re3 2.146510 1_555
O44 Re11 1.709248 1_665
O45 Re10 1.709248 1_445
O46 Re9 1.709248 1_445
O47 Re8 1.709248 1_665
O48 P0 1.523161 1_555
O48 Re7 2.144649 1_555
O49 P1 1.523161 1_555
O49 Re6 2.144649 1_555
O50 P2 1.523161 1_555
O50 Re5 2.144649 1_555
O51 P3 1.523161 1_555
O51 Re4 2.144649 1_555
O52 Re11 1.718028 1_655
O53 Re10 1.718028 1_545
O54 Re9 1.718028 1_455
O55 Re8 1.718028 1_565
O56 Re4 1.711755 1_555
O57 Re5 1.711755 1_556
O58 Re6 1.711755 1_555
O59 Re7 1.711755 1_554
O60 Re0 1.718514 1_555
O61 Re1 1.718514 1_555
O62 Re2 1.718514 1_555
O63 Re3 1.718514 1_555
O64 Re6 1.716853 1_555
O65 Re7 1.716853 1_555
O66 Re4 1.716853 1_555
O67 Re5 1.716853 1_555
O68 Re0 1.711098 1_555
O69 Re1 1.711098 1_555
O70 Re2 1.711098 1_555
O71 Re3 1.711098 1_555
