# generated using pymatgen
data_Al9Cr(BO9)2
_symmetry_space_group_name_H-M   'P 1'
_cell_length_a   5.77991000
_cell_length_b   7.77661381
_cell_length_c   8.16057672
_cell_angle_alpha   90.09880956
_cell_angle_beta   110.62195772
_cell_angle_gamma   90.17866708
_symmetry_Int_Tables_number   1
_chemical_formula_structural   Al9Cr(BO9)2
_chemical_formula_sum   'Al9 Cr1 B2 O18'
_cell_volume   343.29640014
_cell_formula_units_Z   1
loop_
 _symmetry_equiv_pos_site_id
 _symmetry_equiv_pos_as_xyz
  1  'x, y, z'
loop_
 _atom_site_type_symbol
 _atom_site_label
 _atom_site_symmetry_multiplicity
 _atom_site_fract_x
 _atom_site_fract_y
 _atom_site_fract_z
 _atom_site_occupancy
  Al  Al0  1  0.55321300  0.81902800  0.11369200  1
  Al  Al1  1  0.44034100  0.31408300  0.88301700  1
  Al  Al2  1  0.74453600  0.81405800  0.49180800  1
  Al  Al3  1  0.25901900  0.31168400  0.51123800  1
  Al  Al4  1  0.29841200  0.66435600  0.59466500  1
  Al  Al5  1  0.70382900  0.16254900  0.41029700  1
  Al  Al6  1  0.63223500  0.99797500  0.76883400  1
  Al  Al7  1  0.13620600  0.99755800  0.76700800  1
  Al  Al8  1  0.36795100  0.49711600  0.23224100  1
  Cr  Cr0  1  0.86436400  0.49956800  0.23091200  1
  B  B0  1  0.01717200  0.78268200  0.03337200  1
  B  B1  1  0.98431200  0.27763500  0.96321100  1
  O  O0  1  0.95451800  0.90682100  0.90615700  1
  O  O1  1  0.05509900  0.40234000  0.08930900  1
  O  O2  1  0.64862500  0.96062900  0.29891100  1
  O  O3  1  0.35108700  0.46039500  0.70238400  1
  O  O4  1  0.65984600  0.63148300  0.34104300  1
  O  O5  1  0.33377200  0.12875800  0.66208800  1
  O  O6  1  0.45363400  0.92772900  0.90950600  1
  O  O7  1  0.52866400  0.42644900  0.08450400  1
  O  O8  1  0.25625000  0.71880100  0.09976500  1
  O  O9  1  0.83738100  0.72396400  0.09760500  1
  O  O10  1  0.74123400  0.21737200  0.89995300  1
  O  O11  1  0.15629900  0.21328900  0.89530800  1
  O  O12  1  0.20506400  0.56018100  0.38668100  1
  O  O13  1  0.80867400  0.05835300  0.61842100  1
  O  O14  1  0.55268300  0.79812700  0.62169100  1
  O  O15  1  0.06702400  0.79654700  0.61814900  1
  O  O16  1  0.44985600  0.29534100  0.38139300  1
  O  O17  1  0.93869900  0.28992900  0.38683600  1
loop_
_geom_bond_atom_site_label_1
_geom_bond_atom_site_label_2
_geom_bond_distance
_geom_bond_site_symmetry_2
Al0 O6 1.776137 1_554
Al0 O2 1.790152 1_555
Al0 O8 1.849448 1_555
Al0 O9 1.849480 1_555
Al0 O4 2.271265 1_555
Al1 O7 1.768824 1_556
Al1 O3 1.790927 1_555
Al1 O11 1.851486 1_555
Al1 O10 1.857021 1_555
Al1 O5 2.215896 1_555
Al2 O14 1.787716 1_555
Al2 O15 1.790036 1_655
Al2 O4 1.826093 1_555
Al2 O2 1.865451 1_555
Al2 O13 2.129137 1_565
Al3 O17 1.777778 1_455
Al3 O16 1.783052 1_555
Al3 O5 1.833289 1_555
Al3 O3 1.859839 1_555
Al3 O12 2.156874 1_555
Al4 O14 1.747026 1_555
Al4 O15 1.752309 1_555
Al4 O12 1.782026 1_555
Al4 O3 1.788999 1_555
Al5 O17 1.742452 1_555
Al5 O16 1.744504 1_555
Al5 O2 1.783646 1_545
Al5 O13 1.786400 1_555
Al6 O6 1.874905 1_555
Al6 O13 1.909936 1_565
Al6 O14 1.915416 1_555
Al6 O5 1.929927 1_565
Al6 O0 1.941332 1_555
Al6 O10 1.991225 1_565
Al7 O6 1.875854 1_555
Al7 O13 1.915273 1_465
Al7 O15 1.930417 1_555
Al7 O0 1.930872 1_455
Al7 O5 1.939717 1_565
Al7 O11 1.957373 1_565
Al8 O7 1.846118 1_555
Al8 O12 1.884637 1_555
Al8 O4 1.912388 1_555
Al8 O1 1.917432 1_555
Al8 O16 1.942447 1_555
Al8 O8 2.019732 1_555
Cr0 O7 1.968107 1_555
Cr0 O12 1.986138 1_655
Cr0 O4 2.002541 1_555
Cr0 O1 2.005471 1_655
Cr0 O17 2.021861 1_555
Cr0 O9 2.035109 1_555
B0 O0 1.371740 1_454
B0 O8 1.388409 1_555
B0 O9 1.394532 1_455
B1 O1 1.365394 1_656
B1 O11 1.391325 1_655
B1 O10 1.394354 1_555
