# generated using pymatgen
data_Er3Os
_symmetry_space_group_name_H-M   'P 1'
_cell_length_a   6.23719500
_cell_length_b   7.32901100
_cell_length_c   8.98954400
_cell_angle_alpha   90.00000000
_cell_angle_beta   90.00000000
_cell_angle_gamma   90.00000000
_symmetry_Int_Tables_number   1
_chemical_formula_structural   Er3Os
_chemical_formula_sum   'Er12 Os4'
_cell_volume   410.93426728
_cell_formula_units_Z   4
loop_
 _symmetry_equiv_pos_site_id
 _symmetry_equiv_pos_as_xyz
  1  'x, y, z'
loop_
 _atom_site_type_symbol
 _atom_site_label
 _atom_site_symmetry_multiplicity
 _atom_site_fract_x
 _atom_site_fract_y
 _atom_site_fract_z
 _atom_site_occupancy
  Er  Er0  1  0.33263100  0.67647500  0.06225000  1
  Er  Er1  1  0.16736900  0.17647500  0.43775000  1
  Er  Er2  1  0.66736900  0.32352500  0.56225000  1
  Er  Er3  1  0.83263100  0.82352500  0.93775000  1
  Er  Er4  1  0.66736900  0.32352500  0.93775000  1
  Er  Er5  1  0.83263100  0.82352500  0.56225000  1
  Er  Er6  1  0.33263100  0.67647500  0.43775000  1
  Er  Er7  1  0.16736900  0.17647500  0.06225000  1
  Er  Er8  1  0.86922600  0.53651200  0.25000000  1
  Er  Er9  1  0.63077400  0.03651200  0.25000000  1
  Er  Er10  1  0.13077400  0.46348800  0.75000000  1
  Er  Er11  1  0.36922600  0.96348800  0.75000000  1
  Os  Os0  1  0.04321600  0.88245700  0.25000000  1
  Os  Os1  1  0.45678400  0.38245700  0.25000000  1
  Os  Os2  1  0.95678400  0.11754300  0.75000000  1
  Os  Os3  1  0.54321600  0.61754300  0.75000000  1
loop_
_geom_bond_atom_site_label_1
_geom_bond_atom_site_label_2
_geom_bond_distance
_geom_bond_site_symmetry_2
Er0 Os1 2.844590 1_555
Er0 Os0 2.895889 1_555
Er0 Os3 3.129040 1_554
Er0 Er6 3.375574 1_555
Er0 Er10 3.449779 1_554
Er0 Er3 3.484216 1_554
Er0 Er3 3.484216 1_454
Er0 Er8 3.500711 1_455
Er0 Er4 3.507567 1_554
Er0 Er11 3.515120 1_554
Er0 Er9 3.642728 1_565
Er1 Os0 2.844590 1_545
Er1 Os1 2.895889 1_555
Er1 Os2 3.129040 1_455
Er1 Er7 3.375574 1_555
Er1 Er11 3.449779 1_545
Er1 Er2 3.484216 1_455
Er1 Er2 3.484216 1_555
Er1 Er9 3.500711 1_555
Er1 Er5 3.507567 1_445
Er1 Er10 3.515120 1_555
Er1 Er8 3.642728 1_455
Er2 Os3 2.844590 1_555
Er2 Os2 2.895889 1_555
Er2 Os1 3.129040 1_555
Er2 Er4 3.375574 1_555
Er2 Er8 3.449779 1_555
Er2 Er6 3.507567 1_555
Er2 Er9 3.515120 1_555
Er3 Os2 2.844590 1_565
Er3 Os3 2.895889 1_555
Er3 Os0 3.129040 1_656
Er3 Er5 3.375574 1_555
Er3 Er9 3.449779 1_566
Er3 Er7 3.507567 1_666
Er3 Er8 3.515120 1_556
Er4 Os3 2.844590 1_555
Er4 Os2 2.895889 1_555
Er4 Os1 3.129040 1_556
Er4 Er8 3.449779 1_556
Er4 Er7 3.484216 1_656
Er4 Er7 3.484216 1_556
Er4 Er9 3.515120 1_556
Er5 Os2 2.844590 1_565
Er5 Os3 2.895889 1_555
Er5 Os0 3.129040 1_655
Er5 Er9 3.449779 1_565
Er5 Er6 3.484216 1_555
Er5 Er6 3.484216 1_655
Er5 Er8 3.515120 1_555
Er6 Os1 2.844590 1_555
Er6 Os0 2.895889 1_555
Er6 Os3 3.129040 1_555
Er6 Er8 3.500711 1_455
Er6 Er9 3.642728 1_565
Er7 Os0 2.844590 1_545
Er7 Os1 2.895889 1_555
Er7 Os2 3.129040 1_454
Er7 Er9 3.500711 1_555
Er7 Er8 3.642728 1_455
Er8 Os0 2.757918 1_655
Er8 Os1 2.809352 1_555
Er9 Os1 2.757918 1_555
Er9 Os0 2.809352 1_645
Er10 Os2 2.757918 1_455
Er10 Os3 2.809352 1_555
Er10 Er6 3.449779 1_555
Er10 Er2 3.500711 1_455
Er10 Er4 3.500711 1_455
Er10 Er7 3.515120 1_556
Er10 Er5 3.642728 1_455
Er10 Er3 3.642728 1_455
Er11 Os3 2.757918 1_555
Er11 Os2 2.809352 1_465
Er11 Er7 3.449779 1_566
Er11 Er5 3.500711 1_555
Er11 Er3 3.500711 1_555
Er11 Er6 3.515120 1_555
Er11 Er2 3.642728 1_565
Er11 Er4 3.642728 1_565
