# generated using pymatgen
data_Bi(MoO5)2
_symmetry_space_group_name_H-M   'P 1'
_cell_length_a   5.69102375
_cell_length_b   5.96380712
_cell_length_c   11.55091700
_cell_angle_alpha   90.00000000
_cell_angle_beta   90.00000000
_cell_angle_gamma   109.04417192
_symmetry_Int_Tables_number   1
_chemical_formula_structural   Bi(MoO5)2
_chemical_formula_sum   'Bi2 Mo4 O20'
_cell_volume   370.58265195
_cell_formula_units_Z   2
loop_
 _symmetry_equiv_pos_site_id
 _symmetry_equiv_pos_as_xyz
  1  'x, y, z'
loop_
 _atom_site_type_symbol
 _atom_site_label
 _atom_site_symmetry_multiplicity
 _atom_site_fract_x
 _atom_site_fract_y
 _atom_site_fract_z
 _atom_site_occupancy
  Bi  Bi0  1  0.62853400  0.26338700  0.25000000  1
  Bi  Bi1  1  0.37146600  0.73661300  0.75000000  1
  Mo  Mo0  1  0.19264800  0.65122800  0.40388000  1
  Mo  Mo1  1  0.80735200  0.34877200  0.90388000  1
  Mo  Mo2  1  0.80735200  0.34877200  0.59612000  1
  Mo  Mo3  1  0.19264800  0.65122800  0.09612000  1
  O  O0  1  0.90133300  0.05891200  0.25000000  1
  O  O1  1  0.09866700  0.94108800  0.75000000  1
  O  O2  1  0.02526400  0.59028600  0.25000000  1
  O  O3  1  0.97473600  0.40971400  0.75000000  1
  O  O4  1  0.84602300  0.37468500  0.43214300  1
  O  O5  1  0.15397700  0.62531500  0.93214300  1
  O  O6  1  0.15397700  0.62531500  0.56785700  1
  O  O7  1  0.84602300  0.37468500  0.06785700  1
  O  O8  1  0.94872900  0.88783000  0.41641800  1
  O  O9  1  0.05127100  0.11217000  0.91641800  1
  O  O10  1  0.05127100  0.11217000  0.58358200  1
  O  O11  1  0.94872900  0.88783000  0.08358200  1
  O  O12  1  0.40004200  0.49746000  0.37635300  1
  O  O13  1  0.59995800  0.50254000  0.87635300  1
  O  O14  1  0.59995800  0.50254000  0.62364700  1
  O  O15  1  0.40004200  0.49746000  0.12364700  1
  O  O16  1  0.38215600  0.95397200  0.37945600  1
  O  O17  1  0.61784400  0.04602800  0.87945600  1
  O  O18  1  0.61784400  0.04602800  0.62054400  1
  O  O19  1  0.38215600  0.95397200  0.12054400  1
loop_
_geom_bond_atom_site_label_1
_geom_bond_atom_site_label_2
_geom_bond_distance
_geom_bond_site_symmetry_2
Bi0 O0 2.265573 1_555
Bi0 O7 2.421341 1_555
Bi0 O4 2.421341 1_555
Bi0 O16 2.432825 1_545
Bi0 O19 2.432825 1_545
Bi0 O2 2.454774 1_655
Bi0 O12 2.637116 1_555
Bi0 O15 2.637116 1_555
Bi1 O1 2.265573 1_555
Bi1 O5 2.421341 1_555
Bi1 O6 2.421341 1_555
Bi1 O17 2.432825 1_565
Bi1 O18 2.432825 1_565
Bi1 O3 2.454774 1_455
Bi1 O13 2.637116 1_555
Bi1 O14 2.637116 1_555
Mo0 O12 1.743986 1_555
Mo0 O16 1.797734 1_555
Mo0 O6 1.907270 1_555
Mo0 O2 1.993219 1_555
Mo0 O4 2.143550 1_455
Mo0 O8 2.284131 1_455
Mo1 O13 1.743986 1_555
Mo1 O17 1.797734 1_555
Mo1 O7 1.907270 1_556
Mo1 O3 1.993219 1_555
Mo1 O5 2.143550 1_655
Mo1 O9 2.284131 1_655
Mo2 O14 1.743986 1_555
Mo2 O18 1.797734 1_555
Mo2 O4 1.907270 1_555
Mo2 O3 1.993219 1_555
Mo2 O6 2.143550 1_655
Mo2 O10 2.284131 1_655
Mo3 O15 1.743986 1_555
Mo3 O19 1.797734 1_555
Mo3 O5 1.907270 1_554
Mo3 O2 1.993219 1_555
Mo3 O7 2.143550 1_455
Mo3 O11 2.284131 1_455
O0 O8 2.233501 1_545
O0 O11 2.233501 1_545
O0 O4 2.908415 1_555
O0 O7 2.908415 1_555
O1 O9 2.233501 1_565
O1 O10 2.233501 1_565
O1 O5 2.908415 1_555
O1 O6 2.908415 1_555
O2 O7 2.502869 1_455
O2 O4 2.502869 1_455
O2 O8 2.745560 1_455
O3 O5 2.502869 1_655
O3 O6 2.502869 1_655
O3 O9 2.745560 1_655
O4 O6 2.460402 1_655
O5 O7 2.460402 1_456
O10 O8 2.312882 1_445
O10 O18 2.405669 1_455
O10 O3 2.745560 1_455
O11 O9 2.312882 1_664
O11 O19 2.405669 1_655
O11 O2 2.745560 1_655
O12 O2 2.785009 1_555
O13 O3 2.785009 1_555
O14 O3 2.785009 1_555
O15 O2 2.785009 1_555
O16 O8 2.405669 1_455
O17 O9 2.405669 1_655
