# generated using pymatgen
data_Sr3Cu3Pb3ClO8
_symmetry_space_group_name_H-M   'P 1'
_cell_length_a   7.74085400
_cell_length_b   7.81857400
_cell_length_c   39.86908652
_cell_angle_alpha   89.11718459
_cell_angle_beta   90.00000000
_cell_angle_gamma   90.00000000
_symmetry_Int_Tables_number   1
_chemical_formula_structural   Sr3Cu3Pb3ClO8
_chemical_formula_sum   'Sr24 Cu24 Pb24 Cl8 O64'
_cell_volume   2412.68796602
_cell_formula_units_Z   8
loop_
 _symmetry_equiv_pos_site_id
 _symmetry_equiv_pos_as_xyz
  1  'x, y, z'
loop_
 _atom_site_type_symbol
 _atom_site_label
 _atom_site_symmetry_multiplicity
 _atom_site_fract_x
 _atom_site_fract_y
 _atom_site_fract_z
 _atom_site_occupancy
  Sr  Sr0_0  1  0.00000000  0.25872550  0.35947950  1
  Sr  Sr0_1  1  0.00000000  0.25872550  0.85947950  1
  Sr  Sr0_2  1  0.00000000  0.75872550  0.35947950  1
  Sr  Sr0_3  1  0.00000000  0.75872550  0.85947950  1
  Sr  Sr0_4  1  0.50000000  0.25872550  0.35947950  1
  Sr  Sr0_5  1  0.50000000  0.25872550  0.85947950  1
  Sr  Sr0_6  1  0.50000000  0.75872550  0.35947950  1
  Sr  Sr0_7  1  0.50000000  0.75872550  0.85947950  1
  Sr  Sr1_0  1  0.00000000  0.24212150  0.13692300  1
  Sr  Sr1_1  1  0.00000000  0.24212150  0.63692300  1
  Sr  Sr1_2  1  0.00000000  0.74212150  0.13692300  1
  Sr  Sr1_3  1  0.00000000  0.74212150  0.63692300  1
  Sr  Sr1_4  1  0.50000000  0.24212150  0.13692300  1
  Sr  Sr1_5  1  0.50000000  0.24212150  0.63692300  1
  Sr  Sr1_6  1  0.50000000  0.74212150  0.13692300  1
  Sr  Sr1_7  1  0.50000000  0.74212150  0.63692300  1
  Sr  Sr2_0  1  0.00000000  0.25092700  0.04875750  1
  Sr  Sr2_1  1  0.00000000  0.25092700  0.54875750  1
  Sr  Sr2_2  1  0.00000000  0.75092700  0.04875750  1
  Sr  Sr2_3  1  0.00000000  0.75092700  0.54875750  1
  Sr  Sr2_4  1  0.50000000  0.25092700  0.04875750  1
  Sr  Sr2_5  1  0.50000000  0.25092700  0.54875750  1
  Sr  Sr2_6  1  0.50000000  0.75092700  0.04875750  1
  Sr  Sr2_7  1  0.50000000  0.75092700  0.54875750  1
  Cu  Cu0_0  1  0.25000000  0.00229450  0.40646050  1
  Cu  Cu0_1  1  0.25000000  0.00229450  0.90646050  1
  Cu  Cu0_2  1  0.25000000  0.50229450  0.40646050  1
  Cu  Cu0_3  1  0.25000000  0.50229450  0.90646050  1
  Cu  Cu0_4  1  0.75000000  0.00229450  0.40646050  1
  Cu  Cu0_5  1  0.75000000  0.00229450  0.90646050  1
  Cu  Cu0_6  1  0.75000000  0.50229450  0.40646050  1
  Cu  Cu0_7  1  0.75000000  0.50229450  0.90646050  1
  Cu  Cu1_0  1  0.25000000  0.49756050  0.09257650  1
  Cu  Cu1_1  1  0.25000000  0.49756050  0.59257650  1
  Cu  Cu1_2  1  0.25000000  0.99756050  0.09257650  1
  Cu  Cu1_3  1  0.25000000  0.99756050  0.59257650  1
  Cu  Cu1_4  1  0.75000000  0.49756050  0.09257650  1
  Cu  Cu1_5  1  0.75000000  0.49756050  0.59257650  1
  Cu  Cu1_6  1  0.75000000  0.99756050  0.09257650  1
  Cu  Cu1_7  1  0.75000000  0.99756050  0.59257650  1
  Cu  Cu2_0  1  0.00000000  0.24888800  0.25004900  1
  Cu  Cu2_1  1  0.00000000  0.24888800  0.75004900  1
  Cu  Cu2_2  1  0.00000000  0.74888800  0.25004900  1
  Cu  Cu2_3  1  0.00000000  0.74888800  0.75004900  1
  Cu  Cu2_4  1  0.50000000  0.24888800  0.25004900  1
  Cu  Cu2_5  1  0.50000000  0.24888800  0.75004900  1
  Cu  Cu2_6  1  0.50000000  0.74888800  0.25004900  1
  Cu  Cu2_7  1  0.50000000  0.74888800  0.75004900  1
  Pb  Pb0_0  1  0.25000000  0.00045450  0.29325750  1
  Pb  Pb0_1  1  0.25000000  0.00045450  0.79325750  1
  Pb  Pb0_2  1  0.25000000  0.50045450  0.29325750  1
  Pb  Pb0_3  1  0.25000000  0.50045450  0.79325750  1
  Pb  Pb0_4  1  0.75000000  0.00045450  0.29325750  1
  Pb  Pb0_5  1  0.75000000  0.00045450  0.79325750  1
  Pb  Pb0_6  1  0.75000000  0.50045450  0.29325750  1
  Pb  Pb0_7  1  0.75000000  0.50045450  0.79325750  1
  Pb  Pb1_0  1  0.25000000  0.49890350  0.20476200  1
  Pb  Pb1_1  1  0.25000000  0.49890350  0.70476200  1
  Pb  Pb1_2  1  0.25000000  0.99890350  0.20476200  1
  Pb  Pb1_3  1  0.25000000  0.99890350  0.70476200  1
  Pb  Pb1_4  1  0.75000000  0.49890350  0.20476200  1
  Pb  Pb1_5  1  0.75000000  0.49890350  0.70476200  1
  Pb  Pb1_6  1  0.75000000  0.99890350  0.20476200  1
  Pb  Pb1_7  1  0.75000000  0.99890350  0.70476200  1
  Pb  Pb2_0  1  0.00000000  0.24786500  0.44834850  1
  Pb  Pb2_1  1  0.00000000  0.24786500  0.94834850  1
  Pb  Pb2_2  1  0.00000000  0.74786500  0.44834850  1
  Pb  Pb2_3  1  0.00000000  0.74786500  0.94834850  1
  Pb  Pb2_4  1  0.50000000  0.24786500  0.44834850  1
  Pb  Pb2_5  1  0.50000000  0.24786500  0.94834850  1
  Pb  Pb2_6  1  0.50000000  0.74786500  0.44834850  1
  Pb  Pb2_7  1  0.50000000  0.74786500  0.94834850  1
  Cl  Cl0_0  1  0.25000000  0.00218750  0.00882900  1
  Cl  Cl0_1  1  0.25000000  0.00218750  0.50882900  1
  Cl  Cl0_2  1  0.25000000  0.50218750  0.00882900  1
  Cl  Cl0_3  1  0.25000000  0.50218750  0.50882900  1
  Cl  Cl0_4  1  0.75000000  0.00218750  0.00882900  1
  Cl  Cl0_5  1  0.75000000  0.00218750  0.50882900  1
  Cl  Cl0_6  1  0.75000000  0.50218750  0.00882900  1
  Cl  Cl0_7  1  0.75000000  0.50218750  0.50882900  1
  O  O0_0  1  0.00000000  0.00137550  0.41326700  1
  O  O0_1  1  0.00000000  0.00137550  0.91326700  1
  O  O0_2  1  0.00000000  0.50137550  0.41326700  1
  O  O0_3  1  0.00000000  0.50137550  0.91326700  1
  O  O0_4  1  0.50000000  0.00137550  0.41326700  1
  O  O0_5  1  0.50000000  0.00137550  0.91326700  1
  O  O0_6  1  0.50000000  0.50137550  0.41326700  1
  O  O0_7  1  0.50000000  0.50137550  0.91326700  1
  O  O1_0  1  0.25000000  0.24784550  0.08825150  1
  O  O1_1  1  0.25000000  0.24784550  0.58825150  1
  O  O1_2  1  0.25000000  0.74784550  0.08825150  1
  O  O1_3  1  0.25000000  0.74784550  0.58825150  1
  O  O1_4  1  0.75000000  0.24784550  0.08825150  1
  O  O1_5  1  0.75000000  0.24784550  0.58825150  1
  O  O1_6  1  0.75000000  0.74784550  0.08825150  1
  O  O1_7  1  0.75000000  0.74784550  0.58825150  1
  O  O2_0  1  0.00000000  0.49829750  0.08758250  1
  O  O2_1  1  0.00000000  0.49829750  0.58758250  1
  O  O2_2  1  0.00000000  0.99829750  0.08758250  1
  O  O2_3  1  0.00000000  0.99829750  0.58758250  1
  O  O2_4  1  0.50000000  0.49829750  0.08758250  1
  O  O2_5  1  0.50000000  0.49829750  0.58758250  1
  O  O2_6  1  0.50000000  0.99829750  0.08758250  1
  O  O2_7  1  0.50000000  0.99829750  0.58758250  1
  O  O3_0  1  0.25000000  0.25191350  0.41229650  1
  O  O3_1  1  0.25000000  0.25191350  0.91229650  1
  O  O3_2  1  0.25000000  0.75191350  0.41229650  1
  O  O3_3  1  0.25000000  0.75191350  0.91229650  1
  O  O3_4  1  0.75000000  0.25191350  0.41229650  1
  O  O3_5  1  0.75000000  0.25191350  0.91229650  1
  O  O3_6  1  0.75000000  0.75191350  0.41229650  1
  O  O3_7  1  0.75000000  0.75191350  0.91229650  1
  O  O4_0  1  0.25000000  0.01228100  0.34846350  1
  O  O4_1  1  0.25000000  0.01228100  0.84846350  1
  O  O4_2  1  0.25000000  0.51228100  0.34846350  1
  O  O4_3  1  0.25000000  0.51228100  0.84846350  1
  O  O4_4  1  0.75000000  0.01228100  0.34846350  1
  O  O4_5  1  0.75000000  0.01228100  0.84846350  1
  O  O4_6  1  0.75000000  0.51228100  0.34846350  1
  O  O4_7  1  0.75000000  0.51228100  0.84846350  1
  O  O5_0  1  0.25000000  0.49023050  0.15038150  1
  O  O5_1  1  0.25000000  0.49023050  0.65038150  1
  O  O5_2  1  0.25000000  0.99023050  0.15038150  1
  O  O5_3  1  0.25000000  0.99023050  0.65038150  1
  O  O5_4  1  0.75000000  0.49023050  0.15038150  1
  O  O5_5  1  0.75000000  0.49023050  0.65038150  1
  O  O5_6  1  0.75000000  0.99023050  0.15038150  1
  O  O5_7  1  0.75000000  0.99023050  0.65038150  1
  O  O6_0  1  0.00000000  0.30035200  0.29578050  1
  O  O6_1  1  0.00000000  0.30035200  0.79578050  1
  O  O6_2  1  0.00000000  0.80035200  0.29578050  1
  O  O6_3  1  0.00000000  0.80035200  0.79578050  1
  O  O6_4  1  0.50000000  0.30035200  0.29578050  1
  O  O6_5  1  0.50000000  0.30035200  0.79578050  1
  O  O6_6  1  0.50000000  0.80035200  0.29578050  1
  O  O6_7  1  0.50000000  0.80035200  0.79578050  1
  O  O7_0  1  0.00000000  0.19777700  0.20453350  1
  O  O7_1  1  0.00000000  0.19777700  0.70453350  1
  O  O7_2  1  0.00000000  0.69777700  0.20453350  1
  O  O7_3  1  0.00000000  0.69777700  0.70453350  1
  O  O7_4  1  0.50000000  0.19777700  0.20453350  1
  O  O7_5  1  0.50000000  0.19777700  0.70453350  1
  O  O7_6  1  0.50000000  0.69777700  0.20453350  1
  O  O7_7  1  0.50000000  0.69777700  0.70453350  1
loop_
_geom_bond_atom_site_label_1
_geom_bond_atom_site_label_2
_geom_bond_distance
_geom_bond_site_symmetry_2
Cu0_0 O0_4 1.954145 1_555
Cu0_0 O0_0 1.954145 1_555
Cu0_0 O3_2 1.967838 1_545
Cu0_0 O3_0 1.969042 1_555
Cu0_0 O4_0 2.312403 1_555
Cu0_1 O0_5 1.954145 1_555
Cu0_1 O0_1 1.954145 1_555
Cu0_1 O3_3 1.967838 1_545
Cu0_1 O3_1 1.969042 1_555
Cu0_1 O4_1 2.312403 1_555
Cu0_2 O0_6 1.954145 1_555
Cu0_2 O0_2 1.954145 1_555
Cu0_2 O3_0 1.967838 1_555
Cu0_2 O3_2 1.969042 1_555
Cu0_2 O4_2 2.312403 1_555
Cu0_3 O0_3 1.954145 1_555
Cu0_3 O0_7 1.954145 1_555
Cu0_3 O3_1 1.967838 1_555
Cu0_3 O3_3 1.969042 1_555
Cu0_3 O4_3 2.312403 1_555
Cu0_4 O0_0 1.954145 1_655
Cu0_4 O0_4 1.954145 1_555
Cu0_4 O3_6 1.967838 1_545
Cu0_4 O3_4 1.969042 1_555
Cu0_4 O4_4 2.312403 1_555
Cu0_5 O0_1 1.954145 1_655
Cu0_5 O0_5 1.954145 1_555
Cu0_5 O3_7 1.967838 1_545
Cu0_5 O3_5 1.969042 1_555
Cu0_5 O4_5 2.312403 1_555
Cu0_6 O0_2 1.954145 1_655
Cu0_6 O0_6 1.954145 1_555
Cu0_6 O3_4 1.967838 1_555
Cu0_6 O3_6 1.969042 1_555
Cu0_6 O4_6 2.312403 1_555
Cu0_7 O0_3 1.954145 1_655
Cu0_7 O0_7 1.954145 1_555
Cu0_7 O3_5 1.967838 1_555
Cu0_7 O3_7 1.969042 1_555
Cu0_7 O4_7 2.312403 1_555
Cu1_0 O2_0 1.945429 1_555
Cu1_0 O2_4 1.945429 1_555
Cu1_0 O1_2 1.961806 1_555
Cu1_0 O1_0 1.962660 1_555
Cu1_0 O5_0 2.304462 1_555
Cu1_1 O2_5 1.945429 1_555
Cu1_1 O2_1 1.945429 1_555
Cu1_1 O1_3 1.961806 1_555
Cu1_1 O1_1 1.962660 1_555
Cu1_1 O5_1 2.304462 1_555
Cu1_2 O2_2 1.945429 1_555
Cu1_2 O2_6 1.945429 1_555
Cu1_2 O1_0 1.961806 1_565
Cu1_2 O1_2 1.962660 1_555
Cu1_2 O5_2 2.304462 1_555
Cu1_3 O2_3 1.945429 1_555
Cu1_3 O2_7 1.945429 1_555
Cu1_3 O1_1 1.961806 1_565
Cu1_3 O1_3 1.962660 1_555
Cu1_3 O5_3 2.304462 1_555
Cu1_4 O2_0 1.945429 1_655
Cu1_4 O2_4 1.945429 1_555
Cu1_4 O1_6 1.961806 1_555
Cu1_4 O1_4 1.962660 1_555
Cu1_4 O5_4 2.304462 1_555
Cu1_5 O2_1 1.945429 1_655
Cu1_5 O2_5 1.945429 1_555
Cu1_5 O1_7 1.961806 1_555
Cu1_5 O1_5 1.962660 1_555
Cu1_5 O5_5 2.304462 1_555
Cu1_6 O2_2 1.945429 1_655
Cu1_6 O2_6 1.945429 1_555
Cu1_6 O1_4 1.961806 1_565
Cu1_6 O1_6 1.962660 1_555
Cu1_6 O5_6 2.304462 1_555
Cu1_7 O2_3 1.945429 1_655
Cu1_7 O2_7 1.945429 1_555
Cu1_7 O1_5 1.961806 1_565
Cu1_7 O1_7 1.962660 1_555
Cu1_7 O5_7 2.304462 1_555
Cu2_0 O7_0 1.864144 1_555
Cu2_0 O6_0 1.873189 1_555
Cu2_1 O7_1 1.864144 1_555
Cu2_1 O6_1 1.873189 1_555
Cu2_2 O7_2 1.864144 1_555
Cu2_2 O6_2 1.873189 1_555
Cu2_3 O7_3 1.864144 1_555
Cu2_3 O6_3 1.873189 1_555
Cu2_4 O7_4 1.864144 1_555
Cu2_4 O6_4 1.873189 1_555
Cu2_5 O7_5 1.864144 1_555
Cu2_5 O6_5 1.873189 1_555
Cu2_6 O7_6 1.864144 1_555
Cu2_6 O6_6 1.873189 1_555
Cu2_7 O7_7 1.864144 1_555
Cu2_7 O6_7 1.873189 1_555
Cl0_0 Sr2_2 3.168931 1_545
Cl0_0 Sr2_6 3.168931 1_545
Cl0_0 Sr2_0 3.186980 1_555
Cl0_0 Sr2_4 3.186980 1_555
Cl0_0 Cu1_2 3.338575 1_545
Cl0_0 Pb2_1 3.620271 1_554
Cl0_0 Pb2_5 3.620271 1_554
Cl0_0 Pb2_3 3.696088 1_544
Cl0_0 Pb2_7 3.696088 1_544
Cl0_0 Cl0_4 3.870427 1_455
Cl0_0 Cl0_4 3.870427 1_555
Cl0_0 Cl0_2 3.909287 1_545
Cl0_0 Cl0_2 3.909287 1_555
Cl0_1 Sr2_3 3.168931 1_545
Cl0_1 Sr2_7 3.168931 1_545
Cl0_1 Sr2_5 3.186980 1_555
Cl0_1 Sr2_1 3.186980 1_555
Cl0_1 Cu1_3 3.338575 1_545
Cl0_1 Pb2_0 3.620271 1_555
Cl0_1 Pb2_4 3.620271 1_555
Cl0_1 Pb2_6 3.696088 1_545
Cl0_1 Pb2_2 3.696088 1_545
Cl0_1 Cl0_5 3.870427 1_455
Cl0_1 Cl0_5 3.870427 1_555
Cl0_1 Cl0_3 3.909287 1_555
Cl0_1 Cl0_3 3.909287 1_545
Cl0_2 Sr2_0 3.168931 1_555
Cl0_2 Sr2_4 3.168931 1_555
Cl0_2 Sr2_6 3.186980 1_555
Cl0_2 Sr2_2 3.186980 1_555
Cl0_2 Cu1_0 3.338575 1_555
Cl0_2 Pb2_3 3.620271 1_554
Cl0_2 Pb2_7 3.620271 1_554
Cl0_2 Pb2_1 3.696088 1_554
Cl0_2 Pb2_5 3.696088 1_554
Cl0_2 Cl0_6 3.870427 1_455
Cl0_2 Cl0_6 3.870427 1_555
Cl0_3 Sr2_5 3.168931 1_555
Cl0_3 Sr2_1 3.168931 1_555
Cl0_3 Sr2_3 3.186980 1_555
Cl0_3 Sr2_7 3.186980 1_555
Cl0_3 Cu1_1 3.338575 1_555
Cl0_3 Pb2_2 3.620271 1_555
Cl0_3 Pb2_6 3.620271 1_555
Cl0_3 Pb2_0 3.696088 1_555
Cl0_3 Pb2_4 3.696088 1_555
Cl0_3 Cl0_7 3.870427 1_455
Cl0_3 Cl0_7 3.870427 1_555
Cl0_4 Sr2_2 3.168931 1_645
Cl0_4 Sr2_6 3.168931 1_545
Cl0_4 Sr2_0 3.186980 1_655
Cl0_4 Sr2_4 3.186980 1_555
Cl0_4 Cu1_6 3.338575 1_545
Cl0_4 Pb2_1 3.620271 1_654
Cl0_4 Pb2_5 3.620271 1_554
Cl0_4 Pb2_3 3.696088 1_644
Cl0_4 Pb2_7 3.696088 1_544
Cl0_4 Cl0_6 3.909287 1_545
Cl0_4 Cl0_6 3.909287 1_555
Cl0_5 Sr2_3 3.168931 1_645
Cl0_5 Sr2_7 3.168931 1_545
Cl0_5 Sr2_1 3.186980 1_655
Cl0_5 Sr2_5 3.186980 1_555
Cl0_5 Cu1_7 3.338575 1_545
Cl0_5 Pb2_0 3.620271 1_655
Cl0_5 Pb2_4 3.620271 1_555
Cl0_5 Pb2_2 3.696088 1_645
Cl0_5 Pb2_6 3.696088 1_545
Cl0_5 Cl0_7 3.909287 1_555
Cl0_5 Cl0_7 3.909287 1_545
Cl0_6 Sr2_0 3.168931 1_655
Cl0_6 Sr2_4 3.168931 1_555
Cl0_6 Sr2_2 3.186980 1_655
Cl0_6 Sr2_6 3.186980 1_555
Cl0_6 Cu1_4 3.338575 1_555
Cl0_6 Pb2_3 3.620271 1_654
Cl0_6 Pb2_7 3.620271 1_554
Cl0_6 Pb2_1 3.696088 1_654
Cl0_6 Pb2_5 3.696088 1_554
Cl0_7 Sr2_1 3.168931 1_655
Cl0_7 Sr2_5 3.168931 1_555
Cl0_7 Sr2_3 3.186980 1_655
Cl0_7 Sr2_7 3.186980 1_555
Cl0_7 Cu1_5 3.338575 1_555
Cl0_7 Pb2_2 3.620271 1_655
Cl0_7 Pb2_6 3.620271 1_555
Cl0_7 Pb2_0 3.696088 1_655
Cl0_7 Pb2_4 3.696088 1_555
O0_0 Pb2_0 2.398628 1_555
O0_0 Pb2_2 2.408221 1_545
O0_0 Sr0_2 2.885022 1_545
O0_0 Sr0_0 2.917932 1_555
O0_1 Pb2_1 2.398628 1_555
O0_1 Pb2_3 2.408221 1_545
O0_1 Sr0_3 2.885022 1_545
O0_1 Sr0_1 2.917932 1_555
O0_2 Pb2_2 2.398628 1_555
O0_2 Pb2_0 2.408221 1_555
O0_2 Sr0_0 2.885022 1_555
O0_2 Sr0_2 2.917932 1_555
O0_3 Pb2_3 2.398628 1_555
O0_3 Pb2_1 2.408221 1_555
O0_3 Sr0_1 2.885022 1_555
O0_3 Sr0_3 2.917932 1_555
O0_4 Pb2_4 2.398628 1_555
O0_4 Pb2_6 2.408221 1_545
O0_4 Sr0_6 2.885022 1_545
O0_4 Sr0_4 2.917932 1_555
O0_5 Pb2_5 2.398628 1_555
O0_5 Pb2_7 2.408221 1_545
O0_5 Sr0_7 2.885022 1_545
O0_5 Sr0_5 2.917932 1_555
O0_6 Pb2_6 2.398628 1_555
O0_6 Pb2_4 2.408221 1_555
O0_6 Sr0_4 2.885022 1_555
O0_6 Sr0_6 2.917932 1_555
O0_7 Pb2_7 2.398628 1_555
O0_7 Pb2_5 2.408221 1_555
O0_7 Sr0_5 2.885022 1_555
O0_7 Sr0_7 2.917932 1_555
O1_0 Sr2_0 2.494754 1_555
O1_0 Sr2_4 2.494754 1_555
O1_0 Sr1_0 2.740415 1_555
O1_0 Sr1_4 2.740415 1_555
O1_1 Sr2_1 2.494754 1_555
O1_1 Sr2_5 2.494754 1_555
O1_1 Sr1_1 2.740415 1_555
O1_1 Sr1_5 2.740415 1_555
O1_2 Sr2_2 2.494754 1_555
O1_2 Sr2_6 2.494754 1_555
O1_2 Sr1_6 2.740415 1_555
O1_2 Sr1_2 2.740415 1_555
O1_3 Sr2_3 2.494754 1_555
O1_3 Sr2_7 2.494754 1_555
O1_3 Sr1_7 2.740415 1_555
O1_3 Sr1_3 2.740415 1_555
O1_4 Sr2_0 2.494754 1_655
O1_4 Sr2_4 2.494754 1_555
O1_4 Sr1_0 2.740415 1_655
O1_4 Sr1_4 2.740415 1_555
O1_5 Sr2_1 2.494754 1_655
O1_5 Sr2_5 2.494754 1_555
O1_5 Sr1_1 2.740415 1_655
O1_5 Sr1_5 2.740415 1_555
O1_6 Sr2_2 2.494754 1_655
O1_6 Sr2_6 2.494754 1_555
O1_6 Sr1_2 2.740415 1_655
O1_6 Sr1_6 2.740415 1_555
O1_7 Sr2_3 2.494754 1_655
O1_7 Sr2_7 2.494754 1_555
O1_7 Sr1_3 2.740415 1_655
O1_7 Sr1_7 2.740415 1_555
O2_0 Sr2_2 2.490634 1_555
O2_0 Sr2_0 2.495793 1_555
O2_0 Sr1_2 2.760339 1_555
O2_0 Sr1_0 2.785685 1_555
O2_1 Sr2_3 2.490634 1_555
O2_1 Sr2_1 2.495793 1_555
O2_1 Sr1_3 2.760339 1_555
O2_1 Sr1_1 2.785685 1_555
O2_2 Sr2_0 2.490634 1_565
O2_2 Sr2_2 2.495793 1_555
O2_2 Sr1_0 2.760339 1_565
O2_2 Sr1_2 2.785685 1_555
O2_3 Sr2_1 2.490634 1_565
O2_3 Sr2_3 2.495793 1_555
O2_3 Sr1_1 2.760339 1_565
O2_3 Sr1_3 2.785685 1_555
O2_4 Sr2_6 2.490634 1_555
O2_4 Sr2_4 2.495793 1_555
O2_4 Sr1_6 2.760339 1_555
O2_4 Sr1_4 2.785685 1_555
O2_5 Sr2_7 2.490634 1_555
O2_5 Sr2_5 2.495793 1_555
O2_5 Sr1_7 2.760339 1_555
O2_5 Sr1_5 2.785685 1_555
O2_6 Sr2_4 2.490634 1_565
O2_6 Sr2_6 2.495793 1_555
O2_6 Sr1_4 2.760339 1_565
O2_6 Sr1_6 2.785685 1_555
O2_7 Sr2_5 2.490634 1_565
O2_7 Sr2_7 2.495793 1_555
O2_7 Sr1_5 2.760339 1_565
O2_7 Sr1_7 2.785685 1_555
O3_0 Pb2_0 2.410530 1_555
O3_0 Pb2_4 2.410530 1_555
O3_0 Sr0_0 2.859839 1_555
O3_0 Sr0_4 2.859839 1_555
O3_1 Pb2_1 2.410530 1_555
O3_1 Pb2_5 2.410530 1_555
O3_1 Sr0_5 2.859839 1_555
O3_1 Sr0_1 2.859839 1_555
O3_2 Pb2_6 2.410530 1_555
O3_2 Pb2_2 2.410530 1_555
O3_2 Sr0_6 2.859839 1_555
O3_2 Sr0_2 2.859839 1_555
O3_3 Pb2_7 2.410530 1_555
O3_3 Pb2_3 2.410530 1_555
O3_3 Sr0_7 2.859839 1_555
O3_3 Sr0_3 2.859839 1_555
O3_4 Pb2_0 2.410530 1_655
O3_4 Pb2_4 2.410530 1_555
O3_4 Sr0_0 2.859839 1_655
O3_4 Sr0_4 2.859839 1_555
O3_5 Pb2_1 2.410530 1_655
O3_5 Pb2_5 2.410530 1_555
O3_5 Sr0_1 2.859839 1_655
O3_5 Sr0_5 2.859839 1_555
O3_6 Pb2_2 2.410530 1_655
O3_6 Pb2_6 2.410530 1_555
O3_6 Sr0_2 2.859839 1_655
O3_6 Sr0_6 2.859839 1_555
O3_7 Pb2_3 2.410530 1_655
O3_7 Pb2_7 2.410530 1_555
O3_7 Sr0_3 2.859839 1_655
O3_7 Sr0_7 2.859839 1_555
O4_0 Pb0_0 2.204377 1_555
O4_0 Sr0_0 2.770696 1_555
O4_0 Sr0_4 2.770696 1_555
O4_0 Sr0_6 2.800213 1_545
O4_0 Sr0_2 2.800213 1_545
O4_1 Pb0_1 2.204377 1_555
O4_1 Sr0_1 2.770696 1_555
O4_1 Sr0_5 2.770696 1_555
O4_1 Sr0_7 2.800213 1_545
O4_1 Sr0_3 2.800213 1_545
O4_2 Pb0_2 2.204377 1_555
O4_2 Sr0_6 2.770696 1_555
O4_2 Sr0_2 2.770696 1_555
O4_2 Sr0_4 2.800213 1_555
O4_2 Sr0_0 2.800213 1_555
O4_3 Pb0_3 2.204377 1_555
O4_3 Sr0_3 2.770696 1_555
O4_3 Sr0_7 2.770696 1_555
O4_3 Sr0_1 2.800213 1_555
O4_3 Sr0_5 2.800213 1_555
O4_4 Pb0_4 2.204377 1_555
O4_4 Sr0_0 2.770696 1_655
O4_4 Sr0_4 2.770696 1_555
O4_4 Sr0_2 2.800213 1_645
O4_4 Sr0_6 2.800213 1_545
O4_5 Pb0_5 2.204377 1_555
O4_5 Sr0_1 2.770696 1_655
O4_5 Sr0_5 2.770696 1_555
O4_5 Sr0_3 2.800213 1_645
O4_5 Sr0_7 2.800213 1_545
O4_6 Pb0_6 2.204377 1_555
O4_6 Sr0_2 2.770696 1_655
O4_6 Sr0_6 2.770696 1_555
O4_6 Sr0_0 2.800213 1_655
O4_6 Sr0_4 2.800213 1_555
O4_7 Pb0_7 2.204377 1_555
O4_7 Sr0_3 2.770696 1_655
O4_7 Sr0_7 2.770696 1_555
O4_7 Sr0_1 2.800213 1_655
O4_7 Sr0_5 2.800213 1_555
O5_0 Pb1_0 2.170205 1_555
O5_0 Sr1_0 2.797873 1_555
O5_0 Sr1_4 2.797873 1_555
O5_0 Sr1_2 2.806965 1_555
O5_0 Sr1_6 2.806965 1_555
O5_1 Pb1_1 2.170205 1_555
O5_1 Sr1_1 2.797873 1_555
O5_1 Sr1_5 2.797873 1_555
O5_1 Sr1_3 2.806965 1_555
O5_1 Sr1_7 2.806965 1_555
O5_2 Pb1_2 2.170205 1_555
O5_2 Sr1_2 2.797873 1_555
O5_2 Sr1_6 2.797873 1_555
O5_2 Sr1_0 2.806965 1_565
O5_2 Sr1_4 2.806965 1_565
O5_3 Pb1_3 2.170205 1_555
O5_3 Sr1_3 2.797873 1_555
O5_3 Sr1_7 2.797873 1_555
O5_3 Sr1_1 2.806965 1_565
O5_3 Sr1_5 2.806965 1_565
O5_4 Pb1_4 2.170205 1_555
O5_4 Sr1_0 2.797873 1_655
O5_4 Sr1_4 2.797873 1_555
O5_4 Sr1_2 2.806965 1_655
O5_4 Sr1_6 2.806965 1_555
O5_5 Pb1_5 2.170205 1_555
O5_5 Sr1_1 2.797873 1_655
O5_5 Sr1_5 2.797873 1_555
O5_5 Sr1_3 2.806965 1_655
O5_5 Sr1_7 2.806965 1_555
O5_6 Pb1_6 2.170205 1_555
O5_6 Sr1_2 2.797873 1_655
O5_6 Sr1_6 2.797873 1_555
O5_6 Sr1_0 2.806965 1_665
O5_6 Sr1_4 2.806965 1_565
O5_7 Pb1_7 2.170205 1_555
O5_7 Sr1_3 2.797873 1_655
O5_7 Sr1_7 2.797873 1_555
O5_7 Sr1_1 2.806965 1_665
O5_7 Sr1_5 2.806965 1_565
O6_0 Pb0_6 2.489585 1_455
O6_0 Pb0_2 2.489585 1_555
O6_0 Sr0_0 2.555412 1_555
O6_0 Pb0_4 3.043089 1_455
O6_0 Pb0_0 3.043089 1_555
O6_1 Pb0_7 2.489585 1_455
O6_1 Pb0_3 2.489585 1_555
O6_1 Sr0_1 2.555412 1_555
O6_1 Pb0_5 3.043089 1_455
O6_1 Pb0_1 3.043089 1_555
O6_2 Pb0_4 2.489585 1_465
O6_2 Pb0_0 2.489585 1_565
O6_2 Sr0_2 2.555412 1_555
O6_2 Pb0_6 3.043089 1_455
O6_2 Pb0_2 3.043089 1_555
O6_3 Pb0_5 2.489585 1_465
O6_3 Pb0_1 2.489585 1_565
O6_3 Sr0_3 2.555412 1_555
O6_3 Pb0_7 3.043089 1_455
O6_3 Pb0_3 3.043089 1_555
O6_4 Pb0_2 2.489585 1_555
O6_4 Pb0_6 2.489585 1_555
O6_4 Sr0_4 2.555412 1_555
O6_4 Pb0_0 3.043089 1_555
O6_4 Pb0_4 3.043089 1_555
O6_5 Pb0_3 2.489585 1_555
O6_5 Pb0_7 2.489585 1_555
O6_5 Sr0_5 2.555412 1_555
O6_5 Pb0_1 3.043089 1_555
O6_5 Pb0_5 3.043089 1_555
O6_6 Pb0_0 2.489585 1_565
O6_6 Pb0_4 2.489585 1_565
O6_6 Sr0_6 2.555412 1_555
O6_6 Pb0_2 3.043089 1_555
O6_6 Pb0_6 3.043089 1_555
O6_7 Pb0_1 2.489585 1_565
O6_7 Pb0_5 2.489585 1_565
O6_7 Sr0_7 2.555412 1_555
O6_7 Pb0_3 3.043089 1_555
O6_7 Pb0_7 3.043089 1_555
O7_0 Pb1_6 2.482425 1_445
O7_0 Pb1_2 2.482425 1_545
O7_0 Sr1_0 2.712471 1_555
O7_1 Pb1_7 2.482425 1_445
O7_1 Pb1_3 2.482425 1_545
O7_1 Sr1_1 2.712471 1_555
O7_2 Pb1_4 2.482425 1_455
O7_2 Pb1_0 2.482425 1_555
O7_2 Sr1_2 2.712471 1_555
O7_3 Pb1_5 2.482425 1_455
O7_3 Pb1_1 2.482425 1_555
O7_3 Sr1_3 2.712471 1_555
O7_4 Pb1_2 2.482425 1_545
O7_4 Pb1_6 2.482425 1_545
O7_4 Sr1_4 2.712471 1_555
O7_5 Pb1_3 2.482425 1_545
O7_5 Pb1_7 2.482425 1_545
O7_5 Sr1_5 2.712471 1_555
O7_6 Pb1_0 2.482425 1_555
O7_6 Pb1_4 2.482425 1_555
O7_6 Sr1_6 2.712471 1_555
O7_7 Pb1_1 2.482425 1_555
O7_7 Pb1_5 2.482425 1_555
O7_7 Sr1_7 2.712471 1_555
