# generated using pymatgen
data_LaGdAl4
_symmetry_space_group_name_H-M   'P 1'
_cell_length_a   5.67058202
_cell_length_b   5.67058202
_cell_length_c   5.67058202
_cell_angle_alpha   60.00000000
_cell_angle_beta   60.00000000
_cell_angle_gamma   60.00000000
_symmetry_Int_Tables_number   1
_chemical_formula_structural   LaGdAl4
_chemical_formula_sum   'La1 Gd1 Al4'
_cell_volume   128.93413525
_cell_formula_units_Z   1
loop_
 _symmetry_equiv_pos_site_id
 _symmetry_equiv_pos_as_xyz
  1  'x, y, z'
loop_
 _atom_site_type_symbol
 _atom_site_label
 _atom_site_symmetry_multiplicity
 _atom_site_fract_x
 _atom_site_fract_y
 _atom_site_fract_z
 _atom_site_occupancy
  La  La0  1  0.00000000  0.00000000  0.00000000  1
  Gd  Gd0  1  0.25000000  0.25000000  0.25000000  1
  Al  Al0  1  0.62489900  0.62489900  0.12530200  1
  Al  Al1  1  0.62489900  0.12530200  0.62489900  1
  Al  Al2  1  0.12530200  0.62489900  0.62489900  1
  Al  Al3  1  0.62489900  0.62489900  0.62489900  1
loop_
_geom_bond_atom_site_label_1
_geom_bond_atom_site_label_2
_geom_bond_distance
_geom_bond_site_symmetry_2
Gd0 La0 3.472508 1_556
Gd0 La0 3.472508 1_555
Gd0 La0 3.472508 1_565
Gd0 La0 3.472508 1_655
Al0 Al1 2.833006 1_555
Al0 Al2 2.833006 1_555
Al0 Al3 2.833006 1_555
Al0 Al2 2.837576 1_654
Al0 Al3 2.837576 1_554
Al0 Al1 2.837576 1_564
Al0 Gd0 3.324427 1_555
Al0 Gd0 3.324432 1_565
Al0 Gd0 3.324432 1_655
Al0 La0 3.324915 1_565
Al0 La0 3.324915 1_655
Al0 La0 3.324920 1_665
Al1 Al2 2.833006 1_555
Al1 Al3 2.833006 1_555
Al1 Al3 2.837576 1_545
Al1 Al2 2.837576 1_645
Al1 Gd0 3.324427 1_555
Al1 Gd0 3.324432 1_655
Al1 Gd0 3.324432 1_556
Al1 La0 3.324915 1_655
Al1 La0 3.324915 1_556
Al1 La0 3.324920 1_656
Al2 Al3 2.833006 1_555
Al2 Al3 2.837576 1_455
Al2 Gd0 3.324427 1_555
Al2 Gd0 3.324432 1_556
Al2 Gd0 3.324432 1_565
Al2 La0 3.324915 1_565
Al2 La0 3.324915 1_556
Al2 La0 3.324920 1_566
Al3 Gd0 3.324429 1_556
Al3 Gd0 3.324429 1_655
Al3 Gd0 3.324429 1_565
Al3 La0 3.324918 1_656
Al3 La0 3.324918 1_566
Al3 La0 3.324918 1_665
