# generated using pymatgen
data_Mg14CoSiO16
_symmetry_space_group_name_H-M   'P 1'
_cell_length_a   8.56358003
_cell_length_b   8.50653504
_cell_length_c   4.27634530
_cell_angle_alpha   90.00000000
_cell_angle_beta   90.00000000
_cell_angle_gamma   90.00000000
_symmetry_Int_Tables_number   1
_chemical_formula_structural   Mg14CoSiO16
_chemical_formula_sum   'Mg14 Co1 Si1 O16'
_cell_volume   311.51633286
_cell_formula_units_Z   1
loop_
 _symmetry_equiv_pos_site_id
 _symmetry_equiv_pos_as_xyz
  1  'x, y, z'
loop_
 _atom_site_type_symbol
 _atom_site_label
 _atom_site_symmetry_multiplicity
 _atom_site_fract_x
 _atom_site_fract_y
 _atom_site_fract_z
 _atom_site_occupancy
  Mg  Mg0  1  0.50000000  0.00000000  0.00000000  1
  Mg  Mg1  1  0.50000000  0.50000000  0.00000000  1
  Mg  Mg2  1  0.00000000  0.24272798  0.50000000  1
  Mg  Mg3  1  0.00000000  0.75727202  0.50000000  1
  Mg  Mg4  1  0.50000000  0.24808436  0.50000000  1
  Mg  Mg5  1  0.50000000  0.75191564  0.50000000  1
  Mg  Mg6  1  0.24609713  0.00000000  0.50000000  1
  Mg  Mg7  1  0.25023665  0.50000000  0.50000000  1
  Mg  Mg8  1  0.75390287  0.00000000  0.50000000  1
  Mg  Mg9  1  0.74976335  0.50000000  0.50000000  1
  Mg  Mg10  1  0.24953995  0.24412456  0.00000000  1
  Mg  Mg11  1  0.24953995  0.75587544  0.00000000  1
  Mg  Mg12  1  0.75046005  0.24412456  0.00000000  1
  Mg  Mg13  1  0.75046005  0.75587544  0.00000000  1
  Co  Co0  1  0.00000000  0.00000000  0.00000000  1
  Si  Si0  1  0.00000000  0.50000000  0.00000000  1
  O  O0  1  0.26187329  0.00000000  0.00000000  1
  O  O1  1  0.24112078  0.50000000  0.00000000  1
  O  O2  1  0.73812671  0.00000000  0.00000000  1
  O  O3  1  0.75887922  0.50000000  0.00000000  1
  O  O4  1  0.24801918  0.25117027  0.50000000  1
  O  O5  1  0.24801918  0.74882973  0.50000000  1
  O  O6  1  0.75198082  0.25117027  0.50000000  1
  O  O7  1  0.75198082  0.74882973  0.50000000  1
  O  O8  1  0.00000000  0.00000000  0.50000000  1
  O  O9  1  0.00000000  0.50000000  0.50000000  1
  O  O10  1  0.50000000  0.00000000  0.50000000  1
  O  O11  1  0.50000000  0.50000000  0.50000000  1
  O  O12  1  0.00000000  0.28218179  0.00000000  1
  O  O13  1  0.00000000  0.71781821  0.00000000  1
  O  O14  1  0.50000000  0.25479103  0.00000000  1
  O  O15  1  0.50000000  0.74520897  0.00000000  1
loop_
_geom_bond_atom_site_label_1
_geom_bond_atom_site_label_2
_geom_bond_distance
_geom_bond_site_symmetry_2
Mg0 O2 2.039217 1_555
Mg0 O0 2.039217 1_555
Mg0 O10 2.138173 1_555
Mg0 O10 2.138173 1_554
Mg0 O15 2.167389 1_545
Mg0 O14 2.167389 1_555
Mg1 O15 2.085879 1_555
Mg1 O14 2.085879 1_555
Mg1 O11 2.138173 1_554
Mg1 O11 2.138173 1_555
Mg1 O3 2.216933 1_555
Mg1 O1 2.216933 1_555
Mg2 O8 2.064774 1_555
Mg2 O4 2.125146 1_555
Mg2 O6 2.125146 1_455
Mg2 O12 2.164352 1_555
Mg2 O12 2.164352 1_556
Mg2 O9 2.188493 1_555
Mg3 O8 2.064774 1_565
Mg3 O7 2.125146 1_455
Mg3 O5 2.125146 1_555
Mg3 O13 2.164352 1_555
Mg3 O13 2.164352 1_556
Mg3 O9 2.188493 1_555
Mg4 O10 2.110338 1_555
Mg4 O14 2.138934 1_556
Mg4 O14 2.138934 1_555
Mg4 O11 2.142929 1_555
Mg4 O4 2.158018 1_555
Mg4 O6 2.158018 1_555
Mg5 O10 2.110338 1_565
Mg5 O15 2.138934 1_556
Mg5 O15 2.138934 1_555
Mg5 O11 2.142929 1_555
Mg5 O5 2.158018 1_555
Mg5 O7 2.158018 1_555
Mg6 O8 2.107472 1_555
Mg6 O4 2.136652 1_555
Mg6 O5 2.136652 1_545
Mg6 O0 2.142437 1_555
Mg6 O0 2.142437 1_556
Mg6 O10 2.174318 1_555
Mg7 O4 2.116764 1_555
Mg7 O5 2.116764 1_555
Mg7 O11 2.138868 1_555
Mg7 O1 2.139597 1_556
Mg7 O1 2.139597 1_555
Mg7 O9 2.142922 1_555
Mg8 O8 2.107472 1_655
Mg8 O7 2.136652 1_545
Mg8 O6 2.136652 1_555
Mg8 O2 2.142437 1_555
Mg8 O2 2.142437 1_556
Mg8 O10 2.174318 1_555
Mg9 O6 2.116764 1_555
Mg9 O7 2.116764 1_555
Mg9 O11 2.138868 1_555
Mg9 O3 2.139597 1_556
Mg9 O3 2.139597 1_555
Mg9 O9 2.142922 1_655
Mg10 O0 2.079338 1_555
Mg10 O4 2.139052 1_554
Mg10 O4 2.139052 1_555
Mg10 O14 2.146753 1_555
Mg10 O12 2.161338 1_555
Mg10 O1 2.177807 1_555
Mg11 O0 2.079338 1_565
Mg11 O5 2.139052 1_554
Mg11 O5 2.139052 1_555
Mg11 O15 2.146753 1_555
Mg11 O13 2.161338 1_555
Mg11 O1 2.177807 1_555
Mg12 O2 2.079338 1_555
Mg12 O6 2.139052 1_554
Mg12 O6 2.139052 1_555
Mg12 O14 2.146753 1_555
Mg12 O12 2.161338 1_655
Mg12 O3 2.177807 1_555
Mg13 O2 2.079338 1_565
Mg13 O7 2.139052 1_554
Mg13 O7 2.139052 1_555
Mg13 O15 2.146753 1_555
Mg13 O13 2.161338 1_655
Mg13 O3 2.177807 1_555
Co0 O8 2.138173 1_554
Co0 O8 2.138173 1_555
Co0 O0 2.242573 1_555
Co0 O2 2.242573 1_455
Co0 O13 2.400389 1_545
Co0 O12 2.400389 1_555
O1 Si0 2.064857 1_555
O3 Si0 2.064857 1_655
O9 Si0 2.138173 1_555
O9 Si0 2.138173 1_556
O12 Si0 1.852878 1_555
O13 Si0 1.852878 1_555
