# generated using pymatgen
data_Ca(CO2)2
_symmetry_space_group_name_H-M   'P 1'
_cell_length_a   6.46649100
_cell_length_b   10.31181500
_cell_length_c   13.49618800
_cell_angle_alpha   90.00000000
_cell_angle_beta   90.00000000
_cell_angle_gamma   90.00000000
_symmetry_Int_Tables_number   1
_chemical_formula_structural   Ca(CO2)2
_chemical_formula_sum   'Ca8 C16 O32'
_cell_volume   899.94280607
_cell_formula_units_Z   8
loop_
 _symmetry_equiv_pos_site_id
 _symmetry_equiv_pos_as_xyz
  1  'x, y, z'
loop_
 _atom_site_type_symbol
 _atom_site_label
 _atom_site_symmetry_multiplicity
 _atom_site_fract_x
 _atom_site_fract_y
 _atom_site_fract_z
 _atom_site_occupancy
  Ca  Ca0  1  0.47670700  0.13370600  0.38884200  1
  Ca  Ca1  1  0.02329300  0.63370600  0.61115800  1
  Ca  Ca2  1  0.97670700  0.86629400  0.11115800  1
  Ca  Ca3  1  0.52329300  0.36629400  0.88884200  1
  Ca  Ca4  1  0.52329300  0.86629400  0.61115800  1
  Ca  Ca5  1  0.97670700  0.36629400  0.38884200  1
  Ca  Ca6  1  0.02329300  0.13370600  0.88884200  1
  Ca  Ca7  1  0.47670700  0.63370600  0.11115800  1
  C  C0  1  0.16205300  0.11343200  0.54626300  1
  C  C1  1  0.33794700  0.61343200  0.45373700  1
  C  C2  1  0.66205300  0.88656800  0.95373700  1
  C  C3  1  0.83794700  0.38656800  0.04626300  1
  C  C4  1  0.83794700  0.88656800  0.45373700  1
  C  C5  1  0.66205300  0.38656800  0.54626300  1
  C  C6  1  0.33794700  0.11343200  0.04626300  1
  C  C7  1  0.16205300  0.61343200  0.95373700  1
  C  C8  1  0.85563300  0.12955500  0.23163500  1
  C  C9  1  0.64436700  0.62955500  0.76836500  1
  C  C10  1  0.35563300  0.87044500  0.26836500  1
  C  C11  1  0.14436700  0.37044500  0.73163500  1
  C  C12  1  0.14436700  0.87044500  0.76836500  1
  C  C13  1  0.35563300  0.37044500  0.23163500  1
  C  C14  1  0.64436700  0.12955500  0.73163500  1
  C  C15  1  0.85563300  0.62955500  0.26836500  1
  O  O0  1  0.31225800  0.03680700  0.54861200  1
  O  O1  1  0.18774200  0.53680700  0.45138800  1
  O  O2  1  0.81225800  0.96319300  0.95138800  1
  O  O3  1  0.68774200  0.46319300  0.04861200  1
  O  O4  1  0.68774200  0.96319300  0.45138800  1
  O  O5  1  0.81225800  0.46319300  0.54861200  1
  O  O6  1  0.18774200  0.03680700  0.04861200  1
  O  O7  1  0.31225800  0.53680700  0.95138800  1
  O  O8  1  0.12427700  0.19978000  0.48352500  1
  O  O9  1  0.37572300  0.69978000  0.51647500  1
  O  O10  1  0.62427700  0.80022000  0.01647500  1
  O  O11  1  0.87572300  0.30022000  0.98352500  1
  O  O12  1  0.87572300  0.80022000  0.51647500  1
  O  O13  1  0.62427700  0.30022000  0.48352500  1
  O  O14  1  0.37572300  0.19978000  0.98352500  1
  O  O15  1  0.12427700  0.69978000  0.01647500  1
  O  O16  1  0.78360300  0.20052300  0.29974100  1
  O  O17  1  0.71639700  0.70052300  0.70025900  1
  O  O18  1  0.28360300  0.79947700  0.20025900  1
  O  O19  1  0.21639700  0.29947700  0.79974100  1
  O  O20  1  0.21639700  0.79947700  0.70025900  1
  O  O21  1  0.28360300  0.29947700  0.29974100  1
  O  O22  1  0.71639700  0.20052300  0.79974100  1
  O  O23  1  0.78360300  0.70052300  0.20025900  1
  O  O24  1  0.79721800  0.02255600  0.20000900  1
  O  O25  1  0.70278200  0.52255600  0.79999100  1
  O  O26  1  0.29721800  0.97744400  0.29999100  1
  O  O27  1  0.20278200  0.47744400  0.70000900  1
  O  O28  1  0.20278200  0.97744400  0.79999100  1
  O  O29  1  0.29721800  0.47744400  0.20000900  1
  O  O30  1  0.70278200  0.02255600  0.70000900  1
  O  O31  1  0.79721800  0.52255600  0.29999100  1
loop_
_geom_bond_atom_site_label_1
_geom_bond_atom_site_label_2
_geom_bond_distance
_geom_bond_site_symmetry_2
Ca0 O26 2.319813 1_545
Ca0 O13 2.343467 1_555
Ca0 O4 2.380433 1_545
Ca0 O16 2.420577 1_555
Ca0 O21 2.434620 1_555
Ca0 O0 2.603616 1_555
Ca0 O8 2.700172 1_555
Ca1 O27 2.319813 1_555
Ca1 O12 2.343467 1_455
Ca1 O5 2.380433 1_455
Ca1 O17 2.420577 1_455
Ca1 O20 2.434620 1_555
Ca1 O1 2.603616 1_555
Ca1 O9 2.700172 1_555
Ca2 O24 2.319813 1_565
Ca2 O15 2.343467 1_655
Ca2 O6 2.380433 1_665
Ca2 O18 2.420577 1_655
Ca2 O23 2.434620 1_555
Ca2 O2 2.603616 1_554
Ca2 O10 2.700172 1_555
Ca3 O25 2.319813 1_555
Ca3 O14 2.343467 1_555
Ca3 O7 2.380433 1_555
Ca3 O19 2.420577 1_555
Ca3 O22 2.434620 1_555
Ca3 O3 2.603616 1_556
Ca3 O11 2.700172 1_555
Ca4 O30 2.319813 1_565
Ca4 O9 2.343467 1_555
Ca4 O0 2.380433 1_565
Ca4 O20 2.420577 1_555
Ca4 O17 2.434620 1_555
Ca4 O4 2.603616 1_555
Ca4 O12 2.700172 1_555
Ca5 O31 2.319813 1_555
Ca5 O8 2.343467 1_655
Ca5 O1 2.380433 1_655
Ca5 O21 2.420577 1_655
Ca5 O16 2.434620 1_555
Ca5 O5 2.603616 1_555
Ca5 O13 2.700172 1_555
Ca6 O28 2.319813 1_545
Ca6 O11 2.343467 1_455
Ca6 O2 2.380433 1_445
Ca6 O22 2.420577 1_455
Ca6 O19 2.434620 1_555
Ca6 O6 2.603616 1_556
Ca6 O14 2.700172 1_555
Ca7 O29 2.319813 1_555
Ca7 O10 2.343467 1_555
Ca7 O3 2.380433 1_555
Ca7 O23 2.420577 1_555
Ca7 O18 2.434620 1_555
Ca7 O7 2.603616 1_554
Ca7 O15 2.700172 1_555
C0 O0 1.252499 1_555
C0 O8 1.252770 1_555
C1 O1 1.252499 1_555
C1 O9 1.252770 1_555
C2 O2 1.252499 1_555
C2 O10 1.252770 1_556
C3 O3 1.252499 1_555
C3 O11 1.252770 1_554
C4 O4 1.252499 1_555
C4 O12 1.252770 1_555
C5 O5 1.252499 1_555
C5 O13 1.252770 1_555
C6 O6 1.252499 1_555
C6 O14 1.252770 1_554
C7 O7 1.252499 1_555
C7 O15 1.252770 1_556
C8 O24 1.241878 1_555
C8 O16 1.263872 1_555
C9 O25 1.241878 1_555
C9 O17 1.263872 1_555
C10 O26 1.241878 1_555
C10 O18 1.263872 1_555
C11 O27 1.241878 1_555
C11 O19 1.263872 1_555
C12 O28 1.241878 1_555
C12 O20 1.263872 1_555
C13 O29 1.241878 1_555
C13 O21 1.263872 1_555
C14 O30 1.241878 1_555
C14 O22 1.263872 1_555
C15 O31 1.241878 1_555
C15 O23 1.263872 1_555
