# generated using pymatgen
data_Ba2DyBiO6
_symmetry_space_group_name_H-M   'P 1'
_cell_length_a   8.70534350
_cell_length_b   8.70534350
_cell_length_c   8.70534350
_cell_angle_alpha   90.00000000
_cell_angle_beta   90.00000000
_cell_angle_gamma   90.00000000
_symmetry_Int_Tables_number   1
_chemical_formula_structural   Ba2DyBiO6
_chemical_formula_sum   'Ba8 Dy4 Bi4 O24'
_cell_volume   659.71709393
_cell_formula_units_Z   4
loop_
 _symmetry_equiv_pos_site_id
 _symmetry_equiv_pos_as_xyz
  1  'x, y, z'
loop_
 _atom_site_type_symbol
 _atom_site_label
 _atom_site_symmetry_multiplicity
 _atom_site_fract_x
 _atom_site_fract_y
 _atom_site_fract_z
 _atom_site_occupancy
  Ba  Ba0  1  0.50000000  0.50000000  0.50000000  1
  Ba  Ba1  1  -0.00000000  0.00000000  -0.00000000  1
  Ba  Ba2  1  -0.00000000  0.00000000  0.50000000  1
  Ba  Ba3  1  -0.00000000  0.50000000  -0.00000000  1
  Ba  Ba4  1  0.50000000  0.00000000  -0.00000000  1
  Ba  Ba5  1  0.50000000  0.50000000  -0.00000000  1
  Ba  Ba6  1  0.50000000  0.00000000  0.50000000  1
  Ba  Ba7  1  -0.00000000  0.50000000  0.50000000  1
  Dy  Dy0  1  0.25000000  0.25000000  0.25000000  1
  Dy  Dy1  1  0.25000000  0.75000000  0.75000000  1
  Dy  Dy2  1  0.75000000  0.25000000  0.75000000  1
  Dy  Dy3  1  0.75000000  0.75000000  0.25000000  1
  Bi  Bi0  1  0.75000000  0.75000000  0.75000000  1
  Bi  Bi1  1  0.75000000  0.25000000  0.25000000  1
  Bi  Bi2  1  0.25000000  0.75000000  0.25000000  1
  Bi  Bi3  1  0.25000000  0.25000000  0.75000000  1
  O  O0  1  0.23305998  0.26922053  0.50588132  1
  O  O1  1  0.23305998  0.73077947  0.49411868  1
  O  O2  1  0.76694002  0.26922053  0.49411868  1
  O  O3  1  0.76694002  0.73077947  0.50588132  1
  O  O4  1  0.26922053  0.50588132  0.23305998  1
  O  O5  1  0.73077947  0.49411868  0.23305998  1
  O  O6  1  0.26922053  0.49411868  0.76694002  1
  O  O7  1  0.73077947  0.50588132  0.76694002  1
  O  O8  1  0.50588132  0.23305998  0.26922053  1
  O  O9  1  0.49411868  0.23305998  0.73077947  1
  O  O10  1  0.49411868  0.76694002  0.26922053  1
  O  O11  1  0.50588132  0.76694002  0.73077947  1
  O  O12  1  0.26694002  0.23077947  0.99411868  1
  O  O13  1  0.26694002  0.76922053  0.00588132  1
  O  O14  1  0.73305998  0.23077947  0.00588132  1
  O  O15  1  0.73305998  0.76922053  0.99411868  1
  O  O16  1  0.23077947  0.99411868  0.26694002  1
  O  O17  1  0.76922053  0.00588132  0.26694002  1
  O  O18  1  0.23077947  0.00588132  0.73305998  1
  O  O19  1  0.76922053  0.99411868  0.73305998  1
  O  O20  1  0.99411868  0.26694002  0.23077947  1
  O  O21  1  0.00588132  0.26694002  0.76922053  1
  O  O22  1  0.00588132  0.73305998  0.23077947  1
  O  O23  1  0.99411868  0.73305998  0.76922053  1
loop_
_geom_bond_atom_site_label_1
_geom_bond_atom_site_label_2
_geom_bond_distance
_geom_bond_site_symmetry_2
Ba0 O1 3.072268 1_555
Ba0 O4 3.072268 1_555
Ba0 O8 3.072268 1_555
Ba0 O5 3.072268 1_555
Ba0 O0 3.072268 1_555
Ba0 O9 3.072268 1_555
Ba0 O10 3.072268 1_555
Ba0 O2 3.072268 1_555
Ba0 O3 3.072268 1_555
Ba0 O11 3.072268 1_555
Ba0 O6 3.072268 1_555
Ba0 O7 3.072268 1_555
Ba1 O20 3.072268 1_455
Ba1 O14 3.072268 1_455
Ba1 O22 3.072268 1_545
Ba1 O16 3.072268 1_545
Ba1 O18 3.072268 1_554
Ba1 O21 3.072268 1_554
Ba1 O23 3.072268 1_444
Ba1 O12 3.072268 1_554
Ba1 O13 3.072268 1_545
Ba1 O17 3.072268 1_455
Ba1 O15 3.072268 1_444
Ba1 O19 3.072268 1_444
Ba2 O17 2.855707 1_455
Ba2 O16 2.855707 1_545
Ba2 O18 2.855707 1_555
Ba2 O19 2.855707 1_445
Ba2 O3 3.100267 1_445
Ba2 O2 3.100267 1_455
Ba2 O1 3.100267 1_545
Ba2 O0 3.100267 1_555
Ba2 O23 3.300821 1_445
Ba2 O22 3.300821 1_545
Ba2 O20 3.300821 1_455
Ba2 O21 3.300821 1_555
Ba3 O21 2.855707 1_554
Ba3 O20 2.855707 1_455
Ba3 O22 2.855707 1_555
Ba3 O23 2.855707 1_454
Ba3 O7 3.100267 1_454
Ba3 O6 3.100267 1_554
Ba3 O4 3.100267 1_555
Ba3 O5 3.100267 1_455
Ba3 O14 3.300821 1_455
Ba3 O15 3.300821 1_454
Ba3 O12 3.300821 1_554
Ba3 O13 3.300821 1_555
Ba4 O13 2.855707 1_545
Ba4 O12 2.855707 1_554
Ba4 O14 2.855707 1_555
Ba4 O15 2.855707 1_544
Ba4 O10 3.100267 1_545
Ba4 O11 3.100267 1_544
Ba4 O8 3.100267 1_555
Ba4 O9 3.100267 1_554
Ba4 O17 3.300821 1_555
Ba4 O19 3.300821 1_544
Ba4 O16 3.300821 1_545
Ba4 O18 3.300821 1_554
Ba5 O6 2.855707 1_554
Ba5 O7 2.855707 1_554
Ba5 O4 2.855707 1_555
Ba5 O5 2.855707 1_555
Ba5 O13 3.100267 1_555
Ba5 O12 3.100267 1_554
Ba5 O14 3.100267 1_555
Ba5 O15 3.100267 1_554
Ba5 O8 3.300821 1_555
Ba5 O9 3.300821 1_554
Ba5 O10 3.300821 1_555
Ba5 O11 3.300821 1_554
Ba6 O10 2.855707 1_545
Ba6 O11 2.855707 1_545
Ba6 O8 2.855707 1_555
Ba6 O9 2.855707 1_555
Ba6 O17 3.100267 1_555
Ba6 O16 3.100267 1_545
Ba6 O18 3.100267 1_555
Ba6 O19 3.100267 1_545
Ba6 O1 3.300821 1_545
Ba6 O0 3.300821 1_555
Ba6 O3 3.300821 1_545
Ba6 O2 3.300821 1_555
Ba7 O3 2.855707 1_455
Ba7 O2 2.855707 1_455
Ba7 O0 2.855707 1_555
Ba7 O1 2.855707 1_555
Ba7 O20 3.100267 1_455
Ba7 O21 3.100267 1_555
Ba7 O23 3.100267 1_455
Ba7 O22 3.100267 1_555
Ba7 O4 3.300821 1_555
Ba7 O5 3.300821 1_455
Ba7 O6 3.300821 1_555
Ba7 O7 3.300821 1_455
Dy0 O12 2.238673 1_554
Dy0 O8 2.238673 1_555
Dy0 O0 2.238673 1_555
Dy0 O20 2.238673 1_455
Dy0 O16 2.238673 1_545
Dy0 O4 2.238673 1_555
Dy1 O23 2.238673 1_455
Dy1 O11 2.238673 1_555
Dy1 O1 2.238673 1_555
Dy1 O6 2.238673 1_555
Dy1 O13 2.238673 1_556
Dy1 O18 2.238673 1_565
Dy2 O9 2.238673 1_555
Dy2 O19 2.238673 1_545
Dy2 O2 2.238673 1_555
Dy2 O7 2.238673 1_555
Dy2 O21 2.238673 1_655
Dy2 O14 2.238673 1_556
Dy3 O15 2.238673 1_554
Dy3 O10 2.238673 1_555
Dy3 O3 2.238673 1_555
Dy3 O5 2.238673 1_555
Dy3 O22 2.238673 1_655
Dy3 O17 2.238673 1_565
Bi0 O15 2.136808 1_555
Bi0 O19 2.136808 1_555
Bi0 O23 2.136808 1_555
Bi0 O11 2.136808 1_555
Bi0 O7 2.136808 1_555
Bi0 O3 2.136808 1_555
Bi1 O14 2.136808 1_555
Bi1 O17 2.136808 1_555
Bi1 O20 2.136808 1_555
Bi1 O2 2.136808 1_555
Bi1 O8 2.136808 1_555
Bi1 O5 2.136808 1_555
Bi2 O13 2.136808 1_555
Bi2 O22 2.136808 1_555
Bi2 O1 2.136808 1_555
Bi2 O4 2.136808 1_555
Bi2 O10 2.136808 1_555
Bi2 O16 2.136808 1_555
Bi3 O18 2.136808 1_555
Bi3 O21 2.136808 1_555
Bi3 O12 2.136808 1_555
Bi3 O0 2.136808 1_555
Bi3 O6 2.136808 1_555
Bi3 O9 2.136808 1_555
