# generated using pymatgen
data_Li3NiF6
_symmetry_space_group_name_H-M   'P 1'
_cell_length_a   4.92813707
_cell_length_b   8.32343161
_cell_length_c   9.40231774
_cell_angle_alpha   90.00000000
_cell_angle_beta   90.00000000
_cell_angle_gamma   90.00000000
_symmetry_Int_Tables_number   1
_chemical_formula_structural   Li3NiF6
_chemical_formula_sum   'Li12 Ni4 F24'
_cell_volume   385.67378295
_cell_formula_units_Z   4
loop_
 _symmetry_equiv_pos_site_id
 _symmetry_equiv_pos_as_xyz
  1  'x, y, z'
loop_
 _atom_site_type_symbol
 _atom_site_label
 _atom_site_symmetry_multiplicity
 _atom_site_fract_x
 _atom_site_fract_y
 _atom_site_fract_z
 _atom_site_occupancy
  Li  Li0  1  0.99245869  0.86731829  0.37623831  1
  Li  Li1  1  0.49245869  0.13268171  0.62376169  1
  Li  Li2  1  0.99245869  0.63268171  0.87623831  1
  Li  Li3  1  0.49245869  0.36731829  0.12376169  1
  Li  Li4  1  0.99529882  0.55443809  0.14736623  1
  Li  Li5  1  0.49529882  0.44556191  0.85263377  1
  Li  Li6  1  0.99529882  0.94556191  0.64736623  1
  Li  Li7  1  0.49529882  0.05443809  0.35263377  1
  Li  Li8  1  0.00284123  0.94479621  0.10355311  1
  Li  Li9  1  0.50284123  0.05520379  0.89644689  1
  Li  Li10  1  0.00284123  0.55520379  0.60355311  1
  Li  Li11  1  0.50284123  0.44479621  0.39644689  1
  Ni  Ni0  1  0.49772316  0.74157972  0.13001115  1
  Ni  Ni1  1  0.99772316  0.25842028  0.86998885  1
  Ni  Ni2  1  0.49772316  0.75842028  0.63001115  1
  Ni  Ni3  1  0.99772316  0.24157972  0.36998885  1
  F  F0  1  0.67558246  0.58089902  0.01204559  1
  F  F1  1  0.17558246  0.41910098  0.98795441  1
  F  F2  1  0.67558246  0.91910098  0.51204559  1
  F  F3  1  0.17558246  0.08089902  0.48795441  1
  F  F4  1  0.34836584  0.56281689  0.23069517  1
  F  F5  1  0.84836584  0.43718311  0.76930483  1
  F  F6  1  0.34836584  0.93718311  0.73069517  1
  F  F7  1  0.84836584  0.06281689  0.26930483  1
  F  F8  1  0.65139119  0.90649302  0.02197468  1
  F  F9  1  0.15139119  0.09350698  0.97802532  1
  F  F10  1  0.65139119  0.59350698  0.52197468  1
  F  F11  1  0.15139119  0.40649302  0.47802532  1
  F  F12  1  0.81497192  0.73595383  0.24203735  1
  F  F13  1  0.31497192  0.26404617  0.75796265  1
  F  F14  1  0.81497192  0.76404617  0.74203735  1
  F  F15  1  0.31497192  0.23595383  0.25796265  1
  F  F16  1  0.81296377  0.39293734  0.25103173  1
  F  F17  1  0.31296377  0.60706266  0.74896827  1
  F  F18  1  0.81296377  0.10706266  0.75103173  1
  F  F19  1  0.31296377  0.89293734  0.24896827  1
  F  F20  1  0.16993192  0.74512508  0.02324231  1
  F  F21  1  0.66993192  0.25487492  0.97675769  1
  F  F22  1  0.16993192  0.75487492  0.52324231  1
  F  F23  1  0.66993192  0.24512508  0.47675769  1
loop_
_geom_bond_atom_site_label_1
_geom_bond_atom_site_label_2
_geom_bond_distance
_geom_bond_site_symmetry_2
F0 Ni0 1.946065 1_555
F0 Li4 2.037121 1_555
F0 Li2 2.062735 1_554
F0 Li5 2.074806 1_554
F0 Li3 2.253454 1_555
F1 Ni1 1.946065 1_455
F1 Li5 2.037121 1_555
F1 Li3 2.062735 1_556
F1 Li4 2.074806 1_456
F1 Li2 2.253454 1_455
F2 Ni2 1.946065 1_555
F2 Li6 2.037121 1_555
F2 Li0 2.062735 1_555
F2 Li7 2.074806 1_565
F2 Li1 2.253454 1_565
F3 Ni3 1.946065 1_455
F3 Li7 2.037121 1_555
F3 Li1 2.062735 1_555
F3 Li6 2.074806 1_445
F3 Li0 2.253454 1_445
F4 Li4 1.909498 1_455
F4 Ni0 1.910982 1_555
F4 Li11 1.993312 1_555
F4 Li3 2.040336 1_555
F5 Li5 1.909498 1_555
F5 Ni1 1.910982 1_555
F5 Li10 1.993312 1_655
F5 Li2 2.040336 1_555
F6 Li6 1.909498 1_455
F6 Ni2 1.910982 1_555
F6 Li9 1.993312 1_565
F6 Li1 2.040336 1_565
F7 Li7 1.909498 1_555
F7 Ni3 1.910982 1_555
F7 Li8 1.993312 1_645
F7 Li0 2.040336 1_545
F8 Li9 1.860386 1_564
F8 Ni0 1.868017 1_555
F8 Li8 1.920879 1_655
F9 Li8 1.860386 1_546
F9 Ni1 1.868017 1_455
F9 Li9 1.920879 1_555
F10 Li11 1.860386 1_555
F10 Ni2 1.868017 1_555
F10 Li10 1.920879 1_655
F11 Li10 1.860386 1_555
F11 Ni3 1.868017 1_455
F11 Li11 1.920879 1_555
F12 Li0 1.884870 1_555
F12 Ni0 1.885738 1_555
F12 Li4 1.965882 1_555
F12 Li8 2.360979 1_655
F13 Li1 1.884870 1_555
F13 Ni1 1.885738 1_455
F13 Li5 1.965882 1_555
F13 Li9 2.360979 1_555
F14 Li2 1.884870 1_555
F14 Ni2 1.885738 1_555
F14 Li6 1.965882 1_555
F14 Li10 2.360979 1_655
F15 Li3 1.884870 1_555
F15 Ni3 1.885738 1_455
F15 Li7 1.965882 1_555
F15 Li11 2.360979 1_555
F16 Li4 1.887974 1_555
F16 Ni3 1.914983 1_555
F16 Li3 1.993038 1_555
F16 Li11 2.095577 1_555
F17 Li5 1.887974 1_555
F17 Ni2 1.914983 1_555
F17 Li2 1.993038 1_455
F17 Li10 2.095577 1_555
F18 Li6 1.887974 1_545
F18 Ni1 1.914983 1_555
F18 Li1 1.993038 1_555
F18 Li9 2.095577 1_555
F19 Li7 1.887974 1_565
F19 Ni0 1.914983 1_555
F19 Li0 1.993038 1_455
F19 Li8 2.095577 1_555
F20 Li2 1.884489 1_454
F20 Ni0 1.902144 1_555
F20 Li8 2.002580 1_555
F20 Li4 2.149833 1_455
F21 Li3 1.884489 1_556
F21 Ni1 1.902144 1_555
F21 Li9 2.002580 1_555
F21 Li5 2.149833 1_555
F22 Li0 1.884489 1_455
F22 Ni2 1.902144 1_555
F22 Li10 2.002580 1_555
F22 Li6 2.149833 1_455
F23 Li1 1.884489 1_555
F23 Ni3 1.902144 1_555
F23 Li11 2.002580 1_555
F23 Li7 2.149833 1_555
