# generated using pymatgen
data_Sn3H28C9IN
_symmetry_space_group_name_H-M   'P 1'
_cell_length_a   16.57049986
_cell_length_b   16.57049986
_cell_length_c   16.57049986
_cell_angle_alpha   90.00000000
_cell_angle_beta   90.00000000
_cell_angle_gamma   90.00000000
_symmetry_Int_Tables_number   1
_chemical_formula_structural   Sn3H28C9IN
_chemical_formula_sum   'Sn24 H224 C72 I8 N8'
_cell_volume   4549.95213745
_cell_formula_units_Z   8
loop_
 _symmetry_equiv_pos_site_id
 _symmetry_equiv_pos_as_xyz
  1  'x, y, z'
loop_
 _atom_site_type_symbol
 _atom_site_label
 _atom_site_symmetry_multiplicity
 _atom_site_fract_x
 _atom_site_fract_y
 _atom_site_fract_z
 _atom_site_occupancy
  Sn  Sn0  1  0.53640862  0.28372904  0.83432104  1
  Sn  Sn1  1  0.16567896  0.03640862  0.21627096  1
  Sn  Sn2  1  0.78372904  0.66567896  0.46359138  1
  Sn  Sn3  1  0.03640862  0.21627096  0.16567896  1
  Sn  Sn4  1  0.66567896  0.46359138  0.78372904  1
  Sn  Sn5  1  0.28372904  0.83432104  0.53640862  1
  Sn  Sn6  1  0.46359138  0.78372904  0.66567896  1
  Sn  Sn7  1  0.83432104  0.53640862  0.28372904  1
  Sn  Sn8  1  0.21627096  0.16567896  0.03640862  1
  Sn  Sn9  1  0.96359138  0.71627096  0.33432104  1
  Sn  Sn10  1  0.33432104  0.96359138  0.71627096  1
  Sn  Sn11  1  0.71627096  0.33432104  0.96359138  1
  Sn  Sn12  1  0.46266480  0.71198868  0.17841859  1
  Sn  Sn13  1  0.82158141  0.96266480  0.78801132  1
  Sn  Sn14  1  0.21198868  0.32158141  0.53733520  1
  Sn  Sn15  1  0.96266480  0.78801132  0.82158141  1
  Sn  Sn16  1  0.32158141  0.53733520  0.21198868  1
  Sn  Sn17  1  0.71198868  0.17841859  0.46266480  1
  Sn  Sn18  1  0.53733520  0.21198868  0.32158141  1
  Sn  Sn19  1  0.17841859  0.46266480  0.71198868  1
  Sn  Sn20  1  0.78801132  0.82158141  0.96266480  1
  Sn  Sn21  1  0.03733520  0.28801132  0.67841859  1
  Sn  Sn22  1  0.67841859  0.03733520  0.28801132  1
  Sn  Sn23  1  0.28801132  0.67841859  0.03733520  1
  H  H0  1  0.69131402  0.30868598  0.80868598  1
  H  H1  1  0.19131402  0.19131402  0.19131402  1
  H  H2  1  0.80868598  0.69131402  0.30868598  1
  H  H3  1  0.30868598  0.80868598  0.69131402  1
  H  H4  1  0.30548453  0.69451547  0.19451547  1
  H  H5  1  0.80548453  0.80548453  0.80548453  1
  H  H6  1  0.19451547  0.30548453  0.69451547  1
  H  H7  1  0.69451547  0.19451547  0.30548453  1
  H  H8  1  0.54853479  0.17195286  0.71633086  1
  H  H9  1  0.28366914  0.04853479  0.32804714  1
  H  H10  1  0.67195286  0.78366914  0.45146521  1
  H  H11  1  0.04853479  0.32804714  0.28366914  1
  H  H12  1  0.78366914  0.45146521  0.67195286  1
  H  H13  1  0.17195286  0.71633086  0.54853479  1
  H  H14  1  0.45146521  0.67195286  0.78366914  1
  H  H15  1  0.71633086  0.54853479  0.17195286  1
  H  H16  1  0.32804714  0.28366914  0.04853479  1
  H  H17  1  0.95146521  0.82804714  0.21633086  1
  H  H18  1  0.21633086  0.95146521  0.82804714  1
  H  H19  1  0.82804714  0.21633086  0.95146521  1
  H  H20  1  0.58177437  0.26632430  0.67644657  1
  H  H21  1  0.32355343  0.08177437  0.23367570  1
  H  H22  1  0.76632430  0.82355343  0.41822563  1
  H  H23  1  0.08177437  0.23367570  0.32355343  1
  H  H24  1  0.82355343  0.41822563  0.76632430  1
  H  H25  1  0.26632430  0.67644657  0.58177437  1
  H  H26  1  0.41822563  0.76632430  0.82355343  1
  H  H27  1  0.67644657  0.58177437  0.26632430  1
  H  H28  1  0.23367570  0.32355343  0.08177437  1
  H  H29  1  0.91822563  0.73367570  0.17644657  1
  H  H30  1  0.17644657  0.91822563  0.73367570  1
  H  H31  1  0.73367570  0.17644657  0.91822563  1
  H  H32  1  0.47522805  0.24568442  0.68717559  1
  H  H33  1  0.31282441  0.97522805  0.25431558  1
  H  H34  1  0.74568442  0.81282441  0.52477195  1
  H  H35  1  0.97522805  0.25431558  0.31282441  1
  H  H36  1  0.81282441  0.52477195  0.74568442  1
  H  H37  1  0.24568442  0.68717559  0.47522805  1
  H  H38  1  0.52477195  0.74568442  0.81282441  1
  H  H39  1  0.68717559  0.47522805  0.24568442  1
  H  H40  1  0.25431558  0.31282441  0.97522805  1
  H  H41  1  0.02477195  0.75431558  0.18717559  1
  H  H42  1  0.18717559  0.02477195  0.75431558  1
  H  H43  1  0.75431558  0.18717559  0.02477195  1
  H  H44  1  0.48928346  0.43217884  0.88725907  1
  H  H45  1  0.11274093  0.98928346  0.06782116  1
  H  H46  1  0.93217884  0.61274093  0.51071654  1
  H  H47  1  0.98928346  0.06782116  0.11274093  1
  H  H48  1  0.61274093  0.51071654  0.93217884  1
  H  H49  1  0.43217884  0.88725907  0.48928346  1
  H  H50  1  0.51071654  0.93217884  0.61274093  1
  H  H51  1  0.88725907  0.48928346  0.43217884  1
  H  H52  1  0.06782116  0.11274093  0.98928346  1
  H  H53  1  0.01071654  0.56782116  0.38725907  1
  H  H54  1  0.38725907  0.01071654  0.56782116  1
  H  H55  1  0.56782116  0.38725907  0.01071654  1
  H  H56  1  0.41258731  0.35873320  0.90979964  1
  H  H57  1  0.09020036  0.91258731  0.14126680  1
  H  H58  1  0.85873320  0.59020036  0.58741269  1
  H  H59  1  0.91258731  0.14126680  0.09020036  1
  H  H60  1  0.59020036  0.58741269  0.85873320  1
  H  H61  1  0.35873320  0.90979964  0.41258731  1
  H  H62  1  0.58741269  0.85873320  0.59020036  1
  H  H63  1  0.90979964  0.41258731  0.35873320  1
  H  H64  1  0.14126680  0.09020036  0.91258731  1
  H  H65  1  0.08741269  0.64126680  0.40979964  1
  H  H66  1  0.40979964  0.08741269  0.64126680  1
  H  H67  1  0.64126680  0.40979964  0.08741269  1
  H  H68  1  0.42095874  0.39834609  0.81027441  1
  H  H69  1  0.18972559  0.92095874  0.10165391  1
  H  H70  1  0.89834609  0.68972559  0.57904126  1
  H  H71  1  0.92095874  0.10165391  0.18972559  1
  H  H72  1  0.68972559  0.57904126  0.89834609  1
  H  H73  1  0.39834609  0.81027441  0.42095874  1
  H  H74  1  0.57904126  0.89834609  0.68972559  1
  H  H75  1  0.81027441  0.42095874  0.39834609  1
  H  H76  1  0.10165391  0.18972559  0.92095874  1
  H  H77  1  0.07904126  0.60165391  0.31027441  1
  H  H78  1  0.31027441  0.07904126  0.60165391  1
  H  H79  1  0.60165391  0.31027441  0.07904126  1
  H  H80  1  0.47238215  0.17344764  0.93519761  1
  H  H81  1  0.06480239  0.97238215  0.32655236  1
  H  H82  1  0.67344764  0.56480239  0.52761785  1
  H  H83  1  0.97238215  0.32655236  0.06480239  1
  H  H84  1  0.56480239  0.52761785  0.67344764  1
  H  H85  1  0.17344764  0.93519761  0.47238215  1
  H  H86  1  0.52761785  0.67344764  0.56480239  1
  H  H87  1  0.93519761  0.47238215  0.17344764  1
  H  H88  1  0.32655236  0.06480239  0.97238215  1
  H  H89  1  0.02761785  0.82655236  0.43519761  1
  H  H90  1  0.43519761  0.02761785  0.82655236  1
  H  H91  1  0.82655236  0.43519761  0.02761785  1
  H  H92  1  0.56559563  0.20686951  0.97859953  1
  H  H93  1  0.02140047  0.06559563  0.29313049  1
  H  H94  1  0.70686951  0.52140047  0.43440437  1
  H  H95  1  0.06559563  0.29313049  0.02140047  1
  H  H96  1  0.52140047  0.43440437  0.70686951  1
  H  H97  1  0.20686951  0.97859953  0.56559563  1
  H  H98  1  0.43440437  0.70686951  0.52140047  1
  H  H99  1  0.97859953  0.56559563  0.20686951  1
  H  H100  1  0.29313049  0.02140047  0.06559563  1
  H  H101  1  0.93440437  0.79313049  0.47859953  1
  H  H102  1  0.47859953  0.93440437  0.79313049  1
  H  H103  1  0.79313049  0.47859953  0.93440437  1
  H  H104  1  0.56606130  0.13484006  0.89791740  1
  H  H105  1  0.10208260  0.06606130  0.36515994  1
  H  H106  1  0.63484006  0.60208260  0.43393870  1
  H  H107  1  0.06606130  0.36515994  0.10208260  1
  H  H108  1  0.60208260  0.43393870  0.63484006  1
  H  H109  1  0.13484006  0.89791740  0.56606130  1
  H  H110  1  0.43393870  0.63484006  0.60208260  1
  H  H111  1  0.89791740  0.56606130  0.13484006  1
  H  H112  1  0.36515994  0.10208260  0.06606130  1
  H  H113  1  0.93393870  0.86515994  0.39791740  1
  H  H114  1  0.39791740  0.93393870  0.86515994  1
  H  H115  1  0.86515994  0.39791740  0.93393870  1
  H  H116  1  0.44483262  0.86232264  0.23780927  1
  H  H117  1  0.76219073  0.94483262  0.63767736  1
  H  H118  1  0.36232264  0.26219073  0.55516738  1
  H  H119  1  0.94483262  0.63767736  0.76219073  1
  H  H120  1  0.26219073  0.55516738  0.36232264  1
  H  H121  1  0.86232264  0.23780927  0.44483262  1
  H  H122  1  0.55516738  0.36232264  0.26219073  1
  H  H123  1  0.23780927  0.44483262  0.86232264  1
  H  H124  1  0.63767736  0.76219073  0.94483262  1
  H  H125  1  0.05516738  0.13767736  0.73780927  1
  H  H126  1  0.73780927  0.05516738  0.13767736  1
  H  H127  1  0.13767736  0.73780927  0.05516738  1
  H  H128  1  0.38477527  0.85420915  0.14850862  1
  H  H129  1  0.85149138  0.88477527  0.64579085  1
  H  H130  1  0.35420915  0.35149138  0.61522473  1
  H  H131  1  0.88477527  0.64579085  0.85149138  1
  H  H132  1  0.35149138  0.61522473  0.35420915  1
  H  H133  1  0.85420915  0.14850862  0.38477527  1
  H  H134  1  0.61522473  0.35420915  0.35149138  1
  H  H135  1  0.14850862  0.38477527  0.85420915  1
  H  H136  1  0.64579085  0.85149138  0.88477527  1
  H  H137  1  0.11522473  0.14579085  0.64850862  1
  H  H138  1  0.64850862  0.11522473  0.14579085  1
  H  H139  1  0.14579085  0.64850862  0.11522473  1
  H  H140  1  0.49233178  0.86858681  0.14097096  1
  H  H141  1  0.85902904  0.99233178  0.63141319  1
  H  H142  1  0.36858681  0.35902904  0.50766822  1
  H  H143  1  0.99233178  0.63141319  0.85902904  1
  H  H144  1  0.35902904  0.50766822  0.36858681  1
  H  H145  1  0.86858681  0.14097096  0.49233178  1
  H  H146  1  0.50766822  0.36858681  0.35902904  1
  H  H147  1  0.14097096  0.49233178  0.86858681  1
  H  H148  1  0.63141319  0.85902904  0.99233178  1
  H  H149  1  0.00766822  0.13141319  0.64097096  1
  H  H150  1  0.64097096  0.00766822  0.13141319  1
  H  H151  1  0.13141319  0.64097096  0.00766822  1
  H  H152  1  0.53426590  0.70125873  0.03083333  1
  H  H153  1  0.96916667  0.03426590  0.79874127  1
  H  H154  1  0.20125873  0.46916667  0.46573410  1
  H  H155  1  0.03426590  0.79874127  0.96916667  1
  H  H156  1  0.46916667  0.46573410  0.20125873  1
  H  H157  1  0.70125873  0.03083333  0.53426590  1
  H  H158  1  0.46573410  0.20125873  0.46916667  1
  H  H159  1  0.03083333  0.53426590  0.70125873  1
  H  H160  1  0.79874127  0.96916667  0.03426590  1
  H  H161  1  0.96573410  0.29874127  0.53083333  1
  H  H162  1  0.53083333  0.96573410  0.29874127  1
  H  H163  1  0.29874127  0.53083333  0.96573410  1
  H  H164  1  0.50108440  0.60344202  0.06286109  1
  H  H165  1  0.93713891  0.00108440  0.89655798  1
  H  H166  1  0.10344202  0.43713891  0.49891560  1
  H  H167  1  0.00108440  0.89655798  0.93713891  1
  H  H168  1  0.43713891  0.49891560  0.10344202  1
  H  H169  1  0.60344202  0.06286109  0.50108440  1
  H  H170  1  0.49891560  0.10344202  0.43713891  1
  H  H171  1  0.06286109  0.50108440  0.60344202  1
  H  H172  1  0.89655798  0.93713891  0.00108440  1
  H  H173  1  0.99891560  0.39655798  0.56286109  1
  H  H174  1  0.56286109  0.99891560  0.39655798  1
  H  H175  1  0.39655798  0.56286109  0.99891560  1
  H  H176  1  0.59167526  0.64635031  0.10405758  1
  H  H177  1  0.89594242  0.09167526  0.85364969  1
  H  H178  1  0.14635031  0.39594242  0.40832474  1
  H  H179  1  0.09167526  0.85364969  0.89594242  1
  H  H180  1  0.39594242  0.40832474  0.14635031  1
  H  H181  1  0.64635031  0.10405758  0.59167526  1
  H  H182  1  0.40832474  0.14635031  0.39594242  1
  H  H183  1  0.10405758  0.59167526  0.64635031  1
  H  H184  1  0.85364969  0.89594242  0.09167526  1
  H  H185  1  0.90832474  0.35364969  0.60405758  1
  H  H186  1  0.60405758  0.90832474  0.35364969  1
  H  H187  1  0.35364969  0.60405758  0.90832474  1
  H  H188  1  0.46647710  0.70579504  0.34240539  1
  H  H189  1  0.65759461  0.96647710  0.79420496  1
  H  H190  1  0.20579504  0.15759461  0.53352290  1
  H  H191  1  0.96647710  0.79420496  0.65759461  1
  H  H192  1  0.15759461  0.53352290  0.20579504  1
  H  H193  1  0.70579504  0.34240539  0.46647710  1
  H  H194  1  0.53352290  0.20579504  0.15759461  1
  H  H195  1  0.34240539  0.46647710  0.70579504  1
  H  H196  1  0.79420496  0.65759461  0.96647710  1
  H  H197  1  0.03352290  0.29420496  0.84240539  1
  H  H198  1  0.84240539  0.03352290  0.29420496  1
  H  H199  1  0.29420496  0.84240539  0.03352290  1
  H  H200  1  0.56553880  0.69266988  0.30112318  1
  H  H201  1  0.69887682  0.06553880  0.80733012  1
  H  H202  1  0.19266988  0.19887682  0.43446120  1
  H  H203  1  0.06553880  0.80733012  0.69887682  1
  H  H204  1  0.19887682  0.43446120  0.19266988  1
  H  H205  1  0.69266988  0.30112318  0.56553880  1
  H  H206  1  0.43446120  0.19266988  0.19887682  1
  H  H207  1  0.30112318  0.56553880  0.69266988  1
  H  H208  1  0.80733012  0.69887682  0.06553880  1
  H  H209  1  0.93446120  0.30733012  0.80112318  1
  H  H210  1  0.80112318  0.93446120  0.30733012  1
  H  H211  1  0.30733012  0.80112318  0.93446120  1
  H  H212  1  0.49650654  0.60893189  0.30419504  1
  H  H213  1  0.69580496  0.99650654  0.89106811  1
  H  H214  1  0.10893189  0.19580496  0.50349346  1
  H  H215  1  0.99650654  0.89106811  0.69580496  1
  H  H216  1  0.19580496  0.50349346  0.10893189  1
  H  H217  1  0.60893189  0.30419504  0.49650654  1
  H  H218  1  0.50349346  0.10893189  0.19580496  1
  H  H219  1  0.30419504  0.49650654  0.60893189  1
  H  H220  1  0.89106811  0.69580496  0.99650654  1
  H  H221  1  0.00349346  0.39106811  0.80419504  1
  H  H222  1  0.80419504  0.00349346  0.39106811  1
  H  H223  1  0.39106811  0.80419504  0.00349346  1
  C  C0  1  0.53548601  0.23666748  0.71320789  1
  C  C1  1  0.28679211  0.03548601  0.26333252  1
  C  C2  1  0.73666748  0.78679211  0.46451399  1
  C  C3  1  0.03548601  0.26333252  0.28679211  1
  C  C4  1  0.78679211  0.46451399  0.73666748  1
  C  C5  1  0.23666748  0.71320789  0.53548601  1
  C  C6  1  0.46451399  0.73666748  0.78679211  1
  C  C7  1  0.71320789  0.53548601  0.23666748  1
  C  C8  1  0.26333252  0.28679211  0.03548601  1
  C  C9  1  0.96451399  0.76333252  0.21320789  1
  C  C10  1  0.21320789  0.96451399  0.76333252  1
  C  C11  1  0.76333252  0.21320789  0.96451399  1
  C  C12  1  0.45510793  0.38053938  0.86402035  1
  C  C13  1  0.13597965  0.95510793  0.11946062  1
  C  C14  1  0.88053938  0.63597965  0.54489207  1
  C  C15  1  0.95510793  0.11946062  0.13597965  1
  C  C16  1  0.63597965  0.54489207  0.88053938  1
  C  C17  1  0.38053938  0.86402035  0.45510793  1
  C  C18  1  0.54489207  0.88053938  0.63597965  1
  C  C19  1  0.86402035  0.45510793  0.38053938  1
  C  C20  1  0.11946062  0.13597965  0.95510793  1
  C  C21  1  0.04489207  0.61946062  0.36402035  1
  C  C22  1  0.36402035  0.04489207  0.61946062  1
  C  C23  1  0.61946062  0.36402035  0.04489207  1
  C  C24  1  0.53579734  0.18821425  0.92261767  1
  C  C25  1  0.07738233  0.03579734  0.31178575  1
  C  C26  1  0.68821425  0.57738233  0.46420266  1
  C  C27  1  0.03579734  0.31178575  0.07738233  1
  C  C28  1  0.57738233  0.46420266  0.68821425  1
  C  C29  1  0.18821425  0.92261767  0.53579734  1
  C  C30  1  0.46420266  0.68821425  0.57738233  1
  C  C31  1  0.92261767  0.53579734  0.18821425  1
  C  C32  1  0.31178575  0.07738233  0.03579734  1
  C  C33  1  0.96420266  0.81178575  0.42261767  1
  C  C34  1  0.42261767  0.96420266  0.81178575  1
  C  C35  1  0.81178575  0.42261767  0.96420266  1
  C  C36  1  0.44349265  0.84028466  0.17560505  1
  C  C37  1  0.82439495  0.94349265  0.65971534  1
  C  C38  1  0.34028466  0.32439495  0.55650735  1
  C  C39  1  0.94349265  0.65971534  0.82439495  1
  C  C40  1  0.32439495  0.55650735  0.34028466  1
  C  C41  1  0.84028466  0.17560505  0.44349265  1
  C  C42  1  0.55650735  0.34028466  0.32439495  1
  C  C43  1  0.17560505  0.44349265  0.84028466  1
  C  C44  1  0.65971534  0.82439495  0.94349265  1
  C  C45  1  0.05650735  0.15971534  0.67560505  1
  C  C46  1  0.67560505  0.05650735  0.15971534  1
  C  C47  1  0.15971534  0.67560505  0.05650735  1
  C  C48  1  0.53063710  0.65923919  0.08174726  1
  C  C49  1  0.91825274  0.03063710  0.84076081  1
  C  C50  1  0.15923919  0.41825274  0.46936290  1
  C  C51  1  0.03063710  0.84076081  0.91825274  1
  C  C52  1  0.41825274  0.46936290  0.15923919  1
  C  C53  1  0.65923919  0.08174726  0.53063710  1
  C  C54  1  0.46936290  0.15923919  0.41825274  1
  C  C55  1  0.08174726  0.53063710  0.65923919  1
  C  C56  1  0.84076081  0.91825274  0.03063710  1
  C  C57  1  0.96936290  0.34076081  0.58174726  1
  C  C58  1  0.58174726  0.96936290  0.34076081  1
  C  C59  1  0.34076081  0.58174726  0.96936290  1
  C  C60  1  0.50201504  0.67434913  0.29628266  1
  C  C61  1  0.70371734  0.00201504  0.82565087  1
  C  C62  1  0.17434913  0.20371734  0.49798496  1
  C  C63  1  0.00201504  0.82565087  0.70371734  1
  C  C64  1  0.20371734  0.49798496  0.17434913  1
  C  C65  1  0.67434913  0.29628266  0.50201504  1
  C  C66  1  0.49798496  0.17434913  0.20371734  1
  C  C67  1  0.29628266  0.50201504  0.67434913  1
  C  C68  1  0.82565087  0.70371734  0.00201504  1
  C  C69  1  0.99798496  0.32565087  0.79628266  1
  C  C70  1  0.79628266  0.99798496  0.32565087  1
  C  C71  1  0.32565087  0.79628266  0.99798496  1
  I  I0  1  0.79808589  0.20191411  0.70191411  1
  I  I1  1  0.29808589  0.29808589  0.29808589  1
  I  I2  1  0.70191411  0.79808589  0.20191411  1
  I  I3  1  0.20191411  0.70191411  0.79808589  1
  I  I4  1  0.19975582  0.80024418  0.30024418  1
  I  I5  1  0.69975582  0.69975582  0.69975582  1
  I  I6  1  0.30024418  0.19975582  0.80024418  1
  I  I7  1  0.80024418  0.30024418  0.19975582  1
  N  N0  1  0.65525697  0.34474303  0.84474303  1
  N  N1  1  0.15525697  0.15525697  0.15525697  1
  N  N2  1  0.84474303  0.65525697  0.34474303  1
  N  N3  1  0.34474303  0.84474303  0.65525697  1
  N  N4  1  0.34154736  0.65845264  0.15845264  1
  N  N5  1  0.84154736  0.84154736  0.84154736  1
  N  N6  1  0.15845264  0.34154736  0.65845264  1
  N  N7  1  0.65845264  0.15845264  0.34154736  1
loop_
_geom_bond_atom_site_label_1
_geom_bond_atom_site_label_2
_geom_bond_distance
_geom_bond_site_symmetry_2
H0 N0 1.034872 1_555
H0 I0 3.064454 1_555
H1 N1 1.034872 1_555
H1 I1 3.064454 1_555
H2 N2 1.034872 1_555
H2 I2 3.064454 1_555
H3 N3 1.034872 1_555
H3 I3 3.064454 1_555
H4 N4 1.035037 1_555
H4 I4 3.034514 1_555
H5 N5 1.035037 1_555
H5 I5 3.034514 1_555
H6 N6 1.035037 1_555
H6 I6 3.034514 1_555
H7 N7 1.035037 1_555
H7 I7 3.034514 1_555
H32 I6 3.535125 1_555
H33 I4 3.535125 1_555
H34 I5 3.535125 1_555
H35 I7 3.535125 1_555
H36 I5 3.535125 1_555
H37 I4 3.535125 1_555
H38 I5 3.535125 1_555
H39 I7 3.535125 1_555
H40 I6 3.535125 1_555
H41 I4 3.535125 1_555
H42 I6 3.535125 1_555
H43 I7 3.535125 1_555
H56 I6 3.701465 1_555
H57 I4 3.701465 1_555
H58 I5 3.701465 1_555
H59 I7 3.701465 1_555
H60 I5 3.701465 1_555
H61 I4 3.701465 1_555
H62 I5 3.701465 1_555
H63 I7 3.701465 1_555
H64 I6 3.701465 1_555
H65 I4 3.701465 1_555
H66 I6 3.701465 1_555
H67 I7 3.701465 1_555
H80 I6 3.650629 1_555
H81 I4 3.650629 1_555
H82 I5 3.650629 1_555
H83 I7 3.650629 1_555
H84 I5 3.650629 1_555
H85 I4 3.650629 1_555
H86 I5 3.650629 1_555
H87 I7 3.650629 1_555
H88 I6 3.650629 1_555
H89 I4 3.650629 1_555
H90 I6 3.650629 1_555
H91 I7 3.650629 1_555
H140 I2 3.800725 1_555
H141 I0 3.800725 1_565
H142 I1 3.800725 1_555
H143 I3 3.800725 1_655
H144 I1 3.800725 1_555
H145 I0 3.800725 1_555
H146 I1 3.800725 1_555
H147 I3 3.800725 1_555
H148 I2 3.800725 1_556
H149 I0 3.800725 1_455
H150 I2 3.800725 1_545
H151 I3 3.800725 1_554
H176 I2 3.505442 1_555
H177 I0 3.505442 1_555
H178 I1 3.505442 1_555
H179 I3 3.505442 1_555
H180 I1 3.505442 1_555
H181 I0 3.505442 1_555
H182 I1 3.505442 1_555
H183 I3 3.505442 1_555
H184 I2 3.505442 1_555
H185 I0 3.505442 1_555
H186 I2 3.505442 1_555
H187 I3 3.505442 1_555
H200 I2 3.295539 1_555
H201 I0 3.295539 1_555
H202 I1 3.295539 1_555
H203 I3 3.295539 1_555
H204 I1 3.295539 1_555
H205 I0 3.295539 1_555
H206 I1 3.295539 1_555
H207 I3 3.295539 1_555
H208 I2 3.295539 1_555
H209 I0 3.295539 1_555
H210 I2 3.295539 1_555
H211 I3 3.295539 1_555
C0 H8 1.095159 1_555
C0 H20 1.095852 1_555
C0 H32 1.097914 1_555
C0 Sn0 2.153147 1_555
C1 H9 1.095159 1_555
C1 H21 1.095852 1_555
C1 H33 1.097914 1_545
C1 Sn1 2.153147 1_555
C2 H10 1.095159 1_555
C2 H22 1.095852 1_555
C2 H34 1.097914 1_555
C2 Sn2 2.153147 1_555
C3 H11 1.095159 1_555
C3 H23 1.095852 1_555
C3 H35 1.097914 1_455
C3 Sn3 2.153147 1_555
C4 H12 1.095159 1_555
C4 H24 1.095852 1_555
C4 H36 1.097914 1_555
C4 Sn4 2.153147 1_555
C5 H13 1.095159 1_555
C5 H25 1.095852 1_555
C5 H37 1.097914 1_555
C5 Sn5 2.153147 1_555
C6 H14 1.095159 1_555
C6 H26 1.095852 1_555
C6 H38 1.097914 1_555
C6 Sn6 2.153147 1_555
C7 H15 1.095159 1_555
C7 H27 1.095852 1_555
C7 H39 1.097914 1_555
C7 Sn7 2.153147 1_555
C8 H16 1.095159 1_555
C8 H28 1.095852 1_555
C8 H40 1.097914 1_554
C8 Sn8 2.153147 1_555
C9 H17 1.095159 1_555
C9 H29 1.095852 1_555
C9 H41 1.097914 1_655
C9 Sn9 2.153147 1_555
C10 H18 1.095159 1_555
C10 H30 1.095852 1_555
C10 H42 1.097914 1_565
C10 Sn10 2.153147 1_555
C11 H19 1.095159 1_555
C11 H31 1.095852 1_555
C11 H43 1.097914 1_556
C11 Sn11 2.153147 1_555
C12 H68 1.095644 1_555
C12 H44 1.095990 1_555
C12 H56 1.096569 1_555
C12 Sn0 2.151875 1_555
C13 H69 1.095644 1_555
C13 H45 1.095990 1_555
C13 H57 1.096569 1_555
C13 Sn1 2.151875 1_565
C14 H70 1.095644 1_555
C14 H46 1.095990 1_555
C14 H58 1.096569 1_555
C14 Sn2 2.151875 1_555
C15 H71 1.095644 1_555
C15 H47 1.095990 1_555
C15 H59 1.096569 1_555
C15 Sn3 2.151875 1_655
C16 H72 1.095644 1_555
C16 H48 1.095990 1_555
C16 H60 1.096569 1_555
C16 Sn4 2.151875 1_555
C17 H73 1.095644 1_555
C17 H49 1.095990 1_555
C17 H61 1.096569 1_555
C17 Sn5 2.151875 1_555
C18 H74 1.095644 1_555
C18 H50 1.095990 1_555
C18 H62 1.096569 1_555
C18 Sn6 2.151875 1_555
C19 H75 1.095644 1_555
C19 H51 1.095990 1_555
C19 H63 1.096569 1_555
C19 Sn7 2.151875 1_555
C20 H76 1.095644 1_555
C20 H52 1.095990 1_555
C20 H64 1.096569 1_555
C20 Sn8 2.151875 1_556
C21 H77 1.095644 1_555
C21 H53 1.095990 1_555
C21 H65 1.096569 1_555
C21 Sn9 2.151875 1_455
C22 H78 1.095644 1_555
C22 H54 1.095990 1_555
C22 H66 1.096569 1_555
C22 Sn10 2.151875 1_545
C23 H79 1.095644 1_555
C23 H55 1.095990 1_555
C23 H67 1.096569 1_555
C23 Sn11 2.151875 1_554
C24 H92 1.095400 1_555
C24 H104 1.096012 1_555
C24 H80 1.098887 1_555
C24 Sn0 2.155423 1_555
C25 H93 1.095400 1_555
C25 H105 1.096012 1_555
C25 H81 1.098887 1_545
C25 Sn1 2.155423 1_555
C26 H94 1.095400 1_555
C26 H106 1.096012 1_555
C26 H82 1.098887 1_555
C26 Sn2 2.155423 1_555
C27 H95 1.095400 1_555
C27 H107 1.096012 1_555
C27 H83 1.098887 1_455
C27 Sn3 2.155423 1_555
C28 H96 1.095400 1_555
C28 H108 1.096012 1_555
C28 H84 1.098887 1_555
C28 Sn4 2.155423 1_555
C29 H97 1.095400 1_555
C29 H109 1.096012 1_555
C29 H85 1.098887 1_555
C29 Sn5 2.155423 1_555
C30 H98 1.095400 1_555
C30 H110 1.096012 1_555
C30 H86 1.098887 1_555
C30 Sn6 2.155423 1_555
C31 H99 1.095400 1_555
C31 H111 1.096012 1_555
C31 H87 1.098887 1_555
C31 Sn7 2.155423 1_555
C32 H100 1.095400 1_555
C32 H112 1.096012 1_555
C32 H88 1.098887 1_554
C32 Sn8 2.155423 1_555
C33 H101 1.095400 1_555
C33 H113 1.096012 1_555
C33 H89 1.098887 1_655
C33 Sn9 2.155423 1_555
C34 H102 1.095400 1_555
C34 H114 1.096012 1_555
C34 H90 1.098887 1_565
C34 Sn10 2.155423 1_555
C35 H103 1.095400 1_555
C35 H115 1.096012 1_555
C35 H91 1.098887 1_556
C35 Sn11 2.155423 1_555
C36 H116 1.093758 1_555
C36 H128 1.096141 1_555
C36 H140 1.097387 1_555
C36 Sn12 2.150040 1_555
C37 H117 1.093758 1_555
C37 H129 1.096141 1_555
C37 H141 1.097387 1_555
C37 Sn13 2.150040 1_555
C38 H118 1.093758 1_555
C38 H130 1.096141 1_555
C38 H142 1.097387 1_555
C38 Sn14 2.150040 1_555
C39 H119 1.093758 1_555
C39 H131 1.096141 1_555
C39 H143 1.097387 1_555
C39 Sn15 2.150040 1_555
C40 H120 1.093758 1_555
C40 H132 1.096141 1_555
C40 H144 1.097387 1_555
C40 Sn16 2.150040 1_555
C41 H121 1.093758 1_555
C41 H133 1.096141 1_555
C41 H145 1.097387 1_555
C41 Sn17 2.150040 1_555
C42 H122 1.093758 1_555
C42 H134 1.096141 1_555
C42 H146 1.097387 1_555
C42 Sn18 2.150040 1_555
C43 H123 1.093758 1_555
C43 H135 1.096141 1_555
C43 H147 1.097387 1_555
C43 Sn19 2.150040 1_555
C44 H124 1.093758 1_555
C44 H136 1.096141 1_555
C44 H148 1.097387 1_555
C44 Sn20 2.150040 1_555
C45 H125 1.093758 1_555
C45 H137 1.096141 1_555
C45 H149 1.097387 1_555
C45 Sn21 2.150040 1_555
C46 H126 1.093758 1_555
C46 H138 1.096141 1_555
C46 H150 1.097387 1_555
C46 Sn22 2.150040 1_555
C47 H127 1.093758 1_555
C47 H139 1.096141 1_555
C47 H151 1.097387 1_555
C47 Sn23 2.150040 1_555
C48 H164 1.092067 1_555
C48 H152 1.095539 1_555
C48 H176 1.097854 1_555
C48 Sn12 2.144461 1_555
C49 H165 1.092067 1_555
C49 H153 1.095539 1_555
C49 H177 1.097854 1_555
C49 Sn13 2.144461 1_545
C50 H166 1.092067 1_555
C50 H154 1.095539 1_555
C50 H178 1.097854 1_555
C50 Sn14 2.144461 1_555
C51 H167 1.092067 1_555
C51 H155 1.095539 1_555
C51 H179 1.097854 1_555
C51 Sn15 2.144461 1_455
C52 H168 1.092067 1_555
C52 H156 1.095539 1_555
C52 H180 1.097854 1_555
C52 Sn16 2.144461 1_555
C53 H169 1.092067 1_555
C53 H157 1.095539 1_555
C53 H181 1.097854 1_555
C53 Sn17 2.144461 1_555
C54 H170 1.092067 1_555
C54 H158 1.095539 1_555
C54 H182 1.097854 1_555
C54 Sn18 2.144461 1_555
C55 H171 1.092067 1_555
C55 H159 1.095539 1_555
C55 H183 1.097854 1_555
C55 Sn19 2.144461 1_555
C56 H172 1.092067 1_555
C56 H160 1.095539 1_555
C56 H184 1.097854 1_555
C56 Sn20 2.144461 1_554
C57 H173 1.092067 1_555
C57 H161 1.095539 1_555
C57 H185 1.097854 1_555
C57 Sn21 2.144461 1_655
C58 H174 1.092067 1_555
C58 H162 1.095539 1_555
C58 H186 1.097854 1_555
C58 Sn22 2.144461 1_565
C59 H175 1.092067 1_555
C59 H163 1.095539 1_555
C59 H187 1.097854 1_555
C59 Sn23 2.144461 1_556
C60 H212 1.095705 1_555
C60 H188 1.096549 1_555
C60 H200 1.098456 1_555
C60 Sn12 2.151430 1_555
C61 H213 1.095705 1_545
C61 H189 1.096549 1_545
C61 H201 1.098456 1_555
C61 Sn13 2.151430 1_545
C62 H214 1.095705 1_555
C62 H190 1.096549 1_555
C62 H202 1.098456 1_555
C62 Sn14 2.151430 1_555
C63 H215 1.095705 1_455
C63 H191 1.096549 1_455
C63 H203 1.098456 1_555
C63 Sn15 2.151430 1_455
C64 H216 1.095705 1_555
C64 H192 1.096549 1_555
C64 H204 1.098456 1_555
C64 Sn16 2.151430 1_555
C65 H217 1.095705 1_555
C65 H193 1.096549 1_555
C65 H205 1.098456 1_555
C65 Sn17 2.151430 1_555
C66 H218 1.095705 1_555
C66 H194 1.096549 1_555
C66 H206 1.098456 1_555
C66 Sn18 2.151430 1_555
C67 H219 1.095705 1_555
C67 H195 1.096549 1_555
C67 H207 1.098456 1_555
C67 Sn19 2.151430 1_555
C68 H220 1.095705 1_554
C68 H196 1.096549 1_554
C68 H208 1.098456 1_555
C68 Sn20 2.151430 1_554
C69 H221 1.095705 1_655
C69 H197 1.096549 1_655
C69 H209 1.098456 1_555
C69 Sn21 2.151430 1_655
C70 H222 1.095705 1_565
C70 H198 1.096549 1_565
C70 H210 1.098456 1_555
C70 Sn22 2.151430 1_565
C71 H223 1.095705 1_556
C71 H199 1.096549 1_556
C71 H211 1.098456 1_555
C71 Sn23 2.151430 1_556
N0 Sn11 2.220463 1_555
N0 Sn4 2.220463 1_555
N0 Sn0 2.220463 1_555
N1 Sn3 2.220463 1_555
N1 Sn1 2.220463 1_555
N1 Sn8 2.220463 1_555
N2 Sn9 2.220463 1_555
N2 Sn2 2.220463 1_555
N2 Sn7 2.220463 1_555
N3 Sn10 2.220463 1_555
N3 Sn6 2.220463 1_555
N3 Sn5 2.220463 1_555
N4 Sn12 2.219097 1_555
N4 Sn23 2.219097 1_555
N4 Sn16 2.219097 1_555
N5 Sn15 2.219097 1_555
N5 Sn20 2.219097 1_555
N5 Sn13 2.219097 1_555
N6 Sn19 2.219097 1_555
N6 Sn21 2.219097 1_555
N6 Sn14 2.219097 1_555
N7 Sn17 2.219097 1_555
N7 Sn22 2.219097 1_555
N7 Sn18 2.219097 1_555
