# generated using pymatgen
data_CrSiN2
_symmetry_space_group_name_H-M   'P 1'
_cell_length_a   5.00911200
_cell_length_b   10.19396700
_cell_length_c   13.28888400
_cell_angle_alpha   90.00000000
_cell_angle_beta   90.00000000
_cell_angle_gamma   90.00000000
_symmetry_Int_Tables_number   1
_chemical_formula_structural   CrSiN2
_chemical_formula_sum   'Cr16 Si16 N32'
_cell_volume   678.56659506
_cell_formula_units_Z   16
loop_
 _symmetry_equiv_pos_site_id
 _symmetry_equiv_pos_as_xyz
  1  'x, y, z'
loop_
 _atom_site_type_symbol
 _atom_site_label
 _atom_site_symmetry_multiplicity
 _atom_site_fract_x
 _atom_site_fract_y
 _atom_site_fract_z
 _atom_site_occupancy
  Cr  Cr0  1  0.68275600  0.97943400  0.44711000  1
  Cr  Cr1  1  0.18275600  0.52056600  0.55289000  1
  Cr  Cr2  1  0.31724400  0.47943400  0.05289000  1
  Cr  Cr3  1  0.81724400  0.02056600  0.94711000  1
  Cr  Cr4  1  0.31724400  0.02056600  0.55289000  1
  Cr  Cr5  1  0.81724400  0.47943400  0.44711000  1
  Cr  Cr6  1  0.68275600  0.52056600  0.94711000  1
  Cr  Cr7  1  0.18275600  0.97943400  0.05289000  1
  Cr  Cr8  1  0.82942000  0.28171800  0.30883300  1
  Cr  Cr9  1  0.32942000  0.21828200  0.69116700  1
  Cr  Cr10  1  0.17058000  0.78171800  0.19116700  1
  Cr  Cr11  1  0.67058000  0.71828200  0.80883300  1
  Cr  Cr12  1  0.17058000  0.71828200  0.69116700  1
  Cr  Cr13  1  0.67058000  0.78171800  0.30883300  1
  Cr  Cr14  1  0.82942000  0.21828200  0.80883300  1
  Cr  Cr15  1  0.32942000  0.28171800  0.19116700  1
  Si  Si0  1  0.66852400  0.02491900  0.18769600  1
  Si  Si1  1  0.16852400  0.47508100  0.81230400  1
  Si  Si2  1  0.33147600  0.52491900  0.31230400  1
  Si  Si3  1  0.83147600  0.97508100  0.68769600  1
  Si  Si4  1  0.33147600  0.97508100  0.81230400  1
  Si  Si5  1  0.83147600  0.52491900  0.18769600  1
  Si  Si6  1  0.66852400  0.47508100  0.68769600  1
  Si  Si7  1  0.16852400  0.02491900  0.31230400  1
  Si  Si8  1  0.82123500  0.27541900  0.06268200  1
  Si  Si9  1  0.32123500  0.22458100  0.93731800  1
  Si  Si10  1  0.17876500  0.77541900  0.43731800  1
  Si  Si11  1  0.67876500  0.72458100  0.56268200  1
  Si  Si12  1  0.17876500  0.72458100  0.93731800  1
  Si  Si13  1  0.67876500  0.77541900  0.06268200  1
  Si  Si14  1  0.82123500  0.22458100  0.56268200  1
  Si  Si15  1  0.32123500  0.27541900  0.43731800  1
  N  N0  1  0.66495300  0.47600400  0.29782700  1
  N  N1  1  0.16495300  0.02399600  0.70217300  1
  N  N2  1  0.33504700  0.97600400  0.20217300  1
  N  N3  1  0.83504700  0.52399600  0.79782700  1
  N  N4  1  0.33504700  0.52399600  0.70217300  1
  N  N5  1  0.83504700  0.97600400  0.29782700  1
  N  N6  1  0.66495300  0.02399600  0.79782700  1
  N  N7  1  0.16495300  0.47600400  0.20217300  1
  N  N8  1  0.66966200  0.28268900  0.45348900  1
  N  N9  1  0.16966200  0.21731100  0.54651100  1
  N  N10  1  0.33033800  0.78268900  0.04651100  1
  N  N11  1  0.83033800  0.71731100  0.95348900  1
  N  N12  1  0.33033800  0.71731100  0.54651100  1
  N  N13  1  0.83033800  0.78268900  0.45348900  1
  N  N14  1  0.66966200  0.21731100  0.95348900  1
  N  N15  1  0.16966200  0.28268900  0.04651100  1
  N  N16  1  0.70984500  0.43939900  0.08251600  1
  N  N17  1  0.20984500  0.06060100  0.91748400  1
  N  N18  1  0.29015500  0.93939900  0.41748400  1
  N  N19  1  0.79015500  0.56060100  0.58251600  1
  N  N20  1  0.29015500  0.56060100  0.91748400  1
  N  N21  1  0.79015500  0.93939900  0.08251600  1
  N  N22  1  0.70984500  0.06060100  0.58251600  1
  N  N23  1  0.20984500  0.43939900  0.41748400  1
  N  N24  1  0.70763700  0.19393700  0.17117500  1
  N  N25  1  0.20763700  0.30606300  0.82882500  1
  N  N26  1  0.29236300  0.69393700  0.32882500  1
  N  N27  1  0.79236300  0.80606300  0.67117500  1
  N  N28  1  0.29236300  0.80606300  0.82882500  1
  N  N29  1  0.79236300  0.69393700  0.17117500  1
  N  N30  1  0.70763700  0.30606300  0.67117500  1
  N  N31  1  0.20763700  0.19393700  0.32882500  1
loop_
_geom_bond_atom_site_label_1
_geom_bond_atom_site_label_2
_geom_bond_distance
_geom_bond_site_symmetry_2
Cr0 N22 1.985157 1_565
Cr0 N18 2.046705 1_555
Cr0 N5 2.125707 1_555
Cr0 N13 2.139197 1_555
Cr0 Cr4 2.346052 1_565
Cr1 N23 1.985157 1_555
Cr1 N19 2.046705 1_455
Cr1 N4 2.125707 1_555
Cr1 N12 2.139197 1_555
Cr1 Cr5 2.346052 1_455
Cr2 N20 1.985157 1_554
Cr2 N16 2.046705 1_555
Cr2 N7 2.125707 1_555
Cr2 N15 2.139197 1_555
Cr2 Cr6 2.346052 1_554
Cr3 N21 1.985157 1_546
Cr3 N17 2.046705 1_655
Cr3 N6 2.125707 1_555
Cr3 N14 2.139197 1_555
Cr3 Cr7 2.346052 1_646
Cr4 N18 1.985157 1_545
Cr4 N22 2.046705 1_555
Cr4 N1 2.125707 1_555
Cr4 N9 2.139197 1_555
Cr5 N19 1.985157 1_555
Cr5 N23 2.046705 1_655
Cr5 N0 2.125707 1_555
Cr5 N8 2.139197 1_555
Cr6 N16 1.985157 1_556
Cr6 N20 2.046705 1_555
Cr6 N3 2.125707 1_555
Cr6 N11 2.139197 1_555
Cr7 N17 1.985157 1_564
Cr7 N21 2.046705 1_455
Cr7 N2 2.125707 1_555
Cr7 N10 2.139197 1_555
Cr8 N8 2.082257 1_555
Cr8 N31 2.112004 1_655
Cr8 N24 2.125860 1_555
Cr8 N0 2.150035 1_555
Cr9 N9 2.082257 1_555
Cr9 N30 2.112004 1_555
Cr9 N25 2.125860 1_555
Cr9 N1 2.150035 1_555
Cr10 N10 2.082257 1_555
Cr10 N29 2.112004 1_455
Cr10 N26 2.125860 1_555
Cr10 N2 2.150035 1_555
Cr11 N11 2.082257 1_555
Cr11 N28 2.112004 1_555
Cr11 N27 2.125860 1_555
Cr11 N3 2.150035 1_555
Cr12 N12 2.082257 1_555
Cr12 N27 2.112004 1_455
Cr12 N28 2.125860 1_555
Cr12 N4 2.150035 1_555
Cr13 N13 2.082257 1_555
Cr13 N26 2.112004 1_555
Cr13 N29 2.125860 1_555
Cr13 N5 2.150035 1_555
Cr14 N14 2.082257 1_555
Cr14 N25 2.112004 1_655
Cr14 N30 2.125860 1_555
Cr14 N6 2.150035 1_555
Cr15 N15 2.082257 1_555
Cr15 N24 2.112004 1_555
Cr15 N31 2.125860 1_555
Cr15 N7 2.150035 1_555
N0 Si2 1.753843 1_555
N0 Si5 1.756787 1_555
N1 Si3 1.753843 1_445
N1 Si4 1.756787 1_545
N2 Si0 1.753843 1_565
N2 Si7 1.756787 1_565
N3 Si1 1.753843 1_655
N3 Si6 1.756787 1_555
N4 Si6 1.753843 1_555
N4 Si1 1.756787 1_555
N5 Si7 1.753843 1_665
N5 Si0 1.756787 1_565
N6 Si4 1.753843 1_545
N6 Si3 1.756787 1_545
N7 Si5 1.753843 1_455
N7 Si2 1.756787 1_555
N8 Si14 1.741519 1_555
N8 Si15 1.760051 1_555
N9 Si15 1.741519 1_555
N9 Si14 1.760051 1_455
N10 Si12 1.741519 1_554
N10 Si13 1.760051 1_555
N11 Si13 1.741519 1_556
N11 Si12 1.760051 1_655
N12 Si10 1.741519 1_555
N12 Si11 1.760051 1_555
N13 Si11 1.741519 1_555
N13 Si10 1.760051 1_655
N14 Si8 1.741519 1_556
N14 Si9 1.760051 1_555
N15 Si9 1.741519 1_554
N15 Si8 1.760051 1_455
N16 Si5 1.756374 1_555
N16 Si8 1.781871 1_555
N17 Si4 1.756374 1_545
N17 Si9 1.781871 1_555
N18 Si7 1.756374 1_565
N18 Si10 1.781871 1_555
N19 Si6 1.756374 1_555
N19 Si11 1.781871 1_555
N20 Si1 1.756374 1_555
N20 Si12 1.781871 1_555
N21 Si0 1.756374 1_565
N21 Si13 1.781871 1_555
N22 Si3 1.756374 1_545
N22 Si14 1.781871 1_555
N23 Si2 1.756374 1_555
N23 Si15 1.781871 1_555
N24 Si0 1.747910 1_555
N24 Si8 1.758514 1_555
N25 Si1 1.747910 1_555
N25 Si9 1.758514 1_555
N26 Si2 1.747910 1_555
N26 Si10 1.758514 1_555
N27 Si3 1.747910 1_555
N27 Si11 1.758514 1_555
N28 Si4 1.747910 1_555
N28 Si12 1.758514 1_555
N29 Si5 1.747910 1_555
N29 Si13 1.758514 1_555
N30 Si6 1.747910 1_555
N30 Si14 1.758514 1_555
N31 Si7 1.747910 1_555
N31 Si15 1.758514 1_555
