# generated using pymatgen
data_Ca3ZnSe4
_symmetry_space_group_name_H-M   'P 1'
_cell_length_a   6.38183500
_cell_length_b   6.38183500
_cell_length_c   6.38183500
_cell_angle_alpha   90.00000000
_cell_angle_beta   90.00000000
_cell_angle_gamma   90.00000000
_symmetry_Int_Tables_number   1
_chemical_formula_structural   Ca3ZnSe4
_chemical_formula_sum   'Ca3 Zn1 Se4'
_cell_volume   259.91821418
_cell_formula_units_Z   1
loop_
 _symmetry_equiv_pos_site_id
 _symmetry_equiv_pos_as_xyz
  1  'x, y, z'
loop_
 _atom_site_type_symbol
 _atom_site_label
 _atom_site_symmetry_multiplicity
 _atom_site_fract_x
 _atom_site_fract_y
 _atom_site_fract_z
 _atom_site_occupancy
  Ca  Ca0  1  0.00000000  0.50000000  0.50000000  1
  Ca  Ca1  1  0.50000000  0.50000000  0.00000000  1
  Ca  Ca2  1  0.50000000  0.00000000  0.50000000  1
  Zn  Zn0  1  0.00000000  0.00000000  0.00000000  1
  Se  Se0  1  0.76990700  0.76990700  0.23009300  1
  Se  Se1  1  0.76990700  0.23009300  0.76990700  1
  Se  Se2  1  0.23009300  0.76990700  0.76990700  1
  Se  Se3  1  0.23009300  0.23009300  0.23009300  1
loop_
_geom_bond_atom_site_label_1
_geom_bond_atom_site_label_2
_geom_bond_distance
_geom_bond_site_symmetry_2
Ca0 Se1 2.844340 1_455
Ca0 Se3 2.844340 1_555
Ca0 Se2 2.844340 1_555
Ca0 Se0 2.844340 1_455
Ca1 Se2 2.844340 1_554
Ca1 Se3 2.844340 1_555
Ca1 Se0 2.844340 1_555
Ca1 Se1 2.844340 1_554
Ca2 Se0 2.844340 1_545
Ca2 Se2 2.844340 1_545
Ca2 Se3 2.844340 1_555
Ca2 Se1 2.844340 1_555
Se0 Zn0 2.543370 1_665
Se1 Zn0 2.543370 1_656
Se2 Zn0 2.543370 1_566
Se3 Zn0 2.543370 1_555
