# generated using pymatgen
data_B5H7S
_symmetry_space_group_name_H-M   'P 1'
_cell_length_a   7.79603600
_cell_length_b   12.68428500
_cell_length_c   14.80966649
_cell_angle_alpha   90.00000000
_cell_angle_beta   120.73807530
_cell_angle_gamma   90.00000000
_symmetry_Int_Tables_number   1
_chemical_formula_structural   B5H7S
_chemical_formula_sum   'B40 H56 S8'
_cell_volume   1258.74412775
_cell_formula_units_Z   8
loop_
 _symmetry_equiv_pos_site_id
 _symmetry_equiv_pos_as_xyz
  1  'x, y, z'
loop_
 _atom_site_type_symbol
 _atom_site_label
 _atom_site_symmetry_multiplicity
 _atom_site_fract_x
 _atom_site_fract_y
 _atom_site_fract_z
 _atom_site_occupancy
  B  B0  1  0.47643400  0.86088500  0.22726700  1
  B  B1  1  0.47643400  0.63911500  0.72726700  1
  B  B2  1  0.52356600  0.13911500  0.77273300  1
  B  B3  1  0.52356600  0.36088500  0.27273300  1
  B  B4  1  0.27750100  0.84803700  0.25292900  1
  B  B5  1  0.27750100  0.65196300  0.75292900  1
  B  B6  1  0.72249900  0.15196300  0.74707100  1
  B  B7  1  0.72249900  0.34803700  0.24707100  1
  B  B8  1  0.50892200  0.90893000  0.34819600  1
  B  B9  1  0.50892200  0.59107000  0.84819600  1
  B  B10  1  0.49107800  0.09107000  0.65180400  1
  B  B11  1  0.49107800  0.40893000  0.15180400  1
  B  B12  1  0.71821400  0.86514600  0.34137300  1
  B  B13  1  0.71821400  0.63485400  0.84137300  1
  B  B14  1  0.28178600  0.13485400  0.65862700  1
  B  B15  1  0.28178600  0.36514600  0.15862700  1
  B  B16  1  0.35249000  0.73787700  0.20223300  1
  B  B17  1  0.35249000  0.76212300  0.70223300  1
  B  B18  1  0.64751000  0.26212300  0.79776700  1
  B  B19  1  0.64751000  0.23787700  0.29776700  1
  B  B20  1  0.26947700  0.72064000  0.29334800  1
  B  B21  1  0.26947700  0.77936000  0.79334800  1
  B  B22  1  0.73052300  0.27936000  0.70665200  1
  B  B23  1  0.73052300  0.22064000  0.20665200  1
  B  B24  1  0.39809500  0.81962400  0.39185300  1
  B  B25  1  0.39809500  0.68037600  0.89185300  1
  B  B26  1  0.60190500  0.18037600  0.60814700  1
  B  B27  1  0.60190500  0.31962400  0.10814700  1
  B  B28  1  0.68918400  0.83083100  0.44923000  1
  B  B29  1  0.68918400  0.66916900  0.94923000  1
  B  B30  1  0.31081600  0.16916900  0.55077000  1
  B  B31  1  0.31081600  0.33083100  0.05077000  1
  B  B32  1  0.79455300  0.74224300  0.39729500  1
  B  B33  1  0.79455300  0.75775700  0.89729500  1
  B  B34  1  0.20544700  0.25775700  0.60270500  1
  B  B35  1  0.20544700  0.24224300  0.10270500  1
  B  B36  1  0.63485900  0.75021400  0.25855600  1
  B  B37  1  0.63485900  0.74978600  0.75855600  1
  B  B38  1  0.36514100  0.24978600  0.74144400  1
  B  B39  1  0.36514100  0.25021400  0.24144400  1
  H  H0  1  0.25814300  0.94726700  0.05518200  1
  H  H1  1  0.25814300  0.55273300  0.55518200  1
  H  H2  1  0.74185700  0.05273300  0.94481800  1
  H  H3  1  0.74185700  0.44726700  0.44481800  1
  H  H4  1  0.93589900  0.89520100  0.20677200  1
  H  H5  1  0.93589900  0.60479900  0.70677200  1
  H  H6  1  0.06410100  0.10479900  0.79322800  1
  H  H7  1  0.06410100  0.39520100  0.29322800  1
  H  H8  1  0.50265800  0.99809700  0.37166600  1
  H  H9  1  0.50265800  0.50190300  0.87166600  1
  H  H10  1  0.49734200  0.00190300  0.62833400  1
  H  H11  1  0.49734200  0.49809700  0.12833400  1
  H  H12  1  0.83621100  0.92771500  0.34551600  1
  H  H13  1  0.83621100  0.57228500  0.84551600  1
  H  H14  1  0.16378900  0.07228500  0.65448400  1
  H  H15  1  0.16378900  0.42771500  0.15448400  1
  H  H16  1  0.25714500  0.70116500  0.11651800  1
  H  H17  1  0.25714500  0.79883500  0.61651800  1
  H  H18  1  0.74285500  0.29883500  0.88348200  1
  H  H19  1  0.74285500  0.20116500  0.38348200  1
  H  H20  1  0.13188400  0.66963200  0.28182800  1
  H  H21  1  0.13188400  0.83036800  0.78182800  1
  H  H22  1  0.86811600  0.33036800  0.71817200  1
  H  H23  1  0.86811600  0.16963200  0.21817200  1
  H  H24  1  0.33900400  0.84266600  0.44911500  1
  H  H25  1  0.33900400  0.65733400  0.94911500  1
  H  H26  1  0.66099600  0.15733400  0.55088500  1
  H  H27  1  0.66099600  0.34266600  0.05088500  1
  H  H28  1  0.78847400  0.86202500  0.53704200  1
  H  H29  1  0.78847400  0.63797500  0.03704200  1
  H  H30  1  0.21152600  0.13797500  0.46295800  1
  H  H31  1  0.21152600  0.36202500  0.96295800  1
  H  H32  1  0.95800300  0.70649400  0.44335000  1
  H  H33  1  0.95800300  0.79350600  0.94335000  1
  H  H34  1  0.04199700  0.29350600  0.55665000  1
  H  H35  1  0.04199700  0.20649400  0.05665000  1
  H  H36  1  0.69396400  0.72177800  0.20272400  1
  H  H37  1  0.69396400  0.77822200  0.70272400  1
  H  H38  1  0.30603600  0.27822200  0.79727600  1
  H  H39  1  0.30603600  0.22177800  0.29727600  1
  H  H40  1  0.37877400  0.65961100  0.26777300  1
  H  H41  1  0.37877400  0.84038900  0.76777300  1
  H  H42  1  0.62122600  0.34038900  0.73222700  1
  H  H43  1  0.62122600  0.15961100  0.23222700  1
  H  H44  1  0.40933600  0.71548900  0.39594300  1
  H  H45  1  0.40933600  0.78451100  0.89594300  1
  H  H46  1  0.59066400  0.28451100  0.60405700  1
  H  H47  1  0.59066400  0.21548900  0.10405700  1
  H  H48  1  0.71117800  0.72686000  0.45624300  1
  H  H49  1  0.71117800  0.77314000  0.95624300  1
  H  H50  1  0.28882200  0.27314000  0.54375700  1
  H  H51  1  0.28882200  0.22686000  0.04375700  1
  H  H52  1  0.67554000  0.67137000  0.32585700  1
  H  H53  1  0.67554000  0.82863000  0.82585700  1
  H  H54  1  0.32446000  0.32863000  0.67414300  1
  H  H55  1  0.32446000  0.17137000  0.17414300  1
  S  S0  1  0.45783000  0.94252600  0.11807100  1
  S  S1  1  0.45783000  0.55747400  0.61807100  1
  S  S2  1  0.54217000  0.05747400  0.88192900  1
  S  S3  1  0.54217000  0.44252600  0.38192900  1
  S  S4  1  0.05409000  0.93363200  0.17298000  1
  S  S5  1  0.05409000  0.56636800  0.67298000  1
  S  S6  1  0.94591000  0.06636800  0.82702000  1
  S  S7  1  0.94591000  0.43363200  0.32702000  1
loop_
_geom_bond_atom_site_label_1
_geom_bond_atom_site_label_2
_geom_bond_distance
_geom_bond_site_symmetry_2
B0 B36 1.767973 1_555
B0 B16 1.771826 1_555
B0 B12 1.776357 1_555
B0 B4 1.782908 1_555
B0 B8 1.783043 1_555
B0 S0 1.862484 1_555
B1 B37 1.767973 1_555
B1 B17 1.771826 1_555
B1 B13 1.776357 1_555
B1 B5 1.782908 1_555
B1 B9 1.783043 1_555
B1 S1 1.862484 1_555
B2 B38 1.767973 1_555
B2 B6 1.782908 1_555
B2 S2 1.862484 1_555
B3 B39 1.767973 1_555
B3 B7 1.782908 1_555
B3 S3 1.862484 1_555
B4 B8 1.800035 1_555
B4 S4 1.872482 1_555
B5 B9 1.800035 1_555
B5 S5 1.872482 1_555
B6 S6 1.872482 1_555
B7 S7 1.872482 1_555
B8 H8 1.191535 1_555
B9 H9 1.191535 1_555
B10 H10 1.191535 1_555
B10 B2 1.783043 1_555
B10 B6 1.800035 1_555
B11 H11 1.191535 1_555
B11 B3 1.783043 1_555
B11 B7 1.800035 1_555
B12 H12 1.192547 1_555
B13 H13 1.192547 1_555
B14 H14 1.192547 1_555
B14 B2 1.776357 1_555
B15 H15 1.192547 1_555
B15 B3 1.776357 1_555
B16 H16 1.190050 1_555
B16 H40 1.329037 1_555
B16 B4 1.818405 1_555
B17 H17 1.190050 1_555
B17 H41 1.329037 1_555
B17 B5 1.818405 1_555
B18 H18 1.190050 1_555
B18 H42 1.329037 1_555
B18 B2 1.771826 1_555
B18 B6 1.818405 1_555
B19 H19 1.190050 1_555
B19 H43 1.329037 1_555
B19 B3 1.771826 1_555
B19 B7 1.818405 1_555
B20 H20 1.187974 1_555
B20 H40 1.341139 1_555
B20 H44 1.344693 1_555
B20 B4 1.735444 1_555
B21 H21 1.187974 1_555
B21 H41 1.341139 1_555
B21 H45 1.344693 1_555
B21 B5 1.735444 1_555
B22 H22 1.187974 1_555
B22 H42 1.341139 1_555
B22 H46 1.344693 1_555
B22 B6 1.735444 1_555
B23 H23 1.187974 1_555
B23 H43 1.341139 1_555
B23 H47 1.344693 1_555
B23 B7 1.735444 1_555
B24 H24 1.190022 1_555
B24 H44 1.323118 1_555
B24 B4 1.808165 1_555
B25 H25 1.190022 1_555
B25 H45 1.323118 1_555
B25 B5 1.808165 1_555
B26 H26 1.190022 1_555
B26 H46 1.323118 1_555
B26 B6 1.808165 1_555
B27 H27 1.190022 1_555
B27 H47 1.323118 1_555
B27 B7 1.808165 1_555
B28 H28 1.190767 1_555
B28 H48 1.327106 1_555
B29 H29 1.190767 1_556
B29 H49 1.327106 1_555
B30 H30 1.190767 1_555
B30 H50 1.327106 1_555
B31 H31 1.190767 1_554
B31 H51 1.327106 1_555
B32 H32 1.185801 1_555
B32 H52 1.335997 1_555
B32 H48 1.342667 1_555
B33 H33 1.185801 1_555
B33 H53 1.335997 1_555
B33 H49 1.342667 1_555
B34 H34 1.185801 1_555
B34 H54 1.335997 1_555
B34 H50 1.342667 1_555
B35 H35 1.185801 1_555
B35 H55 1.335997 1_555
B35 H51 1.342667 1_555
B36 H36 1.189780 1_555
B36 H52 1.330802 1_555
B37 H37 1.189780 1_555
B37 H53 1.330802 1_555
B38 H38 1.189780 1_555
B38 H54 1.330802 1_555
B39 H39 1.189780 1_555
B39 H55 1.330802 1_555
H0 S0 1.346266 1_555
H1 S1 1.346266 1_555
H2 S2 1.346266 1_555
H3 S3 1.346266 1_555
H4 S4 1.344792 1_655
H5 S5 1.344792 1_655
H6 S6 1.344792 1_455
H7 S7 1.344792 1_455
