# generated using pymatgen
data_FeH7C3NO6
_symmetry_space_group_name_H-M   'P 1'
_cell_length_a   12.44462450
_cell_length_b   12.44720753
_cell_length_c   8.41134362
_cell_angle_alpha   90.00129732
_cell_angle_beta   90.00066078
_cell_angle_gamma   119.97456980
_symmetry_Int_Tables_number   1
_chemical_formula_structural   FeH7C3NO6
_chemical_formula_sum   'Fe6 H42 C18 N6 O36'
_cell_volume   1128.65436420
_cell_formula_units_Z   6
loop_
 _symmetry_equiv_pos_site_id
 _symmetry_equiv_pos_as_xyz
  1  'x, y, z'
loop_
 _atom_site_type_symbol
 _atom_site_label
 _atom_site_symmetry_multiplicity
 _atom_site_fract_x
 _atom_site_fract_y
 _atom_site_fract_z
 _atom_site_occupancy
  Fe  Fe0  1  0.33615257  0.32930862  0.58849209  1
  Fe  Fe1  1  0.67036068  0.00675276  0.58839986  1
  Fe  Fe2  1  0.99343602  0.66377393  0.58824059  1
  Fe  Fe3  1  0.66384297  0.67068555  0.08846645  1
  Fe  Fe4  1  0.32963215  0.99325604  0.08844812  1
  Fe  Fe5  1  0.00657812  0.33624834  0.08823507  1
  H  H0  1  0.27035786  0.14844208  0.31380825  1
  H  H1  1  0.85122067  0.12193628  0.31386526  1
  H  H2  1  0.87832768  0.72946683  0.31359730  1
  H  H3  1  0.72958859  0.85145246  0.81367123  1
  H  H4  1  0.14878357  0.87808406  0.81392579  1
  H  H5  1  0.12167739  0.27053293  0.81367270  1
  H  H6  1  0.49912239  0.44657085  0.28333708  1
  H  H7  1  0.55352401  0.05286285  0.28411308  1
  H  H8  1  0.94709234  0.50057405  0.28384047  1
  H  H9  1  0.50095373  0.55344167  0.78322115  1
  H  H10  1  0.44647512  0.94713767  0.78423790  1
  H  H11  1  0.05291932  0.49943218  0.78388139  1
  H  H12  1  0.16591983  0.38820733  0.39319961  1
  H  H13  1  0.61221781  0.77807475  0.39325601  1
  H  H14  1  0.22199490  0.83383244  0.39318332  1
  H  H15  1  0.83411988  0.61181893  0.89330056  1
  H  H16  1  0.38781401  0.22188901  0.89320682  1
  H  H17  1  0.77803686  0.16624964  0.89315964  1
  H  H18  1  0.57731302  0.30660666  0.49615266  1
  H  H19  1  0.69316964  0.27073239  0.49604907  1
  H  H20  1  0.72893918  0.42236160  0.49592499  1
  H  H21  1  0.42268113  0.69339625  0.99613610  1
  H  H22  1  0.30682463  0.72927726  0.99603963  1
  H  H23  1  0.27105105  0.57765095  0.99593129  1
  H  H24  1  0.66656899  0.33337643  0.65573051  1
  H  H25  1  0.33343049  0.66665275  0.15572163  1
  H  H26  1  0.35889763  0.60282156  0.49379785  1
  H  H27  1  0.39702997  0.75567430  0.49390976  1
  H  H28  1  0.24422517  0.64109865  0.49390849  1
  H  H29  1  0.64108385  0.39715462  0.99376372  1
  H  H30  1  0.60294748  0.24429626  0.99390362  1
  H  H31  1  0.75575549  0.35887918  0.99387630  1
  H  H32  1  0.33339898  0.66652989  0.65341428  1
  H  H33  1  0.66660523  0.33348482  0.15338702  1
  H  H34  1  0.02686971  0.08939236  0.18584359  1
  H  H35  1  0.91057402  0.93751038  0.18606016  1
  H  H36  1  0.06254912  0.97313362  0.18583708  1
  H  H37  1  0.97310822  0.91058717  0.68587227  1
  H  H38  1  0.08941267  0.06246777  0.68606019  1
  H  H39  1  0.93744204  0.02685579  0.68583562  1
  H  H40  1  0.99991104  0.99996877  0.02664545  1
  H  H41  1  0.00006138  0.99998898  0.52665263  1
  C  C0  1  0.37082226  0.18685577  0.32651645  1
  C  C1  1  0.81288506  0.18408473  0.32646733  1
  C  C2  1  0.81599327  0.62909579  0.32632461  1
  C  C3  1  0.62913887  0.81310140  0.82645810  1
  C  C4  1  0.18709897  0.81591397  0.82650536  1
  C  C5  1  0.18403682  0.37090398  0.82637952  1
  C  C6  1  0.46757569  0.51170041  0.31623874  1
  C  C7  1  0.48844179  0.95614134  0.31669812  1
  C  C8  1  0.04384559  0.53227708  0.31635012  1
  C  C9  1  0.53246673  0.48829931  0.81619962  1
  C  C10  1  0.51156888  0.04387439  0.81672674  1
  C  C11  1  0.95617386  0.46776734  0.81637237  1
  C  C12  1  0.13523958  0.29081819  0.36529216  1
  C  C13  1  0.70967127  0.84480633  0.36564910  1
  C  C14  1  0.15538288  0.86470506  0.36537845  1
  C  C15  1  0.86477372  0.70919862  0.86533315  1
  C  C16  1  0.29034643  0.15517615  0.86564682  1
  C  C17  1  0.84459069  0.13530318  0.86534871  1
  N  N0  1  0.66649542  0.33326598  0.53489402  1
  N  N1  1  0.33350285  0.66674983  0.03489086  1
  N  N2  1  0.33338037  0.66650838  0.53242826  1
  N  N3  1  0.66660316  0.33347014  0.03239820  1
  N  N4  1  0.99997343  0.99999962  0.14752852  1
  N  N5  1  0.00000780  0.99998050  0.64753914  1
  O  O0  1  0.42393303  0.26320416  0.43970031  1
  O  O1  1  0.73654471  0.16102912  0.43959047  1
  O  O2  1  0.83895755  0.57561472  0.43917674  1
  O  O3  1  0.57605278  0.73678663  0.93966174  1
  O  O4  1  0.26341479  0.83894798  0.93965009  1
  O  O5  1  0.16110206  0.42443483  0.93919721  1
  O  O6  1  0.42658425  0.15378041  0.23124711  1
  O  O7  1  0.84608045  0.27285022  0.23106920  1
  O  O8  1  0.72701581  0.57374744  0.23108732  1
  O  O9  1  0.57339575  0.84622909  0.73123541  1
  O  O10  1  0.15390693  0.72716782  0.73107100  1
  O  O11  1  0.27302123  0.42623368  0.73114694  1
  O  O12  1  0.40209095  0.48802567  0.44118293  1
  O  O13  1  0.51203711  0.91426474  0.44171509  1
  O  O14  1  0.08575351  0.59777758  0.44132337  1
  O  O15  1  0.59791652  0.51197910  0.94117719  1
  O  O16  1  0.48800912  0.08578683  0.94174553  1
  O  O17  1  0.91422971  0.40224742  0.94131882  1
  O  O18  1  0.49917393  0.60544213  0.22986435  1
  O  O19  1  0.39497691  0.89399016  0.22994218  1
  O  O20  1  0.10606896  0.50100492  0.22963310  1
  O  O21  1  0.50086148  0.39453329  0.72985527  1
  O  O22  1  0.60498872  0.10599197  0.72989472  1
  O  O23  1  0.89398243  0.49908593  0.72966288  1
  O  O24  1  0.16616770  0.23050336  0.45582477  1
  O  O25  1  0.76977245  0.93592867  0.45639849  1
  O  O26  1  0.06414930  0.83381573  0.45590032  1
  O  O27  1  0.83381092  0.76951050  0.95581687  1
  O  O28  1  0.23023189  0.06408471  0.95643064  1
  O  O29  1  0.93582417  0.16615382  0.95586076  1
  O  O30  1  0.07047409  0.24605100  0.24021508  1
  O  O31  1  0.75463279  0.82494950  0.24064553  1
  O  O32  1  0.17550568  0.92955834  0.24034780  1
  O  O33  1  0.92953088  0.75392756  0.74026237  1
  O  O34  1  0.24536127  0.17501218  0.74063038  1
  O  O35  1  0.82442529  0.07042144  0.74033914  1
loop_
_geom_bond_atom_site_label_1
_geom_bond_atom_site_label_2
_geom_bond_distance
_geom_bond_site_symmetry_2
Fe0 O0 2.082027 1_555
Fe0 O34 2.105845 1_555
Fe0 O11 2.111782 1_555
Fe0 O12 2.119394 1_555
Fe0 O21 2.147435 1_555
Fe0 O24 2.152430 1_555
Fe1 O1 2.086240 1_555
Fe1 O35 2.102129 1_555
Fe1 O13 2.112582 1_545
Fe1 O9 2.117260 1_545
Fe1 O22 2.146685 1_555
Fe1 O25 2.151796 1_545
Fe2 O2 2.088997 1_555
Fe2 O33 2.102023 1_555
Fe2 O14 2.113014 1_655
Fe2 O10 2.116443 1_655
Fe2 O23 2.148013 1_555
Fe2 O26 2.152276 1_655
Fe3 O3 2.082159 1_554
Fe3 O31 2.105723 1_555
Fe3 O8 2.112103 1_555
Fe3 O15 2.119147 1_554
Fe3 O18 2.147241 1_555
Fe3 O27 2.152280 1_554
Fe4 O4 2.086378 1_554
Fe4 O32 2.102504 1_555
Fe4 O16 2.113207 1_564
Fe4 O6 2.117008 1_565
Fe4 O19 2.146730 1_555
Fe4 O28 2.151800 1_564
Fe5 O5 2.089317 1_554
Fe5 O30 2.102149 1_555
Fe5 O17 2.113322 1_454
Fe5 O7 2.116754 1_455
Fe5 O20 2.148447 1_555
Fe5 O29 2.152833 1_454
H18 N0 1.039249 1_555
H18 O0 1.769253 1_555
H19 N0 1.039701 1_555
H19 O1 1.765777 1_555
H20 N0 1.039264 1_555
H20 O2 1.769619 1_555
H21 N1 1.039285 1_556
H21 O3 1.769261 1_555
H22 N1 1.039692 1_556
H22 O4 1.765559 1_555
H23 N1 1.039267 1_556
H23 O5 1.769033 1_555
H24 N0 1.016398 1_555
H25 N1 1.016350 1_555
H26 N2 1.042286 1_555
H27 N2 1.042002 1_555
H28 N2 1.041802 1_555
H29 N3 1.042296 1_556
H30 N3 1.042003 1_556
H31 N3 1.041789 1_556
H32 N2 1.017655 1_555
H33 N3 1.017679 1_555
H34 N4 1.040102 1_445
H35 N4 1.040732 1_555
H36 N4 1.040332 1_455
H37 N5 1.040165 1_655
H38 N5 1.040727 1_545
H39 N5 1.040270 1_645
H40 N4 1.016789 1_555
H41 N5 1.016818 1_555
C0 H0 1.098094 1_555
C0 O6 1.256448 1_555
C0 O0 1.272257 1_555
C1 H1 1.098188 1_555
C1 O7 1.256692 1_555
C1 O1 1.271967 1_555
C2 H2 1.098029 1_555
C2 O8 1.257033 1_555
C2 O2 1.271214 1_555
C3 H3 1.098100 1_555
C3 O9 1.256425 1_555
C3 O3 1.272176 1_555
C4 H4 1.098222 1_555
C4 O10 1.256681 1_555
C4 O4 1.271923 1_555
C5 H5 1.098049 1_555
C5 O11 1.257072 1_555
C5 O5 1.271196 1_555
C6 H6 1.098147 1_555
C6 O18 1.259171 1_555
C6 O12 1.271030 1_555
C7 H7 1.098270 1_565
C7 O19 1.258849 1_555
C7 O13 1.271478 1_555
C8 H8 1.097937 1_455
C8 O20 1.258708 1_555
C8 O14 1.271528 1_555
C9 H9 1.098159 1_555
C9 O21 1.259210 1_555
C9 O15 1.271002 1_555
C10 H10 1.098215 1_545
C10 O22 1.258846 1_555
C10 O16 1.271518 1_555
C11 H11 1.097910 1_655
C11 O23 1.258722 1_555
C11 O17 1.271528 1_555
C12 H12 1.099032 1_555
C12 O24 1.257141 1_555
C12 O30 1.272060 1_555
C13 H13 1.099138 1_555
C13 O25 1.257299 1_555
C13 O31 1.271965 1_555
C14 H14 1.099023 1_555
C14 O26 1.257168 1_555
C14 O32 1.272172 1_555
C15 H15 1.099111 1_555
C15 O27 1.257110 1_555
C15 O33 1.271952 1_555
C16 H16 1.099121 1_555
C16 O28 1.257308 1_555
C16 O34 1.272104 1_555
C17 H17 1.099029 1_555
C17 O29 1.257161 1_555
C17 O35 1.272117 1_555
