# generated using pymatgen
data_Li2MgZr2H4(OF3)4
_symmetry_space_group_name_H-M   'P 1'
_cell_length_a   6.90816900
_cell_length_b   6.93206134
_cell_length_c   7.53719398
_cell_angle_alpha   115.59599123
_cell_angle_beta   89.84812468
_cell_angle_gamma   106.15017590
_symmetry_Int_Tables_number   1
_chemical_formula_structural   Li2MgZr2H4(OF3)4
_chemical_formula_sum   'Li2 Mg1 Zr2 H4 O4 F12'
_cell_volume   309.78154703
_cell_formula_units_Z   1
loop_
 _symmetry_equiv_pos_site_id
 _symmetry_equiv_pos_as_xyz
  1  'x, y, z'
loop_
 _atom_site_type_symbol
 _atom_site_label
 _atom_site_symmetry_multiplicity
 _atom_site_fract_x
 _atom_site_fract_y
 _atom_site_fract_z
 _atom_site_occupancy
  Li  Li0  1  0.92780600  0.79811800  0.67522100  1
  Li  Li1  1  0.07219400  0.20188200  0.32477900  1
  Mg  Mg0  1  0.50000000  0.00000000  0.00000000  1
  Zr  Zr0  1  0.00105900  0.74138100  0.24957700  1
  Zr  Zr1  1  0.99894100  0.25861900  0.75042300  1
  H  H0  1  0.75183300  0.31248000  0.13805800  1
  H  H1  1  0.24816700  0.68752000  0.86194200  1
  H  H2  1  0.53578900  0.23697300  0.20245400  1
  H  H3  1  0.46421100  0.76302700  0.79754600  1
  O  O0  1  0.61817200  0.21658300  0.12814900  1
  O  O1  1  0.38182800  0.78341700  0.87185100  1
  O  O2  1  0.60213500  0.67797200  0.66920100  1
  O  O3  1  0.39786500  0.32202800  0.33079900  1
  F  F0  1  0.96489900  0.47071500  0.18805300  1
  F  F1  1  0.03510100  0.52928500  0.81194700  1
  F  F2  1  0.70827200  0.80303300  0.16785100  1
  F  F3  1  0.29172800  0.19696700  0.83214900  1
  F  F4  1  0.95716100  0.87490200  0.91764800  1
  F  F5  1  0.04283900  0.12509800  0.08235200  1
  F  F6  1  0.30089800  0.83865000  0.19613300  1
  F  F7  1  0.69910200  0.16135000  0.80386700  1
  F  F8  1  0.82228500  0.48650600  0.48537800  1
  F  F9  1  0.17771500  0.51349400  0.51462200  1
  F  F10  1  0.06235300  0.88319500  0.44572000  1
  F  F11  1  0.93764700  0.11680500  0.55428000  1
loop_
_geom_bond_atom_site_label_1
_geom_bond_atom_site_label_2
_geom_bond_distance
_geom_bond_site_symmetry_2
Li0 O2 2.163970 1_555
Li1 O3 2.163970 1_555
Mg0 O0 1.386655 1_555
Mg0 O1 1.386655 1_544
H0 O0 0.957113 1_555
H1 O1 0.957113 1_555
H2 O0 0.795104 1_555
H2 O3 1.416360 1_555
H2 Mg0 1.642647 1_555
H3 O1 0.795104 1_555
H3 O2 1.416360 1_555
H3 Mg0 1.642647 1_566
F0 H0 1.503089 1_555
F0 Zr0 1.669113 1_655
F0 F8 2.416816 1_555
F0 F6 2.910285 1_655
F1 H1 1.503089 1_555
F1 Zr1 1.669113 1_455
F1 F9 2.416816 1_555
F1 F7 2.910285 1_455
F2 Zr0 2.316904 1_655
F2 F4 2.660610 1_554
F2 Mg0 2.851310 1_565
F2 F6 2.892067 1_555
F2 Li1 2.947370 1_665
F3 Zr1 2.316904 1_455
F3 F5 2.660610 1_556
F3 Mg0 2.851310 1_556
F3 F7 2.892067 1_555
F3 Li0 2.947370 1_445
F4 F5 1.572240 1_666
F4 Li0 1.662749 1_555
F5 Li1 1.662749 1_555
F6 Zr0 2.088214 1_555
F6 H1 2.255521 1_554
F6 Mg0 2.426977 1_565
F6 H2 2.766537 1_565
F6 O3 2.919431 1_565
F7 Zr1 2.088214 1_555
F7 H0 2.255521 1_556
F7 Mg0 2.426977 1_556
F7 H3 2.766537 1_545
F7 O2 2.919431 1_545
F8 Li0 1.924523 1_555
F8 H0 2.344482 1_555
F8 O2 2.348835 1_555
F8 F9 2.413322 1_655
F8 H2 2.527297 1_555
F9 Li1 1.924523 1_555
F9 H1 2.344482 1_555
F9 O3 2.348835 1_555
F9 H3 2.527297 1_555
F10 Zr0 1.359148 1_555
F10 Li0 2.184471 1_455
F10 F6 2.472761 1_555
F10 F3 2.891069 1_565
F11 Zr1 1.359148 1_555
F11 Li1 2.184471 1_655
F11 F7 2.472761 1_555
F11 F2 2.891069 1_545
