# generated using pymatgen
data_Rb2Cr2O7
_symmetry_space_group_name_H-M   'P 1'
_cell_length_a   7.65537742
_cell_length_b   7.65537742
_cell_length_c   7.70268287
_cell_angle_alpha   88.44848445
_cell_angle_beta   88.44848445
_cell_angle_gamma   59.39643993
_symmetry_Int_Tables_number   1
_chemical_formula_structural   Rb2Cr2O7
_chemical_formula_sum   'Rb4 Cr4 O14'
_cell_volume   388.34811682
_cell_formula_units_Z   2
loop_
 _symmetry_equiv_pos_site_id
 _symmetry_equiv_pos_as_xyz
  1  'x, y, z'
loop_
 _atom_site_type_symbol
 _atom_site_label
 _atom_site_symmetry_multiplicity
 _atom_site_fract_x
 _atom_site_fract_y
 _atom_site_fract_z
 _atom_site_occupancy
  Rb  Rb0  1  0.00069755  0.70742949  0.85062879  1
  Rb  Rb1  1  0.29257051  -0.00069755  0.64937121  1
  Rb  Rb2  1  -0.00069755  0.29257051  0.14937121  1
  Rb  Rb3  1  0.70742949  0.00069755  0.35062879  1
  Cr  Cr0  1  0.56980317  0.22820135  0.85951890  1
  Cr  Cr1  1  0.77179865  0.43019683  0.64048110  1
  Cr  Cr2  1  0.43019683  0.77179865  0.14048110  1
  Cr  Cr3  1  0.22820135  0.56980317  0.35951890  1
  O  O0  1  0.56065306  0.43934694  0.75000000  1
  O  O1  1  0.43934694  0.56065306  0.25000000  1
  O  O2  1  0.63310471  0.05044466  0.71978784  1
  O  O3  1  0.94955534  0.36689529  0.78021216  1
  O  O4  1  0.36689529  0.94955534  0.28021216  1
  O  O5  1  0.05044466  0.63310471  0.21978784  1
  O  O6  1  0.34881137  0.29647813  0.94268516  1
  O  O7  1  0.70352187  0.65118863  0.55731484  1
  O  O8  1  0.14302045  0.74222724  0.50731887  1
  O  O9  1  0.25777276  0.85697955  0.99268113  1
  O  O10  1  0.85697955  0.25777276  0.49268113  1
  O  O11  1  0.74222724  0.14302045  0.00731887  1
  O  O12  1  0.29647813  0.34881137  0.44268516  1
  O  O13  1  0.65118863  0.70352187  0.05731484  1
loop_
_geom_bond_atom_site_label_1
_geom_bond_atom_site_label_2
_geom_bond_distance
_geom_bond_site_symmetry_2
Cr0 O6 1.613931 1_555
Cr0 O2 1.620081 1_555
Cr0 O11 1.621236 1_556
Cr0 O0 1.772956 1_555
Cr1 O7 1.613931 1_555
Cr1 O3 1.620081 1_555
Cr1 O10 1.621236 1_555
Cr1 O0 1.772956 1_555
Cr2 O13 1.613931 1_555
Cr2 O4 1.620081 1_555
Cr2 O9 1.621236 1_554
Cr2 O1 1.772956 1_555
Cr3 O12 1.613931 1_555
Cr3 O5 1.620081 1_555
Cr3 O8 1.621236 1_555
Cr3 O1 1.772956 1_555
O2 Rb3 2.881797 1_555
O2 Rb0 2.883825 1_645
O2 Rb1 2.893229 1_555
O3 Rb2 2.881797 1_656
O3 Rb1 2.883825 1_655
O3 Rb0 2.893229 1_655
O4 Rb1 2.881797 1_565
O4 Rb2 2.883825 1_565
O4 Rb3 2.893229 1_565
O5 Rb0 2.881797 1_554
O5 Rb3 2.883825 1_465
O5 Rb2 2.893229 1_555
O6 Rb0 2.991171 1_555
O6 Rb2 3.089123 1_556
O6 Rb1 3.434199 1_555
O7 Rb1 2.991171 1_565
O7 Rb3 3.089123 1_565
O7 Rb0 3.434199 1_655
O8 Rb0 2.890034 1_555
O8 Rb1 2.976496 1_565
O8 Rb3 3.140379 1_465
O9 Rb1 2.890034 1_565
O9 Rb0 2.976496 1_555
O9 Rb2 3.140379 1_566
O10 Rb2 2.890034 1_655
O10 Rb3 2.976496 1_555
O10 Rb1 3.140379 1_655
O11 Rb3 2.890034 1_555
O11 Rb2 2.976496 1_655
O11 Rb0 3.140379 1_644
O12 Rb3 2.991171 1_555
O12 Rb1 3.089123 1_555
O12 Rb2 3.434199 1_555
O13 Rb2 2.991171 1_655
O13 Rb0 3.089123 1_654
O13 Rb3 3.434199 1_565
