# generated using pymatgen
data_Co3BPO7
_symmetry_space_group_name_H-M   'P 1'
_cell_length_a   4.93946070
_cell_length_b   8.08720505
_cell_length_c   8.08305267
_cell_angle_alpha   104.36876116
_cell_angle_beta   107.46563141
_cell_angle_gamma   107.91327944
_symmetry_Int_Tables_number   1
_chemical_formula_structural   Co3BPO7
_chemical_formula_sum   'Co6 B2 P2 O14'
_cell_volume   271.67124479
_cell_formula_units_Z   2
loop_
 _symmetry_equiv_pos_site_id
 _symmetry_equiv_pos_as_xyz
  1  'x, y, z'
loop_
 _atom_site_type_symbol
 _atom_site_label
 _atom_site_symmetry_multiplicity
 _atom_site_fract_x
 _atom_site_fract_y
 _atom_site_fract_z
 _atom_site_occupancy
  Co  Co0  1  0.20540600  0.84548000  0.35518300  1
  Co  Co1  1  0.56602400  0.78165000  0.06662800  1
  Co  Co2  1  0.56432300  0.06862300  0.78063500  1
  Co  Co3  1  0.19929500  0.33924300  0.85222800  1
  Co  Co4  1  0.51521700  0.30091300  0.52077500  1
  Co  Co5  1  0.50994500  0.51899100  0.29871400  1
  B  B0  1  0.86840400  0.05057300  0.48211000  1
  B  B1  1  0.87280700  0.48769200  0.04811000  1
  P  P0  1  0.22790300  0.05943300  0.06130200  1
  P  P1  1  0.20756900  0.59866900  0.60196200  1
  O  O0  1  0.44012000  0.24111800  0.23754600  1
  O  O1  1  0.42779700  0.97919300  0.97824700  1
  O  O2  1  0.25481500  0.45698400  0.45515100  1
  O  O3  1  0.85513200  0.54762800  0.54876900  1
  O  O4  1  0.01957700  0.10740900  0.91038200  1
  O  O5  1  0.02453200  0.91159000  0.11357700  1
  O  O6  1  0.36121900  0.79653100  0.59770400  1
  O  O7  1  0.36131800  0.59255300  0.79625000  1
  O  O8  1  0.81435200  0.18106000  0.60267700  1
  O  O9  1  0.81471500  0.60482800  0.17877000  1
  O  O10  1  0.62161800  0.89595100  0.33714500  1
  O  O11  1  0.62794800  0.34174300  0.89217600  1
  O  O12  1  0.17931400  0.52231800  0.07215700  1
  O  O13  1  0.17474900  0.07472400  0.51670100  1
loop_
_geom_bond_atom_site_label_1
_geom_bond_atom_site_label_2
_geom_bond_distance
_geom_bond_site_symmetry_2
Co0 O10 2.026746 1_555
Co0 O9 2.050752 1_455
Co0 O13 2.062662 1_565
Co0 O6 2.063684 1_555
Co0 O5 2.159316 1_555
Co1 O10 2.047276 1_555
Co1 O5 2.049309 1_655
Co1 O7 2.049604 1_554
Co1 O1 2.115042 1_554
Co1 O9 2.330460 1_555
Co1 O12 2.383816 1_555
Co2 O6 2.042440 1_545
Co2 O11 2.050573 1_555
Co2 O4 2.059650 1_655
Co2 O1 2.109305 1_545
Co2 O8 2.333652 1_555
Co2 O13 2.429624 1_555
Co3 O11 2.036597 1_555
Co3 O4 2.046523 1_555
Co3 O8 2.059466 1_455
Co3 O12 2.061773 1_556
Co3 O7 2.170425 1_555
Co4 O8 2.042861 1_555
Co4 O13 2.054234 1_555
Co4 O3 2.082859 1_555
Co4 O0 2.107848 1_555
Co4 O2 2.109578 1_555
Co4 O11 2.796943 1_555
Co5 O9 2.062850 1_555
Co5 O12 2.068255 1_555
Co5 O0 2.069491 1_555
Co5 O2 2.078706 1_555
Co5 O3 2.121832 1_555
Co5 O10 2.843787 1_555
B0 O10 1.378512 1_545
B0 O13 1.393973 1_655
B0 O8 1.397751 1_555
B1 O11 1.383117 1_554
B1 O12 1.394228 1_655
B1 O9 1.395599 1_555
O0 P0 1.550622 1_555
O1 P0 1.556438 1_566
O2 P1 1.559317 1_555
O3 P1 1.551251 1_655
O4 P0 1.557100 1_556
O5 P0 1.543985 1_565
O6 P1 1.560006 1_555
O7 P1 1.546358 1_555
