# generated using pymatgen
data_TiCoN2
_symmetry_space_group_name_H-M   'P 1'
_cell_length_a   2.94688000
_cell_length_b   2.94685840
_cell_length_c   9.42023600
_cell_angle_alpha   90.00000000
_cell_angle_beta   90.00000000
_cell_angle_gamma   120.00024247
_symmetry_Int_Tables_number   1
_chemical_formula_structural   TiCoN2
_chemical_formula_sum   'Ti2 Co2 N4'
_cell_volume   70.84563102
_cell_formula_units_Z   2
loop_
 _symmetry_equiv_pos_site_id
 _symmetry_equiv_pos_as_xyz
  1  'x, y, z'
loop_
 _atom_site_type_symbol
 _atom_site_label
 _atom_site_symmetry_multiplicity
 _atom_site_fract_x
 _atom_site_fract_y
 _atom_site_fract_z
 _atom_site_occupancy
  Ti  Ti0  1  0.66678600  0.33357200  0.25000000  1
  Ti  Ti1  1  0.33321400  0.66642800  0.75000000  1
  Co  Co0  1  0.00000000  0.00000000  0.00000000  1
  Co  Co1  1  0.00000000  0.00000000  0.50000000  1
  N  N0  1  0.66657900  0.33315800  0.88327500  1
  N  N1  1  0.33342100  0.66684200  0.11672500  1
  N  N2  1  0.33342100  0.66684200  0.38327500  1
  N  N3  1  0.66657900  0.33315800  0.61672500  1
loop_
_geom_bond_atom_site_label_1
_geom_bond_atom_site_label_2
_geom_bond_distance
_geom_bond_site_symmetry_2
Co0 N1 2.025585 1_545
Co0 N1 2.025585 1_445
Co0 N0 2.025585 1_554
Co0 N0 2.025585 1_454
Co0 N1 2.026138 1_555
Co0 N0 2.026138 1_444
Co1 N3 2.025585 1_555
Co1 N2 2.025585 1_545
Co1 N3 2.025585 1_455
Co1 N2 2.025585 1_445
Co1 N2 2.026138 1_555
Co1 N3 2.026138 1_445
N0 Ti1 2.114390 1_555
N0 Ti1 2.114390 1_655
N0 Ti1 2.114575 1_545
N1 Ti0 2.114390 1_455
N1 Ti0 2.114390 1_555
N1 Ti0 2.114575 1_565
N2 Ti0 2.114390 1_455
N2 Ti0 2.114390 1_555
N2 Ti0 2.114575 1_565
N3 Ti1 2.114390 1_555
N3 Ti1 2.114390 1_655
N3 Ti1 2.114575 1_545
