# generated using pymatgen
data_Li7Mn4CoO12
_symmetry_space_group_name_H-M   'P 1'
_cell_length_a   5.90260025
_cell_length_b   10.11480755
_cell_length_c   8.21958300
_cell_angle_alpha   66.50331742
_cell_angle_beta   89.24253757
_cell_angle_gamma   103.96013674
_symmetry_Int_Tables_number   1
_chemical_formula_structural   Li7Mn4CoO12
_chemical_formula_sum   'Li14 Mn8 Co2 O24'
_cell_volume   433.44351877
_cell_formula_units_Z   2
loop_
 _symmetry_equiv_pos_site_id
 _symmetry_equiv_pos_as_xyz
  1  'x, y, z'
loop_
 _atom_site_type_symbol
 _atom_site_label
 _atom_site_symmetry_multiplicity
 _atom_site_fract_x
 _atom_site_fract_y
 _atom_site_fract_z
 _atom_site_occupancy
  Li  Li0  1  0.66669600  0.33331900  0.83333900  1
  Li  Li1  1  0.16670500  0.33330700  0.83336600  1
  Li  Li2  1  0.66673200  0.83328100  0.33336400  1
  Li  Li3  1  0.16673500  0.83329900  0.33334000  1
  Li  Li4  1  0.66664900  0.83332000  0.83333100  1
  Li  Li5  1  0.16665500  0.83332000  0.83333600  1
  Li  Li6  1  0.50867900  0.50733100  0.99813000  1
  Li  Li7  1  0.01577400  0.50802100  0.00038800  1
  Li  Li8  1  0.31756300  0.15866200  0.66625400  1
  Li  Li9  1  0.82464500  0.15933500  0.66857100  1
  Li  Li10  1  0.48873400  0.99488100  0.52656200  1
  Li  Li11  1  0.00736500  0.00089300  0.52451700  1
  Li  Li12  1  0.84458000  0.67180200  0.14010700  1
  Li  Li13  1  0.32605000  0.66577400  0.14215200  1
  Mn  Mn0  1  0.98973100  0.99550000  0.99263300  1
  Mn  Mn1  1  0.49113500  0.99591100  0.99208400  1
  Mn  Mn2  1  0.34361700  0.67117900  0.67401100  1
  Mn  Mn3  1  0.84218700  0.67078800  0.67460300  1
  Mn  Mn4  1  0.50321500  0.50213000  0.49343000  1
  Mn  Mn5  1  0.00781500  0.50378700  0.49157700  1
  Mn  Mn6  1  0.32547100  0.16291600  0.17518800  1
  Mn  Mn7  1  0.83008100  0.16453500  0.17329800  1
  Co  Co0  1  0.66668000  0.33334300  0.33331700  1
  Co  Co1  1  0.16664400  0.33334900  0.33333900  1
  O  O0  1  0.30956000  0.14933400  0.93519900  1
  O  O1  1  0.80749500  0.14882700  0.93109400  1
  O  O2  1  0.52583200  0.51783700  0.73553000  1
  O  O3  1  0.02379200  0.51734100  0.73145100  1
  O  O4  1  0.35519900  0.66235400  0.43125500  1
  O  O5  1  0.84731600  0.65999800  0.43033900  1
  O  O6  1  0.48596400  0.00668900  0.23632200  1
  O  O7  1  0.97813000  0.00431500  0.23536100  1
  O  O8  1  0.17439300  0.32351100  0.09884300  1
  O  O9  1  0.68038300  0.32477900  0.10272600  1
  O  O10  1  0.65291700  0.34187100  0.56392900  1
  O  O11  1  0.15886300  0.34314200  0.56784400  1
  O  O12  1  0.65378500  0.81293200  0.59517500  1
  O  O13  1  0.15428600  0.81270800  0.59335800  1
  O  O14  1  0.67956600  0.85372000  0.07149000  1
  O  O15  1  0.17908500  0.85396100  0.07327900  1
  O  O16  1  0.47912900  0.47753400  0.26178800  1
  O  O17  1  0.00991700  0.49500500  0.25836600  1
  O  O18  1  0.32340200  0.17168700  0.40830200  1
  O  O19  1  0.85418800  0.18913700  0.40482500  1
  O  O20  1  0.00000900  0.00282100  0.76766600  1
  O  O21  1  0.49903700  0.00411900  0.76644200  1
  O  O22  1  0.83430000  0.66255700  0.90021300  1
  O  O23  1  0.33331300  0.66383900  0.89896500  1
loop_
_geom_bond_atom_site_label_1
_geom_bond_atom_site_label_2
_geom_bond_distance
_geom_bond_site_symmetry_2
Li0 O1 2.094986 1_555
Li0 O2 2.095457 1_555
Li0 O9 2.184598 1_556
Li0 O10 2.184776 1_555
Li0 O0 2.329400 1_555
Li0 O3 2.329403 1_655
Li1 O0 2.099555 1_555
Li1 O3 2.100311 1_555
Li1 O8 2.146127 1_556
Li1 O11 2.146399 1_555
Li1 O2 2.339444 1_555
Li1 O1 2.339556 1_455
Li2 O12 2.077037 1_555
Li2 O14 2.077260 1_555
Li2 O4 2.082202 1_555
Li2 O7 2.082204 1_565
Li2 O5 2.157182 1_555
Li2 O6 2.158958 1_565
Li3 O13 2.061575 1_555
Li3 O15 2.061698 1_555
Li3 O6 2.124349 1_565
Li3 O5 2.124694 1_455
Li3 O4 2.171870 1_555
Li3 O7 2.173047 1_465
Li4 O12 2.049033 1_555
Li4 O14 2.049123 1_556
Li4 O22 2.084885 1_555
Li4 O21 2.085030 1_565
Li4 O23 2.169814 1_555
Li4 O20 2.169990 1_665
Li5 O15 2.064810 1_556
Li5 O13 2.064949 1_555
Li5 O23 2.070677 1_555
Li5 O20 2.070778 1_565
Li5 O22 2.171063 1_455
Li5 O21 2.171338 1_565
Li6 O23 2.006470 1_555
Li6 O16 2.064377 1_556
Li6 O22 2.074243 1_555
Li6 O2 2.118168 1_555
Li6 O9 2.199078 1_556
Li6 O8 2.234953 1_556
Li7 O22 2.018308 1_454
Li7 O23 2.043940 1_554
Li7 O17 2.070794 1_555
Li7 O8 2.161784 1_555
Li7 O3 2.174068 1_554
Li7 O9 2.237050 1_455
Li8 O21 2.018372 1_555
Li8 O20 2.044086 1_555
Li8 O18 2.070550 1_555
Li8 O11 2.161831 1_555
Li8 O0 2.174104 1_555
Li8 O10 2.236742 1_555
Li9 O20 2.006451 1_655
Li9 O19 2.065077 1_555
Li9 O21 2.074120 1_555
Li9 O1 2.117528 1_555
Li9 O10 2.199067 1_555
Li9 O11 2.234622 1_655
Li10 O21 2.011821 1_565
Li10 O18 2.139263 1_565
Li10 O12 2.169371 1_555
Li10 O13 2.236834 1_555
Li10 O6 2.341076 1_565
Li10 O19 2.417705 1_565
Li11 O20 2.006438 1_555
Li11 O18 2.111607 1_555
Li11 O13 2.155452 1_545
Li11 O19 2.184314 1_455
Li11 O12 2.341067 1_445
Li11 O7 2.372342 1_455
Li12 O22 2.011962 1_554
Li12 O17 2.139212 1_655
Li12 O14 2.168957 1_555
Li12 O15 2.236966 1_655
Li12 O5 2.341018 1_555
Li12 O16 2.417709 1_555
Li13 O23 2.006774 1_554
Li13 O17 2.111884 1_555
Li13 O15 2.155609 1_555
Li13 O16 2.183867 1_555
Li13 O14 2.340727 1_555
Li13 O4 2.371869 1_555
Mn0 O20 1.820479 1_665
Mn0 O15 1.942451 1_656
Mn0 O14 1.946564 1_556
Mn0 O1 2.002969 1_565
Mn0 O7 2.033307 1_566
Mn0 O0 2.044817 1_665
Mn1 O21 1.822630 1_565
Mn1 O14 1.942697 1_556
Mn1 O15 1.956258 1_556
Mn1 O0 2.003166 1_565
Mn1 O1 2.023370 1_565
Mn1 O6 2.053658 1_566
Mn2 O23 1.820302 1_555
Mn2 O13 1.942277 1_555
Mn2 O12 1.946469 1_555
Mn2 O2 2.003009 1_555
Mn2 O4 2.033578 1_555
Mn2 O3 2.044814 1_555
Mn3 O22 1.822282 1_555
Mn3 O12 1.942222 1_555
Mn3 O13 1.956380 1_655
Mn3 O3 2.003512 1_655
Mn3 O2 2.023541 1_555
Mn3 O5 2.053922 1_555
Mn4 O4 1.919765 1_555
Mn4 O10 1.923495 1_555
Mn4 O16 2.018695 1_555
Mn4 O2 2.062012 1_555
Mn4 O5 2.165882 1_555
Mn4 O11 2.167316 1_555
Mn5 O11 1.931244 1_555
Mn5 O5 1.935990 1_455
Mn5 O17 1.954026 1_555
Mn5 O3 2.032085 1_555
Mn5 O4 2.185156 1_555
Mn5 O10 2.226939 1_455
Mn6 O8 1.930943 1_555
Mn6 O6 1.936150 1_555
Mn6 O18 1.953180 1_555
Mn6 O0 2.033137 1_554
Mn6 O7 2.185203 1_455
Mn6 O9 2.226752 1_555
Mn7 O7 1.919920 1_555
Mn7 O9 1.923336 1_555
Mn7 O19 2.017792 1_555
Mn7 O1 2.062858 1_554
Mn7 O6 2.165898 1_555
Mn7 O8 2.167080 1_655
Co0 O9 1.933051 1_555
Co0 O10 1.933075 1_555
Co0 O19 1.952051 1_555
Co0 O16 1.952128 1_555
Co0 O17 2.173311 1_655
Co0 O18 2.173458 1_555
Co1 O17 1.962298 1_555
Co1 O18 1.962472 1_555
Co1 O19 1.965790 1_455
Co1 O16 1.965806 1_555
Co1 O11 1.969621 1_555
Co1 O8 1.969746 1_555
