# generated using pymatgen
data_Y4Ni13C4
_symmetry_space_group_name_H-M   'P 1'
_cell_length_a   8.41761994
_cell_length_b   8.41762064
_cell_length_c   3.86097100
_cell_angle_alpha   90.00000000
_cell_angle_beta   90.00000000
_cell_angle_gamma   91.52870605
_symmetry_Int_Tables_number   1
_chemical_formula_structural   Y4Ni13C4
_chemical_formula_sum   'Y4 Ni13 C4'
_cell_volume   273.47687129
_cell_formula_units_Z   1
loop_
 _symmetry_equiv_pos_site_id
 _symmetry_equiv_pos_as_xyz
  1  'x, y, z'
loop_
 _atom_site_type_symbol
 _atom_site_label
 _atom_site_symmetry_multiplicity
 _atom_site_fract_x
 _atom_site_fract_y
 _atom_site_fract_z
 _atom_site_occupancy
  Y  Y0  1  0.81213000  0.18787000  0.50000000  1
  Y  Y1  1  0.18787000  0.81213000  0.50000000  1
  Y  Y2  1  0.65090400  0.65090400  0.50000000  1
  Y  Y3  1  0.34909600  0.34909600  0.50000000  1
  Ni  Ni0  1  0.50000000  0.00000000  0.50000000  1
  Ni  Ni1  1  0.00000000  0.50000000  0.50000000  1
  Ni  Ni2  1  0.00000000  0.00000000  0.00000000  1
  Ni  Ni3  1  0.43101500  0.78408400  0.00000000  1
  Ni  Ni4  1  0.56898500  0.21591600  0.00000000  1
  Ni  Ni5  1  0.21591600  0.56898500  0.00000000  1
  Ni  Ni6  1  0.78408400  0.43101500  0.00000000  1
  Ni  Ni7  1  0.70928000  0.92568200  0.00000000  1
  Ni  Ni8  1  0.29072000  0.07431800  0.00000000  1
  Ni  Ni9  1  0.07431800  0.29072000  0.00000000  1
  Ni  Ni10  1  0.92568200  0.70928000  0.00000000  1
  Ni  Ni11  1  0.87593100  0.87593100  0.50000000  1
  Ni  Ni12  1  0.12406900  0.12406900  0.50000000  1
  C  C0  1  0.44346200  0.55653800  0.00000000  1
  C  C1  1  0.55653800  0.44346200  0.00000000  1
  C  C2  1  0.50000000  0.00000000  0.00000000  1
  C  C3  1  0.00000000  0.50000000  0.00000000  1
loop_
_geom_bond_atom_site_label_1
_geom_bond_atom_site_label_2
_geom_bond_distance
_geom_bond_site_symmetry_2
Ni0 Ni8 2.698203 1_556
Ni0 Ni8 2.698203 1_555
Ni0 Ni7 2.698203 1_546
Ni0 Ni7 2.698203 1_545
Ni0 Ni4 2.703880 1_556
Ni0 Ni3 2.703880 1_545
Ni0 Ni4 2.703880 1_555
Ni0 Ni3 2.703880 1_546
Ni0 Y0 3.030244 1_555
Ni0 Y1 3.030244 1_545
Ni0 Y3 3.232309 1_555
Ni0 Y2 3.232309 1_545
Ni1 Ni10 2.698203 1_455
Ni1 Ni10 2.698203 1_456
Ni1 Ni9 2.698203 1_555
Ni1 Ni9 2.698203 1_556
Ni1 Ni5 2.703880 1_556
Ni1 Ni6 2.703880 1_455
Ni1 Ni6 2.703880 1_456
Ni1 Ni5 2.703880 1_555
Ni1 Y0 3.030244 1_455
Ni1 Y1 3.030244 1_555
Ni1 Y3 3.232309 1_555
Ni1 Y2 3.232309 1_455
Ni2 Ni7 2.509644 1_445
Ni2 Ni8 2.509644 1_555
Ni2 Ni9 2.509644 1_555
Ni2 Y0 2.976907 1_455
Ni2 Y0 2.976907 1_454
Ni2 Y1 2.976907 1_544
Ni2 Y1 2.976907 1_545
Ni3 Ni5 2.526219 1_555
Ni3 Ni7 2.599656 1_555
Ni3 Y1 2.827946 1_555
Ni3 Y1 2.827946 1_554
Ni3 Y2 2.918946 1_554
Ni3 Y2 2.918946 1_555
Ni4 Ni6 2.526219 1_555
Ni4 Ni8 2.599656 1_555
Ni4 Y0 2.827946 1_554
Ni4 Y0 2.827946 1_555
Ni4 Y3 2.918946 1_555
Ni4 Y3 2.918946 1_554
Ni5 Ni9 2.599656 1_555
Ni5 Y1 2.827946 1_555
Ni5 Y1 2.827946 1_554
Ni5 Y3 2.918946 1_554
Ni5 Y3 2.918946 1_555
Ni6 Y0 2.827946 1_554
Ni6 Y0 2.827946 1_555
Ni6 Y2 2.918946 1_555
Ni6 Y2 2.918946 1_554
Ni7 Y0 3.040592 1_564
Ni7 Y0 3.040592 1_565
Ni7 Y2 3.042607 1_554
Ni7 Y2 3.042607 1_555
Ni8 Ni9 2.610253 1_555
Ni8 Y1 3.040592 1_544
Ni8 Y1 3.040592 1_545
Ni8 Y3 3.042607 1_554
Ni8 Y3 3.042607 1_555
Ni9 Y0 3.040592 1_455
Ni9 Y0 3.040592 1_454
Ni9 Y3 3.042607 1_554
Ni9 Y3 3.042607 1_555
Ni10 Ni11 2.429272 1_554
Ni10 Ni11 2.429272 1_555
Ni10 Ni2 2.509644 1_665
Ni10 Ni6 2.599656 1_555
Ni10 Ni7 2.610253 1_555
Ni10 Y1 3.040592 1_655
Ni10 Y1 3.040592 1_654
Ni10 Y2 3.042607 1_554
Ni10 Y2 3.042607 1_555
Ni11 Ni2 2.418673 1_666
Ni11 Ni2 2.418673 1_665
Ni11 Ni7 2.429272 1_555
Ni11 Ni7 2.429272 1_556
Ni11 Y2 2.642818 1_555
Ni11 Y1 2.694143 1_655
Ni11 Y0 2.694143 1_565
Ni11 Ni12 2.914244 1_665
Ni12 Ni2 2.418673 1_556
Ni12 Ni2 2.418673 1_555
Ni12 Ni8 2.429272 1_556
Ni12 Ni8 2.429272 1_555
Ni12 Ni9 2.429272 1_556
Ni12 Ni9 2.429272 1_555
Ni12 Y3 2.642818 1_555
Ni12 Y0 2.694143 1_455
Ni12 Y1 2.694143 1_545
C0 C1 1.363929 1_555
C0 Ni5 1.921048 1_555
C0 Ni3 1.921048 1_555
C0 Y2 2.707922 1_554
C0 Y2 2.707922 1_555
C0 Y3 2.707922 1_554
C0 Y3 2.707922 1_555
C1 Ni6 1.921048 1_555
C1 Ni4 1.921048 1_555
C1 Y3 2.707922 1_555
C1 Y3 2.707922 1_554
C1 Y2 2.707922 1_554
C1 Y2 2.707922 1_555
C2 Ni8 1.885080 1_555
C2 Ni7 1.885080 1_545
C2 Ni3 1.893196 1_545
C2 Ni4 1.893196 1_555
C2 Ni0 1.930486 1_554
C2 Ni0 1.930486 1_555
C3 Ni9 1.885080 1_555
C3 Ni10 1.885080 1_455
C3 Ni6 1.893196 1_455
C3 Ni5 1.893196 1_555
C3 Ni1 1.930486 1_554
C3 Ni1 1.930486 1_555
