# generated using pymatgen
data_TeO3
_symmetry_space_group_name_H-M   'P 1'
_cell_length_a   4.81268300
_cell_length_b   8.31630700
_cell_length_c   12.11751600
_cell_angle_alpha   90.00000000
_cell_angle_beta   90.00000000
_cell_angle_gamma   90.00000000
_symmetry_Int_Tables_number   1
_chemical_formula_structural   TeO3
_chemical_formula_sum   'Te8 O24'
_cell_volume   484.98842279
_cell_formula_units_Z   8
loop_
 _symmetry_equiv_pos_site_id
 _symmetry_equiv_pos_as_xyz
  1  'x, y, z'
loop_
 _atom_site_type_symbol
 _atom_site_label
 _atom_site_symmetry_multiplicity
 _atom_site_fract_x
 _atom_site_fract_y
 _atom_site_fract_z
 _atom_site_occupancy
  Te  Te0  1  0.00105200  0.46709800  0.60938200  1
  Te  Te1  1  0.50105200  0.53290200  0.39061800  1
  Te  Te2  1  0.50105200  0.96709800  0.89061800  1
  Te  Te3  1  0.00105200  0.03290200  0.10938200  1
  Te  Te4  1  0.84610700  0.35856700  0.93708800  1
  Te  Te5  1  0.34610700  0.64143300  0.06291200  1
  Te  Te6  1  0.34610700  0.85856700  0.56291200  1
  Te  Te7  1  0.84610700  0.14143300  0.43708800  1
  O  O0  1  0.78290600  0.47968300  0.74198200  1
  O  O1  1  0.28290600  0.52031700  0.25801800  1
  O  O2  1  0.28290600  0.97968300  0.75801800  1
  O  O3  1  0.78290600  0.02031700  0.24198200  1
  O  O4  1  0.48901100  0.44883400  0.95949400  1
  O  O5  1  0.98901100  0.55116600  0.04050600  1
  O  O6  1  0.98901100  0.94883400  0.54050600  1
  O  O7  1  0.48901100  0.05116600  0.45949400  1
  O  O8  1  0.69211800  0.33506800  0.35570200  1
  O  O9  1  0.19211800  0.66493200  0.64429800  1
  O  O10  1  0.19211800  0.83506800  0.14429800  1
  O  O11  1  0.69211800  0.16493200  0.85570200  1
  O  O12  1  0.23863500  0.40771000  0.48157000  1
  O  O13  1  0.73863500  0.59229000  0.51843000  1
  O  O14  1  0.73863500  0.90771000  0.01843000  1
  O  O15  1  0.23863500  0.09229000  0.98157000  1
  O  O16  1  0.81290200  0.26335100  0.57519300  1
  O  O17  1  0.31290200  0.73664900  0.42480700  1
  O  O18  1  0.31290200  0.76335100  0.92480700  1
  O  O19  1  0.81290200  0.23664900  0.07519300  1
  O  O20  1  0.22126900  0.35658500  0.71855500  1
  O  O21  1  0.72126900  0.64341500  0.28144500  1
  O  O22  1  0.72126900  0.85658500  0.78144500  1
  O  O23  1  0.22126900  0.14341500  0.21855500  1
loop_
_geom_bond_atom_site_label_1
_geom_bond_atom_site_label_2
_geom_bond_distance
_geom_bond_site_symmetry_2
O0 Te0 1.922219 1_655
O0 O20 2.362082 1_655
O0 Te4 2.587757 1_555
O0 O16 2.709660 1_555
O1 Te1 1.922219 1_555
O1 O21 2.362082 1_555
O1 Te5 2.587757 1_555
O1 O17 2.709660 1_555
O2 Te2 1.922219 1_555
O2 O22 2.362082 1_555
O2 Te6 2.587757 1_555
O3 Te3 1.922219 1_655
O3 Te7 2.587757 1_555
O4 Te4 1.894940 1_555
O4 Te5 2.146839 1_556
O5 Te5 1.894940 1_655
O5 Te4 2.146839 1_554
O6 Te6 1.894940 1_655
O6 Te7 2.146839 1_565
O7 Te7 1.894940 1_555
O7 Te6 2.146839 1_545
O8 Te1 1.931685 1_555
O8 Te7 2.028539 1_555
O9 Te0 1.931685 1_555
O9 Te6 2.028539 1_555
O10 Te3 1.931685 1_565
O10 Te5 2.028539 1_555
O10 O14 2.730272 1_455
O11 Te2 1.931685 1_545
O11 Te4 2.028539 1_555
O11 O15 2.730272 1_555
O12 Te1 1.973222 1_555
O12 Te0 1.987457 1_555
O12 O16 2.631803 1_455
O12 O8 2.730272 1_555
O13 Te0 1.973222 1_655
O13 Te1 1.987457 1_555
O13 O17 2.631803 1_555
O13 O9 2.730272 1_655
O14 Te3 1.973222 1_665
O14 Te2 1.987457 1_554
O14 O18 2.631803 1_554
O15 Te2 1.973222 1_545
O15 Te3 1.987457 1_556
O15 O19 2.631803 1_456
O16 Te7 1.963190 1_555
O16 Te0 1.965361 1_655
O16 O20 2.735249 1_655
O16 O7 2.740286 1_555
O17 Te6 1.963190 1_555
O17 Te1 1.965361 1_555
O17 O21 2.735249 1_555
O17 O6 2.740286 1_455
O18 Te5 1.963190 1_556
O18 Te2 1.965361 1_555
O18 O2 2.709660 1_555
O18 O22 2.735249 1_555
O18 O5 2.740286 1_456
O19 Te4 1.963190 1_554
O19 Te3 1.965361 1_655
O19 O3 2.709660 1_555
O19 O23 2.735249 1_655
O19 O4 2.740286 1_554
O20 Te0 1.928212 1_555
O21 Te1 1.928212 1_555
O22 Te2 1.928212 1_555
O23 Te3 1.928212 1_555
O23 O3 2.362082 1_455
