# generated using pymatgen
data_Li9Mn2Co5O16
_symmetry_space_group_name_H-M   'P 1'
_cell_length_a   5.94663700
_cell_length_b   6.55012834
_cell_length_c   7.74060686
_cell_angle_alpha   89.34045146
_cell_angle_beta   100.57185924
_cell_angle_gamma   104.03551791
_symmetry_Int_Tables_number   1
_chemical_formula_structural   Li9Mn2Co5O16
_chemical_formula_sum   'Li9 Mn2 Co5 O16'
_cell_volume   287.36777115
_cell_formula_units_Z   1
loop_
 _symmetry_equiv_pos_site_id
 _symmetry_equiv_pos_as_xyz
  1  'x, y, z'
loop_
 _atom_site_type_symbol
 _atom_site_label
 _atom_site_symmetry_multiplicity
 _atom_site_fract_x
 _atom_site_fract_y
 _atom_site_fract_z
 _atom_site_occupancy
  Li  Li0  1  0.49645600  0.99871500  0.99640900  1
  Li  Li1  1  0.25747700  0.74578400  0.25556200  1
  Li  Li2  1  0.87770200  0.37804500  0.12352400  1
  Li  Li3  1  0.62816000  0.13309300  0.38239400  1
  Li  Li4  1  0.00037100  0.49927000  0.49930600  1
  Li  Li5  1  0.37100300  0.86567600  0.61467200  1
  Li  Li6  1  0.12432300  0.62490800  0.87658400  1
  Li  Li7  1  0.74809300  0.25722000  0.75121900  1
  Li  Li8  1  0.49998200  0.50035300  0.49933300  1
  Mn  Mn0  1  0.00032500  0.00143000  0.99991900  1
  Mn  Mn1  1  0.12903300  0.12299300  0.37638300  1
  Co  Co0  1  0.74114700  0.73570500  0.25618600  1
  Co  Co1  1  0.25478100  0.26001700  0.74397200  1
  Co  Co2  1  0.86036200  0.86439400  0.62173900  1
  Co  Co3  1  0.62273400  0.62383700  0.87191400  1
  Co  Co4  1  0.37774700  0.38117300  0.12717700  1
  O  O0  1  0.17168600  0.95611500  0.82077200  1
  O  O1  1  0.93203100  0.70688700  0.05607400  1
  O  O2  1  0.54821800  0.31842300  0.94129000  1
  O  O3  1  0.28563400  0.06327300  0.18618200  1
  O  O4  1  0.69044900  0.44878900  0.30175700  1
  O  O5  1  0.05508700  0.82634300  0.43637800  1
  O  O6  1  0.81030000  0.57884500  0.69749800  1
  O  O7  1  0.40956100  0.17913300  0.55289100  1
  O  O8  1  0.84003500  0.05125000  0.18950800  1
  O  O9  1  0.58199200  0.82006300  0.43802900  1
  O  O10  1  0.19449600  0.41237600  0.30470800  1
  O  O11  1  0.95391800  0.17780600  0.55130900  1
  O  O12  1  0.31503700  0.55145500  0.69986700  1
  O  O13  1  0.70920900  0.93986300  0.82369100  1
  O  O14  1  0.44712300  0.68315900  0.06232300  1
  O  O15  1  0.06552900  0.29360600  0.94143100  1
loop_
_geom_bond_atom_site_label_1
_geom_bond_atom_site_label_2
_geom_bond_distance
_geom_bond_site_symmetry_2
Li0 O14 2.086892 1_556
Li0 O2 2.092156 1_565
Li0 O13 2.098985 1_555
Li0 O0 2.107124 1_555
Li0 O3 2.203535 1_566
Li0 O8 2.253266 1_566
Li1 O3 2.116495 1_565
Li1 O9 2.125066 1_555
Li1 O14 2.129547 1_555
Li1 O5 2.151522 1_555
Li1 O10 2.165799 1_555
Li1 O1 2.206374 1_455
Li2 O4 2.046155 1_555
Li2 O10 2.097316 1_655
Li2 O15 2.106051 1_654
Li2 O2 2.146774 1_554
Li2 O8 2.162693 1_555
Li2 O1 2.171398 1_555
Li3 O9 2.053030 1_545
Li3 O7 2.085981 1_555
Li3 O11 2.086188 1_555
Li3 O4 2.118113 1_555
Li3 O3 2.256939 1_555
Li3 O8 2.267238 1_555
Li4 O11 2.100281 1_455
Li4 O4 2.127488 1_455
Li4 O5 2.151489 1_555
Li4 O12 2.159727 1_555
Li4 O6 2.200726 1_455
Li4 O10 2.214050 1_555
Li5 O7 2.070294 1_565
Li5 O5 2.079038 1_555
Li5 O9 2.086570 1_555
Li5 O12 2.121043 1_555
Li5 O13 2.291022 1_555
Li5 O0 2.314531 1_555
Li6 O12 2.058612 1_555
Li6 O6 2.070331 1_455
Li6 O1 2.103379 1_456
Li6 O14 2.131223 1_556
Li6 O0 2.167756 1_555
Li6 O15 2.180530 1_555
Li7 O6 2.099085 1_555
Li7 O13 2.115865 1_545
Li7 O15 2.134942 1_655
Li7 O2 2.150449 1_555
Li7 O7 2.248484 1_555
Li7 O11 2.277174 1_555
Li8 O7 2.097833 1_555
Li8 O10 2.099941 1_555
Li8 O9 2.101217 1_555
Li8 O6 2.131163 1_555
Li8 O12 2.132614 1_555
Li8 O4 2.137508 1_555
Mn0 O15 1.924172 1_555
Mn0 O0 1.929808 1_545
Mn0 O1 1.934289 1_446
Mn0 O13 1.956493 1_445
Mn0 O8 1.960585 1_456
Mn0 O3 1.975826 1_556
Mn1 O7 1.913770 1_555
Mn1 O10 1.936334 1_555
Mn1 O11 1.938205 1_455
Mn1 O5 1.955598 1_545
Mn1 O3 1.969991 1_555
Mn1 O8 1.994612 1_455
Co0 O4 1.869804 1_555
Co0 O9 1.985629 1_555
Co0 O14 2.045641 1_555
Co0 O5 2.075855 1_655
Co0 O8 2.093174 1_565
Co0 O1 2.116442 1_555
Co1 O12 1.893981 1_555
Co1 O7 2.017339 1_555
Co1 O0 2.040464 1_545
Co1 O2 2.058101 1_555
Co1 O11 2.070538 1_455
Co1 O15 2.100036 1_555
Co2 O6 1.923427 1_555
Co2 O9 1.938893 1_555
Co2 O5 2.054149 1_655
Co2 O13 2.060313 1_555
Co2 O11 2.086296 1_565
Co2 O0 2.144098 1_655
Co3 O6 1.968458 1_555
Co3 O12 2.011460 1_555
Co3 O2 2.029618 1_555
Co3 O14 2.046618 1_556
Co3 O13 2.055491 1_555
Co3 O1 2.069156 1_556
Co4 O10 1.944655 1_555
Co4 O14 1.998048 1_555
Co4 O2 2.004470 1_554
Co4 O4 2.042643 1_555
Co4 O3 2.088355 1_555
Co4 O15 2.089564 1_554
