# generated using pymatgen
data_Te2As(SeF2)3
_symmetry_space_group_name_H-M   'P 1'
_cell_length_a   11.01415900
_cell_length_b   13.78104000
_cell_length_c   15.25456700
_cell_angle_alpha   90.00000000
_cell_angle_beta   90.00000000
_cell_angle_gamma   90.00000000
_symmetry_Int_Tables_number   1
_chemical_formula_structural   Te2As(SeF2)3
_chemical_formula_sum   'Te16 As8 Se24 F48'
_cell_volume   2315.43833686
_cell_formula_units_Z   8
loop_
 _symmetry_equiv_pos_site_id
 _symmetry_equiv_pos_as_xyz
  1  'x, y, z'
loop_
 _atom_site_type_symbol
 _atom_site_label
 _atom_site_symmetry_multiplicity
 _atom_site_fract_x
 _atom_site_fract_y
 _atom_site_fract_z
 _atom_site_occupancy
  Te  Te0  1  0.09996700  0.22836200  0.16838000  1
  Te  Te1  1  0.90003300  0.77163800  0.83162000  1
  Te  Te2  1  0.40003300  0.72836200  0.33162000  1
  Te  Te3  1  0.09996700  0.27163800  0.83162000  1
  Te  Te4  1  0.59996700  0.27163800  0.66838000  1
  Te  Te5  1  0.90003300  0.72836200  0.16838000  1
  Te  Te6  1  0.40003300  0.77163800  0.66838000  1
  Te  Te7  1  0.59996700  0.22836200  0.33162000  1
  Te  Te8  1  0.22919000  0.36349700  0.06668800  1
  Te  Te9  1  0.77081000  0.63650300  0.93331200  1
  Te  Te10  1  0.27081000  0.86349700  0.43331200  1
  Te  Te11  1  0.22919000  0.13650300  0.93331200  1
  Te  Te12  1  0.72919000  0.13650300  0.56668800  1
  Te  Te13  1  0.77081000  0.86349700  0.06668800  1
  Te  Te14  1  0.27081000  0.63650300  0.56668800  1
  Te  Te15  1  0.72919000  0.36349700  0.43331200  1
  As  As0  1  0.41200100  0.01860700  0.16992700  1
  As  As1  1  0.58799900  0.98139300  0.83007300  1
  As  As2  1  0.08799900  0.51860700  0.33007300  1
  As  As3  1  0.41200100  0.48139300  0.83007300  1
  As  As4  1  0.91200100  0.48139300  0.66992700  1
  As  As5  1  0.58799900  0.51860700  0.16992700  1
  As  As6  1  0.08799900  0.98139300  0.66992700  1
  As  As7  1  0.91200100  0.01860700  0.33007300  1
  Se  Se0  1  0.27340000  0.21019500  0.43058300  1
  Se  Se1  1  0.72660000  0.78980500  0.56941700  1
  Se  Se2  1  0.22660000  0.71019500  0.06941700  1
  Se  Se3  1  0.27340000  0.28980500  0.56941700  1
  Se  Se4  1  0.77340000  0.28980500  0.93058300  1
  Se  Se5  1  0.72660000  0.71019500  0.43058300  1
  Se  Se6  1  0.22660000  0.78980500  0.93058300  1
  Se  Se7  1  0.77340000  0.21019500  0.06941700  1
  Se  Se8  1  0.38570200  0.31300800  0.34206000  1
  Se  Se9  1  0.61429800  0.68699200  0.65794000  1
  Se  Se10  1  0.11429800  0.81300800  0.15794000  1
  Se  Se11  1  0.38570200  0.18699200  0.65794000  1
  Se  Se12  1  0.88570200  0.18699200  0.84206000  1
  Se  Se13  1  0.61429800  0.81300800  0.34206000  1
  Se  Se14  1  0.11429800  0.68699200  0.84206000  1
  Se  Se15  1  0.88570200  0.31300800  0.15794000  1
  Se  Se16  1  0.06352700  0.10242100  0.04004800  1
  Se  Se17  1  0.93647300  0.89757900  0.95995200  1
  Se  Se18  1  0.43647300  0.60242100  0.45995200  1
  Se  Se19  1  0.06352700  0.39757900  0.95995200  1
  Se  Se20  1  0.56352700  0.39757900  0.54004800  1
  Se  Se21  1  0.93647300  0.60242100  0.04004800  1
  Se  Se22  1  0.43647300  0.89757900  0.54004800  1
  Se  Se23  1  0.56352700  0.10242100  0.45995200  1
  F  F0  1  0.26190600  0.02043600  0.21249700  1
  F  F1  1  0.73809400  0.97956400  0.78750300  1
  F  F2  1  0.23809400  0.52043600  0.28750300  1
  F  F3  1  0.26190600  0.47956400  0.78750300  1
  F  F4  1  0.76190600  0.47956400  0.71249700  1
  F  F5  1  0.73809400  0.52043600  0.21249700  1
  F  F6  1  0.23809400  0.97956400  0.71249700  1
  F  F7  1  0.76190600  0.02043600  0.28750300  1
  F  F8  1  0.06229900  0.01579200  0.36955500  1
  F  F9  1  0.93770100  0.98420800  0.63044500  1
  F  F10  1  0.43770100  0.51579200  0.13044500  1
  F  F11  1  0.06229900  0.48420800  0.63044500  1
  F  F12  1  0.56229900  0.48420800  0.86955500  1
  F  F13  1  0.93770100  0.51579200  0.36955500  1
  F  F14  1  0.43770100  0.98420800  0.86955500  1
  F  F15  1  0.56229900  0.01579200  0.13044500  1
  F  F16  1  0.39923000  0.14365200  0.14258200  1
  F  F17  1  0.60077000  0.85634800  0.85741800  1
  F  F18  1  0.10077000  0.64365200  0.35741800  1
  F  F19  1  0.39923000  0.35634800  0.85741800  1
  F  F20  1  0.89923000  0.35634800  0.64258200  1
  F  F21  1  0.60077000  0.64365200  0.14258200  1
  F  F22  1  0.10077000  0.85634800  0.64258200  1
  F  F23  1  0.89923000  0.14365200  0.35741800  1
  F  F24  1  0.07556200  0.39321100  0.30040900  1
  F  F25  1  0.92443800  0.60678900  0.69959100  1
  F  F26  1  0.42443800  0.89321100  0.19959100  1
  F  F27  1  0.07556200  0.10678900  0.69959100  1
  F  F28  1  0.57556200  0.10678900  0.80040900  1
  F  F29  1  0.92443800  0.89321100  0.30040900  1
  F  F30  1  0.42443800  0.60678900  0.80040900  1
  F  F31  1  0.57556200  0.39321100  0.19959100  1
  F  F32  1  0.46686000  0.05138300  0.27660200  1
  F  F33  1  0.53314000  0.94861700  0.72339800  1
  F  F34  1  0.03314000  0.55138300  0.22339800  1
  F  F35  1  0.46686000  0.44861700  0.72339800  1
  F  F36  1  0.96686000  0.44861700  0.77660200  1
  F  F37  1  0.53314000  0.55138300  0.27660200  1
  F  F38  1  0.03314000  0.94861700  0.77660200  1
  F  F39  1  0.96686000  0.05138300  0.22339800  1
  F  F40  1  0.14465800  0.01458300  0.56517000  1
  F  F41  1  0.85534200  0.98541700  0.43483000  1
  F  F42  1  0.35534200  0.51458300  0.93483000  1
  F  F43  1  0.14465800  0.48541700  0.43483000  1
  F  F44  1  0.64465800  0.48541700  0.06517000  1
  F  F45  1  0.85534200  0.51458300  0.56517000  1
  F  F46  1  0.35534200  0.98541700  0.06517000  1
  F  F47  1  0.64465800  0.01458300  0.93483000  1
loop_
_geom_bond_atom_site_label_1
_geom_bond_atom_site_label_2
_geom_bond_distance
_geom_bond_site_symmetry_2
Te0 Te8 2.810752 1_555
Te1 Te9 2.810752 1_555
Te10 Te2 2.810752 1_555
Te11 Te3 2.810752 1_555
Te12 Te4 2.810752 1_555
Te13 Te5 2.810752 1_555
Te14 Te6 2.810752 1_555
Te15 Te7 2.810752 1_555
As0 F15 1.761992 1_555
As0 F46 1.775479 1_545
As0 F0 1.776319 1_555
As0 F16 1.778589 1_555
As0 F26 1.791596 1_545
As0 F32 1.793643 1_555
As1 F14 1.761992 1_555
As1 F47 1.775479 1_565
As1 F1 1.776319 1_555
As1 F17 1.778589 1_555
As1 F28 1.791596 1_565
As1 F33 1.793643 1_555
As2 F13 1.761992 1_455
As2 F43 1.775479 1_555
As2 F2 1.776319 1_555
As2 F18 1.778589 1_555
As2 F24 1.791596 1_555
As2 F34 1.793643 1_555
As3 F12 1.761992 1_555
As3 F42 1.775479 1_555
As3 F3 1.776319 1_555
As3 F19 1.778589 1_555
As3 F30 1.791596 1_555
As3 F35 1.793643 1_555
As4 F11 1.761992 1_655
As4 F45 1.775479 1_555
As4 F4 1.776319 1_555
As4 F20 1.778589 1_555
As4 F25 1.791596 1_555
As4 F36 1.793643 1_555
As5 F10 1.761992 1_555
As5 F44 1.775479 1_555
As5 F5 1.776319 1_555
As5 F21 1.778589 1_555
As5 F31 1.791596 1_555
As5 F37 1.793643 1_555
As6 F9 1.761992 1_455
As6 F40 1.775479 1_565
As6 F6 1.776319 1_555
As6 F22 1.778589 1_555
As6 F27 1.791596 1_565
As6 F38 1.793643 1_555
As7 F8 1.761992 1_655
As7 F41 1.775479 1_545
As7 F7 1.776319 1_555
As7 F23 1.778589 1_555
As7 F29 1.791596 1_545
As7 F39 1.793643 1_555
Se0 Se8 2.315383 1_555
Se0 Se3 2.385151 1_555
Se1 Se9 2.315383 1_555
Se1 Se5 2.385151 1_555
Se2 Se6 2.385151 1_554
Se4 Se7 2.385151 1_556
Se8 Te7 2.637322 1_555
Se9 Te6 2.637322 1_555
Se10 Se2 2.315383 1_555
Se10 Te5 2.637322 1_455
Se11 Se3 2.315383 1_555
Se11 Te4 2.637322 1_555
Se12 Se4 2.315383 1_555
Se12 Te3 2.637322 1_655
Se13 Se5 2.315383 1_555
Se13 Te2 2.637322 1_555
Se14 Se6 2.315383 1_555
Se14 Te1 2.637322 1_455
Se15 Se7 2.315383 1_555
Se15 Te0 2.637322 1_655
Se16 Te11 2.490177 1_554
Se16 Te0 2.646843 1_555
Se16 Se17 3.379369 1_444
Se17 Te13 2.490177 1_556
Se17 Te1 2.646843 1_555
Se18 Te14 2.490177 1_555
Se18 Te2 2.646843 1_555
Se18 Se20 3.379369 1_555
Se19 Te8 2.490177 1_556
Se19 Te3 2.646843 1_555
Se19 Se21 3.379369 1_456
Se20 Te15 2.490177 1_555
Se20 Te4 2.646843 1_555
Se21 Te9 2.490177 1_554
Se21 Te5 2.646843 1_555
Se22 Te10 2.490177 1_555
Se22 Te6 2.646843 1_555
Se22 Se23 3.379369 1_565
Se23 Te12 2.490177 1_555
Se23 Te7 2.646843 1_555
F0 F32 2.496798 1_555
F0 F26 2.513453 1_545
F0 Te0 3.441648 1_555
F1 F33 2.496798 1_555
F1 F28 2.513453 1_565
F1 Te1 3.441648 1_555
F2 F34 2.496798 1_555
F2 F24 2.513453 1_555
F2 Te2 3.441648 1_555
F3 F35 2.496798 1_555
F3 F30 2.513453 1_555
F3 Te3 3.441648 1_555
F4 Te4 3.441648 1_555
F5 Te5 3.441648 1_555
F6 Te6 3.441648 1_555
F7 Te7 3.441648 1_555
F8 Te10 3.259611 1_545
F9 Te12 3.259611 1_565
F10 F31 2.504378 1_555
F10 F37 2.513264 1_555
F10 Te8 3.259611 1_555
F11 F25 2.504378 1_455
F11 F36 2.513264 1_455
F11 Te14 3.259611 1_555
F12 F30 2.504378 1_555
F12 F35 2.513264 1_555
F12 Te9 3.259611 1_555
F13 F24 2.504378 1_655
F13 F34 2.513264 1_655
F13 Te15 3.259611 1_555
F14 F28 2.504378 1_565
F14 F33 2.513264 1_555
F14 Te11 3.259611 1_565
F15 F26 2.504378 1_545
F15 F32 2.513264 1_555
F15 Te13 3.259611 1_545
F16 F32 2.520193 1_555
F16 Te0 3.518828 1_555
F17 F33 2.520193 1_555
F17 Te1 3.518828 1_555
F18 F34 2.520193 1_555
F18 Te2 3.518828 1_555
F19 F35 2.520193 1_555
F19 Te3 3.518828 1_555
F20 F36 2.520193 1_555
F20 Te4 3.518828 1_555
F21 F37 2.520193 1_555
F21 Te5 3.518828 1_555
F22 F38 2.520193 1_555
F22 Te6 3.518828 1_555
F23 F39 2.520193 1_555
F23 Te7 3.518828 1_555
F24 F34 2.519884 1_555
F24 Te0 3.047895 1_555
F24 Se15 3.212132 1_455
F25 F4 2.513453 1_555
F25 F36 2.519884 1_555
F25 Te1 3.047895 1_555
F25 Se14 3.212132 1_655
F26 F32 2.519884 1_565
F26 Te2 3.047895 1_555
F26 Se13 3.212132 1_555
F27 F9 2.504378 1_445
F27 F6 2.513453 1_545
F27 F38 2.519884 1_545
F27 Te3 3.047895 1_555
F27 Se12 3.212132 1_455
F28 F33 2.519884 1_545
F28 Te4 3.047895 1_555
F28 Se11 3.212132 1_555
F29 F8 2.504378 1_665
F29 F7 2.513453 1_565
F29 F39 2.519884 1_565
F29 Te5 3.047895 1_555
F29 Se10 3.212132 1_655
F30 F35 2.519884 1_555
F30 Te6 3.047895 1_555
F30 Se9 3.212132 1_555
F31 F5 2.513453 1_555
F31 F37 2.519884 1_555
F31 Te7 3.047895 1_555
F31 Se8 3.212132 1_555
F32 Te7 2.966854 1_555
F32 Se23 3.074264 1_555
F33 Te6 2.966854 1_555
F33 Se22 3.074264 1_555
F34 Te5 2.966854 1_455
F34 Se21 3.074264 1_455
F35 Te4 2.966854 1_555
F35 Se20 3.074264 1_555
F36 F4 2.496798 1_555
F36 Te3 2.966854 1_655
F36 Se19 3.074264 1_655
F37 F5 2.496798 1_555
F37 Te2 2.966854 1_555
F37 Se18 3.074264 1_555
F38 F6 2.496798 1_555
F38 F9 2.513264 1_455
F38 Te1 2.966854 1_455
F38 Se17 3.074264 1_455
F39 F7 2.496798 1_555
F39 F8 2.513264 1_655
F39 Te0 2.966854 1_655
F39 Se16 3.074264 1_655
F40 Te10 3.211184 1_545
F41 Te12 3.211184 1_565
F42 Te8 3.211184 1_556
F43 Te14 3.211184 1_555
F44 Te9 3.211184 1_554
F45 Te15 3.211184 1_555
F46 Te11 3.211184 1_564
F47 Te13 3.211184 1_546
