# generated using pymatgen
data_Tb2CdCu2
_symmetry_space_group_name_H-M   'P 1'
_cell_length_a   14.93710210
_cell_length_b   14.93710210
_cell_length_c   7.49773420
_cell_angle_alpha   90.00000000
_cell_angle_beta   90.00000000
_cell_angle_gamma   90.00000000
_symmetry_Int_Tables_number   1
_chemical_formula_structural   Tb2CdCu2
_chemical_formula_sum   'Tb32 Cd16 Cu32'
_cell_volume   1672.87210505
_cell_formula_units_Z   16
loop_
 _symmetry_equiv_pos_site_id
 _symmetry_equiv_pos_as_xyz
  1  'x, y, z'
loop_
 _atom_site_type_symbol
 _atom_site_label
 _atom_site_symmetry_multiplicity
 _atom_site_fract_x
 _atom_site_fract_y
 _atom_site_fract_z
 _atom_site_occupancy
  Tb  Tb0_0  1  0.33757582  0.08757582  0.25000000  1
  Tb  Tb0_1  1  0.33757582  0.08757582  0.75000000  1
  Tb  Tb0_2  1  0.33757582  0.58757582  0.25000000  1
  Tb  Tb0_3  1  0.33757582  0.58757582  0.75000000  1
  Tb  Tb0_4  1  0.83757582  0.08757582  0.25000000  1
  Tb  Tb0_5  1  0.83757582  0.08757582  0.75000000  1
  Tb  Tb0_6  1  0.83757582  0.58757582  0.25000000  1
  Tb  Tb0_7  1  0.83757582  0.58757582  0.75000000  1
  Tb  Tb1_0  1  0.16242418  0.41242418  0.25000000  1
  Tb  Tb1_1  1  0.16242418  0.41242418  0.75000000  1
  Tb  Tb1_2  1  0.16242418  0.91242418  0.25000000  1
  Tb  Tb1_3  1  0.16242418  0.91242418  0.75000000  1
  Tb  Tb1_4  1  0.66242419  0.41242418  0.25000000  1
  Tb  Tb1_5  1  0.66242419  0.41242418  0.75000000  1
  Tb  Tb1_6  1  0.66242419  0.91242418  0.25000000  1
  Tb  Tb1_7  1  0.66242419  0.91242418  0.75000000  1
  Tb  Tb2_0  1  0.08757582  0.16242418  0.25000000  1
  Tb  Tb2_1  1  0.08757582  0.16242418  0.75000000  1
  Tb  Tb2_2  1  0.08757582  0.66242419  0.25000000  1
  Tb  Tb2_3  1  0.08757582  0.66242419  0.75000000  1
  Tb  Tb2_4  1  0.58757582  0.16242418  0.25000000  1
  Tb  Tb2_5  1  0.58757582  0.16242418  0.75000000  1
  Tb  Tb2_6  1  0.58757582  0.66242419  0.25000000  1
  Tb  Tb2_7  1  0.58757582  0.66242419  0.75000000  1
  Tb  Tb3_0  1  0.41242418  0.33757582  0.25000000  1
  Tb  Tb3_1  1  0.41242418  0.33757582  0.75000000  1
  Tb  Tb3_2  1  0.41242418  0.83757582  0.25000000  1
  Tb  Tb3_3  1  0.41242418  0.83757582  0.75000000  1
  Tb  Tb3_4  1  0.91242418  0.33757582  0.25000000  1
  Tb  Tb3_5  1  0.91242418  0.33757582  0.75000000  1
  Tb  Tb3_6  1  0.91242418  0.83757582  0.25000000  1
  Tb  Tb3_7  1  0.91242418  0.83757582  0.75000000  1
  Cd  Cd0_0  1  0.00000000  0.00000000  0.00000000  1
  Cd  Cd0_1  1  0.00000000  0.00000000  0.50000000  1
  Cd  Cd0_2  1  0.00000000  0.50000000  0.00000000  1
  Cd  Cd0_3  1  0.00000000  0.50000000  0.50000000  1
  Cd  Cd0_4  1  0.50000000  0.00000000  0.00000000  1
  Cd  Cd0_5  1  0.50000000  0.00000000  0.50000000  1
  Cd  Cd0_6  1  0.50000000  0.50000000  0.00000000  1
  Cd  Cd0_7  1  0.50000000  0.50000000  0.50000000  1
  Cd  Cd1_0  1  0.25000000  0.25000000  0.00000000  1
  Cd  Cd1_1  1  0.25000000  0.25000000  0.50000000  1
  Cd  Cd1_2  1  0.25000000  0.75000000  0.00000000  1
  Cd  Cd1_3  1  0.25000000  0.75000000  0.50000000  1
  Cd  Cd1_4  1  0.75000000  0.25000000  0.00000000  1
  Cd  Cd1_5  1  0.75000000  0.25000000  0.50000000  1
  Cd  Cd1_6  1  0.75000000  0.75000000  0.00000000  1
  Cd  Cd1_7  1  0.75000000  0.75000000  0.50000000  1
  Cu  Cu0_0  1  0.05994782  0.30994782  0.00000000  1
  Cu  Cu0_1  1  0.05994782  0.30994782  0.50000000  1
  Cu  Cu0_2  1  0.05994782  0.80994782  0.00000000  1
  Cu  Cu0_3  1  0.05994782  0.80994782  0.50000000  1
  Cu  Cu0_4  1  0.55994781  0.30994782  0.00000000  1
  Cu  Cu0_5  1  0.55994781  0.30994782  0.50000000  1
  Cu  Cu0_6  1  0.55994781  0.80994782  0.00000000  1
  Cu  Cu0_7  1  0.55994781  0.80994782  0.50000000  1
  Cu  Cu1_0  1  0.44005219  0.19005219  0.00000000  1
  Cu  Cu1_1  1  0.44005219  0.19005219  0.50000000  1
  Cu  Cu1_2  1  0.44005219  0.69005218  0.00000000  1
  Cu  Cu1_3  1  0.44005219  0.69005218  0.50000000  1
  Cu  Cu1_4  1  0.94005218  0.19005219  0.00000000  1
  Cu  Cu1_5  1  0.94005218  0.19005219  0.50000000  1
  Cu  Cu1_6  1  0.94005218  0.69005218  0.00000000  1
  Cu  Cu1_7  1  0.94005218  0.69005218  0.50000000  1
  Cu  Cu2_0  1  0.30994782  0.44005219  0.00000000  1
  Cu  Cu2_1  1  0.30994782  0.44005219  0.50000000  1
  Cu  Cu2_2  1  0.30994782  0.94005218  0.00000000  1
  Cu  Cu2_3  1  0.30994782  0.94005218  0.50000000  1
  Cu  Cu2_4  1  0.80994782  0.44005219  0.00000000  1
  Cu  Cu2_5  1  0.80994782  0.44005219  0.50000000  1
  Cu  Cu2_6  1  0.80994782  0.94005218  0.00000000  1
  Cu  Cu2_7  1  0.80994782  0.94005218  0.50000000  1
  Cu  Cu3_0  1  0.19005219  0.05994782  0.00000000  1
  Cu  Cu3_1  1  0.19005219  0.05994782  0.50000000  1
  Cu  Cu3_2  1  0.19005219  0.55994781  0.00000000  1
  Cu  Cu3_3  1  0.19005219  0.55994781  0.50000000  1
  Cu  Cu3_4  1  0.69005218  0.05994782  0.00000000  1
  Cu  Cu3_5  1  0.69005218  0.05994782  0.50000000  1
  Cu  Cu3_6  1  0.69005218  0.55994781  0.00000000  1
  Cu  Cu3_7  1  0.69005218  0.55994781  0.50000000  1
loop_
_geom_bond_atom_site_label_1
_geom_bond_atom_site_label_2
_geom_bond_distance
_geom_bond_site_symmetry_2
Cd0_0 Cu0_2 2.976705 1_545
Cd0_0 Cu2_6 2.976705 1_445
Cd0_0 Cu1_4 2.976705 1_455
Cd0_0 Cu3_0 2.976705 1_555
Cd0_0 Tb0_5 3.333300 1_454
Cd0_0 Tb0_4 3.333300 1_455
Cd0_0 Tb3_7 3.333300 1_444
Cd0_0 Tb3_6 3.333300 1_445
Cd0_0 Tb1_3 3.333300 1_544
Cd0_0 Tb2_0 3.333300 1_555
Cd0_0 Tb1_2 3.333300 1_545
Cd0_0 Tb2_1 3.333300 1_554
Cd0_0 Cd0_1 3.748867 1_555
Cd0_0 Cd0_1 3.748867 1_554
Cd0_1 Cu3_1 2.976705 1_555
Cd0_1 Cu1_5 2.976705 1_455
Cd0_1 Cu0_3 2.976705 1_545
Cd0_1 Cu2_7 2.976705 1_445
Cd0_1 Tb3_7 3.333300 1_445
Cd0_1 Tb0_5 3.333300 1_455
Cd0_1 Tb0_4 3.333300 1_455
Cd0_1 Tb3_6 3.333300 1_445
Cd0_1 Tb2_1 3.333300 1_555
Cd0_1 Tb2_0 3.333300 1_555
Cd0_1 Tb1_3 3.333300 1_545
Cd0_1 Tb1_2 3.333300 1_545
Cd0_2 Cu3_2 2.976705 1_555
Cd0_2 Cu2_4 2.976705 1_455
Cd0_2 Cu1_6 2.976705 1_455
Cd0_2 Cu0_0 2.976705 1_555
Cd0_2 Tb0_7 3.333300 1_454
Cd0_2 Tb0_6 3.333300 1_455
Cd0_2 Tb1_1 3.333300 1_554
Cd0_2 Tb3_5 3.333300 1_454
Cd0_2 Tb1_0 3.333300 1_555
Cd0_2 Tb3_4 3.333300 1_455
Cd0_2 Tb2_2 3.333300 1_555
Cd0_2 Tb2_3 3.333300 1_554
Cd0_2 Cd0_3 3.748867 1_555
Cd0_2 Cd0_3 3.748867 1_554
Cd0_3 Cu3_3 2.976705 1_555
Cd0_3 Cu2_5 2.976705 1_455
Cd0_3 Cu0_1 2.976705 1_555
Cd0_3 Cu1_7 2.976705 1_455
Cd0_3 Tb0_6 3.333300 1_455
Cd0_3 Tb0_7 3.333300 1_455
Cd0_3 Tb1_1 3.333300 1_555
Cd0_3 Tb3_4 3.333300 1_455
Cd0_3 Tb3_5 3.333300 1_455
Cd0_3 Tb1_0 3.333300 1_555
Cd0_3 Tb2_2 3.333300 1_555
Cd0_3 Tb2_3 3.333300 1_555
Cd0_4 Cu0_6 2.976705 1_545
Cd0_4 Cu1_0 2.976705 1_555
Cd0_4 Cu2_2 2.976705 1_545
Cd0_4 Cu3_4 2.976705 1_555
Cd0_4 Tb3_2 3.333300 1_545
Cd0_4 Tb3_3 3.333300 1_544
Cd0_4 Tb0_0 3.333300 1_555
Cd0_4 Tb2_5 3.333300 1_554
Cd0_4 Tb0_1 3.333300 1_554
Cd0_4 Tb2_4 3.333300 1_555
Cd0_4 Tb1_7 3.333300 1_544
Cd0_4 Tb1_6 3.333300 1_545
Cd0_4 Cd0_5 3.748867 1_555
Cd0_4 Cd0_5 3.748867 1_554
Cd0_5 Cu0_7 2.976705 1_545
Cd0_5 Cu1_1 2.976705 1_555
Cd0_5 Cu2_3 2.976705 1_545
Cd0_5 Cu3_5 2.976705 1_555
Cd0_5 Tb3_2 3.333300 1_545
Cd0_5 Tb3_3 3.333300 1_545
Cd0_5 Tb0_0 3.333300 1_555
Cd0_5 Tb2_4 3.333300 1_555
Cd0_5 Tb0_1 3.333300 1_555
Cd0_5 Tb2_5 3.333300 1_555
Cd0_5 Tb1_7 3.333300 1_545
Cd0_5 Tb1_6 3.333300 1_545
Cd0_6 Cu3_6 2.976705 1_555
Cd0_6 Cu0_4 2.976705 1_555
Cd0_6 Cu1_2 2.976705 1_555
Cd0_6 Cu2_0 2.976705 1_555
Cd0_6 Tb3_1 3.333300 1_554
Cd0_6 Tb3_0 3.333300 1_555
Cd0_6 Tb0_2 3.333300 1_555
Cd0_6 Tb0_3 3.333300 1_554
Cd0_6 Tb2_6 3.333300 1_555
Cd0_6 Tb1_4 3.333300 1_555
Cd0_6 Tb2_7 3.333300 1_554
Cd0_6 Tb1_5 3.333300 1_554
Cd0_6 Cd0_7 3.748867 1_554
Cd0_6 Cd0_7 3.748867 1_555
Cd0_7 Cu0_5 2.976705 1_555
Cd0_7 Cu3_7 2.976705 1_555
Cd0_7 Cu1_3 2.976705 1_555
Cd0_7 Cu2_1 2.976705 1_555
Cd0_7 Tb0_3 3.333300 1_555
Cd0_7 Tb3_0 3.333300 1_555
Cd0_7 Tb0_2 3.333300 1_555
Cd0_7 Tb3_1 3.333300 1_555
Cd0_7 Tb1_4 3.333300 1_555
Cd0_7 Tb2_6 3.333300 1_555
Cd0_7 Tb1_5 3.333300 1_555
Cd0_7 Tb2_7 3.333300 1_555
Cd1_0 Cu1_0 2.976705 1_555
Cd1_0 Cu2_0 2.976705 1_555
Cd1_0 Cu0_0 2.976705 1_555
Cd1_0 Cu3_0 2.976705 1_555
Cd1_0 Tb0_0 3.333300 1_555
Cd1_0 Tb3_1 3.333300 1_554
Cd1_0 Tb1_1 3.333300 1_554
Cd1_0 Tb0_1 3.333300 1_554
Cd1_0 Tb2_0 3.333300 1_555
Cd1_0 Tb1_0 3.333300 1_555
Cd1_0 Tb3_0 3.333300 1_555
Cd1_0 Tb2_1 3.333300 1_554
Cd1_0 Cd1_1 3.748867 1_554
Cd1_0 Cd1_1 3.748867 1_555
Cd1_1 Cu1_1 2.976705 1_555
Cd1_1 Cu3_1 2.976705 1_555
Cd1_1 Cu2_1 2.976705 1_555
Cd1_1 Cu0_1 2.976705 1_555
Cd1_1 Tb0_0 3.333300 1_555
Cd1_1 Tb1_1 3.333300 1_555
Cd1_1 Tb2_1 3.333300 1_555
Cd1_1 Tb2_0 3.333300 1_555
Cd1_1 Tb0_1 3.333300 1_555
Cd1_1 Tb1_0 3.333300 1_555
Cd1_1 Tb3_0 3.333300 1_555
Cd1_1 Tb3_1 3.333300 1_555
Cd1_2 Cu2_2 2.976705 1_555
Cd1_2 Cu0_2 2.976705 1_555
Cd1_2 Cu1_2 2.976705 1_555
Cd1_2 Cu3_2 2.976705 1_555
Cd1_2 Tb2_2 3.333300 1_555
Cd1_2 Tb2_3 3.333300 1_554
Cd1_2 Tb1_2 3.333300 1_555
Cd1_2 Tb1_3 3.333300 1_554
Cd1_2 Tb0_2 3.333300 1_555
Cd1_2 Tb0_3 3.333300 1_554
Cd1_2 Tb3_3 3.333300 1_554
Cd1_2 Tb3_2 3.333300 1_555
Cd1_2 Cd1_3 3.748867 1_555
Cd1_2 Cd1_3 3.748867 1_554
Cd1_3 Cu2_3 2.976705 1_555
Cd1_3 Cu0_3 2.976705 1_555
Cd1_3 Cu1_3 2.976705 1_555
Cd1_3 Cu3_3 2.976705 1_555
Cd1_3 Tb2_2 3.333300 1_555
Cd1_3 Tb2_3 3.333300 1_555
Cd1_3 Tb0_3 3.333300 1_555
Cd1_3 Tb1_2 3.333300 1_555
Cd1_3 Tb1_3 3.333300 1_555
Cd1_3 Tb0_2 3.333300 1_555
Cd1_3 Tb3_3 3.333300 1_555
Cd1_3 Tb3_2 3.333300 1_555
Cd1_4 Cu1_4 2.976705 1_555
Cd1_4 Cu2_4 2.976705 1_555
Cd1_4 Cu3_4 2.976705 1_555
Cd1_4 Cu0_4 2.976705 1_555
Cd1_4 Tb1_4 3.333300 1_555
Cd1_4 Tb1_5 3.333300 1_554
Cd1_4 Tb3_5 3.333300 1_554
Cd1_4 Tb2_5 3.333300 1_554
Cd1_4 Tb2_4 3.333300 1_555
Cd1_4 Tb3_4 3.333300 1_555
Cd1_4 Tb0_4 3.333300 1_555
Cd1_4 Tb0_5 3.333300 1_554
Cd1_4 Cd1_5 3.748867 1_554
Cd1_4 Cd1_5 3.748867 1_555
Cd1_5 Cu1_5 2.976705 1_555
Cd1_5 Cu2_5 2.976705 1_555
Cd1_5 Cu3_5 2.976705 1_555
Cd1_5 Cu0_5 2.976705 1_555
Cd1_5 Tb1_5 3.333300 1_555
Cd1_5 Tb1_4 3.333300 1_555
Cd1_5 Tb2_5 3.333300 1_555
Cd1_5 Tb2_4 3.333300 1_555
Cd1_5 Tb3_5 3.333300 1_555
Cd1_5 Tb3_4 3.333300 1_555
Cd1_5 Tb0_5 3.333300 1_555
Cd1_5 Tb0_4 3.333300 1_555
Cd1_6 Cu2_6 2.976705 1_555
Cd1_6 Cu1_6 2.976705 1_555
Cd1_6 Cu3_6 2.976705 1_555
Cd1_6 Cu0_6 2.976705 1_555
Cd1_6 Tb2_6 3.333300 1_555
Cd1_6 Tb1_7 3.333300 1_554
Cd1_6 Tb2_7 3.333300 1_554
Cd1_6 Tb1_6 3.333300 1_555
Cd1_6 Tb3_6 3.333300 1_555
Cd1_6 Tb3_7 3.333300 1_554
Cd1_6 Tb0_6 3.333300 1_555
Cd1_6 Tb0_7 3.333300 1_554
Cd1_6 Cd1_7 3.748867 1_555
Cd1_6 Cd1_7 3.748867 1_554
Cd1_7 Cu2_7 2.976705 1_555
Cd1_7 Cu1_7 2.976705 1_555
Cd1_7 Cu3_7 2.976705 1_555
Cd1_7 Cu0_7 2.976705 1_555
Cd1_7 Tb2_6 3.333300 1_555
Cd1_7 Tb2_7 3.333300 1_555
Cd1_7 Tb1_6 3.333300 1_555
Cd1_7 Tb1_7 3.333300 1_555
Cd1_7 Tb3_6 3.333300 1_555
Cd1_7 Tb3_7 3.333300 1_555
Cd1_7 Tb0_7 3.333300 1_555
Cd1_7 Tb0_6 3.333300 1_555
Cu0_0 Cu1_4 2.532706 1_455
Cu0_0 Tb1_0 2.863492 1_555
Cu0_0 Tb1_1 2.863492 1_554
Cu0_0 Tb2_1 2.922251 1_554
Cu0_0 Tb2_0 2.922251 1_555
Cu0_0 Tb3_5 2.922251 1_454
Cu0_0 Tb3_4 2.922251 1_455
Cu0_1 Cu1_5 2.532706 1_455
Cu0_1 Tb1_0 2.863492 1_555
Cu0_1 Tb1_1 2.863492 1_555
Cu0_1 Tb2_1 2.922251 1_555
Cu0_1 Tb2_0 2.922251 1_555
Cu0_1 Tb3_5 2.922251 1_455
Cu0_1 Tb3_4 2.922251 1_455
Cu0_2 Cu1_6 2.532706 1_455
Cu0_2 Tb1_3 2.863492 1_554
Cu0_2 Tb1_2 2.863492 1_555
Cu0_2 Tb2_2 2.922251 1_555
Cu0_2 Tb2_3 2.922251 1_554
Cu0_2 Tb3_7 2.922251 1_454
Cu0_2 Tb3_6 2.922251 1_455
Cu0_3 Cu1_7 2.532706 1_455
Cu0_3 Tb1_3 2.863492 1_555
Cu0_3 Tb1_2 2.863492 1_555
Cu0_3 Tb2_2 2.922251 1_555
Cu0_3 Tb2_3 2.922251 1_555
Cu0_3 Tb3_7 2.922251 1_455
Cu0_3 Tb3_6 2.922251 1_455
Cu0_4 Cu1_0 2.532706 1_555
Cu0_4 Tb1_4 2.863492 1_555
Cu0_4 Tb1_5 2.863492 1_554
Cu0_4 Tb3_0 2.922251 1_555
Cu0_4 Tb3_1 2.922251 1_554
Cu0_4 Tb2_4 2.922251 1_555
Cu0_4 Tb2_5 2.922251 1_554
Cu0_5 Cu1_1 2.532706 1_555
Cu0_5 Tb1_5 2.863492 1_555
Cu0_5 Tb1_4 2.863492 1_555
Cu0_5 Tb3_0 2.922251 1_555
Cu0_5 Tb3_1 2.922251 1_555
Cu0_5 Tb2_4 2.922251 1_555
Cu0_5 Tb2_5 2.922251 1_555
Cu0_6 Cu1_2 2.532706 1_555
Cu0_6 Tb1_7 2.863492 1_554
Cu0_6 Tb1_6 2.863492 1_555
Cu0_6 Tb3_3 2.922251 1_554
Cu0_6 Tb2_6 2.922251 1_555
Cu0_6 Tb3_2 2.922251 1_555
Cu0_6 Tb2_7 2.922251 1_554
Cu0_7 Cu1_3 2.532706 1_555
Cu0_7 Tb1_7 2.863492 1_555
Cu0_7 Tb1_6 2.863492 1_555
Cu0_7 Tb3_3 2.922251 1_555
Cu0_7 Tb2_6 2.922251 1_555
Cu0_7 Tb3_2 2.922251 1_555
Cu0_7 Tb2_7 2.922251 1_555
Cu1_0 Tb0_0 2.863492 1_555
Cu1_0 Tb0_1 2.863492 1_554
Cu1_0 Tb2_5 2.922251 1_554
Cu1_0 Tb2_4 2.922251 1_555
Cu1_0 Tb3_1 2.922251 1_554
Cu1_0 Tb3_0 2.922251 1_555
Cu1_1 Tb0_1 2.863492 1_555
Cu1_1 Tb0_0 2.863492 1_555
Cu1_1 Tb2_4 2.922251 1_555
Cu1_1 Tb2_5 2.922251 1_555
Cu1_1 Tb3_1 2.922251 1_555
Cu1_1 Tb3_0 2.922251 1_555
Cu1_2 Tb0_3 2.863492 1_554
Cu1_2 Tb0_2 2.863492 1_555
Cu1_2 Tb2_7 2.922251 1_554
Cu1_2 Tb2_6 2.922251 1_555
Cu1_2 Tb3_2 2.922251 1_555
Cu1_2 Tb3_3 2.922251 1_554
Cu1_3 Tb0_3 2.863492 1_555
Cu1_3 Tb0_2 2.863492 1_555
Cu1_3 Tb2_6 2.922251 1_555
Cu1_3 Tb2_7 2.922251 1_555
Cu1_3 Tb3_2 2.922251 1_555
Cu1_3 Tb3_3 2.922251 1_555
Cu1_4 Tb0_4 2.863492 1_555
Cu1_4 Tb0_5 2.863492 1_554
Cu1_4 Tb3_4 2.922251 1_555
Cu1_4 Tb3_5 2.922251 1_554
Cu1_4 Tb2_1 2.922251 1_654
Cu1_4 Tb2_0 2.922251 1_655
Cu1_5 Tb0_5 2.863492 1_555
Cu1_5 Tb0_4 2.863492 1_555
Cu1_5 Tb3_4 2.922251 1_555
Cu1_5 Tb3_5 2.922251 1_555
Cu1_5 Tb2_0 2.922251 1_655
Cu1_5 Tb2_1 2.922251 1_655
Cu1_6 Tb0_6 2.863492 1_555
Cu1_6 Tb0_7 2.863492 1_554
Cu1_6 Tb2_3 2.922251 1_654
Cu1_6 Tb2_2 2.922251 1_655
Cu1_6 Tb3_6 2.922251 1_555
Cu1_6 Tb3_7 2.922251 1_554
Cu1_7 Tb0_7 2.863492 1_555
Cu1_7 Tb0_6 2.863492 1_555
Cu1_7 Tb2_3 2.922251 1_655
Cu1_7 Tb2_2 2.922251 1_655
Cu1_7 Tb3_7 2.922251 1_555
Cu1_7 Tb3_6 2.922251 1_555
Cu2_0 Cu3_2 2.532706 1_555
Cu2_0 Tb3_1 2.863492 1_554
Cu2_0 Tb3_0 2.863492 1_555
Cu2_0 Tb0_3 2.922251 1_554
Cu2_0 Tb0_2 2.922251 1_555
Cu2_0 Tb1_0 2.922251 1_555
Cu2_0 Tb1_1 2.922251 1_554
Cu2_1 Cu3_3 2.532706 1_555
Cu2_1 Tb3_1 2.863492 1_555
Cu2_1 Tb3_0 2.863492 1_555
Cu2_1 Tb0_3 2.922251 1_555
Cu2_1 Tb0_2 2.922251 1_555
Cu2_1 Tb1_0 2.922251 1_555
Cu2_1 Tb1_1 2.922251 1_555
Cu2_2 Cu3_0 2.532706 1_565
Cu2_2 Tb3_2 2.863492 1_555
Cu2_2 Tb3_3 2.863492 1_554
Cu2_2 Tb1_2 2.922251 1_555
Cu2_2 Tb1_3 2.922251 1_554
Cu2_2 Tb0_0 2.922251 1_565
Cu2_2 Tb0_1 2.922251 1_564
Cu2_3 Cu3_1 2.532706 1_565
Cu2_3 Tb3_2 2.863492 1_555
Cu2_3 Tb3_3 2.863492 1_555
Cu2_3 Tb1_2 2.922251 1_555
Cu2_3 Tb1_3 2.922251 1_555
Cu2_3 Tb0_1 2.922251 1_565
Cu2_3 Tb0_0 2.922251 1_565
Cu2_4 Cu3_6 2.532706 1_555
Cu2_4 Tb3_5 2.863492 1_554
Cu2_4 Tb3_4 2.863492 1_555
Cu2_4 Tb1_4 2.922251 1_555
Cu2_4 Tb1_5 2.922251 1_554
Cu2_4 Tb0_6 2.922251 1_555
Cu2_4 Tb0_7 2.922251 1_554
Cu2_5 Cu3_7 2.532706 1_555
Cu2_5 Tb3_5 2.863492 1_555
Cu2_5 Tb3_4 2.863492 1_555
Cu2_5 Tb1_4 2.922251 1_555
Cu2_5 Tb1_5 2.922251 1_555
Cu2_5 Tb0_6 2.922251 1_555
Cu2_5 Tb0_7 2.922251 1_555
Cu2_6 Cu3_4 2.532706 1_565
Cu2_6 Tb3_6 2.863492 1_555
Cu2_6 Tb3_7 2.863492 1_554
Cu2_6 Tb1_6 2.922251 1_555
Cu2_6 Tb1_7 2.922251 1_554
Cu2_6 Tb0_5 2.922251 1_564
Cu2_6 Tb0_4 2.922251 1_565
Cu2_7 Cu3_5 2.532706 1_565
Cu2_7 Tb3_6 2.863492 1_555
Cu2_7 Tb3_7 2.863492 1_555
Cu2_7 Tb1_6 2.922251 1_555
Cu2_7 Tb1_7 2.922251 1_555
Cu2_7 Tb0_5 2.922251 1_565
Cu2_7 Tb0_4 2.922251 1_565
Cu3_0 Tb2_0 2.863492 1_555
Cu3_0 Tb2_1 2.863492 1_554
Cu3_0 Tb0_0 2.922251 1_555
Cu3_0 Tb0_1 2.922251 1_554
Cu3_0 Tb1_2 2.922251 1_545
Cu3_0 Tb1_3 2.922251 1_544
Cu3_1 Tb2_1 2.863492 1_555
Cu3_1 Tb2_0 2.863492 1_555
Cu3_1 Tb0_0 2.922251 1_555
Cu3_1 Tb0_1 2.922251 1_555
Cu3_1 Tb1_3 2.922251 1_545
Cu3_1 Tb1_2 2.922251 1_545
Cu3_2 Tb2_2 2.863492 1_555
Cu3_2 Tb2_3 2.863492 1_554
Cu3_2 Tb1_0 2.922251 1_555
Cu3_2 Tb1_1 2.922251 1_554
Cu3_2 Tb0_3 2.922251 1_554
Cu3_2 Tb0_2 2.922251 1_555
Cu3_3 Tb2_2 2.863492 1_555
Cu3_3 Tb2_3 2.863492 1_555
Cu3_3 Tb1_0 2.922251 1_555
Cu3_3 Tb1_1 2.922251 1_555
Cu3_3 Tb0_3 2.922251 1_555
Cu3_3 Tb0_2 2.922251 1_555
Cu3_4 Tb2_4 2.863492 1_555
Cu3_4 Tb2_5 2.863492 1_554
Cu3_4 Tb1_7 2.922251 1_544
Cu3_4 Tb1_6 2.922251 1_545
Cu3_4 Tb0_5 2.922251 1_554
Cu3_4 Tb0_4 2.922251 1_555
Cu3_5 Tb2_4 2.863492 1_555
Cu3_5 Tb2_5 2.863492 1_555
Cu3_5 Tb1_7 2.922251 1_545
Cu3_5 Tb1_6 2.922251 1_545
Cu3_5 Tb0_4 2.922251 1_555
Cu3_5 Tb0_5 2.922251 1_555
Cu3_6 Tb2_6 2.863492 1_555
Cu3_6 Tb2_7 2.863492 1_554
Cu3_6 Tb1_5 2.922251 1_554
Cu3_6 Tb1_4 2.922251 1_555
Cu3_6 Tb0_7 2.922251 1_554
Cu3_6 Tb0_6 2.922251 1_555
Cu3_7 Tb2_6 2.863492 1_555
Cu3_7 Tb2_7 2.863492 1_555
Cu3_7 Tb1_5 2.922251 1_555
Cu3_7 Tb1_4 2.922251 1_555
Cu3_7 Tb0_6 2.922251 1_555
Cu3_7 Tb0_7 2.922251 1_555
