# generated using pymatgen
data_CsAlAs3H5O12
_symmetry_space_group_name_H-M   'P 1'
_cell_length_a   4.72529900
_cell_length_b   7.93324030
_cell_length_c   15.31583961
_cell_angle_alpha   89.07749882
_cell_angle_beta   86.90107308
_cell_angle_gamma   72.67350234
_symmetry_Int_Tables_number   1
_chemical_formula_structural   CsAlAs3H5O12
_chemical_formula_sum   'Cs2 Al2 As6 H10 O24'
_cell_volume   547.28953435
_cell_formula_units_Z   2
loop_
 _symmetry_equiv_pos_site_id
 _symmetry_equiv_pos_as_xyz
  1  'x, y, z'
loop_
 _atom_site_type_symbol
 _atom_site_label
 _atom_site_symmetry_multiplicity
 _atom_site_fract_x
 _atom_site_fract_y
 _atom_site_fract_z
 _atom_site_occupancy
  Cs  Cs0  1  0.01476900  0.97292400  0.50107000  1
  Cs  Cs1  1  0.98769300  0.02707600  0.00107000  1
  Al  Al0  1  0.89119100  0.28411800  0.74742500  1
  Al  Al1  1  0.17530900  0.71588200  0.24742500  1
  As  As0  1  0.29723400  0.43299500  0.87051000  1
  As  As1  1  0.73022900  0.56700500  0.37051000  1
  As  As2  1  0.53091300  0.99756800  0.75051300  1
  As  As3  1  0.52848100  0.00243200  0.25051300  1
  As  As4  1  0.34826000  0.41733500  0.62209400  1
  As  As5  1  0.76559500  0.58266500  0.12209400  1
  H  H0  1  0.86682400  0.66432300  0.90000100  1
  H  H1  1  0.53114700  0.33567700  0.40000100  1
  H  H2  1  0.83655900  0.72913300  0.69535700  1
  H  H3  1  0.56569300  0.27086700  0.19535700  1
  H  H4  1  0.31834800  0.79671100  0.81788300  1
  H  H5  1  0.11505900  0.20328900  0.31788300  1
  H  H6  1  0.08411200  0.43873800  0.50131700  1
  H  H7  1  0.52285000  0.56126200  0.00131700  1
  H  H8  1  0.55839600  0.61339600  0.55350500  1
  H  H9  1  0.17179300  0.38660400  0.05350500  1
  O  O0  1  0.11017300  0.28491100  0.84919700  1
  O  O1  1  0.39508400  0.71508900  0.34919700  1
  O  O2  1  0.55869700  0.46107900  0.79483600  1
  O  O3  1  0.01977500  0.53892100  0.29483600  1
  O  O4  1  0.41592800  0.39925600  0.97448700  1
  O  O5  1  0.81518400  0.60074400  0.47448700  1
  O  O6  1  0.05475600  0.65368400  0.86627000  1
  O  O7  1  0.70844000  0.34631600  0.36627000  1
  O  O8  1  0.22657700  0.10590300  0.69542300  1
  O  O9  1  0.33247900  0.89409700  0.19542300  1
  O  O10  1  0.74167500  0.10128300  0.80196000  1
  O  O11  1  0.84295900  0.89871700  0.30196000  1
  O  O12  1  0.74790800  0.84933500  0.67149900  1
  O  O13  1  0.59724300  0.15066500  0.17149900  1
  O  O14  1  0.44160400  0.86867100  0.83658400  1
  O  O15  1  0.31027500  0.13132900  0.33658400  1
  O  O16  1  0.67835800  0.26785800  0.64500500  1
  O  O17  1  0.94621600  0.73214200  0.14500500  1
  O  O18  1  0.03980000  0.46557300  0.69165400  1
  O  O19  1  0.50537300  0.53442700  0.19165400  1
  O  O20  1  0.26848300  0.34113700  0.52150600  1
  O  O21  1  0.60962000  0.65886300  0.02150600  1
  O  O22  1  0.39023900  0.62582300  0.59993700  1
  O  O23  1  0.01606100  0.37417700  0.09993700  1
loop_
_geom_bond_atom_site_label_1
_geom_bond_atom_site_label_2
_geom_bond_distance
_geom_bond_site_symmetry_2
Cs0 O12 3.108540 1_455
Cs0 O22 3.204598 1_555
Cs0 O1 3.214938 1_555
Cs0 O16 3.230030 1_465
Cs0 O15 3.230866 1_565
Cs0 O11 3.303864 1_455
Cs0 H8 3.341267 1_555
Cs0 O5 3.392908 1_455
Cs0 O8 3.468054 1_565
Cs0 H1 3.496024 1_465
Cs0 O20 3.496309 1_565
Cs1 O13 3.108540 1_555
Cs1 O23 3.204597 1_655
Cs1 O0 3.214938 1_654
Cs1 O17 3.230029 1_545
Cs1 O14 3.230866 1_644
Cs1 O10 3.303866 1_554
Cs1 H9 3.341270 1_655
Cs1 O4 3.392908 1_554
Cs1 O9 3.468052 1_645
Cs1 H0 3.496023 1_544
Cs1 O21 3.496309 1_645
Al0 O2 1.887407 1_555
Al0 O0 1.918061 1_655
Al0 O8 1.926141 1_655
Al0 O16 1.934705 1_555
Al0 O18 1.947468 1_655
Al0 O10 1.951472 1_555
Al1 O3 1.887410 1_555
Al1 O1 1.918061 1_555
Al1 O9 1.926138 1_555
Al1 O17 1.934705 1_455
Al1 O19 1.947468 1_555
Al1 O11 1.951470 1_455
As0 O4 1.707536 1_555
As0 O2 1.708860 1_555
As0 O0 1.711738 1_555
As0 O6 1.786560 1_555
As1 O5 1.707536 1_555
As1 O3 1.708856 1_655
As1 O1 1.711739 1_555
As1 O7 1.786560 1_555
As2 O10 1.698091 1_565
As2 O8 1.700088 1_565
As2 O12 1.758473 1_555
As2 O14 1.764939 1_555
As3 O11 1.698094 1_545
As3 O9 1.700092 1_545
As3 O13 1.758473 1_555
As3 O15 1.764939 1_555
As4 O16 1.704817 1_555
As4 O18 1.708495 1_555
As4 O22 1.749356 1_555
As4 O20 1.763363 1_555
As5 O17 1.704817 1_555
As5 O19 1.708495 1_555
As5 O23 1.749354 1_655
As5 O21 1.763363 1_555
H0 O6 0.984775 1_655
H1 O7 0.984775 1_555
H2 O12 0.992841 1_555
H2 O18 2.024652 1_655
H3 O13 0.992842 1_555
H3 O19 2.024651 1_555
H4 O14 0.984121 1_555
H5 O15 0.984122 1_555
H6 O20 1.036226 1_555
H6 O5 1.581826 1_455
H7 O21 1.036226 1_555
H7 O4 1.581826 1_554
H8 O22 1.020454 1_555
H8 O5 1.649139 1_555
H9 O23 1.020460 1_555
H9 O4 1.649136 1_554
