# generated using pymatgen
data_Mn4Al9
_symmetry_space_group_name_H-M   'P 1'
_cell_length_a   12.40677385
_cell_length_b   14.74345964
_cell_length_c   12.48635784
_cell_angle_alpha   90.00000000
_cell_angle_beta   90.00000000
_cell_angle_gamma   90.00000000
_symmetry_Int_Tables_number   1
_chemical_formula_structural   Mn4Al9
_chemical_formula_sum   'Mn48 Al108'
_cell_volume   2283.98921188
_cell_formula_units_Z   12
loop_
 _symmetry_equiv_pos_site_id
 _symmetry_equiv_pos_as_xyz
  1  'x, y, z'
loop_
 _atom_site_type_symbol
 _atom_site_label
 _atom_site_symmetry_multiplicity
 _atom_site_fract_x
 _atom_site_fract_y
 _atom_site_fract_z
 _atom_site_occupancy
  Mn  Mn0  1  0.93687926  0.87459357  0.84082490  1
  Mn  Mn1  1  0.06312074  0.12540643  0.15917510  1
  Mn  Mn2  1  0.06312074  0.62540643  0.34082490  1
  Mn  Mn3  1  0.43687926  0.12540643  0.15917510  1
  Mn  Mn4  1  0.93687926  0.37459357  0.65917510  1
  Mn  Mn5  1  0.56312074  0.87459357  0.84082490  1
  Mn  Mn6  1  0.56312074  0.37459357  0.65917510  1
  Mn  Mn7  1  0.43687926  0.62540643  0.34082490  1
  Mn  Mn8  1  0.75000000  0.66709950  0.65538059  1
  Mn  Mn9  1  0.25000000  0.33290050  0.34461941  1
  Mn  Mn10  1  0.25000000  0.83290050  0.15538059  1
  Mn  Mn11  1  0.75000000  0.16709950  0.84461941  1
  Mn  Mn12  1  0.75000000  0.45748016  0.35277081  1
  Mn  Mn13  1  0.25000000  0.54251984  0.64722919  1
  Mn  Mn14  1  0.25000000  0.04251984  0.85277081  1
  Mn  Mn15  1  0.75000000  0.95748016  0.14722919  1
  Mn  Mn16  1  0.75000000  0.77636110  0.47803948  1
  Mn  Mn17  1  0.25000000  0.22363890  0.52196052  1
  Mn  Mn18  1  0.25000000  0.72363890  0.97803948  1
  Mn  Mn19  1  0.75000000  0.27636110  0.02196052  1
  Mn  Mn20  1  0.75000000  0.94427631  0.75487873  1
  Mn  Mn21  1  0.25000000  0.05572369  0.24512127  1
  Mn  Mn22  1  0.25000000  0.55572369  0.25487873  1
  Mn  Mn23  1  0.75000000  0.44427631  0.74512127  1
  Mn  Mn24  1  0.75000000  0.94632077  0.54404459  1
  Mn  Mn25  1  0.25000000  0.05367923  0.45595541  1
  Mn  Mn26  1  0.25000000  0.55367923  0.04404459  1
  Mn  Mn27  1  0.75000000  0.44632077  0.95595541  1
  Mn  Mn28  1  0.75000000  0.76702509  0.82655895  1
  Mn  Mn29  1  0.25000000  0.23297491  0.17344105  1
  Mn  Mn30  1  0.25000000  0.73297491  0.32655895  1
  Mn  Mn31  1  0.75000000  0.26702509  0.67344105  1
  Mn  Mn32  1  0.44257243  0.82249809  0.65095715  1
  Mn  Mn33  1  0.55742757  0.17750191  0.34904285  1
  Mn  Mn34  1  0.55742757  0.67750191  0.15095715  1
  Mn  Mn35  1  0.94257243  0.17750191  0.34904285  1
  Mn  Mn36  1  0.44257243  0.32249809  0.84904285  1
  Mn  Mn37  1  0.05742757  0.82249809  0.65095715  1
  Mn  Mn38  1  0.05742757  0.32249809  0.84904285  1
  Mn  Mn39  1  0.94257243  0.67750191  0.15095715  1
  Mn  Mn40  1  0.93898443  0.68236721  0.54073185  1
  Mn  Mn41  1  0.06101557  0.31763279  0.45926815  1
  Mn  Mn42  1  0.06101557  0.81763279  0.04073185  1
  Mn  Mn43  1  0.43898443  0.31763279  0.45926815  1
  Mn  Mn44  1  0.93898443  0.18236721  0.95926815  1
  Mn  Mn45  1  0.56101557  0.68236721  0.54073185  1
  Mn  Mn46  1  0.56101557  0.18236721  0.95926815  1
  Mn  Mn47  1  0.43898443  0.81763279  0.04073185  1
  Al  Al0  1  0.85184818  0.81761753  0.65315154  1
  Al  Al1  1  0.14815182  0.18238247  0.34684846  1
  Al  Al2  1  0.14815182  0.68238247  0.15315154  1
  Al  Al3  1  0.35184818  0.18238247  0.34684846  1
  Al  Al4  1  0.85184818  0.31761753  0.84684846  1
  Al  Al5  1  0.64815182  0.81761753  0.65315154  1
  Al  Al6  1  0.64815182  0.31761753  0.84684846  1
  Al  Al7  1  0.35184818  0.68238247  0.15315154  1
  Al  Al8  1  0.75000000  0.90425260  0.33840201  1
  Al  Al9  1  0.25000000  0.09574740  0.66159799  1
  Al  Al10  1  0.25000000  0.59574740  0.83840201  1
  Al  Al11  1  0.75000000  0.40425260  0.16159799  1
  Al  Al12  1  0.93297334  0.97832147  0.65394927  1
  Al  Al13  1  0.06702666  0.02167853  0.34605073  1
  Al  Al14  1  0.06702666  0.52167853  0.15394927  1
  Al  Al15  1  0.43297334  0.02167853  0.34605073  1
  Al  Al16  1  0.93297334  0.47832147  0.84605073  1
  Al  Al17  1  0.56702666  0.97832147  0.65394927  1
  Al  Al18  1  0.56702666  0.47832147  0.84605073  1
  Al  Al19  1  0.43297334  0.52167853  0.15394927  1
  Al  Al20  1  0.93256574  0.69394561  0.76641690  1
  Al  Al21  1  0.06743426  0.30605439  0.23358310  1
  Al  Al22  1  0.06743426  0.80605439  0.26641690  1
  Al  Al23  1  0.43256574  0.30605439  0.23358310  1
  Al  Al24  1  0.93256574  0.19394561  0.73358310  1
  Al  Al25  1  0.56743426  0.69394561  0.76641690  1
  Al  Al26  1  0.56743426  0.19394561  0.73358310  1
  Al  Al27  1  0.43256574  0.80605439  0.26641690  1
  Al  Al28  1  0.37712141  0.66433842  0.66318574  1
  Al  Al29  1  0.62287859  0.33566158  0.33681426  1
  Al  Al30  1  0.62287859  0.83566158  0.16318574  1
  Al  Al31  1  0.87712141  0.33566158  0.33681426  1
  Al  Al32  1  0.37712141  0.16433842  0.83681426  1
  Al  Al33  1  0.12287859  0.66433842  0.66318574  1
  Al  Al34  1  0.12287859  0.16433842  0.83681426  1
  Al  Al35  1  0.87712141  0.83566158  0.16318574  1
  Al  Al36  1  0.37171128  0.94762916  0.54107868  1
  Al  Al37  1  0.62828872  0.05237084  0.45892132  1
  Al  Al38  1  0.62828872  0.55237084  0.04107868  1
  Al  Al39  1  0.87171128  0.05237084  0.45892132  1
  Al  Al40  1  0.37171128  0.44762916  0.95892132  1
  Al  Al41  1  0.12828872  0.94762916  0.54107868  1
  Al  Al42  1  0.12828872  0.44762916  0.95892132  1
  Al  Al43  1  0.87171128  0.55237084  0.04107868  1
  Al  Al44  1  0.37728426  0.94903297  0.76300992  1
  Al  Al45  1  0.62271574  0.05096703  0.23699008  1
  Al  Al46  1  0.62271574  0.55096703  0.26300992  1
  Al  Al47  1  0.87728426  0.05096703  0.23699008  1
  Al  Al48  1  0.37728426  0.44903297  0.73699008  1
  Al  Al49  1  0.12271574  0.94903297  0.76300992  1
  Al  Al50  1  0.12271574  0.44903297  0.73699008  1
  Al  Al51  1  0.87728426  0.55096703  0.26300992  1
  Al  Al52  1  0.93374123  0.86663849  0.46948331  1
  Al  Al53  1  0.06625877  0.13336151  0.53051669  1
  Al  Al54  1  0.06625877  0.63336151  0.96948331  1
  Al  Al55  1  0.43374123  0.13336151  0.53051669  1
  Al  Al56  1  0.93374123  0.36663849  0.03051669  1
  Al  Al57  1  0.56625877  0.86663849  0.46948331  1
  Al  Al58  1  0.56625877  0.36663849  0.03051669  1
  Al  Al59  1  0.43374123  0.63336151  0.96948331  1
  Al  Al60  1  0.75000000  0.89709229  0.95415623  1
  Al  Al61  1  0.25000000  0.10290771  0.04584377  1
  Al  Al62  1  0.25000000  0.60290771  0.45415623  1
  Al  Al63  1  0.75000000  0.39709229  0.54584377  1
  Al  Al64  1  0.91949332  0.47759910  0.44913545  1
  Al  Al65  1  0.08050668  0.52240090  0.55086455  1
  Al  Al66  1  0.08050668  0.02240090  0.94913545  1
  Al  Al67  1  0.41949332  0.52240090  0.55086455  1
  Al  Al68  1  0.91949332  0.97759910  0.05086455  1
  Al  Al69  1  0.58050668  0.47759910  0.44913545  1
  Al  Al70  1  0.58050668  0.97759910  0.05086455  1
  Al  Al71  1  0.41949332  0.02240090  0.94913545  1
  Al  Al72  1  0.38236578  0.77716624  0.84275452  1
  Al  Al73  1  0.61763422  0.22283376  0.15724548  1
  Al  Al74  1  0.61763422  0.72283376  0.34275452  1
  Al  Al75  1  0.88236578  0.22283376  0.15724548  1
  Al  Al76  1  0.38236578  0.27716624  0.65724548  1
  Al  Al77  1  0.11763422  0.77716624  0.84275452  1
  Al  Al78  1  0.11763422  0.27716624  0.65724548  1
  Al  Al79  1  0.88236578  0.72283376  0.34275452  1
  Al  Al80  1  0.75000000  0.68217477  0.15597466  1
  Al  Al81  1  0.25000000  0.31782523  0.84402534  1
  Al  Al82  1  0.25000000  0.81782523  0.65597466  1
  Al  Al83  1  0.75000000  0.18217477  0.34402534  1
  Al  Al84  1  0.88002425  0.74049357  0.97308119  1
  Al  Al85  1  0.11997575  0.25950643  0.02691881  1
  Al  Al86  1  0.11997575  0.75950643  0.47308119  1
  Al  Al87  1  0.38002425  0.25950643  0.02691881  1
  Al  Al88  1  0.88002425  0.24049357  0.52691881  1
  Al  Al89  1  0.61997575  0.74049357  0.97308119  1
  Al  Al90  1  0.61997575  0.24049357  0.52691881  1
  Al  Al91  1  0.38002425  0.75950643  0.47308119  1
  Al  Al92  1  0.75000000  0.59741547  0.84994527  1
  Al  Al93  1  0.25000000  0.40258453  0.15005473  1
  Al  Al94  1  0.25000000  0.90258453  0.34994527  1
  Al  Al95  1  0.75000000  0.09741547  0.65005473  1
  Al  Al96  1  0.75000000  0.60391752  0.46382281  1
  Al  Al97  1  0.25000000  0.39608248  0.53617719  1
  Al  Al98  1  0.25000000  0.89608248  0.96382281  1
  Al  Al99  1  0.75000000  0.10391752  0.03617719  1
  Al  Al100  1  0.88315446  0.54170900  0.64832220  1
  Al  Al101  1  0.11684554  0.45829100  0.35167780  1
  Al  Al102  1  0.11684554  0.95829100  0.14832220  1
  Al  Al103  1  0.38315446  0.45829100  0.35167780  1
  Al  Al104  1  0.88315446  0.04170900  0.85167780  1
  Al  Al105  1  0.61684554  0.54170900  0.64832220  1
  Al  Al106  1  0.61684554  0.04170900  0.85167780  1
  Al  Al107  1  0.38315446  0.95829100  0.14832220  1
loop_
_geom_bond_atom_site_label_1
_geom_bond_atom_site_label_2
_geom_bond_distance
_geom_bond_site_symmetry_2
Mn0 Mn20 2.753707 1_555
Mn0 Mn28 2.814724 1_555
Mn0 Mn37 2.906421 1_655
Mn0 Mn42 3.050874 1_656
Mn1 Mn21 2.753707 1_555
Mn1 Mn29 2.814724 1_555
Mn1 Mn35 2.906421 1_455
Mn1 Mn44 3.050874 1_454
Mn2 Mn22 2.753707 1_555
Mn2 Mn30 2.814724 1_555
Mn2 Mn39 2.906421 1_455
Mn2 Mn40 3.050874 1_455
Mn3 Mn33 2.906421 1_555
Mn3 Mn46 3.050874 1_554
Mn4 Mn41 3.050874 1_655
Mn10 Mn30 2.595942 1_555
Mn10 Mn18 2.738303 1_554
Mn10 Mn42 2.756365 1_555
Mn10 Mn47 2.756365 1_555
Mn11 Mn31 2.595942 1_555
Mn11 Mn19 2.738303 1_556
Mn11 Mn44 2.756365 1_555
Mn11 Mn46 2.756365 1_555
Mn16 Mn24 2.637849 1_555
Mn16 Mn8 2.738303 1_555
Mn16 Mn45 2.833860 1_555
Mn16 Mn40 2.833860 1_555
Mn17 Mn25 2.637849 1_555
Mn17 Mn9 2.738303 1_555
Mn17 Mn41 2.833860 1_555
Mn17 Mn43 2.833860 1_555
Mn18 Mn26 2.637849 1_556
Mn18 Mn42 2.833860 1_556
Mn18 Mn47 2.833860 1_556
Mn19 Mn27 2.637849 1_554
Mn19 Mn46 2.833860 1_554
Mn19 Mn44 2.833860 1_554
Mn20 Mn24 2.632723 1_555
Mn20 Mn5 2.753707 1_555
Mn20 Mn28 2.762315 1_555
Mn21 Mn25 2.632723 1_555
Mn21 Mn3 2.753707 1_555
Mn21 Mn29 2.762315 1_555
Mn22 Mn26 2.632723 1_555
Mn22 Mn7 2.753707 1_555
Mn22 Mn30 2.762315 1_555
Mn23 Mn27 2.632723 1_555
Mn23 Mn6 2.753707 1_555
Mn23 Mn4 2.753707 1_555
Mn23 Mn31 2.762315 1_555
Mn28 Mn8 2.595942 1_555
Mn28 Mn5 2.814724 1_555
Mn29 Mn9 2.595942 1_555
Mn29 Mn3 2.814724 1_555
Mn30 Mn7 2.814724 1_555
Mn31 Mn6 2.814724 1_555
Mn31 Mn4 2.814724 1_555
Mn32 Mn45 2.884800 1_555
Mn32 Mn5 2.906421 1_555
Mn33 Mn43 2.884800 1_555
Mn34 Mn47 2.884800 1_555
Mn34 Mn7 2.906421 1_555
Mn35 Mn41 2.884800 1_655
Mn36 Mn46 2.884800 1_555
Mn36 Mn6 2.906421 1_555
Mn37 Mn40 2.884800 1_455
Mn38 Mn44 2.884800 1_455
Mn38 Mn4 2.906421 1_455
Mn39 Mn42 2.884800 1_655
Mn40 Mn8 2.756365 1_555
Mn41 Mn9 2.756365 1_555
Mn43 Mn9 2.756365 1_555
Mn43 Mn6 3.050874 1_555
Mn45 Mn8 2.756365 1_555
Mn45 Mn7 3.050874 1_555
Mn47 Mn5 3.050874 1_554
Al0 Al20 2.515486 1_555
Al0 Al5 2.527215 1_555
Al0 Mn37 2.551739 1_655
Al0 Mn8 2.553847 1_555
Al0 Al12 2.574272 1_555
Al0 Mn20 2.587906 1_555
Al0 Mn16 2.597599 1_555
Al0 Al52 2.610384 1_555
Al0 Mn28 2.615586 1_555
Al0 Mn24 2.655809 1_555
Al0 Mn40 2.667472 1_555
Al0 Mn0 2.703684 1_555
Al1 Al21 2.515486 1_555
Al1 Al3 2.527215 1_555
Al1 Mn35 2.551739 1_455
Al1 Mn9 2.553847 1_555
Al1 Al13 2.574272 1_555
Al1 Mn21 2.587906 1_555
Al1 Mn17 2.597599 1_555
Al1 Al53 2.610384 1_555
Al1 Mn29 2.615586 1_555
Al1 Mn25 2.655809 1_555
Al1 Mn41 2.667472 1_555
Al1 Mn1 2.703684 1_555
Al2 Al22 2.515486 1_555
Al2 Al7 2.527215 1_555
Al2 Mn39 2.551739 1_455
Al2 Mn10 2.553847 1_555
Al2 Mn22 2.587906 1_555
Al2 Mn18 2.597599 1_554
Al2 Al54 2.610384 1_554
Al2 Mn30 2.615586 1_555
Al2 Mn26 2.655809 1_555
Al2 Mn42 2.667472 1_555
Al2 Mn2 2.703684 1_555
Al3 Mn33 2.551739 1_555
Al3 Mn9 2.553847 1_555
Al3 Mn21 2.587906 1_555
Al3 Mn17 2.597599 1_555
Al3 Al55 2.610384 1_555
Al3 Mn29 2.615586 1_555
Al3 Mn25 2.655809 1_555
Al3 Mn43 2.667472 1_555
Al3 Mn3 2.703684 1_555
Al4 Al6 2.527215 1_555
Al4 Mn38 2.551739 1_655
Al4 Mn11 2.553847 1_555
Al4 Mn23 2.587906 1_555
Al4 Mn19 2.597599 1_556
Al4 Al56 2.610384 1_556
Al4 Mn31 2.615586 1_555
Al4 Mn27 2.655809 1_555
Al4 Mn44 2.667472 1_555
Al4 Mn4 2.703684 1_555
Al5 Mn32 2.551739 1_555
Al5 Mn8 2.553847 1_555
Al5 Mn20 2.587906 1_555
Al5 Mn16 2.597599 1_555
Al5 Al57 2.610384 1_555
Al5 Mn28 2.615586 1_555
Al5 Mn24 2.655809 1_555
Al5 Mn45 2.667472 1_555
Al5 Mn5 2.703684 1_555
Al6 Mn36 2.551739 1_555
Al6 Mn11 2.553847 1_555
Al6 Mn23 2.587906 1_555
Al6 Mn19 2.597599 1_556
Al6 Mn31 2.615586 1_555
Al6 Mn27 2.655809 1_555
Al6 Mn46 2.667472 1_555
Al6 Mn6 2.703684 1_555
Al7 Mn34 2.551739 1_555
Al7 Mn10 2.553847 1_555
Al7 Mn22 2.587906 1_555
Al7 Mn18 2.597599 1_554
Al7 Mn30 2.615586 1_555
Al7 Mn26 2.655809 1_555
Al7 Mn47 2.667472 1_555
Al7 Mn7 2.703684 1_555
Al8 Mn15 2.512740 1_555
Al8 Mn16 2.568144 1_555
Al8 Mn24 2.641573 1_555
Al9 Mn14 2.512740 1_555
Al9 Mn17 2.568144 1_555
Al9 Mn25 2.641573 1_555
Al10 Mn13 2.512740 1_555
Al10 Mn18 2.568144 1_555
Al10 Mn26 2.641573 1_556
Al10 Al54 2.860622 1_555
Al10 Al59 2.860622 1_555
Al10 Al33 2.880390 1_555
Al10 Al28 2.880390 1_555
Al10 Al48 2.962460 1_555
Al10 Al50 2.962460 1_555
Al10 Al40 3.051831 1_555
Al10 Al42 3.051831 1_555
Al10 Al77 3.139128 1_555
Al10 Al72 3.139128 1_555
Al11 Mn12 2.512740 1_555
Al11 Mn19 2.568144 1_555
Al11 Mn27 2.641573 1_554
Al11 Al58 2.860622 1_555
Al11 Al56 2.860622 1_555
Al11 Al31 2.880390 1_555
Al11 Al29 2.880390 1_555
Al11 Al46 2.962460 1_555
Al11 Al51 2.962460 1_555
Al11 Al43 3.051831 1_555
Al11 Al38 3.051831 1_555
Al11 Al75 3.139128 1_555
Al11 Al73 3.139128 1_555
Al12 Mn20 2.644532 1_555
Al12 Mn24 2.694294 1_555
Al12 Al49 2.753657 1_655
Al12 Mn37 2.768303 1_655
Al12 Al39 2.774842 1_565
Al12 Mn0 2.790317 1_555
Al12 Al52 2.831358 1_555
Al12 Al41 2.839555 1_655
Al12 Al95 2.870330 1_565
Al12 Al53 3.214795 1_665
Al12 Al24 3.330925 1_565
Al13 Mn21 2.644532 1_555
Al13 Mn25 2.694294 1_555
Al13 Al47 2.753657 1_455
Al13 Mn35 2.768303 1_455
Al13 Al41 2.774842 1_545
Al13 Mn1 2.790317 1_555
Al13 Al53 2.831358 1_555
Al13 Al39 2.839555 1_455
Al13 Al94 2.870330 1_545
Al13 Al52 3.214795 1_445
Al13 Al22 3.330925 1_545
Al14 Al2 2.574272 1_555
Al14 Mn22 2.644532 1_555
Al14 Mn26 2.694294 1_555
Al14 Al51 2.753657 1_455
Al14 Mn39 2.768303 1_455
Al14 Al42 2.774842 1_554
Al14 Mn2 2.790317 1_555
Al14 Al54 2.831358 1_554
Al14 Al43 2.839555 1_455
Al14 Al93 2.870330 1_555
Al14 Al56 3.214795 1_455
Al14 Al21 3.330925 1_555
Al15 Al3 2.574272 1_555
Al15 Mn21 2.644532 1_555
Al15 Mn25 2.694294 1_555
Al15 Al45 2.753657 1_555
Al15 Mn33 2.768303 1_555
Al15 Al36 2.774842 1_545
Al15 Mn3 2.790317 1_555
Al15 Al55 2.831358 1_555
Al15 Al37 2.839555 1_555
Al15 Al94 2.870330 1_545
Al15 Al57 3.214795 1_545
Al15 Al27 3.330925 1_545
Al16 Al4 2.574272 1_555
Al16 Mn23 2.644532 1_555
Al16 Mn27 2.694294 1_555
Al16 Al50 2.753657 1_655
Al16 Mn38 2.768303 1_655
Al16 Al43 2.774842 1_556
Al16 Mn4 2.790317 1_555
Al16 Al56 2.831358 1_556
Al16 Al42 2.839555 1_655
Al16 Al92 2.870330 1_555
Al16 Al54 3.214795 1_655
Al16 Al20 3.330925 1_555
Al17 Al5 2.574272 1_555
Al17 Mn20 2.644532 1_555
Al17 Mn24 2.694294 1_555
Al17 Al44 2.753657 1_555
Al17 Mn32 2.768303 1_555
Al17 Al37 2.774842 1_565
Al17 Mn5 2.790317 1_555
Al17 Al57 2.831358 1_555
Al17 Al36 2.839555 1_555
Al17 Al95 2.870330 1_565
Al17 Al55 3.214795 1_565
Al17 Al26 3.330925 1_565
Al18 Al6 2.574272 1_555
Al18 Mn23 2.644532 1_555
Al18 Mn27 2.694294 1_555
Al18 Al48 2.753657 1_555
Al18 Mn36 2.768303 1_555
Al18 Al38 2.774842 1_556
Al18 Mn6 2.790317 1_555
Al18 Al58 2.831358 1_556
Al18 Al40 2.839555 1_555
Al18 Al92 2.870330 1_555
Al18 Al59 3.214795 1_555
Al18 Al25 3.330925 1_555
Al19 Al7 2.574272 1_555
Al19 Mn22 2.644532 1_555
Al19 Mn26 2.694294 1_555
Al19 Al46 2.753657 1_555
Al19 Mn34 2.768303 1_555
Al19 Al40 2.774842 1_554
Al19 Mn7 2.790317 1_555
Al19 Al59 2.831358 1_554
Al19 Al38 2.839555 1_555
Al19 Al93 2.870330 1_555
Al19 Al58 3.214795 1_555
Al19 Al23 3.330925 1_555
Al20 Mn28 2.618259 1_555
Al20 Mn8 2.685020 1_555
Al20 Al33 2.725277 1_655
Al20 Al84 2.748602 1_555
Al20 Al77 2.772376 1_655
Al20 Mn0 2.821282 1_555
Al20 Mn40 2.824273 1_555
Al20 Mn37 2.840849 1_655
Al20 Al92 2.871185 1_555
Al20 Al54 3.158827 1_655
Al21 Mn29 2.618259 1_555
Al21 Mn9 2.685020 1_555
Al21 Al31 2.725277 1_455
Al21 Al85 2.748602 1_555
Al21 Al75 2.772376 1_455
Al21 Mn1 2.821282 1_555
Al21 Mn41 2.824273 1_555
Al21 Mn35 2.840849 1_455
Al21 Al93 2.871185 1_555
Al21 Al56 3.158827 1_455
Al22 Mn30 2.618259 1_555
Al22 Mn10 2.685020 1_555
Al22 Al35 2.725277 1_455
Al22 Al86 2.748602 1_555
Al22 Al79 2.772376 1_455
Al22 Mn2 2.821282 1_555
Al22 Mn42 2.824273 1_555
Al22 Mn39 2.840849 1_455
Al22 Al94 2.871185 1_555
Al22 Al52 3.158827 1_455
Al23 Al3 2.515486 1_555
Al23 Mn29 2.618259 1_555
Al23 Mn9 2.685020 1_555
Al23 Al29 2.725277 1_555
Al23 Al87 2.748602 1_555
Al23 Al73 2.772376 1_555
Al23 Mn3 2.821282 1_555
Al23 Mn43 2.824273 1_555
Al23 Mn33 2.840849 1_555
Al23 Al93 2.871185 1_555
Al23 Al58 3.158827 1_555
Al24 Al4 2.515486 1_555
Al24 Mn31 2.618259 1_555
Al24 Mn11 2.685020 1_555
Al24 Al34 2.725277 1_655
Al24 Al88 2.748602 1_555
Al24 Al78 2.772376 1_655
Al24 Mn4 2.821282 1_555
Al24 Mn44 2.824273 1_555
Al24 Mn38 2.840849 1_655
Al24 Al95 2.871185 1_555
Al24 Al53 3.158827 1_655
Al25 Al5 2.515486 1_555
Al25 Mn28 2.618259 1_555
Al25 Mn8 2.685020 1_555
Al25 Al28 2.725277 1_555
Al25 Al89 2.748602 1_555
Al25 Al72 2.772376 1_555
Al25 Mn5 2.821282 1_555
Al25 Mn45 2.824273 1_555
Al25 Mn32 2.840849 1_555
Al25 Al92 2.871185 1_555
Al25 Al59 3.158827 1_555
Al26 Al6 2.515486 1_555
Al26 Mn31 2.618259 1_555
Al26 Mn11 2.685020 1_555
Al26 Al32 2.725277 1_555
Al26 Al90 2.748602 1_555
Al26 Al76 2.772376 1_555
Al26 Mn6 2.821282 1_555
Al26 Mn46 2.824273 1_555
Al26 Mn36 2.840849 1_555
Al26 Al95 2.871185 1_555
Al26 Al55 3.158827 1_555
Al27 Al7 2.515486 1_555
Al27 Mn30 2.618259 1_555
Al27 Mn10 2.685020 1_555
Al27 Al30 2.725277 1_555
Al27 Al91 2.748602 1_555
Al27 Al74 2.772376 1_555
Al27 Mn7 2.821282 1_555
Al27 Mn47 2.824273 1_555
Al27 Mn34 2.840849 1_555
Al27 Al94 2.871185 1_555
Al27 Al57 3.158827 1_555
Al28 Mn13 2.398513 1_555
Al28 Mn32 2.473885 1_555
Al28 Al67 2.573422 1_555
Al28 Al91 2.757629 1_555
Al28 Mn45 2.759329 1_555
Al28 Al82 2.759782 1_555
Al28 Al72 2.792607 1_555
Al28 Al33 3.154333 1_555
Al28 Al62 3.181185 1_555
Al28 Al48 3.305410 1_555
Al29 Mn12 2.398513 1_555
Al29 Mn33 2.473885 1_555
Al29 Al69 2.573422 1_555
Al29 Al90 2.757629 1_555
Al29 Mn43 2.759329 1_555
Al29 Al83 2.759782 1_555
Al29 Al73 2.792607 1_555
Al29 Al31 3.154333 1_555
Al29 Al63 3.181185 1_555
Al29 Al46 3.305410 1_555
Al30 Mn15 2.398513 1_555
Al30 Mn34 2.473885 1_555
Al30 Al70 2.573422 1_555
Al30 Al89 2.757629 1_554
Al30 Mn47 2.759329 1_555
Al30 Al80 2.759782 1_555
Al30 Al74 2.792607 1_555
Al30 Al8 2.880390 1_555
Al30 Al35 3.154333 1_555
Al30 Al60 3.181185 1_554
Al30 Al45 3.305410 1_565
Al31 Mn12 2.398513 1_555
Al31 Mn35 2.473885 1_555
Al31 Al64 2.573422 1_555
Al31 Al88 2.757629 1_555
Al31 Mn41 2.759329 1_655
Al31 Al83 2.759782 1_555
Al31 Al75 2.792607 1_555
Al31 Al63 3.181185 1_555
Al31 Al51 3.305410 1_555
Al32 Mn14 2.398513 1_555
Al32 Mn36 2.473885 1_555
Al32 Al71 2.573422 1_555
Al32 Al87 2.757629 1_556
Al32 Mn46 2.759329 1_555
Al32 Al81 2.759782 1_555
Al32 Al76 2.792607 1_555
Al32 Al9 2.880390 1_555
Al32 Al34 3.154333 1_555
Al32 Al61 3.181185 1_556
Al32 Al44 3.305410 1_545
Al33 Mn13 2.398513 1_555
Al33 Mn37 2.473885 1_555
Al33 Al65 2.573422 1_555
Al33 Al86 2.757629 1_555
Al33 Mn40 2.759329 1_455
Al33 Al82 2.759782 1_555
Al33 Al77 2.792607 1_555
Al33 Al62 3.181185 1_555
Al33 Al50 3.305410 1_555
Al34 Mn14 2.398513 1_555
Al34 Mn38 2.473885 1_555
Al34 Al66 2.573422 1_555
Al34 Al85 2.757629 1_556
Al34 Mn44 2.759329 1_455
Al34 Al81 2.759782 1_555
Al34 Al78 2.792607 1_555
Al34 Al9 2.880390 1_555
Al34 Al61 3.181185 1_556
Al34 Al49 3.305410 1_545
Al35 Mn15 2.398513 1_555
Al35 Mn39 2.473885 1_555
Al35 Al68 2.573422 1_555
Al35 Al84 2.757629 1_554
Al35 Mn42 2.759329 1_655
Al35 Al80 2.759782 1_555
Al35 Al79 2.792607 1_555
Al35 Al8 2.880390 1_555
Al35 Al60 3.181185 1_554
Al35 Al47 3.305410 1_565
Al36 Mn25 2.419632 1_565
Al36 Mn32 2.461459 1_555
Al36 Al44 2.772053 1_555
Al36 Al82 2.828582 1_555
Al36 Al57 2.837426 1_555
Al36 Al55 2.847482 1_565
Al36 Al94 2.901198 1_555
Al36 Al91 2.902456 1_555
Al36 Al41 3.020089 1_555
Al36 Al9 3.051831 1_565
Al37 Mn24 2.419632 1_545
Al37 Mn33 2.461459 1_555
Al37 Al45 2.772053 1_555
Al37 Al83 2.828582 1_555
Al37 Al55 2.837426 1_555
Al37 Al57 2.847482 1_545
Al37 Al95 2.901198 1_555
Al37 Al90 2.902456 1_555
Al37 Al39 3.020089 1_555
Al37 Al8 3.051831 1_545
Al38 Mn27 2.419632 1_554
Al38 Mn34 2.461459 1_555
Al38 Al46 2.772053 1_555
Al38 Al80 2.828582 1_555
Al38 Al59 2.837426 1_554
Al38 Al58 2.847482 1_555
Al38 Al92 2.901198 1_554
Al38 Al89 2.902456 1_554
Al38 Al43 3.020089 1_555
Al39 Mn24 2.419632 1_545
Al39 Mn35 2.461459 1_555
Al39 Al47 2.772053 1_555
Al39 Al83 2.828582 1_555
Al39 Al53 2.837426 1_655
Al39 Al52 2.847482 1_545
Al39 Al95 2.901198 1_555
Al39 Al88 2.902456 1_555
Al39 Al8 3.051831 1_545
Al40 Mn26 2.419632 1_556
Al40 Mn36 2.461459 1_555
Al40 Al48 2.772053 1_555
Al40 Al81 2.828582 1_555
Al40 Al58 2.837426 1_556
Al40 Al59 2.847482 1_555
Al40 Al93 2.901198 1_556
Al40 Al87 2.902456 1_556
Al40 Al42 3.020089 1_555
Al41 Mn25 2.419632 1_565
Al41 Mn37 2.461459 1_555
Al41 Al49 2.772053 1_555
Al41 Al82 2.828582 1_555
Al41 Al52 2.837426 1_455
Al41 Al53 2.847482 1_565
Al41 Al94 2.901198 1_555
Al41 Al86 2.902456 1_555
Al41 Al9 3.051831 1_565
Al42 Mn26 2.419632 1_556
Al42 Mn38 2.461459 1_555
Al42 Al50 2.772053 1_555
Al42 Al81 2.828582 1_555
Al42 Al56 2.837426 1_456
Al42 Al54 2.847482 1_555
Al42 Al93 2.901198 1_556
Al42 Al85 2.902456 1_556
Al43 Mn27 2.419632 1_554
Al43 Mn39 2.461459 1_555
Al43 Al51 2.772053 1_555
Al43 Al80 2.828582 1_555
Al43 Al54 2.837426 1_654
Al43 Al56 2.847482 1_555
Al43 Al92 2.901198 1_554
Al43 Al84 2.902456 1_554
Al44 Mn14 2.376922 1_565
Al44 Mn32 2.468606 1_555
Al44 Al71 2.616376 1_565
Al44 Al72 2.723258 1_555
Al44 Mn5 2.732121 1_555
Al44 Al82 2.832337 1_555
Al44 Al9 2.962460 1_565
Al44 Al98 3.064383 1_555
Al44 Al49 3.158374 1_555
Al45 Mn15 2.376922 1_545
Al45 Mn33 2.468606 1_555
Al45 Al70 2.616376 1_545
Al45 Al73 2.723258 1_555
Al45 Mn3 2.732121 1_555
Al45 Al83 2.832337 1_555
Al45 Al8 2.962460 1_545
Al45 Al99 3.064383 1_555
Al45 Al47 3.158374 1_555
Al46 Mn12 2.376922 1_555
Al46 Mn34 2.468606 1_555
Al46 Al69 2.616376 1_555
Al46 Al74 2.723258 1_555
Al46 Mn7 2.732121 1_555
Al46 Al80 2.832337 1_555
Al46 Al96 3.064383 1_555
Al46 Al51 3.158374 1_555
Al47 Mn15 2.376922 1_545
Al47 Mn35 2.468606 1_555
Al47 Al68 2.616376 1_545
Al47 Al75 2.723258 1_555
Al47 Mn1 2.732121 1_655
Al47 Al83 2.832337 1_555
Al47 Al8 2.962460 1_545
Al47 Al99 3.064383 1_555
Al48 Mn13 2.376922 1_555
Al48 Mn36 2.468606 1_555
Al48 Al67 2.616376 1_555
Al48 Al76 2.723258 1_555
Al48 Mn6 2.732121 1_555
Al48 Al81 2.832337 1_555
Al48 Al97 3.064383 1_555
Al48 Al50 3.158374 1_555
Al49 Mn14 2.376922 1_565
Al49 Mn37 2.468606 1_555
Al49 Al66 2.616376 1_565
Al49 Al77 2.723258 1_555
Al49 Mn0 2.732121 1_455
Al49 Al82 2.832337 1_555
Al49 Al9 2.962460 1_565
Al49 Al98 3.064383 1_555
Al50 Mn13 2.376922 1_555
Al50 Mn38 2.468606 1_555
Al50 Al65 2.616376 1_555
Al50 Al78 2.723258 1_555
Al50 Mn4 2.732121 1_455
Al50 Al81 2.832337 1_555
Al50 Al97 3.064383 1_555
Al51 Mn12 2.376922 1_555
Al51 Mn39 2.468606 1_555
Al51 Al64 2.616376 1_555
Al51 Al79 2.723258 1_555
Al51 Mn2 2.732121 1_655
Al51 Al80 2.832337 1_555
Al51 Al96 3.064383 1_555
Al52 Mn16 2.641915 1_555
Al52 Al79 2.721282 1_555
Al52 Mn24 2.728303 1_555
Al52 Al86 2.799207 1_655
Al52 Mn37 2.812983 1_655
Al52 Mn40 2.859487 1_555
Al52 Al8 2.860622 1_555
Al53 Mn17 2.641915 1_555
Al53 Al78 2.721282 1_555
Al53 Mn25 2.728303 1_555
Al53 Al88 2.799207 1_455
Al53 Mn35 2.812983 1_455
Al53 Mn41 2.859487 1_555
Al53 Al9 2.860622 1_555
Al54 Mn18 2.641915 1_555
Al54 Al77 2.721282 1_555
Al54 Mn26 2.728303 1_556
Al54 Al84 2.799207 1_455
Al54 Mn39 2.812983 1_456
Al54 Mn42 2.859487 1_556
Al55 Mn17 2.641915 1_555
Al55 Al76 2.721282 1_555
Al55 Mn25 2.728303 1_555
Al55 Al90 2.799207 1_555
Al55 Mn33 2.812983 1_555
Al55 Mn43 2.859487 1_555
Al55 Al9 2.860622 1_555
Al56 Mn19 2.641915 1_555
Al56 Al75 2.721282 1_555
Al56 Mn27 2.728303 1_554
Al56 Al85 2.799207 1_655
Al56 Mn38 2.812983 1_654
Al56 Mn44 2.859487 1_554
Al57 Mn16 2.641915 1_555
Al57 Al74 2.721282 1_555
Al57 Mn24 2.728303 1_555
Al57 Al91 2.799207 1_555
Al57 Mn32 2.812983 1_555
Al57 Mn45 2.859487 1_555
Al57 Al8 2.860622 1_555
Al58 Al6 2.610384 1_554
Al58 Mn19 2.641915 1_555
Al58 Al73 2.721282 1_555
Al58 Mn27 2.728303 1_554
Al58 Al87 2.799207 1_555
Al58 Mn36 2.812983 1_554
Al58 Mn46 2.859487 1_554
Al59 Al7 2.610384 1_556
Al59 Mn18 2.641915 1_555
Al59 Al72 2.721282 1_555
Al59 Mn26 2.728303 1_556
Al59 Al89 2.799207 1_555
Al59 Mn34 2.812983 1_556
Al59 Mn47 2.859487 1_556
Al60 Mn28 2.493133 1_555
Al60 Mn15 2.569928 1_556
Al60 Mn20 2.583665 1_555
Al60 Al70 2.699820 1_556
Al60 Al68 2.699820 1_556
Al60 Mn5 2.736473 1_555
Al60 Mn0 2.736473 1_555
Al60 Al89 2.826444 1_555
Al60 Al84 2.826444 1_555
Al60 Al99 3.216709 1_566
Al61 Mn29 2.493133 1_555
Al61 Mn14 2.569928 1_554
Al61 Mn21 2.583665 1_555
Al61 Al71 2.699820 1_554
Al61 Al66 2.699820 1_554
Al61 Mn3 2.736473 1_555
Al61 Mn1 2.736473 1_555
Al61 Al85 2.826444 1_555
Al61 Al87 2.826444 1_555
Al61 Al98 3.216709 1_544
Al62 Mn30 2.493133 1_555
Al62 Mn13 2.569928 1_555
Al62 Mn22 2.583665 1_555
Al62 Al67 2.699820 1_555
Al62 Al65 2.699820 1_555
Al62 Mn2 2.736473 1_555
Al62 Mn7 2.736473 1_555
Al62 Al86 2.826444 1_555
Al62 Al91 2.826444 1_555
Al62 Al97 3.216709 1_555
Al63 Mn31 2.493133 1_555
Al63 Mn12 2.569928 1_555
Al63 Mn23 2.583665 1_555
Al63 Al69 2.699820 1_555
Al63 Al64 2.699820 1_555
Al63 Mn6 2.736473 1_555
Al63 Mn4 2.736473 1_555
Al63 Al90 2.826444 1_555
Al63 Al88 2.826444 1_555
Al63 Al96 3.216709 1_555
Al64 Mn12 2.440865 1_555
Al64 Al65 2.457724 1_655
Al64 Al96 2.814978 1_555
Al64 Mn41 2.943005 1_655
Al64 Mn4 3.038263 1_555
Al64 Mn2 3.123016 1_655
Al64 Mn40 3.237413 1_555
Al65 Mn13 2.440865 1_555
Al65 Al97 2.814978 1_555
Al65 Mn40 2.943005 1_455
Al65 Mn2 3.038263 1_555
Al65 Mn4 3.123016 1_455
Al65 Mn41 3.237413 1_555
Al66 Mn14 2.440865 1_555
Al66 Al68 2.457724 1_446
Al66 Al98 2.814978 1_545
Al66 Mn44 2.943005 1_455
Al66 Mn1 3.038263 1_556
Al66 Mn0 3.123016 1_445
Al66 Mn42 3.237413 1_546
Al67 Mn13 2.440865 1_555
Al67 Al69 2.457724 1_555
Al67 Al97 2.814978 1_555
Al67 Mn45 2.943005 1_555
Al67 Mn7 3.038263 1_555
Al67 Mn6 3.123016 1_555
Al67 Mn43 3.237413 1_555
Al68 Mn15 2.440865 1_555
Al68 Al99 2.814978 1_565
Al68 Mn42 2.943005 1_655
Al68 Mn0 3.038263 1_554
Al68 Mn1 3.123016 1_665
Al68 Mn44 3.237413 1_564
Al69 Mn12 2.440865 1_555
Al69 Al96 2.814978 1_555
Al69 Mn43 2.943005 1_555
Al69 Mn6 3.038263 1_555
Al69 Mn7 3.123016 1_555
Al69 Mn45 3.237413 1_555
Al70 Mn15 2.440865 1_555
Al70 Al71 2.457724 1_564
Al70 Al99 2.814978 1_565
Al70 Mn47 2.943005 1_555
Al70 Mn5 3.038263 1_554
Al70 Mn3 3.123016 1_565
Al70 Mn46 3.237413 1_564
Al71 Mn14 2.440865 1_555
Al71 Al98 2.814978 1_545
Al71 Mn46 2.943005 1_555
Al71 Mn3 3.038263 1_556
Al71 Mn5 3.123016 1_545
Al71 Mn47 3.237413 1_546
Al72 Mn18 2.484589 1_555
Al72 Mn32 2.596144 1_555
Al72 Mn47 2.638230 1_556
Al72 Mn5 2.663280 1_555
Al72 Al98 2.838311 1_555
Al72 Al82 2.914692 1_555
Al72 Al77 3.284465 1_555
Al73 Mn19 2.484589 1_555
Al73 Mn33 2.596144 1_555
Al73 Mn46 2.638230 1_554
Al73 Mn3 2.663280 1_555
Al73 Al99 2.838311 1_555
Al73 Al83 2.914692 1_555
Al73 Al75 3.284465 1_555
Al74 Mn16 2.484589 1_555
Al74 Mn34 2.596144 1_555
Al74 Mn45 2.638230 1_555
Al74 Mn7 2.663280 1_555
Al74 Al96 2.838311 1_555
Al74 Al80 2.914692 1_555
Al74 Al8 3.139128 1_555
Al74 Al79 3.284465 1_555
Al75 Mn19 2.484589 1_555
Al75 Mn35 2.596144 1_555
Al75 Mn44 2.638230 1_554
Al75 Mn1 2.663280 1_655
Al75 Al99 2.838311 1_555
Al75 Al83 2.914692 1_555
Al76 Mn17 2.484589 1_555
Al76 Mn36 2.596144 1_555
Al76 Mn43 2.638230 1_555
Al76 Mn6 2.663280 1_555
Al76 Al97 2.838311 1_555
Al76 Al81 2.914692 1_555
Al76 Al9 3.139128 1_555
Al76 Al78 3.284465 1_555
Al77 Mn18 2.484589 1_555
Al77 Mn37 2.596144 1_555
Al77 Mn42 2.638230 1_556
Al77 Mn0 2.663280 1_455
Al77 Al98 2.838311 1_555
Al77 Al82 2.914692 1_555
Al78 Mn17 2.484589 1_555
Al78 Mn38 2.596144 1_555
Al78 Mn41 2.638230 1_555
Al78 Mn4 2.663280 1_455
Al78 Al97 2.838311 1_555
Al78 Al81 2.914692 1_555
Al78 Al9 3.139128 1_555
Al79 Mn16 2.484589 1_555
Al79 Mn39 2.596144 1_555
Al79 Mn40 2.638230 1_555
Al79 Mn2 2.663280 1_655
Al79 Al96 2.838311 1_555
Al79 Al80 2.914692 1_555
Al79 Al8 3.139128 1_555
Al80 Mn39 2.391017 1_555
Al80 Mn34 2.391017 1_555
Al80 Al89 2.925203 1_554
Al80 Al84 2.925203 1_554
Al81 Mn38 2.391017 1_555
Al81 Mn36 2.391017 1_555
Al81 Al85 2.925203 1_556
Al81 Al87 2.925203 1_556
Al82 Mn37 2.391017 1_555
Al82 Mn32 2.391017 1_555
Al82 Al86 2.925203 1_555
Al82 Al91 2.925203 1_555
Al83 Mn35 2.391017 1_555
Al83 Mn33 2.391017 1_555
Al83 Al90 2.925203 1_555
Al83 Al88 2.925203 1_555
Al84 Mn28 2.470332 1_555
Al84 Mn39 2.529360 1_556
Al84 Mn42 2.655059 1_656
Al84 Mn0 2.670881 1_555
Al84 Al92 3.068577 1_555
Al84 Al89 3.226363 1_555
Al85 Mn29 2.470332 1_555
Al85 Mn38 2.529360 1_554
Al85 Mn44 2.655059 1_454
Al85 Mn1 2.670881 1_555
Al85 Al93 3.068577 1_555
Al85 Al87 3.226363 1_555
Al86 Mn30 2.470332 1_555
Al86 Mn37 2.529360 1_555
Al86 Mn40 2.655059 1_455
Al86 Mn2 2.670881 1_555
Al86 Al94 3.068577 1_555
Al86 Al91 3.226363 1_555
Al87 Mn29 2.470332 1_555
Al87 Mn36 2.529360 1_554
Al87 Mn46 2.655059 1_554
Al87 Mn3 2.670881 1_555
Al87 Al93 3.068577 1_555
Al88 Mn31 2.470332 1_555
Al88 Mn35 2.529360 1_555
Al88 Mn41 2.655059 1_655
Al88 Mn4 2.670881 1_555
Al88 Al95 3.068577 1_555
Al88 Al90 3.226363 1_555
Al89 Mn28 2.470332 1_555
Al89 Mn34 2.529360 1_556
Al89 Mn47 2.655059 1_556
Al89 Mn5 2.670881 1_555
Al89 Al92 3.068577 1_555
Al90 Mn31 2.470332 1_555
Al90 Mn33 2.529360 1_555
Al90 Mn43 2.655059 1_555
Al90 Mn6 2.670881 1_555
Al90 Al95 3.068577 1_555
Al91 Mn30 2.470332 1_555
Al91 Mn32 2.529360 1_555
Al91 Mn45 2.655059 1_555
Al91 Mn7 2.670881 1_555
Al91 Al94 3.068577 1_555
Al92 Mn28 2.517625 1_555
Al92 Mn27 2.591253 1_555
Al92 Mn23 2.609752 1_555
Al92 Mn8 2.637712 1_555
Al93 Mn29 2.517625 1_555
Al93 Mn26 2.591253 1_555
Al93 Mn22 2.609752 1_555
Al93 Mn9 2.637712 1_555
Al94 Mn30 2.517625 1_555
Al94 Mn25 2.591253 1_565
Al94 Mn21 2.609752 1_565
Al94 Mn10 2.637712 1_555
Al95 Mn31 2.517625 1_555
Al95 Mn24 2.591253 1_545
Al95 Mn20 2.609752 1_545
Al95 Mn11 2.637712 1_555
Al96 Mn16 2.548605 1_555
Al96 Mn12 2.565932 1_555
Al96 Mn8 2.566850 1_555
Al96 Mn45 2.785234 1_555
Al96 Mn40 2.785234 1_555
Al97 Mn17 2.548605 1_555
Al97 Mn13 2.565932 1_555
Al97 Mn9 2.566850 1_555
Al97 Mn41 2.785234 1_555
Al97 Mn43 2.785234 1_555
Al98 Mn18 2.548605 1_555
Al98 Mn14 2.565932 1_565
Al98 Mn10 2.566850 1_556
Al98 Mn42 2.785234 1_556
Al98 Mn47 2.785234 1_556
Al99 Mn19 2.548605 1_555
Al99 Mn15 2.565932 1_545
Al99 Mn11 2.566850 1_554
Al99 Mn44 2.785234 1_554
Al99 Mn46 2.785234 1_554
Al100 Mn8 2.480843 1_555
Al100 Mn23 2.500711 1_555
Al100 Mn4 2.556024 1_555
Al100 Mn40 2.566154 1_555
Al100 Al64 2.698596 1_555
Al100 Al16 2.711261 1_555
Al100 Al65 2.749006 1_655
Al100 Al20 2.754620 1_555
Al100 Al96 2.979515 1_555
Al100 Al63 2.985391 1_555
Al100 Al92 3.121170 1_555
Al101 Mn9 2.480843 1_555
Al101 Mn22 2.500711 1_555
Al101 Mn2 2.556024 1_555
Al101 Mn41 2.566154 1_555
Al101 Al65 2.698596 1_555
Al101 Al14 2.711261 1_555
Al101 Al64 2.749006 1_455
Al101 Al21 2.754620 1_555
Al101 Al97 2.979515 1_555
Al101 Al62 2.985391 1_555
Al101 Al93 3.121170 1_555
Al102 Mn10 2.480843 1_555
Al102 Mn21 2.500711 1_565
Al102 Mn1 2.556024 1_565
Al102 Mn42 2.566154 1_555
Al102 Al66 2.698596 1_564
Al102 Al13 2.711261 1_565
Al102 Al68 2.749006 1_455
Al102 Al22 2.754620 1_555
Al102 Al98 2.979515 1_554
Al102 Al61 2.985391 1_565
Al102 Al94 3.121170 1_555
Al103 Mn9 2.480843 1_555
Al103 Mn22 2.500711 1_555
Al103 Mn7 2.556024 1_555
Al103 Mn43 2.566154 1_555
Al103 Al67 2.698596 1_555
Al103 Al19 2.711261 1_555
Al103 Al69 2.749006 1_555
Al103 Al23 2.754620 1_555
Al103 Al97 2.979515 1_555
Al103 Al62 2.985391 1_555
Al103 Al93 3.121170 1_555
Al104 Mn11 2.480843 1_555
Al104 Mn20 2.500711 1_545
Al104 Mn0 2.556024 1_545
Al104 Mn44 2.566154 1_555
Al104 Al68 2.698596 1_546
Al104 Al12 2.711261 1_545
Al104 Al66 2.749006 1_655
Al104 Al24 2.754620 1_555
Al104 Al99 2.979515 1_556
Al104 Al60 2.985391 1_545
Al104 Al95 3.121170 1_555
Al105 Mn8 2.480843 1_555
Al105 Mn23 2.500711 1_555
Al105 Mn6 2.556024 1_555
Al105 Mn45 2.566154 1_555
Al105 Al69 2.698596 1_555
Al105 Al18 2.711261 1_555
Al105 Al67 2.749006 1_555
Al105 Al25 2.754620 1_555
Al105 Al96 2.979515 1_555
Al105 Al63 2.985391 1_555
Al105 Al92 3.121170 1_555
Al106 Mn11 2.480843 1_555
Al106 Mn20 2.500711 1_545
Al106 Mn5 2.556024 1_545
Al106 Mn46 2.566154 1_555
Al106 Al70 2.698596 1_546
Al106 Al17 2.711261 1_545
Al106 Al71 2.749006 1_555
Al106 Al26 2.754620 1_555
Al106 Al99 2.979515 1_556
Al106 Al60 2.985391 1_545
Al106 Al95 3.121170 1_555
Al107 Mn10 2.480843 1_555
Al107 Mn21 2.500711 1_565
Al107 Mn3 2.556024 1_565
Al107 Mn47 2.566154 1_555
Al107 Al71 2.698596 1_564
Al107 Al15 2.711261 1_565
Al107 Al70 2.749006 1_555
Al107 Al27 2.754620 1_555
Al107 Al98 2.979515 1_554
Al107 Al61 2.985391 1_565
Al107 Al94 3.121170 1_555
