# generated using pymatgen
data_Sr16La3Co11(Cu4O23)2
_symmetry_space_group_name_H-M   'P 1'
_cell_length_a   3.94571700
_cell_length_b   3.94571700
_cell_length_c   69.62783400
_cell_angle_alpha   90.00000000
_cell_angle_beta   90.00000000
_cell_angle_gamma   90.00000000
_symmetry_Int_Tables_number   1
_chemical_formula_structural   Sr16La3Co11(Cu4O23)2
_chemical_formula_sum   'Sr16 La3 Co11 Cu8 O46'
_cell_volume   1084.01365074
_cell_formula_units_Z   1
loop_
 _symmetry_equiv_pos_site_id
 _symmetry_equiv_pos_as_xyz
  1  'x, y, z'
loop_
 _atom_site_type_symbol
 _atom_site_label
 _atom_site_symmetry_multiplicity
 _atom_site_fract_x
 _atom_site_fract_y
 _atom_site_fract_z
 _atom_site_occupancy
  Sr  Sr0  1  0.50000000  0.50000000  0.02799700  1
  Sr  Sr1  1  0.50000000  0.50000000  0.08085000  1
  Sr  Sr2  1  0.50000000  0.50000000  0.13225300  1
  Sr  Sr3  1  0.50000000  0.50000000  0.18439800  1
  Sr  Sr4  1  0.50000000  0.50000000  0.23691500  1
  Sr  Sr5  1  0.50000000  0.50000000  0.28944700  1
  Sr  Sr6  1  0.50000000  0.50000000  0.34190200  1
  Sr  Sr7  1  0.50000000  0.50000000  0.39413400  1
  Sr  Sr8  1  0.50000000  0.50000000  0.44578800  1
  Sr  Sr9  1  0.50000000  0.50000000  0.49953700  1
  Sr  Sr10  1  0.50000000  0.50000000  0.55262200  1
  Sr  Sr11  1  0.50000000  0.50000000  0.60536000  1
  Sr  Sr12  1  0.50000000  0.50000000  0.65796300  1
  Sr  Sr13  1  0.50000000  0.50000000  0.71039100  1
  Sr  Sr14  1  0.50000000  0.50000000  0.76245500  1
  Sr  Sr15  1  0.50000000  0.50000000  0.81390600  1
  La  La0  1  0.50000000  0.50000000  0.86679300  1
  La  La1  1  0.50000000  0.50000000  0.92071100  1
  La  La2  1  0.50000000  0.50000000  0.97511800  1
  Co  Co0  1  0.00000000  0.00000000  0.00260300  1
  Co  Co1  1  0.00000000  0.00000000  0.05328300  1
  Co  Co2  1  0.00000000  0.00000000  0.68408600  1
  Co  Co3  1  0.00000000  0.00000000  0.78877700  1
  Co  Co4  1  0.00000000  0.00000000  0.84131100  1
  Co  Co5  1  0.00000000  0.00000000  0.89473500  1
  Co  Co6  1  0.00000000  0.00000000  0.47338800  1
  Co  Co7  1  0.00000000  0.00000000  0.52497600  1
  Co  Co8  1  0.00000000  0.00000000  0.63111500  1
  Co  Co9  1  0.00000000  0.00000000  0.73658300  1
  Co  Co10  1  0.00000000  0.00000000  0.94785600  1
  Cu  Cu0  1  0.00000000  0.00000000  0.10556400  1
  Cu  Cu1  1  0.00000000  0.00000000  0.21053800  1
  Cu  Cu2  1  0.00000000  0.00000000  0.42083500  1
  Cu  Cu3  1  0.00000000  0.00000000  0.15797600  1
  Cu  Cu4  1  0.00000000  0.00000000  0.26316200  1
  Cu  Cu5  1  0.00000000  0.00000000  0.31577800  1
  Cu  Cu6  1  0.00000000  0.00000000  0.36834600  1
  Cu  Cu7  1  0.00000000  0.00000000  0.57741500  1
  O  O0  1  0.00000000  0.50000000  0.00293200  1
  O  O1  1  0.00000000  0.50000000  0.10540300  1
  O  O2  1  0.00000000  0.50000000  0.21050800  1
  O  O3  1  0.00000000  0.50000000  0.42104900  1
  O  O4  1  0.00000000  0.00000000  0.65806100  1
  O  O5  1  0.00000000  0.00000000  0.71047500  1
  O  O6  1  0.00000000  0.50000000  0.68437000  1
  O  O7  1  0.00000000  0.00000000  0.81587200  1
  O  O8  1  0.00000000  0.00000000  0.92151800  1
  O  O9  1  0.00000000  0.00000000  0.97414300  1
  O  O10  1  0.50000000  0.00000000  0.00293200  1
  O  O11  1  0.50000000  0.00000000  0.05338300  1
  O  O12  1  0.50000000  0.00000000  0.10540300  1
  O  O13  1  0.50000000  0.00000000  0.15789700  1
  O  O14  1  0.50000000  0.00000000  0.21050800  1
  O  O15  1  0.50000000  0.00000000  0.26316300  1
  O  O16  1  0.50000000  0.00000000  0.31581100  1
  O  O17  1  0.50000000  0.00000000  0.36844800  1
  O  O18  1  0.50000000  0.00000000  0.42104900  1
  O  O19  1  0.50000000  0.00000000  0.47341000  1
  O  O20  1  0.50000000  0.00000000  0.52466300  1
  O  O21  1  0.50000000  0.00000000  0.57457900  1
  O  O22  1  0.50000000  0.00000000  0.68437000  1
  O  O23  1  0.50000000  0.00000000  0.63181700  1
  O  O24  1  0.50000000  0.00000000  0.78958200  1
  O  O25  1  0.50000000  0.00000000  0.73678000  1
  O  O26  1  0.50000000  0.00000000  0.84372000  1
  O  O27  1  0.50000000  0.00000000  0.89548800  1
  O  O28  1  0.50000000  0.00000000  0.94776200  1
  O  O29  1  0.00000000  0.50000000  0.05338300  1
  O  O30  1  0.00000000  0.50000000  0.15789700  1
  O  O31  1  0.00000000  0.50000000  0.26316300  1
  O  O32  1  0.00000000  0.50000000  0.31581100  1
  O  O33  1  0.00000000  0.50000000  0.36844800  1
  O  O34  1  0.00000000  0.50000000  0.47341000  1
  O  O35  1  0.00000000  0.50000000  0.52466300  1
  O  O36  1  0.00000000  0.50000000  0.57457900  1
  O  O37  1  0.00000000  0.50000000  0.63181700  1
  O  O38  1  0.00000000  0.50000000  0.73678000  1
  O  O39  1  0.00000000  0.00000000  0.60585900  1
  O  O40  1  0.00000000  0.00000000  0.76294400  1
  O  O41  1  0.00000000  0.50000000  0.78958200  1
  O  O42  1  0.00000000  0.50000000  0.84372000  1
  O  O43  1  0.00000000  0.50000000  0.89548800  1
  O  O44  1  0.00000000  0.50000000  0.94776200  1
  O  O45  1  0.00000000  0.00000000  0.86852100  1
loop_
_geom_bond_atom_site_label_1
_geom_bond_atom_site_label_2
_geom_bond_distance
_geom_bond_site_symmetry_2
La0 O42 2.544226 1_655
La0 O26 2.544226 1_555
La0 O42 2.544226 1_555
La0 O26 2.544226 1_565
La0 O45 2.792636 1_555
La0 O45 2.792636 1_655
La0 O45 2.792636 1_565
La0 O45 2.792636 1_665
La0 O43 2.807856 1_555
La0 O27 2.807856 1_555
La0 O43 2.807856 1_655
La0 O27 2.807856 1_565
La1 O27 2.641304 1_565
La1 O43 2.641304 1_555
La1 O27 2.641304 1_555
La1 O43 2.641304 1_655
La1 O44 2.727591 1_655
La1 O28 2.727591 1_555
La1 O44 2.727591 1_555
La1 O28 2.727591 1_565
La1 O8 2.790609 1_555
La1 O8 2.790609 1_565
La1 O8 2.790609 1_655
La1 O8 2.790609 1_665
La2 O28 2.742299 1_555
La2 O44 2.742299 1_555
La2 O28 2.742299 1_565
La2 O44 2.742299 1_655
La2 O10 2.764544 1_556
La2 O0 2.764544 1_556
La2 O0 2.764544 1_656
La2 O10 2.764544 1_566
La2 O9 2.790869 1_555
La2 O9 2.790869 1_565
La2 O9 2.790869 1_665
La2 O9 2.790869 1_655
Co0 O0 1.972991 1_545
Co0 O10 1.972991 1_455
Co0 O0 1.972991 1_555
Co0 O10 1.972991 1_555
Co0 O9 1.981608 1_554
Co1 O29 1.972871 1_555
Co1 O29 1.972871 1_545
Co1 O11 1.972871 1_555
Co1 O11 1.972871 1_455
Co2 O4 1.812064 1_555
Co2 O5 1.837409 1_555
Co2 O6 1.972958 1_545
Co2 O6 1.972958 1_555
Co2 O22 1.972958 1_455
Co2 O22 1.972958 1_555
Co3 O40 1.798696 1_555
Co3 O7 1.886566 1_555
Co3 O24 1.973655 1_555
Co3 O41 1.973655 1_545
Co3 O41 1.973655 1_555
Co3 O24 1.973655 1_455
Co4 O7 1.771262 1_555
Co4 O45 1.894573 1_555
Co4 O26 1.979976 1_455
Co4 O26 1.979976 1_555
Co4 O42 1.979976 1_555
Co4 O42 1.979976 1_545
Co5 O45 1.825224 1_555
Co5 O8 1.864842 1_555
Co5 O43 1.973555 1_555
Co5 O27 1.973555 1_555
Co5 O43 1.973555 1_545
Co5 O27 1.973555 1_455
Co6 O19 1.972859 1_555
Co6 O34 1.972859 1_555
Co6 O19 1.972859 1_455
Co6 O34 1.972859 1_545
Co7 O20 1.972979 1_555
Co7 O20 1.972979 1_455
Co7 O35 1.972979 1_545
Co7 O35 1.972979 1_555
Co8 O39 1.758521 1_555
Co8 O4 1.876192 1_555
Co8 O37 1.973464 1_555
Co8 O23 1.973464 1_455
Co8 O37 1.973464 1_545
Co8 O23 1.973464 1_555
Co9 O5 1.817843 1_555
Co9 O40 1.835459 1_555
Co9 O38 1.972906 1_555
Co9 O38 1.972906 1_545
Co9 O25 1.972906 1_455
Co9 O25 1.972906 1_555
Co10 O9 1.830307 1_555
Co10 O8 1.833858 1_555
Co10 O28 1.972869 1_455
Co10 O28 1.972869 1_555
Co10 O44 1.972869 1_555
Co10 O44 1.972869 1_545
Cu0 O12 1.972890 1_455
Cu0 O1 1.972890 1_545
Cu0 O12 1.972890 1_555
Cu0 O1 1.972890 1_555
Cu1 O14 1.972860 1_455
Cu1 O2 1.972860 1_545
Cu1 O14 1.972860 1_555
Cu1 O2 1.972860 1_555
Cu2 O18 1.972915 1_455
Cu2 O3 1.972915 1_545
Cu2 O18 1.972915 1_555
Cu2 O3 1.972915 1_555
Cu3 O13 1.972866 1_455
Cu3 O30 1.972866 1_545
Cu3 O30 1.972866 1_555
Cu3 O13 1.972866 1_555
Cu4 O15 1.972859 1_555
Cu4 O15 1.972859 1_455
Cu4 O31 1.972859 1_545
Cu4 O31 1.972859 1_555
Cu5 O16 1.972860 1_455
Cu5 O32 1.972860 1_555
Cu5 O32 1.972860 1_545
Cu5 O16 1.972860 1_555
Cu6 O33 1.972871 1_545
Cu6 O17 1.972871 1_455
Cu6 O33 1.972871 1_555
Cu6 O17 1.972871 1_555
Cu7 O39 1.980494 1_555
Cu7 O21 1.982716 1_455
Cu7 O36 1.982716 1_555
Cu7 O21 1.982716 1_555
Cu7 O36 1.982716 1_545
O0 Sr0 2.634003 1_555
O0 Sr0 2.634003 1_455
O1 Sr1 2.610519 1_455
O1 Sr1 2.610519 1_555
O1 Sr2 2.717946 1_455
O1 Sr2 2.717946 1_555
O2 Sr3 2.682766 1_555
O2 Sr3 2.682766 1_455
O2 Sr4 2.696822 1_555
O2 Sr4 2.696822 1_455
O3 Sr8 2.619018 1_555
O3 Sr8 2.619018 1_455
O3 Sr7 2.721061 1_455
O3 Sr7 2.721061 1_555
O4 Sr12 2.790052 1_445
O4 Sr12 2.790052 1_545
O4 Sr12 2.790052 1_555
O4 Sr12 2.790052 1_455
O5 Sr13 2.790049 1_445
O5 Sr13 2.790049 1_455
O5 Sr13 2.790049 1_545
O5 Sr13 2.790049 1_555
O6 Sr13 2.678570 1_555
O6 Sr13 2.678570 1_455
O6 Sr12 2.696822 1_455
O6 Sr12 2.696822 1_555
O7 Sr15 2.793399 1_555
O7 Sr15 2.793399 1_445
O7 Sr15 2.793399 1_455
O7 Sr15 2.793399 1_545
O10 Sr0 2.634003 1_545
O10 Sr0 2.634003 1_555
O11 Sr0 2.648864 1_555
O11 Sr0 2.648864 1_545
O11 Sr1 2.747672 1_555
O11 Sr1 2.747672 1_545
O12 Sr1 2.610519 1_555
O12 Sr1 2.610519 1_545
O12 Sr2 2.717946 1_555
O12 Sr2 2.717946 1_545
O13 Sr2 2.660885 1_545
O13 Sr2 2.660885 1_555
O13 Sr3 2.701289 1_545
O13 Sr3 2.701289 1_555
O14 Sr3 2.682766 1_545
O14 Sr3 2.682766 1_555
O14 Sr4 2.696822 1_555
O14 Sr4 2.696822 1_545
O15 Sr4 2.689286 1_555
O15 Sr4 2.689286 1_545
O15 Sr5 2.690990 1_555
O15 Sr5 2.690990 1_545
O16 Sr6 2.681869 1_555
O16 Sr6 2.681869 1_545
O16 Sr5 2.694782 1_555
O16 Sr5 2.694782 1_545
O17 Sr7 2.662848 1_545
O17 Sr7 2.662848 1_555
O17 Sr6 2.703430 1_555
O17 Sr6 2.703430 1_545
O18 Sr8 2.619018 1_555
O18 Sr8 2.619018 1_545
O18 Sr7 2.721061 1_545
O18 Sr7 2.721061 1_555
O19 Sr9 2.683568 1_545
O19 Sr9 2.683568 1_555
O19 Sr8 2.755195 1_555
O19 Sr8 2.755195 1_545
O20 Sr9 2.636819 1_545
O20 Sr9 2.636819 1_555
O20 Sr10 2.771625 1_555
O20 Sr10 2.771625 1_545
O21 Sr10 2.495888 1_545
O21 Sr10 2.495888 1_555
O21 Sr11 2.912995 1_555
O21 Sr11 2.912995 1_545
O22 Sr13 2.678570 1_545
O22 Sr13 2.678570 1_555
O22 Sr12 2.696822 1_545
O22 Sr12 2.696822 1_555
O23 Sr12 2.684465 1_555
O23 Sr12 2.684465 1_545
O23 Sr11 2.699197 1_545
O23 Sr11 2.699197 1_555
O24 Sr15 2.600105 1_545
O24 Sr15 2.600105 1_555
O24 Sr14 2.731248 1_555
O24 Sr14 2.731248 1_545
O25 Sr14 2.662334 1_555
O25 Sr14 2.662334 1_545
O25 Sr13 2.695968 1_545
O25 Sr13 2.695968 1_555
O26 O45 2.621859 1_555
O26 O45 2.621859 1_655
O26 Sr15 2.863820 1_545
O26 Sr15 2.863820 1_555
O29 Sr0 2.648864 1_455
O29 Sr0 2.648864 1_555
O29 Sr1 2.747672 1_455
O29 Sr1 2.747672 1_555
O30 Sr2 2.660885 1_455
O30 Sr2 2.660885 1_555
O30 Sr3 2.701289 1_455
O30 Sr3 2.701289 1_555
O31 Sr4 2.689286 1_555
O31 Sr4 2.689286 1_455
O31 Sr5 2.690990 1_455
O31 Sr5 2.690990 1_555
O32 Sr6 2.681869 1_555
O32 Sr6 2.681869 1_455
O32 Sr5 2.694782 1_455
O32 Sr5 2.694782 1_555
O33 Sr7 2.662848 1_555
O33 Sr7 2.662848 1_455
O33 Sr6 2.703430 1_555
O33 Sr6 2.703430 1_455
O34 Sr9 2.683568 1_455
O34 Sr9 2.683568 1_555
O34 Sr8 2.755195 1_555
O34 Sr8 2.755195 1_455
O35 Sr9 2.636819 1_455
O35 Sr9 2.636819 1_555
O35 Sr10 2.771625 1_455
O35 Sr10 2.771625 1_555
O36 Sr10 2.495888 1_455
O36 Sr10 2.495888 1_555
O36 Sr11 2.912995 1_555
O36 Sr11 2.912995 1_455
O37 Sr12 2.684465 1_555
O37 Sr12 2.684465 1_455
O37 Sr11 2.699197 1_455
O37 Sr11 2.699197 1_555
O38 Sr14 2.662334 1_555
O38 Sr14 2.662334 1_455
O38 Sr13 2.695968 1_455
O38 Sr13 2.695968 1_555
O39 Sr11 2.790260 1_445
O39 Sr11 2.790260 1_455
O39 Sr11 2.790260 1_545
O39 Sr11 2.790260 1_555
O40 Sr14 2.790251 1_445
O40 Sr14 2.790251 1_455
O40 Sr14 2.790251 1_555
O40 Sr14 2.790251 1_545
O41 Sr15 2.600105 1_455
O41 Sr15 2.600105 1_555
O41 Sr14 2.731248 1_455
O41 Sr14 2.731248 1_555
O42 O45 2.621859 1_555
O42 O45 2.621859 1_565
O42 Sr15 2.863820 1_455
O42 Sr15 2.863820 1_555
