# generated using pymatgen
data_K5U(PS4)3
_symmetry_space_group_name_H-M   'P 1'
_cell_length_a   17.32711800
_cell_length_b   9.86079700
_cell_length_c   14.81198857
_cell_angle_alpha   71.01869435
_cell_angle_beta   90.00000000
_cell_angle_gamma   90.00000000
_symmetry_Int_Tables_number   1
_chemical_formula_structural   K5U(PS4)3
_chemical_formula_sum   'K20 U4 P12 S48'
_cell_volume   2393.15347077
_cell_formula_units_Z   4
loop_
 _symmetry_equiv_pos_site_id
 _symmetry_equiv_pos_as_xyz
  1  'x, y, z'
loop_
 _atom_site_type_symbol
 _atom_site_label
 _atom_site_symmetry_multiplicity
 _atom_site_fract_x
 _atom_site_fract_y
 _atom_site_fract_z
 _atom_site_occupancy
  K  K0  1  0.99484400  0.05611000  0.31307200  1
  K  K1  1  0.49484400  0.44389000  0.68692800  1
  K  K2  1  0.00515600  0.94389000  0.68692800  1
  K  K3  1  0.50515600  0.55611000  0.31307200  1
  K  K4  1  0.20367800  0.15625500  0.92438600  1
  K  K5  1  0.70367800  0.34374500  0.07561400  1
  K  K6  1  0.79632200  0.84374500  0.07561400  1
  K  K7  1  0.29632200  0.65625500  0.92438600  1
  K  K8  1  0.20044600  0.78139500  0.55383200  1
  K  K9  1  0.70044600  0.71860500  0.44616800  1
  K  K10  1  0.79955400  0.21860500  0.44616800  1
  K  K11  1  0.29955400  0.28139500  0.55383200  1
  K  K12  1  0.97020300  0.28509800  0.01312700  1
  K  K13  1  0.47020300  0.21490200  0.98687300  1
  K  K14  1  0.02979700  0.71490200  0.98687300  1
  K  K15  1  0.52979700  0.78509800  0.01312700  1
  K  K16  1  0.30637200  0.82626800  0.23062300  1
  K  K17  1  0.80637200  0.67373200  0.76937700  1
  K  K18  1  0.69362800  0.17373200  0.76937700  1
  K  K19  1  0.19362800  0.32626800  0.23062300  1
  U  U0  1  0.00100200  0.60620500  0.33375800  1
  U  U1  1  0.50100200  0.89379500  0.66624200  1
  U  U2  1  0.99899800  0.39379500  0.66624200  1
  U  U3  1  0.49899800  0.10620500  0.33375800  1
  P  P0  1  0.89203400  0.43467500  0.19027400  1
  P  P1  1  0.39203400  0.06532500  0.80972600  1
  P  P2  1  0.10796600  0.56532500  0.80972600  1
  P  P3  1  0.60796600  0.93467500  0.19027400  1
  P  P4  1  0.10300900  0.89765300  0.16362100  1
  P  P5  1  0.60300900  0.60234700  0.83637900  1
  P  P6  1  0.89699100  0.10234700  0.83637900  1
  P  P7  1  0.39699100  0.39765300  0.16362100  1
  P  P8  1  0.09487400  0.27333100  0.48379600  1
  P  P9  1  0.59487400  0.22666900  0.51620400  1
  P  P10  1  0.90512600  0.72666900  0.51620400  1
  P  P11  1  0.40512600  0.77333100  0.48379600  1
  S  S0  1  0.84896200  0.23246500  0.22881600  1
  S  S1  1  0.34896200  0.26753500  0.77118400  1
  S  S2  1  0.15103800  0.76753500  0.77118400  1
  S  S3  1  0.65103800  0.73246500  0.22881600  1
  S  S4  1  0.12726600  0.11175200  0.43684700  1
  S  S5  1  0.62726600  0.38824800  0.56315300  1
  S  S6  1  0.87273400  0.88824800  0.56315300  1
  S  S7  1  0.37273400  0.61175200  0.43684700  1
  S  S8  1  0.97788100  0.33070000  0.47883100  1
  S  S9  1  0.47788100  0.16930000  0.52116900  1
  S  S10  1  0.02211900  0.66930000  0.52116900  1
  S  S11  1  0.52211900  0.83070000  0.47883100  1
  S  S12  1  0.01191900  0.43728000  0.21509100  1
  S  S13  1  0.51191900  0.06272000  0.78490900  1
  S  S14  1  0.98808100  0.56272000  0.78490900  1
  S  S15  1  0.48808100  0.93728000  0.21509100  1
  S  S16  1  0.88047200  0.77957700  0.37340300  1
  S  S17  1  0.38047200  0.72042300  0.62659700  1
  S  S18  1  0.11952800  0.22042300  0.62659700  1
  S  S19  1  0.61952800  0.27957700  0.37340300  1
  S  S20  1  0.17155100  0.81826300  0.08245900  1
  S  S21  1  0.67155100  0.68173700  0.91754100  1
  S  S22  1  0.82844900  0.18173700  0.91754100  1
  S  S23  1  0.32844900  0.31826300  0.08245900  1
  S  S24  1  0.85377600  0.54651900  0.27923800  1
  S  S25  1  0.35377600  0.95348100  0.72076200  1
  S  S26  1  0.14622400  0.45348100  0.72076200  1
  S  S27  1  0.64622400  0.04651900  0.27923800  1
  S  S28  1  0.11499800  0.11290100  0.12990100  1
  S  S29  1  0.61499800  0.38709900  0.87009900  1
  S  S30  1  0.88500200  0.88709900  0.87009900  1
  S  S31  1  0.38500200  0.61290100  0.12990100  1
  S  S32  1  0.86647200  0.54151700  0.05223900  1
  S  S33  1  0.36647200  0.95848300  0.94776100  1
  S  S34  1  0.13352800  0.45848300  0.94776100  1
  S  S35  1  0.63352800  0.04151700  0.05223900  1
  S  S36  1  0.14411100  0.46640100  0.40401200  1
  S  S37  1  0.64411100  0.03359900  0.59598800  1
  S  S38  1  0.85588900  0.53359900  0.59598800  1
  S  S39  1  0.35588900  0.96640100  0.40401200  1
  S  S40  1  0.98719200  0.83985000  0.16096800  1
  S  S41  1  0.48719200  0.66015000  0.83903200  1
  S  S42  1  0.01280800  0.16015000  0.83903200  1
  S  S43  1  0.51280800  0.33985000  0.16096800  1
  S  S44  1  0.12592200  0.79953900  0.30904900  1
  S  S45  1  0.62592200  0.70046100  0.69095100  1
  S  S46  1  0.87407800  0.20046100  0.69095100  1
  S  S47  1  0.37407800  0.29953900  0.30904900  1
loop_
_geom_bond_atom_site_label_1
_geom_bond_atom_site_label_2
_geom_bond_distance
_geom_bond_site_symmetry_2
K0 S0 3.091790 1_555
K0 S4 3.095366 1_655
K0 S16 3.252125 1_545
K0 S28 3.319742 1_655
K0 S44 3.414800 1_645
K0 S40 3.573001 1_545
K0 S12 3.573884 1_655
K0 S6 4.116919 1_545
K1 S1 3.091790 1_555
K1 S5 3.095366 1_555
K1 S17 3.252125 1_555
K1 S29 3.319742 1_555
K1 S45 3.414800 1_555
K1 S41 3.573001 1_555
K1 S13 3.573884 1_555
K1 S7 4.116919 1_555
K2 S2 3.091790 1_555
K2 S6 3.095366 1_455
K2 S18 3.252125 1_565
K2 S30 3.319742 1_455
K2 S46 3.414800 1_465
K2 S42 3.573001 1_565
K2 S14 3.573884 1_455
K2 S4 4.116919 1_565
K3 S3 3.091790 1_555
K3 S7 3.095366 1_555
K3 S19 3.252125 1_555
K3 S31 3.319742 1_555
K3 S47 3.414800 1_555
K3 S43 3.573001 1_555
K3 S15 3.573884 1_555
K3 S5 4.116919 1_555
K4 S28 3.311148 1_556
K4 S1 3.327269 1_555
K4 S34 3.339189 1_555
K4 S33 3.382382 1_545
K4 S20 3.438549 1_546
K4 S42 3.536382 1_555
K4 S26 3.595470 1_555
K4 S23 3.891176 1_556
K5 S29 3.311148 1_554
K5 S0 3.327269 1_555
K5 S35 3.339189 1_555
K5 S32 3.382382 1_555
K5 S21 3.438549 1_554
K5 S43 3.536382 1_555
K5 S27 3.595470 1_555
K5 S22 3.891176 1_554
K6 S30 3.311148 1_554
K6 S3 3.327269 1_555
K6 S32 3.339189 1_555
K6 S35 3.382382 1_565
K6 S22 3.438549 1_564
K6 S40 3.536382 1_555
K6 S24 3.595470 1_555
K6 S21 3.891176 1_554
K7 S31 3.311148 1_556
K7 S2 3.327269 1_555
K7 S33 3.339189 1_555
K7 S34 3.382382 1_555
K7 S23 3.438549 1_556
K7 S41 3.536382 1_555
K7 S25 3.595470 1_555
K7 S20 3.891176 1_556
K8 S2 3.290895 1_555
K8 S17 3.291172 1_555
K8 S10 3.369150 1_555
K8 S4 3.398562 1_565
K8 S26 3.500118 1_555
K8 S39 3.587950 1_555
K8 S44 3.797803 1_555
K8 S7 4.074088 1_555
K9 S3 3.290895 1_555
K9 S16 3.291172 1_555
K9 S11 3.369150 1_555
K9 S5 3.398562 1_555
K9 S27 3.500118 1_565
K9 S38 3.587950 1_555
K9 S45 3.797803 1_555
K9 S6 4.074088 1_555
K10 S0 3.290895 1_555
K10 S19 3.291172 1_555
K10 S8 3.369150 1_555
K10 S6 3.398562 1_545
K10 S24 3.500118 1_555
K10 S37 3.587950 1_555
K10 S46 3.797803 1_555
K10 S5 4.074088 1_555
K11 S1 3.290895 1_555
K11 S18 3.291172 1_555
K11 S9 3.369150 1_555
K11 S7 3.398562 1_555
K11 S25 3.500118 1_545
K11 S36 3.587950 1_555
K11 S47 3.797803 1_555
K11 S4 4.074088 1_555
K12 S22 3.164639 1_554
K12 S28 3.202943 1_655
K12 S42 3.283212 1_654
K12 S34 3.285168 1_654
K12 S32 3.303378 1_555
K12 S14 3.605166 1_554
K12 S0 3.716256 1_555
K12 S12 3.826702 1_655
K12 S40 4.231324 1_545
K13 S23 3.164639 1_556
K13 S29 3.202943 1_555
K13 S43 3.283212 1_556
K13 S35 3.285168 1_556
K13 S33 3.303378 1_545
K13 S15 3.605166 1_546
K13 S1 3.716256 1_555
K13 S13 3.826702 1_555
K13 S41 4.231324 1_555
K14 S20 3.164639 1_556
K14 S30 3.202943 1_455
K14 S40 3.283212 1_456
K14 S32 3.285168 1_456
K14 S34 3.303378 1_555
K14 S12 3.605166 1_556
K14 S2 3.716256 1_555
K14 S14 3.826702 1_455
K14 S42 4.231324 1_565
K15 S21 3.164639 1_554
K15 S31 3.202943 1_555
K15 S41 3.283212 1_554
K15 S33 3.285168 1_554
K15 S35 3.303378 1_565
K15 S13 3.605166 1_564
K15 S3 3.716256 1_555
K15 S15 3.826702 1_555
K15 S43 4.231324 1_555
K16 S20 3.223721 1_555
K16 S31 3.248163 1_555
K16 S7 3.305138 1_555
K16 S44 3.315997 1_555
K16 S15 3.316686 1_555
K16 S39 3.398530 1_555
K16 S33 4.096926 1_554
K17 S21 3.223721 1_555
K17 S30 3.248163 1_555
K17 S6 3.305138 1_555
K17 S45 3.315997 1_555
K17 S14 3.316686 1_555
K17 S38 3.398530 1_555
K17 S32 4.096926 1_556
K18 S22 3.223721 1_555
K18 S29 3.248163 1_555
K18 S5 3.305138 1_555
K18 S46 3.315997 1_555
K18 S13 3.316686 1_555
K18 S37 3.398530 1_555
K18 S35 4.096926 1_556
K19 S23 3.223721 1_555
K19 S28 3.248163 1_555
K19 S4 3.305138 1_555
K19 S47 3.315997 1_555
K19 S12 3.316686 1_555
K19 S36 3.398530 1_555
K19 S34 4.096926 1_554
P0 S32 2.021178 1_555
P0 S0 2.029345 1_555
P0 S24 2.082685 1_555
P0 S12 2.111147 1_655
P1 S33 2.021178 1_545
P1 S1 2.029345 1_555
P1 S25 2.082685 1_545
P1 S13 2.111147 1_555
P2 S34 2.021178 1_555
P2 S2 2.029345 1_555
P2 S26 2.082685 1_555
P2 S14 2.111147 1_455
P3 S35 2.021178 1_565
P3 S3 2.029345 1_555
P3 S27 2.082685 1_565
P3 S15 2.111147 1_555
P4 S20 2.020089 1_555
P4 S28 2.026837 1_565
P4 S40 2.090010 1_455
P4 S44 2.092365 1_555
P5 S21 2.020089 1_555
P5 S29 2.026837 1_555
P5 S41 2.090010 1_555
P5 S45 2.092365 1_555
P6 S22 2.020089 1_555
P6 S30 2.026837 1_545
P6 S42 2.090010 1_655
P6 S46 2.092365 1_555
P7 S23 2.020089 1_555
P7 S31 2.026837 1_555
P7 S43 2.090010 1_555
P7 S47 2.092365 1_555
P8 S4 2.014441 1_555
P8 S18 2.052010 1_555
P8 S36 2.070112 1_555
P8 S8 2.099455 1_455
P9 S5 2.014441 1_555
P9 S19 2.052010 1_555
P9 S37 2.070112 1_555
P9 S9 2.099455 1_555
P10 S6 2.014441 1_555
P10 S16 2.052010 1_555
P10 S38 2.070112 1_555
P10 S10 2.099455 1_655
P11 S7 2.014441 1_555
P11 S17 2.052010 1_555
P11 S39 2.070112 1_555
P11 S11 2.099455 1_555
S8 U0 2.891512 1_655
S8 U2 3.057820 1_555
S9 U1 2.891512 1_545
S9 U3 3.057820 1_555
S10 U2 2.891512 1_455
S10 U0 3.057820 1_555
S11 U3 2.891512 1_565
S11 U1 3.057820 1_555
S12 U0 2.793666 1_555
S13 U1 2.793666 1_545
S14 U2 2.793666 1_555
S15 U3 2.793666 1_565
S16 U0 2.877872 1_655
S17 U1 2.877872 1_555
S18 U2 2.877872 1_455
S19 U3 2.877872 1_555
S24 U0 2.795590 1_655
S25 U1 2.795590 1_555
S26 U2 2.795590 1_455
S27 U3 2.795590 1_555
S36 U0 2.863368 1_555
S37 U1 2.863368 1_545
S38 U2 2.863368 1_555
S39 U3 2.863368 1_565
S40 U0 2.842505 1_655
S41 U1 2.842505 1_555
S42 U2 2.842505 1_455
S43 U3 2.842505 1_555
S44 U0 2.828357 1_555
S45 U1 2.828357 1_555
S46 U2 2.828357 1_555
S47 U3 2.828357 1_555
