# generated using pymatgen
data_Li9Mn2Co5O16
_symmetry_space_group_name_H-M   'P 1'
_cell_length_a   3.01877200
_cell_length_b   6.42240166
_cell_length_c   15.47105817
_cell_angle_alpha   88.78694915
_cell_angle_beta   86.47365811
_cell_angle_gamma   76.59936830
_symmetry_Int_Tables_number   1
_chemical_formula_structural   Li9Mn2Co5O16
_chemical_formula_sum   'Li9 Mn2 Co5 O16'
_cell_volume   291.22279791
_cell_formula_units_Z   1
loop_
 _symmetry_equiv_pos_site_id
 _symmetry_equiv_pos_as_xyz
  1  'x, y, z'
loop_
 _atom_site_type_symbol
 _atom_site_label
 _atom_site_symmetry_multiplicity
 _atom_site_fract_x
 _atom_site_fract_y
 _atom_site_fract_z
 _atom_site_occupancy
  Li  Li0  1  0.93749400  0.12526400  0.81255100  1
  Li  Li1  1  0.18154000  0.63059000  0.56050800  1
  Li  Li2  1  0.43267700  0.12909500  0.31012700  1
  Li  Li3  1  0.56573100  0.87221700  0.68654400  1
  Li  Li4  1  0.80368400  0.37978000  0.43684900  1
  Li  Li5  1  0.07050000  0.87118400  0.19130500  1
  Li  Li6  1  0.69971200  0.61329600  0.06367900  1
  Li  Li7  1  0.31151700  0.37797700  0.93891900  1
  Li  Li8  1  0.74873000  0.50140700  0.25082600  1
  Mn  Mn0  1  0.98696500  0.00120900  0.00255700  1
  Mn  Mn1  1  0.89182100  0.24827500  0.62258500  1
  Co  Co0  1  0.25784300  0.50201100  0.75001400  1
  Co  Co1  1  0.50070700  0.99690300  0.49723300  1
  Co  Co2  1  0.12174100  0.74042300  0.37010200  1
  Co  Co3  1  0.37857300  0.26055600  0.13207200  1
  Co  Co4  1  0.61672200  0.74875300  0.87494900  1
  O  O0  1  0.42828900  0.04865600  0.90798600  1
  O  O1  1  0.75861100  0.54779400  0.65929400  1
  O  O2  1  0.94767100  0.03660100  0.40895100  1
  O  O3  1  0.11298300  0.79653900  0.78368100  1
  O  O4  1  0.32781800  0.29468400  0.53041000  1
  O  O5  1  0.55787800  0.80829800  0.29030600  1
  O  O6  1  0.23040900  0.53378000  0.15178300  1
  O  O7  1  0.82238400  0.29783600  0.03611900  1
  O  O8  1  0.45108600  0.20183000  0.71677800  1
  O  O9  1  0.66947400  0.70662100  0.46338700  1
  O  O10  1  0.93544600  0.19398800  0.21174500  1
  O  O11  1  0.06319100  0.94821600  0.58802200  1
  O  O12  1  0.26635000  0.46708700  0.34932100  1
  O  O13  1  0.54492500  0.96171800  0.09502100  1
  O  O14  1  0.11574200  0.70340100  0.96524400  1
  O  O15  1  0.76179000  0.45400800  0.84112700  1
loop_
_geom_bond_atom_site_label_1
_geom_bond_atom_site_label_2
_geom_bond_distance
_geom_bond_site_symmetry_2
Li0 O15 2.103826 1_555
Li0 O3 2.104692 1_645
Li0 O8 2.120247 1_555
Li0 O0 2.125478 1_655
Li0 O0 2.196719 1_555
Li0 O8 2.209298 1_655
Li1 O11 2.037244 1_555
Li1 O1 2.070942 1_455
Li1 O4 2.154424 1_555
Li1 O9 2.166983 1_555
Li1 O9 2.188711 1_455
Li1 O1 2.348828 1_555
Li2 O5 2.033033 1_545
Li2 O10 2.169726 1_455
Li2 O10 2.185432 1_555
Li2 O12 2.201114 1_555
Li2 O2 2.218877 1_455
Li2 O2 2.221094 1_555
Li3 O1 2.074298 1_555
Li3 O3 2.094510 1_555
Li3 O8 2.121859 1_565
Li3 O11 2.184658 1_555
Li3 O11 2.200767 1_655
Li3 O3 2.264106 1_655
Li4 O12 2.048670 1_655
Li4 O9 2.088249 1_555
Li4 O4 2.128883 1_555
Li4 O12 2.143776 1_555
Li4 O4 2.178261 1_655
Li4 O2 2.192288 1_555
Li5 O10 2.045581 1_465
Li5 O5 2.156231 1_555
Li5 O13 2.166807 1_555
Li5 O6 2.199425 1_555
Li5 O5 2.208105 1_455
Li5 O13 2.213767 1_455
Li6 O7 2.023128 1_555
Li6 O6 2.047964 1_555
Li6 O14 2.072596 1_654
Li6 O6 2.131957 1_655
Li6 O13 2.234771 1_555
Li6 O14 2.362601 1_554
Li7 O14 2.077779 1_555
Li7 O15 2.097249 1_555
Li7 O0 2.122067 1_555
Li7 O7 2.180121 1_456
Li7 O7 2.188432 1_556
Li7 O15 2.276699 1_455
Li8 O5 2.017695 1_555
Li8 O10 2.018464 1_555
Li8 O12 2.086314 1_555
Li8 O6 2.087599 1_655
Li8 O12 2.220655 1_655
Li8 O6 2.229370 1_555
Mn0 O7 1.927986 1_555
Mn0 O13 1.948862 1_545
Mn0 O14 1.953732 1_644
Mn0 O0 1.984433 1_654
Mn0 O13 2.242940 1_645
Mn0 O0 2.263703 1_554
Mn1 O4 1.946204 1_655
Mn1 O11 1.953144 1_645
Mn1 O1 1.960667 1_555
Mn1 O8 1.977325 1_555
Mn1 O4 2.250941 1_555
Mn1 O8 2.261361 1_655
Co0 O3 1.915953 1_555
Co0 O8 1.950696 1_555
Co0 O15 2.064073 1_455
Co0 O1 2.066197 1_555
Co0 O1 2.089246 1_455
Co0 O15 2.103431 1_555
Co1 O9 1.891470 1_555
Co1 O2 1.915471 1_565
Co1 O4 1.933738 1_565
Co1 O11 1.938997 1_555
Co1 O2 2.187719 1_465
Co1 O11 2.232177 1_655
Co2 O12 1.739840 1_555
Co2 O5 1.868372 1_555
Co2 O2 1.949842 1_465
Co2 O9 1.968693 1_455
Co2 O5 2.122089 1_455
Co2 O9 2.231124 1_555
Co3 O6 1.736172 1_555
Co3 O10 1.879234 1_455
Co3 O13 1.956717 1_545
Co3 O7 1.986201 1_555
Co3 O10 2.104189 1_555
Co3 O7 2.277135 1_455
Co4 O15 1.917922 1_555
Co4 O0 1.947496 1_565
Co4 O14 2.061693 1_555
Co4 O3 2.065626 1_655
Co4 O14 2.084208 1_655
Co4 O3 2.104729 1_555
