# generated using pymatgen
data_Li9Mn2Co5O16
_symmetry_space_group_name_H-M   'P 1'
_cell_length_a   5.00401900
_cell_length_b   5.92128982
_cell_length_c   10.17707059
_cell_angle_alpha   105.10694322
_cell_angle_beta   100.10820873
_cell_angle_gamma   91.24587446
_symmetry_Int_Tables_number   1
_chemical_formula_structural   Li9Mn2Co5O16
_chemical_formula_sum   'Li9 Mn2 Co5 O16'
_cell_volume   285.88567365
_cell_formula_units_Z   1
loop_
 _symmetry_equiv_pos_site_id
 _symmetry_equiv_pos_as_xyz
  1  'x, y, z'
loop_
 _atom_site_type_symbol
 _atom_site_label
 _atom_site_symmetry_multiplicity
 _atom_site_fract_x
 _atom_site_fract_y
 _atom_site_fract_z
 _atom_site_occupancy
  Li  Li0  1  0.25820600  0.87664500  0.74761900  1
  Li  Li1  1  0.25270600  0.38675900  0.25452900  1
  Li  Li2  1  0.74467400  0.62214300  0.74439100  1
  Li  Li3  1  0.74030700  0.12750600  0.25332800  1
  Li  Li4  1  0.24972600  0.36951000  0.74872300  1
  Li  Li5  1  0.25470300  0.86941600  0.25707300  1
  Li  Li6  1  0.74675400  0.12500500  0.74566700  1
  Li  Li7  1  0.75065600  0.62378400  0.24961500  1
  Li  Li8  1  0.50091700  0.75064500  0.49882300  1
  Mn  Mn0  1  0.99897200  0.99962500  0.99924300  1
  Mn  Mn1  1  0.00070000  0.50241200  0.49940500  1
  Co  Co0  1  0.50038700  0.74701700  0.99931000  1
  Co  Co1  1  0.50083100  0.25258600  0.50104900  1
  Co  Co2  1  0.00067600  0.50010500  0.00073500  1
  Co  Co3  1  0.00599600  0.99411200  0.49883800  1
  Co  Co4  1  0.49846900  0.25236000  0.00053600  1
  O  O0  1  0.13602500  0.17550600  0.88183800  1
  O  O1  1  0.10673800  0.67746300  0.38128700  1
  O  O2  1  0.63759200  0.94023100  0.87997100  1
  O  O3  1  0.63602900  0.42813700  0.39037300  1
  O  O4  1  0.13957700  0.66800800  0.88475600  1
  O  O5  1  0.12942900  0.20032600  0.39344000  1
  O  O6  1  0.64439200  0.44519200  0.88722300  1
  O  O7  1  0.63231300  0.97779100  0.39797900  1
  O  O8  1  0.36651200  0.52942100  0.60720800  1
  O  O9  1  0.36069900  0.05753800  0.11581600  1
  O  O10  1  0.85834800  0.32118200  0.61355900  1
  O  O11  1  0.86003100  0.82529500  0.11762900  1
  O  O12  1  0.36177800  0.07563500  0.60988200  1
  O  O13  1  0.35772600  0.55503900  0.11603700  1
  O  O14  1  0.90588700  0.79389400  0.60926600  1
  O  O15  1  0.86224400  0.32971400  0.11485100  1
loop_
_geom_bond_atom_site_label_1
_geom_bond_atom_site_label_2
_geom_bond_distance
_geom_bond_site_symmetry_2
Li0 O14 2.015517 1_455
Li0 O2 2.089775 1_555
Li0 O0 2.109857 1_565
Li0 O12 2.170541 1_565
Li0 O4 2.232508 1_555
Li0 O8 2.313391 1_555
Li1 O13 2.055444 1_555
Li1 O1 2.094917 1_555
Li1 O3 2.126690 1_555
Li1 O5 2.165115 1_555
Li1 O15 2.167608 1_455
Li1 O9 2.228063 1_555
Li2 O10 2.084549 1_555
Li2 O8 2.111736 1_555
Li2 O6 2.118893 1_555
Li2 O14 2.158441 1_555
Li2 O2 2.165020 1_555
Li2 O4 2.191560 1_655
Li3 O7 2.045419 1_545
Li3 O3 2.094776 1_555
Li3 O9 2.113986 1_555
Li3 O11 2.125384 1_545
Li3 O5 2.163119 1_655
Li3 O15 2.222978 1_555
Li4 O8 2.072316 1_555
Li4 O12 2.092337 1_555
Li4 O4 2.092657 1_555
Li4 O0 2.128835 1_555
Li4 O10 2.152784 1_455
Li4 O6 2.177849 1_555
Li5 O1 2.116371 1_555
Li5 O7 2.134275 1_555
Li5 O9 2.159967 1_565
Li5 O13 2.167939 1_555
Li5 O11 2.187034 1_455
Li5 O5 2.258247 1_565
Li6 O2 2.092658 1_545
Li6 O10 2.125603 1_555
Li6 O12 2.129955 1_555
Li6 O0 2.148353 1_655
Li6 O6 2.193139 1_555
Li6 O14 2.332881 1_545
Li7 O1 1.996725 1_655
Li7 O15 2.071507 1_555
Li7 O11 2.143045 1_555
Li7 O13 2.149027 1_555
Li7 O3 2.201751 1_555
Li7 O7 2.396366 1_555
Li8 O7 2.052446 1_555
Li8 O8 2.088111 1_555
Li8 O1 2.091347 1_555
Li8 O14 2.112680 1_555
Li8 O3 2.131090 1_555
Li8 O12 2.160136 1_565
Mn0 O9 1.951579 1_666
Mn0 O2 1.961265 1_555
Mn0 O0 1.971744 1_665
Mn0 O11 1.977786 1_556
Mn0 O15 2.194245 1_566
Mn0 O4 2.205361 1_655
Mn1 O1 1.910609 1_555
Mn1 O14 1.915730 1_455
Mn1 O3 1.937687 1_455
Mn1 O8 1.941894 1_555
Mn1 O10 1.978823 1_455
Mn1 O5 2.016427 1_555
Co0 O4 1.943700 1_555
Co0 O11 1.953389 1_556
Co0 O13 2.044337 1_556
Co0 O2 2.058682 1_555
Co0 O6 2.072790 1_555
Co0 O9 2.117940 1_566
Co1 O7 1.892068 1_545
Co1 O12 1.911158 1_555
Co1 O3 1.911571 1_555
Co1 O10 1.919268 1_555
Co1 O8 1.919827 1_555
Co1 O5 1.957817 1_555
Co2 O6 1.916995 1_454
Co2 O15 1.925964 1_455
Co2 O13 1.927394 1_555
Co2 O4 1.932438 1_554
Co2 O0 2.179254 1_554
Co2 O11 2.185655 1_455
Co3 O12 1.910970 1_565
Co3 O14 1.945700 1_455
Co3 O7 1.956076 1_455
Co3 O5 1.976234 1_565
Co3 O1 2.069891 1_555
Co3 O10 2.201391 1_465
Co4 O15 1.954359 1_555
Co4 O0 1.965781 1_554
Co4 O6 2.027918 1_554
Co4 O9 2.034029 1_555
Co4 O13 2.082606 1_555
Co4 O2 2.140045 1_544
