# generated using pymatgen
data_ZnS
_symmetry_space_group_name_H-M   'P 1'
_cell_length_a   13.04084007
_cell_length_b   14.29959025
_cell_length_c   13.05909939
_cell_angle_alpha   82.25687911
_cell_angle_beta   96.76129244
_cell_angle_gamma   90.45961364
_symmetry_Int_Tables_number   1
_chemical_formula_structural   ZnS
_chemical_formula_sum   'Zn50 S50'
_cell_volume   2396.18102104
_cell_formula_units_Z   50
loop_
 _symmetry_equiv_pos_site_id
 _symmetry_equiv_pos_as_xyz
  1  'x, y, z'
loop_
 _atom_site_type_symbol
 _atom_site_label
 _atom_site_symmetry_multiplicity
 _atom_site_fract_x
 _atom_site_fract_y
 _atom_site_fract_z
 _atom_site_occupancy
  Zn  Zn0  1  0.40702322  0.28910948  0.09041103  1
  Zn  Zn1  1  0.50368346  0.31111749  0.45776117  1
  Zn  Zn2  1  0.52682203  0.37290990  0.19474973  1
  Zn  Zn3  1  0.04933219  0.84409788  0.06779080  1
  Zn  Zn4  1  0.57157744  0.06534213  0.58059682  1
  Zn  Zn5  1  0.57807559  0.72961654  0.02832438  1
  Zn  Zn6  1  0.66596933  0.95225243  0.17423192  1
  Zn  Zn7  1  0.87376849  0.32956200  0.41469245  1
  Zn  Zn8  1  0.70031000  0.96821727  0.72742581  1
  Zn  Zn9  1  0.29194824  0.83719125  0.03588007  1
  Zn  Zn10  1  0.52295651  0.98879343  0.35195830  1
  Zn  Zn11  1  0.90947391  0.24103665  0.89615774  1
  Zn  Zn12  1  0.25039283  0.60564102  0.64027310  1
  Zn  Zn13  1  0.83846484  0.70572047  0.21513556  1
  Zn  Zn14  1  0.77442579  0.42206141  0.75361890  1
  Zn  Zn15  1  0.58602148  0.38476303  0.91314845  1
  Zn  Zn16  1  0.39332070  0.68736761  0.04914142  1
  Zn  Zn17  1  0.84097703  0.09954768  0.58016642  1
  Zn  Zn18  1  0.98384145  0.19482331  0.16735237  1
  Zn  Zn19  1  0.48844744  0.69393540  0.86007511  1
  Zn  Zn20  1  0.18777243  0.94887499  0.29252579  1
  Zn  Zn21  1  0.27669035  0.86731244  0.69197217  1
  Zn  Zn22  1  0.73592927  0.54288861  0.93936705  1
  Zn  Zn23  1  0.96361989  0.10408550  0.37497628  1
  Zn  Zn24  1  0.53760820  0.57055202  0.36649362  1
  Zn  Zn25  1  0.98954968  0.85499108  0.31272963  1
  Zn  Zn26  1  0.74822929  0.91590535  0.93158679  1
  Zn  Zn27  1  0.99770407  0.45286785  0.43896087  1
  Zn  Zn28  1  0.59995297  0.57995243  0.64867883  1
  Zn  Zn29  1  0.25778575  0.10563198  0.86274440  1
  Zn  Zn30  1  0.10381021  0.87792098  0.46430144  1
  Zn  Zn31  1  0.39310998  0.26153951  0.73384439  1
  Zn  Zn32  1  0.73127168  0.11753923  0.33249162  1
  Zn  Zn33  1  0.14543430  0.10923127  0.00856554  1
  Zn  Zn34  1  0.66980091  0.76452381  0.82081947  1
  Zn  Zn35  1  0.55871766  0.89632066  0.83671000  1
  Zn  Zn36  1  0.72537011  0.78300641  0.38142768  1
  Zn  Zn37  1  0.16480746  0.65911733  0.33931395  1
  Zn  Zn38  1  0.32004021  0.44823541  0.90005616  1
  Zn  Zn39  1  0.24939403  0.22705088  0.27958135  1
  Zn  Zn40  1  0.92160460  0.64342614  0.71499308  1
  Zn  Zn41  1  0.29612323  0.82713641  0.41948208  1
  Zn  Zn42  1  0.01786337  0.44337842  0.73149062  1
  Zn  Zn43  1  0.99566979  0.92038021  0.69368550  1
  Zn  Zn44  1  0.59772580  0.88842028  0.56995138  1
  Zn  Zn45  1  0.81094688  0.34425830  0.02406832  1
  Zn  Zn46  1  0.81388474  0.57639044  0.51075382  1
  Zn  Zn47  1  0.21782589  0.63759114  0.89360689  1
  Zn  Zn48  1  0.11911125  0.21583866  0.81500519  1
  Zn  Zn49  1  0.27315783  0.43212015  0.43140202  1
  S  S0  1  0.35988532  0.98443626  0.93209589  1
  S  S1  1  0.63917231  0.18700783  0.45616212  1
  S  S2  1  0.67900182  0.42433397  0.06858683  1
  S  S3  1  0.32449076  0.71099331  0.76074689  1
  S  S4  1  0.32608528  0.28162670  0.42414879  1
  S  S5  1  0.80818294  0.86530463  0.24963273  1
  S  S6  1  0.41315545  0.02992784  0.47070716  1
  S  S7  1  0.13647184  0.95743897  0.60800419  1
  S  S8  1  0.95126095  0.10016148  0.01988390  1
  S  S9  1  0.58826262  0.42041392  0.35061921  1
  S  S10  1  0.17922443  0.50821382  0.77972635  1
  S  S11  1  0.88043264  0.52473144  0.84249959  1
  S  S12  1  0.02203867  0.76543471  0.77226877  1
  S  S13  1  0.57691285  0.54972944  0.82486600  1
  S  S14  1  0.17751959  0.71669733  0.50256504  1
  S  S15  1  0.98298529  0.31973189  0.03776814  1
  S  S16  1  0.18198789  0.95137800  0.10584606  1
  S  S17  1  0.42320250  0.31943758  0.89875703  1
  S  S18  1  0.60439363  0.89253384  0.02648270  1
  S  S19  1  0.76535092  0.24703624  0.54104639  1
  S  S20  1  0.46228854  0.61382784  0.51528945  1
  S  S21  1  0.97038793  0.28730115  0.73793491  1
  S  S22  1  0.10780703  0.11532785  0.29612309  1
  S  S23  1  0.24146811  0.19261973  0.69809013  1
  S  S24  1  0.25435081  0.21580909  0.11107275  1
  S  S25  1  0.98531067  0.55313828  0.58079105  1
  S  S26  1  0.41645090  0.64558039  0.23824649  1
  S  S27  1  0.67788374  0.73969661  0.65017713  1
  S  S28  1  0.31002563  0.53990989  0.02628777  1
  S  S29  1  0.36605615  0.50301980  0.57157634  1
  S  S30  1  0.31030408  0.74264229  0.27564429  1
  S  S31  1  0.01663499  0.72998246  0.20989206  1
  S  S32  1  0.56766204  0.83554108  0.40432979  1
  S  S33  1  0.91010607  0.95779678  0.01149017  1
  S  S34  1  0.81399089  0.74203766  0.57638605  1
  S  S35  1  0.84609164  0.01092263  0.44757919  1
  S  S36  1  0.87660256  0.01850758  0.73882056  1
  S  S37  1  0.73745381  0.62788472  0.34193502  1
  S  S38  1  0.13073995  0.50046942  0.33975542  1
  S  S39  1  0.70291753  0.47448136  0.59136851  1
  S  S40  1  0.75847078  0.66742661  0.04869661  1
  S  S41  1  0.40124711  0.89338961  0.55359072  1
  S  S42  1  0.55203403  0.15273856  0.71348346  1
  S  S43  1  0.11261942  0.76289351  0.92056555  1
  S  S44  1  0.82561836  0.75771217  0.93473680  1
  S  S45  1  0.59099577  0.07951025  0.22038231  1
  S  S46  1  0.39921414  0.96083686  0.78745586  1
  S  S47  1  0.72764611  0.29316432  0.86317550  1
  S  S48  1  0.53383691  0.29722824  0.64561054  1
  S  S49  1  0.85267377  0.23073676  0.27809926  1
loop_
_geom_bond_atom_site_label_1
_geom_bond_atom_site_label_2
_geom_bond_distance
_geom_bond_site_symmetry_2
Zn0 Zn2 2.375281 1_555
Zn4 Zn44 2.579889 1_545
Zn4 Zn8 2.643043 1_545
Zn11 Zn45 2.796419 1_556
Zn11 Zn48 3.086713 1_655
Zn16 Zn9 2.501825 1_555
Zn16 Zn5 2.516053 1_555
Zn16 Zn19 2.881100 1_554
Zn16 Zn47 3.023035 1_554
Zn18 Zn23 2.884364 1_555
Zn19 Zn5 2.478288 1_556
Zn19 Zn34 2.642469 1_555
Zn19 Zn35 3.015558 1_555
Zn20 Zn41 2.546731 1_555
Zn20 Zn30 2.684708 1_555
Zn20 Zn25 2.926359 1_455
Zn22 Zn45 3.031706 1_556
Zn25 Zn30 2.391302 1_655
Zn26 Zn35 2.661338 1_555
Zn26 Zn8 2.671375 1_555
Zn27 Zn7 2.409528 1_555
Zn29 Zn48 2.378675 1_555
Zn29 Zn33 2.541704 1_556
Zn30 Zn41 2.765685 1_555
Zn33 Zn48 2.756245 1_554
Zn34 Zn35 2.431749 1_555
Zn34 Zn8 3.044376 1_555
Zn35 Zn8 2.588033 1_555
Zn44 Zn8 2.698298 1_555
S0 S46 2.085042 1_555
S0 Zn29 2.219601 1_565
S0 Zn9 2.557144 1_556
S1 S19 2.115999 1_555
S1 Zn32 2.438404 1_555
S1 Zn4 2.448540 1_555
S1 Zn1 2.518121 1_555
S2 Zn45 2.248642 1_555
S2 Zn15 2.372724 1_554
S2 Zn22 2.403470 1_554
S2 Zn2 2.759294 1_555
S3 Zn21 2.354004 1_555
S3 Zn19 2.362992 1_555
S3 Zn12 2.436352 1_555
S3 Zn47 2.470030 1_555
S4 Zn39 2.261288 1_555
S4 Zn49 2.282675 1_555
S4 Zn1 2.351454 1_555
S5 Zn6 2.287356 1_555
S5 Zn36 2.320554 1_555
S5 Zn25 2.410127 1_555
S5 Zn13 2.428937 1_555
S6 Zn10 2.362904 1_545
S6 Zn4 2.462714 1_555
S7 Zn43 2.283142 1_455
S7 Zn30 2.318428 1_555
S7 Zn21 2.322041 1_555
S8 Zn11 2.428759 1_554
S8 Zn18 2.494414 1_555
S8 Zn33 2.555057 1_655
S9 Zn2 2.286167 1_555
S9 Zn24 2.294232 1_555
S9 Zn1 2.315898 1_555
S10 Zn42 2.344847 1_555
S10 Zn38 2.357906 1_555
S10 Zn12 2.410887 1_555
S10 Zn47 2.537307 1_555
S11 Zn40 2.318625 1_555
S11 Zn14 2.337208 1_555
S11 Zn22 2.424137 1_555
S11 Zn42 2.786852 1_655
S12 S43 2.142485 1_555
S12 Zn43 2.323135 1_455
S12 Zn40 2.324452 1_455
S13 Zn28 2.337455 1_555
S13 Zn22 2.404040 1_555
S13 Zn15 2.479381 1_555
S13 Zn19 2.492612 1_555
S14 Zn12 2.347624 1_555
S14 Zn37 2.374461 1_555
S14 Zn41 2.440835 1_555
S14 Zn30 2.469961 1_555
S15 Zn45 2.256019 1_555
S15 Zn18 2.288129 1_555
S15 Zn11 2.394008 1_554
S16 Zn3 2.356574 1_555
S16 Zn20 2.425573 1_555
S16 Zn33 2.457278 1_565
S16 Zn9 2.511040 1_555
S17 Zn38 2.292552 1_555
S17 Zn15 2.310373 1_555
S17 Zn31 2.398694 1_555
S17 Zn0 2.515381 1_556
S18 Zn6 2.272678 1_555
S18 Zn5 2.349396 1_555
S18 Zn26 2.364640 1_554
S18 Zn35 2.473110 1_554
S19 Zn17 2.303482 1_555
S19 Zn7 2.472281 1_555
S20 S29 2.120694 1_555
S20 Zn28 2.354187 1_555
S20 Zn24 2.430371 1_555
S21 Zn48 2.261375 1_655
S21 Zn42 2.304559 1_655
S21 Zn11 2.312527 1_555
S22 Zn23 2.242389 1_455
S22 Zn18 2.368075 1_455
S22 Zn39 2.441682 1_555
S22 Zn20 2.614679 1_545
S23 Zn31 2.230524 1_555
S23 Zn29 2.322034 1_555
S23 Zn48 2.388760 1_555
S24 Zn39 2.236406 1_555
S24 Zn0 2.269856 1_555
S24 Zn33 2.489851 1_555
S25 Zn46 2.322337 1_555
S25 Zn42 2.344841 1_655
S25 Zn27 2.510448 1_555
S25 Zn40 2.529486 1_555
S26 S30 2.110380 1_555
S26 Zn24 2.317822 1_555
S26 Zn16 2.444695 1_555
S27 S34 2.115015 1_555
S27 Zn34 2.317793 1_555
S27 Zn44 2.427043 1_555
S27 Zn28 2.494243 1_555
S28 Zn38 2.255824 1_554
S28 Zn47 2.298517 1_554
S28 Zn16 2.402417 1_555
S29 Zn49 2.409283 1_555
S29 Zn12 2.437661 1_555
S30 Zn41 2.391509 1_555
S30 Zn37 2.405308 1_555
S30 Zn9 3.221342 1_555
S31 Zn13 2.354099 1_455
S31 Zn3 2.376437 1_555
S31 Zn25 2.427436 1_455
S31 Zn37 2.533394 1_555
S32 Zn36 2.261359 1_555
S32 Zn10 2.265572 1_555
S32 Zn44 2.374815 1_555
S33 S8 2.114973 1_565
S33 Zn26 2.352337 1_554
S33 Zn3 2.427214 1_655
S34 Zn40 2.445420 1_555
S34 Zn46 2.625268 1_555
S34 Zn36 2.660256 1_555
S35 Zn23 2.234235 1_555
S35 Zn17 2.286553 1_555
S35 Zn32 2.390502 1_555
S36 Zn17 2.233035 1_555
S36 Zn43 2.280494 1_545
S36 Zn8 2.397178 1_545
S37 Zn46 2.335154 1_555
S37 Zn36 2.354599 1_555
S37 Zn13 2.389441 1_555
S37 Zn24 2.767437 1_555
S38 Zn49 2.242215 1_555
S38 Zn37 2.307567 1_555
S38 Zn27 2.329009 1_455
S39 Zn14 2.244765 1_555
S39 Zn28 2.282766 1_555
S39 Zn46 2.288559 1_555
S40 S44 2.102223 1_554
S40 Zn22 2.423671 1_554
S40 Zn13 2.426940 1_555
S40 Zn5 2.493659 1_555
S41 S6 2.114937 1_565
S41 Zn41 2.388523 1_555
S41 Zn44 2.546711 1_555
S41 Zn21 2.557950 1_555
S42 S48 2.139101 1_555
S42 Zn4 2.309110 1_555
S42 Zn31 2.660728 1_555
S42 Zn8 3.256336 1_545
S43 Zn47 2.353694 1_555
S43 Zn3 2.591643 1_556
S43 Zn9 2.903025 1_556
S44 Zn34 2.367263 1_555
S44 Zn26 2.477716 1_555
S45 Zn6 2.256859 1_545
S45 Zn10 2.272087 1_545
S45 Zn32 2.313762 1_555
S46 Zn35 2.268773 1_555
S46 Zn21 2.417089 1_555
S47 Zn14 2.300711 1_555
S47 Zn45 2.447867 1_556
S47 Zn11 2.462729 1_555
S47 Zn15 2.470938 1_555
S48 Zn31 2.297939 1_555
S48 Zn1 2.419672 1_555
S49 Zn32 2.354783 1_555
S49 Zn7 2.410821 1_555
S49 Zn23 2.442834 1_555
S49 Zn18 2.465373 1_555
