# generated using pymatgen
data_Rb3Sc2(AsO4)3
_symmetry_space_group_name_H-M   'P 1'
_cell_length_a   17.19958466
_cell_length_b   17.19958466
_cell_length_c   17.19958466
_cell_angle_alpha   90.00000000
_cell_angle_beta   90.00000000
_cell_angle_gamma   90.00000000
_symmetry_Int_Tables_number   1
_chemical_formula_structural   Rb3Sc2(AsO4)3
_chemical_formula_sum   'Rb48 Sc32 As48 O192'
_cell_volume   5088.07938634
_cell_formula_units_Z   16
loop_
 _symmetry_equiv_pos_site_id
 _symmetry_equiv_pos_as_xyz
  1  'x, y, z'
loop_
 _atom_site_type_symbol
 _atom_site_label
 _atom_site_symmetry_multiplicity
 _atom_site_fract_x
 _atom_site_fract_y
 _atom_site_fract_z
 _atom_site_occupancy
  Rb  Rb0  1  0.49443219  0.74513624  0.99756794  1
  Rb  Rb1  1  0.50556781  0.24513624  0.50243206  1
  Rb  Rb2  1  0.00556781  0.25486376  0.49756794  1
  Rb  Rb3  1  0.99443219  0.75486376  0.00243206  1
  Rb  Rb4  1  0.99756794  0.49443219  0.74513624  1
  Rb  Rb5  1  0.50243206  0.50556781  0.24513624  1
  Rb  Rb6  1  0.49756794  0.00556781  0.25486376  1
  Rb  Rb7  1  0.00243206  0.99443219  0.75486376  1
  Rb  Rb8  1  0.74513624  0.99756794  0.49443219  1
  Rb  Rb9  1  0.24513624  0.50243206  0.50556781  1
  Rb  Rb10  1  0.25486376  0.49756794  0.00556781  1
  Rb  Rb11  1  0.75486376  0.00243206  0.99443219  1
  Rb  Rb12  1  0.50556781  0.25486376  0.00243206  1
  Rb  Rb13  1  0.49443219  0.75486376  0.49756794  1
  Rb  Rb14  1  0.99443219  0.74513624  0.50243206  1
  Rb  Rb15  1  0.00556781  0.24513624  0.99756794  1
  Rb  Rb16  1  0.00243206  0.50556781  0.25486376  1
  Rb  Rb17  1  0.49756794  0.49443219  0.75486376  1
  Rb  Rb18  1  0.50243206  0.99443219  0.74513624  1
  Rb  Rb19  1  0.99756794  0.00556781  0.24513624  1
  Rb  Rb20  1  0.25486376  0.00243206  0.50556781  1
  Rb  Rb21  1  0.75486376  0.49756794  0.49443219  1
  Rb  Rb22  1  0.74513624  0.50243206  0.99443219  1
  Rb  Rb23  1  0.24513624  0.99756794  0.00556781  1
  Rb  Rb24  1  0.36951571  0.63048429  0.13048429  1
  Rb  Rb25  1  0.63048429  0.13048429  0.36951571  1
  Rb  Rb26  1  0.13048429  0.36951571  0.63048429  1
  Rb  Rb27  1  0.86951571  0.86951571  0.86951571  1
  Rb  Rb28  1  0.63048429  0.36951571  0.86951571  1
  Rb  Rb29  1  0.36951571  0.86951571  0.63048429  1
  Rb  Rb30  1  0.86951571  0.63048429  0.36951571  1
  Rb  Rb31  1  0.13048429  0.13048429  0.13048429  1
  Rb  Rb32  1  0.24808283  0.75191717  0.25191717  1
  Rb  Rb33  1  0.75191717  0.25191717  0.24808283  1
  Rb  Rb34  1  0.25191717  0.24808283  0.75191717  1
  Rb  Rb35  1  0.74808283  0.74808283  0.74808283  1
  Rb  Rb36  1  0.75191717  0.24808283  0.74808283  1
  Rb  Rb37  1  0.24808283  0.74808283  0.75191717  1
  Rb  Rb38  1  0.74808283  0.75191717  0.24808283  1
  Rb  Rb39  1  0.25191717  0.25191717  0.25191717  1
  Rb  Rb40  1  0.12465009  0.87534991  0.37534991  1
  Rb  Rb41  1  0.87534991  0.37534991  0.12465009  1
  Rb  Rb42  1  0.37534991  0.12465009  0.87534991  1
  Rb  Rb43  1  0.62465009  0.62465009  0.62465009  1
  Rb  Rb44  1  0.87534991  0.12465009  0.62465009  1
  Rb  Rb45  1  0.12465009  0.62465009  0.87534991  1
  Rb  Rb46  1  0.62465009  0.87534991  0.12465009  1
  Rb  Rb47  1  0.37534991  0.37534991  0.37534991  1
  Sc  Sc0  1  0.28310162  0.99705616  0.25080622  1
  Sc  Sc1  1  0.71689838  0.49705616  0.24919378  1
  Sc  Sc2  1  0.21689838  0.00294384  0.75080622  1
  Sc  Sc3  1  0.78310162  0.50294384  0.74919378  1
  Sc  Sc4  1  0.25080622  0.28310162  0.99705616  1
  Sc  Sc5  1  0.24919378  0.71689838  0.49705616  1
  Sc  Sc6  1  0.75080622  0.21689838  0.00294384  1
  Sc  Sc7  1  0.74919378  0.78310162  0.50294384  1
  Sc  Sc8  1  0.99705616  0.25080622  0.28310162  1
  Sc  Sc9  1  0.49705616  0.24919378  0.71689838  1
  Sc  Sc10  1  0.00294384  0.75080622  0.21689838  1
  Sc  Sc11  1  0.50294384  0.74919378  0.78310162  1
  Sc  Sc12  1  0.71689838  0.00294384  0.74919378  1
  Sc  Sc13  1  0.28310162  0.50294384  0.75080622  1
  Sc  Sc14  1  0.78310162  0.99705616  0.24919378  1
  Sc  Sc15  1  0.21689838  0.49705616  0.25080622  1
  Sc  Sc16  1  0.74919378  0.71689838  0.00294384  1
  Sc  Sc17  1  0.75080622  0.28310162  0.50294384  1
  Sc  Sc18  1  0.24919378  0.78310162  0.99705616  1
  Sc  Sc19  1  0.25080622  0.21689838  0.49705616  1
  Sc  Sc20  1  0.00294384  0.74919378  0.71689838  1
  Sc  Sc21  1  0.50294384  0.75080622  0.28310162  1
  Sc  Sc22  1  0.99705616  0.24919378  0.78310162  1
  Sc  Sc23  1  0.49705616  0.25080622  0.21689838  1
  Sc  Sc24  1  0.50000000  -0.00000000  0.00000000  1
  Sc  Sc25  1  0.50000000  0.50000000  0.50000000  1
  Sc  Sc26  1  0.00000000  -0.00000000  0.50000000  1
  Sc  Sc27  1  0.00000000  0.50000000  0.00000000  1
  Sc  Sc28  1  0.50000000  -0.00000000  0.50000000  1
  Sc  Sc29  1  0.50000000  0.50000000  0.00000000  1
  Sc  Sc30  1  0.00000000  -0.00000000  0.00000000  1
  Sc  Sc31  1  0.00000000  0.50000000  0.50000000  1
  As  As0  1  0.36132615  0.13100911  0.09943616  1
  As  As1  1  0.63867385  0.63100911  0.40056384  1
  As  As2  1  0.13867385  0.86899089  0.59943616  1
  As  As3  1  0.86132615  0.36899089  0.90056384  1
  As  As4  1  0.09943616  0.36132615  0.13100911  1
  As  As5  1  0.40056384  0.63867385  0.63100911  1
  As  As6  1  0.59943616  0.13867385  0.86899089  1
  As  As7  1  0.90056384  0.86132615  0.36899089  1
  As  As8  1  0.13100911  0.09943616  0.36132615  1
  As  As9  1  0.63100911  0.40056384  0.63867385  1
  As  As10  1  0.86899089  0.59943616  0.13867385  1
  As  As11  1  0.36899089  0.90056384  0.86132615  1
  As  As12  1  0.63867385  0.86899089  0.90056384  1
  As  As13  1  0.36132615  0.36899089  0.59943616  1
  As  As14  1  0.86132615  0.13100911  0.40056384  1
  As  As15  1  0.13867385  0.63100911  0.09943616  1
  As  As16  1  0.90056384  0.63867385  0.86899089  1
  As  As17  1  0.59943616  0.36132615  0.36899089  1
  As  As18  1  0.40056384  0.86132615  0.13100911  1
  As  As19  1  0.09943616  0.13867385  0.63100911  1
  As  As20  1  0.86899089  0.90056384  0.63867385  1
  As  As21  1  0.36899089  0.59943616  0.36132615  1
  As  As22  1  0.13100911  0.40056384  0.86132615  1
  As  As23  1  0.63100911  0.09943616  0.13867385  1
  As  As24  1  0.36541860  0.86918576  0.39575713  1
  As  As25  1  0.63458140  0.36918576  0.10424287  1
  As  As26  1  0.13458140  0.13081424  0.89575713  1
  As  As27  1  0.86541860  0.63081424  0.60424287  1
  As  As28  1  0.39575713  0.36541860  0.86918576  1
  As  As29  1  0.10424287  0.63458140  0.36918576  1
  As  As30  1  0.89575713  0.13458140  0.13081424  1
  As  As31  1  0.60424287  0.86541860  0.63081424  1
  As  As32  1  0.86918576  0.39575713  0.36541860  1
  As  As33  1  0.36918576  0.10424287  0.63458140  1
  As  As34  1  0.13081424  0.89575713  0.13458140  1
  As  As35  1  0.63081424  0.60424287  0.86541860  1
  As  As36  1  0.63458140  0.13081424  0.60424287  1
  As  As37  1  0.36541860  0.63081424  0.89575713  1
  As  As38  1  0.86541860  0.86918576  0.10424287  1
  As  As39  1  0.13458140  0.36918576  0.39575713  1
  As  As40  1  0.60424287  0.63458140  0.13081424  1
  As  As41  1  0.89575713  0.36541860  0.63081424  1
  As  As42  1  0.10424287  0.86541860  0.86918576  1
  As  As43  1  0.39575713  0.13458140  0.36918576  1
  As  As44  1  0.13081424  0.60424287  0.63458140  1
  As  As45  1  0.63081424  0.89575713  0.36541860  1
  As  As46  1  0.86918576  0.10424287  0.86541860  1
  As  As47  1  0.36918576  0.39575713  0.13458140  1
  O  O0  1  0.39960184  0.06132962  0.03842294  1
  O  O1  1  0.60039816  0.56132962  0.46157706  1
  O  O2  1  0.10039816  0.93867038  0.53842294  1
  O  O3  1  0.89960184  0.43867038  0.96157706  1
  O  O4  1  0.03842294  0.39960184  0.06132962  1
  O  O5  1  0.46157706  0.60039816  0.56132962  1
  O  O6  1  0.53842294  0.10039816  0.93867038  1
  O  O7  1  0.96157706  0.89960184  0.43867038  1
  O  O8  1  0.06132962  0.03842294  0.39960184  1
  O  O9  1  0.56132962  0.46157706  0.60039816  1
  O  O10  1  0.93867038  0.53842294  0.10039816  1
  O  O11  1  0.43867038  0.96157706  0.89960184  1
  O  O12  1  0.60039816  0.93867038  0.96157706  1
  O  O13  1  0.39960184  0.43867038  0.53842294  1
  O  O14  1  0.89960184  0.06132962  0.46157706  1
  O  O15  1  0.10039816  0.56132962  0.03842294  1
  O  O16  1  0.96157706  0.60039816  0.93867038  1
  O  O17  1  0.53842294  0.39960184  0.43867038  1
  O  O18  1  0.46157706  0.89960184  0.06132962  1
  O  O19  1  0.03842294  0.10039816  0.56132962  1
  O  O20  1  0.93867038  0.96157706  0.60039816  1
  O  O21  1  0.43867038  0.53842294  0.39960184  1
  O  O22  1  0.06132962  0.46157706  0.89960184  1
  O  O23  1  0.56132962  0.03842294  0.10039816  1
  O  O24  1  0.30744480  0.09260442  0.17482155  1
  O  O25  1  0.69255520  0.59260442  0.32517845  1
  O  O26  1  0.19255520  0.90739558  0.67482155  1
  O  O27  1  0.80744480  0.40739558  0.82517845  1
  O  O28  1  0.17482155  0.30744480  0.09260442  1
  O  O29  1  0.32517845  0.69255520  0.59260442  1
  O  O30  1  0.67482155  0.19255520  0.90739558  1
  O  O31  1  0.82517845  0.80744480  0.40739558  1
  O  O32  1  0.09260442  0.17482155  0.30744480  1
  O  O33  1  0.59260442  0.32517845  0.69255520  1
  O  O34  1  0.90739558  0.67482155  0.19255520  1
  O  O35  1  0.40739558  0.82517845  0.80744480  1
  O  O36  1  0.69255520  0.90739558  0.82517845  1
  O  O37  1  0.30744480  0.40739558  0.67482155  1
  O  O38  1  0.80744480  0.09260442  0.32517845  1
  O  O39  1  0.19255520  0.59260442  0.17482155  1
  O  O40  1  0.82517845  0.69255520  0.90739558  1
  O  O41  1  0.67482155  0.30744480  0.40739558  1
  O  O42  1  0.32517845  0.80744480  0.09260442  1
  O  O43  1  0.17482155  0.19255520  0.59260442  1
  O  O44  1  0.90739558  0.82517845  0.69255520  1
  O  O45  1  0.40739558  0.67482155  0.30744480  1
  O  O46  1  0.09260442  0.32517845  0.80744480  1
  O  O47  1  0.59260442  0.17482155  0.19255520  1
  O  O48  1  0.37052695  0.93264357  0.19307498  1
  O  O49  1  0.62947305  0.43264357  0.30692502  1
  O  O50  1  0.12947305  0.06735643  0.69307498  1
  O  O51  1  0.87052695  0.56735643  0.80692502  1
  O  O52  1  0.19307498  0.37052695  0.93264357  1
  O  O53  1  0.30692502  0.62947305  0.43264357  1
  O  O54  1  0.69307498  0.12947305  0.06735643  1
  O  O55  1  0.80692502  0.87052695  0.56735643  1
  O  O56  1  0.93264357  0.19307498  0.37052695  1
  O  O57  1  0.43264357  0.30692502  0.62947305  1
  O  O58  1  0.06735643  0.69307498  0.12947305  1
  O  O59  1  0.56735643  0.80692502  0.87052695  1
  O  O60  1  0.62947305  0.06735643  0.80692502  1
  O  O61  1  0.37052695  0.56735643  0.69307498  1
  O  O62  1  0.87052695  0.93264357  0.30692502  1
  O  O63  1  0.12947305  0.43264357  0.19307498  1
  O  O64  1  0.80692502  0.62947305  0.06735643  1
  O  O65  1  0.69307498  0.37052695  0.56735643  1
  O  O66  1  0.30692502  0.87052695  0.93264357  1
  O  O67  1  0.19307498  0.12947305  0.43264357  1
  O  O68  1  0.06735643  0.80692502  0.62947305  1
  O  O69  1  0.56735643  0.69307498  0.37052695  1
  O  O70  1  0.93264357  0.30692502  0.87052695  1
  O  O71  1  0.43264357  0.19307498  0.12947305  1
  O  O72  1  0.17750497  0.04239469  0.29305774  1
  O  O73  1  0.82249503  0.54239469  0.20694226  1
  O  O74  1  0.32249503  0.95760531  0.79305774  1
  O  O75  1  0.67750497  0.45760531  0.70694226  1
  O  O76  1  0.29305774  0.17750497  0.04239469  1
  O  O77  1  0.20694226  0.82249503  0.54239469  1
  O  O78  1  0.79305774  0.32249503  0.95760531  1
  O  O79  1  0.70694226  0.67750497  0.45760531  1
  O  O80  1  0.04239469  0.29305774  0.17750497  1
  O  O81  1  0.54239469  0.20694226  0.82249503  1
  O  O82  1  0.95760531  0.79305774  0.32249503  1
  O  O83  1  0.45760531  0.70694226  0.67750497  1
  O  O84  1  0.82249503  0.95760531  0.70694226  1
  O  O85  1  0.17750497  0.45760531  0.79305774  1
  O  O86  1  0.67750497  0.04239469  0.20694226  1
  O  O87  1  0.32249503  0.54239469  0.29305774  1
  O  O88  1  0.70694226  0.82249503  0.95760531  1
  O  O89  1  0.79305774  0.17750497  0.45760531  1
  O  O90  1  0.20694226  0.67750497  0.04239469  1
  O  O91  1  0.29305774  0.32249503  0.54239469  1
  O  O92  1  0.95760531  0.70694226  0.82249503  1
  O  O93  1  0.45760531  0.79305774  0.17750497  1
  O  O94  1  0.04239469  0.20694226  0.67750497  1
  O  O95  1  0.54239469  0.29305774  0.32249503  1
  O  O96  1  0.28942348  0.90466344  0.34015671  1
  O  O97  1  0.71057652  0.40466344  0.15984329  1
  O  O98  1  0.21057652  0.09533656  0.84015671  1
  O  O99  1  0.78942348  0.59533656  0.65984329  1
  O  O100  1  0.34015671  0.28942348  0.90466344  1
  O  O101  1  0.15984329  0.71057652  0.40466344  1
  O  O102  1  0.84015671  0.21057652  0.09533656  1
  O  O103  1  0.65984329  0.78942348  0.59533656  1
  O  O104  1  0.90466344  0.34015671  0.28942348  1
  O  O105  1  0.40466344  0.15984329  0.71057652  1
  O  O106  1  0.09533656  0.84015671  0.21057652  1
  O  O107  1  0.59533656  0.65984329  0.78942348  1
  O  O108  1  0.71057652  0.09533656  0.65984329  1
  O  O109  1  0.28942348  0.59533656  0.84015671  1
  O  O110  1  0.78942348  0.90466344  0.15984329  1
  O  O111  1  0.21057652  0.40466344  0.34015671  1
  O  O112  1  0.65984329  0.71057652  0.09533656  1
  O  O113  1  0.84015671  0.28942348  0.59533656  1
  O  O114  1  0.15984329  0.78942348  0.90466344  1
  O  O115  1  0.34015671  0.21057652  0.40466344  1
  O  O116  1  0.09533656  0.65984329  0.71057652  1
  O  O117  1  0.59533656  0.84015671  0.28942348  1
  O  O118  1  0.90466344  0.15984329  0.78942348  1
  O  O119  1  0.40466344  0.34015671  0.21057652  1
  O  O120  1  0.39961757  0.93403258  0.46489752  1
  O  O121  1  0.60038243  0.43403258  0.03510248  1
  O  O122  1  0.10038243  0.06596742  0.96489752  1
  O  O123  1  0.89961757  0.56596742  0.53510248  1
  O  O124  1  0.46489752  0.39961757  0.93403258  1
  O  O125  1  0.03510248  0.60038243  0.43403258  1
  O  O126  1  0.96489752  0.10038243  0.06596742  1
  O  O127  1  0.53510248  0.89961757  0.56596742  1
  O  O128  1  0.93403258  0.46489752  0.39961757  1
  O  O129  1  0.43403258  0.03510248  0.60038243  1
  O  O130  1  0.06596742  0.96489752  0.10038243  1
  O  O131  1  0.56596742  0.53510248  0.89961757  1
  O  O132  1  0.60038243  0.06596742  0.53510248  1
  O  O133  1  0.39961757  0.56596742  0.96489752  1
  O  O134  1  0.89961757  0.93403258  0.03510248  1
  O  O135  1  0.10038243  0.43403258  0.46489752  1
  O  O136  1  0.53510248  0.60038243  0.06596742  1
  O  O137  1  0.96489752  0.39961757  0.56596742  1
  O  O138  1  0.03510248  0.89961757  0.93403258  1
  O  O139  1  0.46489752  0.10038243  0.43403258  1
  O  O140  1  0.06596742  0.53510248  0.60038243  1
  O  O141  1  0.56596742  0.96489752  0.39961757  1
  O  O142  1  0.93403258  0.03510248  0.89961757  1
  O  O143  1  0.43403258  0.46489752  0.10038243  1
  O  O144  1  0.34249864  0.05671952  0.33842671  1
  O  O145  1  0.65750136  0.55671952  0.16157329  1
  O  O146  1  0.15750136  0.94328048  0.83842671  1
  O  O147  1  0.84249864  0.44328048  0.66157329  1
  O  O148  1  0.33842671  0.34249864  0.05671952  1
  O  O149  1  0.16157329  0.65750136  0.55671952  1
  O  O150  1  0.83842671  0.15750136  0.94328048  1
  O  O151  1  0.66157329  0.84249864  0.44328048  1
  O  O152  1  0.05671952  0.33842671  0.34249864  1
  O  O153  1  0.55671952  0.16157329  0.65750136  1
  O  O154  1  0.94328048  0.83842671  0.15750136  1
  O  O155  1  0.44328048  0.66157329  0.84249864  1
  O  O156  1  0.65750136  0.94328048  0.66157329  1
  O  O157  1  0.34249864  0.44328048  0.83842671  1
  O  O158  1  0.84249864  0.05671952  0.16157329  1
  O  O159  1  0.15750136  0.55671952  0.33842671  1
  O  O160  1  0.66157329  0.65750136  0.94328048  1
  O  O161  1  0.83842671  0.34249864  0.44328048  1
  O  O162  1  0.16157329  0.84249864  0.05671952  1
  O  O163  1  0.33842671  0.15750136  0.55671952  1
  O  O164  1  0.94328048  0.66157329  0.65750136  1
  O  O165  1  0.44328048  0.83842671  0.34249864  1
  O  O166  1  0.05671952  0.16157329  0.84249864  1
  O  O167  1  0.55671952  0.33842671  0.15750136  1
  O  O168  1  0.20882343  0.94645748  0.17013202  1
  O  O169  1  0.79117657  0.44645748  0.32986798  1
  O  O170  1  0.29117657  0.05354252  0.67013202  1
  O  O171  1  0.70882343  0.55354252  0.82986798  1
  O  O172  1  0.17013202  0.20882343  0.94645748  1
  O  O173  1  0.32986798  0.79117657  0.44645748  1
  O  O174  1  0.67013202  0.29117657  0.05354252  1
  O  O175  1  0.82986798  0.70882343  0.55354252  1
  O  O176  1  0.94645748  0.17013202  0.20882343  1
  O  O177  1  0.44645748  0.32986798  0.79117657  1
  O  O178  1  0.05354252  0.67013202  0.29117657  1
  O  O179  1  0.55354252  0.82986798  0.70882343  1
  O  O180  1  0.79117657  0.05354252  0.82986798  1
  O  O181  1  0.20882343  0.55354252  0.67013202  1
  O  O182  1  0.70882343  0.94645748  0.32986798  1
  O  O183  1  0.29117657  0.44645748  0.17013202  1
  O  O184  1  0.82986798  0.79117657  0.05354252  1
  O  O185  1  0.67013202  0.20882343  0.55354252  1
  O  O186  1  0.32986798  0.70882343  0.94645748  1
  O  O187  1  0.17013202  0.29117657  0.44645748  1
  O  O188  1  0.05354252  0.82986798  0.79117657  1
  O  O189  1  0.55354252  0.67013202  0.20882343  1
  O  O190  1  0.94645748  0.32986798  0.70882343  1
  O  O191  1  0.44645748  0.17013202  0.29117657  1
loop_
_geom_bond_atom_site_label_1
_geom_bond_atom_site_label_2
_geom_bond_distance
_geom_bond_site_symmetry_2
Rb0 Rb24 3.705541 1_556
Rb1 Rb25 3.705541 1_555
Rb2 Rb26 3.705541 1_555
Rb10 Rb24 3.705541 1_555
Rb11 Rb27 3.705541 1_545
Rb12 Rb28 3.705541 1_554
Rb13 Rb29 3.705541 1_555
Rb14 Rb30 3.705541 1_555
Rb15 Rb31 3.705541 1_556
Rb16 Rb30 3.705541 1_455
Rb17 Rb28 3.705541 1_555
Rb18 Rb29 3.705541 1_555
Rb19 Rb31 3.705541 1_655
Rb20 Rb29 3.705541 1_545
Rb21 Rb30 3.705541 1_555
Rb22 Rb28 3.705541 1_555
Rb23 Rb31 3.705541 1_565
Rb24 Rb32 3.617553 1_555
Rb24 Rb5 3.705541 1_555
Rb25 Rb33 3.617553 1_555
Rb25 Rb8 3.705541 1_545
Rb25 Rb6 3.705541 1_555
Rb26 Rb34 3.617553 1_555
Rb26 Rb4 3.705541 1_455
Rb26 Rb9 3.705541 1_555
Rb27 Rb35 3.617553 1_555
Rb27 Rb7 3.705541 1_655
Rb27 Rb3 3.705541 1_556
Rb28 Rb36 3.617553 1_555
Rb29 Rb37 3.617553 1_555
Rb30 Rb38 3.617553 1_555
Rb31 Rb39 3.617553 1_555
As0 O71 1.706192 1_555
As0 O0 1.723641 1_555
As0 O24 1.725203 1_555
As0 O76 1.726497 1_555
As1 O69 1.706192 1_555
As1 O1 1.723641 1_555
As1 O25 1.725203 1_555
As1 O79 1.726497 1_555
As2 O68 1.706192 1_555
As2 O2 1.723641 1_555
As2 O26 1.725203 1_555
As2 O77 1.726497 1_555
As3 O70 1.706192 1_555
As3 O3 1.723641 1_555
As3 O27 1.725203 1_555
As3 O78 1.726497 1_555
As4 O63 1.706192 1_555
As4 O4 1.723641 1_555
As4 O28 1.725203 1_555
As4 O80 1.726497 1_555
As5 O61 1.706192 1_555
As5 O5 1.723641 1_555
As5 O29 1.725203 1_555
As5 O83 1.726497 1_555
As6 O60 1.706192 1_555
As6 O6 1.723641 1_555
As6 O30 1.725203 1_555
As6 O81 1.726497 1_555
As7 O62 1.706192 1_555
As7 O7 1.723641 1_555
As7 O31 1.725203 1_555
As7 O82 1.726497 1_555
As8 O67 1.706192 1_555
As8 O8 1.723641 1_555
As8 O32 1.725203 1_555
As8 O72 1.726497 1_555
As9 O65 1.706192 1_555
As9 O9 1.723641 1_555
As9 O33 1.725203 1_555
As9 O75 1.726497 1_555
As10 O64 1.706192 1_555
As10 O10 1.723641 1_555
As10 O34 1.725203 1_555
As10 O73 1.726497 1_555
As11 O66 1.706192 1_555
As11 O11 1.723641 1_555
As11 O35 1.725203 1_555
As11 O74 1.726497 1_555
As12 O59 1.706192 1_555
As12 O12 1.723641 1_555
As12 O36 1.725203 1_555
As12 O88 1.726497 1_555
As13 O57 1.706192 1_555
As13 O13 1.723641 1_555
As13 O37 1.725203 1_555
As13 O91 1.726497 1_555
As14 O56 1.706192 1_555
As14 O14 1.723641 1_555
As14 O38 1.725203 1_555
As14 O89 1.726497 1_555
As15 O58 1.706192 1_555
As15 O15 1.723641 1_555
As15 O39 1.725203 1_555
As15 O90 1.726497 1_555
As16 O51 1.706192 1_555
As16 O16 1.723641 1_555
As16 O40 1.725203 1_555
As16 O92 1.726497 1_555
As17 O49 1.706192 1_555
As17 O17 1.723641 1_555
As17 O41 1.725203 1_555
As17 O95 1.726497 1_555
As18 O48 1.706192 1_555
As18 O18 1.723641 1_555
As18 O42 1.725203 1_555
As18 O93 1.726497 1_555
As19 O50 1.706192 1_555
As19 O19 1.723641 1_555
As19 O43 1.725203 1_555
As19 O94 1.726497 1_555
As20 O55 1.706192 1_555
As20 O20 1.723641 1_555
As20 O44 1.725203 1_555
As20 O84 1.726497 1_555
As21 O53 1.706192 1_555
As21 O21 1.723641 1_555
As21 O45 1.725203 1_555
As21 O87 1.726497 1_555
As22 O52 1.706192 1_555
As22 O22 1.723641 1_555
As22 O46 1.725203 1_555
As22 O85 1.726497 1_555
As23 O54 1.706192 1_555
As23 O23 1.723641 1_555
As23 O47 1.725203 1_555
As23 O86 1.726497 1_555
As24 O165 1.706582 1_555
As24 O173 1.713048 1_555
As24 O96 1.730703 1_555
As24 O120 1.733243 1_555
As25 O167 1.706582 1_555
As25 O174 1.713048 1_555
As25 O97 1.730703 1_555
As25 O121 1.733243 1_555
As26 O166 1.706582 1_555
As26 O172 1.713048 1_555
As26 O98 1.730703 1_555
As26 O122 1.733243 1_555
As27 O164 1.706582 1_555
As27 O175 1.713048 1_555
As27 O99 1.730703 1_555
As27 O123 1.733243 1_555
As28 O157 1.706582 1_555
As28 O177 1.713048 1_555
As28 O100 1.730703 1_555
As28 O124 1.733243 1_555
As29 O159 1.706582 1_555
As29 O178 1.713048 1_555
As29 O101 1.730703 1_555
As29 O125 1.733243 1_555
As30 O158 1.706582 1_555
As30 O176 1.713048 1_555
As30 O102 1.730703 1_555
As30 O126 1.733243 1_555
As31 O156 1.706582 1_555
As31 O179 1.713048 1_555
As31 O103 1.730703 1_555
As31 O127 1.733243 1_555
As32 O161 1.706582 1_555
As32 O169 1.713048 1_555
As32 O104 1.730703 1_555
As32 O128 1.733243 1_555
As33 O163 1.706582 1_555
As33 O170 1.713048 1_555
As33 O105 1.730703 1_555
As33 O129 1.733243 1_555
As34 O162 1.706582 1_555
As34 O168 1.713048 1_555
As34 O106 1.730703 1_555
As34 O130 1.733243 1_555
As35 O160 1.706582 1_555
As35 O171 1.713048 1_555
As35 O107 1.730703 1_555
As35 O131 1.733243 1_555
As36 O153 1.706582 1_555
As36 O185 1.713048 1_555
As36 O108 1.730703 1_555
As36 O132 1.733243 1_555
As37 O155 1.706582 1_555
As37 O186 1.713048 1_555
As37 O109 1.730703 1_555
As37 O133 1.733243 1_555
As38 O154 1.706582 1_555
As38 O184 1.713048 1_555
As38 O110 1.730703 1_555
As38 O134 1.733243 1_555
As39 O152 1.706582 1_555
As39 O187 1.713048 1_555
As39 O111 1.730703 1_555
As39 O135 1.733243 1_555
As40 O145 1.706582 1_555
As40 O189 1.713048 1_555
As40 O112 1.730703 1_555
As40 O136 1.733243 1_555
As41 O147 1.706582 1_555
As41 O190 1.713048 1_555
As41 O113 1.730703 1_555
As41 O137 1.733243 1_555
As42 O146 1.706582 1_555
As42 O188 1.713048 1_555
As42 O114 1.730703 1_555
As42 O138 1.733243 1_555
As43 O144 1.706582 1_555
As43 O191 1.713048 1_555
As43 O115 1.730703 1_555
As43 O139 1.733243 1_555
As44 O149 1.706582 1_555
As44 O181 1.713048 1_555
As44 O116 1.730703 1_555
As44 O140 1.733243 1_555
As45 O151 1.706582 1_555
As45 O182 1.713048 1_555
As45 O117 1.730703 1_555
As45 O141 1.733243 1_555
As46 O150 1.706582 1_555
As46 O180 1.713048 1_555
As46 O118 1.730703 1_555
As46 O142 1.733243 1_555
As47 O148 1.706582 1_555
As47 O183 1.713048 1_555
As47 O119 1.730703 1_555
As47 O143 1.733243 1_555
O0 Sc24 2.128683 1_555
O0 Rb23 2.929218 1_545
O0 Rb42 3.037587 1_554
O1 Sc25 2.128683 1_555
O1 Rb21 2.929218 1_555
O1 Rb43 3.037587 1_555
O2 Sc26 2.128683 1_565
O2 Rb20 2.929218 1_565
O2 Rb40 3.037587 1_555
O3 Sc27 2.128683 1_656
O3 Rb22 2.929218 1_555
O3 Rb41 3.037587 1_556
O4 Sc27 2.128683 1_555
O4 Rb15 2.929218 1_554
O4 Rb41 3.037587 1_455
O5 Sc25 2.128683 1_555
O5 Rb13 2.929218 1_555
O5 Rb43 3.037587 1_555
O6 Sc24 2.128683 1_556
O6 Rb12 2.929218 1_556
O6 Rb42 3.037587 1_555
O7 Sc26 2.128683 1_665
O7 Rb14 2.929218 1_555
O7 Rb40 3.037587 1_655
O8 Sc26 2.128683 1_555
O8 Rb19 2.929218 1_455
O8 Rb40 3.037587 1_545
O9 Sc25 2.128683 1_555
O9 Rb17 2.929218 1_555
O9 Rb43 3.037587 1_555
O10 Sc27 2.128683 1_655
O10 Rb16 2.929218 1_655
O10 Rb41 3.037587 1_555
O11 Sc24 2.128683 1_566
O11 Rb18 2.929218 1_555
O11 Rb42 3.037587 1_565
O12 Sc24 2.128683 1_566
O12 Rb11 2.929218 1_565
O12 Rb46 3.037587 1_556
O13 Sc25 2.128683 1_555
O13 Rb9 2.929218 1_555
O13 Rb47 3.037587 1_555
O14 Sc26 2.128683 1_655
O14 Rb8 2.929218 1_545
O14 Rb44 3.037587 1_555
O15 Sc27 2.128683 1_555
O15 Rb10 2.929218 1_555
O15 Rb45 3.037587 1_554
O16 Sc27 2.128683 1_656
O16 Rb3 2.929218 1_556
O16 Rb45 3.037587 1_655
O17 Sc25 2.128683 1_555
O17 Rb1 2.929218 1_555
O17 Rb47 3.037587 1_555
O18 Sc24 2.128683 1_565
O18 Rb0 2.929218 1_554
O18 Rb46 3.037587 1_555
O19 Sc26 2.128683 1_555
O19 Rb2 2.929218 1_555
O19 Rb44 3.037587 1_455
O20 Sc26 2.128683 1_665
O20 Rb7 2.929218 1_655
O20 Rb44 3.037587 1_565
O21 Sc25 2.128683 1_555
O21 Rb5 2.929218 1_555
O21 Rb47 3.037587 1_555
O22 Sc27 2.128683 1_556
O22 Rb4 2.929218 1_455
O22 Rb45 3.037587 1_555
O23 Sc24 2.128683 1_555
O23 Rb6 2.929218 1_555
O23 Rb46 3.037587 1_545
O24 Sc0 2.141036 1_545
O24 Rb39 3.190400 1_555
O24 Rb31 3.204652 1_555
O25 Sc1 2.141036 1_555
O25 Rb38 3.190400 1_555
O25 Rb30 3.204652 1_555
O26 Sc2 2.141036 1_565
O26 Rb37 3.190400 1_555
O26 Rb29 3.204652 1_555
O27 Sc3 2.141036 1_555
O27 Rb36 3.190400 1_555
O27 Rb28 3.204652 1_555
O28 Sc4 2.141036 1_554
O28 Rb39 3.190400 1_555
O28 Rb31 3.204652 1_555
O29 Sc5 2.141036 1_555
O29 Rb37 3.190400 1_555
O29 Rb29 3.204652 1_555
O30 Sc6 2.141036 1_556
O30 Rb36 3.190400 1_555
O30 Rb28 3.204652 1_555
O31 Sc7 2.141036 1_555
O31 Rb38 3.190400 1_555
O31 Rb30 3.204652 1_555
O32 Sc8 2.141036 1_455
O32 Rb39 3.190400 1_555
O32 Rb31 3.204652 1_555
O33 Sc9 2.141036 1_555
O33 Rb36 3.190400 1_555
O33 Rb28 3.204652 1_555
O34 Sc10 2.141036 1_655
O34 Rb38 3.190400 1_555
O34 Rb30 3.204652 1_555
O35 Sc11 2.141036 1_555
O35 Rb37 3.190400 1_555
O35 Rb29 3.204652 1_555
O36 Sc12 2.141036 1_565
O36 Rb35 3.190400 1_555
O36 Rb27 3.204652 1_555
O37 Sc13 2.141036 1_555
O37 Rb34 3.190400 1_555
O37 Rb26 3.204652 1_555
O38 Sc14 2.141036 1_545
O38 Rb33 3.190400 1_555
O38 Rb25 3.204652 1_555
O39 Sc15 2.141036 1_555
O39 Rb32 3.190400 1_555
O39 Rb24 3.204652 1_555
O40 Sc16 2.141036 1_556
O40 Rb35 3.190400 1_555
O40 Rb27 3.204652 1_555
O41 Sc17 2.141036 1_555
O41 Rb33 3.190400 1_555
O41 Rb25 3.204652 1_555
O42 Sc18 2.141036 1_554
O42 Rb32 3.190400 1_555
O42 Rb24 3.204652 1_555
O43 Sc19 2.141036 1_555
O43 Rb34 3.190400 1_555
O43 Rb26 3.204652 1_555
O44 Sc20 2.141036 1_655
O44 Rb35 3.190400 1_555
O44 Rb27 3.204652 1_555
O45 Sc21 2.141036 1_555
O45 Rb32 3.190400 1_555
O45 Rb24 3.204652 1_555
O46 Sc22 2.141036 1_455
O46 Rb34 3.190400 1_555
O46 Rb26 3.204652 1_555
O47 Sc23 2.141036 1_555
O47 Rb33 3.190400 1_555
O47 Rb25 3.204652 1_555
O48 Sc0 2.115274 1_555
O48 Rb6 2.734421 1_565
O49 Sc1 2.115274 1_555
O49 Rb5 2.734421 1_555
O50 Sc2 2.115274 1_555
O50 Rb7 2.734421 1_545
O51 Sc3 2.115274 1_555
O51 Rb4 2.734421 1_555
O52 Sc4 2.115274 1_555
O52 Rb10 2.734421 1_556
O53 Sc5 2.115274 1_555
O53 Rb9 2.734421 1_555
O54 Sc6 2.115274 1_555
O54 Rb11 2.734421 1_554
O55 Sc7 2.115274 1_555
O55 Rb8 2.734421 1_555
O56 Sc8 2.115274 1_555
O56 Rb2 2.734421 1_655
O57 Sc9 2.115274 1_555
O57 Rb1 2.734421 1_555
O58 Sc10 2.115274 1_555
O58 Rb3 2.734421 1_455
O59 Sc11 2.115274 1_555
O59 Rb0 2.734421 1_555
O60 Sc12 2.115274 1_555
O60 Rb18 2.734421 1_545
O61 Sc13 2.115274 1_555
O61 Rb17 2.734421 1_555
O62 Sc14 2.115274 1_555
O62 Rb19 2.734421 1_565
O63 Sc15 2.115274 1_555
O63 Rb16 2.734421 1_555
O64 Sc16 2.115274 1_555
O64 Rb22 2.734421 1_554
O65 Sc17 2.115274 1_555
O65 Rb21 2.734421 1_555
O66 Sc18 2.115274 1_555
O66 Rb23 2.734421 1_556
O67 Sc19 2.115274 1_555
O67 Rb20 2.734421 1_555
O68 Sc20 2.115274 1_555
O68 Rb14 2.734421 1_455
O69 Sc21 2.115274 1_555
O69 Rb13 2.734421 1_555
O70 Sc22 2.115274 1_555
O70 Rb15 2.734421 1_655
O71 Sc23 2.115274 1_555
O71 Rb12 2.734421 1_555
O72 Sc0 2.105908 1_545
O72 Rb19 3.264752 1_455
O72 Rb31 3.281510 1_555
O72 Rb40 3.329335 1_545
O73 Sc1 2.105908 1_555
O73 Rb16 3.264752 1_655
O73 Rb30 3.281510 1_555
O73 Rb41 3.329335 1_555
O74 Sc2 2.105908 1_565
O74 Rb18 3.264752 1_555
O74 Rb29 3.281510 1_555
O74 Rb42 3.329335 1_565
O75 Sc3 2.105908 1_555
O75 Rb17 3.264752 1_555
O75 Rb28 3.281510 1_555
O75 Rb43 3.329335 1_555
O76 Sc4 2.105908 1_554
O76 Rb23 3.264752 1_545
O76 Rb31 3.281510 1_555
O76 Rb42 3.329335 1_554
O77 Sc5 2.105908 1_555
O77 Rb20 3.264752 1_565
O77 Rb29 3.281510 1_555
O77 Rb40 3.329335 1_555
O78 Sc6 2.105908 1_556
O78 Rb22 3.264752 1_555
O78 Rb28 3.281510 1_555
O78 Rb41 3.329335 1_556
O79 Sc7 2.105908 1_555
O79 Rb21 3.264752 1_555
O79 Rb30 3.281510 1_555
O79 Rb43 3.329335 1_555
O80 Sc8 2.105908 1_455
O80 Rb15 3.264752 1_554
O80 Rb31 3.281510 1_555
O80 Rb41 3.329335 1_455
O81 Sc9 2.105908 1_555
O81 Rb12 3.264752 1_556
O81 Rb28 3.281510 1_555
O81 Rb42 3.329335 1_555
O82 Sc10 2.105908 1_655
O82 Rb14 3.264752 1_555
O82 Rb30 3.281510 1_555
O82 Rb40 3.329335 1_655
O83 Sc11 2.105908 1_555
O83 Rb13 3.264752 1_555
O83 Rb29 3.281510 1_555
O83 Rb43 3.329335 1_555
O84 Sc12 2.105908 1_565
O84 Rb7 3.264752 1_655
O84 Rb27 3.281510 1_555
O84 Rb44 3.329335 1_565
O85 Sc13 2.105908 1_555
O85 Rb4 3.264752 1_455
O85 Rb26 3.281510 1_555
O85 Rb45 3.329335 1_555
O86 Sc14 2.105908 1_545
O86 Rb6 3.264752 1_555
O86 Rb25 3.281510 1_555
O86 Rb46 3.329335 1_545
O87 Sc15 2.105908 1_555
O87 Rb5 3.264752 1_555
O87 Rb24 3.281510 1_555
O87 Rb47 3.329335 1_555
O88 Sc16 2.105908 1_556
O88 Rb11 3.264752 1_565
O88 Rb27 3.281510 1_555
O88 Rb46 3.329335 1_556
O89 Sc17 2.105908 1_555
O89 Rb8 3.264752 1_545
O89 Rb25 3.281510 1_555
O89 Rb44 3.329335 1_555
O90 Sc18 2.105908 1_554
O90 Rb10 3.264752 1_555
O90 Rb24 3.281510 1_555
O90 Rb45 3.329335 1_554
O91 Sc19 2.105908 1_555
O91 Rb9 3.264752 1_555
O91 Rb26 3.281510 1_555
O91 Rb47 3.329335 1_555
O92 Sc20 2.105908 1_655
O92 Rb3 3.264752 1_556
O92 Rb27 3.281510 1_555
O92 Rb45 3.329335 1_655
O93 Sc21 2.105908 1_555
O93 Rb0 3.264752 1_554
O93 Rb24 3.281510 1_555
O93 Rb46 3.329335 1_555
O94 Sc22 2.105908 1_455
O94 Rb2 3.264752 1_555
O94 Rb26 3.281510 1_555
O94 Rb44 3.329335 1_455
O95 Sc23 2.105908 1_555
O95 Rb1 3.264752 1_555
O95 Rb25 3.281510 1_555
O95 Rb47 3.329335 1_555
O96 Sc0 2.213333 1_555
O96 Rb40 2.941487 1_555
O96 Rb32 3.116244 1_555
O96 Rb20 3.357838 1_565
O97 Sc1 2.213333 1_555
O97 Rb41 2.941487 1_555
O97 Rb33 3.116244 1_555
O97 Rb22 3.357838 1_554
O98 Sc2 2.213333 1_555
O98 Rb42 2.941487 1_555
O98 Rb34 3.116244 1_555
O98 Rb23 3.357838 1_546
O99 Sc3 2.213333 1_555
O99 Rb43 2.941487 1_555
O99 Rb35 3.116244 1_555
O99 Rb21 3.357838 1_555
O100 Sc4 2.213333 1_555
O100 Rb42 2.941487 1_555
O100 Rb34 3.116244 1_555
O100 Rb12 3.357838 1_556
O101 Sc5 2.213333 1_555
O101 Rb40 2.941487 1_555
O101 Rb32 3.116244 1_555
O101 Rb14 3.357838 1_455
O102 Sc6 2.213333 1_555
O102 Rb41 2.941487 1_555
O102 Rb33 3.116244 1_555
O102 Rb15 3.357838 1_654
O103 Sc7 2.213333 1_555
O103 Rb43 2.941487 1_555
O103 Rb35 3.116244 1_555
O103 Rb13 3.357838 1_555
O104 Sc8 2.213333 1_555
O104 Rb41 2.941487 1_555
O104 Rb33 3.116244 1_555
O104 Rb16 3.357838 1_655
O105 Sc9 2.213333 1_555
O105 Rb42 2.941487 1_555
O105 Rb34 3.116244 1_555
O105 Rb18 3.357838 1_545
O106 Sc10 2.213333 1_555
O106 Rb40 2.941487 1_555
O106 Rb32 3.116244 1_555
O106 Rb19 3.357838 1_465
O107 Sc11 2.213333 1_555
O107 Rb43 2.941487 1_555
O107 Rb35 3.116244 1_555
O107 Rb17 3.357838 1_555
O108 Sc12 2.213333 1_555
O108 Rb44 2.941487 1_555
O108 Rb36 3.116244 1_555
O108 Rb8 3.357838 1_545
O109 Sc13 2.213333 1_555
O109 Rb45 2.941487 1_555
O109 Rb37 3.116244 1_555
O109 Rb10 3.357838 1_556
O110 Sc14 2.213333 1_555
O110 Rb46 2.941487 1_555
O110 Rb38 3.116244 1_555
O110 Rb11 3.357838 1_564
O111 Sc15 2.213333 1_555
O111 Rb47 2.941487 1_555
O111 Rb39 3.116244 1_555
O111 Rb9 3.357838 1_555
O112 Sc16 2.213333 1_555
O112 Rb46 2.941487 1_555
O112 Rb38 3.116244 1_555
O112 Rb0 3.357838 1_554
O113 Sc17 2.213333 1_555
O113 Rb44 2.941487 1_555
O113 Rb36 3.116244 1_555
O113 Rb2 3.357838 1_655
O114 Sc18 2.213333 1_555
O114 Rb45 2.941487 1_555
O114 Rb37 3.116244 1_555
O114 Rb3 3.357838 1_456
O115 Sc19 2.213333 1_555
O115 Rb47 2.941487 1_555
O115 Rb39 3.116244 1_555
O115 Rb1 3.357838 1_555
O116 Sc20 2.213333 1_555
O116 Rb45 2.941487 1_555
O116 Rb37 3.116244 1_555
O116 Rb4 3.357838 1_455
O117 Sc21 2.213333 1_555
O117 Rb46 2.941487 1_555
O117 Rb38 3.116244 1_555
O117 Rb6 3.357838 1_565
O118 Sc22 2.213333 1_555
O118 Rb44 2.941487 1_555
O118 Rb36 3.116244 1_555
O118 Rb7 3.357838 1_645
O119 Sc23 2.213333 1_555
O119 Rb47 2.941487 1_555
O119 Rb39 3.116244 1_555
O119 Rb5 3.357838 1_555
O120 Sc28 2.152390 1_565
O120 Rb20 2.841121 1_565
O120 Rb29 3.100104 1_555
O121 Sc29 2.152390 1_555
O121 Rb22 2.841121 1_554
O121 Rb28 3.100104 1_554
O122 Sc30 2.152390 1_556
O122 Rb23 2.841121 1_546
O122 Rb31 3.100104 1_556
O123 Sc31 2.152390 1_655
O123 Rb21 2.841121 1_555
O123 Rb30 3.100104 1_555
O124 Sc29 2.152390 1_556
O124 Rb12 2.841121 1_556
O124 Rb28 3.100104 1_555
O125 Sc31 2.152390 1_555
O125 Rb14 2.841121 1_455
O125 Rb30 3.100104 1_455
O126 Sc30 2.152390 1_655
O126 Rb15 2.841121 1_654
O126 Rb31 3.100104 1_655
O127 Sc28 2.152390 1_565
O127 Rb13 2.841121 1_555
O127 Rb29 3.100104 1_555
O128 Sc31 2.152390 1_655
O128 Rb16 2.841121 1_655
O128 Rb30 3.100104 1_555
O129 Sc28 2.152390 1_555
O129 Rb18 2.841121 1_545
O129 Rb29 3.100104 1_545
O130 Sc30 2.152390 1_565
O130 Rb19 2.841121 1_465
O130 Rb31 3.100104 1_565
O131 Sc29 2.152390 1_556
O131 Rb17 2.841121 1_555
O131 Rb28 3.100104 1_555
O132 Sc28 2.152390 1_555
O132 Rb8 2.841121 1_545
O132 Rb25 3.100104 1_555
O133 Sc29 2.152390 1_556
O133 Rb10 2.841121 1_556
O133 Rb24 3.100104 1_556
O134 Sc30 2.152390 1_665
O134 Rb11 2.841121 1_564
O134 Rb27 3.100104 1_554
O135 Sc31 2.152390 1_555
O135 Rb9 2.841121 1_555
O135 Rb26 3.100104 1_555
O136 Sc29 2.152390 1_555
O136 Rb0 2.841121 1_554
O136 Rb24 3.100104 1_555
O137 Sc31 2.152390 1_655
O137 Rb2 2.841121 1_655
O137 Rb26 3.100104 1_655
O138 Sc30 2.152390 1_566
O138 Rb3 2.841121 1_456
O138 Rb27 3.100104 1_455
O139 Sc28 2.152390 1_555
O139 Rb1 2.841121 1_555
O139 Rb25 3.100104 1_555
O140 Sc31 2.152390 1_555
O140 Rb4 2.841121 1_455
O140 Rb26 3.100104 1_555
O141 Sc28 2.152390 1_565
O141 Rb6 2.841121 1_565
O141 Rb25 3.100104 1_565
O142 Sc30 2.152390 1_656
O142 Rb7 2.841121 1_645
O142 Rb27 3.100104 1_545
O143 Sc29 2.152390 1_555
O143 Rb5 2.841121 1_555
O143 Rb24 3.100104 1_555
O144 Sc0 2.089949 1_545
O144 Rb6 3.154882 1_555
O144 Rb20 3.377569 1_555
O145 Sc1 2.089949 1_555
O145 Rb5 3.154882 1_555
O145 Rb22 3.377569 1_554
O146 Sc2 2.089949 1_565
O146 Rb7 3.154882 1_555
O146 Rb23 3.377569 1_556
O147 Sc3 2.089949 1_555
O147 Rb4 3.154882 1_555
O147 Rb21 3.377569 1_555
O148 Sc4 2.089949 1_554
O148 Rb10 3.154882 1_555
O148 Rb12 3.377569 1_555
O149 Sc5 2.089949 1_555
O149 Rb9 3.154882 1_555
O149 Rb14 3.377569 1_455
O150 Sc6 2.089949 1_556
O150 Rb11 3.154882 1_555
O150 Rb15 3.377569 1_655
O151 Sc7 2.089949 1_555
O151 Rb8 3.154882 1_555
O151 Rb13 3.377569 1_555
O152 Sc8 2.089949 1_455
O152 Rb2 3.154882 1_555
O152 Rb16 3.377569 1_555
O153 Sc9 2.089949 1_555
O153 Rb1 3.154882 1_555
O153 Rb18 3.377569 1_545
O154 Sc10 2.089949 1_655
O154 Rb3 3.154882 1_555
O154 Rb19 3.377569 1_565
O155 Sc11 2.089949 1_555
O155 Rb0 3.154882 1_555
O155 Rb17 3.377569 1_555
O156 Sc12 2.089949 1_565
O156 Rb18 3.154882 1_555
O156 Rb8 3.377569 1_555
O157 Sc13 2.089949 1_555
O157 Rb17 3.154882 1_555
O157 Rb10 3.377569 1_556
O158 Sc14 2.089949 1_545
O158 Rb19 3.154882 1_555
O158 Rb11 3.377569 1_554
O159 Sc15 2.089949 1_555
O159 Rb16 3.154882 1_555
O159 Rb9 3.377569 1_555
O160 Sc16 2.089949 1_556
O160 Rb22 3.154882 1_555
O160 Rb0 3.377569 1_555
O161 Sc17 2.089949 1_555
O161 Rb21 3.154882 1_555
O161 Rb2 3.377569 1_655
O162 Sc18 2.089949 1_554
O162 Rb23 3.154882 1_555
O162 Rb3 3.377569 1_455
O163 Sc19 2.089949 1_555
O163 Rb20 3.154882 1_555
O163 Rb1 3.377569 1_555
O164 Sc20 2.089949 1_655
O164 Rb14 3.154882 1_555
O164 Rb4 3.377569 1_555
O165 Sc21 2.089949 1_555
O165 Rb13 3.154882 1_555
O165 Rb6 3.377569 1_565
O166 Sc22 2.089949 1_455
O166 Rb15 3.154882 1_555
O166 Rb7 3.377569 1_545
O167 Sc23 2.089949 1_555
O167 Rb12 3.154882 1_555
O167 Rb5 3.377569 1_555
O168 Sc0 2.077223 1_555
O168 Rb23 3.028899 1_555
O168 Rb31 3.506979 1_565
O168 Rb32 3.691948 1_555
O169 Sc1 2.077223 1_555
O169 Rb21 3.028899 1_555
O169 Rb30 3.506979 1_555
O169 Rb33 3.691948 1_555
O170 Sc2 2.077223 1_555
O170 Rb20 3.028899 1_555
O170 Rb29 3.506979 1_545
O170 Rb34 3.691948 1_555
O171 Sc3 2.077223 1_555
O171 Rb22 3.028899 1_555
O171 Rb28 3.506979 1_555
O171 Rb35 3.691948 1_555
O172 Sc4 2.077223 1_555
O172 Rb15 3.028899 1_555
O172 Rb31 3.506979 1_556
O172 Rb34 3.691948 1_555
O173 Sc5 2.077223 1_555
O173 Rb13 3.028899 1_555
O173 Rb29 3.506979 1_555
O173 Rb32 3.691948 1_555
O174 Sc6 2.077223 1_555
O174 Rb12 3.028899 1_555
O174 Rb28 3.506979 1_554
O174 Rb33 3.691948 1_555
O175 Sc7 2.077223 1_555
O175 Rb14 3.028899 1_555
O175 Rb30 3.506979 1_555
O175 Rb35 3.691948 1_555
O176 Sc8 2.077223 1_555
O176 Rb19 3.028899 1_555
O176 Rb31 3.506979 1_655
O176 Rb33 3.691948 1_555
O177 Sc9 2.077223 1_555
O177 Rb17 3.028899 1_555
O177 Rb28 3.506979 1_555
O177 Rb34 3.691948 1_555
O178 Sc10 2.077223 1_555
O178 Rb16 3.028899 1_555
O178 Rb30 3.506979 1_455
O178 Rb32 3.691948 1_555
O179 Sc11 2.077223 1_555
O179 Rb18 3.028899 1_555
O179 Rb29 3.506979 1_555
O179 Rb35 3.691948 1_555
O180 Sc12 2.077223 1_555
O180 Rb11 3.028899 1_555
O180 Rb27 3.506979 1_545
O180 Rb36 3.691948 1_555
O181 Sc13 2.077223 1_555
O181 Rb9 3.028899 1_555
O181 Rb26 3.506979 1_555
O181 Rb37 3.691948 1_555
O182 Sc14 2.077223 1_555
O182 Rb8 3.028899 1_555
O182 Rb25 3.506979 1_565
O182 Rb38 3.691948 1_555
O183 Sc15 2.077223 1_555
O183 Rb10 3.028899 1_555
O183 Rb24 3.506979 1_555
O183 Rb39 3.691948 1_555
O184 Sc16 2.077223 1_555
O184 Rb3 3.028899 1_555
O184 Rb27 3.506979 1_554
O184 Rb38 3.691948 1_555
O185 Sc17 2.077223 1_555
O185 Rb1 3.028899 1_555
O185 Rb25 3.506979 1_555
O185 Rb36 3.691948 1_555
O186 Sc18 2.077223 1_555
O186 Rb0 3.028899 1_555
O186 Rb24 3.506979 1_556
O186 Rb37 3.691948 1_555
O187 Sc19 2.077223 1_555
O187 Rb2 3.028899 1_555
O187 Rb26 3.506979 1_555
O187 Rb39 3.691948 1_555
O188 Sc20 2.077223 1_555
O188 Rb7 3.028899 1_555
O188 Rb27 3.506979 1_455
O188 Rb37 3.691948 1_555
O189 Sc21 2.077223 1_555
O189 Rb5 3.028899 1_555
O189 Rb24 3.506979 1_555
O189 Rb38 3.691948 1_555
O190 Sc22 2.077223 1_555
O190 Rb4 3.028899 1_555
O190 Rb26 3.506979 1_655
O190 Rb36 3.691948 1_555
O191 Sc23 2.077223 1_555
O191 Rb6 3.028899 1_555
O191 Rb25 3.506979 1_555
O191 Rb39 3.691948 1_555
