# generated using pymatgen
data_Tm2Te5
_symmetry_space_group_name_H-M   'P 1'
_cell_length_a   21.58445979
_cell_length_b   21.58445979
_cell_length_c   4.38299400
_cell_angle_alpha   90.00000000
_cell_angle_beta   90.00000000
_cell_angle_gamma   168.38531751
_symmetry_Int_Tables_number   1
_chemical_formula_structural   Tm2Te5
_chemical_formula_sum   'Tm4 Te10'
_cell_volume   411.11133101
_cell_formula_units_Z   2
loop_
 _symmetry_equiv_pos_site_id
 _symmetry_equiv_pos_as_xyz
  1  'x, y, z'
loop_
 _atom_site_type_symbol
 _atom_site_label
 _atom_site_symmetry_multiplicity
 _atom_site_fract_x
 _atom_site_fract_y
 _atom_site_fract_z
 _atom_site_occupancy
  Tm  Tm0  1  0.90235200  0.09764800  0.75000000  1
  Tm  Tm1  1  0.09764800  0.90235200  0.25000000  1
  Tm  Tm2  1  0.69307500  0.30692500  0.75000000  1
  Tm  Tm3  1  0.30692500  0.69307500  0.25000000  1
  Te  Te0  1  0.04178300  0.95821700  0.75000000  1
  Te  Te1  1  0.95821700  0.04178300  0.25000000  1
  Te  Te2  1  0.45777100  0.54222900  0.75000000  1
  Te  Te3  1  0.54222900  0.45777100  0.25000000  1
  Te  Te4  1  0.24999900  0.75000100  0.75000000  1
  Te  Te5  1  0.75000100  0.24999900  0.25000000  1
  Te  Te6  1  0.82762800  0.17237200  0.75000000  1
  Te  Te7  1  0.17237200  0.82762800  0.25000000  1
  Te  Te8  1  0.62007800  0.37992200  0.75000000  1
  Te  Te9  1  0.37992200  0.62007800  0.25000000  1
loop_
_geom_bond_atom_site_label_1
_geom_bond_atom_site_label_2
_geom_bond_distance
_geom_bond_site_symmetry_2
Te0 Te3 3.094005 1_455
Te0 Te3 3.094005 1_566
Te0 Te3 3.094005 1_456
Te0 Te3 3.094005 1_565
Te0 Tm1 3.249474 1_556
Te0 Tm1 3.249474 1_555
Te0 Te1 4.205133 1_465
Te0 Te1 4.205133 1_466
Te0 Te2 4.217604 1_565
Te0 Te2 4.217604 1_455
Te1 Te2 3.094005 1_544
Te1 Te2 3.094005 1_545
Te1 Te2 3.094005 1_655
Te1 Te2 3.094005 1_654
Te1 Tm0 3.249474 1_554
Te1 Tm0 3.249474 1_555
Te1 Te3 4.217604 1_655
Te1 Te3 4.217604 1_545
Te2 Tm0 3.230282 1_565
Te2 Tm0 3.230282 1_455
Te2 Te3 4.237876 1_555
Te2 Te3 4.237876 1_556
Te3 Tm1 3.230282 1_655
Te3 Tm1 3.230282 1_545
Te4 Te5 3.093946 1_565
Te4 Te5 3.093946 1_566
Te4 Te5 3.093946 1_456
Te4 Te5 3.093946 1_455
Te4 Tm2 3.278197 1_455
Te4 Tm2 3.278197 1_565
Te4 Tm3 3.283262 1_556
Te4 Tm3 3.283262 1_555
Te5 Tm3 3.278197 1_545
Te5 Tm3 3.278197 1_655
Te5 Tm2 3.283262 1_555
Te5 Tm2 3.283262 1_554
Te6 Tm0 3.209199 1_555
Te6 Tm3 3.219172 1_545
Te6 Tm3 3.219172 1_546
Te6 Tm3 3.219172 1_655
Te6 Tm3 3.219172 1_656
Te6 Te9 3.823156 1_546
Te6 Te9 3.823156 1_545
Te6 Te9 3.823156 1_656
Te6 Te9 3.823156 1_655
Te7 Tm1 3.209199 1_555
Te7 Tm2 3.219172 1_455
Te7 Tm2 3.219172 1_454
Te7 Tm2 3.219172 1_564
Te7 Tm2 3.219172 1_565
Te7 Te8 3.823156 1_455
Te7 Te8 3.823156 1_454
Te7 Te8 3.823156 1_564
Te7 Te8 3.823156 1_565
Te8 Tm2 3.135029 1_555
Te8 Tm1 3.240442 1_656
Te8 Tm1 3.240442 1_655
Te8 Tm1 3.240442 1_545
Te8 Tm1 3.240442 1_546
Te9 Tm3 3.135029 1_555
Te9 Tm0 3.240442 1_564
Te9 Tm0 3.240442 1_565
Te9 Tm0 3.240442 1_454
Te9 Tm0 3.240442 1_455
