# generated using pymatgen
data_Li2V3CrO8
_symmetry_space_group_name_H-M   'P 1'
_cell_length_a   5.96953121
_cell_length_b   10.33479199
_cell_length_c   5.94308148
_cell_angle_alpha   73.15365347
_cell_angle_beta   119.88874412
_cell_angle_gamma   90.85921914
_symmetry_Int_Tables_number   1
_chemical_formula_structural   Li2V3CrO8
_chemical_formula_sum   'Li4 V6 Cr2 O16'
_cell_volume   300.51985562
_cell_formula_units_Z   2
loop_
 _symmetry_equiv_pos_site_id
 _symmetry_equiv_pos_as_xyz
  1  'x, y, z'
loop_
 _atom_site_type_symbol
 _atom_site_label
 _atom_site_symmetry_multiplicity
 _atom_site_fract_x
 _atom_site_fract_y
 _atom_site_fract_z
 _atom_site_occupancy
  Li  Li0  1  0.93655500  0.18712900  0.87005900  1
  Li  Li1  1  0.43606300  0.68713900  0.87878700  1
  Li  Li2  1  0.56393100  0.31286600  0.12121500  1
  Li  Li3  1  0.06343800  0.81286900  0.12996000  1
  V  V0  1  0.50001600  0.99997800  0.99999000  1
  V  V1  1  0.50002100  0.99995400  0.50009100  1
  V  V2  1  0.50016700  0.50004800  0.50003100  1
  V  V3  1  0.99994800  0.50004900  0.99979200  1
  V  V4  1  0.99991000  0.50001800  0.50004900  1
  V  V5  1  0.99999900  0.99993800  0.50006200  1
  Cr  Cr0  1  0.74948200  0.75041300  0.51437200  1
  Cr  Cr1  1  0.25049300  0.24960100  0.48555400  1
  O  O0  1  0.86342300  0.39307600  0.73704900  1
  O  O1  1  0.36356500  0.89311700  0.73430500  1
  O  O2  1  0.63642500  0.10686800  0.26573100  1
  O  O3  1  0.13657500  0.60693600  0.26294400  1
  O  O4  1  0.09103500  0.61736800  0.75336600  1
  O  O5  1  0.59239700  0.11697100  0.72079400  1
  O  O6  1  0.64342200  0.61371700  0.74874400  1
  O  O7  1  0.13348300  0.11648200  0.72174000  1
  O  O8  1  0.63472200  0.61704800  0.29568100  1
  O  O9  1  0.14464400  0.11386900  0.28080500  1
  O  O10  1  0.85534800  0.88611000  0.71922600  1
  O  O11  1  0.36528300  0.38295700  0.70431400  1
  O  O12  1  0.86651500  0.88351900  0.27826600  1
  O  O13  1  0.35657400  0.38629300  0.25124300  1
  O  O14  1  0.40760300  0.88302100  0.27921300  1
  O  O15  1  0.90896100  0.38264400  0.24661700  1
loop_
_geom_bond_atom_site_label_1
_geom_bond_atom_site_label_2
_geom_bond_distance
_geom_bond_site_symmetry_2
Li0 O9 2.002520 1_656
Li0 O5 2.011278 1_555
Li0 O0 2.013546 1_555
Li0 O7 2.030651 1_655
Li1 O6 2.006702 1_555
Li1 O1 2.013442 1_555
Li1 O4 2.013612 1_555
Li1 O8 2.031484 1_556
Li2 O13 2.006647 1_555
Li2 O2 2.013637 1_555
Li2 O15 2.013659 1_555
Li2 O11 2.031519 1_554
Li3 O10 2.002456 1_454
Li3 O14 2.011279 1_555
Li3 O3 2.013413 1_555
Li3 O12 2.030579 1_455
Cr0 O10 2.011107 1_555
Cr0 O6 2.012047 1_555
Cr0 O14 2.031648 1_555
Cr0 O4 2.032498 1_655
Cr0 O12 2.044205 1_555
Cr0 O8 2.044711 1_555
Cr1 O9 2.011015 1_555
Cr1 O13 2.011874 1_555
Cr1 O5 2.031856 1_555
Cr1 O15 2.032404 1_455
Cr1 O7 2.044491 1_555
Cr1 O11 2.044905 1_555
O0 V3 2.007478 1_555
O0 V2 2.008403 1_555
O0 V4 2.020817 1_555
O1 V1 2.008095 1_555
O1 V5 2.009212 1_455
O1 V0 2.019476 1_555
O2 V1 2.008776 1_545
O2 V5 2.009657 1_545
O2 V0 2.019950 1_544
O3 V3 2.008588 1_454
O3 V2 2.009571 1_555
O3 V4 2.021983 1_455
O4 V3 1.911871 1_455
O4 V4 2.062897 1_455
O5 V1 1.914572 1_545
O5 V0 2.061164 1_545
O6 V2 2.003176 1_555
O6 V3 2.007502 1_555
O7 V5 1.914689 1_445
O7 V0 2.071393 1_545
O8 V2 1.916803 1_555
O8 V4 2.068623 1_555
O9 V1 2.003772 1_545
O9 V5 2.007861 1_445
O10 V1 2.003289 1_555
O10 V5 2.007088 1_555
O11 V2 1.918380 1_555
O11 V4 2.069677 1_455
O12 V5 1.914092 1_555
O12 V0 2.071103 1_554
O13 V2 2.004293 1_555
O13 V3 2.008379 1_454
O14 V1 1.914593 1_555
O14 V0 2.061283 1_554
O15 V3 1.913559 1_554
O15 V4 2.063734 1_555
