# generated using pymatgen
data_Zr4NbAl3
_symmetry_space_group_name_H-M   'P 1'
_cell_length_a   5.33163200
_cell_length_b   8.18324973
_cell_length_c   8.19400768
_cell_angle_alpha   95.81249782
_cell_angle_beta   108.98600157
_cell_angle_gamma   70.98808128
_symmetry_Int_Tables_number   1
_chemical_formula_structural   Zr4NbAl3
_chemical_formula_sum   'Zr8 Nb2 Al6'
_cell_volume   319.61109284
_cell_formula_units_Z   2
loop_
 _symmetry_equiv_pos_site_id
 _symmetry_equiv_pos_as_xyz
  1  'x, y, z'
loop_
 _atom_site_type_symbol
 _atom_site_label
 _atom_site_symmetry_multiplicity
 _atom_site_fract_x
 _atom_site_fract_y
 _atom_site_fract_z
 _atom_site_occupancy
  Zr  Zr0  1  0.92513300  0.29428000  0.14454700  1
  Zr  Zr1  1  0.07486700  0.70572000  0.85545300  1
  Zr  Zr2  1  0.72001300  0.70250300  0.14252900  1
  Zr  Zr3  1  0.27998700  0.29749700  0.85747100  1
  Zr  Zr4  1  0.77848900  0.14043400  0.69741100  1
  Zr  Zr5  1  0.22151100  0.85956600  0.30258900  1
  Zr  Zr6  1  0.24980400  0.50000000  0.50000000  1
  Zr  Zr7  1  0.75019600  0.50000000  0.50000000  1
  Nb  Nb0  1  0.42296400  0.86446000  0.71038700  1
  Nb  Nb1  1  0.57703600  0.13554000  0.28961300  1
  Al  Al0  1  0.25218900  0.00000000  0.00000000  1
  Al  Al1  1  0.74781100  0.00000000  0.00000000  1
  Al  Al2  1  0.33968000  0.49352500  0.17288400  1
  Al  Al3  1  0.66032000  0.50647500  0.82711600  1
  Al  Al4  1  0.83263800  0.83373800  0.49901500  1
  Al  Al5  1  0.16736200  0.16626200  0.50098500  1
loop_
_geom_bond_atom_site_label_1
_geom_bond_atom_site_label_2
_geom_bond_distance
_geom_bond_site_symmetry_2
Zr0 Zr2 3.158321 1_555
Zr0 Zr7 3.455224 1_555
Zr0 Zr6 3.455226 1_655
Zr0 Zr3 3.471924 1_554
Zr0 Zr3 3.471928 1_654
Zr1 Zr3 3.158321 1_555
Zr1 Zr6 3.455224 1_555
Zr1 Zr7 3.455226 1_455
Zr1 Zr2 3.471924 1_556
Zr1 Zr2 3.471928 1_456
Zr2 Zr5 3.183888 1_655
Zr2 Zr5 3.183893 1_555
Zr2 Zr7 3.443026 1_555
Zr2 Zr6 3.443026 1_655
Zr3 Zr4 3.183888 1_455
Zr3 Zr4 3.183893 1_555
Zr3 Zr6 3.443026 1_555
Zr3 Zr7 3.443026 1_455
Zr4 Zr7 3.437042 1_555
Zr4 Zr6 3.437044 1_555
Zr5 Zr6 3.437042 1_555
Zr5 Zr7 3.437044 1_555
Zr6 Zr7 2.663726 1_455
Zr6 Zr7 2.667906 1_555
Nb0 Zr1 3.140664 1_555
Nb0 Zr1 3.140664 1_655
Nb0 Zr5 3.160142 1_555
Nb0 Zr4 3.416633 1_565
Nb0 Zr4 3.416633 1_465
Nb0 Zr7 3.526516 1_555
Nb0 Zr6 3.526518 1_555
Nb1 Zr0 3.140664 1_555
Nb1 Zr0 3.140664 1_455
Nb1 Zr4 3.160142 1_555
Nb1 Zr5 3.416633 1_545
Nb1 Zr5 3.416633 1_645
Nb1 Zr6 3.526516 1_555
Nb1 Zr7 3.526518 1_555
Al0 Al1 2.642474 1_555
Al0 Al1 2.689158 1_455
Al0 Nb1 2.811694 1_555
Al0 Nb0 2.811697 1_544
Al0 Zr3 2.869888 1_554
Al0 Zr2 2.869889 1_545
Al0 Zr1 2.876274 1_544
Al0 Zr0 2.876277 1_455
Al0 Zr4 2.908332 1_454
Al0 Zr5 2.908334 1_545
Al1 Nb0 2.811694 1_544
Al1 Nb1 2.811697 1_555
Al1 Zr2 2.869888 1_545
Al1 Zr3 2.869889 1_554
Al1 Zr0 2.876274 1_555
Al1 Zr1 2.876277 1_644
Al1 Zr5 2.908332 1_645
Al1 Zr4 2.908334 1_554
Al2 Zr7 2.864844 1_555
Al2 Zr6 2.864846 1_555
Al2 Zr3 2.883033 1_554
Al2 Nb1 2.909081 1_555
Al2 Zr1 2.949915 1_554
Al2 Zr5 3.010026 1_555
Al2 Zr0 3.087821 1_555
Al2 Zr0 3.087830 1_455
Al2 Zr2 3.126023 1_555
Al2 Zr2 3.126028 1_455
Al3 Zr6 2.864844 1_555
Al3 Zr7 2.864846 1_555
Al3 Zr2 2.883033 1_556
Al3 Nb0 2.909081 1_555
Al3 Zr0 2.949915 1_556
Al3 Zr4 3.010026 1_555
Al3 Zr1 3.087821 1_555
Al3 Zr1 3.087830 1_655
Al3 Zr3 3.126023 1_555
Al3 Zr3 3.126028 1_655
Al4 Zr4 2.834072 1_565
Al4 Nb1 2.836336 1_565
Al4 Zr7 2.905316 1_555
Al4 Zr6 2.905319 1_655
Al4 Zr1 2.929085 1_655
Al4 Zr2 2.947862 1_555
Al4 Zr5 3.075654 1_655
Al4 Zr5 3.075655 1_555
Al4 Nb0 3.138376 1_555
Al4 Nb0 3.138385 1_655
Al5 Zr5 2.834072 1_545
Al5 Nb0 2.836336 1_545
Al5 Zr6 2.905316 1_555
Al5 Zr7 2.905319 1_455
Al5 Zr0 2.929085 1_455
Al5 Zr3 2.947862 1_555
Al5 Zr4 3.075654 1_455
Al5 Zr4 3.075655 1_555
Al5 Nb1 3.138376 1_555
Al5 Nb1 3.138385 1_455
