# generated using pymatgen
data_Pd
_symmetry_space_group_name_H-M   'P 1'
_cell_length_a   5.52512252
_cell_length_b   5.52512416
_cell_length_c   18.23678818
_cell_angle_alpha   90.00000000
_cell_angle_beta   90.00000000
_cell_angle_gamma   119.99997778
_symmetry_Int_Tables_number   1
_chemical_formula_structural   Pd
_chemical_formula_sum   Pd32
_cell_volume   482.12875833
_cell_formula_units_Z   32
loop_
 _symmetry_equiv_pos_site_id
 _symmetry_equiv_pos_as_xyz
  1  'x, y, z'
loop_
 _atom_site_type_symbol
 _atom_site_label
 _atom_site_symmetry_multiplicity
 _atom_site_fract_x
 _atom_site_fract_y
 _atom_site_fract_z
 _atom_site_occupancy
  Pd  Pd0_0  1  0.00000000  0.00000000  0.00000000  1
  Pd  Pd0_1  1  0.00000000  0.00000000  0.50000000  1
  Pd  Pd0_2  1  0.00000000  0.50000000  0.00000000  1
  Pd  Pd0_3  1  0.00000000  0.50000000  0.50000000  1
  Pd  Pd0_4  1  0.50000000  0.00000000  0.00000000  1
  Pd  Pd0_5  1  0.50000000  0.00000000  0.50000000  1
  Pd  Pd0_6  1  0.50000000  0.50000000  0.00000000  1
  Pd  Pd0_7  1  0.50000000  0.50000000  0.50000000  1
  Pd  Pd1_0  1  0.16666700  0.33333400  0.12505266  1
  Pd  Pd1_1  1  0.16666700  0.33333400  0.62505265  1
  Pd  Pd1_2  1  0.16666700  0.83333400  0.12505266  1
  Pd  Pd1_3  1  0.16666700  0.83333400  0.62505265  1
  Pd  Pd1_4  1  0.66666700  0.33333400  0.12505266  1
  Pd  Pd1_5  1  0.66666700  0.33333400  0.62505265  1
  Pd  Pd1_6  1  0.66666700  0.83333400  0.12505266  1
  Pd  Pd1_7  1  0.66666700  0.83333400  0.62505265  1
  Pd  Pd2_0  1  0.00000000  0.00000000  0.25000000  1
  Pd  Pd2_1  1  0.00000000  0.00000000  0.75000000  1
  Pd  Pd2_2  1  0.00000000  0.50000000  0.25000000  1
  Pd  Pd2_3  1  0.00000000  0.50000000  0.75000000  1
  Pd  Pd2_4  1  0.50000000  0.00000000  0.25000000  1
  Pd  Pd2_5  1  0.50000000  0.00000000  0.75000000  1
  Pd  Pd2_6  1  0.50000000  0.50000000  0.25000000  1
  Pd  Pd2_7  1  0.50000000  0.50000000  0.75000000  1
  Pd  Pd3_0  1  0.33333250  0.16666600  0.37494734  1
  Pd  Pd3_1  1  0.33333250  0.16666600  0.87494735  1
  Pd  Pd3_2  1  0.33333250  0.66666600  0.37494734  1
  Pd  Pd3_3  1  0.33333250  0.66666600  0.87494735  1
  Pd  Pd3_4  1  0.83333250  0.16666600  0.37494734  1
  Pd  Pd3_5  1  0.83333250  0.16666600  0.87494735  1
  Pd  Pd3_6  1  0.83333250  0.66666600  0.37494734  1
  Pd  Pd3_7  1  0.83333250  0.66666600  0.87494735  1
loop_
_geom_bond_atom_site_label_1
_geom_bond_atom_site_label_2
_geom_bond_distance
_geom_bond_site_symmetry_2
Pd0_0 Pd0_4 2.762561 1_455
Pd0_0 Pd0_4 2.762561 1_555
Pd0_0 Pd0_2 2.762562 1_555
Pd0_0 Pd0_2 2.762562 1_545
Pd0_0 Pd0_6 2.762563 1_445
Pd0_0 Pd0_6 2.762563 1_555
Pd0_0 Pd3_1 2.782957 1_554
Pd0_0 Pd1_2 2.782959 1_545
Pd0_0 Pd1_6 2.782959 1_445
Pd0_0 Pd3_5 2.782960 1_454
Pd0_0 Pd1_0 2.782962 1_555
Pd0_0 Pd3_7 2.782962 1_444
Pd0_1 Pd0_5 2.762561 1_455
Pd0_1 Pd0_5 2.762561 1_555
Pd0_1 Pd0_3 2.762562 1_555
Pd0_1 Pd0_3 2.762562 1_545
Pd0_1 Pd0_7 2.762563 1_445
Pd0_1 Pd0_7 2.762563 1_555
Pd0_1 Pd3_0 2.782957 1_555
Pd0_1 Pd1_3 2.782959 1_545
Pd0_1 Pd1_7 2.782959 1_445
Pd0_1 Pd3_4 2.782960 1_455
Pd0_1 Pd1_1 2.782962 1_555
Pd0_1 Pd3_6 2.782962 1_445
Pd0_2 Pd0_6 2.762561 1_455
Pd0_2 Pd0_6 2.762561 1_555
Pd0_2 Pd0_4 2.762563 1_455
Pd0_2 Pd0_4 2.762563 1_565
Pd0_2 Pd3_3 2.782957 1_554
Pd0_2 Pd1_0 2.782959 1_555
Pd0_2 Pd1_4 2.782959 1_455
Pd0_2 Pd3_7 2.782960 1_454
Pd0_2 Pd1_2 2.782962 1_555
Pd0_2 Pd3_5 2.782962 1_454
Pd0_3 Pd0_7 2.762561 1_455
Pd0_3 Pd0_7 2.762561 1_555
Pd0_3 Pd0_5 2.762563 1_455
Pd0_3 Pd0_5 2.762563 1_565
Pd0_3 Pd3_2 2.782957 1_555
Pd0_3 Pd1_1 2.782959 1_555
Pd0_3 Pd1_5 2.782959 1_455
Pd0_3 Pd3_6 2.782960 1_455
Pd0_3 Pd1_3 2.782962 1_555
Pd0_3 Pd3_4 2.782962 1_455
Pd0_4 Pd0_6 2.762562 1_545
Pd0_4 Pd0_6 2.762562 1_555
Pd0_4 Pd3_5 2.782957 1_554
Pd0_4 Pd1_6 2.782959 1_545
Pd0_4 Pd1_2 2.782959 1_545
Pd0_4 Pd3_1 2.782960 1_554
Pd0_4 Pd1_4 2.782962 1_555
Pd0_4 Pd3_3 2.782962 1_544
Pd0_5 Pd0_7 2.762562 1_555
Pd0_5 Pd0_7 2.762562 1_545
Pd0_5 Pd3_4 2.782957 1_555
Pd0_5 Pd1_7 2.782959 1_545
Pd0_5 Pd1_3 2.782959 1_545
Pd0_5 Pd3_0 2.782960 1_555
Pd0_5 Pd1_5 2.782962 1_555
Pd0_5 Pd3_2 2.782962 1_545
Pd0_6 Pd3_7 2.782957 1_554
Pd0_6 Pd1_4 2.782959 1_555
Pd0_6 Pd1_0 2.782959 1_555
Pd0_6 Pd3_3 2.782960 1_554
Pd0_6 Pd1_6 2.782962 1_555
Pd0_6 Pd3_1 2.782962 1_554
Pd0_7 Pd3_6 2.782957 1_555
Pd0_7 Pd1_5 2.782959 1_555
Pd0_7 Pd1_1 2.782959 1_555
Pd0_7 Pd3_2 2.782960 1_555
Pd0_7 Pd1_7 2.782962 1_555
Pd0_7 Pd3_0 2.782962 1_555
Pd1_0 Pd1_4 2.762561 1_455
Pd1_0 Pd1_4 2.762561 1_555
Pd1_0 Pd1_2 2.762562 1_555
Pd1_0 Pd1_2 2.762562 1_545
Pd1_0 Pd1_6 2.762563 1_555
Pd1_0 Pd1_6 2.762563 1_445
Pd1_0 Pd2_2 2.781385 1_555
Pd1_0 Pd2_6 2.781385 1_555
Pd1_0 Pd2_0 2.781388 1_555
Pd1_1 Pd1_5 2.762561 1_455
Pd1_1 Pd1_5 2.762561 1_555
Pd1_1 Pd1_3 2.762562 1_555
Pd1_1 Pd1_3 2.762562 1_545
Pd1_1 Pd1_7 2.762563 1_445
Pd1_1 Pd1_7 2.762563 1_555
Pd1_1 Pd2_3 2.781385 1_555
Pd1_1 Pd2_7 2.781385 1_555
Pd1_1 Pd2_1 2.781388 1_555
Pd1_2 Pd1_6 2.762561 1_455
Pd1_2 Pd1_6 2.762561 1_555
Pd1_2 Pd1_4 2.762563 1_455
Pd1_2 Pd1_4 2.762563 1_565
Pd1_2 Pd2_0 2.781385 1_565
Pd1_2 Pd2_4 2.781385 1_565
Pd1_2 Pd2_2 2.781388 1_555
Pd1_3 Pd1_7 2.762561 1_455
Pd1_3 Pd1_7 2.762561 1_555
Pd1_3 Pd1_5 2.762563 1_455
Pd1_3 Pd1_5 2.762563 1_565
Pd1_3 Pd2_1 2.781385 1_565
Pd1_3 Pd2_5 2.781385 1_565
Pd1_3 Pd2_3 2.781388 1_555
Pd1_4 Pd1_6 2.762562 1_545
Pd1_4 Pd1_6 2.762562 1_555
Pd1_4 Pd2_6 2.781385 1_555
Pd1_4 Pd2_2 2.781385 1_655
Pd1_4 Pd2_4 2.781388 1_555
Pd1_5 Pd1_7 2.762562 1_545
Pd1_5 Pd1_7 2.762562 1_555
Pd1_5 Pd2_7 2.781385 1_555
Pd1_5 Pd2_3 2.781385 1_655
Pd1_5 Pd2_5 2.781388 1_555
Pd1_6 Pd2_4 2.781385 1_565
Pd1_6 Pd2_0 2.781385 1_665
Pd1_6 Pd2_6 2.781388 1_555
Pd1_7 Pd2_5 2.781385 1_565
Pd1_7 Pd2_1 2.781385 1_665
Pd1_7 Pd2_7 2.781388 1_555
Pd2_0 Pd2_4 2.762561 1_455
Pd2_0 Pd2_4 2.762561 1_555
Pd2_0 Pd2_2 2.762562 1_555
Pd2_0 Pd2_2 2.762562 1_545
Pd2_0 Pd2_6 2.762563 1_445
Pd2_0 Pd2_6 2.762563 1_555
Pd2_0 Pd3_0 2.781384 1_555
Pd2_0 Pd3_4 2.781386 1_455
Pd2_0 Pd3_6 2.781388 1_445
Pd2_1 Pd2_5 2.762561 1_455
Pd2_1 Pd2_5 2.762561 1_555
Pd2_1 Pd2_3 2.762562 1_555
Pd2_1 Pd2_3 2.762562 1_545
Pd2_1 Pd2_7 2.762563 1_445
Pd2_1 Pd2_7 2.762563 1_555
Pd2_1 Pd3_1 2.781384 1_555
Pd2_1 Pd3_5 2.781386 1_455
Pd2_1 Pd3_7 2.781388 1_445
Pd2_2 Pd2_6 2.762561 1_455
Pd2_2 Pd2_6 2.762561 1_555
Pd2_2 Pd2_4 2.762563 1_455
Pd2_2 Pd2_4 2.762563 1_565
Pd2_2 Pd3_2 2.781384 1_555
Pd2_2 Pd3_6 2.781386 1_455
Pd2_2 Pd3_4 2.781388 1_455
Pd2_3 Pd2_7 2.762561 1_455
Pd2_3 Pd2_7 2.762561 1_555
Pd2_3 Pd2_5 2.762563 1_455
Pd2_3 Pd2_5 2.762563 1_565
Pd2_3 Pd3_3 2.781384 1_555
Pd2_3 Pd3_7 2.781386 1_455
Pd2_3 Pd3_5 2.781388 1_455
Pd2_4 Pd2_6 2.762562 1_555
Pd2_4 Pd2_6 2.762562 1_545
Pd2_4 Pd3_4 2.781384 1_555
Pd2_4 Pd3_0 2.781386 1_555
Pd2_4 Pd3_2 2.781388 1_545
Pd2_5 Pd2_7 2.762562 1_545
Pd2_5 Pd2_7 2.762562 1_555
Pd2_5 Pd3_5 2.781384 1_555
Pd2_5 Pd3_1 2.781386 1_555
Pd2_5 Pd3_3 2.781388 1_545
Pd2_6 Pd3_6 2.781384 1_555
Pd2_6 Pd3_2 2.781386 1_555
Pd2_6 Pd3_0 2.781388 1_555
Pd2_7 Pd3_7 2.781384 1_555
Pd2_7 Pd3_3 2.781386 1_555
Pd2_7 Pd3_1 2.781388 1_555
Pd3_0 Pd3_4 2.762561 1_455
Pd3_0 Pd3_4 2.762561 1_555
Pd3_0 Pd3_2 2.762562 1_545
Pd3_0 Pd3_2 2.762562 1_555
Pd3_0 Pd3_6 2.762563 1_445
Pd3_0 Pd3_6 2.762563 1_555
Pd3_1 Pd3_5 2.762561 1_455
Pd3_1 Pd3_5 2.762561 1_555
Pd3_1 Pd3_3 2.762562 1_545
Pd3_1 Pd3_3 2.762562 1_555
Pd3_1 Pd3_7 2.762563 1_445
Pd3_1 Pd3_7 2.762563 1_555
Pd3_2 Pd3_6 2.762561 1_455
Pd3_2 Pd3_6 2.762561 1_555
Pd3_2 Pd3_4 2.762563 1_455
Pd3_2 Pd3_4 2.762563 1_565
Pd3_3 Pd3_7 2.762561 1_455
Pd3_3 Pd3_7 2.762561 1_555
Pd3_3 Pd3_5 2.762563 1_455
Pd3_3 Pd3_5 2.762563 1_565
Pd3_4 Pd3_6 2.762562 1_545
Pd3_4 Pd3_6 2.762562 1_555
Pd3_5 Pd3_7 2.762562 1_555
Pd3_5 Pd3_7 2.762562 1_545
