# generated using pymatgen
data_Ca2In3Cu
_symmetry_space_group_name_H-M   'P 1'
_cell_length_a   4.77104100
_cell_length_b   6.17682581
_cell_length_c   6.11748856
_cell_angle_alpha   93.51540329
_cell_angle_beta   112.95144258
_cell_angle_gamma   67.28144164
_symmetry_Int_Tables_number   1
_chemical_formula_structural   Ca2In3Cu
_chemical_formula_sum   'Ca2 In3 Cu1'
_cell_volume   152.28129736
_cell_formula_units_Z   1
loop_
 _symmetry_equiv_pos_site_id
 _symmetry_equiv_pos_as_xyz
  1  'x, y, z'
loop_
 _atom_site_type_symbol
 _atom_site_label
 _atom_site_symmetry_multiplicity
 _atom_site_fract_x
 _atom_site_fract_y
 _atom_site_fract_z
 _atom_site_occupancy
  Ca  Ca0  1  0.74997400  0.70903000  0.20897700  1
  Ca  Ca1  1  0.24966800  0.29507200  0.79440800  1
  In  In0  1  0.46100000  0.68134900  0.60335000  1
  In  In1  1  0.05170400  0.13077900  0.23418600  1
  In  In2  1  0.93726800  0.90362900  0.77816600  1
  Cu  Cu0  1  0.55038600  0.28014100  0.38091200  1
loop_
_geom_bond_atom_site_label_1
_geom_bond_atom_site_label_2
_geom_bond_distance
_geom_bond_site_symmetry_2
Ca0 In0 3.252281 1_655
Ca0 In0 3.252287 1_555
Ca0 In1 3.282746 1_655
Ca0 In1 3.399527 1_665
Ca0 In1 3.399527 1_565
Ca0 In0 3.431783 1_554
Ca0 Cu0 3.478872 1_555
Ca0 Cu0 3.478873 1_655
Ca0 Cu0 3.491254 1_565
Ca0 In2 3.499128 1_554
Ca0 In2 3.499135 1_454
Ca0 In2 3.501059 1_555
Ca0 Ca1 3.847521 1_655
Ca0 Ca1 3.868282 1_564
Ca1 In2 3.273548 1_545
Ca1 In2 3.273551 1_445
Ca1 Cu0 3.296039 1_556
Ca1 Cu0 3.341446 1_455
Ca1 Cu0 3.341449 1_555
Ca1 In0 3.345863 1_555
Ca1 In0 3.345867 1_455
Ca1 In1 3.384764 1_555
Ca1 In2 3.458885 1_455
Ca1 In1 3.495241 1_556
Ca1 In1 3.495245 1_656
Ca1 In0 3.765199 1_545
In0 In2 2.920034 1_555
In0 In2 2.920034 1_455
In0 In1 3.124443 1_565
In1 In2 2.995482 1_444
Cu0 In1 2.691830 1_555
Cu0 In1 2.691830 1_655
Cu0 In0 2.719870 1_555
Cu0 In2 2.932660 1_545
