# generated using pymatgen
data_LaCeSn6
_symmetry_space_group_name_H-M   'P 1'
_cell_length_a   4.76861511
_cell_length_b   4.76861194
_cell_length_c   9.52777061
_cell_angle_alpha   90.00000000
_cell_angle_beta   90.00000000
_cell_angle_gamma   90.00000000
_symmetry_Int_Tables_number   1
_chemical_formula_structural   LaCeSn6
_chemical_formula_sum   'La1 Ce1 Sn6'
_cell_volume   216.65840668
_cell_formula_units_Z   1
loop_
 _symmetry_equiv_pos_site_id
 _symmetry_equiv_pos_as_xyz
  1  'x, y, z'
loop_
 _atom_site_type_symbol
 _atom_site_label
 _atom_site_symmetry_multiplicity
 _atom_site_fract_x
 _atom_site_fract_y
 _atom_site_fract_z
 _atom_site_occupancy
  La  La0  1  -0.00000000  0.00000000  0.50000000  1
  Ce  Ce0  1  -0.00000000  -0.00000000  0.00000000  1
  Sn  Sn0  1  0.50000000  0.50000000  -0.00000000  1
  Sn  Sn1  1  0.50000000  0.50000000  0.50000000  1
  Sn  Sn2  1  0.50000000  -0.00000000  0.24672512  1
  Sn  Sn3  1  0.50000000  0.00000000  0.75327488  1
  Sn  Sn4  1  0.00000000  0.50000000  0.24672512  1
  Sn  Sn5  1  -0.00000000  0.50000000  0.75327488  1
loop_
_geom_bond_atom_site_label_1
_geom_bond_atom_site_label_2
_geom_bond_distance
_geom_bond_site_symmetry_2
La0 Sn1 3.371919 1_445
La0 Sn1 3.371919 1_455
La0 Sn1 3.371919 1_555
La0 Sn1 3.371919 1_545
La0 Sn4 3.392371 1_555
La0 Sn4 3.392371 1_545
La0 Sn5 3.392371 1_545
La0 Sn5 3.392371 1_555
La0 Sn3 3.392372 1_455
La0 Sn2 3.392372 1_455
La0 Sn2 3.392372 1_555
La0 Sn3 3.392372 1_555
Ce0 Sn4 3.348267 1_555
Ce0 Sn4 3.348267 1_545
Ce0 Sn5 3.348267 1_544
Ce0 Sn5 3.348267 1_554
Ce0 Sn2 3.348269 1_455
Ce0 Sn2 3.348269 1_555
Ce0 Sn3 3.348269 1_454
Ce0 Sn3 3.348269 1_554
Ce0 Sn0 3.371919 1_455
Ce0 Sn0 3.371919 1_445
Ce0 Sn0 3.371919 1_555
Ce0 Sn0 3.371919 1_545
Sn0 Sn2 3.348267 1_555
Sn0 Sn2 3.348267 1_565
Sn0 Sn3 3.348267 1_564
Sn0 Sn3 3.348267 1_554
Sn0 Sn4 3.348269 1_555
Sn0 Sn4 3.348269 1_655
Sn0 Sn5 3.348269 1_554
Sn0 Sn5 3.348269 1_654
Sn1 Sn3 3.392371 1_555
Sn1 Sn3 3.392371 1_565
Sn1 Sn2 3.392371 1_565
Sn1 Sn2 3.392371 1_555
Sn1 Sn4 3.392372 1_555
Sn1 Sn4 3.392372 1_655
Sn1 Sn5 3.392372 1_555
Sn1 Sn5 3.392372 1_655
Sn2 Sn4 3.371919 1_655
Sn2 Sn4 3.371919 1_645
Sn2 Sn4 3.371919 1_555
Sn2 Sn4 3.371919 1_545
Sn3 Sn5 3.371919 1_545
Sn3 Sn5 3.371919 1_555
Sn3 Sn5 3.371919 1_655
Sn3 Sn5 3.371919 1_645
