# generated using pymatgen
data_Rb(CoAs)2
_symmetry_space_group_name_H-M   'P 1'
_cell_length_a   15.24127351
_cell_length_b   15.24127351
_cell_length_c   15.24127351
_cell_angle_alpha   151.46276912
_cell_angle_beta   151.46276912
_cell_angle_gamma   40.79836184
_symmetry_Int_Tables_number   1
_chemical_formula_structural   Rb(CoAs)2
_chemical_formula_sum   'Rb8 Co16 As16'
_cell_volume   806.33975344
_cell_formula_units_Z   8
loop_
 _symmetry_equiv_pos_site_id
 _symmetry_equiv_pos_as_xyz
  1  'x, y, z'
loop_
 _atom_site_type_symbol
 _atom_site_label
 _atom_site_symmetry_multiplicity
 _atom_site_fract_x
 _atom_site_fract_y
 _atom_site_fract_z
 _atom_site_occupancy
  Rb  Rb0_0  1  0.00000000  0.00000000  0.00000000  1
  Rb  Rb0_1  1  0.00000000  0.00000000  0.50000000  1
  Rb  Rb0_2  1  0.00000000  0.50000000  0.00000000  1
  Rb  Rb0_3  1  0.00000000  0.50000000  0.50000000  1
  Rb  Rb0_4  1  0.50000000  0.00000000  0.00000000  1
  Rb  Rb0_5  1  0.50000000  0.00000000  0.50000000  1
  Rb  Rb0_6  1  0.50000000  0.50000000  0.00000000  1
  Rb  Rb0_7  1  0.50000000  0.50000000  0.50000000  1
  Co  Co0_0  1  0.37500000  0.12500000  0.25000000  1
  Co  Co0_1  1  0.37500000  0.12500000  0.75000000  1
  Co  Co0_2  1  0.37500000  0.62500000  0.25000000  1
  Co  Co0_3  1  0.37500000  0.62500000  0.75000000  1
  Co  Co0_4  1  0.87500000  0.12500000  0.25000000  1
  Co  Co0_5  1  0.87500000  0.12500000  0.75000000  1
  Co  Co0_6  1  0.87500000  0.62500000  0.25000000  1
  Co  Co0_7  1  0.87500000  0.62500000  0.75000000  1
  Co  Co1_0  1  0.12500000  0.37500000  0.25000000  1
  Co  Co1_1  1  0.12500000  0.37500000  0.75000000  1
  Co  Co1_2  1  0.12500000  0.87500000  0.25000000  1
  Co  Co1_3  1  0.12500000  0.87500000  0.75000000  1
  Co  Co1_4  1  0.62500000  0.37500000  0.25000000  1
  Co  Co1_5  1  0.62500000  0.37500000  0.75000000  1
  Co  Co1_6  1  0.62500000  0.87500000  0.25000000  1
  Co  Co1_7  1  0.62500000  0.87500000  0.75000000  1
  As  As0_0  1  0.17075974  0.17075974  0.00000000  1
  As  As0_1  1  0.17075974  0.17075974  0.50000000  1
  As  As0_2  1  0.17075974  0.67075974  0.00000000  1
  As  As0_3  1  0.17075974  0.67075974  0.50000000  1
  As  As0_4  1  0.67075974  0.17075974  0.00000000  1
  As  As0_5  1  0.67075974  0.17075974  0.50000000  1
  As  As0_6  1  0.67075974  0.67075974  0.00000000  1
  As  As0_7  1  0.67075974  0.67075974  0.50000000  1
  As  As1_0  1  0.32924026  0.32924026  0.00000000  1
  As  As1_1  1  0.32924026  0.32924026  0.50000000  1
  As  As1_2  1  0.32924026  0.82924026  0.00000000  1
  As  As1_3  1  0.32924026  0.82924026  0.50000000  1
  As  As1_4  1  0.82924026  0.32924026  0.00000000  1
  As  As1_5  1  0.82924026  0.32924026  0.50000000  1
  As  As1_6  1  0.82924026  0.82924026  0.00000000  1
  As  As1_7  1  0.82924026  0.82924026  0.50000000  1
loop_
_geom_bond_atom_site_label_1
_geom_bond_atom_site_label_2
_geom_bond_distance
_geom_bond_site_symmetry_2
Rb0_0 Rb0_3 3.756489 1_544
Rb0_0 Rb0_5 3.756489 1_555
Rb0_0 Rb0_5 3.756489 1_454
Rb0_0 Rb0_3 3.756489 1_555
Rb0_1 Rb0_4 3.756489 1_556
Rb0_1 Rb0_2 3.756489 1_556
Rb0_1 Rb0_2 3.756489 1_545
Rb0_1 Rb0_4 3.756489 1_455
Rb0_2 Rb0_7 3.756489 1_555
Rb0_2 Rb0_7 3.756489 1_454
Rb0_3 Rb0_6 3.756489 1_455
Rb0_3 Rb0_6 3.756489 1_556
Rb0_4 Rb0_7 3.756489 1_544
Rb0_4 Rb0_7 3.756489 1_555
Rb0_5 Rb0_6 3.756489 1_545
Rb0_5 Rb0_6 3.756489 1_556
Co0_0 Co1_3 2.656239 1_544
Co0_0 Co1_5 2.656239 1_555
Co0_0 Co1_6 2.656239 1_545
Co0_0 Co1_0 2.656239 1_555
Co0_1 Co1_1 2.656239 1_555
Co0_1 Co1_4 2.656239 1_556
Co0_1 Co1_2 2.656239 1_545
Co0_1 Co1_7 2.656239 1_545
Co0_2 Co1_7 2.656239 1_555
Co0_2 Co1_1 2.656239 1_554
Co0_2 Co1_4 2.656239 1_555
Co0_2 Co1_2 2.656239 1_555
Co0_3 Co1_5 2.656239 1_555
Co0_3 Co1_6 2.656239 1_556
Co0_3 Co1_3 2.656239 1_555
Co0_3 Co1_0 2.656239 1_555
Co0_4 Co1_4 2.656239 1_555
Co0_4 Co1_1 2.656239 1_655
Co0_4 Co1_7 2.656239 1_544
Co0_4 Co1_2 2.656239 1_645
Co0_5 Co1_3 2.656239 1_645
Co0_5 Co1_6 2.656239 1_545
Co0_5 Co1_0 2.656239 1_656
Co0_5 Co1_5 2.656239 1_555
Co0_6 Co1_0 2.656239 1_655
Co0_6 Co1_5 2.656239 1_554
Co0_6 Co1_6 2.656239 1_555
Co0_6 Co1_3 2.656239 1_655
Co0_7 Co1_7 2.656239 1_555
Co0_7 Co1_4 2.656239 1_555
Co0_7 Co1_1 2.656239 1_655
Co0_7 Co1_2 2.656239 1_656
As0_0 Co1_3 2.288469 1_544
As0_0 Co0_0 2.288469 1_555
As0_0 Co0_5 2.288469 1_454
As0_0 Co1_0 2.288469 1_555
As0_0 Rb0_4 3.490149 1_555
As0_0 Rb0_7 3.490149 1_555
As0_0 Rb0_1 3.490149 1_554
As0_0 Rb0_2 3.490149 1_555
As0_1 Co0_4 2.288469 1_455
As0_1 Co1_2 2.288469 1_545
As0_1 Co1_1 2.288469 1_555
As0_1 Co0_1 2.288469 1_555
As0_1 Rb0_0 3.490149 1_555
As0_1 Rb0_3 3.490149 1_555
As0_1 Rb0_5 3.490149 1_555
As0_1 Rb0_6 3.490149 1_556
As0_2 Co1_1 2.288469 1_554
As0_2 Co0_2 2.288469 1_555
As0_2 Co1_2 2.288469 1_555
As0_2 Co0_7 2.288469 1_454
As0_2 Rb0_6 3.490149 1_555
As0_2 Rb0_5 3.490149 1_565
As0_2 Rb0_3 3.490149 1_554
As0_2 Rb0_0 3.490149 1_565
As0_3 Co1_0 2.288469 1_555
As0_3 Co0_3 2.288469 1_555
As0_3 Co0_6 2.288469 1_455
As0_3 Co1_3 2.288469 1_555
As0_3 Rb0_7 3.490149 1_555
As0_3 Rb0_4 3.490149 1_566
As0_3 Rb0_2 3.490149 1_555
As0_3 Rb0_1 3.490149 1_565
As0_4 Co0_4 2.288469 1_555
As0_4 Co1_4 2.288469 1_555
As0_4 Co1_7 2.288469 1_544
As0_4 Co0_1 2.288469 1_554
As0_4 Rb0_6 3.490149 1_555
As0_4 Rb0_0 3.490149 1_655
As0_4 Rb0_3 3.490149 1_655
As0_4 Rb0_5 3.490149 1_554
As0_5 Co0_5 2.288469 1_555
As0_5 Co1_6 2.288469 1_545
As0_5 Co0_0 2.288469 1_555
As0_5 Co1_5 2.288469 1_555
As0_5 Rb0_4 3.490149 1_555
As0_5 Rb0_1 3.490149 1_655
As0_5 Rb0_7 3.490149 1_555
As0_5 Rb0_2 3.490149 1_656
As0_6 Co1_6 2.288469 1_555
As0_6 Co0_6 2.288469 1_555
As0_6 Co0_3 2.288469 1_554
As0_6 Co1_5 2.288469 1_554
As0_6 Rb0_1 3.490149 1_665
As0_6 Rb0_7 3.490149 1_554
As0_6 Rb0_2 3.490149 1_655
As0_6 Rb0_4 3.490149 1_565
As0_7 Co1_7 2.288469 1_555
As0_7 Co0_7 2.288469 1_555
As0_7 Co0_2 2.288469 1_555
As0_7 Co1_4 2.288469 1_555
As0_7 Rb0_6 3.490149 1_555
As0_7 Rb0_3 3.490149 1_655
As0_7 Rb0_5 3.490149 1_565
As0_7 Rb0_0 3.490149 1_666
As1_0 Co0_1 2.288469 1_554
As1_0 Co1_4 2.288469 1_555
As1_0 Co0_2 2.288469 1_555
As1_0 Co1_1 2.288469 1_554
As1_0 Rb0_1 3.490149 1_554
As1_0 Rb0_2 3.490149 1_555
As1_0 Rb0_7 3.490149 1_555
As1_0 Rb0_4 3.490149 1_555
As1_1 Co1_5 2.288469 1_555
As1_1 Co0_3 2.288469 1_555
As1_1 Co1_0 2.288469 1_555
As1_1 Co0_0 2.288469 1_555
As1_1 Rb0_3 3.490149 1_555
As1_1 Rb0_6 3.490149 1_556
As1_1 Rb0_5 3.490149 1_555
As1_1 Rb0_0 3.490149 1_555
As1_2 Co0_3 2.288469 1_554
As1_2 Co0_0 2.288469 1_565
As1_2 Co1_3 2.288469 1_554
As1_2 Co1_6 2.288469 1_555
As1_2 Rb0_3 3.490149 1_554
As1_2 Rb0_6 3.490149 1_555
As1_2 Rb0_0 3.490149 1_565
As1_2 Rb0_5 3.490149 1_565
As1_3 Co0_1 2.288469 1_565
As1_3 Co0_2 2.288469 1_555
As1_3 Co1_7 2.288469 1_555
As1_3 Co1_2 2.288469 1_555
As1_3 Rb0_2 3.490149 1_555
As1_3 Rb0_4 3.490149 1_566
As1_3 Rb0_1 3.490149 1_565
As1_3 Rb0_7 3.490149 1_555
As1_4 Co1_5 2.288469 1_554
As1_4 Co0_5 2.288469 1_554
As1_4 Co1_0 2.288469 1_655
As1_4 Co0_6 2.288469 1_555
As1_4 Rb0_5 3.490149 1_554
As1_4 Rb0_6 3.490149 1_555
As1_4 Rb0_3 3.490149 1_655
As1_4 Rb0_0 3.490149 1_655
As1_5 Co1_4 2.288469 1_555
As1_5 Co0_7 2.288469 1_555
As1_5 Co1_1 2.288469 1_655
As1_5 Co0_4 2.288469 1_555
As1_5 Rb0_4 3.490149 1_555
As1_5 Rb0_2 3.490149 1_656
As1_5 Rb0_1 3.490149 1_655
As1_5 Rb0_7 3.490149 1_555
As1_6 Co0_7 2.288469 1_554
As1_6 Co1_2 2.288469 1_655
As1_6 Co0_4 2.288469 1_565
As1_6 Co1_7 2.288469 1_554
As1_6 Rb0_2 3.490149 1_655
As1_6 Rb0_4 3.490149 1_565
As1_6 Rb0_1 3.490149 1_665
As1_6 Rb0_7 3.490149 1_554
As1_7 Co0_5 2.288469 1_565
As1_7 Co1_3 2.288469 1_655
As1_7 Co0_6 2.288469 1_555
As1_7 Co1_6 2.288469 1_555
As1_7 Rb0_6 3.490149 1_555
As1_7 Rb0_0 3.490149 1_666
As1_7 Rb0_3 3.490149 1_655
As1_7 Rb0_5 3.490149 1_565
