# generated using pymatgen
data_BaMg2N2
_symmetry_space_group_name_H-M   'P 1'
_cell_length_a   3.72733200
_cell_length_b   3.72733183
_cell_length_c   6.75568600
_cell_angle_alpha   90.00000083
_cell_angle_beta   90.00007315
_cell_angle_gamma   120.00000154
_symmetry_Int_Tables_number   1
_chemical_formula_structural   BaMg2N2
_chemical_formula_sum   'Ba1 Mg2 N2'
_cell_volume   81.28234342
_cell_formula_units_Z   1
loop_
 _symmetry_equiv_pos_site_id
 _symmetry_equiv_pos_as_xyz
  1  'x, y, z'
loop_
 _atom_site_type_symbol
 _atom_site_label
 _atom_site_symmetry_multiplicity
 _atom_site_fract_x
 _atom_site_fract_y
 _atom_site_fract_z
 _atom_site_occupancy
  Ba  Ba0  1  0.00000000  0.00000000  0.50000000  1
  Mg  Mg0  1  0.66666800  0.33333400  0.12263600  1
  Mg  Mg1  1  0.33333200  0.66666600  0.87736400  1
  N  N0  1  0.66666500  0.33333300  0.79439200  1
  N  N1  1  0.33333500  0.66666700  0.20560800  1
loop_
_geom_bond_atom_site_label_1
_geom_bond_atom_site_label_2
_geom_bond_distance
_geom_bond_site_symmetry_2
Ba0 N0 2.930251 1_555
Ba0 N1 2.930251 1_445
Ba0 N0 2.930259 1_445
Ba0 N1 2.930259 1_555
Ba0 N0 2.930261 1_455
Ba0 N1 2.930261 1_545
Ba0 Mg1 3.336193 1_555
Ba0 Mg0 3.336193 1_445
Ba0 Mg1 3.336193 1_545
Ba0 Mg0 3.336193 1_455
Ba0 Mg1 3.336201 1_445
Ba0 Mg0 3.336201 1_555
Mg0 N0 2.217513 1_554
Mg0 N1 2.223778 1_555
Mg0 N1 2.223780 1_655
Mg0 N1 2.223781 1_545
Mg0 Mg1 2.715982 1_654
Mg0 Mg1 2.715989 1_544
Mg0 Mg1 2.715990 1_554
Mg1 N1 2.217513 1_556
Mg1 N0 2.223778 1_555
Mg1 N0 2.223780 1_455
Mg1 N0 2.223781 1_565
