# generated using pymatgen
data_Ba6Nd2Al4O15
_symmetry_space_group_name_H-M   'P 1'
_cell_length_a   11.73066375
_cell_length_b   11.73066375
_cell_length_c   7.11440859
_cell_angle_alpha   89.58790049
_cell_angle_beta   89.58790049
_cell_angle_gamma   119.61351579
_symmetry_Int_Tables_number   1
_chemical_formula_structural   Ba6Nd2Al4O15
_chemical_formula_sum   'Ba12 Nd4 Al8 O30'
_cell_volume   851.03691374
_cell_formula_units_Z   2
loop_
 _symmetry_equiv_pos_site_id
 _symmetry_equiv_pos_as_xyz
  1  'x, y, z'
loop_
 _atom_site_type_symbol
 _atom_site_label
 _atom_site_symmetry_multiplicity
 _atom_site_fract_x
 _atom_site_fract_y
 _atom_site_fract_z
 _atom_site_occupancy
  Ba  Ba0  1  0.00253700  0.00099800  0.50085700  1
  Ba  Ba1  1  0.00099800  0.00253700  0.00085700  1
  Ba  Ba2  1  0.82888900  0.65689900  0.31679000  1
  Ba  Ba3  1  0.34556500  0.17079700  0.32075400  1
  Ba  Ba4  1  0.82233800  0.17129900  0.32068800  1
  Ba  Ba5  1  0.17079700  0.34556500  0.82075400  1
  Ba  Ba6  1  0.65689900  0.82888900  0.81679000  1
  Ba  Ba7  1  0.17129900  0.82233800  0.82068800  1
  Ba  Ba8  1  0.51890700  0.04019000  0.65305200  1
  Ba  Ba9  1  0.04019000  0.51890700  0.15305200  1
  Ba  Ba10  1  0.66756700  0.33384800  0.00599300  1
  Ba  Ba11  1  0.33384800  0.66756700  0.50599300  1
  Nd  Nd0  1  0.95647800  0.47791800  0.64996400  1
  Nd  Nd1  1  0.51898600  0.48078400  0.64678600  1
  Nd  Nd2  1  0.47791800  0.95647800  0.14996400  1
  Nd  Nd3  1  0.48078400  0.51898600  0.14678600  1
  Al  Al0  1  0.66023500  0.33430500  0.46332000  1
  Al  Al1  1  0.33430500  0.66023500  0.96332000  1
  Al  Al2  1  0.81285200  0.63785600  0.81002000  1
  Al  Al3  1  0.36599400  0.18598200  0.82664000  1
  Al  Al4  1  0.81561000  0.17867900  0.81860000  1
  Al  Al5  1  0.18598200  0.36599400  0.32664000  1
  Al  Al6  1  0.63785600  0.81285200  0.31002000  1
  Al  Al7  1  0.17867900  0.81561000  0.31860000  1
  O  O0  1  0.10460400  0.20748200  0.22879100  1
  O  O1  1  0.80078200  0.88894500  0.22494700  1
  O  O2  1  0.09043200  0.88688500  0.21935400  1
  O  O3  1  0.88894500  0.80078200  0.72494700  1
  O  O4  1  0.20748200  0.10460400  0.72879100  1
  O  O5  1  0.88688500  0.09043200  0.71935400  1
  O  O6  1  0.74343100  0.50521600  0.64068200  1
  O  O7  1  0.49996500  0.26109600  0.64920500  1
  O  O8  1  0.75510800  0.25494900  0.65039600  1
  O  O9  1  0.26109600  0.49996500  0.14920500  1
  O  O10  1  0.50521600  0.74343100  0.14068200  1
  O  O11  1  0.25494900  0.75510800  0.15039600  1
  O  O12  1  0.58643000  0.17925900  0.32001400  1
  O  O13  1  0.82157300  0.41494900  0.34411100  1
  O  O14  1  0.58269400  0.41703200  0.32547000  1
  O  O15  1  0.41494800  0.82157300  0.84411100  1
  O  O16  1  0.17925900  0.58643000  0.82001400  1
  O  O17  1  0.41703200  0.58269400  0.82547000  1
  O  O18  1  0.33067700  0.39967500  0.45088400  1
  O  O19  1  0.60123700  0.92450300  0.42157300  1
  O  O20  1  0.07462500  0.68175400  0.47248800  1
  O  O21  1  0.60092800  0.66926400  0.44473600  1
  O  O22  1  0.08020400  0.39672400  0.47340900  1
  O  O23  1  0.32310000  0.93092800  0.42954800  1
  O  O24  1  0.66926400  0.60092800  0.94473600  1
  O  O25  1  0.39672400  0.08020400  0.97340900  1
  O  O26  1  0.93092800  0.32310000  0.92954800  1
  O  O27  1  0.39967500  0.33067700  0.95088400  1
  O  O28  1  0.92450300  0.60123700  0.92157300  1
  O  O29  1  0.68175400  0.07462500  0.97248800  1
loop_
_geom_bond_atom_site_label_1
_geom_bond_atom_site_label_2
_geom_bond_distance
_geom_bond_site_symmetry_2
Ba0 O3 2.579942 1_445
Ba0 O5 2.599499 1_455
Ba0 O4 2.661460 1_555
Ba0 O0 2.842558 1_555
Ba0 O1 2.865605 1_445
Ba0 O2 2.870337 1_545
Ba1 O1 2.579942 1_445
Ba1 O2 2.599499 1_545
Ba1 O0 2.661460 1_555
Ba1 O4 2.842558 1_554
Ba1 O3 2.865605 1_444
Ba1 O5 2.870337 1_454
Ba2 O6 2.761474 1_555
Ba2 O13 2.802109 1_555
Ba2 O14 2.868052 1_555
Ba2 O21 2.889780 1_555
Ba2 O1 2.968120 1_555
Ba2 O20 2.973482 1_655
Ba2 O2 2.989027 1_655
Ba2 O24 3.134475 1_554
Ba2 O28 3.208591 1_554
Ba2 O3 3.271380 1_555
Ba3 O12 2.777761 1_555
Ba3 O23 2.796251 1_545
Ba3 O7 2.839588 1_555
Ba3 O14 2.853807 1_555
Ba3 O25 2.871040 1_554
Ba3 O18 2.931397 1_555
Ba3 O27 3.094050 1_554
Ba3 O0 3.134937 1_555
Ba3 O4 3.211024 1_555
Ba3 O2 3.283962 1_545
Ba4 O8 2.803282 1_555
Ba4 O12 2.814707 1_555
Ba4 O19 2.854136 1_545
Ba4 O13 2.868658 1_555
Ba4 O29 2.897121 1_554
Ba4 O22 3.083293 1_655
Ba4 O0 3.185487 1_655
Ba4 O26 3.189539 1_554
Ba4 O5 3.196828 1_555
Ba4 O1 3.271965 1_545
Ba5 O16 2.777761 1_555
Ba5 O26 2.796251 1_455
Ba5 O9 2.839588 1_556
Ba5 O17 2.853807 1_555
Ba5 O22 2.871040 1_555
Ba5 O27 2.931397 1_555
Ba5 O18 3.094050 1_555
Ba5 O4 3.134937 1_555
Ba5 O0 3.211024 1_556
Ba5 O5 3.283962 1_455
Ba6 O10 2.761474 1_556
Ba6 O15 2.802120 1_555
Ba6 O17 2.868052 1_555
Ba6 O24 2.889780 1_555
Ba6 O3 2.968120 1_555
Ba6 O29 2.973482 1_565
Ba6 O5 2.989027 1_565
Ba6 O21 3.134475 1_555
Ba6 O19 3.208591 1_555
Ba6 O1 3.271380 1_556
Ba7 O11 2.803282 1_556
Ba7 O16 2.814707 1_555
Ba7 O28 2.854136 1_455
Ba7 O15 2.868646 1_555
Ba7 O20 2.897121 1_555
Ba7 O25 3.083293 1_565
Ba7 O4 3.185487 1_565
Ba7 O23 3.189539 1_555
Ba7 O2 3.196828 1_556
Ba7 O3 3.271965 1_455
Ba8 O23 2.572831 1_545
Ba8 O15 2.597453 1_545
Ba8 O19 2.605969 1_545
Ba8 O8 2.669132 1_555
Ba8 O7 2.708040 1_555
Ba8 O12 2.746456 1_555
Ba8 O25 2.846483 1_555
Ba8 O29 2.879264 1_555
Ba9 O26 2.572831 1_454
Ba9 O13 2.597453 1_455
Ba9 O28 2.605969 1_454
Ba9 O11 2.669132 1_555
Ba9 O9 2.708040 1_555
Ba9 O16 2.746456 1_554
Ba9 O22 2.846483 1_555
Ba9 O20 2.879264 1_555
Ba10 O12 2.718613 1_555
Ba10 O14 2.840595 1_555
Ba10 O13 2.890013 1_555
Ba10 O8 3.040889 1_554
Ba10 O7 3.079229 1_554
Ba10 O25 3.111110 1_554
Ba10 O6 3.116296 1_554
Ba10 O29 3.137090 1_554
Ba10 O28 3.144399 1_554
Ba10 O24 3.150360 1_554
Ba10 O27 3.151687 1_554
Ba10 O26 3.196536 1_554
Ba11 O16 2.718613 1_555
Ba11 O17 2.840595 1_555
Ba11 O15 2.890012 1_555
Ba11 O11 3.040889 1_555
Ba11 O9 3.079229 1_555
Ba11 O22 3.111110 1_555
Ba11 O10 3.116296 1_555
Ba11 O20 3.137090 1_555
Ba11 O19 3.144399 1_555
Ba11 O21 3.150360 1_555
Ba11 O18 3.151687 1_555
Ba11 O23 3.196536 1_555
Nd0 O20 2.426689 1_655
Nd0 O22 2.438985 1_655
Nd0 O8 2.512933 1_555
Nd0 O28 2.556042 1_555
Nd0 O16 2.587202 1_655
Nd0 O13 2.588863 1_555
Nd0 O26 2.597314 1_555
Nd0 O6 2.673166 1_555
Nd1 O21 2.390143 1_555
Nd1 O18 2.390311 1_555
Nd1 O17 2.426642 1_555
Nd1 O7 2.474363 1_555
Nd1 O6 2.503706 1_555
Nd1 O14 2.625994 1_555
Nd1 O27 2.684422 1_555
Nd1 O24 2.688602 1_555
Nd2 O29 2.426689 1_564
Nd2 O25 2.438985 1_564
Nd2 O11 2.512933 1_555
Nd2 O19 2.556042 1_555
Nd2 O12 2.587202 1_565
Nd2 O15 2.588863 1_554
Nd2 O23 2.597314 1_555
Nd2 O10 2.673166 1_555
Nd3 O24 2.390143 1_554
Nd3 O27 2.390311 1_554
Nd3 O14 2.426642 1_555
Nd3 O9 2.474363 1_555
Nd3 O10 2.503706 1_555
Nd3 O17 2.625994 1_554
Nd3 O18 2.684422 1_555
Nd3 O21 2.688602 1_555
Al0 O13 1.841755 1_555
Al0 O12 1.892133 1_555
Al0 O14 1.898022 1_555
Al0 O7 2.091246 1_555
Al0 O6 2.164402 1_555
Al0 O8 2.214483 1_555
Al1 O15 1.841755 1_555
Al1 O16 1.892133 1_555
Al1 O17 1.898022 1_555
Al1 O9 2.091246 1_556
Al1 O10 2.164402 1_556
Al1 O11 2.214483 1_556
Al2 O28 1.759512 1_555
Al2 O3 1.762228 1_555
Al2 O24 1.786915 1_555
Al2 O6 1.823288 1_555
Al3 O4 1.768433 1_555
Al3 O27 1.783903 1_555
Al3 O25 1.785719 1_555
Al3 O7 1.851122 1_555
Al4 O26 1.758634 1_555
Al4 O5 1.768237 1_555
Al4 O29 1.793316 1_555
Al4 O8 1.833193 1_555
Al5 O0 1.768433 1_555
Al5 O18 1.783903 1_555
Al5 O22 1.785719 1_555
Al5 O9 1.851122 1_555
Al6 O19 1.759512 1_555
Al6 O1 1.762228 1_555
Al6 O21 1.786915 1_555
Al6 O10 1.823288 1_555
Al7 O23 1.758634 1_555
Al7 O2 1.768237 1_555
Al7 O20 1.793316 1_555
Al7 O11 1.833193 1_555
