# generated using pymatgen
data_Ba3Na(SiO4)2
_symmetry_space_group_name_H-M   'P 1'
_cell_length_a   5.83880193
_cell_length_b   5.83880193
_cell_length_c   15.01622800
_cell_angle_alpha   90.00000000
_cell_angle_beta   90.00000000
_cell_angle_gamma   119.79339536
_symmetry_Int_Tables_number   1
_chemical_formula_structural   Ba3Na(SiO4)2
_chemical_formula_sum   'Ba6 Na2 Si4 O16'
_cell_volume   444.26219959
_cell_formula_units_Z   2
loop_
 _symmetry_equiv_pos_site_id
 _symmetry_equiv_pos_as_xyz
  1  'x, y, z'
loop_
 _atom_site_type_symbol
 _atom_site_label
 _atom_site_symmetry_multiplicity
 _atom_site_fract_x
 _atom_site_fract_y
 _atom_site_fract_z
 _atom_site_occupancy
  Ba  Ba0  1  0.01412100  0.98587900  0.25000000  1
  Ba  Ba1  1  0.98587900  0.01412100  0.75000000  1
  Ba  Ba2  1  0.66507300  0.33492700  0.92306200  1
  Ba  Ba3  1  0.33492700  0.66507300  0.07693800  1
  Ba  Ba4  1  0.33492700  0.66507300  0.42306200  1
  Ba  Ba5  1  0.66507300  0.33492700  0.57693800  1
  Na  Na0  1  0.00000000  0.00000000  0.50000000  1
  Na  Na1  1  0.00000000  0.00000000  0.00000000  1
  Si  Si0  1  0.66824500  0.33175500  0.36070000  1
  Si  Si1  1  0.33175500  0.66824500  0.63930000  1
  Si  Si2  1  0.33175500  0.66824500  0.86070000  1
  Si  Si3  1  0.66824500  0.33175500  0.13930000  1
  O  O0  1  0.36341400  0.18028600  0.39791000  1
  O  O1  1  0.82217300  0.17782700  0.39527900  1
  O  O2  1  0.81971400  0.63658600  0.39791000  1
  O  O3  1  0.63658600  0.81971400  0.60209000  1
  O  O4  1  0.17782700  0.82217300  0.60472100  1
  O  O5  1  0.18028600  0.36341400  0.60209000  1
  O  O6  1  0.63658600  0.81971400  0.89791000  1
  O  O7  1  0.17782700  0.82217300  0.89527900  1
  O  O8  1  0.18028600  0.36341400  0.89791000  1
  O  O9  1  0.36341400  0.18028600  0.10209000  1
  O  O10  1  0.82217300  0.17782700  0.10472100  1
  O  O11  1  0.81971400  0.63658600  0.10209000  1
  O  O12  1  0.66393400  0.33606600  0.25000000  1
  O  O13  1  0.33606600  0.66393400  0.75000000  1
  O  O14  1  0.69397200  0.30602800  0.75000000  1
  O  O15  1  0.30602800  0.69397200  0.25000000  1
loop_
_geom_bond_atom_site_label_1
_geom_bond_atom_site_label_2
_geom_bond_distance
_geom_bond_site_symmetry_2
Ba0 O9 2.842600 1_565
Ba0 O0 2.842600 1_565
Ba0 O11 2.842600 1_455
Ba0 O2 2.842600 1_455
Ba0 O10 2.918817 1_465
Ba0 O1 2.918817 1_465
Ba0 O15 2.949007 1_555
Ba0 O12 3.296491 1_455
Ba0 O12 3.296491 1_565
Ba0 O15 3.604960 1_565
Ba0 O15 3.604960 1_455
Ba1 O5 2.842600 1_655
Ba1 O8 2.842600 1_655
Ba1 O3 2.842600 1_545
Ba1 O6 2.842600 1_545
Ba1 O7 2.918817 1_645
Ba1 O4 2.918817 1_645
Ba1 O14 2.949007 1_555
Ba1 O13 3.296491 1_545
Ba1 O13 3.296491 1_655
Ba1 O14 3.604960 1_655
Ba1 O14 3.604960 1_545
Ba2 O14 2.615087 1_555
Ba2 O6 2.941145 1_555
Ba2 O8 2.941145 1_555
Ba2 O8 2.953390 1_655
Ba2 O6 2.953390 1_545
Ba2 O7 2.960885 1_655
Ba2 O7 2.960885 1_545
Ba2 O11 3.092610 1_556
Ba2 O9 3.092610 1_556
Ba2 O10 3.155946 1_556
Ba3 O15 2.615087 1_555
Ba3 O11 2.941145 1_555
Ba3 O9 2.941145 1_555
Ba3 O9 2.953390 1_565
Ba3 O11 2.953390 1_455
Ba3 O10 2.960885 1_565
Ba3 O10 2.960885 1_455
Ba3 O6 3.092610 1_554
Ba3 O8 3.092610 1_554
Ba3 O7 3.155946 1_554
Ba4 O15 2.615087 1_555
Ba4 O2 2.941145 1_555
Ba4 O0 2.941145 1_555
Ba4 O0 2.953390 1_565
Ba4 O2 2.953390 1_455
Ba4 O1 2.960885 1_565
Ba4 O1 2.960885 1_455
Ba4 O3 3.092610 1_555
Ba4 O5 3.092610 1_555
Ba4 O4 3.155946 1_555
Ba5 O14 2.615087 1_555
Ba5 O3 2.941145 1_555
Ba5 O5 2.941145 1_555
Ba5 O5 2.953390 1_655
Ba5 O3 2.953390 1_545
Ba5 O4 2.960885 1_655
Ba5 O4 2.960885 1_545
Ba5 O2 3.092610 1_555
Ba5 O0 3.092610 1_555
Ba5 O1 3.155946 1_555
Na0 O4 2.387518 1_545
Na0 O1 2.387518 1_455
Na0 O0 2.396037 1_555
Na0 O5 2.396037 1_555
Na0 O2 2.396037 1_445
Na0 O3 2.396037 1_445
Na1 O10 2.387518 1_455
Na1 O7 2.387518 1_544
Na1 O8 2.396037 1_554
Na1 O9 2.396037 1_555
Na1 O6 2.396037 1_444
Na1 O11 2.396037 1_445
O0 Si0 1.642550 1_555
O1 Si0 1.639466 1_555
O2 Si0 1.642550 1_555
O3 Si1 1.642550 1_555
O4 Si1 1.639466 1_555
O5 Si1 1.642550 1_555
O6 Si2 1.642550 1_555
O7 Si2 1.639466 1_555
O8 Si2 1.642550 1_555
O9 Si3 1.642550 1_555
O10 Si3 1.639466 1_555
O11 Si3 1.642550 1_555
O12 Si3 1.662867 1_555
O12 Si0 1.662867 1_555
O12 O15 3.261424 1_655
O12 O15 3.261424 1_545
O12 O15 3.615766 1_555
O13 Si1 1.662867 1_555
O13 Si2 1.662867 1_555
O13 O14 3.261424 1_565
O13 O14 3.261424 1_455
O13 O14 3.615766 1_555
