# generated using pymatgen
data_Li9Mn2Co5O16
_symmetry_space_group_name_H-M   'P 1'
_cell_length_a   2.96188600
_cell_length_b   6.52280678
_cell_length_c   15.47309513
_cell_angle_alpha   88.11956008
_cell_angle_beta   87.64280562
_cell_angle_gamma   77.07688815
_symmetry_Int_Tables_number   1
_chemical_formula_structural   Li9Mn2Co5O16
_chemical_formula_sum   'Li9 Mn2 Co5 O16'
_cell_volume   291.03334254
_cell_formula_units_Z   1
loop_
 _symmetry_equiv_pos_site_id
 _symmetry_equiv_pos_as_xyz
  1  'x, y, z'
loop_
 _atom_site_type_symbol
 _atom_site_label
 _atom_site_symmetry_multiplicity
 _atom_site_fract_x
 _atom_site_fract_y
 _atom_site_fract_z
 _atom_site_occupancy
  Li  Li0  1  0.93610800  0.12489500  0.81173900  1
  Li  Li1  1  0.18605800  0.62521000  0.56132900  1
  Li  Li2  1  0.44344100  0.12639800  0.31444200  1
  Li  Li3  1  0.55908200  0.87560100  0.68687600  1
  Li  Li4  1  0.80320700  0.38348100  0.43782400  1
  Li  Li5  1  0.07066300  0.86034700  0.18900200  1
  Li  Li6  1  0.70131000  0.62142800  0.06967600  1
  Li  Li7  1  0.30369900  0.37907900  0.93367400  1
  Li  Li8  1  0.73199000  0.51055800  0.24657800  1
  Mn  Mn0  1  0.00507400  0.99891200  0.00059800  1
  Mn  Mn1  1  0.37690000  0.25908200  0.12984200  1
  Co  Co0  1  0.24500800  0.49376300  0.74917100  1
  Co  Co1  1  0.50376800  0.99963100  0.49845000  1
  Co  Co2  1  0.87774800  0.24275300  0.62506400  1
  Co  Co3  1  0.12587100  0.74225200  0.37028100  1
  Co  Co4  1  0.62727500  0.75192400  0.87295900  1
  O  O0  1  0.43895400  0.05897500  0.91141800  1
  O  O1  1  0.70739700  0.54587500  0.65979600  1
  O  O2  1  0.98689500  0.03885900  0.40702300  1
  O  O3  1  0.08197000  0.80330500  0.78666500  1
  O  O4  1  0.36123500  0.29364400  0.53292200  1
  O  O5  1  0.55915300  0.81223900  0.28947100  1
  O  O6  1  0.22642600  0.54120700  0.15288900  1
  O  O7  1  0.87323200  0.29679300  0.04205700  1
  O  O8  1  0.39034800  0.19292200  0.71386200  1
  O  O9  1  0.68145100  0.70759700  0.46591000  1
  O  O10  1  0.89183000  0.19610100  0.20848200  1
  O  O11  1  0.02630800  0.94924100  0.59068800  1
  O  O12  1  0.26317900  0.47187400  0.35040500  1
  O  O13  1  0.56383800  0.95276200  0.09146800  1
  O  O14  1  0.16787300  0.69787300  0.96153900  1
  O  O15  1  0.78271300  0.44542000  0.83789700  1
loop_
_geom_bond_atom_site_label_1
_geom_bond_atom_site_label_2
_geom_bond_distance
_geom_bond_site_symmetry_2
Li0 O8 2.087084 1_655
Li0 O15 2.087318 1_555
Li0 O3 2.090851 1_645
Li0 O0 2.154281 1_655
Li0 O0 2.187433 1_555
Li0 O8 2.222596 1_555
Li1 O9 2.114856 1_455
Li1 O11 2.120267 1_555
Li1 O4 2.163692 1_555
Li1 O1 2.167448 1_455
Li1 O9 2.178076 1_555
Li1 O1 2.181255 1_555
Li2 O5 2.047657 1_545
Li2 O2 2.083032 1_455
Li2 O2 2.166563 1_555
Li2 O10 2.168089 1_555
Li2 O12 2.278717 1_555
Li2 O10 2.324493 1_455
Li3 O8 2.070062 1_565
Li3 O11 2.107586 1_655
Li3 O1 2.148402 1_555
Li3 O3 2.162002 1_555
Li3 O11 2.177892 1_555
Li3 O3 2.197108 1_655
Li4 O12 2.041261 1_655
Li4 O4 2.085742 1_555
Li4 O12 2.105889 1_555
Li4 O9 2.120120 1_555
Li4 O4 2.225002 1_655
Li4 O2 2.253476 1_555
Li5 O6 2.117562 1_555
Li5 O5 2.135053 1_555
Li5 O13 2.148555 1_455
Li5 O10 2.163121 1_465
Li5 O5 2.190290 1_455
Li5 O13 2.219787 1_555
Li6 O6 2.011475 1_555
Li6 O6 2.026617 1_655
Li6 O7 2.117795 1_555
Li6 O13 2.143202 1_555
Li6 O14 2.240804 1_654
Li6 O14 2.314074 1_554
Li7 O0 2.073747 1_555
Li7 O14 2.083787 1_555
Li7 O15 2.110924 1_555
Li7 O15 2.147555 1_455
Li7 O7 2.190258 1_456
Li7 O7 2.390552 1_556
Li8 O5 2.044992 1_555
Li8 O6 2.055099 1_655
Li8 O10 2.097816 1_555
Li8 O6 2.099856 1_555
Li8 O12 2.125869 1_555
Li8 O12 2.263553 1_655
Mn0 O0 1.937248 1_564
Mn0 O13 1.942310 1_455
Mn0 O7 2.015231 1_465
Mn0 O14 2.020883 1_554
Mn0 O0 2.174903 1_464
Mn0 O13 2.178847 1_555
Mn1 O6 1.837242 1_555
Mn1 O10 1.949600 1_455
Mn1 O10 1.953230 1_555
Mn1 O7 2.010521 1_555
Mn1 O7 2.027711 1_455
Mn1 O13 2.051189 1_545
Co0 O15 1.967020 1_455
Co0 O1 1.981214 1_555
Co0 O8 2.001924 1_555
Co0 O3 2.064988 1_555
Co0 O15 2.108898 1_555
Co0 O1 2.114644 1_455
Co1 O9 1.936954 1_555
Co1 O4 1.956303 1_565
Co1 O2 2.021855 1_565
Co1 O11 2.038618 1_555
Co1 O2 2.095143 1_465
Co1 O11 2.112751 1_655
Co2 O11 1.952615 1_645
Co2 O1 2.013441 1_555
Co2 O8 2.023593 1_555
Co2 O4 2.051150 1_655
Co2 O8 2.054300 1_655
Co2 O4 2.098698 1_555
Co3 O12 1.753522 1_555
Co3 O5 1.873869 1_555
Co3 O9 1.980951 1_455
Co3 O2 1.983046 1_465
Co3 O5 2.093284 1_455
Co3 O9 2.227192 1_555
Co4 O3 1.932233 1_655
Co4 O14 1.970739 1_555
Co4 O15 2.035261 1_555
Co4 O0 2.056166 1_565
Co4 O3 2.099937 1_555
Co4 O14 2.112577 1_655
