# generated using pymatgen
data_Fe2PO5
_symmetry_space_group_name_H-M   'P 1'
_cell_length_a   6.48381677
_cell_length_b   7.38021312
_cell_length_c   7.42131612
_cell_angle_alpha   90.00000000
_cell_angle_beta   90.00000000
_cell_angle_gamma   90.00000000
_symmetry_Int_Tables_number   1
_chemical_formula_structural   Fe2PO5
_chemical_formula_sum   'Fe8 P4 O20'
_cell_volume   355.12444489
_cell_formula_units_Z   4
loop_
 _symmetry_equiv_pos_site_id
 _symmetry_equiv_pos_as_xyz
  1  'x, y, z'
loop_
 _atom_site_type_symbol
 _atom_site_label
 _atom_site_symmetry_multiplicity
 _atom_site_fract_x
 _atom_site_fract_y
 _atom_site_fract_z
 _atom_site_occupancy
  Fe  Fe0  1  0.75000000  0.85652883  0.72235274  1
  Fe  Fe1  1  0.25000000  0.14347117  0.27764726  1
  Fe  Fe2  1  0.75000000  0.35652883  0.77764726  1
  Fe  Fe3  1  0.25000000  0.64347117  0.22235274  1
  Fe  Fe4  1  -0.00000000  0.50000000  0.50000000  1
  Fe  Fe5  1  0.50000000  0.50000000  0.50000000  1
  Fe  Fe6  1  0.50000000  0.00000000  0.00000000  1
  Fe  Fe7  1  -0.00000000  0.00000000  0.00000000  1
  P  P0  1  0.25000000  0.87500459  0.63662078  1
  P  P1  1  0.75000000  0.12499541  0.36337922  1
  P  P2  1  0.25000000  0.37500459  0.86337922  1
  P  P3  1  0.75000000  0.62499541  0.13662078  1
  O  O0  1  0.56025654  0.62885565  0.26040360  1
  O  O1  1  0.06025654  0.37114435  0.73959640  1
  O  O2  1  0.93974346  0.12885565  0.23959640  1
  O  O3  1  0.43974346  0.87114435  0.76040360  1
  O  O4  1  0.43974346  0.37114435  0.73959640  1
  O  O5  1  0.93974346  0.62885565  0.26040360  1
  O  O6  1  0.06025654  0.87114435  0.76040360  1
  O  O7  1  0.56025654  0.12885565  0.23959640  1
  O  O8  1  0.25000000  0.53941602  0.98279540  1
  O  O9  1  0.75000000  0.46058398  0.01720460  1
  O  O10  1  0.25000000  0.03941602  0.51720460  1
  O  O11  1  0.75000000  0.96058398  0.48279540  1
  O  O12  1  0.25000000  0.89551218  0.13566175  1
  O  O13  1  0.75000000  0.10448782  0.86433825  1
  O  O14  1  0.25000000  0.39551218  0.36433825  1
  O  O15  1  0.75000000  0.60448782  0.63566175  1
  O  O16  1  0.25000000  0.19835698  0.97691954  1
  O  O17  1  0.75000000  0.80164302  0.02308046  1
  O  O18  1  0.25000000  0.69835698  0.52308046  1
  O  O19  1  0.75000000  0.30164302  0.47691954  1
loop_
_geom_bond_atom_site_label_1
_geom_bond_atom_site_label_2
_geom_bond_distance
_geom_bond_site_symmetry_2
Fe0 O11 1.936602 1_555
Fe0 O15 1.968234 1_555
Fe0 O6 2.034232 1_655
Fe0 O3 2.034232 1_555
Fe0 O13 2.111679 1_565
Fe0 O17 2.268257 1_556
Fe1 O10 1.936602 1_555
Fe1 O14 1.968234 1_555
Fe1 O7 2.034232 1_555
Fe1 O2 2.034232 1_455
Fe1 O12 2.111679 1_545
Fe1 O16 2.268257 1_554
Fe2 O9 1.936602 1_556
Fe2 O13 1.968234 1_555
Fe2 O1 2.034232 1_655
Fe2 O4 2.034232 1_555
Fe2 O15 2.111679 1_555
Fe2 O19 2.268257 1_555
Fe3 O8 1.936602 1_554
Fe3 O12 1.968234 1_555
Fe3 O0 2.034232 1_555
Fe3 O5 2.034232 1_455
Fe3 O14 2.111679 1_555
Fe3 O18 2.268257 1_555
Fe4 O1 2.053952 1_555
Fe4 O5 2.053952 1_455
Fe4 O14 2.058100 1_555
Fe4 O15 2.058100 1_455
Fe4 O19 2.190864 1_455
Fe4 O18 2.190864 1_555
Fe5 O4 2.053952 1_555
Fe5 O0 2.053952 1_555
Fe5 O14 2.058100 1_555
Fe5 O15 2.058100 1_555
Fe5 O18 2.190864 1_555
Fe5 O19 2.190864 1_555
Fe6 O7 2.053952 1_555
Fe6 O3 2.053952 1_544
Fe6 O12 2.058100 1_545
Fe6 O13 2.058100 1_554
Fe6 O16 2.190864 1_554
Fe6 O17 2.190864 1_545
Fe7 O2 2.053952 1_455
Fe7 O6 2.053952 1_544
Fe7 O12 2.058100 1_545
Fe7 O13 2.058100 1_454
Fe7 O17 2.190864 1_445
Fe7 O16 2.190864 1_554
O0 P3 1.535656 1_555
O1 P2 1.535656 1_555
O2 P1 1.535656 1_555
O3 P0 1.535656 1_555
O4 P2 1.535656 1_555
O5 P3 1.535656 1_555
O6 P0 1.535656 1_555
O7 P1 1.535656 1_555
O8 P2 1.502569 1_555
O9 P3 1.502569 1_555
O10 P0 1.502569 1_545
O11 P1 1.502569 1_565
O16 P2 1.552299 1_555
O17 P3 1.552299 1_555
O18 P0 1.552299 1_555
O19 P1 1.552299 1_555
