# generated using pymatgen
data_ZrNbN2
_symmetry_space_group_name_H-M   'P 1'
_cell_length_a   5.49725941
_cell_length_b   5.49725941
_cell_length_c   5.49725979
_cell_angle_alpha   34.09500525
_cell_angle_beta   34.09500525
_cell_angle_gamma   34.09500401
_symmetry_Int_Tables_number   1
_chemical_formula_structural   ZrNbN2
_chemical_formula_sum   'Zr1 Nb1 N2'
_cell_volume   46.53966205
_cell_formula_units_Z   1
loop_
 _symmetry_equiv_pos_site_id
 _symmetry_equiv_pos_as_xyz
  1  'x, y, z'
loop_
 _atom_site_type_symbol
 _atom_site_label
 _atom_site_symmetry_multiplicity
 _atom_site_fract_x
 _atom_site_fract_y
 _atom_site_fract_z
 _atom_site_occupancy
  Zr  Zr0  1  0.50000000  0.50000000  0.50000000  1
  Nb  Nb0  1  0.00000000  0.00000000  0.00000000  1
  N  N0  1  0.25078300  0.25078300  0.25078300  1
  N  N1  1  0.74921700  0.74921700  0.74921700  1
loop_
_geom_bond_atom_site_label_1
_geom_bond_atom_site_label_2
_geom_bond_distance
_geom_bond_site_symmetry_2
N0 Nb0 2.259211 1_655
N0 Nb0 2.259211 1_565
N0 Nb0 2.259211 1_556
N0 Zr0 2.273079 1_545
N0 Zr0 2.273079 1_455
N0 Zr0 2.273079 1_554
N1 Nb0 2.259211 1_656
N1 Nb0 2.259211 1_566
N1 Nb0 2.259211 1_665
N1 Zr0 2.273079 1_655
N1 Zr0 2.273079 1_565
N1 Zr0 2.273079 1_556
