# generated using pymatgen
data_Ba2YCu3S7
_symmetry_space_group_name_H-M   'P 1'
_cell_length_a   4.44467000
_cell_length_b   4.72127600
_cell_length_c   13.84390800
_cell_angle_alpha   90.00000000
_cell_angle_beta   90.00000000
_cell_angle_gamma   90.00000000
_symmetry_Int_Tables_number   1
_chemical_formula_structural   Ba2YCu3S7
_chemical_formula_sum   'Ba2 Y1 Cu3 S7'
_cell_volume   290.50767846
_cell_formula_units_Z   1
loop_
 _symmetry_equiv_pos_site_id
 _symmetry_equiv_pos_as_xyz
  1  'x, y, z'
loop_
 _atom_site_type_symbol
 _atom_site_label
 _atom_site_symmetry_multiplicity
 _atom_site_fract_x
 _atom_site_fract_y
 _atom_site_fract_z
 _atom_site_occupancy
  Ba  Ba0  1  0.50000000  0.50000000  0.81207400  1
  Ba  Ba1  1  0.50000000  0.50000000  0.18792600  1
  Y  Y0  1  0.50000000  0.50000000  0.50000000  1
  Cu  Cu0  1  0.00000000  0.00000000  0.00000000  1
  Cu  Cu1  1  0.00000000  0.00000000  0.66074900  1
  Cu  Cu2  1  0.00000000  0.00000000  0.33925100  1
  S  S0  1  0.50000000  0.00000000  0.62090500  1
  S  S1  1  0.50000000  0.00000000  0.37909500  1
  S  S2  1  0.00000000  0.00000000  0.84026800  1
  S  S3  1  0.00000000  0.00000000  0.15973200  1
  S  S4  1  0.00000000  0.50000000  0.00000000  1
  S  S5  1  0.00000000  0.50000000  0.62917000  1
  S  S6  1  0.00000000  0.50000000  0.37083000  1
loop_
_geom_bond_atom_site_label_1
_geom_bond_atom_site_label_2
_geom_bond_distance
_geom_bond_site_symmetry_2
Ba0 S2 3.265537 1_565
Ba0 S2 3.265537 1_655
Ba0 S2 3.265537 1_665
Ba0 S2 3.265537 1_555
Ba0 S5 3.369026 1_555
Ba0 S5 3.369026 1_655
Ba0 S4 3.421586 1_656
Ba0 S4 3.421586 1_556
Ba0 S0 3.546366 1_555
Ba0 S0 3.546366 1_565
Ba1 S3 3.265537 1_565
Ba1 S3 3.265537 1_655
Ba1 S3 3.265537 1_555
Ba1 S3 3.265537 1_665
Ba1 S6 3.369026 1_655
Ba1 S6 3.369026 1_555
Ba1 S4 3.421586 1_655
Ba1 S4 3.421586 1_555
Ba1 S1 3.546366 1_565
Ba1 S1 3.546366 1_555
Cu0 S3 2.211315 1_555
Cu0 S2 2.211315 1_554
Cu0 S4 2.360638 1_555
Cu0 S4 2.360638 1_545
Cu1 S0 2.289767 1_555
Cu1 S0 2.289767 1_455
Cu1 S5 2.400778 1_555
Cu1 S5 2.400778 1_545
Cu1 S2 2.485245 1_555
Cu2 S1 2.289767 1_555
Cu2 S1 2.289767 1_455
Cu2 S6 2.400778 1_555
Cu2 S6 2.400778 1_545
Cu2 S3 2.485245 1_555
S0 Y0 2.893823 1_545
S0 Y0 2.893823 1_555
S1 Y0 2.893823 1_545
S1 Y0 2.893823 1_555
S5 Y0 2.852454 1_455
S5 Y0 2.852454 1_555
S6 Y0 2.852454 1_455
S6 Y0 2.852454 1_555
