# generated using pymatgen
data_Ca2UO5
_symmetry_space_group_name_H-M   'P 1'
_cell_length_a   5.46363505
_cell_length_b   7.88342453
_cell_length_c   11.40403089
_cell_angle_alpha   72.00569426
_cell_angle_beta   90.00000000
_cell_angle_gamma   90.00000000
_symmetry_Int_Tables_number   1
_chemical_formula_structural   Ca2UO5
_chemical_formula_sum   'Ca8 U4 O20'
_cell_volume   467.17041205
_cell_formula_units_Z   4
loop_
 _symmetry_equiv_pos_site_id
 _symmetry_equiv_pos_as_xyz
  1  'x, y, z'
loop_
 _atom_site_type_symbol
 _atom_site_label
 _atom_site_symmetry_multiplicity
 _atom_site_fract_x
 _atom_site_fract_y
 _atom_site_fract_z
 _atom_site_occupancy
  Ca  Ca0  1  0.94045328  0.15397115  0.68230145  1
  Ca  Ca1  1  0.44045328  0.84602885  0.81769855  1
  Ca  Ca2  1  0.05954672  0.84602885  0.31769855  1
  Ca  Ca3  1  0.55954672  0.15397115  0.18230145  1
  Ca  Ca4  1  0.49392934  0.34643291  0.86257095  1
  Ca  Ca5  1  0.99392934  0.65356709  0.63742905  1
  Ca  Ca6  1  0.50607066  0.65356709  0.13742905  1
  Ca  Ca7  1  0.00607066  0.34643291  0.36257095  1
  U  U0  1  0.00000000  -0.00000000  -0.00000000  1
  U  U1  1  0.50000000  -0.00000000  0.50000000  1
  U  U2  1  0.00000000  0.50000000  -0.00000000  1
  U  U3  1  0.50000000  0.50000000  0.50000000  1
  O  O0  1  0.68108319  0.25024340  0.50382300  1
  O  O1  1  0.18108319  0.74975660  0.99617700  1
  O  O2  1  0.31891681  0.74975660  0.49617700  1
  O  O3  1  0.81891681  0.25024340  0.00382300  1
  O  O4  1  0.75638037  0.01849120  0.36844065  1
  O  O5  1  0.25638037  0.98150880  0.13155935  1
  O  O6  1  0.24361963  0.98150880  0.63155935  1
  O  O7  1  0.74361963  0.01849120  0.86844065  1
  O  O8  1  0.80849594  0.61669295  0.42955250  1
  O  O9  1  0.30849594  0.38330705  0.07044750  1
  O  O10  1  0.19150406  0.38330705  0.57044750  1
  O  O11  1  0.69150406  0.61669295  0.92955250  1
  O  O12  1  0.66995895  0.44763399  0.67289147  1
  O  O13  1  0.16995895  0.55236601  0.82710853  1
  O  O14  1  0.33004105  0.55236601  0.32710853  1
  O  O15  1  0.83004105  0.44763399  0.17289147  1
  O  O16  1  0.71901775  0.87970517  0.64375497  1
  O  O17  1  0.21901775  0.12029483  0.85624503  1
  O  O18  1  0.28098225  0.12029483  0.35624503  1
  O  O19  1  0.78098225  0.87970517  0.14375497  1
loop_
_geom_bond_atom_site_label_1
_geom_bond_atom_site_label_2
_geom_bond_distance
_geom_bond_site_symmetry_2
Ca0 O10 2.313517 1_655
Ca0 O7 2.324331 1_555
Ca0 O6 2.326600 1_645
Ca0 O0 2.402607 1_555
Ca0 O17 2.448757 1_655
Ca0 O16 2.630419 1_545
Ca0 O12 2.720607 1_555
Ca1 O11 2.313517 1_555
Ca1 O6 2.324331 1_555
Ca1 O7 2.326600 1_565
Ca1 O1 2.402607 1_555
Ca1 O16 2.448757 1_555
Ca1 O17 2.630419 1_565
Ca1 O13 2.720607 1_555
Ca2 O8 2.313517 1_455
Ca2 O5 2.324331 1_555
Ca2 O4 2.326600 1_465
Ca2 O2 2.402607 1_555
Ca2 O19 2.448757 1_455
Ca2 O18 2.630419 1_565
Ca2 O14 2.720607 1_555
Ca3 O9 2.313517 1_555
Ca3 O4 2.324331 1_555
Ca3 O5 2.326600 1_545
Ca3 O3 2.402607 1_555
Ca3 O18 2.448757 1_555
Ca3 O19 2.630419 1_545
Ca3 O15 2.720607 1_555
Ca4 O12 2.274706 1_555
Ca4 O17 2.349232 1_555
Ca4 O13 2.350876 1_555
Ca4 O3 2.359648 1_556
Ca4 O9 2.675186 1_556
Ca4 O11 2.700670 1_555
Ca4 O7 2.905588 1_555
Ca5 O13 2.274706 1_655
Ca5 O16 2.349232 1_555
Ca5 O12 2.350876 1_555
Ca5 O2 2.359648 1_655
Ca5 O8 2.675186 1_555
Ca5 O10 2.700670 1_655
Ca5 O6 2.905588 1_655
Ca6 O14 2.274706 1_555
Ca6 O19 2.349232 1_555
Ca6 O15 2.350876 1_555
Ca6 O1 2.359648 1_554
Ca6 O11 2.675186 1_554
Ca6 O9 2.700670 1_555
Ca6 O5 2.905588 1_555
Ca7 O15 2.274706 1_455
Ca7 O18 2.349232 1_555
Ca7 O14 2.350876 1_555
Ca7 O0 2.359648 1_455
Ca7 O10 2.675186 1_555
Ca7 O8 2.700670 1_455
Ca7 O4 2.905588 1_455
O0 U3 2.191902 1_555
O0 U1 2.219401 1_555
O0 O4 2.762894 1_555
O0 O12 2.827776 1_555
O1 U2 2.191902 1_556
O1 U0 2.219401 1_566
O1 O5 2.762894 1_556
O1 O13 2.827776 1_555
O2 U3 2.191902 1_555
O2 U1 2.219401 1_565
O2 O6 2.762894 1_555
O3 U2 2.191902 1_655
O3 U0 2.219401 1_655
O3 O7 2.762894 1_554
O4 U1 2.024648 1_555
O5 U0 2.024648 1_565
O6 U1 2.024648 1_565
O7 U0 2.024648 1_656
O8 U3 1.968764 1_555
O9 U2 1.968764 1_555
O10 U3 1.968764 1_555
O11 U2 1.968764 1_656
O12 U3 2.101727 1_555
O13 U2 2.101727 1_556
O14 U3 2.101727 1_555
O14 O2 2.827776 1_555
O15 U2 2.101727 1_655
O15 O3 2.827776 1_555
O16 U1 2.014523 1_565
O17 U0 2.014523 1_556
O18 U1 2.014523 1_555
O19 U0 2.014523 1_665
