# generated using pymatgen
data_Sr3Bi2
_symmetry_space_group_name_H-M   'P 1'
_cell_length_a   6.24492100
_cell_length_b   6.24492100
_cell_length_c   6.24492100
_cell_angle_alpha   90.00000000
_cell_angle_beta   90.00000000
_cell_angle_gamma   90.00000000
_symmetry_Int_Tables_number   1
_chemical_formula_structural   Sr3Bi2
_chemical_formula_sum   'Sr3 Bi2'
_cell_volume   243.54591324
_cell_formula_units_Z   1
loop_
 _symmetry_equiv_pos_site_id
 _symmetry_equiv_pos_as_xyz
  1  'x, y, z'
loop_
 _atom_site_type_symbol
 _atom_site_label
 _atom_site_symmetry_multiplicity
 _atom_site_fract_x
 _atom_site_fract_y
 _atom_site_fract_z
 _atom_site_occupancy
  Sr  Sr0  1  0.00000000  0.50000000  0.50000000  1
  Sr  Sr1  1  0.50000000  0.00000000  0.50000000  1
  Sr  Sr2  1  0.50000000  0.50000000  0.00000000  1
  Bi  Bi0  1  0.00000000  0.00000000  0.00000000  1
  Bi  Bi1  1  0.50000000  0.50000000  0.50000000  1
loop_
_geom_bond_atom_site_label_1
_geom_bond_atom_site_label_2
_geom_bond_distance
_geom_bond_site_symmetry_2
Bi0 Sr1 4.415826 1_454
Bi0 Sr0 4.415826 1_555
Bi0 Sr1 4.415826 1_455
Bi0 Sr0 4.415826 1_544
Bi0 Sr1 4.415826 1_554
Bi0 Sr1 4.415826 1_555
Bi0 Sr2 4.415826 1_455
Bi0 Sr2 4.415826 1_555
Bi0 Sr0 4.415826 1_545
Bi0 Sr2 4.415826 1_545
Bi0 Sr0 4.415826 1_554
Bi0 Sr2 4.415826 1_445
Bi1 Sr0 3.122460 1_555
Bi1 Sr1 3.122460 1_555
Bi1 Sr0 3.122460 1_655
Bi1 Sr1 3.122460 1_565
Bi1 Sr2 3.122460 1_556
Bi1 Sr2 3.122460 1_555
