# generated using pymatgen
data_Y4Be6Fe3(SiO5)6
_symmetry_space_group_name_H-M   'P 1'
_cell_length_a   7.74987400
_cell_length_b   10.14519864
_cell_length_c   14.06178330
_cell_angle_alpha   90.59428100
_cell_angle_beta   90.04651942
_cell_angle_gamma   90.13130061
_symmetry_Int_Tables_number   1
_chemical_formula_structural   Y4Be6Fe3(SiO5)6
_chemical_formula_sum   'Y8 Be12 Fe6 Si12 O60'
_cell_volume   1105.53104773
_cell_formula_units_Z   2
loop_
 _symmetry_equiv_pos_site_id
 _symmetry_equiv_pos_as_xyz
  1  'x, y, z'
loop_
 _atom_site_type_symbol
 _atom_site_label
 _atom_site_symmetry_multiplicity
 _atom_site_fract_x
 _atom_site_fract_y
 _atom_site_fract_z
 _atom_site_occupancy
  Y  Y0  1  0.39582300  0.16894200  0.66227400  1
  Y  Y1  1  0.39664400  0.16817200  0.00209700  1
  Y  Y2  1  0.89306900  0.33394800  0.67040500  1
  Y  Y3  1  0.89263700  0.33089400  0.33367800  1
  Y  Y4  1  0.60151800  0.83314800  0.67055700  1
  Y  Y5  1  0.60002400  0.82910900  0.33740300  1
  Y  Y6  1  0.10456000  0.66623400  0.33449600  1
  Y  Y7  1  0.10493800  0.67078800  0.99364700  1
  Be  Be0  1  0.09460300  0.15420900  0.85260100  1
  Be  Be1  1  0.09478500  0.15774400  0.51360400  1
  Be  Be2  1  0.08265900  0.15654200  0.18252900  1
  Be  Be3  1  0.59183100  0.34970200  0.81783200  1
  Be  Be4  1  0.58564600  0.33917400  0.48109600  1
  Be  Be5  1  0.59200600  0.34252300  0.15155300  1
  Be  Be6  1  0.90123000  0.84887000  0.81523600  1
  Be  Be7  1  0.91395700  0.84239100  0.48816500  1
  Be  Be8  1  0.91447700  0.84044700  0.14899900  1
  Be  Be9  1  0.40854900  0.65401900  0.84940600  1
  Be  Be10  1  0.41024400  0.65795700  0.51782600  1
  Be  Be11  1  0.41165500  0.65560700  0.18308000  1
  Fe  Fe0  1  0.00050800  0.00093600  0.99801400  1
  Fe  Fe1  1  0.99635600  0.99794700  0.66745200  1
  Fe  Fe2  1  0.00312100  0.00257900  0.33416600  1
  Fe  Fe3  1  0.50554500  0.50022900  0.00235700  1
  Fe  Fe4  1  0.49227600  0.50216400  0.66382800  1
  Fe  Fe5  1  0.49930700  0.49310700  0.33351800  1
  Si  Si0  1  0.23059300  0.40513700  0.83163300  1
  Si  Si1  1  0.23382100  0.41626800  0.49216700  1
  Si  Si2  1  0.21859000  0.42125100  0.16066000  1
  Si  Si3  1  0.72856900  0.09503800  0.84190500  1
  Si  Si4  1  0.73342300  0.08540300  0.50609100  1
  Si  Si5  1  0.72334000  0.07727800  0.16631100  1
  Si  Si6  1  0.76286700  0.59488300  0.83746900  1
  Si  Si7  1  0.77826700  0.57726900  0.50786600  1
  Si  Si8  1  0.77658500  0.58362700  0.17191600  1
  Si  Si9  1  0.26423600  0.91235700  0.82279700  1
  Si  Si10  1  0.28677400  0.91392700  0.49383200  1
  Si  Si11  1  0.26800400  0.91857800  0.16758900  1
  O  O0  1  0.39943500  0.36645300  0.75992400  1
  O  O1  1  0.40205600  0.36637200  0.42818500  1
  O  O2  1  0.39016200  0.36493300  0.10043300  1
  O  O3  1  0.90721000  0.13008600  0.90126100  1
  O  O4  1  0.90469000  0.13172100  0.57503200  1
  O  O5  1  0.88174800  0.13603400  0.23639200  1
  O  O6  1  0.59258000  0.62202500  0.90716100  1
  O  O7  1  0.61009100  0.63518400  0.56982000  1
  O  O8  1  0.60359400  0.64102900  0.23496300  1
  O  O9  1  0.08786500  0.87572900  0.75868300  1
  O  O10  1  0.10699400  0.86049900  0.43704600  1
  O  O11  1  0.11498700  0.86150000  0.09398200  1
  O  O12  1  0.55962400  0.35166600  0.93021300  1
  O  O13  1  0.57279300  0.34186100  0.59635500  1
  O  O14  1  0.61448300  0.36072100  0.26305600  1
  O  O15  1  0.09287600  0.14937000  0.73466300  1
  O  O16  1  0.05080700  0.15803500  0.40545800  1
  O  O17  1  0.10501500  0.13379300  0.06971200  1
  O  O18  1  0.44475700  0.65397900  0.73783500  1
  O  O19  1  0.41199800  0.65451900  0.40232700  1
  O  O20  1  0.39637200  0.63561600  0.07100100  1
  O  O21  1  0.78724500  0.97421900  0.76715100  1
  O  O22  1  0.79655800  0.96258300  0.43305000  1
  O  O23  1  0.82199000  0.96945400  0.09660000  1
  O  O24  1  0.40417600  0.96860400  0.74651600  1
  O  O25  1  0.42210000  0.95386700  0.41342300  1
  O  O26  1  0.41516100  0.98196200  0.09873600  1
  O  O27  1  0.92462600  0.56008500  0.90402400  1
  O  O28  1  0.90245200  0.50053400  0.57829100  1
  O  O29  1  0.90978900  0.53517600  0.25550400  1
  O  O30  1  0.20273200  0.27471600  0.89526000  1
  O  O31  1  0.17526400  0.29117100  0.55992200  1
  O  O32  1  0.12586000  0.30294500  0.21768100  1
  O  O33  1  0.07568300  0.43628800  0.75927400  1
  O  O34  1  0.09234500  0.46846100  0.41484000  1
  O  O35  1  0.09680800  0.49932300  0.08740300  1
  O  O36  1  0.29238400  0.53107900  0.89819300  1
  O  O37  1  0.30652600  0.53386600  0.56439200  1
  O  O38  1  0.30010800  0.53165800  0.23919900  1
  O  O39  1  0.57399800  0.06176700  0.91253900  1
  O  O40  1  0.58761300  0.04234100  0.58305600  1
  O  O41  1  0.59522000  0.99315400  0.23529600  1
  O  O42  1  0.70443100  0.46862200  0.76618000  1
  O  O43  1  0.69863200  0.46865600  0.42992600  1
  O  O44  1  0.69198400  0.46890600  0.10129400  1
  O  O45  1  0.20525300  0.02799000  0.90143300  1
  O  O46  1  0.21038000  0.03625300  0.56268700  1
  O  O47  1  0.18314000  0.03269900  0.23684300  1
  O  O48  1  0.30863500  0.78165400  0.88357900  1
  O  O49  1  0.36506000  0.79987200  0.56228000  1
  O  O50  1  0.32819700  0.78966700  0.23005000  1
  O  O51  1  0.79106600  0.72724700  0.77538600  1
  O  O52  1  0.84780100  0.70253300  0.44412600  1
  O  O53  1  0.85640600  0.70183600  0.10897200  1
  O  O54  1  0.67673100  0.21783800  0.77036000  1
  O  O55  1  0.69637400  0.21667600  0.44409500  1
  O  O56  1  0.63252600  0.19799900  0.11170100  1
  O  O57  1  0.94020400  0.85210800  0.92742800  1
  O  O58  1  0.88376600  0.86557900  0.59804000  1
  O  O59  1  0.92759900  0.84109100  0.26571400  1
loop_
_geom_bond_atom_site_label_1
_geom_bond_atom_site_label_2
_geom_bond_distance
_geom_bond_site_symmetry_2
Be0 O30 1.592483 1_555
Be0 O3 1.625005 1_455
Be0 O15 1.658678 1_555
Be0 O45 1.693781 1_555
Be1 O16 1.558214 1_555
Be1 O31 1.619490 1_555
Be1 O46 1.679224 1_555
Be1 O4 1.729508 1_455
Be2 O32 1.595220 1_555
Be2 O17 1.610282 1_555
Be2 O47 1.670841 1_555
Be2 O5 1.744997 1_455
Be3 O12 1.599995 1_555
Be3 O54 1.629240 1_555
Be3 O42 1.661017 1_555
Be3 O0 1.707988 1_555
Be4 O55 1.594918 1_555
Be4 O13 1.623836 1_555
Be4 O1 1.630461 1_555
Be4 O43 1.739374 1_555
Be5 O14 1.586266 1_555
Be5 O56 1.596188 1_555
Be5 O44 1.661003 1_555
Be5 O2 1.737394 1_555
Be6 O51 1.595444 1_555
Be6 O57 1.606020 1_555
Be6 O9 1.674298 1_655
Be6 O21 1.696098 1_555
Be7 O58 1.578141 1_555
Be7 O52 1.624044 1_555
Be7 O10 1.670849 1_655
Be7 O22 1.714306 1_555
Be8 O53 1.573883 1_555
Be8 O59 1.644231 1_555
Be8 O23 1.671247 1_555
Be8 O11 1.750052 1_655
Be9 O48 1.580980 1_555
Be9 O18 1.594004 1_555
Be9 O6 1.674732 1_555
Be9 O36 1.688300 1_555
Be10 O49 1.603205 1_555
Be10 O19 1.624203 1_555
Be10 O37 1.634955 1_555
Be10 O7 1.729156 1_555
Be11 O20 1.591223 1_555
Be11 O50 1.640256 1_555
Be11 O8 1.663818 1_555
Be11 O38 1.722798 1_555
Fe0 O57 1.856957 1_445
Fe0 O17 1.858667 1_556
Fe0 O23 1.986995 1_446
Fe0 O3 2.032313 1_455
Fe0 O45 2.108738 1_555
Fe0 O11 2.157020 1_546
Fe1 O58 1.866408 1_555
Fe1 O9 1.929161 1_655
Fe1 O15 1.943241 1_665
Fe1 O4 2.018664 1_565
Fe1 O21 2.158378 1_555
Fe1 O46 2.255068 1_665
Fe2 O16 1.895479 1_555
Fe2 O59 1.978679 1_445
Fe2 O47 1.980519 1_555
Fe2 O5 2.156510 1_455
Fe2 O22 2.161740 1_445
Fe2 O10 2.205744 1_545
Fe3 O12 1.856968 1_554
Fe3 O20 1.874379 1_555
Fe3 O6 1.950810 1_554
Fe3 O44 2.032779 1_555
Fe3 O2 2.149714 1_555
Fe3 O36 2.231670 1_554
Fe4 O18 1.887004 1_555
Fe4 O13 1.976879 1_555
Fe4 O37 2.034451 1_555
Fe4 O0 2.067583 1_555
Fe4 O7 2.106097 1_555
Fe4 O42 2.213466 1_555
Fe5 O14 1.887235 1_555
Fe5 O1 2.006476 1_555
Fe5 O19 2.012189 1_555
Fe5 O43 2.071457 1_555
Fe5 O38 2.074955 1_555
Fe5 O8 2.205744 1_555
O0 Si0 1.696843 1_555
O0 Y0 2.417447 1_555
O1 Si1 1.661650 1_555
O2 Si2 1.675398 1_555
O2 Y1 2.417157 1_555
O3 Si3 1.652111 1_555
O4 Si4 1.705266 1_555
O4 Y2 2.441283 1_555
O5 Si5 1.678113 1_555
O5 Y3 2.393667 1_555
O6 Si6 1.666132 1_555
O7 Si7 1.672610 1_555
O7 Y4 2.446704 1_555
O8 Si8 1.708004 1_555
O8 Y5 2.379064 1_555
O9 Si9 1.675679 1_555
O10 Si10 1.690677 1_555
O10 Y6 2.430006 1_555
O11 Si11 1.671926 1_555
O11 Y7 2.383835 1_554
O12 Y1 2.472434 1_556
O13 Y0 2.417135 1_555
O13 Y2 2.692575 1_555
O14 Y3 2.393819 1_555
O15 Y0 2.567818 1_555
O15 Y2 2.601331 1_455
O16 Y3 2.375155 1_455
O17 Y1 2.477983 1_555
O18 Y4 2.387971 1_555
O19 Y5 2.473468 1_555
O19 Y6 2.569178 1_555
O20 Y7 2.533657 1_554
O21 Si3 1.670561 1_565
O21 Y4 2.431474 1_555
O22 Si4 1.680468 1_565
O22 Y5 2.431439 1_555
O23 Si5 1.650704 1_565
O24 Si9 1.632215 1_555
O24 Y4 2.313051 1_555
O24 Y0 2.364065 1_565
O25 Si10 1.597509 1_555
O25 Y5 2.151361 1_555
O26 Si11 1.631832 1_555
O26 Y1 2.343132 1_565
O27 Si6 1.605935 1_555
O27 Y7 2.182410 1_655
O28 Si7 1.590872 1_555
O28 Y2 2.141102 1_555
O29 Si8 1.643529 1_555
O29 Y6 2.288570 1_655
O29 Y3 2.359548 1_555
O30 Si0 1.619075 1_555
O30 Y1 2.391899 1_556
O31 Si1 1.657569 1_555
O31 Y0 2.563904 1_555
O31 Y2 2.716748 1_455
O32 Si2 1.617677 1_555
O32 Y3 2.450588 1_455
O33 Si0 1.607135 1_555
O33 Y2 2.146158 1_455
O34 Si1 1.636316 1_555
O34 Y6 2.314631 1_555
O34 Y3 2.366422 1_455
O35 Si2 1.611841 1_555
O35 Y7 2.194383 1_554
O36 Si0 1.646062 1_555
O36 Y7 2.427761 1_555
O37 Si1 1.656256 1_555
O38 Si2 1.686238 1_555
O38 Y6 2.435416 1_555
O39 Si3 1.594513 1_555
O39 Y1 2.149849 1_556
O40 Si4 1.627454 1_555
O40 Y0 2.254225 1_555
O40 Y4 2.466724 1_545
O41 Si5 1.634050 1_565
O41 Y5 2.209634 1_555
O42 Si6 1.679518 1_555
O42 Y2 2.406644 1_555
O43 Si7 1.663421 1_555
O43 Y3 2.453435 1_555
O44 Si8 1.655935 1_555
O45 Si9 1.668604 1_545
O45 Y1 2.484245 1_556
O46 Si10 1.675554 1_545
O46 Y0 2.405694 1_555
O47 Si11 1.643928 1_545
O48 Si9 1.622447 1_555
O48 Y7 2.486889 1_555
O49 Si10 1.630576 1_555
O49 Y4 2.402557 1_555
O50 Si11 1.650884 1_555
O50 Y6 2.600266 1_555
O50 Y5 2.618252 1_555
O51 Si6 1.623711 1_555
O51 Y4 2.349825 1_555
O52 Si7 1.652277 1_555
O52 Y6 2.543264 1_655
O52 Y5 2.763165 1_555
O53 Si8 1.619814 1_555
O53 Y7 2.536954 1_654
O54 Si3 1.659295 1_555
O54 Y2 2.490628 1_555
O54 Y0 2.696199 1_555
O55 Si4 1.625278 1_555
O55 Y3 2.469828 1_555
O56 Si5 1.614803 1_555
O56 Y1 2.406648 1_555
O57 Y7 2.434165 1_655
O58 Y4 2.437216 1_555
O59 Y6 2.451081 1_655
O59 Y5 2.735159 1_555
