# generated using pymatgen
data_Cr2Co3N4
_symmetry_space_group_name_H-M   'P 1'
_cell_length_a   5.54753467
_cell_length_b   7.12443192
_cell_length_c   5.44666810
_cell_angle_alpha   89.99999527
_cell_angle_beta   89.45754393
_cell_angle_gamma   129.95053497
_symmetry_Int_Tables_number   1
_chemical_formula_structural   Cr2Co3N4
_chemical_formula_sum   'Cr4 Co6 N8'
_cell_volume   165.01231493
_cell_formula_units_Z   2
loop_
 _symmetry_equiv_pos_site_id
 _symmetry_equiv_pos_as_xyz
  1  'x, y, z'
loop_
 _atom_site_type_symbol
 _atom_site_label
 _atom_site_symmetry_multiplicity
 _atom_site_fract_x
 _atom_site_fract_y
 _atom_site_fract_z
 _atom_site_occupancy
  Cr  Cr0  1  0.63192900  0.18782000  0.65137900  1
  Cr  Cr1  1  0.36807100  0.55589100  0.84862100  1
  Cr  Cr2  1  0.36807100  0.81218000  0.34862100  1
  Cr  Cr3  1  0.63192900  0.44410900  0.15137900  1
  Co  Co0  1  0.24039600  0.01351700  0.01219800  1
  Co  Co1  1  0.75960400  0.77312200  0.48780200  1
  Co  Co2  1  0.75960400  0.98648300  0.98780200  1
  Co  Co3  1  0.24039600  0.22687800  0.51219800  1
  Co  Co4  1  0.00000000  0.65785200  0.75000000  1
  Co  Co5  1  0.00000000  0.34214800  0.25000000  1
  N  N0  1  0.20991800  0.93684500  0.52645700  1
  N  N1  1  0.79008200  0.72692800  0.97354300  1
  N  N2  1  0.79008200  0.06315500  0.47354300  1
  N  N3  1  0.20991800  0.27307200  0.02645700  1
  N  N4  1  0.69276400  0.24163000  0.99237600  1
  N  N5  1  0.30723600  0.54886600  0.50762400  1
  N  N6  1  0.30723600  0.75837000  0.00762400  1
  N  N7  1  0.69276400  0.45113400  0.49237600  1
loop_
_geom_bond_atom_site_label_1
_geom_bond_atom_site_label_2
_geom_bond_distance
_geom_bond_site_symmetry_2
Cr0 N2 1.865868 1_555
Cr0 N4 1.885771 1_555
Cr0 N7 1.888001 1_555
Cr0 N0 1.948116 1_545
Cr1 N3 1.865874 1_556
Cr1 N5 1.885771 1_555
Cr1 N6 1.888001 1_556
Cr1 N1 1.948115 1_555
Cr2 N0 1.865868 1_555
Cr2 N6 1.885771 1_555
Cr2 N5 1.888001 1_555
Cr2 N2 1.948116 1_565
Cr3 N1 1.865874 1_554
Cr3 N7 1.885771 1_555
Cr3 N4 1.888001 1_554
Cr3 N3 1.948115 1_555
Co0 N4 1.925546 1_554
Co0 N3 1.963510 1_555
Co0 N1 1.978211 1_444
Co0 N6 2.075541 1_545
Co0 Cr0 2.564629 1_554
Co0 N0 2.686336 1_544
Co1 N5 1.925546 1_555
Co1 N2 1.963510 1_565
Co1 N0 1.978214 1_655
Co1 N7 2.075548 1_555
Co1 Cr1 2.564629 1_555
Co1 N1 2.686336 1_555
Co2 N6 1.925546 1_556
Co2 N1 1.963510 1_555
Co2 N3 1.978211 1_666
Co2 N4 2.075541 1_565
Co2 Cr2 2.564629 1_556
Co2 N2 2.686336 1_566
Co3 N7 1.925546 1_555
Co3 N0 1.963510 1_545
Co3 N2 1.978214 1_455
Co3 N5 2.075548 1_555
Co3 Cr3 2.564629 1_555
Co3 N3 2.686336 1_555
Co4 N0 1.946769 1_555
Co4 N1 1.946774 1_455
Co4 N7 1.965843 1_455
Co4 N6 1.965843 1_556
Co4 N4 2.628238 1_455
Co4 N5 2.628239 1_555
Co5 N2 1.946769 1_455
Co5 N3 1.946774 1_555
Co5 N5 1.965843 1_555
Co5 N4 1.965843 1_454
Co5 N6 2.628238 1_555
Co5 N7 2.628239 1_455
