# generated using pymatgen
data_Tm2(Ga3Rh)3
_symmetry_space_group_name_H-M   'P 1'
_cell_length_a   7.44394584
_cell_length_b   7.44394584
_cell_length_c   9.43172491
_cell_angle_alpha   90.00000000
_cell_angle_beta   90.00000000
_cell_angle_gamma   119.75769050
_symmetry_Int_Tables_number   1
_chemical_formula_structural   Tm2(Ga3Rh)3
_chemical_formula_sum   'Tm4 Ga18 Rh6'
_cell_volume   453.71527522
_cell_formula_units_Z   2
loop_
 _symmetry_equiv_pos_site_id
 _symmetry_equiv_pos_as_xyz
  1  'x, y, z'
loop_
 _atom_site_type_symbol
 _atom_site_label
 _atom_site_symmetry_multiplicity
 _atom_site_fract_x
 _atom_site_fract_y
 _atom_site_fract_z
 _atom_site_occupancy
  Tm  Tm0  1  0.99798340  0.66954736  0.25000000  1
  Tm  Tm1  1  0.00201660  0.33045264  0.75000000  1
  Tm  Tm2  1  0.66954736  0.99798340  0.25000000  1
  Tm  Tm3  1  0.33045264  0.00201660  0.75000000  1
  Ga  Ga0  1  0.12760005  0.12760005  0.25000000  1
  Ga  Ga1  1  0.87239995  0.87239995  0.75000000  1
  Ga  Ga2  1  0.00130917  0.33469845  0.07851243  1
  Ga  Ga3  1  -0.00130917  0.66530155  0.92148757  1
  Ga  Ga4  1  -0.00130917  0.66530155  0.57851243  1
  Ga  Ga5  1  0.33469845  0.00130917  0.42148757  1
  Ga  Ga6  1  0.00130917  0.33469845  0.42148757  1
  Ga  Ga7  1  0.66530155  -0.00130917  0.57851243  1
  Ga  Ga8  1  0.66530155  -0.00130917  0.92148757  1
  Ga  Ga9  1  0.33469845  0.00130917  0.07851243  1
  Ga  Ga10  1  0.33402711  0.33402711  0.56792978  1
  Ga  Ga11  1  0.66597289  0.66597289  0.43207022  1
  Ga  Ga12  1  0.66597289  0.66597289  0.06792978  1
  Ga  Ga13  1  0.33402711  0.33402711  0.93207022  1
  Ga  Ga14  1  0.33715626  0.54625229  0.25000000  1
  Ga  Ga15  1  0.66284374  0.45374771  0.75000000  1
  Ga  Ga16  1  0.54625229  0.33715626  0.25000000  1
  Ga  Ga17  1  0.45374771  0.66284374  0.75000000  1
  Rh  Rh0  1  0.67158308  0.32841692  -0.00000000  1
  Rh  Rh1  1  0.32841692  0.67158308  -0.00000000  1
  Rh  Rh2  1  0.32841692  0.67158308  0.50000000  1
  Rh  Rh3  1  0.67158308  0.32841692  0.50000000  1
  Rh  Rh4  1  -0.00000000  0.00000000  -0.00000000  1
  Rh  Rh5  1  -0.00000000  0.00000000  0.50000000  1
loop_
_geom_bond_atom_site_label_1
_geom_bond_atom_site_label_2
_geom_bond_distance
_geom_bond_site_symmetry_2
Ga0 Rh4 2.543358 1_555
Ga0 Rh5 2.543358 1_555
Ga0 Ga2 2.704650 1_555
Ga0 Ga6 2.704650 1_555
Ga0 Ga9 2.704650 1_555
Ga0 Ga5 2.704650 1_555
Ga0 Ga16 2.705500 1_555
Ga0 Ga14 2.705500 1_555
Ga0 Tm0 3.048175 1_445
Ga0 Tm2 3.048175 1_445
Ga1 Rh4 2.543358 1_666
Ga1 Rh5 2.543358 1_665
Ga1 Ga7 2.704650 1_565
Ga1 Ga4 2.704650 1_655
Ga1 Ga8 2.704650 1_565
Ga1 Ga3 2.704650 1_655
Ga1 Ga17 2.705500 1_555
Ga1 Ga15 2.705500 1_555
Ga1 Tm1 3.048175 1_665
Ga1 Tm3 3.048175 1_665
Ga2 Rh0 2.541850 1_455
Ga2 Rh1 2.589350 1_555
Ga2 Rh4 2.594572 1_555
Ga2 Ga3 2.880604 1_554
Ga2 Ga8 2.914687 1_454
Ga2 Tm2 2.975379 1_445
Ga2 Tm0 2.981773 1_455
Ga2 Tm1 3.098631 1_554
Ga2 Ga6 3.234847 1_555
Ga3 Rh1 2.541850 1_556
Ga3 Rh0 2.589350 1_456
Ga3 Rh4 2.594572 1_566
Ga3 Ga9 2.914687 1_566
Ga3 Tm3 2.975379 1_565
Ga3 Tm1 2.981773 1_555
Ga3 Tm0 3.098631 1_456
Ga3 Ga4 3.234847 1_555
Ga4 Rh2 2.541850 1_555
Ga4 Rh3 2.589350 1_455
Ga4 Rh5 2.594572 1_565
Ga4 Ga6 2.880604 1_555
Ga4 Ga5 2.914687 1_565
Ga4 Tm3 2.975379 1_565
Ga4 Tm1 2.981773 1_555
Ga4 Tm0 3.098631 1_455
Ga5 Rh2 2.541850 1_545
Ga5 Rh3 2.589350 1_555
Ga5 Rh5 2.594572 1_555
Ga5 Ga7 2.880604 1_555
Ga5 Tm0 2.975379 1_445
Ga5 Tm2 2.981773 1_545
Ga5 Tm3 3.098631 1_555
Ga5 Ga9 3.234847 1_555
Ga6 Rh3 2.541850 1_455
Ga6 Rh2 2.589350 1_555
Ga6 Rh5 2.594572 1_555
Ga6 Ga7 2.914687 1_455
Ga6 Tm2 2.975379 1_445
Ga6 Tm0 2.981773 1_455
Ga6 Tm1 3.098631 1_555
Ga7 Rh3 2.541850 1_555
Ga7 Rh2 2.589350 1_545
Ga7 Rh5 2.594572 1_655
Ga7 Tm1 2.975379 1_655
Ga7 Tm3 2.981773 1_555
Ga7 Tm2 3.098631 1_545
Ga7 Ga8 3.234847 1_555
Ga8 Rh0 2.541850 1_556
Ga8 Rh1 2.589350 1_546
Ga8 Rh4 2.594572 1_656
Ga8 Ga9 2.880604 1_556
Ga8 Tm1 2.975379 1_655
Ga8 Tm3 2.981773 1_555
Ga8 Tm2 3.098631 1_546
Ga9 Rh1 2.541850 1_545
Ga9 Rh0 2.589350 1_555
Ga9 Rh4 2.594572 1_555
Ga9 Tm0 2.975379 1_445
Ga9 Tm2 2.981773 1_545
Ga9 Tm3 3.098631 1_554
Ga10 Rh5 2.576512 1_555
Ga10 Rh2 2.613485 1_555
Ga10 Rh3 2.613485 1_555
Ga10 Ga17 2.751174 1_555
Ga10 Ga15 2.751174 1_555
Ga10 Ga11 2.791507 1_555
Ga10 Ga5 2.838000 1_555
Ga10 Ga6 2.838000 1_555
Ga10 Tm3 2.998747 1_555
Ga10 Tm1 2.998747 1_555
Ga11 Rh5 2.576512 1_665
Ga11 Rh3 2.613485 1_555
Ga11 Rh2 2.613485 1_555
Ga11 Ga14 2.751174 1_555
Ga11 Ga16 2.751174 1_555
Ga11 Ga4 2.838000 1_655
Ga11 Ga7 2.838000 1_565
Ga11 Tm0 2.998747 1_555
Ga11 Tm2 2.998747 1_555
Ga12 Rh4 2.576512 1_665
Ga12 Rh0 2.613485 1_555
Ga12 Rh1 2.613485 1_555
Ga12 Ga14 2.751174 1_555
Ga12 Ga16 2.751174 1_555
Ga12 Ga13 2.791507 1_554
Ga12 Ga8 2.838000 1_564
Ga12 Ga3 2.838000 1_654
Ga12 Tm0 2.998747 1_555
Ga12 Tm2 2.998747 1_555
Ga13 Rh4 2.576512 1_556
Ga13 Rh1 2.613485 1_556
Ga13 Rh0 2.613485 1_556
Ga13 Ga15 2.751174 1_555
Ga13 Ga17 2.751174 1_555
Ga13 Ga9 2.838000 1_556
Ga13 Ga2 2.838000 1_556
Ga13 Tm1 2.998747 1_555
Ga13 Tm3 2.998747 1_555
Ga14 Rh1 2.548475 1_555
Ga14 Rh2 2.548475 1_555
Ga14 Ga16 2.692639 1_555
Ga14 Ga2 2.727273 1_555
Ga14 Ga6 2.727273 1_555
Ga14 Tm2 3.028274 1_555
Ga14 Tm0 3.084988 1_455
Ga15 Rh0 2.548475 1_556
Ga15 Rh3 2.548475 1_555
Ga15 Ga17 2.692639 1_555
Ga15 Ga4 2.727273 1_655
Ga15 Ga3 2.727273 1_655
Ga15 Tm3 3.028274 1_555
Ga15 Tm1 3.084988 1_655
Ga16 Rh0 2.548475 1_555
Ga16 Rh3 2.548475 1_555
Ga16 Ga9 2.727273 1_555
Ga16 Ga5 2.727273 1_555
Ga16 Tm0 3.028274 1_555
Ga16 Tm2 3.084988 1_545
Ga17 Rh1 2.548475 1_556
Ga17 Rh2 2.548475 1_555
Ga17 Ga7 2.727273 1_565
Ga17 Ga8 2.727273 1_565
Ga17 Tm1 3.028274 1_555
Ga17 Tm3 3.084988 1_565
