# generated using pymatgen
data_Lu2B6Ru
_symmetry_space_group_name_H-M   'P 1'
_cell_length_a   3.58095600
_cell_length_b   8.99637704
_cell_length_c   11.34958527
_cell_angle_alpha   90.00000000
_cell_angle_beta   90.00000000
_cell_angle_gamma   90.00000000
_symmetry_Int_Tables_number   1
_chemical_formula_structural   Lu2B6Ru
_chemical_formula_sum   'Lu8 B24 Ru4'
_cell_volume   365.63404357
_cell_formula_units_Z   4
loop_
 _symmetry_equiv_pos_site_id
 _symmetry_equiv_pos_as_xyz
  1  'x, y, z'
loop_
 _atom_site_type_symbol
 _atom_site_label
 _atom_site_symmetry_multiplicity
 _atom_site_fract_x
 _atom_site_fract_y
 _atom_site_fract_z
 _atom_site_occupancy
  Lu  Lu0  1  -0.00000000  0.32050674  0.41443092  1
  Lu  Lu1  1  0.00000000  0.67949326  0.58556908  1
  Lu  Lu2  1  -0.00000000  0.82050674  0.08556908  1
  Lu  Lu3  1  0.00000000  0.17949326  0.91443092  1
  Lu  Lu4  1  0.00000000  0.94383321  0.37292516  1
  Lu  Lu5  1  -0.00000000  0.05616679  0.62707484  1
  Lu  Lu6  1  0.00000000  0.44383321  0.12707484  1
  Lu  Lu7  1  -0.00000000  0.55616679  0.87292516  1
  B  B0  1  0.50000000  0.55362803  0.43372213  1
  B  B1  1  0.50000000  0.44637197  0.56627787  1
  B  B2  1  0.50000000  0.05362803  0.06627787  1
  B  B3  1  0.50000000  0.94637197  0.93372213  1
  B  B4  1  0.50000000  0.74903916  0.42044843  1
  B  B5  1  0.50000000  0.25096084  0.57955157  1
  B  B6  1  0.50000000  0.24903916  0.07955157  1
  B  B7  1  0.50000000  0.75096084  0.92044843  1
  B  B8  1  0.50000000  0.79174692  0.26541525  1
  B  B9  1  0.50000000  0.20825308  0.73458475  1
  B  B10  1  0.50000000  0.29174692  0.23458475  1
  B  B11  1  0.50000000  0.70825308  0.76541525  1
  B  B12  1  0.50000000  0.63099334  0.18423037  1
  B  B13  1  0.50000000  0.36900666  0.81576963  1
  B  B14  1  0.50000000  0.13099334  0.31576963  1
  B  B15  1  0.50000000  0.86900666  0.68423037  1
  B  B16  1  0.50000000  0.98172614  0.21286357  1
  B  B17  1  0.50000000  0.01827386  0.78713643  1
  B  B18  1  0.50000000  0.48172614  0.28713643  1
  B  B19  1  0.50000000  0.51827386  0.71286357  1
  B  B20  1  0.50000000  0.60698572  0.02949304  1
  B  B21  1  0.50000000  0.39301428  0.97050696  1
  B  B22  1  0.50000000  0.10698572  0.47050696  1
  B  B23  1  0.50000000  0.89301428  0.52949304  1
  Ru  Ru0  1  -0.00000000  0.63792582  0.32084505  1
  Ru  Ru1  1  0.00000000  0.36207418  0.67915495  1
  Ru  Ru2  1  -0.00000000  0.13792582  0.17915495  1
  Ru  Ru3  1  -0.00000000  0.86207418  0.82084505  1
loop_
_geom_bond_atom_site_label_1
_geom_bond_atom_site_label_2
_geom_bond_distance
_geom_bond_site_symmetry_2
Lu0 Ru1 3.027691 1_555
Lu0 Ru0 3.046762 1_555
Lu0 Ru2 3.135035 1_555
Lu1 Ru0 3.027691 1_555
Lu1 Ru1 3.046762 1_555
Lu1 Ru3 3.135035 1_555
Lu2 Ru3 3.027691 1_554
Lu2 Ru2 3.046762 1_565
Lu2 Ru0 3.135035 1_555
Lu3 Ru2 3.027691 1_556
Lu3 Ru3 3.046762 1_545
Lu3 Ru1 3.135035 1_555
Lu4 Ru2 2.808114 1_565
Lu4 Ru0 2.814820 1_555
Lu4 Lu5 3.056404 1_565
Lu5 Ru3 2.808114 1_545
Lu5 Ru1 2.814820 1_555
Lu6 Ru0 2.808114 1_555
Lu6 Ru2 2.814820 1_555
Lu6 Lu7 3.056404 1_554
Lu7 Ru1 2.808114 1_555
Lu7 Ru3 2.814820 1_555
B0 B4 1.764435 1_555
B0 B18 1.785015 1_555
B0 B1 1.787300 1_555
B0 Ru0 2.328558 1_555
B0 Ru0 2.328558 1_655
B0 Lu1 2.730951 1_555
B0 Lu1 2.730951 1_655
B0 Lu0 2.766260 1_555
B0 Lu0 2.766260 1_655
B1 B5 1.764435 1_555
B1 B19 1.785015 1_555
B1 Ru1 2.328558 1_655
B1 Ru1 2.328558 1_555
B1 Lu0 2.730951 1_555
B1 Lu0 2.730951 1_655
B1 Lu1 2.766260 1_655
B1 Lu1 2.766260 1_555
B2 B6 1.764435 1_555
B2 B3 1.787300 1_544
B2 Ru2 2.328558 1_555
B2 Ru2 2.328558 1_655
B2 Lu3 2.730951 1_654
B2 Lu3 2.730951 1_554
B2 Lu2 2.766260 1_645
B2 Lu2 2.766260 1_545
B3 B7 1.764435 1_555
B3 Ru3 2.328558 1_555
B3 Ru3 2.328558 1_655
B3 Lu2 2.730951 1_556
B3 Lu2 2.730951 1_656
B3 Lu3 2.766260 1_565
B3 Lu3 2.766260 1_665
B4 B8 1.801022 1_555
B4 Ru0 2.341576 1_555
B4 Ru0 2.341576 1_655
B4 Lu4 2.562768 1_555
B4 Lu4 2.562768 1_655
B4 Lu1 2.666333 1_655
B4 Lu1 2.666333 1_555
B5 B9 1.801022 1_555
B5 Ru1 2.341576 1_555
B5 Ru1 2.341576 1_655
B5 Lu5 2.562768 1_655
B5 Lu5 2.562768 1_555
B5 Lu0 2.666333 1_555
B5 Lu0 2.666333 1_655
B6 Ru2 2.341576 1_655
B6 Ru2 2.341576 1_555
B6 Lu6 2.562768 1_555
B6 Lu6 2.562768 1_655
B6 Lu3 2.666333 1_654
B6 Lu3 2.666333 1_554
B7 Ru3 2.341576 1_655
B7 Ru3 2.341576 1_555
B7 Lu7 2.562768 1_655
B7 Lu7 2.562768 1_555
B7 Lu2 2.666333 1_656
B7 Lu2 2.666333 1_556
B8 Ru0 2.348740 1_555
B8 Ru0 2.348740 1_655
B8 Lu4 2.562562 1_655
B8 Lu4 2.562562 1_555
B8 Lu2 2.727484 1_555
B8 Lu2 2.727484 1_655
B9 Ru1 2.348740 1_555
B9 Ru1 2.348740 1_655
B9 Lu5 2.562562 1_555
B9 Lu5 2.562562 1_655
B9 Lu3 2.727484 1_655
B9 Lu3 2.727484 1_555
B10 B14 1.714788 1_555
B10 B6 1.801022 1_555
B10 B18 1.810207 1_555
B10 Ru2 2.348740 1_555
B10 Ru2 2.348740 1_655
B10 Lu6 2.562562 1_555
B10 Lu6 2.562562 1_655
B10 Lu0 2.727484 1_655
B10 Lu0 2.727484 1_555
B11 B15 1.714788 1_555
B11 B7 1.801022 1_555
B11 B19 1.810207 1_555
B11 Ru3 2.348740 1_655
B11 Ru3 2.348740 1_555
B11 Lu7 2.562562 1_655
B11 Lu7 2.562562 1_555
B11 Lu1 2.727484 1_655
B11 Lu1 2.727484 1_555
B12 B8 1.714788 1_555
B12 B20 1.769436 1_555
B12 B18 1.779711 1_555
B12 Ru0 2.369349 1_555
B12 Ru0 2.369349 1_655
B12 Lu6 2.541982 1_655
B12 Lu6 2.541982 1_555
B12 Lu2 2.714127 1_555
B12 Lu2 2.714127 1_655
B13 B9 1.714788 1_555
B13 B21 1.769436 1_555
B13 B19 1.779711 1_555
B13 Ru1 2.369349 1_655
B13 Ru1 2.369349 1_555
B13 Lu7 2.541982 1_655
B13 Lu7 2.541982 1_555
B13 Lu3 2.714127 1_555
B13 Lu3 2.714127 1_655
B14 B22 1.769436 1_555
B14 B16 1.779711 1_545
B14 Ru2 2.369349 1_655
B14 Ru2 2.369349 1_555
B14 Lu4 2.541982 1_545
B14 Lu4 2.541982 1_645
B14 Lu0 2.714127 1_555
B14 Lu0 2.714127 1_655
B15 B23 1.769436 1_555
B15 B17 1.779711 1_565
B15 Ru3 2.369349 1_555
B15 Ru3 2.369349 1_655
B15 Lu5 2.541982 1_665
B15 Lu5 2.541982 1_565
B15 Lu1 2.714127 1_555
B15 Lu1 2.714127 1_655
B16 B2 1.785015 1_565
B16 B8 1.810207 1_555
B16 Ru2 2.307998 1_565
B16 Ru2 2.307998 1_665
B16 Lu4 2.573359 1_655
B16 Lu4 2.573359 1_555
B16 Lu2 2.719691 1_555
B16 Lu2 2.719691 1_655
B17 B3 1.785015 1_545
B17 B9 1.810207 1_555
B17 Ru3 2.307998 1_645
B17 Ru3 2.307998 1_545
B17 Lu5 2.573359 1_655
B17 Lu5 2.573359 1_555
B17 Lu3 2.719691 1_555
B17 Lu3 2.719691 1_655
B18 Ru0 2.307998 1_655
B18 Ru0 2.307998 1_555
B18 Lu6 2.573359 1_555
B18 Lu6 2.573359 1_655
B18 Lu0 2.719691 1_555
B18 Lu0 2.719691 1_655
B19 Ru1 2.307998 1_555
B19 Ru1 2.307998 1_655
B19 Lu7 2.573359 1_555
B19 Lu7 2.573359 1_655
B19 Lu1 2.719691 1_655
B19 Lu1 2.719691 1_555
B20 B7 1.791470 1_554
B20 B21 2.038060 1_554
B20 Lu7 2.563687 1_554
B20 Lu7 2.563687 1_654
B20 Lu6 2.566472 1_655
B20 Lu6 2.566472 1_555
B20 Lu2 2.701996 1_555
B20 Lu2 2.701996 1_655
B21 B6 1.791470 1_556
B21 Lu6 2.563687 1_656
B21 Lu6 2.563687 1_556
B21 Lu7 2.566472 1_655
B21 Lu7 2.566472 1_555
B21 Lu3 2.701996 1_555
B21 Lu3 2.701996 1_655
B22 B5 1.791470 1_555
B22 B23 2.038060 1_545
B22 Lu5 2.563687 1_555
B22 Lu5 2.563687 1_655
B22 Lu4 2.566472 1_645
B22 Lu4 2.566472 1_545
B22 Lu0 2.701996 1_555
B22 Lu0 2.701996 1_655
B23 B4 1.791470 1_555
B23 Lu4 2.563687 1_655
B23 Lu4 2.563687 1_555
B23 Lu5 2.566472 1_665
B23 Lu5 2.566472 1_565
B23 Lu1 2.701996 1_555
B23 Lu1 2.701996 1_655
