# generated using pymatgen
data_Ba2Cu(SO)2
_symmetry_space_group_name_H-M   'P 1'
_cell_length_a   4.15286200
_cell_length_b   4.15286200
_cell_length_c   8.50673600
_cell_angle_alpha   90.00000000
_cell_angle_beta   90.00000000
_cell_angle_gamma   90.00000000
_symmetry_Int_Tables_number   1
_chemical_formula_structural   Ba2Cu(SO)2
_chemical_formula_sum   'Ba2 Cu1 S2 O2'
_cell_volume   146.70940455
_cell_formula_units_Z   1
loop_
 _symmetry_equiv_pos_site_id
 _symmetry_equiv_pos_as_xyz
  1  'x, y, z'
loop_
 _atom_site_type_symbol
 _atom_site_label
 _atom_site_symmetry_multiplicity
 _atom_site_fract_x
 _atom_site_fract_y
 _atom_site_fract_z
 _atom_site_occupancy
  Ba  Ba0  1  0.50000000  0.50000000  0.71901300  1
  Ba  Ba1  1  0.50000000  0.50000000  0.28098700  1
  Cu  Cu0  1  0.00000000  0.00000000  0.50000000  1
  S  S0  1  0.00000000  0.00000000  0.87642300  1
  S  S1  1  0.00000000  0.00000000  0.12357700  1
  O  O0  1  0.00000000  0.50000000  0.50000000  1
  O  O1  1  0.50000000  0.00000000  0.50000000  1
loop_
_geom_bond_atom_site_label_1
_geom_bond_atom_site_label_2
_geom_bond_distance
_geom_bond_site_symmetry_2
Ba0 O0 2.789741 1_555
Ba0 O0 2.789741 1_655
Ba0 O1 2.789741 1_555
Ba0 O1 2.789741 1_565
Ba0 S0 3.227410 1_565
Ba0 S0 3.227410 1_655
Ba0 S0 3.227410 1_665
Ba0 S0 3.227410 1_555
Ba1 O0 2.789741 1_555
Ba1 O0 2.789741 1_655
Ba1 O1 2.789741 1_555
Ba1 O1 2.789741 1_565
Ba1 S1 3.227410 1_665
Ba1 S1 3.227410 1_555
Ba1 S1 3.227410 1_565
Ba1 S1 3.227410 1_655
Cu0 O0 2.076431 1_555
Cu0 O1 2.076431 1_555
Cu0 O1 2.076431 1_455
Cu0 O0 2.076431 1_545
S0 S1 2.102474 1_556
