# generated using pymatgen
data_Li3Fe5OF11
_symmetry_space_group_name_H-M   'P 1'
_cell_length_a   5.25608100
_cell_length_b   5.68770732
_cell_length_c   9.29113358
_cell_angle_alpha   107.28857676
_cell_angle_beta   89.09800657
_cell_angle_gamma   116.84259537
_symmetry_Int_Tables_number   1
_chemical_formula_structural   Li3Fe5OF11
_chemical_formula_sum   'Li3 Fe5 O1 F11'
_cell_volume   234.33522909
_cell_formula_units_Z   1
loop_
 _symmetry_equiv_pos_site_id
 _symmetry_equiv_pos_as_xyz
  1  'x, y, z'
loop_
 _atom_site_type_symbol
 _atom_site_label
 _atom_site_symmetry_multiplicity
 _atom_site_fract_x
 _atom_site_fract_y
 _atom_site_fract_z
 _atom_site_occupancy
  Li  Li0  1  0.01762200  0.03410500  0.99593400  1
  Li  Li1  1  0.79621300  0.29714200  0.26791700  1
  Li  Li2  1  0.27217200  0.76964300  0.75798300  1
  Fe  Fe0  1  0.48238600  0.49853400  0.49697900  1
  Fe  Fe1  1  0.45389400  0.77263900  0.14430000  1
  Fe  Fe2  1  0.95311500  0.23415200  0.64830600  1
  Fe  Fe3  1  0.18066000  0.00960400  0.40110700  1
  Fe  Fe4  1  0.71381300  0.50542500  0.90734900  1
  O  O0  1  0.06700200  0.25746800  0.45675900  1
  F  F0  1  0.43376300  0.86101100  0.35324700  1
  F  F1  1  0.51841300  0.42234400  0.28822600  1
  F  F2  1  0.01474900  0.89422800  0.80530700  1
  F  F3  1  0.43655000  0.15599800  0.04017600  1
  F  F4  1  0.92071500  0.64385300  0.54602800  1
  F  F5  1  0.94270600  0.33905400  0.84869900  1
  F  F6  1  0.01604200  0.58838600  0.10723700  1
  F  F7  1  0.54870700  0.75012000  0.94654500  1
  F  F8  1  0.41346700  0.51214200  0.70887800  1
  F  F9  1  0.89177100  0.99862200  0.19158400  1
  F  F10  1  0.50087600  0.07992800  0.61231700  1
loop_
_geom_bond_atom_site_label_1
_geom_bond_atom_site_label_2
_geom_bond_distance
_geom_bond_site_symmetry_2
Li1 O0 2.399819 1_655
Fe0 O0 1.950409 1_555
Fe0 Fe3 2.373027 1_555
Fe2 O0 1.891626 1_655
Fe3 O0 1.711518 1_555
F0 Fe3 1.858807 1_565
F0 Fe1 1.869298 1_555
F0 F10 2.305948 1_565
F0 F1 2.624149 1_555
F1 Li1 1.877548 1_555
F1 Fe0 1.883742 1_555
F1 F3 2.271336 1_555
F2 Li0 1.709559 1_565
F2 Li2 1.785520 1_555
F2 F4 2.332024 1_455
F2 Fe4 2.516175 1_455
F3 Li0 1.994634 1_554
F3 Fe4 2.526321 1_554
F3 Li1 2.537965 1_555
F3 F7 2.540226 1_544
F3 Fe1 2.671063 1_545
F3 Li2 2.716974 1_544
F3 F6 2.845682 1_655
F4 Fe0 2.070809 1_555
F4 Li2 2.426115 1_655
F4 O0 2.555640 1_655
F4 Li1 2.617836 1_555
F4 Fe3 2.654710 1_665
F5 Fe2 1.786496 1_555
F5 Fe4 1.827772 1_555
F5 F6 2.332506 1_656
F6 Fe1 2.036079 1_555
F6 Fe4 2.256181 1_454
F6 Li1 2.448446 1_455
F6 F9 2.599710 1_455
F7 Fe1 1.878727 1_556
F7 Fe4 1.897951 1_555
F7 F8 2.148841 1_555
F7 Li0 2.212231 1_665
F7 Li2 2.352842 1_555
F8 Li2 1.865252 1_555
F8 Fe0 1.981315 1_555
F8 Fe2 2.174944 1_455
F8 Fe4 2.466166 1_555
F9 Li1 1.918670 1_565
F9 Li0 1.960194 1_664
F9 Fe1 2.041264 1_555
F9 O0 2.403524 1_665
F9 Fe3 2.456485 1_665
F10 Fe2 2.121111 1_555
F10 Li2 2.417405 1_545
F10 Fe3 2.423465 1_555
F10 F8 2.599105 1_555
F10 F4 2.854937 1_445
F10 Fe4 2.886364 1_555
