# generated using pymatgen
data_Na2Si2Se5
_symmetry_space_group_name_H-M   'P 1'
_cell_length_a   9.43029707
_cell_length_b   9.43029707
_cell_length_c   10.96174126
_cell_angle_alpha   90.00000000
_cell_angle_beta   90.00000000
_cell_angle_gamma   89.79984965
_symmetry_Int_Tables_number   1
_chemical_formula_structural   Na2Si2Se5
_chemical_formula_sum   'Na8 Si8 Se20'
_cell_volume   974.82721411
_cell_formula_units_Z   4
loop_
 _symmetry_equiv_pos_site_id
 _symmetry_equiv_pos_as_xyz
  1  'x, y, z'
loop_
 _atom_site_type_symbol
 _atom_site_label
 _atom_site_symmetry_multiplicity
 _atom_site_fract_x
 _atom_site_fract_y
 _atom_site_fract_z
 _atom_site_occupancy
  Na  Na0  1  0.57874083  0.07854552  0.75000000  1
  Na  Na1  1  0.42125917  0.92145448  0.25000000  1
  Na  Na2  1  0.92145448  0.42125917  0.75000000  1
  Na  Na3  1  0.07854552  0.57874083  0.25000000  1
  Na  Na4  1  0.14823495  0.14823495  0.50000000  1
  Na  Na5  1  0.85176505  0.85176505  0.00000000  1
  Na  Na6  1  0.85176505  0.85176505  0.50000000  1
  Na  Na7  1  0.14823495  0.14823495  0.00000000  1
  Si  Si0  1  0.58520508  0.68593355  0.75000000  1
  Si  Si1  1  0.41479492  0.31406645  0.25000000  1
  Si  Si2  1  0.31406645  0.41479492  0.75000000  1
  Si  Si3  1  0.68593355  0.58520508  0.25000000  1
  Si  Si4  1  0.25379403  0.74620597  0.91719443  1
  Si  Si5  1  0.74620597  0.25379403  0.41719443  1
  Si  Si6  1  0.25379403  0.74620597  0.58280557  1
  Si  Si7  1  0.74620597  0.25379403  0.08280557  1
  Se  Se0  1  0.72869261  0.81448878  0.25000000  1
  Se  Se1  1  0.27130739  0.18551122  0.75000000  1
  Se  Se2  1  0.18551122  0.27130739  0.25000000  1
  Se  Se3  1  0.81448878  0.72869261  0.75000000  1
  Se  Se4  1  0.15756783  0.84243217  0.08153503  1
  Se  Se5  1  0.84243217  0.15756783  0.58153503  1
  Se  Se6  1  0.15756783  0.84243217  0.41846497  1
  Se  Se7  1  0.84243217  0.15756783  0.91846497  1
  Se  Se8  1  0.15184336  0.84815664  0.75000000  1
  Se  Se9  1  0.84815664  0.15184336  0.25000000  1
  Se  Se10  1  0.50682977  0.20754614  0.07824875  1
  Se  Se11  1  0.49317023  0.79245386  0.57824875  1
  Se  Se12  1  0.79245386  0.49317023  0.42175125  1
  Se  Se13  1  0.20754614  0.50682977  0.92175125  1
  Se  Se14  1  0.49317023  0.79245386  0.92175125  1
  Se  Se15  1  0.50682977  0.20754614  0.42175125  1
  Se  Se16  1  0.20754614  0.50682977  0.57824875  1
  Se  Se17  1  0.79245386  0.49317023  0.07824875  1
  Se  Se18  1  0.55299098  0.44700902  0.75000000  1
  Se  Se19  1  0.44700902  0.55299098  0.25000000  1
loop_
_geom_bond_atom_site_label_1
_geom_bond_atom_site_label_2
_geom_bond_distance
_geom_bond_site_symmetry_2
Na0 Se1 3.066329 1_555
Na0 Se5 3.187802 1_555
Na0 Se7 3.187802 1_555
Na0 Se14 3.389652 1_545
Na0 Se11 3.389652 1_545
Na0 Se18 3.482349 1_555
Na0 Se15 3.857578 1_555
Na0 Se10 3.857578 1_556
Na1 Se0 3.066329 1_555
Na1 Se6 3.187802 1_555
Na1 Se4 3.187802 1_555
Na1 Se10 3.389652 1_565
Na1 Se15 3.389652 1_565
Na1 Se19 3.482349 1_555
Na1 Se14 3.857578 1_554
Na1 Se11 3.857578 1_555
Na2 Se3 3.066329 1_555
Na2 Se5 3.187802 1_555
Na2 Se7 3.187802 1_555
Na2 Se16 3.389652 1_655
Na2 Se13 3.389652 1_655
Na2 Se18 3.482349 1_555
Na2 Se17 3.857578 1_556
Na2 Se12 3.857578 1_555
Na3 Se2 3.066329 1_555
Na3 Se6 3.187802 1_555
Na3 Se4 3.187802 1_555
Na3 Se17 3.389652 1_455
Na3 Se12 3.389652 1_455
Na3 Se19 3.482349 1_555
Na3 Se13 3.857578 1_554
Na3 Se16 3.857578 1_555
Na4 Se1 2.997236 1_555
Na4 Se2 2.997236 1_555
Na4 Se5 3.020125 1_455
Na4 Se6 3.020125 1_545
Na4 Se15 3.535162 1_555
Na4 Se16 3.535162 1_555
Na5 Se0 2.997236 1_555
Na5 Se3 2.997236 1_554
Na5 Se7 3.020125 1_564
Na5 Se4 3.020125 1_655
Na5 Se17 3.535162 1_555
Na5 Se14 3.535162 1_554
Na6 Se0 2.997236 1_555
Na6 Se3 2.997236 1_555
Na6 Se5 3.020125 1_565
Na6 Se6 3.020125 1_655
Na6 Se12 3.535162 1_555
Na6 Se11 3.535162 1_555
Na7 Se1 2.997236 1_554
Na7 Se2 2.997236 1_555
Na7 Se4 3.020125 1_545
Na7 Se7 3.020125 1_454
Na7 Se13 3.535162 1_554
Na7 Se10 3.535162 1_555
Se0 Si3 2.200876 1_555
Se1 Si2 2.200876 1_555
Se2 Si1 2.200876 1_555
Se3 Si0 2.200876 1_555
Se4 Si4 2.210521 1_554
Se5 Si5 2.210521 1_555
Se6 Si6 2.210521 1_555
Se7 Si7 2.210521 1_556
Se8 Si6 2.280606 1_555
Se8 Si4 2.280606 1_555
Se9 Si5 2.280606 1_555
Se9 Si7 2.280606 1_555
Se10 Si7 2.301171 1_555
Se10 Si1 2.302341 1_555
Se11 Si6 2.301171 1_555
Se11 Si0 2.302341 1_555
Se12 Si5 2.301171 1_555
Se12 Si3 2.302341 1_555
Se13 Si4 2.301171 1_555
Se13 Si2 2.302341 1_555
Se14 Si4 2.301171 1_555
Se14 Si0 2.302341 1_555
Se15 Si5 2.301171 1_555
Se15 Si1 2.302341 1_555
Se16 Si6 2.301171 1_555
Se16 Si2 2.302341 1_555
Se17 Si7 2.301171 1_555
Se17 Si3 2.302341 1_555
Se18 Si0 2.274568 1_555
Se18 Si2 2.274568 1_555
Se19 Si3 2.274568 1_555
Se19 Si1 2.274568 1_555
