# generated using pymatgen
data_Li9Mn2Co5O16
_symmetry_space_group_name_H-M   'P 1'
_cell_length_a   5.13647000
_cell_length_b   7.71830936
_cell_length_c   7.79100997
_cell_angle_alpha   98.74034747
_cell_angle_beta   101.94351236
_cell_angle_gamma   102.52339048
_symmetry_Int_Tables_number   1
_chemical_formula_structural   Li9Mn2Co5O16
_chemical_formula_sum   'Li9 Mn2 Co5 O16'
_cell_volume   288.66463853
_cell_formula_units_Z   1
loop_
 _symmetry_equiv_pos_site_id
 _symmetry_equiv_pos_as_xyz
  1  'x, y, z'
loop_
 _atom_site_type_symbol
 _atom_site_label
 _atom_site_symmetry_multiplicity
 _atom_site_fract_x
 _atom_site_fract_y
 _atom_site_fract_z
 _atom_site_occupancy
  Li  Li0  1  0.50048700  0.87566600  0.62642200  1
  Li  Li1  1  0.49040200  0.74783700  0.24419800  1
  Li  Li2  1  0.49951300  0.12433400  0.37357800  1
  Li  Li3  1  0.50000000  0.00000000  0.00000000  1
  Li  Li4  1  0.50428200  0.38069300  0.11925600  1
  Li  Li5  1  0.50959800  0.25216300  0.75580200  1
  Li  Li6  1  0.49571800  0.61930700  0.88074400  1
  Li  Li7  1  0.50000000  0.50000000  0.50000000  1
  Li  Li8  1  0.00000000  0.50000000  0.00000000  1
  Mn  Mn0  1  0.00516700  0.74939300  0.75169700  1
  Mn  Mn1  1  0.99483300  0.25060700  0.24830300  1
  Co  Co0  1  0.00443200  0.62398300  0.36951400  1
  Co  Co1  1  0.99556800  0.37601700  0.63048600  1
  Co  Co2  1  0.00727300  0.13646900  0.87834100  1
  Co  Co3  1  0.00000000  0.00000000  0.50000000  1
  Co  Co4  1  0.99272700  0.86353100  0.12165900  1
  O  O0  1  0.78205800  0.87655700  0.86927100  1
  O  O1  1  0.78109200  0.74899100  0.51190500  1
  O  O2  1  0.76727000  0.12421400  0.62569100  1
  O  O3  1  0.77288600  0.01430000  0.25607500  1
  O  O4  1  0.77295200  0.37312700  0.36939800  1
  O  O5  1  0.77210400  0.24411500  0.01631300  1
  O  O6  1  0.76116600  0.64365800  0.13433500  1
  O  O7  1  0.77574100  0.50784800  0.74013200  1
  O  O8  1  0.23273000  0.87578600  0.37430900  1
  O  O9  1  0.22789600  0.75588500  0.98368700  1
  O  O10  1  0.21794200  0.12344300  0.13072900  1
  O  O11  1  0.22711400  0.98570000  0.74392500  1
  O  O12  1  0.23883400  0.35634200  0.86566500  1
  O  O13  1  0.21890800  0.25100900  0.48809500  1
  O  O14  1  0.22704800  0.62687300  0.63060200  1
  O  O15  1  0.22425900  0.49215200  0.25986800  1
loop_
_geom_bond_atom_site_label_1
_geom_bond_atom_site_label_2
_geom_bond_distance
_geom_bond_site_symmetry_2
Li0 O11 2.084223 1_555
Li0 O2 2.103442 1_565
Li0 O14 2.128242 1_555
Li0 O0 2.128551 1_555
Li0 O8 2.152361 1_555
Li0 O1 2.169708 1_555
Li1 O6 2.020386 1_555
Li1 O8 2.138328 1_555
Li1 O15 2.179576 1_555
Li1 O9 2.209822 1_554
Li1 O3 2.221735 1_565
Li1 O1 2.297672 1_555
Li2 O3 2.084223 1_555
Li2 O8 2.103442 1_545
Li2 O4 2.128242 1_555
Li2 O10 2.128551 1_555
Li2 O2 2.152361 1_555
Li2 O13 2.169708 1_555
Li3 O5 2.057010 1_555
Li3 O9 2.057010 1_544
Li3 O3 2.160039 1_555
Li3 O11 2.160039 1_544
Li3 O10 2.226782 1_555
Li3 O0 2.226782 1_544
Li4 O12 2.111615 1_554
Li4 O5 2.115546 1_555
Li4 O6 2.139215 1_555
Li4 O4 2.159234 1_555
Li4 O15 2.216162 1_555
Li4 O10 2.226077 1_555
Li5 O12 2.020386 1_555
Li5 O2 2.138328 1_555
Li5 O7 2.179576 1_555
Li5 O5 2.209822 1_556
Li5 O11 2.221735 1_545
Li5 O13 2.297672 1_555
Li6 O6 2.111615 1_556
Li6 O9 2.115546 1_555
Li6 O12 2.139215 1_555
Li6 O14 2.159234 1_555
Li6 O7 2.216162 1_555
Li6 O0 2.226077 1_555
Li7 O15 2.083616 1_555
Li7 O7 2.083616 1_555
Li7 O13 2.115081 1_555
Li7 O1 2.115081 1_555
Li7 O4 2.200666 1_555
Li7 O14 2.200666 1_555
Li8 O9 2.102923 1_554
Li8 O5 2.102923 1_455
Li8 O7 2.128836 1_454
Li8 O15 2.128836 1_555
Li8 O6 2.144387 1_455
Li8 O12 2.144387 1_554
Mn0 O9 1.915708 1_555
Mn0 O14 1.929900 1_555
Mn0 O0 1.940298 1_455
Mn0 O11 1.946869 1_555
Mn0 O7 1.955695 1_455
Mn0 O1 1.980322 1_455
Mn1 O5 1.915708 1_555
Mn1 O4 1.929900 1_555
Mn1 O10 1.940298 1_655
Mn1 O3 1.946869 1_555
Mn1 O15 1.955695 1_655
Mn1 O13 1.980322 1_655
Co0 O15 1.916597 1_555
Co0 O8 2.031035 1_555
Co0 O1 2.039391 1_455
Co0 O6 2.039825 1_455
Co0 O4 2.040383 1_455
Co0 O14 2.111438 1_555
Co1 O7 1.916597 1_555
Co1 O2 2.031035 1_555
Co1 O13 2.039391 1_655
Co1 O12 2.039825 1_655
Co1 O14 2.040383 1_655
Co1 O4 2.111438 1_555
Co2 O12 1.878456 1_555
Co2 O5 2.001539 1_456
Co2 O10 2.067410 1_556
Co2 O0 2.069839 1_445
Co2 O2 2.071655 1_455
Co2 O11 2.101171 1_545
Co3 O2 2.000828 1_455
Co3 O8 2.000828 1_545
Co3 O1 2.044346 1_445
Co3 O13 2.044346 1_555
Co3 O11 2.046131 1_545
Co3 O3 2.046131 1_455
Co4 O6 1.878456 1_555
Co4 O9 2.001539 1_654
Co4 O0 2.067410 1_554
Co4 O10 2.069839 1_665
Co4 O8 2.071655 1_655
Co4 O3 2.101171 1_565
