# generated using pymatgen
data_Ba10MgAs6(ClO12)2
_symmetry_space_group_name_H-M   'P 1'
_cell_length_a   10.58624613
_cell_length_b   10.95217548
_cell_length_c   8.11988183
_cell_angle_alpha   95.38813763
_cell_angle_beta   90.97702993
_cell_angle_gamma   117.73829624
_symmetry_Int_Tables_number   1
_chemical_formula_structural   Ba10MgAs6(ClO12)2
_chemical_formula_sum   'Ba10 Mg1 As6 Cl2 O24'
_cell_volume   827.59515730
_cell_formula_units_Z   1
loop_
 _symmetry_equiv_pos_site_id
 _symmetry_equiv_pos_as_xyz
  1  'x, y, z'
loop_
 _atom_site_type_symbol
 _atom_site_label
 _atom_site_symmetry_multiplicity
 _atom_site_fract_x
 _atom_site_fract_y
 _atom_site_fract_z
 _atom_site_occupancy
  Ba  Ba0  1  0.68630540  0.34548091  0.46217065  1
  Ba  Ba1  1  0.32715416  0.67077365  0.51646242  1
  Ba  Ba2  1  0.00161317  0.23433524  0.17122851  1
  Ba  Ba3  1  0.30941990  0.64693840  0.01334297  1
  Ba  Ba4  1  0.71890624  0.70783391  0.27602480  1
  Ba  Ba5  1  0.25835649  0.98667760  0.28949646  1
  Ba  Ba6  1  0.76140908  0.04045533  0.63102515  1
  Ba  Ba7  1  0.98595075  0.74195367  0.77229052  1
  Ba  Ba8  1  0.69493937  0.31033590  0.97684111  1
  Ba  Ba9  1  0.28058719  0.26910576  0.73735479  1
  Mg  Mg0  1  0.65420196  0.92357545  0.95893592  1
  As  As0  1  0.96805223  0.59194213  0.25158542  1
  As  As1  1  0.59707899  0.63255416  0.77253059  1
  As  As2  1  0.36581590  0.95424658  0.79567358  1
  As  As3  1  0.40519344  0.37453310  0.24776221  1
  As  As4  1  0.04298460  0.41010113  0.72057494  1
  As  As5  1  0.60365912  0.01186251  0.24199436  1
  Cl  Cl0  1  0.96303067  0.93866384  0.08916955  1
  Cl  Cl1  1  0.02154466  0.99511511  0.55451694  1
  O  O0  1  0.62221084  0.72929585  0.96799859  1
  O  O1  1  0.39180413  0.52810000  0.27135944  1
  O  O2  1  0.38139185  0.28889489  0.42346378  1
  O  O3  1  0.41310573  0.54372156  0.74424668  1
  O  O4  1  0.10592008  0.35479803  0.55224809  1
  O  O5  1  0.66981199  0.52137063  0.76369599  1
  O  O6  1  0.85929116  0.34147913  0.70558939  1
  O  O7  1  0.12069072  0.59034249  0.74570123  1
  O  O8  1  0.58411660  0.43254926  0.20774601  1
  O  O9  1  0.78492721  0.11307264  0.94300148  1
  O  O10  1  0.10905906  0.37422190  0.89716788  1
  O  O11  1  0.90358176  0.41463256  0.23877863  1
  O  O12  1  0.48098748  0.87857925  0.80414179  1
  O  O13  1  0.89410604  0.62293899  0.08082259  1
  O  O14  1  0.89770865  0.63241248  0.42816393  1
  O  O15  1  0.45832014  0.13069141  0.78592689  1
  O  O16  1  0.28591236  0.26281576  0.09079017  1
  O  O17  1  0.76702203  0.13166794  0.35347863  1
  O  O18  1  0.15291686  0.68156552  0.26180034  1
  O  O19  1  0.26190442  0.89709279  0.96211321  1
  O  O20  1  0.50662584  0.90062222  0.39029217  1
  O  O21  1  0.25285388  0.87870627  0.61970599  1
  O  O22  1  0.67135339  0.75168132  0.63195450  1
  O  O23  1  0.52817447  0.12476275  0.22583171  1
loop_
_geom_bond_atom_site_label_1
_geom_bond_atom_site_label_2
_geom_bond_distance
_geom_bond_site_symmetry_2
Ba0 O6 2.688808 1_555
Ba0 O23 2.753346 1_555
Ba0 O8 2.757096 1_555
Ba0 O11 2.816598 1_555
Ba0 O17 2.914262 1_555
Ba0 O14 2.932163 1_555
Ba0 O2 2.994795 1_555
Ba0 O5 3.029478 1_555
Ba1 O20 2.663629 1_555
Ba1 O1 2.707197 1_555
Ba1 O7 2.769903 1_555
Ba1 O3 2.791002 1_555
Ba1 O18 2.794797 1_555
Ba1 O21 2.799819 1_555
Ba1 O12 2.951290 1_555
Ba1 O4 3.195769 1_555
Ba1 O22 3.415196 1_555
Ba2 O11 2.645879 1_455
Ba2 O9 2.648952 1_454
Ba2 O17 2.731337 1_455
Ba2 O10 2.774453 1_554
Ba2 O16 2.968733 1_555
Ba2 Cl0 3.074300 1_445
Ba2 O4 3.208199 1_555
Ba3 O18 2.741169 1_555
Ba3 O7 2.746811 1_554
Ba3 O10 2.795587 1_554
Ba3 O3 2.833733 1_554
Ba3 O1 2.889700 1_555
Ba3 O0 3.039313 1_554
Ba3 O12 3.040703 1_554
Ba3 O19 3.069519 1_554
Ba4 O8 2.662310 1_555
Ba4 O14 2.712681 1_555
Ba4 O0 2.757871 1_554
Ba4 O13 2.871492 1_555
Ba4 O22 2.975021 1_555
Ba4 O1 3.082783 1_555
Ba4 Cl0 3.185036 1_555
Ba4 Cl1 3.782959 1_655
Ba5 O23 2.624734 1_565
Ba5 O19 2.752920 1_554
Ba5 O18 2.973425 1_555
Ba5 O2 3.016262 1_565
Ba5 O21 3.021189 1_555
Ba5 Cl0 3.291251 1_455
Ba5 O20 3.292896 1_555
Ba5 Cl1 3.359529 1_555
Ba5 O16 3.456311 1_565
Ba6 O17 2.540182 1_555
Ba6 O9 2.554892 1_555
Ba6 O22 2.847742 1_545
Ba6 O6 2.955214 1_555
Ba6 O20 2.975583 1_545
Ba6 Cl1 3.080524 1_645
Ba6 O12 3.105306 1_545
Ba7 O7 2.643159 1_655
Ba7 O21 2.879289 1_655
Ba7 O14 2.891029 1_555
Ba7 O13 2.904693 1_556
Ba7 O19 2.920768 1_655
Ba7 O5 3.078298 1_555
Ba7 Cl0 3.284448 1_556
Ba7 Cl1 3.305680 1_655
Ba7 O22 3.553182 1_555
Ba8 O15 2.693663 1_555
Ba8 O9 2.732012 1_555
Ba8 O6 2.777406 1_555
Ba8 O11 2.782442 1_556
Ba8 O8 2.783662 1_556
Ba8 O23 2.981348 1_556
Ba8 O13 3.091409 1_556
Ba8 O5 3.117057 1_555
Ba9 O3 2.656154 1_555
Ba9 O2 2.768237 1_555
Ba9 O10 2.837664 1_555
Ba9 O16 2.877362 1_556
Ba9 O4 2.888696 1_555
Ba9 O15 2.955643 1_555
Ba9 Cl1 3.177002 1_545
Mg0 O9 1.903199 1_565
Mg0 O0 2.001760 1_555
Mg0 O12 2.036908 1_555
As0 O13 1.717381 1_555
As0 O11 1.724416 1_555
As0 O18 1.729542 1_655
As0 O14 1.741001 1_555
As1 O5 1.714366 1_555
As1 O3 1.723758 1_555
As1 O22 1.725913 1_555
As1 O0 1.766322 1_555
As2 O21 1.718968 1_555
As2 O15 1.723198 1_565
As2 O19 1.731176 1_555
As2 O12 1.768174 1_555
As3 O16 1.711778 1_555
As3 O2 1.738439 1_555
As3 O8 1.742543 1_555
As3 O1 1.745819 1_555
As4 O4 1.711753 1_555
As4 O6 1.724964 1_455
As4 O7 1.738437 1_555
As4 O10 1.739906 1_555
As5 O23 1.769577 1_555
As5 O20 1.772633 1_545
As5 O17 1.772903 1_555
As5 Mg0 2.571004 1_544
Cl0 O13 3.177980 1_555
Cl0 O0 3.316270 1_554
Cl0 Mg0 3.343726 1_554
Cl0 O9 3.509164 1_564
Cl0 O19 3.556162 1_654
Cl0 O16 3.602925 1_665
Cl0 Cl1 3.764101 1_655
Cl1 O21 3.300057 1_555
Cl1 O22 3.527146 1_455
Cl1 O14 3.590566 1_455
Cl1 O4 3.613188 1_565
