# generated using pymatgen
data_EuNbGaSnO6
_symmetry_space_group_name_H-M   'P 1'
_cell_length_a   5.65379273
_cell_length_b   5.65379273
_cell_length_c   5.65379273
_cell_angle_alpha   60.00000000
_cell_angle_beta   60.00000000
_cell_angle_gamma   60.00000000
_symmetry_Int_Tables_number   1
_chemical_formula_structural   EuNbGaSnO6
_chemical_formula_sum   'Eu1 Nb1 Ga1 Sn1 O6'
_cell_volume   127.79228973
_cell_formula_units_Z   1
loop_
 _symmetry_equiv_pos_site_id
 _symmetry_equiv_pos_as_xyz
  1  'x, y, z'
loop_
 _atom_site_type_symbol
 _atom_site_label
 _atom_site_symmetry_multiplicity
 _atom_site_fract_x
 _atom_site_fract_y
 _atom_site_fract_z
 _atom_site_occupancy
  Eu  Eu0  1  0.25000000  0.25000000  0.25000000  1
  Nb  Nb0  1  0.50000000  0.50000000  0.50000000  1
  Ga  Ga0  1  0.00000000  -0.00000000  -0.00000000  1
  Sn  Sn0  1  0.75000000  0.75000000  0.75000000  1
  O  O0  1  0.75157807  0.24842193  0.24842193  1
  O  O1  1  0.24842193  0.75157807  0.75157807  1
  O  O2  1  0.75157807  0.24842193  0.75157807  1
  O  O3  1  0.24842193  0.75157807  0.24842193  1
  O  O4  1  0.75157807  0.75157807  0.24842193  1
  O  O5  1  0.24842193  0.24842193  0.75157807  1
loop_
_geom_bond_atom_site_label_1
_geom_bond_atom_site_label_2
_geom_bond_distance
_geom_bond_site_symmetry_2
Eu0 O1 2.826925 1_545
Eu0 O0 2.826925 1_455
Eu0 O4 2.826925 1_545
Eu0 O3 2.826925 1_555
Eu0 O0 2.826925 1_555
Eu0 O5 2.826925 1_554
Eu0 O4 2.826925 1_455
Eu0 O1 2.826925 1_554
Eu0 O3 2.826925 1_545
Eu0 O2 2.826925 1_455
Eu0 O2 2.826925 1_554
Eu0 O5 2.826925 1_555
Nb0 O5 2.011535 1_555
Nb0 O3 2.011535 1_555
Nb0 O0 2.011535 1_555
Nb0 O2 2.011535 1_555
Nb0 O4 2.011535 1_555
Nb0 O1 2.011535 1_555
Ga0 O1 1.986300 1_544
Ga0 O5 1.986300 1_554
Ga0 O2 1.986300 1_454
Ga0 O0 1.986300 1_455
Ga0 O3 1.986300 1_545
Ga0 O4 1.986300 1_445
O0 Sn0 2.826925 1_554
O0 Sn0 2.826925 1_545
O1 Sn0 2.826925 1_455
O1 Sn0 2.826925 1_555
O2 Sn0 2.826925 1_555
O2 Sn0 2.826925 1_545
O3 Sn0 2.826925 1_554
O3 Sn0 2.826925 1_455
O4 Sn0 2.826925 1_554
O4 Sn0 2.826925 1_555
O5 Sn0 2.826925 1_455
O5 Sn0 2.826925 1_545
