# generated using pymatgen
data_Zr3Sb7Pd
_symmetry_space_group_name_H-M   'P 1'
_cell_length_a   3.98277516
_cell_length_b   14.61696831
_cell_length_c   17.77210855
_cell_angle_alpha   90.00000000
_cell_angle_beta   90.00000000
_cell_angle_gamma   90.00000000
_symmetry_Int_Tables_number   1
_chemical_formula_structural   Zr3Sb7Pd
_chemical_formula_sum   'Zr12 Sb28 Pd4'
_cell_volume   1034.62281834
_cell_formula_units_Z   4
loop_
 _symmetry_equiv_pos_site_id
 _symmetry_equiv_pos_as_xyz
  1  'x, y, z'
loop_
 _atom_site_type_symbol
 _atom_site_label
 _atom_site_symmetry_multiplicity
 _atom_site_fract_x
 _atom_site_fract_y
 _atom_site_fract_z
 _atom_site_occupancy
  Zr  Zr0  1  0.25000000  0.31067970  0.84740407  1
  Zr  Zr1  1  0.25000000  0.18932030  0.34740407  1
  Zr  Zr2  1  0.75000000  0.68932030  0.15259593  1
  Zr  Zr3  1  0.75000000  0.81067970  0.65259593  1
  Zr  Zr4  1  0.25000000  0.03135686  0.86972864  1
  Zr  Zr5  1  0.25000000  0.46864314  0.36972864  1
  Zr  Zr6  1  0.75000000  0.96864314  0.13027136  1
  Zr  Zr7  1  0.75000000  0.53135686  0.63027136  1
  Zr  Zr8  1  0.25000000  0.58744287  0.89241183  1
  Zr  Zr9  1  0.25000000  0.91255713  0.39241183  1
  Zr  Zr10  1  0.75000000  0.41255713  0.10758817  1
  Zr  Zr11  1  0.75000000  0.08744287  0.60758817  1
  Sb  Sb0  1  0.25000000  0.19520359  0.51957439  1
  Sb  Sb1  1  0.25000000  0.30479641  0.01957439  1
  Sb  Sb2  1  0.75000000  0.80479641  0.48042561  1
  Sb  Sb3  1  0.75000000  0.69520359  0.98042561  1
  Sb  Sb4  1  0.25000000  0.42888331  0.53618966  1
  Sb  Sb5  1  0.25000000  0.07111669  0.03618966  1
  Sb  Sb6  1  0.75000000  0.57111669  0.46381034  1
  Sb  Sb7  1  0.75000000  0.92888331  0.96381034  1
  Sb  Sb8  1  0.25000000  0.93939452  0.57176364  1
  Sb  Sb9  1  0.25000000  0.56060548  0.07176364  1
  Sb  Sb10  1  0.75000000  0.06060548  0.42823636  1
  Sb  Sb11  1  0.75000000  0.43939452  0.92823636  1
  Sb  Sb12  1  0.25000000  0.67654447  0.59249240  1
  Sb  Sb13  1  0.25000000  0.82345553  0.09249240  1
  Sb  Sb14  1  0.75000000  0.32345553  0.40750760  1
  Sb  Sb15  1  0.75000000  0.17654447  0.90750760  1
  Sb  Sb16  1  0.25000000  0.14727371  0.72714936  1
  Sb  Sb17  1  0.25000000  0.35272629  0.22714936  1
  Sb  Sb18  1  0.75000000  0.85272629  0.27285064  1
  Sb  Sb19  1  0.75000000  0.64727371  0.77285064  1
  Sb  Sb20  1  0.25000000  0.48047747  0.74756774  1
  Sb  Sb21  1  0.25000000  0.01952253  0.24756774  1
  Sb  Sb22  1  0.75000000  0.51952253  0.25243226  1
  Sb  Sb23  1  0.75000000  0.98047747  0.75243226  1
  Sb  Sb24  1  0.25000000  0.81939607  0.78466208  1
  Sb  Sb25  1  0.25000000  0.68060393  0.28466208  1
  Sb  Sb26  1  0.75000000  0.18060393  0.21533792  1
  Sb  Sb27  1  0.75000000  0.31939607  0.71533792  1
  Pd  Pd0  1  0.25000000  0.81019285  0.93577082  1
  Pd  Pd1  1  0.25000000  0.68980715  0.43577082  1
  Pd  Pd2  1  0.75000000  0.18980715  0.06422918  1
  Pd  Pd3  1  0.75000000  0.31019285  0.56422918  1
loop_
_geom_bond_atom_site_label_1
_geom_bond_atom_site_label_2
_geom_bond_distance
_geom_bond_site_symmetry_2
Sb0 Zr11 2.982175 1_455
Sb0 Zr11 2.982175 1_555
Sb0 Zr1 3.061038 1_555
Sb0 Sb10 3.235947 1_555
Sb0 Sb10 3.235947 1_455
Sb0 Sb14 3.383294 1_555
Sb0 Sb14 3.383294 1_455
Sb0 Sb16 3.754980 1_555
Sb1 Zr10 2.982175 1_555
Sb1 Zr10 2.982175 1_455
Sb1 Zr0 3.061038 1_554
Sb1 Sb11 3.235947 1_554
Sb1 Sb11 3.235947 1_454
Sb1 Sb15 3.383294 1_454
Sb1 Sb15 3.383294 1_554
Sb1 Sb17 3.754980 1_555
Sb2 Zr9 2.982175 1_555
Sb2 Zr9 2.982175 1_655
Sb2 Zr3 3.061038 1_555
Sb2 Sb8 3.235947 1_555
Sb2 Sb8 3.235947 1_655
Sb3 Zr8 2.982175 1_555
Sb3 Zr8 2.982175 1_655
Sb3 Zr2 3.061038 1_556
Sb3 Sb9 3.235947 1_556
Sb3 Sb9 3.235947 1_656
Sb4 Zr7 3.000812 1_455
Sb4 Zr7 3.000812 1_555
Sb4 Zr5 3.014908 1_555
Sb4 Sb6 3.153190 1_455
Sb4 Sb6 3.153190 1_555
Sb5 Zr6 3.000812 1_545
Sb5 Zr6 3.000812 1_445
Sb5 Zr4 3.014908 1_554
Sb5 Sb7 3.153190 1_444
Sb5 Sb7 3.153190 1_544
Sb6 Zr5 3.000812 1_655
Sb6 Zr5 3.000812 1_555
Sb6 Zr7 3.014908 1_555
Sb7 Zr4 3.000812 1_565
Sb7 Zr4 3.000812 1_665
Sb7 Zr6 3.014908 1_556
Sb8 Zr11 3.008979 1_565
Sb8 Zr11 3.008979 1_465
Sb8 Zr3 3.093392 1_555
Sb8 Zr3 3.093392 1_455
Sb8 Zr9 3.211508 1_555
Sb9 Zr10 3.008979 1_455
Sb9 Zr10 3.008979 1_555
Sb9 Zr2 3.093392 1_555
Sb9 Zr2 3.093392 1_455
Sb9 Zr8 3.211508 1_554
Sb10 Zr9 3.008979 1_545
Sb10 Zr9 3.008979 1_645
Sb10 Zr1 3.093392 1_555
Sb10 Zr1 3.093392 1_655
Sb10 Zr11 3.211508 1_555
Sb10 Sb8 3.689331 1_545
Sb10 Sb8 3.689331 1_645
Sb11 Zr8 3.008979 1_555
Sb11 Zr8 3.008979 1_655
Sb11 Zr0 3.093392 1_655
Sb11 Zr0 3.093392 1_555
Sb11 Zr10 3.211508 1_556
Sb11 Sb9 3.689331 1_556
Sb11 Sb9 3.689331 1_656
Sb12 Zr7 2.986664 1_455
Sb12 Zr7 2.986664 1_555
Sb12 Zr3 2.991781 1_455
Sb12 Zr3 2.991781 1_555
Sb12 Sb2 3.383294 1_455
Sb12 Sb2 3.383294 1_555
Sb12 Sb6 3.401552 1_455
Sb12 Sb6 3.401552 1_555
Sb12 Sb19 3.797753 1_555
Sb12 Sb19 3.797753 1_455
Sb13 Zr6 2.986664 1_455
Sb13 Zr6 2.986664 1_555
Sb13 Zr2 2.991781 1_455
Sb13 Zr2 2.991781 1_555
Sb13 Sb3 3.383294 1_554
Sb13 Sb3 3.383294 1_454
Sb13 Sb7 3.401552 1_554
Sb13 Sb7 3.401552 1_454
Sb13 Sb18 3.797753 1_555
Sb13 Sb18 3.797753 1_455
Sb14 Zr5 2.986664 1_655
Sb14 Zr5 2.986664 1_555
Sb14 Zr1 2.991781 1_655
Sb14 Zr1 2.991781 1_555
Sb14 Sb4 3.401552 1_555
Sb14 Sb4 3.401552 1_655
Sb14 Sb17 3.797753 1_555
Sb14 Sb17 3.797753 1_655
Sb15 Zr4 2.986664 1_555
Sb15 Zr4 2.986664 1_655
Sb15 Zr0 2.991781 1_655
Sb15 Zr0 2.991781 1_555
Sb15 Sb5 3.401552 1_556
Sb15 Sb5 3.401552 1_656
Sb15 Sb16 3.797753 1_555
Sb15 Sb16 3.797753 1_655
Sb16 Zr11 3.040635 1_555
Sb16 Zr11 3.040635 1_455
Sb16 Zr4 3.048222 1_555
Sb16 Sb23 3.179880 1_545
Sb16 Sb23 3.179880 1_445
Sb16 Zr0 3.205069 1_555
Sb16 Sb27 3.215506 1_455
Sb16 Sb27 3.215506 1_555
Sb17 Zr10 3.040635 1_455
Sb17 Zr10 3.040635 1_555
Sb17 Zr5 3.048222 1_555
Sb17 Sb22 3.179880 1_455
Sb17 Sb22 3.179880 1_555
Sb17 Zr1 3.205069 1_555
Sb17 Sb26 3.215506 1_555
Sb17 Sb26 3.215506 1_455
Sb18 Zr9 3.040635 1_555
Sb18 Zr9 3.040635 1_655
Sb18 Zr6 3.048222 1_555
Sb18 Sb21 3.179880 1_565
Sb18 Sb21 3.179880 1_665
Sb18 Zr2 3.205069 1_555
Sb18 Sb25 3.215506 1_655
Sb18 Sb25 3.215506 1_555
Sb18 Sb2 3.754980 1_555
Sb19 Zr8 3.040635 1_555
Sb19 Zr8 3.040635 1_655
Sb19 Zr7 3.048222 1_555
Sb19 Sb20 3.179880 1_655
Sb19 Sb20 3.179880 1_555
Sb19 Zr3 3.205069 1_555
Sb19 Sb24 3.215506 1_555
Sb19 Sb24 3.215506 1_655
Sb19 Sb3 3.754980 1_555
Sb20 Zr7 2.977296 1_555
Sb20 Zr7 2.977296 1_455
Sb20 Zr8 3.011809 1_555
Sb20 Zr0 3.050921 1_555
Sb20 Sb27 3.136477 1_455
Sb20 Sb27 3.136477 1_555
Sb21 Zr6 2.977296 1_445
Sb21 Zr6 2.977296 1_545
Sb21 Zr9 3.011809 1_545
Sb21 Zr1 3.050921 1_555
Sb21 Sb26 3.136477 1_555
Sb21 Sb26 3.136477 1_455
Sb22 Zr5 2.977296 1_555
Sb22 Zr5 2.977296 1_655
Sb22 Zr10 3.011809 1_555
Sb22 Zr2 3.050921 1_555
Sb22 Sb25 3.136477 1_555
Sb22 Sb25 3.136477 1_655
Sb23 Zr4 2.977296 1_565
Sb23 Zr4 2.977296 1_665
Sb23 Zr11 3.011809 1_565
Sb23 Zr3 3.050921 1_555
Sb23 Sb24 3.136477 1_555
Sb23 Sb24 3.136477 1_655
Sb24 Zr3 3.080699 1_555
Sb24 Zr3 3.080699 1_455
Sb24 Zr4 3.447400 1_565
Sb25 Zr2 3.080699 1_455
Sb25 Zr2 3.080699 1_555
Sb25 Zr5 3.447400 1_555
Sb26 Zr1 3.080699 1_555
Sb26 Zr1 3.080699 1_655
Sb26 Zr6 3.447400 1_545
Sb27 Zr0 3.080699 1_655
Sb27 Zr0 3.080699 1_555
Sb27 Zr7 3.447400 1_555
Pd0 Sb7 2.687714 1_455
Pd0 Sb7 2.687714 1_555
Pd0 Sb24 2.688888 1_555
Pd0 Sb3 2.724061 1_455
Pd0 Sb3 2.724061 1_555
Pd0 Sb13 2.792011 1_556
Pd0 Zr8 3.345874 1_555
Pd0 Zr4 3.439222 1_565
Pd1 Sb6 2.687714 1_455
Pd1 Sb6 2.687714 1_555
Pd1 Sb25 2.688888 1_555
Pd1 Sb2 2.724061 1_555
Pd1 Sb2 2.724061 1_455
Pd1 Sb12 2.792011 1_555
Pd1 Zr9 3.345874 1_555
Pd1 Zr5 3.439222 1_555
Pd2 Sb5 2.687714 1_655
Pd2 Sb5 2.687714 1_555
Pd2 Sb26 2.688888 1_555
Pd2 Sb1 2.724061 1_555
Pd2 Sb1 2.724061 1_655
Pd2 Sb15 2.792011 1_554
Pd2 Zr10 3.345874 1_555
Pd2 Zr6 3.439222 1_545
Pd3 Sb4 2.687714 1_555
Pd3 Sb4 2.687714 1_655
Pd3 Sb27 2.688888 1_555
Pd3 Sb0 2.724061 1_555
Pd3 Sb0 2.724061 1_655
Pd3 Sb14 2.792011 1_555
Pd3 Zr11 3.345874 1_555
Pd3 Zr7 3.439222 1_555
