# generated using pymatgen
data_MgH12SO10
_symmetry_space_group_name_H-M   'P 1'
_cell_length_a   6.27616656
_cell_length_b   6.27616656
_cell_length_c   25.16971454
_cell_angle_alpha   80.92769483
_cell_angle_beta   80.92769483
_cell_angle_gamma   69.49549751
_symmetry_Int_Tables_number   1
_chemical_formula_structural   MgH12SO10
_chemical_formula_sum   'Mg4 H48 S4 O40'
_cell_volume   911.36906699
_cell_formula_units_Z   4
loop_
 _symmetry_equiv_pos_site_id
 _symmetry_equiv_pos_as_xyz
  1  'x, y, z'
loop_
 _atom_site_type_symbol
 _atom_site_label
 _atom_site_symmetry_multiplicity
 _atom_site_fract_x
 _atom_site_fract_y
 _atom_site_fract_z
 _atom_site_occupancy
  Mg  Mg0  1  0.00000000  0.00000000  0.50000000  1
  Mg  Mg1  1  0.00000000  0.00000000  0.00000000  1
  Mg  Mg2  1  0.05770200  0.94229800  0.25000000  1
  Mg  Mg3  1  0.94229800  0.05770200  0.75000000  1
  H  H0  1  0.96969400  0.34160800  0.41940000  1
  H  H1  1  0.65839200  0.03030600  0.08060000  1
  H  H2  1  0.03030600  0.65839200  0.58060000  1
  H  H3  1  0.34160800  0.96969400  0.91940000  1
  H  H4  1  0.71311400  0.35029200  0.44150700  1
  H  H5  1  0.64970800  0.28688600  0.05849300  1
  H  H6  1  0.28688600  0.64970800  0.55849300  1
  H  H7  1  0.35029200  0.71311400  0.94150700  1
  H  H8  1  0.28431700  0.69426600  0.43255300  1
  H  H9  1  0.30573400  0.71568300  0.06744700  1
  H  H10  1  0.71568300  0.30573400  0.56744700  1
  H  H11  1  0.69426600  0.28431700  0.93255300  1
  H  H12  1  0.32845100  0.92882600  0.41149100  1
  H  H13  1  0.07117400  0.67154900  0.08850900  1
  H  H14  1  0.67154900  0.07117400  0.58850900  1
  H  H15  1  0.92882600  0.32845100  0.91149100  1
  H  H16  1  0.67023500  0.93341600  0.44933900  1
  H  H17  1  0.06658400  0.32976500  0.05066100  1
  H  H18  1  0.32976500  0.06658400  0.55066100  1
  H  H19  1  0.93341600  0.67023500  0.94933900  1
  H  H20  1  0.69552200  0.76464000  0.50412600  1
  H  H21  1  0.23536000  0.30447800  0.99587400  1
  H  H22  1  0.30447800  0.23536000  0.49587400  1
  H  H23  1  0.76464000  0.69552200  0.00412600  1
  H  H24  1  0.73950200  0.93561200  0.19175300  1
  H  H25  1  0.06438800  0.26049800  0.30824700  1
  H  H26  1  0.26049800  0.06438800  0.80824700  1
  H  H27  1  0.93561200  0.73950200  0.69175300  1
  H  H28  1  0.67699600  0.19485400  0.19936800  1
  H  H29  1  0.80514600  0.32300400  0.30063200  1
  H  H30  1  0.32300400  0.80514600  0.80063200  1
  H  H31  1  0.19485400  0.67699600  0.69936800  1
  H  H32  1  0.30201300  0.55960900  0.19913300  1
  H  H33  1  0.44039100  0.69798600  0.30086700  1
  H  H34  1  0.69798600  0.44039100  0.80086700  1
  H  H35  1  0.55960900  0.30201300  0.69913300  1
  H  H36  1  0.07966200  0.51171700  0.23174200  1
  H  H37  1  0.48828300  0.92033800  0.26825700  1
  H  H38  1  0.92033800  0.48828300  0.76825800  1
  H  H39  1  0.51171700  0.07966200  0.73174200  1
  H  H40  1  0.00769100  0.66115300  0.34117900  1
  H  H41  1  0.33884700  0.99230900  0.15882100  1
  H  H42  1  0.99230900  0.33884700  0.65882100  1
  H  H43  1  0.66115300  0.00769100  0.84117900  1
  H  H44  1  0.78971400  0.88903000  0.34490400  1
  H  H45  1  0.11097000  0.21028600  0.15509600  1
  H  H46  1  0.21028600  0.11097000  0.65509600  1
  H  H47  1  0.88903000  0.78971400  0.84490400  1
  S  S0  1  0.42096800  0.31765000  0.37693800  1
  S  S1  1  0.68235000  0.57903200  0.12306200  1
  S  S2  1  0.57903200  0.68235000  0.62306200  1
  S  S3  1  0.31765000  0.42096800  0.87693800  1
  O  O0  1  0.17893600  0.37609000  0.36538100  1
  O  O1  1  0.62391000  0.82106400  0.13461900  1
  O  O2  1  0.82106400  0.62391000  0.63461900  1
  O  O3  1  0.37609000  0.17893600  0.86538100  1
  O  O4  1  0.54661200  0.42605900  0.33187900  1
  O  O5  1  0.57394100  0.45338700  0.16812100  1
  O  O6  1  0.45338700  0.57394100  0.66812100  1
  O  O7  1  0.42605900  0.54661200  0.83187900  1
  O  O8  1  0.42272200  0.40411000  0.42903200  1
  O  O9  1  0.59589000  0.57727800  0.07096800  1
  O  O10  1  0.57727800  0.59589000  0.57096800  1
  O  O11  1  0.40411000  0.42272200  0.92903200  1
  O  O12  1  0.53481100  0.06345400  0.38272900  1
  O  O13  1  0.93654600  0.46518900  0.11727100  1
  O  O14  1  0.46518900  0.93654600  0.61727100  1
  O  O15  1  0.06345400  0.53481100  0.88272900  1
  O  O16  1  0.86938200  0.30896700  0.45183100  1
  O  O17  1  0.69103300  0.13061800  0.04816900  1
  O  O18  1  0.13061800  0.69103300  0.54816900  1
  O  O19  1  0.30896700  0.86938200  0.95183100  1
  O  O20  1  0.21640400  0.86237500  0.43298900  1
  O  O21  1  0.13762500  0.78359600  0.06701100  1
  O  O22  1  0.78359600  0.13762500  0.56701100  1
  O  O23  1  0.86237500  0.21640400  0.93298900  1
  O  O24  1  0.76286400  0.86821200  0.47971000  1
  O  O25  1  0.13178800  0.23713600  0.02029000  1
  O  O26  1  0.23713600  0.13178800  0.52029000  1
  O  O27  1  0.86821200  0.76286400  0.97971000  1
  O  O28  1  0.73606000  0.03625700  0.21844000  1
  O  O29  1  0.96374300  0.26394000  0.28156000  1
  O  O30  1  0.26394000  0.96374300  0.78156000  1
  O  O31  1  0.03625700  0.73606000  0.71844000  1
  O  O32  1  0.14770000  0.63135700  0.21829300  1
  O  O33  1  0.36864300  0.85230000  0.28170700  1
  O  O34  1  0.85230000  0.36864300  0.78170700  1
  O  O35  1  0.63135700  0.14770000  0.71829300  1
  O  O36  1  0.91337400  0.79803000  0.31988600  1
  O  O37  1  0.20197000  0.08662600  0.18011400  1
  O  O38  1  0.08662600  0.20197000  0.68011400  1
  O  O39  1  0.79803000  0.91337400  0.81988600  1
loop_
_geom_bond_atom_site_label_1
_geom_bond_atom_site_label_2
_geom_bond_distance
_geom_bond_site_symmetry_2
Mg0 O22 2.085829 1_455
Mg0 O20 2.085829 1_545
Mg0 O18 2.088191 1_545
Mg0 O16 2.088191 1_455
Mg0 O26 2.096497 1_555
Mg0 O24 2.096497 1_445
Mg1 O23 2.085829 1_454
Mg1 O21 2.085829 1_545
Mg1 O17 2.088191 1_455
Mg1 O19 2.088191 1_544
Mg1 O25 2.096497 1_555
Mg1 O27 2.096497 1_444
Mg2 O36 2.074683 1_455
Mg2 O37 2.074683 1_565
Mg2 O32 2.083537 1_555
Mg2 O33 2.083537 1_555
Mg2 O28 2.139585 1_465
Mg2 O29 2.139585 1_465
Mg3 O39 2.074683 1_545
Mg3 O38 2.074683 1_655
Mg3 O34 2.083537 1_555
Mg3 O35 2.083537 1_555
Mg3 O31 2.139585 1_645
Mg3 O30 2.139585 1_645
H0 O16 0.990048 1_555
H0 O0 1.778560 1_655
H1 O17 0.990048 1_555
H1 O1 1.778560 1_545
H2 O18 0.990048 1_555
H2 O2 1.778560 1_455
H3 O19 0.990048 1_555
H3 O3 1.778560 1_565
H4 O16 0.988738 1_555
H4 O8 1.802809 1_555
H5 O17 0.988738 1_555
H5 O9 1.802809 1_555
H6 O18 0.988738 1_555
H6 O10 1.802809 1_555
H7 O19 0.988738 1_555
H7 O11 1.802809 1_555
H8 O20 0.991017 1_555
H8 O8 1.731218 1_555
H9 O21 0.991017 1_555
H9 O9 1.731218 1_555
H10 O22 0.991017 1_555
H10 O10 1.731218 1_555
H11 O23 0.991017 1_555
H11 O11 1.731218 1_555
H12 O20 0.987699 1_555
H12 O12 1.787034 1_565
H13 O21 0.987699 1_555
H13 O13 1.787034 1_455
H14 O22 0.987699 1_555
H14 O14 1.787034 1_545
H15 O23 0.987699 1_555
H15 O15 1.787034 1_655
H16 O24 0.982151 1_555
H16 O12 1.931641 1_565
H17 O25 0.982151 1_555
H17 O13 1.931641 1_455
H18 O26 0.982151 1_555
H18 O14 1.931641 1_545
H19 O27 0.982151 1_555
H19 O15 1.931641 1_655
H20 O24 0.981541 1_555
H20 O10 2.024316 1_555
H21 O25 0.981541 1_556
H21 O11 2.024316 1_555
H22 O26 0.981541 1_555
H22 O8 2.024316 1_555
H23 O27 0.981541 1_554
H23 O9 2.024316 1_555
H24 O28 0.985050 1_565
H24 O1 2.032625 1_555
H25 O29 0.985050 1_455
H25 O0 2.032625 1_555
H26 O30 0.985050 1_545
H26 O3 2.032625 1_555
H27 O31 0.985050 1_655
H27 O2 2.032625 1_555
H28 O28 1.002781 1_555
H28 O5 1.640870 1_555
H29 O29 1.002781 1_555
H29 O4 1.640875 1_555
H30 O30 1.002781 1_555
H30 O7 1.640875 1_555
H31 O31 1.002781 1_555
H31 O6 1.640870 1_555
H32 O32 0.994478 1_555
H32 O5 1.706851 1_555
H33 O33 0.994482 1_555
H33 O4 1.706846 1_555
H34 O34 0.994482 1_555
H34 O7 1.706846 1_555
H35 O35 0.994478 1_555
H35 O6 1.706851 1_555
H36 O32 0.979611 1_555
H37 O33 0.979615 1_555
H38 O34 0.979611 1_555
H39 O35 0.979611 1_555
H40 O36 0.987029 1_455
H40 O0 1.800768 1_555
H41 O37 0.987029 1_565
H41 O1 1.800768 1_555
H42 O38 0.987029 1_655
H42 O2 1.800768 1_555
H43 O39 0.987029 1_545
H43 O3 1.800768 1_555
H44 O36 0.986822 1_555
H44 O12 1.812628 1_565
H45 O37 0.986822 1_555
H45 O13 1.812628 1_455
H46 O38 0.986822 1_555
H46 O14 1.812628 1_545
H47 O39 0.986822 1_555
H47 O15 1.812628 1_655
O0 S0 1.497327 1_555
O1 S1 1.497327 1_555
O2 S2 1.497327 1_555
O3 S3 1.497327 1_555
O4 S0 1.490466 1_555
O5 S1 1.490469 1_555
O6 S2 1.490469 1_555
O7 S3 1.490466 1_555
O8 S0 1.498972 1_555
O9 S1 1.498972 1_555
O10 S2 1.498972 1_555
O11 S3 1.498972 1_555
O12 S0 1.495969 1_555
O13 S1 1.495969 1_555
O14 S2 1.495969 1_555
O15 S3 1.495969 1_555
