# generated using pymatgen
data_Eu2ZnSb2
_symmetry_space_group_name_H-M   'P 1'
_cell_length_a   4.67518304
_cell_length_b   4.67518304
_cell_length_c   8.13355700
_cell_angle_alpha   90.00000000
_cell_angle_beta   90.00000000
_cell_angle_gamma   119.99998638
_symmetry_Int_Tables_number   1
_chemical_formula_structural   Eu2ZnSb2
_chemical_formula_sum   'Eu2 Zn1 Sb2'
_cell_volume   153.96019162
_cell_formula_units_Z   1
loop_
 _symmetry_equiv_pos_site_id
 _symmetry_equiv_pos_as_xyz
  1  'x, y, z'
loop_
 _atom_site_type_symbol
 _atom_site_label
 _atom_site_symmetry_multiplicity
 _atom_site_fract_x
 _atom_site_fract_y
 _atom_site_fract_z
 _atom_site_occupancy
  Eu  Eu0  1  0.66666700  0.33333300  0.22640300  1
  Eu  Eu1  1  0.66666700  0.33333300  0.77359700  1
  Zn  Zn0  1  0.00000000  0.00000000  0.50000000  1
  Sb  Sb0  1  0.00000000  0.00000000  0.00000000  1
  Sb  Sb1  1  0.33333300  0.66666700  0.50000000  1
loop_
_geom_bond_atom_site_label_1
_geom_bond_atom_site_label_2
_geom_bond_distance
_geom_bond_site_symmetry_2
Eu0 Sb0 3.267529 1_655
Eu0 Sb0 3.267533 1_555
Eu0 Sb0 3.267533 1_665
Eu0 Zn0 3.498256 1_655
Eu0 Sb1 3.498257 1_545
Eu0 Sb1 3.498257 1_655
Eu0 Zn0 3.498260 1_555
Eu0 Zn0 3.498260 1_665
Eu0 Sb1 3.498263 1_555
Eu0 Eu1 3.682923 1_554
Eu1 Sb0 3.267529 1_656
Eu1 Sb0 3.267533 1_556
Eu1 Sb0 3.267533 1_666
Eu1 Zn0 3.498256 1_655
Eu1 Sb1 3.498257 1_545
Eu1 Sb1 3.498257 1_655
Eu1 Zn0 3.498260 1_555
Eu1 Zn0 3.498260 1_665
Eu1 Sb1 3.498263 1_555
Sb1 Zn0 2.699215 1_565
Sb1 Zn0 2.699220 1_665
Sb1 Zn0 2.699220 1_555
