# generated using pymatgen
data_CaTi2O5
_symmetry_space_group_name_H-M   'P 1'
_cell_length_a   3.61696897
_cell_length_b   4.89801972
_cell_length_c   11.60996489
_cell_angle_alpha   90.00000000
_cell_angle_beta   90.00000000
_cell_angle_gamma   90.00000000
_symmetry_Int_Tables_number   1
_chemical_formula_structural   CaTi2O5
_chemical_formula_sum   'Ca2 Ti4 O10'
_cell_volume   205.68196781
_cell_formula_units_Z   2
loop_
 _symmetry_equiv_pos_site_id
 _symmetry_equiv_pos_as_xyz
  1  'x, y, z'
loop_
 _atom_site_type_symbol
 _atom_site_label
 _atom_site_symmetry_multiplicity
 _atom_site_fract_x
 _atom_site_fract_y
 _atom_site_fract_z
 _atom_site_occupancy
  Ca  Ca0  1  0.50000000  0.13786026  -0.00000000  1
  Ca  Ca1  1  0.00000000  0.86213974  0.50000000  1
  Ti  Ti0  1  -0.00000000  0.60716103  0.84779478  1
  Ti  Ti1  1  0.50000000  0.39283897  0.65220522  1
  Ti  Ti2  1  0.50000000  0.39283897  0.34779478  1
  Ti  Ti3  1  -0.00000000  0.60716103  0.15220522  1
  O  O0  1  0.50000000  0.53729041  0.50000000  1
  O  O1  1  0.00000000  0.46270959  -0.00000000  1
  O  O2  1  0.50000000  0.46932142  0.82566331  1
  O  O3  1  0.00000000  0.53067858  0.67433669  1
  O  O4  1  0.50000000  0.46932142  0.17433669  1
  O  O5  1  -0.00000000  0.53067858  0.32566331  1
  O  O6  1  -0.00000000  0.95155586  0.12324490  1
  O  O7  1  0.50000000  0.04844414  0.37675510  1
  O  O8  1  0.50000000  0.04844414  0.62324490  1
  O  O9  1  0.00000000  0.95155586  0.87675510  1
loop_
_geom_bond_atom_site_label_1
_geom_bond_atom_site_label_2
_geom_bond_distance
_geom_bond_site_symmetry_2
Ca0 O1 2.408791 1_555
Ca0 O1 2.408791 1_655
Ca0 O6 2.480060 1_545
Ca0 O6 2.480060 1_645
Ca0 O9 2.480060 1_644
Ca0 O9 2.480060 1_544
Ca0 O2 2.594709 1_554
Ca0 O4 2.594709 1_555
Ca1 O0 2.408791 1_555
Ca1 O0 2.408791 1_455
Ca1 O7 2.480060 1_565
Ca1 O8 2.480060 1_565
Ca1 O7 2.480060 1_465
Ca1 O8 2.480060 1_465
Ca1 O3 2.594709 1_555
Ca1 O5 2.594709 1_555
O0 Ti2 1.903477 1_555
O0 Ti1 1.903477 1_555
O1 Ti3 1.903477 1_555
O1 Ti0 1.903477 1_554
O2 Ti0 1.947422 1_655
O2 Ti0 1.947422 1_555
O2 Ti1 2.048389 1_555
O3 Ti1 1.947422 1_455
O3 Ti1 1.947422 1_555
O3 Ti0 2.048389 1_555
O4 Ti3 1.947422 1_555
O4 Ti3 1.947422 1_655
O4 Ti2 2.048389 1_555
O5 Ti2 1.947422 1_455
O5 Ti2 1.947422 1_555
O5 Ti3 2.048389 1_555
O6 Ti3 1.720035 1_555
O7 Ti2 1.720035 1_555
O8 Ti1 1.720035 1_555
O9 Ti0 1.720035 1_555
