# generated using pymatgen
data_CuTePb3CO10
_symmetry_space_group_name_H-M   'P 1'
_cell_length_a   9.52373500
_cell_length_b   9.57381900
_cell_length_c   10.49261900
_cell_angle_alpha   90.00000000
_cell_angle_beta   90.00000000
_cell_angle_gamma   90.00000000
_symmetry_Int_Tables_number   1
_chemical_formula_structural   CuTePb3CO10
_chemical_formula_sum   'Cu4 Te4 Pb12 C4 O40'
_cell_volume   956.70141987
_cell_formula_units_Z   4
loop_
 _symmetry_equiv_pos_site_id
 _symmetry_equiv_pos_as_xyz
  1  'x, y, z'
loop_
 _atom_site_type_symbol
 _atom_site_label
 _atom_site_symmetry_multiplicity
 _atom_site_fract_x
 _atom_site_fract_y
 _atom_site_fract_z
 _atom_site_occupancy
  Cu  Cu0  1  0.55954300  0.39788500  0.11811300  1
  Cu  Cu1  1  0.44045700  0.89788500  0.88188700  1
  Cu  Cu2  1  0.55954300  0.89788500  0.38188700  1
  Cu  Cu3  1  0.44045700  0.39788500  0.61811300  1
  Te  Te0  1  0.46341100  0.25198700  0.88643700  1
  Te  Te1  1  0.53658900  0.75198700  0.11356300  1
  Te  Te2  1  0.46341100  0.75198700  0.61356300  1
  Te  Te3  1  0.53658900  0.25198700  0.38643700  1
  Pb  Pb0  1  0.24351000  0.55559400  0.91722100  1
  Pb  Pb1  1  0.75649000  0.05559400  0.08277900  1
  Pb  Pb2  1  0.24351000  0.05559400  0.58277900  1
  Pb  Pb3  1  0.75649000  0.55559400  0.41722100  1
  Pb  Pb4  1  0.28576100  0.58719100  0.30240700  1
  Pb  Pb5  1  0.71423900  0.08719100  0.69759300  1
  Pb  Pb6  1  0.28576100  0.08719100  0.19759300  1
  Pb  Pb7  1  0.71423900  0.58719100  0.80240700  1
  Pb  Pb8  1  0.96810900  0.44432300  0.13031000  1
  Pb  Pb9  1  0.03189100  0.94432300  0.86969000  1
  Pb  Pb10  1  0.96810900  0.94432300  0.36969000  1
  Pb  Pb11  1  0.03189100  0.44432300  0.63031000  1
  C  C0  1  0.97382300  0.28537800  0.87308100  1
  C  C1  1  0.02617700  0.78537800  0.12691900  1
  C  C2  1  0.97382300  0.78537800  0.62691900  1
  C  C3  1  0.02617700  0.28537800  0.37308100  1
  O  O0  1  0.97770100  0.42316600  0.87099000  1
  O  O1  1  0.02229900  0.92316600  0.12901000  1
  O  O2  1  0.97770100  0.92316600  0.62901000  1
  O  O3  1  0.02229900  0.42316600  0.37099000  1
  O  O4  1  0.97645100  0.21860600  0.76519700  1
  O  O5  1  0.02354900  0.71860600  0.23480300  1
  O  O6  1  0.97645100  0.71860600  0.73480300  1
  O  O7  1  0.02354900  0.21860600  0.26519700  1
  O  O8  1  0.97064900  0.22239500  0.98183300  1
  O  O9  1  0.02935100  0.72239500  0.01816700  1
  O  O10  1  0.97064900  0.72239500  0.51816700  1
  O  O11  1  0.02935100  0.22239500  0.48183300  1
  O  O12  1  0.33492800  0.33728900  0.76020000  1
  O  O13  1  0.66507200  0.83728900  0.23980000  1
  O  O14  1  0.33492800  0.83728900  0.73980000  1
  O  O15  1  0.66507200  0.33728900  0.26020000  1
  O  O16  1  0.62330600  0.29781100  0.77953200  1
  O  O17  1  0.37669400  0.79781100  0.22046800  1
  O  O18  1  0.62330600  0.79781100  0.72046800  1
  O  O19  1  0.37669400  0.29781100  0.27953200  1
  O  O20  1  0.51276600  0.56644400  0.19558200  1
  O  O21  1  0.48723400  0.06644400  0.80441800  1
  O  O22  1  0.51276600  0.06644400  0.30441800  1
  O  O23  1  0.48723400  0.56644400  0.69558200  1
  O  O24  1  0.59192900  0.22987400  0.03608300  1
  O  O25  1  0.40807100  0.72987400  0.96391700  1
  O  O26  1  0.59192900  0.72987400  0.46391700  1
  O  O27  1  0.40807100  0.22987400  0.53608300  1
  O  O28  1  0.46997500  0.44157000  0.96574800  1
  O  O29  1  0.53002500  0.94157000  0.03425200  1
  O  O30  1  0.46997500  0.94157000  0.53425200  1
  O  O31  1  0.53002500  0.44157000  0.46574800  1
  O  O32  1  0.30253900  0.18467400  0.97789600  1
  O  O33  1  0.69746100  0.68467400  0.02210400  1
  O  O34  1  0.30253900  0.68467400  0.52210400  1
  O  O35  1  0.69746100  0.18467400  0.47789600  1
  O  O36  1  0.20074200  0.49048300  0.11983700  1
  O  O37  1  0.79925800  0.99048300  0.88016300  1
  O  O38  1  0.20074200  0.99048300  0.38016300  1
  O  O39  1  0.79925800  0.49048300  0.61983700  1
loop_
_geom_bond_atom_site_label_1
_geom_bond_atom_site_label_2
_geom_bond_distance
_geom_bond_site_symmetry_2
Cu0 O24 1.850202 1_555
Cu0 O28 1.859686 1_554
Cu0 O20 1.861019 1_555
Cu0 O15 1.889264 1_555
Cu0 O19 2.611336 1_555
Cu1 O25 1.850202 1_555
Cu1 O29 1.859686 1_556
Cu1 O21 1.861019 1_565
Cu1 O14 1.889264 1_555
Cu1 O18 2.611336 1_555
Cu2 O26 1.850202 1_555
Cu2 O30 1.859686 1_555
Cu2 O22 1.861019 1_565
Cu2 O13 1.889264 1_555
Cu2 O17 2.611336 1_555
Cu3 O27 1.850202 1_555
Cu3 O31 1.859686 1_555
Cu3 O23 1.861019 1_555
Cu3 O12 1.889264 1_555
Cu3 O16 2.611336 1_555
C0 O8 1.290969 1_555
C0 O4 1.300260 1_555
C0 O0 1.319857 1_555
C1 O9 1.290969 1_555
C1 O5 1.300260 1_555
C1 O1 1.319857 1_555
C2 O10 1.290969 1_555
C2 O6 1.300260 1_555
C2 O2 1.319857 1_555
C3 O11 1.290969 1_555
C3 O7 1.300260 1_555
C3 O3 1.319857 1_555
O0 Pb11 2.585506 1_655
O0 Pb8 2.730004 1_556
O0 Pb0 2.872489 1_655
O0 Pb7 3.046248 1_555
O1 Pb10 2.585506 1_455
O1 Pb9 2.730004 1_554
O1 Pb1 2.872489 1_465
O1 Pb6 3.046248 1_565
O2 Pb9 2.585506 1_655
O2 Pb10 2.730004 1_555
O2 Pb2 2.872489 1_665
O2 Pb5 3.046248 1_565
O3 Pb8 2.585506 1_455
O3 Pb11 2.730004 1_555
O3 Pb3 2.872489 1_455
O3 Pb4 3.046248 1_555
O4 Pb11 2.636610 1_655
O4 Pb5 2.884838 1_555
O4 Pb9 2.894205 1_645
O5 Pb10 2.636610 1_455
O5 Pb4 2.884838 1_555
O5 Pb8 2.894205 1_455
O6 Pb9 2.636610 1_655
O6 Pb7 2.884838 1_555
O6 Pb11 2.894205 1_655
O7 Pb8 2.636610 1_455
O7 Pb6 2.884838 1_555
O7 Pb10 2.894205 1_445
O8 Pb8 2.634771 1_556
O8 Pb1 2.798568 1_556
O8 Pb9 2.968520 1_645
O9 Pb9 2.634771 1_554
O9 Pb0 2.798568 1_554
O9 Pb8 2.968520 1_455
O10 Pb10 2.634771 1_555
O10 Pb3 2.798568 1_555
O10 O39 2.955002 1_555
O10 Pb11 2.968520 1_655
O11 Pb11 2.634771 1_555
O11 Pb2 2.798568 1_555
O11 O38 2.955002 1_545
O11 Pb10 2.968520 1_445
O12 Te0 1.979567 1_555
O12 Pb0 2.800112 1_555
O13 Te1 1.979567 1_555
O13 Pb1 2.800112 1_565
O14 Te2 1.979567 1_555
O14 Pb2 2.800112 1_565
O15 Te3 1.979567 1_555
O15 Pb3 2.800112 1_555
O16 Te0 1.941551 1_555
O16 Pb5 2.356946 1_555
O16 O21 2.579553 1_555
O16 Pb7 2.912579 1_555
O16 O39 3.003050 1_555
O17 Te1 1.941551 1_555
O17 Pb4 2.356946 1_555
O17 O20 2.579553 1_555
O17 Pb6 2.912579 1_565
O17 O38 3.003050 1_555
O18 Te2 1.941551 1_555
O18 Pb7 2.356946 1_555
O18 O23 2.579553 1_555
O18 Pb5 2.912579 1_565
O18 O37 3.003050 1_555
O19 Te3 1.941551 1_555
O19 Pb6 2.356946 1_555
O19 O22 2.579553 1_555
O19 Pb4 2.912579 1_555
O19 O36 3.003050 1_555
O20 Te1 1.986841 1_555
O20 Pb4 2.443313 1_555
O21 Te0 1.986841 1_555
O21 Pb5 2.443313 1_555
O22 Te3 1.986841 1_555
O22 Pb6 2.443313 1_555
O23 Te2 1.986841 1_555
O23 Pb7 2.443313 1_555
O24 Te0 2.002095 1_554
O24 Pb1 2.340997 1_555
O25 Te1 2.002095 1_556
O25 Pb0 2.340997 1_555
O26 Te2 2.002095 1_555
O26 Pb3 2.340997 1_555
O27 Te3 2.002095 1_555
O27 Pb2 2.340997 1_555
O28 Te0 1.997693 1_555
O28 Pb0 2.470365 1_555
O28 O36 3.067238 1_556
O29 Te1 1.997693 1_555
O29 Pb1 2.470365 1_565
O29 O37 3.067238 1_554
O30 Te2 1.997693 1_555
O30 Pb2 2.470365 1_565
O30 O38 3.067238 1_555
O31 Te3 1.997693 1_555
O31 Pb3 2.470365 1_555
O31 O39 3.067238 1_555
O32 Te0 1.919261 1_555
O32 Pb6 2.492085 1_556
O33 Te1 1.919261 1_555
O33 Pb7 2.492085 1_554
O34 Te2 1.919261 1_555
O34 Pb4 2.492085 1_555
O35 Te3 1.919261 1_555
O35 Pb5 2.492085 1_555
O36 Pb0 2.252607 1_554
O36 Pb8 2.261851 1_455
O36 Pb4 2.276511 1_555
O36 O9 2.955002 1_555
O36 O5 3.012113 1_555
O37 Pb1 2.252607 1_566
O37 Pb9 2.261851 1_655
O37 Pb5 2.276511 1_565
O37 O8 2.955002 1_565
O37 O4 3.012113 1_565
O38 Pb2 2.252607 1_565
O38 Pb10 2.261851 1_455
O38 Pb6 2.276511 1_565
O38 O7 3.012113 1_565
O39 Pb3 2.252607 1_555
O39 Pb11 2.261851 1_655
O39 Pb7 2.276511 1_555
O39 O6 3.012113 1_555
