# generated using pymatgen
data_Gd2AlGe6
_symmetry_space_group_name_H-M   'P 1'
_cell_length_a   6.02315991
_cell_length_b   6.02315991
_cell_length_c   10.57716845
_cell_angle_alpha   81.93524221
_cell_angle_beta   81.93524221
_cell_angle_gamma   91.76155434
_symmetry_Int_Tables_number   1
_chemical_formula_structural   Gd2AlGe6
_chemical_formula_sum   'Gd4 Al2 Ge12'
_cell_volume   375.67301585
_cell_formula_units_Z   2
loop_
 _symmetry_equiv_pos_site_id
 _symmetry_equiv_pos_as_xyz
  1  'x, y, z'
loop_
 _atom_site_type_symbol
 _atom_site_label
 _atom_site_symmetry_multiplicity
 _atom_site_fract_x
 _atom_site_fract_y
 _atom_site_fract_z
 _atom_site_occupancy
  Gd  Gd0  1  0.83802200  0.33419700  0.66150500  1
  Gd  Gd1  1  0.33419700  0.83802200  0.66150500  1
  Gd  Gd2  1  0.16197800  0.66580300  0.33849500  1
  Gd  Gd3  1  0.66580300  0.16197800  0.33849500  1
  Al  Al0  1  0.80000800  0.80000800  0.80256600  1
  Al  Al1  1  0.19999200  0.19999200  0.19743400  1
  Ge  Ge0  1  0.14712800  0.14712800  0.43929900  1
  Ge  Ge1  1  0.85287200  0.85287200  0.56070100  1
  Ge  Ge2  1  0.36135000  0.36135000  0.58506600  1
  Ge  Ge3  1  0.63865000  0.63865000  0.41493400  1
  Ge  Ge4  1  0.06554700  0.49447800  0.88257400  1
  Ge  Ge5  1  0.49447800  0.06554700  0.88257400  1
  Ge  Ge6  1  0.93445300  0.50552200  0.11742600  1
  Ge  Ge7  1  0.50552200  0.93445300  0.11742600  1
  Ge  Ge8  1  0.06923200  0.06923200  0.88255700  1
  Ge  Ge9  1  0.93076800  0.93076800  0.11744300  1
  Ge  Ge10  1  0.49062800  0.49062800  0.88231500  1
  Ge  Ge11  1  0.50937200  0.50937200  0.11768500  1
loop_
_geom_bond_atom_site_label_1
_geom_bond_atom_site_label_2
_geom_bond_distance
_geom_bond_site_symmetry_2
Gd0 Ge2 3.092987 1_555
Gd0 Ge4 3.119098 1_655
Gd0 Ge5 3.121298 1_555
Gd0 Ge2 3.135639 1_655
Gd0 Ge0 3.147067 1_655
Gd0 Ge1 3.150563 1_555
Gd0 Ge8 3.155368 1_655
Gd0 Ge10 3.176187 1_555
Gd0 Ge1 3.225846 1_545
Gd0 Ge3 3.358387 1_555
Gd1 Ge2 3.092987 1_555
Gd1 Ge5 3.119098 1_565
Gd1 Ge4 3.121298 1_555
Gd1 Ge2 3.135639 1_565
Gd1 Ge0 3.147067 1_565
Gd1 Ge1 3.150563 1_555
Gd1 Ge8 3.155368 1_565
Gd1 Ge10 3.176187 1_555
Gd1 Ge1 3.225846 1_455
Gd1 Ge3 3.358387 1_555
Gd2 Ge3 3.092987 1_555
Gd2 Ge6 3.119098 1_455
Gd2 Ge7 3.121298 1_555
Gd2 Ge3 3.135639 1_455
Gd2 Ge1 3.147067 1_455
Gd2 Ge0 3.150563 1_555
Gd2 Ge9 3.155368 1_455
Gd2 Ge11 3.176187 1_555
Gd2 Ge0 3.225846 1_565
Gd2 Ge2 3.358387 1_555
Gd3 Ge3 3.092987 1_555
Gd3 Ge7 3.119098 1_545
Gd3 Ge6 3.121298 1_555
Gd3 Ge3 3.135639 1_545
Gd3 Ge1 3.147067 1_545
Gd3 Ge0 3.150563 1_555
Gd3 Ge9 3.155368 1_545
Gd3 Ge11 3.176187 1_555
Gd3 Ge0 3.225846 1_655
Gd3 Ge2 3.358387 1_555
Al0 Ge1 2.506801 1_555
Al0 Ge10 2.561410 1_555
Al0 Ge8 2.565763 1_665
Al0 Ge4 2.604704 1_655
Al0 Ge5 2.604704 1_565
Al0 Gd1 3.338082 1_655
Al0 Gd0 3.338082 1_565
Al0 Gd1 3.356853 1_555
Al0 Gd0 3.356853 1_555
Al1 Ge0 2.506801 1_555
Al1 Ge11 2.561410 1_555
Al1 Ge9 2.565763 1_445
Al1 Ge7 2.604704 1_545
Al1 Ge6 2.604704 1_455
Al1 Gd2 3.338082 1_545
Al1 Gd3 3.338082 1_455
Al1 Gd3 3.356853 1_555
Al1 Gd2 3.356853 1_555
Ge0 Ge1 2.541865 1_445
Ge0 Ge2 2.592468 1_555
Ge1 Ge3 2.592468 1_555
Ge2 Ge3 2.638065 1_555
Ge2 Ge8 3.577079 1_555
Ge3 Ge9 3.577079 1_555
Ge4 Ge6 2.509530 1_456
Ge4 Ge8 2.562128 1_555
Ge5 Ge7 2.509530 1_546
Ge5 Ge8 2.562128 1_555
Ge6 Ge9 2.562128 1_555
Ge7 Ge9 2.562128 1_555
Ge8 Ge9 2.521501 1_446
Ge10 Ge11 2.525922 1_556
Ge10 Ge4 2.560769 1_555
Ge10 Ge5 2.560769 1_555
Ge10 Ge2 3.526223 1_555
Ge11 Ge7 2.560769 1_555
Ge11 Ge6 2.560769 1_555
Ge11 Ge3 3.526223 1_555
