# generated using pymatgen
data_Nd2Pd2Pb
_symmetry_space_group_name_H-M   'P 1'
_cell_length_a   7.59200288
_cell_length_b   15.98551130
_cell_length_c   15.98551130
_cell_angle_alpha   90.00000000
_cell_angle_beta   90.00000000
_cell_angle_gamma   90.00000000
_symmetry_Int_Tables_number   1
_chemical_formula_structural   Nd2Pd2Pb
_chemical_formula_sum   'Nd32 Pd32 Pb16'
_cell_volume   1940.03438694
_cell_formula_units_Z   16
loop_
 _symmetry_equiv_pos_site_id
 _symmetry_equiv_pos_as_xyz
  1  'x, y, z'
loop_
 _atom_site_type_symbol
 _atom_site_label
 _atom_site_symmetry_multiplicity
 _atom_site_fract_x
 _atom_site_fract_y
 _atom_site_fract_z
 _atom_site_occupancy
  Nd  Nd0_0  1  0.25000000  0.08788511  0.33788511  1
  Nd  Nd0_1  1  0.25000000  0.08788511  0.83788511  1
  Nd  Nd0_2  1  0.25000000  0.58788510  0.33788511  1
  Nd  Nd0_3  1  0.25000000  0.58788510  0.83788511  1
  Nd  Nd0_4  1  0.75000000  0.08788511  0.33788511  1
  Nd  Nd0_5  1  0.75000000  0.08788511  0.83788511  1
  Nd  Nd0_6  1  0.75000000  0.58788510  0.33788511  1
  Nd  Nd0_7  1  0.75000000  0.58788510  0.83788511  1
  Nd  Nd1_0  1  0.25000000  0.41211489  0.16211490  1
  Nd  Nd1_1  1  0.25000000  0.41211489  0.66211489  1
  Nd  Nd1_2  1  0.25000000  0.91211489  0.16211490  1
  Nd  Nd1_3  1  0.25000000  0.91211489  0.66211489  1
  Nd  Nd1_4  1  0.75000000  0.41211489  0.16211490  1
  Nd  Nd1_5  1  0.75000000  0.41211489  0.66211489  1
  Nd  Nd1_6  1  0.75000000  0.91211489  0.16211490  1
  Nd  Nd1_7  1  0.75000000  0.91211489  0.66211489  1
  Nd  Nd2_0  1  0.25000000  0.16211490  0.08788511  1
  Nd  Nd2_1  1  0.25000000  0.16211490  0.58788510  1
  Nd  Nd2_2  1  0.25000000  0.66211489  0.08788511  1
  Nd  Nd2_3  1  0.25000000  0.66211489  0.58788510  1
  Nd  Nd2_4  1  0.75000000  0.16211490  0.08788511  1
  Nd  Nd2_5  1  0.75000000  0.16211490  0.58788510  1
  Nd  Nd2_6  1  0.75000000  0.66211489  0.08788511  1
  Nd  Nd2_7  1  0.75000000  0.66211489  0.58788510  1
  Nd  Nd3_0  1  0.25000000  0.33788511  0.41211489  1
  Nd  Nd3_1  1  0.25000000  0.33788511  0.91211489  1
  Nd  Nd3_2  1  0.25000000  0.83788511  0.41211489  1
  Nd  Nd3_3  1  0.25000000  0.83788511  0.91211489  1
  Nd  Nd3_4  1  0.75000000  0.33788511  0.41211489  1
  Nd  Nd3_5  1  0.75000000  0.33788511  0.91211489  1
  Nd  Nd3_6  1  0.75000000  0.83788511  0.41211489  1
  Nd  Nd3_7  1  0.75000000  0.83788511  0.91211489  1
  Pd  Pd0_0  1  0.00000000  0.31145003  0.06145003  1
  Pd  Pd0_1  1  0.00000000  0.31145003  0.56145003  1
  Pd  Pd0_2  1  0.00000000  0.81145003  0.06145003  1
  Pd  Pd0_3  1  0.00000000  0.81145003  0.56145003  1
  Pd  Pd0_4  1  0.50000000  0.31145003  0.06145003  1
  Pd  Pd0_5  1  0.50000000  0.31145003  0.56145003  1
  Pd  Pd0_6  1  0.50000000  0.81145003  0.06145003  1
  Pd  Pd0_7  1  0.50000000  0.81145003  0.56145003  1
  Pd  Pd1_0  1  0.00000000  0.18854997  0.43854997  1
  Pd  Pd1_1  1  0.00000000  0.18854997  0.93854997  1
  Pd  Pd1_2  1  0.00000000  0.68854997  0.43854997  1
  Pd  Pd1_3  1  0.00000000  0.68854997  0.93854997  1
  Pd  Pd1_4  1  0.50000000  0.18854997  0.43854997  1
  Pd  Pd1_5  1  0.50000000  0.18854997  0.93854997  1
  Pd  Pd1_6  1  0.50000000  0.68854997  0.43854997  1
  Pd  Pd1_7  1  0.50000000  0.68854997  0.93854997  1
  Pd  Pd2_0  1  0.00000000  0.43854997  0.31145003  1
  Pd  Pd2_1  1  0.00000000  0.43854997  0.81145003  1
  Pd  Pd2_2  1  0.00000000  0.93854997  0.31145003  1
  Pd  Pd2_3  1  0.00000000  0.93854997  0.81145003  1
  Pd  Pd2_4  1  0.50000000  0.43854997  0.31145003  1
  Pd  Pd2_5  1  0.50000000  0.43854997  0.81145003  1
  Pd  Pd2_6  1  0.50000000  0.93854997  0.31145003  1
  Pd  Pd2_7  1  0.50000000  0.93854997  0.81145003  1
  Pd  Pd3_0  1  0.00000000  0.06145003  0.18854997  1
  Pd  Pd3_1  1  0.00000000  0.06145003  0.68854997  1
  Pd  Pd3_2  1  0.00000000  0.56145003  0.18854997  1
  Pd  Pd3_3  1  0.00000000  0.56145003  0.68854997  1
  Pd  Pd3_4  1  0.50000000  0.06145003  0.18854997  1
  Pd  Pd3_5  1  0.50000000  0.06145003  0.68854997  1
  Pd  Pd3_6  1  0.50000000  0.56145003  0.18854997  1
  Pd  Pd3_7  1  0.50000000  0.56145003  0.68854997  1
  Pb  Pb0_0  1  0.00000000  0.00000000  0.00000000  1
  Pb  Pb0_1  1  0.00000000  0.00000000  0.50000000  1
  Pb  Pb0_2  1  0.00000000  0.50000000  0.00000000  1
  Pb  Pb0_3  1  0.00000000  0.50000000  0.50000000  1
  Pb  Pb0_4  1  0.50000000  0.00000000  0.00000000  1
  Pb  Pb0_5  1  0.50000000  0.00000000  0.50000000  1
  Pb  Pb0_6  1  0.50000000  0.50000000  0.00000000  1
  Pb  Pb0_7  1  0.50000000  0.50000000  0.50000000  1
  Pb  Pb1_0  1  0.00000000  0.25000000  0.25000000  1
  Pb  Pb1_1  1  0.00000000  0.25000000  0.75000000  1
  Pb  Pb1_2  1  0.00000000  0.75000000  0.25000000  1
  Pb  Pb1_3  1  0.00000000  0.75000000  0.75000000  1
  Pb  Pb1_4  1  0.50000000  0.25000000  0.25000000  1
  Pb  Pb1_5  1  0.50000000  0.25000000  0.75000000  1
  Pb  Pb1_6  1  0.50000000  0.75000000  0.25000000  1
  Pb  Pb1_7  1  0.50000000  0.75000000  0.75000000  1
loop_
_geom_bond_atom_site_label_1
_geom_bond_atom_site_label_2
_geom_bond_distance
_geom_bond_site_symmetry_2
Nd0_0 Pd1_0 2.963330 1_555
Nd0_0 Pd1_4 2.963330 1_555
Nd0_0 Pd3_0 3.078911 1_555
Nd0_0 Pd3_4 3.078911 1_555
Nd0_0 Pd2_2 3.078911 1_545
Nd0_0 Pd2_6 3.078911 1_545
Nd0_0 Pb0_5 3.505986 1_555
Nd0_0 Pb0_1 3.505986 1_555
Nd0_0 Pb1_0 3.505986 1_555
Nd0_0 Pb1_4 3.505986 1_555
Nd0_1 Pd1_5 2.963330 1_555
Nd0_1 Pd1_1 2.963330 1_555
Nd0_1 Pd3_1 3.078911 1_555
Nd0_1 Pd3_5 3.078911 1_555
Nd0_1 Pd2_7 3.078911 1_545
Nd0_1 Pd2_3 3.078911 1_545
Nd0_1 Pb1_1 3.505986 1_555
Nd0_1 Pb0_0 3.505986 1_556
Nd0_1 Pb1_5 3.505986 1_555
Nd0_1 Pb0_4 3.505986 1_556
Nd0_2 Pd1_2 2.963330 1_555
Nd0_2 Pd1_6 2.963330 1_555
Nd0_2 Pd2_0 3.078911 1_555
Nd0_2 Pd2_4 3.078911 1_555
Nd0_2 Pd3_2 3.078911 1_555
Nd0_2 Pd3_6 3.078911 1_555
Nd0_2 Pb0_3 3.505986 1_555
Nd0_2 Pb0_7 3.505986 1_555
Nd0_2 Pb1_6 3.505986 1_555
Nd0_2 Pb1_2 3.505986 1_555
Nd0_3 Pd1_3 2.963330 1_555
Nd0_3 Pd1_7 2.963330 1_555
Nd0_3 Pd3_3 3.078911 1_555
Nd0_3 Pd3_7 3.078911 1_555
Nd0_3 Pd2_1 3.078911 1_555
Nd0_3 Pd2_5 3.078911 1_555
Nd0_3 Pb0_6 3.505986 1_556
Nd0_3 Pb0_2 3.505986 1_556
Nd0_3 Pb1_7 3.505986 1_555
Nd0_3 Pb1_3 3.505986 1_555
Nd0_4 Pd1_0 2.963330 1_655
Nd0_4 Pd1_4 2.963330 1_555
Nd0_4 Pd3_0 3.078911 1_655
Nd0_4 Pd2_2 3.078911 1_645
Nd0_4 Pd3_4 3.078911 1_555
Nd0_4 Pd2_6 3.078911 1_545
Nd0_4 Pb0_1 3.505986 1_655
Nd0_4 Pb1_0 3.505986 1_655
Nd0_4 Pb0_5 3.505986 1_555
Nd0_4 Pb1_4 3.505986 1_555
Nd0_5 Pd1_1 2.963330 1_655
Nd0_5 Pd1_5 2.963330 1_555
Nd0_5 Pd3_1 3.078911 1_655
Nd0_5 Pd3_5 3.078911 1_555
Nd0_5 Pd2_3 3.078911 1_645
Nd0_5 Pd2_7 3.078911 1_545
Nd0_5 Pb0_0 3.505986 1_656
Nd0_5 Pb1_1 3.505986 1_655
Nd0_5 Pb1_5 3.505986 1_555
Nd0_5 Pb0_4 3.505986 1_556
Nd0_6 Pd1_2 2.963330 1_655
Nd0_6 Pd1_6 2.963330 1_555
Nd0_6 Pd2_0 3.078911 1_655
Nd0_6 Pd3_2 3.078911 1_655
Nd0_6 Pd2_4 3.078911 1_555
Nd0_6 Pd3_6 3.078911 1_555
Nd0_6 Pb0_3 3.505986 1_655
Nd0_6 Pb0_7 3.505986 1_555
Nd0_6 Pb1_2 3.505986 1_655
Nd0_6 Pb1_6 3.505986 1_555
Nd0_7 Pd1_3 2.963330 1_655
Nd0_7 Pd1_7 2.963330 1_555
Nd0_7 Pd2_1 3.078911 1_655
Nd0_7 Pd3_3 3.078911 1_655
Nd0_7 Pd3_7 3.078911 1_555
Nd0_7 Pd2_5 3.078911 1_555
Nd0_7 Pb0_2 3.505986 1_656
Nd0_7 Pb0_6 3.505986 1_556
Nd0_7 Pb1_3 3.505986 1_655
Nd0_7 Pb1_7 3.505986 1_555
Nd1_0 Pd0_0 2.963330 1_555
Nd1_0 Pd0_4 2.963330 1_555
Nd1_0 Pd2_0 3.078911 1_555
Nd1_0 Pd2_4 3.078911 1_555
Nd1_0 Pd3_6 3.078911 1_555
Nd1_0 Pd3_2 3.078911 1_555
Nd1_0 Pb0_6 3.505986 1_555
Nd1_0 Pb0_2 3.505986 1_555
Nd1_0 Pb1_0 3.505986 1_555
Nd1_0 Pb1_4 3.505986 1_555
Nd1_1 Pd0_1 2.963330 1_555
Nd1_1 Pd0_5 2.963330 1_555
Nd1_1 Pd3_7 3.078911 1_555
Nd1_1 Pd3_3 3.078911 1_555
Nd1_1 Pd2_1 3.078911 1_555
Nd1_1 Pd2_5 3.078911 1_555
Nd1_1 Pb0_3 3.505986 1_555
Nd1_1 Pb0_7 3.505986 1_555
Nd1_1 Pb1_5 3.505986 1_555
Nd1_1 Pb1_1 3.505986 1_555
Nd1_2 Pd0_2 2.963330 1_555
Nd1_2 Pd0_6 2.963330 1_555
Nd1_2 Pd2_2 3.078911 1_555
Nd1_2 Pd2_6 3.078911 1_555
Nd1_2 Pd3_0 3.078911 1_565
Nd1_2 Pd3_4 3.078911 1_565
Nd1_2 Pb1_2 3.505986 1_555
Nd1_2 Pb1_6 3.505986 1_555
Nd1_2 Pb0_0 3.505986 1_565
Nd1_2 Pb0_4 3.505986 1_565
Nd1_3 Pd0_7 2.963330 1_555
Nd1_3 Pd0_3 2.963330 1_555
Nd1_3 Pd2_7 3.078911 1_555
Nd1_3 Pd2_3 3.078911 1_555
Nd1_3 Pd3_1 3.078911 1_565
Nd1_3 Pd3_5 3.078911 1_565
Nd1_3 Pb1_7 3.505986 1_555
Nd1_3 Pb1_3 3.505986 1_555
Nd1_3 Pb0_1 3.505986 1_565
Nd1_3 Pb0_5 3.505986 1_565
Nd1_4 Pd0_0 2.963330 1_655
Nd1_4 Pd0_4 2.963330 1_555
Nd1_4 Pd2_0 3.078911 1_655
Nd1_4 Pd3_2 3.078911 1_655
Nd1_4 Pd2_4 3.078911 1_555
Nd1_4 Pd3_6 3.078911 1_555
Nd1_4 Pb1_0 3.505986 1_655
Nd1_4 Pb0_2 3.505986 1_655
Nd1_4 Pb0_6 3.505986 1_555
Nd1_4 Pb1_4 3.505986 1_555
Nd1_5 Pd0_1 2.963330 1_655
Nd1_5 Pd0_5 2.963330 1_555
Nd1_5 Pd3_3 3.078911 1_655
Nd1_5 Pd2_1 3.078911 1_655
Nd1_5 Pd3_7 3.078911 1_555
Nd1_5 Pd2_5 3.078911 1_555
Nd1_5 Pb0_3 3.505986 1_655
Nd1_5 Pb0_7 3.505986 1_555
Nd1_5 Pb1_1 3.505986 1_655
Nd1_5 Pb1_5 3.505986 1_555
Nd1_6 Pd0_2 2.963330 1_655
Nd1_6 Pd0_6 2.963330 1_555
Nd1_6 Pd2_2 3.078911 1_655
Nd1_6 Pd2_6 3.078911 1_555
Nd1_6 Pd3_0 3.078911 1_665
Nd1_6 Pd3_4 3.078911 1_565
Nd1_6 Pb1_2 3.505986 1_655
Nd1_6 Pb1_6 3.505986 1_555
Nd1_6 Pb0_0 3.505986 1_665
Nd1_6 Pb0_4 3.505986 1_565
Nd1_7 Pd0_3 2.963330 1_655
Nd1_7 Pd0_7 2.963330 1_555
Nd1_7 Pd2_3 3.078911 1_655
Nd1_7 Pd2_7 3.078911 1_555
Nd1_7 Pd3_1 3.078911 1_665
Nd1_7 Pd3_5 3.078911 1_565
Nd1_7 Pb1_3 3.505986 1_655
Nd1_7 Pb1_7 3.505986 1_555
Nd1_7 Pb0_1 3.505986 1_665
Nd1_7 Pb0_5 3.505986 1_565
Nd2_0 Pd3_0 2.963330 1_555
Nd2_0 Pd3_4 2.963330 1_555
Nd2_0 Pd0_0 3.078911 1_555
Nd2_0 Pd0_4 3.078911 1_555
Nd2_0 Pd1_1 3.078911 1_554
Nd2_0 Pd1_5 3.078911 1_554
Nd2_0 Pb1_0 3.505986 1_555
Nd2_0 Pb1_4 3.505986 1_555
Nd2_0 Pb0_4 3.505986 1_555
Nd2_0 Pb0_0 3.505986 1_555
Nd2_1 Pd3_1 2.963330 1_555
Nd2_1 Pd3_5 2.963330 1_555
Nd2_1 Pd0_1 3.078911 1_555
Nd2_1 Pd0_5 3.078911 1_555
Nd2_1 Pd1_0 3.078911 1_555
Nd2_1 Pd1_4 3.078911 1_555
Nd2_1 Pb0_5 3.505986 1_555
Nd2_1 Pb0_1 3.505986 1_555
Nd2_1 Pb1_1 3.505986 1_555
Nd2_1 Pb1_5 3.505986 1_555
Nd2_2 Pd3_6 2.963330 1_555
Nd2_2 Pd3_2 2.963330 1_555
Nd2_2 Pd0_2 3.078911 1_555
Nd2_2 Pd0_6 3.078911 1_555
Nd2_2 Pd1_7 3.078911 1_554
Nd2_2 Pd1_3 3.078911 1_554
Nd2_2 Pb0_6 3.505986 1_555
Nd2_2 Pb0_2 3.505986 1_555
Nd2_2 Pb1_2 3.505986 1_555
Nd2_2 Pb1_6 3.505986 1_555
Nd2_3 Pd3_3 2.963330 1_555
Nd2_3 Pd3_7 2.963330 1_555
Nd2_3 Pd1_2 3.078911 1_555
Nd2_3 Pd1_6 3.078911 1_555
Nd2_3 Pd0_3 3.078911 1_555
Nd2_3 Pd0_7 3.078911 1_555
Nd2_3 Pb0_3 3.505986 1_555
Nd2_3 Pb0_7 3.505986 1_555
Nd2_3 Pb1_7 3.505986 1_555
Nd2_3 Pb1_3 3.505986 1_555
Nd2_4 Pd3_0 2.963330 1_655
Nd2_4 Pd3_4 2.963330 1_555
Nd2_4 Pd0_0 3.078911 1_655
Nd2_4 Pd0_4 3.078911 1_555
Nd2_4 Pd1_1 3.078911 1_654
Nd2_4 Pd1_5 3.078911 1_554
Nd2_4 Pb1_0 3.505986 1_655
Nd2_4 Pb1_4 3.505986 1_555
Nd2_4 Pb0_0 3.505986 1_655
Nd2_4 Pb0_4 3.505986 1_555
Nd2_5 Pd3_1 2.963330 1_655
Nd2_5 Pd3_5 2.963330 1_555
Nd2_5 Pd0_1 3.078911 1_655
Nd2_5 Pd1_0 3.078911 1_655
Nd2_5 Pd0_5 3.078911 1_555
Nd2_5 Pd1_4 3.078911 1_555
Nd2_5 Pb0_1 3.505986 1_655
Nd2_5 Pb1_1 3.505986 1_655
Nd2_5 Pb0_5 3.505986 1_555
Nd2_5 Pb1_5 3.505986 1_555
Nd2_6 Pd3_2 2.963330 1_655
Nd2_6 Pd3_6 2.963330 1_555
Nd2_6 Pd0_2 3.078911 1_655
Nd2_6 Pd1_3 3.078911 1_654
Nd2_6 Pd0_6 3.078911 1_555
Nd2_6 Pd1_7 3.078911 1_554
Nd2_6 Pb0_2 3.505986 1_655
Nd2_6 Pb0_6 3.505986 1_555
Nd2_6 Pb1_2 3.505986 1_655
Nd2_6 Pb1_6 3.505986 1_555
Nd2_7 Pd3_3 2.963330 1_655
Nd2_7 Pd3_7 2.963330 1_555
Nd2_7 Pd1_2 3.078911 1_655
Nd2_7 Pd0_3 3.078911 1_655
Nd2_7 Pd1_6 3.078911 1_555
Nd2_7 Pd0_7 3.078911 1_555
Nd2_7 Pb0_3 3.505986 1_655
Nd2_7 Pb0_7 3.505986 1_555
Nd2_7 Pb1_3 3.505986 1_655
Nd2_7 Pb1_7 3.505986 1_555
Nd3_0 Pd2_4 2.963330 1_555
Nd3_0 Pd2_0 2.963330 1_555
Nd3_0 Pd1_4 3.078911 1_555
Nd3_0 Pd1_0 3.078911 1_555
Nd3_0 Pd0_1 3.078911 1_555
Nd3_0 Pd0_5 3.078911 1_555
Nd3_0 Pb0_3 3.505986 1_555
Nd3_0 Pb0_7 3.505986 1_555
Nd3_0 Pb1_0 3.505986 1_555
Nd3_0 Pb1_4 3.505986 1_555
Nd3_1 Pd2_1 2.963330 1_555
Nd3_1 Pd2_5 2.963330 1_555
Nd3_1 Pd1_1 3.078911 1_555
Nd3_1 Pd1_5 3.078911 1_555
Nd3_1 Pd0_0 3.078911 1_556
Nd3_1 Pd0_4 3.078911 1_556
Nd3_1 Pb1_1 3.505986 1_555
Nd3_1 Pb1_5 3.505986 1_555
Nd3_1 Pb0_6 3.505986 1_556
Nd3_1 Pb0_2 3.505986 1_556
Nd3_2 Pd2_6 2.963330 1_555
Nd3_2 Pd2_2 2.963330 1_555
Nd3_2 Pd1_2 3.078911 1_555
Nd3_2 Pd1_6 3.078911 1_555
Nd3_2 Pd0_3 3.078911 1_555
Nd3_2 Pd0_7 3.078911 1_555
Nd3_2 Pb0_1 3.505986 1_565
Nd3_2 Pb0_5 3.505986 1_565
Nd3_2 Pb1_2 3.505986 1_555
Nd3_2 Pb1_6 3.505986 1_555
Nd3_3 Pd2_3 2.963330 1_555
Nd3_3 Pd2_7 2.963330 1_555
Nd3_3 Pd1_3 3.078911 1_555
Nd3_3 Pd1_7 3.078911 1_555
Nd3_3 Pd0_2 3.078911 1_556
Nd3_3 Pd0_6 3.078911 1_556
Nd3_3 Pb1_3 3.505986 1_555
Nd3_3 Pb1_7 3.505986 1_555
Nd3_3 Pb0_0 3.505986 1_566
Nd3_3 Pb0_4 3.505986 1_566
Nd3_4 Pd2_0 2.963330 1_655
Nd3_4 Pd2_4 2.963330 1_555
Nd3_4 Pd0_1 3.078911 1_655
Nd3_4 Pd1_0 3.078911 1_655
Nd3_4 Pd0_5 3.078911 1_555
Nd3_4 Pd1_4 3.078911 1_555
Nd3_4 Pb0_3 3.505986 1_655
Nd3_4 Pb0_7 3.505986 1_555
Nd3_4 Pb1_0 3.505986 1_655
Nd3_4 Pb1_4 3.505986 1_555
Nd3_5 Pd2_1 2.963330 1_655
Nd3_5 Pd2_5 2.963330 1_555
Nd3_5 Pd1_1 3.078911 1_655
Nd3_5 Pd1_5 3.078911 1_555
Nd3_5 Pd0_0 3.078911 1_656
Nd3_5 Pd0_4 3.078911 1_556
Nd3_5 Pb1_1 3.505986 1_655
Nd3_5 Pb1_5 3.505986 1_555
Nd3_5 Pb0_2 3.505986 1_656
Nd3_5 Pb0_6 3.505986 1_556
Nd3_6 Pd2_2 2.963330 1_655
Nd3_6 Pd2_6 2.963330 1_555
Nd3_6 Pd0_3 3.078911 1_655
Nd3_6 Pd1_2 3.078911 1_655
Nd3_6 Pd1_6 3.078911 1_555
Nd3_6 Pd0_7 3.078911 1_555
Nd3_6 Pb0_1 3.505986 1_665
Nd3_6 Pb0_5 3.505986 1_565
Nd3_6 Pb1_2 3.505986 1_655
Nd3_6 Pb1_6 3.505986 1_555
Nd3_7 Pd2_3 2.963330 1_655
Nd3_7 Pd2_7 2.963330 1_555
Nd3_7 Pd1_3 3.078911 1_655
Nd3_7 Pd1_7 3.078911 1_555
Nd3_7 Pd0_2 3.078911 1_656
Nd3_7 Pd0_6 3.078911 1_556
Nd3_7 Pb1_3 3.505986 1_655
Nd3_7 Pb1_7 3.505986 1_555
Nd3_7 Pb0_0 3.505986 1_666
Nd3_7 Pb0_4 3.505986 1_566
Pd0_0 Pd1_1 2.778393 1_554
Pd0_1 Pd1_0 2.778393 1_555
Pd0_2 Pd1_3 2.778393 1_554
Pd0_3 Pd1_2 2.778393 1_555
Pd0_4 Pd1_5 2.778393 1_554
Pd0_5 Pd1_4 2.778393 1_555
Pd0_6 Pd1_7 2.778393 1_554
Pd0_7 Pd1_6 2.778393 1_555
Pd2_0 Pd3_2 2.778393 1_555
Pd2_1 Pd3_3 2.778393 1_555
Pd2_2 Pd3_0 2.778393 1_565
Pd2_3 Pd3_1 2.778393 1_565
Pd2_4 Pd3_6 2.778393 1_555
Pd2_5 Pd3_7 2.778393 1_555
Pd2_6 Pd3_4 2.778393 1_565
Pd2_7 Pd3_5 2.778393 1_565
Pb0_0 Pd3_0 3.170101 1_555
Pb0_0 Pd1_1 3.170101 1_554
Pb0_0 Pd0_2 3.170101 1_545
Pb0_0 Pd2_3 3.170101 1_544
Pb0_0 Pb0_4 3.796001 1_455
Pb0_0 Pb0_4 3.796001 1_555
Pb0_1 Pd1_0 3.170101 1_555
Pb0_1 Pd2_2 3.170101 1_545
Pb0_1 Pd0_3 3.170101 1_545
Pb0_1 Pd3_1 3.170101 1_555
Pb0_1 Pb0_5 3.796001 1_555
Pb0_1 Pb0_5 3.796001 1_455
Pb0_2 Pd0_0 3.170101 1_555
Pb0_2 Pd3_2 3.170101 1_555
Pb0_2 Pd2_1 3.170101 1_554
Pb0_2 Pd1_3 3.170101 1_554
Pb0_2 Pb0_6 3.796001 1_555
Pb0_2 Pb0_6 3.796001 1_455
Pb0_3 Pd2_0 3.170101 1_555
Pb0_3 Pd0_1 3.170101 1_555
Pb0_3 Pd1_2 3.170101 1_555
Pb0_3 Pd3_3 3.170101 1_555
Pb0_3 Pb0_7 3.796001 1_455
Pb0_3 Pb0_7 3.796001 1_555
Pb0_4 Pd3_4 3.170101 1_555
Pb0_4 Pd1_5 3.170101 1_554
Pb0_4 Pd0_6 3.170101 1_545
Pb0_4 Pd2_7 3.170101 1_544
Pb0_5 Pd1_4 3.170101 1_555
Pb0_5 Pd2_6 3.170101 1_545
Pb0_5 Pd0_7 3.170101 1_545
Pb0_5 Pd3_5 3.170101 1_555
Pb0_6 Pd0_4 3.170101 1_555
Pb0_6 Pd3_6 3.170101 1_555
Pb0_6 Pd2_5 3.170101 1_554
Pb0_6 Pd1_7 3.170101 1_554
Pb0_7 Pd0_5 3.170101 1_555
Pb0_7 Pd2_4 3.170101 1_555
Pb0_7 Pd1_6 3.170101 1_555
Pb0_7 Pd3_7 3.170101 1_555
Pb1_0 Pd1_0 3.170101 1_555
Pb1_0 Pd3_0 3.170101 1_555
Pb1_0 Pd0_0 3.170101 1_555
Pb1_0 Pd2_0 3.170101 1_555
Pb1_0 Pb1_4 3.796001 1_455
Pb1_0 Pb1_4 3.796001 1_555
Pb1_1 Pd1_1 3.170101 1_555
Pb1_1 Pd2_1 3.170101 1_555
Pb1_1 Pd3_1 3.170101 1_555
Pb1_1 Pd0_1 3.170101 1_555
Pb1_1 Pb1_5 3.796001 1_555
Pb1_1 Pb1_5 3.796001 1_455
Pb1_2 Pd2_2 3.170101 1_555
Pb1_2 Pd0_2 3.170101 1_555
Pb1_2 Pd1_2 3.170101 1_555
Pb1_2 Pd3_2 3.170101 1_555
Pb1_2 Pb1_6 3.796001 1_455
Pb1_2 Pb1_6 3.796001 1_555
Pb1_3 Pd1_3 3.170101 1_555
Pb1_3 Pd2_3 3.170101 1_555
Pb1_3 Pd3_3 3.170101 1_555
Pb1_3 Pd0_3 3.170101 1_555
Pb1_3 Pb1_7 3.796001 1_555
Pb1_3 Pb1_7 3.796001 1_455
Pb1_4 Pd2_4 3.170101 1_555
Pb1_4 Pd3_4 3.170101 1_555
Pb1_4 Pd1_4 3.170101 1_555
Pb1_4 Pd0_4 3.170101 1_555
Pb1_5 Pd1_5 3.170101 1_555
Pb1_5 Pd3_5 3.170101 1_555
Pb1_5 Pd2_5 3.170101 1_555
Pb1_5 Pd0_5 3.170101 1_555
Pb1_6 Pd2_6 3.170101 1_555
Pb1_6 Pd1_6 3.170101 1_555
Pb1_6 Pd0_6 3.170101 1_555
Pb1_6 Pd3_6 3.170101 1_555
Pb1_7 Pd2_7 3.170101 1_555
Pb1_7 Pd1_7 3.170101 1_555
Pb1_7 Pd0_7 3.170101 1_555
Pb1_7 Pd3_7 3.170101 1_555
