# generated using pymatgen
data_ZnAgF3
_symmetry_space_group_name_H-M   'P 1'
_cell_length_a   4.07307900
_cell_length_b   4.07307900
_cell_length_c   4.07307900
_cell_angle_alpha   90.00000000
_cell_angle_beta   90.00000000
_cell_angle_gamma   90.00000000
_symmetry_Int_Tables_number   1
_chemical_formula_structural   ZnAgF3
_chemical_formula_sum   'Zn1 Ag1 F3'
_cell_volume   67.57226876
_cell_formula_units_Z   1
loop_
 _symmetry_equiv_pos_site_id
 _symmetry_equiv_pos_as_xyz
  1  'x, y, z'
loop_
 _atom_site_type_symbol
 _atom_site_label
 _atom_site_symmetry_multiplicity
 _atom_site_fract_x
 _atom_site_fract_y
 _atom_site_fract_z
 _atom_site_occupancy
  Zn  Zn0  1  0.50000000  0.50000000  0.50000000  1
  Ag  Ag0  1  0.00000000  0.00000000  0.00000000  1
  F  F0  1  0.00000000  0.50000000  0.50000000  1
  F  F1  1  0.50000000  0.00000000  0.50000000  1
  F  F2  1  0.50000000  0.50000000  0.00000000  1
loop_
_geom_bond_atom_site_label_1
_geom_bond_atom_site_label_2
_geom_bond_distance
_geom_bond_site_symmetry_2
Ag0 F2 2.880102 1_555
Ag0 F2 2.880102 1_445
Ag0 F0 2.880102 1_545
Ag0 F0 2.880102 1_544
Ag0 F0 2.880102 1_555
Ag0 F0 2.880102 1_554
Ag0 F1 2.880102 1_554
Ag0 F2 2.880102 1_545
Ag0 F1 2.880102 1_455
Ag0 F1 2.880102 1_454
Ag0 F1 2.880102 1_555
Ag0 F2 2.880102 1_455
F0 Zn0 2.036539 1_555
F0 Zn0 2.036539 1_455
F1 Zn0 2.036539 1_545
F1 Zn0 2.036539 1_555
F2 Zn0 2.036539 1_554
F2 Zn0 2.036539 1_555
