# generated using pymatgen
data_Er3Sn7
_symmetry_space_group_name_H-M   'P 1'
_cell_length_a   29.65178149
_cell_length_b   29.65178149
_cell_length_c   11.72142400
_cell_angle_alpha   90.00000000
_cell_angle_beta   90.00000000
_cell_angle_gamma   12.06518671
_symmetry_Int_Tables_number   1
_chemical_formula_structural   Er3Sn7
_chemical_formula_sum   'Er24 Sn56'
_cell_volume   2154.16506541
_cell_formula_units_Z   8
loop_
 _symmetry_equiv_pos_site_id
 _symmetry_equiv_pos_as_xyz
  1  'x, y, z'
loop_
 _atom_site_type_symbol
 _atom_site_label
 _atom_site_symmetry_multiplicity
 _atom_site_fract_x
 _atom_site_fract_y
 _atom_site_fract_z
 _atom_site_occupancy
  Er  Er0_0  1  0.00000000  0.00000000  0.25000000  1
  Er  Er0_1  1  0.00000000  0.00000000  0.75000000  1
  Er  Er0_2  1  0.00000000  0.50000000  0.25000000  1
  Er  Er0_3  1  0.00000000  0.50000000  0.75000000  1
  Er  Er0_4  1  0.50000000  0.00000000  0.25000000  1
  Er  Er0_5  1  0.50000000  0.00000000  0.75000000  1
  Er  Er0_6  1  0.50000000  0.50000000  0.25000000  1
  Er  Er0_7  1  0.50000000  0.50000000  0.75000000  1
  Er  Er1_0  1  0.34871650  0.34871650  0.00000000  1
  Er  Er1_1  1  0.34871650  0.34871650  0.50000000  1
  Er  Er1_2  1  0.34871650  0.84871650  0.00000000  1
  Er  Er1_3  1  0.34871650  0.84871650  0.50000000  1
  Er  Er1_4  1  0.84871650  0.34871650  0.00000000  1
  Er  Er1_5  1  0.84871650  0.34871650  0.50000000  1
  Er  Er1_6  1  0.84871650  0.84871650  0.00000000  1
  Er  Er1_7  1  0.84871650  0.84871650  0.50000000  1
  Er  Er2_0  1  0.15128350  0.15128350  0.00000000  1
  Er  Er2_1  1  0.15128350  0.15128350  0.50000000  1
  Er  Er2_2  1  0.15128350  0.65128350  0.00000000  1
  Er  Er2_3  1  0.15128350  0.65128350  0.50000000  1
  Er  Er2_4  1  0.65128350  0.15128350  0.00000000  1
  Er  Er2_5  1  0.65128350  0.15128350  0.50000000  1
  Er  Er2_6  1  0.65128350  0.65128350  0.00000000  1
  Er  Er2_7  1  0.65128350  0.65128350  0.50000000  1
  Sn  Sn0_0  1  0.25000000  0.25000000  0.00000000  1
  Sn  Sn0_1  1  0.25000000  0.25000000  0.50000000  1
  Sn  Sn0_2  1  0.25000000  0.75000000  0.00000000  1
  Sn  Sn0_3  1  0.25000000  0.75000000  0.50000000  1
  Sn  Sn0_4  1  0.75000000  0.25000000  0.00000000  1
  Sn  Sn0_5  1  0.75000000  0.25000000  0.50000000  1
  Sn  Sn0_6  1  0.75000000  0.75000000  0.00000000  1
  Sn  Sn0_7  1  0.75000000  0.75000000  0.50000000  1
  Sn  Sn1_0  1  0.29921700  0.29921700  0.25000000  1
  Sn  Sn1_1  1  0.29921700  0.29921700  0.75000000  1
  Sn  Sn1_2  1  0.29921700  0.79921700  0.25000000  1
  Sn  Sn1_3  1  0.29921700  0.79921700  0.75000000  1
  Sn  Sn1_4  1  0.79921700  0.29921700  0.25000000  1
  Sn  Sn1_5  1  0.79921700  0.29921700  0.75000000  1
  Sn  Sn1_6  1  0.79921700  0.79921700  0.25000000  1
  Sn  Sn1_7  1  0.79921700  0.79921700  0.75000000  1
  Sn  Sn2_0  1  0.20078300  0.20078300  0.25000000  1
  Sn  Sn2_1  1  0.20078300  0.20078300  0.75000000  1
  Sn  Sn2_2  1  0.20078300  0.70078300  0.25000000  1
  Sn  Sn2_3  1  0.20078300  0.70078300  0.75000000  1
  Sn  Sn2_4  1  0.70078300  0.20078300  0.25000000  1
  Sn  Sn2_5  1  0.70078300  0.20078300  0.75000000  1
  Sn  Sn2_6  1  0.70078300  0.70078300  0.25000000  1
  Sn  Sn2_7  1  0.70078300  0.70078300  0.75000000  1
  Sn  Sn3_0  1  0.44986650  0.44986650  0.00000000  1
  Sn  Sn3_1  1  0.44986650  0.44986650  0.50000000  1
  Sn  Sn3_2  1  0.44986650  0.94986650  0.00000000  1
  Sn  Sn3_3  1  0.44986650  0.94986650  0.50000000  1
  Sn  Sn3_4  1  0.94986650  0.44986650  0.00000000  1
  Sn  Sn3_5  1  0.94986650  0.44986650  0.50000000  1
  Sn  Sn3_6  1  0.94986650  0.94986650  0.00000000  1
  Sn  Sn3_7  1  0.94986650  0.94986650  0.50000000  1
  Sn  Sn4_0  1  0.05013350  0.05013350  0.00000000  1
  Sn  Sn4_1  1  0.05013350  0.05013350  0.50000000  1
  Sn  Sn4_2  1  0.05013350  0.55013350  0.00000000  1
  Sn  Sn4_3  1  0.05013350  0.55013350  0.50000000  1
  Sn  Sn4_4  1  0.55013350  0.05013350  0.00000000  1
  Sn  Sn4_5  1  0.55013350  0.05013350  0.50000000  1
  Sn  Sn4_6  1  0.55013350  0.55013350  0.00000000  1
  Sn  Sn4_7  1  0.55013350  0.55013350  0.50000000  1
  Sn  Sn5_0  1  0.39949550  0.39949550  0.25000000  1
  Sn  Sn5_1  1  0.39949550  0.39949550  0.75000000  1
  Sn  Sn5_2  1  0.39949550  0.89949550  0.25000000  1
  Sn  Sn5_3  1  0.39949550  0.89949550  0.75000000  1
  Sn  Sn5_4  1  0.89949550  0.39949550  0.25000000  1
  Sn  Sn5_5  1  0.89949550  0.39949550  0.75000000  1
  Sn  Sn5_6  1  0.89949550  0.89949550  0.25000000  1
  Sn  Sn5_7  1  0.89949550  0.89949550  0.75000000  1
  Sn  Sn6_0  1  0.10050450  0.10050450  0.25000000  1
  Sn  Sn6_1  1  0.10050450  0.10050450  0.75000000  1
  Sn  Sn6_2  1  0.10050450  0.60050450  0.25000000  1
  Sn  Sn6_3  1  0.10050450  0.60050450  0.75000000  1
  Sn  Sn6_4  1  0.60050450  0.10050450  0.25000000  1
  Sn  Sn6_5  1  0.60050450  0.10050450  0.75000000  1
  Sn  Sn6_6  1  0.60050450  0.60050450  0.25000000  1
  Sn  Sn6_7  1  0.60050450  0.60050450  0.75000000  1
loop_
_geom_bond_atom_site_label_1
_geom_bond_atom_site_label_2
_geom_bond_distance
_geom_bond_site_symmetry_2
Er0_0 Er0_6 3.116230 1_455
Er0_0 Er0_6 3.116230 1_545
Er0_0 Sn2_4 3.294343 1_455
Er0_0 Sn2_2 3.294343 1_545
Er0_0 Sn1_2 3.294343 1_545
Er0_0 Sn1_4 3.294343 1_455
Er0_0 Sn0_5 3.318841 1_455
Er0_0 Sn0_2 3.318841 1_545
Er0_0 Sn0_3 3.318841 1_545
Er0_0 Sn0_4 3.318841 1_455
Er0_1 Er0_7 3.116230 1_455
Er0_1 Er0_7 3.116230 1_545
Er0_1 Sn2_5 3.294343 1_455
Er0_1 Sn2_3 3.294343 1_545
Er0_1 Sn1_5 3.294343 1_455
Er0_1 Sn1_3 3.294343 1_545
Er0_1 Sn0_5 3.318841 1_455
Er0_1 Sn0_4 3.318841 1_456
Er0_1 Sn0_3 3.318841 1_545
Er0_1 Sn0_2 3.318841 1_546
Er0_2 Er0_4 3.116230 1_465
Er0_2 Er0_4 3.116230 1_555
Er0_2 Sn2_6 3.294343 1_455
Er0_2 Sn1_6 3.294343 1_455
Er0_2 Sn2_0 3.294343 1_555
Er0_2 Sn1_0 3.294343 1_555
Er0_2 Sn0_6 3.318841 1_455
Er0_2 Sn0_1 3.318841 1_555
Er0_2 Sn0_0 3.318841 1_555
Er0_2 Sn0_7 3.318841 1_455
Er0_3 Er0_5 3.116230 1_555
Er0_3 Er0_5 3.116230 1_465
Er0_3 Sn2_7 3.294343 1_455
Er0_3 Sn1_7 3.294343 1_455
Er0_3 Sn2_1 3.294343 1_555
Er0_3 Sn1_1 3.294343 1_555
Er0_3 Sn0_6 3.318841 1_456
Er0_3 Sn0_1 3.318841 1_555
Er0_3 Sn0_7 3.318841 1_455
Er0_3 Sn0_0 3.318841 1_556
Er0_4 Sn1_6 3.294343 1_545
Er0_4 Sn2_6 3.294343 1_545
Er0_4 Sn2_0 3.294343 1_555
Er0_4 Sn1_0 3.294343 1_555
Er0_4 Sn0_1 3.318841 1_555
Er0_4 Sn0_7 3.318841 1_545
Er0_4 Sn0_0 3.318841 1_555
Er0_4 Sn0_6 3.318841 1_545
Er0_5 Sn1_7 3.294343 1_545
Er0_5 Sn2_7 3.294343 1_545
Er0_5 Sn2_1 3.294343 1_555
Er0_5 Sn1_1 3.294343 1_555
Er0_5 Sn0_1 3.318841 1_555
Er0_5 Sn0_7 3.318841 1_545
Er0_5 Sn0_0 3.318841 1_556
Er0_5 Sn0_6 3.318841 1_546
Er0_6 Sn2_4 3.294343 1_555
Er0_6 Sn2_2 3.294343 1_555
Er0_6 Sn1_2 3.294343 1_555
Er0_6 Sn1_4 3.294343 1_555
Er0_6 Sn0_4 3.318841 1_555
Er0_6 Sn0_5 3.318841 1_555
Er0_6 Sn0_2 3.318841 1_555
Er0_6 Sn0_3 3.318841 1_555
Er0_7 Sn2_5 3.294343 1_555
Er0_7 Sn2_3 3.294343 1_555
Er0_7 Sn1_5 3.294343 1_555
Er0_7 Sn1_3 3.294343 1_555
Er0_7 Sn0_5 3.318841 1_555
Er0_7 Sn0_3 3.318841 1_555
Er0_7 Sn0_4 3.318841 1_556
Er0_7 Sn0_2 3.318841 1_556
Er1_0 Er1_6 3.116230 1_455
Er1_0 Er1_6 3.116230 1_545
Er1_0 Sn4_2 3.261447 1_555
Er1_0 Sn4_4 3.261447 1_555
Er1_0 Sn6_2 3.320516 1_555
Er1_0 Sn6_5 3.320516 1_554
Er1_0 Sn6_4 3.320516 1_555
Er1_0 Sn6_3 3.320516 1_554
Er1_0 Er2_2 3.469673 1_555
Er1_0 Er2_4 3.469673 1_555
Er1_1 Er1_7 3.116230 1_545
Er1_1 Er1_7 3.116230 1_455
Er1_1 Sn4_3 3.261447 1_555
Er1_1 Sn4_5 3.261447 1_555
Er1_1 Sn6_3 3.320516 1_555
Er1_1 Sn6_2 3.320516 1_555
Er1_1 Sn6_4 3.320516 1_555
Er1_1 Sn6_5 3.320516 1_555
Er1_1 Er2_3 3.469673 1_555
Er1_1 Er2_5 3.469673 1_555
Er1_2 Er1_4 3.116230 1_465
Er1_2 Er1_4 3.116230 1_555
Er1_2 Sn4_6 3.261447 1_555
Er1_2 Sn4_0 3.261447 1_565
Er1_2 Sn6_7 3.320516 1_554
Er1_2 Sn6_1 3.320516 1_564
Er1_2 Sn6_0 3.320516 1_565
Er1_2 Sn6_6 3.320516 1_555
Er1_2 Er2_0 3.469673 1_565
Er1_2 Er2_6 3.469673 1_555
Er1_3 Er1_5 3.116230 1_465
Er1_3 Er1_5 3.116230 1_555
Er1_3 Sn4_7 3.261447 1_555
Er1_3 Sn4_1 3.261447 1_565
Er1_3 Sn6_7 3.320516 1_555
Er1_3 Sn6_0 3.320516 1_565
Er1_3 Sn6_1 3.320516 1_565
Er1_3 Sn6_6 3.320516 1_555
Er1_3 Er2_1 3.469673 1_565
Er1_3 Er2_7 3.469673 1_555
Er1_4 Sn4_6 3.261447 1_555
Er1_4 Sn4_0 3.261447 1_655
Er1_4 Sn6_7 3.320516 1_554
Er1_4 Sn6_1 3.320516 1_654
Er1_4 Sn6_0 3.320516 1_655
Er1_4 Sn6_6 3.320516 1_555
Er1_4 Er2_0 3.469673 1_655
Er1_4 Er2_6 3.469673 1_555
Er1_5 Sn4_7 3.261447 1_555
Er1_5 Sn4_1 3.261447 1_655
Er1_5 Sn6_7 3.320516 1_555
Er1_5 Sn6_0 3.320516 1_655
Er1_5 Sn6_6 3.320516 1_555
Er1_5 Sn6_1 3.320516 1_655
Er1_5 Er2_1 3.469673 1_655
Er1_5 Er2_7 3.469673 1_555
Er1_6 Sn4_4 3.261447 1_565
Er1_6 Sn4_2 3.261447 1_655
Er1_6 Sn6_2 3.320516 1_655
Er1_6 Sn6_4 3.320516 1_565
Er1_6 Sn6_3 3.320516 1_654
Er1_6 Sn6_5 3.320516 1_564
Er1_6 Er2_2 3.469673 1_655
Er1_6 Er2_4 3.469673 1_565
Er1_7 Sn4_5 3.261447 1_565
Er1_7 Sn4_3 3.261447 1_655
Er1_7 Sn6_2 3.320516 1_655
Er1_7 Sn6_3 3.320516 1_655
Er1_7 Sn6_4 3.320516 1_565
Er1_7 Sn6_5 3.320516 1_565
Er1_7 Er2_3 3.469673 1_655
Er1_7 Er2_5 3.469673 1_565
Er2_0 Er2_6 3.116230 1_545
Er2_0 Er2_6 3.116230 1_455
Er2_0 Sn3_2 3.261447 1_545
Er2_0 Sn3_4 3.261447 1_455
Er2_0 Sn5_4 3.320516 1_455
Er2_0 Sn5_3 3.320516 1_544
Er2_0 Sn5_2 3.320516 1_545
Er2_0 Sn5_5 3.320516 1_454
Er2_1 Er2_7 3.116230 1_545
Er2_1 Er2_7 3.116230 1_455
Er2_1 Sn3_3 3.261447 1_545
Er2_1 Sn3_5 3.261447 1_455
Er2_1 Sn5_4 3.320516 1_455
Er2_1 Sn5_5 3.320516 1_455
Er2_1 Sn5_2 3.320516 1_545
Er2_1 Sn5_3 3.320516 1_545
Er2_2 Er2_4 3.116230 1_465
Er2_2 Er2_4 3.116230 1_555
Er2_2 Sn3_0 3.261447 1_555
Er2_2 Sn3_6 3.261447 1_455
Er2_2 Sn5_1 3.320516 1_554
Er2_2 Sn5_0 3.320516 1_555
Er2_2 Sn5_7 3.320516 1_454
Er2_2 Sn5_6 3.320516 1_455
Er2_3 Er2_5 3.116230 1_465
Er2_3 Er2_5 3.116230 1_555
Er2_3 Sn3_1 3.261447 1_555
Er2_3 Sn3_7 3.261447 1_455
Er2_3 Sn5_0 3.320516 1_555
Er2_3 Sn5_1 3.320516 1_555
Er2_3 Sn5_6 3.320516 1_455
Er2_3 Sn5_7 3.320516 1_455
Er2_4 Sn3_0 3.261447 1_555
Er2_4 Sn3_6 3.261447 1_545
Er2_4 Sn5_1 3.320516 1_554
Er2_4 Sn5_0 3.320516 1_555
Er2_4 Sn5_6 3.320516 1_545
Er2_4 Sn5_7 3.320516 1_544
Er2_5 Sn3_1 3.261447 1_555
Er2_5 Sn3_7 3.261447 1_545
Er2_5 Sn5_0 3.320516 1_555
Er2_5 Sn5_1 3.320516 1_555
Er2_5 Sn5_7 3.320516 1_545
Er2_5 Sn5_6 3.320516 1_545
Er2_6 Sn3_4 3.261447 1_555
Er2_6 Sn3_2 3.261447 1_555
Er2_6 Sn5_3 3.320516 1_554
Er2_6 Sn5_2 3.320516 1_555
Er2_6 Sn5_5 3.320516 1_554
Er2_6 Sn5_4 3.320516 1_555
Er2_7 Sn3_5 3.261447 1_555
Er2_7 Sn3_3 3.261447 1_555
Er2_7 Sn5_2 3.320516 1_555
Er2_7 Sn5_4 3.320516 1_555
Er2_7 Sn5_5 3.320516 1_555
Er2_7 Sn5_3 3.320516 1_555
Sn0_0 Sn0_6 3.116230 1_455
Sn0_0 Sn0_6 3.116230 1_545
Sn0_0 Sn3_2 3.342064 1_545
Sn0_0 Sn3_4 3.342064 1_455
Sn0_0 Sn4_2 3.342064 1_555
Sn0_0 Sn4_4 3.342064 1_555
Sn0_1 Sn0_7 3.116230 1_545
Sn0_1 Sn0_7 3.116230 1_455
Sn0_1 Sn3_3 3.342064 1_545
Sn0_1 Sn3_5 3.342064 1_455
Sn0_1 Sn4_3 3.342064 1_555
Sn0_1 Sn4_5 3.342064 1_555
Sn0_2 Sn0_4 3.116230 1_555
Sn0_2 Sn0_4 3.116230 1_465
Sn0_2 Sn3_6 3.342064 1_455
Sn0_2 Sn3_0 3.342064 1_555
Sn0_2 Sn4_0 3.342064 1_565
Sn0_2 Sn4_6 3.342064 1_555
Sn0_3 Sn0_5 3.116230 1_465
Sn0_3 Sn0_5 3.116230 1_555
Sn0_3 Sn3_7 3.342064 1_455
Sn0_3 Sn3_1 3.342064 1_555
Sn0_3 Sn4_1 3.342064 1_565
Sn0_3 Sn4_7 3.342064 1_555
Sn0_4 Sn3_6 3.342064 1_545
Sn0_4 Sn3_0 3.342064 1_555
Sn0_4 Sn4_0 3.342064 1_655
Sn0_4 Sn4_6 3.342064 1_555
Sn0_5 Sn3_7 3.342064 1_545
Sn0_5 Sn3_1 3.342064 1_555
Sn0_5 Sn4_1 3.342064 1_655
Sn0_5 Sn4_7 3.342064 1_555
Sn0_6 Sn3_4 3.342064 1_555
Sn0_6 Sn3_2 3.342064 1_555
Sn0_6 Sn4_4 3.342064 1_565
Sn0_6 Sn4_2 3.342064 1_655
Sn0_7 Sn3_3 3.342064 1_555
Sn0_7 Sn3_5 3.342064 1_555
Sn0_7 Sn4_5 3.342064 1_565
Sn0_7 Sn4_3 3.342064 1_655
Sn1_0 Sn1_6 3.116230 1_545
Sn1_0 Sn1_6 3.116230 1_455
Sn1_0 Sn4_5 3.319282 1_555
Sn1_0 Sn4_4 3.319282 1_555
Sn1_0 Sn4_3 3.319282 1_555
Sn1_0 Sn4_2 3.319282 1_555
Sn1_0 Sn6_4 3.402420 1_555
Sn1_0 Sn6_2 3.402420 1_555
Sn1_1 Sn1_7 3.116230 1_455
Sn1_1 Sn1_7 3.116230 1_545
Sn1_1 Sn4_4 3.319282 1_556
Sn1_1 Sn4_5 3.319282 1_555
Sn1_1 Sn4_3 3.319282 1_555
Sn1_1 Sn4_2 3.319282 1_556
Sn1_1 Sn6_5 3.402420 1_555
Sn1_1 Sn6_3 3.402420 1_555
Sn1_2 Sn1_4 3.116230 1_465
Sn1_2 Sn1_4 3.116230 1_555
Sn1_2 Sn4_0 3.319282 1_565
Sn1_2 Sn4_7 3.319282 1_555
Sn1_2 Sn4_1 3.319282 1_565
Sn1_2 Sn4_6 3.319282 1_555
Sn1_2 Sn6_0 3.402420 1_565
Sn1_2 Sn6_6 3.402420 1_555
Sn1_3 Sn1_5 3.116230 1_555
Sn1_3 Sn1_5 3.116230 1_465
Sn1_3 Sn4_0 3.319282 1_566
Sn1_3 Sn4_7 3.319282 1_555
Sn1_3 Sn4_1 3.319282 1_565
Sn1_3 Sn4_6 3.319282 1_556
Sn1_3 Sn6_1 3.402420 1_565
Sn1_3 Sn6_7 3.402420 1_555
Sn1_4 Sn4_0 3.319282 1_655
Sn1_4 Sn4_1 3.319282 1_655
Sn1_4 Sn4_7 3.319282 1_555
Sn1_4 Sn4_6 3.319282 1_555
Sn1_4 Sn6_0 3.402420 1_655
Sn1_4 Sn6_6 3.402420 1_555
Sn1_5 Sn4_0 3.319282 1_656
Sn1_5 Sn4_1 3.319282 1_655
Sn1_5 Sn4_7 3.319282 1_555
Sn1_5 Sn4_6 3.319282 1_556
Sn1_5 Sn6_1 3.402420 1_655
Sn1_5 Sn6_7 3.402420 1_555
Sn1_6 Sn4_3 3.319282 1_655
Sn1_6 Sn4_2 3.319282 1_655
Sn1_6 Sn4_4 3.319282 1_565
Sn1_6 Sn4_5 3.319282 1_565
Sn1_6 Sn6_2 3.402420 1_655
Sn1_6 Sn6_4 3.402420 1_565
Sn1_7 Sn4_3 3.319282 1_655
Sn1_7 Sn4_5 3.319282 1_565
Sn1_7 Sn4_4 3.319282 1_566
Sn1_7 Sn4_2 3.319282 1_656
Sn1_7 Sn6_3 3.402420 1_655
Sn1_7 Sn6_5 3.402420 1_565
Sn2_0 Sn2_6 3.116230 1_455
Sn2_0 Sn2_6 3.116230 1_545
Sn2_0 Sn3_4 3.319282 1_455
Sn2_0 Sn3_2 3.319282 1_545
Sn2_0 Sn3_3 3.319282 1_545
Sn2_0 Sn3_5 3.319282 1_455
Sn2_0 Sn5_2 3.402420 1_545
Sn2_0 Sn5_4 3.402420 1_455
Sn2_1 Sn2_7 3.116230 1_545
Sn2_1 Sn2_7 3.116230 1_455
Sn2_1 Sn3_4 3.319282 1_456
Sn2_1 Sn3_3 3.319282 1_545
Sn2_1 Sn3_2 3.319282 1_546
Sn2_1 Sn3_5 3.319282 1_455
Sn2_1 Sn5_3 3.402420 1_545
Sn2_1 Sn5_5 3.402420 1_455
Sn2_2 Sn2_4 3.116230 1_465
Sn2_2 Sn2_4 3.116230 1_555
Sn2_2 Sn3_7 3.319282 1_455
Sn2_2 Sn3_6 3.319282 1_455
Sn2_2 Sn3_1 3.319282 1_555
Sn2_2 Sn3_0 3.319282 1_555
Sn2_2 Sn5_6 3.402420 1_455
Sn2_2 Sn5_0 3.402420 1_555
Sn2_3 Sn2_5 3.116230 1_465
Sn2_3 Sn2_5 3.116230 1_555
Sn2_3 Sn3_7 3.319282 1_455
Sn2_3 Sn3_6 3.319282 1_456
Sn2_3 Sn3_1 3.319282 1_555
Sn2_3 Sn3_0 3.319282 1_556
Sn2_3 Sn5_7 3.402420 1_455
Sn2_3 Sn5_1 3.402420 1_555
Sn2_4 Sn3_6 3.319282 1_545
Sn2_4 Sn3_7 3.319282 1_545
Sn2_4 Sn3_1 3.319282 1_555
Sn2_4 Sn3_0 3.319282 1_555
Sn2_4 Sn5_0 3.402420 1_555
Sn2_4 Sn5_6 3.402420 1_545
Sn2_5 Sn3_6 3.319282 1_546
Sn2_5 Sn3_7 3.319282 1_545
Sn2_5 Sn3_1 3.319282 1_555
Sn2_5 Sn3_0 3.319282 1_556
Sn2_5 Sn5_1 3.402420 1_555
Sn2_5 Sn5_7 3.402420 1_545
Sn2_6 Sn3_5 3.319282 1_555
Sn2_6 Sn3_2 3.319282 1_555
Sn2_6 Sn3_4 3.319282 1_555
Sn2_6 Sn3_3 3.319282 1_555
Sn2_6 Sn5_2 3.402420 1_555
Sn2_6 Sn5_4 3.402420 1_555
Sn2_7 Sn3_5 3.319282 1_555
Sn2_7 Sn3_2 3.319282 1_556
Sn2_7 Sn3_4 3.319282 1_556
Sn2_7 Sn3_3 3.319282 1_555
Sn2_7 Sn5_3 3.402420 1_555
Sn2_7 Sn5_5 3.402420 1_555
Sn3_0 Sn3_6 3.116230 1_455
Sn3_0 Sn3_6 3.116230 1_545
Sn3_1 Sn3_7 3.116230 1_455
Sn3_1 Sn3_7 3.116230 1_545
Sn3_2 Sn3_4 3.116230 1_465
Sn3_2 Sn3_4 3.116230 1_555
Sn3_3 Sn3_5 3.116230 1_465
Sn3_3 Sn3_5 3.116230 1_555
Sn4_0 Sn4_6 3.116230 1_545
Sn4_0 Sn4_6 3.116230 1_455
Sn4_1 Sn4_7 3.116230 1_545
Sn4_1 Sn4_7 3.116230 1_455
Sn4_2 Sn4_4 3.116230 1_465
Sn4_2 Sn4_4 3.116230 1_555
Sn4_3 Sn4_5 3.116230 1_555
Sn4_3 Sn4_5 3.116230 1_465
Sn5_0 Sn5_6 3.116230 1_455
Sn5_0 Sn5_6 3.116230 1_545
Sn5_0 Sn6_4 3.282605 1_555
Sn5_0 Sn6_2 3.282605 1_555
Sn5_1 Sn5_7 3.116230 1_455
Sn5_1 Sn5_7 3.116230 1_545
Sn5_1 Sn6_5 3.282605 1_555
Sn5_1 Sn6_3 3.282605 1_555
Sn5_2 Sn5_4 3.116230 1_465
Sn5_2 Sn5_4 3.116230 1_555
Sn5_2 Sn6_6 3.282605 1_555
Sn5_2 Sn6_0 3.282605 1_565
Sn5_3 Sn5_5 3.116230 1_465
Sn5_3 Sn5_5 3.116230 1_555
Sn5_3 Sn6_7 3.282605 1_555
Sn5_3 Sn6_1 3.282605 1_565
Sn5_4 Sn6_6 3.282605 1_555
Sn5_4 Sn6_0 3.282605 1_655
Sn5_5 Sn6_7 3.282605 1_555
Sn5_5 Sn6_1 3.282605 1_655
Sn5_6 Sn6_2 3.282605 1_655
Sn5_6 Sn6_4 3.282605 1_565
Sn5_7 Sn6_3 3.282605 1_655
Sn5_7 Sn6_5 3.282605 1_565
Sn6_0 Sn6_6 3.116230 1_455
Sn6_0 Sn6_6 3.116230 1_545
Sn6_1 Sn6_7 3.116230 1_545
Sn6_1 Sn6_7 3.116230 1_455
Sn6_2 Sn6_4 3.116230 1_555
Sn6_2 Sn6_4 3.116230 1_465
Sn6_3 Sn6_5 3.116230 1_465
Sn6_3 Sn6_5 3.116230 1_555
