# generated using pymatgen
data_ZnAsWO5
_symmetry_space_group_name_H-M   'P 1'
_cell_length_a   8.29865200
_cell_length_b   6.63569700
_cell_length_c   8.95564696
_cell_angle_alpha   89.43077852
_cell_angle_beta   90.00000000
_cell_angle_gamma   90.00000000
_symmetry_Int_Tables_number   1
_chemical_formula_structural   ZnAsWO5
_chemical_formula_sum   'Zn4 As4 W4 O20'
_cell_volume   493.13932012
_cell_formula_units_Z   4
loop_
 _symmetry_equiv_pos_site_id
 _symmetry_equiv_pos_as_xyz
  1  'x, y, z'
loop_
 _atom_site_type_symbol
 _atom_site_label
 _atom_site_symmetry_multiplicity
 _atom_site_fract_x
 _atom_site_fract_y
 _atom_site_fract_z
 _atom_site_occupancy
  Zn  Zn0  1  0.08351900  0.63139700  0.57375600  1
  Zn  Zn1  1  0.58351900  0.36860300  0.42624400  1
  Zn  Zn2  1  0.91753000  0.87942400  0.07967200  1
  Zn  Zn3  1  0.41753000  0.12057600  0.92032800  1
  As  As0  1  0.93167700  0.20989300  0.39011900  1
  As  As1  1  0.43167700  0.79010700  0.60988100  1
  As  As2  1  0.06877900  0.29500900  0.88775600  1
  As  As3  1  0.56877900  0.70499100  0.11224400  1
  W  W0  1  0.72157900  0.43580500  0.76465800  1
  W  W1  1  0.22157900  0.56419500  0.23534200  1
  W  W2  1  0.27812000  0.06386300  0.26383800  1
  W  W3  1  0.77812000  0.93613700  0.73616200  1
  O  O0  1  0.71179100  0.19464700  0.62861100  1
  O  O1  1  0.21179100  0.80535300  0.37138900  1
  O  O2  1  0.28783200  0.30978500  0.13005600  1
  O  O3  1  0.78783200  0.69021500  0.86994400  1
  O  O4  1  0.77429100  0.33246700  0.30266100  1
  O  O5  1  0.27429100  0.66753300  0.69733900  1
  O  O6  1  0.22602400  0.17340400  0.80140800  1
  O  O7  1  0.72602400  0.82659600  0.19859200  1
  O  O8  1  0.03664600  0.09270100  0.22569900  1
  O  O9  1  0.53664600  0.90729900  0.77430100  1
  O  O10  1  0.96289700  0.41080000  0.72322100  1
  O  O11  1  0.46289700  0.58920000  0.27677900  1
  O  O12  1  0.08993200  0.43974000  0.39390400  1
  O  O13  1  0.58993200  0.56026000  0.60609600  1
  O  O14  1  0.90848800  0.06217800  0.89423800  1
  O  O15  1  0.40848800  0.93782200  0.10576200  1
  O  O16  1  0.90795200  0.83305300  0.59338300  1
  O  O17  1  0.40795200  0.16694700  0.40661700  1
  O  O18  1  0.09328800  0.67575900  0.09252100  1
  O  O19  1  0.59328800  0.32424100  0.90747900  1
loop_
_geom_bond_atom_site_label_1
_geom_bond_atom_site_label_2
_geom_bond_distance
_geom_bond_site_symmetry_2
As0 O4 1.722860 1_555
As0 O8 1.885346 1_655
As0 O12 2.013246 1_655
As0 O0 2.810256 1_555
As1 O5 1.722860 1_555
As1 O9 1.885346 1_555
As1 O13 2.013246 1_555
As1 O1 2.810256 1_555
As2 O6 1.721731 1_555
As2 O10 1.873820 1_455
As2 O14 2.039125 1_455
As3 O7 1.721731 1_555
As3 O11 1.873820 1_555
As3 O15 2.039125 1_555
O0 W0 2.022527 1_555
O0 W3 2.034814 1_545
O0 Zn1 2.389256 1_555
O0 O13 2.634301 1_555
O0 O10 2.672403 1_555
O0 O9 2.720518 1_545
O1 W1 2.022527 1_555
O1 W2 2.034814 1_565
O1 Zn0 2.389256 1_555
O1 O12 2.634301 1_555
O1 O11 2.672403 1_555
O1 O8 2.720518 1_565
O2 W2 2.016453 1_555
O2 W1 2.018159 1_555
O2 Zn3 2.511873 1_554
O2 O8 2.670087 1_555
O3 W3 2.016453 1_555
O3 W0 2.018159 1_555
O3 Zn2 2.511873 1_556
O3 O9 2.670087 1_555
O4 Zn1 1.947836 1_555
O5 Zn0 1.947836 1_555
O6 Zn3 1.943037 1_555
O7 Zn2 1.943037 1_555
O8 W2 2.041478 1_555
O8 Zn2 2.174183 1_445
O9 W3 2.041478 1_555
O9 Zn3 2.174183 1_565
O10 W0 2.043754 1_555
O10 Zn0 2.213042 1_655
O10 O3 2.706174 1_555
O11 W1 2.043754 1_555
O11 Zn1 2.213042 1_555
O11 O2 2.706174 1_555
O12 W1 1.966909 1_555
O12 Zn0 2.062832 1_555
O13 W0 1.966909 1_555
O13 Zn1 2.062832 1_555
O14 W3 1.974242 1_545
O14 Zn2 2.047955 1_546
O14 O3 2.674463 1_545
O15 W2 1.974242 1_565
O15 Zn3 2.047955 1_564
O15 O2 2.674463 1_565
O16 W3 1.811396 1_555
O16 Zn0 1.987188 1_655
O17 W2 1.811396 1_555
O17 Zn1 1.987188 1_555
O18 W1 1.816227 1_555
O18 Zn2 1.990973 1_455
O19 W0 1.816227 1_555
O19 Zn3 1.990973 1_555
