# generated using pymatgen
data_Ca2YTiO5
_symmetry_space_group_name_H-M   'P 1'
_cell_length_a   8.95328652
_cell_length_b   8.95328652
_cell_length_c   8.95328652
_cell_angle_alpha   143.96688887
_cell_angle_beta   142.80006866
_cell_angle_gamma   52.75620195
_symmetry_Int_Tables_number   1
_chemical_formula_structural   Ca2YTiO5
_chemical_formula_sum   'Ca4 Y2 Ti2 O10'
_cell_volume   253.72366403
_cell_formula_units_Z   2
loop_
 _symmetry_equiv_pos_site_id
 _symmetry_equiv_pos_as_xyz
  1  'x, y, z'
loop_
 _atom_site_type_symbol
 _atom_site_label
 _atom_site_symmetry_multiplicity
 _atom_site_fract_x
 _atom_site_fract_y
 _atom_site_fract_z
 _atom_site_occupancy
  Ca  Ca0  1  0.92778900  0.91217600  0.04081900  1
  Ca  Ca1  1  0.62864300  0.61303000  0.04081900  1
  Ca  Ca2  1  0.07221100  0.11303000  0.98438700  1
  Ca  Ca3  1  0.37135700  0.41217600  0.98438700  1
  Y  Y0  1  0.29222900  0.79166700  0.58389600  1
  Y  Y1  1  0.70777100  0.29166700  0.49943800  1
  Ti  Ti0  1  0.00000000  0.48748100  0.48748100  1
  Ti  Ti1  1  0.50000000  0.98748100  0.48748100  1
  O  O0  1  0.33535600  0.19028400  0.02563900  1
  O  O1  1  0.66464400  0.69028400  0.85492800  1
  O  O2  1  0.95306800  0.31540100  0.52597400  1
  O  O3  1  0.04693200  0.57290500  0.36233200  1
  O  O4  1  0.28942700  0.81540100  0.36233200  1
  O  O5  1  0.71057300  0.07290500  0.52597400  1
  O  O6  1  0.27193800  0.25601600  0.49403200  1
  O  O7  1  0.72806200  0.22209500  0.98407800  1
  O  O8  1  0.73801700  0.72209500  0.49403200  1
  O  O9  1  0.26198300  0.75601600  0.98407800  1
loop_
_geom_bond_atom_site_label_1
_geom_bond_atom_site_label_2
_geom_bond_distance
_geom_bond_site_symmetry_2
Ca0 O4 2.304532 1_655
Ca0 O7 2.445806 1_564
Ca0 O2 2.452081 1_565
Ca0 O1 2.517671 1_554
Ca0 O8 2.554133 1_554
Ca0 O6 2.607031 1_665
Ca0 O9 2.715664 1_654
Ca0 O2 3.195599 1_554
Ca1 O3 2.304537 1_655
Ca1 O9 2.445806 1_554
Ca1 O5 2.452077 1_565
Ca1 O1 2.517671 1_554
Ca1 O6 2.554124 1_554
Ca1 O8 2.607019 1_555
Ca1 O7 2.715664 1_554
Ca1 O5 3.195601 1_554
Ca2 O5 2.304532 1_455
Ca2 O6 2.445799 1_556
Ca2 O3 2.452075 1_556
Ca2 O0 2.517678 1_556
Ca2 O9 2.554125 1_545
Ca2 O7 2.607028 1_455
Ca2 O8 2.715661 1_445
Ca2 O3 3.195605 1_545
Ca3 O2 2.304536 1_455
Ca3 O8 2.445807 1_556
Ca3 O4 2.452077 1_556
Ca3 O0 2.517663 1_556
Ca3 O7 2.554125 1_555
Ca3 O9 2.607028 1_555
Ca3 O6 2.715672 1_555
Ca3 O4 3.195601 1_545
O0 Y1 2.199900 1_555
O0 Y0 2.221379 1_544
O1 Y0 2.199897 1_555
O1 Y1 2.221382 1_555
O2 Ti0 2.131227 1_655
O2 Y1 2.139382 1_555
O3 Ti0 2.131228 1_555
O3 Y0 2.139384 1_555
O4 Ti1 2.131220 1_555
O4 Y0 2.139391 1_555
O5 Ti1 2.131220 1_545
O5 Y1 2.139391 1_555
O6 Ti1 1.993430 1_545
O6 Ti0 2.021840 1_555
O7 Ti1 1.993429 1_545
O7 Ti0 2.021839 1_656
O8 Ti0 1.993428 1_655
O8 Ti1 2.021838 1_555
O9 Ti0 1.993429 1_555
O9 Ti1 2.021839 1_556
