# generated using pymatgen
data_Co(WO4)2
_symmetry_space_group_name_H-M   'P 1'
_cell_length_a   5.87033700
_cell_length_b   5.01178600
_cell_length_c   10.26594315
_cell_angle_alpha   63.98027834
_cell_angle_beta   90.00000000
_cell_angle_gamma   90.00000000
_symmetry_Int_Tables_number   1
_chemical_formula_structural   Co(WO4)2
_chemical_formula_sum   'Co2 W4 O16'
_cell_volume   271.41987885
_cell_formula_units_Z   2
loop_
 _symmetry_equiv_pos_site_id
 _symmetry_equiv_pos_as_xyz
  1  'x, y, z'
loop_
 _atom_site_type_symbol
 _atom_site_label
 _atom_site_symmetry_multiplicity
 _atom_site_fract_x
 _atom_site_fract_y
 _atom_site_fract_z
 _atom_site_occupancy
  Co  Co0  1  0.34343000  0.50000000  0.75000000  1
  Co  Co1  1  0.65657000  0.50000000  0.25000000  1
  W  W0  1  0.16963700  0.26750400  0.49083100  1
  W  W1  1  0.16963700  0.73249600  0.00916900  1
  W  W2  1  0.83036300  0.73249600  0.50916900  1
  W  W3  1  0.83036300  0.26750400  0.99083100  1
  O  O0  1  0.33950600  0.70579700  0.85561900  1
  O  O1  1  0.33950600  0.29420300  0.64438100  1
  O  O2  1  0.66049400  0.29420300  0.14438100  1
  O  O3  1  0.66049400  0.70579700  0.35561900  1
  O  O4  1  0.89535100  0.17817000  0.39338200  1
  O  O5  1  0.89535100  0.82183000  0.10661800  1
  O  O6  1  0.10464900  0.82183000  0.60661800  1
  O  O7  1  0.10464900  0.17817000  0.89338200  1
  O  O8  1  0.59537800  0.24736000  0.88206100  1
  O  O9  1  0.59537800  0.75264000  0.61793900  1
  O  O10  1  0.40462200  0.75264000  0.11793900  1
  O  O11  1  0.40462200  0.24736000  0.38206100  1
  O  O12  1  0.89180800  0.66797000  0.88741900  1
  O  O13  1  0.10819200  0.33203000  0.11258100  1
  O  O14  1  0.89180800  0.33203000  0.61258100  1
  O  O15  1  0.10819200  0.66797000  0.38741900  1
loop_
_geom_bond_atom_site_label_1
_geom_bond_atom_site_label_2
_geom_bond_distance
_geom_bond_site_symmetry_2
Co0 O0 1.794766 1_555
Co0 O1 1.794766 1_555
Co0 O9 2.030428 1_555
Co0 O8 2.030428 1_555
Co0 O6 2.156398 1_555
Co0 O7 2.156398 1_555
Co1 O3 1.794766 1_555
Co1 O2 1.794766 1_555
Co1 O11 2.030428 1_555
Co1 O10 2.030428 1_555
Co1 O4 2.156398 1_555
Co1 O5 2.156398 1_555
O0 W1 1.918902 1_556
O0 O6 2.732957 1_555
O1 W0 1.918902 1_555
O1 O7 2.732957 1_555
O2 W3 1.918902 1_554
O2 O4 2.732957 1_555
O3 W2 1.918902 1_555
O3 O5 2.732957 1_555
O4 W0 2.046174 1_655
O4 W2 2.053806 1_545
O4 O6 2.461917 1_645
O5 W1 2.046174 1_655
O5 W3 2.053806 1_564
O5 O7 2.461917 1_664
O6 W2 2.046174 1_455
O6 W0 2.053806 1_565
O7 W3 2.046174 1_455
O7 W1 2.053806 1_546
O8 W3 1.805218 1_555
O9 W2 1.805218 1_555
O10 W1 1.805218 1_555
O11 W0 1.805218 1_555
O12 W3 1.848237 1_555
O12 W1 2.163655 1_656
O12 O5 2.679785 1_556
O12 O7 2.731105 1_655
O12 O7 2.870630 1_665
O13 W1 1.848237 1_555
O13 W3 2.163655 1_454
O13 O7 2.679785 1_554
O13 O5 2.731105 1_455
O13 O5 2.870630 1_445
O14 W2 1.848237 1_555
O14 W0 2.163655 1_655
O14 O4 2.679785 1_555
O14 O6 2.731105 1_655
O14 O6 2.870630 1_645
O15 W0 1.848237 1_555
O15 W2 2.163655 1_455
O15 O6 2.679785 1_555
O15 O4 2.731105 1_455
O15 O4 2.870630 1_465
