# generated using pymatgen
data_Er3MnB7
_symmetry_space_group_name_H-M   'P 1'
_cell_length_a   7.99178923
_cell_length_b   7.99178923
_cell_length_c   9.25604200
_cell_angle_alpha   90.00000000
_cell_angle_beta   90.00000000
_cell_angle_gamma   155.27911764
_symmetry_Int_Tables_number   1
_chemical_formula_structural   Er3MnB7
_chemical_formula_sum   'Er6 Mn2 B14'
_cell_volume   247.22676396
_cell_formula_units_Z   2
loop_
 _symmetry_equiv_pos_site_id
 _symmetry_equiv_pos_as_xyz
  1  'x, y, z'
loop_
 _atom_site_type_symbol
 _atom_site_label
 _atom_site_symmetry_multiplicity
 _atom_site_fract_x
 _atom_site_fract_y
 _atom_site_fract_z
 _atom_site_occupancy
  Er  Er0  1  0.89575900  0.10424100  0.44045300  1
  Er  Er1  1  0.10424100  0.89575900  0.55954700  1
  Er  Er2  1  0.89575900  0.10424100  0.05954700  1
  Er  Er3  1  0.10424100  0.89575900  0.94045300  1
  Er  Er4  1  0.24112300  0.75887700  0.25000000  1
  Er  Er5  1  0.75887700  0.24112300  0.75000000  1
  Mn  Mn0  1  0.05306600  0.94693400  0.25000000  1
  Mn  Mn1  1  0.94693400  0.05306600  0.75000000  1
  B  B0  1  0.72750800  0.27249200  0.46720800  1
  B  B1  1  0.27249200  0.72750800  0.53279200  1
  B  B2  1  0.72750800  0.27249200  0.03279200  1
  B  B3  1  0.27249200  0.72750800  0.96720800  1
  B  B4  1  0.63028200  0.36971800  0.15254300  1
  B  B5  1  0.36971800  0.63028200  0.84745700  1
  B  B6  1  0.63028200  0.36971800  0.34745700  1
  B  B7  1  0.36971800  0.63028200  0.65254300  1
  B  B8  1  0.52089700  0.47910300  0.09775700  1
  B  B9  1  0.47910300  0.52089700  0.90224300  1
  B  B10  1  0.52089700  0.47910300  0.40224300  1
  B  B11  1  0.47910300  0.52089700  0.59775700  1
  B  B12  1  0.45804400  0.54195600  0.25000000  1
  B  B13  1  0.54195600  0.45804400  0.75000000  1
loop_
_geom_bond_atom_site_label_1
_geom_bond_atom_site_label_2
_geom_bond_distance
_geom_bond_site_symmetry_2
Er0 Mn1 2.974501 1_555
Er0 Er4 3.444309 1_655
Er0 Er4 3.444309 1_545
Er1 Mn0 2.974501 1_555
Er1 Er5 3.444309 1_565
Er1 Er5 3.444309 1_455
Er2 Mn1 2.974501 1_554
Er2 Er4 3.444309 1_655
Er2 Er4 3.444309 1_545
Er3 Mn0 2.974501 1_556
Er3 Er5 3.444309 1_565
Er3 Er5 3.444309 1_455
Er4 Mn0 2.936150 1_555
Er5 Mn1 2.936150 1_555
B0 B6 1.879604 1_555
B0 B1 1.946377 1_655
B0 B1 1.946377 1_545
B0 Er0 2.638564 1_555
B0 Er4 2.648365 1_655
B0 Er4 2.648365 1_545
B0 Er5 2.662961 1_555
B0 Er1 2.713135 1_545
B0 Er1 2.713135 1_655
B1 B7 1.879604 1_555
B1 Er1 2.638564 1_555
B1 Er5 2.648365 1_565
B1 Er5 2.648365 1_455
B1 Er4 2.662961 1_555
B1 Er0 2.713135 1_455
B1 Er0 2.713135 1_565
B2 B4 1.879604 1_555
B2 B3 1.946377 1_654
B2 B3 1.946377 1_544
B2 Er2 2.638564 1_555
B2 Er4 2.648365 1_655
B2 Er4 2.648365 1_545
B2 Er5 2.662961 1_554
B2 Er3 2.713135 1_544
B2 Er3 2.713135 1_654
B3 B5 1.879604 1_555
B3 Er3 2.638564 1_555
B3 Er5 2.648365 1_565
B3 Er5 2.648365 1_455
B3 Er4 2.662961 1_556
B3 Er2 2.713135 1_456
B3 Er2 2.713135 1_566
B4 B8 1.781533 1_555
B4 B6 1.804132 1_555
B4 Mn0 2.278979 1_655
B4 Mn0 2.278979 1_545
B4 Er4 2.595225 1_655
B4 Er4 2.595225 1_545
B4 Er3 2.635474 1_544
B4 Er3 2.635474 1_654
B5 B9 1.781533 1_555
B5 B7 1.804132 1_555
B5 Mn1 2.278979 1_565
B5 Mn1 2.278979 1_455
B5 Er5 2.595225 1_565
B5 Er5 2.595225 1_455
B5 Er2 2.635474 1_456
B5 Er2 2.635474 1_566
B6 Mn0 2.278979 1_655
B6 Mn0 2.278979 1_545
B6 Er4 2.595225 1_655
B6 Er4 2.595225 1_545
B6 Er1 2.635474 1_545
B6 Er1 2.635474 1_655
B7 Mn1 2.278979 1_565
B7 Mn1 2.278979 1_455
B7 Er5 2.595225 1_565
B7 Er5 2.595225 1_455
B7 Er0 2.635474 1_455
B7 Er0 2.635474 1_565
B8 B9 1.923737 1_554
B8 Mn0 2.272578 1_655
B8 Mn0 2.272578 1_545
B8 Er3 2.596120 1_544
B8 Er3 2.596120 1_654
B8 Er2 2.620873 1_455
B8 Er2 2.620873 1_565
B9 Mn1 2.272578 1_565
B9 Mn1 2.272578 1_455
B9 Er2 2.596120 1_456
B9 Er2 2.596120 1_566
B9 Er3 2.620873 1_545
B9 Er3 2.620873 1_655
B10 B12 1.717195 1_555
B10 B6 1.781533 1_555
B10 B11 1.923737 1_555
B10 Mn0 2.272578 1_655
B10 Mn0 2.272578 1_545
B10 Er1 2.596120 1_545
B10 Er1 2.596120 1_655
B10 Er0 2.620873 1_455
B10 Er0 2.620873 1_565
B11 B13 1.717195 1_555
B11 B7 1.781533 1_555
B11 Mn1 2.272578 1_565
B11 Mn1 2.272578 1_455
B11 Er0 2.596120 1_455
B11 Er0 2.596120 1_565
B11 Er1 2.620873 1_545
B11 Er1 2.620873 1_655
B12 B8 1.717195 1_555
B12 Mn0 2.264426 1_655
B12 Mn0 2.264426 1_545
B12 Er0 2.641947 1_455
B12 Er0 2.641947 1_565
B12 Er2 2.641947 1_565
B12 Er2 2.641947 1_455
B12 Er4 3.386806 1_555
B13 B9 1.717195 1_555
B13 Mn1 2.264426 1_565
B13 Mn1 2.264426 1_455
B13 Er1 2.641947 1_545
B13 Er3 2.641947 1_655
B13 Er3 2.641947 1_545
B13 Er1 2.641947 1_655
B13 Er5 3.386806 1_555
