# generated using pymatgen
data_Sr5(VN3)2
_symmetry_space_group_name_H-M   'P 1'
_cell_length_a   6.15980896
_cell_length_b   6.59909535
_cell_length_c   13.72769360
_cell_angle_alpha   90.00000058
_cell_angle_beta   99.63832578
_cell_angle_gamma   122.38850833
_symmetry_Int_Tables_number   1
_chemical_formula_structural   Sr5(VN3)2
_chemical_formula_sum   'Sr10 V4 N12'
_cell_volume   461.85626196
_cell_formula_units_Z   2
loop_
 _symmetry_equiv_pos_site_id
 _symmetry_equiv_pos_as_xyz
  1  'x, y, z'
loop_
 _atom_site_type_symbol
 _atom_site_label
 _atom_site_symmetry_multiplicity
 _atom_site_fract_x
 _atom_site_fract_y
 _atom_site_fract_z
 _atom_site_occupancy
  Sr  Sr0  1  0.13801900  0.80984500  0.99775700  1
  Sr  Sr1  1  0.86198100  0.67182600  0.50224300  1
  Sr  Sr2  1  0.86198100  0.19015500  0.00224300  1
  Sr  Sr3  1  0.13801900  0.32817400  0.49775700  1
  Sr  Sr4  1  0.31507600  0.07039000  0.71726600  1
  Sr  Sr5  1  0.68492400  0.75531300  0.78273400  1
  Sr  Sr6  1  0.68492400  0.92961000  0.28273400  1
  Sr  Sr7  1  0.31507600  0.24468700  0.21726600  1
  Sr  Sr8  1  0.00000000  0.38158200  0.75000000  1
  Sr  Sr9  1  0.00000000  0.61841800  0.25000000  1
  V  V0  1  0.55124700  0.91159900  0.57416100  1
  V  V1  1  0.44875300  0.36035200  0.92583900  1
  V  V2  1  0.44875300  0.08840100  0.42583900  1
  V  V3  1  0.55124700  0.63964800  0.07416100  1
  N  N0  1  0.88011000  0.99117800  0.62839700  1
  N  N1  1  0.11989000  0.11106800  0.87160300  1
  N  N2  1  0.11989000  0.00882200  0.37160300  1
  N  N3  1  0.88011000  0.88893200  0.12839700  1
  N  N4  1  0.30065600  0.69878400  0.64242400  1
  N  N5  1  0.69934400  0.39812800  0.85757600  1
  N  N6  1  0.69934400  0.30121600  0.35757600  1
  N  N7  1  0.30065600  0.60187200  0.14242400  1
  N  N8  1  0.54581700  0.20648400  0.56498100  1
  N  N9  1  0.45418300  0.66066800  0.93501900  1
  N  N10  1  0.45418300  0.79351600  0.43501900  1
  N  N11  1  0.54581700  0.33933200  0.06498100  1
loop_
_geom_bond_atom_site_label_1
_geom_bond_atom_site_label_2
_geom_bond_distance
_geom_bond_site_symmetry_2
N0 V0 1.813558 1_555
N0 Sr4 2.518986 1_665
N0 Sr1 2.671331 1_555
N0 Sr5 2.684254 1_555
N0 Sr8 2.741957 1_665
N0 Sr3 2.802640 1_665
N1 V1 1.813558 1_555
N1 Sr5 2.518988 1_445
N1 Sr0 2.671331 1_545
N1 Sr4 2.684251 1_555
N1 Sr8 2.741957 1_555
N1 Sr2 2.802639 1_456
N2 V2 1.813558 1_555
N2 Sr6 2.518986 1_445
N2 Sr3 2.671331 1_555
N2 Sr7 2.684254 1_555
N2 Sr9 2.741957 1_545
N2 Sr1 2.802640 1_445
N3 V3 1.813558 1_555
N3 Sr7 2.518988 1_665
N3 Sr2 2.671331 1_565
N3 Sr6 2.684251 1_555
N3 Sr9 2.741957 1_655
N3 Sr0 2.802639 1_654
N4 V0 1.842578 1_555
N4 Sr8 2.599052 1_555
N4 Sr4 2.610199 1_565
N4 Sr5 2.641833 1_555
N4 Sr3 2.763682 1_555
N4 Sr1 2.963146 1_455
N5 V1 1.842578 1_555
N5 Sr8 2.599052 1_655
N5 Sr5 2.610193 1_555
N5 Sr4 2.641831 1_555
N5 Sr2 2.763682 1_556
N5 Sr0 2.963146 1_655
N6 V2 1.842578 1_555
N6 Sr9 2.599052 1_655
N6 Sr6 2.610199 1_545
N6 Sr7 2.641833 1_555
N6 Sr1 2.763682 1_555
N6 Sr3 2.963146 1_655
N7 V3 1.842578 1_555
N7 Sr9 2.599052 1_555
N7 Sr7 2.610193 1_555
N7 Sr6 2.641831 1_555
N7 Sr0 2.763682 1_554
N7 Sr2 2.963146 1_455
N8 V2 1.931741 1_555
N8 V0 1.967774 1_545
N8 Sr4 2.612366 1_555
N8 Sr1 2.849429 1_555
N8 Sr3 3.031710 1_555
N8 Sr8 3.125786 1_655
N9 V3 1.931742 1_556
N9 V1 1.967781 1_555
N9 Sr5 2.612367 1_555
N9 Sr0 2.849425 1_555
N9 Sr2 3.031705 1_566
N9 Sr8 3.125787 1_555
N10 V0 1.931741 1_555
N10 V2 1.967774 1_565
N10 Sr6 2.612366 1_555
N10 Sr3 2.849429 1_555
N10 Sr1 3.031710 1_555
N10 Sr9 3.125786 1_555
N11 V1 1.931742 1_554
N11 V3 1.967781 1_555
N11 Sr7 2.612367 1_555
N11 Sr2 2.849425 1_555
N11 Sr0 3.031705 1_544
N11 Sr9 3.125787 1_655
