# generated using pymatgen
data_SmSi3Pt5
_symmetry_space_group_name_H-M   'P 1'
_cell_length_a   16.05358574
_cell_length_b   16.05358574
_cell_length_c   4.00916700
_cell_angle_alpha   90.00000000
_cell_angle_beta   90.00000000
_cell_angle_gamma   119.99999894
_symmetry_Int_Tables_number   1
_chemical_formula_structural   SmSi3Pt5
_chemical_formula_sum   'Sm6 Si18 Pt30'
_cell_volume   894.80599932
_cell_formula_units_Z   6
loop_
 _symmetry_equiv_pos_site_id
 _symmetry_equiv_pos_as_xyz
  1  'x, y, z'
loop_
 _atom_site_type_symbol
 _atom_site_label
 _atom_site_symmetry_multiplicity
 _atom_site_fract_x
 _atom_site_fract_y
 _atom_site_fract_z
 _atom_site_occupancy
  Sm  Sm0  1  0.60939900  0.90324500  0.25000000  1
  Sm  Sm1  1  0.70615400  0.60939900  0.75000000  1
  Sm  Sm2  1  0.90324500  0.29384600  0.75000000  1
  Sm  Sm3  1  0.09675500  0.70615400  0.25000000  1
  Sm  Sm4  1  0.29384600  0.39060100  0.25000000  1
  Sm  Sm5  1  0.39060100  0.09675500  0.75000000  1
  Si  Si0  1  0.44899200  0.76718700  0.75000000  1
  Si  Si1  1  0.62677600  0.06090500  0.75000000  1
  Si  Si2  1  0.56587100  0.62677600  0.25000000  1
  Si  Si3  1  0.06090500  0.43412900  0.25000000  1
  Si  Si4  1  0.93909500  0.56587100  0.75000000  1
  Si  Si5  1  0.43412900  0.37322400  0.75000000  1
  Si  Si6  1  0.68180500  0.44899200  0.25000000  1
  Si  Si7  1  0.76718700  0.31819500  0.25000000  1
  Si  Si8  1  0.23281300  0.68180500  0.75000000  1
  Si  Si9  1  0.31819500  0.55100800  0.75000000  1
  Si  Si10  1  0.55100800  0.23281300  0.25000000  1
  Si  Si11  1  0.37322400  0.93909500  0.25000000  1
  Si  Si12  1  0.75091000  0.88302800  0.75000000  1
  Si  Si13  1  0.88302800  0.13211800  0.25000000  1
  Si  Si14  1  0.11697200  0.86788200  0.75000000  1
  Si  Si15  1  0.13211800  0.24909000  0.75000000  1
  Si  Si16  1  0.24909000  0.11697200  0.25000000  1
  Si  Si17  1  0.86788200  0.75091000  0.25000000  1
  Pt  Pt0  1  0.58847500  0.74461300  0.75000000  1
  Pt  Pt1  1  0.43540100  0.66511600  0.25000000  1
  Pt  Pt2  1  0.22971500  0.56459900  0.25000000  1
  Pt  Pt3  1  0.66511600  0.22971500  0.75000000  1
  Pt  Pt4  1  0.56459900  0.33488400  0.75000000  1
  Pt  Pt5  1  0.33488400  0.77028500  0.25000000  1
  Pt  Pt6  1  0.14967800  0.03156300  0.75000000  1
  Pt  Pt7  1  0.11811500  0.14967800  0.25000000  1
  Pt  Pt8  1  0.03156300  0.88188500  0.25000000  1
  Pt  Pt9  1  0.96843700  0.11811500  0.75000000  1
  Pt  Pt10  1  0.88188500  0.85032200  0.75000000  1
  Pt  Pt11  1  0.85032200  0.96843700  0.25000000  1
  Pt  Pt12  1  0.84386100  0.58847500  0.25000000  1
  Pt  Pt13  1  0.74461300  0.15613900  0.25000000  1
  Pt  Pt14  1  0.25538700  0.84386100  0.75000000  1
  Pt  Pt15  1  0.15613900  0.41152500  0.75000000  1
  Pt  Pt16  1  0.41152500  0.25538700  0.25000000  1
  Pt  Pt17  1  0.46580600  0.92352900  0.75000000  1
  Pt  Pt18  1  0.54227700  0.46580600  0.25000000  1
  Pt  Pt19  1  0.92352900  0.45772300  0.25000000  1
  Pt  Pt20  1  0.07647100  0.54227700  0.75000000  1
  Pt  Pt21  1  0.45772300  0.53419400  0.75000000  1
  Pt  Pt22  1  0.53419400  0.07647100  0.25000000  1
  Pt  Pt23  1  0.72414300  0.76462000  0.25000000  1
  Pt  Pt24  1  0.95952300  0.72414300  0.75000000  1
  Pt  Pt25  1  0.76462000  0.04047700  0.75000000  1
  Pt  Pt26  1  0.23538000  0.95952300  0.25000000  1
  Pt  Pt27  1  0.04047700  0.27585700  0.25000000  1
  Pt  Pt28  1  0.27585700  0.23538000  0.75000000  1
  Pt  Pt29  1  0.77028500  0.43540100  0.75000000  1
loop_
_geom_bond_atom_site_label_1
_geom_bond_atom_site_label_2
_geom_bond_distance
_geom_bond_site_symmetry_2
Si0 Si8 3.027523 1_555
Si0 Si9 3.027523 1_555
Si0 Sm0 3.129816 1_556
Si0 Sm0 3.129816 1_555
Si1 Sm0 3.129875 1_546
Si1 Sm0 3.129875 1_545
Si2 Sm1 3.129875 1_554
Si2 Sm1 3.129875 1_555
Si3 Sm2 3.129876 1_454
Si3 Sm2 3.129876 1_455
Si4 Sm3 3.129876 1_655
Si4 Sm3 3.129876 1_656
Si5 Sm4 3.129875 1_556
Si5 Sm4 3.129875 1_555
Si6 Si7 3.027523 1_555
Si6 Sm1 3.129816 1_554
Si6 Sm1 3.129816 1_555
Si7 Sm2 3.129816 1_555
Si7 Sm2 3.129816 1_554
Si8 Si9 3.027523 1_555
Si8 Sm3 3.129816 1_556
Si8 Sm3 3.129816 1_555
Si9 Sm4 3.129816 1_556
Si9 Sm4 3.129816 1_555
Si10 Si7 3.027523 1_555
Si10 Si6 3.027523 1_555
Si10 Sm5 3.129816 1_554
Si10 Sm5 3.129816 1_555
Si11 Sm5 3.129875 1_565
Si11 Sm5 3.129875 1_564
Si12 Sm0 3.165737 1_555
Si12 Sm0 3.165737 1_556
Si13 Sm2 3.165737 1_555
Si13 Sm2 3.165737 1_554
Si14 Sm3 3.165737 1_556
Si14 Sm3 3.165737 1_555
Si15 Sm4 3.165737 1_555
Si15 Sm4 3.165737 1_556
Si16 Sm5 3.165737 1_555
Si16 Sm5 3.165737 1_554
Si17 Sm1 3.165737 1_555
Si17 Sm1 3.165737 1_554
Pt0 Si12 2.437842 1_555
Pt0 Si0 2.440662 1_555
Pt0 Si2 2.653702 1_555
Pt0 Si2 2.653702 1_556
Pt0 Pt23 2.857532 1_555
Pt0 Pt23 2.857532 1_556
Pt0 Pt1 2.923983 1_556
Pt0 Pt1 2.923983 1_555
Pt0 Pt21 2.954014 1_555
Pt0 Sm0 3.124260 1_556
Pt0 Sm0 3.124260 1_555
Pt0 Sm1 3.518740 1_555
Pt1 Si2 2.460685 1_555
Pt1 Si0 2.528531 1_555
Pt1 Si0 2.528531 1_554
Pt1 Si9 2.732687 1_554
Pt1 Si9 2.732687 1_555
Pt1 Pt5 2.859858 1_555
Pt1 Pt2 2.859858 1_555
Pt1 Pt21 3.052435 1_555
Pt1 Pt21 3.052435 1_554
Pt1 Sm0 3.426106 1_555
Pt2 Si3 2.460685 1_555
Pt2 Si9 2.528531 1_554
Pt2 Si9 2.528531 1_555
Pt2 Si8 2.732687 1_555
Pt2 Si8 2.732687 1_554
Pt2 Pt5 2.859858 1_555
Pt2 Pt20 3.052435 1_554
Pt2 Pt20 3.052435 1_555
Pt2 Sm4 3.426106 1_555
Pt3 Si1 2.460685 1_555
Pt3 Si7 2.528531 1_555
Pt3 Si7 2.528531 1_556
Pt3 Si10 2.732687 1_555
Pt3 Si10 2.732687 1_556
Pt3 Pt4 2.859858 1_555
Pt3 Sm2 3.426106 1_555
Pt4 Si5 2.460685 1_555
Pt4 Si10 2.528531 1_555
Pt4 Si10 2.528531 1_556
Pt4 Si6 2.732687 1_556
Pt4 Si6 2.732687 1_555
Pt4 Sm5 3.426106 1_555
Pt5 Si11 2.460685 1_555
Pt5 Si8 2.528531 1_555
Pt5 Si8 2.528531 1_554
Pt5 Si0 2.732687 1_554
Pt5 Si0 2.732687 1_555
Pt5 Sm3 3.426106 1_555
Pt6 Si14 2.408455 1_545
Pt6 Si16 2.501417 1_555
Pt6 Si16 2.501417 1_556
Pt6 Pt7 2.971758 1_555
Pt6 Pt7 2.971758 1_556
Pt6 Pt8 2.971758 1_546
Pt6 Pt8 2.971758 1_545
Pt6 Sm5 3.465033 1_555
Pt7 Si16 2.408455 1_555
Pt7 Si15 2.501417 1_554
Pt7 Si15 2.501417 1_555
Pt7 Pt9 2.971758 1_455
Pt7 Pt9 2.971758 1_454
Pt7 Sm4 3.465033 1_555
Pt8 Si17 2.408455 1_455
Pt8 Si14 2.501417 1_554
Pt8 Si14 2.501417 1_555
Pt8 Sm3 3.465033 1_555
Pt9 Si15 2.408455 1_655
Pt9 Si13 2.501417 1_556
Pt9 Si13 2.501417 1_555
Pt9 Sm2 3.465033 1_555
Pt10 Si12 2.408455 1_555
Pt10 Si17 2.501417 1_555
Pt10 Si17 2.501417 1_556
Pt10 Pt24 2.860291 1_555
Pt10 Pt11 2.971758 1_555
Pt10 Pt11 2.971758 1_556
Pt10 Pt8 2.971758 1_655
Pt10 Pt8 2.971758 1_656
Pt10 Pt23 2.973194 1_556
Pt10 Pt23 2.973194 1_555
Pt10 Sm1 3.465033 1_555
Pt11 Si13 2.408455 1_565
Pt11 Si12 2.501417 1_554
Pt11 Si12 2.501417 1_555
Pt11 Pt23 2.860292 1_555
Pt11 Pt9 2.971758 1_565
Pt11 Pt9 2.971758 1_564
Pt11 Pt25 2.973194 1_564
Pt11 Pt25 2.973194 1_565
Pt11 Sm0 3.465033 1_555
Pt12 Si17 2.437836 1_555
Pt12 Si6 2.440652 1_555
Pt12 Si4 2.653712 1_555
Pt12 Si4 2.653712 1_554
Pt12 Pt24 2.857536 1_554
Pt12 Pt24 2.857536 1_555
Pt12 Pt29 2.923983 1_554
Pt12 Pt29 2.923983 1_555
Pt12 Pt19 2.954027 1_555
Pt12 Sm1 3.124248 1_555
Pt12 Sm1 3.124248 1_554
Pt12 Sm3 3.518754 1_655
Pt13 Si13 2.437851 1_555
Pt13 Si7 2.440646 1_555
Pt13 Si1 2.653705 1_554
Pt13 Si1 2.653705 1_555
Pt13 Pt25 2.857543 1_554
Pt13 Pt25 2.857543 1_555
Pt13 Pt3 2.923973 1_555
Pt13 Pt3 2.923973 1_554
Pt13 Pt22 2.954012 1_555
Pt13 Sm2 3.124255 1_555
Pt13 Sm2 3.124255 1_554
Pt13 Sm0 3.518754 1_545
Pt14 Si14 2.437851 1_555
Pt14 Si8 2.440646 1_555
Pt14 Si11 2.653705 1_556
Pt14 Si11 2.653705 1_555
Pt14 Pt26 2.857543 1_556
Pt14 Pt26 2.857543 1_555
Pt14 Pt5 2.923973 1_556
Pt14 Pt5 2.923973 1_555
Pt14 Pt17 2.954012 1_555
Pt14 Sm3 3.124255 1_556
Pt14 Sm3 3.124255 1_555
Pt14 Sm5 3.518754 1_565
Pt15 Si15 2.437836 1_555
Pt15 Si9 2.440652 1_555
Pt15 Si3 2.653712 1_556
Pt15 Si3 2.653712 1_555
Pt15 Pt27 2.857536 1_555
Pt15 Pt27 2.857536 1_556
Pt15 Pt2 2.923983 1_555
Pt15 Pt2 2.923983 1_556
Pt15 Pt20 2.954027 1_555
Pt15 Sm4 3.124248 1_556
Pt15 Sm4 3.124248 1_555
Pt15 Sm2 3.518754 1_455
Pt16 Si16 2.437842 1_555
Pt16 Si10 2.440662 1_555
Pt16 Si5 2.653702 1_555
Pt16 Si5 2.653702 1_554
Pt16 Pt28 2.857532 1_555
Pt16 Pt28 2.857532 1_554
Pt16 Pt4 2.923983 1_555
Pt16 Pt4 2.923983 1_554
Pt16 Pt18 2.954014 1_555
Pt16 Sm5 3.124260 1_554
Pt16 Sm5 3.124260 1_555
Pt16 Sm4 3.518740 1_555
Pt17 Si0 2.386364 1_555
Pt17 Si1 2.417123 1_565
Pt17 Si11 2.580933 1_556
Pt17 Si11 2.580933 1_555
Pt17 Pt22 2.925141 1_565
Pt17 Pt22 2.925141 1_566
Pt17 Pt5 3.052435 1_556
Pt17 Pt5 3.052435 1_555
Pt17 Sm0 3.192005 1_556
Pt17 Sm0 3.192005 1_555
Pt17 Sm5 3.542372 1_565
Pt18 Si6 2.386364 1_555
Pt18 Si2 2.417123 1_555
Pt18 Si5 2.580933 1_554
Pt18 Si5 2.580933 1_555
Pt18 Pt21 2.925140 1_555
Pt18 Pt21 2.925140 1_554
Pt18 Pt4 3.052435 1_555
Pt18 Pt4 3.052435 1_554
Pt18 Sm1 3.192005 1_555
Pt18 Sm1 3.192005 1_554
Pt18 Sm4 3.542372 1_555
Pt19 Si7 2.386364 1_555
Pt19 Si3 2.417123 1_655
Pt19 Si4 2.580933 1_555
Pt19 Si4 2.580933 1_554
Pt19 Pt20 2.925141 1_655
Pt19 Pt20 2.925141 1_654
Pt19 Pt29 3.052435 1_554
Pt19 Pt29 3.052435 1_555
Pt19 Sm2 3.192005 1_554
Pt19 Sm2 3.192005 1_555
Pt19 Sm3 3.542372 1_655
Pt20 Si8 2.386364 1_555
Pt20 Si4 2.417123 1_455
Pt20 Si3 2.580933 1_555
Pt20 Si3 2.580933 1_556
Pt20 Sm3 3.192005 1_556
Pt20 Sm3 3.192005 1_555
Pt20 Sm2 3.542372 1_455
Pt21 Si9 2.386364 1_555
Pt21 Si5 2.417123 1_555
Pt21 Si2 2.580933 1_556
Pt21 Si2 2.580933 1_555
Pt21 Sm4 3.192005 1_556
Pt21 Sm4 3.192005 1_555
Pt21 Sm1 3.542372 1_555
Pt22 Si10 2.386364 1_555
Pt22 Si11 2.417123 1_545
Pt22 Si1 2.580933 1_554
Pt22 Si1 2.580933 1_555
Pt22 Pt3 3.052435 1_554
Pt22 Pt3 3.052435 1_555
Pt22 Sm5 3.192005 1_554
Pt22 Sm5 3.192005 1_555
Pt22 Sm0 3.542372 1_545
Pt23 Si2 2.393769 1_555
Pt23 Si17 2.425076 1_555
Pt23 Si12 2.645657 1_555
Pt23 Si12 2.645657 1_554
Pt23 Sm1 3.097010 1_554
Pt23 Sm1 3.097010 1_555
Pt23 Sm0 3.527754 1_555
Pt24 Si4 2.393769 1_555
Pt24 Si14 2.425076 1_655
Pt24 Si17 2.645657 1_556
Pt24 Si17 2.645657 1_555
Pt24 Pt8 2.973194 1_655
Pt24 Pt8 2.973194 1_656
Pt24 Sm3 3.097010 1_655
Pt24 Sm3 3.097010 1_656
Pt24 Sm1 3.527754 1_555
Pt25 Si1 2.393769 1_555
Pt25 Si12 2.425076 1_545
Pt25 Si13 2.645657 1_556
Pt25 Si13 2.645657 1_555
Pt25 Pt9 2.860292 1_555
Pt25 Sm0 3.097010 1_546
Pt25 Sm0 3.097010 1_545
Pt25 Sm2 3.527754 1_555
Pt26 Si11 2.393769 1_555
Pt26 Si16 2.425076 1_565
Pt26 Si14 2.645657 1_554
Pt26 Si14 2.645657 1_555
Pt26 Pt8 2.860292 1_555
Pt26 Pt6 2.973194 1_565
Pt26 Pt6 2.973194 1_564
Pt26 Sm5 3.097010 1_565
Pt26 Sm5 3.097010 1_564
Pt26 Sm3 3.527754 1_555
Pt27 Si3 2.393769 1_555
Pt27 Si13 2.425076 1_455
Pt27 Si15 2.645657 1_555
Pt27 Si15 2.645657 1_554
Pt27 Pt7 2.860291 1_555
Pt27 Pt9 2.973194 1_455
Pt27 Pt9 2.973194 1_454
Pt27 Sm2 3.097010 1_455
Pt27 Sm2 3.097010 1_454
Pt27 Sm4 3.527754 1_555
Pt28 Si5 2.393769 1_555
Pt28 Si15 2.425076 1_555
Pt28 Si16 2.645657 1_555
Pt28 Si16 2.645657 1_556
Pt28 Pt6 2.860292 1_555
Pt28 Pt7 2.973194 1_555
Pt28 Pt7 2.973194 1_556
Pt28 Sm4 3.097010 1_556
Pt28 Sm4 3.097010 1_555
Pt28 Sm5 3.527754 1_555
Pt29 Si4 2.460685 1_555
Pt29 Si6 2.528531 1_556
Pt29 Si6 2.528531 1_555
Pt29 Si7 2.732687 1_556
Pt29 Si7 2.732687 1_555
Pt29 Pt4 2.859858 1_555
Pt29 Pt3 2.859858 1_555
Pt29 Sm1 3.426106 1_555
