# generated using pymatgen
data_Dy7BP2O17
_symmetry_space_group_name_H-M   'P 1'
_cell_length_a   17.30994400
_cell_length_b   6.65176700
_cell_length_c   13.00829365
_cell_angle_alpha   66.43752803
_cell_angle_beta   90.00000000
_cell_angle_gamma   90.00000000
_symmetry_Int_Tables_number   1
_chemical_formula_structural   Dy7BP2O17
_chemical_formula_sum   'Dy28 B4 P8 O68'
_cell_volume   1372.91802185
_cell_formula_units_Z   4
loop_
 _symmetry_equiv_pos_site_id
 _symmetry_equiv_pos_as_xyz
  1  'x, y, z'
loop_
 _atom_site_type_symbol
 _atom_site_label
 _atom_site_symmetry_multiplicity
 _atom_site_fract_x
 _atom_site_fract_y
 _atom_site_fract_z
 _atom_site_occupancy
  Dy  Dy0  1  0.72348300  0.79633300  0.18004600  1
  Dy  Dy1  1  0.27651700  0.20366700  0.81995400  1
  Dy  Dy2  1  0.22348300  0.20366700  0.31995400  1
  Dy  Dy3  1  0.77651700  0.79633300  0.68004600  1
  Dy  Dy4  1  0.86550900  0.78307500  0.43396400  1
  Dy  Dy5  1  0.13449100  0.21692500  0.56603600  1
  Dy  Dy6  1  0.36550900  0.21692500  0.06603600  1
  Dy  Dy7  1  0.63449100  0.78307500  0.93396400  1
  Dy  Dy8  1  0.60639300  0.31380600  0.19795400  1
  Dy  Dy9  1  0.39360700  0.68619400  0.80204600  1
  Dy  Dy10  1  0.10639300  0.68619400  0.30204600  1
  Dy  Dy11  1  0.89360700  0.31380600  0.69795400  1
  Dy  Dy12  1  0.27272400  0.71639700  0.09519100  1
  Dy  Dy13  1  0.72727600  0.28360300  0.90480900  1
  Dy  Dy14  1  0.77272400  0.28360300  0.40480900  1
  Dy  Dy15  1  0.22727600  0.71639700  0.59519100  1
  Dy  Dy16  1  0.44672000  0.71469400  0.50853100  1
  Dy  Dy17  1  0.55328000  0.28530600  0.49146900  1
  Dy  Dy18  1  0.94672000  0.28530600  0.99146900  1
  Dy  Dy19  1  0.05328000  0.71469400  0.00853100  1
  Dy  Dy20  1  0.52044200  0.80385600  0.21244100  1
  Dy  Dy21  1  0.47955800  0.19614400  0.78755900  1
  Dy  Dy22  1  0.02044200  0.19614400  0.28755900  1
  Dy  Dy23  1  0.97955800  0.80385600  0.71244100  1
  Dy  Dy24  1  0.65364400  0.81556900  0.42473200  1
  Dy  Dy25  1  0.34635600  0.18443100  0.57526800  1
  Dy  Dy26  1  0.15364400  0.18443100  0.07526800  1
  Dy  Dy27  1  0.84635600  0.81556900  0.92473200  1
  B  B0  1  0.43239100  0.74663400  0.00073100  1
  B  B1  1  0.56760900  0.25336600  0.99926900  1
  B  B2  1  0.93239100  0.25336600  0.49926900  1
  B  B3  1  0.06760900  0.74663400  0.50073100  1
  P  P0  1  0.80130500  0.28479500  0.16373800  1
  P  P1  1  0.19869500  0.71520500  0.83626200  1
  P  P2  1  0.30130500  0.71520500  0.33626200  1
  P  P3  1  0.69869500  0.28479500  0.66373800  1
  P  P4  1  0.93698100  0.78066700  0.18251500  1
  P  P5  1  0.06301900  0.21933300  0.81748500  1
  P  P6  1  0.43698100  0.21933300  0.31748500  1
  P  P7  1  0.56301900  0.78066700  0.68251500  1
  O  O0  1  0.86745600  0.42834800  0.09215400  1
  O  O1  1  0.13254400  0.57165200  0.90784600  1
  O  O2  1  0.36745600  0.57165200  0.40784600  1
  O  O3  1  0.63254400  0.42834800  0.59215400  1
  O  O4  1  0.37603200  0.59342300  0.99961400  1
  O  O5  1  0.62396800  0.40657700  0.00038600  1
  O  O6  1  0.87603200  0.40657700  0.50038600  1
  O  O7  1  0.12396800  0.59342300  0.49961400  1
  O  O8  1  0.76466200  0.90137400  0.49347900  1
  O  O9  1  0.23533800  0.09862600  0.50652100  1
  O  O10  1  0.26466200  0.09862600  0.00652100  1
  O  O11  1  0.73533800  0.90137400  0.99347900  1
  O  O12  1  0.63259500  0.95957000  0.23916700  1
  O  O13  1  0.36740500  0.04043000  0.76083300  1
  O  O14  1  0.13259500  0.04043000  0.26083300  1
  O  O15  1  0.86740500  0.95957000  0.73916700  1
  O  O16  1  0.93528800  0.85578600  0.05206500  1
  O  O17  1  0.06471200  0.14421400  0.94793500  1
  O  O18  1  0.43528800  0.14421400  0.44793500  1
  O  O19  1  0.56471200  0.85578600  0.55206500  1
  O  O20  1  0.85848400  0.71090300  0.23896100  1
  O  O21  1  0.14151600  0.28909700  0.76103900  1
  O  O22  1  0.35848400  0.28909700  0.26103900  1
  O  O23  1  0.64151600  0.71090300  0.73896100  1
  O  O24  1  0.14328900  0.79397100  0.11951100  1
  O  O25  1  0.85671100  0.20602900  0.88048900  1
  O  O26  1  0.64328900  0.20602900  0.38048900  1
  O  O27  1  0.35671100  0.79397100  0.61951100  1
  O  O28  1  0.74079200  0.42941800  0.19300000  1
  O  O29  1  0.25920800  0.57058200  0.80700000  1
  O  O30  1  0.24079200  0.57058200  0.30700000  1
  O  O31  1  0.75920800  0.42941800  0.69300000  1
  O  O32  1  0.54328100  0.63492400  0.40246200  1
  O  O33  1  0.45671900  0.36507600  0.59753800  1
  O  O34  1  0.04328100  0.36507600  0.09753800  1
  O  O35  1  0.95671900  0.63492400  0.90246200  1
  O  O36  1  0.99713600  0.59142200  0.22858500  1
  O  O37  1  0.00286400  0.40857800  0.77141500  1
  O  O38  1  0.49713600  0.40857800  0.27141500  1
  O  O39  1  0.50286400  0.59142200  0.72858500  1
  O  O40  1  0.32670900  0.88537900  0.22104000  1
  O  O41  1  0.67329100  0.11462100  0.77896000  1
  O  O42  1  0.82670900  0.11462100  0.27896000  1
  O  O43  1  0.17329100  0.88537900  0.72104000  1
  O  O44  1  0.60876400  0.68602800  0.12417100  1
  O  O45  1  0.39123600  0.31397200  0.87582900  1
  O  O46  1  0.10876400  0.31397200  0.37582900  1
  O  O47  1  0.89123600  0.68602800  0.62417100  1
  O  O48  1  0.96821400  0.98561100  0.19660400  1
  O  O49  1  0.03178600  0.01438900  0.80339600  1
  O  O50  1  0.46821400  0.01438900  0.30339600  1
  O  O51  1  0.53178600  0.98561100  0.69660400  1
  O  O52  1  0.42131900  0.83908100  0.07694500  1
  O  O53  1  0.57868100  0.16091900  0.92305500  1
  O  O54  1  0.92131900  0.16091900  0.42305500  1
  O  O55  1  0.07868100  0.83908100  0.57694500  1
  O  O56  1  0.51179000  0.19740700  0.08315400  1
  O  O57  1  0.48821000  0.80259300  0.91684600  1
  O  O58  1  0.01179000  0.80259300  0.41684600  1
  O  O59  1  0.98821000  0.19740700  0.58315400  1
  O  O60  1  0.73938300  0.62680900  0.37334100  1
  O  O61  1  0.26061700  0.37319100  0.62665900  1
  O  O62  1  0.23938300  0.37319100  0.12665900  1
  O  O63  1  0.76061700  0.62680900  0.87334100  1
  O  O64  1  0.26334000  0.83320900  0.40453200  1
  O  O65  1  0.73666000  0.16679100  0.59546800  1
  O  O66  1  0.76334000  0.16679100  0.09546800  1
  O  O67  1  0.23666000  0.83320900  0.90453200  1
loop_
_geom_bond_atom_site_label_1
_geom_bond_atom_site_label_2
_geom_bond_distance
_geom_bond_site_symmetry_2
Dy0 O12 2.216584 1_555
Dy0 O11 2.250449 1_554
Dy0 O60 2.324401 1_555
Dy0 O44 2.331595 1_555
Dy0 O66 2.364570 1_565
Dy0 O28 2.397091 1_555
Dy0 O20 2.454178 1_555
Dy1 O13 2.216584 1_555
Dy1 O10 2.250449 1_556
Dy1 O61 2.324401 1_555
Dy1 O45 2.331595 1_555
Dy1 O67 2.364570 1_545
Dy1 O29 2.397091 1_555
Dy1 O21 2.454178 1_555
Dy2 O14 2.216584 1_555
Dy2 O9 2.250449 1_555
Dy2 O62 2.324401 1_555
Dy2 O46 2.331595 1_555
Dy2 O64 2.364570 1_545
Dy2 O30 2.397091 1_555
Dy2 O22 2.454178 1_555
Dy3 O15 2.216584 1_555
Dy3 O8 2.250449 1_555
Dy3 O63 2.324401 1_555
Dy3 O47 2.331595 1_555
Dy3 O65 2.364570 1_565
Dy3 O31 2.397091 1_555
Dy3 O23 2.454178 1_555
Dy4 O8 2.180126 1_555
Dy4 O6 2.306866 1_555
Dy4 O47 2.336678 1_555
Dy4 O42 2.413538 1_565
Dy4 O58 2.540657 1_655
Dy4 O54 2.642935 1_565
Dy4 O60 2.669120 1_555
Dy4 O20 2.766494 1_555
Dy5 O9 2.180126 1_555
Dy5 O7 2.306866 1_555
Dy5 O46 2.336678 1_555
Dy5 O43 2.413538 1_545
Dy5 O59 2.540657 1_455
Dy5 O55 2.642935 1_545
Dy5 O61 2.669120 1_555
Dy5 O21 2.766494 1_555
Dy6 O10 2.180126 1_555
Dy6 O4 2.306866 1_554
Dy6 O45 2.336678 1_554
Dy6 O40 2.413538 1_545
Dy6 O56 2.540657 1_555
Dy6 O52 2.642935 1_545
Dy6 O62 2.669120 1_555
Dy6 O22 2.766494 1_555
Dy7 O11 2.180126 1_555
Dy7 O5 2.306866 1_556
Dy7 O44 2.336678 1_556
Dy7 O41 2.413538 1_565
Dy7 O57 2.540657 1_555
Dy7 O53 2.642935 1_565
Dy7 O63 2.669120 1_555
Dy7 O23 2.766494 1_555
Dy8 O12 2.243948 1_545
Dy8 O44 2.270071 1_555
Dy8 O26 2.280130 1_555
Dy8 O38 2.317104 1_555
Dy8 O5 2.410480 1_555
Dy8 O28 2.443000 1_555
Dy8 O56 2.536855 1_555
Dy9 O13 2.243948 1_565
Dy9 O45 2.270071 1_555
Dy9 O27 2.280130 1_555
Dy9 O39 2.317104 1_555
Dy9 O4 2.410480 1_555
Dy9 O29 2.443000 1_555
Dy9 O57 2.536855 1_555
Dy10 O14 2.243948 1_565
Dy10 O46 2.270071 1_555
Dy10 O24 2.280130 1_555
Dy10 O36 2.317104 1_455
Dy10 O7 2.410480 1_555
Dy10 O30 2.443000 1_555
Dy10 O58 2.536855 1_555
Dy11 O15 2.243948 1_545
Dy11 O47 2.270071 1_555
Dy11 O25 2.280130 1_555
Dy11 O37 2.317104 1_655
Dy11 O6 2.410480 1_555
Dy11 O31 2.443000 1_555
Dy11 O59 2.536855 1_555
Dy12 O62 2.228287 1_555
Dy12 O10 2.338712 1_565
Dy12 O24 2.348777 1_555
Dy12 O67 2.367251 1_554
Dy12 O4 2.495165 1_554
Dy12 O40 2.507568 1_555
Dy12 O30 2.588673 1_555
Dy12 O52 2.680206 1_555
Dy13 O63 2.228287 1_555
Dy13 O11 2.338712 1_545
Dy13 O25 2.348777 1_555
Dy13 O66 2.367251 1_556
Dy13 O5 2.495165 1_556
Dy13 O41 2.507568 1_555
Dy13 O31 2.588673 1_555
Dy13 O53 2.680206 1_555
Dy14 O60 2.228287 1_555
Dy14 O8 2.338712 1_545
Dy14 O26 2.348777 1_555
Dy14 O65 2.367251 1_555
Dy14 O6 2.495165 1_555
Dy14 O42 2.507568 1_555
Dy14 O28 2.588673 1_555
Dy14 O54 2.680206 1_555
Dy15 O61 2.228287 1_555
Dy15 O9 2.338712 1_565
Dy15 O27 2.348777 1_555
Dy15 O64 2.367251 1_555
Dy15 O7 2.495165 1_555
Dy15 O43 2.507568 1_555
Dy15 O29 2.588673 1_555
Dy15 O55 2.680206 1_555
Dy16 O33 2.150835 1_555
Dy16 O27 2.323447 1_555
Dy16 O2 2.345123 1_555
Dy16 O32 2.358911 1_555
Dy16 O19 2.407896 1_555
Dy16 O50 2.641998 1_565
Dy16 O18 2.650055 1_565
Dy16 O39 2.816794 1_555
Dy17 O32 2.150835 1_555
Dy17 O26 2.323447 1_555
Dy17 O3 2.345123 1_555
Dy17 O33 2.358911 1_555
Dy17 O18 2.407896 1_555
Dy17 O51 2.641998 1_545
Dy17 O19 2.650055 1_545
Dy17 O38 2.816794 1_555
Dy18 O35 2.150835 1_555
Dy18 O25 2.323447 1_555
Dy18 O0 2.345123 1_556
Dy18 O34 2.358911 1_656
Dy18 O17 2.407896 1_655
Dy18 O48 2.641998 1_546
Dy18 O16 2.650055 1_546
Dy18 O37 2.816794 1_655
Dy19 O34 2.150835 1_555
Dy19 O24 2.323447 1_555
Dy19 O1 2.345123 1_554
Dy19 O35 2.358911 1_454
Dy19 O16 2.407896 1_455
Dy19 O49 2.641998 1_564
Dy19 O17 2.650055 1_564
Dy19 O36 2.816794 1_455
Dy20 O44 2.233749 1_555
Dy20 O12 2.291392 1_555
Dy20 O32 2.303983 1_555
Dy20 O50 2.345868 1_565
Dy20 O52 2.403205 1_555
Dy20 O38 2.460048 1_555
Dy20 O56 2.486749 1_565
Dy21 O45 2.233749 1_555
Dy21 O13 2.291392 1_555
Dy21 O33 2.303983 1_555
Dy21 O51 2.345868 1_545
Dy21 O53 2.403205 1_555
Dy21 O39 2.460048 1_555
Dy21 O57 2.486749 1_545
Dy22 O46 2.233749 1_555
Dy22 O14 2.291392 1_555
Dy22 O34 2.303983 1_555
Dy22 O48 2.345868 1_445
Dy22 O54 2.403205 1_455
Dy22 O36 2.460048 1_455
Dy22 O58 2.486749 1_545
Dy23 O47 2.233749 1_555
Dy23 O15 2.291392 1_555
Dy23 O35 2.303983 1_555
Dy23 O49 2.345868 1_665
Dy23 O55 2.403205 1_655
Dy23 O37 2.460048 1_655
Dy23 O59 2.486749 1_565
Dy24 O60 2.212949 1_555
Dy24 O12 2.242436 1_555
Dy24 O8 2.286168 1_555
Dy24 O32 2.335729 1_555
Dy24 O19 2.353554 1_555
Dy24 O26 2.431869 1_565
Dy24 O3 2.650653 1_555
Dy25 O61 2.212949 1_555
Dy25 O13 2.242436 1_555
Dy25 O9 2.286168 1_555
Dy25 O33 2.335729 1_555
Dy25 O18 2.353554 1_555
Dy25 O27 2.431869 1_545
Dy25 O2 2.650653 1_555
Dy26 O62 2.212949 1_555
Dy26 O14 2.242436 1_555
Dy26 O10 2.286168 1_555
Dy26 O34 2.335729 1_555
Dy26 O17 2.353554 1_554
Dy26 O24 2.431869 1_545
Dy26 O1 2.650653 1_554
Dy27 O63 2.212949 1_555
Dy27 O15 2.242436 1_555
Dy27 O11 2.286168 1_555
Dy27 O35 2.335729 1_555
Dy27 O16 2.353554 1_556
Dy27 O25 2.431869 1_565
Dy27 O0 2.650653 1_556
B0 O52 1.373025 1_555
B0 O57 1.392166 1_554
B0 O4 1.415063 1_554
B1 O53 1.373025 1_555
B1 O56 1.392166 1_556
B1 O5 1.415063 1_556
B2 O54 1.373025 1_555
B2 O59 1.392166 1_555
B2 O6 1.415063 1_555
B3 O55 1.373025 1_555
B3 O58 1.392166 1_555
B3 O7 1.415063 1_555
O0 P0 1.542465 1_555
O0 O35 2.766523 1_554
O1 P1 1.542465 1_555
O1 O34 2.766523 1_556
O2 P2 1.542465 1_555
O2 O33 2.766523 1_555
O3 P3 1.542465 1_555
O3 O32 2.766523 1_555
O4 O62 2.921764 1_556
O5 O63 2.921764 1_554
O6 O60 2.921764 1_555
O10 O67 2.642858 1_544
O10 O40 2.790699 1_545
O10 O45 2.792058 1_554
O10 O62 2.872496 1_555
O10 O24 2.880919 1_545
O11 O66 2.642858 1_566
O11 O41 2.790699 1_565
O11 O44 2.792058 1_556
O11 O63 2.872496 1_555
O11 O25 2.880919 1_565
O12 O44 2.809754 1_555
O12 O32 2.810387 1_555
O12 O66 2.907954 1_565
O12 O26 2.917350 1_565
O13 O45 2.809754 1_555
O13 O33 2.810387 1_555
O13 O67 2.907954 1_545
O13 O27 2.917350 1_545
O14 O46 2.809754 1_555
O14 O34 2.810387 1_555
O14 O64 2.907954 1_545
O14 O24 2.917350 1_545
O15 O47 2.809754 1_555
O15 O35 2.810387 1_555
O15 O65 2.907954 1_565
O15 O25 2.917350 1_565
O16 P4 1.565952 1_555
O16 O25 2.846391 1_564
O17 P5 1.565952 1_555
O17 O24 2.846391 1_546
O18 P6 1.565952 1_555
O18 O27 2.846391 1_545
O19 P7 1.565952 1_555
O19 O26 2.846391 1_565
O20 P4 1.525894 1_555
O20 O60 2.614796 1_555
O21 P5 1.525894 1_555
O21 O61 2.614796 1_555
O22 P6 1.525894 1_555
O22 O62 2.614796 1_555
O23 P7 1.525894 1_555
O23 O63 2.614796 1_555
O24 O30 2.847355 1_555
O24 O36 2.949654 1_455
O24 O67 3.149174 1_554
O25 O31 2.847355 1_555
O25 O37 2.949654 1_655
O25 O66 3.149174 1_556
O26 O28 2.847355 1_555
O26 O8 2.880919 1_545
O26 O38 2.949654 1_555
O26 O65 3.149174 1_555
O27 O29 2.847355 1_555
O27 O9 2.880919 1_565
O27 O39 2.949654 1_555
O27 O64 3.149174 1_555
O28 P0 1.568536 1_555
O28 O44 2.777836 1_555
O29 P1 1.568536 1_555
O29 O45 2.777836 1_555
O30 P2 1.568536 1_555
O30 O46 2.777836 1_555
O31 P3 1.568536 1_555
O31 O47 2.777836 1_555
O32 O50 2.668279 1_565
O32 O38 2.804076 1_555
O33 O51 2.668279 1_545
O33 O39 2.804076 1_555
O34 O48 2.668279 1_445
O34 O36 2.804076 1_455
O35 O49 2.668279 1_665
O35 O37 2.804076 1_655
O36 P4 1.557205 1_555
O36 O46 2.825287 1_655
O37 P5 1.557205 1_555
O37 O47 2.825287 1_455
O38 P6 1.557205 1_555
O38 O44 2.825287 1_555
O39 P7 1.557205 1_555
O39 O45 2.825287 1_555
O40 P2 1.537784 1_555
O41 P3 1.537784 1_555
O42 P0 1.537784 1_555
O42 O8 2.790699 1_545
O43 P1 1.537784 1_555
O43 O9 2.790699 1_565
O46 O9 2.792058 1_555
O47 O8 2.792058 1_555
O48 P4 1.544039 1_555
O49 P5 1.544039 1_555
O50 P6 1.544039 1_555
O51 P7 1.544039 1_555
O60 O8 2.872496 1_555
O61 O9 2.872496 1_555
O61 O7 2.921764 1_555
O64 P2 1.547253 1_555
O64 O9 2.642858 1_565
O65 P3 1.547253 1_555
O65 O8 2.642858 1_545
O66 P0 1.547253 1_555
O67 P1 1.547253 1_555
