# generated using pymatgen
data_Cs(V3S4)2
_symmetry_space_group_name_H-M   'P 1'
_cell_length_a   6.51898611
_cell_length_b   18.70628162
_cell_length_c   18.71545804
_cell_angle_alpha   119.89995367
_cell_angle_beta   90.01133578
_cell_angle_gamma   90.00714124
_symmetry_Int_Tables_number   1
_chemical_formula_structural   Cs(V3S4)2
_chemical_formula_sum   'Cs8 V48 S64'
_cell_volume   1978.49764625
_cell_formula_units_Z   8
loop_
 _symmetry_equiv_pos_site_id
 _symmetry_equiv_pos_as_xyz
  1  'x, y, z'
loop_
 _atom_site_type_symbol
 _atom_site_label
 _atom_site_symmetry_multiplicity
 _atom_site_fract_x
 _atom_site_fract_y
 _atom_site_fract_z
 _atom_site_occupancy
  Cs  Cs0_0  1  0.25000000  0.00000000  0.00000000  1
  Cs  Cs0_1  1  0.25000000  0.00000000  0.50000000  1
  Cs  Cs0_2  1  0.25000000  0.50000000  0.00000000  1
  Cs  Cs0_3  1  0.25000000  0.50000000  0.50000000  1
  Cs  Cs0_4  1  0.75000000  0.00000000  0.00000000  1
  Cs  Cs0_5  1  0.75000000  0.00000000  0.50000000  1
  Cs  Cs0_6  1  0.75000000  0.50000000  0.00000000  1
  Cs  Cs0_7  1  0.75000000  0.50000000  0.50000000  1
  V  V0_0  1  0.37379100  0.18735550  0.44316900  1
  V  V0_1  1  0.37379100  0.18735550  0.94316900  1
  V  V0_2  1  0.37379100  0.68735550  0.44316900  1
  V  V0_3  1  0.37379100  0.68735550  0.94316900  1
  V  V0_4  1  0.87379100  0.18735550  0.44316900  1
  V  V0_5  1  0.87379100  0.18735550  0.94316900  1
  V  V0_6  1  0.87379100  0.68735550  0.44316900  1
  V  V0_7  1  0.87379100  0.68735550  0.94316900  1
  V  V1_0  1  0.37384200  0.05665350  0.24404850  1
  V  V1_1  1  0.37384200  0.05665350  0.74404850  1
  V  V1_2  1  0.37384200  0.55665350  0.24404850  1
  V  V1_3  1  0.37384200  0.55665350  0.74404850  1
  V  V1_4  1  0.87384200  0.05665350  0.24404850  1
  V  V1_5  1  0.87384200  0.05665350  0.74404850  1
  V  V1_6  1  0.87384200  0.55665350  0.24404850  1
  V  V1_7  1  0.87384200  0.55665350  0.74404850  1
  V  V2_0  1  0.37388300  0.25571150  0.31249400  1
  V  V2_1  1  0.37388300  0.25571150  0.81249400  1
  V  V2_2  1  0.37388300  0.75571150  0.31249400  1
  V  V2_3  1  0.37388300  0.75571150  0.81249400  1
  V  V2_4  1  0.87388300  0.25571150  0.31249400  1
  V  V2_5  1  0.87388300  0.25571150  0.81249400  1
  V  V2_6  1  0.87388300  0.75571150  0.31249400  1
  V  V2_7  1  0.87388300  0.75571150  0.81249400  1
  V  V3_0  1  0.12620900  0.31264450  0.05683100  1
  V  V3_1  1  0.12620900  0.31264450  0.55683100  1
  V  V3_2  1  0.12620900  0.81264450  0.05683100  1
  V  V3_3  1  0.12620900  0.81264450  0.55683100  1
  V  V3_4  1  0.62620900  0.31264450  0.05683100  1
  V  V3_5  1  0.62620900  0.31264450  0.55683100  1
  V  V3_6  1  0.62620900  0.81264450  0.05683100  1
  V  V3_7  1  0.62620900  0.81264450  0.55683100  1
  V  V4_0  1  0.12615800  0.44334650  0.25595150  1
  V  V4_1  1  0.12615800  0.44334650  0.75595150  1
  V  V4_2  1  0.12615800  0.94334650  0.25595150  1
  V  V4_3  1  0.12615800  0.94334650  0.75595150  1
  V  V4_4  1  0.62615800  0.44334650  0.25595150  1
  V  V4_5  1  0.62615800  0.44334650  0.75595150  1
  V  V4_6  1  0.62615800  0.94334650  0.25595150  1
  V  V4_7  1  0.62615800  0.94334650  0.75595150  1
  V  V5_0  1  0.12611700  0.24428850  0.18750600  1
  V  V5_1  1  0.12611700  0.24428850  0.68750600  1
  V  V5_2  1  0.12611700  0.74428850  0.18750600  1
  V  V5_3  1  0.12611700  0.74428850  0.68750600  1
  V  V5_4  1  0.62611700  0.24428850  0.18750600  1
  V  V5_5  1  0.62611700  0.24428850  0.68750600  1
  V  V5_6  1  0.62611700  0.74428850  0.18750600  1
  V  V5_7  1  0.62611700  0.74428850  0.68750600  1
  S  S0_0  1  0.37564100  0.33338450  0.16669250  1
  S  S0_1  1  0.37564100  0.33338450  0.66669250  1
  S  S0_2  1  0.37564100  0.83338450  0.16669250  1
  S  S0_3  1  0.37564100  0.83338450  0.66669250  1
  S  S0_4  1  0.87564100  0.33338450  0.16669250  1
  S  S0_5  1  0.87564100  0.33338450  0.66669250  1
  S  S0_6  1  0.87564100  0.83338450  0.16669250  1
  S  S0_7  1  0.87564100  0.83338450  0.66669250  1
  S  S1_0  1  0.12435900  0.16661550  0.33330750  1
  S  S1_1  1  0.12435900  0.16661550  0.83330750  1
  S  S1_2  1  0.12435900  0.66661550  0.33330750  1
  S  S1_3  1  0.12435900  0.66661550  0.83330750  1
  S  S1_4  1  0.62435900  0.16661550  0.33330750  1
  S  S1_5  1  0.62435900  0.16661550  0.83330750  1
  S  S1_6  1  0.62435900  0.66661550  0.33330750  1
  S  S1_7  1  0.62435900  0.66661550  0.83330750  1
  S  S2_0  1  0.37752450  0.02759450  0.34977450  1
  S  S2_1  1  0.37752450  0.02759450  0.84977450  1
  S  S2_2  1  0.37752450  0.52759450  0.34977450  1
  S  S2_3  1  0.37752450  0.52759450  0.84977450  1
  S  S2_4  1  0.87752450  0.02759450  0.34977450  1
  S  S2_5  1  0.87752450  0.02759450  0.84977450  1
  S  S2_6  1  0.87752450  0.52759450  0.34977450  1
  S  S2_7  1  0.87752450  0.52759450  0.84977450  1
  S  S3_0  1  0.37739450  0.15019100  0.17799250  1
  S  S3_1  1  0.37739450  0.15019100  0.67799250  1
  S  S3_2  1  0.37739450  0.65019100  0.17799250  1
  S  S3_3  1  0.37739450  0.65019100  0.67799250  1
  S  S3_4  1  0.87739450  0.15019100  0.17799250  1
  S  S3_5  1  0.87739450  0.15019100  0.67799250  1
  S  S3_6  1  0.87739450  0.65019100  0.17799250  1
  S  S3_7  1  0.87739450  0.65019100  0.67799250  1
  S  S4_0  1  0.37750200  0.32212000  0.47226500  1
  S  S4_1  1  0.37750200  0.32212000  0.97226500  1
  S  S4_2  1  0.37750200  0.82212000  0.47226500  1
  S  S4_3  1  0.37750200  0.82212000  0.97226500  1
  S  S4_4  1  0.87750200  0.32212000  0.47226500  1
  S  S4_5  1  0.87750200  0.32212000  0.97226500  1
  S  S4_6  1  0.87750200  0.82212000  0.47226500  1
  S  S4_7  1  0.87750200  0.82212000  0.97226500  1
  S  S5_0  1  0.12247550  0.47240550  0.15022550  1
  S  S5_1  1  0.12247550  0.47240550  0.65022550  1
  S  S5_2  1  0.12247550  0.97240550  0.15022550  1
  S  S5_3  1  0.12247550  0.97240550  0.65022550  1
  S  S5_4  1  0.62247550  0.47240550  0.15022550  1
  S  S5_5  1  0.62247550  0.47240550  0.65022550  1
  S  S5_6  1  0.62247550  0.97240550  0.15022550  1
  S  S5_7  1  0.62247550  0.97240550  0.65022550  1
  S  S6_0  1  0.12260550  0.34980900  0.32200750  1
  S  S6_1  1  0.12260550  0.34980900  0.82200750  1
  S  S6_2  1  0.12260550  0.84980900  0.32200750  1
  S  S6_3  1  0.12260550  0.84980900  0.82200750  1
  S  S6_4  1  0.62260550  0.34980900  0.32200750  1
  S  S6_5  1  0.62260550  0.34980900  0.82200750  1
  S  S6_6  1  0.62260550  0.84980900  0.32200750  1
  S  S6_7  1  0.62260550  0.84980900  0.82200750  1
  S  S7_0  1  0.12249800  0.17788000  0.02773500  1
  S  S7_1  1  0.12249800  0.17788000  0.52773500  1
  S  S7_2  1  0.12249800  0.67788000  0.02773500  1
  S  S7_3  1  0.12249800  0.67788000  0.52773500  1
  S  S7_4  1  0.62249800  0.17788000  0.02773500  1
  S  S7_5  1  0.62249800  0.17788000  0.52773500  1
  S  S7_6  1  0.62249800  0.67788000  0.02773500  1
  S  S7_7  1  0.62249800  0.67788000  0.52773500  1
loop_
_geom_bond_atom_site_label_1
_geom_bond_atom_site_label_2
_geom_bond_distance
_geom_bond_site_symmetry_2
Cs0_0 S5_2 3.210924 1_545
Cs0_0 S2_1 3.210924 1_554
Cs0_0 S7_0 3.211116 1_555
Cs0_0 S4_3 3.211116 1_544
Cs0_0 S6_3 3.216769 1_544
Cs0_0 S3_0 3.216769 1_555
Cs0_0 Cs0_4 3.259493 1_455
Cs0_0 Cs0_4 3.259493 1_555
Cs0_1 S5_3 3.210924 1_545
Cs0_1 S2_0 3.210924 1_555
Cs0_1 S4_2 3.211116 1_545
Cs0_1 S7_1 3.211116 1_555
Cs0_1 S3_1 3.216769 1_555
Cs0_1 S6_2 3.216769 1_545
Cs0_1 Cs0_5 3.259493 1_555
Cs0_1 Cs0_5 3.259493 1_455
Cs0_2 S5_0 3.210924 1_555
Cs0_2 S2_3 3.210924 1_554
Cs0_2 S7_2 3.211116 1_555
Cs0_2 S4_1 3.211116 1_554
Cs0_2 S3_2 3.216769 1_555
Cs0_2 S6_1 3.216769 1_554
Cs0_2 Cs0_6 3.259493 1_555
Cs0_2 Cs0_6 3.259493 1_455
Cs0_3 S5_1 3.210924 1_555
Cs0_3 S2_2 3.210924 1_555
Cs0_3 S4_0 3.211116 1_555
Cs0_3 S7_3 3.211116 1_555
Cs0_3 S3_3 3.216769 1_555
Cs0_3 S6_0 3.216769 1_555
Cs0_3 Cs0_7 3.259493 1_555
Cs0_3 Cs0_7 3.259493 1_455
Cs0_4 S5_6 3.210924 1_545
Cs0_4 S2_5 3.210924 1_554
Cs0_4 S4_7 3.211116 1_544
Cs0_4 S7_4 3.211116 1_555
Cs0_4 S6_7 3.216769 1_544
Cs0_4 S3_4 3.216769 1_555
Cs0_5 S5_7 3.210924 1_545
Cs0_5 S2_4 3.210924 1_555
Cs0_5 S7_5 3.211116 1_555
Cs0_5 S4_6 3.211116 1_545
Cs0_5 S3_5 3.216769 1_555
Cs0_5 S6_6 3.216769 1_545
Cs0_6 S5_4 3.210924 1_555
Cs0_6 S2_7 3.210924 1_554
Cs0_6 S7_6 3.211116 1_555
Cs0_6 S4_5 3.211116 1_554
Cs0_6 S3_6 3.216769 1_555
Cs0_6 S6_5 3.216769 1_554
Cs0_7 S5_5 3.210924 1_555
Cs0_7 S2_6 3.210924 1_555
Cs0_7 S4_4 3.211116 1_555
Cs0_7 S7_7 3.211116 1_555
Cs0_7 S3_7 3.216769 1_555
Cs0_7 S6_4 3.216769 1_555
V0_0 V3_1 2.766725 1_555
V0_0 V3_5 2.784399 1_555
V0_1 V3_0 2.766725 1_556
V0_1 V3_4 2.784399 1_556
V0_2 V3_3 2.766725 1_555
V0_2 V3_7 2.784399 1_555
V0_3 V3_2 2.766725 1_556
V0_3 V3_6 2.784399 1_556
V0_4 V3_5 2.766725 1_555
V0_4 V3_1 2.784399 1_655
V0_5 V3_4 2.766725 1_556
V0_5 V3_0 2.784399 1_656
V0_6 V3_7 2.766725 1_555
V0_6 V3_3 2.784399 1_655
V0_7 V3_6 2.766725 1_556
V0_7 V3_2 2.784399 1_656
V1_0 V4_2 2.760300 1_545
V1_0 V4_6 2.778329 1_545
V1_1 V4_3 2.760300 1_545
V1_1 V4_7 2.778329 1_545
V1_2 V4_0 2.760300 1_555
V1_2 V4_4 2.778329 1_555
V1_3 V4_1 2.760300 1_555
V1_3 V4_5 2.778329 1_555
V1_4 V4_6 2.760300 1_545
V1_4 V4_2 2.778329 1_645
V1_5 V4_7 2.760300 1_545
V1_5 V4_3 2.778329 1_645
V1_6 V4_4 2.760300 1_555
V1_6 V4_0 2.778329 1_655
V1_7 V4_5 2.760300 1_555
V1_7 V4_1 2.778329 1_655
V2_0 V5_0 2.761604 1_555
V2_0 V5_4 2.779313 1_555
V2_1 V5_1 2.761604 1_555
V2_1 V5_5 2.779313 1_555
V2_2 V5_2 2.761604 1_555
V2_2 V5_6 2.779313 1_555
V2_3 V5_3 2.761604 1_555
V2_3 V5_7 2.779313 1_555
V2_4 V5_4 2.761604 1_555
V2_4 V5_0 2.779313 1_655
V2_5 V5_5 2.761604 1_555
V2_5 V5_1 2.779313 1_655
V2_6 V5_6 2.761604 1_555
V2_6 V5_2 2.779313 1_655
V2_7 V5_7 2.761604 1_555
V2_7 V5_3 2.779313 1_655
S0_0 V5_0 2.494449 1_555
S0_0 V3_0 2.495065 1_555
S0_0 V4_0 2.498597 1_555
S0_0 V5_4 2.498671 1_555
S0_0 V3_4 2.500491 1_555
S0_0 V4_4 2.502226 1_555
S0_1 V5_1 2.494449 1_555
S0_1 V3_1 2.495065 1_555
S0_1 V4_1 2.498597 1_555
S0_1 V5_5 2.498671 1_555
S0_1 V3_5 2.500491 1_555
S0_1 V4_5 2.502226 1_555
S0_2 V5_2 2.494449 1_555
S0_2 V3_2 2.495065 1_555
S0_2 V4_2 2.498597 1_555
S0_2 V5_6 2.498671 1_555
S0_2 V3_6 2.500491 1_555
S0_2 V4_6 2.502226 1_555
S0_3 V5_3 2.494449 1_555
S0_3 V3_3 2.495065 1_555
S0_3 V4_3 2.498597 1_555
S0_3 V5_7 2.498671 1_555
S0_3 V3_7 2.500491 1_555
S0_3 V4_7 2.502226 1_555
S0_4 V5_4 2.494449 1_555
S0_4 V3_4 2.495065 1_555
S0_4 V4_4 2.498597 1_555
S0_4 V5_0 2.498671 1_655
S0_4 V3_0 2.500491 1_655
S0_4 V4_0 2.502226 1_655
S0_5 V5_5 2.494449 1_555
S0_5 V3_5 2.495065 1_555
S0_5 V4_5 2.498597 1_555
S0_5 V5_1 2.498671 1_655
S0_5 V3_1 2.500491 1_655
S0_5 V4_1 2.502226 1_655
S0_6 V5_6 2.494449 1_555
S0_6 V3_6 2.495065 1_555
S0_6 V4_6 2.498597 1_555
S0_6 V5_2 2.498671 1_655
S0_6 V3_2 2.500491 1_655
S0_6 V4_2 2.502226 1_655
S0_7 V5_7 2.494449 1_555
S0_7 V3_7 2.495065 1_555
S0_7 V4_7 2.498597 1_555
S0_7 V5_3 2.498671 1_655
S0_7 V3_3 2.500491 1_655
S0_7 V4_3 2.502226 1_655
S1_0 V2_0 2.494449 1_555
S1_0 V0_0 2.495065 1_555
S1_0 V1_0 2.498597 1_555
S1_0 V2_4 2.498671 1_455
S1_0 V0_4 2.500491 1_455
S1_0 V1_4 2.502226 1_455
S1_1 V2_1 2.494449 1_555
S1_1 V0_1 2.495065 1_555
S1_1 V1_1 2.498597 1_555
S1_1 V2_5 2.498671 1_455
S1_1 V0_5 2.500491 1_455
S1_1 V1_5 2.502226 1_455
S1_2 V2_2 2.494449 1_555
S1_2 V0_2 2.495065 1_555
S1_2 V1_2 2.498597 1_555
S1_2 V2_6 2.498671 1_455
S1_2 V0_6 2.500491 1_455
S1_2 V1_6 2.502226 1_455
S1_3 V2_3 2.494449 1_555
S1_3 V0_3 2.495065 1_555
S1_3 V1_3 2.498597 1_555
S1_3 V2_7 2.498671 1_455
S1_3 V0_7 2.500491 1_455
S1_3 V1_7 2.502226 1_455
S1_4 V2_4 2.494449 1_555
S1_4 V0_4 2.495065 1_555
S1_4 V1_4 2.498597 1_555
S1_4 V2_0 2.498671 1_555
S1_4 V0_0 2.500491 1_555
S1_4 V1_0 2.502226 1_555
S1_5 V2_5 2.494449 1_555
S1_5 V0_5 2.495065 1_555
S1_5 V1_5 2.498597 1_555
S1_5 V2_1 2.498671 1_555
S1_5 V0_1 2.500491 1_555
S1_5 V1_1 2.502226 1_555
S1_6 V2_6 2.494449 1_555
S1_6 V0_6 2.495065 1_555
S1_6 V1_6 2.498597 1_555
S1_6 V2_2 2.498671 1_555
S1_6 V0_2 2.500491 1_555
S1_6 V1_2 2.502226 1_555
S1_7 V2_7 2.494449 1_555
S1_7 V0_7 2.495065 1_555
S1_7 V1_7 2.498597 1_555
S1_7 V2_3 2.498671 1_555
S1_7 V0_3 2.500491 1_555
S1_7 V1_3 2.502226 1_555
S2_0 V1_0 2.298627 1_555
S2_0 V4_6 2.331726 1_545
S2_0 V4_2 2.343390 1_545
S2_0 V0_0 2.603704 1_555
S2_1 V1_1 2.298627 1_555
S2_1 V4_7 2.331726 1_545
S2_1 V4_3 2.343390 1_545
S2_1 V0_1 2.603704 1_555
S2_2 V1_2 2.298627 1_555
S2_2 V4_4 2.331726 1_555
S2_2 V4_0 2.343390 1_555
S2_2 V0_2 2.603704 1_555
S2_3 V1_3 2.298627 1_555
S2_3 V4_5 2.331726 1_555
S2_3 V4_1 2.343390 1_555
S2_3 V0_3 2.603704 1_555
S2_4 V1_4 2.298627 1_555
S2_4 V4_2 2.331726 1_645
S2_4 V4_6 2.343390 1_545
S2_4 V0_4 2.603704 1_555
S2_5 V1_5 2.298627 1_555
S2_5 V4_3 2.331726 1_645
S2_5 V4_7 2.343390 1_545
S2_5 V0_5 2.603704 1_555
S2_6 V1_6 2.298627 1_555
S2_6 V4_0 2.331726 1_655
S2_6 V4_4 2.343390 1_555
S2_6 V0_6 2.603704 1_555
S2_7 V1_7 2.298627 1_555
S2_7 V4_1 2.331726 1_655
S2_7 V4_5 2.343390 1_555
S2_7 V0_7 2.603704 1_555
S3_0 V2_0 2.297746 1_555
S3_0 V5_4 2.333618 1_555
S3_0 V5_0 2.345575 1_555
S3_0 V1_0 2.597515 1_555
S3_1 V2_1 2.297746 1_555
S3_1 V5_5 2.333618 1_555
S3_1 V5_1 2.345575 1_555
S3_1 V1_1 2.597515 1_555
S3_2 V2_2 2.297746 1_555
S3_2 V5_6 2.333618 1_555
S3_2 V5_2 2.345575 1_555
S3_2 V1_2 2.597515 1_555
S3_3 V2_3 2.297746 1_555
S3_3 V5_7 2.333618 1_555
S3_3 V5_3 2.345575 1_555
S3_3 V1_3 2.597515 1_555
S3_4 V2_4 2.297746 1_555
S3_4 V5_0 2.333618 1_655
S3_4 V5_4 2.345575 1_555
S3_4 V1_4 2.597515 1_555
S3_5 V2_5 2.297746 1_555
S3_5 V5_1 2.333618 1_655
S3_5 V5_5 2.345575 1_555
S3_5 V1_5 2.597515 1_555
S3_6 V2_6 2.297746 1_555
S3_6 V5_2 2.333618 1_655
S3_6 V5_6 2.345575 1_555
S3_6 V1_6 2.597515 1_555
S3_7 V2_7 2.297746 1_555
S3_7 V5_3 2.333618 1_655
S3_7 V5_7 2.345575 1_555
S3_7 V1_7 2.597515 1_555
S4_0 V0_0 2.298616 1_555
S4_0 V3_5 2.333183 1_555
S4_0 V3_1 2.345333 1_555
S4_0 V2_0 2.604151 1_555
S4_1 V0_1 2.298616 1_555
S4_1 V3_4 2.333183 1_556
S4_1 V3_0 2.345333 1_556
S4_1 V2_1 2.604151 1_555
S4_2 V0_2 2.298616 1_555
S4_2 V3_7 2.333183 1_555
S4_2 V3_3 2.345333 1_555
S4_2 V2_2 2.604151 1_555
S4_3 V0_3 2.298616 1_555
S4_3 V3_6 2.333183 1_556
S4_3 V3_2 2.345333 1_556
S4_3 V2_3 2.604151 1_555
S4_4 V0_4 2.298616 1_555
S4_4 V3_1 2.333183 1_655
S4_4 V3_5 2.345333 1_555
S4_4 V2_4 2.604151 1_555
S4_5 V0_5 2.298616 1_555
S4_5 V3_0 2.333183 1_656
S4_5 V3_4 2.345333 1_556
S4_5 V2_5 2.604151 1_555
S4_6 V0_6 2.298616 1_555
S4_6 V3_3 2.333183 1_655
S4_6 V3_7 2.345333 1_555
S4_6 V2_6 2.604151 1_555
S4_7 V0_7 2.298616 1_555
S4_7 V3_2 2.333183 1_656
S4_7 V3_6 2.345333 1_556
S4_7 V2_7 2.604151 1_555
S5_0 V4_0 2.298627 1_555
S5_0 V1_6 2.331726 1_455
S5_0 V1_2 2.343390 1_555
S5_0 V3_0 2.603704 1_555
S5_1 V4_1 2.298627 1_555
S5_1 V1_7 2.331726 1_455
S5_1 V1_3 2.343390 1_555
S5_1 V3_1 2.603704 1_555
S5_2 V4_2 2.298627 1_555
S5_2 V1_4 2.331726 1_465
S5_2 V1_0 2.343390 1_565
S5_2 V3_2 2.603704 1_555
S5_3 V4_3 2.298627 1_555
S5_3 V1_5 2.331726 1_465
S5_3 V1_1 2.343390 1_565
S5_3 V3_3 2.603704 1_555
S5_4 V4_4 2.298627 1_555
S5_4 V1_2 2.331726 1_555
S5_4 V1_6 2.343390 1_555
S5_4 V3_4 2.603704 1_555
S5_5 V4_5 2.298627 1_555
S5_5 V1_3 2.331726 1_555
S5_5 V1_7 2.343390 1_555
S5_5 V3_5 2.603704 1_555
S5_6 V4_6 2.298627 1_555
S5_6 V1_0 2.331726 1_565
S5_6 V1_4 2.343390 1_565
S5_6 V3_6 2.603704 1_555
S5_7 V4_7 2.298627 1_555
S5_7 V1_1 2.331726 1_565
S5_7 V1_5 2.343390 1_565
S5_7 V3_7 2.603704 1_555
S6_0 V5_0 2.297746 1_555
S6_0 V2_4 2.333618 1_455
S6_0 V2_0 2.345575 1_555
S6_0 V4_0 2.597515 1_555
S6_1 V5_1 2.297746 1_555
S6_1 V2_5 2.333618 1_455
S6_1 V2_1 2.345575 1_555
S6_1 V4_1 2.597515 1_555
S6_2 V5_2 2.297746 1_555
S6_2 V2_6 2.333618 1_455
S6_2 V2_2 2.345575 1_555
S6_2 V4_2 2.597515 1_555
S6_3 V5_3 2.297746 1_555
S6_3 V2_7 2.333618 1_455
S6_3 V2_3 2.345575 1_555
S6_3 V4_3 2.597515 1_555
S6_4 V5_4 2.297746 1_555
S6_4 V2_0 2.333618 1_555
S6_4 V2_4 2.345575 1_555
S6_4 V4_4 2.597515 1_555
S6_5 V5_5 2.297746 1_555
S6_5 V2_1 2.333618 1_555
S6_5 V2_5 2.345575 1_555
S6_5 V4_5 2.597515 1_555
S6_6 V5_6 2.297746 1_555
S6_6 V2_2 2.333618 1_555
S6_6 V2_6 2.345575 1_555
S6_6 V4_6 2.597515 1_555
S6_7 V5_7 2.297746 1_555
S6_7 V2_3 2.333618 1_555
S6_7 V2_7 2.345575 1_555
S6_7 V4_7 2.597515 1_555
S7_0 V3_0 2.298616 1_555
S7_0 V0_5 2.333183 1_454
S7_0 V0_1 2.345333 1_554
S7_0 V5_0 2.604151 1_555
S7_1 V3_1 2.298616 1_555
S7_1 V0_4 2.333183 1_455
S7_1 V0_0 2.345333 1_555
S7_1 V5_1 2.604151 1_555
S7_2 V3_2 2.298616 1_555
S7_2 V0_7 2.333183 1_454
S7_2 V0_3 2.345333 1_554
S7_2 V5_2 2.604151 1_555
S7_3 V3_3 2.298616 1_555
S7_3 V0_6 2.333183 1_455
S7_3 V0_2 2.345333 1_555
S7_3 V5_3 2.604151 1_555
S7_4 V3_4 2.298616 1_555
S7_4 V0_1 2.333183 1_554
S7_4 V0_5 2.345333 1_554
S7_4 V5_4 2.604151 1_555
S7_5 V3_5 2.298616 1_555
S7_5 V0_0 2.333183 1_555
S7_5 V0_4 2.345333 1_555
S7_5 V5_5 2.604151 1_555
S7_6 V3_6 2.298616 1_555
S7_6 V0_3 2.333183 1_554
S7_6 V0_7 2.345333 1_554
S7_6 V5_6 2.604151 1_555
S7_7 V3_7 2.298616 1_555
S7_7 V0_2 2.333183 1_555
S7_7 V0_6 2.345333 1_555
S7_7 V5_7 2.604151 1_555
