# generated using pymatgen
data_TaTe4Os
_symmetry_space_group_name_H-M   'P 1'
_cell_length_a   7.54624400
_cell_length_b   25.13675200
_cell_length_c   27.51402400
_cell_angle_alpha   90.00000000
_cell_angle_beta   90.00000000
_cell_angle_gamma   90.00000000
_symmetry_Int_Tables_number   1
_chemical_formula_structural   TaTe4Os
_chemical_formula_sum   'Ta32 Te128 Os32'
_cell_volume   5219.08194429
_cell_formula_units_Z   32
loop_
 _symmetry_equiv_pos_site_id
 _symmetry_equiv_pos_as_xyz
  1  'x, y, z'
loop_
 _atom_site_type_symbol
 _atom_site_label
 _atom_site_symmetry_multiplicity
 _atom_site_fract_x
 _atom_site_fract_y
 _atom_site_fract_z
 _atom_site_occupancy
  Ta  Ta0_0  1  0.25000000  0.47021950  0.25295850  1
  Ta  Ta0_1  1  0.25000000  0.47021950  0.75295850  1
  Ta  Ta0_2  1  0.25000000  0.97021950  0.25295850  1
  Ta  Ta0_3  1  0.25000000  0.97021950  0.75295850  1
  Ta  Ta0_4  1  0.75000000  0.47021950  0.25295850  1
  Ta  Ta0_5  1  0.75000000  0.47021950  0.75295850  1
  Ta  Ta0_6  1  0.75000000  0.97021950  0.25295850  1
  Ta  Ta0_7  1  0.75000000  0.97021950  0.75295850  1
  Ta  Ta1_0  1  0.00000000  0.02978050  0.00295850  1
  Ta  Ta1_1  1  0.00000000  0.02978050  0.50295850  1
  Ta  Ta1_2  1  0.00000000  0.52978050  0.00295850  1
  Ta  Ta1_3  1  0.00000000  0.52978050  0.50295850  1
  Ta  Ta1_4  1  0.50000000  0.02978050  0.00295850  1
  Ta  Ta1_5  1  0.50000000  0.02978050  0.50295850  1
  Ta  Ta1_6  1  0.50000000  0.52978050  0.00295850  1
  Ta  Ta1_7  1  0.50000000  0.52978050  0.50295850  1
  Ta  Ta2_0  1  0.25000000  0.36196550  0.49475450  1
  Ta  Ta2_1  1  0.25000000  0.36196550  0.99475450  1
  Ta  Ta2_2  1  0.25000000  0.86196550  0.49475450  1
  Ta  Ta2_3  1  0.25000000  0.86196550  0.99475450  1
  Ta  Ta2_4  1  0.75000000  0.36196550  0.49475450  1
  Ta  Ta2_5  1  0.75000000  0.36196550  0.99475450  1
  Ta  Ta2_6  1  0.75000000  0.86196550  0.49475450  1
  Ta  Ta2_7  1  0.75000000  0.86196550  0.99475450  1
  Ta  Ta3_0  1  0.00000000  0.13803450  0.24475450  1
  Ta  Ta3_1  1  0.00000000  0.13803450  0.74475450  1
  Ta  Ta3_2  1  0.00000000  0.63803450  0.24475450  1
  Ta  Ta3_3  1  0.00000000  0.63803450  0.74475450  1
  Ta  Ta3_4  1  0.50000000  0.13803450  0.24475450  1
  Ta  Ta3_5  1  0.50000000  0.13803450  0.74475450  1
  Ta  Ta3_6  1  0.50000000  0.63803450  0.24475450  1
  Ta  Ta3_7  1  0.50000000  0.63803450  0.74475450  1
  Te  Te0_0  1  0.25000000  0.46721800  0.44816250  1
  Te  Te0_1  1  0.25000000  0.46721800  0.94816250  1
  Te  Te0_2  1  0.25000000  0.96721800  0.44816250  1
  Te  Te0_3  1  0.25000000  0.96721800  0.94816250  1
  Te  Te0_4  1  0.75000000  0.46721800  0.44816250  1
  Te  Te0_5  1  0.75000000  0.46721800  0.94816250  1
  Te  Te0_6  1  0.75000000  0.96721800  0.44816250  1
  Te  Te0_7  1  0.75000000  0.96721800  0.94816250  1
  Te  Te1_0  1  0.00000000  0.03278200  0.19816250  1
  Te  Te1_1  1  0.00000000  0.03278200  0.69816250  1
  Te  Te1_2  1  0.00000000  0.53278200  0.19816250  1
  Te  Te1_3  1  0.00000000  0.53278200  0.69816250  1
  Te  Te1_4  1  0.50000000  0.03278200  0.19816250  1
  Te  Te1_5  1  0.50000000  0.03278200  0.69816250  1
  Te  Te1_6  1  0.50000000  0.53278200  0.19816250  1
  Te  Te1_7  1  0.50000000  0.53278200  0.69816250  1
  Te  Te2_0  1  0.25000000  0.40163450  0.17702350  1
  Te  Te2_1  1  0.25000000  0.40163450  0.67702350  1
  Te  Te2_2  1  0.25000000  0.90163450  0.17702350  1
  Te  Te2_3  1  0.25000000  0.90163450  0.67702350  1
  Te  Te2_4  1  0.75000000  0.40163450  0.17702350  1
  Te  Te2_5  1  0.75000000  0.40163450  0.67702350  1
  Te  Te2_6  1  0.75000000  0.90163450  0.17702350  1
  Te  Te2_7  1  0.75000000  0.90163450  0.67702350  1
  Te  Te3_0  1  0.00000000  0.09836550  0.42702350  1
  Te  Te3_1  1  0.00000000  0.09836550  0.92702350  1
  Te  Te3_2  1  0.00000000  0.59836550  0.42702350  1
  Te  Te3_3  1  0.00000000  0.59836550  0.92702350  1
  Te  Te3_4  1  0.50000000  0.09836550  0.42702350  1
  Te  Te3_5  1  0.50000000  0.09836550  0.92702350  1
  Te  Te3_6  1  0.50000000  0.59836550  0.42702350  1
  Te  Te3_7  1  0.50000000  0.59836550  0.92702350  1
  Te  Te4_0  1  0.25000000  0.32629350  0.29535600  1
  Te  Te4_1  1  0.25000000  0.32629350  0.79535600  1
  Te  Te4_2  1  0.25000000  0.82629350  0.29535600  1
  Te  Te4_3  1  0.25000000  0.82629350  0.79535600  1
  Te  Te4_4  1  0.75000000  0.32629350  0.29535600  1
  Te  Te4_5  1  0.75000000  0.32629350  0.79535600  1
  Te  Te4_6  1  0.75000000  0.82629350  0.29535600  1
  Te  Te4_7  1  0.75000000  0.82629350  0.79535600  1
  Te  Te5_0  1  0.00000000  0.17370650  0.04535600  1
  Te  Te5_1  1  0.00000000  0.17370650  0.54535600  1
  Te  Te5_2  1  0.00000000  0.67370650  0.04535600  1
  Te  Te5_3  1  0.00000000  0.67370650  0.54535600  1
  Te  Te5_4  1  0.50000000  0.17370650  0.04535600  1
  Te  Te5_5  1  0.50000000  0.17370650  0.54535600  1
  Te  Te5_6  1  0.50000000  0.67370650  0.04535600  1
  Te  Te5_7  1  0.50000000  0.67370650  0.54535600  1
  Te  Te6_0  1  0.25000000  0.29167750  0.06887000  1
  Te  Te6_1  1  0.25000000  0.29167750  0.56887000  1
  Te  Te6_2  1  0.25000000  0.79167750  0.06887000  1
  Te  Te6_3  1  0.25000000  0.79167750  0.56887000  1
  Te  Te6_4  1  0.75000000  0.29167750  0.06887000  1
  Te  Te6_5  1  0.75000000  0.29167750  0.56887000  1
  Te  Te6_6  1  0.75000000  0.79167750  0.06887000  1
  Te  Te6_7  1  0.75000000  0.79167750  0.56887000  1
  Te  Te7_0  1  0.00000000  0.20832250  0.31887000  1
  Te  Te7_1  1  0.00000000  0.20832250  0.81887000  1
  Te  Te7_2  1  0.00000000  0.70832250  0.31887000  1
  Te  Te7_3  1  0.00000000  0.70832250  0.81887000  1
  Te  Te7_4  1  0.50000000  0.20832250  0.31887000  1
  Te  Te7_5  1  0.50000000  0.20832250  0.81887000  1
  Te  Te7_6  1  0.50000000  0.70832250  0.31887000  1
  Te  Te7_7  1  0.50000000  0.70832250  0.81887000  1
  Te  Te8_0  1  0.25000000  0.21755050  0.45018900  1
  Te  Te8_1  1  0.25000000  0.21755050  0.95018900  1
  Te  Te8_2  1  0.25000000  0.71755050  0.45018900  1
  Te  Te8_3  1  0.25000000  0.71755050  0.95018900  1
  Te  Te8_4  1  0.75000000  0.21755050  0.45018900  1
  Te  Te8_5  1  0.75000000  0.21755050  0.95018900  1
  Te  Te8_6  1  0.75000000  0.71755050  0.45018900  1
  Te  Te8_7  1  0.75000000  0.71755050  0.95018900  1
  Te  Te9_0  1  0.00000000  0.28244950  0.20018900  1
  Te  Te9_1  1  0.00000000  0.28244950  0.70018900  1
  Te  Te9_2  1  0.00000000  0.78244950  0.20018900  1
  Te  Te9_3  1  0.00000000  0.78244950  0.70018900  1
  Te  Te9_4  1  0.50000000  0.28244950  0.20018900  1
  Te  Te9_5  1  0.50000000  0.28244950  0.70018900  1
  Te  Te9_6  1  0.50000000  0.78244950  0.20018900  1
  Te  Te9_7  1  0.50000000  0.78244950  0.70018900  1
  Te  Te10_0  1  0.25000000  0.16180700  0.17402900  1
  Te  Te10_1  1  0.25000000  0.16180700  0.67402900  1
  Te  Te10_2  1  0.25000000  0.66180700  0.17402900  1
  Te  Te10_3  1  0.25000000  0.66180700  0.67402900  1
  Te  Te10_4  1  0.75000000  0.16180700  0.17402900  1
  Te  Te10_5  1  0.75000000  0.16180700  0.67402900  1
  Te  Te10_6  1  0.75000000  0.66180700  0.17402900  1
  Te  Te10_7  1  0.75000000  0.66180700  0.67402900  1
  Te  Te11_0  1  0.00000000  0.33819300  0.42402900  1
  Te  Te11_1  1  0.00000000  0.33819300  0.92402900  1
  Te  Te11_2  1  0.00000000  0.83819300  0.42402900  1
  Te  Te11_3  1  0.00000000  0.83819300  0.92402900  1
  Te  Te11_4  1  0.50000000  0.33819300  0.42402900  1
  Te  Te11_5  1  0.50000000  0.33819300  0.92402900  1
  Te  Te11_6  1  0.50000000  0.83819300  0.42402900  1
  Te  Te11_7  1  0.50000000  0.83819300  0.92402900  1
  Te  Te12_0  1  0.25000000  0.07549950  0.30097550  1
  Te  Te12_1  1  0.25000000  0.07549950  0.80097550  1
  Te  Te12_2  1  0.25000000  0.57549950  0.30097550  1
  Te  Te12_3  1  0.25000000  0.57549950  0.80097550  1
  Te  Te12_4  1  0.75000000  0.07549950  0.30097550  1
  Te  Te12_5  1  0.75000000  0.07549950  0.80097550  1
  Te  Te12_6  1  0.75000000  0.57549950  0.30097550  1
  Te  Te12_7  1  0.75000000  0.57549950  0.80097550  1
  Te  Te13_0  1  0.00000000  0.42450050  0.05097550  1
  Te  Te13_1  1  0.00000000  0.42450050  0.55097550  1
  Te  Te13_2  1  0.00000000  0.92450050  0.05097550  1
  Te  Te13_3  1  0.00000000  0.92450050  0.55097550  1
  Te  Te13_4  1  0.50000000  0.42450050  0.05097550  1
  Te  Te13_5  1  0.50000000  0.42450050  0.55097550  1
  Te  Te13_6  1  0.50000000  0.92450050  0.05097550  1
  Te  Te13_7  1  0.50000000  0.92450050  0.55097550  1
  Te  Te14_0  1  0.25000000  0.05377200  0.07357350  1
  Te  Te14_1  1  0.25000000  0.05377200  0.57357350  1
  Te  Te14_2  1  0.25000000  0.55377200  0.07357350  1
  Te  Te14_3  1  0.25000000  0.55377200  0.57357350  1
  Te  Te14_4  1  0.75000000  0.05377200  0.07357350  1
  Te  Te14_5  1  0.75000000  0.05377200  0.57357350  1
  Te  Te14_6  1  0.75000000  0.55377200  0.07357350  1
  Te  Te14_7  1  0.75000000  0.55377200  0.57357350  1
  Te  Te15_0  1  0.00000000  0.44622800  0.32357350  1
  Te  Te15_1  1  0.00000000  0.44622800  0.82357350  1
  Te  Te15_2  1  0.00000000  0.94622800  0.32357350  1
  Te  Te15_3  1  0.00000000  0.94622800  0.82357350  1
  Te  Te15_4  1  0.50000000  0.44622800  0.32357350  1
  Te  Te15_5  1  0.50000000  0.44622800  0.82357350  1
  Te  Te15_6  1  0.50000000  0.94622800  0.32357350  1
  Te  Te15_7  1  0.50000000  0.94622800  0.82357350  1
  Os  Os0_0  1  0.25000000  0.22706850  0.25156850  1
  Os  Os0_1  1  0.25000000  0.22706850  0.75156850  1
  Os  Os0_2  1  0.25000000  0.72706850  0.25156850  1
  Os  Os0_3  1  0.25000000  0.72706850  0.75156850  1
  Os  Os0_4  1  0.75000000  0.22706850  0.25156850  1
  Os  Os0_5  1  0.75000000  0.22706850  0.75156850  1
  Os  Os0_6  1  0.75000000  0.72706850  0.25156850  1
  Os  Os0_7  1  0.75000000  0.72706850  0.75156850  1
  Os  Os1_0  1  0.00000000  0.27293150  0.00156850  1
  Os  Os1_1  1  0.00000000  0.27293150  0.50156850  1
  Os  Os1_2  1  0.00000000  0.77293150  0.00156850  1
  Os  Os1_3  1  0.00000000  0.77293150  0.50156850  1
  Os  Os1_4  1  0.50000000  0.27293150  0.00156850  1
  Os  Os1_5  1  0.50000000  0.27293150  0.50156850  1
  Os  Os1_6  1  0.50000000  0.77293150  0.00156850  1
  Os  Os1_7  1  0.50000000  0.77293150  0.50156850  1
  Os  Os2_0  1  0.25000000  0.11804200  0.49454000  1
  Os  Os2_1  1  0.25000000  0.11804200  0.99454000  1
  Os  Os2_2  1  0.25000000  0.61804200  0.49454000  1
  Os  Os2_3  1  0.25000000  0.61804200  0.99454000  1
  Os  Os2_4  1  0.75000000  0.11804200  0.49454000  1
  Os  Os2_5  1  0.75000000  0.11804200  0.99454000  1
  Os  Os2_6  1  0.75000000  0.61804200  0.49454000  1
  Os  Os2_7  1  0.75000000  0.61804200  0.99454000  1
  Os  Os3_0  1  0.00000000  0.38195800  0.24454000  1
  Os  Os3_1  1  0.00000000  0.38195800  0.74454000  1
  Os  Os3_2  1  0.00000000  0.88195800  0.24454000  1
  Os  Os3_3  1  0.00000000  0.88195800  0.74454000  1
  Os  Os3_4  1  0.50000000  0.38195800  0.24454000  1
  Os  Os3_5  1  0.50000000  0.38195800  0.74454000  1
  Os  Os3_6  1  0.50000000  0.88195800  0.24454000  1
  Os  Os3_7  1  0.50000000  0.88195800  0.74454000  1
loop_
_geom_bond_atom_site_label_1
_geom_bond_atom_site_label_2
_geom_bond_distance
_geom_bond_site_symmetry_2
Ta0_0 Te2_0 2.708740 1_555
Ta0_0 Te15_4 2.774468 1_555
Ta0_0 Te15_0 2.774468 1_555
Ta0_0 Te1_6 2.881887 1_555
Ta0_0 Te1_2 2.881887 1_555
Ta0_0 Te12_2 2.957842 1_555
Ta0_1 Te2_1 2.708740 1_555
Ta0_1 Te15_5 2.774468 1_555
Ta0_1 Te15_1 2.774468 1_555
Ta0_1 Te1_3 2.881887 1_555
Ta0_1 Te1_7 2.881887 1_555
Ta0_1 Te12_3 2.957842 1_555
Ta0_2 Te2_2 2.708740 1_555
Ta0_2 Te15_2 2.774468 1_555
Ta0_2 Te15_6 2.774468 1_555
Ta0_2 Te1_0 2.881887 1_565
Ta0_2 Te1_4 2.881887 1_565
Ta0_2 Te12_0 2.957842 1_565
Ta0_3 Te2_3 2.708740 1_555
Ta0_3 Te15_7 2.774468 1_555
Ta0_3 Te15_3 2.774468 1_555
Ta0_3 Te1_5 2.881887 1_565
Ta0_3 Te1_1 2.881887 1_565
Ta0_3 Te12_1 2.957842 1_565
Ta0_4 Te2_4 2.708740 1_555
Ta0_4 Te15_4 2.774468 1_555
Ta0_4 Te15_0 2.774468 1_655
Ta0_4 Te1_6 2.881887 1_555
Ta0_4 Te1_2 2.881887 1_655
Ta0_4 Te12_6 2.957842 1_555
Ta0_5 Te2_5 2.708740 1_555
Ta0_5 Te15_1 2.774468 1_655
Ta0_5 Te15_5 2.774468 1_555
Ta0_5 Te1_3 2.881887 1_655
Ta0_5 Te1_7 2.881887 1_555
Ta0_5 Te12_7 2.957842 1_555
Ta0_6 Te2_6 2.708740 1_555
Ta0_6 Te15_6 2.774468 1_555
Ta0_6 Te15_2 2.774468 1_655
Ta0_6 Te1_0 2.881887 1_665
Ta0_6 Te1_4 2.881887 1_565
Ta0_6 Te12_4 2.957842 1_565
Ta0_7 Te2_7 2.708740 1_555
Ta0_7 Te15_3 2.774468 1_655
Ta0_7 Te15_7 2.774468 1_555
Ta0_7 Te1_5 2.881887 1_565
Ta0_7 Te1_1 2.881887 1_665
Ta0_7 Te12_5 2.957842 1_565
Ta1_0 Te3_1 2.708740 1_554
Ta1_0 Te14_0 2.774468 1_555
Ta1_0 Te14_4 2.774468 1_455
Ta1_0 Te0_7 2.881887 1_444
Ta1_0 Te0_3 2.881887 1_544
Ta1_0 Te13_2 2.957842 1_545
Ta1_1 Te3_0 2.708740 1_555
Ta1_1 Te14_5 2.774468 1_455
Ta1_1 Te14_1 2.774468 1_555
Ta1_1 Te0_2 2.881887 1_545
Ta1_1 Te0_6 2.881887 1_445
Ta1_1 Te13_3 2.957842 1_545
Ta1_2 Te3_3 2.708740 1_554
Ta1_2 Te14_6 2.774468 1_455
Ta1_2 Te14_2 2.774468 1_555
Ta1_2 Te0_1 2.881887 1_554
Ta1_2 Te0_5 2.881887 1_454
Ta1_2 Te13_0 2.957842 1_555
Ta1_3 Te3_2 2.708740 1_555
Ta1_3 Te14_3 2.774468 1_555
Ta1_3 Te14_7 2.774468 1_455
Ta1_3 Te0_4 2.881887 1_455
Ta1_3 Te0_0 2.881887 1_555
Ta1_3 Te13_1 2.957842 1_555
Ta1_4 Te3_5 2.708740 1_554
Ta1_4 Te14_0 2.774468 1_555
Ta1_4 Te14_4 2.774468 1_555
Ta1_4 Te0_7 2.881887 1_544
Ta1_4 Te0_3 2.881887 1_544
Ta1_4 Te13_6 2.957842 1_545
Ta1_5 Te3_4 2.708740 1_555
Ta1_5 Te14_1 2.774468 1_555
Ta1_5 Te14_5 2.774468 1_555
Ta1_5 Te0_2 2.881887 1_545
Ta1_5 Te0_6 2.881887 1_545
Ta1_5 Te13_7 2.957842 1_545
Ta1_6 Te3_7 2.708740 1_554
Ta1_6 Te14_2 2.774468 1_555
Ta1_6 Te14_6 2.774468 1_555
Ta1_6 Te0_1 2.881887 1_554
Ta1_6 Te0_5 2.881887 1_554
Ta1_6 Te13_4 2.957842 1_555
Ta1_7 Te3_6 2.708740 1_555
Ta1_7 Te14_3 2.774468 1_555
Ta1_7 Te14_7 2.774468 1_555
Ta1_7 Te0_0 2.881887 1_555
Ta1_7 Te0_4 2.881887 1_555
Ta1_7 Te13_5 2.957842 1_555
Ta2_0 Te6_1 2.698152 1_555
Ta2_0 Te11_4 2.775408 1_555
Ta2_0 Te11_0 2.775408 1_555
Ta2_0 Te13_5 2.902216 1_555
Ta2_0 Te13_1 2.902216 1_555
Ta2_0 Te0_0 2.939917 1_555
Ta2_1 Te6_0 2.698152 1_556
Ta2_1 Te11_1 2.775408 1_555
Ta2_1 Te11_5 2.775408 1_555
Ta2_1 Te13_0 2.902216 1_556
Ta2_1 Te13_4 2.902216 1_556
Ta2_1 Te0_1 2.939917 1_555
Ta2_2 Te6_3 2.698152 1_555
Ta2_2 Te11_2 2.775408 1_555
Ta2_2 Te11_6 2.775408 1_555
Ta2_2 Te13_3 2.902216 1_555
Ta2_2 Te13_7 2.902216 1_555
Ta2_2 Te0_2 2.939917 1_555
Ta2_3 Te6_2 2.698152 1_556
Ta2_3 Te11_3 2.775408 1_555
Ta2_3 Te11_7 2.775408 1_555
Ta2_3 Te13_6 2.902216 1_556
Ta2_3 Te13_2 2.902216 1_556
Ta2_3 Te0_3 2.939917 1_555
Ta2_4 Te6_5 2.698152 1_555
Ta2_4 Te11_4 2.775408 1_555
Ta2_4 Te11_0 2.775408 1_655
Ta2_4 Te13_1 2.902216 1_655
Ta2_4 Te13_5 2.902216 1_555
Ta2_4 Te0_4 2.939917 1_555
Ta2_5 Te6_4 2.698152 1_556
Ta2_5 Te11_5 2.775408 1_555
Ta2_5 Te11_1 2.775408 1_655
Ta2_5 Te13_4 2.902216 1_556
Ta2_5 Te13_0 2.902216 1_656
Ta2_5 Te0_5 2.939917 1_555
Ta2_6 Te6_7 2.698152 1_555
Ta2_6 Te11_6 2.775408 1_555
Ta2_6 Te11_2 2.775408 1_655
Ta2_6 Te13_3 2.902216 1_655
Ta2_6 Te13_7 2.902216 1_555
Ta2_6 Te0_6 2.939917 1_555
Ta2_7 Te6_6 2.698152 1_556
Ta2_7 Te11_3 2.775408 1_655
Ta2_7 Te11_7 2.775408 1_555
Ta2_7 Te13_6 2.902216 1_556
Ta2_7 Te13_2 2.902216 1_656
Ta2_7 Te0_7 2.939917 1_555
Ta3_0 Te7_0 2.698152 1_555
Ta3_0 Te10_4 2.775408 1_455
Ta3_0 Te10_0 2.775408 1_555
Ta3_0 Te12_0 2.902216 1_555
Ta3_0 Te12_4 2.902216 1_455
Ta3_0 Te1_0 2.939917 1_555
Ta3_1 Te7_1 2.698152 1_555
Ta3_1 Te10_5 2.775408 1_455
Ta3_1 Te10_1 2.775408 1_555
Ta3_1 Te12_1 2.902216 1_555
Ta3_1 Te12_5 2.902216 1_455
Ta3_1 Te1_1 2.939917 1_555
Ta3_2 Te7_2 2.698152 1_555
Ta3_2 Te10_2 2.775408 1_555
Ta3_2 Te10_6 2.775408 1_455
Ta3_2 Te12_6 2.902216 1_455
Ta3_2 Te12_2 2.902216 1_555
Ta3_2 Te1_2 2.939917 1_555
Ta3_3 Te7_3 2.698152 1_555
Ta3_3 Te10_3 2.775408 1_555
Ta3_3 Te10_7 2.775408 1_455
Ta3_3 Te12_3 2.902216 1_555
Ta3_3 Te12_7 2.902216 1_455
Ta3_3 Te1_3 2.939917 1_555
Ta3_4 Te7_4 2.698152 1_555
Ta3_4 Te10_4 2.775408 1_555
Ta3_4 Te10_0 2.775408 1_555
Ta3_4 Te12_4 2.902216 1_555
Ta3_4 Te12_0 2.902216 1_555
Ta3_4 Te1_4 2.939917 1_555
Ta3_5 Te7_5 2.698152 1_555
Ta3_5 Te10_1 2.775408 1_555
Ta3_5 Te10_5 2.775408 1_555
Ta3_5 Te12_1 2.902216 1_555
Ta3_5 Te12_5 2.902216 1_555
Ta3_5 Te1_5 2.939917 1_555
Ta3_6 Te7_6 2.698152 1_555
Ta3_6 Te10_2 2.775408 1_555
Ta3_6 Te10_6 2.775408 1_555
Ta3_6 Te12_6 2.902216 1_555
Ta3_6 Te12_2 2.902216 1_555
Ta3_6 Te1_6 2.939917 1_555
Ta3_7 Te7_7 2.698152 1_555
Ta3_7 Te10_3 2.775408 1_555
Ta3_7 Te10_7 2.775408 1_555
Ta3_7 Te12_7 2.902216 1_555
Ta3_7 Te12_3 2.902216 1_555
Ta3_7 Te1_7 2.939917 1_555
Te0_0 Te13_5 3.565700 1_555
Te0_0 Te13_1 3.565700 1_555
Te0_0 Te0_4 3.773122 1_455
Te0_0 Te0_4 3.773122 1_555
Te0_0 Te11_0 3.810357 1_555
Te0_0 Te11_4 3.810357 1_555
Te0_0 Te3_6 3.842540 1_555
Te0_0 Te3_2 3.842540 1_555
Te0_0 Te15_4 3.948202 1_555
Te0_0 Te15_0 3.948202 1_555
Te0_1 Te13_0 3.565700 1_556
Te0_1 Te13_4 3.565700 1_556
Te0_1 Te0_5 3.773122 1_555
Te0_1 Te0_5 3.773122 1_455
Te0_1 Te11_1 3.810357 1_555
Te0_1 Te11_5 3.810357 1_555
Te0_1 Te3_3 3.842540 1_555
Te0_1 Te3_7 3.842540 1_555
Te0_1 Te15_1 3.948202 1_555
Te0_1 Te15_5 3.948202 1_555
Te0_2 Te13_3 3.565700 1_555
Te0_2 Te13_7 3.565700 1_555
Te0_2 Te0_6 3.773122 1_555
Te0_2 Te0_6 3.773122 1_455
Te0_2 Te11_2 3.810357 1_555
Te0_2 Te11_6 3.810357 1_555
Te0_2 Te3_0 3.842540 1_565
Te0_2 Te3_4 3.842540 1_565
Te0_2 Te15_6 3.948202 1_555
Te0_2 Te15_2 3.948202 1_555
Te0_3 Te13_2 3.565700 1_556
Te0_3 Te13_6 3.565700 1_556
Te0_3 Te0_7 3.773122 1_455
Te0_3 Te0_7 3.773122 1_555
Te0_3 Te11_3 3.810357 1_555
Te0_3 Te11_7 3.810357 1_555
Te0_3 Te3_1 3.842540 1_565
Te0_3 Te3_5 3.842540 1_565
Te0_3 Te15_7 3.948202 1_555
Te0_3 Te15_3 3.948202 1_555
Te0_4 Te13_5 3.565700 1_555
Te0_4 Te13_1 3.565700 1_655
Te0_4 Te11_4 3.810357 1_555
Te0_4 Te11_0 3.810357 1_655
Te0_4 Te3_6 3.842540 1_555
Te0_4 Te3_2 3.842540 1_655
Te0_4 Te15_0 3.948202 1_655
Te0_4 Te15_4 3.948202 1_555
Te0_5 Te13_0 3.565700 1_656
Te0_5 Te13_4 3.565700 1_556
Te0_5 Te11_5 3.810357 1_555
Te0_5 Te11_1 3.810357 1_655
Te0_5 Te3_3 3.842540 1_655
Te0_5 Te3_7 3.842540 1_555
Te0_5 Te15_5 3.948202 1_555
Te0_5 Te15_1 3.948202 1_655
Te0_6 Te13_3 3.565700 1_655
Te0_6 Te13_7 3.565700 1_555
Te0_6 Te11_2 3.810357 1_655
Te0_6 Te11_6 3.810357 1_555
Te0_6 Te3_4 3.842540 1_565
Te0_6 Te3_0 3.842540 1_665
Te0_6 Te15_6 3.948202 1_555
Te0_6 Te15_2 3.948202 1_655
Te0_7 Te13_6 3.565700 1_556
Te0_7 Te13_2 3.565700 1_656
Te0_7 Te11_3 3.810357 1_655
Te0_7 Te11_7 3.810357 1_555
Te0_7 Te3_5 3.842540 1_565
Te0_7 Te3_1 3.842540 1_665
Te0_7 Te15_7 3.948202 1_555
Te0_7 Te15_3 3.948202 1_655
Te1_0 Te1_4 3.773122 1_455
Te1_0 Te1_4 3.773122 1_555
Te1_0 Te2_2 3.842540 1_545
Te1_0 Te2_6 3.842540 1_445
Te1_1 Te1_5 3.773122 1_455
Te1_1 Te1_5 3.773122 1_555
Te1_1 Te2_3 3.842540 1_545
Te1_1 Te2_7 3.842540 1_445
Te1_2 Te1_6 3.773122 1_555
Te1_2 Te1_6 3.773122 1_455
Te1_2 Te2_4 3.842540 1_455
Te1_2 Te2_0 3.842540 1_555
Te1_3 Te1_7 3.773122 1_555
Te1_3 Te1_7 3.773122 1_455
Te1_3 Te2_5 3.842540 1_455
Te1_3 Te2_1 3.842540 1_555
Te1_4 Te2_6 3.842540 1_545
Te1_4 Te2_2 3.842540 1_545
Te1_5 Te2_3 3.842540 1_545
Te1_5 Te2_7 3.842540 1_545
Te1_6 Te2_0 3.842540 1_555
Te1_6 Te2_4 3.842540 1_555
Te1_7 Te2_5 3.842540 1_555
Te1_7 Te2_1 3.842540 1_555
Te2_0 Te9_0 3.597349 1_555
Te2_0 Te9_4 3.597349 1_555
Te2_0 Te2_4 3.773122 1_455
Te2_0 Te2_4 3.773122 1_555
Te2_1 Te9_1 3.597349 1_555
Te2_1 Te9_5 3.597349 1_555
Te2_1 Te2_5 3.773122 1_555
Te2_1 Te2_5 3.773122 1_455
Te2_2 Te9_2 3.597349 1_555
Te2_2 Te9_6 3.597349 1_555
Te2_2 Te2_6 3.773122 1_555
Te2_2 Te2_6 3.773122 1_455
Te2_3 Te9_7 3.597349 1_555
Te2_3 Te9_3 3.597349 1_555
Te2_3 Te2_7 3.773122 1_455
Te2_3 Te2_7 3.773122 1_555
Te2_4 Te9_0 3.597349 1_655
Te2_4 Te9_4 3.597349 1_555
Te2_5 Te9_1 3.597349 1_655
Te2_5 Te9_5 3.597349 1_555
Te2_6 Te9_6 3.597349 1_555
Te2_6 Te9_2 3.597349 1_655
Te2_7 Te9_7 3.597349 1_555
Te2_7 Te9_3 3.597349 1_655
Te3_0 Te8_0 3.597349 1_555
Te3_0 Te8_4 3.597349 1_455
Te3_0 Te3_4 3.773122 1_455
Te3_0 Te3_4 3.773122 1_555
Te3_1 Te8_1 3.597349 1_555
Te3_1 Te8_5 3.597349 1_455
Te3_1 Te3_5 3.773122 1_555
Te3_1 Te3_5 3.773122 1_455
Te3_2 Te8_6 3.597349 1_455
Te3_2 Te8_2 3.597349 1_555
Te3_2 Te3_6 3.773122 1_455
Te3_2 Te3_6 3.773122 1_555
Te3_3 Te8_3 3.597349 1_555
Te3_3 Te8_7 3.597349 1_455
Te3_3 Te3_7 3.773122 1_555
Te3_3 Te3_7 3.773122 1_455
Te3_4 Te8_0 3.597349 1_555
Te3_4 Te8_4 3.597349 1_555
Te3_5 Te8_1 3.597349 1_555
Te3_5 Te8_5 3.597349 1_555
Te3_6 Te8_6 3.597349 1_555
Te3_6 Te8_2 3.597349 1_555
Te3_7 Te8_7 3.597349 1_555
Te3_7 Te8_3 3.597349 1_555
Te4_0 Te9_0 3.410262 1_555
Te4_0 Te9_4 3.410262 1_555
Te4_0 Te7_0 3.573698 1_555
Te4_0 Te7_4 3.573698 1_555
Te4_1 Te9_1 3.410262 1_555
Te4_1 Te9_5 3.410262 1_555
Te4_1 Te7_1 3.573698 1_555
Te4_1 Te7_5 3.573698 1_555
Te4_2 Te9_6 3.410262 1_555
Te4_2 Te9_2 3.410262 1_555
Te4_2 Te7_6 3.573698 1_555
Te4_2 Te7_2 3.573698 1_555
Te4_3 Te9_7 3.410262 1_555
Te4_3 Te9_3 3.410262 1_555
Te4_3 Te7_3 3.573698 1_555
Te4_3 Te7_7 3.573698 1_555
Te4_4 Te9_4 3.410262 1_555
Te4_4 Te9_0 3.410262 1_655
Te4_4 Te7_0 3.573698 1_655
Te4_4 Te7_4 3.573698 1_555
Te4_5 Te9_5 3.410262 1_555
Te4_5 Te9_1 3.410262 1_655
Te4_5 Te7_1 3.573698 1_655
Te4_5 Te7_5 3.573698 1_555
Te4_6 Te9_6 3.410262 1_555
Te4_6 Te9_2 3.410262 1_655
Te4_6 Te7_6 3.573698 1_555
Te4_6 Te7_2 3.573698 1_655
Te4_7 Te9_7 3.410262 1_555
Te4_7 Te9_3 3.410262 1_655
Te4_7 Te7_7 3.573698 1_555
Te4_7 Te7_3 3.573698 1_655
Te5_0 Te8_5 3.410262 1_454
Te5_0 Te8_1 3.410262 1_554
Te5_0 Te6_4 3.573698 1_455
Te5_0 Te6_0 3.573698 1_555
Te5_1 Te8_4 3.410262 1_455
Te5_1 Te8_0 3.410262 1_555
Te5_1 Te6_5 3.573698 1_455
Te5_1 Te6_1 3.573698 1_555
Te5_2 Te8_7 3.410262 1_454
Te5_2 Te8_3 3.410262 1_554
Te5_2 Te6_6 3.573698 1_455
Te5_2 Te6_2 3.573698 1_555
Te5_3 Te8_2 3.410262 1_555
Te5_3 Te8_6 3.410262 1_455
Te5_3 Te6_7 3.573698 1_455
Te5_3 Te6_3 3.573698 1_555
Te5_4 Te8_1 3.410262 1_554
Te5_4 Te8_5 3.410262 1_554
Te5_4 Te6_0 3.573698 1_555
Te5_4 Te6_4 3.573698 1_555
Te5_5 Te8_4 3.410262 1_555
Te5_5 Te8_0 3.410262 1_555
Te5_5 Te6_5 3.573698 1_555
Te5_5 Te6_1 3.573698 1_555
Te5_6 Te8_7 3.410262 1_554
Te5_6 Te8_3 3.410262 1_554
Te5_6 Te6_6 3.573698 1_555
Te5_6 Te6_2 3.573698 1_555
Te5_7 Te8_6 3.410262 1_555
Te5_7 Te8_2 3.410262 1_555
Te5_7 Te6_3 3.573698 1_555
Te5_7 Te6_7 3.573698 1_555
Te8_0 Te8_4 3.773122 1_455
Te8_0 Te8_4 3.773122 1_555
Te8_1 Te8_5 3.773122 1_455
Te8_1 Te8_5 3.773122 1_555
Te8_2 Te8_6 3.773122 1_555
Te8_2 Te8_6 3.773122 1_455
Te8_3 Te8_7 3.773122 1_555
Te8_3 Te8_7 3.773122 1_455
Te9_0 Te9_4 3.773122 1_455
Te9_0 Te9_4 3.773122 1_555
Te9_1 Te9_5 3.773122 1_455
Te9_1 Te9_5 3.773122 1_555
Te9_2 Te9_6 3.773122 1_455
Te9_2 Te9_6 3.773122 1_555
Te9_3 Te9_7 3.773122 1_455
Te9_3 Te9_7 3.773122 1_555
Te10_0 Te9_0 3.643295 1_555
Te10_0 Te9_4 3.643295 1_555
Te10_0 Te10_4 3.773122 1_455
Te10_0 Te10_4 3.773122 1_555
Te10_0 Te1_0 3.810357 1_555
Te10_0 Te1_4 3.810357 1_555
Te10_1 Te9_1 3.643295 1_555
Te10_1 Te9_5 3.643295 1_555
Te10_1 Te10_5 3.773122 1_555
Te10_1 Te10_5 3.773122 1_455
Te10_1 Te1_5 3.810357 1_555
Te10_1 Te1_1 3.810357 1_555
Te10_2 Te9_6 3.643295 1_555
Te10_2 Te9_2 3.643295 1_555
Te10_2 Te10_6 3.773122 1_555
Te10_2 Te10_6 3.773122 1_455
Te10_2 Te1_2 3.810357 1_555
Te10_2 Te1_6 3.810357 1_555
Te10_3 Te9_7 3.643295 1_555
Te10_3 Te9_3 3.643295 1_555
Te10_3 Te10_7 3.773122 1_455
Te10_3 Te10_7 3.773122 1_555
Te10_3 Te1_3 3.810357 1_555
Te10_3 Te1_7 3.810357 1_555
Te10_4 Te9_0 3.643295 1_655
Te10_4 Te9_4 3.643295 1_555
Te10_4 Te1_4 3.810357 1_555
Te10_4 Te1_0 3.810357 1_655
Te10_5 Te9_1 3.643295 1_655
Te10_5 Te9_5 3.643295 1_555
Te10_5 Te1_5 3.810357 1_555
Te10_5 Te1_1 3.810357 1_655
Te10_6 Te9_2 3.643295 1_655
Te10_6 Te9_6 3.643295 1_555
Te10_6 Te1_6 3.810357 1_555
Te10_6 Te1_2 3.810357 1_655
Te10_7 Te9_7 3.643295 1_555
Te10_7 Te9_3 3.643295 1_655
Te10_7 Te1_3 3.810357 1_655
Te10_7 Te1_7 3.810357 1_555
Te11_0 Te8_0 3.643295 1_555
Te11_0 Te8_4 3.643295 1_455
Te11_0 Te11_4 3.773122 1_455
Te11_0 Te11_4 3.773122 1_555
Te11_1 Te8_1 3.643295 1_555
Te11_1 Te8_5 3.643295 1_455
Te11_1 Te11_5 3.773122 1_455
Te11_1 Te11_5 3.773122 1_555
Te11_2 Te8_2 3.643295 1_555
Te11_2 Te8_6 3.643295 1_455
Te11_2 Te11_6 3.773122 1_555
Te11_2 Te11_6 3.773122 1_455
Te11_3 Te8_3 3.643295 1_555
Te11_3 Te8_7 3.643295 1_455
Te11_3 Te11_7 3.773122 1_455
Te11_3 Te11_7 3.773122 1_555
Te11_4 Te8_0 3.643295 1_555
Te11_4 Te8_4 3.643295 1_555
Te11_5 Te8_5 3.643295 1_555
Te11_5 Te8_1 3.643295 1_555
Te11_6 Te8_2 3.643295 1_555
Te11_6 Te8_6 3.643295 1_555
Te11_7 Te8_7 3.643295 1_555
Te11_7 Te8_3 3.643295 1_555
Te12_0 Te1_0 3.565700 1_555
Te12_0 Te1_4 3.565700 1_555
Te12_0 Te12_4 3.773122 1_455
Te12_0 Te12_4 3.773122 1_555
Te12_0 Te15_2 3.808507 1_545
Te12_0 Te15_6 3.808507 1_545
Te12_0 Te7_0 3.866355 1_555
Te12_0 Te7_4 3.866355 1_555
Te12_0 Te3_4 3.989626 1_555
Te12_0 Te3_0 3.989626 1_555
Te12_1 Te1_1 3.565700 1_555
Te12_1 Te1_5 3.565700 1_555
Te12_1 Te12_5 3.773122 1_555
Te12_1 Te12_5 3.773122 1_455
Te12_1 Te15_7 3.808507 1_545
Te12_1 Te15_3 3.808507 1_545
Te12_1 Te7_1 3.866355 1_555
Te12_1 Te7_5 3.866355 1_555
Te12_1 Te3_1 3.989626 1_555
Te12_1 Te3_5 3.989626 1_555
Te12_2 Te1_2 3.565700 1_555
Te12_2 Te1_6 3.565700 1_555
Te12_2 Te12_6 3.773122 1_555
Te12_2 Te12_6 3.773122 1_455
Te12_2 Te15_4 3.808507 1_555
Te12_2 Te15_0 3.808507 1_555
Te12_2 Te7_6 3.866355 1_555
Te12_2 Te7_2 3.866355 1_555
Te12_2 Te3_2 3.989626 1_555
Te12_2 Te3_6 3.989626 1_555
Te12_3 Te1_3 3.565700 1_555
Te12_3 Te1_7 3.565700 1_555
Te12_3 Te12_7 3.773122 1_455
Te12_3 Te12_7 3.773122 1_555
Te12_3 Te15_1 3.808507 1_555
Te12_3 Te15_5 3.808507 1_555
Te12_3 Te7_7 3.866355 1_555
Te12_3 Te7_3 3.866355 1_555
Te12_3 Te3_3 3.989626 1_555
Te12_3 Te3_7 3.989626 1_555
Te12_4 Te1_4 3.565700 1_555
Te12_4 Te1_0 3.565700 1_655
Te12_4 Te15_6 3.808507 1_545
Te12_4 Te15_2 3.808507 1_645
Te12_4 Te7_0 3.866355 1_655
Te12_4 Te7_4 3.866355 1_555
Te12_4 Te3_4 3.989626 1_555
Te12_4 Te3_0 3.989626 1_655
Te12_5 Te1_1 3.565700 1_655
Te12_5 Te1_5 3.565700 1_555
Te12_5 Te15_7 3.808507 1_545
Te12_5 Te15_3 3.808507 1_645
Te12_5 Te7_5 3.866355 1_555
Te12_5 Te7_1 3.866355 1_655
Te12_5 Te3_1 3.989626 1_655
Te12_5 Te3_5 3.989626 1_555
Te12_6 Te1_6 3.565700 1_555
Te12_6 Te1_2 3.565700 1_655
Te12_6 Te15_4 3.808507 1_555
Te12_6 Te15_0 3.808507 1_655
Te12_6 Te7_6 3.866355 1_555
Te12_6 Te7_2 3.866355 1_655
Te12_6 Te3_2 3.989626 1_655
Te12_6 Te3_6 3.989626 1_555
Te12_7 Te1_3 3.565700 1_655
Te12_7 Te1_7 3.565700 1_555
Te12_7 Te15_1 3.808507 1_655
Te12_7 Te15_5 3.808507 1_555
Te12_7 Te7_7 3.866355 1_555
Te12_7 Te7_3 3.866355 1_655
Te12_7 Te3_3 3.989626 1_655
Te12_7 Te3_7 3.989626 1_555
Te13_0 Te13_4 3.773122 1_455
Te13_0 Te13_4 3.773122 1_555
Te13_0 Te14_2 3.808507 1_555
Te13_0 Te14_6 3.808507 1_455
Te13_0 Te6_4 3.866355 1_455
Te13_0 Te6_0 3.866355 1_555
Te13_0 Te2_0 3.989626 1_555
Te13_0 Te2_4 3.989626 1_455
Te13_1 Te13_5 3.773122 1_455
Te13_1 Te13_5 3.773122 1_555
Te13_1 Te14_3 3.808507 1_555
Te13_1 Te14_7 3.808507 1_455
Te13_1 Te6_1 3.866355 1_555
Te13_1 Te6_5 3.866355 1_455
Te13_1 Te2_5 3.989626 1_455
Te13_1 Te2_1 3.989626 1_555
Te13_2 Te13_6 3.773122 1_455
Te13_2 Te13_6 3.773122 1_555
Te13_2 Te14_4 3.808507 1_465
Te13_2 Te14_0 3.808507 1_565
Te13_2 Te6_6 3.866355 1_455
Te13_2 Te6_2 3.866355 1_555
Te13_2 Te2_6 3.989626 1_455
Te13_2 Te2_2 3.989626 1_555
Te13_3 Te13_7 3.773122 1_555
Te13_3 Te13_7 3.773122 1_455
Te13_3 Te14_1 3.808507 1_565
Te13_3 Te14_5 3.808507 1_465
Te13_3 Te6_7 3.866355 1_455
Te13_3 Te6_3 3.866355 1_555
Te13_3 Te2_7 3.989626 1_455
Te13_3 Te2_3 3.989626 1_555
Te13_4 Te14_2 3.808507 1_555
Te13_4 Te14_6 3.808507 1_555
Te13_4 Te6_4 3.866355 1_555
Te13_4 Te6_0 3.866355 1_555
Te13_4 Te2_0 3.989626 1_555
Te13_4 Te2_4 3.989626 1_555
Te13_5 Te14_3 3.808507 1_555
Te13_5 Te14_7 3.808507 1_555
Te13_5 Te6_1 3.866355 1_555
Te13_5 Te6_5 3.866355 1_555
Te13_5 Te2_5 3.989626 1_555
Te13_5 Te2_1 3.989626 1_555
Te13_6 Te14_4 3.808507 1_565
Te13_6 Te14_0 3.808507 1_565
Te13_6 Te6_6 3.866355 1_555
Te13_6 Te6_2 3.866355 1_555
Te13_6 Te2_2 3.989626 1_555
Te13_6 Te2_6 3.989626 1_555
Te13_7 Te14_1 3.808507 1_565
Te13_7 Te14_5 3.808507 1_565
Te13_7 Te6_3 3.866355 1_555
Te13_7 Te6_7 3.866355 1_555
Te13_7 Te2_3 3.989626 1_555
Te13_7 Te2_7 3.989626 1_555
Te14_0 Te5_0 3.640148 1_555
Te14_0 Te5_4 3.640148 1_555
Te14_0 Te14_4 3.773122 1_455
Te14_0 Te14_4 3.773122 1_555
Te14_0 Te1_0 3.948202 1_555
Te14_0 Te1_4 3.948202 1_555
Te14_1 Te5_1 3.640148 1_555
Te14_1 Te5_5 3.640148 1_555
Te14_1 Te14_5 3.773122 1_555
Te14_1 Te14_5 3.773122 1_455
Te14_1 Te1_1 3.948202 1_555
Te14_1 Te1_5 3.948202 1_555
Te14_2 Te5_6 3.640148 1_555
Te14_2 Te5_2 3.640148 1_555
Te14_2 Te14_6 3.773122 1_455
Te14_2 Te14_6 3.773122 1_555
Te14_2 Te1_6 3.948202 1_555
Te14_2 Te1_2 3.948202 1_555
Te14_3 Te5_3 3.640148 1_555
Te14_3 Te5_7 3.640148 1_555
Te14_3 Te14_7 3.773122 1_555
Te14_3 Te14_7 3.773122 1_455
Te14_3 Te1_7 3.948202 1_555
Te14_3 Te1_3 3.948202 1_555
Te14_4 Te5_0 3.640148 1_655
Te14_4 Te5_4 3.640148 1_555
Te14_4 Te1_4 3.948202 1_555
Te14_4 Te1_0 3.948202 1_655
Te14_5 Te5_1 3.640148 1_655
Te14_5 Te5_5 3.640148 1_555
Te14_5 Te1_5 3.948202 1_555
Te14_5 Te1_1 3.948202 1_655
Te14_6 Te5_6 3.640148 1_555
Te14_6 Te5_2 3.640148 1_655
Te14_6 Te1_6 3.948202 1_555
Te14_6 Te1_2 3.948202 1_655
Te14_7 Te5_3 3.640148 1_655
Te14_7 Te5_7 3.640148 1_555
Te14_7 Te1_7 3.948202 1_555
Te14_7 Te1_3 3.948202 1_655
Te15_0 Te4_4 3.640148 1_455
Te15_0 Te4_0 3.640148 1_555
Te15_0 Te15_4 3.773122 1_455
Te15_0 Te15_4 3.773122 1_555
Te15_1 Te4_5 3.640148 1_455
Te15_1 Te4_1 3.640148 1_555
Te15_1 Te15_5 3.773122 1_455
Te15_1 Te15_5 3.773122 1_555
Te15_2 Te4_2 3.640148 1_555
Te15_2 Te4_6 3.640148 1_455
Te15_2 Te15_6 3.773122 1_555
Te15_2 Te15_6 3.773122 1_455
Te15_3 Te4_7 3.640148 1_455
Te15_3 Te4_3 3.640148 1_555
Te15_3 Te15_7 3.773122 1_555
Te15_3 Te15_7 3.773122 1_455
Te15_4 Te4_4 3.640148 1_555
Te15_4 Te4_0 3.640148 1_555
Te15_5 Te4_1 3.640148 1_555
Te15_5 Te4_5 3.640148 1_555
Te15_6 Te4_2 3.640148 1_555
Te15_6 Te4_6 3.640148 1_555
Te15_7 Te4_3 3.640148 1_555
Te15_7 Te4_7 3.640148 1_555
Os0_0 Te7_0 2.685159 1_555
Os0_0 Te7_4 2.685159 1_555
Os0_0 Te10_0 2.691210 1_555
Os0_0 Te9_0 2.737787 1_555
Os0_0 Te9_4 2.737787 1_555
Os0_0 Te4_0 2.769924 1_555
Os0_0 Ta3_0 2.933090 1_555
Os0_0 Ta3_4 2.933090 1_555
Os0_1 Te7_5 2.685159 1_555
Os0_1 Te7_1 2.685159 1_555
Os0_1 Te10_1 2.691210 1_555
Os0_1 Te9_1 2.737787 1_555
Os0_1 Te9_5 2.737787 1_555
Os0_1 Te4_1 2.769924 1_555
Os0_1 Ta3_5 2.933090 1_555
Os0_1 Ta3_1 2.933090 1_555
Os0_2 Te7_6 2.685159 1_555
Os0_2 Te7_2 2.685159 1_555
Os0_2 Te10_2 2.691210 1_555
Os0_2 Te9_6 2.737787 1_555
Os0_2 Te9_2 2.737787 1_555
Os0_2 Te4_2 2.769924 1_555
Os0_2 Ta3_2 2.933090 1_555
Os0_2 Ta3_6 2.933090 1_555
Os0_3 Te7_3 2.685159 1_555
Os0_3 Te7_7 2.685159 1_555
Os0_3 Te10_3 2.691210 1_555
Os0_3 Te9_7 2.737787 1_555
Os0_3 Te9_3 2.737787 1_555
Os0_3 Te4_3 2.769924 1_555
Os0_3 Ta3_3 2.933090 1_555
Os0_3 Ta3_7 2.933090 1_555
Os0_4 Te7_0 2.685159 1_655
Os0_4 Te7_4 2.685159 1_555
Os0_4 Te10_4 2.691210 1_555
Os0_4 Te9_0 2.737787 1_655
Os0_4 Te9_4 2.737787 1_555
Os0_4 Te4_4 2.769924 1_555
Os0_4 Ta3_4 2.933090 1_555
Os0_4 Ta3_0 2.933090 1_655
Os0_5 Te7_1 2.685159 1_655
Os0_5 Te7_5 2.685159 1_555
Os0_5 Te10_5 2.691210 1_555
Os0_5 Te9_1 2.737787 1_655
Os0_5 Te9_5 2.737787 1_555
Os0_5 Te4_5 2.769924 1_555
Os0_5 Ta3_1 2.933090 1_655
Os0_5 Ta3_5 2.933090 1_555
Os0_6 Te7_6 2.685159 1_555
Os0_6 Te7_2 2.685159 1_655
Os0_6 Te10_6 2.691210 1_555
Os0_6 Te9_6 2.737787 1_555
Os0_6 Te9_2 2.737787 1_655
Os0_6 Te4_6 2.769924 1_555
Os0_6 Ta3_2 2.933090 1_655
Os0_6 Ta3_6 2.933090 1_555
Os0_7 Te7_7 2.685159 1_555
Os0_7 Te7_3 2.685159 1_655
Os0_7 Te10_7 2.691210 1_555
Os0_7 Te9_7 2.737787 1_555
Os0_7 Te9_3 2.737787 1_655
Os0_7 Te4_7 2.769924 1_555
Os0_7 Ta3_3 2.933090 1_655
Os0_7 Ta3_7 2.933090 1_555
Os1_0 Te6_0 2.685159 1_555
Os1_0 Te6_4 2.685159 1_455
Os1_0 Te11_1 2.691210 1_554
Os1_0 Te8_5 2.737787 1_454
Os1_0 Te8_1 2.737787 1_554
Os1_0 Te5_0 2.769924 1_555
Os1_0 Ta2_5 2.933090 1_454
Os1_0 Ta2_1 2.933090 1_554
Os1_1 Te6_5 2.685159 1_455
Os1_1 Te6_1 2.685159 1_555
Os1_1 Te11_0 2.691210 1_555
Os1_1 Te8_0 2.737787 1_555
Os1_1 Te8_4 2.737787 1_455
Os1_1 Te5_1 2.769924 1_555
Os1_1 Ta2_4 2.933090 1_455
Os1_1 Ta2_0 2.933090 1_555
Os1_2 Te6_2 2.685159 1_555
Os1_2 Te6_6 2.685159 1_455
Os1_2 Te11_3 2.691210 1_554
Os1_2 Te8_7 2.737787 1_454
Os1_2 Te8_3 2.737787 1_554
Os1_2 Te5_2 2.769924 1_555
Os1_2 Ta2_7 2.933090 1_454
Os1_2 Ta2_3 2.933090 1_554
Os1_3 Te6_3 2.685159 1_555
Os1_3 Te6_7 2.685159 1_455
Os1_3 Te11_2 2.691210 1_555
Os1_3 Te8_2 2.737787 1_555
Os1_3 Te8_6 2.737787 1_455
Os1_3 Te5_3 2.769924 1_555
Os1_3 Ta2_2 2.933090 1_555
Os1_3 Ta2_6 2.933090 1_455
Os1_4 Te6_0 2.685159 1_555
Os1_4 Te6_4 2.685159 1_555
Os1_4 Te11_5 2.691210 1_554
Os1_4 Te8_1 2.737787 1_554
Os1_4 Te8_5 2.737787 1_554
Os1_4 Te5_4 2.769924 1_555
Os1_4 Ta2_5 2.933090 1_554
Os1_4 Ta2_1 2.933090 1_554
Os1_5 Te6_5 2.685159 1_555
Os1_5 Te6_1 2.685159 1_555
Os1_5 Te11_4 2.691210 1_555
Os1_5 Te8_0 2.737787 1_555
Os1_5 Te8_4 2.737787 1_555
Os1_5 Te5_5 2.769924 1_555
Os1_5 Ta2_0 2.933090 1_555
Os1_5 Ta2_4 2.933090 1_555
Os1_6 Te6_2 2.685159 1_555
Os1_6 Te6_6 2.685159 1_555
Os1_6 Te11_7 2.691210 1_554
Os1_6 Te8_3 2.737787 1_554
Os1_6 Te8_7 2.737787 1_554
Os1_6 Te5_6 2.769924 1_555
Os1_6 Ta2_7 2.933090 1_554
Os1_6 Ta2_3 2.933090 1_554
Os1_7 Te6_3 2.685159 1_555
Os1_7 Te6_7 2.685159 1_555
Os1_7 Te11_6 2.691210 1_555
Os1_7 Te8_2 2.737787 1_555
Os1_7 Te8_6 2.737787 1_555
Os1_7 Te5_7 2.769924 1_555
Os1_7 Ta2_2 2.933090 1_555
Os1_7 Ta2_6 2.933090 1_555
Os2_0 Te3_4 2.693438 1_555
Os2_0 Te3_0 2.693438 1_555
Os2_0 Te14_1 2.708975 1_555
Os2_0 Te5_5 2.733454 1_555
Os2_0 Te5_1 2.733454 1_555
Os2_0 Te8_0 2.783105 1_555
Os2_0 Ta1_1 2.921469 1_555
Os2_0 Ta1_5 2.921469 1_555
Os2_1 Te3_5 2.693438 1_555
Os2_1 Te3_1 2.693438 1_555
Os2_1 Te14_0 2.708975 1_556
Os2_1 Te5_0 2.733454 1_556
Os2_1 Te5_4 2.733454 1_556
Os2_1 Te8_1 2.783105 1_555
Os2_1 Ta1_4 2.921469 1_556
Os2_1 Ta1_0 2.921469 1_556
Os2_2 Te3_2 2.693438 1_555
Os2_2 Te3_6 2.693438 1_555
Os2_2 Te14_3 2.708975 1_555
Os2_2 Te5_3 2.733454 1_555
Os2_2 Te5_7 2.733454 1_555
Os2_2 Te8_2 2.783105 1_555
Os2_2 Ta1_3 2.921469 1_555
Os2_2 Ta1_7 2.921469 1_555
Os2_3 Te3_7 2.693438 1_555
Os2_3 Te3_3 2.693438 1_555
Os2_3 Te14_2 2.708975 1_556
Os2_3 Te5_2 2.733454 1_556
Os2_3 Te5_6 2.733454 1_556
Os2_3 Te8_3 2.783105 1_555
Os2_3 Ta1_2 2.921469 1_556
Os2_3 Ta1_6 2.921469 1_556
Os2_4 Te3_4 2.693438 1_555
Os2_4 Te3_0 2.693438 1_655
Os2_4 Te14_5 2.708975 1_555
Os2_4 Te5_5 2.733454 1_555
Os2_4 Te5_1 2.733454 1_655
Os2_4 Te8_4 2.783105 1_555
Os2_4 Ta1_1 2.921469 1_655
Os2_4 Ta1_5 2.921469 1_555
Os2_5 Te3_5 2.693438 1_555
Os2_5 Te3_1 2.693438 1_655
Os2_5 Te14_4 2.708975 1_556
Os2_5 Te5_4 2.733454 1_556
Os2_5 Te5_0 2.733454 1_656
Os2_5 Te8_5 2.783105 1_555
Os2_5 Ta1_4 2.921469 1_556
Os2_5 Ta1_0 2.921469 1_656
Os2_6 Te3_2 2.693438 1_655
Os2_6 Te3_6 2.693438 1_555
Os2_6 Te14_7 2.708975 1_555
Os2_6 Te5_7 2.733454 1_555
Os2_6 Te5_3 2.733454 1_655
Os2_6 Te8_6 2.783105 1_555
Os2_6 Ta1_3 2.921469 1_655
Os2_6 Ta1_7 2.921469 1_555
Os2_7 Te3_3 2.693438 1_655
Os2_7 Te3_7 2.693438 1_555
Os2_7 Te14_6 2.708975 1_556
Os2_7 Te5_6 2.733454 1_556
Os2_7 Te5_2 2.733454 1_656
Os2_7 Te8_7 2.783105 1_555
Os2_7 Ta1_2 2.921469 1_656
Os2_7 Ta1_6 2.921469 1_556
Os3_0 Te2_0 2.693438 1_555
Os3_0 Te2_4 2.693438 1_455
Os3_0 Te15_0 2.708975 1_555
Os3_0 Te4_0 2.733454 1_555
Os3_0 Te4_4 2.733454 1_455
Os3_0 Te9_0 2.783105 1_555
Os3_0 Ta0_0 2.921469 1_555
Os3_0 Ta0_4 2.921469 1_455
Os3_1 Te2_1 2.693438 1_555
Os3_1 Te2_5 2.693438 1_455
Os3_1 Te15_1 2.708975 1_555
Os3_1 Te4_5 2.733454 1_455
Os3_1 Te4_1 2.733454 1_555
Os3_1 Te9_1 2.783105 1_555
Os3_1 Ta0_1 2.921469 1_555
Os3_1 Ta0_5 2.921469 1_455
Os3_2 Te2_2 2.693438 1_555
Os3_2 Te2_6 2.693438 1_455
Os3_2 Te15_2 2.708975 1_555
Os3_2 Te4_6 2.733454 1_455
Os3_2 Te4_2 2.733454 1_555
Os3_2 Te9_2 2.783105 1_555
Os3_2 Ta0_2 2.921469 1_555
Os3_2 Ta0_6 2.921469 1_455
Os3_3 Te2_3 2.693438 1_555
Os3_3 Te2_7 2.693438 1_455
Os3_3 Te15_3 2.708975 1_555
Os3_3 Te4_3 2.733454 1_555
Os3_3 Te4_7 2.733454 1_455
Os3_3 Te9_3 2.783105 1_555
Os3_3 Ta0_3 2.921469 1_555
Os3_3 Ta0_7 2.921469 1_455
Os3_4 Te2_0 2.693438 1_555
Os3_4 Te2_4 2.693438 1_555
Os3_4 Te15_4 2.708975 1_555
Os3_4 Te4_4 2.733454 1_555
Os3_4 Te4_0 2.733454 1_555
Os3_4 Te9_4 2.783105 1_555
Os3_4 Ta0_4 2.921469 1_555
Os3_4 Ta0_0 2.921469 1_555
Os3_5 Te2_1 2.693438 1_555
Os3_5 Te2_5 2.693438 1_555
Os3_5 Te15_5 2.708975 1_555
Os3_5 Te4_1 2.733454 1_555
Os3_5 Te4_5 2.733454 1_555
Os3_5 Te9_5 2.783105 1_555
Os3_5 Ta0_1 2.921469 1_555
Os3_5 Ta0_5 2.921469 1_555
Os3_6 Te2_2 2.693438 1_555
Os3_6 Te2_6 2.693438 1_555
Os3_6 Te15_6 2.708975 1_555
Os3_6 Te4_6 2.733454 1_555
Os3_6 Te4_2 2.733454 1_555
Os3_6 Te9_6 2.783105 1_555
Os3_6 Ta0_2 2.921469 1_555
Os3_6 Ta0_6 2.921469 1_555
Os3_7 Te2_3 2.693438 1_555
Os3_7 Te2_7 2.693438 1_555
Os3_7 Te15_7 2.708975 1_555
Os3_7 Te4_3 2.733454 1_555
Os3_7 Te4_7 2.733454 1_555
Os3_7 Te9_7 2.783105 1_555
Os3_7 Ta0_3 2.921469 1_555
Os3_7 Ta0_7 2.921469 1_555
