# generated using pymatgen
data_MnH6(NCl)2
_symmetry_space_group_name_H-M   'P 1'
_cell_length_a   5.86215794
_cell_length_b   5.86215794
_cell_length_c   3.82911084
_cell_angle_alpha   88.68909520
_cell_angle_beta   88.68909520
_cell_angle_gamma   90.23387337
_symmetry_Int_Tables_number   1
_chemical_formula_structural   MnH6(NCl)2
_chemical_formula_sum   'Mn1 H6 N2 Cl2'
_cell_volume   131.51672810
_cell_formula_units_Z   1
loop_
 _symmetry_equiv_pos_site_id
 _symmetry_equiv_pos_as_xyz
  1  'x, y, z'
loop_
 _atom_site_type_symbol
 _atom_site_label
 _atom_site_symmetry_multiplicity
 _atom_site_fract_x
 _atom_site_fract_y
 _atom_site_fract_z
 _atom_site_occupancy
  Mn  Mn0  1  0.00083600  0.99916400  0.00000000  1
  H  H0  1  0.60053200  0.79696000  0.20207100  1
  H  H1  1  0.20304000  0.39946800  0.79792900  1
  H  H2  1  0.64528200  0.71422700  0.80289900  1
  H  H3  1  0.41477800  0.22472700  0.87396400  1
  H  H4  1  0.28577300  0.35471800  0.19710100  1
  H  H5  1  0.77527300  0.58522200  0.12603600  1
  N  N0  1  0.25730000  0.27393800  0.96741500  1
  N  N1  1  0.72606200  0.74270000  0.03258500  1
  Cl  Cl0  1  0.21698900  0.78301100  0.50000000  1
  Cl  Cl1  1  0.78413500  0.21586500  0.50000000  1
loop_
_geom_bond_atom_site_label_1
_geom_bond_atom_site_label_2
_geom_bond_distance
_geom_bond_site_symmetry_2
Mn0 N1 2.198387 1_455
Mn0 N0 2.198387 1_564
H0 N1 1.026338 1_555
H1 N0 1.026338 1_555
H2 N1 1.025057 1_556
H3 N0 1.027266 1_555
H4 N0 1.025057 1_554
H5 N1 1.027266 1_555
Cl0 H0 2.498048 1_555
Cl0 H1 2.498048 1_555
Cl0 Mn0 2.624849 1_556
Cl0 Mn0 2.624849 1_555
Cl0 H2 2.816315 1_555
Cl0 H4 2.816315 1_555
Cl0 H3 3.212632 1_565
Cl0 H5 3.212632 1_455
Cl1 H3 2.569796 1_555
Cl1 H5 2.569796 1_555
Cl1 Mn0 2.627965 1_646
Cl1 Mn0 2.627965 1_645
Cl1 H0 2.941608 1_545
Cl1 H1 2.941608 1_655
Cl1 H3 3.266498 1_554
Cl1 H5 3.266498 1_556
