# generated using pymatgen
data_Dy3Mg2WS8
_symmetry_space_group_name_H-M   'P 1'
_cell_length_a   7.83676656
_cell_length_b   7.67694422
_cell_length_c   7.83690700
_cell_angle_alpha   59.30940870
_cell_angle_beta   59.99752272
_cell_angle_gamma   59.31115653
_symmetry_Int_Tables_number   1
_chemical_formula_structural   Dy3Mg2WS8
_chemical_formula_sum   'Dy3 Mg2 W1 S8'
_cell_volume   329.86779977
_cell_formula_units_Z   1
loop_
 _symmetry_equiv_pos_site_id
 _symmetry_equiv_pos_as_xyz
  1  'x, y, z'
loop_
 _atom_site_type_symbol
 _atom_site_label
 _atom_site_symmetry_multiplicity
 _atom_site_fract_x
 _atom_site_fract_y
 _atom_site_fract_z
 _atom_site_occupancy
  Dy  Dy0  1  0.50000000  0.50002200  0.49998000  1
  Dy  Dy1  1  0.50000000  0.49999100  0.00000000  1
  Dy  Dy2  1  0.00000400  0.49998700  0.50001300  1
  Mg  Mg0  1  0.87486500  0.87539700  0.87487300  1
  Mg  Mg1  1  0.12513300  0.12460700  0.12512900  1
  W  W0  1  0.49999900  0.99999700  0.50000500  1
  S  S0  1  0.73259400  0.76695100  0.73259200  1
  S  S1  1  0.26739400  0.23306600  0.73213300  1
  S  S2  1  0.25487900  0.73540100  0.25485900  1
  S  S3  1  0.73213400  0.23308100  0.26738200  1
  S  S4  1  0.74510700  0.26460000  0.74512600  1
  S  S5  1  0.26786100  0.76691800  0.73262000  1
  S  S6  1  0.26740400  0.23303900  0.26742200  1
  S  S7  1  0.73263100  0.76693700  0.26786700  1
loop_
_geom_bond_atom_site_label_1
_geom_bond_atom_site_label_2
_geom_bond_distance
_geom_bond_site_symmetry_2
Dy0 S2 2.692453 1_555
Dy0 S4 2.692497 1_555
Dy0 S7 2.742815 1_555
Dy0 S5 2.742842 1_555
Dy0 S3 2.742867 1_555
Dy0 S1 2.742894 1_555
Dy1 S4 2.692455 1_554
Dy1 S2 2.692470 1_555
Dy1 S6 2.742824 1_555
Dy1 S0 2.742851 1_554
Dy1 S3 2.742857 1_555
Dy1 S5 2.742874 1_554
Dy2 S4 2.692470 1_455
Dy2 S2 2.692487 1_555
Dy2 S1 2.742831 1_555
Dy2 S6 2.742865 1_555
Dy2 S7 2.742875 1_455
Dy2 S0 2.742892 1_455
Mg0 S4 2.413875 1_565
Mg0 S5 2.513484 1_655
Mg0 S7 2.513491 1_556
Mg0 S0 2.513554 1_555
Mg1 S2 2.413893 1_545
Mg1 S1 2.513504 1_554
Mg1 S3 2.513506 1_455
Mg1 S6 2.513548 1_555
S0 W0 2.551648 1_555
S1 W0 2.551610 1_545
S3 W0 2.551640 1_545
S5 W0 2.551630 1_555
S6 W0 2.551627 1_545
S7 W0 2.551618 1_555
