# generated using pymatgen
data_YSbO3
_symmetry_space_group_name_H-M   'P 1'
_cell_length_a   5.73709600
_cell_length_b   6.04461400
_cell_length_c   8.55933700
_cell_angle_alpha   90.00000000
_cell_angle_beta   90.00000000
_cell_angle_gamma   90.00000000
_symmetry_Int_Tables_number   1
_chemical_formula_structural   YSbO3
_chemical_formula_sum   'Y4 Sb4 O12'
_cell_volume   296.82523179
_cell_formula_units_Z   4
loop_
 _symmetry_equiv_pos_site_id
 _symmetry_equiv_pos_as_xyz
  1  'x, y, z'
loop_
 _atom_site_type_symbol
 _atom_site_label
 _atom_site_symmetry_multiplicity
 _atom_site_fract_x
 _atom_site_fract_y
 _atom_site_fract_z
 _atom_site_occupancy
  Y  Y0  1  0.51889600  0.44197400  0.25000000  1
  Y  Y1  1  0.01889600  0.05802600  0.75000000  1
  Y  Y2  1  0.98110400  0.94197400  0.25000000  1
  Y  Y3  1  0.48110400  0.55802600  0.75000000  1
  Sb  Sb0  1  0.50000000  0.00000000  0.00000000  1
  Sb  Sb1  1  0.00000000  0.50000000  0.00000000  1
  Sb  Sb2  1  0.00000000  0.50000000  0.50000000  1
  Sb  Sb3  1  0.50000000  0.00000000  0.50000000  1
  O  O0  1  0.17897500  0.81611200  0.91904400  1
  O  O1  1  0.67897500  0.68388800  0.08095600  1
  O  O2  1  0.32102500  0.31611200  0.58095600  1
  O  O3  1  0.82102500  0.18388800  0.41904400  1
  O  O4  1  0.82102500  0.18388800  0.08095600  1
  O  O5  1  0.32102500  0.31611200  0.91904400  1
  O  O6  1  0.67897500  0.68388800  0.41904400  1
  O  O7  1  0.17897500  0.81611200  0.58095600  1
  O  O8  1  0.66330100  0.90575400  0.75000000  1
  O  O9  1  0.16330100  0.59424600  0.25000000  1
  O  O10  1  0.83669900  0.40575400  0.75000000  1
  O  O11  1  0.33669900  0.09424600  0.25000000  1
loop_
_geom_bond_atom_site_label_1
_geom_bond_atom_site_label_2
_geom_bond_distance
_geom_bond_site_symmetry_2
O0 Y1 2.252826 1_565
O0 Sb0 2.260023 1_566
O0 Sb1 2.277175 1_556
O0 Y3 2.744395 1_555
O0 O7 2.893809 1_555
O0 Y2 3.145161 1_456
O1 Y0 2.252826 1_555
O1 Sb1 2.260023 1_655
O1 Sb0 2.277175 1_565
O1 Y2 2.744395 1_555
O1 O6 2.893809 1_555
O1 Y3 3.145161 1_554
O2 Y3 2.252826 1_555
O2 Sb2 2.260023 1_555
O2 Sb3 2.277175 1_555
O2 Y1 2.744395 1_555
O2 O5 2.893809 1_555
O2 Y0 3.145161 1_555
O3 Y2 2.252826 1_545
O3 Sb3 2.260023 1_555
O3 Sb2 2.277175 1_655
O3 Y0 2.744395 1_555
O3 O4 2.893809 1_555
O3 Y1 3.145161 1_655
O4 Y2 2.252826 1_545
O4 Sb0 2.260023 1_555
O4 Sb1 2.277175 1_655
O4 Y0 2.744395 1_555
O4 Y1 3.145161 1_654
O5 Y3 2.252826 1_555
O5 Sb1 2.260023 1_556
O5 Sb0 2.277175 1_556
O5 Y1 2.744395 1_555
O5 Y0 3.145161 1_556
O6 Y0 2.252826 1_555
O6 Sb2 2.260023 1_655
O6 Sb3 2.277175 1_565
O6 Y2 2.744395 1_555
O6 Y3 3.145161 1_555
O7 Y1 2.252826 1_565
O7 Sb3 2.260023 1_565
O7 Sb2 2.277175 1_555
O7 Y3 2.744395 1_555
O7 Y2 3.145161 1_455
O8 Y1 2.238106 1_665
O8 Y3 2.347450 1_555
O8 Sb0 2.404404 1_566
O8 Sb3 2.404404 1_565
O9 Y0 2.238106 1_555
O9 Y2 2.347450 1_455
O9 Sb1 2.404404 1_555
O9 Sb2 2.404404 1_555
O10 Y3 2.238106 1_555
O10 Y1 2.347450 1_655
O10 Sb1 2.404404 1_656
O10 Sb2 2.404404 1_655
O11 Y2 2.238106 1_445
O11 Y0 2.347450 1_555
O11 Sb3 2.404404 1_555
O11 Sb0 2.404404 1_555
