# generated using pymatgen
data_BaSm(NiO3)4
_symmetry_space_group_name_H-M   'P 1'
_cell_length_a   5.49372587
_cell_length_b   5.49372587
_cell_length_c   7.70767387
_cell_angle_alpha   90.00000000
_cell_angle_beta   90.00000000
_cell_angle_gamma   90.00000000
_symmetry_Int_Tables_number   1
_chemical_formula_structural   BaSm(NiO3)4
_chemical_formula_sum   'Ba1 Sm1 Ni4 O12'
_cell_volume   232.62548955
_cell_formula_units_Z   1
loop_
 _symmetry_equiv_pos_site_id
 _symmetry_equiv_pos_as_xyz
  1  'x, y, z'
loop_
 _atom_site_type_symbol
 _atom_site_label
 _atom_site_symmetry_multiplicity
 _atom_site_fract_x
 _atom_site_fract_y
 _atom_site_fract_z
 _atom_site_occupancy
  Ba  Ba0  1  0.50000000  0.50000000  -0.00000000  1
  Sm  Sm0  1  0.00000000  -0.00000000  0.50000000  1
  Ni  Ni0  1  0.00000000  0.50000000  0.74901328  1
  Ni  Ni1  1  -0.00000000  0.50000000  0.25098672  1
  Ni  Ni2  1  0.50000000  0.00000000  0.74901328  1
  Ni  Ni3  1  0.50000000  -0.00000000  0.25098672  1
  O  O0  1  0.23330121  0.23330121  0.73044296  1
  O  O1  1  0.23330121  0.23330121  0.26955704  1
  O  O2  1  0.76669879  0.76669879  0.73044296  1
  O  O3  1  0.76669879  0.76669879  0.26955704  1
  O  O4  1  0.76669879  0.23330121  0.73044296  1
  O  O5  1  0.76669879  0.23330121  0.26955704  1
  O  O6  1  0.23330121  0.76669879  0.26955704  1
  O  O7  1  0.23330121  0.76669879  0.73044296  1
  O  O8  1  0.00000000  0.50000000  0.50000000  1
  O  O9  1  0.00000000  0.50000000  -0.00000000  1
  O  O10  1  0.50000000  0.00000000  0.50000000  1
  O  O11  1  0.50000000  -0.00000000  -0.00000000  1
loop_
_geom_bond_atom_site_label_1
_geom_bond_atom_site_label_2
_geom_bond_distance
_geom_bond_site_symmetry_2
Ba0 O11 2.746863 1_555
Ba0 O11 2.746863 1_565
Ba0 O9 2.746863 1_655
Ba0 O9 2.746863 1_555
Ba0 O7 2.934299 1_554
Ba0 O1 2.934299 1_555
Ba0 O5 2.934299 1_555
Ba0 O6 2.934299 1_555
Ba0 O2 2.934299 1_554
Ba0 O0 2.934299 1_554
Ba0 O4 2.934299 1_554
Ba0 O3 2.934299 1_555
Ni0 O8 1.919313 1_555
Ni0 O9 1.934524 1_556
Ni0 O4 1.951909 1_455
Ni0 O7 1.951909 1_555
Ni0 O0 1.951909 1_555
Ni0 O2 1.951909 1_455
Ni1 O8 1.919313 1_555
Ni1 O9 1.934524 1_555
Ni1 O6 1.951909 1_555
Ni1 O3 1.951909 1_455
Ni1 O1 1.951909 1_555
Ni1 O5 1.951909 1_455
Ni2 O10 1.919313 1_555
Ni2 O11 1.934524 1_556
Ni2 O4 1.951909 1_555
Ni2 O0 1.951909 1_555
Ni2 O2 1.951909 1_545
Ni2 O7 1.951909 1_545
Ni3 O10 1.919313 1_555
Ni3 O11 1.934524 1_555
Ni3 O5 1.951909 1_555
Ni3 O1 1.951909 1_555
Ni3 O6 1.951909 1_545
Ni3 O3 1.951909 1_545
O0 Sm0 2.537772 1_555
O0 O7 2.563386 1_545
O0 O4 2.563386 1_455
O0 O10 2.635199 1_555
O0 O8 2.635199 1_555
O1 Sm0 2.537772 1_555
O1 O6 2.563386 1_545
O1 O5 2.563386 1_455
O1 O10 2.635199 1_555
O1 O8 2.635199 1_555
O2 Sm0 2.537772 1_665
O2 O4 2.563386 1_565
O2 O7 2.563386 1_655
O2 O8 2.635199 1_655
O3 Sm0 2.537772 1_665
O3 O5 2.563386 1_565
O3 O6 2.563386 1_655
O3 O8 2.635199 1_655
O4 Sm0 2.537772 1_655
O4 O8 2.635199 1_655
O5 Sm0 2.537772 1_655
O5 O8 2.635199 1_655
O6 Sm0 2.537772 1_565
O6 O8 2.635199 1_555
O7 Sm0 2.537772 1_565
O7 O8 2.635199 1_555
O8 Sm0 2.746863 1_555
O8 Sm0 2.746863 1_565
O10 O4 2.635199 1_555
O10 O5 2.635199 1_555
O10 O6 2.635199 1_545
O10 O3 2.635199 1_545
O10 O7 2.635199 1_545
O10 O2 2.635199 1_545
O10 Sm0 2.746863 1_655
O10 Sm0 2.746863 1_555
