# generated using pymatgen
data_Mn2CuGe
_symmetry_space_group_name_H-M   'P 1'
_cell_length_a   4.21063421
_cell_length_b   4.21063421
_cell_length_c   4.21063421
_cell_angle_alpha   60.00000000
_cell_angle_beta   60.00000000
_cell_angle_gamma   60.00000000
_symmetry_Int_Tables_number   1
_chemical_formula_structural   Mn2CuGe
_chemical_formula_sum   'Mn2 Cu1 Ge1'
_cell_volume   52.78706855
_cell_formula_units_Z   1
loop_
 _symmetry_equiv_pos_site_id
 _symmetry_equiv_pos_as_xyz
  1  'x, y, z'
loop_
 _atom_site_type_symbol
 _atom_site_label
 _atom_site_symmetry_multiplicity
 _atom_site_fract_x
 _atom_site_fract_y
 _atom_site_fract_z
 _atom_site_occupancy
  Mn  Mn0  1  0.00000000  0.00000000  0.00000000  1
  Mn  Mn1  1  0.75000000  0.75000000  0.75000000  1
  Cu  Cu0  1  0.50000000  0.50000000  0.50000000  1
  Ge  Ge0  1  0.25000000  0.25000000  0.25000000  1
loop_
_geom_bond_atom_site_label_1
_geom_bond_atom_site_label_2
_geom_bond_distance
_geom_bond_site_symmetry_2
Mn0 Mn1 2.578476 1_454
Mn0 Mn1 2.578476 1_444
Mn0 Mn1 2.578476 1_544
Mn0 Mn1 2.578476 1_445
Cu0 Mn1 2.578476 1_455
Cu0 Ge0 2.578476 1_555
Cu0 Ge0 2.578476 1_556
Cu0 Mn1 2.578476 1_555
Cu0 Ge0 2.578476 1_565
Cu0 Mn1 2.578476 1_545
Cu0 Ge0 2.578476 1_655
Cu0 Mn1 2.578476 1_554
Cu0 Mn0 2.977368 1_556
Cu0 Mn0 2.977368 1_565
Cu0 Mn0 2.977368 1_566
Cu0 Mn0 2.977368 1_655
Cu0 Mn0 2.977368 1_665
Cu0 Mn0 2.977368 1_656
Ge0 Mn0 2.578476 1_655
Ge0 Mn0 2.578476 1_565
Ge0 Mn0 2.578476 1_555
Ge0 Mn0 2.578476 1_556
Ge0 Mn1 2.977368 1_554
Ge0 Mn1 2.977368 1_455
Ge0 Mn1 2.977368 1_454
Ge0 Mn1 2.977368 1_445
Ge0 Mn1 2.977368 1_545
Ge0 Mn1 2.977368 1_544
