# generated using pymatgen
data_Nd(ZnAs)3
_symmetry_space_group_name_H-M   'P 1'
_cell_length_a   4.14991231
_cell_length_b   4.16334385
_cell_length_c   20.42997465
_cell_angle_alpha   90.00000000
_cell_angle_beta   90.00000000
_cell_angle_gamma   60.11597925
_symmetry_Int_Tables_number   1
_chemical_formula_structural   Nd(ZnAs)3
_chemical_formula_sum   'Nd2 Zn6 As6'
_cell_volume   306.04552086
_cell_formula_units_Z   2
loop_
 _symmetry_equiv_pos_site_id
 _symmetry_equiv_pos_as_xyz
  1  'x, y, z'
loop_
 _atom_site_type_symbol
 _atom_site_label
 _atom_site_symmetry_multiplicity
 _atom_site_fract_x
 _atom_site_fract_y
 _atom_site_fract_z
 _atom_site_occupancy
  Nd  Nd0  1  0.01248639  0.00158427  0.50000009  1
  Nd  Nd1  1  0.01248639  0.00158427  -0.00000009  1
  Zn  Zn0  1  0.35104436  0.33815358  0.13058114  1
  Zn  Zn1  1  0.68650718  0.66649036  0.86945732  1
  Zn  Zn2  1  0.68650718  0.66649036  0.63054268  1
  Zn  Zn3  1  0.35104436  0.33815358  0.36941886  1
  Zn  Zn4  1  0.21387185  0.38675176  0.75000000  1
  Zn  Zn5  1  0.61119451  0.60520658  0.25000000  1
  As  As0  1  0.34928436  0.33435155  0.58836308  1
  As  As1  1  0.68151041  0.67002558  0.41162546  1
  As  As2  1  0.68151041  0.67002558  0.08837454  1
  As  As3  1  0.34928436  0.33435155  0.91163692  1
  As  As4  1  0.53928128  0.72484691  0.75000000  1
  As  As5  1  0.27478596  0.26708307  0.25000000  1
loop_
_geom_bond_atom_site_label_1
_geom_bond_atom_site_label_2
_geom_bond_distance
_geom_bond_site_symmetry_2
Zn0 Zn5 3.090322 1_555
Zn1 Zn4 3.092279 1_655
Zn2 Zn4 3.092279 1_655
Zn3 Zn5 3.090322 1_555
As0 Zn2 2.535701 1_455
As0 Zn2 2.557646 1_555
As0 Zn2 2.560243 1_545
As0 Nd0 2.992237 1_655
As0 Nd0 3.010027 1_565
As0 Nd0 3.010224 1_555
As0 Zn4 3.338562 1_555
As1 Zn3 2.534085 1_555
As1 Zn3 2.558736 1_655
As1 Zn3 2.561338 1_565
As1 Nd0 2.990183 1_665
As1 Nd0 3.009080 1_565
As1 Nd0 3.013659 1_655
As1 Zn5 3.337616 1_555
As2 Zn0 2.534085 1_555
As2 Zn0 2.558736 1_655
As2 Zn0 2.561338 1_565
As2 Nd1 2.990183 1_665
As2 Nd1 3.009080 1_565
As2 Nd1 3.013659 1_655
As2 Zn5 3.337616 1_555
As3 Zn1 2.535701 1_455
As3 Zn1 2.557646 1_555
As3 Zn1 2.560243 1_545
As3 Nd1 2.992237 1_656
As3 Nd1 3.010027 1_566
As3 Nd1 3.010224 1_556
As3 Zn4 3.338562 1_555
As4 Zn4 2.387296 1_555
As4 Zn4 2.389430 1_565
As4 Zn4 2.427293 1_655
As4 Zn2 2.498097 1_555
As4 Zn1 2.498097 1_555
As5 Zn5 2.387949 1_455
As5 Zn5 2.389332 1_545
As5 Zn5 2.426741 1_555
As5 Zn0 2.496651 1_555
As5 Zn3 2.496651 1_555
