# generated using pymatgen
data_Li2VO3F
_symmetry_space_group_name_H-M   'P 1'
_cell_length_a   7.14606200
_cell_length_b   7.14970390
_cell_length_c   7.15134409
_cell_angle_alpha   110.07957831
_cell_angle_beta   108.31915604
_cell_angle_gamma   109.33440843
_symmetry_Int_Tables_number   1
_chemical_formula_structural   Li2VO3F
_chemical_formula_sum   'Li8 V4 O12 F4'
_cell_volume   283.55514852
_cell_formula_units_Z   4
loop_
 _symmetry_equiv_pos_site_id
 _symmetry_equiv_pos_as_xyz
  1  'x, y, z'
loop_
 _atom_site_type_symbol
 _atom_site_label
 _atom_site_symmetry_multiplicity
 _atom_site_fract_x
 _atom_site_fract_y
 _atom_site_fract_z
 _atom_site_occupancy
  Li  Li0  1  0.25273400  0.24466900  0.25513700  1
  Li  Li1  1  0.51958600  0.24905800  0.48252700  1
  Li  Li2  1  0.23771900  0.52649800  0.47688400  1
  Li  Li3  1  0.26272400  0.75433800  0.73120700  1
  Li  Li4  1  0.76510200  0.29726800  0.71019000  1
  Li  Li5  1  0.75529100  0.99566200  0.51060100  1
  Li  Li6  1  0.45954900  0.72607200  0.00869600  1
  Li  Li7  1  0.74479100  0.49695000  0.99052400  1
  V  V0  1  0.97304000  0.25300100  0.01948400  1
  V  V1  1  0.72055900  0.73264300  0.27442700  1
  V  V2  1  0.97292900  0.98136300  0.75507100  1
  V  V3  1  0.29026900  0.03559200  0.97094300  1
  O  O0  1  0.47637700  0.22963800  0.99991400  1
  O  O1  1  0.76651400  0.23823900  0.23748500  1
  O  O2  1  0.52792800  0.53017200  0.24592600  1
  O  O3  1  0.01105900  0.22135700  0.54085200  1
  O  O4  1  0.99949300  0.00087300  0.21919700  1
  O  O5  1  0.53324100  0.75586000  0.47400700  1
  O  O6  1  0.23397500  0.22109800  0.78086100  1
  O  O7  1  0.00579000  0.46248700  0.78456700  1
  O  O8  1  0.77324800  0.99669000  0.00853600  1
  O  O9  1  0.48328400  0.00409100  0.76428100  1
  O  O10  1  0.75923900  0.77049400  0.77000500  1
  O  O11  1  0.00279400  0.78400100  0.98420600  1
  F  F0  1  0.23456500  0.47057400  0.01013900  1
  F  F1  1  0.24502000  0.76216600  0.21634800  1
  F  F2  1  0.75456700  0.50959600  0.46798800  1
  F  F3  1  0.24597600  0.00758000  0.52461900  1
loop_
_geom_bond_atom_site_label_1
_geom_bond_atom_site_label_2
_geom_bond_distance
_geom_bond_site_symmetry_2
Li0 O4 1.921081 1_455
Li0 Li1 2.063435 1_555
Li0 Li2 2.154640 1_555
Li0 V0 2.206538 1_455
Li0 V3 2.226906 1_554
Li0 O2 2.356713 1_555
Li1 Li4 1.807286 1_555
Li2 Li3 1.887326 1_555
Li2 O5 2.215111 1_555
Li2 O3 2.530541 1_555
Li3 O9 1.827774 1_565
Li3 V3 2.044554 1_565
Li3 Li6 2.160116 1_556
Li3 O7 2.514189 1_555
Li4 O7 1.511536 1_655
Li4 Li5 2.101374 1_545
Li4 Li7 2.105522 1_555
Li4 V0 2.434452 1_556
Li5 O5 1.776329 1_555
Li5 O3 1.884169 1_665
Li5 V1 1.922774 1_555
Li5 V2 2.001139 1_555
Li6 V1 2.178293 1_555
Li6 O8 2.428987 1_555
Li7 V1 2.248715 1_556
Li7 O0 2.253443 1_555
Li7 O11 2.285571 1_655
Li7 V0 2.768551 1_556
Li7 O10 2.899835 1_555
V0 V2 2.196315 1_544
V2 V3 2.117134 1_665
O0 V3 1.464280 1_555
O0 O6 1.901788 1_555
O0 O9 1.918734 1_555
O0 O2 2.078616 1_556
O0 O1 2.195101 1_556
O1 O8 1.956672 1_545
O1 O3 2.389837 1_655
O1 V0 2.464943 1_555
O2 V1 1.527594 1_555
O2 O5 1.838175 1_555
O3 O6 1.941375 1_555
O3 O7 2.008061 1_555
O3 O4 2.255528 1_455
O4 O8 1.813923 1_545
O4 V1 2.508144 1_545
O5 O9 2.437640 1_565
O6 V2 1.975162 1_445
O6 V3 2.239701 1_555
O8 V0 1.871233 1_565
O8 O9 2.282183 1_564
O10 V2 1.817936 1_555
O10 O8 1.851071 1_556
O10 O11 1.869810 1_655
O10 O5 2.164941 1_555
O11 O4 1.867839 1_466
O11 O7 2.263011 1_555
O11 V3 2.292953 1_565
F0 O7 1.869177 1_554
F0 O6 1.962770 1_554
F0 Li6 2.000143 1_555
F0 O2 2.027976 1_555
F0 V0 2.035155 1_455
F0 F1 2.059900 1_555
F1 O11 2.080169 1_554
F1 F3 2.294635 1_565
F1 O5 2.317805 1_555
F1 Li6 2.460062 1_555
F1 Li1 2.858472 1_565
F1 Li7 2.960050 1_454
F2 O2 1.966710 1_555
F2 Li1 2.114694 1_555
F2 O1 2.119143 1_555
F2 O10 2.300548 1_555
F2 V1 2.465595 1_555
F2 O7 2.613609 1_655
F3 O6 1.990079 1_555
F3 O9 2.011018 1_555
F3 O4 2.308494 1_455
F3 Li1 2.320755 1_555
F3 Li3 2.710050 1_545
