# generated using pymatgen
data_TiVS2
_symmetry_space_group_name_H-M   'P 1'
_cell_length_a   3.31811200
_cell_length_b   5.84552800
_cell_length_c   5.97442100
_cell_angle_alpha   90.00000000
_cell_angle_beta   90.00000000
_cell_angle_gamma   90.00000000
_symmetry_Int_Tables_number   1
_chemical_formula_structural   TiVS2
_chemical_formula_sum   'Ti2 V2 S4'
_cell_volume   115.88056635
_cell_formula_units_Z   2
loop_
 _symmetry_equiv_pos_site_id
 _symmetry_equiv_pos_as_xyz
  1  'x, y, z'
loop_
 _atom_site_type_symbol
 _atom_site_label
 _atom_site_symmetry_multiplicity
 _atom_site_fract_x
 _atom_site_fract_y
 _atom_site_fract_z
 _atom_site_occupancy
  Ti  Ti0  1  0.00000000  0.05896100  0.50892800  1
  Ti  Ti1  1  0.00000000  0.94103900  0.00892800  1
  V  V0  1  0.50000000  0.44213200  0.48543400  1
  V  V1  1  0.50000000  0.55786800  0.98543400  1
  S  S0  1  0.00000000  0.66370600  0.71938200  1
  S  S1  1  0.00000000  0.33629400  0.21938200  1
  S  S2  1  0.50000000  0.82072700  0.28625600  1
  S  S3  1  0.50000000  0.17927300  0.78625600  1
loop_
_geom_bond_atom_site_label_1
_geom_bond_atom_site_label_2
_geom_bond_distance
_geom_bond_site_symmetry_2
Ti0 V0 2.790885 1_455
Ti0 V0 2.790885 1_555
Ti1 V1 2.790885 1_554
Ti1 V1 2.790885 1_454
S0 Ti1 2.370781 1_556
S0 V1 2.379446 1_555
S0 V1 2.379446 1_455
S0 V0 2.526585 1_555
S0 V0 2.526585 1_455
S0 Ti0 2.630437 1_565
S1 Ti0 2.370781 1_555
S1 V0 2.379446 1_455
S1 V0 2.379446 1_555
S1 V1 2.526585 1_554
S1 V1 2.526585 1_454
S1 Ti1 2.630437 1_545
S2 V1 2.364539 1_554
S2 Ti1 2.447920 1_655
S2 Ti1 2.447920 1_555
S2 V0 2.512726 1_555
S2 Ti0 2.541969 1_565
S2 Ti0 2.541969 1_665
S3 V0 2.364539 1_555
S3 Ti0 2.447920 1_655
S3 Ti0 2.447920 1_555
S3 V1 2.512726 1_555
S3 Ti1 2.541969 1_546
S3 Ti1 2.541969 1_646
