# generated using pymatgen
data_HoZnPd
_symmetry_space_group_name_H-M   'P 1'
_cell_length_a   7.20862351
_cell_length_b   7.20862351
_cell_length_c   3.83549721
_cell_angle_alpha   90.00000000
_cell_angle_beta   90.00000000
_cell_angle_gamma   119.99999860
_symmetry_Int_Tables_number   1
_chemical_formula_structural   HoZnPd
_chemical_formula_sum   'Ho3 Zn3 Pd3'
_cell_volume   172.60644046
_cell_formula_units_Z   3
loop_
 _symmetry_equiv_pos_site_id
 _symmetry_equiv_pos_as_xyz
  1  'x, y, z'
loop_
 _atom_site_type_symbol
 _atom_site_label
 _atom_site_symmetry_multiplicity
 _atom_site_fract_x
 _atom_site_fract_y
 _atom_site_fract_z
 _atom_site_occupancy
  Ho  Ho0  1  0.40414031  0.40414031  -0.00000000  1
  Ho  Ho1  1  0.59585969  0.00000000  0.00000000  1
  Ho  Ho2  1  0.00000000  0.59585969  0.00000000  1
  Zn  Zn0  1  0.74919549  0.74919549  0.50000000  1
  Zn  Zn1  1  0.25080451  0.00000000  0.50000000  1
  Zn  Zn2  1  0.00000000  0.25080451  0.50000000  1
  Pd  Pd0  1  -0.00000000  -0.00000000  -0.00000000  1
  Pd  Pd1  1  0.66666700  0.33333300  0.50000000  1
  Pd  Pd2  1  0.33333300  0.66666700  0.50000000  1
loop_
_geom_bond_atom_site_label_1
_geom_bond_atom_site_label_2
_geom_bond_distance
_geom_bond_site_symmetry_2
Ho0 Pd1 2.913011 1_554
Ho0 Pd2 2.913011 1_554
Ho0 Pd1 2.913011 1_555
Ho0 Pd2 2.913011 1_555
Ho0 Pd0 2.913295 1_555
Ho0 Zn0 3.140825 1_555
Ho0 Zn0 3.140825 1_554
Ho0 Zn1 3.188518 1_554
Ho0 Zn1 3.188518 1_555
Ho0 Zn2 3.188518 1_554
Ho0 Zn2 3.188518 1_555
Ho1 Pd1 2.913006 1_555
Ho1 Pd1 2.913006 1_554
Ho1 Pd2 2.913008 1_544
Ho1 Pd2 2.913008 1_545
Ho1 Pd0 2.913295 1_655
Ho1 Zn1 3.140825 1_554
Ho1 Zn1 3.140825 1_555
Ho1 Zn0 3.188518 1_544
Ho1 Zn0 3.188518 1_545
Ho1 Zn2 3.188518 1_655
Ho1 Zn2 3.188518 1_654
Ho2 Pd2 2.913006 1_554
Ho2 Pd2 2.913006 1_555
Ho2 Pd1 2.913008 1_454
Ho2 Pd1 2.913008 1_455
Ho2 Pd0 2.913295 1_565
Ho2 Zn2 3.140825 1_555
Ho2 Zn2 3.140825 1_554
Ho2 Zn0 3.188518 1_455
Ho2 Zn0 3.188518 1_454
Ho2 Zn1 3.188518 1_565
Ho2 Zn1 3.188518 1_564
Zn0 Zn2 3.131470 1_665
Zn0 Zn1 3.131470 1_665
Zn1 Zn2 3.131470 1_555
Pd0 Zn1 2.635614 1_555
Pd0 Zn2 2.635614 1_554
Pd0 Zn1 2.635614 1_554
Pd0 Zn2 2.635614 1_555
Pd0 Zn0 2.635614 1_445
Pd0 Zn0 2.635614 1_444
Pd1 Zn2 2.749042 1_655
Pd1 Zn1 2.749046 1_555
Pd1 Zn0 2.749049 1_555
Pd2 Zn1 2.749042 1_565
Pd2 Zn2 2.749046 1_555
Pd2 Zn0 2.749049 1_555
