# generated using pymatgen
data_RbAlO2
_symmetry_space_group_name_H-M   'P 1'
_cell_length_a   5.67213788
_cell_length_b   5.67213760
_cell_length_c   5.67213805
_cell_angle_alpha   59.99999744
_cell_angle_beta   59.99999906
_cell_angle_gamma   59.99999775
_symmetry_Int_Tables_number   1
_chemical_formula_structural   RbAlO2
_chemical_formula_sum   'Rb2 Al2 O4'
_cell_volume   129.04028471
_cell_formula_units_Z   2
loop_
 _symmetry_equiv_pos_site_id
 _symmetry_equiv_pos_as_xyz
  1  'x, y, z'
loop_
 _atom_site_type_symbol
 _atom_site_label
 _atom_site_symmetry_multiplicity
 _atom_site_fract_x
 _atom_site_fract_y
 _atom_site_fract_z
 _atom_site_occupancy
  Rb  Rb0  1  0.62500000  0.62500000  0.62500000  1
  Rb  Rb1  1  0.37500000  0.37500000  0.37500000  1
  Al  Al0  1  0.87500000  0.87500000  0.87500000  1
  Al  Al1  1  0.12500000  0.12500000  0.12500000  1
  O  O0  1  0.00000000  0.50000000  -0.00000000  1
  O  O1  1  0.50000000  0.00000000  -0.00000000  1
  O  O2  1  0.00000000  0.00000000  -0.00000000  1
  O  O3  1  0.00000000  0.00000000  0.50000000  1
loop_
_geom_bond_atom_site_label_1
_geom_bond_atom_site_label_2
_geom_bond_distance
_geom_bond_site_symmetry_2
Rb0 Rb1 3.473461 1_565
Rb0 Rb1 3.473461 1_655
Rb0 Rb1 3.473461 1_555
Rb0 Rb1 3.473461 1_556
Al0 O0 1.736730 1_656
Al0 O1 1.736730 1_566
Al0 O2 1.736730 1_666
Al0 O3 1.736730 1_665
Al1 O0 1.736730 1_555
Al1 O1 1.736730 1_555
Al1 O2 1.736730 1_555
Al1 O3 1.736730 1_555
O0 Rb1 3.325586 1_455
O0 Rb0 3.325586 1_554
O0 Rb1 3.325586 1_555
O0 Rb0 3.325586 1_454
O0 Rb1 3.325586 1_554
O0 Rb0 3.325586 1_455
O1 Rb1 3.325585 1_545
O1 Rb0 3.325585 1_554
O1 Rb1 3.325586 1_555
O1 Rb0 3.325586 1_544
O1 Rb1 3.325586 1_554
O1 Rb0 3.325586 1_545
O2 Rb0 3.325585 1_454
O2 Rb1 3.325585 1_545
O2 Rb1 3.325586 1_455
O2 Rb0 3.325586 1_544
O2 Rb0 3.325586 1_445
O2 Rb1 3.325586 1_554
O3 Rb1 3.325585 1_545
O3 Rb0 3.325585 1_455
O3 Rb1 3.325586 1_555
O3 Rb0 3.325586 1_445
O3 Rb1 3.325586 1_455
O3 Rb0 3.325586 1_545
