# generated using pymatgen
data_YSiRh
_symmetry_space_group_name_H-M   'P 1'
_cell_length_a   4.23205805
_cell_length_b   6.89393769
_cell_length_c   7.40422333
_cell_angle_alpha   90.00000000
_cell_angle_beta   90.00000000
_cell_angle_gamma   90.00000000
_symmetry_Int_Tables_number   1
_chemical_formula_structural   YSiRh
_chemical_formula_sum   'Y4 Si4 Rh4'
_cell_volume   216.02224723
_cell_formula_units_Z   4
loop_
 _symmetry_equiv_pos_site_id
 _symmetry_equiv_pos_as_xyz
  1  'x, y, z'
loop_
 _atom_site_type_symbol
 _atom_site_label
 _atom_site_symmetry_multiplicity
 _atom_site_fract_x
 _atom_site_fract_y
 _atom_site_fract_z
 _atom_site_occupancy
  Y  Y0  1  0.75000000  0.50046225  0.68999643  1
  Y  Y1  1  0.25000000  0.99953775  0.18999643  1
  Y  Y2  1  0.75000000  0.00046225  0.81000357  1
  Y  Y3  1  0.25000000  0.49953775  0.31000357  1
  Si  Si0  1  0.25000000  0.29768554  0.89647703  1
  Si  Si1  1  0.25000000  0.79768554  0.60352297  1
  Si  Si2  1  0.75000000  0.70231446  0.10352297  1
  Si  Si3  1  0.75000000  0.20231446  0.39647703  1
  Rh  Rh0  1  0.25000000  0.65234263  0.93188992  1
  Rh  Rh1  1  0.25000000  0.15234263  0.56811008  1
  Rh  Rh2  1  0.75000000  0.84765737  0.43188992  1
  Rh  Rh3  1  0.75000000  0.34765737  0.06811008  1
loop_
_geom_bond_atom_site_label_1
_geom_bond_atom_site_label_2
_geom_bond_distance
_geom_bond_site_symmetry_2
Y0 Y3 3.520468 1_555
Y0 Y3 3.520468 1_655
Y0 Y2 3.559653 1_565
Y0 Y2 3.559653 1_555
Y1 Y2 3.520468 1_564
Y1 Y2 3.520468 1_464
Y1 Y3 3.559653 1_565
Y1 Y3 3.559653 1_555
Si0 Y0 2.961267 1_555
Si0 Y0 2.961267 1_455
Si0 Y1 2.991301 1_546
Si0 Y2 3.014313 1_555
Si0 Y2 3.014313 1_455
Si0 Y3 3.363229 1_556
Si1 Y2 2.961267 1_465
Si1 Y2 2.961267 1_565
Si1 Y3 2.991301 1_555
Si1 Y0 3.014313 1_455
Si1 Y0 3.014313 1_555
Si1 Y1 3.363229 1_555
Si2 Y3 2.961267 1_555
Si2 Y3 2.961267 1_655
Si2 Y2 2.991301 1_564
Si2 Y1 3.014313 1_555
Si2 Y1 3.014313 1_655
Si2 Y0 3.363229 1_554
Si3 Y1 2.961267 1_645
Si3 Y1 2.961267 1_545
Si3 Y0 2.991301 1_555
Si3 Y3 3.014313 1_555
Si3 Y3 3.014313 1_655
Si3 Y2 3.363229 1_555
Rh0 Si0 2.459003 1_555
Rh0 Si2 2.492231 1_456
Rh0 Si2 2.492231 1_556
Rh0 Si1 2.629678 1_555
Rh0 Y0 2.963394 1_455
Rh0 Y0 2.963394 1_555
Rh0 Y3 2.991268 1_556
Rh0 Y1 3.062884 1_556
Rh0 Y2 3.324399 1_565
Rh0 Y2 3.324399 1_465
Rh1 Si1 2.459003 1_545
Rh1 Si3 2.492231 1_455
Rh1 Si3 2.492231 1_555
Rh1 Si0 2.629678 1_555
Rh1 Y2 2.963394 1_555
Rh1 Y2 2.963394 1_455
Rh1 Y1 2.991268 1_545
Rh1 Y3 3.062884 1_555
Rh1 Y0 3.324399 1_455
Rh1 Y0 3.324399 1_555
Rh2 Si3 2.459003 1_565
Rh2 Si1 2.492231 1_655
Rh2 Si1 2.492231 1_555
Rh2 Si2 2.629678 1_555
Rh2 Y1 2.963394 1_555
Rh2 Y1 2.963394 1_655
Rh2 Y2 2.991268 1_565
Rh2 Y0 3.062884 1_555
Rh2 Y3 3.324399 1_555
Rh2 Y3 3.324399 1_655
Rh3 Si2 2.459003 1_555
Rh3 Si0 2.492231 1_654
Rh3 Si0 2.492231 1_554
Rh3 Si3 2.629678 1_555
Rh3 Y3 2.963394 1_555
Rh3 Y3 2.963394 1_655
Rh3 Y0 2.991268 1_554
Rh3 Y2 3.062884 1_554
Rh3 Y1 3.324399 1_545
Rh3 Y1 3.324399 1_645
