# generated using pymatgen
data_La3Sb5O12
_symmetry_space_group_name_H-M   'P 1'
_cell_length_a   9.66701825
_cell_length_b   9.66701825
_cell_length_c   9.66701825
_cell_angle_alpha   109.47122063
_cell_angle_beta   109.47122063
_cell_angle_gamma   109.47122063
_symmetry_Int_Tables_number   1
_chemical_formula_structural   La3Sb5O12
_chemical_formula_sum   'La6 Sb10 O24'
_cell_volume   695.43368820
_cell_formula_units_Z   2
loop_
 _symmetry_equiv_pos_site_id
 _symmetry_equiv_pos_as_xyz
  1  'x, y, z'
loop_
 _atom_site_type_symbol
 _atom_site_label
 _atom_site_symmetry_multiplicity
 _atom_site_fract_x
 _atom_site_fract_y
 _atom_site_fract_z
 _atom_site_occupancy
  La  La0  1  0.25000000  0.75000000  0.50000000  1
  La  La1  1  0.75000000  0.25000000  0.50000000  1
  La  La2  1  0.75000000  0.50000000  0.25000000  1
  La  La3  1  0.25000000  0.50000000  0.75000000  1
  La  La4  1  0.50000000  0.25000000  0.75000000  1
  La  La5  1  0.50000000  0.75000000  0.25000000  1
  Sb  Sb0  1  0.50156932  0.50156932  0.50156932  1
  Sb  Sb1  1  0.49843068  -0.00000000  0.00000000  1
  Sb  Sb2  1  -0.00000000  0.49843068  0.00000000  1
  Sb  Sb3  1  -0.00000000  -0.00000000  0.49843068  1
  Sb  Sb4  1  0.72147262  0.72147262  -0.00000000  1
  Sb  Sb5  1  0.27852738  0.27852738  0.00000000  1
  Sb  Sb6  1  0.72147262  -0.00000000  0.72147262  1
  Sb  Sb7  1  0.27852738  0.00000000  0.27852738  1
  Sb  Sb8  1  0.00000000  0.72147262  0.72147262  1
  Sb  Sb9  1  0.00000000  0.27852738  0.27852738  1
  O  O0  1  0.80613553  0.51422845  0.51422845  1
  O  O1  1  0.19386447  0.70809292  0.70809292  1
  O  O2  1  0.00000000  0.48577155  0.29190708  1
  O  O3  1  0.51422845  0.51422845  0.80613553  1
  O  O4  1  0.00000000  0.29190708  0.48577155  1
  O  O5  1  0.70809292  0.70809292  0.19386447  1
  O  O6  1  0.48577155  0.29190708  -0.00000000  1
  O  O7  1  0.29190708  0.48577155  0.00000000  1
  O  O8  1  0.51422845  0.80613553  0.51422845  1
  O  O9  1  0.29190708  -0.00000000  0.48577155  1
  O  O10  1  0.48577155  -0.00000000  0.29190708  1
  O  O11  1  0.70809292  0.19386447  0.70809292  1
  O  O12  1  0.27335360  0.46706369  0.46706369  1
  O  O13  1  0.72664640  0.19371009  0.19371009  1
  O  O14  1  -0.00000000  0.53293631  0.80628991  1
  O  O15  1  0.46706369  0.46706369  0.27335360  1
  O  O16  1  -0.00000000  0.80628991  0.53293631  1
  O  O17  1  0.19371009  0.19371009  0.72664640  1
  O  O18  1  0.53293631  0.80628991  -0.00000000  1
  O  O19  1  0.80628991  0.53293631  0.00000000  1
  O  O20  1  0.46706369  0.27335360  0.46706369  1
  O  O21  1  0.80628991  0.00000000  0.53293631  1
  O  O22  1  0.53293631  0.00000000  0.80628991  1
  O  O23  1  0.19371009  0.72664640  0.19371009  1
loop_
_geom_bond_atom_site_label_1
_geom_bond_atom_site_label_2
_geom_bond_distance
_geom_bond_site_symmetry_2
La0 O2 2.372718 1_555
La0 O9 2.372718 1_565
La0 O1 2.372718 1_555
La0 O8 2.372718 1_555
La0 O23 2.740875 1_555
La0 O12 2.740875 1_555
La0 O22 2.740875 1_565
La0 O16 2.740875 1_555
La1 O10 2.372718 1_555
La1 O11 2.372718 1_555
La1 O4 2.372718 1_655
La1 O0 2.372718 1_555
La1 O13 2.740875 1_555
La1 O20 2.740875 1_555
La1 O14 2.740875 1_655
La1 O21 2.740875 1_555
La2 O6 2.372718 1_555
La2 O0 2.372718 1_555
La2 O2 2.372718 1_655
La2 O5 2.372718 1_555
La2 O13 2.740875 1_555
La2 O15 2.740875 1_555
La2 O16 2.740875 1_655
La2 O19 2.740875 1_555
La3 O1 2.372718 1_555
La3 O7 2.372718 1_556
La3 O4 2.372718 1_555
La3 O3 2.372718 1_555
La3 O17 2.740875 1_555
La3 O14 2.740875 1_555
La3 O18 2.740875 1_556
La3 O12 2.740875 1_555
La4 O9 2.372718 1_555
La4 O6 2.372718 1_556
La4 O11 2.372718 1_555
La4 O3 2.372718 1_555
La4 O17 2.740875 1_555
La4 O20 2.740875 1_555
La4 O22 2.740875 1_555
La4 O19 2.740875 1_556
La5 O8 2.372718 1_555
La5 O7 2.372718 1_555
La5 O10 2.372718 1_565
La5 O5 2.372718 1_555
La5 O23 2.740875 1_555
La5 O15 2.740875 1_555
La5 O18 2.740875 1_555
La5 O21 2.740875 1_565
O0 Sb8 1.964108 1_655
O0 O14 2.724419 1_655
O0 O16 2.724419 1_655
O1 Sb8 1.964108 1_555
O1 O16 2.724419 1_555
O1 O14 2.724419 1_555
O2 Sb9 1.964108 1_555
O3 Sb4 1.964108 1_556
O4 Sb9 1.964108 1_555
O5 Sb4 1.964108 1_555
O6 Sb5 1.964108 1_555
O7 Sb5 1.964108 1_555
O8 Sb6 1.964108 1_565
O9 Sb7 1.964108 1_555
O10 Sb7 1.964108 1_555
O10 O20 2.724419 1_555
O10 O23 2.724419 1_545
O11 Sb6 1.964108 1_555
O11 O22 2.724419 1_555
O11 O21 2.724419 1_555
O12 Sb0 2.008561 1_555
O12 Sb9 2.233911 1_555
O12 O4 2.724419 1_555
O12 O2 2.724419 1_555
O13 Sb1 2.008561 1_555
O13 Sb9 2.233911 1_655
O13 O4 2.724419 1_655
O13 O2 2.724419 1_655
O14 Sb2 2.008561 1_556
O14 Sb8 2.233911 1_555
O15 Sb0 2.008561 1_555
O15 Sb5 2.233911 1_555
O15 O6 2.724419 1_555
O15 O7 2.724419 1_555
O16 Sb3 2.008561 1_565
O16 Sb8 2.233911 1_555
O17 Sb3 2.008561 1_555
O17 Sb5 2.233911 1_556
O17 O7 2.724419 1_556
O17 O6 2.724419 1_556
O18 Sb1 2.008561 1_565
O18 Sb4 2.233911 1_555
O18 O3 2.724419 1_554
O18 O5 2.724419 1_555
O19 Sb2 2.008561 1_655
O19 Sb4 2.233911 1_555
O19 O3 2.724419 1_554
O19 O5 2.724419 1_555
O20 Sb0 2.008561 1_555
O20 Sb7 2.233911 1_555
O20 O9 2.724419 1_555
O21 Sb3 2.008561 1_655
O21 Sb6 2.233911 1_555
O21 O8 2.724419 1_545
O22 Sb1 2.008561 1_556
O22 Sb6 2.233911 1_555
O22 O8 2.724419 1_545
O23 Sb2 2.008561 1_555
O23 Sb7 2.233911 1_565
O23 O9 2.724419 1_565
