# generated using pymatgen
data_Li8Mn3Fe5(BO3)8
_symmetry_space_group_name_H-M   'P 1'
_cell_length_a   5.22424100
_cell_length_b   5.23227008
_cell_length_c   20.76274730
_cell_angle_alpha   90.99955168
_cell_angle_beta   90.69502554
_cell_angle_gamma   119.84699231
_symmetry_Int_Tables_number   1
_chemical_formula_structural   Li8Mn3Fe5(BO3)8
_chemical_formula_sum   'Li8 Mn3 Fe5 B8 O24'
_cell_volume   492.04537519
_cell_formula_units_Z   1
loop_
 _symmetry_equiv_pos_site_id
 _symmetry_equiv_pos_as_xyz
  1  'x, y, z'
loop_
 _atom_site_type_symbol
 _atom_site_label
 _atom_site_symmetry_multiplicity
 _atom_site_fract_x
 _atom_site_fract_y
 _atom_site_fract_z
 _atom_site_occupancy
  Li  Li0  1  0.34883400  0.32303200  0.66632200  1
  Li  Li1  1  0.32183500  0.34803000  0.91611700  1
  Li  Li2  1  0.34723000  0.32065300  0.16639100  1
  Li  Li3  1  0.32107100  0.34760300  0.41627100  1
  Li  Li4  1  0.66294600  0.65387600  0.79187500  1
  Li  Li5  1  0.65080900  0.66140000  0.54122100  1
  Li  Li6  1  0.66419500  0.65132800  0.29102200  1
  Li  Li7  1  0.65235800  0.66426300  0.04103500  1
  Mn  Mn0  1  0.99467700  0.32675400  0.55910500  1
  Mn  Mn1  1  0.99819300  0.67845500  0.43286600  1
  Mn  Mn2  1  0.67724900  0.99906600  0.18312100  1
  Fe  Fe0  1  0.00326700  0.32958600  0.05806500  1
  Fe  Fe1  1  0.00601900  0.68148400  0.93326400  1
  Fe  Fe2  1  0.67395500  0.99033900  0.68451700  1
  Fe  Fe3  1  0.32256500  0.99514000  0.80857500  1
  Fe  Fe4  1  0.32885500  0.00354400  0.30815000  1
  B  B0  1  0.66046400  0.00217200  0.93720200  1
  B  B1  1  0.65863100  0.00328000  0.43643700  1
  B  B2  1  0.99542100  0.33247400  0.81180600  1
  B  B3  1  0.99354700  0.33160600  0.31185700  1
  B  B4  1  0.00449700  0.66127000  0.68731600  1
  B  B5  1  0.00304700  0.65983500  0.18725900  1
  B  B6  1  0.33421000  0.99415700  0.56272400  1
  B  B7  1  0.33098900  0.99295700  0.06162800  1
  O  O0  1  0.74773500  0.07029900  0.79170300  1
  O  O1  1  0.74691200  0.06583100  0.29224300  1
  O  O2  1  0.92841300  0.25813000  0.95192400  1
  O  O3  1  0.41533500  0.02566800  0.91733100  1
  O  O4  1  0.93238900  0.25216300  0.45194300  1
  O  O5  1  0.42295200  0.03744500  0.41566300  1
  O  O6  1  0.97092500  0.58210200  0.82691400  1
  O  O7  1  0.36284400  0.27065100  0.56988400  1
  O  O8  1  0.96873900  0.58013800  0.32642700  1
  O  O9  1  0.35134400  0.26753000  0.06795600  1
  O  O10  1  0.26970900  0.35189100  0.81869400  1
  O  O11  1  0.26816900  0.35205400  0.31827700  1
  O  O12  1  0.72960200  0.63842900  0.69449800  1
  O  O13  1  0.72505600  0.62667600  0.19413400  1
  O  O14  1  0.63563100  0.72759400  0.94368700  1
  O  O15  1  0.02709300  0.41770100  0.66792300  1
  O  O16  1  0.62490700  0.72594800  0.44398300  1
  O  O17  1  0.03704400  0.42399300  0.16617400  1
  O  O18  1  0.57530900  0.95731900  0.57860200  1
  O  O19  1  0.58012700  0.96913500  0.07633100  1
  O  O20  1  0.06778100  0.75332800  0.54121300  1
  O  O21  1  0.06553700  0.74631400  0.04198300  1
  O  O22  1  0.25831200  0.93286100  0.70177800  1
  O  O23  1  0.25207300  0.93329500  0.20279100  1
loop_
_geom_bond_atom_site_label_1
_geom_bond_atom_site_label_2
_geom_bond_distance
_geom_bond_site_symmetry_2
Li0 O12 1.921751 1_555
Li0 O15 1.975155 1_555
Li0 O22 2.008267 1_545
Li0 O7 2.023394 1_555
Li1 O14 1.912115 1_555
Li1 O3 1.976209 1_555
Li1 O2 2.021218 1_455
Li1 O10 2.039534 1_555
Li2 O13 1.893692 1_555
Li2 O17 1.946897 1_555
Li2 O23 1.996433 1_545
Li2 O9 2.059600 1_555
Li3 O16 1.892049 1_555
Li3 O5 1.943253 1_555
Li3 O4 1.990281 1_455
Li3 O11 2.052082 1_555
Li4 O6 1.960001 1_555
Li4 O10 1.963297 1_555
Li4 O0 1.995796 1_565
Li4 O12 2.062746 1_555
Li5 O18 1.930973 1_555
Li5 O7 1.949370 1_555
Li5 O20 1.983356 1_655
Li5 O16 2.066663 1_555
Li6 O8 1.944609 1_555
Li6 O11 1.971628 1_555
Li6 O1 1.988966 1_565
Li6 O13 2.052266 1_555
Li7 O19 1.946563 1_555
Li7 O9 1.976604 1_555
Li7 O21 1.979973 1_655
Li7 O14 2.061708 1_554
Mn0 O7 2.095122 1_655
Mn0 O20 2.109352 1_655
Mn0 O18 2.129257 1_545
Mn0 O4 2.243760 1_555
Mn0 O15 2.287537 1_655
Mn1 O16 2.099842 1_555
Mn1 O5 2.115111 1_665
Mn1 O4 2.126260 1_555
Mn1 O8 2.246231 1_555
Mn1 O20 2.270221 1_655
Mn2 O13 2.099915 1_555
Mn2 O17 2.117477 1_665
Mn2 O23 2.117806 1_555
Mn2 O19 2.253815 1_555
Mn2 O1 2.283329 1_565
Fe0 O9 2.008802 1_555
Fe0 O21 2.072102 1_555
Fe0 O19 2.117288 1_445
Fe0 O2 2.225795 1_454
Fe0 O17 2.275630 1_555
Fe1 O3 2.032246 1_565
Fe1 O14 2.079005 1_455
Fe1 O2 2.088299 1_455
Fe1 O6 2.243884 1_455
Fe1 O21 2.271221 1_556
Fe2 O12 2.015555 1_555
Fe2 O22 2.075229 1_555
Fe2 O15 2.111497 1_665
Fe2 O18 2.236524 1_555
Fe2 O0 2.250008 1_565
Fe3 O10 2.026185 1_565
Fe3 O6 2.069823 1_455
Fe3 O0 2.089328 1_565
Fe3 O22 2.232393 1_555
Fe3 O3 2.289783 1_565
Fe4 O11 2.008371 1_555
Fe4 O1 2.073174 1_555
Fe4 O8 2.118818 1_445
Fe4 O23 2.210260 1_545
Fe4 O5 2.264707 1_555
B0 O14 1.385865 1_545
B0 O2 1.398510 1_555
B0 O3 1.403909 1_555
B1 O16 1.383958 1_545
B1 O5 1.393859 1_555
B1 O4 1.401876 1_555
B2 O0 1.389402 1_555
B2 O10 1.390585 1_655
B2 O6 1.404913 1_555
B3 O11 1.389112 1_655
B3 O1 1.394220 1_555
B3 O8 1.397962 1_555
B4 O15 1.390396 1_555
B4 O12 1.390659 1_455
B4 O22 1.402731 1_555
B5 O13 1.383734 1_455
B5 O17 1.395392 1_555
B5 O23 1.401659 1_555
B6 O7 1.383452 1_565
B6 O20 1.394326 1_555
B6 O18 1.402183 1_555
B7 O9 1.390509 1_565
B7 O21 1.393372 1_555
B7 O19 1.398552 1_555
