# generated using pymatgen
data_SrCeAlO4
_symmetry_space_group_name_H-M   'P 1'
_cell_length_a   6.78927513
_cell_length_b   6.78927513
_cell_length_c   6.78927513
_cell_angle_alpha   147.80749204
_cell_angle_beta   147.80749204
_cell_angle_gamma   46.16962793
_symmetry_Int_Tables_number   1
_chemical_formula_structural   SrCeAlO4
_chemical_formula_sum   'Sr1 Ce1 Al1 O4'
_cell_volume   88.51802512
_cell_formula_units_Z   1
loop_
 _symmetry_equiv_pos_site_id
 _symmetry_equiv_pos_as_xyz
  1  'x, y, z'
loop_
 _atom_site_type_symbol
 _atom_site_label
 _atom_site_symmetry_multiplicity
 _atom_site_fract_x
 _atom_site_fract_y
 _atom_site_fract_z
 _atom_site_occupancy
  Sr  Sr0  1  0.64327900  0.64327900  0.00000000  1
  Ce  Ce0  1  0.35688900  0.35688900  0.00000000  1
  Al  Al0  1  0.00323900  0.00323900  0.00000000  1
  O  O0  1  0.99536500  0.49536500  0.50000000  1
  O  O1  1  0.49536500  0.99536500  0.50000000  1
  O  O2  1  0.83932600  0.83932600  0.00000000  1
  O  O3  1  0.16653700  0.16653700  0.00000000  1
loop_
_geom_bond_atom_site_label_1
_geom_bond_atom_site_label_2
_geom_bond_distance
_geom_bond_site_symmetry_2
Ce0 O3 2.377735 1_555
Ce0 O0 2.556403 1_555
Ce0 O1 2.556403 1_555
Ce0 O1 2.556403 1_544
Ce0 O0 2.556403 1_454
Ce0 O2 2.671054 1_556
Ce0 O2 2.671054 1_444
Ce0 O2 2.671054 1_545
Ce0 O2 2.671054 1_455
Al0 O1 1.884907 1_444
Al0 O0 1.884907 1_444
Al0 O0 1.884907 1_455
Al0 O1 1.884907 1_545
Al0 O3 2.039797 1_555
Al0 O2 2.047479 1_445
O0 Sr0 2.637602 1_555
O0 Sr0 2.637602 1_656
O1 Sr0 2.637602 1_555
O1 Sr0 2.637602 1_566
O2 Sr0 2.448873 1_555
O3 Sr0 2.677836 1_455
O3 Sr0 2.677836 1_444
O3 Sr0 2.677836 1_545
O3 Sr0 2.677836 1_556
