# generated using pymatgen
data_Cd(CoO2)2
_symmetry_space_group_name_H-M   'P 1'
_cell_length_a   10.99651200
_cell_length_b   5.11535600
_cell_length_c   5.95511159
_cell_angle_alpha   89.92885064
_cell_angle_beta   90.00000000
_cell_angle_gamma   90.00000000
_symmetry_Int_Tables_number   1
_chemical_formula_structural   Cd(CoO2)2
_chemical_formula_sum   'Cd4 Co8 O16'
_cell_volume   334.98116238
_cell_formula_units_Z   4
loop_
 _symmetry_equiv_pos_site_id
 _symmetry_equiv_pos_as_xyz
  1  'x, y, z'
loop_
 _atom_site_type_symbol
 _atom_site_label
 _atom_site_symmetry_multiplicity
 _atom_site_fract_x
 _atom_site_fract_y
 _atom_site_fract_z
 _atom_site_occupancy
  Cd  Cd0  1  0.25000000  0.47535700  0.74362600  1
  Cd  Cd1  1  0.75000000  0.14673800  0.75416200  1
  Cd  Cd2  1  0.25000000  0.85326200  0.24583800  1
  Cd  Cd3  1  0.75000000  0.52464300  0.25637400  1
  Co  Co0  1  0.01479000  0.48890100  0.24970000  1
  Co  Co1  1  0.98521000  0.51109900  0.75030000  1
  Co  Co2  1  0.48521000  0.48890100  0.24970000  1
  Co  Co3  1  0.51479000  0.51109900  0.75030000  1
  Co  Co4  1  0.00000000  0.00000000  0.00000000  1
  Co  Co5  1  0.50000000  0.00000000  0.00000000  1
  Co  Co6  1  0.00000000  0.00000000  0.50000000  1
  Co  Co7  1  0.50000000  0.00000000  0.50000000  1
  O  O0  1  0.89579100  0.33415900  0.00484800  1
  O  O1  1  0.60420900  0.33415900  0.00484800  1
  O  O2  1  0.60426200  0.33464200  0.49918200  1
  O  O3  1  0.89573800  0.33464200  0.49918200  1
  O  O4  1  0.09852300  0.16289300  0.24984000  1
  O  O5  1  0.40147700  0.16289300  0.24984000  1
  O  O6  1  0.08811000  0.17692300  0.74916100  1
  O  O7  1  0.41189000  0.17692300  0.74916100  1
  O  O8  1  0.58811000  0.82307700  0.25083900  1
  O  O9  1  0.91189000  0.82307700  0.25083900  1
  O  O10  1  0.59852300  0.83710700  0.75016000  1
  O  O11  1  0.90147700  0.83710700  0.75016000  1
  O  O12  1  0.10420900  0.66584100  0.99515200  1
  O  O13  1  0.39579100  0.66584100  0.99515200  1
  O  O14  1  0.10426200  0.66535800  0.50081800  1
  O  O15  1  0.39573800  0.66535800  0.50081800  1
loop_
_geom_bond_atom_site_label_1
_geom_bond_atom_site_label_2
_geom_bond_distance
_geom_bond_site_symmetry_2
Cd0 O6 2.345348 1_555
Cd0 O7 2.345348 1_555
Cd0 O15 2.366489 1_555
Cd0 O14 2.366489 1_555
Cd0 O12 2.401436 1_555
Cd0 O13 2.401436 1_555
Cd1 O10 2.298681 1_545
Cd1 O11 2.298681 1_545
Cd1 O0 2.391981 1_556
Cd1 O1 2.391981 1_556
Cd1 O3 2.407130 1_555
Cd1 O2 2.407130 1_555
Cd2 O5 2.298681 1_565
Cd2 O4 2.298681 1_565
Cd2 O12 2.391981 1_554
Cd2 O13 2.391981 1_554
Cd2 O14 2.407130 1_555
Cd2 O15 2.407130 1_555
Cd3 O8 2.345348 1_555
Cd3 O9 2.345348 1_555
Cd3 O3 2.366489 1_555
Cd3 O2 2.366489 1_555
Cd3 O1 2.401436 1_555
Cd3 O0 2.401436 1_555
Co0 O4 1.904957 1_555
Co0 O14 2.005607 1_555
Co0 O12 2.020032 1_554
Co0 O9 2.050026 1_455
Co0 O0 2.113745 1_455
Co0 O3 2.130945 1_455
Co1 O11 1.904957 1_555
Co1 O3 2.005607 1_555
Co1 O0 2.020032 1_556
Co1 O6 2.050026 1_655
Co1 O12 2.113745 1_655
Co1 O14 2.130945 1_655
Co2 O5 1.904957 1_555
Co2 O15 2.005607 1_555
Co2 O13 2.020032 1_554
Co2 O8 2.050026 1_555
Co2 O1 2.113745 1_555
Co2 O2 2.130945 1_555
Co3 O10 1.904957 1_555
Co3 O2 2.005607 1_555
Co3 O1 2.020032 1_556
Co3 O7 2.050026 1_555
Co3 O13 2.113745 1_555
Co3 O15 2.130945 1_555
Co4 O9 1.996458 1_445
Co4 O6 1.996458 1_554
Co4 O4 2.021087 1_555
Co4 O11 2.021087 1_444
Co4 O12 2.058148 1_544
Co4 O0 2.058148 1_455
Co5 O7 1.996458 1_554
Co5 O8 1.996458 1_545
Co5 O5 2.021087 1_555
Co5 O10 2.021087 1_544
Co5 O1 2.058148 1_555
Co5 O13 2.058148 1_544
Co6 O9 1.990674 1_445
Co6 O6 1.990674 1_555
Co6 O4 2.020966 1_555
Co6 O11 2.020966 1_445
Co6 O14 2.060294 1_545
Co6 O3 2.060294 1_455
Co7 O7 1.990674 1_555
Co7 O8 1.990674 1_545
Co7 O5 2.020966 1_555
Co7 O10 2.020966 1_545
Co7 O2 2.060294 1_555
Co7 O15 2.060294 1_545
