# generated using pymatgen
data_B10H11C2
_symmetry_space_group_name_H-M   'P 1'
_cell_length_a   7.16367461
_cell_length_b   9.84968057
_cell_length_c   12.49597910
_cell_angle_alpha   90.00000000
_cell_angle_beta   92.66408509
_cell_angle_gamma   90.00000000
_symmetry_Int_Tables_number   1
_chemical_formula_structural   B10H11C2
_chemical_formula_sum   'B40 H44 C8'
_cell_volume   880.76216671
_cell_formula_units_Z   4
loop_
 _symmetry_equiv_pos_site_id
 _symmetry_equiv_pos_as_xyz
  1  'x, y, z'
loop_
 _atom_site_type_symbol
 _atom_site_label
 _atom_site_symmetry_multiplicity
 _atom_site_fract_x
 _atom_site_fract_y
 _atom_site_fract_z
 _atom_site_occupancy
  B  B0  1  0.52708090  0.21207454  0.72714929  1
  B  B1  1  0.02708090  0.28792546  0.22714929  1
  B  B2  1  0.47291910  0.78792546  0.27285071  1
  B  B3  1  0.97291910  0.71207454  0.77285071  1
  B  B4  1  0.30836735  0.27654801  0.67628012  1
  B  B5  1  0.80836735  0.22345199  0.17628012  1
  B  B6  1  0.69163265  0.72345199  0.32371988  1
  B  B7  1  0.19163265  0.77654801  0.82371988  1
  B  B8  1  0.46263324  0.38190473  0.75457442  1
  B  B9  1  0.96263324  0.11809527  0.25457442  1
  B  B10  1  0.53736676  0.61809527  0.24542558  1
  B  B11  1  0.03736676  0.88190473  0.74542558  1
  B  B12  1  0.56551089  0.27963061  0.50607956  1
  B  B13  1  0.06551089  0.22036939  0.00607956  1
  B  B14  1  0.43448911  0.72036939  0.49392044  1
  B  B15  1  0.93448911  0.77963061  0.99392044  1
  B  B16  1  0.33314739  0.31815946  0.53951474  1
  B  B17  1  0.83314739  0.18184054  0.03951474  1
  B  B18  1  0.66685261  0.68184054  0.46048526  1
  B  B19  1  0.16685261  0.81815946  0.96048526  1
  B  B20  1  0.68611096  0.21398305  0.62193093  1
  B  B21  1  0.18611096  0.28601695  0.12193093  1
  B  B22  1  0.31388904  0.78601695  0.37806907  1
  B  B23  1  0.81388904  0.71398305  0.87806907  1
  B  B24  1  0.44650584  0.17253241  0.59430556  1
  B  B25  1  0.94650584  0.32746759  0.09430556  1
  B  B26  1  0.55349416  0.82746759  0.40569444  1
  B  B27  1  0.05349416  0.67253241  0.90569444  1
  B  B28  1  0.69490428  0.34364151  0.72101881  1
  B  B29  1  0.19490428  0.15635849  0.22101881  1
  B  B30  1  0.30509572  0.65635849  0.27898119  1
  B  B31  1  0.80509572  0.84364151  0.77898119  1
  B  B32  1  0.72066399  0.38378799  0.58464210  1
  B  B33  1  0.22066399  0.11621201  0.08464210  1
  B  B34  1  0.27933601  0.61621201  0.41535790  1
  B  B35  1  0.77933601  0.88378799  0.91535790  1
  B  B36  1  0.34129301  0.44662632  0.63915521  1
  B  B37  1  0.84129301  0.05337368  0.13915521  1
  B  B38  1  0.65870699  0.55337368  0.36084479  1
  B  B39  1  0.15870699  0.94662632  0.86084479  1
  H  H0  1  0.39770235  0.06259399  0.56659297  1
  H  H1  1  0.89770235  0.43740601  0.06659297  1
  H  H2  1  0.60229765  0.93740601  0.43340703  1
  H  H3  1  0.10229765  0.56259399  0.93340703  1
  H  H4  1  0.43364187  0.43369272  0.83746879  1
  H  H5  1  0.93364187  0.06630728  0.33746879  1
  H  H6  1  0.56635813  0.56630728  0.16253121  1
  H  H7  1  0.06635813  0.93369272  0.66253121  1
  H  H8  1  0.59969254  0.25890677  0.41595806  1
  H  H9  1  0.09969254  0.24109323  0.91595806  1
  H  H10  1  0.40030746  0.74109323  0.58404194  1
  H  H11  1  0.90030746  0.75890677  0.08404194  1
  H  H12  1  0.61592624  0.57888970  0.67849126  1
  H  H13  1  0.11592624  0.92111030  0.17849126  1
  H  H14  1  0.38407376  0.42111030  0.32150874  1
  H  H15  1  0.88407376  0.07888970  0.82150874  1
  H  H16  1  0.80983703  0.13515569  0.61434469  1
  H  H17  1  0.30983703  0.36484431  0.11434469  1
  H  H18  1  0.19016297  0.86484431  0.38565531  1
  H  H19  1  0.69016297  0.63515569  0.88565531  1
  H  H20  1  0.82141632  0.36979353  0.78174309  1
  H  H21  1  0.32141632  0.13020647  0.28174309  1
  H  H22  1  0.17858368  0.63020647  0.21825691  1
  H  H23  1  0.67858368  0.86979353  0.71825691  1
  H  H24  1  0.85202479  0.43923621  0.55207162  1
  H  H25  1  0.35202479  0.06076379  0.05207162  1
  H  H26  1  0.14797521  0.56076379  0.44792838  1
  H  H27  1  0.64797521  0.93923621  0.94792838  1
  H  H28  1  0.16173973  0.24237180  0.70737337  1
  H  H29  1  0.66173973  0.25762820  0.20737337  1
  H  H30  1  0.83826027  0.75762820  0.29262663  1
  H  H31  1  0.33826027  0.74237180  0.79262663  1
  H  H32  1  0.53798100  0.13001580  0.79649848  1
  H  H33  1  0.03798100  0.36998420  0.29649848  1
  H  H34  1  0.46201900  0.86998420  0.20350152  1
  H  H35  1  0.96201900  0.63001580  0.70350152  1
  H  H36  1  0.24044933  0.54063778  0.63954541  1
  H  H37  1  0.74044933  0.95936222  0.13954541  1
  H  H38  1  0.75955067  0.45936222  0.36045459  1
  H  H39  1  0.25955067  0.04063778  0.86045459  1
  H  H40  1  0.21328273  0.32276834  0.47141673  1
  H  H41  1  0.71328273  0.17723166  0.97141673  1
  H  H42  1  0.78671727  0.67723166  0.52858327  1
  H  H43  1  0.28671727  0.82276834  0.02858327  1
  C  C0  1  0.50224390  0.44113467  0.53983895  1
  C  C1  1  0.00224390  0.05886533  0.03983895  1
  C  C2  1  0.49775610  0.55886533  0.46016105  1
  C  C3  1  0.99775610  0.94113467  0.96016105  1
  C  C4  1  0.57533474  0.47460294  0.66316706  1
  C  C5  1  0.07533474  0.02539706  0.16316706  1
  C  C6  1  0.42466526  0.52539706  0.33683294  1
  C  C7  1  0.92466526  0.97460294  0.83683294  1
loop_
_geom_bond_atom_site_label_1
_geom_bond_atom_site_label_2
_geom_bond_distance
_geom_bond_site_symmetry_2
B0 H32 1.184926 1_555
B1 H33 1.184926 1_555
B2 H34 1.184926 1_555
B3 H35 1.184926 1_555
B4 H28 1.185556 1_555
B5 H29 1.185556 1_555
B6 H30 1.185556 1_555
B7 H31 1.185556 1_555
B8 H4 1.181654 1_555
B9 H5 1.181654 1_555
B10 H6 1.181654 1_555
B11 H7 1.181654 1_555
B12 H8 1.181308 1_555
B12 C0 1.712214 1_555
B13 H9 1.181308 1_554
B13 C1 1.712214 1_555
B14 H10 1.181308 1_555
B14 C2 1.712214 1_555
B15 H11 1.181308 1_556
B15 C3 1.712214 1_555
B16 H40 1.181343 1_555
B16 C0 1.712922 1_555
B17 H41 1.181343 1_554
B17 C1 1.712922 1_655
B18 H42 1.181343 1_555
B18 C2 1.712922 1_555
B19 H43 1.181343 1_556
B19 C3 1.712922 1_455
B20 H16 1.185419 1_555
B21 H17 1.185419 1_555
B22 H18 1.185419 1_555
B23 H19 1.185419 1_555
B24 H0 1.184684 1_555
B25 H1 1.184684 1_555
B26 H2 1.184684 1_555
B27 H3 1.184684 1_555
B28 H20 1.183038 1_555
B29 H21 1.183038 1_555
B30 H22 1.183038 1_555
B31 H23 1.183038 1_555
B32 H24 1.176886 1_555
B32 C0 1.731853 1_555
B33 H25 1.176886 1_555
B33 C1 1.731853 1_555
B34 H26 1.176886 1_555
B34 C2 1.731853 1_555
B35 H27 1.176886 1_555
B35 C3 1.731853 1_555
B36 H36 1.174595 1_555
B36 C0 1.733658 1_555
B37 H37 1.174595 1_545
B37 C1 1.733658 1_655
B38 H38 1.174595 1_555
B38 C2 1.733658 1_555
B39 H39 1.174595 1_565
B39 C3 1.733658 1_455
C0 C2 1.527769 1_555
C0 C4 1.637932 1_555
C1 C3 1.527769 1_444
C1 C5 1.637932 1_555
C2 C6 1.637932 1_555
C3 C7 1.637932 1_555
C4 H12 1.082206 1_555
C5 H13 1.082206 1_545
C6 H14 1.082206 1_555
C7 H15 1.082206 1_565
