# generated using pymatgen
data_Li7Mn2(CoO4)3
_symmetry_space_group_name_H-M   'P 1'
_cell_length_a   5.15394100
_cell_length_b   5.88362054
_cell_length_c   7.63185529
_cell_angle_alpha   99.94489621
_cell_angle_beta   96.58166047
_cell_angle_gamma   108.15455143
_symmetry_Int_Tables_number   1
_chemical_formula_structural   Li7Mn2(CoO4)3
_chemical_formula_sum   'Li7 Mn2 Co3 O12'
_cell_volume   213.06614311
_cell_formula_units_Z   1
loop_
 _symmetry_equiv_pos_site_id
 _symmetry_equiv_pos_as_xyz
  1  'x, y, z'
loop_
 _atom_site_type_symbol
 _atom_site_label
 _atom_site_symmetry_multiplicity
 _atom_site_fract_x
 _atom_site_fract_y
 _atom_site_fract_z
 _atom_site_occupancy
  Li  Li0  1  0.49529900  0.91046600  0.16513200  1
  Li  Li1  1  0.50449500  0.25352500  0.49868600  1
  Li  Li2  1  0.49578200  0.58313600  0.83778700  1
  Li  Li3  1  0.49727700  0.42070000  0.16364900  1
  Li  Li4  1  0.50398000  0.74453000  0.50052000  1
  Li  Li5  1  0.50188300  0.09016500  0.84069300  1
  Li  Li6  1  0.00034400  0.49876900  0.99968900  1
  Mn  Mn0  1  0.99794400  0.00198200  0.99787600  1
  Mn  Mn1  1  0.99976600  0.17462900  0.66796500  1
  Co  Co0  1  0.00649400  0.33976000  0.32524400  1
  Co  Co1  1  0.99826000  0.66498500  0.66773700  1
  Co  Co2  1  0.99572800  0.82334800  0.32549900  1
  O  O0  1  0.76919100  0.72842500  0.09031700  1
  O  O1  1  0.77879700  0.05539600  0.42749100  1
  O  O2  1  0.78420500  0.37555100  0.73822300  1
  O  O3  1  0.77380600  0.19219100  0.08479800  1
  O  O4  1  0.77590100  0.54535900  0.42692100  1
  O  O5  1  0.76381300  0.90268200  0.75959700  1
  O  O6  1  0.23300200  0.11409400  0.23328200  1
  O  O7  1  0.24222100  0.43783300  0.58837900  1
  O  O8  1  0.20910600  0.79787200  0.90570600  1
  O  O9  1  0.24056800  0.62000800  0.26421300  1
  O  O10  1  0.20553000  0.95387900  0.58301300  1
  O  O11  1  0.22660800  0.27071600  0.90758400  1
loop_
_geom_bond_atom_site_label_1
_geom_bond_atom_site_label_2
_geom_bond_distance
_geom_bond_site_symmetry_2
Li0 O3 2.062493 1_565
Li0 O0 2.093223 1_555
Li0 O6 2.118647 1_565
Li0 O9 2.119362 1_555
Li0 O8 2.191606 1_554
Li0 O1 2.198720 1_565
Li1 O4 2.051488 1_555
Li1 O2 2.057481 1_555
Li1 O7 2.083478 1_555
Li1 O1 2.153386 1_555
Li1 O6 2.189677 1_555
Li1 O10 2.196125 1_545
Li2 O7 2.057497 1_555
Li2 O0 2.118613 1_556
Li2 O11 2.122661 1_555
Li2 O5 2.181088 1_555
Li2 O8 2.271696 1_555
Li2 O2 2.312700 1_555
Li3 O6 2.087525 1_555
Li3 O0 2.122234 1_555
Li3 O11 2.134511 1_554
Li3 O9 2.145553 1_555
Li3 O4 2.193262 1_555
Li3 O3 2.304815 1_555
Li4 O9 1.998718 1_555
Li4 O5 2.132998 1_555
Li4 O1 2.140281 1_565
Li4 O4 2.151594 1_555
Li4 O7 2.152692 1_555
Li4 O10 2.326882 1_555
Li5 O3 2.070290 1_556
Li5 O5 2.075078 1_545
Li5 O11 2.078423 1_555
Li5 O8 2.080837 1_545
Li5 O2 2.177174 1_555
Li5 O10 2.201557 1_545
Li6 O8 2.049882 1_555
Li6 O2 2.058130 1_455
Li6 O3 2.074823 1_456
Li6 O11 2.119339 1_555
Li6 O9 2.120513 1_556
Li6 O0 2.143059 1_456
Mn0 O6 1.929830 1_656
Mn0 O3 1.936966 1_556
Mn0 O11 1.940370 1_655
Mn0 O5 1.948101 1_545
Mn0 O8 1.954376 1_645
Mn0 O0 1.969418 1_546
Mn1 O7 1.903034 1_655
Mn1 O2 1.911893 1_555
Mn1 O1 1.932778 1_555
Mn1 O11 1.942075 1_655
Mn1 O5 1.974063 1_545
Mn1 O10 1.989220 1_645
Co0 O9 1.882984 1_555
Co0 O3 1.963620 1_455
Co0 O1 2.054915 1_455
Co0 O4 2.064210 1_455
Co0 O7 2.108432 1_555
Co0 O6 2.109541 1_555
Co1 O8 1.902165 1_655
Co1 O2 1.920453 1_555
Co1 O4 1.937589 1_555
Co1 O10 1.963374 1_655
Co1 O7 2.162431 1_655
Co1 O5 2.194538 1_555
Co2 O0 1.914079 1_555
Co2 O4 2.010334 1_555
Co2 O10 2.023734 1_655
Co2 O9 2.031073 1_655
Co2 O6 2.055869 1_665
Co2 O1 2.122165 1_565
