# generated using pymatgen
data_Th2Co17
_symmetry_space_group_name_H-M   'P 1'
_cell_length_a   6.28847943
_cell_length_b   6.28856340
_cell_length_c   6.28845747
_cell_angle_alpha   83.00292741
_cell_angle_beta   83.00267928
_cell_angle_gamma   83.00294905
_symmetry_Int_Tables_number   1
_chemical_formula_structural   Th2Co17
_chemical_formula_sum   'Th2 Co17'
_cell_volume   243.54101324
_cell_formula_units_Z   1
loop_
 _symmetry_equiv_pos_site_id
 _symmetry_equiv_pos_as_xyz
  1  'x, y, z'
loop_
 _atom_site_type_symbol
 _atom_site_label
 _atom_site_symmetry_multiplicity
 _atom_site_fract_x
 _atom_site_fract_y
 _atom_site_fract_z
 _atom_site_occupancy
  Th  Th0  1  0.65581593  0.65583167  0.65581290  1
  Th  Th1  1  0.34417778  0.34419127  0.34417802  1
  Co  Co0  1  0.34437221  0.34438839  0.85158439  1
  Co  Co1  1  0.34437380  0.85160398  0.34438699  1
  Co  Co2  1  0.09544085  0.09541372  0.09540477  1
  Co  Co3  1  0.90460086  0.90457242  0.90456184  1
  Co  Co4  1  -0.00000437  -0.00001872  0.50002631  1
  Co  Co5  1  0.49997490  -0.00000786  0.00000990  1
  Co  Co6  1  0.00000280  0.50001171  0.00001162  1
  Co  Co7  1  0.28057141  0.71941915  -0.00000419  1
  Co  Co8  1  0.00000644  0.28058638  0.71941723  1
  Co  Co9  1  0.71941492  -0.00001191  0.28059052  1
  Co  Co10  1  0.71941498  0.28057593  -0.00000708  1
  Co  Co11  1  0.00000877  0.71942575  0.28058286  1
  Co  Co12  1  0.28058454  -0.00001607  0.71942676  1
  Co  Co13  1  0.65560816  0.14839113  0.65561490  1
  Co  Co14  1  0.65561500  0.65563235  0.14838470  1
  Co  Co15  1  0.14840769  0.65562530  0.65562326  1
  Co  Co16  1  0.85161434  0.34438543  0.34439430  1
loop_
_geom_bond_atom_site_label_1
_geom_bond_atom_site_label_2
_geom_bond_distance
_geom_bond_site_symmetry_2
Co0 Co6 2.394227 1_556
Co0 Co5 2.394339 1_556
Co0 Co15 2.462245 1_555
Co0 Co13 2.462345 1_555
Co0 Co8 2.504548 1_555
Co0 Co12 2.504740 1_555
Co0 Co2 2.584611 1_556
Co0 Co7 2.609319 1_556
Co0 Co10 2.609356 1_556
Co0 Th0 2.991127 1_555
Co0 Th1 3.097355 1_556
Co0 Th1 3.191104 1_555
Co1 Co5 2.394131 1_565
Co1 Co4 2.394202 1_565
Co1 Co15 2.462279 1_555
Co1 Co14 2.462388 1_555
Co1 Co11 2.504582 1_555
Co1 Co7 2.504743 1_555
Co1 Co2 2.584620 1_565
Co1 Co12 2.609252 1_565
Co1 Co9 2.609279 1_565
Co1 Th0 2.991039 1_555
Co1 Th1 3.097357 1_565
Co1 Th1 3.191208 1_555
Co2 Co3 2.318076 1_444
Co2 Co5 2.556435 1_555
Co2 Co6 2.556860 1_555
Co2 Co4 2.556998 1_555
Co2 Co7 2.609750 1_545
Co2 Co8 2.609812 1_554
Co2 Co9 2.610030 1_455
Co2 Th1 3.021622 1_555
Co3 Co4 2.556424 1_665
Co3 Co6 2.556658 1_656
Co3 Co5 2.557023 1_566
Co3 Co7 2.609687 1_656
Co3 Co8 2.609877 1_665
Co3 Co9 2.610022 1_566
Co3 Th0 3.021568 1_555
Co4 Co8 2.368626 1_555
Co4 Co9 2.368658 1_455
Co4 Th0 3.230490 1_445
Co4 Th1 3.230826 1_555
Co5 Co7 2.368521 1_545
Co5 Co9 2.368677 1_555
Co5 Th0 3.230660 1_544
Co5 Th1 3.230665 1_555
Co6 Co7 2.368478 1_555
Co6 Co8 2.368694 1_554
Co6 Th1 3.230560 1_555
Co6 Th0 3.230758 1_454
Co7 Th1 3.024751 1_555
Co7 Th0 3.024780 1_554
Co8 Th1 3.024724 1_555
Co8 Th0 3.024862 1_455
Co9 Th0 3.024612 1_545
Co9 Th1 3.024859 1_555
Co10 Co8 2.338370 1_654
Co10 Co9 2.338467 1_555
Co10 Co5 2.368700 1_555
Co10 Co6 2.368732 1_655
Co10 Co13 2.504675 1_554
Co10 Co16 2.504856 1_555
Co10 Co14 2.609413 1_555
Co10 Co3 2.609947 1_544
Co10 Co2 2.609970 1_655
Co10 Th1 3.024780 1_555
Co10 Th0 3.024855 1_554
Co11 Co7 2.338297 1_555
Co11 Co9 2.338350 1_465
Co11 Co6 2.368537 1_555
Co11 Co4 2.368570 1_565
Co11 Co14 2.504783 1_455
Co11 Co15 2.609309 1_555
Co11 Co16 2.609328 1_455
Co11 Co2 2.609846 1_565
Co11 Co3 2.609899 1_454
Co11 Th1 3.024722 1_555
Co11 Th0 3.024763 1_455
Co12 Co7 2.338252 1_546
Co12 Co8 2.338451 1_555
Co12 Co5 2.368492 1_556
Co12 Co4 2.368561 1_555
Co12 Co15 2.504560 1_545
Co12 Co13 2.609242 1_555
Co12 Co3 2.609673 1_445
Co12 Co2 2.609686 1_556
Co12 Th0 3.024651 1_545
Co12 Th1 3.024923 1_555
Co13 Co4 2.394207 1_655
Co13 Co5 2.394314 1_556
Co13 Co16 2.462375 1_555
Co13 Co8 2.504820 1_655
Co13 Co3 2.584738 1_545
Co13 Co9 2.609227 1_555
Co13 Th1 2.991079 1_555
Co13 Th0 3.097181 1_545
Co13 Th0 3.191383 1_555
Co14 Co5 2.394130 1_565
Co14 Co6 2.394202 1_655
Co14 Co16 2.462531 1_555
Co14 Co9 2.504619 1_565
Co14 Co3 2.584693 1_554
Co14 Co7 2.609305 1_555
Co14 Th1 2.991124 1_555
Co14 Th0 3.097211 1_554
Co14 Th0 3.191248 1_555
Co15 Co4 2.394094 1_565
Co15 Co6 2.394250 1_556
Co15 Co7 2.504556 1_556
Co15 Co3 2.584495 1_455
Co15 Co8 2.609339 1_555
Co15 Th1 2.991088 1_555
Co15 Th0 3.097350 1_455
Co15 Th0 3.191130 1_555
Co16 Co6 2.394215 1_655
Co16 Co4 2.394351 1_655
Co16 Co9 2.504851 1_555
Co16 Co2 2.584838 1_655
Co16 Co8 2.609187 1_655
Co16 Th0 2.991071 1_555
Co16 Th1 3.097161 1_655
Co16 Th1 3.191319 1_555
