# generated using pymatgen
data_TiO2
_symmetry_space_group_name_H-M   'P 1'
_cell_length_a   5.01793404
_cell_length_b   5.01793404
_cell_length_c   10.23522300
_cell_angle_alpha   90.00000000
_cell_angle_beta   90.00000000
_cell_angle_gamma   145.83292154
_symmetry_Int_Tables_number   1
_chemical_formula_structural   TiO2
_chemical_formula_sum   'Ti4 O8'
_cell_volume   144.73732186
_cell_formula_units_Z   4
loop_
 _symmetry_equiv_pos_site_id
 _symmetry_equiv_pos_as_xyz
  1  'x, y, z'
loop_
 _atom_site_type_symbol
 _atom_site_label
 _atom_site_symmetry_multiplicity
 _atom_site_fract_x
 _atom_site_fract_y
 _atom_site_fract_z
 _atom_site_occupancy
  Ti  Ti0  1  0.13308700  0.86691300  0.08314200  1
  Ti  Ti1  1  0.86691300  0.13308700  0.91685800  1
  Ti  Ti2  1  0.13308700  0.86691300  0.41685800  1
  Ti  Ti3  1  0.86691300  0.13308700  0.58314200  1
  O  O0  1  0.75440000  0.24560000  0.39713400  1
  O  O1  1  0.24560000  0.75440000  0.60286600  1
  O  O2  1  0.24560000  0.75440000  0.89713400  1
  O  O3  1  0.75440000  0.24560000  0.10286600  1
  O  O4  1  0.06576500  0.93423500  0.25000000  1
  O  O5  1  0.93423500  0.06576500  0.75000000  1
  O  O6  1  0.50000000  0.50000000  0.00000000  1
  O  O7  1  0.50000000  0.50000000  0.50000000  1
loop_
_geom_bond_atom_site_label_1
_geom_bond_atom_site_label_2
_geom_bond_distance
_geom_bond_site_symmetry_2
O0 Ti2 1.888931 1_655
O0 Ti2 1.888931 1_545
O0 Ti3 2.188507 1_555
O0 O7 2.971947 1_655
O0 O7 2.971947 1_545
O1 Ti3 1.888931 1_565
O1 Ti3 1.888931 1_455
O1 Ti2 2.188507 1_555
O1 O7 2.971947 1_565
O1 O7 2.971947 1_455
O2 Ti1 1.888931 1_565
O2 Ti1 1.888931 1_455
O2 Ti0 2.188507 1_556
O2 O6 2.971947 1_566
O2 O6 2.971947 1_456
O3 Ti0 1.888931 1_655
O3 Ti0 1.888931 1_545
O3 Ti1 2.188507 1_554
O3 O6 2.971947 1_545
O3 O6 2.971947 1_655
O4 Ti2 1.825861 1_555
O4 Ti0 1.825861 1_555
O5 Ti1 1.825861 1_555
O5 Ti3 1.825861 1_555
O6 Ti0 2.127702 1_655
O6 Ti1 2.127702 1_564
O6 Ti1 2.127702 1_454
O6 Ti0 2.127702 1_545
O7 Ti3 2.127702 1_565
O7 Ti3 2.127702 1_455
O7 Ti2 2.127702 1_655
O7 Ti2 2.127702 1_545
