# generated using pymatgen
data_Y2MgSe4
_symmetry_space_group_name_H-M   'P 1'
_cell_length_a   7.63640400
_cell_length_b   8.26681400
_cell_length_c   12.04774600
_cell_angle_alpha   90.00000000
_cell_angle_beta   90.00000000
_cell_angle_gamma   90.00000000
_symmetry_Int_Tables_number   1
_chemical_formula_structural   Y2MgSe4
_chemical_formula_sum   'Y8 Mg4 Se16'
_cell_volume   760.55892238
_cell_formula_units_Z   4
loop_
 _symmetry_equiv_pos_site_id
 _symmetry_equiv_pos_as_xyz
  1  'x, y, z'
loop_
 _atom_site_type_symbol
 _atom_site_label
 _atom_site_symmetry_multiplicity
 _atom_site_fract_x
 _atom_site_fract_y
 _atom_site_fract_z
 _atom_site_occupancy
  Y  Y0  1  0.75000000  0.05207800  0.31419300  1
  Y  Y1  1  0.25000000  0.94792200  0.68580700  1
  Y  Y2  1  0.25000000  0.44792200  0.81419300  1
  Y  Y3  1  0.75000000  0.55207800  0.18580700  1
  Y  Y4  1  0.25000000  0.06636700  0.01883500  1
  Y  Y5  1  0.75000000  0.93363300  0.98116500  1
  Y  Y6  1  0.75000000  0.43363300  0.51883500  1
  Y  Y7  1  0.25000000  0.56636700  0.48116500  1
  Mg  Mg0  1  0.25000000  0.18179300  0.40746400  1
  Mg  Mg1  1  0.75000000  0.81820700  0.59253600  1
  Mg  Mg2  1  0.75000000  0.31820700  0.90746400  1
  Mg  Mg3  1  0.25000000  0.68179300  0.09253600  1
  Se  Se0  1  0.49925300  0.12704400  0.84223000  1
  Se  Se1  1  0.50074700  0.87295600  0.15777000  1
  Se  Se2  1  0.50074700  0.37295600  0.34223000  1
  Se  Se3  1  0.49925300  0.62704400  0.65777000  1
  Se  Se4  1  0.00074700  0.62704400  0.65777000  1
  Se  Se5  1  0.99925300  0.37295600  0.34223000  1
  Se  Se6  1  0.99925300  0.87295600  0.15777000  1
  Se  Se7  1  0.00074700  0.12704400  0.84223000  1
  Se  Se8  1  0.25000000  0.89154200  0.45040800  1
  Se  Se9  1  0.75000000  0.10845800  0.54959200  1
  Se  Se10  1  0.75000000  0.60845800  0.95040800  1
  Se  Se11  1  0.25000000  0.39154200  0.04959200  1
  Se  Se12  1  0.75000000  0.22767800  0.11218700  1
  Se  Se13  1  0.25000000  0.77232200  0.88781300  1
  Se  Se14  1  0.25000000  0.27232200  0.61218700  1
  Se  Se15  1  0.75000000  0.72767800  0.38781300  1
loop_
_geom_bond_atom_site_label_1
_geom_bond_atom_site_label_2
_geom_bond_distance
_geom_bond_site_symmetry_2
Mg0 Se8 2.454597 1_545
Mg0 Se14 2.577491 1_555
Mg0 Se2 2.604137 1_555
Mg0 Se5 2.604137 1_455
Mg1 Se9 2.454597 1_565
Mg1 Se15 2.577491 1_555
Mg1 Se4 2.604137 1_655
Mg1 Se3 2.604137 1_555
Mg2 Se10 2.454597 1_555
Mg2 Se12 2.577491 1_556
Mg2 Se7 2.604137 1_655
Mg2 Se0 2.604137 1_555
Mg3 Se11 2.454597 1_555
Mg3 Se13 2.577491 1_554
Mg3 Se1 2.604137 1_555
Mg3 Se6 2.604137 1_455
Se0 Y4 2.898551 1_556
Se0 Y5 3.004118 1_545
Se0 Y1 3.060572 1_545
Se0 Y2 3.282302 1_555
Se0 Se13 3.538870 1_545
Se0 Se14 3.570224 1_555
Se1 Y5 2.898551 1_554
Se1 Y4 3.004118 1_565
Se1 Y0 3.060572 1_565
Se1 Y3 3.282302 1_555
Se1 Se12 3.538870 1_565
Se1 Se15 3.570224 1_555
Se2 Y6 2.898551 1_555
Se2 Y7 3.004118 1_555
Se2 Y3 3.060572 1_555
Se2 Y0 3.282302 1_555
Se3 Y7 2.898551 1_555
Se3 Y6 3.004118 1_555
Se3 Y2 3.060572 1_555
Se3 Y1 3.282302 1_555
Se4 Y7 2.898551 1_555
Se4 Y6 3.004118 1_455
Se4 Y2 3.060572 1_555
Se4 Y1 3.282302 1_555
Se5 Y6 2.898551 1_555
Se5 Y7 3.004118 1_655
Se5 Y3 3.060572 1_555
Se5 Y0 3.282302 1_555
Se6 Y5 2.898551 1_554
Se6 Y4 3.004118 1_665
Se6 Y0 3.060572 1_565
Se6 Y3 3.282302 1_555
Se7 Y4 2.898551 1_556
Se7 Y5 3.004118 1_445
Se7 Y1 3.060572 1_545
Se7 Y2 3.282302 1_555
Se8 Y7 2.713581 1_555
Se8 Y1 2.874071 1_555
Se9 Y6 2.713581 1_555
Se9 Y0 2.874071 1_555
Se10 Y5 2.713581 1_555
Se10 Y3 2.874071 1_556
Se11 Y4 2.713581 1_555
Se11 Y2 2.874071 1_554
Se12 Y3 2.824623 1_555
Se12 Y0 2.833774 1_555
Se12 Y5 2.898377 1_544
Se12 Se6 3.538870 1_545
Se12 Se5 3.570224 1_555
Se12 Se2 3.570224 1_555
Se13 Y2 2.824623 1_555
Se13 Y1 2.833774 1_555
Se13 Y4 2.898377 1_566
Se13 Se7 3.538870 1_565
Se13 Se3 3.570224 1_555
Se13 Se4 3.570224 1_555
Se14 Y1 2.824623 1_545
Se14 Y2 2.833774 1_555
Se14 Y7 2.898377 1_555
Se14 Se3 3.538870 1_555
Se14 Se4 3.538870 1_555
Se14 Se7 3.570224 1_555
Se15 Y0 2.824623 1_565
Se15 Y3 2.833774 1_555
Se15 Y6 2.898377 1_555
Se15 Se5 3.538870 1_555
Se15 Se2 3.538870 1_555
Se15 Se6 3.570224 1_555
