# generated using pymatgen
data_LiH2BrO5
_symmetry_space_group_name_H-M   'P 1'
_cell_length_a   9.25826583
_cell_length_b   9.25826583
_cell_length_c   11.16783345
_cell_angle_alpha   87.54075214
_cell_angle_beta   87.54075214
_cell_angle_gamma   30.91322073
_symmetry_Int_Tables_number   1
_chemical_formula_structural   LiH2BrO5
_chemical_formula_sum   'Li4 H8 Br4 O20'
_cell_volume   491.29252342
_cell_formula_units_Z   4
loop_
 _symmetry_equiv_pos_site_id
 _symmetry_equiv_pos_as_xyz
  1  'x, y, z'
loop_
 _atom_site_type_symbol
 _atom_site_label
 _atom_site_symmetry_multiplicity
 _atom_site_fract_x
 _atom_site_fract_y
 _atom_site_fract_z
 _atom_site_occupancy
  Li  Li0  1  0.00000000  0.50000000  0.50000000  1
  Li  Li1  1  0.50000000  0.00000000  0.00000000  1
  Li  Li2  1  0.46336300  0.53663700  0.25000000  1
  Li  Li3  1  0.53663700  0.46336300  0.75000000  1
  H  H0  1  0.60634600  0.62833700  0.86868100  1
  H  H1  1  0.37166300  0.39365400  0.63131900  1
  H  H2  1  0.39365400  0.37166300  0.13131900  1
  H  H3  1  0.62833700  0.60634600  0.36868100  1
  H  H4  1  0.99880500  0.36353000  0.03451600  1
  H  H5  1  0.63647000  0.00119500  0.46548400  1
  H  H6  1  0.00119500  0.63647000  0.96548400  1
  H  H7  1  0.36353000  0.99880500  0.53451600  1
  Br  Br0  1  0.84244200  0.87652200  0.26020000  1
  Br  Br1  1  0.12347800  0.15755800  0.23980000  1
  Br  Br2  1  0.15755800  0.12347800  0.73980000  1
  Br  Br3  1  0.87652200  0.84244200  0.76020000  1
  O  O0  1  0.72107300  0.85927000  0.41127000  1
  O  O1  1  0.14073000  0.27892700  0.08873000  1
  O  O2  1  0.27892700  0.14073000  0.58873000  1
  O  O3  1  0.85927000  0.72107300  0.91127000  1
  O  O4  1  0.67711500  0.93187800  0.15493300  1
  O  O5  1  0.06812200  0.32288500  0.34506700  1
  O  O6  1  0.32288500  0.06812200  0.84506700  1
  O  O7  1  0.93187800  0.67711500  0.65493300  1
  O  O8  1  0.13755300  0.75055700  0.14682400  1
  O  O9  1  0.24944300  0.86244700  0.35317600  1
  O  O10  1  0.86244700  0.24944300  0.85317700  1
  O  O11  1  0.75055700  0.13755300  0.64682400  1
  O  O12  1  0.63609300  0.19296200  0.28888100  1
  O  O13  1  0.80703800  0.36390700  0.21111900  1
  O  O14  1  0.36390700  0.80703800  0.71111900  1
  O  O15  1  0.19296200  0.63609300  0.78888100  1
  O  O16  1  0.46724300  0.73687800  0.42486500  1
  O  O17  1  0.26312200  0.53275700  0.07513500  1
  O  O18  1  0.53275700  0.26312200  0.57513500  1
  O  O19  1  0.73687800  0.46724300  0.92486500  1
loop_
_geom_bond_atom_site_label_1
_geom_bond_atom_site_label_2
_geom_bond_distance
_geom_bond_site_symmetry_2
Li0 O0 1.977959 1_455
Li0 O2 1.977959 1_555
Li0 O7 2.110861 1_455
Li0 O5 2.110861 1_555
Li1 O1 1.977959 1_555
Li1 O3 1.977959 1_544
Li1 O6 2.110861 1_554
Li1 O4 2.110861 1_545
Li2 O12 2.019899 1_555
Li2 O13 2.019899 1_555
Li2 O9 2.049517 1_555
Li2 O8 2.049517 1_555
Li3 O15 2.019899 1_555
Li3 O14 2.019899 1_555
Li3 O11 2.049517 1_555
Li3 O10 2.049523 1_555
H0 O19 0.985192 1_555
H0 O14 2.142116 1_555
H0 O6 2.273159 1_565
H1 O18 0.985192 1_555
H1 O15 2.142116 1_555
H1 O7 2.273159 1_455
H2 O17 0.985192 1_555
H2 O12 2.142116 1_555
H2 O4 2.273159 1_545
H3 O16 0.985192 1_555
H3 O13 2.142116 1_555
H3 O5 2.273159 1_655
H4 O1 0.983971 1_655
H5 O0 0.983971 1_545
H6 O3 0.983971 1_455
H7 O2 0.983971 1_565
Br0 O4 1.656576 1_555
Br0 O12 1.661212 1_565
Br0 O0 2.063171 1_555
Br0 O8 2.188751 1_655
Br1 O5 1.656576 1_555
Br1 O13 1.661212 1_455
Br1 O1 2.063171 1_555
Br1 O9 2.188751 1_545
Br2 O6 1.656576 1_555
Br2 O14 1.661212 1_545
Br2 O2 2.063171 1_555
Br2 O10 2.188757 1_455
Br3 O7 1.656576 1_555
Br3 O15 1.661212 1_655
Br3 O3 2.063171 1_555
Br3 O11 2.188751 1_565
O10 O19 1.447336 1_555
O11 O18 1.447343 1_555
O16 O9 1.447343 1_555
O17 O8 1.447343 1_555
