# generated using pymatgen
data_Mg2V3O8
_symmetry_space_group_name_H-M   'P 1'
_cell_length_a   4.88117340
_cell_length_b   5.99682505
_cell_length_c   9.84285819
_cell_angle_alpha   89.99442888
_cell_angle_beta   83.07832209
_cell_angle_gamma   90.02020173
_symmetry_Int_Tables_number   1
_chemical_formula_structural   Mg2V3O8
_chemical_formula_sum   'Mg4 V6 O16'
_cell_volume   286.01578561
_cell_formula_units_Z   2
loop_
 _symmetry_equiv_pos_site_id
 _symmetry_equiv_pos_as_xyz
  1  'x, y, z'
loop_
 _atom_site_type_symbol
 _atom_site_label
 _atom_site_symmetry_multiplicity
 _atom_site_fract_x
 _atom_site_fract_y
 _atom_site_fract_z
 _atom_site_occupancy
  Mg  Mg0  1  0.43622200  0.50002900  0.22280600  1
  Mg  Mg1  1  0.93200900  0.99998300  0.72301200  1
  Mg  Mg2  1  0.06803000  0.00005900  0.27698000  1
  Mg  Mg3  1  0.56374200  0.49987500  0.77720100  1
  V  V0  1  0.00005300  0.50007300  0.50002700  1
  V  V1  1  0.49997200  0.23239100  0.49999500  1
  V  V2  1  0.50002000  0.76771700  0.49999600  1
  V  V3  1  0.50000700  0.00004200  0.99995600  1
  V  V4  1  0.99991700  0.73510000  0.99991400  1
  V  V5  1  0.00012600  0.26494600  0.00011900  1
  O  O0  1  0.68897500  0.00016500  0.39604000  1
  O  O1  1  0.18236600  0.49983400  0.89376600  1
  O  O2  1  0.81761300  0.49993900  0.10624000  1
  O  O3  1  0.31102300  0.99994200  0.60394600  1
  O  O4  1  0.70549000  0.50002300  0.39378800  1
  O  O5  1  0.18977400  0.00018700  0.89185400  1
  O  O6  1  0.81019900  0.99974500  0.10815200  1
  O  O7  1  0.29451200  0.50005000  0.60620900  1
  O  O8  1  0.28760000  0.22336400  0.11445800  1
  O  O9  1  0.77621000  0.72428000  0.61790000  1
  O  O10  1  0.28807600  0.77665700  0.11416800  1
  O  O11  1  0.77608100  0.27583400  0.61802500  1
  O  O12  1  0.22390400  0.72428800  0.38200100  1
  O  O13  1  0.71197200  0.22317000  0.88575000  1
  O  O14  1  0.22379900  0.27585900  0.38208000  1
  O  O15  1  0.71230500  0.77644700  0.88561600  1
loop_
_geom_bond_atom_site_label_1
_geom_bond_atom_site_label_2
_geom_bond_distance
_geom_bond_site_symmetry_2
Mg0 O2 2.065737 1_555
Mg0 O8 2.145278 1_555
Mg0 O10 2.145954 1_555
Mg0 O14 2.224142 1_555
Mg0 O12 2.224391 1_555
Mg0 O4 2.256760 1_555
Mg1 O3 2.067247 1_655
Mg1 O9 2.138074 1_555
Mg1 O11 2.138633 1_565
Mg1 O5 2.202023 1_665
Mg1 O15 2.256871 1_555
Mg1 O13 2.257757 1_565
Mg2 O0 2.067386 1_455
Mg2 O12 2.138329 1_545
Mg2 O14 2.138401 1_555
Mg2 O6 2.202124 1_445
Mg2 O8 2.255268 1_555
Mg2 O10 2.259014 1_545
Mg3 O1 2.065671 1_555
Mg3 O15 2.145087 1_555
Mg3 O13 2.146002 1_555
Mg3 O11 2.223518 1_555
Mg3 O9 2.225250 1_555
Mg3 O7 2.256716 1_555
O0 V1 1.900297 1_555
O0 V2 1.900556 1_545
O1 V5 1.909348 1_556
O1 V4 1.911051 1_455
O2 V5 1.909837 1_655
O2 V4 1.910550 1_554
O3 V2 1.900256 1_555
O3 V1 1.900524 1_565
O4 V0 1.877011 1_655
O4 V1 2.102566 1_555
O4 V2 2.103452 1_555
O5 V3 1.952852 1_555
O5 V5 2.068078 1_556
O5 V4 2.068392 1_445
O6 V3 1.953275 1_564
O6 V4 2.067563 1_554
O6 V5 2.068927 1_665
O7 V0 1.876224 1_555
O7 V2 2.102732 1_555
O7 V1 2.103297 1_555
O8 V5 1.917961 1_555
O8 V3 1.964253 1_554
O9 V2 1.899836 1_555
O9 V0 2.010834 1_655
O10 V4 1.919961 1_454
O10 V3 1.961342 1_564
O10 O12 2.635765 1_555
O11 V1 1.900296 1_555
O11 V0 2.011224 1_655
O11 O13 2.634928 1_555
O12 V2 1.900071 1_555
O12 V0 2.010989 1_555
O13 V5 1.920876 1_656
O13 V3 1.960336 1_555
O14 V1 1.899872 1_555
O14 V0 2.011011 1_555
O14 O8 2.633898 1_555
O15 V4 1.918047 1_555
O15 V3 1.964313 1_565
O15 O9 2.634575 1_555
