# generated using pymatgen
data_TmSbRh2
_symmetry_space_group_name_H-M   'P 1'
_cell_length_a   4.68077961
_cell_length_b   4.68077961
_cell_length_c   4.68077961
_cell_angle_alpha   60.00000000
_cell_angle_beta   60.00000000
_cell_angle_gamma   60.00000000
_symmetry_Int_Tables_number   1
_chemical_formula_structural   TmSbRh2
_chemical_formula_sum   'Tm1 Sb1 Rh2'
_cell_volume   72.51695849
_cell_formula_units_Z   1
loop_
 _symmetry_equiv_pos_site_id
 _symmetry_equiv_pos_as_xyz
  1  'x, y, z'
loop_
 _atom_site_type_symbol
 _atom_site_label
 _atom_site_symmetry_multiplicity
 _atom_site_fract_x
 _atom_site_fract_y
 _atom_site_fract_z
 _atom_site_occupancy
  Tm  Tm0  1  0.00000000  0.00000000  0.00000000  1
  Sb  Sb0  1  0.50000000  0.50000000  0.50000000  1
  Rh  Rh0  1  0.25000000  0.25000000  0.25000000  1
  Rh  Rh1  1  0.75000000  0.75000000  0.75000000  1
loop_
_geom_bond_atom_site_label_1
_geom_bond_atom_site_label_2
_geom_bond_distance
_geom_bond_site_symmetry_2
Sb0 Tm0 3.309811 1_565
Sb0 Tm0 3.309811 1_655
Sb0 Tm0 3.309811 1_656
Sb0 Tm0 3.309811 1_556
Sb0 Tm0 3.309811 1_566
Sb0 Tm0 3.309811 1_665
Rh0 Sb0 2.866380 1_455
Rh0 Sb0 2.866380 1_545
Rh0 Sb0 2.866380 1_555
Rh0 Tm0 2.866380 1_555
Rh0 Tm0 2.866380 1_565
Rh0 Tm0 2.866380 1_556
Rh0 Sb0 2.866380 1_554
Rh0 Tm0 2.866380 1_655
Rh0 Rh1 3.309811 1_445
Rh0 Rh1 3.309811 1_454
Rh0 Rh1 3.309811 1_544
Rh0 Rh1 3.309811 1_545
Rh0 Rh1 3.309811 1_554
Rh0 Rh1 3.309811 1_455
Rh1 Tm0 2.866380 1_566
Rh1 Sb0 2.866380 1_555
Rh1 Sb0 2.866380 1_655
Rh1 Tm0 2.866380 1_665
Rh1 Tm0 2.866380 1_666
Rh1 Sb0 2.866380 1_565
Rh1 Sb0 2.866380 1_556
Rh1 Tm0 2.866380 1_656
