# generated using pymatgen
data_BaLa2(CoO3)3
_symmetry_space_group_name_H-M   'P 1'
_cell_length_a   5.56249292
_cell_length_b   8.77635342
_cell_length_c   8.70755889
_cell_angle_alpha   79.00044531
_cell_angle_beta   71.36426603
_cell_angle_gamma   108.52521436
_symmetry_Int_Tables_number   1
_chemical_formula_structural   BaLa2(CoO3)3
_chemical_formula_sum   'Ba2 La4 Co6 O18'
_cell_volume   361.14861305
_cell_formula_units_Z   2
loop_
 _symmetry_equiv_pos_site_id
 _symmetry_equiv_pos_as_xyz
  1  'x, y, z'
loop_
 _atom_site_type_symbol
 _atom_site_label
 _atom_site_symmetry_multiplicity
 _atom_site_fract_x
 _atom_site_fract_y
 _atom_site_fract_z
 _atom_site_occupancy
  Ba  Ba0  1  0.00006500  0.99977600  0.00002000  1
  Ba  Ba1  1  0.00004500  0.50069300  0.50045100  1
  La  La0  1  0.66837400  0.33732000  0.00102200  1
  La  La1  1  0.66816000  0.83791700  0.50175000  1
  La  La2  1  0.33121000  0.65971900  0.99710900  1
  La  La3  1  0.33668200  0.16750400  0.49406100  1
  Co  Co0  1  0.66619200  0.58448600  0.25194000  1
  Co  Co1  1  0.66722200  0.08484200  0.75031900  1
  Co  Co2  1  0.33373600  0.41686300  0.74940000  1
  Co  Co3  1  0.33395400  0.91596100  0.24813100  1
  Co  Co4  1  0.00081900  0.75108100  0.74940000  1
  Co  Co5  1  0.00039500  0.24976200  0.24903400  1
  O  O0  1  0.00241900  0.25043200  0.74930300  1
  O  O1  1  0.99792000  0.74982200  0.25150500  1
  O  O2  1  0.49995900  0.00385600  0.00439100  1
  O  O3  1  0.49914900  0.49601100  0.49757600  1
  O  O4  1  0.49935000  0.25026600  0.74937700  1
  O  O5  1  0.50032000  0.74988600  0.25150900  1
  O  O6  1  0.65140500  0.58516900  0.75947400  1
  O  O7  1  0.66089300  0.09127300  0.25836400  1
  O  O8  1  0.34037900  0.40973700  0.24112500  1
  O  O9  1  0.34576000  0.91021000  0.74307600  1
  O  O10  1  0.82204000  0.65094900  0.00625200  1
  O  O11  1  0.82605700  0.15399200  0.50173200  1
  O  O12  1  0.17461500  0.34608300  0.99699600  1
  O  O13  1  0.17797400  0.85009800  0.49402300  1
  O  O14  1  0.82741600  0.40981700  0.24091200  1
  O  O15  1  0.82120100  0.91032600  0.74333200  1
  O  O16  1  0.17334600  0.58494800  0.75984900  1
  O  O17  1  0.17294400  0.09120200  0.25856800  1
loop_
_geom_bond_atom_site_label_1
_geom_bond_atom_site_label_2
_geom_bond_distance
_geom_bond_site_symmetry_2
Ba0 O4 2.779379 1_564
Ba0 O5 2.781284 1_455
Ba0 O0 2.781424 1_564
Ba0 O2 2.781635 1_465
Ba0 O2 2.782027 1_565
Ba0 O1 2.782309 1_455
Ba0 O15 2.862946 1_454
Ba0 O9 2.864147 1_554
Ba0 O7 2.864319 1_465
Ba0 O17 2.866998 1_565
Ba0 O12 2.873808 1_564
Ba0 O10 2.886477 1_455
Ba1 O5 2.773834 1_555
Ba1 O1 2.775575 1_455
Ba1 O4 2.778453 1_455
Ba1 O3 2.781657 1_455
Ba1 O3 2.781800 1_555
Ba1 O0 2.782127 1_555
Ba1 O16 2.855495 1_555
Ba1 O6 2.855514 1_455
Ba1 O8 2.869873 1_555
Ba1 O14 2.872914 1_455
Ba1 O11 2.881686 1_455
Ba1 O13 2.890787 1_555
La0 O14 2.623224 1_555
La0 O10 2.624257 1_555
La0 O8 2.628646 1_555
La0 O16 2.762711 1_654
La0 O2 2.766035 1_555
La0 O6 2.770518 1_554
La0 O17 2.776446 1_555
La0 O7 2.778992 1_555
La0 O12 2.781196 1_654
La0 O12 2.783039 1_554
La0 O4 2.787141 1_554
La0 O0 2.788130 1_654
La1 O9 2.618726 1_555
La1 O15 2.620013 1_555
La1 O11 2.630202 1_565
La1 O1 2.774911 1_555
La1 O5 2.775017 1_555
La1 O13 2.782192 1_655
La1 O17 2.783340 1_665
La1 O13 2.783943 1_555
La1 O7 2.784029 1_565
La1 O6 2.792968 1_555
La1 O16 2.795570 1_555
La1 O3 2.856596 1_555
La2 O16 2.603937 1_555
La2 O6 2.604565 1_555
La2 O12 2.610258 1_555
La2 O15 2.763349 1_555
La2 O9 2.765740 1_555
La2 O14 2.772325 1_456
La2 O8 2.773465 1_556
La2 O10 2.781470 1_556
La2 O10 2.783695 1_456
La2 O1 2.818641 1_456
La2 O5 2.818843 1_556
La2 O2 2.883878 1_566
La3 O17 2.610146 1_555
La3 O7 2.614813 1_555
La3 O13 2.641428 1_545
La3 O14 2.740368 1_555
La3 O3 2.743277 1_555
La3 O8 2.743591 1_555
La3 O11 2.783327 1_555
La3 O11 2.783486 1_455
La3 O0 2.786148 1_555
La3 O4 2.788019 1_555
La3 O15 2.840392 1_445
La3 O9 2.842035 1_545
Co0 O3 1.918008 1_555
Co0 O10 1.919832 1_555
Co0 O1 1.949991 1_555
Co0 O5 1.951845 1_555
Co0 O14 2.009519 1_555
Co0 O8 2.010846 1_555
Co1 O11 1.941670 1_555
Co1 O4 1.960005 1_555
Co1 O0 1.962465 1_655
Co1 O9 1.979355 1_545
Co1 O15 1.979647 1_545
Co1 O2 1.982305 1_556
Co2 O12 1.933244 1_555
Co2 O6 1.949844 1_555
Co2 O16 1.953466 1_555
Co2 O0 1.954708 1_555
Co2 O4 1.960187 1_555
Co2 O3 1.964826 1_555
Co3 O2 1.903238 1_565
Co3 O13 1.921735 1_555
Co3 O1 1.958940 1_455
Co3 O5 1.959536 1_555
Co3 O17 2.013049 1_565
Co3 O7 2.015036 1_565
Co4 O9 1.958402 1_555
Co4 O15 1.961421 1_455
Co4 O16 1.987330 1_555
Co4 O6 1.987331 1_455
Co4 O13 1.997270 1_555
Co4 O10 2.009124 1_456
Co5 O7 1.922850 1_455
Co5 O17 1.928774 1_555
Co5 O8 1.935221 1_555
Co5 O14 1.941248 1_455
Co5 O12 1.970382 1_554
Co5 O11 1.975130 1_455
O10 O14 2.661528 1_555
O10 O8 2.661635 1_555
O10 O16 2.696591 1_654
O10 O6 2.698215 1_554
O11 O7 2.646857 1_555
O11 O17 2.649517 1_655
O11 O9 2.682420 1_545
O11 O15 2.685117 1_545
O12 O6 2.648846 1_555
O12 O16 2.650601 1_555
O12 O8 2.657014 1_556
O12 O14 2.659332 1_456
O13 O17 2.664683 1_565
O13 O7 2.667112 1_565
O13 O9 2.696231 1_555
O13 O15 2.698445 1_455
O14 O7 2.607522 1_555
O14 O8 2.708325 1_555
O15 O9 2.645027 1_555
O15 O6 2.665478 1_555
O16 O6 2.657542 1_555
O16 O9 2.664891 1_555
O17 O8 2.607452 1_555
O17 O7 2.713448 1_555
