# generated using pymatgen
data_Li9Mn2Co5O16
_symmetry_space_group_name_H-M   'P 1'
_cell_length_a   5.11505000
_cell_length_b   5.88477874
_cell_length_c   10.08069942
_cell_angle_alpha   90.90782903
_cell_angle_beta   99.95867320
_cell_angle_gamma   105.96638741
_symmetry_Int_Tables_number   1
_chemical_formula_structural   Li9Mn2Co5O16
_chemical_formula_sum   'Li9 Mn2 Co5 O16'
_cell_volume   286.69217726
_cell_formula_units_Z   1
loop_
 _symmetry_equiv_pos_site_id
 _symmetry_equiv_pos_as_xyz
  1  'x, y, z'
loop_
 _atom_site_type_symbol
 _atom_site_label
 _atom_site_symmetry_multiplicity
 _atom_site_fract_x
 _atom_site_fract_y
 _atom_site_fract_z
 _atom_site_occupancy
  Li  Li0  1  0.49904400  0.87403700  0.62542900  1
  Li  Li1  1  0.50077000  0.37858400  0.62511800  1
  Li  Li2  1  0.50095600  0.12596300  0.37457100  1
  Li  Li3  1  0.49923000  0.62141600  0.37488200  1
  Li  Li4  1  0.49749900  0.37855700  0.11932200  1
  Li  Li5  1  0.49659800  0.87516100  0.12009700  1
  Li  Li6  1  0.50250100  0.62144300  0.88067800  1
  Li  Li7  1  0.50340200  0.12483900  0.87990300  1
  Li  Li8  1  0.00000000  0.50000000  0.00000000  1
  Mn  Mn0  1  0.99346100  0.74312400  0.75121700  1
  Mn  Mn1  1  0.00653900  0.25687600  0.24878300  1
  Co  Co0  1  0.00192100  0.25341400  0.75923400  1
  Co  Co1  1  0.00000000  0.00000000  0.50000000  1
  Co  Co2  1  0.00000000  0.50000000  0.50000000  1
  Co  Co3  1  0.99807900  0.74658600  0.24076600  1
  Co  Co4  1  0.00000000  0.00000000  0.00000000  1
  O  O0  1  0.22287300  0.56422100  0.68808100  1
  O  O1  1  0.21442400  0.03576800  0.68149400  1
  O  O2  1  0.21839900  0.81718600  0.43414900  1
  O  O3  1  0.23484400  0.32278000  0.43148900  1
  O  O4  1  0.23110900  0.06785200  0.18963600  1
  O  O5  1  0.23290800  0.54639400  0.19503300  1
  O  O6  1  0.23514400  0.29529100  0.92801800  1
  O  O7  1  0.22589400  0.81808600  0.92744600  1
  O  O8  1  0.78160100  0.18281400  0.56585100  1
  O  O9  1  0.76515600  0.67722000  0.56851100  1
  O  O10  1  0.77712700  0.43577900  0.31191900  1
  O  O11  1  0.78557600  0.96423200  0.31850600  1
  O  O12  1  0.76485600  0.70470900  0.07198200  1
  O  O13  1  0.77410600  0.18191400  0.07255400  1
  O  O14  1  0.76889100  0.93214800  0.81036400  1
  O  O15  1  0.76709200  0.45360600  0.80496700  1
loop_
_geom_bond_atom_site_label_1
_geom_bond_atom_site_label_2
_geom_bond_distance
_geom_bond_site_symmetry_2
Li0 O14 2.080323 1_555
Li0 O1 2.091547 1_565
Li0 O9 2.154044 1_555
Li0 O8 2.154386 1_565
Li0 O0 2.155604 1_555
Li0 O2 2.156080 1_555
Li1 O15 2.031541 1_555
Li1 O9 2.057705 1_555
Li1 O3 2.140948 1_555
Li1 O0 2.182014 1_555
Li1 O8 2.221057 1_555
Li1 O1 2.288401 1_555
Li2 O4 2.080323 1_555
Li2 O11 2.091547 1_545
Li2 O3 2.154044 1_555
Li2 O2 2.154386 1_545
Li2 O10 2.155604 1_555
Li2 O8 2.156080 1_555
Li3 O5 2.031541 1_555
Li3 O3 2.057705 1_555
Li3 O9 2.140948 1_555
Li3 O10 2.182014 1_555
Li3 O2 2.221057 1_555
Li3 O11 2.288401 1_555
Li4 O5 2.111512 1_555
Li4 O6 2.114989 1_554
Li4 O12 2.143010 1_555
Li4 O13 2.162724 1_555
Li4 O10 2.163903 1_555
Li4 O4 2.169500 1_555
Li5 O12 2.023906 1_555
Li5 O13 2.087166 1_565
Li5 O7 2.143612 1_554
Li5 O4 2.184628 1_565
Li5 O11 2.231148 1_555
Li5 O5 2.257456 1_555
Li6 O15 2.111512 1_555
Li6 O12 2.114989 1_556
Li6 O6 2.143010 1_555
Li6 O7 2.162724 1_555
Li6 O0 2.163903 1_555
Li6 O14 2.169500 1_555
Li7 O6 2.023906 1_555
Li7 O7 2.087166 1_545
Li7 O13 2.143612 1_556
Li7 O14 2.184628 1_545
Li7 O1 2.231148 1_555
Li7 O15 2.257456 1_555
Li8 O5 2.086426 1_555
Li8 O15 2.086426 1_454
Li8 O12 2.120312 1_455
Li8 O6 2.120312 1_554
Li8 O7 2.125957 1_554
Li8 O13 2.125957 1_455
Mn0 O15 1.923019 1_555
Mn0 O7 1.928782 1_655
Mn0 O0 1.951208 1_655
Mn0 O14 1.957337 1_555
Mn0 O9 1.972478 1_555
Mn0 O1 1.994874 1_665
Mn1 O5 1.923019 1_555
Mn1 O13 1.928782 1_455
Mn1 O10 1.951208 1_455
Mn1 O4 1.957337 1_555
Mn1 O3 1.972478 1_555
Mn1 O11 1.994874 1_445
Co0 O6 1.871299 1_555
Co0 O15 1.999009 1_455
Co0 O8 2.049345 1_455
Co0 O14 2.065029 1_445
Co0 O0 2.078910 1_555
Co0 O1 2.113008 1_555
Co1 O2 1.934180 1_545
Co1 O8 1.934180 1_455
Co1 O1 1.939425 1_555
Co1 O11 1.939425 1_445
Co1 O9 2.145050 1_445
Co1 O3 2.145050 1_555
Co2 O9 1.990208 1_455
Co2 O3 1.990208 1_555
Co2 O0 2.007460 1_555
Co2 O10 2.007460 1_455
Co2 O2 2.078774 1_555
Co2 O8 2.078774 1_455
Co3 O12 1.871299 1_555
Co3 O5 1.999009 1_655
Co3 O2 2.049345 1_655
Co3 O4 2.065029 1_665
Co3 O10 2.078910 1_555
Co3 O11 2.113008 1_555
Co4 O7 1.990988 1_544
Co4 O13 1.990988 1_455
Co4 O4 2.036134 1_555
Co4 O14 2.036134 1_444
Co4 O6 2.045691 1_554
Co4 O12 2.045691 1_445
