# generated using pymatgen
data_BaMg6Cr
_symmetry_space_group_name_H-M   'P 1'
_cell_length_a   5.26912300
_cell_length_b   6.72523600
_cell_length_c   11.86915000
_cell_angle_alpha   90.00000000
_cell_angle_beta   90.00000000
_cell_angle_gamma   90.00000000
_symmetry_Int_Tables_number   1
_chemical_formula_structural   BaMg6Cr
_chemical_formula_sum   'Ba2 Mg12 Cr2'
_cell_volume   420.59633514
_cell_formula_units_Z   2
loop_
 _symmetry_equiv_pos_site_id
 _symmetry_equiv_pos_as_xyz
  1  'x, y, z'
loop_
 _atom_site_type_symbol
 _atom_site_label
 _atom_site_symmetry_multiplicity
 _atom_site_fract_x
 _atom_site_fract_y
 _atom_site_fract_z
 _atom_site_occupancy
  Ba  Ba0  1  0.50000000  0.00000000  0.16810700  1
  Ba  Ba1  1  0.50000000  0.50000000  0.66810700  1
  Mg  Mg0  1  0.50000000  0.24545500  0.41936500  1
  Mg  Mg1  1  0.50000000  0.75454500  0.41936500  1
  Mg  Mg2  1  0.00000000  0.72335300  0.08116500  1
  Mg  Mg3  1  0.00000000  0.27664700  0.08116500  1
  Mg  Mg4  1  0.00000000  0.00000000  0.34683800  1
  Mg  Mg5  1  0.00000000  0.50000000  0.32327100  1
  Mg  Mg6  1  0.50000000  0.74545500  0.91936500  1
  Mg  Mg7  1  0.50000000  0.25454500  0.91936500  1
  Mg  Mg8  1  0.00000000  0.22335300  0.58116500  1
  Mg  Mg9  1  0.00000000  0.77664700  0.58116500  1
  Mg  Mg10  1  0.00000000  0.50000000  0.84683800  1
  Mg  Mg11  1  0.00000000  0.00000000  0.82327100  1
  Cr  Cr0  1  0.50000000  0.50000000  0.16071900  1
  Cr  Cr1  1  0.50000000  0.00000000  0.66071900  1
loop_
_geom_bond_atom_site_label_1
_geom_bond_atom_site_label_2
_geom_bond_distance
_geom_bond_site_symmetry_2
Ba0 Cr0 3.363761 1_555
Ba0 Cr0 3.363761 1_545
Ba0 Mg4 3.382483 1_655
Ba0 Mg4 3.382483 1_555
Ba0 Mg3 3.386342 1_555
Ba0 Mg3 3.386342 1_655
Ba0 Mg2 3.386342 1_645
Ba0 Mg2 3.386342 1_545
Ba0 Mg0 3.408604 1_555
Ba0 Mg1 3.408604 1_545
Ba0 Mg7 3.412759 1_554
Ba0 Mg6 3.412759 1_544
Ba1 Cr1 3.363761 1_565
Ba1 Cr1 3.363761 1_555
Ba1 Mg10 3.382483 1_555
Ba1 Mg10 3.382483 1_655
Ba1 Mg8 3.386342 1_555
Ba1 Mg8 3.386342 1_655
Ba1 Mg9 3.386342 1_555
Ba1 Mg9 3.386342 1_655
Ba1 Mg6 3.408604 1_555
Ba1 Mg7 3.408604 1_555
Ba1 Mg1 3.412759 1_555
Ba1 Mg0 3.412759 1_555
Mg0 Mg4 3.225973 1_655
Mg0 Mg4 3.225973 1_555
Mg0 Mg8 3.263595 1_555
Mg0 Mg8 3.263595 1_655
Mg0 Mg1 3.301486 1_545
Mg0 Mg5 3.342498 1_655
Mg0 Mg5 3.342498 1_555
Mg0 Mg1 3.423750 1_555
Mg1 Mg4 3.225973 1_565
Mg1 Mg4 3.225973 1_665
Mg1 Mg9 3.263595 1_655
Mg1 Mg9 3.263595 1_555
Mg1 Mg5 3.342498 1_655
Mg1 Mg5 3.342498 1_555
Mg2 Mg3 3.004203 1_555
Mg2 Mg5 3.242506 1_555
Mg2 Mg6 3.263595 1_554
Mg2 Mg6 3.263595 1_454
Mg2 Mg4 3.661271 1_565
Mg2 Mg3 3.721033 1_565
Mg3 Mg5 3.242506 1_555
Mg3 Mg7 3.263595 1_454
Mg3 Mg7 3.263595 1_554
Mg3 Mg4 3.661271 1_555
Mg4 Mg8 3.160970 1_555
Mg4 Mg9 3.160970 1_545
Mg4 Mg5 3.374232 1_555
Mg4 Mg5 3.374232 1_545
Mg5 Mg8 3.582057 1_555
Mg5 Mg9 3.582057 1_555
Mg6 Mg7 3.301486 1_555
Mg6 Mg7 3.423750 1_565
Mg8 Mg9 3.004203 1_545
Mg8 Mg9 3.721033 1_555
Mg10 Mg2 3.160970 1_556
Mg10 Mg3 3.160970 1_556
Mg10 Mg6 3.225973 1_555
Mg10 Mg6 3.225973 1_455
Mg10 Mg7 3.225973 1_455
Mg10 Mg7 3.225973 1_555
Mg10 Mg11 3.374232 1_565
Mg10 Mg11 3.374232 1_555
Mg10 Mg8 3.661271 1_555
Mg10 Mg9 3.661271 1_555
Mg11 Mg8 3.242506 1_555
Mg11 Mg9 3.242506 1_545
Mg11 Mg7 3.342498 1_455
Mg11 Mg7 3.342498 1_555
Mg11 Mg6 3.342498 1_545
Mg11 Mg6 3.342498 1_445
Mg11 Mg3 3.582057 1_556
Mg11 Mg2 3.582057 1_546
Cr0 Mg2 3.176289 1_655
Cr0 Mg2 3.176289 1_555
Cr0 Mg3 3.176289 1_555
Cr0 Mg3 3.176289 1_655
Cr0 Mg5 3.265474 1_655
Cr0 Mg5 3.265474 1_555
Cr0 Mg6 3.306247 1_554
Cr0 Mg7 3.306247 1_554
Cr0 Mg1 3.514947 1_555
Cr0 Mg0 3.514947 1_555
Cr1 Mg8 3.176289 1_655
Cr1 Mg8 3.176289 1_555
Cr1 Mg9 3.176289 1_645
Cr1 Mg9 3.176289 1_545
Cr1 Mg11 3.265474 1_555
Cr1 Mg11 3.265474 1_655
Cr1 Mg0 3.306247 1_555
Cr1 Mg1 3.306247 1_545
Cr1 Mg7 3.514947 1_555
Cr1 Mg6 3.514947 1_545
