# generated using pymatgen
data_Ti5InS8
_symmetry_space_group_name_H-M   'P 1'
_cell_length_a   18.09371248
_cell_length_b   18.09371248
_cell_length_c   17.84140957
_cell_angle_alpha   75.81211025
_cell_angle_beta   75.81211025
_cell_angle_gamma   21.86866059
_symmetry_Int_Tables_number   1
_chemical_formula_structural   Ti5InS8
_chemical_formula_sum   'Ti40 In8 S64'
_cell_volume   2106.76298636
_cell_formula_units_Z   8
loop_
 _symmetry_equiv_pos_site_id
 _symmetry_equiv_pos_as_xyz
  1  'x, y, z'
loop_
 _atom_site_type_symbol
 _atom_site_label
 _atom_site_symmetry_multiplicity
 _atom_site_fract_x
 _atom_site_fract_y
 _atom_site_fract_z
 _atom_site_occupancy
  Ti  Ti0_0  1  0.39682133  0.39682133  0.42534933  1
  Ti  Ti0_1  1  0.39682133  0.39682133  0.92534933  1
  Ti  Ti0_2  1  0.39682133  0.89682133  0.42534933  1
  Ti  Ti0_3  1  0.39682133  0.89682133  0.92534933  1
  Ti  Ti0_4  1  0.89682132  0.39682133  0.42534933  1
  Ti  Ti0_5  1  0.89682133  0.39682133  0.92534933  1
  Ti  Ti0_6  1  0.89682133  0.89682133  0.42534933  1
  Ti  Ti0_7  1  0.89682133  0.89682133  0.92534933  1
  Ti  Ti1_0  1  0.10376020  0.10376020  0.07428758  1
  Ti  Ti1_1  1  0.10376020  0.10376020  0.57428758  1
  Ti  Ti1_2  1  0.10376020  0.60376020  0.07428758  1
  Ti  Ti1_3  1  0.10376020  0.60376020  0.57428758  1
  Ti  Ti1_4  1  0.60376020  0.10376020  0.07428758  1
  Ti  Ti1_5  1  0.60376020  0.10376020  0.57428758  1
  Ti  Ti1_6  1  0.60376020  0.60376020  0.07428758  1
  Ti  Ti1_7  1  0.60376020  0.60376020  0.57428758  1
  Ti  Ti2_0  1  0.25008500  0.25008500  0.24925094  1
  Ti  Ti2_1  1  0.25008500  0.25008500  0.74925094  1
  Ti  Ti2_2  1  0.25008500  0.75008500  0.24925094  1
  Ti  Ti2_3  1  0.25008500  0.75008500  0.74925093  1
  Ti  Ti2_4  1  0.75008500  0.25008500  0.24925094  1
  Ti  Ti2_5  1  0.75008500  0.25008500  0.74925093  1
  Ti  Ti2_6  1  0.75008500  0.75008500  0.24925094  1
  Ti  Ti2_7  1  0.75008500  0.75008500  0.74925094  1
  Ti  Ti3_0  1  0.08210381  0.08210381  0.25341344  1
  Ti  Ti3_1  1  0.08210381  0.08210381  0.75341344  1
  Ti  Ti3_2  1  0.08210381  0.58210381  0.25341344  1
  Ti  Ti3_3  1  0.08210381  0.58210381  0.75341344  1
  Ti  Ti3_4  1  0.58210381  0.08210381  0.25341344  1
  Ti  Ti3_5  1  0.58210381  0.08210381  0.75341344  1
  Ti  Ti3_6  1  0.58210381  0.58210381  0.25341344  1
  Ti  Ti3_7  1  0.58210381  0.58210381  0.75341344  1
  Ti  Ti4_0  1  0.41866969  0.41866969  0.24558599  1
  Ti  Ti4_1  1  0.41866969  0.41866969  0.74558599  1
  Ti  Ti4_2  1  0.41866969  0.91866969  0.24558598  1
  Ti  Ti4_3  1  0.41866969  0.91866969  0.74558599  1
  Ti  Ti4_4  1  0.91866969  0.41866969  0.24558598  1
  Ti  Ti4_5  1  0.91866969  0.41866969  0.74558599  1
  Ti  Ti4_6  1  0.91866969  0.91866969  0.24558599  1
  Ti  Ti4_7  1  0.91866969  0.91866969  0.74558598  1
  In  In0_0  1  0.00346172  0.00346172  0.49273323  1
  In  In0_1  1  0.00346172  0.00346172  0.99273324  1
  In  In0_2  1  0.00346172  0.50346172  0.49273323  1
  In  In0_3  1  0.00346172  0.50346172  0.99273323  1
  In  In0_4  1  0.50346172  0.00346172  0.49273323  1
  In  In0_5  1  0.50346172  0.00346172  0.99273323  1
  In  In0_6  1  0.50346172  0.50346172  0.49273323  1
  In  In0_7  1  0.50346172  0.50346172  0.99273323  1
  S  S0_0  1  0.12942228  0.12942228  0.33397133  1
  S  S0_1  1  0.12942228  0.12942228  0.83397133  1
  S  S0_2  1  0.12942228  0.62942228  0.33397133  1
  S  S0_3  1  0.12942228  0.62942228  0.83397133  1
  S  S0_4  1  0.62942227  0.12942228  0.33397133  1
  S  S0_5  1  0.62942228  0.12942228  0.83397133  1
  S  S0_6  1  0.62942228  0.62942227  0.33397133  1
  S  S0_7  1  0.62942228  0.62942228  0.83397133  1
  S  S1_0  1  0.37108935  0.37108935  0.16527768  1
  S  S1_1  1  0.37108935  0.37108935  0.66527768  1
  S  S1_2  1  0.37108935  0.87108935  0.16527768  1
  S  S1_3  1  0.37108935  0.87108935  0.66527768  1
  S  S1_4  1  0.87108935  0.37108935  0.16527768  1
  S  S1_5  1  0.87108935  0.37108935  0.66527768  1
  S  S1_6  1  0.87108935  0.87108935  0.16527768  1
  S  S1_7  1  0.87108935  0.87108935  0.66527768  1
  S  S2_0  1  0.46232607  0.46232607  0.33148709  1
  S  S2_1  1  0.46232607  0.46232607  0.83148709  1
  S  S2_2  1  0.46232607  0.96232607  0.33148709  1
  S  S2_3  1  0.46232607  0.96232607  0.83148709  1
  S  S2_4  1  0.96232607  0.46232607  0.33148709  1
  S  S2_5  1  0.96232607  0.46232607  0.83148709  1
  S  S2_6  1  0.96232607  0.96232607  0.33148709  1
  S  S2_7  1  0.96232607  0.96232607  0.83148709  1
  S  S3_0  1  0.03821160  0.03821160  0.16775261  1
  S  S3_1  1  0.03821160  0.03821160  0.66775262  1
  S  S3_2  1  0.03821160  0.53821160  0.16775261  1
  S  S3_3  1  0.03821160  0.53821160  0.66775262  1
  S  S3_4  1  0.53821160  0.03821160  0.16775261  1
  S  S3_5  1  0.53821160  0.03821160  0.66775262  1
  S  S3_6  1  0.53821160  0.53821160  0.16775261  1
  S  S3_7  1  0.53821160  0.53821160  0.66775261  1
  S  S4_0  1  0.29419221  0.29419221  0.33540895  1
  S  S4_1  1  0.29419221  0.29419221  0.83540895  1
  S  S4_2  1  0.29419221  0.79419221  0.33540894  1
  S  S4_3  1  0.29419221  0.79419221  0.83540894  1
  S  S4_4  1  0.79419221  0.29419221  0.33540894  1
  S  S4_5  1  0.79419221  0.29419221  0.83540894  1
  S  S4_6  1  0.79419221  0.79419221  0.33540895  1
  S  S4_7  1  0.79419221  0.79419221  0.83540894  1
  S  S5_0  1  0.20604563  0.20604563  0.16387752  1
  S  S5_1  1  0.20604563  0.20604563  0.66387753  1
  S  S5_2  1  0.20604563  0.70604563  0.16387752  1
  S  S5_3  1  0.20604563  0.70604563  0.66387752  1
  S  S5_4  1  0.70604563  0.20604563  0.16387752  1
  S  S5_5  1  0.70604563  0.20604563  0.66387752  1
  S  S5_6  1  0.70604563  0.70604563  0.16387752  1
  S  S5_7  1  0.70604563  0.70604563  0.66387752  1
  S  S6_0  1  0.33103524  0.33103524  0.00116200  1
  S  S6_1  1  0.33103524  0.33103524  0.50116200  1
  S  S6_2  1  0.33103524  0.83103524  0.00116200  1
  S  S6_3  1  0.33103524  0.83103524  0.50116200  1
  S  S6_4  1  0.83103524  0.33103524  0.00116200  1
  S  S6_5  1  0.83103524  0.33103524  0.50116200  1
  S  S6_6  1  0.83103524  0.83103524  0.00116200  1
  S  S6_7  1  0.83103524  0.83103524  0.50116200  1
  S  S7_0  1  0.16940040  0.16940039  0.49799232  1
  S  S7_1  1  0.16940040  0.16940040  0.99799231  1
  S  S7_2  1  0.16940040  0.66940040  0.49799231  1
  S  S7_3  1  0.16940040  0.66940039  0.99799231  1
  S  S7_4  1  0.66940040  0.16940040  0.49799231  1
  S  S7_5  1  0.66940039  0.16940040  0.99799231  1
  S  S7_6  1  0.66940040  0.66940040  0.49799231  1
  S  S7_7  1  0.66940039  0.66940039  0.99799232  1
loop_
_geom_bond_atom_site_label_1
_geom_bond_atom_site_label_2
_geom_bond_distance
_geom_bond_site_symmetry_2
In0_0 S6_5 3.281937 1_455
In0_0 S6_3 3.281937 1_545
In0_0 S4_4 3.299950 1_455
In0_0 S4_2 3.299950 1_545
In0_0 S7_2 3.425534 1_545
In0_0 S7_4 3.425534 1_455
In0_0 In0_6 3.432084 1_455
In0_0 In0_6 3.432084 1_545
In0_0 S2_6 3.537200 1_445
In0_0 S5_3 3.540948 1_545
In0_0 S5_5 3.540948 1_455
In0_0 S3_1 3.633166 1_555
In0_1 S6_4 3.281937 1_456
In0_1 S6_2 3.281937 1_546
In0_1 S4_5 3.299950 1_455
In0_1 S4_3 3.299950 1_545
In0_1 S7_3 3.425534 1_545
In0_1 S7_5 3.425534 1_455
In0_1 In0_7 3.432084 1_455
In0_1 In0_7 3.432084 1_545
In0_1 S2_7 3.537200 1_445
In0_1 S5_4 3.540948 1_456
In0_1 S5_2 3.540948 1_546
In0_1 S3_0 3.633166 1_556
In0_2 S6_7 3.281937 1_455
In0_2 S6_1 3.281937 1_555
In0_2 S4_0 3.299950 1_555
In0_2 S4_6 3.299950 1_455
In0_2 S7_6 3.425534 1_455
In0_2 S7_0 3.425534 1_555
In0_2 In0_4 3.432084 1_555
In0_2 In0_4 3.432084 1_465
In0_2 S2_4 3.537200 1_455
In0_2 S5_7 3.540948 1_455
In0_2 S5_1 3.540948 1_555
In0_2 S3_3 3.633166 1_555
In0_3 S6_0 3.281937 1_556
In0_3 S6_6 3.281937 1_456
In0_3 S4_1 3.299950 1_555
In0_3 S4_7 3.299950 1_455
In0_3 S7_1 3.425534 1_555
In0_3 S7_7 3.425534 1_455
In0_3 In0_5 3.432084 1_555
In0_3 In0_5 3.432084 1_465
In0_3 S2_5 3.537200 1_455
In0_3 S5_0 3.540948 1_556
In0_3 S5_6 3.540948 1_456
In0_3 S3_2 3.633166 1_556
In0_4 S6_7 3.281937 1_545
In0_4 S6_1 3.281937 1_555
In0_4 S4_0 3.299950 1_555
In0_4 S4_6 3.299950 1_545
In0_4 S7_6 3.425534 1_545
In0_4 S7_0 3.425534 1_555
In0_4 S2_2 3.537200 1_545
In0_4 S5_7 3.540948 1_545
In0_4 S5_1 3.540948 1_555
In0_4 S3_5 3.633166 1_555
In0_5 S6_0 3.281937 1_556
In0_5 S6_6 3.281937 1_546
In0_5 S4_1 3.299950 1_555
In0_5 S4_7 3.299950 1_545
In0_5 S7_1 3.425534 1_555
In0_5 S7_7 3.425534 1_545
In0_5 S2_3 3.537200 1_545
In0_5 S5_0 3.540948 1_556
In0_5 S5_6 3.540948 1_546
In0_5 S3_4 3.633166 1_556
In0_6 S6_5 3.281937 1_555
In0_6 S6_3 3.281937 1_555
In0_6 S4_4 3.299950 1_555
In0_6 S4_2 3.299950 1_555
In0_6 S7_2 3.425534 1_555
In0_6 S7_4 3.425534 1_555
In0_6 S2_0 3.537200 1_555
In0_6 S5_3 3.540948 1_555
In0_6 S5_5 3.540948 1_555
In0_6 S3_7 3.633166 1_555
In0_7 S6_4 3.281937 1_556
In0_7 S6_2 3.281937 1_556
In0_7 S4_3 3.299950 1_555
In0_7 S4_5 3.299950 1_555
In0_7 S7_3 3.425534 1_555
In0_7 S7_5 3.425534 1_555
In0_7 S2_1 3.537200 1_555
In0_7 S5_4 3.540948 1_556
In0_7 S5_2 3.540948 1_556
In0_7 S3_6 3.633166 1_556
S0_0 Ti3_0 2.469566 1_555
S0_0 Ti4_4 2.505626 1_455
S0_0 Ti4_2 2.505626 1_545
S0_0 Ti0_4 2.547170 1_455
S0_0 Ti0_2 2.547170 1_545
S0_1 Ti3_1 2.469566 1_555
S0_1 Ti4_5 2.505626 1_455
S0_1 Ti4_3 2.505626 1_545
S0_1 Ti0_5 2.547170 1_455
S0_1 Ti0_3 2.547170 1_545
S0_2 Ti3_2 2.469566 1_555
S0_2 Ti4_0 2.505626 1_555
S0_2 Ti4_6 2.505626 1_455
S0_2 Ti0_0 2.547170 1_555
S0_2 Ti0_6 2.547170 1_455
S0_3 Ti3_3 2.469566 1_555
S0_3 Ti4_1 2.505626 1_555
S0_3 Ti4_7 2.505626 1_455
S0_3 Ti0_1 2.547170 1_555
S0_3 Ti0_7 2.547170 1_455
S0_4 Ti3_4 2.469566 1_555
S0_4 Ti4_6 2.505626 1_545
S0_4 Ti4_0 2.505626 1_555
S0_4 Ti0_0 2.547170 1_555
S0_4 Ti0_6 2.547170 1_545
S0_5 Ti3_5 2.469566 1_555
S0_5 Ti4_1 2.505626 1_555
S0_5 Ti4_7 2.505626 1_545
S0_5 Ti0_1 2.547170 1_555
S0_5 Ti0_7 2.547170 1_545
S0_6 Ti3_6 2.469566 1_555
S0_6 Ti4_4 2.505626 1_555
S0_6 Ti4_2 2.505626 1_555
S0_6 Ti0_4 2.547170 1_555
S0_6 Ti0_2 2.547170 1_555
S0_7 Ti3_7 2.469566 1_555
S0_7 Ti4_5 2.505626 1_555
S0_7 Ti4_3 2.505626 1_555
S0_7 Ti0_5 2.547170 1_555
S0_7 Ti0_3 2.547170 1_555
S1_0 Ti4_0 2.473918 1_555
S1_0 Ti3_4 2.499736 1_555
S1_0 Ti3_2 2.499736 1_555
S1_0 Ti1_2 2.541327 1_555
S1_0 Ti1_4 2.541327 1_555
S1_1 Ti4_1 2.473918 1_555
S1_1 Ti3_5 2.499736 1_555
S1_1 Ti3_3 2.499736 1_555
S1_1 Ti1_3 2.541327 1_555
S1_1 Ti1_5 2.541327 1_555
S1_2 Ti4_2 2.473918 1_555
S1_2 Ti3_6 2.499736 1_555
S1_2 Ti3_0 2.499736 1_565
S1_2 Ti1_6 2.541327 1_555
S1_2 Ti1_0 2.541327 1_565
S1_3 Ti4_3 2.473918 1_555
S1_3 Ti3_7 2.499736 1_555
S1_3 Ti3_1 2.499736 1_565
S1_3 Ti1_1 2.541327 1_565
S1_3 Ti1_7 2.541327 1_555
S1_4 Ti4_4 2.473918 1_555
S1_4 Ti3_6 2.499736 1_555
S1_4 Ti3_0 2.499736 1_655
S1_4 Ti1_6 2.541327 1_555
S1_4 Ti1_0 2.541327 1_655
S1_5 Ti4_5 2.473918 1_555
S1_5 Ti3_7 2.499736 1_555
S1_5 Ti3_1 2.499736 1_655
S1_5 Ti1_1 2.541327 1_655
S1_5 Ti1_7 2.541327 1_555
S1_6 Ti4_6 2.473918 1_555
S1_6 Ti3_2 2.499736 1_655
S1_6 Ti3_4 2.499736 1_565
S1_6 Ti1_4 2.541327 1_565
S1_6 Ti1_2 2.541327 1_655
S1_7 Ti4_7 2.473918 1_555
S1_7 Ti3_3 2.499736 1_655
S1_7 Ti3_5 2.499736 1_565
S1_7 Ti1_3 2.541327 1_655
S1_7 Ti1_5 2.541327 1_565
S2_0 Ti2_4 2.431997 1_555
S2_0 Ti2_2 2.431997 1_555
S2_0 Ti4_0 2.437571 1_555
S2_0 Ti0_0 2.505059 1_555
S2_1 Ti2_5 2.431997 1_555
S2_1 Ti2_3 2.431997 1_555
S2_1 Ti4_1 2.437571 1_555
S2_1 Ti0_1 2.505059 1_555
S2_2 Ti2_0 2.431997 1_565
S2_2 Ti2_6 2.431997 1_555
S2_2 Ti4_2 2.437571 1_555
S2_2 Ti0_2 2.505059 1_555
S2_3 Ti2_1 2.431997 1_565
S2_3 Ti2_7 2.431997 1_555
S2_3 Ti4_3 2.437571 1_555
S2_3 Ti0_3 2.505059 1_555
S2_4 Ti2_0 2.431997 1_655
S2_4 Ti2_6 2.431997 1_555
S2_4 Ti4_4 2.437571 1_555
S2_4 Ti0_4 2.505059 1_555
S2_5 Ti2_7 2.431997 1_555
S2_5 Ti2_1 2.431997 1_655
S2_5 Ti4_5 2.437571 1_555
S2_5 Ti0_5 2.505059 1_555
S2_6 Ti2_4 2.431997 1_565
S2_6 Ti2_2 2.431997 1_655
S2_6 Ti4_6 2.437571 1_555
S2_6 Ti0_6 2.505059 1_555
S2_7 Ti2_5 2.431997 1_565
S2_7 Ti2_3 2.431997 1_655
S2_7 Ti4_7 2.437571 1_555
S2_7 Ti0_7 2.505059 1_555
S3_0 Ti2_4 2.431196 1_455
S3_0 Ti2_2 2.431196 1_545
S3_0 Ti3_0 2.440854 1_555
S3_0 Ti1_0 2.503163 1_555
S3_1 Ti2_3 2.431196 1_545
S3_1 Ti2_5 2.431196 1_455
S3_1 Ti3_1 2.440854 1_555
S3_1 Ti1_1 2.503163 1_555
S3_2 Ti2_6 2.431196 1_455
S3_2 Ti2_0 2.431196 1_555
S3_2 Ti3_2 2.440854 1_555
S3_2 Ti1_2 2.503163 1_555
S3_3 Ti2_1 2.431196 1_555
S3_3 Ti2_7 2.431196 1_455
S3_3 Ti3_3 2.440854 1_555
S3_3 Ti1_3 2.503163 1_555
S3_4 Ti2_0 2.431196 1_555
S3_4 Ti2_6 2.431196 1_545
S3_4 Ti3_4 2.440854 1_555
S3_4 Ti1_4 2.503163 1_555
S3_5 Ti2_1 2.431196 1_555
S3_5 Ti2_7 2.431196 1_545
S3_5 Ti3_5 2.440854 1_555
S3_5 Ti1_5 2.503163 1_555
S3_6 Ti2_2 2.431196 1_555
S3_6 Ti2_4 2.431196 1_555
S3_6 Ti3_6 2.440854 1_555
S3_6 Ti1_6 2.503163 1_555
S3_7 Ti2_3 2.431196 1_555
S3_7 Ti2_5 2.431196 1_555
S3_7 Ti3_7 2.440854 1_555
S3_7 Ti1_7 2.503163 1_555
S4_0 Ti3_2 2.432186 1_555
S4_0 Ti3_4 2.432186 1_555
S4_0 Ti2_0 2.453898 1_555
S4_1 Ti3_5 2.432186 1_555
S4_1 Ti3_3 2.432186 1_555
S4_1 Ti2_1 2.453898 1_555
S4_2 Ti3_0 2.432186 1_565
S4_2 Ti3_6 2.432186 1_555
S4_2 Ti2_2 2.453898 1_555
S4_3 Ti3_1 2.432186 1_565
S4_3 Ti3_7 2.432186 1_555
S4_3 Ti2_3 2.453898 1_555
S4_4 Ti3_0 2.432186 1_655
S4_4 Ti3_6 2.432186 1_555
S4_4 Ti2_4 2.453898 1_555
S4_5 Ti3_1 2.432186 1_655
S4_5 Ti3_7 2.432186 1_555
S4_5 Ti2_5 2.453898 1_555
S4_6 Ti3_4 2.432186 1_565
S4_6 Ti3_2 2.432186 1_655
S4_6 Ti2_6 2.453898 1_555
S4_7 Ti3_3 2.432186 1_655
S4_7 Ti3_5 2.432186 1_565
S4_7 Ti2_7 2.453898 1_555
S5_0 Ti4_2 2.422180 1_545
S5_0 Ti4_4 2.422180 1_455
S5_0 Ti2_0 2.440992 1_555
S5_1 Ti4_3 2.422180 1_545
S5_1 Ti4_5 2.422180 1_455
S5_1 Ti2_1 2.440992 1_555
S5_2 Ti4_0 2.422180 1_555
S5_2 Ti4_6 2.422180 1_455
S5_2 Ti2_2 2.440992 1_555
S5_3 Ti4_7 2.422180 1_455
S5_3 Ti4_1 2.422180 1_555
S5_3 Ti2_3 2.440992 1_555
S5_4 Ti4_0 2.422180 1_555
S5_4 Ti4_6 2.422180 1_545
S5_4 Ti2_4 2.440992 1_555
S5_5 Ti4_7 2.422180 1_545
S5_5 Ti4_1 2.422180 1_555
S5_5 Ti2_5 2.440992 1_555
S5_6 Ti4_2 2.422180 1_555
S5_6 Ti4_4 2.422180 1_555
S5_6 Ti2_6 2.440992 1_555
S5_7 Ti4_5 2.422180 1_555
S5_7 Ti4_3 2.422180 1_555
S5_7 Ti2_7 2.440992 1_555
S6_0 Ti0_1 2.390510 1_554
S6_0 Ti1_2 2.413468 1_555
S6_0 Ti1_4 2.413468 1_555
S6_1 Ti0_0 2.390510 1_555
S6_1 Ti1_5 2.413468 1_555
S6_1 Ti1_3 2.413468 1_555
S6_2 Ti0_3 2.390510 1_554
S6_2 Ti1_0 2.413468 1_565
S6_2 Ti1_6 2.413468 1_555
S6_3 Ti0_2 2.390510 1_555
S6_3 Ti1_7 2.413468 1_555
S6_3 Ti1_1 2.413468 1_565
S6_4 Ti0_5 2.390510 1_554
S6_4 Ti1_0 2.413468 1_655
S6_4 Ti1_6 2.413468 1_555
S6_5 Ti0_4 2.390510 1_555
S6_5 Ti1_7 2.413468 1_555
S6_5 Ti1_1 2.413468 1_655
S6_6 Ti0_7 2.390510 1_554
S6_6 Ti1_4 2.413468 1_565
S6_6 Ti1_2 2.413468 1_655
S6_7 Ti0_6 2.390510 1_555
S6_7 Ti1_5 2.413468 1_565
S6_7 Ti1_3 2.413468 1_655
S7_0 Ti1_1 2.388969 1_555
S7_0 Ti0_2 2.405674 1_545
S7_0 Ti0_4 2.405674 1_455
S7_1 Ti1_0 2.388969 1_556
S7_1 Ti0_3 2.405674 1_545
S7_1 Ti0_5 2.405674 1_455
S7_2 Ti1_3 2.388969 1_555
S7_2 Ti0_6 2.405674 1_455
S7_2 Ti0_0 2.405674 1_555
S7_3 Ti1_2 2.388969 1_556
S7_3 Ti0_7 2.405674 1_455
S7_3 Ti0_1 2.405674 1_555
S7_4 Ti1_5 2.388969 1_555
S7_4 Ti0_6 2.405674 1_545
S7_4 Ti0_0 2.405674 1_555
S7_5 Ti1_4 2.388969 1_556
S7_5 Ti0_7 2.405674 1_545
S7_5 Ti0_1 2.405674 1_555
S7_6 Ti1_7 2.388969 1_555
S7_6 Ti0_2 2.405674 1_555
S7_6 Ti0_4 2.405674 1_555
S7_7 Ti1_6 2.388969 1_556
S7_7 Ti0_3 2.405674 1_555
S7_7 Ti0_5 2.405674 1_555
