# generated using pymatgen
data_HoMnGa
_symmetry_space_group_name_H-M   'P 1'
_cell_length_a   8.18765310
_cell_length_b   8.18765310
_cell_length_c   8.18765310
_cell_angle_alpha   128.36768332
_cell_angle_beta   122.08931965
_cell_angle_gamma   81.26026484
_symmetry_Int_Tables_number   1
_chemical_formula_structural   HoMnGa
_chemical_formula_sum   'Ho6 Mn6 Ga6'
_cell_volume   351.29548727
_cell_formula_units_Z   6
loop_
 _symmetry_equiv_pos_site_id
 _symmetry_equiv_pos_as_xyz
  1  'x, y, z'
loop_
 _atom_site_type_symbol
 _atom_site_label
 _atom_site_symmetry_multiplicity
 _atom_site_fract_x
 _atom_site_fract_y
 _atom_site_fract_z
 _atom_site_occupancy
  Ho  Ho0  1  0.95642700  0.52657300  0.07014600  1
  Ho  Ho1  1  0.04357300  0.11371900  0.57014600  1
  Ho  Ho2  1  0.75027900  0.95173400  0.70145500  1
  Ho  Ho3  1  0.24972100  0.95117600  0.20145500  1
  Ho  Ho4  1  0.54678100  0.12026700  0.07348600  1
  Ho  Ho5  1  0.45321900  0.52670500  0.57348600  1
  Mn  Mn0  1  0.33637600  0.86272200  0.52941300  1
  Mn  Mn1  1  0.66362400  0.19303700  0.52634600  1
  Mn  Mn2  1  0.83330900  0.86272200  0.02634600  1
  Mn  Mn3  1  0.16669100  0.19303700  0.02941300  1
  Mn  Mn4  1  0.50000000  0.28946300  0.78946300  1
  Mn  Mn5  1  0.00000000  0.28946300  0.28946300  1
  Ga  Ga0  1  0.75308700  0.52921700  0.27613000  1
  Ga  Ga1  1  0.24691300  0.52304300  0.77613000  1
  Ga  Ga2  1  0.13133800  0.78226000  0.65664000  1
  Ga  Ga3  1  0.86866200  0.52530100  0.65092200  1
  Ga  Ga4  1  0.62562000  0.78226000  0.15092200  1
  Ga  Ga5  1  0.37438000  0.52530100  0.15664000  1
loop_
_geom_bond_atom_site_label_1
_geom_bond_atom_site_label_2
_geom_bond_distance
_geom_bond_site_symmetry_2
Ho0 Mn1 2.929742 1_554
Ho0 Mn3 2.929742 1_655
Ho0 Mn2 2.952599 1_555
Ho0 Mn0 2.952599 1_655
Ho0 Mn4 3.249197 1_554
Ho0 Mn5 3.249197 1_655
Ho1 Mn0 2.929742 1_545
Ho1 Mn2 2.929742 1_445
Ho1 Mn3 2.952599 1_556
Ho1 Mn1 2.952599 1_455
Ho1 Mn5 3.249197 1_555
Ho1 Mn4 3.249197 1_555
Ho2 Mn0 2.898993 1_555
Ho2 Mn2 2.898993 1_556
Ho2 Mn1 2.910682 1_565
Ho2 Mn3 2.910682 1_666
Ho2 Mn4 3.120596 1_565
Ho2 Mn5 3.120596 1_666
Ho3 Mn1 2.898993 1_565
Ho3 Mn3 2.898993 1_565
Ho3 Mn0 2.910682 1_555
Ho3 Mn2 2.910682 1_455
Ho3 Mn4 3.120596 1_565
Ho3 Mn5 3.120596 1_565
Ho4 Mn0 2.923620 1_544
Ho4 Mn2 2.923620 1_545
Ho4 Mn3 2.946235 1_555
Ho4 Mn1 2.946235 1_555
Ho4 Mn4 3.219519 1_554
Ho4 Mn5 3.219519 1_655
Ho5 Mn3 2.923620 1_555
Ho5 Mn1 2.923620 1_555
Ho5 Mn0 2.946235 1_555
Ho5 Mn2 2.946235 1_556
Ho5 Mn5 3.219519 1_555
Ho5 Mn4 3.219519 1_555
Mn0 Mn4 2.773580 1_565
Mn1 Mn4 2.773580 1_555
Mn2 Mn5 2.773580 1_665
Mn3 Mn5 2.773580 1_555
Ga0 Mn5 2.603447 1_655
Ga0 Mn4 2.603447 1_554
Ga0 Ga2 2.697310 1_655
Ga0 Ga4 2.697310 1_555
Ga0 Ga5 2.709394 1_555
Ga0 Ga3 2.709400 1_555
Ga0 Ho0 2.922956 1_555
Ga0 Ho4 2.943114 1_555
Ga0 Ho2 3.033278 1_555
Ga1 Mn4 2.603447 1_555
Ga1 Mn5 2.603447 1_555
Ga1 Ga3 2.697309 1_455
Ga1 Ga5 2.697315 1_556
Ga1 Ga4 2.709395 1_556
Ga1 Ga2 2.709395 1_555
Ga1 Ho1 2.922956 1_555
Ga1 Ho5 2.943114 1_555
Ga1 Ho3 3.033278 1_556
Ga2 Mn3 2.706454 1_566
Ga2 Mn0 2.717259 1_555
Ga2 Mn5 3.049539 1_555
Ga2 Ho1 3.104119 1_565
Ga2 Ho4 3.110970 1_566
Ga2 Ga3 3.193723 1_455
Ga2 Ho5 3.201468 1_555
Ga2 Ho0 3.258452 1_455
Ga2 Ho3 3.302337 1_556
Ga2 Ho2 3.326104 1_455
Ga3 Mn2 2.706457 1_556
Ga3 Mn1 2.717252 1_555
Ga3 Mn5 3.049539 1_655
Ga3 Ho0 3.104113 1_556
Ga3 Ho5 3.110970 1_555
Ga3 Ho4 3.201466 1_555
Ga3 Ho1 3.258445 1_655
Ga3 Ho2 3.302345 1_555
Ga3 Ho3 3.326107 1_656
Ga4 Mn1 2.706454 1_565
Ga4 Mn2 2.717259 1_555
Ga4 Mn4 3.049539 1_554
Ga4 Ho1 3.104119 1_665
Ga4 Ho4 3.110970 1_565
Ga4 Ga5 3.193723 1_555
Ga4 Ho5 3.201468 1_554
Ga4 Ho0 3.258452 1_555
Ga4 Ho3 3.302337 1_555
Ga4 Ho2 3.326104 1_555
Ga5 Mn0 2.706457 1_555
Ga5 Mn3 2.717252 1_555
Ga5 Mn4 3.049539 1_554
Ga5 Ho0 3.104119 1_455
Ga5 Ho5 3.110965 1_555
Ga5 Ho4 3.201462 1_555
Ga5 Ho1 3.258450 1_554
Ga5 Ho2 3.302340 1_555
Ga5 Ho3 3.326112 1_555
