# generated using pymatgen
data_Li3VFeP2(O4F)2
_symmetry_space_group_name_H-M   'P 1'
_cell_length_a   5.41651508
_cell_length_b   7.62441115
_cell_length_c   10.28182619
_cell_angle_alpha   75.52568276
_cell_angle_beta   81.65064369
_cell_angle_gamma   110.16016037
_symmetry_Int_Tables_number   1
_chemical_formula_structural   Li3VFeP2(O4F)2
_chemical_formula_sum   'Li6 V2 Fe2 P4 O16 F4'
_cell_volume   373.23823054
_cell_formula_units_Z   2
loop_
 _symmetry_equiv_pos_site_id
 _symmetry_equiv_pos_as_xyz
  1  'x, y, z'
loop_
 _atom_site_type_symbol
 _atom_site_label
 _atom_site_symmetry_multiplicity
 _atom_site_fract_x
 _atom_site_fract_y
 _atom_site_fract_z
 _atom_site_occupancy
  Li  Li0  1  0.88837200  0.30560600  0.54901100  1
  Li  Li1  1  0.38979100  0.80617400  0.04865700  1
  Li  Li2  1  0.96867300  0.00067900  0.50831900  1
  Li  Li3  1  0.47407500  0.50110300  0.00792600  1
  Li  Li4  1  0.11296700  0.70697200  0.45089900  1
  Li  Li5  1  0.61428400  0.20744000  0.95085700  1
  V  V0  1  0.49942500  0.49981300  0.49930100  1
  V  V1  1  0.00015400  0.99975400  0.99981100  1
  Fe  Fe0  1  0.24924300  0.24583600  0.25325600  1
  Fe  Fe1  1  0.74965800  0.74592800  0.75292000  1
  P  P0  1  0.59092800  0.95128700  0.28859100  1
  P  P1  1  0.09218500  0.45103500  0.78852300  1
  P  P2  1  0.40810200  0.04781300  0.71090600  1
  P  P3  1  0.90904400  0.54728900  0.21078300  1
  O  O0  1  0.66250500  0.99501800  0.12604200  1
  O  O1  1  0.16206600  0.49474400  0.62594100  1
  O  O2  1  0.84165800  0.05693700  0.33460800  1
  O  O3  1  0.34462400  0.55711600  0.83342400  1
  O  O4  1  0.34713000  0.00292400  0.33429100  1
  O  O5  1  0.84925300  0.50272800  0.83523800  1
  O  O6  1  0.47608100  0.72118700  0.35845800  1
  O  O7  1  0.97788400  0.22106800  0.85847800  1
  O  O8  1  0.52217400  0.27779900  0.64012000  1
  O  O9  1  0.02409300  0.77741000  0.13994300  1
  O  O10  1  0.65099600  0.99527800  0.66380700  1
  O  O11  1  0.15253500  0.49432500  0.16496800  1
  O  O12  1  0.15299100  0.94095600  0.66814900  1
  O  O13  1  0.65558400  0.44105400  0.16694600  1
  O  O14  1  0.34112500  0.00687500  0.87336100  1
  O  O15  1  0.84029100  0.50655900  0.37325900  1
  F  F0  1  0.20713600  0.29459100  0.44821700  1
  F  F1  1  0.70764900  0.79488800  0.94830600  1
  F  F2  1  0.78559800  0.70355100  0.55400200  1
  F  F3  1  0.28635300  0.20389100  0.05418500  1
loop_
_geom_bond_atom_site_label_1
_geom_bond_atom_site_label_2
_geom_bond_distance
_geom_bond_site_symmetry_2
Li0 O8 1.981931 1_555
Li0 O1 2.083286 1_655
Li0 O15 2.169889 1_555
Li0 O10 2.170448 1_545
Li1 O9 1.977468 1_555
Li1 O0 2.082345 1_555
Li1 O14 2.167232 1_564
Li1 O11 2.181981 1_555
Li2 O2 2.006148 1_555
Li2 O12 2.078560 1_645
Li2 O10 2.153532 1_545
Li2 O4 2.509862 1_655
Li3 O3 2.020373 1_554
Li3 O13 2.062126 1_555
Li3 O11 2.173170 1_555
Li3 O5 2.491216 1_554
Li4 O6 2.010509 1_555
Li4 O4 2.090700 1_565
Li4 O15 2.133093 1_455
Li4 O1 2.215392 1_555
Li5 O7 2.014454 1_555
Li5 O5 2.085518 1_555
Li5 O14 2.134096 1_555
Li5 O0 2.214860 1_546
Fe0 O2 2.077898 1_455
Fe0 O13 2.088422 1_555
Fe0 O4 2.106946 1_555
Fe0 O11 2.156454 1_555
Fe1 O3 2.066545 1_555
Fe1 O12 2.074476 1_655
Fe1 O5 2.117357 1_555
Fe1 O10 2.170527 1_555
O0 P0 1.580785 1_555
O0 V1 2.066957 1_654
O1 P1 1.580988 1_555
O1 V0 2.066679 1_555
O2 P0 1.529766 1_545
O3 P1 1.531211 1_555
O4 P0 1.546039 1_545
O5 P1 1.544683 1_655
O6 P0 1.571247 1_555
O6 V0 1.985023 1_555
O7 P1 1.570644 1_655
O7 V1 1.984681 1_645
O8 P2 1.571904 1_555
O8 V0 1.986774 1_555
O9 P3 1.572562 1_455
O9 V1 1.987807 1_554
O10 P2 1.549526 1_565
O11 P3 1.551182 1_455
O12 P2 1.531636 1_565
O13 P3 1.529610 1_555
O14 P2 1.582527 1_555
O14 V1 2.074247 1_545
O15 P3 1.583078 1_555
O15 V0 2.072992 1_555
F0 Li0 1.919891 1_455
F0 Li2 2.037818 1_455
F0 V0 2.043390 1_555
F0 Fe0 2.122875 1_555
F1 Li1 1.914886 1_556
F1 Li3 2.031926 1_556
F1 V1 2.044937 1_655
F1 Fe1 2.127809 1_555
F2 Li4 1.917573 1_655
F2 Li2 2.029888 1_565
F2 V0 2.040154 1_555
F2 Fe1 2.140879 1_555
F3 Li5 1.920658 1_554
F3 Li3 2.031675 1_555
F3 V1 2.040025 1_544
F3 Fe0 2.141068 1_555
