# generated using pymatgen
data_Mg30NbCrO32
_symmetry_space_group_name_H-M   'P 1'
_cell_length_a   8.58308900
_cell_length_b   8.58308900
_cell_length_c   8.53398700
_cell_angle_alpha   90.00000000
_cell_angle_beta   90.00000000
_cell_angle_gamma   90.00000000
_symmetry_Int_Tables_number   1
_chemical_formula_structural   Mg30NbCrO32
_chemical_formula_sum   'Mg30 Nb1 Cr1 O32'
_cell_volume   628.69384511
_cell_formula_units_Z   1
loop_
 _symmetry_equiv_pos_site_id
 _symmetry_equiv_pos_as_xyz
  1  'x, y, z'
loop_
 _atom_site_type_symbol
 _atom_site_label
 _atom_site_symmetry_multiplicity
 _atom_site_fract_x
 _atom_site_fract_y
 _atom_site_fract_z
 _atom_site_occupancy
  Mg  Mg0  1  0.50000000  0.00000000  0.00000000  1
  Mg  Mg1  1  0.50000000  0.00000000  0.50000000  1
  Mg  Mg2  1  0.00000000  0.50000000  0.00000000  1
  Mg  Mg3  1  0.00000000  0.50000000  0.50000000  1
  Mg  Mg4  1  0.50000000  0.50000000  0.00000000  1
  Mg  Mg5  1  0.50000000  0.50000000  0.50000000  1
  Mg  Mg6  1  0.25326600  0.00000000  0.25187100  1
  Mg  Mg7  1  0.25326600  0.00000000  0.74812900  1
  Mg  Mg8  1  0.74673400  0.00000000  0.25187100  1
  Mg  Mg9  1  0.74673400  0.00000000  0.74812900  1
  Mg  Mg10  1  0.25015200  0.50000000  0.25037300  1
  Mg  Mg11  1  0.25015200  0.50000000  0.74962700  1
  Mg  Mg12  1  0.74984800  0.50000000  0.25037300  1
  Mg  Mg13  1  0.74984800  0.50000000  0.74962700  1
  Mg  Mg14  1  0.00000000  0.25326600  0.25187100  1
  Mg  Mg15  1  0.00000000  0.25326600  0.74812900  1
  Mg  Mg16  1  0.50000000  0.25015200  0.25037300  1
  Mg  Mg17  1  0.50000000  0.25015200  0.74962700  1
  Mg  Mg18  1  0.00000000  0.74673400  0.25187100  1
  Mg  Mg19  1  0.00000000  0.74673400  0.74812900  1
  Mg  Mg20  1  0.50000000  0.74984800  0.25037300  1
  Mg  Mg21  1  0.50000000  0.74984800  0.74962700  1
  Mg  Mg22  1  0.25176400  0.25176400  0.00000000  1
  Mg  Mg23  1  0.25051400  0.25051400  0.50000000  1
  Mg  Mg24  1  0.74823600  0.25176400  0.00000000  1
  Mg  Mg25  1  0.74948600  0.25051400  0.50000000  1
  Mg  Mg26  1  0.25176400  0.74823600  0.00000000  1
  Mg  Mg27  1  0.25051400  0.74948600  0.50000000  1
  Mg  Mg28  1  0.74823600  0.74823600  0.00000000  1
  Mg  Mg29  1  0.74948600  0.74948600  0.50000000  1
  Nb  Nb0  1  0.00000000  0.00000000  0.00000000  1
  Cr  Cr0  1  0.00000000  0.00000000  0.50000000  1
  O  O0  1  0.00000000  0.26172400  0.00000000  1
  O  O1  1  0.00000000  0.26012400  0.50000000  1
  O  O2  1  0.50000000  0.25146000  0.00000000  1
  O  O3  1  0.50000000  0.25133400  0.50000000  1
  O  O4  1  0.00000000  0.73827600  0.00000000  1
  O  O5  1  0.00000000  0.73987600  0.50000000  1
  O  O6  1  0.50000000  0.74854000  0.00000000  1
  O  O7  1  0.50000000  0.74866600  0.50000000  1
  O  O8  1  0.24928000  0.24928000  0.24968600  1
  O  O9  1  0.24928000  0.24928000  0.75031400  1
  O  O10  1  0.75072000  0.24928000  0.24968600  1
  O  O11  1  0.75072000  0.24928000  0.75031400  1
  O  O12  1  0.24928000  0.75072000  0.24968600  1
  O  O13  1  0.24928000  0.75072000  0.75031400  1
  O  O14  1  0.75072000  0.75072000  0.24968600  1
  O  O15  1  0.75072000  0.75072000  0.75031400  1
  O  O16  1  0.00000000  0.00000000  0.26185200  1
  O  O17  1  0.00000000  0.00000000  0.73814800  1
  O  O18  1  0.50000000  0.00000000  0.25003500  1
  O  O19  1  0.50000000  0.00000000  0.74996500  1
  O  O20  1  0.00000000  0.50000000  0.25003500  1
  O  O21  1  0.00000000  0.50000000  0.74996500  1
  O  O22  1  0.50000000  0.50000000  0.24996900  1
  O  O23  1  0.50000000  0.50000000  0.75003100  1
  O  O24  1  0.26172400  0.00000000  0.00000000  1
  O  O25  1  0.26012400  0.00000000  0.50000000  1
  O  O26  1  0.73827600  0.00000000  0.00000000  1
  O  O27  1  0.73987600  0.00000000  0.50000000  1
  O  O28  1  0.25146000  0.50000000  0.00000000  1
  O  O29  1  0.25133400  0.50000000  0.50000000  1
  O  O30  1  0.74854000  0.50000000  0.00000000  1
  O  O31  1  0.74866600  0.50000000  0.50000000  1
loop_
_geom_bond_atom_site_label_1
_geom_bond_atom_site_label_2
_geom_bond_distance
_geom_bond_site_symmetry_2
Mg0 O26 2.045144 1_555
Mg0 O24 2.045144 1_555
Mg0 O18 2.133795 1_555
Mg0 O19 2.133795 1_554
Mg0 O6 2.158304 1_545
Mg0 O2 2.158304 1_555
Mg1 O27 2.058877 1_555
Mg1 O25 2.058877 1_555
Mg1 O19 2.133198 1_555
Mg1 O18 2.133198 1_555
Mg1 O3 2.157222 1_555
Mg1 O7 2.157222 1_545
Mg2 O4 2.045144 1_555
Mg2 O0 2.045144 1_555
Mg2 O21 2.133795 1_554
Mg2 O20 2.133795 1_555
Mg2 O30 2.158304 1_455
Mg2 O28 2.158304 1_555
Mg3 O5 2.058877 1_555
Mg3 O1 2.058877 1_555
Mg3 O21 2.133198 1_555
Mg3 O20 2.133198 1_555
Mg3 O29 2.157222 1_555
Mg3 O31 2.157222 1_455
Mg4 O22 2.133232 1_555
Mg4 O23 2.133232 1_554
Mg4 O2 2.133241 1_555
Mg4 O28 2.133241 1_555
Mg4 O6 2.133241 1_555
Mg4 O30 2.133241 1_555
Mg5 O22 2.133761 1_555
Mg5 O23 2.133761 1_555
Mg5 O31 2.134322 1_555
Mg5 O7 2.134322 1_555
Mg5 O29 2.134322 1_555
Mg5 O3 2.134322 1_555
Mg6 O18 2.117798 1_555
Mg6 O25 2.118348 1_555
Mg6 O12 2.139947 1_545
Mg6 O8 2.139947 1_555
Mg6 O24 2.150689 1_555
Mg6 O16 2.175473 1_555
Mg7 O19 2.117798 1_555
Mg7 O25 2.118348 1_555
Mg7 O13 2.139947 1_545
Mg7 O9 2.139947 1_555
Mg7 O24 2.150689 1_556
Mg7 O17 2.175473 1_555
Mg8 O18 2.117798 1_555
Mg8 O27 2.118348 1_555
Mg8 O14 2.139947 1_545
Mg8 O10 2.139947 1_555
Mg8 O26 2.150689 1_555
Mg8 O16 2.175473 1_655
Mg9 O19 2.117798 1_555
Mg9 O27 2.118348 1_555
Mg9 O15 2.139947 1_545
Mg9 O11 2.139947 1_555
Mg9 O26 2.150689 1_556
Mg9 O17 2.175473 1_655
Mg10 O29 2.130338 1_555
Mg10 O28 2.136709 1_555
Mg10 O22 2.144470 1_555
Mg10 O20 2.147079 1_555
Mg10 O8 2.151973 1_555
Mg10 O12 2.151973 1_555
Mg11 O29 2.130338 1_555
Mg11 O28 2.136709 1_556
Mg11 O23 2.144470 1_555
Mg11 O21 2.147079 1_555
Mg11 O9 2.151973 1_555
Mg11 O13 2.151973 1_555
Mg12 O31 2.130338 1_555
Mg12 O30 2.136709 1_555
Mg12 O22 2.144470 1_555
Mg12 O20 2.147079 1_655
Mg12 O10 2.151973 1_555
Mg12 O14 2.151973 1_555
Mg13 O31 2.130338 1_555
Mg13 O30 2.136709 1_556
Mg13 O23 2.144470 1_555
Mg13 O21 2.147079 1_655
Mg13 O11 2.151973 1_555
Mg13 O15 2.151973 1_555
Mg14 O20 2.117798 1_555
Mg14 O1 2.118348 1_555
Mg14 O10 2.139947 1_455
Mg14 O8 2.139947 1_555
Mg14 O0 2.150689 1_555
Mg14 O16 2.175473 1_555
Mg15 O21 2.117798 1_555
Mg15 O1 2.118348 1_555
Mg15 O11 2.139947 1_455
Mg15 O9 2.139947 1_555
Mg15 O0 2.150689 1_556
Mg15 O17 2.175473 1_555
Mg16 O3 2.130338 1_555
Mg16 O2 2.136709 1_555
Mg16 O22 2.144470 1_555
Mg16 O18 2.147079 1_555
Mg16 O8 2.151973 1_555
Mg16 O10 2.151973 1_555
Mg17 O3 2.130338 1_555
Mg17 O2 2.136709 1_556
Mg17 O23 2.144470 1_555
Mg17 O19 2.147079 1_555
Mg17 O9 2.151973 1_555
Mg17 O11 2.151973 1_555
Mg18 O20 2.117798 1_555
Mg18 O5 2.118348 1_555
Mg18 O14 2.139947 1_455
Mg18 O12 2.139947 1_555
Mg18 O4 2.150689 1_555
Mg18 O16 2.175473 1_565
Mg19 O21 2.117798 1_555
Mg19 O5 2.118348 1_555
Mg19 O15 2.139947 1_455
Mg19 O13 2.139947 1_555
Mg19 O4 2.150689 1_556
Mg19 O17 2.175473 1_565
Mg20 O7 2.130338 1_555
Mg20 O6 2.136709 1_555
Mg20 O22 2.144470 1_555
Mg20 O18 2.147079 1_565
Mg20 O12 2.151973 1_555
Mg20 O14 2.151973 1_555
Mg21 O7 2.130338 1_555
Mg21 O6 2.136709 1_556
Mg21 O23 2.144470 1_555
Mg21 O19 2.147079 1_565
Mg21 O13 2.151973 1_555
Mg21 O15 2.151973 1_555
Mg22 O2 2.130633 1_555
Mg22 O28 2.130633 1_555
Mg22 O8 2.131030 1_555
Mg22 O9 2.131030 1_554
Mg22 O24 2.162603 1_555
Mg22 O0 2.162603 1_555
Mg23 O9 2.136229 1_555
Mg23 O8 2.136229 1_555
Mg23 O3 2.141372 1_555
Mg23 O29 2.141372 1_555
Mg23 O25 2.151765 1_555
Mg23 O1 2.151765 1_555
Mg24 O30 2.130633 1_555
Mg24 O2 2.130633 1_555
Mg24 O10 2.131030 1_555
Mg24 O11 2.131030 1_554
Mg24 O0 2.162603 1_655
Mg24 O26 2.162603 1_555
Mg25 O11 2.136229 1_555
Mg25 O10 2.136229 1_555
Mg25 O3 2.141372 1_555
Mg25 O31 2.141372 1_555
Mg25 O1 2.151765 1_655
Mg25 O27 2.151765 1_555
Mg26 O28 2.130633 1_555
Mg26 O6 2.130633 1_555
Mg26 O12 2.131030 1_555
Mg26 O13 2.131030 1_554
Mg26 O24 2.162603 1_565
Mg26 O4 2.162603 1_555
Mg27 O13 2.136229 1_555
Mg27 O12 2.136229 1_555
Mg27 O29 2.141372 1_555
Mg27 O7 2.141372 1_555
Mg27 O25 2.151765 1_565
Mg27 O5 2.151765 1_555
Mg28 O30 2.130633 1_555
Mg28 O6 2.130633 1_555
Mg28 O14 2.131030 1_555
Mg28 O15 2.131030 1_554
Mg28 O26 2.162603 1_565
Mg28 O4 2.162603 1_655
Mg29 O15 2.136229 1_555
Mg29 O14 2.136229 1_555
Mg29 O7 2.141372 1_555
Mg29 O31 2.141372 1_555
Mg29 O27 2.151765 1_565
Mg29 O5 2.151765 1_655
Nb0 O16 2.234642 1_555
Nb0 O17 2.234642 1_554
Nb0 O24 2.246400 1_555
Nb0 O0 2.246400 1_555
Nb0 O4 2.246400 1_545
Nb0 O26 2.246400 1_455
Cr0 O17 2.032352 1_555
Cr0 O16 2.032352 1_555
Cr0 O25 2.232667 1_555
Cr0 O1 2.232667 1_555
Cr0 O27 2.232667 1_455
Cr0 O5 2.232667 1_545
