# generated using pymatgen
data_Ba2Ca3Tl2V4O12
_symmetry_space_group_name_H-M   'P 1'
_cell_length_a   22.85322930
_cell_length_b   22.85322930
_cell_length_c   22.85322930
_cell_angle_alpha   170.11326244
_cell_angle_beta   170.11326244
_cell_angle_gamma   13.99941567
_symmetry_Int_Tables_number   1
_chemical_formula_structural   Ba2Ca3Tl2V4O12
_chemical_formula_sum   'Ba2 Ca3 Tl2 V4 O12'
_cell_volume   351.86541203
_cell_formula_units_Z   1
loop_
 _symmetry_equiv_pos_site_id
 _symmetry_equiv_pos_as_xyz
  1  'x, y, z'
loop_
 _atom_site_type_symbol
 _atom_site_label
 _atom_site_symmetry_multiplicity
 _atom_site_fract_x
 _atom_site_fract_y
 _atom_site_fract_z
 _atom_site_occupancy
  Ba  Ba0  1  0.16431000  0.16431000  0.00000000  1
  Ba  Ba1  1  0.83569000  0.83569000  0.00000000  1
  Ca  Ca0  1  0.07704800  0.07704800  0.00000000  1
  Ca  Ca1  1  0.92295200  0.92295200  0.00000000  1
  Ca  Ca2  1  0.00000000  0.00000000  0.00000000  1
  Tl  Tl0  1  0.72549300  0.72549300  0.00000000  1
  Tl  Tl1  1  0.27450700  0.27450700  0.00000000  1
  V  V0  1  0.53722900  0.53722900  0.00000000  1
  V  V1  1  0.38629100  0.38629100  0.00000000  1
  V  V2  1  0.61370900  0.61370900  0.00000000  1
  V  V3  1  0.46277100  0.46277100  0.00000000  1
  O  O0  1  0.89412000  0.39412000  0.50000000  1
  O  O1  1  0.03506800  0.53506800  0.50000000  1
  O  O2  1  0.22141500  0.22141500  0.00000000  1
  O  O3  1  0.46493200  0.96493200  0.50000000  1
  O  O4  1  0.77858500  0.77858500  0.00000000  1
  O  O5  1  0.60588000  0.10588000  0.50000000  1
  O  O6  1  0.10588000  0.60588000  0.50000000  1
  O  O7  1  0.34400800  0.34400800  0.00000000  1
  O  O8  1  0.39412000  0.89412000  0.50000000  1
  O  O9  1  0.53506800  0.03506800  0.50000000  1
  O  O10  1  0.96493200  0.46493200  0.50000000  1
  O  O11  1  0.65599200  0.65599200  0.00000000  1
loop_
_geom_bond_atom_site_label_1
_geom_bond_atom_site_label_2
_geom_bond_distance
_geom_bond_site_symmetry_2
Ba0 O2 2.590614 1_555
Ba0 O11 2.810441 1_556
Ba0 O11 2.810441 1_444
Ba0 O11 2.810441 1_455
Ba0 O11 2.810441 1_545
Ba1 O4 2.590614 1_555
Ba1 O7 2.810441 1_554
Ba1 O7 2.810441 1_666
Ba1 O7 2.810441 1_655
Ba1 O7 2.810441 1_565
Ca0 O5 2.364090 1_454
Ca0 O5 2.364090 1_555
Ca0 O6 2.364090 1_555
Ca0 O6 2.364090 1_544
Ca0 O9 2.739534 1_454
Ca0 O1 2.739534 1_544
Ca0 O1 2.739534 1_555
Ca0 O9 2.739534 1_555
Ca1 O8 2.364090 1_655
Ca1 O8 2.364090 1_554
Ca1 O0 2.364090 1_554
Ca1 O0 2.364090 1_565
Ca1 O10 2.739534 1_565
Ca1 O3 2.739534 1_655
Ca1 O10 2.739534 1_554
Ca1 O3 2.739534 1_554
Ca2 O9 2.531603 1_454
Ca2 O1 2.531603 1_544
Ca2 O1 2.531603 1_555
Ca2 O9 2.531603 1_555
Ca2 O3 2.531603 1_545
Ca2 O10 2.531603 1_455
Ca2 O3 2.531603 1_444
Ca2 O10 2.531603 1_444
O0 V1 2.001059 1_555
O0 V1 2.001059 1_656
O1 V0 1.971726 1_455
O1 V0 1.971726 1_556
O2 Tl1 2.408561 1_555
O2 Tl0 2.791130 1_556
O2 Tl0 2.791130 1_545
O2 Tl0 2.791130 1_455
O2 Tl0 2.791130 1_444
O3 V3 1.971726 1_566
O3 V3 1.971726 1_555
O4 Tl0 2.408561 1_555
O4 Tl1 2.791130 1_666
O4 Tl1 2.791130 1_565
O4 Tl1 2.791130 1_554
O4 Tl1 2.791130 1_655
O5 V2 2.001059 1_545
O5 V2 2.001059 1_556
O6 V2 2.001059 1_455
O6 V2 2.001059 1_556
O7 V1 1.918202 1_555
O7 Tl1 3.152968 1_555
O8 V1 2.001059 1_566
O8 V1 2.001059 1_555
O9 V0 1.971726 1_545
O9 V0 1.971726 1_556
O10 V3 1.971726 1_656
O10 V3 1.971726 1_555
O11 V2 1.918202 1_555
O11 Tl0 3.152968 1_555
