# generated using pymatgen
data_Ce5(MgGe)8
_symmetry_space_group_name_H-M   'P 1'
_cell_length_a   8.50459667
_cell_length_b   8.50459667
_cell_length_c   13.19953244
_cell_angle_alpha   87.36090744
_cell_angle_beta   87.36090744
_cell_angle_gamma   31.30670256
_symmetry_Int_Tables_number   1
_chemical_formula_structural   Ce5(MgGe)8
_chemical_formula_sum   'Ce5 Mg8 Ge8'
_cell_volume   495.51177351
_cell_formula_units_Z   1
loop_
 _symmetry_equiv_pos_site_id
 _symmetry_equiv_pos_as_xyz
  1  'x, y, z'
loop_
 _atom_site_type_symbol
 _atom_site_label
 _atom_site_symmetry_multiplicity
 _atom_site_fract_x
 _atom_site_fract_y
 _atom_site_fract_z
 _atom_site_occupancy
  Ce  Ce0  1  0.10429100  0.10429100  0.25355800  1
  Ce  Ce1  1  0.89570900  0.89570900  0.74644200  1
  Ce  Ce2  1  0.09539200  0.09539200  0.56340000  1
  Ce  Ce3  1  0.90460800  0.90460800  0.43660000  1
  Ce  Ce4  1  0.50000000  0.50000000  0.00000000  1
  Mg  Mg0  1  0.17909800  0.17909800  0.99722800  1
  Mg  Mg1  1  0.82090200  0.82090200  0.00277200  1
  Mg  Mg2  1  0.21525300  0.21525300  0.76982900  1
  Mg  Mg3  1  0.78474700  0.78474700  0.23017100  1
  Mg  Mg4  1  0.29993600  0.29993600  0.56815400  1
  Mg  Mg5  1  0.70006400  0.70006400  0.43184600  1
  Mg  Mg6  1  0.57202300  0.57202300  0.74867400  1
  Mg  Mg7  1  0.42797700  0.42797700  0.25132600  1
  Ge  Ge0  1  0.05760900  0.05760900  0.85262500  1
  Ge  Ge1  1  0.94239100  0.94239100  0.14737500  1
  Ge  Ge2  1  0.27669600  0.27669600  0.36288800  1
  Ge  Ge3  1  0.72330400  0.72330400  0.63711200  1
  Ge  Ge4  1  0.34166600  0.34166600  0.88827100  1
  Ge  Ge5  1  0.65833400  0.65833400  0.11172900  1
  Ge  Ge6  1  0.46407000  0.46407000  0.58931200  1
  Ge  Ge7  1  0.53593000  0.53593000  0.41068800  1
loop_
_geom_bond_atom_site_label_1
_geom_bond_atom_site_label_2
_geom_bond_distance
_geom_bond_site_symmetry_2
Ce0 Ge1 3.057955 1_445
Ce0 Ge5 3.065163 1_545
Ce0 Ge5 3.065163 1_455
Ce0 Ge2 3.231965 1_555
Ce0 Ge7 3.255568 1_455
Ce0 Ge7 3.255568 1_545
Ce0 Mg0 3.542928 1_554
Ce1 Ge0 3.057955 1_665
Ce1 Ge4 3.065163 1_655
Ce1 Ge4 3.065163 1_565
Ce1 Ge3 3.231965 1_555
Ce1 Ge6 3.255568 1_565
Ce1 Ge6 3.255568 1_655
Ce1 Mg1 3.542928 1_556
Ce2 Ge6 3.152506 1_545
Ce2 Ge6 3.152506 1_455
Ce2 Ge7 3.234953 1_545
Ce2 Ge7 3.234953 1_455
Ce2 Ge3 3.285747 1_545
Ce2 Ge3 3.285747 1_455
Ce2 Mg5 3.306832 1_455
Ce2 Mg5 3.306832 1_545
Ce2 Mg4 3.353680 1_555
Ce2 Mg6 3.362017 1_455
Ce2 Mg6 3.362017 1_545
Ce2 Mg2 3.433624 1_555
Ce2 Ce3 3.614604 1_445
Ce3 Ge7 3.152506 1_565
Ce3 Ge7 3.152506 1_655
Ce3 Ge6 3.234953 1_565
Ce3 Ge6 3.234953 1_655
Ce3 Ge2 3.285747 1_655
Ce3 Ge2 3.285747 1_565
Ce3 Mg4 3.306832 1_655
Ce3 Mg4 3.306832 1_565
Ce3 Mg5 3.353680 1_555
Ce3 Mg7 3.362017 1_655
Ce3 Mg7 3.362017 1_565
Ce3 Mg3 3.433624 1_555
Ce4 Ge5 3.043953 1_555
Ce4 Ge4 3.043953 1_554
Ce4 Ge0 3.124806 1_564
Ce4 Ge1 3.124806 1_455
Ce4 Ge0 3.124806 1_654
Ce4 Ge1 3.124806 1_545
Ce4 Mg6 3.467319 1_554
Ce4 Mg7 3.467319 1_555
Mg0 Mg2 3.031507 1_555
Mg0 Mg1 3.268218 1_546
Mg0 Mg1 3.268218 1_456
Mg1 Mg3 3.031507 1_555
Mg2 Mg4 2.942262 1_555
Mg2 Mg6 3.302922 1_455
Mg2 Mg6 3.302922 1_545
Mg3 Mg5 2.942262 1_555
Mg3 Mg7 3.302922 1_565
Mg3 Mg7 3.302922 1_655
Ge0 Mg6 2.678243 1_455
Ge0 Mg6 2.678243 1_545
Ge0 Mg2 2.755170 1_555
Ge0 Mg0 2.822337 1_555
Ge1 Mg7 2.678243 1_655
Ge1 Mg7 2.678243 1_565
Ge1 Mg3 2.755170 1_555
Ge1 Mg1 2.822337 1_555
Ge2 Mg5 2.749561 1_455
Ge2 Mg5 2.749561 1_545
Ge2 Mg4 2.753986 1_555
Ge2 Mg7 2.821112 1_555
Ge2 Mg3 2.886116 1_455
Ge2 Mg3 2.886116 1_545
Ge3 Mg4 2.749561 1_655
Ge3 Mg4 2.749561 1_565
Ge3 Mg5 2.753986 1_555
Ge3 Mg6 2.821112 1_555
Ge3 Mg2 2.886116 1_565
Ge3 Mg2 2.886116 1_655
Ge4 Mg2 2.653380 1_555
Ge4 Mg1 2.759759 1_546
Ge4 Mg1 2.759759 1_456
Ge4 Mg0 2.965057 1_555
Ge5 Mg3 2.653380 1_555
Ge5 Mg0 2.759759 1_654
Ge5 Mg0 2.759759 1_564
Ge5 Mg1 2.965057 1_555
Ge6 Ge7 2.584342 1_555
Ge6 Mg4 2.715963 1_555
Ge6 Mg6 2.811862 1_555
Ge7 Mg5 2.715963 1_555
Ge7 Mg7 2.811862 1_555
