# generated using pymatgen
data_Cr3B4Mo3
_symmetry_space_group_name_H-M   'P 1'
_cell_length_a   11.78379608
_cell_length_b   11.78379608
_cell_length_c   6.01180800
_cell_angle_alpha   90.00000000
_cell_angle_beta   90.00000000
_cell_angle_gamma   90.11389842
_symmetry_Int_Tables_number   1
_chemical_formula_structural   Cr3B4Mo3
_chemical_formula_sum   'Cr24 B32 Mo24'
_cell_volume   834.78508432
_cell_formula_units_Z   8
loop_
 _symmetry_equiv_pos_site_id
 _symmetry_equiv_pos_as_xyz
  1  'x, y, z'
loop_
 _atom_site_type_symbol
 _atom_site_label
 _atom_site_symmetry_multiplicity
 _atom_site_fract_x
 _atom_site_fract_y
 _atom_site_fract_z
 _atom_site_occupancy
  Cr  Cr0_0  1  0.16309900  0.16309900  0.25000000  1
  Cr  Cr0_1  1  0.16309900  0.16309900  0.75000000  1
  Cr  Cr0_2  1  0.16309900  0.66309900  0.25000000  1
  Cr  Cr0_3  1  0.16309900  0.66309900  0.75000000  1
  Cr  Cr0_4  1  0.66309900  0.16309900  0.25000000  1
  Cr  Cr0_5  1  0.66309900  0.16309900  0.75000000  1
  Cr  Cr0_6  1  0.66309900  0.66309900  0.25000000  1
  Cr  Cr0_7  1  0.66309900  0.66309900  0.75000000  1
  Cr  Cr1_0  1  0.08432550  0.41639400  0.25000000  1
  Cr  Cr1_1  1  0.08432550  0.41639400  0.75000000  1
  Cr  Cr1_2  1  0.08432550  0.91639400  0.25000000  1
  Cr  Cr1_3  1  0.08432550  0.91639400  0.75000000  1
  Cr  Cr1_4  1  0.58432550  0.41639400  0.25000000  1
  Cr  Cr1_5  1  0.58432550  0.41639400  0.75000000  1
  Cr  Cr1_6  1  0.58432550  0.91639400  0.25000000  1
  Cr  Cr1_7  1  0.58432550  0.91639400  0.75000000  1
  Cr  Cr2_0  1  0.41639400  0.08432550  0.25000000  1
  Cr  Cr2_1  1  0.41639400  0.08432550  0.75000000  1
  Cr  Cr2_2  1  0.41639400  0.58432550  0.25000000  1
  Cr  Cr2_3  1  0.41639400  0.58432550  0.75000000  1
  Cr  Cr2_4  1  0.91639400  0.08432550  0.25000000  1
  Cr  Cr2_5  1  0.91639400  0.08432550  0.75000000  1
  Cr  Cr2_6  1  0.91639400  0.58432550  0.25000000  1
  Cr  Cr2_7  1  0.91639400  0.58432550  0.75000000  1
  B  B0_0  1  0.05600300  0.05600300  0.00000000  1
  B  B0_1  1  0.05600300  0.05600300  0.50000000  1
  B  B0_2  1  0.05600300  0.55600300  0.00000000  1
  B  B0_3  1  0.05600300  0.55600300  0.50000000  1
  B  B0_4  1  0.55600300  0.05600300  0.00000000  1
  B  B0_5  1  0.55600300  0.05600300  0.50000000  1
  B  B0_6  1  0.55600300  0.55600300  0.00000000  1
  B  B0_7  1  0.55600300  0.55600300  0.50000000  1
  B  B1_0  1  0.44691450  0.44691450  0.00000000  1
  B  B1_1  1  0.44691450  0.44691450  0.50000000  1
  B  B1_2  1  0.44691450  0.94691450  0.00000000  1
  B  B1_3  1  0.44691450  0.94691450  0.50000000  1
  B  B1_4  1  0.94691450  0.44691450  0.00000000  1
  B  B1_5  1  0.94691450  0.44691450  0.50000000  1
  B  B1_6  1  0.94691450  0.94691450  0.00000000  1
  B  B1_7  1  0.94691450  0.94691450  0.50000000  1
  B  B2_0  1  0.30527750  0.19017100  0.00000000  1
  B  B2_1  1  0.30527750  0.19017100  0.50000000  1
  B  B2_2  1  0.30527750  0.69017100  0.00000000  1
  B  B2_3  1  0.30527750  0.69017100  0.50000000  1
  B  B2_4  1  0.80527750  0.19017100  0.00000000  1
  B  B2_5  1  0.80527750  0.19017100  0.50000000  1
  B  B2_6  1  0.80527750  0.69017100  0.00000000  1
  B  B2_7  1  0.80527750  0.69017100  0.50000000  1
  B  B3_0  1  0.19017100  0.30527750  0.00000000  1
  B  B3_1  1  0.19017100  0.30527750  0.50000000  1
  B  B3_2  1  0.19017100  0.80527750  0.00000000  1
  B  B3_3  1  0.19017100  0.80527750  0.50000000  1
  B  B3_4  1  0.69017100  0.30527750  0.00000000  1
  B  B3_5  1  0.69017100  0.30527750  0.50000000  1
  B  B3_6  1  0.69017100  0.80527750  0.00000000  1
  B  B3_7  1  0.69017100  0.80527750  0.50000000  1
  Mo  Mo0_0  1  0.24789900  0.00293050  0.00000000  1
  Mo  Mo0_1  1  0.24789900  0.00293050  0.50000000  1
  Mo  Mo0_2  1  0.24789900  0.50293050  0.00000000  1
  Mo  Mo0_3  1  0.24789900  0.50293050  0.50000000  1
  Mo  Mo0_4  1  0.74789900  0.00293050  0.00000000  1
  Mo  Mo0_5  1  0.74789900  0.00293050  0.50000000  1
  Mo  Mo0_6  1  0.74789900  0.50293050  0.00000000  1
  Mo  Mo0_7  1  0.74789900  0.50293050  0.50000000  1
  Mo  Mo1_0  1  0.00293050  0.24789900  0.00000000  1
  Mo  Mo1_1  1  0.00293050  0.24789900  0.50000000  1
  Mo  Mo1_2  1  0.00293050  0.74789900  0.00000000  1
  Mo  Mo1_3  1  0.00293050  0.74789900  0.50000000  1
  Mo  Mo1_4  1  0.50293050  0.24789900  0.00000000  1
  Mo  Mo1_5  1  0.50293050  0.24789900  0.50000000  1
  Mo  Mo1_6  1  0.50293050  0.74789900  0.00000000  1
  Mo  Mo1_7  1  0.50293050  0.74789900  0.50000000  1
  Mo  Mo2_0  1  0.33698700  0.33698700  0.25000000  1
  Mo  Mo2_1  1  0.33698700  0.33698700  0.75000000  1
  Mo  Mo2_2  1  0.33698700  0.83698700  0.25000000  1
  Mo  Mo2_3  1  0.33698700  0.83698700  0.75000000  1
  Mo  Mo2_4  1  0.83698700  0.33698700  0.25000000  1
  Mo  Mo2_5  1  0.83698700  0.33698700  0.75000000  1
  Mo  Mo2_6  1  0.83698700  0.83698700  0.25000000  1
  Mo  Mo2_7  1  0.83698700  0.83698700  0.75000000  1
loop_
_geom_bond_atom_site_label_1
_geom_bond_atom_site_label_2
_geom_bond_distance
_geom_bond_site_symmetry_2
Cr0_0 Mo1_1 2.612881 1_555
Cr0_0 Mo0_0 2.612881 1_555
Cr0_0 Mo1_0 2.612881 1_555
Cr0_0 Mo0_1 2.612881 1_555
Cr0_1 Mo0_1 2.612881 1_555
Cr0_1 Mo1_1 2.612881 1_555
Cr0_1 Mo0_0 2.612881 1_556
Cr0_1 Mo1_0 2.612881 1_556
Cr0_2 Mo1_2 2.612881 1_555
Cr0_2 Mo1_3 2.612881 1_555
Cr0_2 Mo0_2 2.612881 1_555
Cr0_2 Mo0_3 2.612881 1_555
Cr0_3 Mo1_3 2.612881 1_555
Cr0_3 Mo0_3 2.612881 1_555
Cr0_3 Mo1_2 2.612881 1_556
Cr0_3 Mo0_2 2.612881 1_556
Cr0_4 Mo0_4 2.612881 1_555
Cr0_4 Mo0_5 2.612881 1_555
Cr0_4 Mo1_5 2.612881 1_555
Cr0_4 Mo1_4 2.612881 1_555
Cr0_5 Mo0_5 2.612881 1_555
Cr0_5 Mo1_5 2.612881 1_555
Cr0_5 Mo0_4 2.612881 1_556
Cr0_5 Mo1_4 2.612881 1_556
Cr0_6 Mo0_6 2.612881 1_555
Cr0_6 Mo1_7 2.612881 1_555
Cr0_6 Mo1_6 2.612881 1_555
Cr0_6 Mo0_7 2.612881 1_555
Cr0_7 Mo1_7 2.612881 1_555
Cr0_7 Mo0_7 2.612881 1_555
Cr0_7 Mo1_6 2.612881 1_556
Cr0_7 Mo0_6 2.612881 1_556
Cr1_0 Mo0_2 2.646926 1_555
Cr1_0 Mo0_3 2.646926 1_555
Cr1_0 Mo1_0 2.667114 1_555
Cr1_0 Mo1_1 2.667114 1_555
Cr1_1 Mo0_3 2.646926 1_555
Cr1_1 Mo0_2 2.646926 1_556
Cr1_1 Mo1_1 2.667114 1_555
Cr1_1 Mo1_0 2.667114 1_556
Cr1_2 Mo0_1 2.646926 1_565
Cr1_2 Mo0_0 2.646926 1_565
Cr1_2 Mo1_2 2.667114 1_555
Cr1_2 Mo1_3 2.667114 1_555
Cr1_3 Mo0_1 2.646926 1_565
Cr1_3 Mo0_0 2.646926 1_566
Cr1_3 Mo1_3 2.667114 1_555
Cr1_3 Mo1_2 2.667114 1_556
Cr1_4 Mo0_7 2.646926 1_555
Cr1_4 Mo0_6 2.646926 1_555
Cr1_4 Mo1_4 2.667114 1_555
Cr1_4 Mo1_5 2.667114 1_555
Cr1_5 Mo0_7 2.646926 1_555
Cr1_5 Mo0_6 2.646926 1_556
Cr1_5 Mo1_5 2.667114 1_555
Cr1_5 Mo1_4 2.667114 1_556
Cr1_6 Mo0_5 2.646926 1_565
Cr1_6 Mo0_4 2.646926 1_565
Cr1_6 Mo1_6 2.667114 1_555
Cr1_6 Mo1_7 2.667114 1_555
Cr1_7 Mo0_5 2.646926 1_565
Cr1_7 Mo0_4 2.646926 1_566
Cr1_7 Mo1_7 2.667114 1_555
Cr1_7 Mo1_6 2.667114 1_556
Cr2_0 Mo1_4 2.646926 1_555
Cr2_0 Mo1_5 2.646926 1_555
Cr2_0 Mo0_0 2.667114 1_555
Cr2_0 Mo0_1 2.667114 1_555
Cr2_1 Mo1_5 2.646926 1_555
Cr2_1 Mo1_4 2.646926 1_556
Cr2_1 Mo0_1 2.667114 1_555
Cr2_1 Mo0_0 2.667114 1_556
Cr2_2 Mo1_7 2.646926 1_555
Cr2_2 Mo1_6 2.646926 1_555
Cr2_2 Mo0_3 2.667114 1_555
Cr2_2 Mo0_2 2.667114 1_555
Cr2_3 Mo1_7 2.646926 1_555
Cr2_3 Mo1_6 2.646926 1_556
Cr2_3 Mo0_3 2.667114 1_555
Cr2_3 Mo0_2 2.667114 1_556
Cr2_4 Mo1_0 2.646926 1_655
Cr2_4 Mo1_1 2.646926 1_655
Cr2_4 Mo0_4 2.667114 1_555
Cr2_4 Mo0_5 2.667114 1_555
Cr2_5 Mo1_1 2.646926 1_655
Cr2_5 Mo1_0 2.646926 1_656
Cr2_5 Mo0_5 2.667114 1_555
Cr2_5 Mo0_4 2.667114 1_556
Cr2_6 Mo1_3 2.646926 1_655
Cr2_6 Mo1_2 2.646926 1_655
Cr2_6 Mo0_7 2.667114 1_555
Cr2_6 Mo0_6 2.667114 1_555
Cr2_7 Mo1_3 2.646926 1_655
Cr2_7 Mo1_2 2.646926 1_656
Cr2_7 Mo0_7 2.667114 1_555
Cr2_7 Mo0_6 2.667114 1_556
B0_0 B1_6 1.816131 1_445
B0_0 Cr1_2 2.253634 1_545
B0_0 Cr2_4 2.253634 1_455
B0_0 Cr1_3 2.253634 1_544
B0_0 Cr2_5 2.253634 1_454
B0_0 Cr0_0 2.331911 1_555
B0_0 Cr0_1 2.331911 1_554
B0_0 Mo0_0 2.347350 1_555
B0_0 Mo1_0 2.347350 1_555
B0_1 B1_7 1.816131 1_445
B0_1 Cr2_5 2.253634 1_455
B0_1 Cr1_2 2.253634 1_545
B0_1 Cr2_4 2.253634 1_455
B0_1 Cr1_3 2.253634 1_545
B0_1 Cr0_1 2.331911 1_555
B0_1 Cr0_0 2.331911 1_555
B0_1 Mo0_1 2.347350 1_555
B0_1 Mo1_1 2.347350 1_555
B0_2 B1_4 1.816131 1_455
B0_2 Cr2_6 2.253634 1_455
B0_2 Cr2_7 2.253634 1_454
B0_2 Cr1_0 2.253634 1_555
B0_2 Cr1_1 2.253634 1_554
B0_2 Cr0_2 2.331911 1_555
B0_2 Cr0_3 2.331911 1_554
B0_2 Mo1_2 2.347350 1_555
B0_2 Mo0_2 2.347350 1_555
B0_3 B1_5 1.816131 1_455
B0_3 Cr2_7 2.253634 1_455
B0_3 Cr2_6 2.253634 1_455
B0_3 Cr1_1 2.253634 1_555
B0_3 Cr1_0 2.253634 1_555
B0_3 Cr0_3 2.331911 1_555
B0_3 Cr0_2 2.331911 1_555
B0_3 Mo0_3 2.347350 1_555
B0_3 Mo1_3 2.347350 1_555
B0_4 B1_2 1.816131 1_545
B0_4 Cr1_6 2.253634 1_545
B0_4 Cr1_7 2.253634 1_544
B0_4 Cr2_0 2.253634 1_555
B0_4 Cr2_1 2.253634 1_554
B0_4 Cr0_4 2.331911 1_555
B0_4 Cr0_5 2.331911 1_554
B0_4 Mo1_4 2.347350 1_555
B0_4 Mo0_4 2.347350 1_555
B0_5 B1_3 1.816131 1_545
B0_5 Cr1_7 2.253634 1_545
B0_5 Cr2_1 2.253634 1_555
B0_5 Cr1_6 2.253634 1_545
B0_5 Cr2_0 2.253634 1_555
B0_5 Cr0_5 2.331911 1_555
B0_5 Cr0_4 2.331911 1_555
B0_5 Mo1_5 2.347350 1_555
B0_5 Mo0_5 2.347350 1_555
B0_6 B1_0 1.816131 1_555
B0_6 Cr2_2 2.253634 1_555
B0_6 Cr1_4 2.253634 1_555
B0_6 Cr1_5 2.253634 1_554
B0_6 Cr2_3 2.253634 1_554
B0_6 Cr0_6 2.331911 1_555
B0_6 Cr0_7 2.331911 1_554
B0_6 Mo0_6 2.347350 1_555
B0_6 Mo1_6 2.347350 1_555
B0_7 B1_1 1.816131 1_555
B0_7 Cr2_3 2.253634 1_555
B0_7 Cr1_5 2.253634 1_555
B0_7 Cr2_2 2.253634 1_555
B0_7 Cr1_4 2.253634 1_555
B0_7 Cr0_7 2.331911 1_555
B0_7 Cr0_6 2.331911 1_555
B0_7 Mo1_7 2.347350 1_555
B0_7 Mo0_7 2.347350 1_555
B1_0 Cr1_4 2.238841 1_555
B1_0 Cr2_2 2.238841 1_555
B1_0 Cr1_5 2.238841 1_554
B1_0 Cr2_3 2.238841 1_554
B1_0 Mo2_0 2.368148 1_555
B1_0 Mo2_1 2.368148 1_554
B1_0 Mo1_4 2.437545 1_555
B1_0 Mo0_2 2.437545 1_555
B1_1 Cr2_3 2.238841 1_555
B1_1 Cr1_5 2.238841 1_555
B1_1 Cr1_4 2.238841 1_555
B1_1 Cr2_2 2.238841 1_555
B1_1 Mo2_1 2.368148 1_555
B1_1 Mo2_0 2.368148 1_555
B1_1 Mo1_5 2.437545 1_555
B1_1 Mo0_3 2.437545 1_555
B1_2 Cr1_6 2.238841 1_555
B1_2 Cr1_7 2.238841 1_554
B1_2 Cr2_0 2.238841 1_565
B1_2 Cr2_1 2.238841 1_564
B1_2 Mo2_2 2.368148 1_555
B1_2 Mo2_3 2.368148 1_554
B1_2 Mo0_0 2.437545 1_565
B1_2 Mo1_6 2.437545 1_555
B1_3 Cr1_7 2.238841 1_555
B1_3 Cr1_6 2.238841 1_555
B1_3 Cr2_1 2.238841 1_565
B1_3 Cr2_0 2.238841 1_565
B1_3 Mo2_3 2.368148 1_555
B1_3 Mo2_2 2.368148 1_555
B1_3 Mo0_1 2.437545 1_565
B1_3 Mo1_7 2.437545 1_555
B1_4 Cr2_6 2.238841 1_555
B1_4 Cr2_7 2.238841 1_554
B1_4 Cr1_0 2.238841 1_655
B1_4 Cr1_1 2.238841 1_654
B1_4 Mo2_4 2.368148 1_555
B1_4 Mo2_5 2.368148 1_554
B1_4 Mo1_0 2.437545 1_655
B1_4 Mo0_6 2.437545 1_555
B1_5 Cr2_7 2.238841 1_555
B1_5 Cr2_6 2.238841 1_555
B1_5 Cr1_1 2.238841 1_655
B1_5 Cr1_0 2.238841 1_655
B1_5 Mo2_5 2.368148 1_555
B1_5 Mo2_4 2.368148 1_555
B1_5 Mo1_1 2.437545 1_655
B1_5 Mo0_7 2.437545 1_555
B1_6 Cr1_2 2.238841 1_655
B1_6 Cr2_4 2.238841 1_565
B1_6 Cr2_5 2.238841 1_564
B1_6 Cr1_3 2.238841 1_654
B1_6 Mo2_7 2.368148 1_554
B1_6 Mo2_6 2.368148 1_555
B1_6 Mo1_2 2.437545 1_655
B1_6 Mo0_4 2.437545 1_565
B1_7 Cr1_3 2.238841 1_655
B1_7 Cr2_5 2.238841 1_565
B1_7 Cr1_2 2.238841 1_655
B1_7 Cr2_4 2.238841 1_565
B1_7 Mo2_7 2.368148 1_555
B1_7 Mo2_6 2.368148 1_555
B1_7 Mo0_5 2.437545 1_565
B1_7 Mo1_3 2.437545 1_655
B2_0 B3_0 1.920133 1_555
B2_0 Cr0_0 2.272769 1_555
B2_0 Cr0_1 2.272769 1_554
B2_0 Mo0_0 2.306393 1_555
B2_0 Mo2_0 2.321419 1_555
B2_0 Mo2_1 2.321419 1_554
B2_0 Cr2_0 2.352760 1_555
B2_0 Cr2_1 2.352760 1_554
B2_0 Mo1_4 2.425112 1_555
B2_1 B3_1 1.920133 1_555
B2_1 Cr0_1 2.272769 1_555
B2_1 Cr0_0 2.272769 1_555
B2_1 Mo0_1 2.306393 1_555
B2_1 Mo2_1 2.321419 1_555
B2_1 Mo2_0 2.321419 1_555
B2_1 Cr2_1 2.352760 1_555
B2_1 Cr2_0 2.352760 1_555
B2_1 Mo1_5 2.425112 1_555
B2_2 B3_2 1.920133 1_555
B2_2 Cr0_3 2.272769 1_554
B2_2 Cr0_2 2.272769 1_555
B2_2 Mo0_2 2.306393 1_555
B2_2 Mo2_2 2.321419 1_555
B2_2 Mo2_3 2.321419 1_554
B2_2 Cr2_2 2.352760 1_555
B2_2 Cr2_3 2.352760 1_554
B2_2 Mo1_6 2.425112 1_555
B2_3 B3_3 1.920133 1_555
B2_3 Cr0_3 2.272769 1_555
B2_3 Cr0_2 2.272769 1_555
B2_3 Mo0_3 2.306393 1_555
B2_3 Mo2_2 2.321419 1_555
B2_3 Mo2_3 2.321419 1_555
B2_3 Cr2_3 2.352760 1_555
B2_3 Cr2_2 2.352760 1_555
B2_3 Mo1_7 2.425112 1_555
B2_4 B3_4 1.920133 1_555
B2_4 Cr0_4 2.272769 1_555
B2_4 Cr0_5 2.272769 1_554
B2_4 Mo0_4 2.306393 1_555
B2_4 Mo2_4 2.321419 1_555
B2_4 Mo2_5 2.321419 1_554
B2_4 Cr2_4 2.352760 1_555
B2_4 Cr2_5 2.352760 1_554
B2_4 Mo1_0 2.425112 1_655
B2_5 B3_5 1.920133 1_555
B2_5 Cr0_5 2.272769 1_555
B2_5 Cr0_4 2.272769 1_555
B2_5 Mo0_5 2.306393 1_555
B2_5 Mo2_4 2.321419 1_555
B2_5 Mo2_5 2.321419 1_555
B2_5 Cr2_4 2.352760 1_555
B2_5 Cr2_5 2.352760 1_555
B2_5 Mo1_1 2.425112 1_655
B2_6 B3_6 1.920133 1_555
B2_6 Cr0_6 2.272769 1_555
B2_6 Cr0_7 2.272769 1_554
B2_6 Mo0_6 2.306393 1_555
B2_6 Mo2_6 2.321419 1_555
B2_6 Mo2_7 2.321419 1_554
B2_6 Cr2_6 2.352760 1_555
B2_6 Cr2_7 2.352760 1_554
B2_6 Mo1_2 2.425112 1_655
B2_7 B3_7 1.920133 1_555
B2_7 Cr0_7 2.272769 1_555
B2_7 Cr0_6 2.272769 1_555
B2_7 Mo0_7 2.306393 1_555
B2_7 Mo2_7 2.321419 1_555
B2_7 Mo2_6 2.321419 1_555
B2_7 Cr2_6 2.352760 1_555
B2_7 Cr2_7 2.352760 1_555
B2_7 Mo1_3 2.425112 1_655
B3_0 Cr0_0 2.272769 1_555
B3_0 Cr0_1 2.272769 1_554
B3_0 Mo1_0 2.306393 1_555
B3_0 Mo2_0 2.321419 1_555
B3_0 Mo2_1 2.321419 1_554
B3_0 Cr1_0 2.352760 1_555
B3_0 Cr1_1 2.352760 1_554
B3_0 Mo0_2 2.425112 1_555
B3_1 Cr0_1 2.272769 1_555
B3_1 Cr0_0 2.272769 1_555
B3_1 Mo1_1 2.306393 1_555
B3_1 Mo2_1 2.321419 1_555
B3_1 Mo2_0 2.321419 1_555
B3_1 Cr1_1 2.352760 1_555
B3_1 Cr1_0 2.352760 1_555
B3_1 Mo0_3 2.425112 1_555
B3_2 Cr0_2 2.272769 1_555
B3_2 Cr0_3 2.272769 1_554
B3_2 Mo1_2 2.306393 1_555
B3_2 Mo2_2 2.321419 1_555
B3_2 Mo2_3 2.321419 1_554
B3_2 Cr1_2 2.352760 1_555
B3_2 Cr1_3 2.352760 1_554
B3_2 Mo0_0 2.425112 1_565
B3_3 Cr0_3 2.272769 1_555
B3_3 Cr0_2 2.272769 1_555
B3_3 Mo1_3 2.306393 1_555
B3_3 Mo2_3 2.321419 1_555
B3_3 Mo2_2 2.321419 1_555
B3_3 Cr1_3 2.352760 1_555
B3_3 Cr1_2 2.352760 1_555
B3_3 Mo0_1 2.425112 1_565
B3_4 Cr0_4 2.272769 1_555
B3_4 Cr0_5 2.272769 1_554
B3_4 Mo1_4 2.306393 1_555
B3_4 Mo2_4 2.321419 1_555
B3_4 Mo2_5 2.321419 1_554
B3_4 Cr1_4 2.352760 1_555
B3_4 Cr1_5 2.352760 1_554
B3_4 Mo0_6 2.425112 1_555
B3_5 Cr0_5 2.272769 1_555
B3_5 Cr0_4 2.272769 1_555
B3_5 Mo1_5 2.306393 1_555
B3_5 Mo2_5 2.321419 1_555
B3_5 Mo2_4 2.321419 1_555
B3_5 Cr1_5 2.352760 1_555
B3_5 Cr1_4 2.352760 1_555
B3_5 Mo0_7 2.425112 1_555
B3_6 Cr0_6 2.272769 1_555
B3_6 Cr0_7 2.272769 1_554
B3_6 Mo1_6 2.306393 1_555
B3_6 Mo2_6 2.321419 1_555
B3_6 Mo2_7 2.321419 1_554
B3_6 Cr1_6 2.352760 1_555
B3_6 Cr1_7 2.352760 1_554
B3_6 Mo0_4 2.425112 1_565
B3_7 Cr0_7 2.272769 1_555
B3_7 Cr0_6 2.272769 1_555
B3_7 Mo1_7 2.306393 1_555
B3_7 Mo2_7 2.321419 1_555
B3_7 Mo2_6 2.321419 1_555
B3_7 Cr1_7 2.352760 1_555
B3_7 Cr1_6 2.352760 1_555
B3_7 Mo0_5 2.425112 1_565
Mo0_0 Mo2_2 2.681950 1_545
Mo0_0 Mo2_3 2.681950 1_544
Mo0_0 Mo0_1 3.005904 1_555
Mo0_0 Mo0_1 3.005904 1_554
Mo0_1 Mo2_2 2.681950 1_545
Mo0_1 Mo2_3 2.681950 1_545
Mo0_2 Mo2_0 2.681950 1_555
Mo0_2 Mo2_1 2.681950 1_554
Mo0_2 Mo0_3 3.005904 1_555
Mo0_2 Mo0_3 3.005904 1_554
Mo0_3 Mo2_1 2.681950 1_555
Mo0_3 Mo2_0 2.681950 1_555
Mo0_4 Mo2_6 2.681950 1_545
Mo0_4 Mo2_7 2.681950 1_544
Mo0_4 Mo0_5 3.005904 1_554
Mo0_4 Mo0_5 3.005904 1_555
Mo0_5 Mo2_7 2.681950 1_545
Mo0_5 Mo2_6 2.681950 1_545
Mo0_6 Mo2_4 2.681950 1_555
Mo0_6 Mo2_5 2.681950 1_554
Mo0_6 Mo0_7 3.005904 1_555
Mo0_6 Mo0_7 3.005904 1_554
Mo0_7 Mo2_4 2.681950 1_555
Mo0_7 Mo2_5 2.681950 1_555
Mo1_0 Mo2_4 2.681950 1_455
Mo1_0 Mo2_5 2.681950 1_454
Mo1_0 Mo1_1 3.005904 1_554
Mo1_0 Mo1_1 3.005904 1_555
Mo1_1 Mo2_5 2.681950 1_455
Mo1_1 Mo2_4 2.681950 1_455
Mo1_2 Mo2_6 2.681950 1_455
Mo1_2 Mo2_7 2.681950 1_454
Mo1_2 Mo1_3 3.005904 1_555
Mo1_2 Mo1_3 3.005904 1_554
Mo1_3 Mo2_7 2.681950 1_455
Mo1_3 Mo2_6 2.681950 1_455
Mo1_4 Mo2_0 2.681950 1_555
Mo1_4 Mo2_1 2.681950 1_554
Mo1_4 Mo1_5 3.005904 1_555
Mo1_4 Mo1_5 3.005904 1_554
Mo1_5 Mo2_1 2.681950 1_555
Mo1_5 Mo2_0 2.681950 1_555
Mo1_6 Mo2_2 2.681950 1_555
Mo1_6 Mo2_3 2.681950 1_554
Mo1_6 Mo1_7 3.005904 1_554
Mo1_6 Mo1_7 3.005904 1_555
Mo1_7 Mo2_3 2.681950 1_555
Mo1_7 Mo2_2 2.681950 1_555
