# generated using pymatgen
data_Ba(Cu2As)4
_symmetry_space_group_name_H-M   'P 1'
_cell_length_a   7.86633359
_cell_length_b   15.27557068
_cell_length_c   15.27556882
_cell_angle_alpha   86.19871039
_cell_angle_beta   75.07935601
_cell_angle_gamma   75.07937322
_symmetry_Int_Tables_number   1
_chemical_formula_structural   Ba(Cu2As)4
_chemical_formula_sum   'Ba8 Cu64 As32'
_cell_volume   1713.86354296
_cell_formula_units_Z   8
loop_
 _symmetry_equiv_pos_site_id
 _symmetry_equiv_pos_as_xyz
  1  'x, y, z'
loop_
 _atom_site_type_symbol
 _atom_site_label
 _atom_site_symmetry_multiplicity
 _atom_site_fract_x
 _atom_site_fract_y
 _atom_site_fract_z
 _atom_site_occupancy
  Ba  Ba0_0  1  0.00000000  0.00000000  0.00000000  1
  Ba  Ba0_1  1  0.00000000  0.00000000  0.50000000  1
  Ba  Ba0_2  1  0.00000000  0.50000000  0.00000000  1
  Ba  Ba0_3  1  0.00000000  0.50000000  0.50000000  1
  Ba  Ba0_4  1  0.50000000  0.00000000  0.00000000  1
  Ba  Ba0_5  1  0.50000000  0.00000000  0.50000000  1
  Ba  Ba0_6  1  0.50000000  0.50000000  0.00000000  1
  Ba  Ba0_7  1  0.50000000  0.50000000  0.50000000  1
  Cu  Cu0_0  1  0.31263439  0.19599213  0.17873909  1
  Cu  Cu0_1  1  0.31263439  0.19599213  0.67873909  1
  Cu  Cu0_2  1  0.31263439  0.69599213  0.17873909  1
  Cu  Cu0_3  1  0.31263439  0.69599213  0.67873909  1
  Cu  Cu0_4  1  0.81263439  0.19599213  0.17873909  1
  Cu  Cu0_5  1  0.81263439  0.19599213  0.67873909  1
  Cu  Cu0_6  1  0.81263439  0.69599213  0.17873909  1
  Cu  Cu0_7  1  0.81263439  0.69599213  0.67873909  1
  Cu  Cu1_0  1  0.10716846  0.22838037  0.05728221  1
  Cu  Cu1_1  1  0.10716846  0.22838037  0.55728221  1
  Cu  Cu1_2  1  0.10716846  0.72838037  0.05728221  1
  Cu  Cu1_3  1  0.10716846  0.72838037  0.55728221  1
  Cu  Cu1_4  1  0.60716846  0.22838037  0.05728221  1
  Cu  Cu1_5  1  0.60716846  0.22838037  0.55728221  1
  Cu  Cu1_6  1  0.60716846  0.72838037  0.05728221  1
  Cu  Cu1_7  1  0.60716846  0.72838037  0.55728221  1
  Cu  Cu2_0  1  0.16445117  0.44271779  0.22838037  1
  Cu  Cu2_1  1  0.16445117  0.44271779  0.72838037  1
  Cu  Cu2_2  1  0.16445117  0.94271779  0.22838037  1
  Cu  Cu2_3  1  0.16445117  0.94271779  0.72838037  1
  Cu  Cu2_4  1  0.66445117  0.44271779  0.22838037  1
  Cu  Cu2_5  1  0.66445117  0.44271779  0.72838037  1
  Cu  Cu2_6  1  0.66445117  0.94271779  0.22838037  1
  Cu  Cu2_7  1  0.66445117  0.94271779  0.72838037  1
  Cu  Cu3_0  1  0.33554883  0.05728221  0.27161963  1
  Cu  Cu3_1  1  0.33554883  0.05728221  0.77161963  1
  Cu  Cu3_2  1  0.33554883  0.55728221  0.27161963  1
  Cu  Cu3_3  1  0.33554883  0.55728221  0.77161963  1
  Cu  Cu3_4  1  0.83554883  0.05728221  0.27161963  1
  Cu  Cu3_5  1  0.83554883  0.05728221  0.77161963  1
  Cu  Cu3_6  1  0.83554883  0.55728221  0.27161963  1
  Cu  Cu3_7  1  0.83554883  0.55728221  0.77161963  1
  Cu  Cu4_0  1  0.39283154  0.27161963  0.44271779  1
  Cu  Cu4_1  1  0.39283154  0.27161963  0.94271779  1
  Cu  Cu4_2  1  0.39283154  0.77161963  0.44271779  1
  Cu  Cu4_3  1  0.39283154  0.77161963  0.94271779  1
  Cu  Cu4_4  1  0.89283154  0.27161963  0.44271779  1
  Cu  Cu4_5  1  0.89283154  0.27161963  0.94271779  1
  Cu  Cu4_6  1  0.89283154  0.77161963  0.44271779  1
  Cu  Cu4_7  1  0.89283154  0.77161963  0.94271779  1
  Cu  Cu5_0  1  0.18736561  0.30400787  0.32126091  1
  Cu  Cu5_1  1  0.18736561  0.30400787  0.82126091  1
  Cu  Cu5_2  1  0.18736561  0.80400787  0.32126091  1
  Cu  Cu5_3  1  0.18736561  0.80400787  0.82126091  1
  Cu  Cu5_4  1  0.68736561  0.30400787  0.32126091  1
  Cu  Cu5_5  1  0.68736561  0.30400787  0.82126091  1
  Cu  Cu5_6  1  0.68736561  0.80400787  0.32126091  1
  Cu  Cu5_7  1  0.68736561  0.80400787  0.82126091  1
  Cu  Cu6_0  1  0.00862652  0.17873909  0.30400787  1
  Cu  Cu6_1  1  0.00862652  0.17873909  0.80400787  1
  Cu  Cu6_2  1  0.00862652  0.67873909  0.30400787  1
  Cu  Cu6_3  1  0.00862652  0.67873909  0.80400787  1
  Cu  Cu6_4  1  0.50862652  0.17873909  0.30400787  1
  Cu  Cu6_5  1  0.50862652  0.17873909  0.80400787  1
  Cu  Cu6_6  1  0.50862652  0.67873909  0.30400787  1
  Cu  Cu6_7  1  0.50862652  0.67873909  0.80400787  1
  Cu  Cu7_0  1  0.49137348  0.32126091  0.19599213  1
  Cu  Cu7_1  1  0.49137348  0.32126091  0.69599213  1
  Cu  Cu7_2  1  0.49137348  0.82126091  0.19599213  1
  Cu  Cu7_3  1  0.49137348  0.82126091  0.69599213  1
  Cu  Cu7_4  1  0.99137348  0.32126091  0.19599213  1
  Cu  Cu7_5  1  0.99137348  0.32126091  0.69599213  1
  Cu  Cu7_6  1  0.99137348  0.82126091  0.19599213  1
  Cu  Cu7_7  1  0.99137348  0.82126091  0.69599213  1
  As  As0_0  1  0.21385719  0.16538544  0.40689918  1
  As  As0_1  1  0.21385719  0.16538544  0.90689918  1
  As  As0_2  1  0.21385719  0.66538544  0.40689918  1
  As  As0_3  1  0.21385719  0.66538544  0.90689918  1
  As  As0_4  1  0.71385719  0.16538544  0.40689918  1
  As  As0_5  1  0.71385719  0.16538544  0.90689918  1
  As  As0_6  1  0.71385719  0.66538544  0.40689918  1
  As  As0_7  1  0.71385719  0.66538544  0.90689918  1
  As  As1_0  1  0.12075637  0.09310081  0.16538544  1
  As  As1_1  1  0.12075637  0.09310082  0.66538544  1
  As  As1_2  1  0.12075637  0.59310082  0.16538544  1
  As  As1_3  1  0.12075637  0.59310082  0.66538544  1
  As  As1_4  1  0.62075637  0.09310082  0.16538544  1
  As  As1_5  1  0.62075637  0.09310081  0.66538544  1
  As  As1_6  1  0.62075637  0.59310082  0.16538544  1
  As  As1_7  1  0.62075637  0.59310082  0.66538544  1
  As  As2_0  1  0.37924363  0.40689918  0.33461456  1
  As  As2_1  1  0.37924363  0.40689918  0.83461456  1
  As  As2_2  1  0.37924363  0.90689918  0.33461456  1
  As  As2_3  1  0.37924363  0.90689918  0.83461456  1
  As  As2_4  1  0.87924363  0.40689918  0.33461456  1
  As  As2_5  1  0.87924363  0.40689918  0.83461456  1
  As  As2_6  1  0.87924363  0.90689918  0.33461456  1
  As  As2_7  1  0.87924363  0.90689918  0.83461456  1
  As  As3_0  1  0.28614281  0.33461456  0.09310081  1
  As  As3_1  1  0.28614281  0.33461456  0.59310081  1
  As  As3_2  1  0.28614281  0.83461456  0.09310082  1
  As  As3_3  1  0.28614281  0.83461456  0.59310081  1
  As  As3_4  1  0.78614281  0.33461456  0.09310082  1
  As  As3_5  1  0.78614281  0.33461456  0.59310081  1
  As  As3_6  1  0.78614281  0.83461456  0.09310081  1
  As  As3_7  1  0.78614281  0.83461456  0.59310081  1
loop_
_geom_bond_atom_site_label_1
_geom_bond_atom_site_label_2
_geom_bond_distance
_geom_bond_site_symmetry_2
Ba0_0 Ba0_4 3.933167 1_555
Ba0_0 Ba0_4 3.933167 1_455
Ba0_1 Ba0_5 3.933167 1_555
Ba0_1 Ba0_5 3.933167 1_455
Ba0_2 Ba0_6 3.933167 1_455
Ba0_2 Ba0_6 3.933167 1_555
Ba0_3 Ba0_7 3.933167 1_555
Ba0_3 Ba0_7 3.933167 1_455
Cu0_0 Cu3_0 2.464047 1_555
Cu0_0 Cu5_0 2.639613 1_555
Cu0_0 Cu1_4 2.703702 1_555
Cu0_0 Cu1_0 2.703706 1_555
Cu0_0 Cu6_0 2.711315 1_555
Cu0_0 Cu7_0 2.711315 1_555
Cu0_0 Cu6_4 2.711315 1_555
Cu0_0 Cu7_4 2.711315 1_455
Cu0_1 Cu3_1 2.464047 1_555
Cu0_1 Cu5_1 2.639613 1_555
Cu0_1 Cu1_5 2.703702 1_555
Cu0_1 Cu1_1 2.703706 1_555
Cu0_1 Cu6_1 2.711315 1_555
Cu0_1 Cu7_1 2.711315 1_555
Cu0_1 Cu6_5 2.711315 1_555
Cu0_1 Cu7_5 2.711315 1_455
Cu0_2 Cu3_2 2.464047 1_555
Cu0_2 Cu5_2 2.639613 1_555
Cu0_2 Cu1_6 2.703702 1_555
Cu0_2 Cu1_2 2.703706 1_555
Cu0_2 Cu6_2 2.711315 1_555
Cu0_2 Cu7_2 2.711315 1_555
Cu0_2 Cu6_6 2.711315 1_555
Cu0_2 Cu7_6 2.711315 1_455
Cu0_3 Cu3_3 2.464047 1_555
Cu0_3 Cu5_3 2.639613 1_555
Cu0_3 Cu1_7 2.703702 1_555
Cu0_3 Cu1_3 2.703706 1_555
Cu0_3 Cu6_3 2.711315 1_555
Cu0_3 Cu7_3 2.711315 1_555
Cu0_3 Cu6_7 2.711315 1_555
Cu0_3 Cu7_7 2.711315 1_455
Cu0_4 Cu3_4 2.464047 1_555
Cu0_4 Cu5_4 2.639613 1_555
Cu0_4 Cu1_0 2.703702 1_655
Cu0_4 Cu1_4 2.703706 1_555
Cu0_4 Cu6_4 2.711315 1_555
Cu0_4 Cu7_4 2.711315 1_555
Cu0_4 Cu6_0 2.711315 1_655
Cu0_4 Cu7_0 2.711315 1_555
Cu0_5 Cu3_5 2.464047 1_555
Cu0_5 Cu5_5 2.639613 1_555
Cu0_5 Cu1_1 2.703702 1_655
Cu0_5 Cu1_5 2.703706 1_555
Cu0_5 Cu6_5 2.711315 1_555
Cu0_5 Cu7_5 2.711315 1_555
Cu0_5 Cu6_1 2.711315 1_655
Cu0_5 Cu7_1 2.711315 1_555
Cu0_6 Cu3_6 2.464047 1_555
Cu0_6 Cu5_6 2.639613 1_555
Cu0_6 Cu1_2 2.703702 1_655
Cu0_6 Cu1_6 2.703706 1_555
Cu0_6 Cu6_6 2.711315 1_555
Cu0_6 Cu7_6 2.711315 1_555
Cu0_6 Cu6_2 2.711315 1_655
Cu0_6 Cu7_2 2.711315 1_555
Cu0_7 Cu3_7 2.464047 1_555
Cu0_7 Cu5_7 2.639613 1_555
Cu0_7 Cu1_3 2.703702 1_655
Cu0_7 Cu1_7 2.703706 1_555
Cu0_7 Cu6_7 2.711315 1_555
Cu0_7 Cu7_7 2.711315 1_555
Cu0_7 Cu6_3 2.711315 1_655
Cu0_7 Cu7_3 2.711315 1_555
Cu1_0 Cu7_4 2.464046 1_455
Cu1_0 Cu4_5 2.671023 1_454
Cu1_0 Cu4_1 2.671029 1_554
Cu1_1 Cu7_5 2.464046 1_455
Cu1_1 Cu4_4 2.671023 1_455
Cu1_1 Cu4_0 2.671029 1_555
Cu1_2 Cu7_6 2.464046 1_455
Cu1_2 Cu4_7 2.671023 1_454
Cu1_2 Cu4_3 2.671029 1_554
Cu1_3 Cu7_7 2.464046 1_455
Cu1_3 Cu4_6 2.671023 1_455
Cu1_3 Cu4_2 2.671029 1_555
Cu1_4 Cu7_0 2.464046 1_555
Cu1_4 Cu4_1 2.671023 1_554
Cu1_4 Cu4_5 2.671029 1_554
Cu1_5 Cu7_1 2.464046 1_555
Cu1_5 Cu4_0 2.671023 1_555
Cu1_5 Cu4_4 2.671029 1_555
Cu1_6 Cu7_2 2.464046 1_555
Cu1_6 Cu4_3 2.671023 1_554
Cu1_6 Cu4_7 2.671029 1_554
Cu1_7 Cu7_3 2.464046 1_555
Cu1_7 Cu4_2 2.671023 1_555
Cu1_7 Cu4_6 2.671029 1_555
Cu2_0 Cu5_0 2.464047 1_555
Cu2_0 Cu3_2 2.671023 1_555
Cu2_0 Cu3_6 2.671029 1_455
Cu2_0 Cu7_0 2.703703 1_555
Cu2_0 Cu7_4 2.703705 1_455
Cu2_1 Cu5_1 2.464047 1_555
Cu2_1 Cu3_3 2.671023 1_555
Cu2_1 Cu3_7 2.671029 1_455
Cu2_1 Cu7_1 2.703703 1_555
Cu2_1 Cu7_5 2.703705 1_455
Cu2_2 Cu5_2 2.464047 1_555
Cu2_2 Cu3_0 2.671023 1_565
Cu2_2 Cu3_4 2.671029 1_465
Cu2_2 Cu7_2 2.703703 1_555
Cu2_2 Cu7_6 2.703705 1_455
Cu2_3 Cu5_3 2.464047 1_555
Cu2_3 Cu3_1 2.671023 1_565
Cu2_3 Cu3_5 2.671029 1_465
Cu2_3 Cu7_3 2.703703 1_555
Cu2_3 Cu7_7 2.703705 1_455
Cu2_4 Cu5_4 2.464047 1_555
Cu2_4 Cu3_6 2.671023 1_555
Cu2_4 Cu3_2 2.671029 1_555
Cu2_4 Cu7_4 2.703703 1_555
Cu2_4 Cu7_0 2.703705 1_555
Cu2_5 Cu5_5 2.464047 1_555
Cu2_5 Cu3_7 2.671023 1_555
Cu2_5 Cu3_3 2.671029 1_555
Cu2_5 Cu7_5 2.703703 1_555
Cu2_5 Cu7_1 2.703705 1_555
Cu2_6 Cu5_6 2.464047 1_555
Cu2_6 Cu3_4 2.671023 1_565
Cu2_6 Cu3_0 2.671029 1_565
Cu2_6 Cu7_6 2.703703 1_555
Cu2_6 Cu7_2 2.703705 1_555
Cu2_7 Cu5_7 2.464047 1_555
Cu2_7 Cu3_5 2.671023 1_565
Cu2_7 Cu3_1 2.671029 1_565
Cu2_7 Cu7_7 2.703703 1_555
Cu2_7 Cu7_3 2.703705 1_555
Cu3_0 Cu6_0 2.703703 1_555
Cu3_0 Cu6_4 2.703705 1_555
Cu3_1 Cu6_1 2.703703 1_555
Cu3_1 Cu6_5 2.703705 1_555
Cu3_2 Cu6_2 2.703703 1_555
Cu3_2 Cu6_6 2.703705 1_555
Cu3_3 Cu6_3 2.703703 1_555
Cu3_3 Cu6_7 2.703705 1_555
Cu3_4 Cu6_4 2.703703 1_555
Cu3_4 Cu6_0 2.703705 1_655
Cu3_5 Cu6_5 2.703703 1_555
Cu3_5 Cu6_1 2.703705 1_655
Cu3_6 Cu6_6 2.703703 1_555
Cu3_6 Cu6_2 2.703705 1_655
Cu3_7 Cu6_7 2.703703 1_555
Cu3_7 Cu6_3 2.703705 1_655
Cu4_0 Cu6_4 2.464046 1_555
Cu4_0 Cu5_4 2.703702 1_555
Cu4_0 Cu5_0 2.703706 1_555
Cu4_1 Cu6_5 2.464046 1_555
Cu4_1 Cu5_5 2.703702 1_555
Cu4_1 Cu5_1 2.703706 1_555
Cu4_2 Cu6_6 2.464046 1_555
Cu4_2 Cu5_6 2.703702 1_555
Cu4_2 Cu5_2 2.703706 1_555
Cu4_3 Cu6_7 2.464046 1_555
Cu4_3 Cu5_7 2.703702 1_555
Cu4_3 Cu5_3 2.703706 1_555
Cu4_4 Cu6_0 2.464046 1_655
Cu4_4 Cu5_0 2.703702 1_655
Cu4_4 Cu5_4 2.703706 1_555
Cu4_5 Cu6_1 2.464046 1_655
Cu4_5 Cu5_1 2.703702 1_655
Cu4_5 Cu5_5 2.703706 1_555
Cu4_6 Cu6_2 2.464046 1_655
Cu4_6 Cu5_2 2.703702 1_655
Cu4_6 Cu5_6 2.703706 1_555
Cu4_7 Cu6_3 2.464046 1_655
Cu4_7 Cu5_3 2.703702 1_655
Cu4_7 Cu5_7 2.703706 1_555
Cu5_0 Cu7_0 2.711315 1_555
Cu5_0 Cu6_0 2.711315 1_555
Cu5_0 Cu7_4 2.711315 1_455
Cu5_0 Cu6_4 2.711315 1_555
Cu5_1 Cu7_1 2.711315 1_555
Cu5_1 Cu6_1 2.711315 1_555
Cu5_1 Cu7_5 2.711315 1_455
Cu5_1 Cu6_5 2.711315 1_555
Cu5_2 Cu7_2 2.711315 1_555
Cu5_2 Cu6_2 2.711315 1_555
Cu5_2 Cu7_6 2.711315 1_455
Cu5_2 Cu6_6 2.711315 1_555
Cu5_3 Cu7_3 2.711315 1_555
Cu5_3 Cu6_3 2.711315 1_555
Cu5_3 Cu7_7 2.711315 1_455
Cu5_3 Cu6_7 2.711315 1_555
Cu5_4 Cu7_4 2.711315 1_555
Cu5_4 Cu6_4 2.711315 1_555
Cu5_4 Cu7_0 2.711315 1_555
Cu5_4 Cu6_0 2.711315 1_655
Cu5_5 Cu7_5 2.711315 1_555
Cu5_5 Cu6_5 2.711315 1_555
Cu5_5 Cu7_1 2.711315 1_555
Cu5_5 Cu6_1 2.711315 1_655
Cu5_6 Cu7_6 2.711315 1_555
Cu5_6 Cu6_6 2.711315 1_555
Cu5_6 Cu7_2 2.711315 1_555
Cu5_6 Cu6_2 2.711315 1_655
Cu5_7 Cu7_7 2.711315 1_555
Cu5_7 Cu6_7 2.711315 1_555
Cu5_7 Cu7_3 2.711315 1_555
Cu5_7 Cu6_3 2.711315 1_655
Cu6_0 Cu7_4 2.639613 1_455
Cu6_1 Cu7_5 2.639613 1_455
Cu6_2 Cu7_6 2.639613 1_455
Cu6_3 Cu7_7 2.639613 1_455
Cu6_4 Cu7_0 2.639613 1_555
Cu6_5 Cu7_1 2.639613 1_555
Cu6_6 Cu7_2 2.639613 1_555
Cu6_7 Cu7_3 2.639613 1_555
As0_0 Cu5_0 2.405110 1_555
As0_0 Cu1_1 2.406619 1_555
As0_0 Cu6_0 2.492555 1_555
As0_0 Cu6_4 2.492560 1_555
As0_0 Cu3_0 2.556039 1_555
As0_0 Cu4_4 2.570176 1_455
As0_0 Cu4_0 2.570185 1_555
As0_0 Ba0_1 3.422755 1_555
As0_0 Ba0_5 3.422760 1_555
As0_1 Cu5_1 2.405110 1_555
As0_1 Cu1_0 2.406619 1_556
As0_1 Cu6_1 2.492555 1_555
As0_1 Cu6_5 2.492560 1_555
As0_1 Cu3_1 2.556039 1_555
As0_1 Cu4_5 2.570176 1_455
As0_1 Cu4_1 2.570185 1_555
As0_1 Ba0_0 3.422755 1_556
As0_1 Ba0_4 3.422760 1_556
As0_2 Cu5_2 2.405110 1_555
As0_2 Cu1_3 2.406619 1_555
As0_2 Cu6_2 2.492555 1_555
As0_2 Cu6_6 2.492560 1_555
As0_2 Cu3_2 2.556039 1_555
As0_2 Cu4_6 2.570176 1_455
As0_2 Cu4_2 2.570185 1_555
As0_2 Ba0_3 3.422755 1_555
As0_2 Ba0_7 3.422760 1_555
As0_3 Cu5_3 2.405110 1_555
As0_3 Cu1_2 2.406619 1_556
As0_3 Cu6_3 2.492555 1_555
As0_3 Cu6_7 2.492560 1_555
As0_3 Cu3_3 2.556039 1_555
As0_3 Cu4_7 2.570176 1_455
As0_3 Cu4_3 2.570185 1_555
As0_3 Ba0_2 3.422755 1_556
As0_3 Ba0_6 3.422760 1_556
As0_4 Cu5_4 2.405110 1_555
As0_4 Cu1_5 2.406619 1_555
As0_4 Cu6_4 2.492555 1_555
As0_4 Cu6_0 2.492560 1_655
As0_4 Cu3_4 2.556039 1_555
As0_4 Cu4_0 2.570176 1_555
As0_4 Cu4_4 2.570185 1_555
As0_4 Ba0_5 3.422755 1_555
As0_4 Ba0_1 3.422760 1_655
As0_5 Cu5_5 2.405110 1_555
As0_5 Cu1_4 2.406619 1_556
As0_5 Cu6_5 2.492555 1_555
As0_5 Cu6_1 2.492560 1_655
As0_5 Cu3_5 2.556039 1_555
As0_5 Cu4_1 2.570176 1_555
As0_5 Cu4_5 2.570185 1_555
As0_5 Ba0_4 3.422755 1_556
As0_5 Ba0_0 3.422760 1_656
As0_6 Cu5_6 2.405110 1_555
As0_6 Cu1_7 2.406619 1_555
As0_6 Cu6_6 2.492555 1_555
As0_6 Cu6_2 2.492560 1_655
As0_6 Cu3_6 2.556039 1_555
As0_6 Cu4_2 2.570176 1_555
As0_6 Cu4_6 2.570185 1_555
As0_6 Ba0_7 3.422755 1_555
As0_6 Ba0_3 3.422760 1_655
As0_7 Cu5_7 2.405110 1_555
As0_7 Cu1_6 2.406619 1_556
As0_7 Cu6_7 2.492555 1_555
As0_7 Cu6_3 2.492560 1_655
As0_7 Cu3_7 2.556039 1_555
As0_7 Cu4_3 2.570176 1_555
As0_7 Cu4_7 2.570185 1_555
As0_7 Ba0_6 3.422755 1_556
As0_7 Ba0_2 3.422760 1_656
As1_0 Cu6_0 2.405110 1_555
As1_0 Cu2_2 2.406619 1_545
As1_0 Cu0_4 2.492555 1_455
As1_0 Cu0_0 2.492561 1_555
As1_0 Cu1_0 2.556039 1_555
As1_0 Cu3_4 2.570179 1_455
As1_0 Cu3_0 2.570182 1_555
As1_0 Ba0_0 3.422755 1_555
As1_0 Ba0_4 3.422759 1_555
As1_1 Cu6_1 2.405110 1_555
As1_1 Cu2_3 2.406619 1_545
As1_1 Cu0_5 2.492555 1_455
As1_1 Cu0_1 2.492561 1_555
As1_1 Cu1_1 2.556039 1_555
As1_1 Cu3_5 2.570179 1_455
As1_1 Cu3_1 2.570182 1_555
As1_1 Ba0_1 3.422755 1_555
As1_1 Ba0_5 3.422759 1_555
As1_2 Cu6_2 2.405110 1_555
As1_2 Cu2_0 2.406619 1_555
As1_2 Cu0_6 2.492555 1_455
As1_2 Cu0_2 2.492561 1_555
As1_2 Cu1_2 2.556039 1_555
As1_2 Cu3_6 2.570179 1_455
As1_2 Cu3_2 2.570182 1_555
As1_2 Ba0_2 3.422755 1_555
As1_2 Ba0_6 3.422759 1_555
As1_3 Cu6_3 2.405110 1_555
As1_3 Cu2_1 2.406619 1_555
As1_3 Cu0_7 2.492555 1_455
As1_3 Cu0_3 2.492561 1_555
As1_3 Cu1_3 2.556039 1_555
As1_3 Cu3_7 2.570179 1_455
As1_3 Cu3_3 2.570182 1_555
As1_3 Ba0_3 3.422755 1_555
As1_3 Ba0_7 3.422759 1_555
As1_4 Cu6_4 2.405110 1_555
As1_4 Cu2_6 2.406619 1_545
As1_4 Cu0_0 2.492555 1_555
As1_4 Cu0_4 2.492561 1_555
As1_4 Cu1_4 2.556039 1_555
As1_4 Cu3_0 2.570179 1_555
As1_4 Cu3_4 2.570182 1_555
As1_4 Ba0_4 3.422755 1_555
As1_4 Ba0_0 3.422759 1_655
As1_5 Cu6_5 2.405110 1_555
As1_5 Cu2_7 2.406619 1_545
As1_5 Cu0_1 2.492555 1_555
As1_5 Cu0_5 2.492561 1_555
As1_5 Cu1_5 2.556039 1_555
As1_5 Cu3_1 2.570179 1_555
As1_5 Cu3_5 2.570182 1_555
As1_5 Ba0_5 3.422755 1_555
As1_5 Ba0_1 3.422759 1_655
As1_6 Cu6_6 2.405110 1_555
As1_6 Cu2_4 2.406619 1_555
As1_6 Cu0_2 2.492555 1_555
As1_6 Cu0_6 2.492561 1_555
As1_6 Cu1_6 2.556039 1_555
As1_6 Cu3_2 2.570179 1_555
As1_6 Cu3_6 2.570182 1_555
As1_6 Ba0_6 3.422755 1_555
As1_6 Ba0_2 3.422759 1_655
As1_7 Cu6_7 2.405110 1_555
As1_7 Cu2_5 2.406619 1_555
As1_7 Cu0_3 2.492555 1_555
As1_7 Cu0_7 2.492561 1_555
As1_7 Cu1_7 2.556039 1_555
As1_7 Cu3_3 2.570179 1_555
As1_7 Cu3_7 2.570182 1_555
As1_7 Ba0_7 3.422755 1_555
As1_7 Ba0_3 3.422759 1_655
As2_0 Cu7_0 2.405110 1_555
As2_0 Cu3_2 2.406619 1_555
As2_0 Cu5_4 2.492555 1_555
As2_0 Cu5_0 2.492561 1_555
As2_0 Cu4_0 2.556039 1_555
As2_0 Cu2_4 2.570179 1_555
As2_0 Cu2_0 2.570182 1_555
As2_0 Ba0_7 3.422755 1_555
As2_0 Ba0_3 3.422759 1_555
As2_1 Cu7_1 2.405110 1_555
As2_1 Cu3_3 2.406619 1_555
As2_1 Cu5_5 2.492555 1_555
As2_1 Cu5_1 2.492561 1_555
As2_1 Cu4_1 2.556039 1_555
As2_1 Cu2_5 2.570179 1_555
As2_1 Cu2_1 2.570182 1_555
As2_1 Ba0_6 3.422755 1_556
As2_1 Ba0_2 3.422759 1_556
As2_2 Cu7_2 2.405110 1_555
As2_2 Cu3_0 2.406619 1_565
As2_2 Cu5_6 2.492555 1_555
As2_2 Cu5_2 2.492561 1_555
As2_2 Cu4_2 2.556039 1_555
As2_2 Cu2_6 2.570179 1_555
As2_2 Cu2_2 2.570182 1_555
As2_2 Ba0_5 3.422755 1_565
As2_2 Ba0_1 3.422759 1_565
As2_3 Cu7_3 2.405110 1_555
As2_3 Cu3_1 2.406619 1_565
As2_3 Cu5_7 2.492555 1_555
As2_3 Cu5_3 2.492561 1_555
As2_3 Cu4_3 2.556039 1_555
As2_3 Cu2_7 2.570179 1_555
As2_3 Cu2_3 2.570182 1_555
As2_3 Ba0_4 3.422755 1_566
As2_3 Ba0_0 3.422759 1_566
As2_4 Cu7_4 2.405110 1_555
As2_4 Cu3_6 2.406619 1_555
As2_4 Cu5_0 2.492555 1_655
As2_4 Cu5_4 2.492561 1_555
As2_4 Cu4_4 2.556039 1_555
As2_4 Cu2_0 2.570179 1_655
As2_4 Cu2_4 2.570182 1_555
As2_4 Ba0_3 3.422755 1_655
As2_4 Ba0_7 3.422759 1_555
As2_5 Cu7_5 2.405110 1_555
As2_5 Cu3_7 2.406619 1_555
As2_5 Cu5_1 2.492555 1_655
As2_5 Cu5_5 2.492561 1_555
As2_5 Cu4_5 2.556039 1_555
As2_5 Cu2_1 2.570179 1_655
As2_5 Cu2_5 2.570182 1_555
As2_5 Ba0_2 3.422755 1_656
As2_5 Ba0_6 3.422759 1_556
As2_6 Cu7_6 2.405110 1_555
As2_6 Cu3_4 2.406619 1_565
As2_6 Cu5_2 2.492555 1_655
As2_6 Cu5_6 2.492561 1_555
As2_6 Cu4_6 2.556039 1_555
As2_6 Cu2_2 2.570179 1_655
As2_6 Cu2_6 2.570182 1_555
As2_6 Ba0_1 3.422755 1_665
As2_6 Ba0_5 3.422759 1_565
As2_7 Cu7_7 2.405110 1_555
As2_7 Cu3_5 2.406619 1_565
As2_7 Cu5_3 2.492555 1_655
As2_7 Cu5_7 2.492561 1_555
As2_7 Cu4_7 2.556039 1_555
As2_7 Cu2_3 2.570179 1_655
As2_7 Cu2_7 2.570182 1_555
As2_7 Ba0_0 3.422755 1_666
As2_7 Ba0_4 3.422759 1_566
As3_0 Cu0_0 2.405110 1_555
As3_0 Cu4_1 2.406619 1_554
As3_0 Cu7_0 2.492555 1_555
As3_0 Cu7_4 2.492560 1_455
As3_0 Cu2_0 2.556039 1_555
As3_0 Cu1_4 2.570176 1_555
As3_0 Cu1_0 2.570185 1_555
As3_0 Ba0_6 3.422755 1_555
As3_0 Ba0_2 3.422760 1_555
As3_1 Cu0_1 2.405110 1_555
As3_1 Cu4_0 2.406619 1_555
As3_1 Cu7_1 2.492555 1_555
As3_1 Cu7_5 2.492560 1_455
As3_1 Cu2_1 2.556039 1_555
As3_1 Cu1_5 2.570176 1_555
As3_1 Cu1_1 2.570185 1_555
As3_1 Ba0_7 3.422755 1_555
As3_1 Ba0_3 3.422760 1_555
As3_2 Cu0_2 2.405110 1_555
As3_2 Cu4_3 2.406619 1_554
As3_2 Cu7_2 2.492555 1_555
As3_2 Cu7_6 2.492560 1_455
As3_2 Cu2_2 2.556039 1_555
As3_2 Cu1_6 2.570176 1_555
As3_2 Cu1_2 2.570185 1_555
As3_2 Ba0_4 3.422755 1_565
As3_2 Ba0_0 3.422760 1_565
As3_3 Cu0_3 2.405110 1_555
As3_3 Cu4_2 2.406619 1_555
As3_3 Cu7_3 2.492555 1_555
As3_3 Cu7_7 2.492560 1_455
As3_3 Cu2_3 2.556039 1_555
As3_3 Cu1_7 2.570176 1_555
As3_3 Cu1_3 2.570185 1_555
As3_3 Ba0_5 3.422755 1_565
As3_3 Ba0_1 3.422760 1_565
As3_4 Cu0_4 2.405110 1_555
As3_4 Cu4_5 2.406619 1_554
As3_4 Cu7_4 2.492555 1_555
As3_4 Cu7_0 2.492560 1_555
As3_4 Cu2_4 2.556039 1_555
As3_4 Cu1_0 2.570176 1_655
As3_4 Cu1_4 2.570185 1_555
As3_4 Ba0_2 3.422755 1_655
As3_4 Ba0_6 3.422760 1_555
As3_5 Cu0_5 2.405110 1_555
As3_5 Cu4_4 2.406619 1_555
As3_5 Cu7_5 2.492555 1_555
As3_5 Cu7_1 2.492560 1_555
As3_5 Cu2_5 2.556039 1_555
As3_5 Cu1_1 2.570176 1_655
As3_5 Cu1_5 2.570185 1_555
As3_5 Ba0_3 3.422755 1_655
As3_5 Ba0_7 3.422760 1_555
As3_6 Cu0_6 2.405110 1_555
As3_6 Cu4_7 2.406619 1_554
As3_6 Cu7_6 2.492555 1_555
As3_6 Cu7_2 2.492560 1_555
As3_6 Cu2_6 2.556039 1_555
As3_6 Cu1_2 2.570176 1_655
As3_6 Cu1_6 2.570185 1_555
As3_6 Ba0_0 3.422755 1_665
As3_6 Ba0_4 3.422760 1_565
As3_7 Cu0_7 2.405110 1_555
As3_7 Cu4_6 2.406619 1_555
As3_7 Cu7_7 2.492555 1_555
As3_7 Cu7_3 2.492560 1_555
As3_7 Cu2_7 2.556039 1_555
As3_7 Cu1_3 2.570176 1_655
As3_7 Cu1_7 2.570185 1_555
As3_7 Ba0_1 3.422755 1_665
As3_7 Ba0_5 3.422760 1_565
