# generated using pymatgen
data_K5Cr10F31
_symmetry_space_group_name_H-M   'P 1'
_cell_length_a   7.80173321
_cell_length_b   11.68381942
_cell_length_c   31.89405330
_cell_angle_alpha   87.69235595
_cell_angle_beta   82.99074239
_cell_angle_gamma   70.48124150
_symmetry_Int_Tables_number   1
_chemical_formula_structural   K5Cr10F31
_chemical_formula_sum   'K20 Cr40 F124'
_cell_volume   2719.71781077
_cell_formula_units_Z   4
loop_
 _symmetry_equiv_pos_site_id
 _symmetry_equiv_pos_as_xyz
  1  'x, y, z'
loop_
 _atom_site_type_symbol
 _atom_site_label
 _atom_site_symmetry_multiplicity
 _atom_site_fract_x
 _atom_site_fract_y
 _atom_site_fract_z
 _atom_site_occupancy
  K  K0  1  0.24375775  0.01573162  0.49663144  1
  K  K1  1  0.25828316  0.48844590  0.99545164  1
  K  K2  1  0.83862284  0.52851270  0.79470717  1
  K  K3  1  0.56412201  0.48203559  0.39329738  1
  K  K4  1  0.14909285  0.00216345  0.69933609  1
  K  K5  1  0.36795929  0.96074656  0.29973445  1
  K  K6  1  0.65486091  0.49219990  0.19307735  1
  K  K7  1  0.03450728  0.04113691  0.88626348  1
  K  K8  1  0.15831272  0.47296349  0.20471944  1
  K  K9  1  0.84703923  0.00071408  0.30093907  1
  K  K10  1  0.07623018  0.46937894  0.37820313  1
  K  K11  1  0.34267899  0.50805583  0.80690770  1
  K  K12  1  0.92078169  0.53279817  0.62177378  1
  K  K13  1  0.62914923  0.03914346  0.69986726  1
  K  K14  1  0.55645186  0.00026249  0.88815434  1
  K  K15  1  0.75541974  0.98351455  0.50300280  1
  K  K16  1  0.74359277  0.51069480  0.00530495  1
  K  K17  1  0.43381529  0.51945463  0.60689968  1
  K  K18  1  0.44493822  0.99947611  0.11155837  1
  K  K19  1  0.96152294  0.96384987  0.11362209  1
  Cr  Cr0  1  0.74551773  0.21360983  0.79448007  1
  Cr  Cr1  1  0.61755551  0.36880559  0.90567400  1
  Cr  Cr2  1  0.95732875  0.28942024  0.29332239  1
  Cr  Cr3  1  0.77013149  0.65250350  0.30182676  1
  Cr  Cr4  1  0.57604801  0.14641236  0.19911179  1
  Cr  Cr5  1  0.45447439  0.69165152  0.90203929  1
  Cr  Cr6  1  0.04621910  0.30752658  0.09815419  1
  Cr  Cr7  1  0.32980878  0.83077421  0.01238490  1
  Cr  Cr8  1  0.38276248  0.63482007  0.09390278  1
  Cr  Cr9  1  0.88570753  0.63395274  0.09409197  1
  Cr  Cr10  1  0.27548209  0.65059570  0.30168743  1
  Cr  Cr11  1  0.33999442  0.33116666  0.48743069  1
  Cr  Cr12  1  0.54476371  0.30803786  0.09794320  1
  Cr  Cr13  1  0.51661367  0.87201993  0.59514809  1
  Cr  Cr14  1  0.07437652  0.14668277  0.19926588  1
  Cr  Cr15  1  0.35144289  0.19480220  0.59783745  1
  Cr  Cr16  1  0.95233757  0.69305609  0.90178563  1
  Cr  Cr17  1  0.15891105  0.67003629  0.51245001  1
  Cr  Cr18  1  0.17172975  0.17071392  0.98792597  1
  Cr  Cr19  1  0.84120307  0.33017399  0.48737724  1
  Cr  Cr20  1  0.22794403  0.34979915  0.69856059  1
  Cr  Cr21  1  0.04071964  0.71249811  0.70649080  1
  Cr  Cr22  1  0.92272959  0.85196691  0.80093731  1
  Cr  Cr23  1  0.42146688  0.85240080  0.80106463  1
  Cr  Cr24  1  0.45891357  0.28734724  0.29322379  1
  Cr  Cr25  1  0.11553058  0.36702185  0.90571353  1
  Cr  Cr26  1  0.64797534  0.80522224  0.40213367  1
  Cr  Cr27  1  0.24541823  0.21441423  0.79448984  1
  Cr  Cr28  1  0.72311820  0.34994410  0.69842278  1
  Cr  Cr29  1  0.75194895  0.78651822  0.20542918  1
  Cr  Cr30  1  0.14513974  0.80621769  0.40194229  1
  Cr  Cr31  1  0.48330387  0.12991628  0.40497801  1
  Cr  Cr32  1  0.85402227  0.19424146  0.59772222  1
  Cr  Cr33  1  0.98232710  0.12996798  0.40471265  1
  Cr  Cr34  1  0.25242653  0.78717828  0.20536843  1
  Cr  Cr35  1  0.65936229  0.66947782  0.51264711  1
  Cr  Cr36  1  0.82938444  0.83080920  0.01223509  1
  Cr  Cr37  1  0.67095098  0.17061703  0.98796521  1
  Cr  Cr38  1  0.01781872  0.87274396  0.59522355  1
  Cr  Cr39  1  0.53938190  0.71318802  0.70657903  1
  F  F0  1  0.76628546  0.85829723  0.07210738  1
  F  F1  1  0.34739431  0.30789661  0.54906660  1
  F  F2  1  0.30244064  0.00120750  0.00093546  1
  F  F3  1  0.07589681  0.64835425  0.76234003  1
  F  F4  1  0.19481943  0.50099876  0.49924330  1
  F  F5  1  0.39085821  0.82069051  0.39857301  1
  F  F6  1  0.10087161  0.90898663  0.35364052  1
  F  F7  1  0.69795295  0.00059173  0.00004667  1
  F  F8  1  0.89290780  0.70778304  0.50690974  1
  F  F9  1  0.15546692  0.86082030  0.25953158  1
  F  F10  1  0.42521954  0.63244185  0.51753975  1
  F  F11  1  0.63013331  0.16336543  0.13422454  1
  F  F12  1  0.37279988  0.68958786  0.15493597  1
  F  F13  1  0.08279252  0.13188573  0.26390199  1
  F  F14  1  0.65931743  0.64290017  0.57260423  1
  F  F15  1  0.89348960  0.16226860  0.47411229  1
  F  F16  1  0.63808487  0.90556911  0.35329823  1
  F  F17  1  0.89611498  0.09091651  0.64595689  1
  F  F18  1  0.18213449  0.37156664  0.76331452  1
  F  F19  1  0.83547253  0.44236900  0.32218069  1
  F  F20  1  0.76577896  0.88607907  0.58438545  1
  F  F21  1  0.53715169  0.55306501  0.93799245  1
  F  F22  1  0.36663666  0.83596123  0.86582859  1
  F  F23  1  0.88526436  0.33986776  0.89605940  1
  F  F24  1  0.53149343  0.83769630  0.52580545  1
  F  F25  1  0.56746323  0.80281873  0.65459091  1
  F  F26  1  0.43251981  0.19792022  0.34543145  1
  F  F27  1  0.90829578  0.77871295  0.40593473  1
  F  F28  1  0.80684067  0.67481139  0.71089039  1
  F  F29  1  0.48235864  0.35232335  0.23737010  1
  F  F30  1  0.47713754  0.87030800  0.73645644  1
  F  F31  1  0.10807971  0.83767155  0.52585345  1
  F  F32  1  0.50721119  0.19909643  0.78564628  1
  F  F33  1  0.47009610  0.16310408  0.47436453  1
  F  F34  1  0.26486903  0.86481698  0.60749980  1
  F  F35  1  0.10771118  0.29143538  0.49259334  1
  F  F36  1  0.31458012  0.27032375  0.09733943  1
  F  F37  1  0.27521701  0.14421496  0.73967152  1
  F  F38  1  0.75053558  0.34158616  0.63324985  1
  F  F39  1  0.20944663  0.69580629  0.45115008  1
  F  F40  1  0.94109771  0.13602481  0.98323939  1
  F  F41  1  0.80306594  0.49969908  0.50010323  1
  F  F42  1  0.64835003  0.69350599  0.45116637  1
  F  F43  1  0.06096104  0.33904404  0.97409722  1
  F  F44  1  0.42231586  0.05317004  0.56244355  1
  F  F45  1  0.72395508  0.25135613  0.29914551  1
  F  F46  1  0.27168590  0.34209313  0.63336113  1
  F  F47  1  0.01096583  0.59033107  0.85357575  1
  F  F48  1  0.92088611  0.35501324  0.23775256  1
  F  F49  1  0.72031162  0.86021994  0.25961376  1
  F  F50  1  0.59895479  0.56053954  0.67751208  1
  F  F51  1  0.96175791  0.05284825  0.56222605  1
  F  F52  1  0.84116574  0.14213592  0.73990342  1
  F  F53  1  0.89751605  0.80688200  0.95063628  1
  F  F54  1  0.23569624  0.14224762  0.92810348  1
  F  F55  1  0.31033931  0.06182847  0.82470600  1
  F  F56  1  0.98072763  0.23293599  0.80522390  1
  F  F57  1  0.16231753  0.87944113  0.79325503  1
  F  F58  1  0.12313598  0.64216676  0.57220361  1
  F  F59  1  0.06648958  0.16307343  0.13436030  1
  F  F60  1  0.34993047  0.39155114  0.91503072  1
  F  F61  1  0.21600739  0.66595512  0.90306982  1
  F  F62  1  0.63061464  0.33855952  0.97448264  1
  F  F63  1  0.19959308  0.93868163  0.17457603  1
  F  F64  1  0.19272340  0.32448769  0.28837262  1
  F  F65  1  0.73391342  0.13923941  0.39304875  1
  F  F66  1  0.39961514  0.20845934  0.99351842  1
  F  F67  1  0.62757671  0.30978179  0.84521956  1
  F  F68  1  0.65404204  0.19312908  0.04956758  1
  F  F69  1  0.57365751  0.94751949  0.43731742  1
  F  F70  1  0.49876895  0.30337254  0.69883849  1
  F  F71  1  0.10148958  0.19414901  0.04938836  1
  F  F72  1  0.93984634  0.66204294  0.02557935  1
  F  F73  1  0.45132739  0.41357043  0.14541421  1
  F  F74  1  0.11613006  0.66107958  0.10328639  1
  F  F75  1  0.80167486  0.06115184  0.82466429  1
  F  F76  1  0.09027503  0.22188301  0.59514107  1
  F  F77  1  0.87699381  0.35647538  0.42744386  1
  F  F78  1  0.39887505  0.43999078  0.32230738  1
  F  F79  1  0.68439387  0.72917281  0.90259981  1
  F  F80  1  0.68580304  0.93811233  0.17467910  1
  F  F81  1  0.03861770  0.94821185  0.43709964  1
  F  F82  1  0.27369603  0.75133980  0.70055957  1
  F  F83  1  0.97740920  0.79832971  0.65375952  1
  F  F84  1  0.61049468  0.17739384  0.59938659  1
  F  F85  1  0.83401960  0.12089682  0.20738638  1
  F  F86  1  0.60016286  0.79438949  0.00745797  1
  F  F87  1  0.46457649  0.44652918  0.06184217  1
  F  F88  1  0.95981038  0.38399096  0.69581747  1
  F  F89  1  0.02476300  0.44634517  0.06222160  1
  F  F90  1  0.97460294  0.55328993  0.93720175  1
  F  F91  1  0.34917061  0.80625798  0.95078096  1
  F  F92  1  0.57368570  0.36910202  0.48297051  1
  F  F93  1  0.30624471  0.85660100  0.07241072  1
  F  F94  1  0.51356208  0.64759730  0.76225264  1
  F  F95  1  0.79300901  0.30627308  0.54884275  1
  F  F96  1  0.91350705  0.86964026  0.73609608  1
  F  F97  1  0.02232310  0.20255790  0.34581903  1
  F  F98  1  0.50005116  0.69588441  0.30206420  1
  F  F99  1  0.68174836  0.37063247  0.76316655  1
  F  F100  1  0.16491516  0.55934216  0.67789671  1
  F  F101  1  0.78346650  0.33344815  0.09653830  1
  F  F102  1  0.73175559  0.65709156  0.36709435  1
  F  F103  1  0.65079545  0.61049112  0.08490414  1
  F  F104  1  0.68198120  0.82371168  0.80972175  1
  F  F105  1  0.33956589  0.35771045  0.42749755  1
  F  F106  1  0.49065522  0.80048488  0.21485972  1
  F  F107  1  0.54847300  0.58519390  0.85467853  1
  F  F108  1  0.23576026  0.11361275  0.41525055  1
  F  F109  1  0.05989579  0.86546461  0.01710556  1
  F  F110  1  0.69325752  0.14254544  0.92818591  1
  F  F111  1  0.92747575  0.83867666  0.86599842  1
  F  F112  1  0.98721893  0.41166057  0.14593370  1
  F  F113  1  0.52203637  0.12965054  0.26380507  1
  F  F114  1  0.22039717  0.31202653  0.84479492  1
  F  F115  1  0.37131841  0.66236744  0.02547442  1
  F  F116  1  0.31434571  0.63075456  0.23699714  1
  F  F117  1  0.24666369  0.65770407  0.36690993  1
  F  F118  1  0.31784396  0.16997897  0.19023243  1
  F  F119  1  0.03725193  0.62022098  0.30400120  1
  F  F120  1  0.36500836  0.09224239  0.64623079  1
  F  F121  1  0.81342310  0.63077088  0.23724701  1
  F  F122  1  0.01694391  0.76790915  0.19483021  1
  F  F123  1  0.78161991  0.68652122  0.15538800  1
loop_
_geom_bond_atom_site_label_1
_geom_bond_atom_site_label_2
_geom_bond_distance
_geom_bond_site_symmetry_2
Cr0 F52 1.915145 1_555
Cr0 F75 1.932634 1_555
Cr0 F67 1.954543 1_555
Cr0 F32 1.976648 1_555
Cr0 F56 1.993083 1_555
Cr0 F99 1.993636 1_555
Cr1 F23 1.987644 1_555
Cr1 F60 2.000675 1_555
Cr1 F67 2.057587 1_555
Cr1 F62 2.218001 1_555
Cr1 F21 2.282373 1_555
Cr1 F110 2.600036 1_555
Cr2 F48 1.917650 1_555
Cr2 F19 1.930818 1_555
Cr2 F97 1.953708 1_655
Cr2 F13 1.984294 1_655
Cr2 F64 1.998079 1_655
Cr2 F45 1.999803 1_555
Cr3 F98 1.994883 1_555
Cr3 F119 1.999512 1_655
Cr3 F121 2.058150 1_555
Cr3 F102 2.066864 1_555
Cr3 F19 2.413553 1_555
Cr3 F49 2.662312 1_555
Cr4 F85 1.982812 1_555
Cr4 F118 1.994063 1_555
Cr4 F113 2.069700 1_555
Cr4 F11 2.076030 1_555
Cr4 F80 2.420920 1_545
Cr4 F29 2.579696 1_555
Cr5 F107 1.907360 1_555
Cr5 F21 1.919870 1_555
Cr5 F61 1.977385 1_555
Cr5 F22 1.977512 1_555
Cr5 F79 1.985965 1_555
Cr5 F91 2.001370 1_555
Cr6 F112 1.902180 1_455
Cr6 F89 1.920361 1_555
Cr6 F101 1.976420 1_455
Cr6 F59 1.978962 1_555
Cr6 F36 1.988118 1_555
Cr6 F71 1.995079 1_555
Cr7 F115 1.921403 1_555
Cr7 F93 1.927068 1_555
Cr7 F2 1.954639 1_565
Cr7 F91 1.977189 1_554
Cr7 F109 1.994615 1_555
Cr7 F86 1.994888 1_555
Cr8 F74 1.984914 1_555
Cr8 F103 1.999713 1_555
Cr8 F12 2.057886 1_555
Cr8 F115 2.201471 1_555
Cr8 F87 2.318695 1_555
Cr8 F93 2.542431 1_555
Cr9 F74 1.983693 1_655
Cr9 F103 1.998283 1_555
Cr9 F123 2.057808 1_555
Cr9 F72 2.206944 1_555
Cr9 F89 2.310010 1_655
Cr9 F0 2.570973 1_555
Cr10 F98 1.993713 1_555
Cr10 F119 1.997750 1_555
Cr10 F116 2.059486 1_555
Cr10 F117 2.066884 1_555
Cr10 F78 2.419798 1_555
Cr10 F9 2.687373 1_555
Cr11 F33 1.921071 1_555
Cr11 F105 1.924368 1_555
Cr11 F4 1.953564 1_555
Cr11 F1 1.978855 1_555
Cr11 F35 2.002470 1_555
Cr11 F92 2.003086 1_555
Cr12 F73 1.903788 1_555
Cr12 F87 1.919560 1_555
Cr12 F101 1.976441 1_555
Cr12 F11 1.979419 1_555
Cr12 F36 1.989336 1_555
Cr12 F68 1.997696 1_555
Cr13 F34 1.984614 1_555
Cr13 F20 1.992391 1_555
Cr13 F25 2.061849 1_555
Cr13 F24 2.245709 1_555
Cr13 F44 2.253426 1_565
Cr13 F14 2.625041 1_555
Cr14 F85 1.981648 1_455
Cr14 F118 1.992656 1_555
Cr14 F13 2.069000 1_555
Cr14 F59 2.077756 1_555
Cr14 F63 2.420835 1_545
Cr14 F48 2.607615 1_455
Cr15 F120 1.906712 1_555
Cr15 F44 1.924862 1_555
Cr15 F76 1.966961 1_555
Cr15 F84 1.969095 1_555
Cr15 F46 1.975303 1_555
Cr15 F1 1.996294 1_555
Cr16 F47 1.903708 1_655
Cr16 F90 1.919004 1_555
Cr16 F111 1.977956 1_555
Cr16 F61 1.979339 1_655
Cr16 F79 1.986654 1_555
Cr16 F53 2.000814 1_555
Cr17 F31 1.919173 1_555
Cr17 F58 1.922728 1_555
Cr17 F4 1.955764 1_555
Cr17 F39 1.977959 1_555
Cr17 F10 2.000683 1_555
Cr17 F8 2.001040 1_455
Cr18 F43 1.922715 1_555
Cr18 F54 1.925582 1_555
Cr18 F2 1.954972 1_556
Cr18 F71 1.974530 1_556
Cr18 F40 1.995505 1_455
Cr18 F66 1.998727 1_555
Cr19 F15 1.919354 1_555
Cr19 F77 1.925116 1_555
Cr19 F41 1.953945 1_555
Cr19 F95 1.977029 1_555
Cr19 F35 2.001301 1_655
Cr19 F92 2.003676 1_555
Cr20 F70 1.999247 1_555
Cr20 F88 2.006673 1_455
Cr20 F18 2.063771 1_555
Cr20 F46 2.066430 1_555
Cr20 F100 2.411394 1_555
Cr20 F37 2.626274 1_555
Cr21 F3 1.919435 1_555
Cr21 F100 1.931271 1_555
Cr21 F83 1.952966 1_455
Cr21 F96 1.985144 1_455
Cr21 F82 2.001462 1_555
Cr21 F28 2.003094 1_455
Cr22 F57 1.984901 1_655
Cr22 F104 1.998447 1_555
Cr22 F96 2.077653 1_555
Cr22 F111 2.078540 1_555
Cr22 F75 2.422851 1_565
Cr22 F3 2.565162 1_655
Cr23 F57 1.984771 1_555
Cr23 F104 1.998439 1_555
Cr23 F30 2.070298 1_555
Cr23 F22 2.072155 1_555
Cr23 F55 2.424670 1_565
Cr23 F94 2.578190 1_555
Cr24 F29 1.920297 1_555
Cr24 F78 1.931195 1_555
Cr24 F26 1.956195 1_555
Cr24 F113 1.984393 1_555
Cr24 F64 1.998982 1_555
Cr24 F45 1.999025 1_555
Cr25 F23 1.986585 1_455
Cr25 F60 2.001097 1_555
Cr25 F114 2.053910 1_555
Cr25 F43 2.203174 1_555
Cr25 F90 2.293773 1_455
Cr25 F54 2.579345 1_555
Cr26 F16 1.904828 1_555
Cr26 F69 1.925319 1_555
Cr26 F27 1.967768 1_555
Cr26 F5 1.970056 1_555
Cr26 F102 1.973098 1_555
Cr26 F42 1.995886 1_555
Cr27 F37 1.916365 1_555
Cr27 F55 1.934162 1_555
Cr27 F114 1.958358 1_555
Cr27 F32 1.975436 1_555
Cr27 F56 1.990791 1_455
Cr27 F18 1.992694 1_555
Cr28 F70 1.997507 1_555
Cr28 F88 2.006457 1_555
Cr28 F99 2.062034 1_555
Cr28 F38 2.066364 1_555
Cr28 F50 2.422867 1_555
Cr28 F52 2.652939 1_555
Cr29 F49 1.913821 1_555
Cr29 F80 1.933433 1_555
Cr29 F123 1.960907 1_555
Cr29 F106 1.976050 1_555
Cr29 F121 1.989500 1_555
Cr29 F122 1.992674 1_655
Cr30 F6 1.907375 1_555
Cr30 F81 1.923913 1_555
Cr30 F27 1.967208 1_455
Cr30 F5 1.969777 1_555
Cr30 F117 1.976979 1_555
Cr30 F39 1.993902 1_555
Cr31 F65 1.984141 1_555
Cr31 F108 1.989926 1_555
Cr31 F26 2.060809 1_555
Cr31 F33 2.246146 1_555
Cr31 F69 2.258076 1_545
Cr31 F105 2.611509 1_555
Cr32 F17 1.908072 1_555
Cr32 F51 1.925568 1_555
Cr32 F76 1.966469 1_655
Cr32 F84 1.968701 1_555
Cr32 F38 1.975996 1_555
Cr32 F95 1.992673 1_555
Cr33 F65 1.984595 1_555
Cr33 F108 1.990830 1_655
Cr33 F97 2.061654 1_655
Cr33 F15 2.245031 1_555
Cr33 F81 2.253979 1_645
Cr33 F77 2.600109 1_555
Cr34 F9 1.913787 1_555
Cr34 F63 1.933658 1_555
Cr34 F12 1.957755 1_555
Cr34 F106 1.975952 1_555
Cr34 F116 1.992909 1_555
Cr34 F122 1.992999 1_555
Cr35 F24 1.920494 1_555
Cr35 F14 1.924920 1_555
Cr35 F41 1.954547 1_555
Cr35 F42 1.977846 1_555
Cr35 F10 2.000426 1_555
Cr35 F8 2.002658 1_555
Cr36 F72 1.923111 1_555
Cr36 F0 1.925164 1_555
Cr36 F7 1.952843 1_565
Cr36 F53 1.977511 1_554
Cr36 F109 1.995525 1_655
Cr36 F86 1.995649 1_555
Cr37 F62 1.920067 1_555
Cr37 F110 1.924639 1_555
Cr37 F7 1.953903 1_556
Cr37 F68 1.975348 1_556
Cr37 F40 1.996561 1_555
Cr37 F66 1.999360 1_555
Cr38 F34 1.984642 1_555
Cr38 F20 1.991761 1_455
Cr38 F83 2.061461 1_455
Cr38 F51 2.246325 1_465
Cr38 F31 2.249193 1_555
Cr38 F58 2.646660 1_555
Cr39 F94 1.920184 1_555
Cr39 F50 1.931442 1_555
Cr39 F25 1.954185 1_555
Cr39 F30 1.986481 1_555
Cr39 F82 2.001226 1_555
Cr39 F28 2.003468 1_555
F0 K18 2.687617 1_555
F0 F109 2.732607 1_655
F0 K19 2.733713 1_555
F0 F86 2.812775 1_555
F1 F46 2.697732 1_555
F1 F4 2.722257 1_555
F1 F84 2.762153 1_555
F1 F76 2.775263 1_555
F1 F35 2.805013 1_555
F1 F92 2.808228 1_555
F1 K17 3.427981 1_555
F2 F71 2.693594 1_555
F2 F91 2.734242 1_544
F2 F86 2.757605 1_545
F2 F66 2.762461 1_554
F3 F96 2.624124 1_455
F3 K11 2.700771 1_555
F3 K2 2.757221 1_455
F4 F8 2.747599 1_455
F5 F6 2.710910 1_555
F6 K9 2.672958 1_465
F6 F81 2.676817 1_555
F6 K5 2.747299 1_555
F7 F86 2.753310 1_545
F8 K15 3.039065 1_555
F9 K9 2.641194 1_465
F9 K5 2.772776 1_555
F10 F14 2.717376 1_555
F10 F58 2.727840 1_555
F10 F39 2.788616 1_555
F10 F42 2.798157 1_555
F10 F31 2.805080 1_555
F10 F24 2.817984 1_555
F10 K17 3.091037 1_555
F11 F68 2.700153 1_555
F11 F36 2.745729 1_555
F11 K19 2.869072 1_545
F11 K18 2.914105 1_545
F12 F122 2.774546 1_555
F12 K6 2.945707 1_555
F13 F48 2.639887 1_455
F13 F97 2.709798 1_555
F13 K5 2.778103 1_545
F13 F45 2.792217 1_455
F13 K9 2.886999 1_455
F14 F24 2.641099 1_555
F14 K12 2.672079 1_555
F14 K17 2.733275 1_555
F15 F81 2.636250 1_645
F15 F77 2.638252 1_555
F15 F35 2.723190 1_655
F15 K15 2.734492 1_545
F15 K0 2.858035 1_655
F16 K9 2.660666 1_565
F16 F5 2.696662 1_555
F16 F69 2.699288 1_555
F16 K5 2.767233 1_555
F17 K4 2.679436 1_655
F17 F51 2.683545 1_555
F17 F84 2.715683 1_555
F17 K13 2.746721 1_555
F18 F37 2.625020 1_555
F18 K2 2.785032 1_455
F18 F56 2.809455 1_455
F18 K11 2.825484 1_555
F19 F64 2.765667 1_655
F19 F45 2.804106 1_555
F19 K10 2.842694 1_655
F19 K3 2.845757 1_555
F20 K15 2.791333 1_555
F21 F62 2.630298 1_555
F21 F61 2.759031 1_555
F21 K16 2.770136 1_556
F21 K1 2.945350 1_555
F22 F91 2.710357 1_555
F22 F79 2.757303 1_555
F22 F61 2.786838 1_555
F22 K7 2.906643 1_565
F22 K14 2.941473 1_565
F23 K7 3.304393 1_655
F24 F44 2.643885 1_565
F24 F8 2.723345 1_555
F24 K0 2.732326 1_565
F24 K15 2.839485 1_555
F25 F30 2.698378 1_555
F25 F28 2.772108 1_555
F25 F82 2.791796 1_555
F25 K13 3.364468 1_565
F26 F64 2.786419 1_555
F26 F45 2.791770 1_555
F26 K5 3.390273 1_545
F27 F42 2.775718 1_555
F27 F39 2.780599 1_655
F28 F50 2.743938 1_555
F28 F94 2.747613 1_555
F28 F3 2.749670 1_655
F28 F83 2.766497 1_555
F28 K2 3.104860 1_555
F28 K12 3.224821 1_555
F29 K6 2.701408 1_555
F29 F64 2.722000 1_555
F29 K8 2.757847 1_555
F30 F94 2.630434 1_555
F30 K13 2.774850 1_565
F30 F82 2.794280 1_555
F30 K4 2.878029 1_565
F31 F51 2.638826 1_465
F31 F58 2.647275 1_555
F31 K0 2.718806 1_565
F31 F8 2.740436 1_455
F31 K15 2.874238 1_455
F32 F37 2.708542 1_555
F32 F52 2.711350 1_555
F32 F75 2.736053 1_555
F32 F55 2.738885 1_555
F32 F67 2.758487 1_555
F32 K13 3.235889 1_555
F33 F69 2.653355 1_545
F33 K15 2.722675 1_545
F33 F35 2.723188 1_555
F33 F92 2.815766 1_555
F33 K0 2.866113 1_555
F34 K4 3.276353 1_565
F35 F41 2.769608 1_455
F35 F4 2.773250 1_555
F35 F95 2.818207 1_455
F35 K0 3.038912 1_555
F36 F71 2.759300 1_555
F36 F59 2.766680 1_555
F36 F68 2.771026 1_555
F36 K18 3.016726 1_545
F37 K4 2.636290 1_555
F37 K13 2.783561 1_555
F38 F95 2.703280 1_555
F38 F76 2.707818 1_655
F38 K17 2.839990 1_555
F38 K12 2.947480 1_555
F39 F4 2.719585 1_555
F39 F5 2.747340 1_555
F39 K3 3.436042 1_555
F40 F54 2.737724 1_655
F40 F71 2.793864 1_656
F40 F62 2.797650 1_555
F40 F68 2.809769 1_556
F40 K7 3.242330 1_655
F41 F95 2.708475 1_555
F41 F42 2.714650 1_555
F41 F8 2.769042 1_555
F41 F92 2.821333 1_555
F42 F5 2.772076 1_555
F42 F8 2.809538 1_555
F42 K3 3.419253 1_555
F43 F90 2.633253 1_455
F43 F66 2.705876 1_555
F43 K16 2.717457 1_456
F43 K1 2.833406 1_555
F44 F84 2.762981 1_555
F44 K0 2.780756 1_555
F44 K15 2.918668 1_545
F45 K9 2.760802 1_555
F45 F78 2.788210 1_555
F45 F97 2.801805 1_655
F46 F76 2.710905 1_555
F46 K17 2.820755 1_555
F46 K12 2.949663 1_455
F47 F90 2.680673 1_455
F47 K2 2.688694 1_455
F47 K11 2.711024 1_555
F47 F61 2.739468 1_555
F48 K6 2.687341 1_555
F48 F64 2.741421 1_655
F48 K8 2.748259 1_655
F49 K9 2.643114 1_565
F49 K5 2.771045 1_555
F50 F82 2.801051 1_555
F50 K12 2.825371 1_555
F50 K17 2.858469 1_555
F51 K0 2.778020 1_655
F51 K15 2.924423 1_545
F52 K4 2.628003 1_655
F52 F99 2.634432 1_555
F52 K13 2.789963 1_555
F53 F7 2.713598 1_566
F53 F79 2.771065 1_555
F53 F61 2.781017 1_655
F53 F86 2.804696 1_556
F54 K14 2.693638 1_555
F54 K7 2.741773 1_555
F55 K7 2.796838 1_555
F55 F56 2.801828 1_455
F55 K14 2.864861 1_555
F56 F67 2.757870 1_555
F56 K2 3.272165 1_555
F56 K7 3.323912 1_655
F57 K4 3.266505 1_565
F58 K12 2.683462 1_455
F58 K17 2.712897 1_555
F59 F71 2.712458 1_555
F59 K19 2.838349 1_445
F59 K18 2.952409 1_545
F60 K1 2.759926 1_555
F61 F90 2.739681 1_455
F61 K1 3.518468 1_555
F62 K16 2.709887 1_556
F62 F66 2.723298 1_555
F62 K1 2.858849 1_555
F63 K19 2.790324 1_455
F63 K18 2.839485 1_555
F64 F78 2.751766 1_555
F64 F97 2.759474 1_555
F64 K8 3.113003 1_555
F64 K10 3.259966 1_555
F65 K9 3.290053 1_555
F66 F7 2.767578 1_556
F66 F68 2.787559 1_556
F66 F71 2.799525 1_556
F66 K1 3.083892 1_555
F67 F99 2.704407 1_555
F67 K11 2.965503 1_555
F68 F7 2.703997 1_555
F68 K19 3.683169 1_545
F69 K15 2.787687 1_555
F69 K0 2.898399 1_565
F70 K13 2.910008 1_555
F71 K19 3.688263 1_445
F72 F89 2.644251 1_655
F72 F86 2.704026 1_555
F72 K1 2.723307 1_654
F72 K16 2.834147 1_555
F73 F87 2.672134 1_555
F73 K8 2.697314 1_555
F73 K6 2.711606 1_555
F74 K19 3.350096 1_455
F75 K7 2.786454 1_655
F75 K14 2.848640 1_555
F76 F95 2.778814 1_455
F77 K10 2.688914 1_655
F77 K3 2.724644 1_555
F77 F92 2.742735 1_555
F78 K10 2.829987 1_555
F78 K3 2.873149 1_555
F79 F91 2.751197 1_555
F79 K14 3.020408 1_565
F80 K19 2.805809 1_555
F80 K18 2.829298 1_555
F81 K15 2.792349 1_455
F81 K0 2.914591 1_565
F82 K4 2.762458 1_565
F82 F83 2.792977 1_455
F83 F96 2.723594 1_555
F83 K13 3.422121 1_565
F84 F95 2.751508 1_555
F85 K9 3.244417 1_555
F86 F91 2.789906 1_554
F86 K16 3.124860 1_555
F87 K1 2.745056 1_554
F87 K16 2.928439 1_555
F88 K12 2.860698 1_555
F89 K1 2.768354 1_554
F89 K16 2.903861 1_455
F90 K16 2.787606 1_556
F90 K1 2.948464 1_655
F92 F95 2.791860 1_555
F92 K3 3.099814 1_555
F93 K18 2.687197 1_555
F93 K19 2.747504 1_455
F94 K11 2.695552 1_555
F94 K2 2.757830 1_555
F95 K17 3.453472 1_555
F96 K13 2.772073 1_565
F96 K4 2.894790 1_665
F97 K5 3.419091 1_545
F98 K5 2.917739 1_555
F99 K2 2.805552 1_555
F99 K11 2.821969 1_555
F100 F28 2.758630 1_455
F100 F46 2.782644 1_555
F100 F82 2.797755 1_555
F100 K17 2.831612 1_555
F100 K12 2.863476 1_455
F101 F87 2.741801 1_555
F101 F89 2.742627 1_655
F101 F73 2.744392 1_555
F101 F112 2.746223 1_555
F101 F68 2.761311 1_555
F101 F71 2.766659 1_655
F101 K16 3.486771 1_555
F102 F42 2.697288 1_555
F102 F27 2.704966 1_555
F102 F19 2.765992 1_555
F102 F16 2.777396 1_555
F102 K3 2.824052 1_555
F102 K10 2.896450 1_655
F103 K16 2.748567 1_555
F104 K14 3.152708 1_565
F104 K2 3.285169 1_555
F105 F33 2.644214 1_555
F105 K10 2.688288 1_555
F105 F92 2.730267 1_555
F105 K3 2.734160 1_555
F106 F49 2.697188 1_555
F106 F9 2.702793 1_555
F106 F63 2.740300 1_555
F106 F80 2.745871 1_555
F106 F12 2.757068 1_555
F106 F123 2.767048 1_555
F106 F116 2.792177 1_555
F106 K5 3.213771 1_555
F107 F21 2.663471 1_555
F107 K2 2.695338 1_555
F107 K11 2.717720 1_555
F107 F61 2.739530 1_555
F108 K0 2.793123 1_555
F109 F93 2.737819 1_555
F109 F115 2.803554 1_555
F109 K19 3.241171 1_455
F110 K14 2.687394 1_555
F110 K7 2.725905 1_655
F110 F40 2.747192 1_555
F111 F53 2.702389 1_555
F111 F79 2.749003 1_555
F111 F47 2.786990 1_655
F111 K7 2.878445 1_665
F111 K14 2.898095 1_565
F112 K8 2.677297 1_655
F112 F89 2.679516 1_655
F112 K6 2.720610 1_555
F112 F59 2.790135 1_655
F113 F29 2.631395 1_555
F113 F26 2.693120 1_555
F113 K5 2.778398 1_545
F113 K9 2.852732 1_555
F114 F18 2.689141 1_555
F114 F32 2.739368 1_555
F114 F56 2.787034 1_455
F114 K11 2.927796 1_555
F115 F87 2.641714 1_555
F115 K1 2.717382 1_554
F115 F86 2.723177 1_555
F115 K16 2.861146 1_555
F116 F9 2.643907 1_555
F116 F12 2.702564 1_555
F116 F122 2.804218 1_555
F116 K8 2.810506 1_555
F116 K6 2.835664 1_555
F117 F39 2.705683 1_555
F117 F27 2.713431 1_455
F117 F78 2.786569 1_555
F117 K3 2.833345 1_555
F117 K10 2.917828 1_555
F118 K18 3.118230 1_545
F118 K8 3.367706 1_555
F119 K10 2.877671 1_555
F120 K4 2.675604 1_555
F120 F44 2.686973 1_555
F120 F84 2.710217 1_555
F120 K13 2.734711 1_555
F121 F49 2.636227 1_555
F121 F123 2.686143 1_555
F121 K8 2.805969 1_655
F121 K6 2.843157 1_555
F122 F123 2.772007 1_455
F122 K8 3.263288 1_555
F122 K19 3.357195 1_455
F123 K6 2.927152 1_555
