# generated using pymatgen
data_TaNCl6
_symmetry_space_group_name_H-M   'P 1'
_cell_length_a   6.97301728
_cell_length_b   6.97301728
_cell_length_c   12.47431824
_cell_angle_alpha   79.25377589
_cell_angle_beta   79.25377589
_cell_angle_gamma   55.20162707
_symmetry_Int_Tables_number   1
_chemical_formula_structural   TaNCl6
_chemical_formula_sum   'Ta2 N2 Cl12'
_cell_volume   486.91887362
_cell_formula_units_Z   2
loop_
 _symmetry_equiv_pos_site_id
 _symmetry_equiv_pos_as_xyz
  1  'x, y, z'
loop_
 _atom_site_type_symbol
 _atom_site_label
 _atom_site_symmetry_multiplicity
 _atom_site_fract_x
 _atom_site_fract_y
 _atom_site_fract_z
 _atom_site_occupancy
  Ta  Ta0  1  0.50000000  0.00000000  0.50000000  1
  Ta  Ta1  1  0.00000000  0.50000000  0.00000000  1
  N  N0  1  0.88079000  0.11921000  0.75000000  1
  N  N1  1  0.11921000  0.88079000  0.25000000  1
  Cl  Cl0  1  0.46415100  0.70023000  0.60281000  1
  Cl  Cl1  1  0.53584900  0.29977000  0.39719000  1
  Cl  Cl2  1  0.29977000  0.53584900  0.89719000  1
  Cl  Cl3  1  0.70023000  0.46415100  0.10281000  1
  Cl  Cl4  1  0.37074300  0.20012300  0.65813000  1
  Cl  Cl5  1  0.62925700  0.79987700  0.34187000  1
  Cl  Cl6  1  0.79987700  0.62925700  0.84187000  1
  Cl  Cl7  1  0.20012300  0.37074300  0.15813000  1
  Cl  Cl8  1  0.79554000  0.89223100  0.04047300  1
  Cl  Cl9  1  0.20446000  0.10776900  0.95952700  1
  Cl  Cl10  1  0.10776900  0.20446000  0.45952700  1
  Cl  Cl11  1  0.89223100  0.79554000  0.54047300  1
loop_
_geom_bond_atom_site_label_1
_geom_bond_atom_site_label_2
_geom_bond_distance
_geom_bond_site_symmetry_2
Cl0 Ta0 2.356639 1_565
Cl0 N0 3.742536 1_555
Cl0 N0 3.755570 1_465
Cl1 Ta0 2.356639 1_555
Cl1 N1 3.742536 1_555
Cl1 N1 3.755570 1_645
Cl2 Ta1 2.356639 1_556
Cl2 N0 3.742536 1_555
Cl2 N0 3.755570 1_465
Cl3 Ta1 2.356639 1_655
Cl3 N1 3.742536 1_555
Cl3 N1 3.755570 1_645
Cl4 Ta0 2.361909 1_555
Cl4 N0 3.642712 1_555
Cl4 N0 3.715200 1_455
Cl5 Ta0 2.361909 1_565
Cl5 N1 3.642712 1_555
Cl5 N1 3.715200 1_655
Cl6 Ta1 2.361909 1_656
Cl6 N0 3.642712 1_555
Cl6 N0 3.715200 1_565
Cl7 Ta1 2.361909 1_555
Cl7 N1 3.642712 1_555
Cl7 N1 3.715200 1_545
Cl8 Ta1 2.358774 1_655
Cl8 N1 3.721325 1_655
Cl8 N0 3.757627 1_564
Cl9 Ta1 2.358774 1_556
Cl9 N0 3.721325 1_455
Cl9 N1 3.757627 1_546
Cl10 Ta0 2.358774 1_555
Cl10 N1 3.721325 1_545
Cl10 N0 3.757627 1_455
Cl11 Ta0 2.358774 1_565
Cl11 N0 3.721325 1_565
Cl11 N1 3.757627 1_655
