# generated using pymatgen
data_Ba2ZnCuSn2F14
_symmetry_space_group_name_H-M   'P 1'
_cell_length_a   5.46625100
_cell_length_b   7.84296876
_cell_length_c   15.52183822
_cell_angle_alpha   90.08628000
_cell_angle_beta   91.50375033
_cell_angle_gamma   109.50953445
_symmetry_Int_Tables_number   1
_chemical_formula_structural   Ba2ZnCuSn2F14
_chemical_formula_sum   'Ba4 Zn2 Cu2 Sn4 F28'
_cell_volume   626.98733828
_cell_formula_units_Z   2
loop_
 _symmetry_equiv_pos_site_id
 _symmetry_equiv_pos_as_xyz
  1  'x, y, z'
loop_
 _atom_site_type_symbol
 _atom_site_label
 _atom_site_symmetry_multiplicity
 _atom_site_fract_x
 _atom_site_fract_y
 _atom_site_fract_z
 _atom_site_occupancy
  Ba  Ba0  1  0.08507700  0.34974400  0.61605500  1
  Ba  Ba1  1  0.26575300  0.34948800  0.13235900  1
  Ba  Ba2  1  0.89623400  0.62815500  0.37132400  1
  Ba  Ba3  1  0.73734500  0.64608700  0.87642700  1
  Zn  Zn0  1  0.47104700  0.00221100  0.75128500  1
  Zn  Zn1  1  0.52184500  0.01061300  0.25803800  1
  Cu  Cu0  1  0.50745900  0.00133900  0.00313300  1
  Cu  Cu1  1  0.50054300  0.01416000  0.49659800  1
  Sn  Sn0  1  0.10609100  0.24683100  0.87495100  1
  Sn  Sn1  1  0.14974600  0.23091800  0.37814700  1
  Sn  Sn2  1  0.90431800  0.75592600  0.12264800  1
  Sn  Sn3  1  0.85648000  0.75934000  0.62669800  1
  F  F0  1  0.79818800  0.94626100  0.31271200  1
  F  F1  1  0.86069700  0.31948800  0.46234000  1
  F  F2  1  0.11581000  0.69913600  0.55191300  1
  F  F3  1  0.62200000  0.50403400  0.60357300  1
  F  F4  1  0.63159800  0.07458300  0.63949400  1
  F  F5  1  0.54724200  0.92301100  0.86945900  1
  F  F6  1  0.43280200  0.30795800  0.95288500  1
  F  F7  1  0.91918200  0.00701100  0.14633200  1
  F  F8  1  0.35585000  0.34733300  0.77748300  1
  F  F9  1  0.38174100  0.51870000  0.40263800  1
  F  F10  1  0.81151100  0.23893900  0.78947700  1
  F  F11  1  0.13420400  0.50881100  0.89797700  1
  F  F12  1  0.47164300  0.24833900  0.27013700  1
  F  F13  1  0.18713100  0.76797200  0.21129500  1
  F  F14  1  0.45911100  0.06591900  0.12586200  1
  F  F15  1  0.64242000  0.64094200  0.21247700  1
  F  F16  1  0.09421300  0.82757000  0.01068900  1
  F  F17  1  0.11591700  0.99548300  0.67210900  1
  F  F18  1  0.89982700  0.16778000  0.98247700  1
  F  F19  1  0.72918500  0.84865000  0.51810800  1
  F  F20  1  0.58153600  0.70021100  0.04226200  1
  F  F21  1  0.58639300  0.76450000  0.71639500  1
  F  F22  1  0.00908100  0.37313300  0.26886600  1
  F  F23  1  0.28190000  0.16657500  0.52105300  1
  F  F24  1  0.33312500  0.92349300  0.37448200  1
  F  F25  1  0.11579200  0.99886300  0.83980200  1
  F  F26  1  0.00811200  0.65019700  0.72609600  1
  F  F27  1  0.88491900  0.50127800  0.09263200  1
loop_
_geom_bond_atom_site_label_1
_geom_bond_atom_site_label_2
_geom_bond_distance
_geom_bond_site_symmetry_2
Ba0 F23 2.550493 1_555
Ba0 F1 2.627483 1_455
Ba0 F4 2.722293 1_455
Ba0 F3 2.788223 1_555
Ba0 F2 2.870199 1_555
Ba0 F8 2.879863 1_555
Ba0 F17 2.969459 1_545
Ba0 F26 3.055320 1_555
Ba0 F10 3.096392 1_455
Ba0 F3 3.151223 1_455
Ba1 F22 2.611705 1_555
Ba1 F12 2.635255 1_555
Ba1 F7 2.734098 1_455
Ba1 F14 2.765605 1_555
Ba1 F27 2.778714 1_455
Ba1 F15 2.779284 1_555
Ba1 F6 3.004968 1_554
Ba1 F18 3.047309 1_454
Ba1 F20 3.077107 1_555
Ba1 F27 3.266951 1_555
Ba2 F9 2.709784 1_555
Ba2 F24 2.714732 1_655
Ba2 F1 2.757671 1_555
Ba2 F22 2.788579 1_655
Ba2 F15 2.815720 1_555
Ba2 F0 2.865966 1_555
Ba2 F13 2.991953 1_655
Ba2 F2 2.996694 1_655
Ba2 F9 3.077604 1_655
Ba2 F19 3.188633 1_555
Ba3 F5 2.703884 1_555
Ba3 F11 2.738628 1_655
Ba3 F26 2.790362 1_655
Ba3 F20 2.807958 1_556
Ba3 F16 2.845606 1_656
Ba3 F21 2.850401 1_555
Ba3 F6 2.894288 1_555
Ba3 F25 2.915708 1_655
Ba3 F8 2.958880 1_555
Ba3 F11 3.135094 1_555
Cu0 F14 2.016993 1_555
Cu0 F18 2.138746 1_554
Cu0 F5 2.199734 1_544
Cu0 F16 2.220795 1_545
Cu0 F20 2.596308 1_545
Cu0 F6 2.683722 1_554
Cu1 F23 1.994525 1_555
Cu1 F24 2.099091 1_545
Cu1 F19 2.102755 1_545
Cu1 F4 2.311715 1_555
Cu1 F1 2.608237 1_555
Cu1 F2 2.809810 1_545
F0 Zn1 1.923525 1_565
F0 Sn1 2.594986 1_665
F0 F7 2.686400 1_565
F0 F24 2.690524 1_555
F0 F15 2.727113 1_555
F1 Sn1 2.350642 1_655
F1 F9 2.929589 1_655
F1 F23 3.050797 1_655
F1 F2 3.139423 1_655
F1 F23 3.146272 1_555
F1 F3 3.163078 1_555
F2 Sn3 2.027728 1_455
F2 F3 2.762079 1_455
F2 F26 2.781961 1_555
F3 Sn3 2.010116 1_555
F4 Zn0 1.963028 1_555
F5 Zn0 2.014951 1_565
F6 Sn0 2.048303 1_555
F6 F8 2.777379 1_555
F7 Sn2 1.977139 1_545
F8 Sn0 2.041382 1_555
F9 Sn1 2.215256 1_555
F10 Sn0 2.044005 1_655
F10 Zn0 2.212010 1_555
F10 F4 2.659417 1_555
F10 F5 2.734995 1_545
F10 F11 2.786987 1_655
F10 F8 2.819740 1_655
F11 Sn0 2.038911 1_555
F11 F6 2.742336 1_555
F11 F8 2.776058 1_555
F12 Zn1 1.982483 1_555
F12 Sn1 2.433185 1_555
F12 F14 2.642621 1_555
F12 F22 2.769733 1_655
F12 F22 3.000327 1_555
F12 F9 3.115044 1_555
F13 Sn2 2.020521 1_455
F13 Zn1 2.257436 1_565
F13 F14 2.687324 1_565
F13 F24 2.788366 1_555
F13 F15 2.807156 1_455
F13 F27 2.831489 1_455
F13 F22 3.062073 1_555
F14 Zn1 2.140087 1_555
F14 F7 2.715422 1_555
F14 F16 2.825103 1_545
F15 Sn2 2.013228 1_555
F15 F20 2.714433 1_555
F15 F27 2.740525 1_555
F16 Sn2 2.030081 1_455
F16 F20 2.700987 1_455
F16 F27 2.757941 1_455
F17 Sn3 2.031601 1_455
F17 Zn0 2.255586 1_565
F17 F25 2.603019 1_555
F17 F26 2.711079 1_555
F17 F23 2.725658 1_565
F17 F4 2.737668 1_565
F18 Sn0 2.018952 1_655
F18 F5 2.796138 1_545
F18 F6 2.799968 1_655
F19 Sn3 2.020723 1_555
F19 F4 2.765591 1_565
F19 F2 2.777722 1_655
F20 Sn2 2.056398 1_555
F20 F27 2.731225 1_555
F21 Sn3 2.065744 1_555
F21 Zn0 2.228608 1_565
F21 F4 2.650126 1_565
F21 F5 2.726064 1_555
F21 F26 2.739142 1_655
F21 F3 2.747805 1_555
F22 Sn1 2.285308 1_555
F22 F9 2.825224 1_555
F22 F27 3.052869 1_455
F23 Sn1 2.420644 1_555
F24 Zn1 2.104428 1_565
F24 Sn1 2.904901 1_565
F25 Sn0 2.037140 1_565
F25 Zn0 2.401152 1_565
F25 F5 2.647433 1_555
F25 F8 2.793969 1_565
F26 Sn3 2.052039 1_455
F26 F3 2.748127 1_455
F27 Sn2 2.017487 1_555
