# generated using pymatgen
data_Ti5AgSn3
_symmetry_space_group_name_H-M   'P 1'
_cell_length_a   8.30486469
_cell_length_b   8.30486469
_cell_length_c   5.63828000
_cell_angle_alpha   90.00000000
_cell_angle_beta   90.00000000
_cell_angle_gamma   120.00000553
_symmetry_Int_Tables_number   1
_chemical_formula_structural   Ti5AgSn3
_chemical_formula_sum   'Ti10 Ag2 Sn6'
_cell_volume   336.77695752
_cell_formula_units_Z   2
loop_
 _symmetry_equiv_pos_site_id
 _symmetry_equiv_pos_as_xyz
  1  'x, y, z'
loop_
 _atom_site_type_symbol
 _atom_site_label
 _atom_site_symmetry_multiplicity
 _atom_site_fract_x
 _atom_site_fract_y
 _atom_site_fract_z
 _atom_site_occupancy
  Ti  Ti0  1  0.29059200  0.00000000  0.25000000  1
  Ti  Ti1  1  0.70940800  0.00000000  0.75000000  1
  Ti  Ti2  1  0.00000000  0.29059200  0.25000000  1
  Ti  Ti3  1  0.00000000  0.70940800  0.75000000  1
  Ti  Ti4  1  0.70940800  0.70940800  0.25000000  1
  Ti  Ti5  1  0.29059200  0.29059200  0.75000000  1
  Ti  Ti6  1  0.33333300  0.66666700  0.00000000  1
  Ti  Ti7  1  0.66666700  0.33333300  0.00000000  1
  Ti  Ti8  1  0.66666700  0.33333300  0.50000000  1
  Ti  Ti9  1  0.33333300  0.66666700  0.50000000  1
  Ag  Ag0  1  0.00000000  0.00000000  0.00000000  1
  Ag  Ag1  1  0.00000000  0.00000000  0.50000000  1
  Sn  Sn0  1  0.62583000  0.00000000  0.25000000  1
  Sn  Sn1  1  0.37417000  0.00000000  0.75000000  1
  Sn  Sn2  1  0.00000000  0.62583000  0.25000000  1
  Sn  Sn3  1  0.00000000  0.37417000  0.75000000  1
  Sn  Sn4  1  0.37417000  0.37417000  0.25000000  1
  Sn  Sn5  1  0.62583000  0.62583000  0.75000000  1
loop_
_geom_bond_atom_site_label_1
_geom_bond_atom_site_label_2
_geom_bond_distance
_geom_bond_site_symmetry_2
Ti0 Ti9 3.280078 1_545
Ti0 Ti6 3.280078 1_545
Ti0 Ti8 3.280082 1_555
Ti0 Ti7 3.280082 1_555
Ti1 Ti8 3.280078 1_555
Ti1 Ti7 3.280078 1_556
Ti1 Ti9 3.280082 1_545
Ti1 Ti6 3.280082 1_546
Ti2 Ti7 3.280078 1_455
Ti2 Ti8 3.280078 1_455
Ti2 Ti9 3.280082 1_555
Ti2 Ti6 3.280082 1_555
Ti3 Ti9 3.280078 1_555
Ti3 Ti6 3.280078 1_556
Ti3 Ti8 3.280082 1_455
Ti3 Ti7 3.280082 1_456
Ti4 Ti8 3.280086 1_555
Ti4 Ti9 3.280086 1_555
Ti4 Ti7 3.280086 1_555
Ti4 Ti6 3.280086 1_555
Ti5 Ti8 3.280086 1_555
Ti5 Ti7 3.280086 1_556
Ti5 Ti9 3.280086 1_555
Ti5 Ti6 3.280086 1_556
Ti6 Ti9 2.819140 1_555
Ti6 Ti9 2.819140 1_554
Ti7 Ti8 2.819140 1_554
Ti7 Ti8 2.819140 1_555
Ag0 Ti5 2.794823 1_554
Ag0 Ti4 2.794823 1_445
Ag0 Ti2 2.794823 1_555
Ag0 Ti0 2.794823 1_555
Ag0 Ti3 2.794823 1_544
Ag0 Ti1 2.794823 1_454
Ag0 Ag1 2.819140 1_554
Ag0 Ag1 2.819140 1_555
Ag1 Ti5 2.794823 1_555
Ag1 Ti4 2.794823 1_445
Ag1 Ti2 2.794823 1_555
Ag1 Ti0 2.794823 1_555
Ag1 Ti3 2.794823 1_545
Ag1 Ti1 2.794823 1_455
Sn0 Ti0 2.784106 1_555
Sn0 Ti2 2.825071 1_655
Sn0 Ti4 2.825072 1_545
Sn0 Ti1 2.903331 1_554
Sn0 Ti1 2.903331 1_555
Sn0 Ti7 2.970936 1_555
Sn0 Ti8 2.970936 1_555
Sn0 Ti6 2.970939 1_545
Sn0 Ti9 2.970939 1_545
Sn1 Ti1 2.784106 1_555
Sn1 Ti3 2.825071 1_545
Sn1 Ti5 2.825072 1_555
Sn1 Ti0 2.903331 1_556
Sn1 Ti0 2.903331 1_555
Sn1 Ti9 2.970936 1_545
Sn1 Ti6 2.970936 1_546
Sn1 Ti8 2.970939 1_555
Sn1 Ti7 2.970939 1_556
Sn2 Ti2 2.784106 1_555
Sn2 Ti0 2.825071 1_565
Sn2 Ti4 2.825072 1_455
Sn2 Ti3 2.903331 1_555
Sn2 Ti3 2.903331 1_554
Sn2 Ti9 2.970936 1_555
Sn2 Ti6 2.970936 1_555
Sn2 Ti7 2.970939 1_455
Sn2 Ti8 2.970939 1_455
Sn3 Ti3 2.784106 1_555
Sn3 Ti1 2.825071 1_455
Sn3 Ti5 2.825072 1_555
Sn3 Ti2 2.903331 1_555
Sn3 Ti2 2.903331 1_556
Sn3 Ti7 2.970936 1_456
Sn3 Ti8 2.970936 1_455
Sn3 Ti9 2.970939 1_555
Sn3 Ti6 2.970939 1_556
Sn4 Ti4 2.784106 1_555
Sn4 Ti2 2.825071 1_555
Sn4 Ti0 2.825071 1_555
Sn4 Ti5 2.903331 1_555
Sn4 Ti5 2.903331 1_554
Sn4 Ti7 2.970943 1_555
Sn4 Ti8 2.970943 1_555
Sn4 Ti9 2.970943 1_555
Sn4 Ti6 2.970943 1_555
Sn5 Ti5 2.784106 1_555
Sn5 Ti3 2.825071 1_655
Sn5 Ti1 2.825071 1_565
Sn5 Ti4 2.903331 1_556
Sn5 Ti4 2.903331 1_555
Sn5 Ti8 2.970943 1_555
Sn5 Ti7 2.970943 1_556
Sn5 Ti6 2.970943 1_556
Sn5 Ti9 2.970943 1_555
