# generated using pymatgen
data_Ta3Pd
_symmetry_space_group_name_H-M   'P 1'
_cell_length_a   5.14797665
_cell_length_b   5.14797665
_cell_length_c   5.14797665
_cell_angle_alpha   133.56286541
_cell_angle_beta   133.56286541
_cell_angle_gamma   67.77157362
_symmetry_Int_Tables_number   1
_chemical_formula_structural   Ta3Pd
_chemical_formula_sum   'Ta3 Pd1'
_cell_volume   70.41211701
_cell_formula_units_Z   1
loop_
 _symmetry_equiv_pos_site_id
 _symmetry_equiv_pos_as_xyz
  1  'x, y, z'
loop_
 _atom_site_type_symbol
 _atom_site_label
 _atom_site_symmetry_multiplicity
 _atom_site_fract_x
 _atom_site_fract_y
 _atom_site_fract_z
 _atom_site_occupancy
  Ta  Ta0  1  0.75000000  0.25000000  0.50000000  1
  Ta  Ta1  1  0.25000000  0.75000000  0.50000000  1
  Ta  Ta2  1  0.50000000  0.50000000  0.00000000  1
  Pd  Pd0  1  0.00000000  0.00000000  0.00000000  1
loop_
_geom_bond_atom_site_label_1
_geom_bond_atom_site_label_2
_geom_bond_distance
_geom_bond_site_symmetry_2
Ta0 Ta1 2.870199 1_544
Ta0 Ta1 2.870199 1_555
Ta0 Ta1 2.870199 1_656
Ta0 Ta1 2.870199 1_645
Ta0 Ta2 2.947020 1_555
Ta0 Ta2 2.947020 1_556
Ta0 Ta2 2.947020 1_545
Ta0 Ta2 2.947020 1_656
Ta1 Ta2 2.947020 1_555
Ta1 Ta2 2.947020 1_455
Ta1 Ta2 2.947020 1_556
Ta1 Ta2 2.947020 1_566
Pd0 Ta2 2.870199 1_455
Pd0 Ta2 2.870199 1_444
Pd0 Ta2 2.870199 1_556
Pd0 Ta2 2.870199 1_545
Pd0 Ta1 2.947020 1_444
Pd0 Ta0 2.947020 1_455
Pd0 Ta0 2.947020 1_454
Pd0 Ta0 2.947020 1_555
Pd0 Ta1 2.947020 1_544
Pd0 Ta1 2.947020 1_555
Pd0 Ta0 2.947020 1_444
Pd0 Ta1 2.947020 1_545
