# generated using pymatgen
data_Mg14BSb
_symmetry_space_group_name_H-M   'P 1'
_cell_length_a   6.33636479
_cell_length_b   6.53736560
_cell_length_c   9.93121908
_cell_angle_alpha   90.00000000
_cell_angle_beta   90.00000000
_cell_angle_gamma   121.05502111
_symmetry_Int_Tables_number   1
_chemical_formula_structural   Mg14BSb
_chemical_formula_sum   'Mg14 B1 Sb1'
_cell_volume   352.41975064
_cell_formula_units_Z   1
loop_
 _symmetry_equiv_pos_site_id
 _symmetry_equiv_pos_as_xyz
  1  'x, y, z'
loop_
 _atom_site_type_symbol
 _atom_site_label
 _atom_site_symmetry_multiplicity
 _atom_site_fract_x
 _atom_site_fract_y
 _atom_site_fract_z
 _atom_site_occupancy
  Mg  Mg0  1  0.17554459  0.33777180  0.62500000  1
  Mg  Mg1  1  0.17879711  0.83939805  0.62500000  1
  Mg  Mg2  1  0.70977325  0.35049181  0.12500000  1
  Mg  Mg3  1  0.66802128  0.32941019  0.62500000  1
  Mg  Mg4  1  0.70977325  0.85928044  0.12500000  1
  Mg  Mg5  1  0.66802128  0.83861009  0.62500000  1
  Mg  Mg6  1  0.32371306  0.17900606  0.35338499  1
  Mg  Mg7  1  0.32371306  0.17900606  0.89661501  1
  Mg  Mg8  1  0.32371306  0.64470800  0.35338499  1
  Mg  Mg9  1  0.32371306  0.64470800  0.89661501  1
  Mg  Mg10  1  0.84233575  0.17116837  0.36519711  1
  Mg  Mg11  1  0.84233575  0.17116837  0.88480289  1
  Mg  Mg12  1  0.83070941  0.66535521  0.38039928  1
  Mg  Mg13  1  0.83070941  0.66535521  0.86960072  1
  B  B0  1  0.07971386  0.28985643  0.12500000  1
  Sb  Sb0  1  0.16941281  0.83470590  0.12500000  1
loop_
_geom_bond_atom_site_label_1
_geom_bond_atom_site_label_2
_geom_bond_distance
_geom_bond_site_symmetry_2
Mg0 Mg5 3.149058 1_555
Mg0 Mg3 3.149059 1_555
Mg0 Mg10 3.150983 1_455
Mg0 Mg11 3.150983 1_455
Mg0 Mg5 3.187998 1_445
Mg0 Mg3 3.187998 1_455
Mg0 Mg6 3.200060 1_555
Mg0 Mg7 3.200060 1_555
Mg0 Mg8 3.200066 1_555
Mg0 Mg9 3.200066 1_555
Mg0 Mg1 3.268730 1_555
Mg0 Mg1 3.268731 1_545
Mg1 Mg12 3.077513 1_455
Mg1 Mg13 3.077513 1_455
Mg1 Mg3 3.102563 1_565
Mg1 Mg5 3.102563 1_555
Mg1 Mg3 3.233807 1_455
Mg1 Mg5 3.233808 1_455
Mg1 Mg8 3.308352 1_555
Mg1 Mg9 3.308352 1_555
Mg1 Mg6 3.308359 1_565
Mg1 Mg7 3.308359 1_565
Mg2 Sb0 2.998478 1_655
Mg2 Mg6 3.091257 1_555
Mg2 Mg7 3.091257 1_554
Mg2 Mg4 3.211228 1_545
Mg2 Mg4 3.326137 1_555
Mg2 Sb0 3.343880 1_545
Mg3 Mg5 3.208540 1_545
Mg3 Mg7 3.284753 1_555
Mg3 Mg6 3.284753 1_555
Mg3 Mg5 3.328826 1_555
Mg4 Sb0 2.998479 1_655
Mg4 Mg8 3.091257 1_555
Mg4 Mg9 3.091257 1_554
Mg4 Sb0 3.343880 1_555
Mg5 Mg8 3.284752 1_555
Mg5 Mg9 3.284752 1_555
Mg6 Sb0 2.982634 1_545
Mg6 Mg8 3.044464 1_555
Mg6 Mg8 3.492902 1_545
Mg7 Sb0 2.982634 1_546
Mg7 Mg9 3.044464 1_555
Mg7 Mg9 3.492902 1_545
Mg8 Sb0 2.982626 1_555
Mg9 Sb0 2.982626 1_556
Mg10 Mg2 2.964142 1_555
Mg10 Mg4 2.964149 1_545
Mg10 Mg8 3.026343 1_655
Mg10 Mg6 3.026344 1_655
Mg10 Mg3 3.182169 1_555
Mg10 Mg5 3.182176 1_545
Mg10 Mg12 3.272776 1_545
Mg10 Mg12 3.272776 1_555
Mg10 Mg8 3.314981 1_545
Mg10 Mg6 3.314981 1_555
Mg11 Mg2 2.964142 1_556
Mg11 Mg4 2.964149 1_546
Mg11 Mg9 3.026343 1_655
Mg11 Mg7 3.026344 1_655
Mg11 Mg3 3.182169 1_555
Mg11 Mg5 3.182176 1_545
Mg11 Mg13 3.272776 1_545
Mg11 Mg13 3.272776 1_555
Mg11 Mg9 3.314981 1_545
Mg11 Mg7 3.314981 1_555
Mg12 Mg5 3.074256 1_555
Mg12 Mg3 3.074263 1_555
Mg12 Mg4 3.103253 1_555
Mg12 Mg2 3.103260 1_555
Mg12 Sb0 3.132684 1_655
Mg12 Mg6 3.156432 1_555
Mg12 Mg8 3.156432 1_555
Mg12 Mg6 3.206816 1_665
Mg12 Mg8 3.206816 1_655
Mg13 Mg5 3.074256 1_555
Mg13 Mg3 3.074263 1_555
Mg13 Mg4 3.103253 1_556
Mg13 Mg2 3.103260 1_556
Mg13 Sb0 3.132684 1_656
Mg13 Mg7 3.156432 1_555
Mg13 Mg9 3.156432 1_555
Mg13 Mg7 3.206816 1_665
Mg13 Mg9 3.206816 1_655
B0 Mg4 2.571088 1_445
B0 Mg2 2.571088 1_455
B0 Mg10 2.711216 1_455
B0 Mg11 2.711216 1_454
B0 Mg6 3.035764 1_555
B0 Mg7 3.035764 1_554
B0 Mg9 3.035771 1_554
B0 Mg8 3.035771 1_555
B0 Sb0 3.304748 1_555
B0 Sb0 3.304748 1_545
