# generated using pymatgen
data_Li3Cr(CoO3)2
_symmetry_space_group_name_H-M   'P 1'
_cell_length_a   2.96759078
_cell_length_b   5.92999795
_cell_length_c   12.63605258
_cell_angle_alpha   77.52091635
_cell_angle_beta   88.91726314
_cell_angle_gamma   88.02509300
_symmetry_Int_Tables_number   1
_chemical_formula_structural   Li3Cr(CoO3)2
_chemical_formula_sum   'Li6 Cr2 Co4 O12'
_cell_volume   216.96949221
_cell_formula_units_Z   2
loop_
 _symmetry_equiv_pos_site_id
 _symmetry_equiv_pos_as_xyz
  1  'x, y, z'
loop_
 _atom_site_type_symbol
 _atom_site_label
 _atom_site_symmetry_multiplicity
 _atom_site_fract_x
 _atom_site_fract_y
 _atom_site_fract_z
 _atom_site_occupancy
  Li  Li0  1  0.49801700  0.66918300  0.16596300  1
  Li  Li1  1  0.99829900  0.16913000  0.66725100  1
  Li  Li2  1  0.49160400  0.00480300  0.49617800  1
  Li  Li3  1  0.99346900  0.50182000  0.99594400  1
  Li  Li4  1  0.00000200  0.83468900  0.33650800  1
  Li  Li5  1  0.50418000  0.33278200  0.83632300  1
  Cr  Cr0  1  0.49866000  0.16865600  0.16593700  1
  Cr  Cr1  1  0.00147900  0.66829700  0.66695500  1
  Co  Co0  1  0.50973400  0.50598600  0.49757900  1
  Co  Co1  1  0.99881500  0.00196900  0.99785000  1
  Co  Co2  1  0.49073400  0.83172500  0.83567900  1
  Co  Co3  1  0.99392700  0.33490900  0.33385300  1
  O  O0  1  0.54055700  0.23433500  0.00388200  1
  O  O1  1  0.00442000  0.73983600  0.50366600  1
  O  O2  1  0.45545200  0.10162600  0.32876000  1
  O  O3  1  0.99853900  0.59723700  0.82967900  1
  O  O4  1  0.98140400  0.39569700  0.17542200  1
  O  O5  1  0.48737900  0.90007800  0.67288500  1
  O  O6  1  0.00982700  0.94015200  0.15630900  1
  O  O7  1  0.51463800  0.43760200  0.66109000  1
  O  O8  1  0.53220100  0.57020900  0.33722500  1
  O  O9  1  0.98426000  0.06717900  0.84108600  1
  O  O10  1  0.00503100  0.27154100  0.49131900  1
  O  O11  1  0.45495000  0.76340800  0.99512700  1
loop_
_geom_bond_atom_site_label_1
_geom_bond_atom_site_label_2
_geom_bond_distance
_geom_bond_site_symmetry_2
Li0 O6 2.111214 1_555
Li0 O4 2.112952 1_555
Li0 O11 2.114883 1_554
Li0 O8 2.119733 1_555
Li0 O6 2.231639 1_655
Li0 O4 2.252883 1_455
Li1 O7 2.096168 1_555
Li1 O5 2.110062 1_645
Li1 O9 2.148628 1_555
Li1 O10 2.174171 1_655
Li1 O5 2.227790 1_545
Li1 O7 2.235755 1_655
Li2 O2 2.072662 1_555
Li2 O10 2.096347 1_555
Li2 O1 2.137787 1_645
Li2 O1 2.157585 1_545
Li2 O5 2.184441 1_545
Li2 O10 2.224366 1_655
Li3 O3 2.054253 1_555
Li3 O0 2.098957 1_556
Li3 O11 2.102579 1_655
Li3 O11 2.187043 1_555
Li3 O0 2.218515 1_656
Li3 O4 2.218636 1_556
Li4 O1 2.065214 1_555
Li4 O2 2.101797 1_565
Li4 O8 2.128501 1_455
Li4 O8 2.185835 1_555
Li4 O2 2.211205 1_465
Li4 O6 2.227116 1_555
Li5 O0 2.074963 1_556
Li5 O9 2.078860 1_555
Li5 O3 2.122177 1_455
Li5 O7 2.166603 1_555
Li5 O3 2.171548 1_555
Li5 O9 2.233364 1_455
Cr0 O0 2.002352 1_555
Cr0 O2 2.011868 1_555
Cr0 O6 2.018561 1_645
Cr0 O4 2.022003 1_555
Cr0 O4 2.025737 1_455
Cr0 O6 2.041740 1_545
Cr1 O3 2.007656 1_455
Cr1 O1 2.014612 1_555
Cr1 O7 2.022868 1_555
Cr1 O5 2.029283 1_455
Cr1 O7 2.036749 1_455
Cr1 O5 2.039406 1_555
Co0 O8 1.979468 1_555
Co0 O10 2.000448 1_655
Co0 O7 2.017970 1_555
Co0 O1 2.018921 1_555
Co0 O1 2.067537 1_655
Co0 O10 2.092333 1_555
Co1 O0 1.914734 1_556
Co1 O11 1.929261 1_645
Co1 O9 1.935542 1_555
Co1 O6 1.956803 1_646
Co1 O0 2.166057 1_656
Co1 O11 2.188119 1_545
Co2 O11 1.968990 1_555
Co2 O5 2.009005 1_555
Co2 O9 2.026301 1_465
Co2 O3 2.026577 1_555
Co2 O3 2.064572 1_455
Co2 O9 2.070052 1_565
Co3 O2 1.923085 1_655
Co3 O8 1.928200 1_555
Co3 O10 1.944193 1_655
Co3 O4 1.956812 1_555
Co3 O2 2.160113 1_555
Co3 O8 2.163853 1_655
