# generated using pymatgen
data_V6Ga7
_symmetry_space_group_name_H-M   'P 1'
_cell_length_a   9.13360489
_cell_length_b   7.93060093
_cell_length_c   7.89259309
_cell_angle_alpha   70.51127916
_cell_angle_beta   54.93905583
_cell_angle_gamma   54.54966500
_symmetry_Int_Tables_number   1
_chemical_formula_structural   V6Ga7
_chemical_formula_sum   'V12 Ga14'
_cell_volume   381.20881642
_cell_formula_units_Z   2
loop_
 _symmetry_equiv_pos_site_id
 _symmetry_equiv_pos_as_xyz
  1  'x, y, z'
loop_
 _atom_site_type_symbol
 _atom_site_label
 _atom_site_symmetry_multiplicity
 _atom_site_fract_x
 _atom_site_fract_y
 _atom_site_fract_z
 _atom_site_occupancy
  V  V0  1  0.65246100  0.99875200  0.34753900  1
  V  V1  1  0.00124800  0.34753900  0.99875200  1
  V  V2  1  0.33705800  0.66294200  0.99436300  1
  V  V3  1  0.00563700  0.99436300  0.66294200  1
  V  V4  1  0.34996400  0.65003600  0.65003600  1
  V  V5  1  0.35729300  0.00336800  0.99538700  1
  V  V6  1  0.00461300  0.35604800  0.64270700  1
  V  V7  1  0.64395200  0.99538700  0.00336800  1
  V  V8  1  0.99663200  0.64270700  0.35604800  1
  V  V9  1  0.64256300  0.35743700  0.35743700  1
  V  V10  1  0.21242900  0.00161400  0.78757100  1
  V  V11  1  0.99838600  0.78757100  0.00161400  1
  Ga  Ga0  1  0.34560500  0.27467500  0.65439500  1
  Ga  Ga1  1  0.34277100  0.00035500  0.37797400  1
  Ga  Ga2  1  0.62202600  0.72109900  0.65722900  1
  Ga  Ga3  1  0.72532500  0.65439500  0.27467500  1
  Ga  Ga4  1  0.27890100  0.37797400  0.00035500  1
  Ga  Ga5  1  0.99964500  0.65722900  0.72109900  1
  Ga  Ga6  1  0.65649000  0.34351000  0.71587800  1
  Ga  Ga7  1  0.65215300  0.62700800  0.00083400  1
  Ga  Ga8  1  0.37299200  0.34784700  0.27999500  1
  Ga  Ga9  1  0.28412200  0.71587800  0.34351000  1
  Ga  Ga10  1  0.72000500  0.00083400  0.62700800  1
  Ga  Ga11  1  0.99916600  0.27999500  0.34784700  1
  Ga  Ga12  1  0.79679400  0.20320600  0.99823200  1
  Ga  Ga13  1  0.00176800  0.99823200  0.20320600  1
loop_
_geom_bond_atom_site_label_1
_geom_bond_atom_site_label_2
_geom_bond_distance
_geom_bond_site_symmetry_2
V0 V11 2.691462 1_555
V0 V8 2.771085 1_555
V0 V7 2.771085 1_555
V0 V9 2.819186 1_565
V1 V10 2.691462 1_555
V1 V5 2.771085 1_555
V1 V6 2.771085 1_555
V1 V9 2.819186 1_456
V2 V4 2.685787 1_555
V2 V8 2.813917 1_456
V2 V5 2.813917 1_565
V3 V4 2.685787 1_555
V3 V6 2.813917 1_565
V3 V7 2.813917 1_456
V4 V9 2.674192 1_555
V5 V7 2.618719 1_546
V6 V8 2.618719 1_455
V10 V3 2.614669 1_545
V10 V2 2.614669 1_545
V10 V4 2.630680 1_545
V10 V6 2.640277 1_555
V10 V5 2.640277 1_555
V10 V11 2.774713 1_446
V11 V2 2.614669 1_654
V11 V3 2.614669 1_654
V11 V4 2.630680 1_654
V11 V8 2.640277 1_555
V11 V7 2.640277 1_555
Ga0 V1 2.594553 1_555
Ga0 V9 2.648714 1_555
Ga0 V0 2.670675 1_545
Ga0 Ga8 2.703008 1_555
Ga0 Ga10 2.703008 1_555
Ga0 V10 2.709578 1_555
Ga0 Ga5 2.738680 1_455
Ga0 Ga4 2.738684 1_556
Ga0 V5 2.843219 1_555
Ga0 V6 2.843219 1_555
Ga0 V4 2.988629 1_555
Ga1 V3 2.585387 1_545
Ga1 V7 2.630236 1_545
Ga1 V0 2.690439 1_545
Ga1 Ga11 2.693700 1_455
Ga1 Ga9 2.725723 1_545
Ga1 V10 2.730268 1_555
Ga1 Ga8 2.735677 1_555
Ga1 Ga3 2.738679 1_545
Ga1 V6 2.876523 1_555
Ga1 V4 2.881586 1_545
Ga1 V5 2.937950 1_554
Ga2 V2 2.585383 1_555
Ga2 V8 2.630237 1_555
Ga2 V0 2.690444 1_555
Ga2 Ga7 2.693701 1_556
Ga2 Ga6 2.725715 1_555
Ga2 V10 2.730269 1_565
Ga2 Ga3 2.738677 1_555
Ga2 V5 2.876528 1_565
Ga2 V4 2.881581 1_555
Ga2 V6 2.937948 1_655
Ga3 V0 2.594553 1_555
Ga3 V9 2.648714 1_555
Ga3 V1 2.670675 1_654
Ga3 Ga7 2.703008 1_555
Ga3 V11 2.709578 1_555
Ga3 V8 2.843219 1_555
Ga3 V7 2.843219 1_555
Ga3 V4 2.988629 1_555
Ga4 V2 2.585380 1_554
Ga4 V5 2.630239 1_554
Ga4 V1 2.690448 1_554
Ga4 Ga8 2.693693 1_555
Ga4 Ga6 2.725716 1_554
Ga4 V11 2.730270 1_455
Ga4 V8 2.876522 1_455
Ga4 V4 2.881585 1_554
Ga4 V7 2.937945 1_545
Ga5 V3 2.585388 1_655
Ga5 V6 2.630231 1_655
Ga5 V1 2.690443 1_655
Ga5 Ga9 2.725719 1_655
Ga5 V11 2.730275 1_556
Ga5 Ga7 2.735678 1_556
Ga5 V7 2.876527 1_556
Ga5 V4 2.881590 1_655
Ga5 V8 2.937943 1_555
Ga6 V4 2.636590 1_555
Ga6 V3 2.647542 1_645
Ga6 V2 2.744991 1_555
Ga6 V9 2.867131 1_555
Ga6 V6 2.944849 1_655
Ga6 V7 2.944849 1_546
Ga7 V1 2.616414 1_654
Ga7 V5 2.624227 1_564
Ga7 Ga9 2.681347 1_555
Ga7 V2 2.752130 1_554
Ga7 V7 2.885204 1_555
Ga7 V9 2.901517 1_555
Ga7 V6 2.923113 1_654
Ga8 V0 2.616414 1_545
Ga8 V8 2.624227 1_455
Ga8 Ga9 2.681347 1_555
Ga8 V2 2.752130 1_554
Ga8 V6 2.885204 1_555
Ga8 V9 2.901517 1_555
Ga8 V7 2.923113 1_545
Ga9 V4 2.636590 1_555
Ga9 V2 2.647542 1_554
Ga9 V3 2.744991 1_555
Ga9 V9 2.867131 1_555
Ga9 V5 2.944849 1_564
Ga9 V8 2.944849 1_455
Ga10 V0 2.616414 1_545
Ga10 V7 2.624227 1_546
Ga10 Ga6 2.681347 1_555
Ga10 Ga5 2.693696 1_545
Ga10 Ga2 2.735685 1_545
Ga10 V3 2.752130 1_645
Ga10 Ga13 2.811821 1_645
Ga10 V5 2.885204 1_555
Ga10 V9 2.901517 1_555
Ga10 V8 2.923113 1_545
Ga11 V1 2.616414 1_654
Ga11 V6 2.624227 1_655
Ga11 Ga6 2.681347 1_555
Ga11 Ga3 2.703008 1_555
Ga11 Ga4 2.735682 1_655
Ga11 V3 2.752130 1_645
Ga11 Ga13 2.811821 1_645
Ga11 V8 2.885204 1_555
Ga11 V9 2.901517 1_555
Ga11 V5 2.923113 1_654
Ga12 V3 2.616290 1_645
Ga12 Ga13 2.638061 1_646
Ga12 V10 2.685816 1_655
Ga12 V11 2.685816 1_546
Ga12 V6 2.688139 1_655
Ga12 V7 2.688139 1_546
Ga12 V9 2.691612 1_556
Ga12 V1 2.699791 1_655
Ga12 V0 2.699791 1_546
Ga12 Ga6 2.796241 1_555
Ga12 Ga7 2.811821 1_556
Ga12 Ga8 2.811821 1_556
Ga13 V2 2.616290 1_554
Ga13 V11 2.685816 1_455
Ga13 V10 2.685816 1_564
Ga13 V5 2.688139 1_564
Ga13 V8 2.688139 1_455
Ga13 V9 2.691612 1_465
Ga13 V0 2.699791 1_455
Ga13 V1 2.699791 1_564
Ga13 Ga9 2.796241 1_555
