# generated using pymatgen
data_Y4MgPt
_symmetry_space_group_name_H-M   'P 1'
_cell_length_a   9.79988820
_cell_length_b   9.79995095
_cell_length_c   9.79982919
_cell_angle_alpha   60.00072577
_cell_angle_beta   60.00051783
_cell_angle_gamma   60.00094008
_symmetry_Int_Tables_number   1
_chemical_formula_structural   Y4MgPt
_chemical_formula_sum   'Y16 Mg4 Pt4'
_cell_volume   665.51170521
_cell_formula_units_Z   4
loop_
 _symmetry_equiv_pos_site_id
 _symmetry_equiv_pos_as_xyz
  1  'x, y, z'
loop_
 _atom_site_type_symbol
 _atom_site_label
 _atom_site_symmetry_multiplicity
 _atom_site_fract_x
 _atom_site_fract_y
 _atom_site_fract_z
 _atom_site_occupancy
  Y  Y0  1  0.59871927  0.59872057  0.59872045  1
  Y  Y1  1  0.59872224  0.59872346  0.20383272  1
  Y  Y2  1  0.59872406  0.20382743  0.59872535  1
  Y  Y3  1  0.20382979  0.59872389  0.59872418  1
  Y  Y4  1  0.06094695  0.43905508  0.43905231  1
  Y  Y5  1  0.43905450  0.06094350  0.06094749  1
  Y  Y6  1  0.43905371  0.06094419  0.43905417  1
  Y  Y7  1  0.06094633  0.43905617  0.06094482  1
  Y  Y8  1  0.43905201  0.43905521  0.06094654  1
  Y  Y9  1  0.06094770  0.06094282  0.43905515  1
  Y  Y10  1  0.18558591  0.81441924  0.81441463  1
  Y  Y11  1  0.81441555  0.18558603  0.18558557  1
  Y  Y12  1  0.81441604  0.18558690  0.81441555  1
  Y  Y13  1  0.18558493  0.81441864  0.18558418  1
  Y  Y14  1  0.81441542  0.81441941  0.18558500  1
  Y  Y15  1  0.18558669  0.18558639  0.81441425  1
  Mg  Mg0  1  0.82919161  0.82919456  0.82918757  1
  Mg  Mg1  1  0.82917344  0.82917744  0.51246216  1
  Mg  Mg2  1  0.82917516  0.51246463  0.82917192  1
  Mg  Mg3  1  0.51246430  0.82917787  0.82917038  1
  Pt  Pt0  1  0.39228245  0.39227600  0.39228835  1
  Pt  Pt1  1  0.39228093  0.39227473  0.82315469  1
  Pt  Pt2  1  0.39227757  0.82315284  0.39228287  1
  Pt  Pt3  1  0.82315544  0.39227300  0.39228369  1
loop_
_geom_bond_atom_site_label_1
_geom_bond_atom_site_label_2
_geom_bond_distance
_geom_bond_site_symmetry_2
Y0 Y14 3.560934 1_555
Y0 Y10 3.560937 1_555
Y0 Y12 3.560957 1_555
Y0 Y8 3.699759 1_556
Y0 Y6 3.699801 1_565
Y0 Y4 3.699802 1_655
Y1 Y14 3.560925 1_555
Y1 Y13 3.560930 1_555
Y1 Y11 3.560948 1_555
Y1 Y8 3.699725 1_555
Y1 Y5 3.699773 1_565
Y1 Y7 3.699774 1_655
Y2 Y6 3.699725 1_555
Y2 Y5 3.699727 1_556
Y2 Y9 3.699769 1_655
Y3 Y7 3.699716 1_556
Y3 Y4 3.699716 1_555
Y3 Y9 3.699763 1_565
Y4 Y7 3.705387 1_555
Y4 Y8 3.705409 1_555
Y4 Y9 3.705464 1_555
Y4 Y6 3.705489 1_555
Y5 Y6 3.705380 1_555
Y5 Y9 3.705426 1_555
Y5 Y8 3.705459 1_555
Y5 Y7 3.705504 1_555
Y6 Y9 3.705399 1_555
Y6 Y8 3.705470 1_555
Y7 Y8 3.705397 1_555
Y7 Y9 3.705495 1_555
Y10 Y3 3.560910 1_555
Y10 Y13 3.637390 1_556
Y10 Y15 3.637422 1_565
Y10 Y14 3.637446 1_456
Y10 Y12 3.637476 1_465
Y10 Y6 3.676282 1_565
Y10 Y9 3.676290 1_565
Y10 Y8 3.676346 1_556
Y10 Y7 3.676351 1_556
Y11 Y2 3.560892 1_555
Y11 Y12 3.637396 1_554
Y11 Y14 3.637418 1_545
Y11 Y15 3.637454 1_654
Y11 Y13 3.637472 1_645
Y11 Y9 3.676289 1_655
Y11 Y7 3.676306 1_655
Y11 Y6 3.676331 1_555
Y11 Y8 3.676348 1_555
Y12 Y2 3.560889 1_555
Y12 Y15 3.637422 1_655
Y12 Y14 3.637450 1_546
Y12 Y9 3.676318 1_655
Y12 Y4 3.676322 1_655
Y12 Y5 3.676337 1_556
Y12 Y8 3.676340 1_556
Y13 Y3 3.560913 1_555
Y13 Y14 3.637412 1_455
Y13 Y15 3.637454 1_564
Y13 Y9 3.676263 1_565
Y13 Y5 3.676266 1_565
Y13 Y4 3.676348 1_555
Y13 Y8 3.676353 1_555
Y14 Y6 3.676305 1_565
Y14 Y5 3.676318 1_565
Y14 Y4 3.676350 1_655
Y14 Y7 3.676364 1_655
Y15 Y2 3.560891 1_555
Y15 Y3 3.560928 1_555
Y15 Y5 3.676285 1_556
Y15 Y7 3.676296 1_556
Y15 Y6 3.676307 1_555
Y15 Y4 3.676318 1_555
Mg0 Mg1 3.104028 1_555
Mg0 Mg3 3.104058 1_555
Mg0 Mg2 3.104095 1_555
Mg0 Y14 3.354093 1_556
Mg0 Y10 3.354098 1_655
Mg0 Y12 3.354105 1_565
Mg0 Y2 3.492616 1_565
Mg0 Y3 3.492641 1_655
Mg0 Y1 3.492681 1_556
Mg0 Y9 3.567267 1_665
Mg0 Y5 3.567323 1_566
Mg0 Y7 3.567358 1_656
Mg1 Mg3 3.103725 1_555
Mg1 Mg2 3.103770 1_555
Mg1 Y14 3.354207 1_555
Mg1 Y13 3.354347 1_655
Mg1 Y11 3.354349 1_565
Mg1 Y0 3.492565 1_555
Mg1 Y2 3.492606 1_565
Mg1 Y3 3.492638 1_655
Mg1 Y6 3.567320 1_565
Mg1 Y4 3.567366 1_655
Mg1 Y9 3.567394 1_665
Mg2 Mg3 3.103797 1_555
Mg2 Y12 3.354247 1_555
Mg2 Y11 3.354377 1_556
Mg2 Y15 3.354387 1_655
Mg2 Y0 3.492529 1_555
Mg2 Y3 3.492596 1_655
Mg2 Y1 3.492631 1_556
Mg2 Y4 3.567293 1_655
Mg2 Y8 3.567337 1_556
Mg2 Y7 3.567409 1_656
Mg3 Y10 3.354229 1_555
Mg3 Y13 3.354362 1_556
Mg3 Y15 3.354372 1_565
Mg3 Y0 3.492540 1_555
Mg3 Y2 3.492579 1_565
Mg3 Y1 3.492648 1_556
Mg3 Y6 3.567277 1_565
Mg3 Y8 3.567370 1_556
Mg3 Y5 3.567401 1_566
Pt0 Y4 2.863051 1_555
Pt0 Y6 2.863058 1_555
Pt0 Y8 2.863071 1_555
Pt0 Y2 2.866509 1_555
Pt0 Y3 2.866545 1_555
Pt0 Y1 2.866570 1_555
Pt0 Y15 3.558539 1_555
Pt0 Y11 3.558624 1_555
Pt0 Y13 3.558726 1_555
Pt1 Y7 2.863047 1_556
Pt1 Y5 2.863057 1_556
Pt1 Y8 2.863069 1_556
Pt1 Y2 2.866497 1_555
Pt1 Y3 2.866532 1_555
Pt1 Y0 2.866553 1_555
Pt1 Y15 3.558492 1_555
Pt1 Y12 3.558639 1_555
Pt1 Y10 3.558739 1_555
Pt2 Y9 2.863039 1_565
Pt2 Y5 2.863054 1_565
Pt2 Y6 2.863061 1_565
Pt2 Y3 2.866502 1_555
Pt2 Y1 2.866523 1_555
Pt2 Y0 2.866524 1_555
Pt2 Y13 3.558516 1_555
Pt2 Y10 3.558588 1_555
Pt2 Y14 3.558662 1_555
Pt3 Y9 2.863060 1_655
Pt3 Y7 2.863065 1_655
Pt3 Y4 2.863071 1_655
Pt3 Y2 2.866501 1_555
Pt3 Y1 2.866554 1_555
Pt3 Y0 2.866558 1_555
Pt3 Y11 3.558504 1_555
Pt3 Y12 3.558581 1_555
Pt3 Y14 3.558748 1_555
