# generated using pymatgen
data_Y3(Si3Ru)4
_symmetry_space_group_name_H-M   'P 1'
_cell_length_a   10.12812258
_cell_length_b   10.12812258
_cell_length_c   8.14511900
_cell_angle_alpha   90.00000000
_cell_angle_beta   90.00000000
_cell_angle_gamma   132.58635029
_symmetry_Int_Tables_number   1
_chemical_formula_structural   Y3(Si3Ru)4
_chemical_formula_sum   'Y6 Si24 Ru8'
_cell_volume   615.15640035
_cell_formula_units_Z   2
loop_
 _symmetry_equiv_pos_site_id
 _symmetry_equiv_pos_as_xyz
  1  'x, y, z'
loop_
 _atom_site_type_symbol
 _atom_site_label
 _atom_site_symmetry_multiplicity
 _atom_site_fract_x
 _atom_site_fract_y
 _atom_site_fract_z
 _atom_site_occupancy
  Y  Y0  1  0.00000000  0.00000000  0.00000000  1
  Y  Y1  1  0.50000000  0.50000000  0.50000000  1
  Y  Y2  1  0.00362100  0.50362100  0.25000000  1
  Y  Y3  1  0.49637900  0.99637900  0.75000000  1
  Y  Y4  1  0.99637900  0.49637900  0.75000000  1
  Y  Y5  1  0.50362100  0.00362100  0.25000000  1
  Si  Si0  1  0.29531800  0.70468200  0.00000000  1
  Si  Si1  1  0.79531800  0.20468200  0.50000000  1
  Si  Si2  1  0.70468200  0.29531800  0.00000000  1
  Si  Si3  1  0.20468200  0.79531800  0.50000000  1
  Si  Si4  1  0.83321100  0.83321100  0.33326000  1
  Si  Si5  1  0.16678900  0.16678900  0.66674000  1
  Si  Si6  1  0.66678900  0.66678900  0.83326000  1
  Si  Si7  1  0.33321100  0.33321100  0.16674000  1
  Si  Si8  1  0.62323400  0.38895700  0.22851800  1
  Si  Si9  1  0.61104300  0.37676600  0.77148200  1
  Si  Si10  1  0.11104300  0.87676600  0.72851800  1
  Si  Si11  1  0.12323400  0.88895700  0.27148200  1
  Si  Si12  1  0.37676600  0.61104300  0.77148200  1
  Si  Si13  1  0.38895700  0.62323400  0.22851800  1
  Si  Si14  1  0.88895700  0.12323400  0.27148200  1
  Si  Si15  1  0.87676600  0.11104300  0.72851800  1
  Si  Si16  1  0.84612000  0.61190100  0.00700800  1
  Si  Si17  1  0.38809900  0.15388000  0.99299200  1
  Si  Si18  1  0.88809900  0.65388000  0.50700800  1
  Si  Si19  1  0.34612000  0.11190100  0.49299200  1
  Si  Si20  1  0.15388000  0.38809900  0.99299200  1
  Si  Si21  1  0.61190100  0.84612000  0.00700800  1
  Si  Si22  1  0.11190100  0.34612000  0.49299200  1
  Si  Si23  1  0.65388000  0.88809900  0.50700800  1
  Ru  Ru0  1  0.16903300  0.83096700  0.00000000  1
  Ru  Ru1  1  0.66903300  0.33096700  0.50000000  1
  Ru  Ru2  1  0.83096700  0.16903300  0.00000000  1
  Ru  Ru3  1  0.33096700  0.66903300  0.50000000  1
  Ru  Ru4  1  0.62748100  0.62748100  0.12737500  1
  Ru  Ru5  1  0.37251900  0.37251900  0.87262500  1
  Ru  Ru6  1  0.87251900  0.87251900  0.62737500  1
  Ru  Ru7  1  0.12748100  0.12748100  0.37262500  1
loop_
_geom_bond_atom_site_label_1
_geom_bond_atom_site_label_2
_geom_bond_distance
_geom_bond_site_symmetry_2
Si0 Si12 2.470466 1_554
Si0 Si13 2.470466 1_555
Si0 Si21 2.473838 1_555
Si0 Si20 2.473838 1_554
Si0 Y2 2.979788 1_555
Si0 Y3 2.979788 1_554
Si0 Y4 3.019819 1_454
Si0 Y5 3.019819 1_565
Si1 Si14 2.470466 1_555
Si1 Si15 2.470466 1_555
Si1 Si22 2.473838 1_655
Si1 Si23 2.473838 1_545
Si1 Y4 2.979788 1_555
Si1 Y5 2.979788 1_555
Si1 Y2 3.019819 1_655
Si1 Y3 3.019819 1_545
Si2 Si9 2.470466 1_554
Si2 Si8 2.470466 1_555
Si2 Y4 2.979788 1_554
Si2 Y5 2.979788 1_555
Si2 Y3 3.019819 1_544
Si2 Y2 3.019819 1_655
Si3 Y3 2.979788 1_555
Si3 Y2 2.979788 1_555
Si3 Y5 3.019819 1_565
Si3 Y4 3.019819 1_455
Si4 Y1 3.034598 1_555
Si4 Y0 3.035347 1_665
Si5 Y1 3.034598 1_555
Si5 Y0 3.035347 1_556
Si6 Si9 2.637360 1_555
Si6 Y0 3.034598 1_666
Si6 Y1 3.035347 1_555
Si7 Si8 2.637360 1_555
Si7 Y0 3.034598 1_555
Si7 Y1 3.035347 1_555
Si8 Y1 3.100341 1_555
Si8 Y2 3.188504 1_655
Si8 Y5 3.214138 1_555
Si9 Y1 3.100341 1_555
Si9 Y3 3.188504 1_545
Si9 Y4 3.214138 1_555
Si10 Si3 2.470466 1_555
Si10 Si18 2.559513 1_455
Si10 Si5 2.637360 1_565
Si10 Si19 2.710433 1_565
Si10 Y0 3.100341 1_566
Si10 Si17 3.119746 1_565
Si10 Si16 3.130408 1_456
Si10 Y4 3.188504 1_455
Si10 Y3 3.214138 1_555
Si11 Si3 2.470466 1_555
Si11 Si19 2.559513 1_565
Si11 Si4 2.637360 1_455
Si11 Si18 2.710433 1_455
Si11 Y0 3.100341 1_565
Si11 Si16 3.119746 1_455
Si11 Si17 3.130408 1_564
Si11 Y5 3.188504 1_565
Si11 Y2 3.214138 1_555
Si12 Si20 2.559513 1_555
Si12 Si6 2.637360 1_555
Si12 Si21 2.710433 1_556
Si12 Y1 3.100341 1_555
Si12 Si23 3.119746 1_555
Si12 Si22 3.130408 1_555
Si12 Y4 3.188504 1_455
Si12 Y3 3.214138 1_555
Si13 Si21 2.559513 1_555
Si13 Si7 2.637360 1_555
Si13 Si20 2.710433 1_554
Si13 Y1 3.100341 1_555
Si13 Si22 3.119746 1_555
Si13 Si23 3.130408 1_555
Si13 Y5 3.188504 1_565
Si13 Y2 3.214138 1_555
Si14 Si22 2.559513 1_655
Si14 Si4 2.637360 1_545
Si14 Si23 2.710433 1_545
Si14 Y0 3.100341 1_655
Si14 Si21 3.119746 1_545
Si14 Si20 3.130408 1_654
Si14 Y2 3.188504 1_655
Si14 Y5 3.214138 1_555
Si15 Si23 2.559513 1_545
Si15 Si5 2.637360 1_655
Si15 Si22 2.710433 1_655
Si15 Y0 3.100341 1_656
Si15 Si20 3.119746 1_655
Si15 Si21 3.130408 1_546
Si15 Y3 3.188504 1_545
Si15 Y4 3.214138 1_555
Si16 Si2 2.473838 1_555
Si16 Si8 2.559513 1_555
Si16 Si6 2.641447 1_554
Si16 Si9 2.710433 1_554
Si16 Y0 3.097047 1_665
Si16 Y2 3.167363 1_655
Si16 Y4 3.236813 1_554
Si17 Si2 2.473838 1_556
Si17 Si9 2.559513 1_555
Si17 Si7 2.641447 1_556
Si17 Si8 2.710433 1_556
Si17 Y0 3.097047 1_556
Si17 Y3 3.167363 1_545
Si17 Y5 3.236813 1_556
Si18 Si3 2.473838 1_655
Si18 Si4 2.641447 1_555
Si18 Y1 3.097047 1_555
Si18 Si9 3.119746 1_555
Si18 Si8 3.130408 1_555
Si18 Y4 3.167363 1_555
Si18 Y2 3.236813 1_655
Si19 Si3 2.473838 1_545
Si19 Si5 2.641447 1_555
Si19 Y1 3.097047 1_555
Si19 Si8 3.119746 1_555
Si19 Si9 3.130408 1_555
Si19 Y5 3.167363 1_555
Si19 Y3 3.236813 1_545
Si20 Si7 2.641447 1_556
Si20 Y0 3.097047 1_556
Si20 Y4 3.167363 1_455
Si20 Y2 3.236813 1_556
Si21 Si6 2.641447 1_554
Si21 Y0 3.097047 1_665
Si21 Y5 3.167363 1_565
Si21 Y3 3.236813 1_554
Si22 Si5 2.641447 1_555
Si22 Y1 3.097047 1_555
Si22 Y2 3.167363 1_555
Si22 Y4 3.236813 1_455
Si23 Si4 2.641447 1_555
Si23 Y1 3.097047 1_555
Si23 Y3 3.167363 1_555
Si23 Y5 3.236813 1_565
Ru0 Si0 2.342197 1_555
Ru0 Si16 2.408618 1_455
Ru0 Si17 2.408618 1_564
Ru0 Si11 2.412152 1_555
Ru0 Si10 2.412152 1_554
Ru0 Y0 3.135041 1_565
Ru0 Y3 3.229202 1_554
Ru0 Y2 3.229202 1_555
Ru0 Y5 3.266178 1_565
Ru0 Y4 3.266178 1_454
Ru1 Si1 2.342197 1_555
Ru1 Si19 2.408618 1_555
Ru1 Si18 2.408618 1_555
Ru1 Si9 2.412152 1_555
Ru1 Si8 2.412152 1_555
Ru1 Y1 3.135041 1_555
Ru1 Y4 3.229202 1_555
Ru1 Y5 3.229202 1_555
Ru1 Y2 3.266178 1_655
Ru1 Y3 3.266178 1_545
Ru2 Si2 2.342197 1_555
Ru2 Si21 2.408618 1_545
Ru2 Si20 2.408618 1_654
Ru2 Si14 2.412152 1_555
Ru2 Si15 2.412152 1_554
Ru2 Y0 3.135041 1_655
Ru2 Y4 3.229202 1_554
Ru2 Y5 3.229202 1_555
Ru2 Y2 3.266178 1_655
Ru2 Y3 3.266178 1_544
Ru3 Si3 2.342197 1_555
Ru3 Si22 2.408618 1_555
Ru3 Si23 2.408618 1_555
Ru3 Si13 2.412152 1_555
Ru3 Si12 2.412152 1_555
Ru3 Y1 3.135041 1_555
Ru3 Y3 3.229202 1_555
Ru3 Y2 3.229202 1_555
Ru3 Y5 3.266178 1_565
Ru3 Y4 3.266178 1_455
Ru4 Si4 2.370545 1_555
Ru4 Si6 2.416897 1_554
Ru4 Si7 2.417936 1_555
Ru4 Si16 2.522416 1_555
Ru4 Si21 2.522416 1_555
Ru4 Si13 2.525072 1_555
Ru4 Si8 2.525072 1_555
Ru4 Ru5 2.935498 1_554
Ru4 Y0 3.206345 1_665
Ru4 Y1 3.207740 1_555
Ru5 Si5 2.370545 1_555
Ru5 Si7 2.416897 1_556
Ru5 Si6 2.417936 1_555
Ru5 Si20 2.522416 1_555
Ru5 Si17 2.522416 1_555
Ru5 Si9 2.525072 1_555
Ru5 Si12 2.525072 1_555
Ru5 Y0 3.206345 1_556
Ru5 Y1 3.207740 1_555
Ru6 Si6 2.370545 1_555
Ru6 Si4 2.416897 1_555
Ru6 Si5 2.417936 1_665
Ru6 Si23 2.522416 1_555
Ru6 Si18 2.522416 1_555
Ru6 Si15 2.525072 1_565
Ru6 Si10 2.525072 1_655
Ru6 Ru7 2.935498 1_665
Ru6 Y1 3.206345 1_555
Ru6 Y0 3.207740 1_666
Ru7 Si7 2.370545 1_555
Ru7 Si5 2.416897 1_555
Ru7 Si4 2.417936 1_445
Ru7 Si22 2.522416 1_555
Ru7 Si19 2.522416 1_555
Ru7 Si11 2.525072 1_545
Ru7 Si14 2.525072 1_455
Ru7 Y1 3.206345 1_555
Ru7 Y0 3.207740 1_555
