# generated using pymatgen
data_Nd4In8Ni7
_symmetry_space_group_name_H-M   'P 1'
_cell_length_a   4.34521100
_cell_length_b   14.13588466
_cell_length_c   14.13588466
_cell_angle_alpha   117.21858589
_cell_angle_beta   90.00000000
_cell_angle_gamma   90.00000000
_symmetry_Int_Tables_number   1
_chemical_formula_structural   Nd4In8Ni7
_chemical_formula_sum   'Nd8 In16 Ni14'
_cell_volume   772.12843361
_cell_formula_units_Z   2
loop_
 _symmetry_equiv_pos_site_id
 _symmetry_equiv_pos_as_xyz
  1  'x, y, z'
loop_
 _atom_site_type_symbol
 _atom_site_label
 _atom_site_symmetry_multiplicity
 _atom_site_fract_x
 _atom_site_fract_y
 _atom_site_fract_z
 _atom_site_occupancy
  Nd  Nd0  1  0.00000000  0.81578000  0.81578000  1
  Nd  Nd1  1  0.00000000  0.18422000  0.18422000  1
  Nd  Nd2  1  0.00000000  0.00494800  0.65173200  1
  Nd  Nd3  1  0.00000000  0.99505200  0.34826800  1
  Nd  Nd4  1  0.00000000  0.65173200  0.00494800  1
  Nd  Nd5  1  0.00000000  0.34826800  0.99505200  1
  Nd  Nd6  1  0.50000000  0.60561100  0.39438900  1
  Nd  Nd7  1  0.50000000  0.39438900  0.60561100  1
  In  In0  1  0.50000000  0.18945500  0.81054500  1
  In  In1  1  0.50000000  0.81054500  0.18945500  1
  In  In2  1  0.00000000  0.08709600  0.91290400  1
  In  In3  1  0.00000000  0.91290400  0.08709600  1
  In  In4  1  0.50000000  0.55738000  0.12540100  1
  In  In5  1  0.50000000  0.44262000  0.87459900  1
  In  In6  1  0.50000000  0.12540100  0.55738000  1
  In  In7  1  0.50000000  0.87459900  0.44262000  1
  In  In8  1  0.50000000  0.00000000  0.00000000  1
  In  In9  1  0.00000000  0.50000000  0.50000000  1
  In  In10  1  0.50000000  0.18133100  0.36900500  1
  In  In11  1  0.50000000  0.81866900  0.63099500  1
  In  In12  1  0.50000000  0.36900500  0.18133100  1
  In  In13  1  0.50000000  0.63099500  0.81866900  1
  In  In14  1  0.00000000  0.72260000  0.27740000  1
  In  In15  1  0.00000000  0.27740000  0.72260000  1
  Ni  Ni0  1  0.50000000  0.99841700  0.80929600  1
  Ni  Ni1  1  0.50000000  0.00158300  0.19070400  1
  Ni  Ni2  1  0.50000000  0.80929600  0.99841700  1
  Ni  Ni3  1  0.50000000  0.19070400  0.00158300  1
  Ni  Ni4  1  0.00000000  0.41051600  0.30194800  1
  Ni  Ni5  1  0.00000000  0.58948400  0.69805200  1
  Ni  Ni6  1  0.00000000  0.30194800  0.41051600  1
  Ni  Ni7  1  0.00000000  0.69805200  0.58948400  1
  Ni  Ni8  1  0.50000000  0.37805900  0.37805900  1
  Ni  Ni9  1  0.50000000  0.62194100  0.62194100  1
  Ni  Ni10  1  0.00000000  0.20832300  0.51557400  1
  Ni  Ni11  1  0.00000000  0.79167700  0.48442600  1
  Ni  Ni12  1  0.00000000  0.51557400  0.20832300  1
  Ni  Ni13  1  0.00000000  0.48442600  0.79167700  1
loop_
_geom_bond_atom_site_label_1
_geom_bond_atom_site_label_2
_geom_bond_distance
_geom_bond_site_symmetry_2
Nd0 Ni5 2.851771 1_555
Nd0 Ni7 2.851771 1_555
Nd0 Ni2 3.407410 1_455
Nd0 Ni0 3.407410 1_555
Nd0 Ni0 3.407410 1_455
Nd0 Ni2 3.407410 1_555
Nd1 Ni6 2.851771 1_555
Nd1 Ni4 2.851771 1_555
Nd1 Ni1 3.407410 1_555
Nd1 Ni3 3.407410 1_455
Nd1 Ni3 3.407410 1_555
Nd1 Ni1 3.407410 1_455
Nd2 Ni11 2.856545 1_545
Nd2 Ni0 3.142886 1_445
Nd2 Ni0 3.142886 1_545
Nd3 Ni10 2.856545 1_565
Nd3 Ni1 3.142886 1_465
Nd3 Ni1 3.142886 1_565
Nd4 Ni13 2.856545 1_554
Nd4 Ni2 3.142886 1_454
Nd4 Ni2 3.142886 1_554
Nd5 Ni12 2.856545 1_556
Nd5 Ni3 3.142886 1_556
Nd5 Ni3 3.142886 1_456
Nd6 Ni9 3.117831 1_555
Nd6 Ni8 3.117831 1_555
Nd6 Ni11 3.193088 1_555
Nd6 Ni11 3.193088 1_655
Nd6 Ni12 3.193088 1_555
Nd6 Ni12 3.193088 1_655
Nd6 Ni4 3.276710 1_655
Nd6 Ni7 3.276710 1_655
Nd6 Ni7 3.276710 1_555
Nd6 Ni4 3.276710 1_555
Nd7 Ni9 3.117831 1_555
Nd7 Ni8 3.117831 1_555
Nd7 Ni13 3.193088 1_655
Nd7 Ni13 3.193088 1_555
Nd7 Ni10 3.193088 1_655
Nd7 Ni10 3.193088 1_555
Nd7 Ni5 3.276710 1_655
Nd7 Ni6 3.276710 1_555
Nd7 Ni6 3.276710 1_655
Nd7 Ni5 3.276710 1_555
In0 Ni0 2.692461 1_545
In0 Ni3 2.692461 1_556
In0 In15 3.037267 1_555
In0 In15 3.037267 1_655
In0 In6 3.265397 1_555
In0 In5 3.265397 1_555
In0 In2 3.289779 1_555
In0 In2 3.289779 1_655
In0 Nd2 3.347597 1_555
In0 Nd2 3.347597 1_655
In0 Nd5 3.347597 1_655
In0 Nd5 3.347597 1_555
In1 Ni2 2.692461 1_554
In1 Ni1 2.692461 1_565
In1 In14 3.037267 1_655
In1 In14 3.037267 1_555
In1 In4 3.265397 1_555
In1 In7 3.265397 1_555
In1 In3 3.289779 1_555
In1 In3 3.289779 1_655
In1 Nd3 3.347597 1_655
In1 Nd3 3.347597 1_555
In1 Nd4 3.347597 1_655
In1 Nd4 3.347597 1_555
In2 Ni0 2.599456 1_445
In2 Ni0 2.599456 1_545
In2 Ni3 2.599456 1_456
In2 Ni3 2.599456 1_556
In2 In8 3.022984 1_556
In2 In8 3.022984 1_456
In2 Nd2 3.325176 1_555
In2 Nd5 3.325176 1_555
In2 Nd0 3.431848 1_545
In2 Nd1 3.431848 1_556
In3 Ni2 2.599456 1_554
In3 Ni2 2.599456 1_454
In3 Ni1 2.599456 1_565
In3 Ni1 2.599456 1_465
In3 In8 3.022984 1_465
In3 In8 3.022984 1_565
In3 Nd4 3.325176 1_555
In3 Nd3 3.325176 1_555
In3 Nd0 3.431848 1_554
In3 Nd1 3.431848 1_565
In4 Ni12 2.660287 1_655
In4 Ni12 2.660287 1_555
In4 In5 3.152729 1_554
In4 Nd4 3.387589 1_655
In4 Nd4 3.387589 1_555
In4 Nd5 3.445393 1_554
In4 Nd5 3.445393 1_654
In4 Nd6 3.542807 1_555
In5 Ni13 2.660287 1_555
In5 Ni13 2.660287 1_655
In5 Nd5 3.387589 1_555
In5 Nd5 3.387589 1_655
In5 Nd4 3.445393 1_656
In5 Nd4 3.445393 1_556
In5 Nd7 3.542807 1_555
In6 Ni10 2.660287 1_655
In6 Ni10 2.660287 1_555
In6 In7 3.152729 1_545
In6 Nd2 3.387589 1_555
In6 Nd2 3.387589 1_655
In6 Nd3 3.445393 1_645
In6 Nd3 3.445393 1_545
In6 Nd7 3.542807 1_555
In7 Ni11 2.660287 1_555
In7 Ni11 2.660287 1_655
In7 Nd3 3.387589 1_555
In7 Nd3 3.387589 1_655
In7 Nd2 3.445393 1_665
In7 Nd2 3.445393 1_565
In7 Nd6 3.542807 1_555
In8 Ni3 2.685608 1_555
In8 Ni1 2.685608 1_555
In8 Ni2 2.685608 1_544
In8 Ni0 2.685608 1_544
In8 Nd0 3.475569 1_644
In8 Nd0 3.475569 1_544
In8 Nd1 3.475569 1_655
In8 Nd1 3.475569 1_555
In9 Ni6 2.489679 1_555
In9 Ni7 2.489679 1_555
In9 Ni4 2.489679 1_555
In9 Ni5 2.489679 1_555
In9 Ni9 2.818642 1_555
In9 Ni9 2.818642 1_455
In9 Ni8 2.818642 1_555
In9 Ni8 2.818642 1_455
In9 Nd6 3.349113 1_555
In9 Nd7 3.349113 1_455
In9 Nd7 3.349113 1_555
In9 Nd6 3.349113 1_455
In10 Ni1 2.636364 1_555
In10 Ni6 2.656394 1_655
In10 Ni6 2.656394 1_555
In10 Ni8 2.724763 1_555
In10 Ni10 2.904364 1_555
In10 Ni10 2.904364 1_655
In10 In6 3.105110 1_555
In10 Nd3 3.321728 1_645
In10 Nd3 3.321728 1_545
In10 Nd7 3.323036 1_555
In10 Nd1 3.412115 1_655
In10 Nd1 3.412115 1_555
In11 Ni0 2.636364 1_555
In11 Ni7 2.656394 1_655
In11 Ni7 2.656394 1_555
In11 Ni9 2.724763 1_555
In11 Ni11 2.904364 1_555
In11 Ni11 2.904364 1_655
In11 In7 3.105110 1_555
In11 Nd2 3.321728 1_565
In11 Nd2 3.321728 1_665
In11 Nd6 3.323036 1_555
In11 Nd0 3.412115 1_655
In11 Nd0 3.412115 1_555
In12 Ni3 2.636364 1_555
In12 Ni4 2.656394 1_555
In12 Ni4 2.656394 1_655
In12 Ni8 2.724763 1_555
In12 Ni12 2.904364 1_655
In12 Ni12 2.904364 1_555
In12 In4 3.105110 1_555
In12 Nd5 3.321728 1_554
In12 Nd5 3.321728 1_654
In12 Nd6 3.323036 1_555
In12 Nd1 3.412115 1_555
In12 Nd1 3.412115 1_655
In13 Ni2 2.636364 1_555
In13 Ni5 2.656394 1_555
In13 Ni5 2.656394 1_655
In13 Ni9 2.724763 1_555
In13 Ni13 2.904364 1_655
In13 Ni13 2.904364 1_555
In13 In5 3.105110 1_555
In13 Nd4 3.321728 1_656
In13 Nd4 3.321728 1_556
In13 Nd7 3.323036 1_555
In13 Nd0 3.412115 1_655
In13 Nd0 3.412115 1_555
In14 Ni11 2.627506 1_555
In14 Ni12 2.627506 1_555
In14 In7 3.193908 1_455
In14 In7 3.193908 1_555
In14 In4 3.193908 1_455
In14 In4 3.193908 1_555
In14 Nd3 3.508144 1_555
In14 Nd4 3.508144 1_555
In14 Nd6 3.562545 1_555
In14 Nd6 3.562545 1_455
In15 Ni13 2.627506 1_555
In15 Ni10 2.627506 1_555
In15 In5 3.193908 1_455
In15 In5 3.193908 1_555
In15 In6 3.193908 1_455
In15 In6 3.193908 1_555
In15 Nd5 3.508144 1_555
In15 Nd2 3.508144 1_555
In15 Nd7 3.562545 1_555
In15 Nd7 3.562545 1_455
Ni0 Ni3 2.831609 1_566
Ni1 Ni2 2.831609 1_544
Ni4 Ni8 2.557310 1_555
Ni4 Ni8 2.557310 1_455
Ni4 Ni6 2.620156 1_555
Ni5 Ni9 2.557310 1_455
Ni5 Ni9 2.557310 1_555
Ni5 Ni7 2.620156 1_555
Ni6 Ni8 2.557310 1_555
Ni6 Ni8 2.557310 1_455
Ni7 Ni9 2.557310 1_455
Ni7 Ni9 2.557310 1_555
Ni10 Ni6 2.398963 1_555
Ni11 Ni7 2.398963 1_555
Ni12 Ni4 2.398963 1_555
Ni13 Ni5 2.398963 1_555
