# generated using pymatgen
data_K2SrNi(NO2)6
_symmetry_space_group_name_H-M   'P 1'
_cell_length_a   7.57463692
_cell_length_b   7.57460789
_cell_length_c   25.12154597
_cell_angle_alpha   98.66900702
_cell_angle_beta   90.00003727
_cell_angle_gamma   120.00017724
_symmetry_Int_Tables_number   1
_chemical_formula_structural   K2SrNi(NO2)6
_chemical_formula_sum   'K8 Sr4 Ni4 N24 O48'
_cell_volume   1229.18944752
_cell_formula_units_Z   4
loop_
 _symmetry_equiv_pos_site_id
 _symmetry_equiv_pos_as_xyz
  1  'x, y, z'
loop_
 _atom_site_type_symbol
 _atom_site_label
 _atom_site_symmetry_multiplicity
 _atom_site_fract_x
 _atom_site_fract_y
 _atom_site_fract_z
 _atom_site_occupancy
  K  K0  1  0.31249100  0.62498200  0.93747400  1
  K  K1  1  0.56249600  0.12499100  0.68749100  1
  K  K2  1  0.06250500  0.12500900  0.18751200  1
  K  K3  1  0.81250900  0.62501700  0.43752300  1
  K  K4  1  0.93749000  0.87498000  0.81247400  1
  K  K5  1  0.18750100  0.37500300  0.56250400  1
  K  K6  1  0.68749900  0.37499800  0.06249900  1
  K  K7  1  0.43750800  0.87501700  0.31252500  1
  Sr  Sr0  1  0.62498700  0.24997400  0.87496300  1
  Sr  Sr1  1  0.87500000  0.74999800  0.62499700  1
  Sr  Sr2  1  0.37500300  0.75000200  0.12500400  1
  Sr  Sr3  1  0.12501300  0.25002300  0.37503500  1
  Ni  Ni0  1  0.24989800  0.49990800  0.74992100  1
  Ni  Ni1  1  0.50008500  0.00010000  0.50010500  1
  Ni  Ni2  1  0.99993700  0.99994100  0.99991200  1
  Ni  Ni3  1  0.75006200  0.50009600  0.25008200  1
  N  N0  1  0.00169000  0.40065800  0.79966300  1
  N  N1  1  0.25170900  0.90069700  0.54964700  1
  N  N2  1  0.75168500  0.90066300  0.04967100  1
  N  N3  1  0.50168100  0.40067900  0.29966200  1
  N  N4  1  0.85100100  0.70201400  0.95033900  1
  N  N5  1  0.10100500  0.20201400  0.70033300  1
  N  N6  1  0.60102300  0.20205200  0.20034500  1
  N  N7  1  0.35104300  0.70204300  0.45033400  1
  N  N8  1  0.85100900  0.09933700  0.95034000  1
  N  N9  1  0.10100600  0.59932300  0.70033500  1
  N  N10  1  0.60102900  0.59932000  0.20034500  1
  N  N11  1  0.35099900  0.09929000  0.45033400  1
  N  N12  1  0.39900300  0.40070000  0.79966300  1
  N  N13  1  0.64895500  0.90066200  0.54964700  1
  N  N14  1  0.14900800  0.90069900  0.04967100  1
  N  N15  1  0.89898800  0.40066900  0.29966200  1
  N  N16  1  0.39896400  0.79796600  0.79966400  1
  N  N17  1  0.64899200  0.29794300  0.54964900  1
  N  N18  1  0.14897700  0.29798600  0.04967200  1
  N  N19  1  0.89899700  0.79798200  0.29966300  1
  N  N20  1  0.24832700  0.09932600  0.95034100  1
  N  N21  1  0.49831500  0.59932400  0.70033500  1
  N  N22  1  0.99829700  0.59931800  0.20034600  1
  N  N23  1  0.74829800  0.09933500  0.45033500  1
  O  O0  1  0.52062100  0.52055600  0.84021400  1
  O  O1  1  0.77060100  0.02055400  0.59019400  1
  O  O2  1  0.27064200  0.02056600  0.09022300  1
  O  O3  1  0.02063800  0.52057000  0.34021000  1
  O  O4  1  0.88012200  0.28091300  0.96004800  1
  O  O5  1  0.13011700  0.78090400  0.71004200  1
  O  O6  1  0.63011500  0.78090700  0.21004200  1
  O  O7  1  0.38009600  0.28088900  0.46002500  1
  O  O8  1  0.57087600  0.94076400  0.78996900  1
  O  O9  1  0.82085300  0.44070700  0.53993900  1
  O  O10  1  0.32088500  0.44078200  0.03997600  1
  O  O11  1  0.07086800  0.94074500  0.28995700  1
  O  O12  1  0.31966600  0.84028700  0.84021600  1
  O  O13  1  0.56964400  0.34024600  0.59019400  1
  O  O14  1  0.06966300  0.34030500  0.09022400  1
  O  O15  1  0.81964700  0.84028600  0.34021000  1
  O  O16  1  0.72936300  0.97943300  0.90979100  1
  O  O17  1  0.97937400  0.47944400  0.65978500  1
  O  O18  1  0.47938400  0.47943600  0.15979800  1
  O  O19  1  0.22938200  0.97943700  0.40978400  1
  O  O20  1  0.40080200  0.07993500  0.96004900  1
  O  O21  1  0.65080000  0.57993700  0.71004200  1
  O  O22  1  0.15080400  0.57993800  0.21004200  1
  O  O23  1  0.90080300  0.07993600  0.46002600  1
  O  O24  1  0.36989900  0.21909900  0.78996800  1
  O  O25  1  0.61986300  0.71909500  0.53993900  1
  O  O26  1  0.11990700  0.71910000  0.03997500  1
  O  O27  1  0.86988600  0.21909600  0.28995700  1
  O  O28  1  0.99993700  0.31959100  0.84021400  1
  O  O29  1  0.24995200  0.81958600  0.59019400  1
  O  O30  1  0.74992700  0.81957800  0.09022200  1
  O  O31  1  0.49993100  0.31956700  0.34020900  1
  O  O32  1  0.84919100  0.42006200  0.78996800  1
  O  O33  1  0.09922000  0.92006400  0.53993900  1
  O  O34  1  0.59918200  0.92005900  0.03997500  1
  O  O35  1  0.34919900  0.42006100  0.28995700  1
  O  O36  1  0.25007500  0.18043100  0.90979200  1
  O  O37  1  0.50007400  0.68041600  0.65978500  1
  O  O38  1  0.00005500  0.68041800  0.15979800  1
  O  O39  1  0.75005800  0.18040300  0.40978400  1
  O  O40  1  0.67912900  0.55925700  0.96004800  1
  O  O41  1  0.92913000  0.05925200  0.71004200  1
  O  O42  1  0.42912700  0.05924900  0.21004100  1
  O  O43  1  0.17912900  0.55923400  0.46002500  1
  O  O44  1  0.93035000  0.65970900  0.90979000  1
  O  O45  1  0.18033600  0.15970600  0.65978500  1
  O  O46  1  0.68035400  0.15973200  0.15979600  1
  O  O47  1  0.43033900  0.65971700  0.40978300  1
loop_
_geom_bond_atom_site_label_1
_geom_bond_atom_site_label_2
_geom_bond_distance
_geom_bond_site_symmetry_2
K0 O12 3.121656 1_555
K0 O0 3.121742 1_555
K0 O28 3.121769 1_455
K0 O16 3.122141 1_555
K0 O36 3.122167 1_555
K0 O44 3.122179 1_455
K0 O40 3.122450 1_555
K0 O4 3.122468 1_455
K0 O20 3.122547 1_565
K0 O10 3.123007 1_556
K0 O34 3.123022 1_556
K0 O26 3.123031 1_556
K1 O13 3.122311 1_555
K1 O1 3.122347 1_555
K1 O37 3.122362 1_545
K1 O41 3.122369 1_555
K1 O17 3.122377 1_555
K1 O5 3.122385 1_545
K1 O29 3.122389 1_545
K1 O45 3.122396 1_555
K1 O21 3.122504 1_555
K1 O8 3.122562 1_545
K1 O24 3.122586 1_555
K1 O32 3.122589 1_555
K2 O11 3.121955 1_545
K2 O35 3.121976 1_555
K2 O27 3.121994 1_455
K2 O42 3.122268 1_555
K2 O14 3.122294 1_555
K2 O6 3.122314 1_445
K2 O2 3.122368 1_555
K2 O18 3.122376 1_555
K2 O22 3.122384 1_555
K2 O38 3.122410 1_545
K2 O30 3.122419 1_445
K2 O46 3.122424 1_455
K3 O9 3.121473 1_555
K3 O33 3.121488 1_655
K3 O25 3.121515 1_555
K3 O43 3.122224 1_655
K3 O7 3.122274 1_555
K3 O23 3.122313 1_565
K3 O19 3.122551 1_655
K3 O47 3.122604 1_555
K3 O39 3.122614 1_555
K3 O15 3.122743 1_555
K3 O3 3.122790 1_655
K3 O31 3.122859 1_555
K4 O41 3.121693 1_565
K4 O21 3.121715 1_555
K4 O5 3.121744 1_655
K4 O8 3.122200 1_555
K4 O24 3.122263 1_665
K4 O32 3.122294 1_555
K4 O0 3.122554 1_555
K4 O28 3.122605 1_565
K4 O12 3.122629 1_655
K4 O44 3.122814 1_555
K4 O16 3.122873 1_555
K4 O36 3.122949 1_665
K5 O45 3.122134 1_555
K5 O17 3.122164 1_455
K5 O37 3.122220 1_555
K5 O29 3.122312 1_555
K5 O1 3.122321 1_455
K5 O13 3.122361 1_555
K5 O9 3.122376 1_455
K5 O25 3.122424 1_555
K5 O33 3.122517 1_545
K5 O43 3.122588 1_555
K5 O23 3.122608 1_455
K5 O7 3.122633 1_555
K6 O40 3.122080 1_554
K6 O20 3.122094 1_554
K6 O4 3.122126 1_554
K6 O10 3.122293 1_555
K6 O26 3.122354 1_655
K6 O46 3.122369 1_555
K6 O2 3.122383 1_555
K6 O30 3.122407 1_555
K6 O34 3.122409 1_545
K6 O18 3.122435 1_555
K6 O14 3.122441 1_655
K6 O38 3.122486 1_655
K7 O47 3.121644 1_555
K7 O19 3.121686 1_555
K7 O39 3.121731 1_565
K7 O3 3.122139 1_555
K7 O31 3.122143 1_565
K7 O15 3.122188 1_555
K7 O11 3.122448 1_555
K7 O27 3.122491 1_565
K7 O35 3.122571 1_555
K7 O42 3.122721 1_565
K7 O22 3.122735 1_555
K7 O6 3.122755 1_555
N0 O28 1.263094 1_455
N0 O32 1.263251 1_455
N0 Ni0 2.128652 1_555
N1 O33 1.263077 1_555
N1 O29 1.263200 1_555
N1 Ni1 2.126339 1_565
N2 O30 1.263168 1_555
N2 O34 1.263249 1_555
N2 Ni2 2.129161 1_554
N3 O35 1.263078 1_555
N3 O31 1.263217 1_555
N3 Ni3 2.126976 1_555
N4 O40 1.263081 1_555
N4 O44 1.263245 1_555
N4 Ni2 2.126769 1_555
N5 O41 1.263108 1_455
N5 O45 1.263152 1_555
N5 Ni0 2.126753 1_555
N6 O46 1.263205 1_555
N6 O42 1.263214 1_555
N6 Ni3 2.129152 1_555
N7 O47 1.263101 1_555
N7 O43 1.263272 1_555
N7 Ni1 2.129587 1_565
N8 O4 1.263063 1_555
N8 O16 1.263246 1_545
N8 Ni2 2.126542 1_545
N9 O5 1.263105 1_555
N9 O17 1.263181 1_455
N9 Ni0 2.126675 1_555
N10 O18 1.263173 1_555
N10 O6 1.263212 1_555
N10 Ni3 2.128834 1_555
N11 O19 1.263093 1_545
N11 O7 1.263265 1_555
N11 Ni1 2.129482 1_555
N12 O0 1.263118 1_555
N12 O24 1.263263 1_555
N12 Ni0 2.129214 1_555
N13 O25 1.263056 1_555
N13 O1 1.263190 1_565
N13 Ni1 2.125974 1_565
N14 O2 1.263200 1_565
N14 O26 1.263257 1_555
N14 Ni2 2.129487 1_454
N15 O27 1.263070 1_555
N15 O3 1.263235 1_655
N15 Ni3 2.126825 1_555
N16 O12 1.263115 1_555
N16 O8 1.263265 1_555
N16 Ni0 2.129292 1_555
N17 O9 1.263058 1_555
N17 O13 1.263158 1_555
N17 Ni1 2.126009 1_555
N18 O14 1.263183 1_555
N18 O10 1.263249 1_555
N18 Ni2 2.129405 1_444
N19 O11 1.263069 1_655
N19 O15 1.263209 1_555
N19 Ni3 2.126635 1_555
N20 O20 1.263083 1_555
N20 O36 1.263233 1_555
N20 Ni2 2.126880 1_445
N21 O21 1.263134 1_555
N21 O37 1.263176 1_555
N21 Ni0 2.127265 1_555
N22 O38 1.263170 1_655
N22 O22 1.263205 1_655
N22 Ni3 2.128700 1_555
N23 O39 1.263087 1_555
N23 O23 1.263251 1_555
N23 Ni1 2.129129 1_555
O0 Sr0 2.783387 1_555
O1 Sr1 2.783944 1_545
O2 Sr2 2.783578 1_545
O3 Sr3 2.783997 1_555
O4 Sr0 2.784699 1_555
O5 Sr1 2.783946 1_455
O6 Sr2 2.783791 1_555
O7 Sr3 2.782850 1_555
O8 Sr0 2.783005 1_565
O9 Sr1 2.784360 1_555
O10 Sr2 2.783587 1_555
O11 Sr3 2.784622 1_565
O12 Sr0 2.783355 1_565
O13 Sr1 2.783954 1_555
O14 Sr2 2.783564 1_555
O15 Sr3 2.783981 1_665
O16 Sr0 2.783992 1_565
O17 Sr1 2.783647 1_555
O18 Sr2 2.783829 1_555
O19 Sr3 2.783430 1_565
O20 Sr0 2.784625 1_555
O21 Sr1 2.783851 1_555
O22 Sr2 2.783707 1_555
O23 Sr3 2.782798 1_655
O24 Sr0 2.782944 1_555
O25 Sr1 2.784300 1_555
O26 Sr2 2.783550 1_555
O27 Sr3 2.784561 1_655
O28 Sr0 2.783423 1_555
O29 Sr1 2.783961 1_455
O30 Sr2 2.783609 1_555
O31 Sr3 2.784012 1_555
O32 Sr0 2.782867 1_555
O33 Sr1 2.784192 1_455
O34 Sr2 2.783446 1_555
O35 Sr3 2.784457 1_555
O36 Sr0 2.783998 1_555
O37 Sr1 2.783662 1_555
O38 Sr2 2.783864 1_555
O39 Sr3 2.783452 1_655
O40 Sr0 2.784765 1_555
O41 Sr1 2.784003 1_545
O42 Sr2 2.783852 1_545
O43 Sr3 2.782935 1_555
O44 Sr0 2.783972 1_555
O45 Sr1 2.783640 1_445
O46 Sr2 2.783794 1_545
O47 Sr3 2.783403 1_555
