# generated using pymatgen
data_CdPt3O4
_symmetry_space_group_name_H-M   'P 1'
_cell_length_a   5.87476700
_cell_length_b   5.87476700
_cell_length_c   5.87476700
_cell_angle_alpha   90.00000000
_cell_angle_beta   90.00000000
_cell_angle_gamma   90.00000000
_symmetry_Int_Tables_number   1
_chemical_formula_structural   CdPt3O4
_chemical_formula_sum   'Cd2 Pt6 O8'
_cell_volume   202.75517141
_cell_formula_units_Z   2
loop_
 _symmetry_equiv_pos_site_id
 _symmetry_equiv_pos_as_xyz
  1  'x, y, z'
loop_
 _atom_site_type_symbol
 _atom_site_label
 _atom_site_symmetry_multiplicity
 _atom_site_fract_x
 _atom_site_fract_y
 _atom_site_fract_z
 _atom_site_occupancy
  Cd  Cd0  1  0.00000000  0.00000000  0.00000000  1
  Cd  Cd1  1  0.50000000  0.50000000  0.50000000  1
  Pt  Pt0  1  0.25000000  0.00000000  0.50000000  1
  Pt  Pt1  1  0.75000000  0.00000000  0.50000000  1
  Pt  Pt2  1  0.50000000  0.25000000  0.00000000  1
  Pt  Pt3  1  0.50000000  0.75000000  0.00000000  1
  Pt  Pt4  1  0.00000000  0.50000000  0.25000000  1
  Pt  Pt5  1  0.00000000  0.50000000  0.75000000  1
  O  O0  1  0.25000000  0.25000000  0.25000000  1
  O  O1  1  0.75000000  0.75000000  0.75000000  1
  O  O2  1  0.75000000  0.75000000  0.25000000  1
  O  O3  1  0.75000000  0.25000000  0.75000000  1
  O  O4  1  0.25000000  0.25000000  0.75000000  1
  O  O5  1  0.25000000  0.75000000  0.25000000  1
  O  O6  1  0.25000000  0.75000000  0.75000000  1
  O  O7  1  0.75000000  0.25000000  0.25000000  1
loop_
_geom_bond_atom_site_label_1
_geom_bond_atom_site_label_2
_geom_bond_distance
_geom_bond_site_symmetry_2
Cd0 O0 2.543849 1_555
Cd0 O7 2.543849 1_455
Cd0 O3 2.543849 1_454
Cd0 O5 2.543849 1_545
Cd0 O4 2.543849 1_554
Cd0 O2 2.543849 1_445
Cd0 O6 2.543849 1_544
Cd0 O1 2.543849 1_444
Cd1 O5 2.543849 1_555
Cd1 O2 2.543849 1_555
Cd1 O3 2.543849 1_555
Cd1 O6 2.543849 1_555
Cd1 O0 2.543849 1_555
Cd1 O4 2.543849 1_555
Cd1 O1 2.543849 1_555
Cd1 O7 2.543849 1_555
O0 Pt2 2.077044 1_555
O0 Pt4 2.077044 1_555
O0 Pt0 2.077044 1_555
O1 Pt5 2.077044 1_655
O1 Pt1 2.077044 1_565
O1 Pt3 2.077044 1_556
O2 Pt4 2.077044 1_655
O2 Pt1 2.077044 1_565
O2 Pt3 2.077044 1_555
O3 Pt1 2.077044 1_555
O3 Pt2 2.077044 1_556
O3 Pt5 2.077044 1_655
O4 Pt2 2.077044 1_556
O4 Pt5 2.077044 1_555
O4 Pt0 2.077044 1_555
O5 Pt0 2.077044 1_565
O5 Pt4 2.077044 1_555
O5 Pt3 2.077044 1_555
O6 Pt0 2.077044 1_565
O6 Pt5 2.077044 1_555
O6 Pt3 2.077044 1_556
O7 Pt1 2.077044 1_555
O7 Pt2 2.077044 1_555
O7 Pt4 2.077044 1_655
