# generated using pymatgen
data_Ca2S2O9
_symmetry_space_group_name_H-M   'P 1'
_cell_length_a   7.06867601
_cell_length_b   7.06867601
_cell_length_c   12.77304800
_cell_angle_alpha   90.00000000
_cell_angle_beta   90.00000000
_cell_angle_gamma   120.00000010
_symmetry_Int_Tables_number   1
_chemical_formula_structural   Ca2S2O9
_chemical_formula_sum   'Ca6 S6 O27'
_cell_volume   552.71509856
_cell_formula_units_Z   3
loop_
 _symmetry_equiv_pos_site_id
 _symmetry_equiv_pos_as_xyz
  1  'x, y, z'
loop_
 _atom_site_type_symbol
 _atom_site_label
 _atom_site_symmetry_multiplicity
 _atom_site_fract_x
 _atom_site_fract_y
 _atom_site_fract_z
 _atom_site_occupancy
  Ca  Ca0  1  0.81119000  0.13848300  0.32922200  1
  Ca  Ca1  1  0.86151700  0.67270700  0.66255600  1
  Ca  Ca2  1  0.32729300  0.18881000  0.99588900  1
  Ca  Ca3  1  0.33099500  0.19605300  0.49695600  1
  Ca  Ca4  1  0.80394700  0.13494200  0.83029000  1
  Ca  Ca5  1  0.86505800  0.66900500  0.16362300  1
  S  S0  1  0.78943900  0.12318800  0.08259700  1
  S  S1  1  0.87681200  0.66625000  0.41593100  1
  S  S2  1  0.33375000  0.21056100  0.74926400  1
  S  S3  1  0.34102100  0.21081900  0.24837700  1
  S  S4  1  0.78918100  0.13020200  0.58171100  1
  S  S5  1  0.86979800  0.65897900  0.91504400  1
  O  O0  1  0.59280000  0.07014400  0.01849300  1
  O  O1  1  0.92985600  0.52265500  0.35182700  1
  O  O2  1  0.47734500  0.40720000  0.68516000  1
  O  O3  1  0.84780500  0.31373900  0.15231700  1
  O  O4  1  0.68626100  0.53406600  0.48565100  1
  O  O5  1  0.46593400  0.15219500  0.81898400  1
  O  O6  1  0.74857200  0.93887700  0.15328300  1
  O  O7  1  0.06112300  0.80969400  0.48661700  1
  O  O8  1  0.19030500  0.25142800  0.81995000  1
  O  O9  1  0.97028500  0.17294500  0.00743900  1
  O  O10  1  0.82705500  0.79734000  0.34077300  1
  O  O11  1  0.20266000  0.02971500  0.67410600  1
  O  O12  1  0.19886800  0.25460700  0.31869500  1
  O  O13  1  0.74539300  0.94426100  0.65202900  1
  O  O14  1  0.05573900  0.80113200  0.98536200  1
  O  O15  1  0.48304700  0.40410900  0.18302300  1
  O  O16  1  0.59589100  0.07893800  0.51635700  1
  O  O17  1  0.92106200  0.51695300  0.84969000  1
  O  O18  1  0.46878200  0.14536000  0.31741400  1
  O  O19  1  0.85464000  0.32342200  0.65074800  1
  O  O20  1  0.67657800  0.53121800  0.98408100  1
  O  O21  1  0.20486100  0.03073800  0.17282700  1
  O  O22  1  0.96926200  0.17412300  0.50616100  1
  O  O23  1  0.82587700  0.79513900  0.83949400  1
  O  O24  1  0.22071000  0.69381600  0.19168600  1
  O  O25  1  0.30618400  0.52689400  0.52502000  1
  O  O26  1  0.47310600  0.77929000  0.85835300  1
loop_
_geom_bond_atom_site_label_1
_geom_bond_atom_site_label_2
_geom_bond_distance
_geom_bond_site_symmetry_2
Ca0 O1 2.425597 1_555
Ca0 O12 2.439688 1_655
Ca0 O18 2.449687 1_555
Ca0 O10 2.473816 1_545
Ca0 O22 2.477558 1_555
Ca0 O3 2.527234 1_555
Ca0 O6 2.571465 1_545
Ca0 O16 2.750667 1_555
Ca1 O2 2.425597 1_555
Ca1 O13 2.439688 1_555
Ca1 O19 2.449687 1_555
Ca1 O11 2.473815 1_665
Ca1 O23 2.477546 1_555
Ca1 O4 2.527234 1_555
Ca1 O7 2.571464 1_655
Ca1 O17 2.750656 1_555
Ca2 O0 2.425602 1_556
Ca2 O14 2.439688 1_545
Ca2 O20 2.449687 1_555
Ca2 O9 2.473815 1_456
Ca2 O21 2.477546 1_556
Ca2 O5 2.527234 1_555
Ca2 O8 2.571465 1_555
Ca2 O15 2.750656 1_556
Ca3 O16 2.408937 1_555
Ca3 O7 2.430080 1_545
Ca3 O4 2.456805 1_555
Ca3 O25 2.457333 1_555
Ca3 O22 2.485879 1_455
Ca3 O11 2.501761 1_555
Ca3 O12 2.571887 1_555
Ca3 O18 2.585584 1_555
Ca3 O2 2.744583 1_555
Ca4 O17 2.408936 1_555
Ca4 O8 2.430076 1_655
Ca4 O5 2.456805 1_555
Ca4 O26 2.457332 1_545
Ca4 O23 2.485879 1_545
Ca4 O9 2.501749 1_556
Ca4 O13 2.571887 1_545
Ca4 O19 2.585584 1_555
Ca4 O0 2.744571 1_556
Ca5 O15 2.408936 1_555
Ca5 O6 2.430076 1_555
Ca5 O3 2.456805 1_555
Ca5 O24 2.457332 1_655
Ca5 O21 2.485879 1_665
Ca5 O10 2.501761 1_555
Ca5 O14 2.571887 1_654
Ca5 O20 2.585584 1_554
Ca5 O1 2.744585 1_555
O0 S0 1.490601 1_555
O0 O26 2.717952 1_544
O0 O24 3.448390 1_545
O1 S1 1.490601 1_555
O1 O24 2.717962 1_655
O1 O25 3.448388 1_655
O2 S2 1.490601 1_555
O2 O25 2.717957 1_555
O2 O26 3.448393 1_555
O3 S0 1.490576 1_555
O4 S1 1.490575 1_555
O5 S2 1.490571 1_555
O6 S0 1.489851 1_565
O7 S1 1.489851 1_455
O8 S2 1.489856 1_555
O9 S0 1.493266 1_555
O10 S1 1.493271 1_555
O11 S2 1.493267 1_555
O12 S3 1.491051 1_555
O12 O25 3.124937 1_555
O12 O24 3.437301 1_555
O13 S4 1.491051 1_565
O13 O26 3.124926 1_555
O13 O25 3.437301 1_555
O14 S5 1.491051 1_455
O14 O24 3.124926 1_556
O14 O26 3.437301 1_555
O15 S3 1.483184 1_555
O15 O24 3.382616 1_555
O16 S4 1.483184 1_555
O16 O25 3.382616 1_545
O17 S5 1.483184 1_555
O17 O26 3.382616 1_655
O18 S3 1.491696 1_555
O18 O24 3.200724 1_545
O19 S4 1.491696 1_555
O19 O25 3.200724 1_655
O20 S5 1.491696 1_555
O20 O26 3.200724 1_555
O21 S3 1.500927 1_555
O21 O24 2.451402 1_545
O22 S4 1.500927 1_555
O22 O25 2.451402 1_655
O23 S5 1.500927 1_555
O23 O26 2.451402 1_555
O24 O3 2.708741 1_455
O24 O6 3.271127 1_555
O25 O4 2.708741 1_555
O25 O7 3.271121 1_555
O26 O5 2.708741 1_565
O26 O8 3.271127 1_555
