# generated using pymatgen
data_CaMn3(CO)6
_symmetry_space_group_name_H-M   'P 1'
_cell_length_a   12.39886272
_cell_length_b   15.51472690
_cell_length_c   49.13348823
_cell_angle_alpha   88.16068975
_cell_angle_beta   91.45074180
_cell_angle_gamma   103.97421079
_symmetry_Int_Tables_number   1
_chemical_formula_structural   CaMn3(CO)6
_chemical_formula_sum   'Ca8 Mn24 C48 O48'
_cell_volume   9165.60915585
_cell_formula_units_Z   8
loop_
 _symmetry_equiv_pos_site_id
 _symmetry_equiv_pos_as_xyz
  1  'x, y, z'
loop_
 _atom_site_type_symbol
 _atom_site_label
 _atom_site_symmetry_multiplicity
 _atom_site_fract_x
 _atom_site_fract_y
 _atom_site_fract_z
 _atom_site_occupancy
  Ca  Ca0_0  1  0.00000000  0.00000000  0.00000000  1
  Ca  Ca0_1  1  0.00000000  0.00000000  0.50000000  1
  Ca  Ca0_2  1  0.00000000  0.50000000  0.00000000  1
  Ca  Ca0_3  1  0.00000000  0.50000000  0.50000000  1
  Ca  Ca0_4  1  0.50000000  0.00000000  0.00000000  1
  Ca  Ca0_5  1  0.50000000  0.00000000  0.50000000  1
  Ca  Ca0_6  1  0.50000000  0.50000000  0.00000000  1
  Ca  Ca0_7  1  0.50000000  0.50000000  0.50000000  1
  Mn  Mn0_0  1  0.00000000  0.00000000  0.25000000  1
  Mn  Mn0_1  1  0.00000000  0.00000000  0.75000000  1
  Mn  Mn0_2  1  0.00000000  0.50000000  0.25000000  1
  Mn  Mn0_3  1  0.00000000  0.50000000  0.75000000  1
  Mn  Mn0_4  1  0.50000000  0.00000000  0.25000000  1
  Mn  Mn0_5  1  0.50000000  0.00000000  0.75000000  1
  Mn  Mn0_6  1  0.50000000  0.50000000  0.25000000  1
  Mn  Mn0_7  1  0.50000000  0.50000000  0.75000000  1
  Mn  Mn1_0  1  0.25000000  0.25000000  0.00000000  1
  Mn  Mn1_1  1  0.25000000  0.25000000  0.50000000  1
  Mn  Mn1_2  1  0.25000000  0.75000000  0.00000000  1
  Mn  Mn1_3  1  0.25000000  0.75000000  0.50000000  1
  Mn  Mn1_4  1  0.75000000  0.25000000  0.00000000  1
  Mn  Mn1_5  1  0.75000000  0.25000000  0.50000000  1
  Mn  Mn1_6  1  0.75000000  0.75000000  0.00000000  1
  Mn  Mn1_7  1  0.75000000  0.75000000  0.50000000  1
  Mn  Mn2_0  1  0.00000000  0.25000000  0.00000000  1
  Mn  Mn2_1  1  0.00000000  0.25000000  0.50000000  1
  Mn  Mn2_2  1  0.00000000  0.75000000  0.00000000  1
  Mn  Mn2_3  1  0.00000000  0.75000000  0.50000000  1
  Mn  Mn2_4  1  0.50000000  0.25000000  0.00000000  1
  Mn  Mn2_5  1  0.50000000  0.25000000  0.50000000  1
  Mn  Mn2_6  1  0.50000000  0.75000000  0.00000000  1
  Mn  Mn2_7  1  0.50000000  0.75000000  0.50000000  1
  C  C0_0  1  0.45271400  0.00556050  0.37145900  1
  C  C0_1  1  0.45271400  0.00556050  0.87145900  1
  C  C0_2  1  0.45271400  0.50556050  0.37145900  1
  C  C0_3  1  0.45271400  0.50556050  0.87145900  1
  C  C0_4  1  0.95271400  0.00556050  0.37145900  1
  C  C0_5  1  0.95271400  0.00556050  0.87145900  1
  C  C0_6  1  0.95271400  0.50556050  0.37145900  1
  C  C0_7  1  0.95271400  0.50556050  0.87145900  1
  C  C1_0  1  0.04728600  0.49443950  0.12854100  1
  C  C1_1  1  0.04728600  0.49443950  0.62854100  1
  C  C1_2  1  0.04728600  0.99443950  0.12854100  1
  C  C1_3  1  0.04728600  0.99443950  0.62854100  1
  C  C1_4  1  0.54728600  0.49443950  0.12854100  1
  C  C1_5  1  0.54728600  0.49443950  0.62854100  1
  C  C1_6  1  0.54728600  0.99443950  0.12854100  1
  C  C1_7  1  0.54728600  0.99443950  0.62854100  1
  C  C2_0  1  0.33239700  0.38309200  0.48898450  1
  C  C2_1  1  0.33239700  0.38309200  0.98898450  1
  C  C2_2  1  0.33239700  0.88309200  0.48898450  1
  C  C2_3  1  0.33239700  0.88309200  0.98898450  1
  C  C2_4  1  0.83239700  0.38309200  0.48898450  1
  C  C2_5  1  0.83239700  0.38309200  0.98898450  1
  C  C2_6  1  0.83239700  0.88309200  0.48898450  1
  C  C2_7  1  0.83239700  0.88309200  0.98898450  1
  C  C3_0  1  0.16760300  0.11690800  0.01101550  1
  C  C3_1  1  0.16760300  0.11690800  0.51101550  1
  C  C3_2  1  0.16760300  0.61690800  0.01101550  1
  C  C3_3  1  0.16760300  0.61690800  0.51101550  1
  C  C3_4  1  0.66760300  0.11690800  0.01101550  1
  C  C3_5  1  0.66760300  0.11690800  0.51101550  1
  C  C3_6  1  0.66760300  0.61690800  0.01101550  1
  C  C3_7  1  0.66760300  0.61690800  0.51101550  1
  C  C4_0  1  0.09446650  0.16256050  0.00171900  1
  C  C4_1  1  0.09446650  0.16256050  0.50171900  1
  C  C4_2  1  0.09446650  0.66256050  0.00171900  1
  C  C4_3  1  0.09446650  0.66256050  0.50171900  1
  C  C4_4  1  0.59446650  0.16256050  0.00171900  1
  C  C4_5  1  0.59446650  0.16256050  0.50171900  1
  C  C4_6  1  0.59446650  0.66256050  0.00171900  1
  C  C4_7  1  0.59446650  0.66256050  0.50171900  1
  C  C5_0  1  0.40553350  0.33743950  0.49828100  1
  C  C5_1  1  0.40553350  0.33743950  0.99828100  1
  C  C5_2  1  0.40553350  0.83743950  0.49828100  1
  C  C5_3  1  0.40553350  0.83743950  0.99828100  1
  C  C5_4  1  0.90553350  0.33743950  0.49828100  1
  C  C5_5  1  0.90553350  0.33743950  0.99828100  1
  C  C5_6  1  0.90553350  0.83743950  0.49828100  1
  C  C5_7  1  0.90553350  0.83743950  0.99828100  1
  O  O0_0  1  0.48694200  0.07941400  0.37813550  1
  O  O0_1  1  0.48694200  0.07941400  0.87813550  1
  O  O0_2  1  0.48694200  0.57941400  0.37813550  1
  O  O0_3  1  0.48694200  0.57941400  0.87813550  1
  O  O0_4  1  0.98694200  0.07941400  0.37813550  1
  O  O0_5  1  0.98694200  0.07941400  0.87813550  1
  O  O0_6  1  0.98694200  0.57941400  0.37813550  1
  O  O0_7  1  0.98694200  0.57941400  0.87813550  1
  O  O1_0  1  0.01305800  0.42058600  0.12186450  1
  O  O1_1  1  0.01305800  0.42058600  0.62186450  1
  O  O1_2  1  0.01305800  0.92058600  0.12186450  1
  O  O1_3  1  0.01305800  0.92058600  0.62186450  1
  O  O1_4  1  0.51305800  0.42058600  0.12186450  1
  O  O1_5  1  0.51305800  0.42058600  0.62186450  1
  O  O1_6  1  0.51305800  0.92058600  0.12186450  1
  O  O1_7  1  0.51305800  0.92058600  0.62186450  1
  O  O2_0  1  0.41849000  0.43162250  0.36478000  1
  O  O2_1  1  0.41849000  0.43162250  0.86478000  1
  O  O2_2  1  0.41849000  0.93162250  0.36478000  1
  O  O2_3  1  0.41849000  0.93162250  0.86478000  1
  O  O2_4  1  0.91849000  0.43162250  0.36478000  1
  O  O2_5  1  0.91849000  0.43162250  0.86478000  1
  O  O2_6  1  0.91849000  0.93162250  0.36478000  1
  O  O2_7  1  0.91849000  0.93162250  0.86478000  1
  O  O3_0  1  0.08151000  0.06837750  0.13522000  1
  O  O3_1  1  0.08151000  0.06837750  0.63522000  1
  O  O3_2  1  0.08151000  0.56837750  0.13522000  1
  O  O3_3  1  0.08151000  0.56837750  0.63522000  1
  O  O3_4  1  0.58151000  0.06837750  0.13522000  1
  O  O3_5  1  0.58151000  0.06837750  0.63522000  1
  O  O3_6  1  0.58151000  0.56837750  0.13522000  1
  O  O3_7  1  0.58151000  0.56837750  0.63522000  1
  O  O4_0  1  0.32282800  0.46026150  0.48157250  1
  O  O4_1  1  0.32282800  0.46026150  0.98157250  1
  O  O4_2  1  0.32282800  0.96026150  0.48157250  1
  O  O4_3  1  0.32282800  0.96026150  0.98157250  1
  O  O4_4  1  0.82282800  0.46026150  0.48157250  1
  O  O4_5  1  0.82282800  0.46026150  0.98157250  1
  O  O4_6  1  0.82282800  0.96026150  0.48157250  1
  O  O4_7  1  0.82282800  0.96026150  0.98157250  1
  O  O5_0  1  0.17717200  0.03973850  0.01842750  1
  O  O5_1  1  0.17717200  0.03973850  0.51842750  1
  O  O5_2  1  0.17717200  0.53973850  0.01842750  1
  O  O5_3  1  0.17717200  0.53973850  0.51842750  1
  O  O5_4  1  0.67717200  0.03973850  0.01842750  1
  O  O5_5  1  0.67717200  0.03973850  0.51842750  1
  O  O5_6  1  0.67717200  0.53973850  0.01842750  1
  O  O5_7  1  0.67717200  0.53973850  0.51842750  1
loop_
_geom_bond_atom_site_label_1
_geom_bond_atom_site_label_2
_geom_bond_distance
_geom_bond_site_symmetry_2
Ca0_0 O5_0 2.303587 1_555
Ca0_0 O4_7 2.303587 1_444
Ca0_1 O5_1 2.303587 1_555
Ca0_1 O4_6 2.303587 1_445
Ca0_2 O5_2 2.303587 1_555
Ca0_2 O4_5 2.303587 1_454
Ca0_3 O5_3 2.303587 1_555
Ca0_3 O4_4 2.303587 1_455
Ca0_4 O5_4 2.303587 1_555
Ca0_4 O4_3 2.303587 1_544
Ca0_5 O5_5 2.303587 1_555
Ca0_5 O4_2 2.303587 1_545
Ca0_6 O5_6 2.303587 1_555
Ca0_6 O4_1 2.303587 1_554
Ca0_7 O5_7 2.303587 1_555
Ca0_7 O4_0 2.303587 1_555
Mn0_0 O3_0 5.773903 1_555
Mn0_0 O2_6 5.773903 1_445
Mn0_0 Mn0_4 6.199431 1_555
Mn0_0 Mn0_4 6.199431 1_455
Mn0_0 Mn0_2 7.757363 1_555
Mn0_0 Mn0_2 7.757363 1_545
Mn0_1 O2_7 5.773903 1_445
Mn0_1 O3_1 5.773903 1_555
Mn0_1 Mn0_5 6.199431 1_555
Mn0_1 Mn0_5 6.199431 1_455
Mn0_1 Mn0_3 7.757363 1_555
Mn0_1 Mn0_3 7.757363 1_545
Mn0_2 O3_2 5.773903 1_555
Mn0_2 O2_4 5.773903 1_455
Mn0_2 Mn0_6 6.199431 1_555
Mn0_2 Mn0_6 6.199431 1_455
Mn0_3 O2_5 5.773903 1_455
Mn0_3 O3_3 5.773903 1_555
Mn0_3 Mn0_7 6.199431 1_455
Mn0_3 Mn0_7 6.199431 1_555
Mn0_4 O3_4 5.773903 1_555
Mn0_4 O2_2 5.773903 1_545
Mn0_4 Mn0_6 7.757363 1_555
Mn0_4 Mn0_6 7.757363 1_545
Mn0_5 O2_3 5.773903 1_545
Mn0_5 O3_5 5.773903 1_555
Mn0_5 Mn0_7 7.757363 1_555
Mn0_5 Mn0_7 7.757363 1_545
Mn0_6 O3_6 5.773903 1_555
Mn0_6 O2_0 5.773903 1_555
Mn0_7 O2_1 5.773903 1_555
Mn0_7 O3_7 5.773903 1_555
C0_0 O0_0 1.175941 1_555
C0_0 O2_2 1.177147 1_545
C0_1 O0_1 1.175941 1_555
C0_1 O2_3 1.177147 1_545
C0_2 O0_2 1.175941 1_555
C0_2 O2_0 1.177147 1_555
C0_3 O0_3 1.175941 1_555
C0_3 O2_1 1.177147 1_555
C0_4 O0_4 1.175941 1_555
C0_4 O2_6 1.177147 1_545
C0_5 O0_5 1.175941 1_555
C0_5 O2_7 1.177147 1_545
C0_6 O0_6 1.175941 1_555
C0_6 O2_4 1.177147 1_555
C0_7 O0_7 1.175941 1_555
C0_7 O2_5 1.177147 1_555
C1_0 O1_0 1.175941 1_555
C1_0 O3_2 1.177147 1_555
C1_1 O1_1 1.175941 1_555
C1_1 O3_3 1.177147 1_555
C1_2 O1_2 1.175941 1_555
C1_2 O3_0 1.177147 1_565
C1_3 O1_3 1.175941 1_555
C1_3 O3_1 1.177147 1_565
C1_4 O1_4 1.175941 1_555
C1_4 O3_6 1.177147 1_555
C1_5 O1_5 1.175941 1_555
C1_5 O3_7 1.177147 1_555
C1_6 O1_6 1.175941 1_555
C1_6 O3_4 1.177147 1_565
C1_7 O1_7 1.175941 1_555
C1_7 O3_5 1.177147 1_565
C2_0 O4_0 1.272231 1_555
C2_0 C5_0 1.342040 1_555
C2_0 Mn1_1 2.130216 1_555
C2_0 Ca0_7 2.467159 1_555
C2_1 O4_1 1.272231 1_555
C2_1 C5_1 1.342040 1_555
C2_1 Mn1_0 2.130216 1_556
C2_1 Ca0_6 2.467159 1_556
C2_2 O4_2 1.272231 1_555
C2_2 C5_2 1.342040 1_555
C2_2 Mn1_3 2.130216 1_555
C2_2 Ca0_5 2.467159 1_565
C2_3 O4_3 1.272231 1_555
C2_3 C5_3 1.342040 1_555
C2_3 Mn1_2 2.130216 1_556
C2_3 Ca0_4 2.467159 1_566
C2_4 O4_4 1.272231 1_555
C2_4 C5_4 1.342040 1_555
C2_4 Mn1_5 2.130216 1_555
C2_4 Ca0_3 2.467159 1_655
C2_5 O4_5 1.272231 1_555
C2_5 C5_5 1.342040 1_555
C2_5 Mn1_4 2.130216 1_556
C2_5 Ca0_2 2.467159 1_656
C2_6 O4_6 1.272231 1_555
C2_6 C5_6 1.342040 1_555
C2_6 Mn1_7 2.130216 1_555
C2_6 Ca0_1 2.467159 1_665
C2_7 O4_7 1.272231 1_555
C2_7 C5_7 1.342040 1_555
C2_7 Mn1_6 2.130216 1_556
C2_7 Ca0_0 2.467159 1_666
C3_0 O5_0 1.272231 1_555
C3_0 C4_0 1.342040 1_555
C3_0 Mn1_0 2.130216 1_555
C3_0 Ca0_0 2.467159 1_555
C3_1 O5_1 1.272231 1_555
C3_1 C4_1 1.342040 1_555
C3_1 Mn1_1 2.130216 1_555
C3_1 Ca0_1 2.467159 1_555
C3_2 O5_2 1.272231 1_555
C3_2 C4_2 1.342040 1_555
C3_2 Mn1_2 2.130216 1_555
C3_2 Ca0_2 2.467159 1_555
C3_3 O5_3 1.272231 1_555
C3_3 C4_3 1.342040 1_555
C3_3 Mn1_3 2.130216 1_555
C3_3 Ca0_3 2.467159 1_555
C3_4 O5_4 1.272231 1_555
C3_4 C4_4 1.342040 1_555
C3_4 Mn1_4 2.130216 1_555
C3_4 Ca0_4 2.467159 1_555
C3_5 O5_5 1.272231 1_555
C3_5 C4_5 1.342040 1_555
C3_5 Mn1_5 2.130216 1_555
C3_5 Ca0_5 2.467159 1_555
C3_6 O5_6 1.272231 1_555
C3_6 C4_6 1.342040 1_555
C3_6 Mn1_6 2.130216 1_555
C3_6 Ca0_6 2.467159 1_555
C3_7 O5_7 1.272231 1_555
C3_7 C4_7 1.342040 1_555
C3_7 Mn1_7 2.130216 1_555
C3_7 Ca0_7 2.467159 1_555
C4_0 Mn2_0 1.993600 1_555
C4_0 Mn1_0 2.074550 1_555
C4_0 Ca0_0 2.514332 1_555
C4_1 Mn2_1 1.993600 1_555
C4_1 Mn1_1 2.074550 1_555
C4_1 Ca0_1 2.514332 1_555
C4_2 Mn2_2 1.993600 1_555
C4_2 Mn1_2 2.074550 1_555
C4_2 Ca0_2 2.514332 1_555
C4_3 Mn2_3 1.993600 1_555
C4_3 Mn1_3 2.074550 1_555
C4_3 Ca0_3 2.514332 1_555
C4_4 Mn2_4 1.993600 1_555
C4_4 Mn1_4 2.074550 1_555
C4_4 Ca0_4 2.514332 1_555
C4_5 Mn2_5 1.993600 1_555
C4_5 Mn1_5 2.074550 1_555
C4_5 Ca0_5 2.514332 1_555
C4_6 Mn2_6 1.993600 1_555
C4_6 Mn1_6 2.074550 1_555
C4_6 Ca0_6 2.514332 1_555
C4_7 Mn2_7 1.993600 1_555
C4_7 Mn1_7 2.074550 1_555
C4_7 Ca0_7 2.514332 1_555
C5_0 Mn2_5 1.993600 1_555
C5_0 Mn1_1 2.074550 1_555
C5_0 Ca0_7 2.514332 1_555
C5_1 Mn2_4 1.993600 1_556
C5_1 Mn1_0 2.074550 1_556
C5_1 Ca0_6 2.514332 1_556
C5_2 Mn2_7 1.993600 1_555
C5_2 Mn1_3 2.074550 1_555
C5_2 Ca0_5 2.514332 1_565
C5_3 Mn2_6 1.993600 1_556
C5_3 Mn1_2 2.074550 1_556
C5_3 Ca0_4 2.514332 1_566
C5_4 Mn2_1 1.993600 1_655
C5_4 Mn1_5 2.074550 1_555
C5_4 Ca0_3 2.514332 1_655
C5_5 Mn2_0 1.993600 1_656
C5_5 Mn1_4 2.074550 1_556
C5_5 Ca0_2 2.514332 1_656
C5_6 Mn2_3 1.993600 1_655
C5_6 Mn1_7 2.074550 1_555
C5_6 Ca0_1 2.514332 1_665
C5_7 Mn2_2 1.993600 1_656
C5_7 Mn1_6 2.074550 1_556
C5_7 Ca0_0 2.514332 1_666
