# generated using pymatgen
data_CeAlCo4
_symmetry_space_group_name_H-M   'P 1'
_cell_length_a   5.09558024
_cell_length_b   5.09558024
_cell_length_c   3.85963600
_cell_angle_alpha   90.00000000
_cell_angle_beta   90.00000000
_cell_angle_gamma   120.00000307
_symmetry_Int_Tables_number   1
_chemical_formula_structural   CeAlCo4
_chemical_formula_sum   'Ce1 Al1 Co4'
_cell_volume   86.78891436
_cell_formula_units_Z   1
loop_
 _symmetry_equiv_pos_site_id
 _symmetry_equiv_pos_as_xyz
  1  'x, y, z'
loop_
 _atom_site_type_symbol
 _atom_site_label
 _atom_site_symmetry_multiplicity
 _atom_site_fract_x
 _atom_site_fract_y
 _atom_site_fract_z
 _atom_site_occupancy
  Ce  Ce0  1  0.33333300  0.66666700  0.00000000  1
  Al  Al0  1  0.66666700  0.33333300  0.00000000  1
  Co  Co0  1  0.00000000  0.00000000  0.00000000  1
  Co  Co1  1  0.32664100  0.16332000  0.50000000  1
  Co  Co2  1  0.83668000  0.16332000  0.50000000  1
  Co  Co3  1  0.83668000  0.67335900  0.50000000  1
loop_
_geom_bond_atom_site_label_1
_geom_bond_atom_site_label_2
_geom_bond_distance
_geom_bond_site_symmetry_2
Ce0 Co0 2.941932 1_565
Ce0 Co0 2.941936 1_555
Ce0 Co0 2.941936 1_665
Ce0 Co3 3.196291 1_455
Ce0 Co3 3.196291 1_454
Ce0 Co1 3.196291 1_564
Ce0 Co1 3.196291 1_565
Ce0 Co2 3.196295 1_455
Ce0 Co2 3.196295 1_454
Ce0 Co2 3.196295 1_565
Ce0 Co2 3.196295 1_564
Ce0 Co1 3.196299 1_554
Ce0 Co1 3.196299 1_555
Ce0 Co3 3.196299 1_554
Ce0 Co3 3.196299 1_555
Al0 Co3 2.444525 1_554
Al0 Co3 2.444525 1_555
Al0 Co1 2.444525 1_554
Al0 Co1 2.444525 1_555
Al0 Co2 2.444525 1_554
Al0 Co2 2.444525 1_555
Al0 Ce0 2.941932 1_545
Al0 Ce0 2.941932 1_655
Al0 Co0 2.941932 1_655
Al0 Co0 2.941936 1_555
Al0 Co0 2.941936 1_665
Al0 Ce0 2.941941 1_555
Co0 Co2 2.408717 1_455
Co0 Co2 2.408717 1_454
Co0 Co1 2.408720 1_554
Co0 Co1 2.408720 1_555
Co0 Co3 2.408720 1_444
Co0 Co3 2.408720 1_445
Co1 Co3 2.496635 1_445
Co1 Co2 2.496636 1_455
Co1 Co3 2.598945 1_555
Co1 Co2 2.598945 1_555
Co2 Co3 2.496636 1_545
Co2 Co3 2.598945 1_555
