# generated using pymatgen
data_USi3Ni2
_symmetry_space_group_name_H-M   'P 1'
_cell_length_a   12.11435837
_cell_length_b   12.11435837
_cell_length_c   12.11435837
_cell_angle_alpha   161.53109909
_cell_angle_beta   161.53109909
_cell_angle_gamma   26.23461329
_symmetry_Int_Tables_number   1
_chemical_formula_structural   USi3Ni2
_chemical_formula_sum   'U2 Si6 Ni4'
_cell_volume   178.35778435
_cell_formula_units_Z   2
loop_
 _symmetry_equiv_pos_site_id
 _symmetry_equiv_pos_as_xyz
  1  'x, y, z'
loop_
 _atom_site_type_symbol
 _atom_site_label
 _atom_site_symmetry_multiplicity
 _atom_site_fract_x
 _atom_site_fract_y
 _atom_site_fract_z
 _atom_site_occupancy
  U  U0  1  0.85034000  0.85034000  0.00000000  1
  U  U1  1  0.14966000  0.14966000  0.00000000  1
  Si  Si0  1  0.95036900  0.45036900  0.50000000  1
  Si  Si1  1  0.45036900  0.95036900  0.50000000  1
  Si  Si2  1  0.04963100  0.54963100  0.50000000  1
  Si  Si3  1  0.54963100  0.04963100  0.50000000  1
  Si  Si4  1  0.69652300  0.69652300  0.00000000  1
  Si  Si5  1  0.30347700  0.30347700  0.00000000  1
  Ni  Ni0  1  0.75000000  0.25000000  0.50000000  1
  Ni  Ni1  1  0.25000000  0.75000000  0.50000000  1
  Ni  Ni2  1  0.59959900  0.59959900  0.00000000  1
  Ni  Ni3  1  0.40040100  0.40040100  0.00000000  1
loop_
_geom_bond_atom_site_label_1
_geom_bond_atom_site_label_2
_geom_bond_distance
_geom_bond_site_symmetry_2
Si0 Si2 2.342239 1_655
Si0 Si1 2.749299 1_645
Si0 Si1 2.749299 1_656
Si0 Si1 2.749299 1_544
Si0 Si1 2.749299 1_555
Si0 U0 3.057861 1_556
Si0 U0 3.057861 1_545
Si1 Si3 2.342239 1_565
Si1 U0 3.057861 1_556
Si1 U0 3.057861 1_455
Si2 Si3 2.749299 1_465
Si2 Si3 2.749299 1_454
Si2 Si3 2.749299 1_566
Si2 Si3 2.749299 1_555
Si2 U1 3.057861 1_566
Si2 U1 3.057861 1_555
Si3 U1 3.057861 1_656
Si3 U1 3.057861 1_555
Si4 U1 2.963351 1_565
Si4 U1 2.963351 1_655
Si4 U1 2.963351 1_554
Si4 U1 2.963351 1_666
Si5 U0 2.963351 1_545
Si5 U0 2.963351 1_444
Si5 U0 2.963351 1_455
Si5 U0 2.963351 1_556
Ni0 Si4 2.317680 1_545
Ni0 Si5 2.317680 1_656
Ni0 Si5 2.317680 1_555
Ni0 Si4 2.317680 1_556
Ni0 Ni1 2.749299 1_544
Ni0 Ni1 2.749299 1_645
Ni0 Ni1 2.749299 1_555
Ni0 Ni1 2.749299 1_656
Ni0 U1 3.063529 1_555
Ni0 U1 3.063529 1_656
Ni0 U0 3.063529 1_556
Ni0 U0 3.063529 1_545
Ni1 Si5 2.317680 1_555
Ni1 Si4 2.317680 1_455
Ni1 Si5 2.317680 1_566
Ni1 Si4 2.317680 1_556
Ni1 U1 3.063529 1_555
Ni1 U1 3.063529 1_566
Ni1 U0 3.063529 1_556
Ni1 U0 3.063529 1_455
Ni2 Si3 2.273660 1_565
Ni2 Si2 2.273660 1_655
Ni2 Si2 2.273660 1_554
Ni2 Si3 2.273660 1_554
Ni2 Si4 2.287070 1_555
Ni2 U1 2.992329 1_565
Ni2 U1 2.992329 1_655
Ni2 U1 2.992329 1_666
Ni2 U1 2.992329 1_554
Ni3 Si0 2.273660 1_454
Ni3 Si0 2.273660 1_555
Ni3 Si1 2.273660 1_544
Ni3 Si1 2.273660 1_555
Ni3 Si5 2.287070 1_555
Ni3 U0 2.992329 1_455
Ni3 U0 2.992329 1_556
Ni3 U0 2.992329 1_545
Ni3 U0 2.992329 1_444
