# generated using pymatgen
data_Si2Ir3
_symmetry_space_group_name_H-M   'P 1'
_cell_length_a   4.03511380
_cell_length_b   4.03511380
_cell_length_c   5.44655400
_cell_angle_alpha   90.00000000
_cell_angle_beta   90.00000000
_cell_angle_gamma   119.99999672
_symmetry_Int_Tables_number   1
_chemical_formula_structural   Si2Ir3
_chemical_formula_sum   'Si2 Ir3'
_cell_volume   76.80049773
_cell_formula_units_Z   1
loop_
 _symmetry_equiv_pos_site_id
 _symmetry_equiv_pos_as_xyz
  1  'x, y, z'
loop_
 _atom_site_type_symbol
 _atom_site_label
 _atom_site_symmetry_multiplicity
 _atom_site_fract_x
 _atom_site_fract_y
 _atom_site_fract_z
 _atom_site_occupancy
  Si  Si0  1  0.66666700  0.33333300  0.00000000  1
  Si  Si1  1  0.00000000  0.00000000  0.50000000  1
  Ir  Ir0  1  0.00000000  0.00000000  0.00000000  1
  Ir  Ir1  1  0.33333300  0.66666700  0.26682100  1
  Ir  Ir2  1  0.33333300  0.66666700  0.73317900  1
loop_
_geom_bond_atom_site_label_1
_geom_bond_atom_site_label_2
_geom_bond_distance
_geom_bond_site_symmetry_2
Ir0 Si0 2.329672 1_455
Ir0 Si0 2.329675 1_445
Ir0 Si0 2.329675 1_555
Ir0 Si1 2.723277 1_555
Ir0 Si1 2.723277 1_554
Ir0 Ir1 2.745782 1_545
Ir0 Ir2 2.745782 1_544
Ir0 Ir1 2.745785 1_555
Ir0 Ir1 2.745785 1_445
Ir0 Ir2 2.745785 1_554
Ir0 Ir2 2.745785 1_444
Ir1 Ir2 2.540044 1_555
Ir1 Si1 2.653361 1_565
Ir1 Si1 2.653364 1_665
Ir1 Si1 2.653364 1_555
Ir1 Si0 2.745782 1_455
Ir1 Si0 2.745782 1_565
Ir1 Si0 2.745788 1_555
Ir1 Ir2 2.906510 1_554
Ir2 Si1 2.653361 1_565
Ir2 Si1 2.653364 1_555
Ir2 Si1 2.653364 1_665
Ir2 Si0 2.745782 1_456
Ir2 Si0 2.745782 1_566
Ir2 Si0 2.745788 1_556
