# generated using pymatgen
data_UNiGe
_symmetry_space_group_name_H-M   'P 1'
_cell_length_a   5.32923048
_cell_length_b   5.32923048
_cell_length_c   6.66906503
_cell_angle_alpha   53.90120744
_cell_angle_beta   53.90120744
_cell_angle_gamma   46.05195073
_symmetry_Int_Tables_number   1
_chemical_formula_structural   UNiGe
_chemical_formula_sum   'U2 Ni2 Ge2'
_cell_volume   104.75972112
_cell_formula_units_Z   2
loop_
 _symmetry_equiv_pos_site_id
 _symmetry_equiv_pos_as_xyz
  1  'x, y, z'
loop_
 _atom_site_type_symbol
 _atom_site_label
 _atom_site_symmetry_multiplicity
 _atom_site_fract_x
 _atom_site_fract_y
 _atom_site_fract_z
 _atom_site_occupancy
  U  U0  1  0.44898700  0.44898700  0.32572100  1
  U  U1  1  0.55101300  0.55101300  0.67427900  1
  Ni  Ni0  1  0.83675200  0.83675200  0.71360200  1
  Ni  Ni1  1  0.16324800  0.16324800  0.28639800  1
  Ge  Ge0  1  0.16421200  0.16421200  0.89950000  1
  Ge  Ge1  1  0.83578800  0.83578800  0.10050000  1
loop_
_geom_bond_atom_site_label_1
_geom_bond_atom_site_label_2
_geom_bond_distance
_geom_bond_site_symmetry_2
U0 U1 3.063305 1_555
Ni0 Ni1 2.586779 1_665
Ni0 U1 2.850547 1_565
Ni0 U1 2.850547 1_655
Ni0 U0 2.932995 1_655
Ni0 U0 2.932995 1_565
Ni0 U1 2.977603 1_555
Ni0 U0 3.354370 1_556
Ni1 U0 2.850547 1_545
Ni1 U0 2.850547 1_455
Ni1 U1 2.932995 1_545
Ni1 U1 2.932995 1_455
Ni1 U0 2.977603 1_555
Ni1 U1 3.354370 1_554
Ge0 Ni0 2.461744 1_545
Ge0 Ni0 2.461744 1_455
Ge0 Ni1 2.574204 1_556
Ge0 Ge1 2.578049 1_446
Ge0 U0 2.959680 1_555
Ge0 U0 3.032916 1_546
Ge0 U0 3.032916 1_456
Ge0 U1 3.058671 1_555
Ge0 U1 3.157483 1_455
Ge0 U1 3.157483 1_545
Ge1 Ni1 2.461744 1_565
Ge1 Ni1 2.461744 1_655
Ge1 Ni0 2.574204 1_554
Ge1 U1 2.959680 1_555
Ge1 U1 3.032916 1_564
Ge1 U1 3.032916 1_654
Ge1 U0 3.058671 1_555
Ge1 U0 3.157483 1_655
Ge1 U0 3.157483 1_565
