# generated using pymatgen
data_Na2TiF6
_symmetry_space_group_name_H-M   'P 1'
_cell_length_a   9.42690673
_cell_length_b   9.42690607
_cell_length_c   4.54788918
_cell_angle_alpha   90.00000000
_cell_angle_beta   90.00000000
_cell_angle_gamma   119.99999910
_symmetry_Int_Tables_number   1
_chemical_formula_structural   Na2TiF6
_chemical_formula_sum   'Na6 Ti3 F18'
_cell_volume   350.00874804
_cell_formula_units_Z   3
loop_
 _symmetry_equiv_pos_site_id
 _symmetry_equiv_pos_as_xyz
  1  'x, y, z'
loop_
 _atom_site_type_symbol
 _atom_site_label
 _atom_site_symmetry_multiplicity
 _atom_site_fract_x
 _atom_site_fract_y
 _atom_site_fract_z
 _atom_site_occupancy
  Na  Na0  1  0.34228635  0.34228635  0.00000000  1
  Na  Na1  1  -0.00000000  0.65771365  0.00000000  1
  Na  Na2  1  0.65771365  0.00000000  0.00000000  1
  Na  Na3  1  0.65771365  0.65771365  0.00000000  1
  Na  Na4  1  0.00000000  0.34228635  0.00000000  1
  Na  Na5  1  0.34228635  -0.00000000  0.00000000  1
  Ti  Ti0  1  0.66666700  0.33333300  0.49699846  1
  Ti  Ti1  1  0.33333300  0.66666700  0.50300154  1
  Ti  Ti2  1  -0.00000000  0.00000000  0.00000000  1
  F  F0  1  0.57160027  0.42839973  0.73245599  1
  F  F1  1  0.57160027  0.14320154  0.73245599  1
  F  F2  1  0.85679846  0.42839973  0.73245599  1
  F  F3  1  0.14320154  0.57160027  0.26754401  1
  F  F4  1  0.42839973  0.85679846  0.26754401  1
  F  F5  1  0.42839973  0.57160027  0.26754401  1
  F  F6  1  0.76142464  0.23857536  0.26280259  1
  F  F7  1  0.76142464  0.52285029  0.26280259  1
  F  F8  1  0.47714971  0.23857536  0.26280259  1
  F  F9  1  0.09707845  0.90292155  0.22145555  1
  F  F10  1  0.09707845  0.19415890  0.22145555  1
  F  F11  1  0.80584110  0.90292155  0.22145555  1
  F  F12  1  0.19415890  0.09707845  0.77854445  1
  F  F13  1  0.90292155  0.80584110  0.77854445  1
  F  F14  1  0.90292155  0.09707845  0.77854445  1
  F  F15  1  0.23857536  0.76142464  0.73719741  1
  F  F16  1  0.23857536  0.47714971  0.73719741  1
  F  F17  1  0.52285029  0.76142464  0.73719741  1
loop_
_geom_bond_atom_site_label_1
_geom_bond_atom_site_label_2
_geom_bond_distance
_geom_bond_site_symmetry_2
F0 Ti0 1.885771 1_555
F0 Na3 2.248930 1_556
F0 Na0 2.248930 1_556
F0 F8 2.638909 1_555
F0 F7 2.638909 1_555
F1 Ti0 1.885757 1_555
F1 Na5 2.248931 1_556
F1 Na2 2.248937 1_556
F1 F6 2.638909 1_555
F1 F8 2.638909 1_555
F2 Ti0 1.885757 1_555
F2 Na1 2.248931 1_656
F2 Na4 2.248938 1_656
F2 F6 2.638909 1_555
F2 F7 2.638909 1_555
F3 Ti1 1.885757 1_555
F3 Na4 2.248931 1_555
F3 Na1 2.248938 1_555
F4 Ti1 1.885757 1_555
F4 Na2 2.248931 1_565
F4 Na5 2.248937 1_565
F5 Ti1 1.885771 1_555
F5 Na0 2.248930 1_555
F5 Na3 2.248930 1_555
F6 Ti0 1.878359 1_555
F6 Na2 2.289902 1_555
F6 Na4 2.289902 1_655
F7 Ti0 1.878373 1_555
F7 Na3 2.289895 1_555
F7 Na1 2.289902 1_655
F8 Ti0 1.878373 1_555
F8 Na0 2.289895 1_555
F8 Na5 2.289901 1_555
F9 Ti2 1.877993 1_565
F9 Na1 2.253823 1_555
F9 Na5 2.253823 1_565
F10 Ti2 1.878007 1_555
F10 Na4 2.253807 1_555
F10 Na0 2.253821 1_555
F11 Ti2 1.878007 1_665
F11 Na2 2.253807 1_565
F11 Na3 2.253821 1_555
F12 Ti2 1.878007 1_556
F12 Na5 2.253807 1_556
F12 Na0 2.253821 1_556
F13 Ti2 1.878007 1_666
F13 Na1 2.253807 1_656
F13 Na3 2.253821 1_556
F14 Ti2 1.877993 1_656
F14 Na4 2.253823 1_656
F14 Na2 2.253823 1_556
F15 Ti1 1.878359 1_555
F15 Na5 2.289902 1_566
F15 Na1 2.289902 1_556
F15 F3 2.638909 1_555
F15 F4 2.638909 1_555
F16 Ti1 1.878373 1_555
F16 Na0 2.289895 1_556
F16 Na4 2.289902 1_556
F16 F5 2.638909 1_555
F16 F3 2.638909 1_555
F17 Ti1 1.878373 1_555
F17 Na3 2.289895 1_556
F17 Na2 2.289901 1_566
F17 F5 2.638909 1_555
F17 F4 2.638909 1_555
