# generated using pymatgen
data_Si13Rh20
_symmetry_space_group_name_H-M   'P 1'
_cell_length_a   11.99859741
_cell_length_b   11.99859741
_cell_length_c   3.63404800
_cell_angle_alpha   90.00000000
_cell_angle_beta   90.00000000
_cell_angle_gamma   119.99999676
_symmetry_Int_Tables_number   1
_chemical_formula_structural   Si13Rh20
_chemical_formula_sum   'Si13 Rh20'
_cell_volume   453.08769606
_cell_formula_units_Z   1
loop_
 _symmetry_equiv_pos_site_id
 _symmetry_equiv_pos_as_xyz
  1  'x, y, z'
loop_
 _atom_site_type_symbol
 _atom_site_label
 _atom_site_symmetry_multiplicity
 _atom_site_fract_x
 _atom_site_fract_y
 _atom_site_fract_z
 _atom_site_occupancy
  Si  Si0  1  0.16560900  0.54971200  0.25007900  1
  Si  Si1  1  0.45028800  0.61589700  0.25007900  1
  Si  Si2  1  0.38410300  0.83439100  0.25007900  1
  Si  Si3  1  0.83439100  0.45028800  0.74992100  1
  Si  Si4  1  0.54971200  0.38410300  0.74992100  1
  Si  Si5  1  0.61589700  0.16560900  0.74992100  1
  Si  Si6  1  0.00000000  0.00000000  0.00000000  1
  Si  Si7  1  0.10736700  0.76905300  0.24772600  1
  Si  Si8  1  0.23094700  0.33831400  0.24772600  1
  Si  Si9  1  0.66168600  0.89263300  0.24772600  1
  Si  Si10  1  0.89263300  0.23094700  0.75227400  1
  Si  Si11  1  0.76905300  0.66168600  0.75227400  1
  Si  Si12  1  0.33831400  0.10736700  0.75227400  1
  Rh  Rh0  1  0.66666700  0.33333300  0.24879800  1
  Rh  Rh1  1  0.33333300  0.66666700  0.75120200  1
  Rh  Rh2  1  0.81604500  0.81204700  0.24694800  1
  Rh  Rh3  1  0.18795300  0.00399800  0.24694800  1
  Rh  Rh4  1  0.99600200  0.18395500  0.24694800  1
  Rh  Rh5  1  0.18395500  0.18795300  0.75305200  1
  Rh  Rh6  1  0.81204700  0.99600200  0.75305200  1
  Rh  Rh7  1  0.00399800  0.81604500  0.75305200  1
  Rh  Rh8  1  0.87129700  0.60014300  0.25239400  1
  Rh  Rh9  1  0.39985700  0.27115300  0.25239400  1
  Rh  Rh10  1  0.72884700  0.12870300  0.25239400  1
  Rh  Rh11  1  0.12870300  0.39985700  0.74760600  1
  Rh  Rh12  1  0.60014300  0.72884700  0.74760600  1
  Rh  Rh13  1  0.27115300  0.87129700  0.74760600  1
  Rh  Rh14  1  0.92887700  0.39032500  0.25089900  1
  Rh  Rh15  1  0.60967500  0.53855200  0.25089900  1
  Rh  Rh16  1  0.46144800  0.07112300  0.25089900  1
  Rh  Rh17  1  0.07112300  0.60967500  0.74910100  1
  Rh  Rh18  1  0.39032500  0.46144800  0.74910100  1
  Rh  Rh19  1  0.53855200  0.92887700  0.74910100  1
loop_
_geom_bond_atom_site_label_1
_geom_bond_atom_site_label_2
_geom_bond_distance
_geom_bond_site_symmetry_2
Si0 Si8 3.006146 1_555
Si0 Si7 3.042016 1_555
Si0 Si1 3.096036 1_555
Si0 Si2 3.096036 1_555
Si1 Si9 3.006146 1_555
Si1 Si8 3.042017 1_555
Si1 Si2 3.096036 1_555
Si2 Si7 3.006146 1_555
Si2 Si9 3.042017 1_555
Si3 Si4 3.096036 1_555
Si3 Si5 3.096036 1_555
Si4 Si5 3.096036 1_555
Si10 Si5 3.006146 1_555
Si10 Si3 3.042016 1_555
Si11 Si3 3.006146 1_555
Si11 Si4 3.042017 1_555
Si12 Si4 3.006146 1_555
Si12 Si5 3.042017 1_555
Rh0 Si5 2.545956 1_554
Rh0 Si3 2.545958 1_554
Rh0 Si4 2.545964 1_554
Rh0 Si5 2.551774 1_555
Rh0 Si3 2.551776 1_555
Rh0 Si4 2.551782 1_555
Rh0 Rh14 2.866101 1_555
Rh0 Rh16 2.866104 1_555
Rh0 Rh15 2.866112 1_555
Rh0 Rh10 2.901202 1_555
Rh0 Rh9 2.901202 1_555
Rh0 Rh8 2.901202 1_555
Rh1 Si2 2.545956 1_556
Rh1 Si0 2.545958 1_556
Rh1 Si1 2.545964 1_556
Rh1 Si2 2.551774 1_555
Rh1 Si0 2.551776 1_555
Rh1 Si1 2.551782 1_555
Rh1 Rh17 2.866101 1_555
Rh1 Rh19 2.866104 1_555
Rh1 Rh18 2.866112 1_555
Rh1 Rh13 2.901202 1_555
Rh1 Rh12 2.901202 1_555
Rh1 Rh11 2.901202 1_555
Rh2 Si6 2.405262 1_665
Rh2 Si11 2.405649 1_554
Rh2 Si11 2.434712 1_555
Rh2 Si9 2.481130 1_555
Rh2 Rh6 2.863805 1_554
Rh2 Rh7 2.863805 1_654
Rh2 Rh6 2.891816 1_555
Rh2 Rh7 2.891816 1_655
Rh2 Rh8 2.930875 1_555
Rh3 Si6 2.405262 1_555
Rh3 Si12 2.405649 1_554
Rh3 Si12 2.434712 1_555
Rh3 Si7 2.481130 1_545
Rh3 Rh5 2.863805 1_554
Rh3 Rh7 2.863805 1_544
Rh3 Rh5 2.891816 1_555
Rh3 Rh7 2.891816 1_545
Rh3 Rh9 2.930867 1_555
Rh4 Si6 2.405262 1_655
Rh4 Si10 2.405649 1_554
Rh4 Si10 2.434712 1_555
Rh4 Si8 2.481130 1_655
Rh4 Rh5 2.863805 1_654
Rh4 Rh6 2.863805 1_544
Rh4 Rh5 2.891816 1_655
Rh4 Rh6 2.891816 1_545
Rh5 Si6 2.405262 1_556
Rh5 Si8 2.405649 1_556
Rh5 Si8 2.434712 1_555
Rh5 Si12 2.481130 1_555
Rh5 Rh9 2.900722 1_556
Rh5 Rh9 2.903716 1_555
Rh6 Si6 2.405262 1_666
Rh6 Si9 2.405649 1_556
Rh6 Si9 2.434712 1_555
Rh6 Si10 2.481130 1_565
Rh7 Si6 2.405262 1_566
Rh7 Si7 2.405649 1_556
Rh7 Si7 2.434712 1_555
Rh7 Si11 2.481130 1_455
Rh7 Rh8 2.900721 1_456
Rh7 Rh8 2.903715 1_455
Rh8 Si3 2.429374 1_555
Rh8 Si3 2.442780 1_554
Rh8 Si11 2.501233 1_555
Rh8 Si11 2.501866 1_554
Rh8 Si7 2.527893 1_655
Rh9 Si4 2.429376 1_555
Rh9 Si4 2.442783 1_554
Rh9 Si12 2.501225 1_555
Rh9 Si12 2.501859 1_554
Rh9 Si8 2.527901 1_555
Rh10 Si5 2.429382 1_555
Rh10 Si5 2.442788 1_554
Rh10 Si10 2.501226 1_555
Rh10 Si10 2.501860 1_554
Rh10 Si9 2.527890 1_545
Rh10 Rh14 2.842580 1_555
Rh10 Rh6 2.900713 1_544
Rh10 Rh6 2.903707 1_545
Rh10 Rh16 2.924830 1_555
Rh10 Rh4 2.930863 1_555
Rh10 Rh19 2.957323 1_545
Rh10 Rh19 2.971992 1_544
Rh11 Si0 2.429374 1_555
Rh11 Si0 2.442780 1_556
Rh11 Si8 2.501233 1_555
Rh11 Si8 2.501866 1_556
Rh11 Si10 2.527893 1_455
Rh11 Rh18 2.842583 1_555
Rh11 Rh4 2.900721 1_456
Rh11 Rh4 2.903715 1_455
Rh11 Rh17 2.924818 1_555
Rh11 Rh5 2.930875 1_555
Rh11 Rh14 2.957318 1_455
Rh11 Rh14 2.971987 1_456
Rh12 Si1 2.429376 1_555
Rh12 Si1 2.442783 1_556
Rh12 Si9 2.501225 1_555
Rh12 Si9 2.501859 1_556
Rh12 Si11 2.527901 1_555
Rh12 Rh19 2.842571 1_555
Rh12 Rh2 2.900722 1_556
Rh12 Rh2 2.903716 1_555
Rh12 Rh18 2.924827 1_555
Rh12 Rh6 2.930867 1_555
Rh12 Rh15 2.957328 1_555
Rh12 Rh15 2.971997 1_556
Rh13 Si2 2.429382 1_555
Rh13 Si2 2.442788 1_556
Rh13 Si7 2.501226 1_555
Rh13 Si7 2.501860 1_556
Rh13 Si12 2.527890 1_565
Rh13 Rh17 2.842580 1_555
Rh13 Rh3 2.900713 1_566
Rh13 Rh3 2.903707 1_565
Rh13 Rh19 2.924830 1_555
Rh13 Rh7 2.930863 1_555
Rh13 Rh16 2.957323 1_565
Rh13 Rh16 2.971992 1_566
Rh14 Si3 2.430484 1_555
Rh14 Si3 2.435792 1_554
Rh14 Si0 2.508663 1_655
Rh14 Si10 2.509557 1_554
Rh14 Si10 2.516783 1_555
Rh14 Rh8 2.924818 1_555
Rh14 Rh17 2.936962 1_655
Rh14 Rh17 2.945036 1_654
Rh14 Rh4 2.962180 1_555
Rh15 Si4 2.430484 1_555
Rh15 Si4 2.435792 1_554
Rh15 Si1 2.508663 1_555
Rh15 Si11 2.509558 1_554
Rh15 Si11 2.516783 1_555
Rh15 Rh8 2.842583 1_555
Rh15 Rh9 2.924827 1_555
Rh15 Rh18 2.936962 1_555
Rh15 Rh18 2.945036 1_554
Rh15 Rh2 2.962180 1_555
Rh16 Si5 2.430484 1_555
Rh16 Si5 2.435792 1_554
Rh16 Si2 2.508663 1_545
Rh16 Si12 2.509557 1_554
Rh16 Si12 2.516783 1_555
Rh16 Rh9 2.842571 1_555
Rh16 Rh19 2.936962 1_545
Rh16 Rh19 2.945036 1_544
Rh16 Rh3 2.962180 1_555
Rh17 Si0 2.430484 1_555
Rh17 Si0 2.435792 1_556
Rh17 Si3 2.508663 1_455
Rh17 Si7 2.509557 1_556
Rh17 Si7 2.516783 1_555
Rh17 Rh8 2.957318 1_455
Rh17 Rh7 2.962180 1_555
Rh17 Rh8 2.971987 1_456
Rh18 Si1 2.430484 1_555
Rh18 Si1 2.435792 1_556
Rh18 Si4 2.508663 1_555
Rh18 Si8 2.509558 1_556
Rh18 Si8 2.516783 1_555
Rh18 Rh9 2.957328 1_555
Rh18 Rh5 2.962180 1_555
Rh18 Rh9 2.971997 1_556
Rh19 Si2 2.430484 1_555
Rh19 Si2 2.435792 1_556
Rh19 Si5 2.508663 1_565
Rh19 Si9 2.509557 1_556
Rh19 Si9 2.516783 1_555
Rh19 Rh6 2.962180 1_555
