# generated using pymatgen
data_Mg14CoB
_symmetry_space_group_name_H-M   'P 1'
_cell_length_a   6.32870497
_cell_length_b   6.46437682
_cell_length_c   9.46145429
_cell_angle_alpha   90.00000000
_cell_angle_beta   90.00000000
_cell_angle_gamma   120.71172383
_symmetry_Int_Tables_number   1
_chemical_formula_structural   Mg14CoB
_chemical_formula_sum   'Mg14 Co1 B1'
_cell_volume   332.79016040
_cell_formula_units_Z   1
loop_
 _symmetry_equiv_pos_site_id
 _symmetry_equiv_pos_as_xyz
  1  'x, y, z'
loop_
 _atom_site_type_symbol
 _atom_site_label
 _atom_site_symmetry_multiplicity
 _atom_site_fract_x
 _atom_site_fract_y
 _atom_site_fract_z
 _atom_site_occupancy
  Mg  Mg0  1  0.18464078  0.34231989  0.62500000  1
  Mg  Mg1  1  0.18114254  0.84057077  0.62500000  1
  Mg  Mg2  1  0.76324921  0.38865396  0.12500000  1
  Mg  Mg3  1  0.65997586  0.32918468  0.62500000  1
  Mg  Mg4  1  0.76324921  0.87459424  0.12500000  1
  Mg  Mg5  1  0.65997586  0.83079018  0.62500000  1
  Mg  Mg6  1  0.30625867  0.14337831  0.31270386  1
  Mg  Mg7  1  0.30625867  0.14337831  0.93729614  1
  Mg  Mg8  1  0.30625867  0.66288136  0.31270386  1
  Mg  Mg9  1  0.30625867  0.66288136  0.93729614  1
  Mg  Mg10  1  0.83876709  0.16938405  0.37415018  1
  Mg  Mg11  1  0.83876709  0.16938405  0.87584982  1
  Mg  Mg12  1  0.82663913  0.66332006  0.37654337  1
  Mg  Mg13  1  0.82663913  0.66332006  0.87345663  1
  Co  Co0  1  0.12896113  0.31448006  0.12500000  1
  B  B0  1  0.10295831  0.80147865  0.12500000  1
loop_
_geom_bond_atom_site_label_1
_geom_bond_atom_site_label_2
_geom_bond_distance
_geom_bond_site_symmetry_2
Mg0 Mg11 3.028978 1_455
Mg0 Mg10 3.028978 1_455
Mg0 Mg5 3.052494 1_555
Mg0 Mg3 3.052494 1_555
Mg0 Mg1 3.232244 1_545
Mg0 Mg1 3.232244 1_555
Mg0 Mg5 3.277897 1_445
Mg0 Mg3 3.277897 1_455
Mg0 Mg6 3.462377 1_555
Mg0 Mg7 3.462377 1_555
Mg0 Mg8 3.462383 1_555
Mg0 Mg9 3.462383 1_555
Mg1 Mg12 3.040835 1_455
Mg1 Mg13 3.040835 1_455
Mg1 Mg3 3.063167 1_565
Mg1 Mg5 3.063168 1_555
Mg1 Mg3 3.266472 1_455
Mg1 Mg5 3.266472 1_455
Mg1 Mg8 3.406774 1_555
Mg1 Mg9 3.406774 1_555
Mg1 Mg6 3.406780 1_565
Mg1 Mg7 3.406780 1_565
Mg2 Mg6 3.057546 1_555
Mg2 Mg7 3.057546 1_554
Mg2 Mg4 3.141301 1_555
Mg2 Mg4 3.323076 1_545
Mg3 Mg5 3.221810 1_545
Mg3 Mg5 3.242567 1_555
Mg3 Mg6 3.526777 1_555
Mg3 Mg7 3.526777 1_555
Mg4 Mg9 3.057546 1_554
Mg4 Mg8 3.057546 1_555
Mg5 Mg8 3.526777 1_555
Mg5 Mg9 3.526777 1_555
Mg6 Mg8 3.106113 1_545
Mg6 Mg8 3.358263 1_555
Mg7 Mg9 3.106113 1_545
Mg7 Mg9 3.358263 1_555
Mg10 Mg2 2.913159 1_555
Mg10 Mg4 2.913167 1_545
Mg10 Mg3 3.028930 1_555
Mg10 Mg5 3.028937 1_545
Mg10 Mg8 3.102854 1_655
Mg10 Mg6 3.102854 1_655
Mg10 Mg12 3.232941 1_555
Mg10 Mg12 3.232941 1_545
Mg10 Mg8 3.338421 1_545
Mg10 Mg6 3.338421 1_555
Mg11 Mg2 2.913159 1_556
Mg11 Mg4 2.913167 1_546
Mg11 Mg3 3.028930 1_555
Mg11 Mg5 3.028937 1_545
Mg11 Mg9 3.102854 1_655
Mg11 Mg7 3.102854 1_655
Mg11 Mg13 3.232941 1_555
Mg11 Mg13 3.232941 1_545
Mg11 Mg9 3.338421 1_545
Mg11 Mg7 3.338421 1_555
Mg12 Mg4 2.872303 1_555
Mg12 Mg2 2.872310 1_555
Mg12 Mg5 2.996157 1_555
Mg12 Mg3 2.996164 1_555
Mg12 Mg6 3.096305 1_665
Mg12 Mg8 3.096306 1_655
Mg12 Mg6 3.346842 1_555
Mg12 Mg8 3.346842 1_555
Mg13 Mg4 2.872303 1_556
Mg13 Mg2 2.872310 1_556
Mg13 Mg5 2.996157 1_555
Mg13 Mg3 2.996164 1_555
Mg13 Mg7 3.096305 1_665
Mg13 Mg9 3.096306 1_655
Mg13 Mg7 3.346842 1_555
Mg13 Mg9 3.346842 1_555
Co0 Mg4 2.592353 1_445
Co0 Mg2 2.592354 1_455
Co0 Mg7 2.627565 1_554
Co0 Mg6 2.627565 1_555
Co0 Mg9 2.627573 1_554
Co0 Mg8 2.627573 1_555
Co0 Mg11 2.837274 1_454
Co0 Mg10 2.837274 1_455
B0 Mg2 2.425589 1_455
B0 Mg4 2.425589 1_455
B0 Mg9 2.605685 1_554
B0 Mg8 2.605685 1_555
B0 Mg7 2.605692 1_564
B0 Mg6 2.605692 1_565
B0 Mg13 2.815081 1_454
B0 Mg12 2.815081 1_455
