# generated using pymatgen
data_CsVSeO5
_symmetry_space_group_name_H-M   'P 1'
_cell_length_a   7.90841421
_cell_length_b   7.89627358
_cell_length_c   9.47719964
_cell_angle_alpha   87.38754377
_cell_angle_beta   90.00000000
_cell_angle_gamma   90.00000000
_symmetry_Int_Tables_number   1
_chemical_formula_structural   CsVSeO5
_chemical_formula_sum   'Cs4 V4 Se4 O20'
_cell_volume   591.20761542
_cell_formula_units_Z   4
loop_
 _symmetry_equiv_pos_site_id
 _symmetry_equiv_pos_as_xyz
  1  'x, y, z'
loop_
 _atom_site_type_symbol
 _atom_site_label
 _atom_site_symmetry_multiplicity
 _atom_site_fract_x
 _atom_site_fract_y
 _atom_site_fract_z
 _atom_site_occupancy
  Cs  Cs0  1  0.99163281  0.87850433  0.39035684  1
  Cs  Cs1  1  0.49163281  0.12149567  0.60964316  1
  Cs  Cs2  1  0.25696643  0.40696426  0.13439972  1
  Cs  Cs3  1  0.75696643  0.59303574  0.86560028  1
  V  V0  1  0.29891705  0.57931038  0.73154612  1
  V  V1  1  0.79891705  0.42068962  0.26845388  1
  V  V2  1  0.43130019  0.92860920  0.23547495  1
  V  V3  1  0.93130019  0.07139080  0.76452505  1
  Se  Se0  1  0.00111288  0.37933663  0.55199647  1
  Se  Se1  1  0.50111288  0.62066337  0.44800353  1
  Se  Se2  1  0.71964709  0.11677603  0.07090393  1
  Se  Se3  1  0.21964709  0.88322397  0.92909607  1
  O  O0  1  0.89267807  0.56828342  0.17029430  1
  O  O1  1  0.39267807  0.43171658  0.82970570  1
  O  O2  1  0.16047312  0.68677286  0.87413133  1
  O  O3  1  0.66047312  0.31322714  0.12586867  1
  O  O4  1  0.92780234  0.25556840  0.29000700  1
  O  O5  1  0.42780234  0.74443160  0.70999300  1
  O  O6  1  0.86185851  0.50581202  0.45623260  1
  O  O7  1  0.36185851  0.49418798  0.54376740  1
  O  O8  1  0.06705124  0.52635199  0.66659704  1
  O  O9  1  0.56705124  0.47364801  0.33340296  1
  O  O10  1  0.32897598  0.08017259  0.31039459  1
  O  O11  1  0.82897598  0.91982741  0.68960541  1
  O  O12  1  0.12128288  0.08425283  0.68927328  1
  O  O13  1  0.62128288  0.91574717  0.31072672  1
  O  O14  1  0.52011867  0.02707264  0.05742833  1
  O  O15  1  0.02011867  0.97292736  0.94257167  1
  O  O16  1  0.25840682  0.83022957  0.10149772  1
  O  O17  1  0.75840682  0.16977043  0.89850228  1
  O  O18  1  0.35337792  0.72368844  0.34014622  1
  O  O19  1  0.85337792  0.27631156  0.65985378  1
loop_
_geom_bond_atom_site_label_1
_geom_bond_atom_site_label_2
_geom_bond_distance
_geom_bond_site_symmetry_2
Cs0 O13 3.035477 1_555
Cs0 O4 3.125072 1_565
Cs0 O11 3.144624 1_555
Cs0 O6 3.152164 1_555
Cs0 O18 3.155669 1_655
Cs0 O10 3.180806 1_665
Cs0 O0 3.380571 1_555
Cs0 O12 3.483619 1_665
Cs0 O16 3.490822 1_655
Cs0 O8 3.778650 1_655
Cs1 O12 3.035477 1_555
Cs1 O5 3.125072 1_545
Cs1 O10 3.144624 1_555
Cs1 O7 3.152164 1_555
Cs1 O19 3.155669 1_555
Cs1 O11 3.180806 1_545
Cs1 O1 3.380571 1_555
Cs1 O13 3.483619 1_545
Cs1 O17 3.490822 1_555
Cs1 O9 3.778650 1_555
Cs2 O10 3.061474 1_555
Cs2 O1 3.078497 1_554
Cs2 O9 3.152528 1_555
Cs2 O0 3.174536 1_455
Cs2 O4 3.196826 1_455
Cs2 O3 3.277645 1_555
Cs2 O2 3.324359 1_554
Cs2 O18 3.329071 1_555
Cs2 O16 3.342571 1_555
Cs3 O11 3.061474 1_555
Cs3 O0 3.078497 1_556
Cs3 O8 3.152528 1_655
Cs3 O1 3.174536 1_555
Cs3 O5 3.196826 1_555
Cs3 O2 3.277645 1_655
Cs3 O3 3.324359 1_556
Cs3 O19 3.329071 1_555
Cs3 O17 3.342571 1_555
O0 V1 1.635438 1_555
O1 V0 1.635438 1_555
O2 Se3 1.723464 1_555
O2 V0 1.961976 1_555
O3 Se2 1.723464 1_555
O3 V1 1.961976 1_555
O4 V1 1.660234 1_555
O5 V0 1.660234 1_555
O6 Se0 1.717921 1_655
O6 V1 1.993899 1_555
O7 Se1 1.717921 1_555
O7 V0 1.993899 1_555
O8 Se0 1.707070 1_555
O8 V0 1.984853 1_555
O9 Se1 1.707070 1_555
O9 V1 1.984853 1_555
O10 V2 1.633628 1_545
O11 V3 1.633628 1_565
O12 V3 1.664249 1_455
O13 V2 1.664249 1_555
O14 Se2 1.736725 1_555
O14 V2 1.955901 1_545
O15 Se3 1.736725 1_555
O15 V3 1.955901 1_465
O16 Se3 1.695971 1_554
O16 V2 2.043316 1_555
O17 Se2 1.695971 1_556
O17 V3 2.043316 1_555
O18 Se1 1.730868 1_555
O18 V2 1.958508 1_555
O19 Se0 1.730868 1_655
O19 V3 1.958508 1_555
