# generated using pymatgen
data_Mg2Si3
_symmetry_space_group_name_H-M   'P 1'
_cell_length_a   4.13628700
_cell_length_b   5.86166385
_cell_length_c   16.17739257
_cell_angle_alpha   96.62708564
_cell_angle_beta   89.84175933
_cell_angle_gamma   108.76073474
_symmetry_Int_Tables_number   1
_chemical_formula_structural   Mg2Si3
_chemical_formula_sum   'Mg8 Si12'
_cell_volume   368.66247876
_cell_formula_units_Z   4
loop_
 _symmetry_equiv_pos_site_id
 _symmetry_equiv_pos_as_xyz
  1  'x, y, z'
loop_
 _atom_site_type_symbol
 _atom_site_label
 _atom_site_symmetry_multiplicity
 _atom_site_fract_x
 _atom_site_fract_y
 _atom_site_fract_z
 _atom_site_occupancy
  Mg  Mg0  1  0.35836500  0.72359300  0.24647600  1
  Mg  Mg1  1  0.64163500  0.27640700  0.75352400  1
  Mg  Mg2  1  0.17963800  0.36153400  0.05674300  1
  Mg  Mg3  1  0.82036200  0.63846600  0.94325700  1
  Mg  Mg4  1  0.91938700  0.83948100  0.74063200  1
  Mg  Mg5  1  0.08061300  0.16051900  0.25936800  1
  Mg  Mg6  1  0.68061600  0.35924800  0.56091700  1
  Mg  Mg7  1  0.31938400  0.64075200  0.43908300  1
  Si  Si0  1  0.49324600  0.98520100  0.07746300  1
  Si  Si1  1  0.09685800  0.21479000  0.88330600  1
  Si  Si2  1  0.90314200  0.78521000  0.11669400  1
  Si  Si3  1  0.50675400  0.01479900  0.92253700  1
  Si  Si4  1  0.24578300  0.49981000  0.67439000  1
  Si  Si5  1  0.75421700  0.50019000  0.32561000  1
  Si  Si6  1  0.92362800  0.84752600  0.54532200  1
  Si  Si7  1  0.07637200  0.15247400  0.45467800  1
  Si  Si8  1  0.44231000  0.89196500  0.62605900  1
  Si  Si9  1  0.55769000  0.10803500  0.37394100  1
  Si  Si10  1  0.69319200  0.39278800  0.17301500  1
  Si  Si11  1  0.30680800  0.60721200  0.82698500  1
loop_
_geom_bond_atom_site_label_1
_geom_bond_atom_site_label_2
_geom_bond_distance
_geom_bond_site_symmetry_2
Mg0 Si9 2.784189 1_565
Mg0 Si5 2.795055 1_555
Mg0 Si5 2.804051 1_455
Mg0 Si10 2.876939 1_555
Mg0 Si2 2.952667 1_455
Mg0 Si10 2.965922 1_455
Mg0 Si2 3.039982 1_555
Mg0 Mg5 3.112989 1_565
Mg0 Mg5 3.158403 1_555
Mg0 Mg7 3.204151 1_555
Mg0 Mg5 3.238239 1_665
Mg0 Si0 3.247701 1_555
Mg1 Si8 2.784189 1_545
Mg1 Si4 2.795055 1_555
Mg1 Si4 2.804051 1_655
Mg1 Si11 2.876939 1_555
Mg1 Si1 2.952667 1_655
Mg1 Si11 2.965922 1_655
Mg1 Si1 3.039982 1_555
Mg1 Mg4 3.112989 1_545
Mg1 Mg4 3.158403 1_555
Mg1 Mg6 3.204151 1_555
Mg1 Mg4 3.238239 1_445
Mg1 Si3 3.247701 1_555
Mg2 Si10 2.785098 1_455
Mg2 Si10 2.788568 1_555
Mg2 Si1 2.826343 1_554
Mg2 Si0 2.945309 1_545
Mg2 Si0 3.029189 1_445
Mg2 Si2 3.111425 1_455
Mg2 Mg3 3.235525 1_454
Mg2 Si2 3.277724 1_555
Mg2 Mg3 3.305000 1_554
Mg2 Si3 3.377782 1_554
Mg2 Si0 3.439278 1_555
Mg3 Si11 2.785098 1_655
Mg3 Si11 2.788568 1_555
Mg3 Si2 2.826343 1_556
Mg3 Si3 2.945309 1_565
Mg3 Si3 3.029189 1_665
Mg3 Si1 3.111425 1_655
Mg3 Si1 3.277724 1_555
Mg3 Si0 3.377782 1_556
Mg3 Si3 3.439278 1_555
Mg4 Si8 2.808900 1_655
Mg4 Si8 2.822483 1_555
Mg4 Si4 2.857246 1_655
Mg4 Si11 2.868422 1_655
Mg4 Si11 2.902717 1_555
Mg4 Si1 2.916243 1_665
Mg4 Si4 2.971755 1_555
Mg4 Si6 3.165312 1_555
Mg5 Si9 2.808900 1_455
Mg5 Si9 2.822483 1_555
Mg5 Si5 2.857246 1_455
Mg5 Si10 2.868422 1_455
Mg5 Si10 2.902717 1_555
Mg5 Si2 2.916243 1_445
Mg5 Si5 2.971755 1_555
Mg5 Si7 3.165312 1_555
Mg6 Si6 2.753268 1_555
Mg6 Si4 2.805255 1_555
Mg6 Si7 2.807557 1_655
Mg6 Si4 2.819419 1_655
Mg6 Si7 2.874697 1_555
Mg6 Si8 2.916921 1_545
Mg6 Si9 3.174117 1_555
Mg6 Mg7 3.345558 1_555
Mg6 Mg7 3.392028 1_655
Mg7 Si7 2.753268 1_555
Mg7 Si5 2.805255 1_555
Mg7 Si6 2.807557 1_455
Mg7 Si5 2.819419 1_455
Mg7 Si6 2.874697 1_555
Mg7 Si9 2.916921 1_565
Mg7 Si8 3.174117 1_555
Si0 Si2 2.461174 1_455
Si0 Si2 2.471374 1_555
Si0 Si3 2.531425 1_564
Si0 Si10 2.581684 1_565
Si1 Si3 2.461174 1_455
Si1 Si11 2.463716 1_555
Si1 Si3 2.471374 1_555
Si4 Si8 2.401132 1_555
Si5 Si9 2.401132 1_555
Si6 Si7 2.370246 1_665
Si6 Si8 2.440099 1_655
Si6 Si8 2.445002 1_555
Si7 Si9 2.440099 1_455
Si7 Si9 2.445002 1_555
Si10 Si2 2.463716 1_555
Si10 Si5 2.469109 1_555
Si11 Si4 2.469109 1_555
Si11 Si3 2.581684 1_565
