# generated using pymatgen
data_Ti3As
_symmetry_space_group_name_H-M   'P 1'
_cell_length_a   5.09920049
_cell_length_b   10.14032184
_cell_length_c   10.14032184
_cell_angle_alpha   90.00000000
_cell_angle_beta   90.00000000
_cell_angle_gamma   90.00000000
_symmetry_Int_Tables_number   1
_chemical_formula_structural   Ti3As
_chemical_formula_sum   'Ti24 As8'
_cell_volume   524.33103733
_cell_formula_units_Z   8
loop_
 _symmetry_equiv_pos_site_id
 _symmetry_equiv_pos_as_xyz
  1  'x, y, z'
loop_
 _atom_site_type_symbol
 _atom_site_label
 _atom_site_symmetry_multiplicity
 _atom_site_fract_x
 _atom_site_fract_y
 _atom_site_fract_z
 _atom_site_occupancy
  Ti  Ti0  1  0.28590810  0.83156758  0.14541706  1
  Ti  Ti1  1  0.28590810  0.66843242  0.35458294  1
  Ti  Ti2  1  0.78590810  0.64541706  0.16843242  1
  Ti  Ti3  1  0.78590810  0.85458294  0.33156758  1
  Ti  Ti4  1  0.71409190  0.16843242  0.85458294  1
  Ti  Ti5  1  0.71409190  0.33156758  0.64541706  1
  Ti  Ti6  1  0.21409190  0.35458294  0.83156758  1
  Ti  Ti7  1  0.21409190  0.14541706  0.66843242  1
  Ti  Ti8  1  0.96296858  0.27778540  0.10694462  1
  Ti  Ti9  1  0.96296858  0.22221460  0.39305538  1
  Ti  Ti10  1  0.46296858  0.60694462  0.72221460  1
  Ti  Ti11  1  0.46296858  0.89305538  0.77778540  1
  Ti  Ti12  1  0.03703142  0.72221460  0.89305538  1
  Ti  Ti13  1  0.03703142  0.77778540  0.60694462  1
  Ti  Ti14  1  0.53703142  0.39305538  0.27778540  1
  Ti  Ti15  1  0.53703142  0.10694462  0.22221460  1
  Ti  Ti16  1  0.24485373  0.43240189  0.53442491  1
  Ti  Ti17  1  0.24485373  0.06759811  0.96557509  1
  Ti  Ti18  1  0.74485373  0.03442491  0.56759811  1
  Ti  Ti19  1  0.74485373  0.46557509  0.93240189  1
  Ti  Ti20  1  0.75514627  0.56759811  0.46557509  1
  Ti  Ti21  1  0.75514627  0.93240189  0.03442491  1
  Ti  Ti22  1  0.25514627  0.96557509  0.43240189  1
  Ti  Ti23  1  0.25514627  0.53442491  0.06759811  1
  As  As0  1  0.46149811  0.29100357  0.04436448  1
  As  As1  1  0.46149811  0.20899643  0.45563552  1
  As  As2  1  0.96149811  0.54436448  0.70899643  1
  As  As3  1  0.96149811  0.95563552  0.79100357  1
  As  As4  1  0.53850189  0.70899643  0.95563552  1
  As  As5  1  0.53850189  0.79100357  0.54436448  1
  As  As6  1  0.03850189  0.45563552  0.29100357  1
  As  As7  1  0.03850189  0.04436448  0.20899643  1
loop_
_geom_bond_atom_site_label_1
_geom_bond_atom_site_label_2
_geom_bond_distance
_geom_bond_site_symmetry_2
Ti0 Ti1 2.689833 1_555
Ti0 Ti21 2.835037 1_555
Ti0 Ti17 3.016294 1_564
Ti0 Ti12 3.064111 1_554
Ti0 Ti21 3.104378 1_455
Ti0 Ti23 3.118686 1_555
Ti0 Ti15 3.169191 1_565
Ti0 Ti2 3.180890 1_455
Ti0 Ti2 3.180890 1_555
Ti0 Ti3 3.180890 1_455
Ti0 Ti3 3.180890 1_555
Ti0 Ti22 3.215579 1_555
Ti1 Ti20 2.835037 1_555
Ti1 Ti16 3.016294 1_555
Ti1 Ti13 3.064111 1_555
Ti1 Ti20 3.104378 1_455
Ti1 Ti22 3.118686 1_555
Ti1 Ti14 3.169191 1_555
Ti1 Ti2 3.180890 1_455
Ti1 Ti2 3.180890 1_555
Ti1 Ti3 3.180890 1_455
Ti1 Ti3 3.180890 1_555
Ti1 Ti23 3.215579 1_555
Ti2 Ti3 2.689833 1_555
Ti2 Ti23 2.835037 1_655
Ti2 Ti23 3.104378 1_555
Ti2 Ti20 3.118686 1_555
Ti2 Ti21 3.215579 1_555
Ti4 Ti5 2.689833 1_555
Ti4 Ti8 3.064111 1_556
Ti4 Ti7 3.180890 1_555
Ti4 Ti6 3.180890 1_555
Ti4 Ti7 3.180890 1_655
Ti4 Ti6 3.180890 1_655
Ti5 Ti9 3.064111 1_555
Ti5 Ti7 3.180890 1_555
Ti5 Ti6 3.180890 1_555
Ti5 Ti6 3.180890 1_655
Ti5 Ti7 3.180890 1_655
Ti6 Ti7 2.689833 1_555
Ti6 Ti8 3.169191 1_456
Ti7 Ti9 3.169191 1_455
Ti8 Ti9 2.955473 1_555
Ti10 Ti16 2.827683 1_555
Ti10 Ti19 2.943438 1_555
Ti10 Ti11 2.955473 1_555
Ti10 Ti13 3.014088 1_555
Ti10 Ti12 3.014088 1_555
Ti10 Ti20 3.025134 1_555
Ti10 Ti6 3.064111 1_555
Ti10 Ti5 3.169191 1_555
Ti11 Ti17 2.827683 1_565
Ti11 Ti18 2.943438 1_565
Ti11 Ti13 3.014088 1_555
Ti11 Ti12 3.014088 1_555
Ti11 Ti21 3.025134 1_556
Ti11 Ti7 3.064111 1_565
Ti11 Ti4 3.169191 1_565
Ti12 Ti23 2.827683 1_556
Ti12 Ti21 2.943438 1_456
Ti12 Ti13 2.955473 1_555
Ti12 Ti19 3.025134 1_455
Ti12 Ti2 3.169191 1_456
Ti13 Ti22 2.827683 1_555
Ti13 Ti20 2.943438 1_455
Ti13 Ti18 3.025134 1_465
Ti13 Ti3 3.169191 1_455
Ti14 Ti20 2.827683 1_555
Ti14 Ti23 2.943438 1_555
Ti14 Ti15 2.955473 1_555
Ti14 Ti8 3.014088 1_555
Ti14 Ti9 3.014088 1_555
Ti14 Ti16 3.025134 1_555
Ti14 Ti2 3.064111 1_555
Ti15 Ti21 2.827683 1_545
Ti15 Ti22 2.943438 1_545
Ti15 Ti8 3.014088 1_555
Ti15 Ti9 3.014088 1_555
Ti15 Ti17 3.025134 1_554
Ti15 Ti3 3.064111 1_545
Ti16 Ti5 2.835037 1_555
Ti16 Ti20 2.932998 1_455
Ti16 Ti9 2.943438 1_455
Ti16 Ti20 3.022867 1_555
Ti16 Ti5 3.104378 1_455
Ti16 Ti6 3.118686 1_555
Ti16 Ti7 3.215579 1_555
Ti17 Ti4 2.835037 1_555
Ti17 Ti21 2.932998 1_446
Ti17 Ti8 2.943438 1_456
Ti17 Ti21 3.022867 1_546
Ti17 Ti4 3.104378 1_455
Ti17 Ti7 3.118686 1_555
Ti17 Ti6 3.215579 1_555
Ti18 Ti9 2.827683 1_555
Ti18 Ti7 2.835037 1_655
Ti18 Ti22 2.932998 1_545
Ti18 Ti3 3.016294 1_545
Ti18 Ti22 3.022867 1_645
Ti18 Ti7 3.104378 1_555
Ti18 Ti5 3.118686 1_555
Ti18 Ti4 3.215579 1_555
Ti19 Ti8 2.827683 1_556
Ti19 Ti6 2.835037 1_655
Ti19 Ti23 2.932998 1_556
Ti19 Ti2 3.016294 1_556
Ti19 Ti23 3.022867 1_656
Ti19 Ti6 3.104378 1_555
Ti19 Ti4 3.118686 1_555
Ti19 Ti5 3.215579 1_555
Ti20 Ti5 3.016294 1_555
Ti20 Ti3 3.215579 1_555
Ti21 Ti4 3.016294 1_564
Ti21 Ti3 3.118686 1_555
Ti22 Ti3 2.835037 1_455
Ti22 Ti7 3.016294 1_565
Ti22 Ti9 3.025134 1_465
Ti22 Ti3 3.104378 1_555
Ti23 Ti6 3.016294 1_554
Ti23 Ti8 3.025134 1_455
As0 Ti19 2.551536 1_554
As0 Ti6 2.581366 1_554
As0 Ti14 2.611849 1_555
As0 Ti8 2.623536 1_455
As0 Ti15 2.623799 1_555
As0 Ti4 2.628180 1_554
As0 Ti8 2.638070 1_555
As0 Ti17 2.644005 1_554
As0 Ti23 2.693612 1_555
As1 Ti18 2.551536 1_555
As1 Ti7 2.581366 1_555
As1 Ti15 2.611849 1_555
As1 Ti9 2.623536 1_455
As1 Ti14 2.623799 1_555
As1 Ti5 2.628180 1_555
As1 Ti9 2.638070 1_555
As1 Ti16 2.644005 1_555
As1 Ti22 2.693612 1_545
As2 Ti16 2.551536 1_655
As2 Ti5 2.581366 1_555
As2 Ti13 2.611849 1_655
As2 Ti10 2.623536 1_555
As2 Ti12 2.623799 1_655
As2 Ti6 2.628180 1_655
As2 Ti10 2.638070 1_655
As2 Ti19 2.644005 1_555
As2 Ti20 2.693612 1_555
As3 Ti17 2.551536 1_665
As3 Ti4 2.581366 1_565
As3 Ti12 2.611849 1_655
As3 Ti11 2.623536 1_555
As3 Ti13 2.623799 1_655
As3 Ti7 2.628180 1_665
As3 Ti11 2.638070 1_655
As3 Ti18 2.644005 1_565
As3 Ti21 2.693612 1_556
As4 Ti23 2.551536 1_556
As4 Ti2 2.581366 1_556
As4 Ti10 2.611849 1_555
As4 Ti12 2.623536 1_655
As4 Ti11 2.623799 1_555
As4 Ti0 2.628180 1_556
As4 Ti12 2.638070 1_555
As4 Ti21 2.644005 1_556
As4 Ti19 2.693612 1_555
As5 Ti22 2.551536 1_555
As5 Ti3 2.581366 1_555
As5 Ti11 2.611849 1_555
As5 Ti13 2.623536 1_655
As5 Ti10 2.623799 1_555
As5 Ti1 2.628180 1_555
As5 Ti13 2.638070 1_555
As5 Ti20 2.644005 1_555
As5 Ti18 2.693612 1_565
As6 Ti20 2.551536 1_455
As6 Ti1 2.581366 1_555
As6 Ti9 2.611849 1_455
As6 Ti14 2.623536 1_555
As6 Ti8 2.623799 1_455
As6 Ti2 2.628180 1_455
As6 Ti14 2.638070 1_455
As6 Ti23 2.644005 1_555
As6 Ti16 2.693612 1_555
As7 Ti21 2.551536 1_445
As7 Ti0 2.581366 1_545
As7 Ti8 2.611849 1_455
As7 Ti15 2.623536 1_555
As7 Ti9 2.623799 1_455
As7 Ti3 2.628180 1_445
As7 Ti15 2.638070 1_455
As7 Ti22 2.644005 1_545
As7 Ti17 2.693612 1_554
