# generated using pymatgen
data_MgMnCrS4
_symmetry_space_group_name_H-M   'P 1'
_cell_length_a   7.25175254
_cell_length_b   7.25303818
_cell_length_c   7.25330594
_cell_angle_alpha   60.05230196
_cell_angle_beta   60.03248025
_cell_angle_gamma   60.03289348
_symmetry_Int_Tables_number   1
_chemical_formula_structural   MgMnCrS4
_chemical_formula_sum   'Mg2 Mn2 Cr2 S8'
_cell_volume   270.00379558
_cell_formula_units_Z   2
loop_
 _symmetry_equiv_pos_site_id
 _symmetry_equiv_pos_as_xyz
  1  'x, y, z'
loop_
 _atom_site_type_symbol
 _atom_site_label
 _atom_site_symmetry_multiplicity
 _atom_site_fract_x
 _atom_site_fract_y
 _atom_site_fract_z
 _atom_site_occupancy
  Mg  Mg0  1  0.87375900  0.87632100  0.87635200  1
  Mg  Mg1  1  0.12630200  0.12365100  0.12366200  1
  Mn  Mn0  1  0.50005100  0.50004900  0.49989600  1
  Mn  Mn1  1  0.00009600  0.49996600  0.49996700  1
  Cr  Cr0  1  0.49983600  0.50010800  0.00023300  1
  Cr  Cr1  1  0.49981400  0.99996900  0.49990900  1
  S  S0  1  0.73217100  0.73982100  0.73982700  1
  S  S1  1  0.26466600  0.25796500  0.71268200  1
  S  S2  1  0.26467500  0.71264400  0.25797300  1
  S  S3  1  0.71189300  0.26011800  0.26013100  1
  S  S4  1  0.73536300  0.28734500  0.74198800  1
  S  S5  1  0.28814600  0.73985800  0.73986800  1
  S  S6  1  0.26785200  0.26014200  0.26019500  1
  S  S7  1  0.73538000  0.74204000  0.28731800  1
loop_
_geom_bond_atom_site_label_1
_geom_bond_atom_site_label_2
_geom_bond_distance
_geom_bond_site_symmetry_2
Mg0 S7 2.435270 1_556
Mg0 S4 2.435531 1_565
Mg0 S5 2.454566 1_655
Mg0 S0 2.454619 1_555
Mg1 S1 2.435352 1_554
Mg1 S2 2.435432 1_545
Mg1 S6 2.454387 1_555
Mg1 S3 2.454697 1_455
Mn0 S2 2.455939 1_555
Mn0 S7 2.455999 1_555
Mn0 S4 2.456453 1_555
Mn0 S1 2.456689 1_555
Mn0 S3 2.468746 1_555
Mn0 S5 2.469168 1_555
Mn1 S2 2.455738 1_555
Mn1 S1 2.455921 1_555
Mn1 S4 2.456291 1_455
Mn1 S7 2.456391 1_455
Mn1 S6 2.468433 1_555
Mn1 S0 2.469107 1_455
Cr0 S2 2.417753 1_555
Cr0 S4 2.421568 1_554
Cr0 S3 2.427788 1_555
Cr0 S6 2.427812 1_555
Cr0 S5 2.428493 1_554
Cr0 S0 2.428497 1_554
Cr1 S7 2.419025 1_555
Cr1 S1 2.420269 1_565
Cr1 S6 2.426639 1_565
Cr1 S5 2.426987 1_555
Cr1 S3 2.429149 1_565
Cr1 S0 2.429523 1_555
