# generated using pymatgen
data_NaSrPrBiO6
_symmetry_space_group_name_H-M   'P 1'
_cell_length_a   8.70218098
_cell_length_b   8.49869483
_cell_length_c   8.61116250
_cell_angle_alpha   90.00000000
_cell_angle_beta   90.00000000
_cell_angle_gamma   90.00000000
_symmetry_Int_Tables_number   1
_chemical_formula_structural   NaSrPrBiO6
_chemical_formula_sum   'Na4 Sr4 Pr4 Bi4 O24'
_cell_volume   636.85729937
_cell_formula_units_Z   4
loop_
 _symmetry_equiv_pos_site_id
 _symmetry_equiv_pos_as_xyz
  1  'x, y, z'
loop_
 _atom_site_type_symbol
 _atom_site_label
 _atom_site_symmetry_multiplicity
 _atom_site_fract_x
 _atom_site_fract_y
 _atom_site_fract_z
 _atom_site_occupancy
  Na  Na0  1  0.00000000  -0.00000000  0.00000000  1
  Na  Na1  1  0.50000000  0.50000000  0.50000000  1
  Na  Na2  1  0.50000000  -0.00000000  0.50000000  1
  Na  Na3  1  0.00000000  0.50000000  0.00000000  1
  Sr  Sr0  1  0.00000000  0.50000000  0.50000000  1
  Sr  Sr1  1  0.50000000  0.50000000  0.00000000  1
  Sr  Sr2  1  0.50000000  -0.00000000  0.00000000  1
  Sr  Sr3  1  0.00000000  -0.00000000  0.50000000  1
  Pr  Pr0  1  0.25000000  0.25000000  0.25000000  1
  Pr  Pr1  1  0.75000000  0.75000000  0.25000000  1
  Pr  Pr2  1  0.75000000  0.25000000  0.75000000  1
  Pr  Pr3  1  0.25000000  0.75000000  0.75000000  1
  Bi  Bi0  1  0.75000000  0.75000000  0.75000000  1
  Bi  Bi1  1  0.25000000  0.25000000  0.75000000  1
  Bi  Bi2  1  0.25000000  0.75000000  0.25000000  1
  Bi  Bi3  1  0.75000000  0.25000000  0.25000000  1
  O  O0  1  0.98809588  0.24984219  0.31135566  1
  O  O1  1  0.01190412  0.75015781  0.31135566  1
  O  O2  1  0.01190412  0.24984219  0.68864434  1
  O  O3  1  0.98809588  0.75015781  0.68864434  1
  O  O4  1  0.23543353  0.98622034  0.16800041  1
  O  O5  1  0.23543353  0.01377966  0.83199959  1
  O  O6  1  0.76456647  0.01377966  0.16800041  1
  O  O7  1  0.76456647  0.98622034  0.83199959  1
  O  O8  1  0.21550026  0.33495945  0.98594788  1
  O  O9  1  0.78449974  0.33495945  0.01405212  1
  O  O10  1  0.21550026  0.66504055  0.01405212  1
  O  O11  1  0.78449974  0.66504055  0.98594788  1
  O  O12  1  0.51190412  0.25015781  0.18864434  1
  O  O13  1  0.48809588  0.74984219  0.18864434  1
  O  O14  1  0.48809588  0.25015781  0.81135566  1
  O  O15  1  0.51190412  0.74984219  0.81135566  1
  O  O16  1  0.26456647  0.51377966  0.33199959  1
  O  O17  1  0.26456647  0.48622034  0.66800041  1
  O  O18  1  0.73543353  0.48622034  0.33199959  1
  O  O19  1  0.73543353  0.51377966  0.66800041  1
  O  O20  1  0.28449974  0.16504055  0.51405212  1
  O  O21  1  0.71550026  0.16504055  0.48594788  1
  O  O22  1  0.28449974  0.83495945  0.48594788  1
  O  O23  1  0.71550026  0.83495945  0.51405212  1
loop_
_geom_bond_atom_site_label_1
_geom_bond_atom_site_label_2
_geom_bond_distance
_geom_bond_site_symmetry_2
Na0 O6 2.510800 1_455
Na0 O4 2.510800 1_545
Na0 O5 2.510800 1_554
Na0 O7 2.510800 1_444
Na0 O11 3.411053 1_444
Na0 O10 3.411053 1_545
Na0 O8 3.411053 1_554
Na0 O9 3.411053 1_455
Na0 O2 3.421659 1_554
Na0 O1 3.421659 1_545
Na0 O0 3.421659 1_455
Na0 O3 3.421659 1_444
Na1 O18 2.510800 1_555
Na1 O19 2.510800 1_555
Na1 O16 2.510800 1_555
Na1 O17 2.510800 1_555
Na1 O20 3.411053 1_555
Na1 O21 3.411053 1_555
Na1 O23 3.411053 1_555
Na1 O22 3.411053 1_555
Na1 O15 3.421659 1_555
Na1 O14 3.421659 1_555
Na1 O12 3.421659 1_555
Na1 O13 3.421659 1_555
Na2 O23 2.344962 1_545
Na2 O22 2.344962 1_545
Na2 O21 2.344962 1_555
Na2 O20 2.344962 1_555
Na3 O11 2.344962 1_454
Na3 O10 2.344962 1_555
Na3 O8 2.344962 1_554
Na3 O9 2.344962 1_455
Bi0 O7 2.131895 1_555
Bi0 O19 2.131895 1_555
Bi0 O15 2.138256 1_555
Bi0 O3 2.138256 1_555
Bi0 O23 2.177070 1_555
Bi0 O11 2.177070 1_555
Bi1 O5 2.131895 1_555
Bi1 O17 2.131895 1_555
Bi1 O14 2.138256 1_555
Bi1 O2 2.138256 1_555
Bi1 O20 2.177070 1_555
Bi1 O8 2.177070 1_555
Bi2 O4 2.131895 1_555
Bi2 O16 2.131895 1_555
Bi2 O1 2.138256 1_555
Bi2 O13 2.138256 1_555
Bi2 O10 2.177070 1_555
Bi2 O22 2.177070 1_555
Bi3 O6 2.131895 1_555
Bi3 O18 2.131895 1_555
Bi3 O12 2.138256 1_555
Bi3 O0 2.138256 1_555
Bi3 O21 2.177070 1_555
Bi3 O9 2.177070 1_555
O0 Pr0 2.339576 1_655
O0 Sr3 2.675463 1_655
O0 Sr0 2.677592 1_655
O0 O21 2.899478 1_555
O1 Pr1 2.339576 1_455
O1 Sr3 2.675463 1_565
O1 Sr0 2.677592 1_555
O1 O22 2.899478 1_555
O2 Pr2 2.339576 1_455
O2 Sr3 2.675463 1_555
O2 Sr0 2.677592 1_555
O2 O20 2.899478 1_555
O3 Pr3 2.339576 1_655
O3 Sr3 2.675463 1_665
O3 Sr0 2.677592 1_655
O4 Pr0 2.353774 1_565
O4 Sr2 2.721618 1_565
O4 O5 2.902822 1_564
O5 Pr3 2.353774 1_545
O5 Sr2 2.721618 1_556
O6 Pr1 2.353774 1_545
O6 Sr2 2.721618 1_555
O6 O7 2.902822 1_544
O7 Pr2 2.353774 1_565
O7 Sr2 2.721618 1_566
O8 Pr0 2.404502 1_556
O8 Sr1 2.848059 1_556
O9 Pr2 2.404502 1_554
O9 Sr1 2.848059 1_555
O10 Pr3 2.404502 1_554
O10 O8 2.815678 1_554
O10 Sr1 2.848059 1_555
O10 O13 2.899478 1_555
O11 Pr1 2.404502 1_556
O11 O9 2.815678 1_556
O11 Sr1 2.848059 1_556
O11 O15 2.899478 1_555
O12 Pr0 2.339576 1_555
O12 Sr1 2.675463 1_555
O12 Sr2 2.677592 1_555
O12 O9 2.899478 1_555
O13 Pr1 2.339576 1_555
O13 Sr1 2.675463 1_555
O13 Sr2 2.677592 1_565
O14 Pr2 2.339576 1_555
O14 Sr1 2.675463 1_556
O14 Sr2 2.677592 1_556
O14 O8 2.899478 1_555
O15 Pr3 2.339576 1_555
O15 Sr1 2.675463 1_556
O15 Sr2 2.677592 1_566
O16 Pr0 2.353774 1_555
O16 Sr0 2.721618 1_555
O16 O17 2.902822 1_555
O17 Pr3 2.353774 1_555
O17 Sr0 2.721618 1_555
O18 Pr1 2.353774 1_555
O18 Sr0 2.721618 1_655
O18 O19 2.902822 1_555
O19 Pr2 2.353774 1_555
O19 Sr0 2.721618 1_655
O20 Pr0 2.404502 1_555
O20 O22 2.815678 1_545
O20 Sr3 2.848059 1_555
O21 Pr2 2.404502 1_555
O21 O23 2.815678 1_545
O21 Sr3 2.848059 1_655
O22 Pr3 2.404502 1_555
O22 Sr3 2.848059 1_565
O23 Pr1 2.404502 1_555
O23 Sr3 2.848059 1_665
O23 O3 2.899478 1_555
