# generated using pymatgen
data_Y20Cu6(Pb3Se14)3
_symmetry_space_group_name_H-M   'P 1'
_cell_length_a   9.21634800
_cell_length_b   15.07808677
_cell_length_c   16.38397602
_cell_angle_alpha   102.47911457
_cell_angle_beta   104.67081452
_cell_angle_gamma   101.98114946
_symmetry_Int_Tables_number   1
_chemical_formula_structural   Y20Cu6(Pb3Se14)3
_chemical_formula_sum   'Y20 Cu6 Pb9 Se42'
_cell_volume   2065.93459425
_cell_formula_units_Z   1
loop_
 _symmetry_equiv_pos_site_id
 _symmetry_equiv_pos_as_xyz
  1  'x, y, z'
loop_
 _atom_site_type_symbol
 _atom_site_label
 _atom_site_symmetry_multiplicity
 _atom_site_fract_x
 _atom_site_fract_y
 _atom_site_fract_z
 _atom_site_occupancy
  Y  Y0  1  0.29503000  0.38912400  0.46529700  1
  Y  Y1  1  0.45403500  0.21345900  0.30101200  1
  Y  Y2  1  0.12636200  0.55256300  0.63132000  1
  Y  Y3  1  0.63362500  0.05334300  0.13822500  1
  Y  Y4  1  0.79773900  0.88577400  0.97238500  1
  Y  Y5  1  0.96419200  0.72160400  0.80167600  1
  Y  Y6  1  0.32603000  0.16357900  0.66368500  1
  Y  Y7  1  0.48100500  0.99898400  0.48876300  1
  Y  Y8  1  0.15711400  0.32944700  0.82799300  1
  Y  Y9  1  0.66496500  0.83594200  0.32958100  1
  Y  Y10  1  0.82651400  0.67120600  0.16284700  1
  Y  Y11  1  0.99294600  0.49978300  0.99609100  1
  Y  Y12  1  0.69683400  0.60166000  0.53589500  1
  Y  Y13  1  0.86062600  0.43379500  0.36850000  1
  Y  Y14  1  0.53039700  0.76962000  0.70321400  1
  Y  Y15  1  0.02787600  0.26584300  0.20430100  1
  Y  Y16  1  0.19730900  0.09966000  0.03760400  1
  Y  Y17  1  0.36421700  0.93538500  0.87152400  1
  Y  Y18  1  0.25468700  0.81233900  0.11970300  1
  Y  Y19  1  0.93458000  0.13172200  0.43827100  1
  Cu  Cu0  1  0.46749900  0.98142700  0.69607000  1
  Cu  Cu1  1  0.80520500  0.65198500  0.36308900  1
  Cu  Cu2  1  0.13596700  0.31426300  0.02981000  1
  Cu  Cu3  1  0.96784900  0.48399900  0.19503300  1
  Cu  Cu4  1  0.30216300  0.14728100  0.86163400  1
  Cu  Cu5  1  0.63541000  0.81667700  0.52770200  1
  Pb  Pb0  1  0.06439300  0.87339800  0.53902100  1
  Pb  Pb1  1  0.23165900  0.70694900  0.37376500  1
  Pb  Pb2  1  0.90010300  0.03873000  0.70841200  1
  Pb  Pb3  1  0.40384300  0.54185600  0.21079500  1
  Pb  Pb4  1  0.56894700  0.37318800  0.04350600  1
  Pb  Pb5  1  0.73554400  0.20556100  0.87741400  1
  Pb  Pb6  1  0.74805000  0.30260300  0.60832300  1
  Pb  Pb7  1  0.41598400  0.63532700  0.94066900  1
  Pb  Pb8  1  0.58105600  0.46863000  0.77398000  1
  Se  Se0  1  0.19145900  0.04124100  0.48896700  1
  Se  Se1  1  0.36551800  0.86795500  0.31674700  1
  Se  Se2  1  0.03053100  0.20078000  0.65047200  1
  Se  Se3  1  0.52467300  0.70756600  0.15622500  1
  Se  Se4  1  0.70128200  0.53650500  0.99233500  1
  Se  Se5  1  0.86739100  0.36944200  0.82474200  1
  Se  Se6  1  0.57546800  0.40953300  0.41501500  1
  Se  Se7  1  0.73879900  0.24563000  0.24885500  1
  Se  Se8  1  0.41007300  0.57950900  0.58286100  1
  Se  Se9  1  0.90558900  0.08115100  0.07822900  1
  Se  Se10  1  0.07524600  0.91319000  0.91538000  1
  Se  Se11  1  0.24417100  0.74493200  0.74944200  1
  Se  Se12  1  0.81081700  0.78921700  0.65488600  1
  Se  Se13  1  0.97672500  0.61926100  0.48877800  1
  Se  Se14  1  0.64390200  0.95510900  0.82352900  1
  Se  Se15  1  0.14254700  0.45549900  0.32096100  1
  Se  Se16  1  0.30959400  0.28561100  0.15794800  1
  Se  Se17  1  0.47829800  0.12182100  0.98946800  1
  Se  Se18  1  0.78232900  0.99515400  0.27942200  1
  Se  Se19  1  0.95319400  0.82295100  0.10703600  1
  Se  Se20  1  0.62750300  0.15431500  0.43874700  1
  Se  Se21  1  0.11609800  0.66631600  0.95115300  1
  Se  Se22  1  0.26754300  0.48666200  0.77150200  1
  Se  Se23  1  0.43548300  0.32032300  0.60492200  1
  Se  Se24  1  0.17336200  0.20243700  0.34999000  1
  Se  Se25  1  0.34515200  0.02887000  0.17606200  1
  Se  Se26  1  0.01138900  0.36304800  0.50844900  1
  Se  Se27  1  0.50691400  0.86870200  0.01640900  1
  Se  Se28  1  0.68191500  0.70484100  0.84446800  1
  Se  Se29  1  0.84895700  0.53853500  0.67950400  1
  Se  Se30  1  0.78810300  0.96216300  0.50637400  1
  Se  Se31  1  0.95726100  0.79081100  0.34112100  1
  Se  Se32  1  0.61985700  0.12211300  0.67050600  1
  Se  Se33  1  0.12494900  0.62821400  0.17359200  1
  Se  Se34  1  0.28917500  0.45616900  0.00667700  1
  Se  Se35  1  0.45583700  0.29068000  0.84075200  1
  Se  Se36  1  0.22848000  0.00735600  0.73104900  1
  Se  Se37  1  0.39586600  0.84479000  0.56145700  1
  Se  Se38  1  0.06314500  0.17472500  0.89703600  1
  Se  Se39  1  0.56390100  0.67678500  0.39760800  1
  Se  Se40  1  0.72967100  0.51103700  0.23025200  1
  Se  Se41  1  0.89891100  0.34351400  0.06513200  1
loop_
_geom_bond_atom_site_label_1
_geom_bond_atom_site_label_2
_geom_bond_distance
_geom_bond_site_symmetry_2
Cu0 Se14 2.463302 1_555
Cu0 Se32 2.468231 1_565
Cu0 Se36 2.496836 1_565
Cu0 Se37 2.505726 1_555
Cu1 Se31 2.416249 1_555
Cu1 Se13 2.469221 1_555
Cu1 Se39 2.509297 1_555
Cu1 Se40 2.521370 1_555
Cu2 Se34 2.466338 1_555
Cu2 Se16 2.476313 1_555
Cu2 Se41 2.496587 1_455
Cu2 Se38 2.511085 1_554
Cu3 Se15 2.453892 1_655
Cu3 Se41 2.495646 1_555
Cu3 Se33 2.495751 1_655
Cu3 Se40 2.495846 1_555
Cu4 Se17 2.460327 1_555
Cu4 Se35 2.468148 1_555
Cu4 Se36 2.491652 1_555
Cu4 Se38 2.506442 1_555
Cu5 Se12 2.464029 1_555
Cu5 Se39 2.488964 1_555
Cu5 Se30 2.492649 1_555
Cu5 Se37 2.503048 1_555
Pb0 Se0 2.932848 1_565
Pb0 Se31 3.026818 1_455
Pb0 Se30 3.097735 1_455
Pb0 Se37 3.114619 1_555
Pb0 Se36 3.136979 1_565
Pb0 Se12 3.568399 1_455
Pb0 Se13 3.609484 1_455
Pb1 Se1 2.934050 1_555
Pb1 Se31 3.035679 1_455
Pb1 Se33 3.054736 1_555
Pb1 Se37 3.105019 1_555
Pb1 Se39 3.128059 1_555
Pb1 Se15 3.567540 1_555
Pb1 Se13 3.584552 1_455
Pb2 Se2 2.945728 1_655
Pb2 Se30 3.078732 1_545
Pb2 Se32 3.083930 1_555
Pb2 Se36 3.101988 1_655
Pb2 Se38 3.105346 1_655
Pb2 Se12 3.538853 1_545
Pb2 Se14 3.573503 1_545
Pb3 Se3 2.932061 1_555
Pb3 Se39 3.075572 1_555
Pb3 Se40 3.081188 1_555
Pb3 Se33 3.100466 1_555
Pb3 Se34 3.121829 1_555
Pb3 Se15 3.559252 1_555
Pb3 Se16 3.634853 1_555
Pb4 Se4 2.901308 1_554
Pb4 Se34 3.075021 1_555
Pb4 Se40 3.090865 1_555
Pb4 Se35 3.096934 1_554
Pb4 Se41 3.108285 1_555
Pb4 Se17 3.564749 1_554
Pb4 Se16 3.605913 1_555
Pb5 Se5 2.921183 1_555
Pb5 Se35 3.094497 1_555
Pb5 Se38 3.096994 1_655
Pb5 Se41 3.105180 1_556
Pb5 Se32 3.159230 1_555
Pb5 Se17 3.542520 1_555
Pb5 Se14 3.551164 1_545
Pb6 Se23 2.935602 1_555
Pb6 Se20 2.945024 1_555
Pb6 Se32 3.211402 1_555
Pb6 Se5 3.289093 1_555
Pb6 Se2 3.289219 1_655
Pb6 Se26 3.337133 1_655
Pb6 Se29 3.341287 1_555
Pb6 Se6 3.984991 1_555
Pb7 Se21 2.937461 1_555
Pb7 Se22 2.949474 1_555
Pb7 Se34 3.228751 1_556
Pb7 Se3 3.279494 1_556
Pb7 Se4 3.300741 1_555
Pb7 Se27 3.314556 1_556
Pb7 Se28 3.345739 1_555
Pb7 Se11 3.983200 1_555
Pb8 Se23 2.944117 1_555
Pb8 Se22 2.948895 1_555
Pb8 Se35 3.217204 1_555
Pb8 Se5 3.310131 1_555
Pb8 Se4 3.318554 1_555
Pb8 Se29 3.341218 1_555
Pb8 Se28 3.344692 1_555
Pb8 Se8 3.992505 1_555
Se0 Y6 2.846929 1_555
Se0 Y7 2.869964 1_545
Se0 Y19 2.998467 1_455
Se0 Se24 3.672557 1_555
Se0 Se31 3.847025 1_445
Se1 Y7 2.860098 1_555
Se1 Y9 2.862996 1_555
Se1 Y18 2.995490 1_555
Se1 Se25 3.690785 1_565
Se1 Se31 3.848984 1_455
Se2 Y6 2.857726 1_555
Se2 Y8 2.913283 1_555
Se2 Y19 3.232572 1_455
Se2 Se30 3.718917 1_445
Se2 Se26 3.723383 1_555
Se3 Y9 2.865384 1_555
Se3 Y10 2.925265 1_555
Se3 Y18 3.214295 1_555
Se3 Se33 3.732614 1_555
Se4 Y11 2.843415 1_555
Se4 Y10 2.864115 1_556
Se5 Y8 2.847243 1_655
Se5 Y11 2.847572 1_555
Se6 Y0 2.882964 1_555
Se6 Y13 2.890927 1_555
Se6 Y12 2.935759 1_555
Se6 Y1 2.943245 1_555
Se7 Y3 2.881515 1_555
Se7 Y13 2.883026 1_555
Se7 Y15 2.909987 1_655
Se7 Y1 2.939396 1_555
Se8 Y2 2.895237 1_555
Se8 Y0 2.896057 1_555
Se8 Y12 2.909164 1_555
Se8 Y14 2.909418 1_555
Se9 Y15 2.885085 1_655
Se9 Y4 2.894311 1_544
Se9 Y3 2.900767 1_555
Se9 Y16 2.902524 1_655
Se10 Y16 2.879800 1_566
Se10 Y5 2.888574 1_455
Se10 Y17 2.902486 1_555
Se10 Y4 2.919308 1_455
Se11 Y5 2.895916 1_455
Se11 Y14 2.897798 1_555
Se11 Y2 2.922271 1_555
Se11 Y17 2.923860 1_555
Se12 Y14 2.866051 1_555
Se12 Y12 2.872002 1_555
Se12 Y5 2.959295 1_555
Se13 Y12 2.851936 1_555
Se13 Y13 2.855973 1_555
Se13 Y2 2.885631 1_655
Se14 Y14 2.856649 1_555
Se14 Y17 2.856694 1_555
Se14 Y4 3.002820 1_555
Se15 Y13 2.871765 1_455
Se15 Y15 2.882308 1_555
Se15 Y0 2.914144 1_555
Se16 Y15 2.860466 1_555
Se16 Y16 2.862248 1_555
Se16 Y1 2.927904 1_555
Se17 Y17 2.852723 1_545
Se17 Y16 2.868674 1_556
Se17 Y3 2.998240 1_556
Se18 Y19 2.759909 1_565
Se18 Y3 2.787510 1_565
Se18 Y9 2.798764 1_555
Se18 Se24 3.967923 1_665
Se19 Y4 2.771734 1_554
Se19 Y18 2.774255 1_655
Se19 Y10 2.787503 1_555
Se19 Se25 3.965503 1_665
Se20 Y7 2.838463 1_545
Se20 Y1 2.842161 1_555
Se20 Y19 2.921651 1_555
Se21 Y11 2.859099 1_455
Se21 Y5 2.877999 1_455
Se21 Y18 2.919458 1_556
Se22 Y8 2.816984 1_555
Se22 Y2 2.822190 1_555
Se23 Y6 2.831193 1_555
Se23 Y0 2.840449 1_555
Se24 Y0 2.840469 1_555
Se24 Y1 2.879857 1_555
Se24 Y15 2.882145 1_555
Se24 Y19 3.062126 1_455
Se25 Y3 2.848748 1_555
Se25 Y16 2.868193 1_555
Se25 Y1 2.877818 1_555
Se25 Y18 3.063362 1_545
Se26 Y0 2.849159 1_555
Se26 Y13 2.895635 1_455
Se26 Y2 2.918424 1_555
Se26 Y19 3.289130 1_455
Se27 Y3 2.857657 1_565
Se27 Y17 2.893885 1_554
Se27 Y4 2.922982 1_554
Se27 Y18 3.283939 1_555
Se27 Se3 3.682096 1_555
Se28 Y5 2.837434 1_555
Se28 Y4 2.856789 1_555
Se28 Y14 2.857669 1_555
Se28 Se4 3.869107 1_555
Se29 Y5 2.841168 1_555
Se29 Y2 2.841562 1_655
Se29 Y12 2.873777 1_555
Se29 Se5 3.845609 1_555
Se30 Y9 2.890660 1_555
Se30 Y7 2.951302 1_555
Se30 Y19 3.188521 1_565
Se31 Y10 2.876485 1_555
Se31 Y9 2.883509 1_555
Se32 Y6 2.883848 1_555
Se32 Y7 2.940289 1_545
Se33 Y11 2.912642 1_454
Se33 Y10 2.925859 1_455
Se33 Y18 3.183189 1_555
Se34 Y11 2.910516 1_454
Se34 Y8 2.918046 1_554
Se35 Y8 2.897337 1_555
Se35 Y6 2.899573 1_555
Se36 Y17 2.867805 1_545
Se36 Y6 2.884776 1_555
Se37 Y7 2.890031 1_555
Se37 Y14 2.911806 1_555
Se38 Y8 2.875763 1_555
Se38 Y16 2.894685 1_556
Se39 Y12 2.862995 1_555
Se39 Y9 2.936409 1_555
Se40 Y13 2.877935 1_555
Se40 Y10 2.933538 1_555
Se41 Y15 2.888342 1_655
Se41 Y11 2.895357 1_554
