# generated using pymatgen
data_KH(CO2)2
_symmetry_space_group_name_H-M   'P 1'
_cell_length_a   4.48989100
_cell_length_b   12.92375700
_cell_length_c   7.99029138
_cell_angle_alpha   90.00000000
_cell_angle_beta   105.45827711
_cell_angle_gamma   90.00000000
_symmetry_Int_Tables_number   1
_chemical_formula_structural   KH(CO2)2
_chemical_formula_sum   'K4 H4 C8 O16'
_cell_volume   446.87421444
_cell_formula_units_Z   4
loop_
 _symmetry_equiv_pos_site_id
 _symmetry_equiv_pos_as_xyz
  1  'x, y, z'
loop_
 _atom_site_type_symbol
 _atom_site_label
 _atom_site_symmetry_multiplicity
 _atom_site_fract_x
 _atom_site_fract_y
 _atom_site_fract_z
 _atom_site_occupancy
  K  K0  1  0.31380000  0.93271400  0.22722900  1
  K  K1  1  0.68620000  0.43271400  0.27277100  1
  K  K2  1  0.68620000  0.06728600  0.77277100  1
  K  K3  1  0.31380000  0.56728600  0.72722900  1
  H  H0  1  0.64030900  0.77530000  0.98228000  1
  H  H1  1  0.35969100  0.27530000  0.51772000  1
  H  H2  1  0.35969100  0.22470000  0.01772000  1
  H  H3  1  0.64030900  0.72470000  0.48228000  1
  C  C0  1  0.18579500  0.65241700  0.28887800  1
  C  C1  1  0.81420500  0.15241700  0.21112200  1
  C  C2  1  0.81420500  0.34758300  0.71112200  1
  C  C3  1  0.18579500  0.84758300  0.78887800  1
  C  C4  1  0.90250600  0.67207800  0.12921800  1
  C  C5  1  0.09749400  0.17207800  0.37078200  1
  C  C6  1  0.09749400  0.32792200  0.87078200  1
  C  C7  1  0.90250600  0.82792200  0.62921800  1
  O  O0  1  0.20893300  0.56384700  0.35541100  1
  O  O1  1  0.79106700  0.06384700  0.14458900  1
  O  O2  1  0.79106700  0.43615300  0.64458900  1
  O  O3  1  0.20893300  0.93615300  0.85541100  1
  O  O4  1  0.36833200  0.72887100  0.33643300  1
  O  O5  1  0.63166800  0.22887100  0.16356700  1
  O  O6  1  0.63166800  0.27112900  0.66356700  1
  O  O7  1  0.36833200  0.77112900  0.83643300  1
  O  O8  1  0.74861700  0.59907700  0.05223800  1
  O  O9  1  0.25138300  0.09907700  0.44776200  1
  O  O10  1  0.25138300  0.40092300  0.94776200  1
  O  O11  1  0.74861700  0.90092300  0.55223800  1
  O  O12  1  0.84490700  0.77060400  0.08801300  1
  O  O13  1  0.15509300  0.27060400  0.41198700  1
  O  O14  1  0.15509300  0.22939600  0.91198700  1
  O  O15  1  0.84490700  0.72939600  0.58801300  1
loop_
_geom_bond_atom_site_label_1
_geom_bond_atom_site_label_2
_geom_bond_distance
_geom_bond_site_symmetry_2
K0 O4 2.765429 1_555
K0 O1 2.826741 1_465
K0 O11 2.832234 1_555
K0 O9 2.840689 1_565
K0 O3 2.881741 1_554
K0 O1 2.941826 1_565
K0 O12 2.968251 1_455
K1 O5 2.765429 1_555
K1 O0 2.826741 1_655
K1 O10 2.832234 1_554
K1 O8 2.840689 1_555
K1 O2 2.881741 1_555
K1 O0 2.941826 1_555
K1 O13 2.968251 1_655
K2 O6 2.765429 1_555
K2 O3 2.826741 1_645
K2 O9 2.832234 1_555
K2 O11 2.840689 1_545
K2 O1 2.881741 1_556
K2 O3 2.941826 1_545
K2 O14 2.968251 1_655
K3 O7 2.765429 1_555
K3 O2 2.826741 1_455
K3 O8 2.832234 1_556
K3 O10 2.840689 1_555
K3 O0 2.881741 1_555
K3 O2 2.941826 1_555
K3 O15 2.968251 1_455
H0 O12 1.071256 1_556
H0 O7 1.446916 1_555
H0 K0 3.412922 1_556
H1 O13 1.071256 1_555
H1 O6 1.446916 1_555
H1 K1 3.412922 1_555
H2 O14 1.071256 1_554
H2 O5 1.446916 1_555
H2 K2 3.412922 1_554
H3 O15 1.071256 1_555
H3 O4 1.446916 1_555
H3 K3 3.412922 1_555
C0 O0 1.254675 1_555
C0 O4 1.275288 1_555
C0 C4 1.563612 1_455
C1 O1 1.254675 1_555
C1 O5 1.275288 1_555
C1 C5 1.563612 1_655
C2 O2 1.254675 1_555
C2 O6 1.275288 1_555
C2 C6 1.563612 1_655
C3 O3 1.254675 1_555
C3 O7 1.275288 1_555
C3 C7 1.563612 1_455
C4 O8 1.232592 1_555
C4 O12 1.323348 1_555
C5 O9 1.232592 1_555
C5 O13 1.323348 1_555
C6 O10 1.232592 1_555
C6 O14 1.323348 1_555
C7 O11 1.232592 1_555
C7 O15 1.323348 1_555
