# generated using pymatgen
data_TlSO3F
_symmetry_space_group_name_H-M   'P 1'
_cell_length_a   5.43395700
_cell_length_b   5.70997500
_cell_length_c   14.02941700
_cell_angle_alpha   90.00000000
_cell_angle_beta   90.00000000
_cell_angle_gamma   90.00000000
_symmetry_Int_Tables_number   1
_chemical_formula_structural   TlSO3F
_chemical_formula_sum   'Tl4 S4 O12 F4'
_cell_volume   435.30136427
_cell_formula_units_Z   4
loop_
 _symmetry_equiv_pos_site_id
 _symmetry_equiv_pos_as_xyz
  1  'x, y, z'
loop_
 _atom_site_type_symbol
 _atom_site_label
 _atom_site_symmetry_multiplicity
 _atom_site_fract_x
 _atom_site_fract_y
 _atom_site_fract_z
 _atom_site_occupancy
  Tl  Tl0  1  0.95743600  0.25000000  0.86679200  1
  Tl  Tl1  1  0.45743600  0.25000000  0.63320800  1
  Tl  Tl2  1  0.04256400  0.75000000  0.13320800  1
  Tl  Tl3  1  0.54256400  0.75000000  0.36679200  1
  S  S0  1  0.42073500  0.75000000  0.87211100  1
  S  S1  1  0.92073500  0.75000000  0.62788900  1
  S  S2  1  0.57926500  0.25000000  0.12788900  1
  S  S3  1  0.07926500  0.25000000  0.37211100  1
  O  O0  1  0.17703900  0.75000000  0.91584200  1
  O  O1  1  0.67703900  0.75000000  0.58415800  1
  O  O2  1  0.82296100  0.25000000  0.08415800  1
  O  O3  1  0.32296100  0.25000000  0.41584200  1
  O  O4  1  0.48808800  0.96622800  0.82384500  1
  O  O5  1  0.98808800  0.53377200  0.67615500  1
  O  O6  1  0.51191200  0.46622800  0.17615500  1
  O  O7  1  0.01191200  0.03377200  0.32384500  1
  O  O8  1  0.51191200  0.03377200  0.17615500  1
  O  O9  1  0.01191200  0.46622800  0.32384500  1
  O  O10  1  0.48808800  0.53377200  0.82384500  1
  O  O11  1  0.98808800  0.96622800  0.67615500  1
  F  F0  1  0.60438000  0.75000000  0.96521600  1
  F  F1  1  0.10438000  0.75000000  0.53478400  1
  F  F2  1  0.39562000  0.25000000  0.03478400  1
  F  F3  1  0.89562000  0.25000000  0.46521600  1
loop_
_geom_bond_atom_site_label_1
_geom_bond_atom_site_label_2
_geom_bond_distance
_geom_bond_site_symmetry_2
O0 S0 1.459453 1_555
O0 Tl2 3.135846 1_556
O0 Tl0 3.169935 1_465
O0 Tl0 3.169935 1_455
O1 S1 1.459453 1_555
O1 Tl3 3.135846 1_555
O1 Tl1 3.169935 1_555
O1 Tl1 3.169935 1_565
O2 S2 1.459453 1_555
O2 Tl0 3.135846 1_554
O2 Tl2 3.169935 1_655
O2 Tl2 3.169935 1_645
O3 S3 1.459453 1_555
O3 Tl1 3.135846 1_555
O3 Tl3 3.169935 1_555
O3 Tl3 3.169935 1_545
O4 S0 1.454940 1_555
O4 Tl0 3.081092 1_565
O4 Tl1 3.131502 1_565
O4 Tl0 3.362039 1_465
O5 S1 1.454940 1_555
O5 Tl1 3.081092 1_655
O5 Tl0 3.131502 1_555
O5 Tl1 3.362039 1_555
O6 S2 1.454940 1_555
O6 Tl2 3.081092 1_555
O6 Tl3 3.131502 1_555
O6 Tl2 3.362039 1_655
O7 S3 1.454940 1_555
O7 Tl3 3.081092 1_445
O7 Tl2 3.131502 1_545
O7 Tl3 3.362039 1_545
O8 S2 1.454940 1_555
O8 Tl2 3.081092 1_545
O8 Tl3 3.131502 1_545
O8 Tl2 3.362039 1_645
O9 S3 1.454940 1_555
O9 Tl3 3.081092 1_455
O9 Tl2 3.131502 1_555
O9 Tl3 3.362039 1_555
O10 S0 1.454940 1_555
O10 Tl0 3.081092 1_555
O10 Tl1 3.131502 1_555
O10 Tl0 3.362039 1_455
O11 S1 1.454940 1_555
O11 Tl1 3.081092 1_665
O11 Tl0 3.131502 1_565
O11 Tl1 3.362039 1_565
F0 S0 1.643783 1_555
F0 Tl2 3.350247 1_656
F1 S1 1.643783 1_455
F1 Tl3 3.350247 1_555
F2 S2 1.643783 1_555
F2 Tl0 3.350247 1_454
F3 S3 1.643783 1_655
F3 Tl1 3.350247 1_555
