# generated using pymatgen
data_Li2WO4
_symmetry_space_group_name_H-M   'P 1'
_cell_length_a   8.39010400
_cell_length_b   9.37627982
_cell_length_c   9.37627862
_cell_angle_alpha   78.46189284
_cell_angle_beta   63.44638472
_cell_angle_gamma   63.44638283
_symmetry_Int_Tables_number   1
_chemical_formula_structural   Li2WO4
_chemical_formula_sum   'Li16 W8 O32'
_cell_volume   590.20792711
_cell_formula_units_Z   8
loop_
 _symmetry_equiv_pos_site_id
 _symmetry_equiv_pos_as_xyz
  1  'x, y, z'
loop_
 _atom_site_type_symbol
 _atom_site_label
 _atom_site_symmetry_multiplicity
 _atom_site_fract_x
 _atom_site_fract_y
 _atom_site_fract_z
 _atom_site_occupancy
  Li  Li0  1  0.36967343  0.13051616  0.13090710  1
  Li  Li1  1  0.00000000  0.36892447  0.13107553  1
  Li  Li2  1  0.50000000  0.13031746  0.36968254  1
  Li  Li3  1  0.63032657  0.36909290  0.36948384  1
  Li  Li4  1  0.63032657  0.86948384  0.86909290  1
  Li  Li5  1  1.00000000  0.63107553  0.86892447  1
  Li  Li6  1  0.50000000  0.86968254  0.63031746  1
  Li  Li7  1  0.36967343  0.63090710  0.63051616  1
  Li  Li8  1  0.74412501  0.51253827  0.75003727  1
  Li  Li9  1  0.25587499  0.74996273  0.98746173  1
  Li  Li10  1  0.00709431  0.24973421  0.48663090  1
  Li  Li11  1  0.99290569  0.01336910  0.25026579  1
  Li  Li12  1  0.25587499  0.48746173  0.24996273  1
  Li  Li13  1  0.74412501  0.25003727  0.01253827  1
  Li  Li14  1  0.99290569  0.75026579  0.51336910  1
  Li  Li15  1  0.00709431  0.98663090  0.74973421  1
  W  W0  1  0.77960660  0.88667116  0.11345984  1
  W  W1  1  0.77960660  0.61345984  0.38667116  1
  W  W2  1  0.39313277  0.38661471  0.88661471  1
  W  W3  1  0.66634197  0.11350463  0.61350463  1
  W  W4  1  0.22039340  0.38654016  0.61332884  1
  W  W5  1  0.33365803  0.88649537  0.38649537  1
  W  W6  1  0.60686723  0.61338529  0.11338529  1
  W  W7  1  0.22039340  0.11332884  0.88654016  1
  O  O0  1  0.98942337  0.87446206  0.12586222  1
  O  O1  1  0.84438045  0.64246366  0.14246366  1
  O  O2  1  0.62929243  0.85766489  0.35766489  1
  O  O3  1  0.48700886  0.35759966  0.64237597  1
  O  O4  1  0.37070757  0.14233511  0.64233511  1
  O  O5  1  0.15561955  0.35753634  0.85753634  1
  O  O6  1  0.51299114  0.64240034  0.35762403  1
  O  O7  1  0.48700886  0.14237597  0.85759966  1
  O  O8  1  0.37241489  0.90287920  0.86379484  1
  O  O9  1  0.73620139  0.63623726  0.90290285  1
  O  O10  1  0.27552997  0.86372924  0.59696432  1
  O  O11  1  0.13920283  0.59706616  0.63615638  1
  O  O12  1  0.72447003  0.90303568  0.63627076  1
  O  O13  1  0.26379861  0.59709715  0.86376274  1
  O  O14  1  0.62758511  0.63620516  0.59712080  1
  O  O15  1  0.86079717  0.86384362  0.90293384  1
  O  O16  1  0.62758511  0.09712080  0.13620516  1
  O  O17  1  0.26379861  0.36376274  0.09709715  1
  O  O18  1  0.72447003  0.13627076  0.40303568  1
  O  O19  1  0.86079717  0.40293384  0.36384362  1
  O  O20  1  0.27552997  0.09696432  0.36372924  1
  O  O21  1  0.73620139  0.40290285  0.13623726  1
  O  O22  1  0.37241489  0.36379484  0.40287920  1
  O  O23  1  0.13920283  0.13615638  0.09706616  1
  O  O24  1  0.61531618  0.37433791  0.87433791  1
  O  O25  1  0.86413053  0.12565234  0.62565234  1
  O  O26  1  0.01057663  0.37413778  0.62553794  1
  O  O27  1  0.13586947  0.87434766  0.37434766  1
  O  O28  1  0.38468382  0.62566209  0.12566209  1
  O  O29  1  0.01057663  0.12553794  0.87413778  1
  O  O30  1  0.51299114  0.85762403  0.14240034  1
  O  O31  1  0.98942337  0.62586222  0.37446206  1
loop_
_geom_bond_atom_site_label_1
_geom_bond_atom_site_label_2
_geom_bond_distance
_geom_bond_site_symmetry_2
Li0 O20 1.973366 1_555
Li0 O17 1.977370 1_555
Li0 O16 2.065694 1_555
Li0 O23 2.071953 1_555
Li0 O30 2.293306 1_545
Li0 O7 2.297132 1_554
Li1 O19 1.973699 1_455
Li1 O23 1.973699 1_555
Li1 O21 2.069417 1_455
Li1 O17 2.069417 1_555
Li1 O5 2.298946 1_554
Li1 O1 2.298946 1_455
Li2 O16 1.978552 1_555
Li2 O22 1.978553 1_555
Li2 O18 2.067701 1_555
Li2 O20 2.067702 1_555
Li2 O4 2.291611 1_555
Li2 O2 2.291611 1_545
Li3 O18 1.973366 1_555
Li3 O21 1.977370 1_555
Li3 O22 2.065694 1_555
Li3 O19 2.071953 1_555
Li3 O3 2.293306 1_555
Li3 O6 2.297132 1_555
Li4 O12 1.973366 1_555
Li4 O9 1.977370 1_555
Li4 O8 2.065694 1_555
Li4 O15 2.071953 1_555
Li4 O7 2.293306 1_565
Li4 O30 2.297132 1_556
Li5 O11 1.973699 1_655
Li5 O15 1.973699 1_555
Li5 O13 2.069417 1_655
Li5 O9 2.069417 1_555
Li5 O1 2.298946 1_556
Li5 O5 2.298946 1_655
Li6 O8 1.978552 1_555
Li6 O14 1.978553 1_555
Li6 O10 2.067701 1_555
Li6 O12 2.067702 1_555
Li6 O2 2.291611 1_555
Li6 O4 2.291611 1_565
Li7 O10 1.973366 1_555
Li7 O13 1.977370 1_555
Li7 O14 2.065694 1_555
Li7 O11 2.071953 1_555
Li7 O6 2.293306 1_555
Li7 O3 2.297132 1_555
Li8 O26 1.929617 1_655
Li8 O24 1.930590 1_555
Li8 O9 1.978614 1_555
Li8 O14 1.982676 1_555
Li9 O0 1.929617 1_456
Li9 O28 1.930590 1_556
Li9 O13 1.978614 1_555
Li9 O8 1.982676 1_555
Li10 O26 1.931322 1_555
Li10 O25 1.932497 1_455
Li10 O20 1.976795 1_555
Li10 O19 1.980140 1_455
Li11 O0 1.931322 1_545
Li11 O27 1.932497 1_645
Li11 O18 1.976795 1_555
Li11 O23 1.980140 1_655
Li12 O31 1.929617 1_455
Li12 O28 1.930590 1_555
Li12 O17 1.978614 1_555
Li12 O22 1.982676 1_555
Li13 O29 1.929617 1_654
Li13 O24 1.930590 1_554
Li13 O21 1.978614 1_555
Li13 O16 1.982676 1_555
Li14 O31 1.931322 1_555
Li14 O27 1.932497 1_655
Li14 O12 1.976795 1_555
Li14 O11 1.980140 1_655
Li15 O29 1.931322 1_565
Li15 O25 1.932497 1_465
Li15 O10 1.976795 1_555
Li15 O15 1.980140 1_455
O0 W0 1.767232 1_555
O1 W1 2.093503 1_555
O1 W0 2.093504 1_555
O1 W6 2.262971 1_555
O1 O2 2.552862 1_555
O1 O6 2.605090 1_555
O1 O30 2.605090 1_555
O2 W0 2.093583 1_555
O2 W1 2.093583 1_555
O2 W5 2.264689 1_555
O2 O30 2.605286 1_555
O2 O6 2.605286 1_555
O3 W3 2.092886 1_555
O3 W2 2.093731 1_555
O3 W4 2.263649 1_555
O3 O7 2.552556 1_555
O3 O5 2.605090 1_555
O3 O4 2.605286 1_555
O4 W7 2.093583 1_555
O4 W4 2.093583 1_555
O4 W3 2.264689 1_555
O4 O5 2.552862 1_555
O4 O7 2.605286 1_555
O5 W4 2.093503 1_555
O5 W7 2.093504 1_555
O5 W2 2.262971 1_555
O5 O7 2.605090 1_555
O6 W5 2.092886 1_555
O6 W6 2.093731 1_555
O6 W1 2.263649 1_555
O7 W3 2.092885 1_555
O7 W2 2.093732 1_555
O7 W7 2.263649 1_555
O8 W7 1.800254 1_565
O9 W6 1.800640 1_556
O10 W5 1.800517 1_555
O11 W4 1.800770 1_555
O12 W3 1.800518 1_565
O13 W2 1.800640 1_555
O14 W1 1.800254 1_555
O15 W0 1.800769 1_556
O16 W0 1.800254 1_545
O17 W2 1.800640 1_554
O18 W3 1.800517 1_555
O19 W1 1.800770 1_555
O20 W5 1.800518 1_545
O21 W6 1.800640 1_555
O22 W4 1.800254 1_555
O23 W7 1.800769 1_554
O24 W2 1.767236 1_555
O25 W3 1.767187 1_555
O26 W4 1.767232 1_555
O27 W5 1.767187 1_555
O28 W6 1.767236 1_555
O29 W7 1.767232 1_555
O30 W5 2.092885 1_555
O30 W6 2.093732 1_555
O30 W0 2.263649 1_555
O30 O6 2.552556 1_555
O31 W1 1.767232 1_555
