# generated using pymatgen
data_Tm4Ni13C4
_symmetry_space_group_name_H-M   'P 1'
_cell_length_a   3.82501300
_cell_length_b   8.33125987
_cell_length_c   8.33125987
_cell_angle_alpha   91.44573527
_cell_angle_beta   90.00000000
_cell_angle_gamma   90.00000000
_symmetry_Int_Tables_number   1
_chemical_formula_structural   Tm4Ni13C4
_chemical_formula_sum   'Tm4 Ni13 C4'
_cell_volume   265.40922038
_cell_formula_units_Z   1
loop_
 _symmetry_equiv_pos_site_id
 _symmetry_equiv_pos_as_xyz
  1  'x, y, z'
loop_
 _atom_site_type_symbol
 _atom_site_label
 _atom_site_symmetry_multiplicity
 _atom_site_fract_x
 _atom_site_fract_y
 _atom_site_fract_z
 _atom_site_occupancy
  Tm  Tm0  1  0.50000000  0.18636300  0.81363700  1
  Tm  Tm1  1  0.50000000  0.81363700  0.18636300  1
  Tm  Tm2  1  0.50000000  0.65150700  0.65150700  1
  Tm  Tm3  1  0.50000000  0.34849300  0.34849300  1
  Ni  Ni0  1  0.50000000  0.00000000  0.50000000  1
  Ni  Ni1  1  0.50000000  0.50000000  0.00000000  1
  Ni  Ni2  1  0.00000000  0.00000000  0.00000000  1
  Ni  Ni3  1  0.00000000  0.78393000  0.43010200  1
  Ni  Ni4  1  0.00000000  0.21607000  0.56989800  1
  Ni  Ni5  1  0.00000000  0.56989800  0.21607000  1
  Ni  Ni6  1  0.00000000  0.43010200  0.78393000  1
  Ni  Ni7  1  0.00000000  0.92481900  0.70873600  1
  Ni  Ni8  1  0.00000000  0.07518100  0.29126400  1
  Ni  Ni9  1  0.00000000  0.29126400  0.07518100  1
  Ni  Ni10  1  0.00000000  0.70873600  0.92481900  1
  Ni  Ni11  1  0.50000000  0.87586500  0.87586500  1
  Ni  Ni12  1  0.50000000  0.12413500  0.12413500  1
  C  C0  1  0.00000000  0.55684900  0.44315100  1
  C  C1  1  0.00000000  0.44315100  0.55684900  1
  C  C2  1  0.00000000  0.00000000  0.50000000  1
  C  C3  1  0.00000000  0.50000000  0.00000000  1
loop_
_geom_bond_atom_site_label_1
_geom_bond_atom_site_label_2
_geom_bond_distance
_geom_bond_site_symmetry_2
Ni0 Ni7 2.670056 1_645
Ni0 Ni7 2.670056 1_545
Ni0 Ni8 2.670056 1_555
Ni0 Ni8 2.670056 1_655
Ni0 Ni3 2.680371 1_645
Ni0 Ni3 2.680371 1_545
Ni0 Ni4 2.680371 1_555
Ni0 Ni4 2.680371 1_655
Ni0 Tm0 3.005610 1_555
Ni0 Tm1 3.005610 1_545
Ni0 Tm2 3.194970 1_545
Ni0 Tm3 3.194970 1_555
Ni1 Ni10 2.670056 1_654
Ni1 Ni10 2.670056 1_554
Ni1 Ni9 2.670056 1_555
Ni1 Ni9 2.670056 1_655
Ni1 Ni5 2.680371 1_655
Ni1 Ni6 2.680371 1_554
Ni1 Ni6 2.680371 1_654
Ni1 Ni5 2.680371 1_555
Ni1 Tm1 3.005610 1_555
Ni1 Tm0 3.005610 1_554
Ni1 Tm3 3.194970 1_555
Ni1 Tm2 3.194970 1_554
Ni2 Ni9 2.490781 1_555
Ni2 Ni8 2.490781 1_555
Ni2 Ni7 2.490781 1_544
Ni2 Tm1 2.932695 1_445
Ni2 Tm1 2.932695 1_545
Ni2 Tm0 2.932695 1_554
Ni2 Tm0 2.932695 1_454
Ni3 Ni5 2.489748 1_555
Ni3 Ni7 2.574693 1_555
Ni3 Tm1 2.804968 1_555
Ni3 Tm1 2.804968 1_455
Ni3 Tm2 2.894826 1_555
Ni3 Tm2 2.894826 1_455
Ni4 Ni6 2.489748 1_555
Ni4 Ni8 2.574693 1_555
Ni4 Tm0 2.804968 1_455
Ni4 Tm0 2.804968 1_555
Ni4 Tm3 2.894826 1_555
Ni4 Tm3 2.894826 1_455
Ni5 Ni9 2.574693 1_555
Ni5 Tm1 2.804968 1_455
Ni5 Tm1 2.804968 1_555
Ni5 Tm3 2.894826 1_555
Ni5 Tm3 2.894826 1_455
Ni6 Tm0 2.804968 1_555
Ni6 Tm0 2.804968 1_455
Ni6 Tm2 2.894826 1_555
Ni6 Tm2 2.894826 1_455
Ni7 Tm2 3.002517 1_555
Ni7 Tm2 3.002517 1_455
Ni7 Tm0 3.012207 1_465
Ni7 Tm0 3.012207 1_565
Ni8 Ni9 2.577846 1_555
Ni8 Tm3 3.002517 1_555
Ni8 Tm3 3.002517 1_455
Ni8 Tm1 3.012207 1_445
Ni8 Tm1 3.012207 1_545
Ni9 Tm3 3.002517 1_555
Ni9 Tm3 3.002517 1_455
Ni9 Tm0 3.012207 1_454
Ni9 Tm0 3.012207 1_554
Ni10 Ni11 2.406541 1_455
Ni10 Ni11 2.406541 1_555
Ni10 Ni2 2.490781 1_566
Ni10 Ni6 2.574693 1_555
Ni10 Ni7 2.577846 1_555
Ni10 Tm2 3.002517 1_555
Ni10 Tm2 3.002517 1_455
Ni10 Tm1 3.012207 1_556
Ni10 Tm1 3.012207 1_456
Ni11 Ni2 2.396425 1_566
Ni11 Ni2 2.396425 1_666
Ni11 Ni7 2.406541 1_555
Ni11 Ni7 2.406541 1_655
Ni11 Tm2 2.609866 1_555
Ni11 Tm1 2.651073 1_556
Ni11 Tm0 2.651073 1_565
Ni11 Ni12 2.888025 1_566
Ni12 Ni2 2.396425 1_655
Ni12 Ni2 2.396425 1_555
Ni12 Ni9 2.406541 1_555
Ni12 Ni8 2.406541 1_655
Ni12 Ni9 2.406541 1_655
Ni12 Ni8 2.406541 1_555
Ni12 Tm3 2.609866 1_555
Ni12 Tm1 2.651073 1_545
Ni12 Tm0 2.651073 1_554
C0 C1 1.356404 1_555
C0 Ni5 1.897728 1_555
C0 Ni3 1.897728 1_555
C0 Tm3 2.687706 1_555
C0 Tm3 2.687706 1_455
C0 Tm2 2.687706 1_555
C0 Tm2 2.687706 1_455
C1 Ni4 1.897728 1_555
C1 Ni6 1.897728 1_555
C1 Tm3 2.687706 1_455
C1 Tm3 2.687706 1_555
C1 Tm2 2.687706 1_555
C1 Tm2 2.687706 1_455
C2 Ni7 1.863202 1_545
C2 Ni8 1.863202 1_555
C2 Ni4 1.877953 1_555
C2 Ni3 1.877953 1_545
C2 Ni0 1.912507 1_455
C2 Ni0 1.912507 1_555
C3 Ni10 1.863202 1_554
C3 Ni9 1.863202 1_555
C3 Ni6 1.877953 1_554
C3 Ni5 1.877953 1_555
C3 Ni1 1.912507 1_555
C3 Ni1 1.912507 1_455
