# generated using pymatgen
data_Ti3VCr2(PO4)6
_symmetry_space_group_name_H-M   'P 1'
_cell_length_a   8.72539642
_cell_length_b   8.72539642
_cell_length_c   8.72539640
_cell_angle_alpha   59.35461433
_cell_angle_beta   59.35461433
_cell_angle_gamma   59.35461253
_symmetry_Int_Tables_number   1
_chemical_formula_structural   Ti3VCr2(PO4)6
_chemical_formula_sum   'Ti3 V1 Cr2 P6 O24'
_cell_volume   462.82103314
_cell_formula_units_Z   1
loop_
 _symmetry_equiv_pos_site_id
 _symmetry_equiv_pos_as_xyz
  1  'x, y, z'
loop_
 _atom_site_type_symbol
 _atom_site_label
 _atom_site_symmetry_multiplicity
 _atom_site_fract_x
 _atom_site_fract_y
 _atom_site_fract_z
 _atom_site_occupancy
  Ti  Ti0  1  0.35509700  0.35509700  0.35509700  1
  Ti  Ti1  1  0.14522000  0.14522000  0.14522000  1
  Ti  Ti2  1  0.64597500  0.64597500  0.64597500  1
  V  V0  1  0.85686000  0.85686000  0.85686000  1
  Cr  Cr0  1  0.00001400  0.00001400  0.00001400  1
  Cr  Cr1  1  0.49969900  0.49969900  0.49969900  1
  P  P0  1  0.75078900  0.04220100  0.45733000  1
  P  P1  1  0.04220100  0.45733000  0.75078900  1
  P  P2  1  0.45733000  0.75078900  0.04220100  1
  P  P3  1  0.54288200  0.25016500  0.95863300  1
  P  P4  1  0.95863300  0.54288200  0.25016500  1
  P  P5  1  0.25016500  0.95863300  0.54288200  1
  O  O0  1  0.87706100  0.50020200  0.69516000  1
  O  O1  1  0.50020200  0.69516000  0.87706100  1
  O  O2  1  0.69516000  0.87706100  0.50020200  1
  O  O3  1  0.91606600  0.05826500  0.26292900  1
  O  O4  1  0.80301500  0.01006100  0.61360200  1
  O  O5  1  0.58245200  0.23332100  0.43374000  1
  O  O6  1  0.05826500  0.26292900  0.91606600  1
  O  O7  1  0.23332100  0.43374000  0.58245200  1
  O  O8  1  0.37822300  0.19468000  0.00142400  1
  O  O9  1  0.43374000  0.58245200  0.23332100  1
  O  O10  1  0.73349300  0.08789700  0.94494300  1
  O  O11  1  0.00142400  0.37822300  0.19468000  1
  O  O12  1  0.01006100  0.61360200  0.80301500  1
  O  O13  1  0.26292900  0.91606600  0.05826500  1
  O  O14  1  0.55660600  0.41845600  0.76794900  1
  O  O15  1  0.61360200  0.80301500  0.01006100  1
  O  O16  1  0.76794900  0.55660600  0.41845600  1
  O  O17  1  0.94494300  0.73349300  0.08789700  1
  O  O18  1  0.41845600  0.76794900  0.55660600  1
  O  O19  1  0.19468000  0.00142400  0.37822300  1
  O  O20  1  0.08789700  0.94494300  0.73349300  1
  O  O21  1  0.30837700  0.12188900  0.49533800  1
  O  O22  1  0.49533800  0.30837700  0.12188900  1
  O  O23  1  0.12188900  0.49533800  0.30837700  1
loop_
_geom_bond_atom_site_label_1
_geom_bond_atom_site_label_2
_geom_bond_distance
_geom_bond_site_symmetry_2
Cr0 O13 2.270148 1_545
Cr0 O3 2.270148 1_455
Cr0 O6 2.270148 1_554
Cr0 O10 2.274311 1_454
Cr0 O20 2.274311 1_544
Cr0 O17 2.274311 1_445
Cr1 O18 2.315580 1_555
Cr1 O14 2.315580 1_555
Cr1 O16 2.315580 1_555
Cr1 O5 2.341772 1_555
Cr1 O9 2.341772 1_555
Cr1 O7 2.341772 1_555
O0 P1 1.558898 1_655
O0 Ti2 1.891746 1_555
O1 P2 1.558898 1_556
O1 Ti2 1.891746 1_555
O2 P0 1.558898 1_565
O2 Ti2 1.891746 1_555
O3 P0 1.564124 1_555
O3 Ti1 2.070499 1_655
O4 P0 1.502953 1_555
O4 V0 1.999156 1_545
O5 P0 1.562664 1_555
O5 Ti0 2.007678 1_555
O6 P1 1.564124 1_555
O6 Ti1 2.070499 1_556
O7 P1 1.562664 1_555
O7 Ti0 2.007678 1_555
O8 P3 1.554312 1_554
O8 Ti1 1.906764 1_555
O9 P2 1.562664 1_555
O9 Ti0 2.007678 1_555
O10 P3 1.534375 1_555
O10 V0 2.082572 1_545
O11 P4 1.554312 1_455
O11 Ti1 1.906764 1_555
O12 P1 1.502953 1_555
O12 V0 1.999156 1_455
O13 P2 1.564124 1_555
O13 Ti1 2.070499 1_565
O14 P3 1.557009 1_555
O14 Ti2 2.063961 1_555
O15 P2 1.502953 1_555
O15 V0 1.999156 1_554
O16 P4 1.557009 1_555
O16 Ti2 2.063961 1_555
O17 P4 1.534375 1_555
O17 V0 2.082572 1_554
O18 P5 1.557009 1_555
O18 Ti2 2.063961 1_555
O19 P5 1.554312 1_545
O19 Ti1 1.906764 1_555
O20 P5 1.534375 1_555
O20 V0 2.082572 1_455
O21 P5 1.542585 1_545
O21 Ti0 1.898106 1_555
O22 P3 1.542585 1_554
O22 Ti0 1.898106 1_555
O23 P4 1.542585 1_455
O23 Ti0 1.898106 1_555
