# generated using pymatgen
data_Sm4CrS7
_symmetry_space_group_name_H-M   'P 1'
_cell_length_a   10.00687400
_cell_length_b   6.48389400
_cell_length_c   10.00950953
_cell_angle_alpha   90.00000000
_cell_angle_beta   119.76835149
_cell_angle_gamma   90.00000000
_symmetry_Int_Tables_number   1
_chemical_formula_structural   Sm4CrS7
_chemical_formula_sum   'Sm8 Cr2 S14'
_cell_volume   563.75030631
_cell_formula_units_Z   2
loop_
 _symmetry_equiv_pos_site_id
 _symmetry_equiv_pos_as_xyz
  1  'x, y, z'
loop_
 _atom_site_type_symbol
 _atom_site_label
 _atom_site_symmetry_multiplicity
 _atom_site_fract_x
 _atom_site_fract_y
 _atom_site_fract_z
 _atom_site_occupancy
  Sm  Sm0  1  0.99985400  0.54895900  0.99992100  1
  Sm  Sm1  1  0.00014600  0.04895900  0.00007900  1
  Sm  Sm2  1  0.85053200  0.73328100  0.25007800  1
  Sm  Sm3  1  0.75039700  0.73366100  0.60101100  1
  Sm  Sm4  1  0.39887900  0.73297100  0.14995200  1
  Sm  Sm5  1  0.14946800  0.23328100  0.74992200  1
  Sm  Sm6  1  0.24960300  0.23366100  0.39898900  1
  Sm  Sm7  1  0.60112100  0.23297100  0.85004800  1
  Cr  Cr0  1  0.66774700  0.15379200  0.33276500  1
  Cr  Cr1  1  0.33225300  0.65379200  0.66723500  1
  S  S0  1  0.89366400  0.30546400  0.14975700  1
  S  S1  1  0.85003100  0.30543300  0.74461400  1
  S  S2  1  0.25555300  0.30558200  0.10575200  1
  S  S3  1  0.10633600  0.80546400  0.85024300  1
  S  S4  1  0.14996900  0.80543300  0.25538600  1
  S  S5  1  0.74444700  0.80558200  0.89424800  1
  S  S6  1  0.58196000  0.98995500  0.09698500  1
  S  S7  1  0.90413500  0.99002100  0.48544100  1
  S  S8  1  0.51481900  0.99134500  0.41748300  1
  S  S9  1  0.41804000  0.48995500  0.90301500  1
  S  S10  1  0.09586500  0.49002100  0.51455900  1
  S  S11  1  0.48518100  0.49134500  0.58251700  1
  S  S12  1  0.66638200  0.51953400  0.33392000  1
  S  S13  1  0.33361800  0.01953400  0.66608000  1
loop_
_geom_bond_atom_site_label_1
_geom_bond_atom_site_label_2
_geom_bond_distance
_geom_bond_site_symmetry_2
Cr0 S6 2.328828 1_545
Cr0 S8 2.336453 1_545
Cr0 S7 2.338583 1_545
Cr0 S12 2.371533 1_555
Cr0 S0 3.680457 1_555
Cr1 S9 2.328828 1_555
Cr1 S11 2.336453 1_555
Cr1 S10 2.338583 1_555
Cr1 S13 2.371533 1_565
Cr1 S3 3.680457 1_555
S0 Sm0 2.730142 1_554
S0 Sm1 2.780523 1_655
S0 Sm7 3.011629 1_554
S0 Sm2 3.052810 1_555
S0 Sm6 3.209911 1_655
S0 S10 3.394534 1_655
S0 S6 3.543621 1_545
S1 Sm0 2.732597 1_555
S1 Sm1 2.783225 1_656
S1 Sm5 3.007022 1_655
S1 Sm3 3.057207 1_555
S1 Sm7 3.185728 1_555
S1 S11 3.396057 1_555
S1 S7 3.549659 1_545
S2 Sm0 2.732764 1_454
S2 Sm1 2.781229 1_555
S2 Sm6 3.001616 1_555
S2 Sm4 3.049910 1_555
S2 Sm5 3.205902 1_554
S2 S9 3.386366 1_554
S2 S8 3.546822 1_545
S3 Sm1 2.730142 1_566
S3 Sm0 2.780523 1_455
S3 Sm4 3.011629 1_556
S3 Sm5 3.052810 1_565
S3 Sm3 3.209911 1_455
S3 S7 3.394534 1_455
S3 S9 3.543621 1_555
S4 Sm1 2.732597 1_565
S4 Sm0 2.783225 1_454
S4 Sm2 3.007022 1_455
S4 Sm6 3.057207 1_565
S4 Sm4 3.185728 1_555
S4 S8 3.396057 1_555
S5 Sm1 2.732764 1_666
S5 Sm0 2.781229 1_555
S5 Sm3 3.001616 1_555
S5 Sm7 3.049910 1_565
S5 Sm2 3.205902 1_556
S5 S6 3.386366 1_556
S6 Sm4 2.716335 1_555
S6 Sm2 2.872529 1_555
S6 Sm7 3.016548 1_564
S7 Sm2 2.711855 1_555
S7 Sm3 2.869687 1_555
S7 Sm5 3.011571 1_665
S8 Sm3 2.724575 1_555
S8 Sm4 2.870267 1_555
S8 Sm6 3.009744 1_565
S9 Sm7 2.716335 1_555
S9 Sm5 2.872529 1_555
S9 Sm4 3.016548 1_556
S10 Sm5 2.711855 1_555
S10 Sm6 2.869687 1_555
S10 Sm2 3.011571 1_455
S10 S4 3.549659 1_555
S11 Sm6 2.724575 1_555
S11 Sm7 2.870267 1_555
S11 Sm3 3.009744 1_555
S11 S5 3.546822 1_555
S12 Sm3 2.747701 1_555
S12 Sm2 2.748903 1_555
S12 Sm4 2.752630 1_555
S13 Sm6 2.747701 1_555
S13 Sm5 2.748903 1_555
S13 Sm7 2.752630 1_555
