# generated using pymatgen
data_MgAgAsO5
_symmetry_space_group_name_H-M   'P 1'
_cell_length_a   6.16728600
_cell_length_b   7.92509900
_cell_length_c   9.26958500
_cell_angle_alpha   90.00000000
_cell_angle_beta   90.00000000
_cell_angle_gamma   90.00000000
_symmetry_Int_Tables_number   1
_chemical_formula_structural   MgAgAsO5
_chemical_formula_sum   'Mg4 Ag4 As4 O20'
_cell_volume   453.06350039
_cell_formula_units_Z   4
loop_
 _symmetry_equiv_pos_site_id
 _symmetry_equiv_pos_as_xyz
  1  'x, y, z'
loop_
 _atom_site_type_symbol
 _atom_site_label
 _atom_site_symmetry_multiplicity
 _atom_site_fract_x
 _atom_site_fract_y
 _atom_site_fract_z
 _atom_site_occupancy
  Mg  Mg0  1  0.10725700  0.82161000  0.68327000  1
  Mg  Mg1  1  0.39274300  0.17839000  0.18327000  1
  Mg  Mg2  1  0.89274300  0.32161000  0.81673000  1
  Mg  Mg3  1  0.60725700  0.67839000  0.31673000  1
  Ag  Ag0  1  0.24158700  0.75159000  0.00898300  1
  Ag  Ag1  1  0.25841300  0.24841000  0.50898300  1
  Ag  Ag2  1  0.75841300  0.25159000  0.49101700  1
  Ag  Ag3  1  0.74158700  0.74841000  0.99101700  1
  As  As0  1  0.43997200  0.10852300  0.85142800  1
  As  As1  1  0.06002800  0.89147700  0.35142800  1
  As  As2  1  0.56002800  0.60852300  0.64857200  1
  As  As3  1  0.93997200  0.39147700  0.14857200  1
  O  O0  1  0.49362000  0.93411200  0.97046400  1
  O  O1  1  0.00638000  0.06588800  0.47046400  1
  O  O2  1  0.50638000  0.43411200  0.52953600  1
  O  O3  1  0.99362000  0.56588800  0.02953600  1
  O  O4  1  0.36314400  0.25312600  0.97645300  1
  O  O5  1  0.13685600  0.74687400  0.47645300  1
  O  O6  1  0.63685600  0.75312600  0.52354700  1
  O  O7  1  0.86314400  0.24687400  0.02354700  1
  O  O8  1  0.66455200  0.15740500  0.75340100  1
  O  O9  1  0.83544800  0.84259500  0.25340100  1
  O  O10  1  0.33544800  0.65740500  0.74659900  1
  O  O11  1  0.16455200  0.34259500  0.24659900  1
  O  O12  1  0.23139300  0.05711200  0.73632300  1
  O  O13  1  0.26860700  0.94288800  0.23632300  1
  O  O14  1  0.76860700  0.55711200  0.76367700  1
  O  O15  1  0.73139300  0.44288800  0.26367700  1
  O  O16  1  0.99372600  0.85684400  0.89073200  1
  O  O17  1  0.50627400  0.14315600  0.39073200  1
  O  O18  1  0.00627400  0.35684400  0.60926800  1
  O  O19  1  0.49372600  0.64315600  0.10926800  1
loop_
_geom_bond_atom_site_label_1
_geom_bond_atom_site_label_2
_geom_bond_distance
_geom_bond_site_symmetry_2
Mg0 O10 2.004656 1_555
Mg0 O5 2.014803 1_555
Mg0 O16 2.065547 1_455
Mg0 O12 2.076373 1_565
Mg1 O11 2.004656 1_555
Mg1 O4 2.014803 1_554
Mg1 O17 2.065547 1_555
Mg1 O13 2.076373 1_545
Mg2 O8 2.004656 1_555
Mg2 O7 2.014803 1_556
Mg2 O18 2.065547 1_655
Mg2 O14 2.076373 1_555
Mg3 O9 2.004656 1_555
Mg3 O6 2.014803 1_555
Mg3 O19 2.065547 1_555
Mg3 O15 2.076373 1_555
Ag0 O19 2.005170 1_555
Ag0 O16 2.057676 1_454
Ag0 O3 2.130945 1_455
Ag0 O0 2.153114 1_554
Ag0 O13 2.601366 1_555
Ag0 O10 2.609174 1_554
Ag1 O18 2.005170 1_555
Ag1 O17 2.057676 1_555
Ag1 O2 2.130945 1_555
Ag1 O1 2.153114 1_555
Ag1 O12 2.601366 1_555
Ag1 O11 2.609174 1_555
Ag2 O17 2.005170 1_555
Ag2 O18 2.057676 1_655
Ag2 O1 2.130945 1_655
Ag2 O2 2.153114 1_555
Ag2 O15 2.601366 1_555
Ag2 O8 2.609174 1_555
Ag3 O16 2.005170 1_555
Ag3 O19 2.057676 1_556
Ag3 O0 2.130945 1_555
Ag3 O3 2.153114 1_556
Ag3 O14 2.601366 1_555
Ag3 O9 2.609174 1_556
As0 O4 1.697329 1_555
As0 O8 1.701210 1_555
As0 O12 1.720227 1_555
As0 O0 1.799316 1_545
As1 O5 1.697329 1_555
As1 O9 1.701210 1_455
As1 O13 1.720227 1_555
As1 O1 1.799316 1_565
As2 O6 1.697329 1_555
As2 O10 1.701210 1_555
As2 O14 1.720227 1_555
As2 O2 1.799316 1_555
As3 O7 1.697329 1_555
As3 O11 1.701210 1_655
As3 O15 1.720227 1_555
As3 O3 1.799316 1_555
O12 O16 2.591548 1_445
O13 O17 2.591548 1_565
O14 O18 2.591548 1_655
O15 O19 2.591548 1_555
