# generated using pymatgen
data_Bi2B3HO8
_symmetry_space_group_name_H-M   'P 1'
_cell_length_a   6.10601800
_cell_length_b   11.55493500
_cell_length_c   19.59190100
_cell_angle_alpha   90.00000000
_cell_angle_beta   90.00000000
_cell_angle_gamma   90.00000000
_symmetry_Int_Tables_number   1
_chemical_formula_structural   Bi2B3HO8
_chemical_formula_sum   'Bi16 B24 H8 O64'
_cell_volume   1382.29954350
_cell_formula_units_Z   8
loop_
 _symmetry_equiv_pos_site_id
 _symmetry_equiv_pos_as_xyz
  1  'x, y, z'
loop_
 _atom_site_type_symbol
 _atom_site_label
 _atom_site_symmetry_multiplicity
 _atom_site_fract_x
 _atom_site_fract_y
 _atom_site_fract_z
 _atom_site_occupancy
  Bi  Bi0  1  0.70900800  0.84635200  0.32169100  1
  Bi  Bi1  1  0.20900800  0.65364800  0.67830900  1
  Bi  Bi2  1  0.29099200  0.34635200  0.17830900  1
  Bi  Bi3  1  0.79099200  0.15364800  0.82169100  1
  Bi  Bi4  1  0.29099200  0.15364800  0.67830900  1
  Bi  Bi5  1  0.79099200  0.34635200  0.32169100  1
  Bi  Bi6  1  0.70900800  0.65364800  0.82169100  1
  Bi  Bi7  1  0.20900800  0.84635200  0.17830900  1
  Bi  Bi8  1  0.29901200  0.09485400  0.30594100  1
  Bi  Bi9  1  0.79901200  0.40514600  0.69405900  1
  Bi  Bi10  1  0.70098800  0.59485400  0.19405900  1
  Bi  Bi11  1  0.20098800  0.90514600  0.80594100  1
  Bi  Bi12  1  0.70098800  0.90514600  0.69405900  1
  Bi  Bi13  1  0.20098800  0.59485400  0.30594100  1
  Bi  Bi14  1  0.29901200  0.40514600  0.80594100  1
  Bi  Bi15  1  0.79901200  0.09485400  0.19405900  1
  B  B0  1  0.35673300  0.84870400  0.43726200  1
  B  B1  1  0.85673300  0.65129600  0.56273800  1
  B  B2  1  0.64326700  0.34870400  0.06273800  1
  B  B3  1  0.14326700  0.15129600  0.93726200  1
  B  B4  1  0.64326700  0.15129600  0.56273800  1
  B  B5  1  0.14326700  0.34870400  0.43726200  1
  B  B6  1  0.35673300  0.65129600  0.93726200  1
  B  B7  1  0.85673300  0.84870400  0.06273800  1
  B  B8  1  0.76825400  0.07742600  0.44863800  1
  B  B9  1  0.26825400  0.42257400  0.55136200  1
  B  B10  1  0.23174600  0.57742600  0.05136200  1
  B  B11  1  0.73174600  0.92257400  0.94863800  1
  B  B12  1  0.23174600  0.92257400  0.55136200  1
  B  B13  1  0.73174600  0.57742600  0.44863800  1
  B  B14  1  0.76825400  0.42257400  0.94863800  1
  B  B15  1  0.26825400  0.07742600  0.05136200  1
  B  B16  1  0.45554700  0.20481600  0.45429100  1
  B  B17  1  0.95554700  0.29518400  0.54570900  1
  B  B18  1  0.54445300  0.70481600  0.04570900  1
  B  B19  1  0.04445300  0.79518400  0.95429100  1
  B  B20  1  0.54445300  0.79518400  0.54570900  1
  B  B21  1  0.04445300  0.70481600  0.45429100  1
  B  B22  1  0.45554700  0.29518400  0.95429100  1
  B  B23  1  0.95554700  0.20481600  0.04570900  1
  H  H0  1  0.03725600  0.98336900  0.43762000  1
  H  H1  1  0.53725600  0.51663100  0.56238000  1
  H  H2  1  0.96274400  0.48336900  0.06238000  1
  H  H3  1  0.46274400  0.01663100  0.93762000  1
  H  H4  1  0.96274400  0.01663100  0.56238000  1
  H  H5  1  0.46274400  0.48336900  0.43762000  1
  H  H6  1  0.03725600  0.51663100  0.93762000  1
  H  H7  1  0.53725600  0.98336900  0.06238000  1
  O  O0  1  0.43340600  0.90833500  0.37740100  1
  O  O1  1  0.93340600  0.59166500  0.62259900  1
  O  O2  1  0.56659400  0.40833500  0.12259900  1
  O  O3  1  0.06659400  0.09166500  0.87740100  1
  O  O4  1  0.56659400  0.09166500  0.62259900  1
  O  O5  1  0.06659400  0.40833500  0.37740100  1
  O  O6  1  0.43340600  0.59166500  0.87740100  1
  O  O7  1  0.93340600  0.90833500  0.12259900  1
  O  O8  1  0.30299400  0.25849200  0.41489100  1
  O  O9  1  0.80299400  0.24150800  0.58510900  1
  O  O10  1  0.69700600  0.75849200  0.08510900  1
  O  O11  1  0.19700600  0.74150800  0.91489100  1
  O  O12  1  0.69700600  0.74150800  0.58510900  1
  O  O13  1  0.19700600  0.75849200  0.41489100  1
  O  O14  1  0.30299400  0.24150800  0.91489100  1
  O  O15  1  0.80299400  0.25849200  0.08510900  1
  O  O16  1  0.58530700  0.98458500  0.25739300  1
  O  O17  1  0.08530700  0.51541500  0.74260700  1
  O  O18  1  0.41469300  0.48458500  0.24260700  1
  O  O19  1  0.91469300  0.01541500  0.75739300  1
  O  O20  1  0.41469300  0.01541500  0.74260700  1
  O  O21  1  0.91469300  0.48458500  0.25739300  1
  O  O22  1  0.58530700  0.51541500  0.75739300  1
  O  O23  1  0.08530700  0.98458500  0.24260700  1
  O  O24  1  0.61328500  0.14486900  0.41510600  1
  O  O25  1  0.11328500  0.35513100  0.58489400  1
  O  O26  1  0.38671500  0.64486900  0.08489400  1
  O  O27  1  0.88671500  0.85513100  0.91510600  1
  O  O28  1  0.38671500  0.85513100  0.58489400  1
  O  O29  1  0.88671500  0.64486900  0.41510600  1
  O  O30  1  0.61328500  0.35513100  0.91510600  1
  O  O31  1  0.11328500  0.14486900  0.08489400  1
  O  O32  1  0.91835300  0.01954500  0.40871600  1
  O  O33  1  0.41835300  0.48045500  0.59128400  1
  O  O34  1  0.08164700  0.51954500  0.09128400  1
  O  O35  1  0.58164700  0.98045500  0.90871600  1
  O  O36  1  0.08164700  0.98045500  0.59128400  1
  O  O37  1  0.58164700  0.51954500  0.40871600  1
  O  O38  1  0.91835300  0.48045500  0.90871600  1
  O  O39  1  0.41835300  0.01954500  0.09128400  1
  O  O40  1  0.53743900  0.79392800  0.47632700  1
  O  O41  1  0.03743900  0.70607200  0.52367300  1
  O  O42  1  0.46256100  0.29392800  0.02367300  1
  O  O43  1  0.96256100  0.20607200  0.97632700  1
  O  O44  1  0.46256100  0.20607200  0.52367300  1
  O  O45  1  0.96256100  0.29392800  0.47632700  1
  O  O46  1  0.53743900  0.70607200  0.97632700  1
  O  O47  1  0.03743900  0.79392800  0.02367300  1
  O  O48  1  0.52297200  0.71134200  0.26782500  1
  O  O49  1  0.02297200  0.78865800  0.73217500  1
  O  O50  1  0.47702800  0.21134200  0.23217500  1
  O  O51  1  0.97702800  0.28865800  0.76782500  1
  O  O52  1  0.47702800  0.28865800  0.73217500  1
  O  O53  1  0.97702800  0.21134200  0.26782500  1
  O  O54  1  0.52297200  0.78865800  0.76782500  1
  O  O55  1  0.02297200  0.71134200  0.23217500  1
  O  O56  1  0.23558700  0.93318200  0.48182400  1
  O  O57  1  0.73558700  0.56681800  0.51817600  1
  O  O58  1  0.76441300  0.43318200  0.01817600  1
  O  O59  1  0.26441300  0.06681800  0.98182400  1
  O  O60  1  0.76441300  0.06681800  0.51817600  1
  O  O61  1  0.26441300  0.43318200  0.48182400  1
  O  O62  1  0.23558700  0.56681800  0.98182400  1
  O  O63  1  0.73558700  0.93318200  0.01817600  1
loop_
_geom_bond_atom_site_label_1
_geom_bond_atom_site_label_2
_geom_bond_distance
_geom_bond_site_symmetry_2
Bi0 O0 2.129829 1_555
Bi0 O16 2.169951 1_555
Bi0 O48 2.199499 1_555
Bi0 O32 2.923332 1_565
Bi0 O55 3.030616 1_655
Bi1 O1 2.129829 1_455
Bi1 O17 2.169951 1_555
Bi1 O49 2.199499 1_555
Bi1 O33 2.923332 1_555
Bi1 O54 3.030616 1_555
Bi2 O2 2.129829 1_555
Bi2 O18 2.169951 1_555
Bi2 O50 2.199499 1_555
Bi2 O34 2.923332 1_555
Bi2 O53 3.030616 1_455
Bi3 O3 2.129829 1_655
Bi3 O19 2.169951 1_555
Bi3 O51 2.199499 1_555
Bi3 O35 2.923332 1_545
Bi3 O52 3.030616 1_555
Bi4 O4 2.129829 1_555
Bi4 O20 2.169951 1_555
Bi4 O52 2.199499 1_555
Bi4 O36 2.923332 1_545
Bi4 O51 3.030616 1_455
Bi5 O5 2.129829 1_655
Bi5 O21 2.169951 1_555
Bi5 O53 2.199499 1_555
Bi5 O37 2.923332 1_555
Bi5 O50 3.030616 1_555
Bi6 O6 2.129829 1_555
Bi6 O22 2.169951 1_555
Bi6 O54 2.199499 1_555
Bi6 O38 2.923332 1_555
Bi6 O49 3.030616 1_655
Bi7 O7 2.129829 1_455
Bi7 O23 2.169951 1_555
Bi7 O55 2.199499 1_555
Bi7 O39 2.923332 1_565
Bi7 O48 3.030616 1_555
Bi8 O23 2.205869 1_545
Bi8 O50 2.254306 1_555
Bi8 O16 2.363065 1_545
Bi8 O53 2.496942 1_455
Bi8 O0 2.697862 1_545
Bi8 O8 2.851678 1_555
Bi8 O24 2.930979 1_555
Bi9 O22 2.205869 1_555
Bi9 O51 2.254306 1_555
Bi9 O17 2.363065 1_655
Bi9 O52 2.496942 1_555
Bi9 O1 2.697862 1_555
Bi9 O9 2.851678 1_555
Bi9 O25 2.930979 1_655
Bi10 O21 2.205869 1_555
Bi10 O48 2.254306 1_555
Bi10 O18 2.363065 1_555
Bi10 O55 2.496942 1_655
Bi10 O2 2.697862 1_555
Bi10 O10 2.851678 1_555
Bi10 O26 2.930979 1_555
Bi11 O20 2.205869 1_565
Bi11 O49 2.254306 1_555
Bi11 O19 2.363065 1_465
Bi11 O54 2.496942 1_555
Bi11 O3 2.697862 1_565
Bi11 O11 2.851678 1_555
Bi11 O27 2.930979 1_455
Bi12 O19 2.205869 1_565
Bi12 O54 2.254306 1_555
Bi12 O20 2.363065 1_565
Bi12 O49 2.496942 1_655
Bi12 O4 2.697862 1_565
Bi12 O12 2.851678 1_555
Bi12 O28 2.930979 1_555
Bi13 O18 2.205869 1_555
Bi13 O55 2.254306 1_555
Bi13 O21 2.363065 1_455
Bi13 O48 2.496942 1_555
Bi13 O5 2.697862 1_555
Bi13 O13 2.851678 1_555
Bi13 O29 2.930979 1_455
Bi14 O17 2.205869 1_555
Bi14 O52 2.254306 1_555
Bi14 O22 2.363065 1_555
Bi14 O51 2.496942 1_455
Bi14 O6 2.697862 1_555
Bi14 O14 2.851678 1_555
Bi14 O30 2.930979 1_555
Bi15 O16 2.205869 1_545
Bi15 O53 2.254306 1_555
Bi15 O23 2.363065 1_645
Bi15 O50 2.496942 1_555
Bi15 O7 2.697862 1_545
Bi15 O15 2.851678 1_555
Bi15 O31 2.930979 1_655
B0 O0 1.438535 1_555
B0 O40 1.484539 1_555
B0 O13 1.493280 1_555
B0 O56 1.504079 1_555
B1 O1 1.438535 1_555
B1 O41 1.484539 1_655
B1 O12 1.493280 1_555
B1 O57 1.504079 1_555
B2 O2 1.438535 1_555
B2 O42 1.484539 1_555
B2 O15 1.493280 1_555
B2 O58 1.504079 1_555
B3 O3 1.438535 1_555
B3 O43 1.484539 1_455
B3 O14 1.493280 1_555
B3 O59 1.504079 1_555
B4 O4 1.438535 1_555
B4 O44 1.484539 1_555
B4 O9 1.493280 1_555
B4 O60 1.504079 1_555
B5 O5 1.438535 1_555
B5 O45 1.484539 1_455
B5 O8 1.493280 1_555
B5 O61 1.504079 1_555
B6 O6 1.438535 1_555
B6 O46 1.484539 1_555
B6 O11 1.493280 1_555
B6 O62 1.504079 1_555
B7 O7 1.438535 1_555
B7 O47 1.484539 1_655
B7 O10 1.493280 1_555
B7 O63 1.504079 1_555
B8 O60 1.368086 1_555
B8 O32 1.378060 1_555
B8 O24 1.390782 1_555
B9 O61 1.368086 1_555
B9 O33 1.378060 1_555
B9 O25 1.390782 1_555
B10 O62 1.368086 1_554
B10 O34 1.378060 1_555
B10 O26 1.390782 1_555
B11 O63 1.368086 1_556
B11 O35 1.378060 1_555
B11 O27 1.390782 1_555
B12 O56 1.368086 1_555
B12 O36 1.378060 1_555
B12 O28 1.390782 1_555
B13 O57 1.368086 1_555
B13 O37 1.378060 1_555
B13 O29 1.390782 1_555
B14 O58 1.368086 1_556
B14 O38 1.378060 1_555
B14 O30 1.390782 1_555
B15 O59 1.368086 1_554
B15 O39 1.378060 1_555
B15 O31 1.390782 1_555
B16 O8 1.359490 1_555
B16 O44 1.360077 1_555
B16 O24 1.413098 1_555
B17 O9 1.359490 1_555
B17 O45 1.360077 1_555
B17 O25 1.413098 1_655
B18 O10 1.359490 1_555
B18 O46 1.360077 1_554
B18 O26 1.413098 1_555
B19 O11 1.359490 1_555
B19 O47 1.360077 1_556
B19 O27 1.413098 1_455
B20 O12 1.359490 1_555
B20 O40 1.360077 1_555
B20 O28 1.413098 1_555
B21 O13 1.359490 1_555
B21 O41 1.360077 1_555
B21 O29 1.413098 1_455
B22 O14 1.359490 1_555
B22 O42 1.360077 1_556
B22 O30 1.413098 1_555
B23 O15 1.359490 1_555
B23 O43 1.360077 1_554
B23 O31 1.413098 1_655
H0 O32 1.011198 1_465
H0 O56 1.597770 1_555
H1 O33 1.011198 1_555
H1 O57 1.597770 1_555
H2 O34 1.011198 1_655
H2 O58 1.597770 1_555
H3 O35 1.011198 1_545
H3 O59 1.597770 1_555
H4 O36 1.011198 1_645
H4 O60 1.597770 1_555
H5 O37 1.011198 1_555
H5 O61 1.597770 1_555
H6 O38 1.011198 1_455
H6 O62 1.597770 1_555
H7 O39 1.011198 1_565
H7 O63 1.597770 1_555
O0 O16 2.676681 1_555
O1 O17 2.676681 1_655
O16 O50 2.747085 1_565
O17 O51 2.747085 1_455
O18 O2 2.676681 1_555
O18 O48 2.747085 1_555
O19 O3 2.676681 1_655
O19 O49 2.747085 1_645
O20 O4 2.676681 1_555
O20 O54 2.747085 1_545
O21 O5 2.676681 1_655
O21 O55 2.747085 1_655
O22 O6 2.676681 1_555
O22 O52 2.747085 1_555
O23 O7 2.676681 1_455
O23 O53 2.747085 1_465
