# generated using pymatgen
data_Li4V3Cu(PO4)4
_symmetry_space_group_name_H-M   'P 1'
_cell_length_a   6.08992000
_cell_length_b   4.75603600
_cell_length_c   10.41345826
_cell_angle_alpha   89.62063366
_cell_angle_beta   90.00000000
_cell_angle_gamma   90.00000000
_symmetry_Int_Tables_number   1
_chemical_formula_structural   Li4V3Cu(PO4)4
_chemical_formula_sum   'Li4 V3 Cu1 P4 O16'
_cell_volume   301.60753119
_cell_formula_units_Z   1
loop_
 _symmetry_equiv_pos_site_id
 _symmetry_equiv_pos_as_xyz
  1  'x, y, z'
loop_
 _atom_site_type_symbol
 _atom_site_label
 _atom_site_symmetry_multiplicity
 _atom_site_fract_x
 _atom_site_fract_y
 _atom_site_fract_z
 _atom_site_occupancy
  Li  Li0  1  0.24339700  0.00204500  0.00416100  1
  Li  Li1  1  0.75660300  0.00204500  0.00416100  1
  Li  Li2  1  0.75360200  0.50035300  0.49763200  1
  Li  Li3  1  0.24639800  0.50035300  0.49763200  1
  V  V0  1  0.00000000  0.48497000  0.77716400  1
  V  V1  1  0.50000000  0.51654000  0.22201100  1
  V  V2  1  0.50000000  0.98268400  0.72509900  1
  Cu  Cu0  1  0.00000000  0.04082100  0.28583200  1
  P  P0  1  0.50000000  0.08741600  0.40411900  1
  P  P1  1  0.50000000  0.41378400  0.90887400  1
  P  P2  1  0.00000000  0.57812700  0.09401000  1
  P  P3  1  0.00000000  0.91605400  0.59172800  1
  O  O0  1  0.50000000  0.20408300  0.54263100  1
  O  O1  1  0.30148400  0.23062400  0.33176600  1
  O  O2  1  0.69851600  0.23062400  0.33176600  1
  O  O3  1  0.00000000  0.23835100  0.59681800  1
  O  O4  1  0.00000000  0.25522600  0.09451200  1
  O  O5  1  0.29758600  0.27681900  0.83917000  1
  O  O6  1  0.70241400  0.27681900  0.83917000  1
  O  O7  1  0.50000000  0.29116500  0.04798000  1
  O  O8  1  0.00000000  0.71124500  0.95690900  1
  O  O9  1  0.79109500  0.70302500  0.16237800  1
  O  O10  1  0.20890500  0.70302500  0.16237800  1
  O  O11  1  0.50000000  0.73552200  0.90475900  1
  O  O12  1  0.50000000  0.76491800  0.39875600  1
  O  O13  1  0.79704700  0.77818800  0.66240800  1
  O  O14  1  0.20295300  0.77818800  0.66240800  1
  O  O15  1  0.00000000  0.79699100  0.45377100  1
loop_
_geom_bond_atom_site_label_1
_geom_bond_atom_site_label_2
_geom_bond_distance
_geom_bond_site_symmetry_2
Li0 O8 2.088323 1_544
Li0 O4 2.132440 1_555
Li0 O7 2.132917 1_555
Li0 O5 2.176913 1_554
Li0 O10 2.179483 1_545
Li0 O11 2.266637 1_544
Li1 O8 2.088323 1_644
Li1 O4 2.132440 1_655
Li1 O7 2.132917 1_555
Li1 O6 2.176913 1_554
Li1 O9 2.179483 1_545
Li1 O11 2.266637 1_544
Li2 O15 2.107636 1_655
Li2 O0 2.140453 1_555
Li2 O2 2.184243 1_555
Li2 O13 2.188693 1_555
Li2 O3 2.203214 1_655
Li2 O12 2.238637 1_555
Li3 O15 2.107636 1_555
Li3 O0 2.140453 1_555
Li3 O1 2.184243 1_555
Li3 O14 2.188693 1_555
Li3 O3 2.203214 1_555
Li3 O12 2.238637 1_555
Cu0 O15 2.091974 1_545
Cu0 O1 2.102463 1_555
Cu0 O2 2.102463 1_455
Cu0 O4 2.232083 1_555
Cu0 O10 2.424803 1_545
Cu0 O9 2.424803 1_445
O0 P0 1.548860 1_555
O0 V2 2.166274 1_545
O1 P0 1.576812 1_555
O1 V1 2.143919 1_555
O2 P0 1.576812 1_555
O2 V1 2.143919 1_555
O3 P3 1.534123 1_545
O3 V0 2.220791 1_555
O4 P2 1.535703 1_555
O5 P1 1.573843 1_555
O5 V0 2.161677 1_555
O5 V2 2.215746 1_545
O6 P1 1.573843 1_555
O6 V0 2.161677 1_655
O6 V2 2.215746 1_545
O7 P1 1.557973 1_554
O7 V1 2.111629 1_555
O8 P2 1.557940 1_556
O8 V0 2.165256 1_555
O9 P2 1.576026 1_655
O9 V1 2.075476 1_555
O10 P2 1.576026 1_555
O10 V1 2.075476 1_555
O11 P1 1.530514 1_555
O11 V2 2.202931 1_555
O12 P0 1.535198 1_565
O12 V1 2.193579 1_555
O13 P3 1.578889 1_655
O13 V2 2.157077 1_555
O13 V0 2.208704 1_655
O14 P3 1.578889 1_555
O14 V2 2.157077 1_555
O14 V0 2.208704 1_555
O15 P3 1.547669 1_555
