# generated using pymatgen
data_Co(BiO3)2
_symmetry_space_group_name_H-M   'P 1'
_cell_length_a   3.77023700
_cell_length_b   3.77023700
_cell_length_c   8.60321100
_cell_angle_alpha   90.00000000
_cell_angle_beta   90.00000000
_cell_angle_gamma   90.00000000
_symmetry_Int_Tables_number   1
_chemical_formula_structural   Co(BiO3)2
_chemical_formula_sum   'Co1 Bi2 O6'
_cell_volume   122.29195187
_cell_formula_units_Z   1
loop_
 _symmetry_equiv_pos_site_id
 _symmetry_equiv_pos_as_xyz
  1  'x, y, z'
loop_
 _atom_site_type_symbol
 _atom_site_label
 _atom_site_symmetry_multiplicity
 _atom_site_fract_x
 _atom_site_fract_y
 _atom_site_fract_z
 _atom_site_occupancy
  Co  Co0  1  0.00000000  0.00000000  0.81233800  1
  Bi  Bi0  1  0.50000000  0.50000000  0.46833900  1
  Bi  Bi1  1  0.50000000  0.50000000  0.02680600  1
  O  O0  1  0.00000000  0.00000000  0.61647300  1
  O  O1  1  0.50000000  0.00000000  0.32813800  1
  O  O2  1  0.00000000  0.50000000  0.85709100  1
  O  O3  1  0.00000000  0.50000000  0.32813800  1
  O  O4  1  0.00000000  0.00000000  0.03469500  1
  O  O5  1  0.50000000  0.00000000  0.85709100  1
loop_
_geom_bond_atom_site_label_1
_geom_bond_atom_site_label_2
_geom_bond_distance
_geom_bond_site_symmetry_2
Co0 O0 1.685068 1_555
Co0 O4 1.912984 1_556
Co0 O5 1.924035 1_555
Co0 O2 1.924035 1_555
Co0 O2 1.924035 1_545
Co0 O5 1.924035 1_455
Bi0 O3 2.237977 1_555
Bi0 O1 2.237977 1_555
Bi0 O1 2.237977 1_565
Bi0 O3 2.237977 1_655
Bi0 O0 2.954913 1_565
Bi0 O0 2.954913 1_655
Bi0 O0 2.954913 1_665
Bi0 O0 2.954913 1_555
Bi1 O5 2.384438 1_554
Bi1 O2 2.384438 1_554
Bi1 O2 2.384438 1_654
Bi1 O5 2.384438 1_564
Bi1 O4 2.666824 1_565
Bi1 O4 2.666824 1_665
Bi1 O4 2.666824 1_655
Bi1 O4 2.666824 1_555
Bi1 O3 3.205359 1_655
Bi1 O1 3.205359 1_555
Bi1 O3 3.205359 1_555
Bi1 O1 3.205359 1_565
O0 O3 3.115619 1_545
O0 O1 3.115619 1_455
O0 O1 3.115619 1_555
O0 O3 3.115619 1_555
O1 O3 2.665960 1_555
O1 O3 2.665960 1_645
O1 O3 2.665960 1_655
O1 O3 2.665960 1_545
O1 O4 3.150720 1_555
O1 O4 3.150720 1_655
O2 O4 2.426592 1_566
O2 O4 2.426592 1_556
O2 O5 2.665960 1_455
O2 O5 2.665960 1_465
O2 O5 2.665960 1_555
O2 O5 2.665960 1_565
O3 O4 3.150720 1_555
O3 O4 3.150720 1_565
O4 O5 2.426592 1_454
O4 O5 2.426592 1_554
