# generated using pymatgen
data_K2H4IO5
_symmetry_space_group_name_H-M   'P 1'
_cell_length_a   6.74270800
_cell_length_b   6.92199158
_cell_length_c   9.06139449
_cell_angle_alpha   88.80157761
_cell_angle_beta   94.20079127
_cell_angle_gamma   113.64391930
_symmetry_Int_Tables_number   1
_chemical_formula_structural   K2H4IO5
_chemical_formula_sum   'K4 H8 I2 O10'
_cell_volume   386.36282203
_cell_formula_units_Z   2
loop_
 _symmetry_equiv_pos_site_id
 _symmetry_equiv_pos_as_xyz
  1  'x, y, z'
loop_
 _atom_site_type_symbol
 _atom_site_label
 _atom_site_symmetry_multiplicity
 _atom_site_fract_x
 _atom_site_fract_y
 _atom_site_fract_z
 _atom_site_occupancy
  K  K0  1  0.79081800  0.61156200  0.57537700  1
  K  K1  1  0.20918200  0.38843800  0.42462300  1
  K  K2  1  0.21127300  0.26107800  0.92541300  1
  K  K3  1  0.78872700  0.73892200  0.07458700  1
  H  H0  1  0.94473300  0.98884900  0.48113000  1
  H  H1  1  0.05526700  0.01115100  0.51887000  1
  H  H2  1  0.89959800  0.35342100  0.13254700  1
  H  H3  1  0.10040200  0.64657900  0.86745300  1
  H  H4  1  0.68834100  0.26771900  0.02313500  1
  H  H5  1  0.31165900  0.73228100  0.97686500  1
  H  H6  1  0.06850100  0.01345000  0.25679300  1
  H  H7  1  0.93149900  0.98655000  0.74320700  1
  I  I0  1  0.39890900  0.91372200  0.30572500  1
  I  I1  1  0.60109100  0.08627800  0.69427500  1
  O  O0  1  0.82557900  0.90135200  0.81104100  1
  O  O1  1  0.17442100  0.09864800  0.18895900  1
  O  O2  1  0.42221500  0.76403200  0.14565800  1
  O  O3  1  0.57778500  0.23596800  0.85434200  1
  O  O4  1  0.87304600  0.26911600  0.64672400  1
  O  O5  1  0.12695400  0.73088400  0.35327600  1
  O  O6  1  0.55607500  0.81430200  0.44355400  1
  O  O7  1  0.44392500  0.18569800  0.55644600  1
  O  O8  1  0.25456400  0.67654300  0.87305400  1
  O  O9  1  0.74543600  0.32345700  0.12694600  1
loop_
_geom_bond_atom_site_label_1
_geom_bond_atom_site_label_2
_geom_bond_distance
_geom_bond_site_symmetry_2
K0 O4 2.698472 1_555
K0 O6 2.708522 1_555
K0 O0 2.892668 1_555
K0 O7 2.936312 1_555
K0 O5 2.994429 1_655
K0 O3 3.531856 1_555
K1 O5 2.698472 1_555
K1 O7 2.708522 1_555
K1 O1 2.892668 1_555
K1 O6 2.936312 1_555
K1 O4 2.994429 1_455
K1 O2 3.531856 1_555
K2 O1 2.603729 1_556
K2 O3 2.671061 1_555
K2 O8 2.805472 1_555
K2 O0 2.925148 1_445
K2 O4 3.291418 1_455
K3 O0 2.603729 1_554
K3 O2 2.671061 1_555
K3 O9 2.805472 1_555
K3 O1 2.925148 1_665
K3 O5 3.291418 1_655
H0 H1 0.754209 1_665
H0 O6 2.406267 1_555
H0 K0 2.547413 1_555
H0 K1 2.685272 1_665
H1 O7 2.406267 1_555
H1 K1 2.547413 1_555
H1 K0 2.685272 1_445
H2 O9 0.972560 1_555
H2 K2 3.170705 1_654
H2 K1 3.198801 1_655
H3 O8 0.972560 1_555
H3 K3 3.170705 1_456
H3 K0 3.198801 1_455
H4 O9 1.012381 1_555
H4 O3 1.630637 1_554
H5 O8 1.012381 1_555
H5 O2 1.630637 1_556
H6 O1 0.973136 1_555
H6 O5 2.289461 1_545
H6 K3 2.587515 1_445
H6 K1 2.815826 1_555
H7 O0 0.973136 1_555
H7 O4 2.289461 1_565
H7 K2 2.587515 1_665
H7 K0 2.815826 1_555
I0 O5 1.838851 1_555
I0 O2 1.851733 1_555
I0 O6 1.873908 1_555
I0 O1 2.512377 1_565
I1 O4 1.838851 1_555
I1 O3 1.851733 1_555
I1 O7 1.873908 1_555
I1 O0 2.512377 1_545
