# generated using pymatgen
data_CuNi3(SnS4)2
_symmetry_space_group_name_H-M   'P 1'
_cell_length_a   7.08155242
_cell_length_b   7.08155242
_cell_length_c   7.08155242
_cell_angle_alpha   119.71187702
_cell_angle_beta   119.17107998
_cell_angle_gamma   90.97076821
_symmetry_Int_Tables_number   1
_chemical_formula_structural   CuNi3(SnS4)2
_chemical_formula_sum   'Cu1 Ni3 Sn2 S8'
_cell_volume   253.18737872
_cell_formula_units_Z   1
loop_
 _symmetry_equiv_pos_site_id
 _symmetry_equiv_pos_as_xyz
  1  'x, y, z'
loop_
 _atom_site_type_symbol
 _atom_site_label
 _atom_site_symmetry_multiplicity
 _atom_site_fract_x
 _atom_site_fract_y
 _atom_site_fract_z
 _atom_site_occupancy
  Cu  Cu0  1  0.75657500  0.25657500  0.50000000  1
  Ni  Ni0  1  0.99471100  0.99471100  0.00000000  1
  Ni  Ni1  1  0.37434900  0.62407500  0.24972600  1
  Ni  Ni2  1  0.37434900  0.12462400  0.75027400  1
  Sn  Sn0  1  0.87492000  0.62512500  0.24979500  1
  Sn  Sn1  1  0.37532900  0.62512500  0.75020500  1
  S  S0  1  0.14004300  0.89955100  0.75950800  1
  S  S1  1  0.14004300  0.38053500  0.24049200  1
  S  S2  1  0.61064100  0.88188900  0.72875200  1
  S  S3  1  0.15313700  0.88188900  0.27124800  1
  S  S4  1  0.60730300  0.35264700  0.74534400  1
  S  S5  1  0.60730300  0.86196000  0.25465600  1
  S  S6  1  0.14805300  0.37064800  0.77740500  1
  S  S7  1  0.59324300  0.37064800  0.22259500  1
loop_
_geom_bond_atom_site_label_1
_geom_bond_atom_site_label_2
_geom_bond_distance
_geom_bond_site_symmetry_2
Cu0 S6 2.288933 1_655
Cu0 S7 2.288933 1_555
Cu0 S5 2.289516 1_545
Cu0 S4 2.289521 1_555
Ni0 S1 2.237905 1_665
Ni0 S0 2.237905 1_654
Ni0 S2 2.244451 1_554
Ni0 S3 2.244451 1_655
Ni1 S5 2.313417 1_555
Ni1 S1 2.327498 1_555
Ni1 S6 2.388166 1_554
Ni1 S7 2.388166 1_555
Ni1 S3 2.421636 1_555
Ni1 S2 2.421636 1_555
Ni2 S4 2.313407 1_555
Ni2 S0 2.327503 1_545
Ni2 S6 2.388161 1_555
Ni2 S7 2.388166 1_556
Ni2 S3 2.421636 1_545
Ni2 S2 2.421641 1_545
S0 Sn1 2.578178 1_555
S0 Sn0 2.578182 1_455
S1 Sn0 2.578182 1_455
S1 Sn1 2.578183 1_555
S2 Sn1 2.554212 1_555
S3 Sn0 2.554207 1_455
S4 Sn0 2.553363 1_556
S4 Sn1 2.553367 1_555
S5 Sn1 2.553362 1_554
S5 Sn0 2.553367 1_555
S6 Sn1 2.534372 1_555
S7 Sn0 2.534377 1_555
