# generated using pymatgen
data_Sr2CaCu6(BO3)6
_symmetry_space_group_name_H-M   'P 1'
_cell_length_a   7.23829414
_cell_length_b   7.24004251
_cell_length_c   16.23048826
_cell_angle_alpha   92.03732699
_cell_angle_beta   87.96607392
_cell_angle_gamma   102.50210864
_symmetry_Int_Tables_number   1
_chemical_formula_structural   Sr2CaCu6(BO3)6
_chemical_formula_sum   'Sr4 Ca2 Cu12 B12 O36'
_cell_volume   829.53741114
_cell_formula_units_Z   2
loop_
 _symmetry_equiv_pos_site_id
 _symmetry_equiv_pos_as_xyz
  1  'x, y, z'
loop_
 _atom_site_type_symbol
 _atom_site_label
 _atom_site_symmetry_multiplicity
 _atom_site_fract_x
 _atom_site_fract_y
 _atom_site_fract_z
 _atom_site_occupancy
  Sr  Sr0  1  0.66561500  0.33414500  0.16543600  1
  Sr  Sr1  1  0.00094500  0.99900100  0.50129500  1
  Sr  Sr2  1  0.33347700  0.66678900  0.83323700  1
  Sr  Sr3  1  0.83324800  0.16655400  0.33342400  1
  Ca  Ca0  1  0.16707700  0.83344400  0.66689700  1
  Ca  Ca1  1  0.49999100  0.50017700  0.99964400  1
  Cu  Cu0  1  0.12952700  0.10266300  0.12844200  1
  Cu  Cu1  1  0.46145000  0.76706000  0.46314000  1
  Cu  Cu2  1  0.79570100  0.43563400  0.79610000  1
  Cu  Cu3  1  0.38567400  0.38468900  0.38552600  1
  Cu  Cu4  1  0.71901300  0.04969300  0.71885700  1
  Cu  Cu5  1  0.05241000  0.71614000  0.05194500  1
  Cu  Cu6  1  0.76837900  0.46252700  0.53854700  1
  Cu  Cu7  1  0.10186300  0.12901900  0.87066800  1
  Cu  Cu8  1  0.43319900  0.79452800  0.20352900  1
  Cu  Cu9  1  0.38424500  0.38605500  0.61446100  1
  Cu  Cu10  1  0.71647900  0.05238500  0.94779000  1
  Cu  Cu11  1  0.05176600  0.71894200  0.28104100  1
  B  B0  1  0.51250400  0.07730300  0.51567100  1
  B  B1  1  0.84699200  0.74637600  0.84803300  1
  B  B2  1  0.18195000  0.41332600  0.17961800  1
  B  B3  1  0.31670900  0.09040500  0.31638300  1
  B  B4  1  0.65066600  0.75731100  0.64996100  1
  B  B5  1  0.98375800  0.42292300  0.98291200  1
  B  B6  1  0.74470500  0.84610900  0.15096500  1
  B  B7  1  0.07949100  0.51489800  0.48703500  1
  B  B8  1  0.41282600  0.18041100  0.81868000  1
  B  B9  1  0.42358000  0.98390200  0.01686000  1
  B  B10  1  0.75734400  0.65009300  0.35017700  1
  B  B11  1  0.09033000  0.31748100  0.68362500  1
  O  O0  1  0.64776400  0.00734200  0.46855000  1
  O  O1  1  0.98161500  0.67751600  0.79953800  1
  O  O2  1  0.31749000  0.34467200  0.13197900  1
  O  O3  1  0.18816700  0.15366400  0.37019000  1
  O  O4  1  0.51858800  0.82227300  0.70152800  1
  O  O5  1  0.85216900  0.48876000  0.03437700  1
  O  O6  1  0.67439600  0.98140900  0.19809600  1
  O  O7  1  0.01085700  0.65061200  0.53469100  1
  O  O8  1  0.34442000  0.31536600  0.86717600  1
  O  O9  1  0.82055400  0.52162600  0.29641600  1
  O  O10  1  0.15570300  0.18569700  0.63225000  1
  O  O11  1  0.48839700  0.85179200  0.96530700  1
  O  O12  1  0.94718300  0.34781500  0.47173800  1
  O  O13  1  0.27944100  0.01391500  0.80141500  1
  O  O14  1  0.61200000  0.67934200  0.13441000  1
  O  O15  1  0.88162700  0.82516500  0.35773700  1
  O  O16  1  0.21169000  0.49541400  0.68870900  1
  O  O17  1  0.54438000  0.16215000  0.02199800  1
  O  O18  1  0.01460200  0.28108600  0.19496900  1
  O  O19  1  0.34566800  0.94499100  0.53232800  1
  O  O20  1  0.68076500  0.61253500  0.86513300  1
  O  O21  1  0.49168400  0.21498700  0.30897400  1
  O  O22  1  0.82886400  0.87808000  0.64474300  1
  O  O23  1  0.16191700  0.54456100  0.97783300  1
  O  O24  1  0.54010800  0.26304200  0.54135300  1
  O  O25  1  0.87427100  0.93041400  0.87521500  1
  O  O26  1  0.20819600  0.59645800  0.20807900  1
  O  O27  1  0.27334600  0.92213700  0.27320100  1
  O  O28  1  0.60664500  0.58959700  0.60630600  1
  O  O29  1  0.94024200  0.25456400  0.93971600  1
  O  O30  1  0.26291100  0.54151000  0.45875900  1
  O  O31  1  0.59704100  0.20771700  0.79152900  1
  O  O32  1  0.93043000  0.87357800  0.12496400  1
  O  O33  1  0.58916900  0.60685200  0.39360600  1
  O  O34  1  0.92147900  0.27361900  0.72694500  1
  O  O35  1  0.25530700  0.93975900  0.06034600  1
loop_
_geom_bond_atom_site_label_1
_geom_bond_atom_site_label_2
_geom_bond_distance
_geom_bond_site_symmetry_2
Ca0 O19 2.562553 1_555
Ca0 O13 2.568779 1_565
Ca0 O16 2.575076 1_555
Ca0 O22 2.576843 1_455
Ca0 O7 2.637687 1_555
Ca0 O4 2.643857 1_555
Ca0 O1 2.650053 1_455
Ca0 O10 2.650156 1_565
Ca1 O14 2.567709 1_556
Ca1 O20 2.569597 1_555
Ca1 O23 2.574258 1_555
Ca1 O17 2.576071 1_556
Ca1 O2 2.636766 1_556
Ca1 O11 2.644796 1_555
Ca1 O8 2.644984 1_555
Ca1 O5 2.649421 1_556
Cu0 O35 1.934496 1_545
Cu0 O32 1.948125 1_445
Cu0 O18 1.956763 1_555
Cu0 O2 1.972482 1_555
Cu1 O30 1.928704 1_555
Cu1 O33 1.941863 1_555
Cu1 O0 1.958217 1_565
Cu1 O19 1.980069 1_555
Cu2 O34 1.939282 1_555
Cu2 O31 1.941059 1_555
Cu2 O1 1.964414 1_555
Cu2 O20 1.970027 1_555
Cu3 O33 1.935701 1_555
Cu3 O30 1.938396 1_555
Cu3 O3 1.965661 1_555
Cu3 O21 1.968270 1_555
Cu4 O31 1.935744 1_555
Cu4 O34 1.939899 1_555
Cu4 O4 1.963837 1_545
Cu4 O22 1.968899 1_545
Cu5 O32 1.936177 1_455
Cu5 O35 1.940551 1_555
Cu5 O5 1.963439 1_455
Cu5 O23 1.967418 1_554
Cu6 O28 1.931144 1_555
Cu6 O24 1.945313 1_555
Cu6 O12 1.960188 1_555
Cu6 O7 1.975406 1_655
Cu7 O29 1.935351 1_455
Cu7 O25 1.939132 1_445
Cu7 O8 1.969456 1_555
Cu7 O13 1.976018 1_555
Cu8 O26 1.924109 1_555
Cu8 O27 1.940819 1_555
Cu8 O6 1.965021 1_555
Cu8 O14 1.981588 1_555
Cu9 O24 1.933604 1_555
Cu9 O28 1.937080 1_555
Cu9 O10 1.970051 1_555
Cu9 O16 1.972966 1_555
Cu10 O25 1.933662 1_545
Cu10 O29 1.937850 1_555
Cu10 O11 1.968132 1_545
Cu10 O17 1.971811 1_556
Cu11 O27 1.931344 1_555
Cu11 O26 1.932796 1_555
Cu11 O9 1.965849 1_455
Cu11 O15 1.972514 1_455
B0 O24 1.368127 1_555
B0 O0 1.390694 1_555
B0 O19 1.394079 1_545
B1 O25 1.363638 1_555
B1 O1 1.394847 1_555
B1 O20 1.397978 1_555
B2 O26 1.364210 1_555
B2 O2 1.391900 1_555
B2 O18 1.392640 1_555
B3 O27 1.365012 1_545
B3 O21 1.390831 1_555
B3 O3 1.391585 1_555
B4 O28 1.365768 1_555
B4 O22 1.394502 1_555
B4 O4 1.394836 1_555
B5 O29 1.365727 1_555
B5 O5 1.394251 1_556
B5 O23 1.396880 1_655
B6 O32 1.369240 1_555
B6 O6 1.392356 1_555
B6 O14 1.394923 1_555
B7 O30 1.364800 1_555
B7 O12 1.391437 1_455
B7 O7 1.393038 1_555
B8 O31 1.364403 1_555
B8 O8 1.395175 1_555
B8 O13 1.398235 1_555
B9 O35 1.367597 1_555
B9 O11 1.394492 1_554
B9 O17 1.394966 1_565
B10 O33 1.366186 1_555
B10 O9 1.390687 1_555
B10 O15 1.390704 1_555
B11 O34 1.369598 1_455
B11 O10 1.392997 1_555
B11 O16 1.394874 1_555
O0 Sr1 2.643292 1_645
O0 Sr3 2.691082 1_555
O1 Sr2 2.641842 1_655
O2 Sr0 2.614087 1_555
O3 Sr1 2.631738 1_545
O3 Sr3 2.679771 1_455
O4 Sr2 2.635725 1_555
O5 Sr0 2.629115 1_555
O6 Sr0 2.641206 1_565
O6 Sr3 2.691818 1_565
O7 Sr1 2.615248 1_555
O8 Sr2 2.640693 1_555
O9 Sr0 2.631447 1_555
O9 Sr3 2.682143 1_555
O10 Sr1 2.628431 1_545
O11 Sr2 2.638666 1_555
O12 Sr3 2.625893 1_555
O12 Sr1 2.698932 1_645
O13 Sr2 2.695954 1_545
O14 Sr0 2.678371 1_555
O15 Sr3 2.615606 1_565
O15 Sr1 2.687495 1_655
O16 Sr2 2.699161 1_555
O17 Sr0 2.684475 1_555
O18 Sr3 2.629157 1_455
O18 Sr0 2.697691 1_455
O19 Sr1 2.675501 1_555
O20 Sr2 2.697347 1_555
O21 Sr3 2.616828 1_555
O21 Sr0 2.687228 1_555
O22 Sr1 2.684311 1_655
O23 Sr2 2.701476 1_555
