# generated using pymatgen
data_Sr2CaCu2(BiO5)2
_symmetry_space_group_name_H-M   'P 1'
_cell_length_a   3.78937800
_cell_length_b   3.78937800
_cell_length_c   31.13132200
_cell_angle_alpha   90.00000000
_cell_angle_beta   90.00000000
_cell_angle_gamma   90.00000000
_symmetry_Int_Tables_number   1
_chemical_formula_structural   Sr2CaCu2(BiO5)2
_chemical_formula_sum   'Sr4 Ca2 Cu4 Bi4 O20'
_cell_volume   447.02665767
_cell_formula_units_Z   2
loop_
 _symmetry_equiv_pos_site_id
 _symmetry_equiv_pos_as_xyz
  1  'x, y, z'
loop_
 _atom_site_type_symbol
 _atom_site_label
 _atom_site_symmetry_multiplicity
 _atom_site_fract_x
 _atom_site_fract_y
 _atom_site_fract_z
 _atom_site_occupancy
  Sr  Sr0  1  0.00000000  0.00000000  0.88225000  1
  Sr  Sr1  1  0.00000000  0.00000000  0.11745900  1
  Sr  Sr2  1  0.50000000  0.50000000  0.38778700  1
  Sr  Sr3  1  0.00000000  0.00000000  0.99999500  1
  Ca  Ca0  1  0.50000000  0.50000000  0.50129600  1
  Ca  Ca1  1  0.50000000  0.50000000  0.61218700  1
  Cu  Cu0  1  0.00000000  0.00000000  0.56159000  1
  Cu  Cu1  1  0.00000000  0.00000000  0.44201800  1
  Cu  Cu2  1  0.50000000  0.50000000  0.93515500  1
  Cu  Cu3  1  0.50000000  0.50000000  0.06445900  1
  Bi  Bi0  1  0.00000000  0.00000000  0.70235700  1
  Bi  Bi1  1  0.00000000  0.00000000  0.29612000  1
  Bi  Bi2  1  0.50000000  0.50000000  0.78998900  1
  Bi  Bi3  1  0.50000000  0.50000000  0.20925200  1
  O  O0  1  0.00000000  0.50000000  0.74558500  1
  O  O1  1  0.00000000  0.50000000  0.25274400  1
  O  O2  1  0.50000000  0.00000000  0.74558500  1
  O  O3  1  0.50000000  0.00000000  0.25274400  1
  O  O4  1  0.50000000  0.00000000  0.55262200  1
  O  O5  1  0.50000000  0.00000000  0.45086300  1
  O  O6  1  0.00000000  0.50000000  0.55262200  1
  O  O7  1  0.00000000  0.50000000  0.45086300  1
  O  O8  1  0.00000000  0.00000000  0.62919600  1
  O  O9  1  0.00000000  0.00000000  0.37013400  1
  O  O10  1  0.00000000  0.00000000  0.80617800  1
  O  O11  1  0.00000000  0.00000000  0.19329900  1
  O  O12  1  0.00000000  0.50000000  0.94415600  1
  O  O13  1  0.00000000  0.50000000  0.05592000  1
  O  O14  1  0.50000000  0.00000000  0.94415600  1
  O  O15  1  0.50000000  0.00000000  0.05592000  1
  O  O16  1  0.50000000  0.50000000  0.86475600  1
  O  O17  1  0.50000000  0.50000000  0.13549900  1
  O  O18  1  0.50000000  0.50000000  0.68307900  1
  O  O19  1  0.50000000  0.50000000  0.31215200  1
loop_
_geom_bond_atom_site_label_1
_geom_bond_atom_site_label_2
_geom_bond_distance
_geom_bond_site_symmetry_2
Ca0 O7 2.460669 1_555
Ca0 O7 2.460669 1_655
Ca0 O5 2.460669 1_555
Ca0 O5 2.460669 1_565
Ca0 O4 2.478499 1_555
Ca0 O6 2.478499 1_555
Ca0 O6 2.478499 1_655
Ca0 O4 2.478499 1_565
Ca1 O18 2.206962 1_555
Ca1 O4 2.651115 1_555
Ca1 O6 2.651115 1_555
Ca1 O6 2.651115 1_655
Ca1 O4 2.651115 1_565
Ca1 O8 2.731314 1_655
Ca1 O8 2.731314 1_565
Ca1 O8 2.731314 1_665
Ca1 O8 2.731314 1_555
Cu0 O6 1.915148 1_545
Cu0 O4 1.915148 1_455
Cu0 O4 1.915148 1_555
Cu0 O6 1.915148 1_555
Cu0 O8 2.104664 1_555
Cu1 O7 1.914593 1_555
Cu1 O5 1.914593 1_455
Cu1 O7 1.914593 1_545
Cu1 O5 1.914593 1_555
Cu1 O9 2.237844 1_555
Cu2 O14 1.915298 1_555
Cu2 O12 1.915298 1_555
Cu2 O14 1.915298 1_565
Cu2 O12 1.915298 1_655
Cu2 O16 2.191614 1_555
Cu3 O13 1.913247 1_655
Cu3 O15 1.913247 1_555
Cu3 O13 1.913247 1_555
Cu3 O15 1.913247 1_565
Cu3 O17 2.211569 1_555
Bi0 O8 2.277599 1_555
Bi0 O0 2.323978 1_555
Bi0 O2 2.323978 1_455
Bi0 O0 2.323978 1_545
Bi0 O2 2.323978 1_555
Bi0 O18 2.745883 1_455
Bi0 O18 2.745883 1_555
Bi0 O18 2.745883 1_545
Bi0 O18 2.745883 1_445
Bi1 O9 2.304154 1_555
Bi1 O3 2.326649 1_555
Bi1 O1 2.326649 1_555
Bi1 O3 2.326649 1_455
Bi1 O1 2.326649 1_545
Bi1 O19 2.725581 1_545
Bi1 O19 2.725581 1_455
Bi1 O19 2.725581 1_555
Bi1 O19 2.725581 1_445
Bi2 O16 2.327596 1_555
Bi2 O2 2.345368 1_565
Bi2 O0 2.345368 1_555
Bi2 O0 2.345368 1_655
Bi2 O2 2.345368 1_555
Bi2 O10 2.726480 1_555
Bi2 O10 2.726480 1_655
Bi2 O10 2.726480 1_565
Bi2 O10 2.726480 1_665
Bi3 O17 2.296028 1_555
Bi3 O3 2.328747 1_555
Bi3 O3 2.328747 1_565
Bi3 O1 2.328747 1_555
Bi3 O1 2.328747 1_655
Bi3 O11 2.725132 1_555
Bi3 O11 2.725132 1_565
Bi3 O11 2.725132 1_655
Bi3 O11 2.725132 1_665
O0 O10 2.673598 1_555
O0 O10 2.673598 1_565
O0 O2 2.679495 1_455
O0 O2 2.679495 1_565
O0 O2 2.679495 1_465
O0 O2 2.679495 1_555
O0 O18 2.715944 1_455
O0 O18 2.715944 1_555
O1 O19 2.647699 1_455
O1 O19 2.647699 1_555
O1 O11 2.648504 1_555
O1 O11 2.648504 1_565
O1 O3 2.679495 1_555
O1 O3 2.679495 1_565
O1 O3 2.679495 1_465
O1 O3 2.679495 1_455
O5 Sr2 2.728686 1_555
O5 Sr2 2.728686 1_545
O7 Sr2 2.728686 1_555
O7 Sr2 2.728686 1_455
O9 Sr2 2.735272 1_545
O9 Sr2 2.735272 1_555
O9 Sr2 2.735272 1_445
O9 Sr2 2.735272 1_455
O10 Sr0 2.368222 1_555
O10 O2 2.673598 1_455
O10 O2 2.673598 1_555
O11 Sr1 2.360999 1_555
O11 O3 2.648504 1_555
O11 O3 2.648504 1_455
O12 Sr3 2.571319 1_565
O12 Sr3 2.571319 1_555
O12 Sr0 2.702593 1_565
O12 Sr0 2.702593 1_555
O13 Sr3 2.573129 1_564
O13 Sr3 2.573129 1_554
O13 Sr1 2.694457 1_555
O13 Sr1 2.694457 1_565
O14 Sr3 2.571319 1_555
O14 Sr3 2.571319 1_655
O14 Sr0 2.702593 1_655
O14 Sr0 2.702593 1_555
O15 Sr3 2.573129 1_654
O15 Sr3 2.573129 1_554
O15 Sr1 2.694457 1_555
O15 Sr1 2.694457 1_655
O16 Sr0 2.734281 1_555
O16 Sr0 2.734281 1_665
O16 Sr0 2.734281 1_655
O16 Sr0 2.734281 1_565
O17 Sr1 2.737718 1_555
O17 Sr1 2.737718 1_655
O17 Sr1 2.737718 1_565
O17 Sr1 2.737718 1_665
O18 O2 2.715944 1_565
O18 O2 2.715944 1_555
O19 Sr2 2.354618 1_555
O19 O3 2.647699 1_555
O19 O3 2.647699 1_565
