# generated using pymatgen
data_USbPd
_symmetry_space_group_name_H-M   'P 1'
_cell_length_a   4.66198077
_cell_length_b   4.66198077
_cell_length_c   7.31293600
_cell_angle_alpha   90.00000000
_cell_angle_beta   90.00000000
_cell_angle_gamma   120.00001091
_symmetry_Int_Tables_number   1
_chemical_formula_structural   USbPd
_chemical_formula_sum   'U2 Sb2 Pd2'
_cell_volume   137.64591021
_cell_formula_units_Z   2
loop_
 _symmetry_equiv_pos_site_id
 _symmetry_equiv_pos_as_xyz
  1  'x, y, z'
loop_
 _atom_site_type_symbol
 _atom_site_label
 _atom_site_symmetry_multiplicity
 _atom_site_fract_x
 _atom_site_fract_y
 _atom_site_fract_z
 _atom_site_occupancy
  U  U0  1  0.00000000  0.00000000  0.50000000  1
  U  U1  1  0.00000000  0.00000000  0.00000000  1
  Sb  Sb0  1  0.33333300  0.66666700  0.25000000  1
  Sb  Sb1  1  0.66666700  0.33333300  0.75000000  1
  Pd  Pd0  1  0.33333300  0.66666700  0.75000000  1
  Pd  Pd1  1  0.66666700  0.33333300  0.25000000  1
loop_
_geom_bond_atom_site_label_1
_geom_bond_atom_site_label_2
_geom_bond_distance
_geom_bond_site_symmetry_2
U0 U1 3.656468 1_556
U0 U1 3.656468 1_555
Sb0 U0 3.253785 1_565
Sb0 U1 3.253785 1_565
Sb0 U0 3.253788 1_665
Sb0 U1 3.253788 1_665
Sb0 U0 3.253788 1_555
Sb0 U1 3.253788 1_555
Sb1 U0 3.253785 1_655
Sb1 U1 3.253785 1_656
Sb1 U0 3.253788 1_555
Sb1 U1 3.253788 1_556
Sb1 U1 3.253788 1_666
Sb1 U0 3.253788 1_665
Pd0 Sb1 2.691593 1_455
Pd0 Sb1 2.691593 1_565
Pd0 Sb1 2.691601 1_555
Pd0 U1 3.253785 1_566
Pd0 U0 3.253785 1_565
Pd0 U0 3.253788 1_665
Pd0 U1 3.253788 1_666
Pd0 U0 3.253788 1_555
Pd0 U1 3.253788 1_556
Pd0 Sb0 3.656468 1_555
Pd0 Sb0 3.656468 1_556
Pd1 Sb0 2.691593 1_545
Pd1 Sb0 2.691593 1_655
Pd1 Sb0 2.691601 1_555
Pd1 U0 3.253785 1_655
Pd1 U1 3.253785 1_655
Pd1 U0 3.253788 1_555
Pd1 U1 3.253788 1_555
Pd1 U1 3.253788 1_665
Pd1 U0 3.253788 1_665
Pd1 Sb1 3.656468 1_554
Pd1 Sb1 3.656468 1_555
