# generated using pymatgen
data_Cs5V5FeCl6O13
_symmetry_space_group_name_H-M   'P 1'
_cell_length_a   11.19966400
_cell_length_b   11.19966400
_cell_length_c   11.06636200
_cell_angle_alpha   90.00000000
_cell_angle_beta   90.00000000
_cell_angle_gamma   90.00000000
_symmetry_Int_Tables_number   1
_chemical_formula_structural   Cs5V5FeCl6O13
_chemical_formula_sum   'Cs10 V10 Fe2 Cl12 O26'
_cell_volume   1388.08116066
_cell_formula_units_Z   2
loop_
 _symmetry_equiv_pos_site_id
 _symmetry_equiv_pos_as_xyz
  1  'x, y, z'
loop_
 _atom_site_type_symbol
 _atom_site_label
 _atom_site_symmetry_multiplicity
 _atom_site_fract_x
 _atom_site_fract_y
 _atom_site_fract_z
 _atom_site_occupancy
  Cs  Cs0  1  0.50000000  0.00000000  0.64970000  1
  Cs  Cs1  1  0.00000000  0.50000000  0.35030000  1
  Cs  Cs2  1  0.76465400  0.73534600  0.71704700  1
  Cs  Cs3  1  0.76465400  0.26465400  0.71704700  1
  Cs  Cs4  1  0.23534600  0.73534600  0.71704700  1
  Cs  Cs5  1  0.23534600  0.26465400  0.71704700  1
  Cs  Cs6  1  0.73534600  0.76465400  0.28295300  1
  Cs  Cs7  1  0.73534600  0.23534600  0.28295300  1
  Cs  Cs8  1  0.26465400  0.76465400  0.28295300  1
  Cs  Cs9  1  0.26465400  0.23534600  0.28295300  1
  V  V0  1  0.00000000  0.50000000  0.85216700  1
  V  V1  1  0.50000000  0.00000000  0.14783300  1
  V  V2  1  0.77629100  0.00000000  0.98924300  1
  V  V3  1  0.22370900  0.00000000  0.98924300  1
  V  V4  1  0.50000000  0.27629100  0.98924300  1
  V  V5  1  0.50000000  0.72370900  0.98924300  1
  V  V6  1  0.72370900  0.50000000  0.01075700  1
  V  V7  1  0.27629100  0.50000000  0.01075700  1
  V  V8  1  0.00000000  0.22370900  0.01075700  1
  V  V9  1  0.00000000  0.77629100  0.01075700  1
  Fe  Fe0  1  0.50000000  0.50000000  0.50000000  1
  Fe  Fe1  1  0.00000000  0.00000000  0.50000000  1
  Cl  Cl0  1  0.71987300  0.50000000  0.49570800  1
  Cl  Cl1  1  0.28012700  0.50000000  0.49570800  1
  Cl  Cl2  1  0.00000000  0.21987300  0.49570800  1
  Cl  Cl3  1  0.00000000  0.78012700  0.49570800  1
  Cl  Cl4  1  0.78012700  0.00000000  0.50429200  1
  Cl  Cl5  1  0.21987300  0.00000000  0.50429200  1
  Cl  Cl6  1  0.50000000  0.28012700  0.50429200  1
  Cl  Cl7  1  0.50000000  0.71987300  0.50429200  1
  Cl  Cl8  1  0.50000000  0.50000000  0.71511800  1
  Cl  Cl9  1  0.00000000  0.00000000  0.71511800  1
  Cl  Cl10  1  0.00000000  0.00000000  0.28488200  1
  Cl  Cl11  1  0.50000000  0.50000000  0.28488200  1
  O  O0  1  0.00000000  0.50000000  0.70480300  1
  O  O1  1  0.50000000  0.00000000  0.29519700  1
  O  O2  1  0.70632000  0.00000000  0.85912700  1
  O  O3  1  0.29368000  0.00000000  0.85912700  1
  O  O4  1  0.50000000  0.20632000  0.85912700  1
  O  O5  1  0.50000000  0.79368000  0.85912700  1
  O  O6  1  0.79368000  0.50000000  0.14087300  1
  O  O7  1  0.20632000  0.50000000  0.14087300  1
  O  O8  1  0.00000000  0.29368000  0.14087300  1
  O  O9  1  0.00000000  0.70632000  0.14087300  1
  O  O10  1  0.67312900  0.00000000  0.10607800  1
  O  O11  1  0.32687100  0.00000000  0.10607800  1
  O  O12  1  0.50000000  0.17312900  0.10607800  1
  O  O13  1  0.50000000  0.82687100  0.10607800  1
  O  O14  1  0.82687100  0.50000000  0.89392200  1
  O  O15  1  0.17312900  0.50000000  0.89392200  1
  O  O16  1  0.00000000  0.32687100  0.89392200  1
  O  O17  1  0.00000000  0.67312900  0.89392200  1
  O  O18  1  0.86607300  0.86607300  0.00000000  1
  O  O19  1  0.86607300  0.13392700  0.00000000  1
  O  O20  1  0.13392700  0.86607300  0.00000000  1
  O  O21  1  0.13392700  0.13392700  0.00000000  1
  O  O22  1  0.36607300  0.36607300  0.00000000  1
  O  O23  1  0.36607300  0.63392700  0.00000000  1
  O  O24  1  0.63392700  0.36607300  0.00000000  1
  O  O25  1  0.63392700  0.63392700  0.00000000  1
loop_
_geom_bond_atom_site_label_1
_geom_bond_atom_site_label_2
_geom_bond_distance
_geom_bond_site_symmetry_2
Cs0 O5 3.272713 1_545
Cs0 O3 3.272713 1_555
Cs0 O4 3.272713 1_555
Cs0 O2 3.272713 1_555
Cs0 O1 3.923059 1_555
Cs1 O6 3.272713 1_455
Cs1 O7 3.272713 1_555
Cs1 O8 3.272713 1_555
Cs1 O9 3.272713 1_555
Cs1 O0 3.923059 1_555
Cs2 O14 3.356223 1_555
Cs2 O17 3.356223 1_655
Cs2 O5 3.418259 1_555
Cs2 O2 3.418259 1_565
Cs2 O25 3.638482 1_556
Cs2 O18 3.638482 1_556
Cs2 O0 3.730040 1_655
Cs3 O14 3.356223 1_555
Cs3 O16 3.356223 1_655
Cs3 O4 3.418259 1_555
Cs3 O2 3.418259 1_555
Cs3 O24 3.638482 1_556
Cs3 O19 3.638482 1_556
Cs3 O0 3.730040 1_655
Cs4 O15 3.356223 1_555
Cs4 O17 3.356223 1_555
Cs4 O5 3.418259 1_555
Cs4 O3 3.418259 1_565
Cs4 O23 3.638482 1_556
Cs4 O20 3.638482 1_556
Cs4 O0 3.730040 1_555
Cs5 O16 3.356223 1_555
Cs5 O15 3.356223 1_555
Cs5 O3 3.418259 1_555
Cs5 O4 3.418259 1_555
Cs5 O22 3.638482 1_556
Cs5 O21 3.638482 1_556
Cs5 O0 3.730040 1_555
Cs6 O13 3.356223 1_555
Cs6 O10 3.356223 1_565
Cs6 O6 3.418259 1_555
Cs6 O9 3.418259 1_655
Cs6 O25 3.638482 1_555
Cs6 O18 3.638482 1_555
Cs6 O1 3.730040 1_565
Cs7 O12 3.356223 1_555
Cs7 O10 3.356223 1_555
Cs7 O6 3.418259 1_555
Cs7 O8 3.418259 1_655
Cs7 O24 3.638482 1_555
Cs7 O19 3.638482 1_555
Cs7 O1 3.730040 1_555
Cs8 O13 3.356223 1_555
Cs8 O11 3.356223 1_565
Cs8 O7 3.418259 1_555
Cs8 O9 3.418259 1_555
Cs8 O23 3.638482 1_555
Cs8 O20 3.638482 1_555
Cs8 O1 3.730040 1_565
Cs9 O11 3.356223 1_555
Cs9 O12 3.356223 1_555
Cs9 O8 3.418259 1_555
Cs9 O7 3.418259 1_555
Cs9 O22 3.638482 1_555
Cs9 O21 3.638482 1_555
Cs9 O1 3.730040 1_555
Cl0 Fe0 2.462962 1_555
Cl0 Cl11 3.392222 1_555
Cl0 Cl8 3.458244 1_555
Cl0 Cs1 3.525926 1_655
Cl0 Cs2 3.632988 1_555
Cl0 Cs3 3.632988 1_555
Cl0 Cs6 3.789307 1_555
Cl0 Cs7 3.789307 1_555
Cl1 Fe0 2.462962 1_555
Cl1 Cl11 3.392222 1_555
Cl1 Cl8 3.458244 1_555
Cl1 Cs1 3.525926 1_555
Cl1 Cs4 3.632988 1_555
Cl1 Cs5 3.632988 1_555
Cl1 Cs8 3.789307 1_555
Cl1 Cs9 3.789307 1_555
Cl2 Fe1 2.462962 1_555
Cl2 Cl9 3.458244 1_555
Cl2 Cs1 3.525926 1_555
Cl2 Cs5 3.632988 1_555
Cl2 Cs3 3.632988 1_455
Cl2 Cs9 3.789307 1_555
Cl2 Cs7 3.789307 1_455
Cl3 Fe1 2.462962 1_565
Cl3 Cl9 3.458244 1_565
Cl3 Cs1 3.525926 1_555
Cl3 Cs4 3.632988 1_555
Cl3 Cs2 3.632988 1_455
Cl3 Cs8 3.789307 1_555
Cl3 Cs6 3.789307 1_455
Cl4 Fe1 2.462962 1_655
Cl4 Cl9 3.392222 1_655
Cl4 Cs0 3.525926 1_555
Cl4 Cs7 3.632988 1_555
Cl4 Cs6 3.632988 1_545
Cl4 Cs3 3.789307 1_555
Cl4 Cs2 3.789307 1_545
Cl5 Fe1 2.462962 1_555
Cl5 Cl9 3.392222 1_555
Cl5 Cs0 3.525926 1_555
Cl5 Cs9 3.632988 1_555
Cl5 Cs8 3.632988 1_545
Cl5 Cs5 3.789307 1_555
Cl5 Cs4 3.789307 1_545
Cl6 Fe0 2.462962 1_555
Cl6 Cl8 3.392222 1_555
Cl6 Cs0 3.525926 1_555
Cl6 Cs7 3.632988 1_555
Cl6 Cs9 3.632988 1_555
Cl6 Cs3 3.789307 1_555
Cl6 Cs5 3.789307 1_555
Cl7 Fe0 2.462962 1_555
Cl7 Cl8 3.392222 1_555
Cl7 Cs0 3.525926 1_565
Cl7 Cs6 3.632988 1_555
Cl7 Cs8 3.632988 1_555
Cl7 Cs2 3.789307 1_555
Cl7 Cs4 3.789307 1_555
Cl8 Fe0 2.380574 1_555
Cl8 Cs2 3.966533 1_555
Cl8 Cs4 3.966533 1_555
Cl8 Cs3 3.966533 1_555
Cl8 Cs5 3.966533 1_555
Cl9 Fe1 2.380574 1_555
Cl9 Cs5 3.966533 1_555
Cl9 Cs3 3.966533 1_455
Cl9 Cs4 3.966533 1_545
Cl9 Cs2 3.966533 1_445
Cl10 Fe1 2.380574 1_555
Cl10 Cl2 3.392222 1_555
Cl10 Cl3 3.392222 1_545
Cl10 Cl5 3.458244 1_555
Cl10 Cl4 3.458244 1_455
Cl10 Cs9 3.966533 1_555
Cl10 Cs8 3.966533 1_545
Cl10 Cs7 3.966533 1_455
Cl10 Cs6 3.966533 1_445
Cl11 Fe0 2.380574 1_555
Cl11 Cl6 3.458244 1_555
Cl11 Cl7 3.458244 1_555
Cl11 Cs6 3.966533 1_555
Cl11 Cs7 3.966533 1_555
Cl11 Cs8 3.966533 1_555
Cl11 Cs9 3.966533 1_555
O0 V0 1.630783 1_555
O1 V1 1.630783 1_555
O2 V2 1.639345 1_555
O3 V3 1.639345 1_555
O4 V4 1.639345 1_555
O5 V5 1.639345 1_555
O6 V6 1.639345 1_555
O7 V7 1.639345 1_555
O8 V8 1.639345 1_555
O9 V9 1.639345 1_555
O10 V2 1.733953 1_554
O10 V1 1.993285 1_555
O11 V3 1.733953 1_554
O11 V1 1.993285 1_555
O12 V4 1.733953 1_554
O12 V1 1.993285 1_555
O13 V5 1.733953 1_554
O13 V1 1.993285 1_565
O14 V6 1.733953 1_556
O14 V0 1.993285 1_655
O15 V7 1.733953 1_556
O15 V0 1.993285 1_555
O16 V8 1.733953 1_556
O16 V0 1.993285 1_555
O17 V9 1.733953 1_556
O17 V0 1.993285 1_555
O18 V2 1.809715 1_564
O18 V9 1.809715 1_655
O19 V8 1.809715 1_655
O19 V2 1.809715 1_554
O20 V3 1.809715 1_564
O20 V9 1.809715 1_555
O21 V3 1.809715 1_554
O21 V8 1.809715 1_555
O22 V7 1.809715 1_555
O22 V4 1.809715 1_554
O23 V5 1.809715 1_554
O23 V7 1.809715 1_555
O24 V6 1.809715 1_555
O24 V4 1.809715 1_554
O25 V5 1.809715 1_554
O25 V6 1.809715 1_555
