# generated using pymatgen
data_Li5V3P8O29
_symmetry_space_group_name_H-M   'P 1'
_cell_length_a   9.78198300
_cell_length_b   9.82609346
_cell_length_c   14.12145044
_cell_angle_alpha   89.74094609
_cell_angle_beta   89.69367207
_cell_angle_gamma   60.21136603
_symmetry_Int_Tables_number   1
_chemical_formula_structural   Li5V3P8O29
_chemical_formula_sum   'Li10 V6 P16 O58'
_cell_volume   1177.96279978
_cell_formula_units_Z   2
loop_
 _symmetry_equiv_pos_site_id
 _symmetry_equiv_pos_as_xyz
  1  'x, y, z'
loop_
 _atom_site_type_symbol
 _atom_site_label
 _atom_site_symmetry_multiplicity
 _atom_site_fract_x
 _atom_site_fract_y
 _atom_site_fract_z
 _atom_site_occupancy
  Li  Li0  1  0.09278300  0.67763100  0.94467700  1
  Li  Li1  1  0.23215900  0.66681700  0.43808300  1
  Li  Li2  1  0.10140500  0.23384400  0.44003200  1
  Li  Li3  1  0.22812700  0.08430200  0.93889800  1
  Li  Li4  1  0.68019000  0.22721900  0.94136700  1
  Li  Li5  1  0.66592300  0.10225300  0.44080500  1
  Li  Li6  1  0.77270300  0.90598100  0.06189000  1
  Li  Li7  1  0.66215100  0.66501300  0.39095400  1
  Li  Li8  1  0.90817700  0.31933300  0.06280400  1
  Li  Li9  1  0.99305600  0.00239200  0.49824000  1
  V  V0  1  0.43325300  0.99843200  0.74868100  1
  V  V1  1  0.56584700  0.00217400  0.25074000  1
  V  V2  1  0.43249600  0.56710100  0.24874500  1
  V  V3  1  0.56491900  0.43718900  0.74584300  1
  V  V4  1  0.99821200  0.56653100  0.74590300  1
  V  V5  1  0.00375600  0.43105800  0.25110000  1
  P  P0  1  0.08608300  0.68299800  0.15786900  1
  P  P1  1  0.22709400  0.68758100  0.65611400  1
  P  P2  1  0.08772600  0.22675500  0.65867700  1
  P  P3  1  0.33039500  0.33490800  0.86855500  1
  P  P4  1  0.33674400  0.33381400  0.37335500  1
  P  P5  1  0.23294000  0.08565500  0.15703800  1
  P  P6  1  0.30732100  0.91320700  0.34088600  1
  P  P7  1  0.67895700  0.23453300  0.15700100  1
  P  P8  1  0.31495100  0.76962900  0.83965700  1
  P  P9  1  0.68716100  0.08882500  0.65802500  1
  P  P10  1  0.77020400  0.91081500  0.83919700  1
  P  P11  1  0.66619900  0.66654000  0.63005800  1
  P  P12  1  0.67041300  0.66369300  0.13069900  1
  P  P13  1  0.91007600  0.77686800  0.34030300  1
  P  P14  1  0.77695100  0.31036300  0.34009800  1
  P  P15  1  0.90942500  0.31977100  0.84074100  1
  O  O0  1  0.00424500  0.78668600  0.42044100  1
  O  O1  1  0.08651700  0.65685400  0.66993500  1
  O  O2  1  0.22777100  0.75713900  0.92209000  1
  O  O3  1  0.24979500  0.66181800  0.16252400  1
  O  O4  1  0.09296500  0.52415700  0.18105800  1
  O  O5  1  0.17952700  0.48316500  0.82536200  1
  O  O6  1  0.08908500  0.38343900  0.67415100  1
  O  O7  1  0.99805600  0.24168800  0.92943800  1
  O  O8  1  0.08484700  0.25126600  0.16358600  1
  O  O9  1  0.33122900  0.48614100  0.32978000  1
  O  O10  1  0.38331500  0.52939500  0.67126200  1
  O  O11  1  0.19081500  0.32591900  0.33483700  1
  O  O12  1  0.32937000  0.34558900  0.97387800  1
  O  O13  1  0.33585400  0.34258100  0.47918000  1
  O  O14  1  0.32908600  0.18533100  0.83279000  1
  O  O15  1  0.51782400  0.37801000  0.17531400  1
  O  O16  1  0.47935600  0.33653700  0.82495500  1
  O  O17  1  0.25644200  0.08837400  0.66980300  1
  O  O18  1  0.21603500  0.98647700  0.24161500  1
  O  O19  1  0.20253100  0.01132100  0.42021200  1
  O  O20  1  0.24551700  0.01130400  0.06374700  1
  O  O21  1  0.38292600  0.09644200  0.18195400  1
  O  O22  1  0.49051600  0.18804000  0.33500500  1
  O  O23  1  0.33792500  0.91393100  0.84099700  1
  O  O24  1  0.53221500  0.08918500  0.66960500  1
  O  O25  1  0.65878700  0.25884500  0.67265900  1
  O  O26  1  0.21340500  0.79694200  0.74272500  1
  O  O27  1  0.21644700  0.76508100  0.56370500  1
  O  O28  1  0.79078000  0.20316100  0.41977200  1
  O  O29  1  0.33282700  0.74527500  0.34328900  1
  O  O30  1  0.47219600  0.89992800  0.33267500  1
  O  O31  1  0.66932900  0.08139000  0.16073700  1
  O  O32  1  0.52026700  0.80900200  0.67091900  1
  O  O33  1  0.61845200  0.90400700  0.82208600  1
  O  O34  1  0.76126100  0.99806000  0.92845400  1
  O  O35  1  0.77570500  0.02251700  0.56782300  1
  O  O36  1  0.79669300  0.99551500  0.74846500  1
  O  O37  1  0.73906100  0.92027200  0.34110500  1
  O  O38  1  0.52578200  0.66067000  0.18039100  1
  O  O39  1  0.47498300  0.61791100  0.82039100  1
  O  O40  1  0.67250400  0.81324300  0.16950100  1
  O  O41  1  0.66801300  0.66138900  0.02531000  1
  O  O42  1  0.67695500  0.65635400  0.52487100  1
  O  O43  1  0.81746100  0.66376700  0.67358100  1
  O  O44  1  0.62630400  0.47270800  0.33556000  1
  O  O45  1  0.66982400  0.51536900  0.67417200  1
  O  O46  1  0.91577500  0.74302100  0.83854400  1
  O  O47  1  0.98274500  0.79866300  0.24219700  1
  O  O48  1  0.99775800  0.75117900  0.06706900  1
  O  O49  1  0.89524200  0.62775900  0.33270600  1
  O  O50  1  0.81901700  0.51048700  0.16944300  1
  O  O51  1  0.90297700  0.47791900  0.82183200  1
  O  O52  1  0.74167100  0.34097600  0.84076900  1
  O  O53  1  0.75451100  0.24449700  0.06560700  1
  O  O54  1  0.79584200  0.21925300  0.24154100  1
  O  O55  1  0.92081100  0.33869300  0.34039600  1
  O  O56  1  0.01361300  0.22168700  0.56800500  1
  O  O57  1  0.99447000  0.21159000  0.74940000  1
loop_
_geom_bond_atom_site_label_1
_geom_bond_atom_site_label_2
_geom_bond_distance
_geom_bond_site_symmetry_2
Li0 O2 1.863849 1_555
Li0 O48 1.923581 1_456
Li0 O46 2.137938 1_455
Li0 O5 2.369177 1_555
Li1 O0 1.952939 1_555
Li1 O27 1.991980 1_555
Li1 O29 2.021596 1_555
Li1 O9 2.174687 1_555
Li2 O19 1.921266 1_555
Li2 O56 2.025092 1_555
Li2 O55 2.089724 1_455
Li2 O11 2.133166 1_555
Li3 O20 1.876782 1_556
Li3 O7 2.004398 1_455
Li3 O23 2.021373 1_545
Li3 O14 2.269549 1_555
Li4 O53 1.942788 1_556
Li4 O34 1.990066 1_545
Li4 O52 2.067284 1_555
Li4 O16 2.374351 1_555
Li5 O28 1.939011 1_555
Li5 O35 2.038691 1_555
Li5 O37 2.105337 1_545
Li5 O22 2.113228 1_555
Li6 O48 1.959358 1_555
Li6 O31 2.053443 1_565
Li6 O34 2.065912 1_554
Li6 O40 2.226953 1_555
Li7 O42 1.895708 1_555
Li7 O44 2.231622 1_555
Li7 O49 2.272170 1_555
Li7 O30 2.279405 1_555
Li8 O53 1.974628 1_555
Li8 O7 2.056884 1_554
Li8 O8 2.080538 1_655
Li8 O50 2.222662 1_555
Li9 O35 2.255372 1_555
Li9 O28 2.271558 1_555
Li9 O0 2.345363 1_645
Li9 O19 2.360966 1_655
Li9 O27 2.450792 1_645
Li9 O56 2.471051 1_655
O0 P13 1.496309 1_455
O1 P1 1.558634 1_555
O1 V4 1.851463 1_455
O2 P8 1.479686 1_555
O3 P0 1.510647 1_555
O3 V2 1.975603 1_555
O4 P0 1.561740 1_555
O4 V5 1.830968 1_555
O5 P3 1.593000 1_555
O5 V4 1.909238 1_455
O6 P2 1.562587 1_555
O6 V4 1.863161 1_455
O7 P15 1.500384 1_555
O8 P5 1.553341 1_555
O8 V5 1.973424 1_555
O9 P4 1.591760 1_555
O9 V2 1.919964 1_555
O10 P1 1.561220 1_555
O10 V3 1.870301 1_555
O11 P4 1.567890 1_555
O11 V5 1.986851 1_555
O12 P3 1.491115 1_555
O13 P4 1.497002 1_555
O14 P3 1.562342 1_555
O14 V0 1.992270 1_545
O15 P7 1.526391 1_555
O15 V2 1.921315 1_555
O16 P3 1.586212 1_555
O16 V3 1.931130 1_555
O17 P2 1.538973 1_555
O17 V0 1.872454 1_545
O18 P5 1.597190 1_565
O18 P6 1.626769 1_555
O19 P6 1.500201 1_545
O20 P5 1.483947 1_555
O21 P5 1.564598 1_555
O21 V1 1.834901 1_555
O22 P4 1.570070 1_555
O22 V1 1.991872 1_555
O23 P8 1.542166 1_555
O23 V0 2.001241 1_555
O24 P9 1.521862 1_555
O24 V0 1.953570 1_545
O25 P9 1.566058 1_555
O25 V3 1.841081 1_555
O26 P1 1.592402 1_555
O26 P8 1.636679 1_555
O27 P1 1.485705 1_555
O28 P14 1.497700 1_555
O29 P6 1.541687 1_555
O29 V2 2.027165 1_555
O30 P6 1.555844 1_555
O30 V1 2.019900 1_565
O31 P7 1.554386 1_555
O31 V1 2.001526 1_555
O32 P11 1.530776 1_555
O32 V0 1.956855 1_555
O33 P10 1.539175 1_555
O33 V0 1.886421 1_555
O34 P10 1.505111 1_555
O35 P9 1.494061 1_555
O36 P10 1.613240 1_555
O36 P9 1.627172 1_565
O37 P13 1.562676 1_555
O37 V1 1.950879 1_565
O38 P12 1.589291 1_555
O38 V2 1.850926 1_555
O39 P8 1.558001 1_555
O39 V3 1.868253 1_555
O40 P12 1.580294 1_555
O40 V1 1.983181 1_565
O41 P12 1.489008 1_555
O42 P11 1.488855 1_555
O43 P11 1.592903 1_555
O43 V4 1.847719 1_555
O44 P14 1.544269 1_555
O44 V2 2.055435 1_555
O45 P11 1.592274 1_555
O45 V3 1.852744 1_555
O46 P10 1.553518 1_555
O46 V4 1.997229 1_555
O47 P0 1.609181 1_655
O47 P13 1.615099 1_555
O48 P0 1.506113 1_655
O49 P13 1.546637 1_555
O49 V5 2.039371 1_655
O50 P12 1.582849 1_555
O50 V5 1.953774 1_655
O51 P15 1.545692 1_555
O51 V4 1.887457 1_555
O52 P15 1.548048 1_555
O52 V3 2.017247 1_555
O53 P7 1.510646 1_555
O54 P7 1.611664 1_555
O54 P14 1.617649 1_555
O55 P14 1.564330 1_555
O55 V5 1.944868 1_655
O56 P2 1.487923 1_555
O57 P15 1.614948 1_555
O57 P2 1.617568 1_655
