# generated using pymatgen
data_TmBr2
_symmetry_space_group_name_H-M   'P 1'
_cell_length_a   6.58400400
_cell_length_b   7.70362900
_cell_length_c   12.78434700
_cell_angle_alpha   90.00000000
_cell_angle_beta   90.00000000
_cell_angle_gamma   90.00000000
_symmetry_Int_Tables_number   1
_chemical_formula_structural   TmBr2
_chemical_formula_sum   'Tm8 Br16'
_cell_volume   648.43133763
_cell_formula_units_Z   8
loop_
 _symmetry_equiv_pos_site_id
 _symmetry_equiv_pos_as_xyz
  1  'x, y, z'
loop_
 _atom_site_type_symbol
 _atom_site_label
 _atom_site_symmetry_multiplicity
 _atom_site_fract_x
 _atom_site_fract_y
 _atom_site_fract_z
 _atom_site_occupancy
  Tm  Tm0  1  0.16946400  0.54757600  0.90334300  1
  Tm  Tm1  1  0.83053600  0.45242400  0.09665700  1
  Tm  Tm2  1  0.33053600  0.04757600  0.09665700  1
  Tm  Tm3  1  0.83053600  0.95242400  0.40334300  1
  Tm  Tm4  1  0.66946400  0.95242400  0.90334300  1
  Tm  Tm5  1  0.16946400  0.04757600  0.59665700  1
  Tm  Tm6  1  0.66946400  0.45242400  0.59665700  1
  Tm  Tm7  1  0.33053600  0.54757600  0.40334300  1
  Br  Br0  1  0.29614100  0.87651900  0.79394400  1
  Br  Br1  1  0.70385900  0.12348100  0.20605600  1
  Br  Br2  1  0.20385900  0.37651900  0.20605600  1
  Br  Br3  1  0.70385900  0.62348100  0.29394400  1
  Br  Br4  1  0.79614100  0.62348100  0.79394400  1
  Br  Br5  1  0.29614100  0.37651900  0.70605600  1
  Br  Br6  1  0.79614100  0.12348100  0.70605600  1
  Br  Br7  1  0.20385900  0.87651900  0.29394400  1
  Br  Br8  1  0.02489500  0.70324200  0.54253100  1
  Br  Br9  1  0.97510500  0.29675800  0.45746900  1
  Br  Br10  1  0.47510500  0.20324200  0.45746900  1
  Br  Br11  1  0.97510500  0.79675800  0.04253100  1
  Br  Br12  1  0.52489500  0.79675800  0.54253100  1
  Br  Br13  1  0.02489500  0.20324200  0.95746900  1
  Br  Br14  1  0.52489500  0.29675800  0.95746900  1
  Br  Br15  1  0.47510500  0.70324200  0.04253100  1
loop_
_geom_bond_atom_site_label_1
_geom_bond_atom_site_label_2
_geom_bond_distance
_geom_bond_site_symmetry_2
Tm0 Tm1 3.409502 1_456
Tm2 Tm4 3.409502 1_544
Tm3 Tm5 3.409502 1_665
Tm6 Tm7 3.409502 1_555
Br0 Tm4 2.887830 1_555
Br0 Tm5 2.965390 1_565
Br0 Tm0 3.012163 1_555
Br0 Br12 3.602319 1_555
Br0 Br13 3.727583 1_565
Br0 Br4 3.825845 1_555
Br0 Br4 3.825845 1_455
Br1 Tm2 2.887830 1_555
Br1 Tm3 2.965390 1_545
Br1 Tm1 3.012163 1_555
Br1 Br10 3.602319 1_555
Br1 Br11 3.727583 1_545
Br1 Br2 3.825845 1_655
Br1 Br2 3.825845 1_555
Br2 Tm1 2.887830 1_455
Br2 Tm7 2.965390 1_555
Br2 Tm2 3.012163 1_555
Br2 Br9 3.602319 1_455
Br3 Tm7 2.887830 1_555
Br3 Tm1 2.965390 1_555
Br3 Tm3 3.012163 1_555
Br3 Br9 3.727583 1_555
Br3 Br7 3.825845 1_655
Br3 Br7 3.825845 1_555
Br4 Tm0 2.887830 1_655
Br4 Tm6 2.965390 1_555
Br4 Tm4 3.012163 1_555
Br4 Br8 3.602319 1_655
Br5 Tm6 2.887830 1_555
Br5 Tm0 2.965390 1_555
Br5 Tm5 3.012163 1_555
Br5 Br8 3.727583 1_555
Br5 Br6 3.825845 1_455
Br5 Br6 3.825845 1_555
Br6 Tm5 2.887830 1_655
Br6 Tm4 2.965390 1_545
Br6 Tm6 3.012163 1_555
Br7 Tm3 2.887830 1_455
Br7 Tm2 2.965390 1_565
Br7 Tm7 3.012163 1_555
Br8 Tm5 2.901934 1_565
Br8 Tm3 2.913551 1_455
Br8 Tm7 2.941759 1_555
Br8 Tm6 3.112650 1_455
Br8 Br9 3.331023 1_455
Br9 Tm3 2.901934 1_545
Br9 Tm5 2.913551 1_655
Br9 Tm6 2.941759 1_555
Br9 Tm7 3.112650 1_655
Br10 Tm7 2.901934 1_555
Br10 Tm6 2.913551 1_555
Br10 Tm5 2.941759 1_555
Br10 Tm3 3.112650 1_545
Br10 Br12 3.331023 1_545
Br10 Br9 3.369907 1_455
Br10 Br9 3.369907 1_555
Br10 Br7 3.727583 1_545
Br11 Tm1 2.901934 1_555
Br11 Tm0 2.913551 1_654
Br11 Tm4 2.941759 1_554
Br11 Tm2 3.112650 1_665
Br11 Br13 3.331023 1_664
Br11 Br15 3.369907 1_555
Br11 Br15 3.369907 1_655
Br11 Br7 3.602319 1_655
Br12 Tm6 2.901934 1_555
Br12 Tm7 2.913551 1_555
Br12 Tm3 2.941759 1_555
Br12 Tm5 3.112650 1_565
Br12 Br8 3.369907 1_655
Br12 Br8 3.369907 1_555
Br12 Br6 3.727583 1_565
Br13 Tm0 2.901934 1_555
Br13 Tm1 2.913551 1_456
Br13 Tm2 2.941759 1_556
Br13 Tm4 3.112650 1_445
Br13 Br14 3.369907 1_555
Br13 Br14 3.369907 1_455
Br13 Br6 3.602319 1_455
Br14 Tm4 2.901934 1_545
Br14 Tm2 2.913551 1_556
Br14 Tm1 2.941759 1_556
Br14 Tm0 3.112650 1_555
Br14 Br15 3.331023 1_556
Br14 Br5 3.602319 1_555
Br14 Br4 3.727583 1_555
Br15 Tm2 2.901934 1_565
Br15 Tm4 2.913551 1_554
Br15 Tm0 2.941759 1_554
Br15 Tm1 3.112650 1_555
Br15 Br3 3.602319 1_555
Br15 Br2 3.727583 1_555
