# generated using pymatgen
data_Cd3As2
_symmetry_space_group_name_H-M   'P 1'
_cell_length_a   6.47982500
_cell_length_b   6.47982500
_cell_length_c   6.47982500
_cell_angle_alpha   90.00000000
_cell_angle_beta   90.00000000
_cell_angle_gamma   90.00000000
_symmetry_Int_Tables_number   1
_chemical_formula_structural   Cd3As2
_chemical_formula_sum   'Cd6 As4'
_cell_volume   272.07574764
_cell_formula_units_Z   2
loop_
 _symmetry_equiv_pos_site_id
 _symmetry_equiv_pos_as_xyz
  1  'x, y, z'
loop_
 _atom_site_type_symbol
 _atom_site_label
 _atom_site_symmetry_multiplicity
 _atom_site_fract_x
 _atom_site_fract_y
 _atom_site_fract_z
 _atom_site_occupancy
  Cd  Cd0  1  0.50000000  0.00000000  0.50000000  1
  Cd  Cd1  1  0.50000000  0.50000000  0.00000000  1
  Cd  Cd2  1  0.00000000  0.50000000  0.00000000  1
  Cd  Cd3  1  0.00000000  0.00000000  0.50000000  1
  Cd  Cd4  1  0.50000000  0.00000000  0.00000000  1
  Cd  Cd5  1  0.00000000  0.50000000  0.50000000  1
  As  As0  1  0.25000000  0.75000000  0.75000000  1
  As  As1  1  0.75000000  0.75000000  0.25000000  1
  As  As2  1  0.75000000  0.25000000  0.75000000  1
  As  As3  1  0.25000000  0.25000000  0.25000000  1
loop_
_geom_bond_atom_site_label_1
_geom_bond_atom_site_label_2
_geom_bond_distance
_geom_bond_site_symmetry_2
Cd0 Cd4 3.239912 1_556
Cd0 Cd3 3.239912 1_655
Cd0 Cd4 3.239912 1_555
Cd0 Cd3 3.239912 1_555
Cd1 Cd2 3.239912 1_655
Cd1 Cd2 3.239912 1_555
Cd1 Cd4 3.239912 1_555
Cd1 Cd4 3.239912 1_565
Cd2 Cd5 3.239912 1_555
Cd2 Cd5 3.239912 1_554
Cd3 Cd5 3.239912 1_545
Cd3 Cd5 3.239912 1_555
As0 Cd4 2.805847 1_566
As0 Cd1 2.805847 1_556
As0 Cd3 2.805847 1_565
As0 Cd0 2.805847 1_565
As0 Cd5 2.805847 1_555
As0 Cd2 2.805847 1_556
As1 Cd5 2.805847 1_655
As1 Cd2 2.805847 1_655
As1 Cd1 2.805847 1_555
As1 Cd0 2.805847 1_565
As1 Cd3 2.805847 1_665
As1 Cd4 2.805847 1_565
As2 Cd5 2.805847 1_655
As2 Cd0 2.805847 1_555
As2 Cd4 2.805847 1_556
As2 Cd1 2.805847 1_556
As2 Cd3 2.805847 1_655
As2 Cd2 2.805847 1_656
As3 Cd0 2.805847 1_555
As3 Cd3 2.805847 1_555
As3 Cd2 2.805847 1_555
As3 Cd1 2.805847 1_555
As3 Cd5 2.805847 1_555
As3 Cd4 2.805847 1_555
