# generated using pymatgen
data_Fe3CoBi4(AsO6)4
_symmetry_space_group_name_H-M   'P 1'
_cell_length_a   7.59694800
_cell_length_b   7.91210852
_cell_length_c   9.18752031
_cell_angle_alpha   107.88690330
_cell_angle_beta   95.03362279
_cell_angle_gamma   108.72788576
_symmetry_Int_Tables_number   1
_chemical_formula_structural   Fe3CoBi4(AsO6)4
_chemical_formula_sum   'Fe3 Co1 Bi4 As4 O24'
_cell_volume   486.96810198
_cell_formula_units_Z   1
loop_
 _symmetry_equiv_pos_site_id
 _symmetry_equiv_pos_as_xyz
  1  'x, y, z'
loop_
 _atom_site_type_symbol
 _atom_site_label
 _atom_site_symmetry_multiplicity
 _atom_site_fract_x
 _atom_site_fract_y
 _atom_site_fract_z
 _atom_site_occupancy
  Fe  Fe0  1  0.24573700  0.24175500  0.99295200  1
  Fe  Fe1  1  0.75426300  0.75824500  0.00704800  1
  Fe  Fe2  1  0.50000000  0.00000000  0.00000000  1
  Co  Co0  1  0.00000000  0.50000000  0.00000000  1
  Bi  Bi0  1  0.18012800  0.50211100  0.38577200  1
  Bi  Bi1  1  0.68177400  0.00274900  0.37737200  1
  Bi  Bi2  1  0.81987200  0.49788900  0.61422800  1
  Bi  Bi3  1  0.31822600  0.99725100  0.62262800  1
  As  As0  1  0.19640900  0.00128000  0.23274400  1
  As  As1  1  0.69747700  0.49202500  0.22466500  1
  As  As2  1  0.80359100  0.99872000  0.76725600  1
  As  As3  1  0.30252300  0.50797500  0.77533500  1
  O  O0  1  0.67563400  0.68929700  0.19244300  1
  O  O1  1  0.18775800  0.20197300  0.19499500  1
  O  O2  1  0.32436600  0.31070300  0.80755700  1
  O  O3  1  0.81224200  0.79802700  0.80500500  1
  O  O4  1  0.41351000  0.98572000  0.20224900  1
  O  O5  1  0.91893200  0.48338400  0.19847900  1
  O  O6  1  0.58649000  0.01428000  0.79775100  1
  O  O7  1  0.08106800  0.51661600  0.80152100  1
  O  O8  1  0.78125600  0.49361100  0.91100700  1
  O  O9  1  0.26216200  0.99590700  0.88277500  1
  O  O10  1  0.21874400  0.50638900  0.08899300  1
  O  O11  1  0.73783800  0.00409300  0.11722500  1
  O  O12  1  0.96869800  0.19698700  0.91278600  1
  O  O13  1  0.46979700  0.70924500  0.91757000  1
  O  O14  1  0.03130200  0.80301300  0.08721400  1
  O  O15  1  0.53020300  0.29075500  0.08243000  1
  O  O16  1  0.58469200  0.19615600  0.55588900  1
  O  O17  1  0.08025800  0.69534700  0.55553100  1
  O  O18  1  0.41530800  0.80384400  0.44411100  1
  O  O19  1  0.91974200  0.30465300  0.44446900  1
  O  O20  1  0.85628600  0.98289300  0.58952100  1
  O  O21  1  0.35417800  0.49429900  0.59699100  1
  O  O22  1  0.14371400  0.01710700  0.41047900  1
  O  O23  1  0.64582200  0.50570100  0.40300900  1
loop_
_geom_bond_atom_site_label_1
_geom_bond_atom_site_label_2
_geom_bond_distance
_geom_bond_site_symmetry_2
Fe0 O9 1.947419 1_545
Fe0 O2 2.023807 1_555
Fe0 O1 2.037694 1_556
Fe0 O12 2.046095 1_455
Fe0 O10 2.092191 1_556
Fe0 O15 2.109695 1_556
Fe1 O11 1.947419 1_565
Fe1 O0 2.023807 1_555
Fe1 O3 2.037694 1_554
Fe1 O14 2.046095 1_655
Fe1 O8 2.092191 1_554
Fe1 O13 2.109695 1_554
Fe2 O9 2.006288 1_544
Fe2 O11 2.006288 1_555
Fe2 O4 2.047637 1_545
Fe2 O6 2.047637 1_554
Fe2 O13 2.116310 1_544
Fe2 O15 2.116310 1_555
Co0 O8 1.764891 1_454
Co0 O10 1.764891 1_555
Co0 O5 2.003543 1_455
Co0 O7 2.003543 1_554
Co0 O12 2.206100 1_454
Co0 O14 2.206100 1_555
Bi0 O17 2.198518 1_555
Bi0 O21 2.279013 1_555
Bi0 O19 2.316219 1_455
Bi0 O18 2.342170 1_555
Bi0 O5 2.444542 1_455
Bi0 O1 2.502850 1_555
Bi0 O10 2.777154 1_555
Bi1 O16 2.229558 1_555
Bi1 O20 2.334479 1_545
Bi1 O19 2.341156 1_555
Bi1 O18 2.390693 1_545
Bi1 O4 2.423914 1_545
Bi1 O11 2.466873 1_555
Bi1 O0 2.522507 1_545
Bi2 O19 2.198518 1_555
Bi2 O23 2.279013 1_555
Bi2 O17 2.316219 1_655
Bi2 O16 2.342170 1_555
Bi2 O7 2.444542 1_655
Bi2 O3 2.502850 1_555
Bi2 O8 2.777154 1_555
Bi3 O18 2.229558 1_555
Bi3 O22 2.334479 1_565
Bi3 O17 2.341156 1_555
Bi3 O16 2.390693 1_565
Bi3 O6 2.423914 1_565
Bi3 O9 2.466873 1_555
Bi3 O2 2.522507 1_565
As0 O22 1.692258 1_555
As0 O14 1.725002 1_545
As0 O4 1.733248 1_545
As0 O1 1.745667 1_555
As1 O23 1.697558 1_555
As1 O15 1.728956 1_555
As1 O0 1.730008 1_555
As1 O5 1.740043 1_555
As2 O20 1.692258 1_555
As2 O12 1.725002 1_565
As2 O6 1.733248 1_565
As2 O3 1.745667 1_555
As3 O21 1.697558 1_555
As3 O13 1.728956 1_555
As3 O2 1.730008 1_555
As3 O7 1.740043 1_555
O6 O9 2.622911 1_545
O11 O4 2.622911 1_545
O11 O19 3.061528 1_555
O16 O18 2.755083 1_545
O16 O19 2.803140 1_555
O16 O6 2.996716 1_555
O16 O4 3.092727 1_545
O16 O20 3.105455 1_545
O16 O23 3.111934 1_555
O17 O19 2.739943 1_455
O17 O18 2.803140 1_555
O17 O7 3.012306 1_555
O17 O21 3.060162 1_555
O17 O9 3.061528 1_555
O18 O4 2.996716 1_555
O18 O6 3.092727 1_565
O18 O22 3.105455 1_565
O18 O21 3.111934 1_555
O19 O5 3.012306 1_555
O19 O23 3.060162 1_555
