# generated using pymatgen
data_VSi2
_symmetry_space_group_name_H-M   'P 1'
_cell_length_a   4.53625585
_cell_length_b   4.53626603
_cell_length_c   6.31248384
_cell_angle_alpha   89.99999982
_cell_angle_beta   90.00000052
_cell_angle_gamma   120.00037076
_symmetry_Int_Tables_number   1
_chemical_formula_structural   VSi2
_chemical_formula_sum   'V3 Si6'
_cell_volume   112.49296037
_cell_formula_units_Z   3
loop_
 _symmetry_equiv_pos_site_id
 _symmetry_equiv_pos_as_xyz
  1  'x, y, z'
loop_
 _atom_site_type_symbol
 _atom_site_label
 _atom_site_symmetry_multiplicity
 _atom_site_fract_x
 _atom_site_fract_y
 _atom_site_fract_z
 _atom_site_occupancy
  V  V0  1  -0.00000000  0.49999994  0.33332818  1
  V  V1  1  0.50000006  0.50000006  0.66665936  1
  V  V2  1  0.49999994  0.00000000  0.00001248  1
  Si  Si0  1  0.83720572  0.67440841  0.00000534  1
  Si  Si1  1  0.16279545  0.83720309  0.66666362  1
  Si  Si2  1  0.67441069  0.83720609  0.33333102  1
  Si  Si3  1  0.16279418  0.32559160  0.00000531  1
  Si  Si4  1  0.83720466  0.16279702  0.66666366  1
  Si  Si5  1  0.32558931  0.16279379  0.33333105  1
loop_
_geom_bond_atom_site_label_1
_geom_bond_atom_site_label_2
_geom_bond_distance
_geom_bond_site_symmetry_2
Si0 Si2 2.462394 1_555
Si0 Si1 2.462470 1_654
Si0 V0 2.486517 1_655
Si0 V1 2.486641 1_554
Si0 Si3 2.558178 1_665
Si0 V2 2.603919 1_665
Si0 V2 2.603949 1_565
Si0 V2 2.649418 1_555
Si0 Si3 2.649942 1_655
Si0 Si3 2.649948 1_555
Si1 Si5 2.462424 1_565
Si1 V0 2.486582 1_555
Si1 V2 2.486654 1_566
Si1 Si4 2.558195 1_465
Si1 V1 2.603923 1_455
Si1 V1 2.603935 1_565
Si1 V1 2.649427 1_555
Si1 Si4 2.649933 1_455
Si1 Si4 2.649939 1_565
Si2 Si4 2.462425 1_565
Si2 V2 2.486498 1_565
Si2 V1 2.486550 1_555
Si2 Si5 2.558154 1_665
Si2 V0 2.603924 1_665
Si2 V0 2.603942 1_655
Si2 V0 2.649421 1_555
Si2 Si5 2.649957 1_565
Si2 Si5 2.649957 1_555
Si3 Si5 2.462395 1_555
Si3 Si4 2.462469 1_454
Si3 V0 2.486516 1_555
Si3 V1 2.486642 1_554
Si3 V2 2.603919 1_455
Si3 V2 2.603949 1_555
Si3 V2 2.649418 1_565
Si4 V0 2.486581 1_655
Si4 V2 2.486655 1_556
Si4 V1 2.603924 1_655
Si4 V1 2.603935 1_545
Si4 V1 2.649427 1_555
Si5 V2 2.486497 1_555
Si5 V1 2.486550 1_555
Si5 V0 2.603924 1_545
Si5 V0 2.603942 1_555
Si5 V0 2.649421 1_655
