# generated using pymatgen
data_Na3Al3Si3O16
_symmetry_space_group_name_H-M   'P 1'
_cell_length_a   8.99598861
_cell_length_b   8.99598861
_cell_length_c   8.99598806
_cell_angle_alpha   90.47674119
_cell_angle_beta   90.47674119
_cell_angle_gamma   90.47674229
_symmetry_Int_Tables_number   1
_chemical_formula_structural   Na3Al3Si3O16
_chemical_formula_sum   'Na6 Al6 Si6 O32'
_cell_volume   727.94959461
_cell_formula_units_Z   2
loop_
 _symmetry_equiv_pos_site_id
 _symmetry_equiv_pos_as_xyz
  1  'x, y, z'
loop_
 _atom_site_type_symbol
 _atom_site_label
 _atom_site_symmetry_multiplicity
 _atom_site_fract_x
 _atom_site_fract_y
 _atom_site_fract_z
 _atom_site_occupancy
  Na  Na0  1  0.31697900  0.67991000  0.32000700  1
  Na  Na1  1  0.67991000  0.32000700  0.31697900  1
  Na  Na2  1  0.32000700  0.31697900  0.67991000  1
  Na  Na3  1  0.17991000  0.81697900  0.82000700  1
  Na  Na4  1  0.82000700  0.17991000  0.81697900  1
  Na  Na5  1  0.81697900  0.82000700  0.17991000  1
  Al  Al0  1  0.99505500  0.75173500  0.50291600  1
  Al  Al1  1  0.50291600  0.99505500  0.75173500  1
  Al  Al2  1  0.75173500  0.50291600  0.99505500  1
  Al  Al3  1  0.49505500  0.00291600  0.25173500  1
  Al  Al4  1  0.25173500  0.49505500  0.00291600  1
  Al  Al5  1  0.00291600  0.25173500  0.49505500  1
  Si  Si0  1  0.50019200  0.75002000  0.00121500  1
  Si  Si1  1  0.00121500  0.50019200  0.75002000  1
  Si  Si2  1  0.75002000  0.00121500  0.50019200  1
  Si  Si3  1  0.00019200  0.50121500  0.25002000  1
  Si  Si4  1  0.25002000  0.00019200  0.50121500  1
  Si  Si5  1  0.50121500  0.25002000  0.00019200  1
  O  O0  1  0.94761500  0.64111000  0.65328800  1
  O  O1  1  0.65328800  0.94761500  0.64111000  1
  O  O2  1  0.64111000  0.65328800  0.94761500  1
  O  O3  1  0.05837200  0.64009300  0.35510600  1
  O  O4  1  0.35039800  0.93606500  0.36389700  1
  O  O5  1  0.36390800  0.64673000  0.06252100  1
  O  O6  1  0.93606500  0.36389700  0.35039800  1
  O  O7  1  0.64673000  0.06252100  0.36390800  1
  O  O8  1  0.64009300  0.35510600  0.05837200  1
  O  O9  1  0.06252100  0.36390800  0.64673000  1
  O  O10  1  0.35510600  0.05837200  0.64009300  1
  O  O11  1  0.36389700  0.35039800  0.93606500  1
  O  O12  1  0.43606500  0.85039800  0.86389700  1
  O  O13  1  0.14673000  0.86390800  0.56252100  1
  O  O14  1  0.14009300  0.55837200  0.85510600  1
  O  O15  1  0.56252100  0.14673000  0.86390800  1
  O  O16  1  0.85510600  0.14009300  0.55837200  1
  O  O17  1  0.86389700  0.43606500  0.85039800  1
  O  O18  1  0.44761500  0.15328800  0.14111000  1
  O  O19  1  0.15328800  0.14111000  0.44761500  1
  O  O20  1  0.14111000  0.44761500  0.15328800  1
  O  O21  1  0.55837200  0.85510600  0.14009300  1
  O  O22  1  0.85039800  0.86389700  0.43606500  1
  O  O23  1  0.86390800  0.56252100  0.14673000  1
  O  O24  1  0.93536600  0.93536600  0.93536600  1
  O  O25  1  0.07232500  0.91149700  0.07287900  1
  O  O26  1  0.91149700  0.07287900  0.07232500  1
  O  O27  1  0.07287900  0.07232500  0.91149700  1
  O  O28  1  0.41149700  0.57232500  0.57287900  1
  O  O29  1  0.57287900  0.41149700  0.57232500  1
  O  O30  1  0.43536600  0.43536600  0.43536600  1
  O  O31  1  0.57232500  0.57287900  0.41149700  1
loop_
_geom_bond_atom_site_label_1
_geom_bond_atom_site_label_2
_geom_bond_distance
_geom_bond_site_symmetry_2
Na0 O4 2.351115 1_555
Na0 O5 2.374789 1_555
Na0 O3 2.374973 1_555
Na0 O28 2.617765 1_555
Na0 O31 2.626715 1_555
Na0 O30 2.666350 1_555
Na0 O20 2.995459 1_555
Na1 O6 2.351115 1_555
Na1 O7 2.374789 1_555
Na1 O8 2.374973 1_555
Na1 O31 2.617765 1_555
Na1 O29 2.626715 1_555
Na1 O30 2.666350 1_555
Na1 O18 2.995459 1_555
Na2 O11 2.351115 1_555
Na2 O9 2.374790 1_555
Na2 O10 2.374973 1_555
Na2 O29 2.617765 1_555
Na2 O28 2.626715 1_555
Na2 O30 2.666349 1_555
Na2 O19 2.995459 1_555
Na3 O12 2.351115 1_555
Na3 O13 2.374789 1_555
Na3 O14 2.374973 1_555
Na3 O25 2.617765 1_556
Na3 O27 2.626715 1_565
Na3 O24 2.666350 1_455
Na3 O0 2.995459 1_455
Na4 O17 2.351115 1_555
Na4 O15 2.374789 1_555
Na4 O16 2.374973 1_555
Na4 O27 2.617765 1_655
Na4 O26 2.626715 1_556
Na4 O24 2.666350 1_545
Na4 O1 2.995459 1_545
Na5 O22 2.351115 1_555
Na5 O23 2.374790 1_555
Na5 O21 2.374973 1_555
Na5 O26 2.617765 1_565
Na5 O25 2.626715 1_655
Na5 O24 2.666349 1_554
Na5 O2 2.995459 1_554
Al0 O0 1.739936 1_555
Al0 O22 1.758454 1_555
Al0 O3 1.760999 1_655
Al0 O13 1.767340 1_655
Al1 O1 1.739936 1_555
Al1 O12 1.758454 1_555
Al1 O10 1.760999 1_565
Al1 O15 1.767340 1_565
Al2 O2 1.739936 1_555
Al2 O17 1.758454 1_555
Al2 O8 1.760999 1_556
Al2 O23 1.767340 1_556
Al3 O18 1.739936 1_555
Al3 O4 1.758454 1_545
Al3 O21 1.760999 1_545
Al3 O7 1.767340 1_555
Al4 O20 1.739936 1_555
Al4 O11 1.758454 1_554
Al4 O14 1.760999 1_554
Al4 O5 1.767340 1_555
Al5 O19 1.739936 1_555
Al5 O6 1.758454 1_455
Al5 O16 1.760999 1_455
Al5 O9 1.767340 1_555
O0 Si1 1.618132 1_655
O1 Si2 1.618132 1_565
O2 Si0 1.618132 1_556
O3 Si3 1.640036 1_555
O4 Si4 1.639991 1_565
O5 Si0 1.634468 1_555
O6 Si3 1.639991 1_655
O7 Si2 1.634468 1_555
O8 Si5 1.640036 1_555
O9 Si1 1.634468 1_555
O10 Si4 1.640036 1_555
O11 Si5 1.639991 1_556
O12 Si0 1.639991 1_556
O13 Si4 1.634468 1_565
O14 Si1 1.640036 1_555
O15 Si5 1.634468 1_556
O16 Si2 1.640036 1_555
O17 Si1 1.639991 1_655
O18 Si5 1.618132 1_555
O19 Si4 1.618132 1_555
O20 Si3 1.618132 1_555
O21 Si0 1.640036 1_555
O22 Si2 1.639991 1_565
O23 Si3 1.634468 1_655
O24 O25 1.754401 1_656
O24 O26 1.754401 1_566
O24 O27 1.754401 1_665
O25 O27 2.058136 1_564
O25 O26 2.058136 1_465
O26 O27 2.058136 1_654
O28 O30 1.754401 1_555
O28 O31 2.058136 1_555
O28 O29 2.058136 1_555
O29 O30 1.754401 1_555
O29 O31 2.058136 1_555
O30 O31 1.754401 1_555
