# generated using pymatgen
data_CdTe(Pb3O5)2
_symmetry_space_group_name_H-M   'P 1'
_cell_length_a   7.49683637
_cell_length_b   7.49683637
_cell_length_c   11.51582300
_cell_angle_alpha   90.00000000
_cell_angle_beta   90.00000000
_cell_angle_gamma   103.24401959
_symmetry_Int_Tables_number   1
_chemical_formula_structural   CdTe(Pb3O5)2
_chemical_formula_sum   'Cd2 Te2 Pb12 O20'
_cell_volume   630.00472118
_cell_formula_units_Z   2
loop_
 _symmetry_equiv_pos_site_id
 _symmetry_equiv_pos_as_xyz
  1  'x, y, z'
loop_
 _atom_site_type_symbol
 _atom_site_label
 _atom_site_symmetry_multiplicity
 _atom_site_fract_x
 _atom_site_fract_y
 _atom_site_fract_z
 _atom_site_occupancy
  Cd  Cd0  1  0.42220400  0.57779600  0.25000000  1
  Cd  Cd1  1  0.57779600  0.42220400  0.75000000  1
  Te  Te0  1  0.67475800  0.67475800  0.00000000  1
  Te  Te1  1  0.32524200  0.32524200  0.50000000  1
  Pb  Pb0  1  0.49463500  0.92268500  0.76017600  1
  Pb  Pb1  1  0.92268500  0.49463500  0.23982400  1
  Pb  Pb2  1  0.50536500  0.07731500  0.26017600  1
  Pb  Pb3  1  0.07731500  0.50536500  0.73982400  1
  Pb  Pb4  1  0.99169900  0.00830100  0.25000000  1
  Pb  Pb5  1  0.00830100  0.99169900  0.75000000  1
  Pb  Pb6  1  0.77459800  0.21454400  0.98490800  1
  Pb  Pb7  1  0.21454400  0.77459800  0.01509200  1
  Pb  Pb8  1  0.22540200  0.78545600  0.48490800  1
  Pb  Pb9  1  0.78545600  0.22540200  0.51509200  1
  Pb  Pb10  1  0.29879200  0.29879200  0.00000000  1
  Pb  Pb11  1  0.70120800  0.70120800  0.50000000  1
  O  O0  1  0.45651400  0.58006600  0.89760200  1
  O  O1  1  0.58006600  0.45651400  0.10239800  1
  O  O2  1  0.54348600  0.41993400  0.39760200  1
  O  O3  1  0.41993400  0.54348600  0.60239800  1
  O  O4  1  0.52133700  0.17789100  0.87208400  1
  O  O5  1  0.17789100  0.52133700  0.12791600  1
  O  O6  1  0.47866300  0.82210900  0.37208400  1
  O  O7  1  0.82210900  0.47866300  0.62791600  1
  O  O8  1  0.88694800  0.74836800  0.10506300  1
  O  O9  1  0.74836800  0.88694800  0.89493700  1
  O  O10  1  0.11305200  0.25163200  0.60506300  1
  O  O11  1  0.25163200  0.11305200  0.39493700  1
  O  O12  1  0.81057600  0.52937400  0.90710300  1
  O  O13  1  0.52937400  0.81057600  0.09289700  1
  O  O14  1  0.18942400  0.47062600  0.40710300  1
  O  O15  1  0.47062600  0.18942400  0.59289700  1
  O  O16  1  0.75266800  0.99169600  0.65066000  1
  O  O17  1  0.99169600  0.75266800  0.34934000  1
  O  O18  1  0.24733200  0.00830400  0.15066000  1
  O  O19  1  0.00830400  0.24733200  0.84934000  1
loop_
_geom_bond_atom_site_label_1
_geom_bond_atom_site_label_2
_geom_bond_distance
_geom_bond_site_symmetry_2
Cd0 O6 2.270496 1_555
Cd0 O5 2.270496 1_555
Cd0 O2 2.368441 1_555
Cd0 O1 2.368441 1_555
Cd0 O14 2.514278 1_555
Cd0 O13 2.514278 1_555
Cd1 O4 2.270496 1_555
Cd1 O7 2.270496 1_555
Cd1 O3 2.368441 1_555
Cd1 O0 2.368441 1_555
Cd1 O15 2.514278 1_555
Cd1 O12 2.514278 1_555
O0 Te0 2.009780 1_556
O0 Pb10 2.468329 1_556
O0 O9 2.788317 1_555
O0 Pb7 2.908650 1_556
O0 Pb0 2.974451 1_555
O1 Te0 2.009780 1_555
O1 Pb10 2.468329 1_555
O1 O8 2.788317 1_555
O1 Pb6 2.908650 1_554
O1 Pb1 2.974451 1_555
O2 Te1 2.009780 1_555
O2 Pb11 2.468329 1_555
O2 Pb9 2.908650 1_555
O2 Pb2 2.974451 1_555
O3 Te1 2.009780 1_555
O3 Pb11 2.468329 1_555
O3 Pb8 2.908650 1_555
O3 Pb3 2.974451 1_555
O4 Pb6 2.264825 1_555
O4 Pb0 2.277245 1_545
O4 Pb10 2.543186 1_556
O5 Pb7 2.264825 1_555
O5 Pb1 2.277245 1_455
O5 Pb10 2.543186 1_555
O6 Pb8 2.264825 1_555
O6 Pb2 2.277245 1_565
O6 Pb11 2.543186 1_555
O7 Pb9 2.264825 1_555
O7 Pb3 2.277245 1_655
O7 Pb11 2.543186 1_555
O8 Te0 1.973988 1_555
O8 Pb1 2.516342 1_555
O8 Pb4 2.549244 1_565
O8 Pb7 2.631060 1_655
O9 Te0 1.973988 1_556
O9 Pb0 2.516342 1_555
O9 Pb5 2.549244 1_655
O9 Pb6 2.631060 1_565
O10 Te1 1.973988 1_555
O10 Pb3 2.516342 1_555
O10 Pb5 2.549244 1_545
O10 Pb9 2.631060 1_455
O10 O3 2.788317 1_555
O10 O19 2.918794 1_555
O10 O16 2.993357 1_445
O11 Te1 1.973988 1_555
O11 Pb2 2.516342 1_555
O11 Pb4 2.549244 1_455
O11 Pb8 2.631060 1_545
O11 O2 2.788317 1_555
O11 O18 2.918794 1_555
O11 O17 2.993357 1_445
O12 Te0 1.969162 1_556
O12 Pb6 2.480834 1_555
O12 Pb3 2.811931 1_655
O12 O19 2.923473 1_655
O13 Te0 1.969162 1_555
O13 Pb7 2.480834 1_555
O13 Pb2 2.811931 1_565
O13 O18 2.923473 1_565
O14 Te1 1.969162 1_555
O14 Pb8 2.480834 1_555
O14 Pb1 2.811931 1_455
O14 O17 2.923473 1_455
O15 Te1 1.969162 1_555
O15 Pb9 2.480834 1_555
O15 Pb0 2.811931 1_545
O15 O16 2.923473 1_545
O16 Pb5 2.231908 1_655
O16 Pb0 2.267524 1_555
O16 Pb9 2.317340 1_565
O16 Pb11 2.741636 1_555
O16 O9 2.918794 1_555
O17 Pb4 2.231908 1_565
O17 Pb1 2.267524 1_555
O17 Pb8 2.317340 1_655
O17 Pb11 2.741636 1_555
O17 O8 2.918794 1_555
O18 Pb4 2.231908 1_455
O18 Pb2 2.267524 1_555
O18 Pb7 2.317340 1_545
O18 Pb10 2.741636 1_555
O18 O8 2.993357 1_445
O19 Pb5 2.231908 1_545
O19 Pb3 2.267524 1_555
O19 Pb6 2.317340 1_455
O19 Pb10 2.741636 1_556
O19 O9 2.993357 1_445
