# generated using pymatgen
data_K3Al3Si3(WO3)4
_symmetry_space_group_name_H-M   'P 1'
_cell_length_a   9.45440500
_cell_length_b   9.55586282
_cell_length_c   9.61825862
_cell_angle_alpha   89.73510895
_cell_angle_beta   89.20573630
_cell_angle_gamma   89.30410139
_symmetry_Int_Tables_number   1
_chemical_formula_structural   K3Al3Si3(WO3)4
_chemical_formula_sum   'K6 Al6 Si6 W8 O24'
_cell_volume   868.80534481
_cell_formula_units_Z   2
loop_
 _symmetry_equiv_pos_site_id
 _symmetry_equiv_pos_as_xyz
  1  'x, y, z'
loop_
 _atom_site_type_symbol
 _atom_site_label
 _atom_site_symmetry_multiplicity
 _atom_site_fract_x
 _atom_site_fract_y
 _atom_site_fract_z
 _atom_site_occupancy
  K  K0  1  0.19535000  0.59155500  0.87536200  1
  K  K1  1  0.64154300  0.98316800  0.34271600  1
  K  K2  1  0.14938400  0.18881600  0.48188900  1
  K  K3  1  0.22384300  0.62208400  0.40277300  1
  K  K4  1  0.71748700  0.59949100  0.89826800  1
  K  K5  1  0.76733100  0.17790000  0.84647800  1
  Al  Al0  1  0.71831700  0.86157800  0.65742000  1
  Al  Al1  1  0.46609800  0.36074000  0.90565000  1
  Al  Al2  1  0.47191700  0.36515900  0.40326900  1
  Al  Al3  1  0.96197700  0.61828800  0.15111900  1
  Al  Al4  1  0.97730100  0.11507400  0.15055300  1
  Al  Al5  1  0.21418500  0.85890200  0.64914400  1
  Si  Si0  1  0.47189400  0.61005100  0.65035000  1
  Si  Si1  1  0.22200600  0.37096700  0.15986700  1
  Si  Si2  1  0.46988700  0.11327500  0.64479000  1
  Si  Si3  1  0.72117300  0.36218900  0.15118900  1
  Si  Si4  1  0.96453100  0.86640300  0.90519600  1
  Si  Si5  1  0.97244800  0.87672600  0.40534300  1
  W  W0  1  0.83446600  0.58049700  0.43246300  1
  W  W1  1  0.32235400  0.05705300  0.19704500  1
  W  W2  1  0.95606400  0.45060000  0.67812800  1
  W  W3  1  0.10936400  0.22551900  0.83630000  1
  W  W4  1  0.34984400  0.01795500  0.90247500  1
  W  W5  1  0.63016500  0.91182000  0.00404900  1
  W  W6  1  0.37496600  0.76611600  0.10460300  1
  W  W7  1  0.78617800  0.26702600  0.48453100  1
  O  O0  1  0.32551600  0.70802300  0.64811200  1
  O  O1  1  0.61976900  0.36476000  0.01249500  1
  O  O2  1  0.62903500  0.33397800  0.29851700  1
  O  O3  1  0.61187800  0.71120000  0.65699500  1
  O  O4  1  0.80362500  0.51522100  0.16171300  1
  O  O5  1  0.95962800  0.73272400  0.30416500  1
  O  O6  1  0.83614500  0.87002100  0.51245900  1
  O  O7  1  0.32835900  0.01005600  0.66721700  1
  O  O8  1  0.31950400  0.38071300  0.29939100  1
  O  O9  1  0.80485400  0.87764600  0.82518600  1
  O  O10  1  0.12220000  0.87603300  0.48986500  1
  O  O11  1  0.47406900  0.51579300  0.50821000  1
  O  O12  1  0.46885100  0.50568500  0.78888900  1
  O  O13  1  0.96103200  0.72245800  0.99963300  1
  O  O14  1  0.44826500  0.21170200  0.50901300  1
  O  O15  1  0.46856500  0.20147800  0.79631300  1
  O  O16  1  0.96060100  0.01432000  0.30520000  1
  O  O17  1  0.97334600  0.00804000  0.99997500  1
  O  O18  1  0.61066600  0.01434800  0.63378500  1
  O  O19  1  0.09022200  0.85130300  0.78781500  1
  O  O20  1  0.83552500  0.23417400  0.13496100  1
  O  O21  1  0.31671100  0.37392500  0.01601000  1
  O  O22  1  0.13885800  0.21600300  0.18041800  1
  O  O23  1  0.10930300  0.50284000  0.15759500  1
loop_
_geom_bond_atom_site_label_1
_geom_bond_atom_site_label_2
_geom_bond_distance
_geom_bond_site_symmetry_2
K0 O21 2.725899 1_556
K0 O0 2.732553 1_555
K0 O13 2.788229 1_455
K0 O19 2.793167 1_555
K0 O12 2.818959 1_555
K0 O23 2.946819 1_556
K0 W6 3.276348 1_556
K0 W2 3.278371 1_455
K0 W3 3.623018 1_555
K1 O6 2.690388 1_555
K1 O18 2.827467 1_565
K1 O16 3.051025 1_565
K1 O14 3.243605 1_565
K1 W5 3.334518 1_555
K1 W7 3.356209 1_565
K1 O2 3.378041 1_565
K1 W1 3.409495 1_565
K1 O20 3.615326 1_565
K1 W6 4.028661 1_555
K2 O14 2.852487 1_555
K2 O22 2.913011 1_555
K2 O7 2.990628 1_555
K2 O8 2.999039 1_555
K2 O10 3.003585 1_545
K2 O16 3.006115 1_455
K2 W1 3.409296 1_555
K2 W3 3.443585 1_555
K2 W7 3.505176 1_455
K2 W2 3.605269 1_455
K3 O8 2.659379 1_555
K3 O0 2.695690 1_555
K3 O10 2.730180 1_555
K3 O11 2.766845 1_555
K3 O23 2.856179 1_555
K3 O5 2.872207 1_455
K3 W6 3.472482 1_555
K3 W2 3.997961 1_455
K4 O1 2.662951 1_556
K4 O3 2.745396 1_555
K4 O12 2.750380 1_555
K4 O4 2.784718 1_556
K4 O13 2.787775 1_555
K4 O9 2.874258 1_555
K4 W5 3.251054 1_556
K4 W2 3.378280 1_555
K5 O1 2.754737 1_556
K5 O15 2.878118 1_555
K5 O9 2.894601 1_545
K5 O20 2.911297 1_556
K5 O17 2.930669 1_555
K5 O18 2.998551 1_555
K5 W5 3.230105 1_546
K5 W3 3.271106 1_655
K5 W2 3.548283 1_555
K5 W7 3.582684 1_555
Al0 O3 1.764350 1_555
Al0 O6 1.774702 1_555
Al0 O18 1.784926 1_565
Al0 O9 1.827199 1_555
Al1 O21 1.758613 1_556
Al1 O12 1.779327 1_555
Al1 O1 1.792068 1_556
Al1 O15 1.853609 1_555
Al2 O11 1.762355 1_555
Al2 O8 1.769206 1_555
Al2 O14 1.795183 1_555
Al2 O2 1.805828 1_555
Al3 O13 1.760865 1_554
Al3 O23 1.767908 1_655
Al3 O4 1.803452 1_555
Al3 O5 1.837550 1_555
Al4 O20 1.755392 1_555
Al4 O16 1.774344 1_555
Al4 O17 1.777981 1_554
Al4 O22 1.842889 1_655
Al5 O19 1.765116 1_555
Al5 O0 1.774741 1_555
Al5 O10 1.777992 1_555
Al5 O7 1.824043 1_565
W0 W2 2.908456 1_555
W0 W7 3.073300 1_555
W1 W4 2.867309 1_554
W1 W6 2.957065 1_545
W2 W3 2.999399 1_655
W2 W7 3.050554 1_555
W3 W4 3.070398 1_555
W4 W5 3.000723 1_546
W4 W6 3.095658 1_546
W5 W6 2.949543 1_555
O0 Si0 1.661728 1_555
O1 Si3 1.653439 1_555
O2 Si3 1.675546 1_555
O2 W7 2.420252 1_555
O3 Si0 1.650420 1_555
O4 Si3 1.669624 1_555
O4 W0 2.701141 1_555
O5 Si5 1.695576 1_555
O5 W0 2.241385 1_555
O6 Si5 1.640366 1_555
O6 W0 2.875363 1_555
O7 Si2 1.682829 1_555
O7 W4 2.276355 1_555
O7 W3 3.317364 1_555
O8 Si1 1.642195 1_555
O9 Si4 1.705963 1_555
O9 W5 2.388993 1_556
O10 Si5 1.642287 1_455
O11 Si0 1.640408 1_555
O12 Si0 1.660832 1_555
O13 Si4 1.645269 1_555
O14 Si2 1.619654 1_555
O14 W7 3.249691 1_555
O15 Si2 1.686753 1_555
O15 W4 2.318947 1_555
O15 W3 3.417511 1_555
O16 Si5 1.629964 1_545
O16 W7 3.374734 1_555
O17 Si4 1.638931 1_545
O17 W3 2.903359 1_655
O18 Si2 1.625677 1_555
O18 W7 3.262459 1_555
O19 Si4 1.633324 1_455
O19 W4 3.156495 1_565
O19 W3 3.615408 1_565
O20 Si3 1.629299 1_555
O20 W7 3.403481 1_555
O21 Si1 1.637958 1_555
O21 W3 3.004318 1_554
O22 Si1 1.694439 1_555
O22 W1 2.298646 1_555
O22 W3 3.326123 1_554
O23 Si1 1.640619 1_555
O23 W6 3.606091 1_555
