# generated using pymatgen
data_NbAgO3
_symmetry_space_group_name_H-M   'P 1'
_cell_length_a   5.63359769
_cell_length_b   5.63359769
_cell_length_c   8.01232000
_cell_angle_alpha   90.00000000
_cell_angle_beta   90.00000000
_cell_angle_gamma   90.40294273
_symmetry_Int_Tables_number   1
_chemical_formula_structural   NbAgO3
_chemical_formula_sum   'Nb4 Ag4 O12'
_cell_volume   254.28409993
_cell_formula_units_Z   4
loop_
 _symmetry_equiv_pos_site_id
 _symmetry_equiv_pos_as_xyz
  1  'x, y, z'
loop_
 _atom_site_type_symbol
 _atom_site_label
 _atom_site_symmetry_multiplicity
 _atom_site_fract_x
 _atom_site_fract_y
 _atom_site_fract_z
 _atom_site_occupancy
  Nb  Nb0  1  0.50000000  0.00000000  0.00000000  1
  Nb  Nb1  1  0.00000000  0.50000000  0.00000000  1
  Nb  Nb2  1  0.50000000  0.00000000  0.50000000  1
  Nb  Nb3  1  0.00000000  0.50000000  0.50000000  1
  Ag  Ag0  1  0.00443300  0.99556700  0.75000000  1
  Ag  Ag1  1  0.99556700  0.00443300  0.25000000  1
  Ag  Ag2  1  0.50346300  0.49653700  0.75000000  1
  Ag  Ag3  1  0.49653700  0.50346300  0.25000000  1
  O  O0  1  0.70609700  0.70609700  0.00000000  1
  O  O1  1  0.70609700  0.70609700  0.50000000  1
  O  O2  1  0.29390300  0.29390300  0.00000000  1
  O  O3  1  0.29390300  0.29390300  0.50000000  1
  O  O4  1  0.79187200  0.20812800  0.96930300  1
  O  O5  1  0.20812800  0.79187200  0.03069700  1
  O  O6  1  0.79187200  0.20812800  0.53069700  1
  O  O7  1  0.20812800  0.79187200  0.46930300  1
  O  O8  1  0.46105400  0.97718900  0.75000000  1
  O  O9  1  0.97718900  0.46105400  0.25000000  1
  O  O10  1  0.53894600  0.02281100  0.25000000  1
  O  O11  1  0.02281100  0.53894600  0.75000000  1
loop_
_geom_bond_atom_site_label_1
_geom_bond_atom_site_label_2
_geom_bond_distance
_geom_bond_site_symmetry_2
Nb0 O10 2.019056 1_555
Nb0 O8 2.019056 1_544
Nb0 O4 2.027768 1_554
Nb0 O5 2.027768 1_545
Nb0 O2 2.028932 1_555
Nb0 O0 2.028932 1_545
Nb1 O11 2.019056 1_554
Nb1 O9 2.019056 1_455
Nb1 O5 2.027768 1_555
Nb1 O4 2.027768 1_454
Nb1 O2 2.028932 1_555
Nb1 O0 2.028932 1_455
Nb2 O10 2.019056 1_555
Nb2 O8 2.019056 1_545
Nb2 O6 2.027768 1_555
Nb2 O7 2.027768 1_545
Nb2 O3 2.028932 1_555
Nb2 O1 2.028932 1_545
Nb3 O11 2.019056 1_555
Nb3 O9 2.019056 1_455
Nb3 O7 2.027768 1_555
Nb3 O6 2.027768 1_455
Nb3 O3 2.028932 1_555
Nb3 O1 2.028932 1_455
Ag0 O4 2.444502 1_465
Ag0 O6 2.444502 1_465
Ag0 O8 2.575229 1_555
Ag0 O11 2.575229 1_555
Ag0 O5 2.776752 1_556
Ag0 O7 2.776752 1_555
Ag0 O11 3.062201 1_565
Ag0 O8 3.062201 1_455
Ag0 O2 3.075373 1_566
Ag0 O3 3.075373 1_565
Ag0 O1 3.075373 1_455
Ag0 O0 3.075373 1_456
Ag1 O7 2.444502 1_645
Ag1 O5 2.444502 1_645
Ag1 O9 2.575229 1_555
Ag1 O10 2.575229 1_555
Ag1 O6 2.776752 1_555
Ag1 O4 2.776752 1_554
Ag1 O10 3.062201 1_655
Ag1 O9 3.062201 1_545
Ag1 O3 3.075373 1_655
Ag1 O2 3.075373 1_655
Ag1 O0 3.075373 1_545
Ag1 O1 3.075373 1_545
Ag2 O1 2.586560 1_555
Ag2 O0 2.586560 1_556
Ag2 O2 2.586560 1_556
Ag2 O3 2.586560 1_555
Ag2 O11 2.719993 1_555
Ag2 O8 2.719993 1_555
Ag2 O4 2.899042 1_555
Ag2 O6 2.899042 1_555
Ag2 O11 2.933861 1_655
Ag2 O8 2.933861 1_545
Ag3 O0 2.586560 1_555
Ag3 O1 2.586560 1_555
Ag3 O2 2.586560 1_555
Ag3 O3 2.586560 1_555
Ag3 O10 2.719993 1_555
Ag3 O9 2.719993 1_555
Ag3 O7 2.899042 1_555
Ag3 O5 2.899042 1_555
Ag3 O10 2.933861 1_565
Ag3 O9 2.933861 1_455
