# generated using pymatgen
data_La2ZnCoO6
_symmetry_space_group_name_H-M   'P 1'
_cell_length_a   5.47288631
_cell_length_b   9.61700933
_cell_length_c   9.61054176
_cell_angle_alpha   79.25538123
_cell_angle_beta   88.53340818
_cell_angle_gamma   74.31240912
_symmetry_Int_Tables_number   1
_chemical_formula_structural   La2ZnCoO6
_chemical_formula_sum   'La8 Zn4 Co4 O24'
_cell_volume   478.28511975
_cell_formula_units_Z   4
loop_
 _symmetry_equiv_pos_site_id
 _symmetry_equiv_pos_as_xyz
  1  'x, y, z'
loop_
 _atom_site_type_symbol
 _atom_site_label
 _atom_site_symmetry_multiplicity
 _atom_site_fract_x
 _atom_site_fract_y
 _atom_site_fract_z
 _atom_site_occupancy
  La  La0  1  0.31537700  0.37396300  0.43583500  1
  La  La1  1  0.56580800  0.87926300  0.18273600  1
  La  La2  1  0.81562400  0.37066900  0.93944000  1
  La  La3  1  0.06326600  0.87862900  0.68828300  1
  La  La4  1  0.43554300  0.11885600  0.81775800  1
  La  La5  1  0.68460100  0.62680300  0.56047600  1
  La  La6  1  0.93587100  0.12277600  0.31125400  1
  La  La7  1  0.18360500  0.62876000  0.06442000  1
  Zn  Zn0  1  0.87551900  0.24792500  0.62521800  1
  Zn  Zn1  1  0.12483800  0.75182300  0.37262500  1
  Zn  Zn2  1  0.37613400  0.24838200  0.12649700  1
  Zn  Zn3  1  0.62369200  0.75153200  0.87575900  1
  Co  Co0  1  0.50023200  0.99971800  0.50039900  1
  Co  Co1  1  0.75020300  0.49937100  0.25072000  1
  Co  Co2  1  0.00024200  0.00040300  0.99926600  1
  Co  Co3  1  0.24972800  0.50030900  0.74951300  1
  O  O0  1  0.73282600  0.08521100  0.57385000  1
  O  O1  1  0.98054600  0.58373400  0.32685400  1
  O  O2  1  0.23584200  0.08793700  0.07331200  1
  O  O3  1  0.48174100  0.58520400  0.82365300  1
  O  O4  1  0.92508700  0.15824500  0.83464600  1
  O  O5  1  0.17845800  0.65226800  0.58742100  1
  O  O6  1  0.42800500  0.15342900  0.33970900  1
  O  O7  1  0.68036000  0.65306600  0.08857300  1
  O  O8  1  0.51635900  0.38398600  0.65595700  1
  O  O9  1  0.76549100  0.88330100  0.40432200  1
  O  O10  1  0.01842100  0.38342700  0.15491800  1
  O  O11  1  0.26776900  0.88047400  0.90241700  1
  O  O12  1  0.01981900  0.41594000  0.67448300  1
  O  O13  1  0.26712300  0.91379900  0.42749100  1
  O  O14  1  0.51730600  0.41535500  0.17595100  1
  O  O15  1  0.76468200  0.91292900  0.92456400  1
  O  O16  1  0.23582700  0.11603300  0.59696500  1
  O  O17  1  0.48218000  0.61380800  0.34720700  1
  O  O18  1  0.73166800  0.12061600  0.09568000  1
  O  O19  1  0.98244300  0.61870100  0.84216300  1
  O  O20  1  0.82164300  0.34414700  0.41342500  1
  O  O21  1  0.07352700  0.84380900  0.16415800  1
  O  O22  1  0.32009700  0.35047300  0.91108700  1
  O  O23  1  0.57249900  0.84492600  0.66099300  1
loop_
_geom_bond_atom_site_label_1
_geom_bond_atom_site_label_2
_geom_bond_distance
_geom_bond_site_symmetry_2
La0 O6 2.392897 1_555
La0 O1 2.415785 1_455
La0 O8 2.438641 1_555
La0 O17 2.691765 1_555
La0 O14 2.709948 1_555
La0 O20 2.714484 1_555
La0 O12 2.800350 1_555
La0 O16 2.803169 1_555
La0 O20 2.811058 1_455
La1 O2 2.396847 1_565
La1 O9 2.429765 1_555
La1 O7 2.431368 1_555
La1 O15 2.683001 1_554
La1 O18 2.699608 1_565
La1 O21 2.711861 1_655
La1 O21 2.819740 1_555
La1 O13 2.848913 1_555
La1 O17 2.883644 1_555
La2 O4 2.370864 1_555
La2 O10 2.412756 1_656
La2 O3 2.458311 1_555
La2 O22 2.725051 1_655
La2 O18 2.732127 1_556
La2 O12 2.761625 1_655
La2 O19 2.774859 1_555
La2 O22 2.794481 1_555
La2 O14 2.794926 1_556
La3 O11 2.372838 1_555
La3 O0 2.402324 1_465
La3 O5 2.467666 1_555
La3 O16 2.692812 1_565
La3 O13 2.717684 1_555
La3 O23 2.728891 1_555
La3 O15 2.780912 1_455
La3 O19 2.795969 1_455
La3 O23 2.815405 1_455
La4 O15 2.372331 1_545
La4 O16 2.419570 1_555
La4 O22 2.473895 1_555
La4 O2 2.661010 1_556
La4 O11 2.676822 1_545
La4 O4 2.720633 1_455
La4 O4 2.818168 1_555
La4 O0 2.837155 1_555
La4 O8 2.865521 1_555
La5 O17 2.393845 1_555
La5 O23 2.395658 1_555
La5 O12 2.437433 1_655
La5 O5 2.724032 1_555
La5 O8 2.731928 1_555
La5 O3 2.740264 1_555
La5 O1 2.762931 1_555
La5 O9 2.776549 1_555
La5 O5 2.801734 1_655
La6 O18 2.385125 1_555
La6 O13 2.422768 1_645
La6 O20 2.432201 1_555
La6 O9 2.706299 1_545
La6 O6 2.726778 1_555
La6 O0 2.732760 1_555
La6 O2 2.798703 1_655
La6 O6 2.813039 1_655
La6 O10 2.813964 1_655
La7 O21 2.365312 1_555
La7 O14 2.439128 1_555
La7 O19 2.457432 1_454
La7 O7 2.708044 1_455
La7 O10 2.736500 1_555
La7 O1 2.737377 1_455
La7 O11 2.767160 1_554
La7 O7 2.809975 1_555
La7 O3 2.826739 1_554
Co0 O6 1.894839 1_565
Co0 O23 1.900187 1_555
Co0 O0 1.903447 1_565
Co0 O13 1.906048 1_555
Co0 O16 1.910368 1_565
Co0 O9 1.910879 1_555
Co1 O1 1.898549 1_555
Co1 O14 1.901088 1_555
Co1 O7 1.904032 1_555
Co1 O17 1.913275 1_555
Co1 O20 1.916169 1_555
Co1 O10 1.916840 1_655
Co2 O2 1.932607 1_556
Co2 O15 1.934987 1_445
Co2 O21 1.938074 1_546
Co2 O11 1.938451 1_545
Co2 O18 1.940719 1_456
Co2 O4 1.943352 1_455
Co3 O22 1.879402 1_555
Co3 O12 1.891617 1_555
Co3 O5 1.894341 1_555
Co3 O3 1.900119 1_555
Co3 O8 1.901142 1_555
Co3 O19 1.907797 1_455
O0 Zn0 2.066613 1_555
O0 O16 2.663330 1_555
O0 O23 2.673670 1_545
O1 Zn1 2.098448 1_655
O1 O20 2.662563 1_555
O2 Zn2 2.046087 1_555
O3 Zn3 2.098468 1_555
O4 Zn0 2.030425 1_555
O5 Zn1 2.099112 1_555
O6 Zn2 2.074874 1_555
O7 Zn3 2.080260 1_554
O8 Zn0 2.094440 1_555
O9 Zn1 2.080270 1_655
O10 Zn2 2.079401 1_555
O10 O20 2.684740 1_455
O11 Zn3 2.045579 1_555
O12 Zn0 2.110244 1_455
O12 O5 2.634429 1_555
O12 O8 2.656126 1_555
O13 Zn1 2.072243 1_555
O13 O9 2.671249 1_555
O14 Zn2 2.091806 1_555
O14 O7 2.660205 1_555
O15 Zn3 2.040161 1_555
O16 Zn0 2.078333 1_455
O16 O6 2.662345 1_555
O17 Zn1 2.082977 1_555
O18 Zn2 2.048626 1_555
O19 Zn3 2.087111 1_555
O19 O5 2.647059 1_655
O19 O3 2.668889 1_655
O20 Zn0 2.065708 1_555
O21 Zn1 2.027062 1_555
O22 Zn2 2.110821 1_556
O22 O3 2.630446 1_555
O22 O8 2.650915 1_555
O23 Zn3 2.085105 1_555
O23 O9 2.659820 1_555
