# generated using pymatgen
data_Mn2Zn(CuO4)2
_symmetry_space_group_name_H-M   'P 1'
_cell_length_a   6.40351067
_cell_length_b   8.30493500
_cell_length_c   11.88369379
_cell_angle_alpha   90.00000000
_cell_angle_beta   90.56455627
_cell_angle_gamma   90.00000000
_symmetry_Int_Tables_number   1
_chemical_formula_structural   Mn2Zn(CuO4)2
_chemical_formula_sum   'Mn8 Zn4 Cu8 O32'
_cell_volume   631.95294938
_cell_formula_units_Z   4
loop_
 _symmetry_equiv_pos_site_id
 _symmetry_equiv_pos_as_xyz
  1  'x, y, z'
loop_
 _atom_site_type_symbol
 _atom_site_label
 _atom_site_symmetry_multiplicity
 _atom_site_fract_x
 _atom_site_fract_y
 _atom_site_fract_z
 _atom_site_occupancy
  Mn  Mn0  1  0.09905300  0.46104500  0.84519800  1
  Mn  Mn1  1  0.09905300  0.03895500  0.34519800  1
  Mn  Mn2  1  0.61163900  0.09093900  0.13160300  1
  Mn  Mn3  1  0.90094700  0.96104500  0.65480200  1
  Mn  Mn4  1  0.38836100  0.90906100  0.86839700  1
  Mn  Mn5  1  0.38836100  0.59093900  0.36839700  1
  Mn  Mn6  1  0.61163900  0.40906100  0.63160300  1
  Mn  Mn7  1  0.90094700  0.53895500  0.15480200  1
  Zn  Zn0  1  0.11034400  0.16711000  0.05009800  1
  Zn  Zn1  1  0.88965600  0.83289000  0.94990200  1
  Zn  Zn2  1  0.88965600  0.66711000  0.44990200  1
  Zn  Zn3  1  0.11034400  0.33289000  0.55009800  1
  Cu  Cu0  1  0.76190300  0.17540500  0.86486900  1
  Cu  Cu1  1  0.38768500  0.05333700  0.63170900  1
  Cu  Cu2  1  0.61231500  0.94666300  0.36829100  1
  Cu  Cu3  1  0.23809700  0.82459500  0.13513100  1
  Cu  Cu4  1  0.76190300  0.32459500  0.36486900  1
  Cu  Cu5  1  0.38768500  0.44666300  0.13170900  1
  Cu  Cu6  1  0.23809700  0.67540500  0.63513100  1
  Cu  Cu7  1  0.61231500  0.55333700  0.86829100  1
  O  O0  1  0.03449100  0.23137600  0.39372300  1
  O  O1  1  0.67081200  0.01434500  0.59063200  1
  O  O2  1  0.18884200  0.57909300  0.47051300  1
  O  O3  1  0.81115800  0.07909300  0.02948700  1
  O  O4  1  0.03449100  0.26862400  0.89372300  1
  O  O5  1  0.96550900  0.76862400  0.60627700  1
  O  O6  1  0.08953900  0.10129600  0.61617500  1
  O  O7  1  0.51588500  0.89940800  0.13921500  1
  O  O8  1  0.51588500  0.60059200  0.63921500  1
  O  O9  1  0.32066900  0.86750900  0.72852400  1
  O  O10  1  0.67933100  0.36750900  0.77147600  1
  O  O11  1  0.48411500  0.10059200  0.86078500  1
  O  O12  1  0.91046100  0.89870400  0.38382500  1
  O  O13  1  0.87563000  0.53330100  0.29782700  1
  O  O14  1  0.41486200  0.28077600  0.58494500  1
  O  O15  1  0.41486200  0.21922400  0.08494500  1
  O  O16  1  0.12437000  0.03330100  0.20217300  1
  O  O17  1  0.48411500  0.39940800  0.36078500  1
  O  O18  1  0.12437000  0.46669900  0.70217300  1
  O  O19  1  0.81115800  0.42090700  0.52948700  1
  O  O20  1  0.67081200  0.48565500  0.09063200  1
  O  O21  1  0.67933100  0.13249200  0.27147600  1
  O  O22  1  0.96550900  0.73137600  0.10627700  1
  O  O23  1  0.08953900  0.39870400  0.11617500  1
  O  O24  1  0.18884200  0.92090700  0.97051300  1
  O  O25  1  0.58513800  0.78077600  0.91505500  1
  O  O26  1  0.32918700  0.98565500  0.40936800  1
  O  O27  1  0.32918700  0.51434500  0.90936800  1
  O  O28  1  0.91046100  0.60129600  0.88382500  1
  O  O29  1  0.58513800  0.71922400  0.41505500  1
  O  O30  1  0.32066900  0.63249100  0.22852400  1
  O  O31  1  0.87563000  0.96669900  0.79782700  1
loop_
_geom_bond_atom_site_label_1
_geom_bond_atom_site_label_2
_geom_bond_distance
_geom_bond_site_symmetry_2
Mn0 O18 1.709614 1_555
Mn0 O27 1.710850 1_555
Mn0 O28 1.742629 1_455
Mn0 O4 1.749827 1_555
Mn1 O16 1.709614 1_555
Mn1 O26 1.710850 1_545
Mn1 O12 1.742629 1_445
Mn1 O0 1.749827 1_555
Mn2 O7 1.707460 1_545
Mn2 O15 1.736808 1_555
Mn2 O21 1.748062 1_555
Mn2 O3 1.773462 1_555
Mn3 O31 1.709614 1_555
Mn3 O1 1.710856 1_565
Mn3 O6 1.742629 1_665
Mn3 O5 1.749827 1_555
Mn4 O11 1.707460 1_565
Mn4 O25 1.736808 1_555
Mn4 O9 1.748060 1_555
Mn4 O24 1.773462 1_555
Mn5 O17 1.707460 1_555
Mn5 O29 1.736808 1_555
Mn5 O30 1.748060 1_555
Mn5 O2 1.773462 1_555
Mn6 O8 1.707460 1_555
Mn6 O14 1.736808 1_555
Mn6 O10 1.748060 1_555
Mn6 O19 1.773462 1_555
Mn7 O13 1.709614 1_555
Mn7 O20 1.710856 1_555
Mn7 O23 1.742629 1_655
Mn7 O22 1.749827 1_555
Cu0 O11 1.884379 1_555
Cu0 O4 1.937001 1_655
Cu0 O10 2.011250 1_555
Cu0 O31 2.044705 1_545
Cu0 O3 2.134033 1_556
Cu1 O1 1.909865 1_555
Cu1 O6 1.957229 1_555
Cu1 O9 1.974671 1_545
Cu1 O14 1.977079 1_555
Cu2 O26 1.909871 1_555
Cu2 O12 1.957229 1_555
Cu2 O21 1.974678 1_565
Cu2 O29 1.977079 1_555
Cu3 O7 1.884379 1_555
Cu3 O22 1.937001 1_455
Cu3 O30 2.011250 1_555
Cu3 O16 2.044705 1_565
Cu3 O24 2.134033 1_554
Cu4 O17 1.884379 1_555
Cu4 O0 1.937001 1_655
Cu4 O21 2.011243 1_555
Cu4 O13 2.044705 1_555
Cu4 O19 2.134033 1_555
Cu5 O20 1.909865 1_555
Cu5 O23 1.957229 1_555
Cu5 O30 1.974671 1_555
Cu5 O15 1.977079 1_555
Cu6 O8 1.884379 1_555
Cu6 O5 1.937001 1_455
Cu6 O9 2.011250 1_555
Cu6 O18 2.044705 1_555
Cu6 O2 2.134033 1_555
Cu7 O27 1.909871 1_555
Cu7 O28 1.957229 1_555
Cu7 O10 1.974671 1_555
Cu7 O25 1.977079 1_555
O0 Zn3 2.093378 1_555
O2 Zn2 2.062890 1_455
O2 Zn3 2.310261 1_555
O3 Zn0 2.062890 1_655
O3 Zn1 2.310261 1_544
O4 Zn0 2.093378 1_556
O5 Zn2 2.093378 1_555
O6 Zn3 2.082252 1_555
O12 Zn2 2.082252 1_555
O13 Zn2 2.122691 1_555
O14 Zn3 2.036009 1_555
O15 Zn0 2.036009 1_555
O16 Zn0 2.122691 1_555
O18 Zn3 2.122691 1_555
O19 Zn3 2.062890 1_655
O19 Zn2 2.310261 1_555
O22 Zn1 2.093378 1_554
O23 Zn0 2.082252 1_555
O24 Zn1 2.062890 1_455
O24 Zn0 2.310261 1_566
O25 Zn1 2.036009 1_555
O28 Zn1 2.082252 1_555
O29 Zn2 2.036009 1_555
O31 Zn1 2.122691 1_555
