# generated using pymatgen
data_Nd2SbO2
_symmetry_space_group_name_H-M   'P 1'
_cell_length_a   8.14365000
_cell_length_b   27.67893200
_cell_length_c   15.73772000
_cell_angle_alpha   90.00000000
_cell_angle_beta   90.00000000
_cell_angle_gamma   90.00000000
_symmetry_Int_Tables_number   1
_chemical_formula_structural   Nd2SbO2
_chemical_formula_sum   'Nd64 Sb32 O64'
_cell_volume   3547.40066514
_cell_formula_units_Z   32
loop_
 _symmetry_equiv_pos_site_id
 _symmetry_equiv_pos_as_xyz
  1  'x, y, z'
loop_
 _atom_site_type_symbol
 _atom_site_label
 _atom_site_symmetry_multiplicity
 _atom_site_fract_x
 _atom_site_fract_y
 _atom_site_fract_z
 _atom_site_occupancy
  Nd  Nd0_0  1  0.00000000  0.16890600  0.43823800  1
  Nd  Nd0_1  1  0.00000000  0.16890600  0.93823800  1
  Nd  Nd0_2  1  0.00000000  0.66890600  0.43823800  1
  Nd  Nd0_3  1  0.00000000  0.66890600  0.93823800  1
  Nd  Nd0_4  1  0.50000000  0.16890600  0.43823800  1
  Nd  Nd0_5  1  0.50000000  0.16890600  0.93823800  1
  Nd  Nd0_6  1  0.50000000  0.66890600  0.43823800  1
  Nd  Nd0_7  1  0.50000000  0.66890600  0.93823800  1
  Nd  Nd1_0  1  0.00000000  0.33109400  0.43823800  1
  Nd  Nd1_1  1  0.00000000  0.33109400  0.93823800  1
  Nd  Nd1_2  1  0.00000000  0.83109400  0.43823800  1
  Nd  Nd1_3  1  0.00000000  0.83109400  0.93823800  1
  Nd  Nd1_4  1  0.50000000  0.33109400  0.43823800  1
  Nd  Nd1_5  1  0.50000000  0.33109400  0.93823800  1
  Nd  Nd1_6  1  0.50000000  0.83109400  0.43823800  1
  Nd  Nd1_7  1  0.50000000  0.83109400  0.93823800  1
  Nd  Nd2_0  1  0.25000000  0.08109400  0.06176200  1
  Nd  Nd2_1  1  0.25000000  0.08109400  0.56176200  1
  Nd  Nd2_2  1  0.25000000  0.58109400  0.06176200  1
  Nd  Nd2_3  1  0.25000000  0.58109400  0.56176200  1
  Nd  Nd2_4  1  0.75000000  0.08109400  0.06176200  1
  Nd  Nd2_5  1  0.75000000  0.08109400  0.56176200  1
  Nd  Nd2_6  1  0.75000000  0.58109400  0.06176200  1
  Nd  Nd2_7  1  0.75000000  0.58109400  0.56176200  1
  Nd  Nd3_0  1  0.25000000  0.41890600  0.06176200  1
  Nd  Nd3_1  1  0.25000000  0.41890600  0.56176200  1
  Nd  Nd3_2  1  0.25000000  0.91890600  0.06176200  1
  Nd  Nd3_3  1  0.25000000  0.91890600  0.56176200  1
  Nd  Nd3_4  1  0.75000000  0.41890600  0.06176200  1
  Nd  Nd3_5  1  0.75000000  0.41890600  0.56176200  1
  Nd  Nd3_6  1  0.75000000  0.91890600  0.06176200  1
  Nd  Nd3_7  1  0.75000000  0.91890600  0.56176200  1
  Nd  Nd4_0  1  0.00000000  0.16710850  0.18680300  1
  Nd  Nd4_1  1  0.00000000  0.16710850  0.68680300  1
  Nd  Nd4_2  1  0.00000000  0.66710850  0.18680300  1
  Nd  Nd4_3  1  0.00000000  0.66710850  0.68680300  1
  Nd  Nd4_4  1  0.50000000  0.16710850  0.18680300  1
  Nd  Nd4_5  1  0.50000000  0.16710850  0.68680300  1
  Nd  Nd4_6  1  0.50000000  0.66710850  0.18680300  1
  Nd  Nd4_7  1  0.50000000  0.66710850  0.68680300  1
  Nd  Nd5_0  1  0.00000000  0.33289150  0.18680300  1
  Nd  Nd5_1  1  0.00000000  0.33289150  0.68680300  1
  Nd  Nd5_2  1  0.00000000  0.83289150  0.18680300  1
  Nd  Nd5_3  1  0.00000000  0.83289150  0.68680300  1
  Nd  Nd5_4  1  0.50000000  0.33289150  0.18680300  1
  Nd  Nd5_5  1  0.50000000  0.33289150  0.68680300  1
  Nd  Nd5_6  1  0.50000000  0.83289150  0.18680300  1
  Nd  Nd5_7  1  0.50000000  0.83289150  0.68680300  1
  Nd  Nd6_0  1  0.25000000  0.08289150  0.31319700  1
  Nd  Nd6_1  1  0.25000000  0.08289150  0.81319700  1
  Nd  Nd6_2  1  0.25000000  0.58289150  0.31319700  1
  Nd  Nd6_3  1  0.25000000  0.58289150  0.81319700  1
  Nd  Nd6_4  1  0.75000000  0.08289150  0.31319700  1
  Nd  Nd6_5  1  0.75000000  0.08289150  0.81319700  1
  Nd  Nd6_6  1  0.75000000  0.58289150  0.31319700  1
  Nd  Nd6_7  1  0.75000000  0.58289150  0.81319700  1
  Nd  Nd7_0  1  0.25000000  0.41710850  0.31319700  1
  Nd  Nd7_1  1  0.25000000  0.41710850  0.81319700  1
  Nd  Nd7_2  1  0.25000000  0.91710850  0.31319700  1
  Nd  Nd7_3  1  0.25000000  0.91710850  0.81319700  1
  Nd  Nd7_4  1  0.75000000  0.41710850  0.31319700  1
  Nd  Nd7_5  1  0.75000000  0.41710850  0.81319700  1
  Nd  Nd7_6  1  0.75000000  0.91710850  0.31319700  1
  Nd  Nd7_7  1  0.75000000  0.91710850  0.81319700  1
  Sb  Sb0_0  1  0.00000000  0.00000000  0.42191300  1
  Sb  Sb0_1  1  0.00000000  0.00000000  0.92191300  1
  Sb  Sb0_2  1  0.00000000  0.50000000  0.42191300  1
  Sb  Sb0_3  1  0.00000000  0.50000000  0.92191300  1
  Sb  Sb0_4  1  0.50000000  0.00000000  0.42191300  1
  Sb  Sb0_5  1  0.50000000  0.00000000  0.92191300  1
  Sb  Sb0_6  1  0.50000000  0.50000000  0.42191300  1
  Sb  Sb0_7  1  0.50000000  0.50000000  0.92191300  1
  Sb  Sb1_0  1  0.25000000  0.25000000  0.07808700  1
  Sb  Sb1_1  1  0.25000000  0.25000000  0.57808700  1
  Sb  Sb1_2  1  0.25000000  0.75000000  0.07808700  1
  Sb  Sb1_3  1  0.25000000  0.75000000  0.57808700  1
  Sb  Sb1_4  1  0.75000000  0.25000000  0.07808700  1
  Sb  Sb1_5  1  0.75000000  0.25000000  0.57808700  1
  Sb  Sb1_6  1  0.75000000  0.75000000  0.07808700  1
  Sb  Sb1_7  1  0.75000000  0.75000000  0.57808700  1
  Sb  Sb2_0  1  0.00000000  0.00000000  0.20332300  1
  Sb  Sb2_1  1  0.00000000  0.00000000  0.70332300  1
  Sb  Sb2_2  1  0.00000000  0.50000000  0.20332300  1
  Sb  Sb2_3  1  0.00000000  0.50000000  0.70332300  1
  Sb  Sb2_4  1  0.50000000  0.00000000  0.20332300  1
  Sb  Sb2_5  1  0.50000000  0.00000000  0.70332300  1
  Sb  Sb2_6  1  0.50000000  0.50000000  0.20332300  1
  Sb  Sb2_7  1  0.50000000  0.50000000  0.70332300  1
  Sb  Sb3_0  1  0.25000000  0.25000000  0.29667700  1
  Sb  Sb3_1  1  0.25000000  0.25000000  0.79667700  1
  Sb  Sb3_2  1  0.25000000  0.75000000  0.29667700  1
  Sb  Sb3_3  1  0.25000000  0.75000000  0.79667700  1
  Sb  Sb3_4  1  0.75000000  0.25000000  0.29667700  1
  Sb  Sb3_5  1  0.75000000  0.25000000  0.79667700  1
  Sb  Sb3_6  1  0.75000000  0.75000000  0.29667700  1
  Sb  Sb3_7  1  0.75000000  0.75000000  0.79667700  1
  O  O0_0  1  0.00000000  0.12572300  0.31390750  1
  O  O0_1  1  0.00000000  0.12572300  0.81390750  1
  O  O0_2  1  0.00000000  0.62572300  0.31390750  1
  O  O0_3  1  0.00000000  0.62572300  0.81390750  1
  O  O0_4  1  0.50000000  0.12572300  0.31390750  1
  O  O0_5  1  0.50000000  0.12572300  0.81390750  1
  O  O0_6  1  0.50000000  0.62572300  0.31390750  1
  O  O0_7  1  0.50000000  0.62572300  0.81390750  1
  O  O1_0  1  0.00000000  0.37427700  0.31390750  1
  O  O1_1  1  0.00000000  0.37427700  0.81390750  1
  O  O1_2  1  0.00000000  0.87427700  0.31390750  1
  O  O1_3  1  0.00000000  0.87427700  0.81390750  1
  O  O1_4  1  0.50000000  0.37427700  0.31390750  1
  O  O1_5  1  0.50000000  0.37427700  0.81390750  1
  O  O1_6  1  0.50000000  0.87427700  0.31390750  1
  O  O1_7  1  0.50000000  0.87427700  0.81390750  1
  O  O2_0  1  0.25000000  0.12427700  0.18609250  1
  O  O2_1  1  0.25000000  0.12427700  0.68609250  1
  O  O2_2  1  0.25000000  0.62427700  0.18609250  1
  O  O2_3  1  0.25000000  0.62427700  0.68609250  1
  O  O2_4  1  0.75000000  0.12427700  0.18609250  1
  O  O2_5  1  0.75000000  0.12427700  0.68609250  1
  O  O2_6  1  0.75000000  0.62427700  0.18609250  1
  O  O2_7  1  0.75000000  0.62427700  0.68609250  1
  O  O3_0  1  0.25000000  0.37572300  0.18609250  1
  O  O3_1  1  0.25000000  0.37572300  0.68609250  1
  O  O3_2  1  0.25000000  0.87572300  0.18609250  1
  O  O3_3  1  0.25000000  0.87572300  0.68609250  1
  O  O3_4  1  0.75000000  0.37572300  0.18609250  1
  O  O3_5  1  0.75000000  0.37572300  0.68609250  1
  O  O3_6  1  0.75000000  0.87572300  0.18609250  1
  O  O3_7  1  0.75000000  0.87572300  0.68609250  1
  O  O4_0  1  0.00000000  0.12237800  0.06108800  1
  O  O4_1  1  0.00000000  0.12237800  0.56108800  1
  O  O4_2  1  0.00000000  0.62237800  0.06108800  1
  O  O4_3  1  0.00000000  0.62237800  0.56108800  1
  O  O4_4  1  0.50000000  0.12237800  0.06108800  1
  O  O4_5  1  0.50000000  0.12237800  0.56108800  1
  O  O4_6  1  0.50000000  0.62237800  0.06108800  1
  O  O4_7  1  0.50000000  0.62237800  0.56108800  1
  O  O5_0  1  0.00000000  0.37762200  0.06108800  1
  O  O5_1  1  0.00000000  0.37762200  0.56108800  1
  O  O5_2  1  0.00000000  0.87762200  0.06108800  1
  O  O5_3  1  0.00000000  0.87762200  0.56108800  1
  O  O5_4  1  0.50000000  0.37762200  0.06108800  1
  O  O5_5  1  0.50000000  0.37762200  0.56108800  1
  O  O5_6  1  0.50000000  0.87762200  0.06108800  1
  O  O5_7  1  0.50000000  0.87762200  0.56108800  1
  O  O6_0  1  0.25000000  0.12762200  0.43891200  1
  O  O6_1  1  0.25000000  0.12762200  0.93891200  1
  O  O6_2  1  0.25000000  0.62762200  0.43891200  1
  O  O6_3  1  0.25000000  0.62762200  0.93891200  1
  O  O6_4  1  0.75000000  0.12762200  0.43891200  1
  O  O6_5  1  0.75000000  0.12762200  0.93891200  1
  O  O6_6  1  0.75000000  0.62762200  0.43891200  1
  O  O6_7  1  0.75000000  0.62762200  0.93891200  1
  O  O7_0  1  0.25000000  0.37237800  0.43891200  1
  O  O7_1  1  0.25000000  0.37237800  0.93891200  1
  O  O7_2  1  0.25000000  0.87237800  0.43891200  1
  O  O7_3  1  0.25000000  0.87237800  0.93891200  1
  O  O7_4  1  0.75000000  0.37237800  0.43891200  1
  O  O7_5  1  0.75000000  0.37237800  0.93891200  1
  O  O7_6  1  0.75000000  0.87237800  0.43891200  1
  O  O7_7  1  0.75000000  0.87237800  0.93891200  1
loop_
_geom_bond_atom_site_label_1
_geom_bond_atom_site_label_2
_geom_bond_distance
_geom_bond_site_symmetry_2
Nd0_0 O0_0 2.292866 1_555
Nd0_0 O4_1 2.323037 1_555
Nd0_0 O6_0 2.334697 1_555
Nd0_0 O6_4 2.334697 1_455
Nd0_0 Sb1_1 3.745281 1_555
Nd0_0 Sb1_5 3.745281 1_455
Nd0_0 Sb3_0 3.761177 1_555
Nd0_0 Sb3_4 3.761177 1_455
Nd0_1 O0_1 2.292866 1_555
Nd0_1 O4_0 2.323037 1_556
Nd0_1 O6_5 2.334697 1_455
Nd0_1 O6_1 2.334697 1_555
Nd0_1 Sb1_4 3.745281 1_456
Nd0_1 Sb1_0 3.745281 1_556
Nd0_1 Sb3_5 3.761177 1_455
Nd0_1 Sb3_1 3.761177 1_555
Nd0_2 O0_2 2.292866 1_555
Nd0_2 O4_3 2.323037 1_555
Nd0_2 O6_2 2.334697 1_555
Nd0_2 O6_6 2.334697 1_455
Nd0_2 Sb1_7 3.745281 1_455
Nd0_2 Sb1_3 3.745281 1_555
Nd0_2 Sb3_2 3.761177 1_555
Nd0_2 Sb3_6 3.761177 1_455
Nd0_3 O0_3 2.292866 1_555
Nd0_3 O4_2 2.323037 1_556
Nd0_3 O6_3 2.334697 1_555
Nd0_3 O6_7 2.334697 1_455
Nd0_3 Sb1_6 3.745281 1_456
Nd0_3 Sb1_2 3.745281 1_556
Nd0_3 Sb3_7 3.761177 1_455
Nd0_3 Sb3_3 3.761177 1_555
Nd0_4 O0_4 2.292866 1_555
Nd0_4 O4_5 2.323037 1_555
Nd0_4 O6_4 2.334697 1_555
Nd0_4 O6_0 2.334697 1_555
Nd0_4 Sb1_1 3.745281 1_555
Nd0_4 Sb1_5 3.745281 1_555
Nd0_4 Sb3_0 3.761177 1_555
Nd0_4 Sb3_4 3.761177 1_555
Nd0_5 O0_5 2.292866 1_555
Nd0_5 O4_4 2.323037 1_556
Nd0_5 O6_5 2.334697 1_555
Nd0_5 O6_1 2.334697 1_555
Nd0_5 Sb1_0 3.745281 1_556
Nd0_5 Sb1_4 3.745281 1_556
Nd0_5 Sb3_5 3.761177 1_555
Nd0_5 Sb3_1 3.761177 1_555
Nd0_6 O0_6 2.292866 1_555
Nd0_6 O4_7 2.323037 1_555
Nd0_6 O6_2 2.334697 1_555
Nd0_6 O6_6 2.334697 1_555
Nd0_6 Sb1_7 3.745281 1_555
Nd0_6 Sb1_3 3.745281 1_555
Nd0_6 Sb3_2 3.761177 1_555
Nd0_6 Sb3_6 3.761177 1_555
Nd0_7 O0_7 2.292866 1_555
Nd0_7 O4_6 2.323037 1_556
Nd0_7 O6_3 2.334697 1_555
Nd0_7 O6_7 2.334697 1_555
Nd0_7 Sb1_6 3.745281 1_556
Nd0_7 Sb1_2 3.745281 1_556
Nd0_7 Sb3_3 3.761177 1_555
Nd0_7 Sb3_7 3.761177 1_555
Nd1_0 O1_0 2.292866 1_555
Nd1_0 O5_1 2.323037 1_555
Nd1_0 O7_4 2.334697 1_455
Nd1_0 O7_0 2.334697 1_555
Nd1_0 Sb1_1 3.745281 1_555
Nd1_0 Sb1_5 3.745281 1_455
Nd1_0 Sb3_4 3.761177 1_455
Nd1_0 Sb3_0 3.761177 1_555
Nd1_1 O1_1 2.292866 1_555
Nd1_1 O5_0 2.323037 1_556
Nd1_1 O7_1 2.334697 1_555
Nd1_1 O7_5 2.334697 1_455
Nd1_1 Sb1_4 3.745281 1_456
Nd1_1 Sb1_0 3.745281 1_556
Nd1_1 Sb3_1 3.761177 1_555
Nd1_1 Sb3_5 3.761177 1_455
Nd1_2 O1_2 2.292866 1_555
Nd1_2 O5_3 2.323037 1_555
Nd1_2 O7_2 2.334697 1_555
Nd1_2 O7_6 2.334697 1_455
Nd1_2 Sb1_7 3.745281 1_455
Nd1_2 Sb1_3 3.745281 1_555
Nd1_2 Sb3_6 3.761177 1_455
Nd1_2 Sb3_2 3.761177 1_555
Nd1_3 O1_3 2.292866 1_555
Nd1_3 O5_2 2.323037 1_556
Nd1_3 O7_7 2.334697 1_455
Nd1_3 O7_3 2.334697 1_555
Nd1_3 Sb1_2 3.745281 1_556
Nd1_3 Sb1_6 3.745281 1_456
Nd1_3 Sb3_7 3.761177 1_455
Nd1_3 Sb3_3 3.761177 1_555
Nd1_4 O1_4 2.292866 1_555
Nd1_4 O5_5 2.323037 1_555
Nd1_4 O7_4 2.334697 1_555
Nd1_4 O7_0 2.334697 1_555
Nd1_4 Sb1_5 3.745281 1_555
Nd1_4 Sb1_1 3.745281 1_555
Nd1_4 Sb3_0 3.761177 1_555
Nd1_4 Sb3_4 3.761177 1_555
Nd1_5 O1_5 2.292866 1_555
Nd1_5 O5_4 2.323037 1_556
Nd1_5 O7_1 2.334697 1_555
Nd1_5 O7_5 2.334697 1_555
Nd1_5 Sb1_0 3.745281 1_556
Nd1_5 Sb1_4 3.745281 1_556
Nd1_5 Sb3_1 3.761177 1_555
Nd1_5 Sb3_5 3.761177 1_555
Nd1_6 O1_6 2.292866 1_555
Nd1_6 O5_7 2.323037 1_555
Nd1_6 O7_2 2.334697 1_555
Nd1_6 O7_6 2.334697 1_555
Nd1_6 Sb1_3 3.745281 1_555
Nd1_6 Sb1_7 3.745281 1_555
Nd1_6 Sb3_6 3.761177 1_555
Nd1_6 Sb3_2 3.761177 1_555
Nd1_7 O1_7 2.292866 1_555
Nd1_7 O5_6 2.323037 1_556
Nd1_7 O7_7 2.334697 1_555
Nd1_7 O7_3 2.334697 1_555
Nd1_7 Sb1_2 3.745281 1_556
Nd1_7 Sb1_6 3.745281 1_556
Nd1_7 Sb3_3 3.761177 1_555
Nd1_7 Sb3_7 3.761177 1_555
Nd2_0 O2_0 2.292866 1_555
Nd2_0 O6_1 2.323037 1_554
Nd2_0 O4_0 2.334697 1_555
Nd2_0 O4_4 2.334697 1_555
Nd2_0 Sb0_1 3.745281 1_554
Nd2_0 Sb0_5 3.745281 1_554
Nd2_0 Sb2_0 3.761177 1_555
Nd2_0 Sb2_4 3.761177 1_555
Nd2_1 O2_1 2.292866 1_555
Nd2_1 O6_0 2.323037 1_555
Nd2_1 O4_1 2.334697 1_555
Nd2_1 O4_5 2.334697 1_555
Nd2_1 Sb0_0 3.745281 1_555
Nd2_1 Sb0_4 3.745281 1_555
Nd2_1 Sb2_1 3.761177 1_555
Nd2_1 Sb2_5 3.761177 1_555
Nd2_2 O2_2 2.292866 1_555
Nd2_2 O6_3 2.323037 1_554
Nd2_2 O4_2 2.334697 1_555
Nd2_2 O4_6 2.334697 1_555
Nd2_2 Sb0_3 3.745281 1_554
Nd2_2 Sb0_7 3.745281 1_554
Nd2_2 Sb2_6 3.761177 1_555
Nd2_2 Sb2_2 3.761177 1_555
Nd2_3 O2_3 2.292866 1_555
Nd2_3 O6_2 2.323037 1_555
Nd2_3 O4_3 2.334697 1_555
Nd2_3 O4_7 2.334697 1_555
Nd2_3 Sb0_6 3.745281 1_555
Nd2_3 Sb0_2 3.745281 1_555
Nd2_3 Sb2_3 3.761177 1_555
Nd2_3 Sb2_7 3.761177 1_555
Nd2_4 O2_4 2.292866 1_555
Nd2_4 O6_5 2.323037 1_554
Nd2_4 O4_0 2.334697 1_655
Nd2_4 O4_4 2.334697 1_555
Nd2_4 Sb0_1 3.745281 1_654
Nd2_4 Sb0_5 3.745281 1_554
Nd2_4 Sb2_4 3.761177 1_555
Nd2_4 Sb2_0 3.761177 1_655
Nd2_5 O2_5 2.292866 1_555
Nd2_5 O6_4 2.323037 1_555
Nd2_5 O4_1 2.334697 1_655
Nd2_5 O4_5 2.334697 1_555
Nd2_5 Sb0_4 3.745281 1_555
Nd2_5 Sb0_0 3.745281 1_655
Nd2_5 Sb2_1 3.761177 1_655
Nd2_5 Sb2_5 3.761177 1_555
Nd2_6 O2_6 2.292866 1_555
Nd2_6 O6_7 2.323037 1_554
Nd2_6 O4_6 2.334697 1_555
Nd2_6 O4_2 2.334697 1_655
Nd2_6 Sb0_3 3.745281 1_654
Nd2_6 Sb0_7 3.745281 1_554
Nd2_6 Sb2_6 3.761177 1_555
Nd2_6 Sb2_2 3.761177 1_655
Nd2_7 O2_7 2.292866 1_555
Nd2_7 O6_6 2.323037 1_555
Nd2_7 O4_3 2.334697 1_655
Nd2_7 O4_7 2.334697 1_555
Nd2_7 Sb0_6 3.745281 1_555
Nd2_7 Sb0_2 3.745281 1_655
Nd2_7 Sb2_3 3.761177 1_655
Nd2_7 Sb2_7 3.761177 1_555
Nd3_0 O3_0 2.292866 1_555
Nd3_0 O7_1 2.323037 1_554
Nd3_0 O5_0 2.334697 1_555
Nd3_0 O5_4 2.334697 1_555
Nd3_0 Sb0_7 3.745281 1_554
Nd3_0 Sb0_3 3.745281 1_554
Nd3_0 Sb2_2 3.761177 1_555
Nd3_0 Sb2_6 3.761177 1_555
Nd3_1 O3_1 2.292866 1_555
Nd3_1 O7_0 2.323037 1_555
Nd3_1 O5_1 2.334697 1_555
Nd3_1 O5_5 2.334697 1_555
Nd3_1 Sb0_6 3.745281 1_555
Nd3_1 Sb0_2 3.745281 1_555
Nd3_1 Sb2_3 3.761177 1_555
Nd3_1 Sb2_7 3.761177 1_555
Nd3_2 O3_2 2.292866 1_555
Nd3_2 O7_3 2.323037 1_554
Nd3_2 O5_6 2.334697 1_555
Nd3_2 O5_2 2.334697 1_555
Nd3_2 Sb0_1 3.745281 1_564
Nd3_2 Sb0_5 3.745281 1_564
Nd3_2 Sb2_4 3.761177 1_565
Nd3_2 Sb2_0 3.761177 1_565
Nd3_3 O3_3 2.292866 1_555
Nd3_3 O7_2 2.323037 1_555
Nd3_3 O5_3 2.334697 1_555
Nd3_3 O5_7 2.334697 1_555
Nd3_3 Sb0_0 3.745281 1_565
Nd3_3 Sb0_4 3.745281 1_565
Nd3_3 Sb2_1 3.761177 1_565
Nd3_3 Sb2_5 3.761177 1_565
Nd3_4 O3_4 2.292866 1_555
Nd3_4 O7_5 2.323037 1_554
Nd3_4 O5_4 2.334697 1_555
Nd3_4 O5_0 2.334697 1_655
Nd3_4 Sb0_7 3.745281 1_554
Nd3_4 Sb0_3 3.745281 1_654
Nd3_4 Sb2_2 3.761177 1_655
Nd3_4 Sb2_6 3.761177 1_555
Nd3_5 O3_5 2.292866 1_555
Nd3_5 O7_4 2.323037 1_555
Nd3_5 O5_1 2.334697 1_655
Nd3_5 O5_5 2.334697 1_555
Nd3_5 Sb0_2 3.745281 1_655
Nd3_5 Sb0_6 3.745281 1_555
Nd3_5 Sb2_7 3.761177 1_555
Nd3_5 Sb2_3 3.761177 1_655
Nd3_6 O3_6 2.292866 1_555
Nd3_6 O7_7 2.323037 1_554
Nd3_6 O5_2 2.334697 1_655
Nd3_6 O5_6 2.334697 1_555
Nd3_6 Sb0_5 3.745281 1_564
Nd3_6 Sb0_1 3.745281 1_664
Nd3_6 Sb2_4 3.761177 1_565
Nd3_6 Sb2_0 3.761177 1_665
Nd3_7 O3_7 2.292866 1_555
Nd3_7 O7_6 2.323037 1_555
Nd3_7 O5_3 2.334697 1_655
Nd3_7 O5_7 2.334697 1_555
Nd3_7 Sb0_0 3.745281 1_665
Nd3_7 Sb0_4 3.745281 1_565
Nd3_7 Sb2_1 3.761177 1_665
Nd3_7 Sb2_5 3.761177 1_565
Nd4_0 O0_0 2.305109 1_555
Nd4_0 O4_0 2.333925 1_555
Nd4_0 O2_0 2.355960 1_555
Nd4_0 O2_4 2.355960 1_455
Nd4_0 Sb1_4 3.512306 1_455
Nd4_0 Sb1_0 3.512306 1_555
Nd4_0 Sb3_0 3.521220 1_555
Nd4_0 Sb3_4 3.521220 1_455
Nd4_1 O0_1 2.305109 1_555
Nd4_1 O4_1 2.333925 1_555
Nd4_1 O2_5 2.355960 1_455
Nd4_1 O2_1 2.355960 1_555
Nd4_1 Sb1_1 3.512306 1_555
Nd4_1 Sb1_5 3.512306 1_455
Nd4_1 Sb3_5 3.521220 1_455
Nd4_1 Sb3_1 3.521220 1_555
Nd4_2 O0_2 2.305109 1_555
Nd4_2 O4_2 2.333925 1_555
Nd4_2 O2_2 2.355960 1_555
Nd4_2 O2_6 2.355960 1_455
Nd4_2 Sb1_6 3.512306 1_455
Nd4_2 Sb1_2 3.512306 1_555
Nd4_2 Sb3_2 3.521220 1_555
Nd4_2 Sb3_6 3.521220 1_455
Nd4_3 O0_3 2.305109 1_555
Nd4_3 O4_3 2.333925 1_555
Nd4_3 O2_7 2.355960 1_455
Nd4_3 O2_3 2.355960 1_555
Nd4_3 Sb1_7 3.512306 1_455
Nd4_3 Sb1_3 3.512306 1_555
Nd4_3 Sb3_7 3.521220 1_455
Nd4_3 Sb3_3 3.521220 1_555
Nd4_4 O0_4 2.305109 1_555
Nd4_4 O4_4 2.333925 1_555
Nd4_4 O2_0 2.355960 1_555
Nd4_4 O2_4 2.355960 1_555
Nd4_4 Sb1_0 3.512306 1_555
Nd4_4 Sb1_4 3.512306 1_555
Nd4_4 Sb3_0 3.521220 1_555
Nd4_4 Sb3_4 3.521220 1_555
Nd4_5 O0_5 2.305109 1_555
Nd4_5 O4_5 2.333925 1_555
Nd4_5 O2_1 2.355960 1_555
Nd4_5 O2_5 2.355960 1_555
Nd4_5 Sb1_1 3.512306 1_555
Nd4_5 Sb1_5 3.512306 1_555
Nd4_5 Sb3_1 3.521220 1_555
Nd4_5 Sb3_5 3.521220 1_555
Nd4_6 O0_6 2.305109 1_555
Nd4_6 O4_6 2.333925 1_555
Nd4_6 O2_2 2.355960 1_555
Nd4_6 O2_6 2.355960 1_555
Nd4_6 Sb1_2 3.512306 1_555
Nd4_6 Sb1_6 3.512306 1_555
Nd4_6 Sb3_2 3.521220 1_555
Nd4_6 Sb3_6 3.521220 1_555
Nd4_7 O0_7 2.305109 1_555
Nd4_7 O4_7 2.333925 1_555
Nd4_7 O2_3 2.355960 1_555
Nd4_7 O2_7 2.355960 1_555
Nd4_7 Sb1_3 3.512306 1_555
Nd4_7 Sb1_7 3.512306 1_555
Nd4_7 Sb3_3 3.521220 1_555
Nd4_7 Sb3_7 3.521220 1_555
Nd5_0 O1_0 2.305109 1_555
Nd5_0 O5_0 2.333925 1_555
Nd5_0 O3_0 2.355960 1_555
Nd5_0 O3_4 2.355960 1_455
Nd5_0 Sb1_4 3.512306 1_455
Nd5_0 Sb1_0 3.512306 1_555
Nd5_0 Sb3_0 3.521220 1_555
Nd5_0 Sb3_4 3.521220 1_455
Nd5_1 O1_1 2.305109 1_555
Nd5_1 O5_1 2.333925 1_555
Nd5_1 O3_1 2.355960 1_555
Nd5_1 O3_5 2.355960 1_455
Nd5_1 Sb1_1 3.512306 1_555
Nd5_1 Sb1_5 3.512306 1_455
Nd5_1 Sb3_5 3.521220 1_455
Nd5_1 Sb3_1 3.521220 1_555
Nd5_2 O1_2 2.305109 1_555
Nd5_2 O5_2 2.333925 1_555
Nd5_2 O3_2 2.355960 1_555
Nd5_2 O3_6 2.355960 1_455
Nd5_2 Sb1_2 3.512306 1_555
Nd5_2 Sb1_6 3.512306 1_455
Nd5_2 Sb3_6 3.521220 1_455
Nd5_2 Sb3_2 3.521220 1_555
Nd5_3 O1_3 2.305109 1_555
Nd5_3 O5_3 2.333925 1_555
Nd5_3 O3_3 2.355960 1_555
Nd5_3 O3_7 2.355960 1_455
Nd5_3 Sb1_7 3.512306 1_455
Nd5_3 Sb1_3 3.512306 1_555
Nd5_3 Sb3_3 3.521220 1_555
Nd5_3 Sb3_7 3.521220 1_455
Nd5_4 O1_4 2.305109 1_555
Nd5_4 O5_4 2.333925 1_555
Nd5_4 O3_0 2.355960 1_555
Nd5_4 O3_4 2.355960 1_555
Nd5_4 Sb1_0 3.512306 1_555
Nd5_4 Sb1_4 3.512306 1_555
Nd5_4 Sb3_0 3.521220 1_555
Nd5_4 Sb3_4 3.521220 1_555
Nd5_5 O1_5 2.305109 1_555
Nd5_5 O5_5 2.333925 1_555
Nd5_5 O3_1 2.355960 1_555
Nd5_5 O3_5 2.355960 1_555
Nd5_5 Sb1_1 3.512306 1_555
Nd5_5 Sb1_5 3.512306 1_555
Nd5_5 Sb3_1 3.521220 1_555
Nd5_5 Sb3_5 3.521220 1_555
Nd5_6 O1_6 2.305109 1_555
Nd5_6 O5_6 2.333925 1_555
Nd5_6 O3_2 2.355960 1_555
Nd5_6 O3_6 2.355960 1_555
Nd5_6 Sb1_2 3.512306 1_555
Nd5_6 Sb1_6 3.512306 1_555
Nd5_6 Sb3_6 3.521220 1_555
Nd5_6 Sb3_2 3.521220 1_555
Nd5_7 O1_7 2.305109 1_555
Nd5_7 O5_7 2.333925 1_555
Nd5_7 O3_7 2.355960 1_555
Nd5_7 O3_3 2.355960 1_555
Nd5_7 Sb1_3 3.512306 1_555
Nd5_7 Sb1_7 3.512306 1_555
Nd5_7 Sb3_3 3.521220 1_555
Nd5_7 Sb3_7 3.521220 1_555
Nd6_0 O2_0 2.305109 1_555
Nd6_0 O6_0 2.333925 1_555
Nd6_0 O0_0 2.355960 1_555
Nd6_0 O0_4 2.355960 1_555
Nd6_0 Sb0_0 3.512306 1_555
Nd6_0 Sb0_4 3.512306 1_555
Nd6_0 Sb2_0 3.521220 1_555
Nd6_0 Sb2_4 3.521220 1_555
Nd6_1 O2_1 2.305109 1_555
Nd6_1 O6_1 2.333925 1_555
Nd6_1 O0_5 2.355960 1_555
Nd6_1 O0_1 2.355960 1_555
Nd6_1 Sb0_1 3.512306 1_555
Nd6_1 Sb0_5 3.512306 1_555
Nd6_1 Sb2_5 3.521220 1_555
Nd6_1 Sb2_1 3.521220 1_555
Nd6_2 O2_2 2.305109 1_555
Nd6_2 O6_2 2.333925 1_555
Nd6_2 O0_2 2.355960 1_555
Nd6_2 O0_6 2.355960 1_555
Nd6_2 Sb0_2 3.512306 1_555
Nd6_2 Sb0_6 3.512306 1_555
Nd6_2 Sb2_2 3.521220 1_555
Nd6_2 Sb2_6 3.521220 1_555
Nd6_3 O2_3 2.305109 1_555
Nd6_3 O6_3 2.333925 1_555
Nd6_3 O0_7 2.355960 1_555
Nd6_3 O0_3 2.355960 1_555
Nd6_3 Sb0_7 3.512306 1_555
Nd6_3 Sb0_3 3.512306 1_555
Nd6_3 Sb2_7 3.521220 1_555
Nd6_3 Sb2_3 3.521220 1_555
Nd6_4 O2_4 2.305109 1_555
Nd6_4 O6_4 2.333925 1_555
Nd6_4 O0_0 2.355960 1_655
Nd6_4 O0_4 2.355960 1_555
Nd6_4 Sb0_4 3.512306 1_555
Nd6_4 Sb0_0 3.512306 1_655
Nd6_4 Sb2_0 3.521220 1_655
Nd6_4 Sb2_4 3.521220 1_555
Nd6_5 O2_5 2.305109 1_555
Nd6_5 O6_5 2.333925 1_555
Nd6_5 O0_1 2.355960 1_655
Nd6_5 O0_5 2.355960 1_555
Nd6_5 Sb0_5 3.512306 1_555
Nd6_5 Sb0_1 3.512306 1_655
Nd6_5 Sb2_5 3.521220 1_555
Nd6_5 Sb2_1 3.521220 1_655
Nd6_6 O2_6 2.305109 1_555
Nd6_6 O6_6 2.333925 1_555
Nd6_6 O0_2 2.355960 1_655
Nd6_6 O0_6 2.355960 1_555
Nd6_6 Sb0_2 3.512306 1_655
Nd6_6 Sb0_6 3.512306 1_555
Nd6_6 Sb2_2 3.521220 1_655
Nd6_6 Sb2_6 3.521220 1_555
Nd6_7 O2_7 2.305109 1_555
Nd6_7 O6_7 2.333925 1_555
Nd6_7 O0_3 2.355960 1_655
Nd6_7 O0_7 2.355960 1_555
Nd6_7 Sb0_7 3.512306 1_555
Nd6_7 Sb0_3 3.512306 1_655
Nd6_7 Sb2_3 3.521220 1_655
Nd6_7 Sb2_7 3.521220 1_555
Nd7_0 O3_0 2.305109 1_555
Nd7_0 O7_0 2.333925 1_555
Nd7_0 O1_0 2.355960 1_555
Nd7_0 O1_4 2.355960 1_555
Nd7_0 Sb0_2 3.512306 1_555
Nd7_0 Sb0_6 3.512306 1_555
Nd7_0 Sb2_2 3.521220 1_555
Nd7_0 Sb2_6 3.521220 1_555
Nd7_1 O3_1 2.305109 1_555
Nd7_1 O7_1 2.333925 1_555
Nd7_1 O1_1 2.355960 1_555
Nd7_1 O1_5 2.355960 1_555
Nd7_1 Sb0_7 3.512306 1_555
Nd7_1 Sb0_3 3.512306 1_555
Nd7_1 Sb2_3 3.521220 1_555
Nd7_1 Sb2_7 3.521220 1_555
Nd7_2 O3_2 2.305109 1_555
Nd7_2 O7_2 2.333925 1_555
Nd7_2 O1_2 2.355960 1_555
Nd7_2 O1_6 2.355960 1_555
Nd7_2 Sb0_0 3.512306 1_565
Nd7_2 Sb0_4 3.512306 1_565
Nd7_2 Sb2_0 3.521220 1_565
Nd7_2 Sb2_4 3.521220 1_565
Nd7_3 O3_3 2.305109 1_555
Nd7_3 O7_3 2.333925 1_555
Nd7_3 O1_3 2.355960 1_555
Nd7_3 O1_7 2.355960 1_555
Nd7_3 Sb0_1 3.512306 1_565
Nd7_3 Sb0_5 3.512306 1_565
Nd7_3 Sb2_1 3.521220 1_565
Nd7_3 Sb2_5 3.521220 1_565
Nd7_4 O3_4 2.305109 1_555
Nd7_4 O7_4 2.333925 1_555
Nd7_4 O1_0 2.355960 1_655
Nd7_4 O1_4 2.355960 1_555
Nd7_4 Sb0_2 3.512306 1_655
Nd7_4 Sb0_6 3.512306 1_555
Nd7_4 Sb2_2 3.521220 1_655
Nd7_4 Sb2_6 3.521220 1_555
Nd7_5 O3_5 2.305109 1_555
Nd7_5 O7_5 2.333925 1_555
Nd7_5 O1_1 2.355960 1_655
Nd7_5 O1_5 2.355960 1_555
Nd7_5 Sb0_7 3.512306 1_555
Nd7_5 Sb0_3 3.512306 1_655
Nd7_5 Sb2_7 3.521220 1_555
Nd7_5 Sb2_3 3.521220 1_655
Nd7_6 O3_6 2.305109 1_555
Nd7_6 O7_6 2.333925 1_555
Nd7_6 O1_6 2.355960 1_555
Nd7_6 O1_2 2.355960 1_655
Nd7_6 Sb0_0 3.512306 1_665
Nd7_6 Sb0_4 3.512306 1_565
Nd7_6 Sb2_0 3.521220 1_665
Nd7_6 Sb2_4 3.521220 1_565
Nd7_7 O3_7 2.305109 1_555
Nd7_7 O7_7 2.333925 1_555
Nd7_7 O1_3 2.355960 1_655
Nd7_7 O1_7 2.355960 1_555
Nd7_7 Sb0_1 3.512306 1_665
Nd7_7 Sb0_5 3.512306 1_565
Nd7_7 Sb2_5 3.521220 1_565
Nd7_7 Sb2_1 3.521220 1_665
Sb0_0 Sb2_0 3.440108 1_555
Sb0_0 Sb0_4 4.071825 1_455
Sb0_0 Sb0_4 4.071825 1_555
Sb0_0 Sb2_1 4.428752 1_555
Sb0_1 Sb2_1 3.440108 1_555
Sb0_1 Sb0_5 4.071825 1_455
Sb0_1 Sb0_5 4.071825 1_555
Sb0_1 Sb2_0 4.428752 1_556
Sb0_2 Sb2_2 3.440108 1_555
Sb0_2 Sb0_6 4.071825 1_455
Sb0_2 Sb0_6 4.071825 1_555
Sb0_2 Sb2_3 4.428752 1_555
Sb0_3 Sb2_3 3.440108 1_555
Sb0_3 Sb0_7 4.071825 1_455
Sb0_3 Sb0_7 4.071825 1_555
Sb0_3 Sb2_2 4.428752 1_556
Sb0_4 Sb2_4 3.440108 1_555
Sb0_4 Sb2_5 4.428752 1_555
Sb0_5 Sb2_5 3.440108 1_555
Sb0_5 Sb2_4 4.428752 1_556
Sb0_6 Sb2_6 3.440108 1_555
Sb0_6 Sb2_7 4.428752 1_555
Sb0_7 Sb2_7 3.440108 1_555
Sb0_7 Sb2_6 4.428752 1_556
Sb1_0 Sb3_0 3.440108 1_555
Sb1_0 Sb1_4 4.071825 1_455
Sb1_0 Sb1_4 4.071825 1_555
Sb1_0 Sb3_1 4.428752 1_554
Sb1_1 Sb3_1 3.440108 1_555
Sb1_1 Sb1_5 4.071825 1_555
Sb1_1 Sb1_5 4.071825 1_455
Sb1_1 Sb3_0 4.428752 1_555
Sb1_2 Sb3_2 3.440108 1_555
Sb1_2 Sb1_6 4.071825 1_455
Sb1_2 Sb1_6 4.071825 1_555
Sb1_2 Sb3_3 4.428752 1_554
Sb1_3 Sb3_3 3.440108 1_555
Sb1_3 Sb1_7 4.071825 1_555
Sb1_3 Sb1_7 4.071825 1_455
Sb1_3 Sb3_2 4.428752 1_555
Sb1_4 Sb3_4 3.440108 1_555
Sb1_4 Sb3_5 4.428752 1_554
Sb1_5 Sb3_5 3.440108 1_555
Sb1_5 Sb3_4 4.428752 1_555
Sb1_6 Sb3_6 3.440108 1_555
Sb1_6 Sb3_7 4.428752 1_554
Sb1_7 Sb3_7 3.440108 1_555
Sb1_7 Sb3_6 4.428752 1_555
Sb2_0 Sb2_4 4.071825 1_555
Sb2_0 Sb2_4 4.071825 1_455
Sb2_1 Sb2_5 4.071825 1_555
Sb2_1 Sb2_5 4.071825 1_455
Sb2_2 Sb2_6 4.071825 1_555
Sb2_2 Sb2_6 4.071825 1_455
Sb2_3 Sb2_7 4.071825 1_455
Sb2_3 Sb2_7 4.071825 1_555
Sb3_0 Sb3_4 4.071825 1_555
Sb3_0 Sb3_4 4.071825 1_455
Sb3_1 Sb3_5 4.071825 1_455
Sb3_1 Sb3_5 4.071825 1_555
Sb3_2 Sb3_6 4.071825 1_555
Sb3_2 Sb3_6 4.071825 1_455
Sb3_3 Sb3_7 4.071825 1_555
Sb3_3 Sb3_7 4.071825 1_455
O0_0 O6_0 2.831592 1_555
O0_0 O6_4 2.831592 1_455
O0_0 O2_4 2.862296 1_455
O0_0 O2_0 2.862296 1_555
O0_1 O6_1 2.831592 1_555
O0_1 O6_5 2.831592 1_455
O0_1 O2_1 2.862296 1_555
O0_1 O2_5 2.862296 1_455
O0_2 O6_6 2.831592 1_455
O0_2 O6_2 2.831592 1_555
O0_2 O2_2 2.862296 1_555
O0_2 O2_6 2.862296 1_455
O0_3 O6_7 2.831592 1_455
O0_3 O6_3 2.831592 1_555
O0_3 O2_7 2.862296 1_455
O0_3 O2_3 2.862296 1_555
O0_4 O6_4 2.831592 1_555
O0_4 O6_0 2.831592 1_555
O0_4 O2_4 2.862296 1_555
O0_4 O2_0 2.862296 1_555
O0_5 O6_1 2.831592 1_555
O0_5 O6_5 2.831592 1_555
O0_5 O2_1 2.862296 1_555
O0_5 O2_5 2.862296 1_555
O0_6 O6_2 2.831592 1_555
O0_6 O6_6 2.831592 1_555
O0_6 O2_6 2.862296 1_555
O0_6 O2_2 2.862296 1_555
O0_7 O6_7 2.831592 1_555
O0_7 O6_3 2.831592 1_555
O0_7 O2_3 2.862296 1_555
O0_7 O2_7 2.862296 1_555
O1_0 O7_0 2.831592 1_555
O1_0 O7_4 2.831592 1_455
O1_0 O3_4 2.862296 1_455
O1_0 O3_0 2.862296 1_555
O1_1 O7_5 2.831592 1_455
O1_1 O7_1 2.831592 1_555
O1_1 O3_1 2.862296 1_555
O1_1 O3_5 2.862296 1_455
O1_2 O7_2 2.831592 1_555
O1_2 O7_6 2.831592 1_455
O1_2 O3_2 2.862296 1_555
O1_2 O3_6 2.862296 1_455
O1_3 O7_3 2.831592 1_555
O1_3 O7_7 2.831592 1_455
O1_3 O3_7 2.862296 1_455
O1_3 O3_3 2.862296 1_555
O1_4 O7_0 2.831592 1_555
O1_4 O7_4 2.831592 1_555
O1_4 O3_0 2.862296 1_555
O1_4 O3_4 2.862296 1_555
O1_5 O7_5 2.831592 1_555
O1_5 O7_1 2.831592 1_555
O1_5 O3_5 2.862296 1_555
O1_5 O3_1 2.862296 1_555
O1_6 O7_6 2.831592 1_555
O1_6 O7_2 2.831592 1_555
O1_6 O3_2 2.862296 1_555
O1_6 O3_6 2.862296 1_555
O1_7 O7_3 2.831592 1_555
O1_7 O7_7 2.831592 1_555
O1_7 O3_7 2.862296 1_555
O1_7 O3_3 2.862296 1_555
O2_0 O4_4 2.831592 1_555
O2_0 O4_0 2.831592 1_555
O2_1 O4_5 2.831592 1_555
O2_1 O4_1 2.831592 1_555
O2_2 O4_2 2.831592 1_555
O2_2 O4_6 2.831592 1_555
O2_3 O4_3 2.831592 1_555
O2_3 O4_7 2.831592 1_555
O2_4 O4_0 2.831592 1_655
O2_4 O4_4 2.831592 1_555
O2_5 O4_1 2.831592 1_655
O2_5 O4_5 2.831592 1_555
O2_6 O4_2 2.831592 1_655
O2_6 O4_6 2.831592 1_555
O2_7 O4_3 2.831592 1_655
O2_7 O4_7 2.831592 1_555
O3_0 O5_4 2.831592 1_555
O3_0 O5_0 2.831592 1_555
O3_1 O5_1 2.831592 1_555
O3_1 O5_5 2.831592 1_555
O3_2 O5_2 2.831592 1_555
O3_2 O5_6 2.831592 1_555
O3_3 O5_3 2.831592 1_555
O3_3 O5_7 2.831592 1_555
O3_4 O5_4 2.831592 1_555
O3_4 O5_0 2.831592 1_655
O3_5 O5_1 2.831592 1_655
O3_5 O5_5 2.831592 1_555
O3_6 O5_2 2.831592 1_655
O3_6 O5_6 2.831592 1_555
O3_7 O5_3 2.831592 1_655
O3_7 O5_7 2.831592 1_555
O4_0 O6_5 2.804115 1_454
O4_0 O6_1 2.804115 1_554
O4_1 O6_0 2.804115 1_555
O4_1 O6_4 2.804115 1_455
O4_2 O6_3 2.804115 1_554
O4_2 O6_7 2.804115 1_454
O4_3 O6_6 2.804115 1_455
O4_3 O6_2 2.804115 1_555
O4_4 O6_1 2.804115 1_554
O4_4 O6_5 2.804115 1_554
O4_5 O6_0 2.804115 1_555
O4_5 O6_4 2.804115 1_555
O4_6 O6_3 2.804115 1_554
O4_6 O6_7 2.804115 1_554
O4_7 O6_2 2.804115 1_555
O4_7 O6_6 2.804115 1_555
O5_0 O7_5 2.804115 1_454
O5_0 O7_1 2.804115 1_554
O5_1 O7_0 2.804115 1_555
O5_1 O7_4 2.804115 1_455
O5_2 O7_3 2.804115 1_554
O5_2 O7_7 2.804115 1_454
O5_3 O7_2 2.804115 1_555
O5_3 O7_6 2.804115 1_455
O5_4 O7_1 2.804115 1_554
O5_4 O7_5 2.804115 1_554
O5_5 O7_4 2.804115 1_555
O5_5 O7_0 2.804115 1_555
O5_6 O7_3 2.804115 1_554
O5_6 O7_7 2.804115 1_554
O5_7 O7_2 2.804115 1_555
O5_7 O7_6 2.804115 1_555
