# generated using pymatgen
data_MgB6(H2O3)5
_symmetry_space_group_name_H-M   'P 1'
_cell_length_a   8.14847600
_cell_length_b   9.94273400
_cell_length_c   14.73360800
_cell_angle_alpha   90.00000000
_cell_angle_beta   90.00000000
_cell_angle_gamma   90.00000000
_symmetry_Int_Tables_number   1
_chemical_formula_structural   MgB6(H2O3)5
_chemical_formula_sum   'Mg4 B24 H40 O60'
_cell_volume   1193.68935908
_cell_formula_units_Z   4
loop_
 _symmetry_equiv_pos_site_id
 _symmetry_equiv_pos_as_xyz
  1  'x, y, z'
loop_
 _atom_site_type_symbol
 _atom_site_label
 _atom_site_symmetry_multiplicity
 _atom_site_fract_x
 _atom_site_fract_y
 _atom_site_fract_z
 _atom_site_occupancy
  Mg  Mg0  1  0.70808700  0.67070700  0.63313300  1
  Mg  Mg1  1  0.20808700  0.32929300  0.36686700  1
  Mg  Mg2  1  0.20808700  0.17070700  0.86686700  1
  Mg  Mg3  1  0.70808700  0.82929300  0.13313300  1
  B  B0  1  0.35468200  0.66769900  0.70251300  1
  B  B1  1  0.85468200  0.33230100  0.29748700  1
  B  B2  1  0.85468200  0.16769900  0.79748700  1
  B  B3  1  0.35468200  0.83230100  0.20251300  1
  B  B4  1  0.29238000  0.89888900  0.75809100  1
  B  B5  1  0.79238000  0.10111100  0.24190900  1
  B  B6  1  0.79238000  0.39888900  0.74190900  1
  B  B7  1  0.29238000  0.60111100  0.25809100  1
  B  B8  1  0.56063900  0.80032500  0.80675000  1
  B  B9  1  0.06063900  0.19967500  0.19325000  1
  B  B10  1  0.06063900  0.30032500  0.69325000  1
  B  B11  1  0.56063900  0.69967500  0.30675000  1
  B  B12  1  0.66096400  0.67027500  0.93765600  1
  B  B13  1  0.16096400  0.32972500  0.06234400  1
  B  B14  1  0.16096400  0.17027500  0.56234400  1
  B  B15  1  0.66096400  0.82972500  0.43765600  1
  B  B16  1  0.29663500  0.43562700  0.75825100  1
  B  B17  1  0.79663500  0.56437300  0.24174900  1
  B  B18  1  0.79663500  0.93562700  0.74174900  1
  B  B19  1  0.29663500  0.06437300  0.25825100  1
  B  B20  1  0.55916600  0.53519100  0.80844000  1
  B  B21  1  0.05916600  0.46480900  0.19156000  1
  B  B22  1  0.05916600  0.03519100  0.69156000  1
  B  B23  1  0.55916600  0.96480900  0.30844000  1
  H  H0  1  0.40199700  0.74244500  0.57457000  1
  H  H1  1  0.90199700  0.25755500  0.42543000  1
  H  H2  1  0.90199700  0.24244500  0.92543000  1
  H  H3  1  0.40199700  0.75755500  0.07457000  1
  H  H4  1  0.83588600  0.47925400  0.52292700  1
  H  H5  1  0.33588600  0.52074600  0.47707300  1
  H  H6  1  0.33588600  0.97925400  0.97707300  1
  H  H7  1  0.83588600  0.02074600  0.02292700  1
  H  H8  1  0.65888000  0.43342700  0.55098400  1
  H  H9  1  0.15888000  0.56657300  0.44901600  1
  H  H10  1  0.15888000  0.93342700  0.94901600  1
  H  H11  1  0.65888000  0.06657300  0.05098400  1
  H  H12  1  0.02890600  0.73509600  0.65977400  1
  H  H13  1  0.52890600  0.26490400  0.34022600  1
  H  H14  1  0.52890600  0.23509600  0.84022600  1
  H  H15  1  0.02890600  0.76490400  0.15977400  1
  H  H16  1  0.00263900  0.57694300  0.65919800  1
  H  H17  1  0.50263900  0.42305700  0.34080200  1
  H  H18  1  0.50263900  0.07694300  0.84080200  1
  H  H19  1  0.00263900  0.92305700  0.15919800  1
  H  H20  1  0.03490900  0.78619900  0.84919900  1
  H  H21  1  0.53490900  0.21380100  0.15080100  1
  H  H22  1  0.53490900  0.28619900  0.65080100  1
  H  H23  1  0.03490900  0.71380100  0.34919900  1
  H  H24  1  0.94589700  0.78156000  0.94418000  1
  H  H25  1  0.44589700  0.21844000  0.05582000  1
  H  H26  1  0.44589700  0.28156000  0.55582000  1
  H  H27  1  0.94589700  0.71844000  0.44418000  1
  H  H28  1  0.73584300  0.41394400  0.95276300  1
  H  H29  1  0.23584300  0.58605600  0.04723700  1
  H  H30  1  0.23584300  0.91394400  0.54723700  1
  H  H31  1  0.73584300  0.08605600  0.45276300  1
  H  H32  1  0.71800100  0.31171300  0.03256900  1
  H  H33  1  0.21800100  0.68828700  0.96743100  1
  H  H34  1  0.21800100  0.81171300  0.46743100  1
  H  H35  1  0.71800100  0.18828700  0.53256900  1
  H  H36  1  0.78013500  0.58969000  0.04476800  1
  H  H37  1  0.28013500  0.41031000  0.95523200  1
  H  H38  1  0.28013500  0.08969000  0.45523200  1
  H  H39  1  0.78013500  0.91031000  0.54476800  1
  O  O0  1  0.47942400  0.66732000  0.78156500  1
  O  O1  1  0.97942400  0.33268000  0.21843500  1
  O  O2  1  0.97942400  0.16732000  0.71843500  1
  O  O3  1  0.47942400  0.83268000  0.28156500  1
  O  O4  1  0.24439500  0.78350700  0.71406400  1
  O  O5  1  0.74439500  0.21649300  0.28593600  1
  O  O6  1  0.74439500  0.28350700  0.78593600  1
  O  O7  1  0.24439500  0.71649300  0.21406400  1
  O  O8  1  0.43995200  0.90728200  0.80202800  1
  O  O9  1  0.93995200  0.09271800  0.19797200  1
  O  O10  1  0.93995200  0.40728200  0.69797200  1
  O  O11  1  0.43995200  0.59271800  0.30202800  1
  O  O12  1  0.45460400  0.68006800  0.61912400  1
  O  O13  1  0.95460400  0.31993200  0.38087600  1
  O  O14  1  0.95460400  0.18006800  0.88087600  1
  O  O15  1  0.45460400  0.81993200  0.11912400  1
  O  O16  1  0.25967200  0.54444500  0.70602700  1
  O  O17  1  0.75967200  0.45555500  0.29397300  1
  O  O18  1  0.75967200  0.04444500  0.79397300  1
  O  O19  1  0.25967200  0.95555500  0.20602700  1
  O  O20  1  0.43583700  0.43060900  0.81102700  1
  O  O21  1  0.93583700  0.56939100  0.18897300  1
  O  O22  1  0.93583700  0.93060900  0.68897300  1
  O  O23  1  0.43583700  0.06939100  0.31102700  1
  O  O24  1  0.63635800  0.54770900  0.89800900  1
  O  O25  1  0.13635800  0.45229100  0.10199100  1
  O  O26  1  0.13635800  0.04770900  0.60199100  1
  O  O27  1  0.63635800  0.95229100  0.39800900  1
  O  O28  1  0.69553900  0.82238400  0.73861900  1
  O  O29  1  0.19553900  0.17761600  0.26138100  1
  O  O30  1  0.19553900  0.32238400  0.76138100  1
  O  O31  1  0.69553900  0.67761600  0.23861900  1
  O  O32  1  0.62704800  0.78930400  0.89759500  1
  O  O33  1  0.12704800  0.21069600  0.10240500  1
  O  O34  1  0.12704800  0.28930400  0.60240500  1
  O  O35  1  0.62704800  0.71069600  0.39759500  1
  O  O36  1  0.73788100  0.67676700  0.02368500  1
  O  O37  1  0.23788100  0.32323300  0.97631500  1
  O  O38  1  0.23788100  0.17676700  0.47631500  1
  O  O39  1  0.73788100  0.82323300  0.52368500  1
  O  O40  1  0.68873500  0.51026800  0.73821500  1
  O  O41  1  0.18873500  0.48973200  0.26178500  1
  O  O42  1  0.18873500  0.01026800  0.76178500  1
  O  O43  1  0.68873500  0.98973200  0.23821500  1
  O  O44  1  0.72821000  0.51352700  0.53979500  1
  O  O45  1  0.22821000  0.48647300  0.46020500  1
  O  O46  1  0.22821000  0.01352700  0.96020500  1
  O  O47  1  0.72821000  0.98647300  0.03979500  1
  O  O48  1  0.95933800  0.66286200  0.63527900  1
  O  O49  1  0.45933800  0.33713800  0.36472100  1
  O  O50  1  0.45933800  0.16286200  0.86472100  1
  O  O51  1  0.95933800  0.83713800  0.13527900  1
  O  O52  1  0.05299500  0.78950800  0.91466100  1
  O  O53  1  0.55299500  0.21049200  0.08533900  1
  O  O54  1  0.55299500  0.28950800  0.58533900  1
  O  O55  1  0.05299500  0.71049200  0.41466100  1
  O  O56  1  0.80106800  0.35854200  0.99574000  1
  O  O57  1  0.30106800  0.64145800  0.00426000  1
  O  O58  1  0.30106800  0.85854200  0.50426000  1
  O  O59  1  0.80106800  0.14145800  0.49574000  1
loop_
_geom_bond_atom_site_label_1
_geom_bond_atom_site_label_2
_geom_bond_distance
_geom_bond_site_symmetry_2
Mg0 O48 2.049042 1_555
Mg0 O12 2.077873 1_555
Mg0 O44 2.088161 1_555
Mg0 O28 2.168012 1_555
Mg0 O39 2.226915 1_555
Mg0 O40 2.228581 1_555
Mg1 O49 2.049042 1_555
Mg1 O13 2.077873 1_455
Mg1 O45 2.088161 1_555
Mg1 O29 2.168012 1_555
Mg1 O38 2.226915 1_555
Mg1 O41 2.228581 1_555
Mg2 O50 2.049042 1_555
Mg2 O14 2.077873 1_455
Mg2 O46 2.088161 1_555
Mg2 O30 2.168012 1_555
Mg2 O37 2.226915 1_555
Mg2 O42 2.228581 1_555
Mg3 O51 2.049042 1_555
Mg3 O15 2.077873 1_555
Mg3 O47 2.088161 1_555
Mg3 O31 2.168012 1_555
Mg3 O36 2.226915 1_555
Mg3 O43 2.228581 1_555
B0 O16 1.450466 1_555
B0 O4 1.470512 1_555
B0 O12 1.479045 1_555
B0 O0 1.545890 1_555
B1 O17 1.450466 1_555
B1 O5 1.470512 1_555
B1 O13 1.479045 1_555
B1 O1 1.545890 1_555
B2 O18 1.450466 1_555
B2 O6 1.470512 1_555
B2 O14 1.479045 1_555
B2 O2 1.545890 1_555
B3 O19 1.450466 1_555
B3 O7 1.470512 1_555
B3 O15 1.479045 1_555
B3 O3 1.545890 1_555
B4 O8 1.368211 1_555
B4 O4 1.374686 1_555
B4 O42 1.393767 1_565
B5 O9 1.368211 1_555
B5 O5 1.374686 1_555
B5 O43 1.393767 1_545
B6 O10 1.368211 1_555
B6 O6 1.374686 1_555
B6 O40 1.393767 1_555
B7 O11 1.368211 1_555
B7 O7 1.374686 1_555
B7 O41 1.393767 1_555
B8 O32 1.447876 1_555
B8 O8 1.450124 1_555
B8 O28 1.504678 1_555
B8 O0 1.524621 1_555
B9 O33 1.447876 1_555
B9 O9 1.450124 1_455
B9 O29 1.504678 1_555
B9 O1 1.524621 1_455
B10 O34 1.447876 1_555
B10 O10 1.450124 1_455
B10 O30 1.504678 1_555
B10 O2 1.524621 1_455
B11 O35 1.447876 1_555
B11 O11 1.450124 1_555
B11 O31 1.504678 1_555
B11 O3 1.524621 1_555
B12 O32 1.351064 1_555
B12 O24 1.366203 1_555
B12 O36 1.415483 1_556
B13 O33 1.351064 1_555
B13 O25 1.366203 1_555
B13 O37 1.415483 1_554
B14 O34 1.351064 1_555
B14 O26 1.366203 1_555
B14 O38 1.415483 1_555
B15 O35 1.351064 1_555
B15 O27 1.366203 1_555
B15 O39 1.415483 1_555
B16 O16 1.361389 1_555
B16 O20 1.376126 1_555
B16 O30 1.395883 1_555
B17 O17 1.361389 1_555
B17 O21 1.376126 1_555
B17 O31 1.395883 1_555
B18 O18 1.361389 1_565
B18 O22 1.376126 1_555
B18 O28 1.395883 1_555
B19 O19 1.361389 1_545
B19 O23 1.376126 1_555
B19 O29 1.395883 1_555
B20 O20 1.446587 1_555
B20 O24 1.467198 1_555
B20 O40 1.498878 1_555
B20 O0 1.518179 1_555
B21 O21 1.446587 1_455
B21 O25 1.467198 1_555
B21 O41 1.498878 1_555
B21 O1 1.518179 1_455
B22 O22 1.446587 1_445
B22 O26 1.467198 1_555
B22 O42 1.498878 1_555
B22 O2 1.518179 1_455
B23 O23 1.446587 1_565
B23 O27 1.467198 1_555
B23 O43 1.498878 1_555
B23 O3 1.518179 1_555
H0 O12 0.999658 1_555
H1 O13 0.999658 1_555
H2 O14 0.999658 1_555
H3 O15 0.999658 1_555
H4 O44 0.973504 1_555
H5 O45 0.973504 1_555
H6 O46 0.973504 1_565
H7 O47 0.973504 1_545
H8 O44 0.990253 1_555
H9 O45 0.990253 1_555
H10 O46 0.990253 1_565
H11 O47 0.990253 1_545
H12 O48 0.983570 1_455
H13 O49 0.983570 1_555
H14 O50 0.983570 1_555
H15 O51 0.983570 1_455
H16 O48 0.989174 1_455
H16 O10 1.852807 1_455
H17 O49 0.989174 1_555
H17 O11 1.852807 1_555
H18 O50 0.989174 1_555
H18 O8 1.852807 1_545
H19 O51 0.989174 1_455
H19 O9 1.852807 1_465
H20 O52 0.976240 1_555
H21 O53 0.976240 1_555
H22 O54 0.976240 1_555
H23 O55 0.976240 1_555
H24 O52 0.978254 1_655
H25 O53 0.978254 1_555
H26 O54 0.978254 1_555
H27 O55 0.978254 1_655
H28 O56 0.993408 1_555
H28 O24 1.754090 1_555
H29 O57 0.993408 1_555
H29 O25 1.754090 1_555
H30 O58 0.993408 1_555
H30 O26 1.754090 1_565
H31 O59 0.993408 1_555
H31 O27 1.754090 1_545
H32 O56 0.984573 1_554
H33 O57 0.984573 1_556
H34 O58 0.984573 1_555
H35 O59 0.984573 1_555
H36 O36 0.982149 1_555
H37 O37 0.982149 1_555
H38 O38 0.982149 1_555
H39 O39 0.982149 1_555
