# generated using pymatgen
data_LiB
_symmetry_space_group_name_H-M   'P 1'
_cell_length_a   8.01939767
_cell_length_b   8.01941764
_cell_length_c   6.19076044
_cell_angle_alpha   90.00000000
_cell_angle_beta   90.00000000
_cell_angle_gamma   119.99527813
_symmetry_Int_Tables_number   1
_chemical_formula_structural   LiB
_chemical_formula_sum   'Li16 B16'
_cell_volume   344.81001682
_cell_formula_units_Z   16
loop_
 _symmetry_equiv_pos_site_id
 _symmetry_equiv_pos_as_xyz
  1  'x, y, z'
loop_
 _atom_site_type_symbol
 _atom_site_label
 _atom_site_symmetry_multiplicity
 _atom_site_fract_x
 _atom_site_fract_y
 _atom_site_fract_z
 _atom_site_occupancy
  Li  Li0_0  1  0.16666718  0.33333619  0.12500000  1
  Li  Li0_1  1  0.16666718  0.33333619  0.62500000  1
  Li  Li0_2  1  0.16666718  0.83333619  0.12500000  1
  Li  Li0_3  1  0.16666718  0.83333619  0.62500000  1
  Li  Li0_4  1  0.66666718  0.33333618  0.12500000  1
  Li  Li0_5  1  0.66666718  0.33333618  0.62500000  1
  Li  Li0_6  1  0.66666718  0.83333619  0.12500000  1
  Li  Li0_7  1  0.66666718  0.83333619  0.62500000  1
  Li  Li1_0  1  0.33333282  0.16666381  0.37500000  1
  Li  Li1_1  1  0.33333282  0.16666381  0.87500000  1
  Li  Li1_2  1  0.33333282  0.66666381  0.37500000  1
  Li  Li1_3  1  0.33333282  0.66666381  0.87500000  1
  Li  Li1_4  1  0.83333282  0.16666381  0.37500000  1
  Li  Li1_5  1  0.83333282  0.16666381  0.87500000  1
  Li  Li1_6  1  0.83333282  0.66666381  0.37500000  1
  Li  Li1_7  1  0.83333282  0.66666381  0.87500000  1
  B  B0_0  1  0.49999760  0.00000606  0.12500000  1
  B  B0_1  1  0.49999760  0.00000606  0.62500000  1
  B  B0_2  1  0.49999760  0.50000606  0.12500000  1
  B  B0_3  1  0.49999760  0.50000606  0.62500000  1
  B  B0_4  1  0.99999759  0.00000607  0.12500000  1
  B  B0_5  1  0.99999759  0.00000607  0.62500000  1
  B  B0_6  1  0.99999759  0.50000606  0.12500000  1
  B  B0_7  1  0.99999759  0.50000606  0.62500000  1
  B  B1_0  1  0.00000241  0.49999394  0.37500000  1
  B  B1_1  1  0.00000241  0.49999394  0.87500000  1
  B  B1_2  1  0.00000241  0.99999394  0.37500000  1
  B  B1_3  1  0.00000241  0.99999394  0.87500000  1
  B  B1_4  1  0.50000241  0.49999393  0.37500000  1
  B  B1_5  1  0.50000241  0.49999393  0.87500000  1
  B  B1_6  1  0.50000241  0.99999394  0.37500000  1
  B  B1_7  1  0.50000241  0.99999394  0.87500000  1
loop_
_geom_bond_atom_site_label_1
_geom_bond_atom_site_label_2
_geom_bond_distance
_geom_bond_site_symmetry_2
Li0_0 Li1_1 2.784687 1_554
Li0_0 Li1_0 2.784687 1_555
Li0_0 Li1_3 2.784767 1_554
Li0_0 Li1_2 2.784767 1_555
Li0_0 Li1_4 2.784801 1_455
Li0_0 Li1_5 2.784801 1_454
Li0_0 Li0_1 3.095380 1_554
Li0_0 Li0_1 3.095380 1_555
Li0_1 Li1_1 2.784687 1_555
Li0_1 Li1_0 2.784687 1_555
Li0_1 Li1_3 2.784767 1_555
Li0_1 Li1_2 2.784767 1_555
Li0_1 Li1_4 2.784801 1_455
Li0_1 Li1_5 2.784801 1_455
Li0_2 Li1_3 2.784687 1_554
Li0_2 Li1_2 2.784687 1_555
Li0_2 Li1_1 2.784767 1_564
Li0_2 Li1_0 2.784767 1_565
Li0_2 Li1_7 2.784801 1_454
Li0_2 Li1_6 2.784801 1_455
Li0_2 Li0_3 3.095380 1_555
Li0_2 Li0_3 3.095380 1_554
Li0_3 Li1_3 2.784687 1_555
Li0_3 Li1_2 2.784687 1_555
Li0_3 Li1_1 2.784767 1_565
Li0_3 Li1_0 2.784767 1_565
Li0_3 Li1_6 2.784801 1_455
Li0_3 Li1_7 2.784801 1_455
Li0_4 Li1_4 2.784687 1_555
Li0_4 Li1_5 2.784687 1_554
Li0_4 Li1_6 2.784767 1_555
Li0_4 Li1_7 2.784767 1_554
Li0_4 Li1_1 2.784801 1_554
Li0_4 Li1_0 2.784801 1_555
Li0_4 Li0_5 3.095380 1_555
Li0_4 Li0_5 3.095380 1_554
Li0_5 Li1_4 2.784687 1_555
Li0_5 Li1_5 2.784687 1_555
Li0_5 Li1_6 2.784767 1_555
Li0_5 Li1_7 2.784767 1_555
Li0_5 Li1_1 2.784801 1_555
Li0_5 Li1_0 2.784801 1_555
Li0_6 Li1_7 2.784687 1_554
Li0_6 Li1_6 2.784687 1_555
Li0_6 Li1_4 2.784767 1_565
Li0_6 Li1_5 2.784767 1_564
Li0_6 Li1_3 2.784801 1_554
Li0_6 Li1_2 2.784801 1_555
Li0_6 Li0_7 3.095380 1_555
Li0_6 Li0_7 3.095380 1_554
Li0_7 Li1_7 2.784687 1_555
Li0_7 Li1_6 2.784687 1_555
Li0_7 Li1_5 2.784767 1_565
Li0_7 Li1_4 2.784767 1_565
Li0_7 Li1_2 2.784801 1_555
Li0_7 Li1_3 2.784801 1_555
Li1_0 Li1_1 3.095380 1_554
Li1_0 Li1_1 3.095380 1_555
Li1_2 Li1_3 3.095380 1_555
Li1_2 Li1_3 3.095380 1_554
Li1_4 Li1_5 3.095380 1_554
Li1_4 Li1_5 3.095380 1_555
Li1_6 Li1_7 3.095380 1_554
Li1_6 Li1_7 3.095380 1_555
B0_0 B1_6 1.547690 1_545
B0_0 B1_7 1.547690 1_544
B0_0 Li0_6 2.314991 1_545
B0_0 Li0_2 2.315091 1_545
B0_0 Li0_4 2.315094 1_555
B0_1 B1_6 1.547690 1_545
B0_1 B1_7 1.547690 1_545
B0_1 Li0_7 2.314991 1_545
B0_1 Li0_3 2.315091 1_545
B0_1 Li0_5 2.315094 1_555
B0_2 B1_4 1.547690 1_555
B0_2 B1_5 1.547690 1_554
B0_2 Li0_4 2.314991 1_555
B0_2 Li0_0 2.315091 1_555
B0_2 Li0_6 2.315094 1_555
B0_3 B1_4 1.547690 1_555
B0_3 B1_5 1.547690 1_555
B0_3 Li0_5 2.314991 1_555
B0_3 Li0_1 2.315091 1_555
B0_3 Li0_7 2.315094 1_555
B0_4 B1_2 1.547690 1_645
B0_4 B1_3 1.547690 1_644
B0_4 Li0_2 2.314991 1_645
B0_4 Li0_6 2.315091 1_545
B0_4 Li0_0 2.315094 1_655
B0_5 B1_2 1.547690 1_645
B0_5 B1_3 1.547690 1_645
B0_5 Li0_3 2.314991 1_645
B0_5 Li0_7 2.315091 1_545
B0_5 Li0_1 2.315094 1_655
B0_6 B1_0 1.547690 1_655
B0_6 B1_1 1.547690 1_654
B0_6 Li0_0 2.314991 1_655
B0_6 Li0_4 2.315091 1_555
B0_6 Li0_2 2.315094 1_655
B0_7 B1_0 1.547690 1_655
B0_7 B1_1 1.547690 1_655
B0_7 Li0_1 2.314991 1_655
B0_7 Li0_5 2.315091 1_555
B0_7 Li0_3 2.315094 1_655
B1_0 Li1_6 2.314991 1_455
B1_0 Li1_2 2.315091 1_555
B1_0 Li1_4 2.315094 1_455
B1_1 Li1_7 2.314991 1_455
B1_1 Li1_3 2.315091 1_555
B1_1 Li1_5 2.315094 1_455
B1_2 Li1_4 2.314991 1_465
B1_2 Li1_0 2.315091 1_565
B1_2 Li1_6 2.315094 1_455
B1_3 Li1_5 2.314991 1_465
B1_3 Li1_1 2.315091 1_565
B1_3 Li1_7 2.315094 1_455
B1_4 Li1_2 2.314991 1_555
B1_4 Li1_6 2.315091 1_555
B1_4 Li1_0 2.315094 1_555
B1_5 Li1_3 2.314991 1_555
B1_5 Li1_7 2.315091 1_555
B1_5 Li1_1 2.315094 1_555
B1_6 Li1_0 2.314991 1_565
B1_6 Li1_4 2.315091 1_565
B1_6 Li1_2 2.315094 1_555
B1_7 Li1_1 2.314991 1_565
B1_7 Li1_5 2.315091 1_565
B1_7 Li1_3 2.315094 1_555
