# generated using pymatgen
data_H3PbCI3N2
_symmetry_space_group_name_H-M   'P 1'
_cell_length_a   8.14602300
_cell_length_b   9.44857600
_cell_length_c   12.97071400
_cell_angle_alpha   90.00000000
_cell_angle_beta   90.00000000
_cell_angle_gamma   90.00000000
_symmetry_Int_Tables_number   1
_chemical_formula_structural   H3PbCI3N2
_chemical_formula_sum   'H12 Pb4 C4 I12 N8'
_cell_volume   998.33403223
_cell_formula_units_Z   4
loop_
 _symmetry_equiv_pos_site_id
 _symmetry_equiv_pos_as_xyz
  1  'x, y, z'
loop_
 _atom_site_type_symbol
 _atom_site_label
 _atom_site_symmetry_multiplicity
 _atom_site_fract_x
 _atom_site_fract_y
 _atom_site_fract_z
 _atom_site_occupancy
  H  H0  1  0.85706300  0.05549300  0.75000000  1
  H  H1  1  0.02405800  0.12550400  0.68290200  1
  H  H2  1  0.02405800  0.12550400  0.81709800  1
  H  H3  1  0.52405800  0.37449600  0.81709800  1
  H  H4  1  0.52405800  0.37449600  0.68290200  1
  H  H5  1  0.35706300  0.44450700  0.75000000  1
  H  H6  1  0.64293700  0.55549300  0.25000000  1
  H  H7  1  0.47594200  0.62550400  0.18290200  1
  H  H8  1  0.47594200  0.62550400  0.31709800  1
  H  H9  1  0.97594200  0.87449600  0.31709800  1
  H  H10  1  0.97594200  0.87449600  0.18290200  1
  H  H11  1  0.14293700  0.94450700  0.25000000  1
  Pb  Pb0  1  0.00000000  0.50000000  0.00000000  1
  Pb  Pb1  1  0.00000000  0.50000000  0.50000000  1
  Pb  Pb2  1  0.50000000  0.00000000  0.00000000  1
  Pb  Pb3  1  0.50000000  0.00000000  0.50000000  1
  C  C0  1  0.92867800  0.06127100  0.25000000  1
  C  C1  1  0.42867800  0.43872900  0.25000000  1
  C  C2  1  0.57132200  0.56127100  0.75000000  1
  C  C3  1  0.07132200  0.93872900  0.75000000  1
  I  I0  1  0.56505100  0.04771400  0.75000000  1
  I  I1  1  0.15616700  0.17757800  0.98942600  1
  I  I2  1  0.15616700  0.17757800  0.51057400  1
  I  I3  1  0.65616700  0.32242200  0.98942600  1
  I  I4  1  0.65616700  0.32242200  0.51057400  1
  I  I5  1  0.06505100  0.45228600  0.75000000  1
  I  I6  1  0.93494900  0.54771400  0.25000000  1
  I  I7  1  0.34383300  0.67757800  0.48942600  1
  I  I8  1  0.34383300  0.67757800  0.01057400  1
  I  I9  1  0.84383300  0.82242200  0.01057400  1
  I  I10  1  0.84383300  0.82242200  0.48942600  1
  I  I11  1  0.43494900  0.95228600  0.25000000  1
  N  N0  1  0.98939300  0.06750700  0.75000000  1
  N  N1  1  0.85243900  0.16504700  0.25000000  1
  N  N2  1  0.35243900  0.33495300  0.25000000  1
  N  N3  1  0.48939300  0.43249300  0.75000000  1
  N  N4  1  0.51060700  0.56750700  0.25000000  1
  N  N5  1  0.64756100  0.66504700  0.75000000  1
  N  N6  1  0.14756100  0.83495300  0.75000000  1
  N  N7  1  0.01060700  0.93249300  0.25000000  1
loop_
_geom_bond_atom_site_label_1
_geom_bond_atom_site_label_2
_geom_bond_distance
_geom_bond_site_symmetry_2
H0 N0 1.083924 1_555
H0 I0 2.379872 1_555
H1 N0 1.066522 1_455
H1 I2 2.529113 1_555
H1 I5 3.225271 1_555
H2 N0 1.066522 1_455
H2 I1 2.529113 1_555
H2 I5 3.225271 1_555
H3 N3 1.066522 1_555
H3 I3 2.529113 1_555
H3 I0 3.225271 1_555
H4 N3 1.066522 1_555
H4 I4 2.529113 1_555
H4 I0 3.225271 1_555
H5 N3 1.083924 1_555
H5 I5 2.379872 1_555
H6 N4 1.083924 1_555
H6 I6 2.379872 1_555
H7 N4 1.066522 1_555
H7 I8 2.529113 1_555
H7 I11 3.225271 1_555
H8 N4 1.066522 1_555
H8 I7 2.529113 1_555
H8 I11 3.225271 1_555
H9 N7 1.066522 1_655
H9 I10 2.529113 1_555
H9 I6 3.225271 1_555
H10 N7 1.066522 1_655
H10 I9 2.529113 1_555
H10 I6 3.225271 1_555
H11 N7 1.083924 1_555
H11 I11 2.379872 1_555
C0 N1 1.160666 1_555
C0 N7 1.387783 1_645
C1 N2 1.160666 1_555
C1 N4 1.387783 1_555
C2 N5 1.160666 1_555
C2 N3 1.387783 1_555
C3 N6 1.160666 1_555
C3 N0 1.387783 1_465
I0 Pb2 3.316476 1_556
I0 Pb3 3.316476 1_555
I1 Pb2 3.267859 1_556
I1 Pb0 3.304221 1_556
I2 Pb3 3.267859 1_555
I2 Pb1 3.304221 1_555
I3 Pb0 3.267859 1_656
I3 Pb2 3.304221 1_556
I4 Pb1 3.267859 1_655
I4 Pb3 3.304221 1_555
I5 Pb0 3.316476 1_556
I5 Pb1 3.316476 1_555
I6 Pb1 3.316476 1_655
I6 Pb0 3.316476 1_655
I7 Pb1 3.267859 1_555
I7 Pb3 3.304221 1_565
I8 Pb0 3.267859 1_555
I8 Pb2 3.304221 1_565
I9 Pb2 3.267859 1_565
I9 Pb0 3.304221 1_655
I10 Pb3 3.267859 1_565
I10 Pb1 3.304221 1_655
I11 Pb2 3.316476 1_565
I11 Pb3 3.316476 1_565
