# generated using pymatgen
data_AlZn2Sb(HO)12
_symmetry_space_group_name_H-M   'P 1'
_cell_length_a   5.45499230
_cell_length_b   5.45499230
_cell_length_c   9.90130600
_cell_angle_alpha   90.00000000
_cell_angle_beta   90.00000000
_cell_angle_gamma   120.00000368
_symmetry_Int_Tables_number   1
_chemical_formula_structural   AlZn2Sb(HO)12
_chemical_formula_sum   'Al1 Zn2 Sb1 H12 O12'
_cell_volume   255.15928854
_cell_formula_units_Z   1
loop_
 _symmetry_equiv_pos_site_id
 _symmetry_equiv_pos_as_xyz
  1  'x, y, z'
loop_
 _atom_site_type_symbol
 _atom_site_label
 _atom_site_symmetry_multiplicity
 _atom_site_fract_x
 _atom_site_fract_y
 _atom_site_fract_z
 _atom_site_occupancy
  Al  Al0  1  0.00000000  0.00000000  0.00000000  1
  Zn  Zn0  1  0.66666700  0.33333300  0.99395500  1
  Zn  Zn1  1  0.33333300  0.66666700  0.00604500  1
  Sb  Sb0  1  0.00000000  0.00000000  0.50000000  1
  H  H0  1  0.54116500  0.87109500  0.61137500  1
  H  H1  1  0.45883500  0.12890500  0.38862500  1
  H  H2  1  0.32993000  0.45883500  0.61137500  1
  H  H3  1  0.67007000  0.54116500  0.38862500  1
  H  H4  1  0.12890500  0.67007000  0.61137500  1
  H  H5  1  0.87109500  0.32993000  0.38862500  1
  H  H6  1  0.69160100  0.71468300  0.80030300  1
  H  H7  1  0.30839900  0.28531700  0.19969700  1
  H  H8  1  0.02308300  0.30839900  0.80030300  1
  H  H9  1  0.97691700  0.69160100  0.19969700  1
  H  H10  1  0.28531700  0.97691700  0.80030300  1
  H  H11  1  0.71468300  0.02308300  0.19969700  1
  O  O0  1  0.69535200  0.69757800  0.89906000  1
  O  O1  1  0.30464800  0.30242200  0.10094000  1
  O  O2  1  0.00222500  0.30464800  0.89906000  1
  O  O3  1  0.99777500  0.69535200  0.10094000  1
  O  O4  1  0.30242200  0.99777500  0.89906000  1
  O  O5  1  0.69757800  0.00222500  0.10094000  1
  O  O6  1  0.65989100  0.78072300  0.61890300  1
  O  O7  1  0.34010900  0.21927700  0.38109700  1
  O  O8  1  0.12083200  0.34010900  0.61890300  1
  O  O9  1  0.87916800  0.65989100  0.38109700  1
  O  O10  1  0.21927700  0.87916800  0.61890300  1
  O  O11  1  0.78072300  0.12083200  0.38109700  1
loop_
_geom_bond_atom_site_label_1
_geom_bond_atom_site_label_2
_geom_bond_distance
_geom_bond_site_symmetry_2
Al0 O4 1.934060 1_544
Al0 O5 1.934060 1_455
Al0 O1 1.934062 1_555
Al0 O0 1.934062 1_444
Al0 O2 1.934065 1_554
Al0 O3 1.934065 1_445
H0 O6 0.993635 1_555
H1 O7 0.993635 1_555
H2 O8 0.993635 1_555
H3 O9 0.993635 1_555
H4 O10 0.993635 1_555
H5 O11 0.993635 1_555
H6 O0 0.983449 1_555
H7 O1 0.983449 1_555
H8 O2 0.983450 1_555
H9 O3 0.983450 1_555
H10 O4 0.983450 1_555
H11 O5 0.983450 1_555
O0 Zn0 2.131754 1_555
O0 Zn1 2.171962 1_556
O1 Zn1 2.131754 1_555
O1 Zn0 2.171962 1_554
O2 Zn0 2.131745 1_455
O2 Zn1 2.171961 1_556
O3 Zn1 2.131745 1_655
O3 Zn0 2.171961 1_554
O4 Zn0 2.131750 1_565
O4 Zn1 2.171962 1_556
O5 Zn1 2.131750 1_545
O5 Zn0 2.171962 1_554
O6 Sb0 2.009901 1_665
O7 Sb0 2.009901 1_555
O8 Sb0 2.009901 1_555
O9 Sb0 2.009901 1_665
O10 Sb0 2.009901 1_565
O11 Sb0 2.009901 1_655
