# generated using pymatgen
data_Li2MnCoO4
_symmetry_space_group_name_H-M   'P 1'
_cell_length_a   9.75695698
_cell_length_b   9.75695698
_cell_length_c   9.75695714
_cell_angle_alpha   17.58339944
_cell_angle_beta   17.58339944
_cell_angle_gamma   17.58339489
_symmetry_Int_Tables_number   1
_chemical_formula_structural   Li2MnCoO4
_chemical_formula_sum   'Li2 Mn1 Co1 O4'
_cell_volume   73.98637159
_cell_formula_units_Z   1
loop_
 _symmetry_equiv_pos_site_id
 _symmetry_equiv_pos_as_xyz
  1  'x, y, z'
loop_
 _atom_site_type_symbol
 _atom_site_label
 _atom_site_symmetry_multiplicity
 _atom_site_fract_x
 _atom_site_fract_y
 _atom_site_fract_z
 _atom_site_occupancy
  Li  Li0  1  0.25173000  0.25173000  0.25173000  1
  Li  Li1  1  0.74827000  0.74827000  0.74827000  1
  Mn  Mn0  1  0.50000000  0.50000000  0.50000000  1
  Co  Co0  1  0.00000000  0.00000000  0.00000000  1
  O  O0  1  0.37134500  0.37134500  0.37134500  1
  O  O1  1  0.87156400  0.87156400  0.87156400  1
  O  O2  1  0.12843600  0.12843600  0.12843600  1
  O  O3  1  0.62865500  0.62865500  0.62865500  1
loop_
_geom_bond_atom_site_label_1
_geom_bond_atom_site_label_2
_geom_bond_distance
_geom_bond_site_symmetry_2
Li0 O3 2.131337 1_455
Li0 O3 2.131337 1_545
Li0 O3 2.131337 1_554
Li0 O1 2.187663 1_454
Li0 O1 2.187663 1_544
Li0 O1 2.187663 1_445
Li1 O0 2.131337 1_655
Li1 O0 2.131337 1_565
Li1 O0 2.131337 1_556
Li1 O2 2.187663 1_566
Li1 O2 2.187663 1_656
Li1 O2 2.187663 1_665
Mn0 O2 2.044132 1_565
Mn0 O1 2.044132 1_455
Mn0 O1 2.044132 1_545
Mn0 O2 2.044132 1_655
Mn0 O2 2.044132 1_556
Mn0 O1 2.044132 1_554
Co0 O0 2.040739 1_455
Co0 O0 2.040739 1_545
Co0 O3 2.040739 1_544
Co0 O3 2.040739 1_454
Co0 O0 2.040739 1_554
Co0 O3 2.040739 1_445
