# generated using pymatgen
data_Gd2Ni2Sn
_symmetry_space_group_name_H-M   'P 1'
_cell_length_a   5.52023075
_cell_length_b   5.52023075
_cell_length_c   5.52023075
_cell_angle_alpha   134.90034184
_cell_angle_beta   118.81281036
_cell_angle_gamma   79.17409666
_symmetry_Int_Tables_number   1
_chemical_formula_structural   Gd2Ni2Sn
_chemical_formula_sum   'Gd2 Ni2 Sn1'
_cell_volume   101.20789382
_cell_formula_units_Z   1
loop_
 _symmetry_equiv_pos_site_id
 _symmetry_equiv_pos_as_xyz
  1  'x, y, z'
loop_
 _atom_site_type_symbol
 _atom_site_label
 _atom_site_symmetry_multiplicity
 _atom_site_fract_x
 _atom_site_fract_y
 _atom_site_fract_z
 _atom_site_occupancy
  Gd  Gd0  1  0.29849000  0.79849000  0.50000000  1
  Gd  Gd1  1  0.70151000  0.20151000  0.50000000  1
  Ni  Ni0  1  0.71415106  0.50000000  0.21415106  1
  Ni  Ni1  1  0.28584894  0.50000000  0.78584894  1
  Sn  Sn0  1  0.00000000  0.00000000  -0.00000000  1
loop_
_geom_bond_atom_site_label_1
_geom_bond_atom_site_label_2
_geom_bond_distance
_geom_bond_site_symmetry_2
Gd0 Ni1 2.978085 1_565
Gd0 Ni1 2.978085 1_554
Gd0 Ni0 2.978085 1_566
Gd0 Ni0 2.978085 1_555
Gd0 Ni0 3.004959 1_455
Gd0 Ni1 3.004959 1_555
Gd0 Sn0 3.291333 1_565
Gd0 Sn0 3.291333 1_666
Gd0 Sn0 3.306262 1_566
Gd0 Sn0 3.306262 1_555
Gd0 Gd1 3.429060 1_565
Gd0 Gd1 3.613245 1_465
Gd0 Gd1 3.613245 1_566
Gd0 Gd1 3.613245 1_454
Gd0 Gd1 3.613245 1_555
Gd1 Ni0 2.978085 1_556
Gd1 Ni0 2.978085 1_545
Gd1 Ni1 2.978085 1_544
Gd1 Ni1 2.978085 1_555
Gd1 Ni1 3.004959 1_655
Gd1 Ni0 3.004959 1_555
Gd1 Sn0 3.291333 1_656
Gd1 Sn0 3.291333 1_555
Gd1 Sn0 3.306262 1_655
Gd1 Sn0 3.306262 1_666
Ni0 Ni1 2.406625 1_554
Ni0 Sn0 2.657299 1_655
Ni0 Sn0 2.657299 1_666
Ni1 Sn0 2.657299 1_555
Ni1 Sn0 2.657299 1_566
