# generated using pymatgen
data_MgVPO5
_symmetry_space_group_name_H-M   'P 1'
_cell_length_a   5.28928395
_cell_length_b   7.11478399
_cell_length_c   10.93590502
_cell_angle_alpha   77.84785790
_cell_angle_beta   99.35783501
_cell_angle_gamma   73.03114174
_symmetry_Int_Tables_number   1
_chemical_formula_structural   MgVPO5
_chemical_formula_sum   'Mg4 V4 P4 O20'
_cell_volume   373.59479635
_cell_formula_units_Z   4
loop_
 _symmetry_equiv_pos_site_id
 _symmetry_equiv_pos_as_xyz
  1  'x, y, z'
loop_
 _atom_site_type_symbol
 _atom_site_label
 _atom_site_symmetry_multiplicity
 _atom_site_fract_x
 _atom_site_fract_y
 _atom_site_fract_z
 _atom_site_occupancy
  Mg  Mg0  1  0.55783800  0.93619100  0.31037600  1
  Mg  Mg1  1  0.05816400  0.43505900  0.81028100  1
  Mg  Mg2  1  0.44146600  0.04706400  0.69119900  1
  Mg  Mg3  1  0.94169600  0.54746000  0.19118600  1
  V  V0  1  0.99979900  0.99156900  0.50071900  1
  V  V1  1  0.99982800  0.49134800  0.50073400  1
  V  V2  1  0.49997800  0.49145800  0.00057700  1
  V  V3  1  0.49960800  0.99147100  0.00079700  1
  P  P0  1  0.51829700  0.56039500  0.69164300  1
  P  P1  1  0.01821600  0.06083800  0.19164600  1
  P  P2  1  0.48149100  0.42247100  0.30970700  1
  P  P3  1  0.98130800  0.92222700  0.80963200  1
  O  O0  1  0.30698900  0.44888700  0.67328400  1
  O  O1  1  0.80696700  0.94925500  0.17326700  1
  O  O2  1  0.37896500  0.79384400  0.63442700  1
  O  O3  1  0.87928800  0.29410200  0.13426700  1
  O  O4  1  0.69319500  0.53371000  0.32834100  1
  O  O5  1  0.19245800  0.03397100  0.82830400  1
  O  O6  1  0.62077200  0.18911800  0.36689800  1
  O  O7  1  0.12132400  0.68896900  0.86666700  1
  O  O8  1  0.33780800  0.47478100  0.16381300  1
  O  O9  1  0.83745200  0.97504800  0.66373600  1
  O  O10  1  0.73218900  0.00692100  0.86456000  1
  O  O11  1  0.23252600  0.50792300  0.36460800  1
  O  O12  1  0.66236500  0.50785700  0.83754400  1
  O  O13  1  0.16146000  0.00871900  0.33758300  1
  O  O14  1  0.26742400  0.97549800  0.13684000  1
  O  O15  1  0.76692800  0.47503200  0.63646800  1
  O  O16  1  0.13885200  0.19870500  0.54287400  1
  O  O17  1  0.63878300  0.69871500  0.04289400  1
  O  O18  1  0.86063000  0.78435900  0.45840800  1
  O  O19  1  0.36117700  0.28423500  0.95852000  1
loop_
_geom_bond_atom_site_label_1
_geom_bond_atom_site_label_2
_geom_bond_distance
_geom_bond_site_symmetry_2
Mg0 O18 1.939941 1_555
Mg0 O13 2.094363 1_565
Mg0 O6 2.117119 1_565
Mg0 O14 2.148745 1_555
Mg0 O1 2.156058 1_555
Mg0 O4 2.696646 1_555
Mg1 O19 1.940889 1_555
Mg1 O12 2.091637 1_455
Mg1 O7 2.123583 1_555
Mg1 O15 2.152055 1_455
Mg1 O0 2.154326 1_555
Mg1 O5 2.687237 1_555
Mg2 O16 1.941126 1_555
Mg2 O9 2.093449 1_545
Mg2 O2 2.119516 1_545
Mg2 O10 2.146637 1_555
Mg2 O5 2.155568 1_555
Mg2 O0 2.692479 1_555
Mg3 O17 1.941368 1_555
Mg3 O8 2.093656 1_655
Mg3 O3 2.120999 1_555
Mg3 O11 2.148566 1_655
Mg3 O4 2.154377 1_555
Mg3 O1 2.692201 1_555
O0 P0 1.559027 1_555
O0 V1 2.183588 1_455
O1 P1 1.559188 1_665
O1 V3 2.184009 1_555
O2 P0 1.546402 1_555
O2 V0 2.161642 1_455
O3 P1 1.545258 1_655
O3 V2 2.161422 1_555
O4 P2 1.559732 1_555
O4 V1 2.180973 1_555
O5 P3 1.559987 1_445
O5 V3 2.183038 1_546
O6 P2 1.545767 1_555
O6 V0 2.161364 1_545
O7 P3 1.545406 1_455
O7 V2 2.160441 1_556
O8 P2 1.565962 1_555
O8 V2 2.098743 1_555
O9 P3 1.565784 1_555
O9 V0 2.097107 1_555
O10 P3 1.551286 1_545
O10 V3 2.085950 1_546
O11 P2 1.551664 1_555
O11 V1 2.086039 1_455
O12 P0 1.566349 1_555
O12 V2 2.097388 1_556
O13 P1 1.565962 1_555
O13 V0 2.096228 1_445
O14 P1 1.551879 1_565
O14 V3 2.083020 1_555
O15 P0 1.551936 1_555
O15 V1 2.083249 1_555
O16 V1 1.918425 1_455
O16 V0 1.932305 1_445
O17 V3 1.919213 1_555
O17 V2 1.932959 1_555
O18 V1 1.920765 1_555
O18 V0 1.933713 1_555
O19 V3 1.919062 1_546
O19 V2 1.931763 1_556
