# generated using pymatgen
data_Ba2La2Ni(WO6)2
_symmetry_space_group_name_H-M   'P 1'
_cell_length_a   5.72325925
_cell_length_b   5.72376889
_cell_length_c   9.85103840
_cell_angle_alpha   73.10516119
_cell_angle_beta   73.11416830
_cell_angle_gamma   60.00674994
_symmetry_Int_Tables_number   1
_chemical_formula_structural   Ba2La2Ni(WO6)2
_chemical_formula_sum   'Ba2 La2 Ni1 W2 O12'
_cell_volume   263.29176913
_cell_formula_units_Z   1
loop_
 _symmetry_equiv_pos_site_id
 _symmetry_equiv_pos_as_xyz
  1  'x, y, z'
loop_
 _atom_site_type_symbol
 _atom_site_label
 _atom_site_symmetry_multiplicity
 _atom_site_fract_x
 _atom_site_fract_y
 _atom_site_fract_z
 _atom_site_occupancy
  Ba  Ba0  1  0.13379700  0.13375900  0.59858700  1
  Ba  Ba1  1  0.86621600  0.86616900  0.40140600  1
  La  La0  1  0.29313400  0.29304600  0.12073500  1
  La  La1  1  0.70692300  0.70687600  0.87927700  1
  Ni  Ni0  1  0.00005100  0.00030600  0.99988200  1
  W  W0  1  0.41720600  0.41716000  0.74834400  1
  W  W1  1  0.58274300  0.58288300  0.25167600  1
  O  O0  1  0.11679300  0.61696200  0.64915600  1
  O  O1  1  0.61699400  0.61697700  0.64914300  1
  O  O2  1  0.61697400  0.11677100  0.64916500  1
  O  O3  1  0.88316100  0.38298800  0.35088500  1
  O  O4  1  0.38299400  0.38299300  0.35087400  1
  O  O5  1  0.38299500  0.88315700  0.35087200  1
  O  O6  1  0.31796600  0.78455000  0.11295600  1
  O  O7  1  0.78455800  0.78457800  0.11294900  1
  O  O8  1  0.78454400  0.31796000  0.11295100  1
  O  O9  1  0.68201800  0.21542700  0.88704800  1
  O  O10  1  0.21547800  0.21544800  0.88704000  1
  O  O11  1  0.21545700  0.68199000  0.88705500  1
loop_
_geom_bond_atom_site_label_1
_geom_bond_atom_site_label_2
_geom_bond_distance
_geom_bond_site_symmetry_2
Ba0 O3 2.830398 1_455
Ba0 O4 2.830707 1_555
Ba0 O5 2.830846 1_545
Ba0 O2 2.899703 1_555
Ba0 O2 2.900032 1_455
Ba0 O0 2.900087 1_555
Ba0 O1 2.900119 1_545
Ba0 O0 2.900124 1_545
Ba0 O1 2.900377 1_455
Ba0 O11 3.205074 1_545
Ba0 O10 3.205324 1_555
Ba0 O9 3.205351 1_455
Ba1 O0 2.830636 1_655
Ba1 O1 2.830792 1_555
Ba1 O2 2.831220 1_565
Ba1 O5 2.899761 1_555
Ba1 O5 2.899842 1_655
Ba1 O3 2.899921 1_555
Ba1 O3 2.900145 1_565
Ba1 O4 2.900152 1_655
Ba1 O4 2.900272 1_565
Ba1 O7 3.205033 1_555
Ba1 O8 3.205045 1_565
Ba1 O6 3.205197 1_655
La0 O11 2.660682 1_554
La0 O9 2.660804 1_554
La0 O10 2.660961 1_554
La0 O5 2.699617 1_545
La0 O4 2.699963 1_555
La0 O3 2.700205 1_455
La0 O8 2.864529 1_555
La0 O6 2.864771 1_545
La0 O7 2.864795 1_545
La0 O8 2.864827 1_455
La0 O6 2.865063 1_555
La0 O7 2.865368 1_455
La1 O8 2.660561 1_556
La1 O6 2.660960 1_556
La1 O7 2.660981 1_556
La1 O2 2.699477 1_565
La1 O0 2.699709 1_655
La1 O1 2.699980 1_555
La1 O11 2.864564 1_655
La1 O11 2.864780 1_555
La1 O9 2.864866 1_565
La1 O9 2.864992 1_555
La1 O10 2.865018 1_655
La1 O10 2.865160 1_565
Ni0 O10 2.048994 1_555
Ni0 O9 2.050314 1_455
Ni0 O8 2.050517 1_456
Ni0 O6 2.051290 1_546
Ni0 O11 2.051846 1_545
Ni0 O7 2.052199 1_446
O0 W0 1.891910 1_555
O0 O10 2.726360 1_555
O0 O11 2.726820 1_555
O1 W0 1.891886 1_555
O1 O9 2.726583 1_555
O1 O11 2.726828 1_555
O2 W0 1.892091 1_555
O2 O9 2.726725 1_555
O3 W1 1.892057 1_555
O3 O7 2.726902 1_555
O3 O8 2.727010 1_555
O4 W1 1.892028 1_555
O4 O6 2.726687 1_555
O4 O8 2.726934 1_555
O5 W1 1.891694 1_555
O5 O6 2.726847 1_555
O5 O7 2.727007 1_555
O6 W1 2.008371 1_555
O6 O7 2.670487 1_555
O6 O8 2.670773 1_555
O7 W1 2.008400 1_555
O7 O8 2.670848 1_555
O7 O9 2.738642 1_564
O8 W1 2.009325 1_555
O8 O9 2.739167 1_554
O9 W0 2.008388 1_555
O10 W0 2.008028 1_555
O10 O9 2.670092 1_555
O10 O11 2.670361 1_555
O10 O2 2.726520 1_555
O10 O6 2.738889 1_546
O10 O8 2.739225 1_456
O11 W0 2.008870 1_555
O11 O9 2.670647 1_555
O11 O7 2.739010 1_456
O11 O6 2.739180 1_556
