# generated using pymatgen
data_Sr2CoRuO6
_symmetry_space_group_name_H-M   'P 1'
_cell_length_a   5.59541163
_cell_length_b   5.59541163
_cell_length_c   5.59541173
_cell_angle_alpha   60.54307523
_cell_angle_beta   60.54307523
_cell_angle_gamma   60.54308705
_symmetry_Int_Tables_number   1
_chemical_formula_structural   Sr2CoRuO6
_chemical_formula_sum   'Sr2 Co1 Ru1 O6'
_cell_volume   125.39422370
_cell_formula_units_Z   1
loop_
 _symmetry_equiv_pos_site_id
 _symmetry_equiv_pos_as_xyz
  1  'x, y, z'
loop_
 _atom_site_type_symbol
 _atom_site_label
 _atom_site_symmetry_multiplicity
 _atom_site_fract_x
 _atom_site_fract_y
 _atom_site_fract_z
 _atom_site_occupancy
  Sr  Sr0  1  0.25044600  0.25044600  0.25044600  1
  Sr  Sr1  1  0.74955400  0.74955400  0.74955400  1
  Co  Co0  1  0.50000000  0.50000000  0.50000000  1
  Ru  Ru0  1  0.00000000  0.00000000  0.00000000  1
  O  O0  1  0.71816100  0.24200300  0.79583400  1
  O  O1  1  0.28183900  0.75799700  0.20416600  1
  O  O2  1  0.75799700  0.20416600  0.28183900  1
  O  O3  1  0.79583400  0.71816100  0.24200300  1
  O  O4  1  0.24200300  0.79583400  0.71816100  1
  O  O5  1  0.20416600  0.28183900  0.75799700  1
loop_
_geom_bond_atom_site_label_1
_geom_bond_atom_site_label_2
_geom_bond_distance
_geom_bond_site_symmetry_2
Co0 O3 2.053792 1_555
Co0 O5 2.053792 1_555
Co0 O0 2.053793 1_555
Co0 O1 2.053793 1_555
Co0 O4 2.053793 1_555
Co0 O2 2.053793 1_555
O0 Ru0 1.943136 1_656
O0 Sr0 2.602097 1_556
O0 Sr1 2.805611 1_545
O0 Sr1 2.808177 1_555
O0 Sr0 3.040193 1_655
O1 Ru0 1.943136 1_565
O1 Sr1 2.602097 1_554
O1 Sr0 2.805611 1_565
O1 Sr0 2.808177 1_555
O1 Sr1 3.040193 1_455
O2 Ru0 1.943136 1_655
O2 Sr1 2.602097 1_545
O2 Sr0 2.805611 1_655
O2 Sr0 2.808177 1_555
O2 Sr1 3.040193 1_554
O3 Ru0 1.943136 1_665
O3 Sr0 2.602097 1_655
O3 Sr1 2.805611 1_554
O3 Sr1 2.808177 1_555
O3 Sr0 3.040194 1_565
O4 Ru0 1.943136 1_566
O4 Sr0 2.602097 1_565
O4 Sr1 2.805611 1_455
O4 Sr1 2.808177 1_555
O4 Sr0 3.040193 1_556
O5 Ru0 1.943136 1_556
O5 Sr1 2.602097 1_455
O5 Sr0 2.805611 1_556
O5 Sr0 2.808177 1_555
O5 Sr1 3.040194 1_545
