# generated using pymatgen
data_Li5Ti2V3O10
_symmetry_space_group_name_H-M   'P 1'
_cell_length_a   6.64859507
_cell_length_b   7.91974724
_cell_length_c   7.88660077
_cell_angle_alpha   65.86211210
_cell_angle_beta   89.86716540
_cell_angle_gamma   89.94020638
_symmetry_Int_Tables_number   1
_chemical_formula_structural   Li5Ti2V3O10
_chemical_formula_sum   'Li10 Ti4 V6 O20'
_cell_volume   378.95985493
_cell_formula_units_Z   2
loop_
 _symmetry_equiv_pos_site_id
 _symmetry_equiv_pos_as_xyz
  1  'x, y, z'
loop_
 _atom_site_type_symbol
 _atom_site_label
 _atom_site_symmetry_multiplicity
 _atom_site_fract_x
 _atom_site_fract_y
 _atom_site_fract_z
 _atom_site_occupancy
  Li  Li0  1  0.74714900  0.74925800  0.49844300  1
  Li  Li1  1  0.24750400  0.25053800  0.50175100  1
  Li  Li2  1  0.35615100  0.86930100  0.59312800  1
  Li  Li3  1  0.85706200  0.36990400  0.59044400  1
  Li  Li4  1  0.63879500  0.13633800  0.40294100  1
  Li  Li5  1  0.14156200  0.63357400  0.40452200  1
  Li  Li6  1  0.45772200  0.93384300  0.22081100  1
  Li  Li7  1  0.95711900  0.43549900  0.22023700  1
  Li  Li8  1  0.53726100  0.06822900  0.77397700  1
  Li  Li9  1  0.03853500  0.56631100  0.77315100  1
  Ti  Ti0  1  0.05708700  0.03939200  0.31044300  1
  Ti  Ti1  1  0.55520600  0.53809900  0.30509200  1
  Ti  Ti2  1  0.93594800  0.96166900  0.69010600  1
  Ti  Ti3  1  0.44043900  0.46628900  0.68727800  1
  V  V0  1  0.33767000  0.34465400  0.09606100  1
  V  V1  1  0.65069800  0.65625100  0.89483400  1
  V  V2  1  0.15162200  0.15617600  0.89807500  1
  V  V3  1  0.74780300  0.25547400  0.99504900  1
  V  V4  1  0.25118000  0.75329800  0.99527100  1
  V  V5  1  0.84521800  0.84569200  0.10015000  1
  O  O0  1  0.13618000  0.90304700  0.15200900  1
  O  O1  1  0.63258000  0.40247500  0.15084100  1
  O  O2  1  0.85367200  0.09350600  0.84723900  1
  O  O3  1  0.35014700  0.59541800  0.84362700  1
  O  O4  1  0.45151200  0.67794900  0.45340000  1
  O  O5  1  0.95196000  0.17713600  0.45389400  1
  O  O6  1  0.54399000  0.32593900  0.53770800  1
  O  O7  1  0.04231400  0.82526700  0.53999800  1
  O  O8  1  0.55233100  0.78998500  0.06941900  1
  O  O9  1  0.04712500  0.28928600  0.06864000  1
  O  O10  1  0.44769300  0.21881500  0.92928100  1
  O  O11  1  0.94904300  0.72086500  0.93132400  1
  O  O12  1  0.23066900  0.00251600  0.74725000  1
  O  O13  1  0.73271200  0.50103300  0.74287100  1
  O  O14  1  0.76727700  0.99933800  0.24081200  1
  O  O15  1  0.26685300  0.50004000  0.24242600  1
  O  O16  1  0.33108500  0.09600600  0.33617800  1
  O  O17  1  0.83288700  0.59834700  0.33352900  1
  O  O18  1  0.66301200  0.90892600  0.65189300  1
  O  O19  1  0.16519800  0.40575200  0.65397400  1
loop_
_geom_bond_atom_site_label_1
_geom_bond_atom_site_label_2
_geom_bond_distance
_geom_bond_site_symmetry_2
Li0 O4 2.116185 1_555
Li0 O7 2.118423 1_655
Li0 O13 2.118976 1_555
Li0 O18 2.150240 1_555
Li0 O17 2.170590 1_555
Li0 O14 2.185624 1_555
Li1 O19 2.110519 1_555
Li1 O6 2.113351 1_555
Li1 O12 2.123340 1_555
Li1 O5 2.127604 1_455
Li1 O15 2.190430 1_555
Li1 O16 2.194087 1_555
Li2 O12 2.080584 1_565
Li2 O16 2.093599 1_565
Li2 O18 2.144841 1_555
Li2 O7 2.185423 1_555
Li2 O3 2.259322 1_555
Li2 O4 2.296421 1_555
Li3 O13 2.054698 1_555
Li3 O17 2.099350 1_555
Li3 O19 2.156620 1_655
Li3 O6 2.179628 1_555
Li3 O5 2.286495 1_555
Li3 O2 2.295193 1_555
Li4 O18 2.057506 1_545
Li4 O14 2.160911 1_545
Li4 O16 2.169939 1_555
Li4 O5 2.170836 1_555
Li4 O1 2.229365 1_555
Li4 O6 2.254319 1_555
Li5 O19 2.061130 1_555
Li5 O15 2.132030 1_555
Li5 O4 2.152839 1_555
Li5 O17 2.176544 1_455
Li5 O0 2.246331 1_555
Li5 O7 2.281026 1_555
Li6 O16 2.033718 1_565
Li6 O8 2.055930 1_555
Li6 O4 2.105486 1_555
Li6 O14 2.144851 1_555
Li6 O0 2.244732 1_555
Li6 O10 2.478055 1_564
Li7 O17 2.020082 1_555
Li7 O9 2.062996 1_655
Li7 O5 2.121262 1_555
Li7 O15 2.147003 1_655
Li7 O1 2.268801 1_555
Li7 O11 2.467996 1_554
Li8 O18 2.050694 1_545
Li8 O10 2.113510 1_555
Li8 O6 2.128178 1_555
Li8 O12 2.136423 1_555
Li8 O2 2.213715 1_555
Li8 O8 2.469071 1_546
Li9 O19 2.044777 1_555
Li9 O7 2.122132 1_555
Li9 O13 2.136353 1_455
Li9 O11 2.156905 1_455
Li9 O3 2.182998 1_555
Li9 O9 2.462981 1_556
O0 Ti0 2.025602 1_565
O0 V5 2.067195 1_455
O0 V4 2.170687 1_554
O0 V2 2.180836 1_564
O1 Ti1 1.990699 1_555
O1 V0 2.099629 1_555
O1 V3 2.148385 1_554
O1 V1 2.193392 1_554
O2 Ti2 1.994757 1_545
O2 V2 2.121255 1_655
O2 V5 2.152102 1_546
O2 V3 2.171881 1_555
O3 Ti3 1.988291 1_555
O3 V1 2.133790 1_555
O3 V4 2.155075 1_555
O3 V0 2.163421 1_556
O4 Ti3 1.920523 1_555
O4 Ti1 2.030835 1_555
O5 Ti2 1.947618 1_545
O5 Ti0 1.990641 1_655
O6 Ti1 1.916488 1_555
O6 Ti3 2.041557 1_555
O7 Ti0 1.910913 1_565
O7 Ti2 2.027077 1_455
O8 V5 2.033899 1_555
O8 Ti1 2.098118 1_555
O8 V4 2.140308 1_554
O8 V1 2.152297 1_554
O9 V0 2.012918 1_555
O9 Ti0 2.114577 1_555
O9 V3 2.121912 1_454
O9 V2 2.134823 1_554
O10 V2 2.070176 1_555
O10 V0 2.079555 1_556
O10 Ti3 2.104086 1_555
O10 V3 2.112761 1_555
O11 Ti2 2.072889 1_555
O11 V5 2.073037 1_556
O11 V1 2.098681 1_555
O11 V4 2.113591 1_655
O12 Ti2 2.066876 1_445
O12 V2 2.086084 1_555
O12 V4 2.140905 1_545
O13 Ti3 2.036597 1_555
O13 V1 2.108392 1_555
O13 V3 2.141210 1_555
O14 V5 2.019882 1_555
O14 Ti0 2.064830 1_665
O14 V3 2.161806 1_564
O15 Ti1 2.034202 1_555
O15 V0 2.055880 1_555
O15 V4 2.153192 1_554
O16 Ti0 1.907530 1_555
O16 V0 2.101370 1_555
O17 Ti1 1.943620 1_555
O17 V5 2.069431 1_555
O18 Ti2 1.914499 1_555
O18 V1 2.132132 1_555
O19 Ti3 1.937698 1_555
O19 V2 2.123339 1_555
