# generated using pymatgen
data_VZnO2
_symmetry_space_group_name_H-M   'P 1'
_cell_length_a   3.05556300
_cell_length_b   7.62983978
_cell_length_c   8.45534192
_cell_angle_alpha   88.17967899
_cell_angle_beta   100.19188926
_cell_angle_gamma   101.49037205
_symmetry_Int_Tables_number   1
_chemical_formula_structural   VZnO2
_chemical_formula_sum   'V4 Zn4 O8'
_cell_volume   190.12316330
_cell_formula_units_Z   4
loop_
 _symmetry_equiv_pos_site_id
 _symmetry_equiv_pos_as_xyz
  1  'x, y, z'
loop_
 _atom_site_type_symbol
 _atom_site_label
 _atom_site_symmetry_multiplicity
 _atom_site_fract_x
 _atom_site_fract_y
 _atom_site_fract_z
 _atom_site_occupancy
  V  V0  1  0.82290500  0.48353200  0.17604400  1
  V  V1  1  0.63398900  0.78637900  0.50806800  1
  V  V2  1  0.31357700  0.18255800  0.47041700  1
  V  V3  1  0.14362500  0.48784800  0.80783200  1
  Zn  Zn0  1  0.54663300  0.88216000  0.19684400  1
  Zn  Zn1  1  0.47361800  0.09221800  0.78374700  1
  Zn  Zn2  1  0.93211700  0.85756700  0.89933300  1
  Zn  Zn3  1  0.10487600  0.11162800  0.07281000  1
  O  O0  1  0.52039200  0.34169300  0.70705300  1
  O  O1  1  0.80904100  0.29369900  0.34862200  1
  O  O2  1  0.14180100  0.68063400  0.63391500  1
  O  O3  1  0.44546400  0.63132700  0.27645000  1
  O  O4  1  0.19706000  0.35957000  0.04401300  1
  O  O5  1  0.14111600  0.92727100  0.37674900  1
  O  O6  1  0.77146800  0.61242300  0.93871300  1
  O  O7  1  0.80992800  0.04387400  0.59872500  1
loop_
_geom_bond_atom_site_label_1
_geom_bond_atom_site_label_2
_geom_bond_distance
_geom_bond_site_symmetry_2
Zn0 Zn3 2.512192 1_565
Zn0 Zn3 2.530094 1_665
Zn1 Zn2 2.485775 1_445
Zn1 Zn2 2.554763 1_545
Zn2 Zn3 2.384679 1_666
O0 Zn1 1.977392 1_555
O0 V3 2.052801 1_555
O0 V3 2.058194 1_655
O0 V2 2.297413 1_555
O1 V2 2.014040 1_555
O1 V2 2.014890 1_655
O1 V0 2.022890 1_555
O2 V1 2.012651 1_455
O2 V1 2.018250 1_555
O2 V3 2.046718 1_555
O3 Zn0 1.991834 1_555
O3 V0 2.060497 1_455
O3 V0 2.061040 1_555
O3 V1 2.245704 1_555
O4 Zn3 1.870852 1_555
O4 V0 2.094934 1_555
O4 V0 2.097000 1_455
O4 V3 2.190130 1_554
O5 V2 2.059185 1_565
O5 Zn0 2.130330 1_455
O5 V1 2.152649 1_555
O5 V1 2.158472 1_455
O5 Zn0 2.199527 1_555
O5 O7 2.544640 1_465
O5 O7 2.552417 1_565
O6 Zn2 1.871562 1_555
O6 V3 2.089014 1_655
O6 V3 2.097009 1_555
O6 V0 2.200751 1_556
O7 V1 2.065301 1_545
O7 Zn1 2.096681 1_555
O7 V2 2.129341 1_655
O7 V2 2.140317 1_555
O7 Zn1 2.304766 1_655
