# generated using pymatgen
data_Li4MnCo2O7
_symmetry_space_group_name_H-M   'P 1'
_cell_length_a   5.09212700
_cell_length_b   5.15779422
_cell_length_c   10.12780711
_cell_angle_alpha   99.57096202
_cell_angle_beta   100.22633844
_cell_angle_gamma   99.87944450
_symmetry_Int_Tables_number   1
_chemical_formula_structural   Li4MnCo2O7
_chemical_formula_sum   'Li8 Mn2 Co4 O14'
_cell_volume   252.52566045
_cell_formula_units_Z   2
loop_
 _symmetry_equiv_pos_site_id
 _symmetry_equiv_pos_as_xyz
  1  'x, y, z'
loop_
 _atom_site_type_symbol
 _atom_site_label
 _atom_site_symmetry_multiplicity
 _atom_site_fract_x
 _atom_site_fract_y
 _atom_site_fract_z
 _atom_site_occupancy
  Li  Li0  1  0.70974000  0.43006900  0.92502500  1
  Li  Li1  1  0.29109700  0.57405500  0.06445700  1
  Li  Li2  1  0.85804000  0.70682600  0.21163400  1
  Li  Li3  1  0.57040500  0.14545400  0.65293400  1
  Li  Li4  1  0.15002100  0.28223900  0.78676300  1
  Li  Li5  1  0.42705800  0.85485600  0.35566600  1
  Li  Li6  1  0.99728100  0.00319100  0.50274900  1
  Li  Li7  1  0.42927200  0.85739400  0.85772800  1
  Mn  Mn0  1  0.99612500  0.99236500  0.99756200  1
  Mn  Mn1  1  0.71296100  0.43019300  0.42789400  1
  Co  Co0  1  0.56528300  0.13463700  0.13410100  1
  Co  Co1  1  0.14276900  0.28497800  0.28565000  1
  Co  Co2  1  0.29303400  0.57880200  0.58226000  1
  Co  Co3  1  0.86871200  0.72793300  0.71832500  1
  O  O0  1  0.80589800  0.06267200  0.83133700  1
  O  O1  1  0.34908800  0.20325200  0.97810500  1
  O  O2  1  0.94081900  0.32757300  0.10950300  1
  O  O3  1  0.63896600  0.75813800  0.52913300  1
  O  O4  1  0.19585200  0.90985400  0.67520800  1
  O  O5  1  0.50877400  0.48599000  0.25872600  1
  O  O6  1  0.05454200  0.61818900  0.39673500  1
  O  O7  1  0.66873400  0.80820400  0.03969200  1
  O  O8  1  0.20746400  0.93908000  0.17211300  1
  O  O9  1  0.77772500  0.10295300  0.32107400  1
  O  O10  1  0.49946200  0.50788900  0.73762400  1
  O  O11  1  0.05681800  0.66919600  0.89731700  1
  O  O12  1  0.36702700  0.23244500  0.45306400  1
  O  O13  1  0.91703300  0.37157400  0.59762300  1
loop_
_geom_bond_atom_site_label_1
_geom_bond_atom_site_label_2
_geom_bond_distance
_geom_bond_site_symmetry_2
Li0 O11 2.065603 1_655
Li0 O10 2.142218 1_555
Li0 O0 2.148580 1_555
Li0 O7 2.160734 1_556
Li0 O1 2.202890 1_555
Li0 O2 2.217231 1_556
Li1 O1 2.058906 1_554
Li1 O11 2.071114 1_554
Li1 O8 2.161526 1_555
Li1 O7 2.166640 1_555
Li1 O2 2.170132 1_455
Li1 O5 2.236441 1_555
Li2 O7 2.028502 1_555
Li2 O8 2.107623 1_655
Li2 O5 2.115333 1_555
Li2 O6 2.121445 1_655
Li2 O2 2.199744 1_555
Li2 O9 2.294523 1_565
Li3 O10 2.041882 1_555
Li3 O0 2.132566 1_555
Li3 O4 2.147986 1_545
Li3 O13 2.156718 1_555
Li3 O12 2.255774 1_555
Li3 O3 2.290545 1_545
Li4 O0 2.080108 1_455
Li4 O4 2.132086 1_545
Li4 O10 2.136560 1_555
Li4 O1 2.157688 1_555
Li4 O13 2.227876 1_455
Li4 O11 2.287556 1_555
Li5 O3 2.074305 1_555
Li5 O12 2.128817 1_565
Li5 O9 2.129749 1_565
Li5 O5 2.133605 1_555
Li5 O8 2.142909 1_555
Li5 O6 2.217140 1_555
Li6 O4 2.030876 1_645
Li6 O3 2.119460 1_545
Li6 O13 2.121119 1_555
Li6 O9 2.163795 1_555
Li6 O6 2.186761 1_645
Li6 O12 2.228589 1_655
Li7 O4 2.097516 1_555
Li7 O7 2.100293 1_556
Li7 O0 2.109467 1_565
Li7 O11 2.113697 1_555
Li7 O10 2.122093 1_555
Li7 O1 2.130425 1_565
Mn0 O11 1.905273 1_655
Mn0 O0 1.910097 1_565
Mn0 O7 1.925497 1_556
Mn0 O8 1.986552 1_656
Mn0 O1 1.994626 1_665
Mn0 O2 1.995615 1_566
Mn1 O5 1.932204 1_555
Mn1 O13 1.942303 1_555
Mn1 O6 1.945025 1_655
Mn1 O3 1.957934 1_555
Mn1 O12 1.958996 1_555
Mn1 O9 1.959193 1_555
Co0 O1 1.880248 1_554
Co0 O7 1.993579 1_545
Co0 O9 2.054016 1_555
Co0 O8 2.057430 1_545
Co0 O2 2.075508 1_555
Co0 O5 2.123032 1_555
Co1 O12 1.955443 1_555
Co1 O2 1.960823 1_455
Co1 O9 2.053149 1_455
Co1 O6 2.054925 1_555
Co1 O5 2.057718 1_555
Co1 O8 2.065831 1_545
Co2 O10 1.857584 1_555
Co2 O4 1.991846 1_555
Co2 O3 2.047194 1_555
Co2 O13 2.071553 1_455
Co2 O6 2.109021 1_555
Co2 O12 2.161977 1_555
Co3 O4 1.924659 1_655
Co3 O11 1.990266 1_655
Co3 O0 2.013840 1_565
Co3 O10 2.081750 1_555
Co3 O3 2.104811 1_555
Co3 O13 2.109047 1_555
