# generated using pymatgen
data_Mg14VSiO16
_symmetry_space_group_name_H-M   'P 1'
_cell_length_a   8.60537982
_cell_length_b   8.60893787
_cell_length_c   4.30423083
_cell_angle_alpha   90.00000000
_cell_angle_beta   90.00000000
_cell_angle_gamma   90.00000000
_symmetry_Int_Tables_number   1
_chemical_formula_structural   Mg14VSiO16
_chemical_formula_sum   'Mg14 V1 Si1 O16'
_cell_volume   318.87110828
_cell_formula_units_Z   1
loop_
 _symmetry_equiv_pos_site_id
 _symmetry_equiv_pos_as_xyz
  1  'x, y, z'
loop_
 _atom_site_type_symbol
 _atom_site_label
 _atom_site_symmetry_multiplicity
 _atom_site_fract_x
 _atom_site_fract_y
 _atom_site_fract_z
 _atom_site_occupancy
  Mg  Mg0  1  0.50000000  -0.00000000  -0.00000000  1
  Mg  Mg1  1  0.50000000  0.50000000  -0.00000000  1
  Mg  Mg2  1  -0.00000000  0.24837969  0.50000000  1
  Mg  Mg3  1  -0.00000000  0.75162031  0.50000000  1
  Mg  Mg4  1  0.50000000  0.24976483  0.50000000  1
  Mg  Mg5  1  0.50000000  0.75023517  0.50000000  1
  Mg  Mg6  1  0.25082080  -0.00000000  0.50000000  1
  Mg  Mg7  1  0.25277988  0.50000000  0.50000000  1
  Mg  Mg8  1  0.74917920  -0.00000000  0.50000000  1
  Mg  Mg9  1  0.74722012  0.50000000  0.50000000  1
  Mg  Mg10  1  0.25170346  0.24944835  -0.00000000  1
  Mg  Mg11  1  0.25170346  0.75055165  0.00000000  1
  Mg  Mg12  1  0.74829654  0.24944835  0.00000000  1
  Mg  Mg13  1  0.74829654  0.75055165  0.00000000  1
  V  V0  1  -0.00000000  -0.00000000  -0.00000000  1
  Si  Si0  1  -0.00000000  0.50000000  -0.00000000  1
  O  O0  1  0.25541084  -0.00000000  -0.00000000  1
  O  O1  1  0.26223276  0.50000000  -0.00000000  1
  O  O2  1  0.74458916  -0.00000000  -0.00000000  1
  O  O3  1  0.73776724  0.50000000  -0.00000000  1
  O  O4  1  0.24875711  0.25018557  0.50000000  1
  O  O5  1  0.24875711  0.74981443  0.50000000  1
  O  O6  1  0.75124289  0.25018557  0.50000000  1
  O  O7  1  0.75124289  0.74981443  0.50000000  1
  O  O8  1  -0.00000000  -0.00000000  0.50000000  1
  O  O9  1  -0.00000000  0.50000000  0.50000000  1
  O  O10  1  0.50000000  -0.00000000  0.50000000  1
  O  O11  1  0.50000000  0.50000000  0.50000000  1
  O  O12  1  -0.00000000  0.24701719  -0.00000000  1
  O  O13  1  -0.00000000  0.75298281  -0.00000000  1
  O  O14  1  0.50000000  0.24839848  0.00000000  1
  O  O15  1  0.50000000  0.75160152  -0.00000000  1
loop_
_geom_bond_atom_site_label_1
_geom_bond_atom_site_label_2
_geom_bond_distance
_geom_bond_site_symmetry_2
Mg0 O2 2.104783 1_555
Mg0 O0 2.104783 1_555
Mg0 O15 2.138447 1_545
Mg0 O14 2.138447 1_555
Mg0 O10 2.152115 1_555
Mg0 O10 2.152115 1_554
Mg1 O1 2.046077 1_555
Mg1 O3 2.046077 1_555
Mg1 O11 2.152115 1_554
Mg1 O11 2.152115 1_555
Mg1 O14 2.166022 1_555
Mg1 O15 2.166022 1_555
Mg2 O8 2.138285 1_555
Mg2 O4 2.140706 1_555
Mg2 O6 2.140706 1_455
Mg2 O12 2.152147 1_556
Mg2 O12 2.152147 1_555
Mg2 O9 2.166184 1_555
Mg3 O8 2.138285 1_565
Mg3 O7 2.140706 1_455
Mg3 O5 2.140706 1_555
Mg3 O13 2.152147 1_555
Mg3 O13 2.152147 1_556
Mg3 O9 2.166184 1_555
Mg4 O10 2.150210 1_555
Mg4 O14 2.152148 1_556
Mg4 O14 2.152148 1_555
Mg4 O11 2.154259 1_555
Mg4 O4 2.162044 1_555
Mg4 O6 2.162044 1_555
Mg5 O10 2.150210 1_565
Mg5 O15 2.152148 1_556
Mg5 O15 2.152148 1_555
Mg5 O11 2.154259 1_555
Mg5 O5 2.162044 1_555
Mg5 O7 2.162044 1_555
Mg6 O10 2.144282 1_555
Mg6 O0 2.152478 1_555
Mg6 O0 2.152478 1_556
Mg6 O5 2.153905 1_545
Mg6 O4 2.153905 1_555
Mg6 O8 2.158408 1_555
Mg7 O11 2.127423 1_555
Mg7 O4 2.150915 1_555
Mg7 O5 2.150915 1_555
Mg7 O1 2.153652 1_556
Mg7 O1 2.153652 1_555
Mg7 O9 2.175267 1_555
Mg8 O10 2.144282 1_555
Mg8 O2 2.152478 1_556
Mg8 O2 2.152478 1_555
Mg8 O7 2.153905 1_545
Mg8 O6 2.153905 1_555
Mg8 O8 2.158408 1_655
Mg9 O11 2.127423 1_555
Mg9 O6 2.150915 1_555
Mg9 O7 2.150915 1_555
Mg9 O3 2.153652 1_556
Mg9 O3 2.153652 1_555
Mg9 O9 2.175267 1_655
Mg10 O14 2.136705 1_555
Mg10 O0 2.147722 1_555
Mg10 O4 2.152274 1_554
Mg10 O4 2.152274 1_555
Mg10 O1 2.158886 1_555
Mg10 O12 2.166105 1_555
Mg11 O15 2.136705 1_555
Mg11 O0 2.147722 1_565
Mg11 O5 2.152274 1_554
Mg11 O5 2.152274 1_555
Mg11 O1 2.158886 1_555
Mg11 O13 2.166105 1_555
Mg12 O14 2.136705 1_555
Mg12 O2 2.147722 1_555
Mg12 O6 2.152274 1_555
Mg12 O6 2.152274 1_554
Mg12 O3 2.158886 1_555
Mg12 O12 2.166105 1_655
Mg13 O15 2.136705 1_555
Mg13 O2 2.147722 1_565
Mg13 O7 2.152274 1_555
Mg13 O7 2.152274 1_554
Mg13 O3 2.158886 1_555
Mg13 O13 2.166105 1_655
O0 V0 2.197907 1_555
O1 Si0 2.256613 1_555
O2 V0 2.197907 1_655
O3 Si0 2.256613 1_655
O8 V0 2.152115 1_556
O8 V0 2.152115 1_555
O9 Si0 2.152115 1_555
O9 Si0 2.152115 1_556
O12 V0 2.126556 1_555
O12 Si0 2.177913 1_555
O13 V0 2.126556 1_565
O13 Si0 2.177913 1_555
