# generated using pymatgen
data_YbGaNi
_symmetry_space_group_name_H-M   'P 1'
_cell_length_a   4.21305139
_cell_length_b   6.68025772
_cell_length_c   7.18887647
_cell_angle_alpha   90.00000000
_cell_angle_beta   90.00000000
_cell_angle_gamma   90.00000000
_symmetry_Int_Tables_number   1
_chemical_formula_structural   YbGaNi
_chemical_formula_sum   'Yb4 Ga4 Ni4'
_cell_volume   202.32567372
_cell_formula_units_Z   4
loop_
 _symmetry_equiv_pos_site_id
 _symmetry_equiv_pos_as_xyz
  1  'x, y, z'
loop_
 _atom_site_type_symbol
 _atom_site_label
 _atom_site_symmetry_multiplicity
 _atom_site_fract_x
 _atom_site_fract_y
 _atom_site_fract_z
 _atom_site_occupancy
  Yb  Yb0  1  0.25000000  0.01652652  0.30337057  1
  Yb  Yb1  1  0.25000000  0.51652652  0.19662943  1
  Yb  Yb2  1  0.75000000  0.98347348  0.69662943  1
  Yb  Yb3  1  0.75000000  0.48347348  0.80337057  1
  Ga  Ga0  1  0.25000000  0.17775031  0.92238622  1
  Ga  Ga1  1  0.25000000  0.67775031  0.57761378  1
  Ga  Ga2  1  0.75000000  0.82224969  0.07761378  1
  Ga  Ga3  1  0.75000000  0.32224969  0.42238622  1
  Ni  Ni0  1  0.25000000  0.28828311  0.59571723  1
  Ni  Ni1  1  0.25000000  0.78828311  0.90428277  1
  Ni  Ni2  1  0.75000000  0.71171689  0.40428277  1
  Ni  Ni3  1  0.75000000  0.21171689  0.09571723  1
loop_
_geom_bond_atom_site_label_1
_geom_bond_atom_site_label_2
_geom_bond_distance
_geom_bond_site_symmetry_2
Yb0 Yb1 3.427139 1_545
Yb0 Yb1 3.427139 1_555
Yb2 Yb3 3.427139 1_565
Yb2 Yb3 3.427139 1_555
Ga0 Ni3 2.457965 1_456
Ga0 Ni3 2.457965 1_556
Ga0 Ni0 2.461731 1_555
Ga0 Ni1 2.604994 1_545
Ga0 Yb0 2.943002 1_556
Ga0 Yb2 2.959005 1_445
Ga0 Yb2 2.959005 1_545
Ga0 Yb1 3.001415 1_556
Ga0 Yb3 3.056225 1_555
Ga0 Yb3 3.056225 1_455
Ga1 Ni2 2.457965 1_555
Ga1 Ni2 2.457965 1_455
Ga1 Ni1 2.461731 1_555
Ga1 Ni0 2.604994 1_555
Ga1 Yb1 2.943002 1_555
Ga1 Yb3 2.959005 1_455
Ga1 Yb3 2.959005 1_555
Ga1 Yb0 3.001415 1_565
Ga1 Yb2 3.056225 1_555
Ga1 Yb2 3.056225 1_455
Ga2 Ni1 2.457965 1_654
Ga2 Ni1 2.457965 1_554
Ga2 Ni2 2.461731 1_555
Ga2 Ni3 2.604994 1_565
Ga2 Yb2 2.943002 1_554
Ga2 Yb0 2.959005 1_665
Ga2 Yb0 2.959005 1_565
Ga2 Yb3 3.001415 1_554
Ga2 Yb1 3.056225 1_655
Ga2 Yb1 3.056225 1_555
Ga3 Ni0 2.457965 1_555
Ga3 Ni0 2.457965 1_655
Ga3 Ni3 2.461731 1_555
Ga3 Ni2 2.604994 1_555
Ga3 Yb3 2.943002 1_555
Ga3 Yb1 2.959005 1_655
Ga3 Yb1 2.959005 1_555
Ga3 Yb2 3.001415 1_545
Ga3 Yb0 3.056225 1_555
Ga3 Yb0 3.056225 1_655
Ni0 Yb0 2.777157 1_555
Ni0 Yb3 2.892421 1_455
Ni0 Yb3 2.892421 1_555
Ni0 Yb2 3.018254 1_445
Ni0 Yb2 3.018254 1_545
Ni0 Yb1 3.248985 1_555
Ni1 Yb1 2.777157 1_556
Ni1 Yb2 2.892421 1_455
Ni1 Yb2 2.892421 1_555
Ni1 Yb3 3.018254 1_555
Ni1 Yb3 3.018254 1_455
Ni1 Yb0 3.248985 1_566
Ni2 Yb2 2.777157 1_555
Ni2 Yb1 2.892421 1_555
Ni2 Yb1 2.892421 1_655
Ni2 Yb0 3.018254 1_665
Ni2 Yb0 3.018254 1_565
Ni2 Yb3 3.248985 1_555
Ni3 Yb3 2.777157 1_554
Ni3 Yb0 2.892421 1_555
Ni3 Yb0 2.892421 1_655
Ni3 Yb1 3.018254 1_655
Ni3 Yb1 3.018254 1_555
Ni3 Yb2 3.248985 1_544
