# generated using pymatgen
data_Er2Mo3H2Se2O17
_symmetry_space_group_name_H-M   'P 1'
_cell_length_a   7.28713700
_cell_length_b   6.83018600
_cell_length_c   14.32592520
_cell_angle_alpha   80.40517002
_cell_angle_beta   90.00000000
_cell_angle_gamma   90.00000000
_symmetry_Int_Tables_number   1
_chemical_formula_structural   Er2Mo3H2Se2O17
_chemical_formula_sum   'Er4 Mo6 H4 Se4 O34'
_cell_volume   703.06250976
_cell_formula_units_Z   2
loop_
 _symmetry_equiv_pos_site_id
 _symmetry_equiv_pos_as_xyz
  1  'x, y, z'
loop_
 _atom_site_type_symbol
 _atom_site_label
 _atom_site_symmetry_multiplicity
 _atom_site_fract_x
 _atom_site_fract_y
 _atom_site_fract_z
 _atom_site_occupancy
  Er  Er0  1  0.25000000  0.38994600  0.54151400  1
  Er  Er1  1  0.75000000  0.61005400  0.45848600  1
  Er  Er2  1  0.25000000  0.74154300  0.12259600  1
  Er  Er3  1  0.75000000  0.25845700  0.87740400  1
  Mo  Mo0  1  0.00427400  0.20823200  0.13708400  1
  Mo  Mo1  1  0.50427400  0.79176800  0.86291600  1
  Mo  Mo2  1  0.99572600  0.79176800  0.86291600  1
  Mo  Mo3  1  0.49572600  0.20823200  0.13708400  1
  Mo  Mo4  1  0.75000000  0.12761200  0.33283900  1
  Mo  Mo5  1  0.25000000  0.87238800  0.66716100  1
  H  H0  1  0.35665000  0.24757100  0.36236200  1
  H  H1  1  0.85665000  0.75242900  0.63763800  1
  H  H2  1  0.64335000  0.75242900  0.63763800  1
  H  H3  1  0.14335000  0.24757100  0.36236200  1
  Se  Se0  1  0.25000000  0.78854800  0.38215800  1
  Se  Se1  1  0.75000000  0.21145200  0.61784200  1
  Se  Se2  1  0.75000000  0.74355300  0.18953800  1
  Se  Se3  1  0.25000000  0.25644700  0.81046200  1
  O  O0  1  0.07293900  0.64816300  0.44456700  1
  O  O1  1  0.57293900  0.35183700  0.55543300  1
  O  O2  1  0.92706100  0.35183700  0.55543300  1
  O  O3  1  0.42706100  0.64816300  0.44456700  1
  O  O4  1  0.25000000  0.71054300  0.27485900  1
  O  O5  1  0.75000000  0.28945700  0.72514100  1
  O  O6  1  0.75000000  0.79795800  0.30201800  1
  O  O7  1  0.25000000  0.20204200  0.69798200  1
  O  O8  1  0.94020300  0.88184600  0.14219800  1
  O  O9  1  0.44020300  0.11815400  0.85780200  1
  O  O10  1  0.05979700  0.11815400  0.85780200  1
  O  O11  1  0.55979700  0.88184600  0.14219800  1
  O  O12  1  0.25000000  0.08958500  0.12789200  1
  O  O13  1  0.75000000  0.91041500  0.87210800  1
  O  O14  1  0.93233300  0.23649800  0.01781800  1
  O  O15  1  0.43233300  0.76350200  0.98218200  1
  O  O16  1  0.06766700  0.76350200  0.98218200  1
  O  O17  1  0.56766700  0.23649800  0.01781800  1
  O  O18  1  0.07485400  0.45242300  0.14423200  1
  O  O19  1  0.57485400  0.54757700  0.85576800  1
  O  O20  1  0.92514600  0.54757700  0.85576800  1
  O  O21  1  0.42514600  0.45242300  0.14423200  1
  O  O22  1  0.99728400  0.12214100  0.28645200  1
  O  O23  1  0.49728400  0.87785900  0.71354800  1
  O  O24  1  0.00271600  0.87785900  0.71354800  1
  O  O25  1  0.50271600  0.12214100  0.28645200  1
  O  O26  1  0.75000000  0.23015000  0.17770400  1
  O  O27  1  0.25000000  0.76985000  0.82229600  1
  O  O28  1  0.75000000  0.36904600  0.36415200  1
  O  O29  1  0.25000000  0.63095400  0.63584800  1
  O  O30  1  0.75000000  0.96895800  0.44381200  1
  O  O31  1  0.25000000  0.03104200  0.55618800  1
  O  O32  1  0.25000000  0.30011000  0.39278400  1
  O  O33  1  0.75000000  0.69989000  0.60721600  1
loop_
_geom_bond_atom_site_label_1
_geom_bond_atom_site_label_2
_geom_bond_distance
_geom_bond_site_symmetry_2
Er0 O29 2.297320 1_555
Er0 O32 2.313480 1_555
Er0 O1 2.372390 1_555
Er0 O2 2.372390 1_455
Er0 O7 2.390122 1_555
Er0 O31 2.425216 1_555
Er0 O3 2.426455 1_555
Er0 O0 2.426455 1_555
Er1 O28 2.297320 1_555
Er1 O33 2.313480 1_555
Er1 O0 2.372390 1_655
Er1 O3 2.372390 1_555
Er1 O6 2.390122 1_555
Er1 O30 2.425216 1_555
Er1 O2 2.426455 1_555
Er1 O1 2.426455 1_555
Er2 O4 2.156148 1_555
Er2 O21 2.328221 1_555
Er2 O18 2.328221 1_555
Er2 O12 2.391008 1_565
Er2 O15 2.394515 1_554
Er2 O16 2.394515 1_554
Er2 O8 2.486635 1_455
Er2 O11 2.486635 1_555
Er3 O5 2.156148 1_555
Er3 O20 2.328221 1_555
Er3 O19 2.328221 1_555
Er3 O13 2.391008 1_545
Er3 O14 2.394515 1_556
Er3 O17 2.394515 1_556
Er3 O10 2.486635 1_655
Er3 O9 2.486635 1_555
Mo0 O18 1.764580 1_555
Mo0 O14 1.766760 1_455
Mo0 O26 1.955359 1_455
Mo0 O12 1.978894 1_555
Mo0 O22 2.123158 1_455
Mo0 O8 2.266846 1_445
Mo1 O19 1.764580 1_555
Mo1 O15 1.766760 1_555
Mo1 O27 1.955359 1_555
Mo1 O13 1.978894 1_555
Mo1 O23 2.123158 1_555
Mo1 O9 2.266846 1_565
Mo2 O20 1.764580 1_555
Mo2 O16 1.766760 1_655
Mo2 O27 1.955359 1_655
Mo2 O13 1.978894 1_555
Mo2 O24 2.123158 1_655
Mo2 O10 2.266846 1_665
Mo3 O21 1.764580 1_555
Mo3 O17 1.766760 1_555
Mo3 O26 1.955359 1_555
Mo3 O12 1.978894 1_555
Mo3 O25 2.123158 1_555
Mo3 O11 2.266846 1_545
Mo4 O30 1.768447 1_545
Mo4 O28 1.779652 1_555
Mo4 O22 1.923138 1_555
Mo4 O25 1.923138 1_555
Mo4 O26 2.216058 1_555
Mo4 O6 2.365601 1_545
Mo5 O31 1.768447 1_565
Mo5 O29 1.779652 1_555
Mo5 O23 1.923138 1_555
Mo5 O24 1.923138 1_555
Mo5 O27 2.216058 1_555
Mo5 O7 2.365601 1_565
H0 O32 0.987345 1_555
H0 O25 1.833057 1_555
H1 O33 0.987345 1_555
H1 O24 1.833057 1_655
H2 O33 0.987345 1_555
H2 O23 1.833057 1_555
H3 O32 0.987345 1_555
H3 O22 1.833057 1_455
O0 Se0 1.760048 1_555
O1 Se1 1.760048 1_555
O2 Se1 1.760048 1_555
O3 Se0 1.760048 1_555
O4 Se0 1.708722 1_555
O5 Se1 1.708722 1_555
O6 Se2 1.712962 1_555
O7 Se3 1.712962 1_555
O8 Se2 1.749198 1_555
O9 Se3 1.749198 1_555
O10 Se3 1.749198 1_555
O10 O13 2.656084 1_445
O11 Se2 1.749198 1_555
O11 O12 2.656084 1_565
O12 O8 2.656084 1_445
O13 O9 2.656084 1_565
O14 O26 2.642090 1_555
O15 O27 2.642090 1_555
O16 O27 2.642090 1_555
O17 O26 2.642090 1_555
O22 O26 2.415653 1_555
O23 O27 2.415653 1_555
O24 O27 2.415653 1_555
O25 O26 2.415653 1_555
