# generated using pymatgen
data_AlNF4
_symmetry_space_group_name_H-M   'P 1'
_cell_length_a   10.29969177
_cell_length_b   10.29969177
_cell_length_c   10.29969177
_cell_angle_alpha   111.61282635
_cell_angle_beta   111.61282635
_cell_angle_gamma   105.26801968
_symmetry_Int_Tables_number   1
_chemical_formula_structural   AlNF4
_chemical_formula_sum   'Al10 N10 F40'
_cell_volume   837.74378529
_cell_formula_units_Z   10
loop_
 _symmetry_equiv_pos_site_id
 _symmetry_equiv_pos_as_xyz
  1  'x, y, z'
loop_
 _atom_site_type_symbol
 _atom_site_label
 _atom_site_symmetry_multiplicity
 _atom_site_fract_x
 _atom_site_fract_y
 _atom_site_fract_z
 _atom_site_occupancy
  Al  Al0  1  0.50000000  0.00000000  0.50000000  1
  Al  Al1  1  0.00000000  0.50000000  0.50000000  1
  Al  Al2  1  0.20868100  0.07616800  0.28484900  1
  Al  Al3  1  0.79131900  0.92383200  0.71515100  1
  Al  Al4  1  0.70868100  0.42383200  0.13251300  1
  Al  Al5  1  0.29131900  0.57616800  0.86748700  1
  Al  Al6  1  0.92383200  0.20868100  0.13251300  1
  Al  Al7  1  0.07616800  0.79131900  0.86748700  1
  Al  Al8  1  0.57616800  0.70868100  0.28484900  1
  Al  Al9  1  0.42383200  0.29131900  0.71515100  1
  N  N0  1  0.02941000  0.52941000  0.17822100  1
  N  N1  1  0.35118900  0.85118900  0.82177900  1
  N  N2  1  0.52941000  0.35118900  0.50000000  1
  N  N3  1  0.85118900  0.02941000  0.50000000  1
  N  N4  1  0.97059000  0.47059000  0.82177900  1
  N  N5  1  0.64881100  0.14881100  0.17822100  1
  N  N6  1  0.47059000  0.64881100  0.50000000  1
  N  N7  1  0.14881100  0.97059000  0.50000000  1
  N  N8  1  0.75000000  0.75000000  0.00000000  1
  N  N9  1  0.25000000  0.25000000  0.00000000  1
  F  F0  1  0.34046600  0.99978500  0.34025100  1
  F  F1  1  0.65953400  0.00021500  0.65974900  1
  F  F2  1  0.84046600  0.50021500  0.34068000  1
  F  F3  1  0.15953400  0.49978500  0.65932000  1
  F  F4  1  0.00021500  0.34046600  0.34068000  1
  F  F5  1  0.99978500  0.65953400  0.65932000  1
  F  F6  1  0.49978500  0.84046600  0.34025100  1
  F  F7  1  0.50021500  0.15953400  0.65974900  1
  F  F8  1  0.36066200  0.86066200  0.50000000  1
  F  F9  1  0.86066200  0.36066200  0.50000000  1
  F  F10  1  0.63933800  0.13933800  0.50000000  1
  F  F11  1  0.13933800  0.63933800  0.50000000  1
  F  F12  1  0.13861200  0.93399900  0.07261100  1
  F  F13  1  0.86138800  0.06600100  0.92738900  1
  F  F14  1  0.63861200  0.56600100  0.20461300  1
  F  F15  1  0.36138800  0.43399900  0.79538700  1
  F  F16  1  0.06600100  0.13861200  0.20461300  1
  F  F17  1  0.93399900  0.86138800  0.79538700  1
  F  F18  1  0.43399900  0.63861200  0.07261100  1
  F  F19  1  0.56600100  0.36138800  0.92738900  1
  F  F20  1  0.28013100  0.21986900  0.50000000  1
  F  F21  1  0.71986900  0.78013100  0.50000000  1
  F  F22  1  0.78013100  0.28013100  0.06026100  1
  F  F23  1  0.21986900  0.71986900  0.93973900  1
  F  F24  1  0.06633800  0.93488500  0.30165000  1
  F  F25  1  0.63323500  0.76468900  0.69835000  1
  F  F26  1  0.56633800  0.26468900  0.13145400  1
  F  F27  1  0.13323500  0.43488500  0.86854600  1
  F  F28  1  0.76468900  0.06633800  0.13145400  1
  F  F29  1  0.93488500  0.63323500  0.86854600  1
  F  F30  1  0.43488500  0.56633800  0.30165000  1
  F  F31  1  0.26468900  0.13323500  0.69835000  1
  F  F32  1  0.93366200  0.06511500  0.69835000  1
  F  F33  1  0.36676500  0.23531100  0.30165000  1
  F  F34  1  0.43366200  0.73531100  0.86854600  1
  F  F35  1  0.86676500  0.56511500  0.13145400  1
  F  F36  1  0.23531100  0.93366200  0.86854600  1
  F  F37  1  0.06511500  0.36676500  0.13145400  1
  F  F38  1  0.56511500  0.43366200  0.69835000  1
  F  F39  1  0.73531100  0.86676500  0.30165000  1
loop_
_geom_bond_atom_site_label_1
_geom_bond_atom_site_label_2
_geom_bond_distance
_geom_bond_site_symmetry_2
Al0 F10 1.741983 1_555
Al0 F8 1.741983 1_545
Al0 F7 1.846873 1_555
Al0 F1 1.846873 1_555
Al0 F0 1.846873 1_545
Al0 F6 1.846873 1_545
Al1 F11 1.741983 1_555
Al1 F9 1.741983 1_455
Al1 F3 1.846879 1_555
Al1 F4 1.846879 1_555
Al1 F2 1.846879 1_455
Al1 F5 1.846879 1_455
Al2 F0 1.763368 1_545
Al2 F16 1.803020 1_555
Al2 F12 1.834881 1_545
Al2 F20 1.857868 1_555
Al2 F33 1.882990 1_555
Al2 F24 1.882996 1_545
Al3 F1 1.763368 1_565
Al3 F17 1.803020 1_555
Al3 F13 1.834881 1_565
Al3 F21 1.857868 1_555
Al3 F25 1.882990 1_555
Al3 F32 1.882996 1_565
Al4 F2 1.763360 1_555
Al4 F19 1.803020 1_554
Al4 F14 1.834881 1_555
Al4 F22 1.857871 1_555
Al4 F35 1.882990 1_555
Al4 F26 1.882996 1_555
Al5 F3 1.763360 1_555
Al5 F18 1.803020 1_556
Al5 F15 1.834881 1_555
Al5 F23 1.857871 1_555
Al5 F27 1.882990 1_555
Al5 F34 1.882996 1_555
Al6 F4 1.763360 1_655
Al6 F13 1.803020 1_554
Al6 F16 1.834881 1_655
Al6 F22 1.857871 1_555
Al6 F37 1.882990 1_655
Al6 F28 1.882996 1_555
Al7 F5 1.763360 1_455
Al7 F12 1.803020 1_556
Al7 F17 1.834881 1_455
Al7 F23 1.857871 1_555
Al7 F29 1.882990 1_455
Al7 F36 1.882996 1_555
Al8 F6 1.763368 1_555
Al8 F14 1.803020 1_555
Al8 F18 1.834881 1_555
Al8 F21 1.857868 1_555
Al8 F39 1.882990 1_555
Al8 F30 1.882996 1_555
Al9 F7 1.763368 1_555
Al9 F15 1.803020 1_555
Al9 F19 1.834881 1_555
Al9 F20 1.857868 1_555
Al9 F31 1.882990 1_555
Al9 F38 1.882996 1_555
F0 F12 2.457768 1_555
F1 F13 2.457768 1_555
F12 F17 2.513465 1_454
F12 F16 2.513465 1_565
F13 F17 2.513465 1_545
F13 F16 2.513465 1_656
F14 F2 2.457764 1_555
F14 F18 2.513465 1_555
F14 F19 2.513465 1_554
F15 F3 2.457764 1_555
F15 F19 2.513465 1_555
F15 F18 2.513465 1_556
F16 F4 2.457764 1_555
F17 F5 2.457764 1_555
F18 F6 2.457768 1_555
F19 F7 2.457768 1_555
F20 F31 2.550025 1_555
F20 F33 2.550025 1_555
F20 F24 2.550027 1_545
F20 F38 2.550027 1_555
F20 N7 2.567585 1_545
F20 N2 2.567585 1_555
F21 F39 2.550025 1_555
F21 F25 2.550025 1_555
F21 F32 2.550027 1_565
F21 F30 2.550027 1_555
F21 N3 2.567585 1_565
F21 N6 2.567585 1_555
F22 F37 2.550022 1_655
F22 F35 2.550022 1_555
F22 F28 2.550041 1_555
F22 F26 2.550041 1_555
F22 N0 2.567582 1_655
F22 N5 2.567594 1_555
F23 F29 2.550022 1_455
F23 F27 2.550022 1_555
F23 F36 2.550041 1_555
F23 F34 2.550041 1_555
F23 N4 2.567582 1_455
F23 N1 2.567594 1_555
F24 N7 1.741854 1_555
F24 N8 2.968434 1_455
F25 N6 1.741854 1_555
F25 N8 2.968439 1_556
F26 N5 1.741860 1_555
F26 N9 2.968430 1_555
F27 N4 1.741854 1_455
F27 N9 2.968439 1_556
F28 N5 1.741860 1_555
F28 N8 2.968430 1_545
F29 N4 1.741854 1_555
F29 N8 2.968439 1_556
F30 N6 1.741854 1_555
F30 N9 2.968434 1_555
F31 N7 1.741854 1_545
F31 N9 2.968439 1_556
F32 N3 1.741854 1_555
F32 N9 2.968434 1_656
F33 N2 1.741854 1_555
F33 N9 2.968439 1_555
F34 N1 1.741860 1_555
F34 N8 2.968430 1_556
F35 N0 1.741854 1_655
F35 N8 2.968439 1_555
F36 N1 1.741860 1_555
F36 N9 2.968430 1_566
F37 N0 1.741854 1_555
F37 N9 2.968439 1_555
F38 N2 1.741854 1_555
F38 N8 2.968434 1_556
F39 N3 1.741854 1_565
F39 N8 2.968439 1_555
