# generated using pymatgen
data_BaGe
_symmetry_space_group_name_H-M   'P 1'
_cell_length_a   8.65802480
_cell_length_b   10.17818702
_cell_length_c   13.17228154
_cell_angle_alpha   112.72748741
_cell_angle_beta   90.00000000
_cell_angle_gamma   90.00000000
_symmetry_Int_Tables_number   1
_chemical_formula_structural   BaGe
_chemical_formula_sum   'Ba16 Ge16'
_cell_volume   1070.64957530
_cell_formula_units_Z   16
loop_
 _symmetry_equiv_pos_site_id
 _symmetry_equiv_pos_as_xyz
  1  'x, y, z'
loop_
 _atom_site_type_symbol
 _atom_site_label
 _atom_site_symmetry_multiplicity
 _atom_site_fract_x
 _atom_site_fract_y
 _atom_site_fract_z
 _atom_site_occupancy
  Ba  Ba0_0  1  0.12500000  0.43122355  0.36244610  1
  Ba  Ba0_1  1  0.12500000  0.43122355  0.86244610  1
  Ba  Ba0_2  1  0.12500000  0.93122355  0.36244610  1
  Ba  Ba0_3  1  0.12500000  0.93122355  0.86244610  1
  Ba  Ba0_4  1  0.62500000  0.43122355  0.36244610  1
  Ba  Ba0_5  1  0.62500000  0.43122355  0.86244610  1
  Ba  Ba0_6  1  0.62500000  0.93122355  0.36244610  1
  Ba  Ba0_7  1  0.62500000  0.93122355  0.86244610  1
  Ba  Ba1_0  1  0.37500000  0.06877645  0.13755390  1
  Ba  Ba1_1  1  0.37500000  0.06877645  0.63755390  1
  Ba  Ba1_2  1  0.37500000  0.56877645  0.13755390  1
  Ba  Ba1_3  1  0.37500000  0.56877645  0.63755390  1
  Ba  Ba1_4  1  0.87500000  0.06877645  0.13755390  1
  Ba  Ba1_5  1  0.87500000  0.06877645  0.63755390  1
  Ba  Ba1_6  1  0.87500000  0.56877645  0.13755390  1
  Ba  Ba1_7  1  0.87500000  0.56877645  0.63755390  1
  Ge  Ge0_0  1  0.12500000  0.28166621  0.06333243  1
  Ge  Ge0_1  1  0.12500000  0.28166621  0.56333243  1
  Ge  Ge0_2  1  0.12500000  0.78166621  0.06333243  1
  Ge  Ge0_3  1  0.12500000  0.78166621  0.56333243  1
  Ge  Ge0_4  1  0.62500000  0.28166621  0.06333243  1
  Ge  Ge0_5  1  0.62500000  0.28166621  0.56333243  1
  Ge  Ge0_6  1  0.62500000  0.78166621  0.06333243  1
  Ge  Ge0_7  1  0.62500000  0.78166621  0.56333243  1
  Ge  Ge1_0  1  0.37500000  0.21833379  0.43666757  1
  Ge  Ge1_1  1  0.37500000  0.21833379  0.93666757  1
  Ge  Ge1_2  1  0.37500000  0.71833379  0.43666757  1
  Ge  Ge1_3  1  0.37500000  0.71833379  0.93666756  1
  Ge  Ge1_4  1  0.87500000  0.21833379  0.43666757  1
  Ge  Ge1_5  1  0.87500000  0.21833379  0.93666757  1
  Ge  Ge1_6  1  0.87500000  0.71833379  0.43666757  1
  Ge  Ge1_7  1  0.87500000  0.71833379  0.93666756  1
loop_
_geom_bond_atom_site_label_1
_geom_bond_atom_site_label_2
_geom_bond_distance
_geom_bond_site_symmetry_2
Ba0_0 Ge1_6 3.460193 1_455
Ba0_0 Ge1_2 3.460193 1_555
Ba0_0 Ge1_0 3.460201 1_555
Ba0_0 Ge1_4 3.460201 1_455
Ba0_0 Ge0_3 3.525840 1_555
Ba0_0 Ge0_1 3.525847 1_555
Ba0_0 Ge0_0 3.634079 1_555
Ba0_0 Ba1_3 3.982067 1_555
Ba0_0 Ba1_7 3.982067 1_455
Ba0_0 Ba1_2 4.315710 1_555
Ba0_0 Ba1_6 4.315710 1_455
Ba0_0 Ba1_0 4.315723 1_555
Ba0_0 Ba1_4 4.315723 1_455
Ba0_0 Ba0_4 4.329012 1_455
Ba0_0 Ba0_4 4.329012 1_555
Ba0_1 Ge1_3 3.460193 1_555
Ba0_1 Ge1_7 3.460193 1_455
Ba0_1 Ge1_5 3.460201 1_455
Ba0_1 Ge1_1 3.460201 1_555
Ba0_1 Ge0_2 3.525840 1_556
Ba0_1 Ge0_0 3.525847 1_556
Ba0_1 Ge0_1 3.634079 1_555
Ba0_1 Ba1_2 3.982067 1_556
Ba0_1 Ba1_6 3.982067 1_456
Ba0_1 Ba1_3 4.315710 1_555
Ba0_1 Ba1_7 4.315710 1_455
Ba0_1 Ba1_1 4.315723 1_555
Ba0_1 Ba1_5 4.315723 1_455
Ba0_1 Ba0_5 4.329012 1_455
Ba0_1 Ba0_5 4.329012 1_555
Ba0_2 Ge1_4 3.460193 1_465
Ba0_2 Ge1_0 3.460193 1_565
Ba0_2 Ge1_2 3.460201 1_555
Ba0_2 Ge1_6 3.460201 1_455
Ba0_2 Ge0_1 3.525840 1_565
Ba0_2 Ge0_3 3.525847 1_555
Ba0_2 Ge0_2 3.634079 1_555
Ba0_2 Ba1_5 3.982067 1_465
Ba0_2 Ba1_1 3.982067 1_565
Ba0_2 Ba1_4 4.315710 1_465
Ba0_2 Ba1_0 4.315710 1_565
Ba0_2 Ba1_6 4.315723 1_455
Ba0_2 Ba1_2 4.315723 1_555
Ba0_2 Ba0_6 4.329012 1_455
Ba0_2 Ba0_6 4.329012 1_555
Ba0_3 Ge1_5 3.460193 1_465
Ba0_3 Ge1_1 3.460193 1_565
Ba0_3 Ge1_7 3.460201 1_455
Ba0_3 Ge1_3 3.460201 1_555
Ba0_3 Ge0_0 3.525840 1_566
Ba0_3 Ge0_2 3.525847 1_556
Ba0_3 Ge0_3 3.634079 1_555
Ba0_3 Ba1_0 3.982067 1_566
Ba0_3 Ba1_4 3.982067 1_466
Ba0_3 Ba1_5 4.315710 1_465
Ba0_3 Ba1_1 4.315710 1_565
Ba0_3 Ba1_7 4.315723 1_455
Ba0_3 Ba1_3 4.315723 1_555
Ba0_3 Ba0_7 4.329012 1_555
Ba0_3 Ba0_7 4.329012 1_455
Ba0_4 Ge1_2 3.460193 1_555
Ba0_4 Ge1_6 3.460193 1_555
Ba0_4 Ge1_0 3.460201 1_555
Ba0_4 Ge1_4 3.460201 1_555
Ba0_4 Ge0_7 3.525840 1_555
Ba0_4 Ge0_5 3.525847 1_555
Ba0_4 Ge0_4 3.634079 1_555
Ba0_4 Ba1_3 3.982067 1_555
Ba0_4 Ba1_7 3.982067 1_555
Ba0_4 Ba1_2 4.315710 1_555
Ba0_4 Ba1_6 4.315710 1_555
Ba0_4 Ba1_0 4.315723 1_555
Ba0_4 Ba1_4 4.315723 1_555
Ba0_5 Ge1_3 3.460193 1_555
Ba0_5 Ge1_7 3.460193 1_555
Ba0_5 Ge1_5 3.460201 1_555
Ba0_5 Ge1_1 3.460201 1_555
Ba0_5 Ge0_6 3.525840 1_556
Ba0_5 Ge0_4 3.525847 1_556
Ba0_5 Ge0_5 3.634079 1_555
Ba0_5 Ba1_2 3.982067 1_556
Ba0_5 Ba1_6 3.982067 1_556
Ba0_5 Ba1_7 4.315710 1_555
Ba0_5 Ba1_3 4.315710 1_555
Ba0_5 Ba1_1 4.315723 1_555
Ba0_5 Ba1_5 4.315723 1_555
Ba0_6 Ge1_0 3.460193 1_565
Ba0_6 Ge1_4 3.460193 1_565
Ba0_6 Ge1_6 3.460201 1_555
Ba0_6 Ge1_2 3.460201 1_555
Ba0_6 Ge0_5 3.525840 1_565
Ba0_6 Ge0_7 3.525847 1_555
Ba0_6 Ge0_6 3.634079 1_555
Ba0_6 Ba1_1 3.982067 1_565
Ba0_6 Ba1_5 3.982067 1_565
Ba0_6 Ba1_0 4.315710 1_565
Ba0_6 Ba1_4 4.315710 1_565
Ba0_6 Ba1_6 4.315723 1_555
Ba0_6 Ba1_2 4.315723 1_555
Ba0_7 Ge1_1 3.460193 1_565
Ba0_7 Ge1_5 3.460193 1_565
Ba0_7 Ge1_3 3.460201 1_555
Ba0_7 Ge1_7 3.460201 1_555
Ba0_7 Ge0_4 3.525840 1_566
Ba0_7 Ge0_6 3.525847 1_556
Ba0_7 Ge0_7 3.634079 1_555
Ba0_7 Ba1_4 3.982067 1_566
Ba0_7 Ba1_0 3.982067 1_566
Ba0_7 Ba1_5 4.315710 1_565
Ba0_7 Ba1_1 4.315710 1_565
Ba0_7 Ba1_7 4.315723 1_555
Ba0_7 Ba1_3 4.315723 1_555
Ba1_0 Ge0_6 3.460193 1_545
Ba1_0 Ge0_2 3.460193 1_545
Ba1_0 Ge0_0 3.460201 1_555
Ba1_0 Ge0_4 3.460201 1_555
Ba1_0 Ge1_3 3.525840 1_544
Ba1_0 Ge1_1 3.525847 1_554
Ba1_0 Ge1_0 3.634079 1_555
Ba1_0 Ba1_4 4.329012 1_455
Ba1_0 Ba1_4 4.329012 1_555
Ba1_1 Ge0_3 3.460193 1_545
Ba1_1 Ge0_7 3.460193 1_545
Ba1_1 Ge0_1 3.460201 1_555
Ba1_1 Ge0_5 3.460201 1_555
Ba1_1 Ge1_2 3.525840 1_545
Ba1_1 Ge1_0 3.525847 1_555
Ba1_1 Ge1_1 3.634079 1_555
Ba1_1 Ba1_5 4.329012 1_455
Ba1_1 Ba1_5 4.329012 1_555
Ba1_2 Ge0_4 3.460193 1_555
Ba1_2 Ge0_0 3.460193 1_555
Ba1_2 Ge0_2 3.460201 1_555
Ba1_2 Ge0_6 3.460201 1_555
Ba1_2 Ge1_1 3.525840 1_554
Ba1_2 Ge1_3 3.525847 1_554
Ba1_2 Ge1_2 3.634079 1_555
Ba1_2 Ba1_6 4.329012 1_455
Ba1_2 Ba1_6 4.329012 1_555
Ba1_3 Ge0_5 3.460193 1_555
Ba1_3 Ge0_1 3.460193 1_555
Ba1_3 Ge0_7 3.460201 1_555
Ba1_3 Ge0_3 3.460201 1_555
Ba1_3 Ge1_0 3.525840 1_555
Ba1_3 Ge1_2 3.525847 1_555
Ba1_3 Ge1_3 3.634079 1_555
Ba1_3 Ba1_7 4.329012 1_455
Ba1_3 Ba1_7 4.329012 1_555
Ba1_4 Ge0_2 3.460193 1_645
Ba1_4 Ge0_6 3.460193 1_545
Ba1_4 Ge0_4 3.460201 1_555
Ba1_4 Ge0_0 3.460201 1_655
Ba1_4 Ge1_7 3.525840 1_544
Ba1_4 Ge1_5 3.525847 1_554
Ba1_4 Ge1_4 3.634079 1_555
Ba1_5 Ge0_3 3.460193 1_645
Ba1_5 Ge0_7 3.460193 1_545
Ba1_5 Ge0_1 3.460201 1_655
Ba1_5 Ge0_5 3.460201 1_555
Ba1_5 Ge1_6 3.525840 1_545
Ba1_5 Ge1_4 3.525847 1_555
Ba1_5 Ge1_5 3.634079 1_555
Ba1_6 Ge0_4 3.460193 1_555
Ba1_6 Ge0_0 3.460193 1_655
Ba1_6 Ge0_2 3.460201 1_655
Ba1_6 Ge0_6 3.460201 1_555
Ba1_6 Ge1_5 3.525840 1_554
Ba1_6 Ge1_7 3.525847 1_554
Ba1_6 Ge1_6 3.634079 1_555
Ba1_7 Ge0_5 3.460193 1_555
Ba1_7 Ge0_1 3.460193 1_655
Ba1_7 Ge0_7 3.460201 1_555
Ba1_7 Ge0_3 3.460201 1_655
Ba1_7 Ge1_4 3.525840 1_555
Ba1_7 Ge1_6 3.525847 1_555
Ba1_7 Ge1_7 3.634079 1_555
Ge0_0 Ge1_1 2.655813 1_554
Ge0_0 Ge1_5 2.655813 1_454
Ge0_1 Ge1_0 2.655813 1_555
Ge0_1 Ge1_4 2.655813 1_455
Ge0_2 Ge1_3 2.655813 1_554
Ge0_2 Ge1_7 2.655813 1_454
Ge0_3 Ge1_2 2.655813 1_555
Ge0_3 Ge1_6 2.655813 1_455
Ge0_4 Ge1_1 2.655813 1_554
Ge0_4 Ge1_5 2.655813 1_554
Ge0_5 Ge1_0 2.655813 1_555
Ge0_5 Ge1_4 2.655813 1_555
Ge0_6 Ge1_3 2.655813 1_554
Ge0_6 Ge1_7 2.655813 1_554
Ge0_7 Ge1_2 2.655813 1_555
Ge0_7 Ge1_6 2.655813 1_555
