# generated using pymatgen
data_Ba4Ir3O10
_symmetry_space_group_name_H-M   'P 1'
_cell_length_a   7.28500606
_cell_length_b   7.28500606
_cell_length_c   13.31907258
_cell_angle_alpha   90.00000000
_cell_angle_beta   90.00000000
_cell_angle_gamma   133.05058054
_symmetry_Int_Tables_number   1
_chemical_formula_structural   Ba4Ir3O10
_chemical_formula_sum   'Ba8 Ir6 O20'
_cell_volume   516.53939168
_cell_formula_units_Z   2
loop_
 _symmetry_equiv_pos_site_id
 _symmetry_equiv_pos_as_xyz
  1  'x, y, z'
loop_
 _atom_site_type_symbol
 _atom_site_label
 _atom_site_symmetry_multiplicity
 _atom_site_fract_x
 _atom_site_fract_y
 _atom_site_fract_z
 _atom_site_occupancy
  Ba  Ba0  1  0.24252378  0.75747622  0.88027296  1
  Ba  Ba1  1  0.75747622  0.24252378  0.11972704  1
  Ba  Ba2  1  0.25747622  0.74252378  0.38027296  1
  Ba  Ba3  1  0.74252378  0.25747622  0.61972704  1
  Ba  Ba4  1  0.53914873  0.46085127  0.86067589  1
  Ba  Ba5  1  0.46085127  0.53914873  0.13932411  1
  Ba  Ba6  1  0.03914873  0.96085127  0.63932411  1
  Ba  Ba7  1  0.96085127  0.03914873  0.36067589  1
  Ir  Ir0  1  -0.00000000  0.00000000  0.00000000  1
  Ir  Ir1  1  0.50000000  0.50000000  0.50000000  1
  Ir  Ir2  1  0.87926096  0.12073904  0.85122725  1
  Ir  Ir3  1  0.12073904  0.87926096  0.14877275  1
  Ir  Ir4  1  0.62073904  0.37926096  0.35122725  1
  Ir  Ir5  1  0.37926096  0.62073904  0.64877275  1
  O  O0  1  0.14433136  0.35566864  0.75000000  1
  O  O1  1  0.35566864  0.14433136  0.25000000  1
  O  O2  1  0.85566864  0.64433136  0.25000000  1
  O  O3  1  0.64433136  0.85566864  0.75000000  1
  O  O4  1  0.23154970  0.76845030  0.66177926  1
  O  O5  1  0.76845030  0.23154970  0.33822074  1
  O  O6  1  0.26845030  0.73154970  0.16177926  1
  O  O7  1  0.73154970  0.26845030  0.83822074  1
  O  O8  1  0.38296593  0.15828136  0.46731103  1
  O  O9  1  0.15828136  0.38296593  0.53268897  1
  O  O10  1  0.11703407  0.34171864  0.96731103  1
  O  O11  1  0.34171864  0.11703407  0.03268897  1
  O  O12  1  0.61703407  0.84171864  0.53268897  1
  O  O13  1  0.84171864  0.61703407  0.46731103  1
  O  O14  1  0.03944485  0.96055515  0.85160077  1
  O  O15  1  0.96055515  0.03944485  0.14839923  1
  O  O16  1  0.46055515  0.53944485  0.35160077  1
  O  O17  1  0.53944485  0.46055515  0.64839923  1
  O  O18  1  0.65828136  0.88296593  0.96731103  1
  O  O19  1  0.88296593  0.65828136  0.03268897  1
loop_
_geom_bond_atom_site_label_1
_geom_bond_atom_site_label_2
_geom_bond_distance
_geom_bond_site_symmetry_2
Ba0 O14 2.740711 1_555
Ba0 O10 2.751891 1_555
Ba0 O18 2.751891 1_555
Ba0 O4 2.913827 1_555
Ba0 O7 2.959134 1_455
Ba0 O7 2.959134 1_565
Ba0 O19 2.986658 1_456
Ba0 O11 2.986658 1_566
Ba0 O0 3.038400 1_555
Ba0 O3 3.038400 1_555
Ba1 O15 2.740711 1_555
Ba1 O11 2.751891 1_555
Ba1 O19 2.751891 1_555
Ba1 O5 2.913827 1_555
Ba1 O6 2.959134 1_655
Ba1 O6 2.959134 1_545
Ba1 O18 2.986658 1_544
Ba1 O10 2.986658 1_654
Ba1 O1 3.038400 1_555
Ba1 O2 3.038400 1_555
Ba2 O16 2.740711 1_555
Ba2 O8 2.751891 1_565
Ba2 O13 2.751891 1_455
Ba2 O6 2.913827 1_555
Ba2 O5 2.959134 1_565
Ba2 O5 2.959134 1_455
Ba2 O9 2.986658 1_555
Ba2 O12 2.986658 1_555
Ba2 O2 3.038400 1_455
Ba2 O1 3.038400 1_565
Ba3 O17 2.740711 1_555
Ba3 O9 2.751891 1_655
Ba3 O12 2.751891 1_545
Ba3 O7 2.913827 1_555
Ba3 O4 2.959134 1_655
Ba3 O4 2.959134 1_545
Ba3 O13 2.986658 1_555
Ba3 O8 2.986658 1_555
Ba3 O3 3.038400 1_545
Ba3 O0 3.038400 1_655
Ba4 O7 2.588609 1_555
Ba4 O17 2.827331 1_555
Ba4 O3 2.832649 1_555
Ba4 O0 2.832649 1_555
Ba4 O14 2.904459 1_545
Ba4 O14 2.904459 1_655
Ba4 O18 2.929673 1_555
Ba4 O10 2.929673 1_555
Ba4 O19 2.944952 1_556
Ba4 O11 2.944952 1_556
Ba5 O6 2.588609 1_555
Ba5 O16 2.827331 1_555
Ba5 O1 2.832649 1_555
Ba5 O2 2.832649 1_555
Ba5 O15 2.904459 1_455
Ba5 O15 2.904459 1_565
Ba5 O19 2.929673 1_555
Ba5 O11 2.929673 1_555
Ba5 O18 2.944952 1_554
Ba5 O10 2.944952 1_554
Ba6 O4 2.588609 1_555
Ba6 O14 2.827331 1_555
Ba6 O0 2.832649 1_565
Ba6 O3 2.832649 1_455
Ba6 O17 2.904459 1_565
Ba6 O17 2.904459 1_455
Ba6 O12 2.929673 1_455
Ba6 O9 2.929673 1_565
Ba6 O8 2.944952 1_565
Ba6 O13 2.944952 1_455
Ba7 O5 2.588609 1_555
Ba7 O15 2.827331 1_555
Ba7 O2 2.832649 1_545
Ba7 O1 2.832649 1_655
Ba7 O16 2.904459 1_655
Ba7 O16 2.904459 1_545
Ba7 O13 2.929673 1_545
Ba7 O8 2.929673 1_655
Ba7 O9 2.944952 1_655
Ba7 O12 2.944952 1_545
Ir0 O15 2.045628 1_455
Ir0 O14 2.045628 1_544
Ir0 O18 2.053272 1_444
Ir0 O10 2.053272 1_554
Ir0 O11 2.053272 1_555
Ir0 O19 2.053272 1_445
Ir1 O17 2.045628 1_555
Ir1 O16 2.045628 1_555
Ir1 O13 2.053272 1_555
Ir1 O8 2.053272 1_555
Ir1 O9 2.053272 1_555
Ir1 O12 2.053272 1_555
Ir2 O7 1.981621 1_555
Ir2 O0 1.990895 1_655
Ir2 O3 1.990895 1_545
Ir2 O18 2.043378 1_545
Ir2 O10 2.043378 1_655
Ir2 O14 2.140726 1_645
Ir3 O6 1.981621 1_555
Ir3 O2 1.990895 1_455
Ir3 O1 1.990895 1_565
Ir3 O19 2.043378 1_455
Ir3 O11 2.043378 1_565
Ir3 O15 2.140726 1_465
Ir4 O5 1.981621 1_555
Ir4 O1 1.990895 1_555
Ir4 O2 1.990895 1_555
Ir4 O8 2.043378 1_555
Ir4 O13 2.043378 1_555
Ir4 O16 2.140726 1_555
Ir5 O4 1.981621 1_555
Ir5 O0 1.990895 1_555
Ir5 O3 1.990895 1_555
Ir5 O12 2.043378 1_555
Ir5 O9 2.043378 1_555
Ir5 O17 2.140726 1_555
O0 O14 2.774435 1_545
O0 O17 2.774435 1_555
O1 O16 2.774435 1_555
O1 O15 2.774435 1_455
O14 O3 2.774435 1_455
O15 O2 2.774435 1_545
O16 O2 2.774435 1_555
O17 O3 2.774435 1_555
