# generated using pymatgen
data_Ti2H3
_symmetry_space_group_name_H-M   'P 1'
_cell_length_a   4.34284846
_cell_length_b   4.34284846
_cell_length_c   4.38589189
_cell_angle_alpha   90.00000000
_cell_angle_beta   90.00000000
_cell_angle_gamma   90.00000000
_symmetry_Int_Tables_number   1
_chemical_formula_structural   Ti2H3
_chemical_formula_sum   'Ti4 H6'
_cell_volume   82.71938044
_cell_formula_units_Z   2
loop_
 _symmetry_equiv_pos_site_id
 _symmetry_equiv_pos_as_xyz
  1  'x, y, z'
loop_
 _atom_site_type_symbol
 _atom_site_label
 _atom_site_symmetry_multiplicity
 _atom_site_fract_x
 _atom_site_fract_y
 _atom_site_fract_z
 _atom_site_occupancy
  Ti  Ti0  1  0.73810116  0.26189884  -0.00000000  1
  Ti  Ti1  1  0.26189884  0.73810116  0.00000000  1
  Ti  Ti2  1  0.26189884  0.26189884  0.50000000  1
  Ti  Ti3  1  0.73810116  0.73810116  0.50000000  1
  H  H0  1  0.50000000  -0.00000000  0.75000000  1
  H  H1  1  0.50000000  -0.00000000  0.25000000  1
  H  H2  1  -0.00000000  0.50000000  0.75000000  1
  H  H3  1  -0.00000000  0.50000000  0.25000000  1
  H  H4  1  -0.00000000  -0.00000000  0.75000000  1
  H  H5  1  -0.00000000  -0.00000000  0.25000000  1
loop_
_geom_bond_atom_site_label_1
_geom_bond_atom_site_label_2
_geom_bond_distance
_geom_bond_site_symmetry_2
H0 Ti1 1.888157 1_546
H0 Ti3 1.888157 1_545
H0 Ti2 1.888157 1_555
H0 Ti0 1.888157 1_556
H0 H4 2.171424 1_655
H0 H4 2.171424 1_555
H0 H1 2.192946 1_556
H0 H1 2.192946 1_555
H1 Ti3 1.888157 1_545
H1 Ti1 1.888157 1_545
H1 Ti2 1.888157 1_555
H1 Ti0 1.888157 1_555
H1 H5 2.171424 1_655
H1 H5 2.171424 1_555
H2 Ti0 1.888157 1_456
H2 Ti3 1.888157 1_455
H2 Ti2 1.888157 1_555
H2 Ti1 1.888157 1_556
H2 H4 2.171424 1_555
H2 H4 2.171424 1_565
H2 H3 2.192946 1_556
H2 H3 2.192946 1_555
H3 Ti3 1.888157 1_455
H3 Ti2 1.888157 1_555
H3 Ti0 1.888157 1_455
H3 Ti1 1.888157 1_555
H3 H5 2.171424 1_565
H3 H5 2.171424 1_555
H4 Ti3 1.946677 1_445
H4 Ti0 1.946677 1_456
H4 Ti1 1.946677 1_546
H4 Ti2 1.946677 1_555
H4 H5 2.192946 1_556
H4 H5 2.192946 1_555
H5 Ti1 1.946677 1_545
H5 Ti3 1.946677 1_445
H5 Ti0 1.946677 1_455
H5 Ti2 1.946677 1_555
