# generated using pymatgen
data_Li6MnV3(PO4)6
_symmetry_space_group_name_H-M   'P 1'
_cell_length_a   8.70234238
_cell_length_b   8.76605049
_cell_length_c   15.05239168
_cell_angle_alpha   106.16484737
_cell_angle_beta   89.97250545
_cell_angle_gamma   61.17179102
_symmetry_Int_Tables_number   1
_chemical_formula_structural   Li6MnV3(PO4)6
_chemical_formula_sum   'Li12 Mn2 V6 P12 O48'
_cell_volume   953.73211733
_cell_formula_units_Z   2
loop_
 _symmetry_equiv_pos_site_id
 _symmetry_equiv_pos_as_xyz
  1  'x, y, z'
loop_
 _atom_site_type_symbol
 _atom_site_label
 _atom_site_symmetry_multiplicity
 _atom_site_fract_x
 _atom_site_fract_y
 _atom_site_fract_z
 _atom_site_occupancy
  Li  Li0  1  0.29769700  0.75585800  0.32218000  1
  Li  Li1  1  0.18692000  0.70937700  0.55207700  1
  Li  Li2  1  0.68362700  0.71984100  0.04987000  1
  Li  Li3  1  0.16635300  0.25491200  0.18887800  1
  Li  Li4  1  0.20873200  0.67998600  0.82957500  1
  Li  Li5  1  0.71195700  0.68056900  0.33000800  1
  Li  Li6  1  0.26610500  0.21333300  0.63198600  1
  Li  Li7  1  0.76571900  0.21499000  0.13127500  1
  Li  Li8  1  0.81078000  0.74534300  0.81782100  1
  Li  Li9  1  0.67981000  0.24470600  0.68506300  1
  Li  Li10  1  0.36073500  0.18058700  0.97915300  1
  Li  Li11  1  0.86109200  0.17932800  0.48042500  1
  Mn  Mn0  1  0.03254800  0.35340100  0.82065400  1
  Mn  Mn1  1  0.78620400  0.85254000  0.57321600  1
  V  V0  1  0.28565600  0.85846400  0.07353500  1
  V  V1  1  0.47212600  0.63934800  0.68040500  1
  V  V2  1  0.53307000  0.35809300  0.32040000  1
  V  V3  1  0.21843900  0.14024000  0.42459400  1
  V  V4  1  0.97297200  0.64128800  0.17899400  1
  V  V5  1  0.71547700  0.14023900  0.92295000  1
  P  P0  1  0.01160300  0.95126900  0.73404700  1
  P  P1  1  0.51688900  0.95671900  0.23617100  1
  P  P2  1  0.02204000  0.25357400  0.02154600  1
  P  P3  1  0.09884100  0.53855000  0.37533100  1
  P  P4  1  0.40372200  0.45723000  0.12389600  1
  P  P5  1  0.47944900  0.75217400  0.47771000  1
  P  P6  1  0.52054100  0.25725800  0.52390300  1
  P  P7  1  0.59856000  0.53920700  0.87557200  1
  P  P8  1  0.90485200  0.44983500  0.62738700  1
  P  P9  1  0.97354900  0.75821300  0.97799000  1
  P  P10  1  0.48662500  0.03671700  0.76198200  1
  P  P11  1  0.98721800  0.03961800  0.26314400  1
  O  O0  1  0.02176500  0.84236100  0.23995600  1
  O  O1  1  0.46384900  0.91892800  0.13682800  1
  O  O2  1  0.40062000  0.94550500  0.30986900  1
  O  O3  1  0.00764500  0.68160200  0.47324100  1
  O  O4  1  0.30089500  0.91463500  0.46980900  1
  O  O5  1  0.35538700  0.64853200  0.12286700  1
  O  O6  1  0.23524000  0.44571600  0.14515000  1
  O  O7  1  0.26587400  0.55147100  0.35268400  1
  O  O8  1  0.20313500  0.79226600  0.72594900  1
  O  O9  1  0.70727700  0.79617100  0.22895300  1
  O  O10  1  0.20507400  0.10029900  0.03432400  1
  O  O11  1  0.15162800  0.34135900  0.37021300  1
  O  O12  1  0.10705800  0.05033100  0.19074900  1
  O  O13  1  0.01446300  0.28955900  0.53604500  1
  O  O14  1  0.11787100  0.81295800  0.99653900  1
  O  O15  1  0.43247100  0.69254200  0.55602100  1
  O  O16  1  0.50848000  0.29842100  0.03156800  1
  O  O17  1  0.02733600  0.41069200  0.70474900  1
  O  O18  1  0.04606400  0.60816100  0.87994500  1
  O  O19  1  0.62801300  0.80248000  0.49354800  1
  O  O20  1  0.92873300  0.69340400  0.05504500  1
  O  O21  1  0.03254500  0.08523400  0.36391900  1
  O  O22  1  0.52692500  0.41625600  0.19942200  1
  O  O23  1  0.55207000  0.59867000  0.37971600  1
  O  O24  1  0.52165100  0.83959000  0.73888700  1
  O  O25  1  0.49658000  0.14710600  0.26190900  1
  O  O26  1  0.43690900  0.42160400  0.61684700  1
  O  O27  1  0.94431900  0.41596400  0.11487700  1
  O  O28  1  0.95795000  0.91063100  0.63403900  1
  O  O29  1  0.46803300  0.58844200  0.80384000  1
  O  O30  1  0.07306200  0.30356500  0.93921000  1
  O  O31  1  0.38291600  0.19218800  0.50789400  1
  O  O32  1  0.97171400  0.58276900  0.30182800  1
  O  O33  1  0.56459700  0.31247700  0.44235900  1
  O  O34  1  0.88162500  0.19361800  0.00555100  1
  O  O35  1  0.89697800  0.93992600  0.80838500  1
  O  O36  1  0.50742100  0.68251700  0.97321200  1
  O  O37  1  0.79256100  0.92213600  0.97308500  1
  O  O38  1  0.86199900  0.63891100  0.62689200  1
  O  O39  1  0.29499600  0.17967200  0.75828300  1
  O  O40  1  0.79653700  0.18321500  0.25952100  1
  O  O41  1  0.73609900  0.43882800  0.64729100  1
  O  O42  1  0.76672200  0.55074000  0.85301200  1
  O  O43  1  0.70373500  0.10821900  0.53657400  1
  O  O44  1  0.65083000  0.34178600  0.86902600  1
  O  O45  1  0.60516400  0.04764800  0.68881000  1
  O  O46  1  0.53063300  0.08495000  0.86271000  1
  O  O47  1  0.98964500  0.14096900  0.75611100  1
loop_
_geom_bond_atom_site_label_1
_geom_bond_atom_site_label_2
_geom_bond_distance
_geom_bond_site_symmetry_2
Li0 O7 2.105712 1_555
Li0 O4 2.278446 1_555
Li0 O2 2.282030 1_555
Li0 O23 2.296450 1_555
Li0 O21 2.572793 1_565
Li0 O0 2.577266 1_555
Li0 O22 2.731787 1_555
Li0 O5 2.847707 1_555
Li1 O28 2.000130 1_455
Li1 O3 2.026977 1_555
Li1 O15 2.071810 1_555
Li1 O8 2.537307 1_555
Li2 O1 1.980845 1_555
Li2 O36 2.016222 1_554
Li2 O20 2.035425 1_555
Li2 O9 2.624027 1_555
Li3 O12 2.098510 1_555
Li3 O10 2.272849 1_555
Li3 O6 2.273714 1_555
Li3 O27 2.283497 1_455
Li3 O32 2.569329 1_455
Li3 O11 2.606779 1_555
Li3 O1 2.711218 1_545
Li3 O25 2.884859 1_555
Li4 O29 1.991411 1_555
Li4 O18 2.024717 1_555
Li4 O8 2.052520 1_555
Li4 O14 2.403798 1_555
Li4 O35 2.664228 1_455
Li5 O32 1.988073 1_555
Li5 O9 2.039838 1_555
Li5 O23 2.067043 1_555
Li5 O19 2.348646 1_555
Li5 O2 2.674121 1_555
Li6 O17 1.996543 1_555
Li6 O39 2.001403 1_555
Li6 O31 2.044593 1_555
Li6 O13 2.541021 1_555
Li7 O22 1.984415 1_555
Li7 O40 2.025793 1_555
Li7 O34 2.062124 1_555
Li7 O16 2.614220 1_555
Li8 O42 2.114566 1_555
Li8 O18 2.183201 1_655
Li8 O35 2.204783 1_555
Li8 O37 2.373797 1_555
Li8 O17 2.634296 1_655
Li8 O24 2.640033 1_555
Li8 O46 2.672434 1_565
Li8 O38 2.726427 1_555
Li9 O45 2.132016 1_555
Li9 O43 2.177360 1_555
Li9 O41 2.191174 1_555
Li9 O26 2.377977 1_555
Li9 O28 2.633399 1_545
Li9 O44 2.633606 1_555
Li9 O29 2.704489 1_555
Li9 O47 2.724032 1_555
Li10 O46 1.986184 1_555
Li10 O16 2.042179 1_556
Li10 O10 2.064889 1_556
Li10 O30 2.355953 1_555
Li10 O6 2.674640 1_556
Li11 O21 1.996801 1_655
Li11 O43 2.023236 1_555
Li11 O13 2.051926 1_655
Li11 O33 2.411970 1_555
Li11 O41 2.663910 1_555
Mn0 O17 1.940115 1_555
Mn0 O30 1.945748 1_555
Mn0 O47 2.052924 1_455
Mn0 O42 2.061972 1_455
Mn0 O39 2.065067 1_555
Mn0 O18 2.222914 1_555
Mn1 O28 1.951157 1_555
Mn1 O19 1.953690 1_555
Mn1 O45 2.043678 1_565
Mn1 O3 2.044613 1_655
Mn1 O38 2.060720 1_555
Mn1 O43 2.231625 1_565
O0 P11 1.537769 1_465
O0 V4 1.987636 1_455
O1 P1 1.559218 1_555
O1 V0 2.026360 1_555
O2 P1 1.555508 1_555
O2 V3 2.038555 1_565
O3 P3 1.544174 1_555
O4 P5 1.554728 1_555
O4 V3 2.066554 1_565
O5 P4 1.524335 1_555
O5 V0 1.997657 1_555
O6 P4 1.556434 1_555
O6 V4 2.036402 1_455
O7 P3 1.556189 1_555
O7 V2 2.062876 1_555
O8 P0 1.549368 1_555
O8 V1 2.051137 1_555
O9 P1 1.550342 1_555
O9 V4 2.038980 1_555
O10 P2 1.568339 1_555
O10 V0 2.144223 1_545
O11 P3 1.537861 1_555
O11 V3 1.982879 1_555
O12 P11 1.560212 1_455
O12 V0 2.044873 1_545
O13 P8 1.550796 1_455
O13 V3 2.052399 1_555
O14 P9 1.546809 1_455
O14 V0 1.984996 1_556
O15 P5 1.542272 1_555
O15 V1 2.042914 1_555
O16 P4 1.548598 1_555
O16 V5 2.041265 1_554
O17 P8 1.575074 1_455
O18 P9 1.556972 1_455
O19 P5 1.553818 1_555
O20 P9 1.549285 1_554
O20 V4 2.035570 1_555
O21 P11 1.559306 1_455
O21 V3 2.047457 1_555
O22 P4 1.558237 1_555
O22 V2 2.017339 1_555
O23 P5 1.568337 1_555
O23 V2 2.135417 1_555
O24 P10 1.535348 1_565
O24 V1 1.977727 1_555
O25 P1 1.523864 1_545
O25 V2 1.989145 1_555
O26 P6 1.558237 1_555
O26 V1 2.049433 1_555
O27 P2 1.553882 1_655
O27 V4 2.075766 1_555
O28 P0 1.572736 1_655
O29 P7 1.558920 1_555
O29 V1 2.032107 1_555
O30 P2 1.553933 1_556
O31 P6 1.549315 1_555
O31 V3 2.034856 1_555
O32 P3 1.557141 1_655
O32 V4 2.053139 1_555
O33 P6 1.548297 1_555
O33 V2 1.977033 1_555
O34 P2 1.541590 1_655
O34 V5 2.045886 1_554
O35 P0 1.553550 1_655
O35 V5 2.046610 1_565
O36 P7 1.541837 1_555
O36 V0 2.052689 1_556
O37 P9 1.558067 1_555
O37 V5 2.059582 1_565
O38 P8 1.515608 1_555
O39 P10 1.542098 1_555
O40 P11 1.537844 1_555
O40 V2 2.067088 1_555
O41 P8 1.551780 1_555
O41 V1 2.057246 1_555
O42 P7 1.558333 1_555
O43 P6 1.554103 1_555
O44 P7 1.535402 1_555
O44 V5 1.984239 1_555
O45 P10 1.561865 1_555
O46 P10 1.556939 1_555
O46 V5 2.037932 1_555
O47 P0 1.515950 1_645
