# generated using pymatgen
data_TlNiO3
_symmetry_space_group_name_H-M   'P 1'
_cell_length_a   5.45750100
_cell_length_b   5.32758800
_cell_length_c   9.35948699
_cell_angle_alpha   55.26711414
_cell_angle_beta   90.00000000
_cell_angle_gamma   90.00000000
_symmetry_Int_Tables_number   1
_chemical_formula_structural   TlNiO3
_chemical_formula_sum   'Tl4 Ni4 O12'
_cell_volume   223.64114407
_cell_formula_units_Z   4
loop_
 _symmetry_equiv_pos_site_id
 _symmetry_equiv_pos_as_xyz
  1  'x, y, z'
loop_
 _atom_site_type_symbol
 _atom_site_label
 _atom_site_symmetry_multiplicity
 _atom_site_fract_x
 _atom_site_fract_y
 _atom_site_fract_z
 _atom_site_occupancy
  Tl  Tl0  1  0.55040900  0.73140000  0.75251400  1
  Tl  Tl1  1  0.94959100  0.73140000  0.25251400  1
  Tl  Tl2  1  0.44959100  0.26860000  0.24748600  1
  Tl  Tl3  1  0.05040900  0.26860000  0.74748600  1
  Ni  Ni0  1  0.00000000  0.50000000  0.00000000  1
  Ni  Ni1  1  0.00000000  0.00000000  0.50000000  1
  Ni  Ni2  1  0.50000000  0.50000000  0.50000000  1
  Ni  Ni3  1  0.50000000  0.00000000  0.00000000  1
  O  O0  1  0.29043200  0.74583800  0.56061700  1
  O  O1  1  0.30207800  0.34651100  0.94684200  1
  O  O2  1  0.19792200  0.34651100  0.44684200  1
  O  O3  1  0.80207800  0.65348900  0.55315800  1
  O  O4  1  0.79043200  0.25416200  0.93938300  1
  O  O5  1  0.95179300  0.86066000  0.74419400  1
  O  O6  1  0.20956800  0.74583800  0.06061700  1
  O  O7  1  0.04820700  0.13934000  0.25580600  1
  O  O8  1  0.54820700  0.86066000  0.24419400  1
  O  O9  1  0.69792200  0.65348900  0.05315800  1
  O  O10  1  0.45179300  0.13934000  0.75580600  1
  O  O11  1  0.70956800  0.25416200  0.43938300  1
loop_
_geom_bond_atom_site_label_1
_geom_bond_atom_site_label_2
_geom_bond_distance
_geom_bond_site_symmetry_2
Ni0 O1 2.024269 1_554
Ni0 O9 2.024269 1_455
Ni0 O6 2.047454 1_555
Ni0 O4 2.047454 1_454
Ni0 O7 2.061872 1_555
Ni0 O5 2.061872 1_454
Ni1 O2 1.943101 1_555
Ni1 O3 1.943101 1_445
Ni1 O0 1.947389 1_545
Ni1 O11 1.947389 1_455
Ni1 O5 1.977524 1_445
Ni1 O7 1.977524 1_555
Ni2 O3 2.024269 1_555
Ni2 O2 2.024269 1_555
Ni2 O0 2.047454 1_555
Ni2 O11 2.047454 1_555
Ni2 O8 2.061872 1_555
Ni2 O10 2.061872 1_555
Ni3 O1 1.943101 1_554
Ni3 O9 1.943101 1_545
Ni3 O4 1.947389 1_554
Ni3 O6 1.947389 1_545
Ni3 O8 1.977524 1_545
Ni3 O10 1.977524 1_554
O0 Tl0 2.255522 1_555
O0 Tl3 2.484375 1_555
O0 Tl2 2.792731 1_565
O1 Tl0 2.258249 1_555
O1 Tl3 2.534313 1_555
O1 Tl2 2.721649 1_556
O2 Tl1 2.258249 1_455
O2 Tl2 2.534313 1_555
O2 Tl3 2.721649 1_555
O3 Tl3 2.258249 1_655
O3 Tl0 2.534313 1_555
O3 Tl1 2.721649 1_555
O4 Tl3 2.255522 1_655
O4 Tl0 2.484375 1_555
O4 Tl1 2.792731 1_546
O5 Tl3 2.256170 1_665
O5 Tl0 2.284231 1_555
O6 Tl1 2.255522 1_455
O6 Tl2 2.484375 1_555
O6 Tl3 2.792731 1_564
O7 Tl1 2.256170 1_445
O7 Tl2 2.284231 1_555
O8 Tl2 2.256170 1_565
O8 Tl1 2.284231 1_555
O9 Tl2 2.258249 1_555
O9 Tl1 2.534313 1_555
O9 Tl0 2.721649 1_554
O10 Tl0 2.256170 1_545
O10 Tl3 2.284231 1_555
O11 Tl2 2.255522 1_555
O11 Tl1 2.484375 1_555
O11 Tl0 2.792731 1_545
