# generated using pymatgen
data_Tb2(SiPt)3
_symmetry_space_group_name_H-M   'P 1'
_cell_length_a   5.58695000
_cell_length_b   5.58695000
_cell_length_c   41.44108800
_cell_angle_alpha   90.00000000
_cell_angle_beta   90.00000000
_cell_angle_gamma   90.00000000
_symmetry_Int_Tables_number   1
_chemical_formula_structural   Tb2(SiPt)3
_chemical_formula_sum   'Tb16 Si24 Pt24'
_cell_volume   1293.54254778
_cell_formula_units_Z   8
loop_
 _symmetry_equiv_pos_site_id
 _symmetry_equiv_pos_as_xyz
  1  'x, y, z'
loop_
 _atom_site_type_symbol
 _atom_site_label
 _atom_site_symmetry_multiplicity
 _atom_site_fract_x
 _atom_site_fract_y
 _atom_site_fract_z
 _atom_site_occupancy
  Tb  Tb0_0  1  0.25000000  0.25000000  0.37594750  1
  Tb  Tb0_1  1  0.25000000  0.25000000  0.87594750  1
  Tb  Tb0_2  1  0.25000000  0.75000000  0.37594750  1
  Tb  Tb0_3  1  0.25000000  0.75000000  0.87594750  1
  Tb  Tb0_4  1  0.75000000  0.25000000  0.37594750  1
  Tb  Tb0_5  1  0.75000000  0.25000000  0.87594750  1
  Tb  Tb0_6  1  0.75000000  0.75000000  0.37594750  1
  Tb  Tb0_7  1  0.75000000  0.75000000  0.87594750  1
  Tb  Tb1_0  1  0.25000000  0.25000000  0.12405250  1
  Tb  Tb1_1  1  0.25000000  0.25000000  0.62405250  1
  Tb  Tb1_2  1  0.25000000  0.75000000  0.12405250  1
  Tb  Tb1_3  1  0.25000000  0.75000000  0.62405250  1
  Tb  Tb1_4  1  0.75000000  0.25000000  0.12405250  1
  Tb  Tb1_5  1  0.75000000  0.25000000  0.62405250  1
  Tb  Tb1_6  1  0.75000000  0.75000000  0.12405250  1
  Tb  Tb1_7  1  0.75000000  0.75000000  0.62405250  1
  Si  Si0_0  1  0.25000000  0.25000000  0.19348400  1
  Si  Si0_1  1  0.25000000  0.25000000  0.69348400  1
  Si  Si0_2  1  0.25000000  0.75000000  0.19348400  1
  Si  Si0_3  1  0.25000000  0.75000000  0.69348400  1
  Si  Si0_4  1  0.75000000  0.25000000  0.19348400  1
  Si  Si0_5  1  0.75000000  0.25000000  0.69348400  1
  Si  Si0_6  1  0.75000000  0.75000000  0.19348400  1
  Si  Si0_7  1  0.75000000  0.75000000  0.69348400  1
  Si  Si1_0  1  0.25000000  0.25000000  0.30651600  1
  Si  Si1_1  1  0.25000000  0.25000000  0.80651600  1
  Si  Si1_2  1  0.25000000  0.75000000  0.30651600  1
  Si  Si1_3  1  0.25000000  0.75000000  0.80651600  1
  Si  Si1_4  1  0.75000000  0.25000000  0.30651600  1
  Si  Si1_5  1  0.75000000  0.25000000  0.80651600  1
  Si  Si1_6  1  0.75000000  0.75000000  0.30651600  1
  Si  Si1_7  1  0.75000000  0.75000000  0.80651600  1
  Si  Si2_0  1  0.25000000  0.25000000  0.00000000  1
  Si  Si2_1  1  0.25000000  0.25000000  0.50000000  1
  Si  Si2_2  1  0.25000000  0.75000000  0.00000000  1
  Si  Si2_3  1  0.25000000  0.75000000  0.50000000  1
  Si  Si2_4  1  0.75000000  0.25000000  0.00000000  1
  Si  Si2_5  1  0.75000000  0.25000000  0.50000000  1
  Si  Si2_6  1  0.75000000  0.75000000  0.00000000  1
  Si  Si2_7  1  0.75000000  0.75000000  0.50000000  1
  Pt  Pt0_0  1  0.25000000  0.25000000  0.05749550  1
  Pt  Pt0_1  1  0.25000000  0.25000000  0.55749550  1
  Pt  Pt0_2  1  0.25000000  0.75000000  0.05749550  1
  Pt  Pt0_3  1  0.25000000  0.75000000  0.55749550  1
  Pt  Pt0_4  1  0.75000000  0.25000000  0.05749550  1
  Pt  Pt0_5  1  0.75000000  0.25000000  0.55749550  1
  Pt  Pt0_6  1  0.75000000  0.75000000  0.05749550  1
  Pt  Pt0_7  1  0.75000000  0.75000000  0.55749550  1
  Pt  Pt1_0  1  0.25000000  0.25000000  0.44250450  1
  Pt  Pt1_1  1  0.25000000  0.25000000  0.94250450  1
  Pt  Pt1_2  1  0.25000000  0.75000000  0.44250450  1
  Pt  Pt1_3  1  0.25000000  0.75000000  0.94250450  1
  Pt  Pt1_4  1  0.75000000  0.25000000  0.44250450  1
  Pt  Pt1_5  1  0.75000000  0.25000000  0.94250450  1
  Pt  Pt1_6  1  0.75000000  0.75000000  0.44250450  1
  Pt  Pt1_7  1  0.75000000  0.75000000  0.94250450  1
  Pt  Pt2_0  1  0.25000000  0.25000000  0.25000000  1
  Pt  Pt2_1  1  0.25000000  0.25000000  0.75000000  1
  Pt  Pt2_2  1  0.25000000  0.75000000  0.25000000  1
  Pt  Pt2_3  1  0.25000000  0.75000000  0.75000000  1
  Pt  Pt2_4  1  0.75000000  0.25000000  0.25000000  1
  Pt  Pt2_5  1  0.75000000  0.25000000  0.75000000  1
  Pt  Pt2_6  1  0.75000000  0.75000000  0.25000000  1
  Pt  Pt2_7  1  0.75000000  0.75000000  0.75000000  1
loop_
_geom_bond_atom_site_label_1
_geom_bond_atom_site_label_2
_geom_bond_distance
_geom_bond_site_symmetry_2
Tb0_0 Tb0_2 2.793475 1_545
Tb0_0 Tb0_2 2.793475 1_555
Tb0_0 Tb0_4 2.793475 1_455
Tb0_0 Tb0_4 2.793475 1_555
Tb0_1 Tb0_5 2.793475 1_455
Tb0_1 Tb0_5 2.793475 1_555
Tb0_1 Tb0_3 2.793475 1_545
Tb0_1 Tb0_3 2.793475 1_555
Tb0_2 Tb0_6 2.793475 1_455
Tb0_2 Tb0_6 2.793475 1_555
Tb0_3 Tb0_7 2.793475 1_555
Tb0_3 Tb0_7 2.793475 1_455
Tb0_4 Tb0_6 2.793475 1_545
Tb0_4 Tb0_6 2.793475 1_555
Tb0_5 Tb0_7 2.793475 1_545
Tb0_5 Tb0_7 2.793475 1_555
Tb1_0 Tb1_2 2.793475 1_555
Tb1_0 Tb1_2 2.793475 1_545
Tb1_0 Tb1_4 2.793475 1_555
Tb1_0 Tb1_4 2.793475 1_455
Tb1_1 Tb1_3 2.793475 1_545
Tb1_1 Tb1_3 2.793475 1_555
Tb1_1 Tb1_5 2.793475 1_455
Tb1_1 Tb1_5 2.793475 1_555
Tb1_2 Tb1_6 2.793475 1_555
Tb1_2 Tb1_6 2.793475 1_455
Tb1_3 Tb1_7 2.793475 1_555
Tb1_3 Tb1_7 2.793475 1_455
Tb1_4 Tb1_6 2.793475 1_545
Tb1_4 Tb1_6 2.793475 1_555
Tb1_5 Tb1_7 2.793475 1_555
Tb1_5 Tb1_7 2.793475 1_545
Si0_0 Si0_4 2.793475 1_555
Si0_0 Si0_2 2.793475 1_545
Si0_0 Si0_2 2.793475 1_555
Si0_0 Si0_4 2.793475 1_455
Si0_0 Tb1_0 2.877317 1_555
Si0_1 Si0_3 2.793475 1_555
Si0_1 Si0_5 2.793475 1_555
Si0_1 Si0_5 2.793475 1_455
Si0_1 Si0_3 2.793475 1_545
Si0_1 Tb1_1 2.877317 1_555
Si0_2 Si0_6 2.793475 1_455
Si0_2 Si0_6 2.793475 1_555
Si0_2 Tb1_2 2.877317 1_555
Si0_3 Si0_7 2.793475 1_555
Si0_3 Si0_7 2.793475 1_455
Si0_3 Tb1_3 2.877317 1_555
Si0_4 Si0_6 2.793475 1_545
Si0_4 Si0_6 2.793475 1_555
Si0_4 Tb1_4 2.877317 1_555
Si0_5 Si0_7 2.793475 1_555
Si0_5 Si0_7 2.793475 1_545
Si0_5 Tb1_5 2.877317 1_555
Si0_6 Tb1_6 2.877317 1_555
Si0_7 Tb1_7 2.877317 1_555
Si1_0 Si1_2 2.793475 1_555
Si1_0 Si1_2 2.793475 1_545
Si1_0 Si1_4 2.793475 1_455
Si1_0 Si1_4 2.793475 1_555
Si1_0 Tb0_0 2.877317 1_555
Si1_1 Si1_5 2.793475 1_555
Si1_1 Si1_5 2.793475 1_455
Si1_1 Si1_3 2.793475 1_555
Si1_1 Si1_3 2.793475 1_545
Si1_1 Tb0_1 2.877317 1_555
Si1_2 Si1_6 2.793475 1_555
Si1_2 Si1_6 2.793475 1_455
Si1_2 Tb0_2 2.877317 1_555
Si1_3 Si1_7 2.793475 1_455
Si1_3 Si1_7 2.793475 1_555
Si1_3 Tb0_3 2.877317 1_555
Si1_4 Si1_6 2.793475 1_545
Si1_4 Si1_6 2.793475 1_555
Si1_4 Tb0_4 2.877317 1_555
Si1_5 Si1_7 2.793475 1_555
Si1_5 Si1_7 2.793475 1_545
Si1_5 Tb0_5 2.877317 1_555
Si1_6 Tb0_6 2.877317 1_555
Si1_7 Tb0_7 2.877317 1_555
Si2_0 Si2_4 2.793475 1_455
Si2_0 Si2_4 2.793475 1_555
Si2_0 Si2_2 2.793475 1_545
Si2_0 Si2_2 2.793475 1_555
Si2_1 Si2_3 2.793475 1_545
Si2_1 Si2_5 2.793475 1_455
Si2_1 Si2_5 2.793475 1_555
Si2_1 Si2_3 2.793475 1_555
Si2_2 Si2_6 2.793475 1_555
Si2_2 Si2_6 2.793475 1_455
Si2_3 Si2_7 2.793475 1_555
Si2_3 Si2_7 2.793475 1_455
Si2_4 Si2_6 2.793475 1_545
Si2_4 Si2_6 2.793475 1_555
Si2_5 Si2_7 2.793475 1_555
Si2_5 Si2_7 2.793475 1_545
Pt0_0 Si2_0 2.382676 1_555
Pt0_0 Tb1_0 2.758194 1_555
Pt0_0 Pt0_2 2.793475 1_545
Pt0_0 Pt0_2 2.793475 1_555
Pt0_0 Pt0_4 2.793475 1_455
Pt0_0 Pt0_4 2.793475 1_555
Pt0_1 Si2_1 2.382676 1_555
Pt0_1 Tb1_1 2.758194 1_555
Pt0_1 Pt0_5 2.793475 1_555
Pt0_1 Pt0_3 2.793475 1_545
Pt0_1 Pt0_5 2.793475 1_455
Pt0_1 Pt0_3 2.793475 1_555
Pt0_2 Si2_2 2.382676 1_555
Pt0_2 Tb1_2 2.758194 1_555
Pt0_2 Pt0_6 2.793475 1_455
Pt0_2 Pt0_6 2.793475 1_555
Pt0_3 Si2_3 2.382676 1_555
Pt0_3 Tb1_3 2.758194 1_555
Pt0_3 Pt0_7 2.793475 1_555
Pt0_3 Pt0_7 2.793475 1_455
Pt0_4 Si2_4 2.382676 1_555
Pt0_4 Tb1_4 2.758194 1_555
Pt0_4 Pt0_6 2.793475 1_555
Pt0_4 Pt0_6 2.793475 1_545
Pt0_5 Si2_5 2.382676 1_555
Pt0_5 Tb1_5 2.758194 1_555
Pt0_5 Pt0_7 2.793475 1_555
Pt0_5 Pt0_7 2.793475 1_545
Pt0_6 Si2_6 2.382676 1_555
Pt0_6 Tb1_6 2.758194 1_555
Pt0_7 Si2_7 2.382676 1_555
Pt0_7 Tb1_7 2.758194 1_555
Pt1_0 Si2_1 2.382676 1_555
Pt1_0 Tb0_0 2.758194 1_555
Pt1_0 Pt1_4 2.793475 1_455
Pt1_0 Pt1_4 2.793475 1_555
Pt1_0 Pt1_2 2.793475 1_545
Pt1_0 Pt1_2 2.793475 1_555
Pt1_1 Si2_0 2.382676 1_556
Pt1_1 Tb0_1 2.758194 1_555
Pt1_1 Pt1_3 2.793475 1_545
Pt1_1 Pt1_5 2.793475 1_555
Pt1_1 Pt1_5 2.793475 1_455
Pt1_1 Pt1_3 2.793475 1_555
Pt1_2 Si2_3 2.382676 1_555
Pt1_2 Tb0_2 2.758194 1_555
Pt1_2 Pt1_6 2.793475 1_555
Pt1_2 Pt1_6 2.793475 1_455
Pt1_3 Si2_2 2.382676 1_556
Pt1_3 Tb0_3 2.758194 1_555
Pt1_3 Pt1_7 2.793475 1_455
Pt1_3 Pt1_7 2.793475 1_555
Pt1_4 Si2_5 2.382676 1_555
Pt1_4 Tb0_4 2.758194 1_555
Pt1_4 Pt1_6 2.793475 1_545
Pt1_4 Pt1_6 2.793475 1_555
Pt1_5 Si2_4 2.382676 1_556
Pt1_5 Tb0_5 2.758194 1_555
Pt1_5 Pt1_7 2.793475 1_545
Pt1_5 Pt1_7 2.793475 1_555
Pt1_6 Si2_7 2.382676 1_555
Pt1_6 Tb0_6 2.758194 1_555
Pt1_7 Si2_6 2.382676 1_556
Pt1_7 Tb0_7 2.758194 1_555
Pt2_0 Si0_0 2.342085 1_555
Pt2_0 Si1_0 2.342085 1_555
Pt2_0 Pt2_4 2.793475 1_555
Pt2_0 Pt2_2 2.793475 1_555
Pt2_0 Pt2_2 2.793475 1_545
Pt2_0 Pt2_4 2.793475 1_455
Pt2_1 Si1_1 2.342085 1_555
Pt2_1 Si0_1 2.342085 1_555
Pt2_1 Pt2_5 2.793475 1_555
Pt2_1 Pt2_3 2.793475 1_555
Pt2_1 Pt2_3 2.793475 1_545
Pt2_1 Pt2_5 2.793475 1_455
Pt2_2 Si0_2 2.342085 1_555
Pt2_2 Si1_2 2.342085 1_555
Pt2_2 Pt2_6 2.793475 1_455
Pt2_2 Pt2_6 2.793475 1_555
Pt2_3 Si1_3 2.342085 1_555
Pt2_3 Si0_3 2.342085 1_555
Pt2_3 Pt2_7 2.793475 1_455
Pt2_3 Pt2_7 2.793475 1_555
Pt2_4 Si0_4 2.342085 1_555
Pt2_4 Si1_4 2.342085 1_555
Pt2_4 Pt2_6 2.793475 1_545
Pt2_4 Pt2_6 2.793475 1_555
Pt2_5 Si1_5 2.342085 1_555
Pt2_5 Si0_5 2.342085 1_555
Pt2_5 Pt2_7 2.793475 1_545
Pt2_5 Pt2_7 2.793475 1_555
Pt2_6 Si0_6 2.342085 1_555
Pt2_6 Si1_6 2.342085 1_555
Pt2_7 Si1_7 2.342085 1_555
Pt2_7 Si0_7 2.342085 1_555
