# generated using pymatgen
data_HfTaV4
_symmetry_space_group_name_H-M   'P 1'
_cell_length_a   5.10271164
_cell_length_b   5.10271164
_cell_length_c   5.10271164
_cell_angle_alpha   60.00000000
_cell_angle_beta   60.00000000
_cell_angle_gamma   60.00000000
_symmetry_Int_Tables_number   1
_chemical_formula_structural   HfTaV4
_chemical_formula_sum   'Hf1 Ta1 V4'
_cell_volume   93.94811716
_cell_formula_units_Z   1
loop_
 _symmetry_equiv_pos_site_id
 _symmetry_equiv_pos_as_xyz
  1  'x, y, z'
loop_
 _atom_site_type_symbol
 _atom_site_label
 _atom_site_symmetry_multiplicity
 _atom_site_fract_x
 _atom_site_fract_y
 _atom_site_fract_z
 _atom_site_occupancy
  Hf  Hf0  1  0.25000000  0.25000000  0.25000000  1
  Ta  Ta0  1  0.00000000  0.00000000  0.00000000  1
  V  V0  1  0.62487500  0.62487500  0.12537500  1
  V  V1  1  0.62487500  0.12537500  0.62487500  1
  V  V2  1  0.12537500  0.62487500  0.62487500  1
  V  V3  1  0.62487500  0.62487500  0.62487500  1
loop_
_geom_bond_atom_site_label_1
_geom_bond_atom_site_label_2
_geom_bond_distance
_geom_bond_site_symmetry_2
Hf0 V0 2.991458 1_555
Hf0 V1 2.991458 1_555
Hf0 V2 2.991458 1_555
Hf0 V3 2.991458 1_554
Hf0 V3 2.991458 1_545
Hf0 V2 2.991458 1_554
Hf0 V0 2.991458 1_545
Hf0 V3 2.991458 1_455
Hf0 V0 2.991458 1_455
Hf0 V2 2.991458 1_545
Hf0 V1 2.991458 1_455
Hf0 V1 2.991458 1_554
Hf0 Ta0 3.124760 1_555
Hf0 Ta0 3.124760 1_556
Hf0 Ta0 3.124760 1_565
Hf0 Ta0 3.124760 1_655
Ta0 V0 2.992002 1_455
Ta0 V2 2.992002 1_545
Ta0 V1 2.992002 1_455
Ta0 V1 2.992002 1_554
Ta0 V2 2.992002 1_554
Ta0 V0 2.992002 1_545
Ta0 V3 2.992002 1_454
Ta0 V3 2.992002 1_544
Ta0 V3 2.992002 1_445
Ta0 V2 2.992002 1_544
Ta0 V0 2.992002 1_445
Ta0 V1 2.992002 1_454
V0 V1 2.548804 1_555
V0 V2 2.548804 1_555
V0 V3 2.548804 1_555
V0 V3 2.553907 1_554
V0 V1 2.553907 1_564
V0 V2 2.553907 1_654
V1 V2 2.548804 1_555
V1 V3 2.548804 1_555
V1 V2 2.553907 1_645
V1 V3 2.553907 1_545
V2 V3 2.548804 1_555
V2 V3 2.553907 1_455
