# generated using pymatgen
data_Nb2GaC
_symmetry_space_group_name_H-M   'P 1'
_cell_length_a   6.29949811
_cell_length_b   6.29949811
_cell_length_c   27.19391846
_cell_angle_alpha   90.00000000
_cell_angle_beta   90.00000000
_cell_angle_gamma   120.00000453
_symmetry_Int_Tables_number   1
_chemical_formula_structural   Nb2GaC
_chemical_formula_sum   'Nb32 Ga16 C16'
_cell_volume   934.57530898
_cell_formula_units_Z   16
loop_
 _symmetry_equiv_pos_site_id
 _symmetry_equiv_pos_as_xyz
  1  'x, y, z'
loop_
 _atom_site_type_symbol
 _atom_site_label
 _atom_site_symmetry_multiplicity
 _atom_site_fract_x
 _atom_site_fract_y
 _atom_site_fract_z
 _atom_site_occupancy
  Nb  Nb0_0  1  0.16666650  0.33333350  0.20470969  1
  Nb  Nb0_1  1  0.16666650  0.33333350  0.70470970  1
  Nb  Nb0_2  1  0.16666650  0.83333350  0.20470969  1
  Nb  Nb0_3  1  0.16666650  0.83333350  0.70470970  1
  Nb  Nb0_4  1  0.66666650  0.33333350  0.20470969  1
  Nb  Nb0_5  1  0.66666650  0.33333350  0.70470970  1
  Nb  Nb0_6  1  0.66666650  0.83333350  0.20470969  1
  Nb  Nb0_7  1  0.66666650  0.83333350  0.70470970  1
  Nb  Nb1_0  1  0.33333350  0.16666650  0.29529031  1
  Nb  Nb1_1  1  0.33333350  0.16666650  0.79529031  1
  Nb  Nb1_2  1  0.33333350  0.66666650  0.29529031  1
  Nb  Nb1_3  1  0.33333350  0.66666650  0.79529031  1
  Nb  Nb1_4  1  0.83333350  0.16666650  0.29529031  1
  Nb  Nb1_5  1  0.83333350  0.16666650  0.79529031  1
  Nb  Nb1_6  1  0.83333350  0.66666650  0.29529031  1
  Nb  Nb1_7  1  0.83333350  0.66666650  0.79529031  1
  Nb  Nb2_0  1  0.33333350  0.16666650  0.45470970  1
  Nb  Nb2_1  1  0.33333350  0.16666650  0.95470970  1
  Nb  Nb2_2  1  0.33333350  0.66666650  0.45470970  1
  Nb  Nb2_3  1  0.33333350  0.66666650  0.95470970  1
  Nb  Nb2_4  1  0.83333350  0.16666650  0.45470970  1
  Nb  Nb2_5  1  0.83333350  0.16666650  0.95470970  1
  Nb  Nb2_6  1  0.83333350  0.66666650  0.45470970  1
  Nb  Nb2_7  1  0.83333350  0.66666650  0.95470970  1
  Nb  Nb3_0  1  0.16666650  0.33333350  0.04529031  1
  Nb  Nb3_1  1  0.16666650  0.33333350  0.54529031  1
  Nb  Nb3_2  1  0.16666650  0.83333350  0.04529031  1
  Nb  Nb3_3  1  0.16666650  0.83333350  0.54529031  1
  Nb  Nb3_4  1  0.66666650  0.33333350  0.04529031  1
  Nb  Nb3_5  1  0.66666650  0.33333350  0.54529031  1
  Nb  Nb3_6  1  0.66666650  0.83333350  0.04529031  1
  Nb  Nb3_7  1  0.66666650  0.83333350  0.54529031  1
  Ga  Ga0_0  1  0.16666650  0.33333350  0.37500000  1
  Ga  Ga0_1  1  0.16666650  0.33333350  0.87500000  1
  Ga  Ga0_2  1  0.16666650  0.83333350  0.37500000  1
  Ga  Ga0_3  1  0.16666650  0.83333350  0.87500000  1
  Ga  Ga0_4  1  0.66666650  0.33333350  0.37500000  1
  Ga  Ga0_5  1  0.66666650  0.33333350  0.87500000  1
  Ga  Ga0_6  1  0.66666650  0.83333350  0.37500000  1
  Ga  Ga0_7  1  0.66666650  0.83333350  0.87500000  1
  Ga  Ga1_0  1  0.33333350  0.16666650  0.12500000  1
  Ga  Ga1_1  1  0.33333350  0.16666650  0.62500000  1
  Ga  Ga1_2  1  0.33333350  0.66666650  0.12500000  1
  Ga  Ga1_3  1  0.33333350  0.66666650  0.62500000  1
  Ga  Ga1_4  1  0.83333350  0.16666650  0.12500000  1
  Ga  Ga1_5  1  0.83333350  0.16666650  0.62500000  1
  Ga  Ga1_6  1  0.83333350  0.66666650  0.12500000  1
  Ga  Ga1_7  1  0.83333350  0.66666650  0.62500000  1
  C  C0_0  1  0.00000000  0.00000000  0.25000000  1
  C  C0_1  1  0.00000000  0.00000000  0.75000000  1
  C  C0_2  1  0.00000000  0.50000000  0.25000000  1
  C  C0_3  1  0.00000000  0.50000000  0.75000000  1
  C  C0_4  1  0.50000000  0.00000000  0.25000000  1
  C  C0_5  1  0.50000000  0.00000000  0.75000000  1
  C  C0_6  1  0.50000000  0.50000000  0.25000000  1
  C  C0_7  1  0.50000000  0.50000000  0.75000000  1
  C  C1_0  1  0.00000000  0.00000000  0.00000000  1
  C  C1_1  1  0.00000000  0.00000000  0.50000000  1
  C  C1_2  1  0.00000000  0.50000000  0.00000000  1
  C  C1_3  1  0.00000000  0.50000000  0.50000000  1
  C  C1_4  1  0.50000000  0.00000000  0.00000000  1
  C  C1_5  1  0.50000000  0.00000000  0.50000000  1
  C  C1_6  1  0.50000000  0.50000000  0.00000000  1
  C  C1_7  1  0.50000000  0.50000000  0.50000000  1
loop_
_geom_bond_atom_site_label_1
_geom_bond_atom_site_label_2
_geom_bond_distance
_geom_bond_site_symmetry_2
Ga0_0 Nb1_2 2.829406 1_555
Ga0_0 Nb2_2 2.829406 1_555
Ga0_0 Nb2_4 2.829406 1_455
Ga0_0 Nb1_4 2.829406 1_455
Ga0_0 Nb2_0 2.829410 1_555
Ga0_0 Nb1_0 2.829410 1_555
Ga0_0 Ga0_6 3.149749 1_555
Ga0_0 Ga0_6 3.149749 1_445
Ga0_0 Ga0_4 3.149749 1_555
Ga0_0 Ga0_2 3.149749 1_555
Ga0_0 Ga0_4 3.149749 1_455
Ga0_0 Ga0_2 3.149749 1_545
Ga0_1 Nb1_3 2.829406 1_555
Ga0_1 Nb2_3 2.829406 1_555
Ga0_1 Nb1_5 2.829406 1_455
Ga0_1 Nb2_5 2.829406 1_455
Ga0_1 Nb1_1 2.829410 1_555
Ga0_1 Nb2_1 2.829410 1_555
Ga0_1 Ga0_7 3.149749 1_555
Ga0_1 Ga0_7 3.149749 1_445
Ga0_1 Ga0_3 3.149749 1_555
Ga0_1 Ga0_5 3.149749 1_555
Ga0_1 Ga0_5 3.149749 1_455
Ga0_1 Ga0_3 3.149749 1_545
Ga0_2 Nb2_0 2.829406 1_565
Ga0_2 Nb1_0 2.829406 1_565
Ga0_2 Nb2_6 2.829406 1_455
Ga0_2 Nb1_6 2.829406 1_455
Ga0_2 Nb1_2 2.829410 1_555
Ga0_2 Nb2_2 2.829410 1_555
Ga0_2 Ga0_4 3.149749 1_565
Ga0_2 Ga0_4 3.149749 1_455
Ga0_2 Ga0_6 3.149749 1_555
Ga0_2 Ga0_6 3.149749 1_455
Ga0_3 Nb2_1 2.829406 1_565
Ga0_3 Nb1_1 2.829406 1_565
Ga0_3 Nb2_7 2.829406 1_455
Ga0_3 Nb1_7 2.829406 1_455
Ga0_3 Nb2_3 2.829410 1_555
Ga0_3 Nb1_3 2.829410 1_555
Ga0_3 Ga0_5 3.149749 1_455
Ga0_3 Ga0_5 3.149749 1_565
Ga0_3 Ga0_7 3.149749 1_555
Ga0_3 Ga0_7 3.149749 1_455
Ga0_4 Nb1_0 2.829406 1_555
Ga0_4 Nb2_6 2.829406 1_555
Ga0_4 Nb2_0 2.829406 1_555
Ga0_4 Nb1_6 2.829406 1_555
Ga0_4 Nb2_4 2.829410 1_555
Ga0_4 Nb1_4 2.829410 1_555
Ga0_4 Ga0_6 3.149749 1_555
Ga0_4 Ga0_6 3.149749 1_545
Ga0_5 Nb1_1 2.829406 1_555
Ga0_5 Nb2_1 2.829406 1_555
Ga0_5 Nb1_7 2.829406 1_555
Ga0_5 Nb2_7 2.829406 1_555
Ga0_5 Nb1_5 2.829410 1_555
Ga0_5 Nb2_5 2.829410 1_555
Ga0_5 Ga0_7 3.149749 1_555
Ga0_5 Ga0_7 3.149749 1_545
Ga0_6 Nb1_2 2.829406 1_555
Ga0_6 Nb2_2 2.829406 1_555
Ga0_6 Nb1_4 2.829406 1_565
Ga0_6 Nb2_4 2.829406 1_565
Ga0_6 Nb1_6 2.829410 1_555
Ga0_6 Nb2_6 2.829410 1_555
Ga0_7 Nb1_3 2.829406 1_555
Ga0_7 Nb2_3 2.829406 1_555
Ga0_7 Nb1_5 2.829406 1_565
Ga0_7 Nb2_5 2.829406 1_565
Ga0_7 Nb2_7 2.829410 1_555
Ga0_7 Nb1_7 2.829410 1_555
Ga1_0 Nb0_4 2.829406 1_555
Ga1_0 Nb0_2 2.829406 1_545
Ga1_0 Nb3_4 2.829406 1_555
Ga1_0 Nb3_2 2.829406 1_545
Ga1_0 Nb3_0 2.829410 1_555
Ga1_0 Nb0_0 2.829410 1_555
Ga1_0 Ga1_6 3.149749 1_555
Ga1_0 Ga1_6 3.149749 1_445
Ga1_0 Ga1_2 3.149749 1_555
Ga1_0 Ga1_4 3.149749 1_555
Ga1_0 Ga1_2 3.149749 1_545
Ga1_0 Ga1_4 3.149749 1_455
Ga1_1 Nb3_5 2.829406 1_555
Ga1_1 Nb3_3 2.829406 1_545
Ga1_1 Nb0_5 2.829406 1_555
Ga1_1 Nb0_3 2.829406 1_545
Ga1_1 Nb3_1 2.829410 1_555
Ga1_1 Nb0_1 2.829410 1_555
Ga1_1 Ga1_7 3.149749 1_555
Ga1_1 Ga1_7 3.149749 1_445
Ga1_1 Ga1_5 3.149749 1_555
Ga1_1 Ga1_3 3.149749 1_555
Ga1_1 Ga1_5 3.149749 1_455
Ga1_1 Ga1_3 3.149749 1_545
Ga1_2 Nb0_0 2.829406 1_555
Ga1_2 Nb3_0 2.829406 1_555
Ga1_2 Nb3_6 2.829406 1_555
Ga1_2 Nb0_6 2.829406 1_555
Ga1_2 Nb0_2 2.829410 1_555
Ga1_2 Nb3_2 2.829410 1_555
Ga1_2 Ga1_4 3.149749 1_455
Ga1_2 Ga1_4 3.149749 1_565
Ga1_2 Ga1_6 3.149749 1_555
Ga1_2 Ga1_6 3.149749 1_455
Ga1_3 Nb3_1 2.829406 1_555
Ga1_3 Nb3_7 2.829406 1_555
Ga1_3 Nb0_7 2.829406 1_555
Ga1_3 Nb0_1 2.829406 1_555
Ga1_3 Nb3_3 2.829410 1_555
Ga1_3 Nb0_3 2.829410 1_555
Ga1_3 Ga1_5 3.149749 1_565
Ga1_3 Ga1_5 3.149749 1_455
Ga1_3 Ga1_7 3.149749 1_555
Ga1_3 Ga1_7 3.149749 1_455
Ga1_4 Nb3_0 2.829406 1_655
Ga1_4 Nb0_0 2.829406 1_655
Ga1_4 Nb3_6 2.829406 1_545
Ga1_4 Nb0_6 2.829406 1_545
Ga1_4 Nb3_4 2.829410 1_555
Ga1_4 Nb0_4 2.829410 1_555
Ga1_4 Ga1_6 3.149749 1_545
Ga1_4 Ga1_6 3.149749 1_555
Ga1_5 Nb3_7 2.829406 1_545
Ga1_5 Nb3_1 2.829406 1_655
Ga1_5 Nb0_1 2.829406 1_655
Ga1_5 Nb0_7 2.829406 1_545
Ga1_5 Nb3_5 2.829410 1_555
Ga1_5 Nb0_5 2.829410 1_555
Ga1_5 Ga1_7 3.149749 1_555
Ga1_5 Ga1_7 3.149749 1_545
Ga1_6 Nb0_4 2.829406 1_555
Ga1_6 Nb3_4 2.829406 1_555
Ga1_6 Nb0_2 2.829406 1_655
Ga1_6 Nb3_2 2.829406 1_655
Ga1_6 Nb3_6 2.829410 1_555
Ga1_6 Nb0_6 2.829410 1_555
Ga1_7 Nb3_5 2.829406 1_555
Ga1_7 Nb3_3 2.829406 1_655
Ga1_7 Nb0_5 2.829406 1_555
Ga1_7 Nb0_3 2.829406 1_655
Ga1_7 Nb3_7 2.829410 1_555
Ga1_7 Nb0_7 2.829410 1_555
C0_0 Nb0_2 2.196328 1_545
C0_0 Nb1_4 2.196328 1_455
C0_0 Nb0_0 2.196330 1_555
C0_0 Nb0_6 2.196330 1_445
C0_0 Nb1_0 2.196330 1_555
C0_0 Nb1_6 2.196330 1_445
C0_1 Nb1_5 2.196328 1_455
C0_1 Nb0_3 2.196328 1_545
C0_1 Nb1_1 2.196330 1_555
C0_1 Nb1_7 2.196330 1_445
C0_1 Nb0_1 2.196330 1_555
C0_1 Nb0_7 2.196330 1_445
C0_2 Nb0_0 2.196328 1_555
C0_2 Nb1_6 2.196328 1_455
C0_2 Nb0_2 2.196330 1_555
C0_2 Nb0_4 2.196330 1_455
C0_2 Nb1_2 2.196330 1_555
C0_2 Nb1_4 2.196330 1_455
C0_3 Nb1_7 2.196328 1_455
C0_3 Nb0_1 2.196328 1_555
C0_3 Nb1_3 2.196330 1_555
C0_3 Nb1_5 2.196330 1_455
C0_3 Nb0_3 2.196330 1_555
C0_3 Nb0_5 2.196330 1_455
C0_4 Nb1_0 2.196328 1_555
C0_4 Nb0_6 2.196328 1_545
C0_4 Nb0_4 2.196330 1_555
C0_4 Nb1_4 2.196330 1_555
C0_4 Nb0_2 2.196330 1_545
C0_4 Nb1_2 2.196330 1_545
C0_5 Nb1_1 2.196328 1_555
C0_5 Nb0_7 2.196328 1_545
C0_5 Nb1_5 2.196330 1_555
C0_5 Nb1_3 2.196330 1_545
C0_5 Nb0_3 2.196330 1_545
C0_5 Nb0_5 2.196330 1_555
C0_6 Nb0_4 2.196328 1_555
C0_6 Nb1_2 2.196328 1_555
C0_6 Nb0_6 2.196330 1_555
C0_6 Nb1_6 2.196330 1_555
C0_6 Nb0_0 2.196330 1_555
C0_6 Nb1_0 2.196330 1_555
C0_7 Nb1_3 2.196328 1_555
C0_7 Nb0_5 2.196328 1_555
C0_7 Nb1_7 2.196330 1_555
C0_7 Nb1_1 2.196330 1_555
C0_7 Nb0_7 2.196330 1_555
C0_7 Nb0_1 2.196330 1_555
C1_0 Nb2_5 2.196328 1_454
C1_0 Nb3_2 2.196328 1_545
C1_0 Nb2_7 2.196330 1_444
C1_0 Nb2_1 2.196330 1_554
C1_0 Nb3_6 2.196330 1_445
C1_0 Nb3_0 2.196330 1_555
C1_1 Nb2_4 2.196328 1_455
C1_1 Nb3_3 2.196328 1_545
C1_1 Nb2_6 2.196330 1_445
C1_1 Nb2_0 2.196330 1_555
C1_1 Nb3_1 2.196330 1_555
C1_1 Nb3_7 2.196330 1_445
C1_2 Nb2_7 2.196328 1_454
C1_2 Nb3_0 2.196328 1_555
C1_2 Nb2_3 2.196330 1_554
C1_2 Nb2_5 2.196330 1_454
C1_2 Nb3_2 2.196330 1_555
C1_2 Nb3_4 2.196330 1_455
C1_3 Nb2_6 2.196328 1_455
C1_3 Nb3_1 2.196328 1_555
C1_3 Nb2_4 2.196330 1_455
C1_3 Nb2_2 2.196330 1_555
C1_3 Nb3_3 2.196330 1_555
C1_3 Nb3_5 2.196330 1_455
C1_4 Nb2_1 2.196328 1_554
C1_4 Nb3_6 2.196328 1_545
C1_4 Nb2_5 2.196330 1_554
C1_4 Nb2_3 2.196330 1_544
C1_4 Nb3_4 2.196330 1_555
C1_4 Nb3_2 2.196330 1_545
C1_5 Nb2_0 2.196328 1_555
C1_5 Nb3_7 2.196328 1_545
C1_5 Nb2_4 2.196330 1_555
C1_5 Nb2_2 2.196330 1_545
C1_5 Nb3_5 2.196330 1_555
C1_5 Nb3_3 2.196330 1_545
C1_6 Nb2_3 2.196328 1_554
C1_6 Nb3_4 2.196328 1_555
C1_6 Nb2_7 2.196330 1_554
C1_6 Nb2_1 2.196330 1_554
C1_6 Nb3_6 2.196330 1_555
C1_6 Nb3_0 2.196330 1_555
C1_7 Nb2_2 2.196328 1_555
C1_7 Nb3_5 2.196328 1_555
C1_7 Nb2_6 2.196330 1_555
C1_7 Nb2_0 2.196330 1_555
C1_7 Nb3_7 2.196330 1_555
C1_7 Nb3_1 2.196330 1_555
