# generated using pymatgen
data_Sr6YTl3(Cu2O7)3
_symmetry_space_group_name_H-M   'P 1'
_cell_length_a   3.67834700
_cell_length_b   11.03246600
_cell_length_c   12.74075100
_cell_angle_alpha   90.00000000
_cell_angle_beta   90.00000000
_cell_angle_gamma   90.00000000
_symmetry_Int_Tables_number   1
_chemical_formula_structural   Sr6YTl3(Cu2O7)3
_chemical_formula_sum   'Sr6 Y1 Tl3 Cu6 O21'
_cell_volume   517.03545135
_cell_formula_units_Z   1
loop_
 _symmetry_equiv_pos_site_id
 _symmetry_equiv_pos_as_xyz
  1  'x, y, z'
loop_
 _atom_site_type_symbol
 _atom_site_label
 _atom_site_symmetry_multiplicity
 _atom_site_fract_x
 _atom_site_fract_y
 _atom_site_fract_z
 _atom_site_occupancy
  Sr  Sr0  1  0.50000000  0.16596300  0.79298600  1
  Sr  Sr1  1  0.50000000  0.50000000  0.79397800  1
  Sr  Sr2  1  0.50000000  0.83403700  0.79298600  1
  Sr  Sr3  1  0.50000000  0.16596300  0.20701400  1
  Sr  Sr4  1  0.50000000  0.50000000  0.20602200  1
  Sr  Sr5  1  0.50000000  0.83403700  0.20701400  1
  Y  Y0  1  0.50000000  0.50000000  0.50000000  1
  Tl  Tl0  1  0.00000000  0.00000000  0.00000000  1
  Tl  Tl1  1  0.00000000  0.33192900  0.00000000  1
  Tl  Tl2  1  0.00000000  0.66807100  0.00000000  1
  Cu  Cu0  1  0.00000000  0.00000000  0.61071000  1
  Cu  Cu1  1  0.00000000  0.31982100  0.62175000  1
  Cu  Cu2  1  0.00000000  0.68017900  0.62175000  1
  Cu  Cu3  1  0.00000000  0.00000000  0.38929000  1
  Cu  Cu4  1  0.00000000  0.31982100  0.37825000  1
  Cu  Cu5  1  0.00000000  0.68017900  0.37825000  1
  O  O0  1  0.50000000  0.00000000  0.63774700  1
  O  O1  1  0.50000000  0.34472800  0.62851400  1
  O  O2  1  0.50000000  0.65527200  0.62851400  1
  O  O3  1  0.00000000  0.15980700  0.65303300  1
  O  O4  1  0.00000000  0.50000000  0.61215200  1
  O  O5  1  0.00000000  0.84019300  0.65303300  1
  O  O6  1  0.50000000  0.00000000  0.36225300  1
  O  O7  1  0.50000000  0.34472800  0.37148600  1
  O  O8  1  0.50000000  0.65527200  0.37148600  1
  O  O9  1  0.00000000  0.15980700  0.34696700  1
  O  O10  1  0.00000000  0.50000000  0.38784800  1
  O  O11  1  0.00000000  0.84019300  0.34696700  1
  O  O12  1  0.00000000  0.00000000  0.83895100  1
  O  O13  1  0.00000000  0.33586100  0.83351300  1
  O  O14  1  0.00000000  0.66413900  0.83351300  1
  O  O15  1  0.00000000  0.00000000  0.16104900  1
  O  O16  1  0.00000000  0.33586100  0.16648700  1
  O  O17  1  0.00000000  0.66413900  0.16648700  1
  O  O18  1  0.50000000  0.17280300  0.00000000  1
  O  O19  1  0.50000000  0.50000000  0.00000000  1
  O  O20  1  0.50000000  0.82719700  0.00000000  1
loop_
_geom_bond_atom_site_label_1
_geom_bond_atom_site_label_2
_geom_bond_distance
_geom_bond_site_symmetry_2
Cu0 O3 1.843682 1_555
Cu0 O5 1.843682 1_545
Cu0 O0 1.871155 1_455
Cu0 O0 1.871155 1_555
Cu1 O3 1.809783 1_555
Cu1 O1 1.861583 1_455
Cu1 O1 1.861583 1_555
Cu1 O4 1.991576 1_555
Cu1 O13 2.703817 1_555
Cu2 O5 1.809783 1_555
Cu2 O2 1.861583 1_555
Cu2 O2 1.861583 1_455
Cu2 O4 1.991576 1_555
Cu2 O14 2.703817 1_555
Cu3 O9 1.843682 1_555
Cu3 O11 1.843682 1_545
Cu3 O6 1.871155 1_455
Cu3 O6 1.871155 1_555
Cu4 O9 1.809783 1_555
Cu4 O7 1.861583 1_555
Cu4 O7 1.861583 1_455
Cu4 O10 1.991576 1_555
Cu4 O16 2.703817 1_555
Cu5 O11 1.809783 1_555
Cu5 O8 1.861583 1_555
Cu5 O8 1.861583 1_455
Cu5 O10 1.991576 1_555
Cu5 O17 2.703817 1_555
O0 O3 2.555169 1_555
O0 O5 2.555169 1_645
O0 O3 2.555169 1_655
O0 O5 2.555169 1_545
O0 Sr0 2.695260 1_555
O0 Sr2 2.695260 1_545
O1 Y0 2.369693 1_555
O1 O4 2.522003 1_555
O1 O4 2.522003 1_655
O1 Sr1 2.716380 1_555
O1 Sr0 2.877630 1_555
O2 Y0 2.369693 1_555
O2 O4 2.522003 1_555
O2 O4 2.522003 1_655
O2 Sr1 2.716380 1_555
O2 Sr2 2.877630 1_555
O3 Sr0 2.562546 1_455
O3 Sr0 2.562546 1_555
O4 Y0 2.329016 1_455
O4 Y0 2.329016 1_555
O4 Sr1 2.957904 1_455
O4 Sr1 2.957904 1_555
O5 Sr2 2.562546 1_555
O5 Sr2 2.562546 1_455
O6 O9 2.555169 1_555
O6 O9 2.555169 1_655
O6 Sr3 2.695260 1_555
O6 Sr5 2.695260 1_545
O7 Y0 2.369693 1_555
O7 Sr4 2.716380 1_555
O7 Sr3 2.877630 1_555
O8 Y0 2.369693 1_555
O8 Sr4 2.716380 1_555
O8 Sr5 2.877630 1_555
O9 Sr3 2.562546 1_455
O9 Sr3 2.562546 1_555
O10 Y0 2.329016 1_455
O10 Y0 2.329016 1_555
O10 O8 2.522003 1_555
O10 O8 2.522003 1_455
O10 O7 2.522003 1_455
O10 O7 2.522003 1_555
O10 Sr4 2.957904 1_455
O10 Sr4 2.957904 1_555
O11 O6 2.555169 1_565
O11 O6 2.555169 1_465
O11 Sr5 2.562546 1_455
O11 Sr5 2.562546 1_555
O12 Tl0 2.051885 1_556
O12 Sr0 2.660453 1_555
O12 Sr0 2.660453 1_455
O12 Sr2 2.660453 1_545
O12 Sr2 2.660453 1_445
O13 Tl1 2.121613 1_556
O13 Sr1 2.629731 1_455
O13 Sr1 2.629731 1_555
O13 Sr0 2.676289 1_555
O13 Sr0 2.676289 1_455
O14 Tl2 2.121613 1_556
O14 Sr1 2.629731 1_555
O14 Sr1 2.629731 1_455
O14 Sr2 2.676289 1_555
O14 Sr2 2.676289 1_455
O15 Tl0 2.051885 1_555
O15 Sr3 2.660453 1_455
O15 Sr3 2.660453 1_555
O15 Sr5 2.660453 1_445
O15 Sr5 2.660453 1_545
O16 Tl1 2.121613 1_555
O16 Sr4 2.629731 1_555
O16 Sr4 2.629731 1_455
O16 Sr3 2.676289 1_555
O16 Sr3 2.676289 1_455
O17 Tl2 2.121613 1_555
O17 Sr4 2.629731 1_455
O17 Sr4 2.629731 1_555
O17 Sr5 2.676289 1_455
O17 Sr5 2.676289 1_555
O18 Tl1 2.542543 1_555
O18 Tl1 2.542543 1_655
O18 Sr3 2.638593 1_555
O18 Sr0 2.638593 1_554
O18 Tl0 2.648978 1_555
O18 Tl0 2.648978 1_655
O19 Tl2 2.611658 1_555
O19 Tl2 2.611658 1_655
O19 Tl1 2.611658 1_655
O19 Tl1 2.611658 1_555
O19 Sr4 2.624875 1_555
O19 Sr1 2.624875 1_554
O20 Tl2 2.542543 1_655
O20 Tl2 2.542543 1_555
O20 Sr5 2.638593 1_555
O20 Sr2 2.638593 1_554
O20 Tl0 2.648978 1_565
O20 Tl0 2.648978 1_665
