# generated using pymatgen
data_Nd4FeS7
_symmetry_space_group_name_H-M   'P 1'
_cell_length_a   6.95707100
_cell_length_b   9.82422600
_cell_length_c   9.82734206
_cell_angle_alpha   60.15512330
_cell_angle_beta   90.00000000
_cell_angle_gamma   90.00000000
_symmetry_Int_Tables_number   1
_chemical_formula_structural   Nd4FeS7
_chemical_formula_sum   'Nd8 Fe2 S14'
_cell_volume   582.59696942
_cell_formula_units_Z   2
loop_
 _symmetry_equiv_pos_site_id
 _symmetry_equiv_pos_as_xyz
  1  'x, y, z'
loop_
 _atom_site_type_symbol
 _atom_site_label
 _atom_site_symmetry_multiplicity
 _atom_site_fract_x
 _atom_site_fract_y
 _atom_site_fract_z
 _atom_site_occupancy
  Nd  Nd0  1  0.72335600  0.37588000  0.78464300  1
  Nd  Nd1  1  0.72665400  0.83953600  0.37567400  1
  Nd  Nd2  1  0.72325900  0.78509900  0.83988200  1
  Nd  Nd3  1  0.22335600  0.62412000  0.21535700  1
  Nd  Nd4  1  0.22665400  0.16046400  0.62432600  1
  Nd  Nd5  1  0.22325900  0.21490100  0.16011800  1
  Nd  Nd6  1  0.17955700  0.66178100  0.67204900  1
  Nd  Nd7  1  0.67955700  0.33821900  0.32795100  1
  Fe  Fe0  1  0.51659100  0.00399200  0.99889400  1
  Fe  Fe1  1  0.01659100  0.99600800  0.00110600  1
  S  S0  1  0.33572200  0.23824500  0.86781300  1
  S  S1  1  0.33429400  0.89759100  0.23231700  1
  S  S2  1  0.33401100  0.87170400  0.89684600  1
  S  S3  1  0.83572200  0.76175500  0.13218700  1
  S  S4  1  0.83429400  0.10240900  0.76768300  1
  S  S5  1  0.83401100  0.12829600  0.10315400  1
  S  S6  1  0.96178400  0.51408100  0.93183900  1
  S  S7  1  0.96558400  0.55431900  0.51761000  1
  S  S8  1  0.96861900  0.92547500  0.55779300  1
  S  S9  1  0.46178400  0.48591900  0.06816100  1
  S  S10  1  0.46558400  0.44568100  0.48239000  1
  S  S11  1  0.46861900  0.07452500  0.44220700  1
  S  S12  1  0.56257200  0.66834100  0.66493400  1
  S  S13  1  0.06257200  0.33165900  0.33506600  1
loop_
_geom_bond_atom_site_label_1
_geom_bond_atom_site_label_2
_geom_bond_distance
_geom_bond_site_symmetry_2
Nd0 S12 2.743403 1_555
Nd0 S7 2.867194 1_555
Nd0 S4 2.878747 1_555
Nd0 S6 2.939755 1_555
Nd0 S0 2.944334 1_555
Nd0 S5 2.954445 1_556
Nd0 S10 3.237579 1_555
Nd1 S12 2.730188 1_555
Nd1 S5 2.866386 1_565
Nd1 S8 2.872924 1_555
Nd1 S7 2.944490 1_555
Nd1 S3 2.950455 1_555
Nd1 S1 2.993569 1_555
Nd1 S11 3.237602 1_565
Nd2 S12 2.735730 1_555
Nd2 S3 2.874159 1_556
Nd2 S6 2.874837 1_555
Nd2 S4 2.935375 1_565
Nd2 S8 2.948822 1_555
Nd2 S2 2.974013 1_555
Nd2 S9 3.227695 1_556
Nd3 S13 2.743403 1_555
Nd3 S10 2.867194 1_555
Nd3 S1 2.878747 1_555
Nd3 S9 2.939755 1_555
Nd3 S3 2.944334 1_455
Nd3 S2 2.954445 1_554
Nd3 S7 3.237579 1_455
Nd4 S13 2.730188 1_555
Nd4 S2 2.866386 1_545
Nd4 S11 2.872924 1_555
Nd4 S10 2.944490 1_555
Nd4 S0 2.950455 1_555
Nd4 S4 2.993569 1_455
Nd4 S8 3.237602 1_445
Nd5 S13 2.735730 1_555
Nd5 S0 2.874159 1_554
Nd5 S9 2.874837 1_555
Nd5 S1 2.935375 1_545
Nd5 S11 2.948822 1_555
Nd5 S5 2.974013 1_455
Nd5 S6 3.227695 1_454
Nd6 S12 2.665518 1_555
Nd6 S7 2.688652 1_455
Nd6 S8 2.688930 1_455
Nd6 S6 2.689198 1_455
Nd7 S13 2.665518 1_655
Nd7 S10 2.688652 1_555
Nd7 S11 2.688930 1_555
Nd7 S9 2.689198 1_555
Fe0 S1 2.361489 1_546
Fe0 S0 2.363971 1_555
Fe0 S2 2.367584 1_545
Fe0 S5 2.943317 1_556
Fe0 S4 2.965877 1_555
Fe0 S3 3.034131 1_546
Fe1 S4 2.361489 1_464
Fe1 S3 2.363971 1_455
Fe1 S5 2.367584 1_465
Fe1 S2 2.943317 1_554
Fe1 S1 2.965877 1_555
Fe1 S0 3.034131 1_564
S0 S10 3.410737 1_555
S1 S11 3.423146 1_565
S2 S9 3.411472 1_556
S3 S7 3.410737 1_555
S4 S8 3.423146 1_545
S5 S6 3.411472 1_554
S10 S12 3.516271 1_555
S11 S12 3.528235 1_545
S12 S9 3.512510 1_556
S13 S6 3.512510 1_454
S13 S7 3.516271 1_455
S13 S8 3.528235 1_445
