# generated using pymatgen
data_LuRu3
_symmetry_space_group_name_H-M   'P 1'
_cell_length_a   4.94880420
_cell_length_b   4.94880420
_cell_length_c   4.94880420
_cell_angle_alpha   132.74521082
_cell_angle_beta   132.74521082
_cell_angle_gamma   69.05456349
_symmetry_Int_Tables_number   1
_chemical_formula_structural   LuRu3
_chemical_formula_sum   'Lu1 Ru3'
_cell_volume   64.15637890
_cell_formula_units_Z   1
loop_
 _symmetry_equiv_pos_site_id
 _symmetry_equiv_pos_as_xyz
  1  'x, y, z'
loop_
 _atom_site_type_symbol
 _atom_site_label
 _atom_site_symmetry_multiplicity
 _atom_site_fract_x
 _atom_site_fract_y
 _atom_site_fract_z
 _atom_site_occupancy
  Lu  Lu0  1  0.00000000  0.00000000  0.00000000  1
  Ru  Ru0  1  0.75000000  0.25000000  0.50000000  1
  Ru  Ru1  1  0.25000000  0.75000000  0.50000000  1
  Ru  Ru2  1  0.50000000  0.50000000  0.00000000  1
loop_
_geom_bond_atom_site_label_1
_geom_bond_atom_site_label_2
_geom_bond_distance
_geom_bond_site_symmetry_2
Lu0 Ru2 2.804975 1_455
Lu0 Ru2 2.804975 1_444
Lu0 Ru2 2.804975 1_556
Lu0 Ru2 2.804975 1_545
Lu0 Ru0 2.844229 1_555
Lu0 Ru1 2.844229 1_444
Lu0 Ru0 2.844229 1_454
Lu0 Ru0 2.844229 1_455
Lu0 Ru0 2.844229 1_444
Lu0 Ru1 2.844229 1_544
Lu0 Ru1 2.844229 1_545
Lu0 Ru1 2.844229 1_555
Ru0 Ru1 2.804975 1_656
Ru0 Ru1 2.804975 1_555
Ru0 Ru1 2.804975 1_645
Ru0 Ru1 2.804975 1_544
Ru0 Ru2 2.844229 1_656
Ru0 Ru2 2.844229 1_556
Ru0 Ru2 2.844229 1_555
Ru0 Ru2 2.844229 1_545
Ru1 Ru2 2.844229 1_455
Ru1 Ru2 2.844229 1_556
Ru1 Ru2 2.844229 1_566
Ru1 Ru2 2.844229 1_555
