# generated using pymatgen
data_Sr2TaAlCu2O7
_symmetry_space_group_name_H-M   'P 1'
_cell_length_a   5.47981800
_cell_length_b   5.64398069
_cell_length_c   12.33281792
_cell_angle_alpha   102.28088008
_cell_angle_beta   102.05675868
_cell_angle_gamma   92.47705612
_symmetry_Int_Tables_number   1
_chemical_formula_structural   Sr2TaAlCu2O7
_chemical_formula_sum   'Sr4 Ta2 Al2 Cu4 O14'
_cell_volume   362.94297554
_cell_formula_units_Z   2
loop_
 _symmetry_equiv_pos_site_id
 _symmetry_equiv_pos_as_xyz
  1  'x, y, z'
loop_
 _atom_site_type_symbol
 _atom_site_label
 _atom_site_symmetry_multiplicity
 _atom_site_fract_x
 _atom_site_fract_y
 _atom_site_fract_z
 _atom_site_occupancy
  Sr  Sr0  1  0.65422000  0.61586300  0.27541400  1
  Sr  Sr1  1  0.36852300  0.38160400  0.72886300  1
  Sr  Sr2  1  0.15215100  0.16325200  0.27057400  1
  Sr  Sr3  1  0.87158000  0.84042500  0.72462200  1
  Ta  Ta0  1  0.69006300  0.16504200  0.50020100  1
  Ta  Ta1  1  0.27465200  0.83109200  0.50036500  1
  Al  Al0  1  0.01736300  0.01069000  0.99665500  1
  Al  Al1  1  0.49620800  0.48169400  0.00334900  1
  Cu  Cu0  1  0.06327500  0.56979800  0.10667400  1
  Cu  Cu1  1  0.94620900  0.44256200  0.89280000  1
  Cu  Cu2  1  0.57397500  0.04442400  0.10705600  1
  Cu  Cu3  1  0.45700900  0.93778200  0.89295800  1
  O  O0  1  0.92446600  0.90479200  0.50153300  1
  O  O1  1  0.32663400  0.19068400  0.49862100  1
  O  O2  1  0.74856500  0.38197800  0.10571500  1
  O  O3  1  0.62999800  0.61035400  0.89926700  1
  O  O4  1  0.26081700  0.23184600  0.10146400  1
  O  O5  1  0.13051000  0.77422400  0.89475400  1
  O  O6  1  0.39943700  0.71885800  0.11091400  1
  O  O7  1  0.26404800  0.26582600  0.88978600  1
  O  O8  1  0.89970300  0.89529100  0.10755100  1
  O  O9  1  0.77692300  0.10588500  0.88895500  1
  O  O10  1  0.68165000  0.21493900  0.35286800  1
  O  O11  1  0.37445500  0.75389900  0.64169600  1
  O  O12  1  0.23759800  0.61675700  0.35916700  1
  O  O13  1  0.82278700  0.36027700  0.64741200  1
loop_
_geom_bond_atom_site_label_1
_geom_bond_atom_site_label_2
_geom_bond_distance
_geom_bond_site_symmetry_2
Al0 O8 1.849712 1_446
Al0 O9 1.850016 1_455
Al0 O5 1.851624 1_545
Al0 O4 1.859537 1_556
Al1 O6 1.852721 1_555
Al1 O3 1.859073 1_554
Al1 O7 1.860154 1_554
Al1 O2 1.860933 1_555
Al1 O4 2.517383 1_555
Cu0 O6 1.977612 1_555
Cu0 O2 1.981429 1_455
Cu0 O8 2.077578 1_455
Cu0 O4 2.229231 1_555
Cu0 Cu1 2.516351 1_454
Cu1 O3 2.018209 1_555
Cu1 O7 2.047277 1_655
Cu1 O9 2.065060 1_555
Cu1 O5 2.081290 1_655
Cu2 O8 2.005486 1_545
Cu2 O6 2.048827 1_545
Cu2 O4 2.051106 1_555
Cu2 O2 2.099438 1_555
Cu2 Cu3 2.515657 1_544
Cu3 O9 1.971844 1_565
Cu3 O5 1.983987 1_555
Cu3 O3 2.121682 1_555
Cu3 O7 2.174929 1_565
O0 Ta1 1.983335 1_655
O0 Ta0 1.993042 1_565
O0 O1 2.685517 1_665
O0 Sr3 2.921456 1_555
O0 Sr0 2.959811 1_555
O1 Ta0 1.999349 1_555
O1 Ta1 2.042487 1_545
O1 Sr2 2.743478 1_555
O1 Sr1 2.771540 1_555
O2 Sr0 2.392828 1_555
O2 Sr2 3.158179 1_655
O3 Sr1 2.358881 1_555
O4 Sr2 2.386752 1_555
O4 Sr0 3.103752 1_555
O5 Sr3 2.385567 1_455
O6 Sr0 2.406565 1_555
O7 Sr1 2.384859 1_555
O7 Sr3 3.190935 1_445
O8 Sr2 2.367893 1_665
O8 Sr0 3.309313 1_555
O9 Sr3 2.415756 1_545
O10 Ta0 1.888610 1_555
O10 Sr0 2.635201 1_555
O10 Sr2 2.846900 1_555
O10 Sr2 2.965604 1_655
O10 Sr0 3.299923 1_545
O11 Ta1 1.863440 1_555
O11 Sr1 2.557634 1_555
O11 Sr3 2.685906 1_555
O11 Sr3 3.155839 1_455
O12 Ta1 1.863301 1_555
O12 Sr2 2.541146 1_555
O12 Sr0 2.694995 1_555
O12 Sr0 3.146971 1_455
O13 Ta0 1.888743 1_555
O13 Sr3 2.656176 1_555
O13 Sr1 2.870396 1_555
O13 Sr1 2.937569 1_655
O13 Sr3 3.276696 1_545
