# generated using pymatgen
data_Ca2ZnAs2(H2O5)2
_symmetry_space_group_name_H-M   'P 1'
_cell_length_a   5.75631263
_cell_length_b   5.90245985
_cell_length_c   13.07767900
_cell_angle_alpha   90.00000000
_cell_angle_beta   90.00000000
_cell_angle_gamma   108.27488227
_symmetry_Int_Tables_number   1
_chemical_formula_structural   Ca2ZnAs2(H2O5)2
_chemical_formula_sum   'Ca4 Zn2 As4 H8 O20'
_cell_volume   421.92172461
_cell_formula_units_Z   2
loop_
 _symmetry_equiv_pos_site_id
 _symmetry_equiv_pos_as_xyz
  1  'x, y, z'
loop_
 _atom_site_type_symbol
 _atom_site_label
 _atom_site_symmetry_multiplicity
 _atom_site_fract_x
 _atom_site_fract_y
 _atom_site_fract_z
 _atom_site_occupancy
  Ca  Ca0  1  0.23125700  0.56319600  0.12289800  1
  Ca  Ca1  1  0.76874300  0.43680400  0.87710200  1
  Ca  Ca2  1  0.26874300  0.43680400  0.62289800  1
  Ca  Ca3  1  0.73125700  0.56319600  0.37710200  1
  Zn  Zn0  1  0.00000000  0.00000000  0.00000000  1
  Zn  Zn1  1  0.50000000  0.00000000  0.50000000  1
  As  As0  1  0.06311000  0.21970800  0.37935400  1
  As  As1  1  0.93689000  0.78029200  0.62064600  1
  As  As2  1  0.43689000  0.78029200  0.87935400  1
  As  As3  1  0.56311000  0.21970800  0.12064600  1
  H  H0  1  0.30012300  0.69913200  0.35183300  1
  H  H1  1  0.69987700  0.30086800  0.64816700  1
  H  H2  1  0.19987700  0.30086800  0.85183300  1
  H  H3  1  0.80012300  0.69913200  0.14816700  1
  H  H4  1  0.00055400  0.09561100  0.79361100  1
  H  H5  1  0.99944600  0.90438900  0.20638900  1
  H  H6  1  0.49944600  0.90438900  0.29361100  1
  H  H7  1  0.50055400  0.09561100  0.70638900  1
  O  O0  1  0.53258500  0.18532900  0.63813000  1
  O  O1  1  0.46741500  0.81467100  0.36187000  1
  O  O2  1  0.96741500  0.81467100  0.13813000  1
  O  O3  1  0.03258500  0.18532900  0.86187000  1
  O  O4  1  0.49365800  0.94628000  0.17660300  1
  O  O5  1  0.50634200  0.05372000  0.82339700  1
  O  O6  1  0.00634200  0.05372000  0.67660300  1
  O  O7  1  0.99365800  0.94628000  0.32339700  1
  O  O8  1  0.07809300  0.45025800  0.29520300  1
  O  O9  1  0.92190700  0.54974200  0.70479700  1
  O  O10  1  0.42190700  0.54974200  0.79520300  1
  O  O11  1  0.57809300  0.45025800  0.20479700  1
  O  O12  1  0.33324200  0.28488400  0.44835100  1
  O  O13  1  0.66675800  0.71511600  0.55164900  1
  O  O14  1  0.16675800  0.71511600  0.94835100  1
  O  O15  1  0.83324200  0.28488400  0.05164900  1
  O  O16  1  0.33423300  0.24177900  0.03821000  1
  O  O17  1  0.66576700  0.75822100  0.96179000  1
  O  O18  1  0.16576700  0.75822100  0.53821000  1
  O  O19  1  0.83423300  0.24177900  0.46179000  1
loop_
_geom_bond_atom_site_label_1
_geom_bond_atom_site_label_2
_geom_bond_distance
_geom_bond_site_symmetry_2
Ca0 O4 2.396991 1_555
Ca0 O16 2.425371 1_555
Ca0 O8 2.435300 1_555
Ca0 O2 2.441990 1_455
Ca0 O14 2.522161 1_554
Ca0 O11 2.532229 1_555
Ca0 O15 2.540767 1_455
Ca1 O5 2.396991 1_555
Ca1 O17 2.425371 1_555
Ca1 O9 2.435300 1_555
Ca1 O3 2.441990 1_655
Ca1 O15 2.522161 1_556
Ca1 O10 2.532229 1_555
Ca1 O14 2.540767 1_655
Ca2 O6 2.396991 1_555
Ca2 O18 2.425371 1_555
Ca2 O10 2.435300 1_555
Ca2 O0 2.441990 1_555
Ca2 O12 2.522161 1_555
Ca2 O9 2.532229 1_455
Ca2 O13 2.540767 1_555
Ca3 O7 2.396991 1_555
Ca3 O19 2.425371 1_555
Ca3 O11 2.435300 1_555
Ca3 O1 2.441990 1_555
Ca3 O13 2.522161 1_555
Ca3 O8 2.532229 1_655
Ca3 O12 2.540767 1_555
As0 O7 1.701576 1_445
As0 O8 1.731110 1_555
As0 O12 1.733474 1_555
As0 O19 1.738569 1_455
As1 O6 1.701576 1_665
As1 O9 1.731110 1_555
As1 O13 1.733474 1_555
As1 O18 1.738569 1_655
As2 O5 1.701576 1_565
As2 O10 1.731110 1_555
As2 O14 1.733474 1_555
As2 O17 1.738569 1_555
As3 O4 1.701576 1_545
As3 O11 1.731110 1_555
As3 O15 1.733474 1_555
As3 O16 1.738569 1_555
H0 O1 0.998890 1_555
H0 O8 1.778304 1_555
H1 O0 0.998890 1_555
H1 O9 1.778304 1_555
H2 O3 0.998890 1_555
H2 O10 1.778304 1_555
H3 O2 0.998890 1_555
H3 O11 1.778304 1_555
H4 O3 1.024719 1_555
H4 O6 1.552065 1_555
H5 O2 1.024719 1_555
H5 O7 1.552065 1_555
H6 O1 1.024719 1_555
H6 O4 1.552065 1_555
H7 O0 1.024719 1_555
H7 O5 1.552065 1_555
O0 Zn1 2.089561 1_555
O1 Zn1 2.089561 1_565
O2 Zn0 2.089561 1_665
O3 Zn0 2.089561 1_556
O12 Zn1 2.284174 1_555
O13 Zn1 2.284174 1_565
O14 Zn0 2.284174 1_566
O15 Zn0 2.284174 1_655
O16 Zn0 2.065412 1_555
O17 Zn0 2.065412 1_666
O18 Zn1 2.065412 1_565
O19 Zn1 2.065412 1_555
