# generated using pymatgen
data_KCaTbBiO6
_symmetry_space_group_name_H-M   'P 1'
_cell_length_a   8.53590290
_cell_length_b   8.54157365
_cell_length_c   8.61920581
_cell_angle_alpha   90.00000000
_cell_angle_beta   90.00000000
_cell_angle_gamma   90.00000000
_symmetry_Int_Tables_number   1
_chemical_formula_structural   KCaTbBiO6
_chemical_formula_sum   'K4 Ca4 Tb4 Bi4 O24'
_cell_volume   628.42666873
_cell_formula_units_Z   4
loop_
 _symmetry_equiv_pos_site_id
 _symmetry_equiv_pos_as_xyz
  1  'x, y, z'
loop_
 _atom_site_type_symbol
 _atom_site_label
 _atom_site_symmetry_multiplicity
 _atom_site_fract_x
 _atom_site_fract_y
 _atom_site_fract_z
 _atom_site_occupancy
  K  K0  1  0.50000000  -0.00000000  0.50000000  1
  K  K1  1  0.50000000  0.50000000  -0.00000000  1
  K  K2  1  0.00000000  0.50000000  -0.00000000  1
  K  K3  1  -0.00000000  -0.00000000  0.50000000  1
  Ca  Ca0  1  0.00000000  0.50000000  0.50000000  1
  Ca  Ca1  1  0.50000000  0.00000000  -0.00000000  1
  Ca  Ca2  1  0.00000000  -0.00000000  -0.00000000  1
  Ca  Ca3  1  0.50000000  0.50000000  0.50000000  1
  Tb  Tb0  1  0.25000000  0.25000000  0.25000000  1
  Tb  Tb1  1  0.75000000  0.75000000  0.25000000  1
  Tb  Tb2  1  0.75000000  0.25000000  0.75000000  1
  Tb  Tb3  1  0.25000000  0.75000000  0.75000000  1
  Bi  Bi0  1  0.75000000  0.75000000  0.75000000  1
  Bi  Bi1  1  0.25000000  0.25000000  0.75000000  1
  Bi  Bi2  1  0.25000000  0.75000000  0.25000000  1
  Bi  Bi3  1  0.75000000  0.25000000  0.25000000  1
  O  O0  1  0.99257066  0.21685053  0.27246282  1
  O  O1  1  0.00742934  0.78314947  0.27246282  1
  O  O2  1  0.00742934  0.21685053  0.72753718  1
  O  O3  1  0.99257066  0.78314947  0.72753718  1
  O  O4  1  0.28315598  0.99214502  0.19510969  1
  O  O5  1  0.28315598  0.00785498  0.80489031  1
  O  O6  1  0.71684402  0.00785498  0.19510969  1
  O  O7  1  0.71684402  0.99214502  0.80489031  1
  O  O8  1  0.21515233  0.26538376  0.99263339  1
  O  O9  1  0.78484767  0.26538376  0.00736661  1
  O  O10  1  0.21515233  0.73461624  0.00736661  1
  O  O11  1  0.78484767  0.73461624  0.99263339  1
  O  O12  1  0.50742934  0.28314947  0.22753718  1
  O  O13  1  0.49257066  0.71685053  0.22753718  1
  O  O14  1  0.49257066  0.28314947  0.77246282  1
  O  O15  1  0.50742934  0.71685053  0.77246282  1
  O  O16  1  0.21684402  0.50785498  0.30489031  1
  O  O17  1  0.21684402  0.49214502  0.69510969  1
  O  O18  1  0.78315598  0.49214502  0.30489031  1
  O  O19  1  0.78315598  0.50785498  0.69510969  1
  O  O20  1  0.28484767  0.23461624  0.50736661  1
  O  O21  1  0.71515233  0.23461624  0.49263339  1
  O  O22  1  0.28484767  0.76538376  0.49263339  1
  O  O23  1  0.71515233  0.76538376  0.50736661  1
loop_
_geom_bond_atom_site_label_1
_geom_bond_atom_site_label_2
_geom_bond_distance
_geom_bond_site_symmetry_2
K0 O20 2.718974 1_555
K0 O21 2.718974 1_555
K0 O23 2.718974 1_545
K0 O22 2.718974 1_545
K0 O5 3.215039 1_555
K0 O6 3.215039 1_555
K0 O7 3.215039 1_545
K0 O4 3.215039 1_545
K0 O13 3.371707 1_545
K0 O12 3.371707 1_555
K0 O15 3.371707 1_545
K0 O14 3.371707 1_555
K1 O13 2.698351 1_555
K1 O12 2.698351 1_555
K1 O14 2.698351 1_554
K1 O15 2.698351 1_554
K1 O8 3.151488 1_554
K1 O11 3.151488 1_554
K1 O9 3.151488 1_555
K1 O10 3.151488 1_555
K2 O8 2.718974 1_554
K2 O9 2.718974 1_455
K2 O10 2.718974 1_555
K2 O11 2.718974 1_454
K2 O17 3.215039 1_554
K2 O18 3.215039 1_455
K2 O19 3.215039 1_454
K2 O16 3.215039 1_555
K2 O3 3.371707 1_454
K2 O0 3.371707 1_455
K2 O1 3.371707 1_555
K2 O2 3.371707 1_554
K3 O1 2.698351 1_545
K3 O3 2.698351 1_445
K3 O0 2.698351 1_455
K3 O2 2.698351 1_555
K3 O20 3.151488 1_555
K3 O21 3.151488 1_455
K3 O23 3.151488 1_445
K3 O22 3.151488 1_545
Ca0 O18 2.501727 1_455
Ca0 O19 2.501727 1_455
Ca0 O16 2.501727 1_555
Ca0 O17 2.501727 1_555
Ca0 O3 3.114423 1_455
Ca0 O0 3.114423 1_455
Ca0 O2 3.114423 1_555
Ca0 O1 3.114423 1_555
Ca1 O7 2.501727 1_544
Ca1 O6 2.501727 1_555
Ca1 O4 2.501727 1_545
Ca1 O5 2.501727 1_554
Ca1 O13 3.114423 1_545
Ca1 O15 3.114423 1_544
Ca1 O12 3.114423 1_555
Ca1 O14 3.114423 1_554
Ca2 O11 2.918081 1_444
Ca2 O10 2.918081 1_545
Ca2 O8 2.918081 1_554
Ca2 O9 2.918081 1_455
Ca2 O7 2.945239 1_444
Ca2 O6 2.945239 1_455
Ca2 O4 2.945239 1_545
Ca2 O5 2.945239 1_554
Ca2 O3 2.991634 1_444
Ca2 O0 2.991634 1_455
Ca2 O2 2.991634 1_554
Ca2 O1 2.991634 1_545
Ca3 O22 2.918081 1_555
Ca3 O20 2.918081 1_555
Ca3 O23 2.918081 1_555
Ca3 O21 2.918081 1_555
Ca3 O17 2.945239 1_555
Ca3 O16 2.945239 1_555
Ca3 O18 2.945239 1_555
Ca3 O19 2.945239 1_555
Ca3 O14 2.991634 1_555
Ca3 O15 2.991634 1_555
Ca3 O13 2.991634 1_555
Ca3 O12 2.991634 1_555
Bi0 O15 2.098780 1_555
Bi0 O3 2.098780 1_555
Bi0 O23 2.116439 1_555
Bi0 O11 2.116439 1_555
Bi0 O7 2.140513 1_555
Bi0 O19 2.140513 1_555
Bi1 O2 2.098780 1_555
Bi1 O14 2.098780 1_555
Bi1 O20 2.116439 1_555
Bi1 O8 2.116439 1_555
Bi1 O5 2.140513 1_555
Bi1 O17 2.140513 1_555
Bi2 O13 2.098780 1_555
Bi2 O1 2.098780 1_555
Bi2 O10 2.116439 1_555
Bi2 O22 2.116439 1_555
Bi2 O16 2.140513 1_555
Bi2 O4 2.140513 1_555
Bi3 O12 2.098780 1_555
Bi3 O0 2.098780 1_555
Bi3 O21 2.116439 1_555
Bi3 O9 2.116439 1_555
Bi3 O6 2.140513 1_555
Bi3 O18 2.140513 1_555
O0 Tb0 2.224003 1_655
O0 O9 2.921746 1_555
O0 O18 2.966941 1_555
O1 Tb1 2.224003 1_455
O1 O10 2.921746 1_555
O1 O16 2.966941 1_555
O2 Tb2 2.224003 1_455
O2 O8 2.921746 1_555
O3 Tb3 2.224003 1_655
O4 Tb0 2.270437 1_565
O4 O8 2.971474 1_564
O5 Tb3 2.270437 1_545
O5 O8 2.791808 1_555
O6 Tb1 2.270437 1_545
O6 O9 2.791808 1_555
O7 Tb2 2.270437 1_565
O7 O9 2.971474 1_566
O8 Tb0 2.242004 1_556
O9 Tb2 2.242004 1_554
O10 Tb3 2.242004 1_554
O10 O4 2.791808 1_555
O10 O5 2.971474 1_564
O11 Tb1 2.242004 1_556
O11 O7 2.791808 1_555
O11 O3 2.921746 1_555
O11 O6 2.971474 1_566
O12 Tb0 2.224003 1_555
O12 O21 2.921746 1_555
O12 O6 2.966941 1_555
O13 Tb1 2.224003 1_555
O13 O22 2.921746 1_555
O13 O4 2.966941 1_555
O14 Tb2 2.224003 1_555
O14 O20 2.921746 1_555
O14 O5 2.966941 1_555
O15 Tb3 2.224003 1_555
O15 O23 2.921746 1_555
O15 O7 2.966941 1_555
O16 Tb0 2.270437 1_555
O16 O22 2.791808 1_555
O16 O20 2.971474 1_555
O17 Tb3 2.270437 1_555
O17 O20 2.791808 1_555
O17 O2 2.966941 1_555
O17 O22 2.971474 1_555
O18 Tb1 2.270437 1_555
O18 O21 2.791808 1_555
O18 O23 2.971474 1_555
O19 Tb2 2.270437 1_555
O19 O23 2.791808 1_555
O19 O3 2.966941 1_555
O19 O21 2.971474 1_555
O20 Tb0 2.242004 1_555
O21 Tb2 2.242004 1_555
O22 Tb3 2.242004 1_555
O23 Tb1 2.242004 1_555
