# generated using pymatgen
data_Mn5In3O12
_symmetry_space_group_name_H-M   'P 1'
_cell_length_a   5.21063000
_cell_length_b   5.40411684
_cell_length_c   7.93893973
_cell_angle_alpha   89.68244518
_cell_angle_beta   88.18527076
_cell_angle_gamma   89.49268647
_symmetry_Int_Tables_number   1
_chemical_formula_structural   Mn5In3O12
_chemical_formula_sum   'Mn5 In3 O12'
_cell_volume   223.42746239
_cell_formula_units_Z   1
loop_
 _symmetry_equiv_pos_site_id
 _symmetry_equiv_pos_as_xyz
  1  'x, y, z'
loop_
 _atom_site_type_symbol
 _atom_site_label
 _atom_site_symmetry_multiplicity
 _atom_site_fract_x
 _atom_site_fract_y
 _atom_site_fract_z
 _atom_site_occupancy
  Mn  Mn0  1  0.99752600  0.49952200  0.99654300  1
  Mn  Mn1  1  0.50229400  0.99991700  0.50278500  1
  Mn  Mn2  1  0.99957900  0.50093500  0.50442400  1
  Mn  Mn3  1  0.50086000  0.00112800  0.99523200  1
  Mn  Mn4  1  0.51806300  0.44736000  0.76371000  1
  In  In0  1  0.02152000  0.06038200  0.26186200  1
  In  In1  1  0.47768100  0.55867700  0.23478300  1
  In  In2  1  0.98068500  0.94235100  0.73899900  1
  O  O0  1  0.80280200  0.19144900  0.92013800  1
  O  O1  1  0.30232800  0.30013800  0.41736400  1
  O  O2  1  0.20088200  0.80461500  0.08198300  1
  O  O3  1  0.69626800  0.70083900  0.58487100  1
  O  O4  1  0.12665000  0.56511700  0.76708500  1
  O  O5  1  0.62805100  0.93525600  0.26814800  1
  O  O6  1  0.87178000  0.43717700  0.23277200  1
  O  O7  1  0.37340500  0.06835700  0.73232700  1
  O  O8  1  0.30475600  0.30165100  0.05806500  1
  O  O9  1  0.81396500  0.19140500  0.55074900  1
  O  O10  1  0.68593200  0.69134900  0.94463400  1
  O  O11  1  0.19497000  0.80237700  0.44352700  1
loop_
_geom_bond_atom_site_label_1
_geom_bond_atom_site_label_2
_geom_bond_distance
_geom_bond_site_symmetry_2
Mn0 O4 1.953510 1_655
Mn0 O10 1.971903 1_555
Mn0 O8 1.989515 1_656
Mn0 O6 1.994757 1_556
Mn0 O0 2.061376 1_555
Mn0 O2 2.095265 1_656
Mn1 O7 1.958122 1_565
Mn1 O9 1.981548 1_565
Mn1 O5 1.986768 1_555
Mn1 O11 2.002203 1_555
Mn1 O3 2.014854 1_555
Mn1 O1 2.044614 1_565
Mn2 O9 1.966727 1_555
Mn2 O11 1.978251 1_655
Mn2 O3 1.996554 1_555
Mn2 O1 2.013134 1_655
Mn2 O4 2.237522 1_655
Mn2 O6 2.305746 1_555
Mn3 O10 1.961682 1_545
Mn3 O0 1.962400 1_555
Mn3 O8 1.969224 1_556
Mn3 O2 1.999608 1_546
Mn3 O7 2.237078 1_555
Mn3 O5 2.310542 1_546
Mn4 O4 2.130499 1_555
Mn4 O3 2.161466 1_555
Mn4 O10 2.165120 1_555
Mn4 O7 2.206840 1_555
Mn4 O0 2.391121 1_555
Mn4 O9 2.640454 1_555
Mn4 O8 2.673376 1_556
In0 O5 2.163524 1_445
In0 O2 2.176629 1_545
In0 O6 2.187799 1_455
In0 O11 2.208809 1_545
In0 O1 2.347216 1_555
In0 O8 2.520967 1_555
In0 O9 2.603511 1_455
In1 O6 2.149982 1_555
In1 O1 2.191864 1_555
In1 O8 2.198479 1_555
In1 O5 2.207479 1_555
In1 O2 2.318880 1_555
In1 O11 2.546768 1_555
In1 O10 2.614325 1_554
In2 O0 2.157355 1_565
In2 O7 2.161326 1_665
In2 O4 2.182289 1_655
In2 O9 2.199758 1_565
In2 O3 2.358765 1_555
In2 O10 2.591804 1_555
In2 O11 2.675855 1_655
