# generated using pymatgen
data_Re(NCl3)2
_symmetry_space_group_name_H-M   'P 1'
_cell_length_a   7.08549986
_cell_length_b   7.08549986
_cell_length_c   7.08549986
_cell_angle_alpha   60.00000000
_cell_angle_beta   60.00000000
_cell_angle_gamma   60.00000000
_symmetry_Int_Tables_number   1
_chemical_formula_structural   Re(NCl3)2
_chemical_formula_sum   'Re1 N2 Cl6'
_cell_volume   251.53387639
_cell_formula_units_Z   1
loop_
 _symmetry_equiv_pos_site_id
 _symmetry_equiv_pos_as_xyz
  1  'x, y, z'
loop_
 _atom_site_type_symbol
 _atom_site_label
 _atom_site_symmetry_multiplicity
 _atom_site_fract_x
 _atom_site_fract_y
 _atom_site_fract_z
 _atom_site_occupancy
  Re  Re0  1  0.00000000  0.00000000  0.00000000  1
  N  N0  1  0.25000000  0.25000000  0.25000000  1
  N  N1  1  0.75000000  0.75000000  0.75000000  1
  Cl  Cl0  1  0.77087300  0.22912700  0.22912700  1
  Cl  Cl1  1  0.22912700  0.77087300  0.77087300  1
  Cl  Cl2  1  0.22912700  0.77087300  0.22912700  1
  Cl  Cl3  1  0.77087300  0.22912700  0.77087300  1
  Cl  Cl4  1  0.22912700  0.22912700  0.77087300  1
  Cl  Cl5  1  0.77087300  0.77087300  0.22912700  1
loop_
_geom_bond_atom_site_label_1
_geom_bond_atom_site_label_2
_geom_bond_distance
_geom_bond_site_symmetry_2
Cl0 Re0 2.295946 1_655
Cl0 N0 3.548919 1_555
Cl0 N1 3.548919 1_545
Cl0 N1 3.548919 1_554
Cl0 N0 3.548919 1_655
Cl1 Re0 2.295946 1_566
Cl1 N1 3.548919 1_455
Cl1 N0 3.548919 1_565
Cl1 N0 3.548919 1_556
Cl1 N1 3.548919 1_555
Cl2 Re0 2.295946 1_565
Cl2 N0 3.548919 1_555
Cl2 N1 3.548919 1_455
Cl2 N1 3.548919 1_554
Cl2 N0 3.548919 1_565
Cl3 Re0 2.295946 1_656
Cl3 N1 3.548919 1_545
Cl3 N0 3.548919 1_655
Cl3 N0 3.548919 1_556
Cl3 N1 3.548919 1_555
Cl4 Re0 2.295946 1_556
Cl4 N0 3.548919 1_555
Cl4 N1 3.548919 1_545
Cl4 N1 3.548919 1_455
Cl4 N0 3.548919 1_556
Cl5 Re0 2.295946 1_665
Cl5 N1 3.548919 1_554
Cl5 N0 3.548919 1_655
Cl5 N0 3.548919 1_565
Cl5 N1 3.548919 1_555
