# generated using pymatgen
data_Ta2InBiO8
_symmetry_space_group_name_H-M   'P 1'
_cell_length_a   5.42895698
_cell_length_b   7.66851156
_cell_length_c   7.92009241
_cell_angle_alpha   78.67895164
_cell_angle_beta   89.08437890
_cell_angle_gamma   88.47438935
_symmetry_Int_Tables_number   1
_chemical_formula_structural   Ta2InBiO8
_chemical_formula_sum   'Ta4 In2 Bi2 O16'
_cell_volume   323.17970870
_cell_formula_units_Z   2
loop_
 _symmetry_equiv_pos_site_id
 _symmetry_equiv_pos_as_xyz
  1  'x, y, z'
loop_
 _atom_site_type_symbol
 _atom_site_label
 _atom_site_symmetry_multiplicity
 _atom_site_fract_x
 _atom_site_fract_y
 _atom_site_fract_z
 _atom_site_occupancy
  Ta  Ta0  1  0.75706000  0.80722800  0.32819100  1
  Ta  Ta1  1  0.24294000  0.19277200  0.67180900  1
  Ta  Ta2  1  0.23852700  0.68806400  0.65299600  1
  Ta  Ta3  1  0.76147300  0.31193600  0.34700400  1
  In  In0  1  0.23871700  0.61711300  0.11554300  1
  In  In1  1  0.76128300  0.38288700  0.88445700  1
  Bi  Bi0  1  0.72448000  0.87324400  0.85220500  1
  Bi  Bi1  1  0.27552000  0.12675600  0.14779500  1
  O  O0  1  0.06642000  0.19760600  0.45576900  1
  O  O1  1  0.93358000  0.80239400  0.54423100  1
  O  O2  1  0.47453100  0.38821500  0.18127400  1
  O  O3  1  0.52546900  0.61178500  0.81872600  1
  O  O4  1  0.67484200  0.06135600  0.29970600  1
  O  O5  1  0.32515800  0.93864400  0.70029400  1
  O  O6  1  0.55633900  0.28104100  0.54737600  1
  O  O7  1  0.44366100  0.71895900  0.45262400  1
  O  O8  1  0.54593400  0.80020100  0.11059000  1
  O  O9  1  0.45406600  0.19979900  0.88941000  1
  O  O10  1  0.97180200  0.33705200  0.11337500  1
  O  O11  1  0.02819800  0.66294800  0.88662500  1
  O  O12  1  0.03663900  0.84974800  0.16835900  1
  O  O13  1  0.96336100  0.15025200  0.83164100  1
  O  O14  1  0.86437800  0.54879100  0.33839200  1
  O  O15  1  0.13562200  0.45120900  0.66160800  1
loop_
_geom_bond_atom_site_label_1
_geom_bond_atom_site_label_2
_geom_bond_distance
_geom_bond_site_symmetry_2
In0 O11 2.124042 1_554
In0 O2 2.129312 1_555
In0 O12 2.176048 1_555
In0 O8 2.203531 1_555
In0 O10 2.625545 1_455
In0 O14 2.664356 1_455
In0 O3 2.805154 1_554
In1 O10 2.124042 1_556
In1 O3 2.129312 1_555
In1 O13 2.176048 1_555
In1 O9 2.203531 1_555
In1 O11 2.625545 1_655
In1 O15 2.664356 1_655
In1 O2 2.805154 1_556
Bi0 O8 2.226362 1_556
Bi0 O11 2.256974 1_655
Bi0 O3 2.364505 1_555
Bi0 O5 2.487459 1_555
Bi0 O13 2.494977 1_565
Bi0 O1 2.816459 1_555
Bi0 O9 2.931407 1_565
Bi1 O9 2.226362 1_554
Bi1 O10 2.256974 1_455
Bi1 O2 2.364505 1_555
Bi1 O4 2.487459 1_555
Bi1 O12 2.494977 1_545
Bi1 O0 2.816459 1_555
Bi1 O8 2.931407 1_545
O0 Ta1 1.968014 1_555
O0 Ta3 1.980740 1_455
O0 O10 2.763681 1_455
O1 Ta0 1.968014 1_555
O1 Ta2 1.980740 1_655
O1 O11 2.763681 1_655
O2 Ta3 2.051142 1_555
O2 O4 2.703605 1_555
O3 Ta2 2.051142 1_555
O3 O5 2.703605 1_555
O4 Ta0 1.957595 1_545
O4 Ta3 2.095315 1_555
O5 Ta1 1.957595 1_565
O5 Ta2 2.095315 1_555
O6 Ta3 1.903887 1_555
O6 Ta1 2.017455 1_555
O6 O9 2.709709 1_555
O7 Ta2 1.903887 1_555
O7 Ta0 2.017455 1_555
O7 O8 2.709709 1_555
O8 Ta0 2.095167 1_555
O9 Ta1 2.095167 1_555
O10 Ta3 2.137537 1_555
O10 O14 2.684241 1_555
O10 O2 2.776931 1_555
O10 O11 2.797442 1_654
O10 O2 2.842347 1_655
O10 O4 2.850832 1_555
O10 O13 2.880062 1_554
O11 Ta2 2.137537 1_555
O11 O15 2.684241 1_555
O11 O3 2.776931 1_555
O11 O3 2.842347 1_455
O11 O5 2.850832 1_555
O11 O12 2.880062 1_556
O12 Ta0 1.953319 1_455
O12 O14 2.620866 1_455
O12 O8 2.758947 1_455
O12 O8 2.823204 1_555
O13 Ta1 1.953319 1_655
O13 O15 2.620866 1_655
O13 O9 2.758947 1_655
O13 O9 2.823204 1_555
O14 Ta3 1.902622 1_555
O14 Ta0 2.037345 1_555
O15 Ta2 1.902622 1_555
O15 Ta1 2.037345 1_555
