# generated using pymatgen
data_Lu4Ge8Rh
_symmetry_space_group_name_H-M   'P 1'
_cell_length_a   3.96816700
_cell_length_b   4.08307700
_cell_length_c   16.02800900
_cell_angle_alpha   90.00000000
_cell_angle_beta   90.00000000
_cell_angle_gamma   90.00000000
_symmetry_Int_Tables_number   1
_chemical_formula_structural   Lu4Ge8Rh
_chemical_formula_sum   'Lu4 Ge8 Rh1'
_cell_volume   259.69111366
_cell_formula_units_Z   1
loop_
 _symmetry_equiv_pos_site_id
 _symmetry_equiv_pos_as_xyz
  1  'x, y, z'
loop_
 _atom_site_type_symbol
 _atom_site_label
 _atom_site_symmetry_multiplicity
 _atom_site_fract_x
 _atom_site_fract_y
 _atom_site_fract_z
 _atom_site_occupancy
  Lu  Lu0  1  0.25000000  0.00000000  0.09693100  1
  Lu  Lu1  1  0.25000000  0.50000000  0.61004700  1
  Lu  Lu2  1  0.75000000  0.50000000  0.39941700  1
  Lu  Lu3  1  0.75000000  0.00000000  0.89485200  1
  Ge  Ge0  1  0.25000000  0.00000000  0.46761800  1
  Ge  Ge1  1  0.25000000  0.50000000  0.94024200  1
  Ge  Ge2  1  0.75000000  0.50000000  0.04785000  1
  Ge  Ge3  1  0.75000000  0.00000000  0.57097700  1
  Ge  Ge4  1  0.25000000  0.50000000  0.22887500  1
  Ge  Ge5  1  0.25000000  0.00000000  0.75031900  1
  Ge  Ge6  1  0.75000000  0.00000000  0.22724200  1
  Ge  Ge7  1  0.75000000  0.50000000  0.75513900  1
  Rh  Rh0  1  0.25000000  0.00000000  0.31749200  1
loop_
_geom_bond_atom_site_label_1
_geom_bond_atom_site_label_2
_geom_bond_distance
_geom_bond_site_symmetry_2
Lu2 Rh0 3.135073 1_555
Lu2 Rh0 3.135073 1_565
Lu2 Rh0 3.135073 1_665
Lu2 Rh0 3.135073 1_655
Ge0 Rh0 2.406221 1_555
Ge0 Ge3 2.584771 1_455
Ge0 Ge3 2.584771 1_555
Ge0 Lu2 3.049490 1_455
Ge0 Lu2 3.049490 1_545
Ge0 Lu2 3.049490 1_555
Ge0 Lu2 3.049490 1_445
Ge0 Lu1 3.062564 1_555
Ge0 Lu1 3.062564 1_545
Ge1 Ge2 2.628939 1_556
Ge1 Ge2 2.628939 1_456
Ge1 Lu3 2.938323 1_555
Ge1 Lu3 2.938323 1_455
Ge1 Lu3 2.938323 1_565
Ge1 Lu3 2.938323 1_465
Ge1 Lu0 3.236522 1_556
Ge1 Lu0 3.236522 1_566
Ge1 Ge7 3.569129 1_555
Ge1 Ge7 3.569129 1_455
Ge2 Lu0 2.953526 1_555
Ge2 Lu0 2.953526 1_655
Ge2 Lu0 2.953526 1_565
Ge2 Lu0 2.953526 1_665
Ge2 Lu3 3.190835 1_554
Ge2 Lu3 3.190835 1_564
Ge3 Lu1 2.914895 1_655
Ge3 Lu1 2.914895 1_545
Ge3 Lu1 2.914895 1_645
Ge3 Lu1 2.914895 1_555
Ge3 Lu2 3.424776 1_545
Ge3 Lu2 3.424776 1_555
Ge3 Ge5 3.492751 1_555
Ge3 Ge5 3.492751 1_655
Ge4 Rh0 2.487023 1_565
Ge4 Rh0 2.487023 1_555
Ge4 Ge6 2.846955 1_465
Ge4 Ge6 2.846955 1_455
Ge4 Ge6 2.846955 1_565
Ge4 Ge6 2.846955 1_555
Ge4 Lu0 2.939431 1_555
Ge4 Lu0 2.939431 1_565
Ge4 Lu2 3.377622 1_555
Ge4 Lu2 3.377622 1_455
Ge5 Ge7 2.847883 1_455
Ge5 Ge7 2.847883 1_555
Ge5 Ge7 2.847883 1_445
Ge5 Ge7 2.847883 1_545
Ge5 Lu1 3.036881 1_545
Ge5 Lu1 3.036881 1_555
Ge5 Lu3 3.050100 1_455
Ge5 Lu3 3.050100 1_555
Ge6 Rh0 2.455408 1_555
Ge6 Rh0 2.455408 1_655
Ge6 Lu0 2.880789 1_555
Ge6 Lu0 2.880789 1_655
Ge6 Lu2 3.432695 1_555
Ge6 Lu2 3.432695 1_545
Ge7 Lu3 3.030254 1_565
Ge7 Lu3 3.030254 1_555
Ge7 Lu1 3.056911 1_655
Ge7 Lu1 3.056911 1_555
