# generated using pymatgen
data_Li9Co7O16
_symmetry_space_group_name_H-M   'P 1'
_cell_length_a   6.39939921
_cell_length_b   6.39939921
_cell_length_c   15.45848693
_cell_angle_alpha   89.77258989
_cell_angle_beta   89.77258989
_cell_angle_gamma   27.27942433
_symmetry_Int_Tables_number   1
_chemical_formula_structural   Li9Co7O16
_chemical_formula_sum   'Li9 Co7 O16'
_cell_volume   290.14857498
_cell_formula_units_Z   1
loop_
 _symmetry_equiv_pos_site_id
 _symmetry_equiv_pos_as_xyz
  1  'x, y, z'
loop_
 _atom_site_type_symbol
 _atom_site_label
 _atom_site_symmetry_multiplicity
 _atom_site_fract_x
 _atom_site_fract_y
 _atom_site_fract_z
 _atom_site_occupancy
  Li  Li0  1  0.81320200  0.81320200  0.94036200  1
  Li  Li1  1  0.18679800  0.18679800  0.05963800  1
  Li  Li2  1  0.55817300  0.55817300  0.18739100  1
  Li  Li3  1  0.44182700  0.44182700  0.81260900  1
  Li  Li4  1  0.06085900  0.06085900  0.68729500  1
  Li  Li5  1  0.68712000  0.68712000  0.56281100  1
  Li  Li6  1  0.93914100  0.93914100  0.31270500  1
  Li  Li7  1  0.31288000  0.31288000  0.43718900  1
  Li  Li8  1  0.50000000  0.50000000  0.00000000  1
  Co  Co0  1  0.12193900  0.12193900  0.88157600  1
  Co  Co1  1  0.87806100  0.87806100  0.11842400  1
  Co  Co2  1  0.25292700  0.25292700  0.24851800  1
  Co  Co3  1  0.62681900  0.62681900  0.37453800  1
  Co  Co4  1  0.00000000  0.00000000  0.50000000  1
  Co  Co5  1  0.37318100  0.37318100  0.62546200  1
  Co  Co6  1  0.74707300  0.74707300  0.75148200  1
  O  O0  1  0.65365100  0.65365100  0.96125600  1
  O  O1  1  0.01547600  0.01547600  0.09849800  1
  O  O2  1  0.39867500  0.39867500  0.21613100  1
  O  O3  1  0.26842200  0.26842200  0.84326700  1
  O  O4  1  0.89652700  0.89652700  0.71764700  1
  O  O5  1  0.52252500  0.52252500  0.59142000  1
  O  O6  1  0.77552700  0.77552700  0.34077300  1
  O  O7  1  0.14938500  0.14938500  0.46588800  1
  O  O8  1  0.98452400  0.98452400  0.90150200  1
  O  O9  1  0.34634900  0.34634900  0.03874400  1
  O  O10  1  0.73157800  0.73157800  0.15673300  1
  O  O11  1  0.60132500  0.60132500  0.78386900  1
  O  O12  1  0.22447300  0.22447300  0.65922700  1
  O  O13  1  0.85061500  0.85061500  0.53411200  1
  O  O14  1  0.10347300  0.10347300  0.28235300  1
  O  O15  1  0.47747500  0.47747500  0.40858000  1
loop_
_geom_bond_atom_site_label_1
_geom_bond_atom_site_label_2
_geom_bond_distance
_geom_bond_site_symmetry_2
Li0 O0 2.009281 1_555
Li0 O9 2.182970 1_566
Li0 O9 2.182970 1_656
Li0 O3 2.201633 1_655
Li0 O3 2.201633 1_565
Li0 O8 2.211569 1_555
Li1 O9 2.009281 1_555
Li1 O0 2.182970 1_454
Li1 O0 2.182970 1_544
Li1 O10 2.201633 1_545
Li1 O10 2.201633 1_455
Li1 O1 2.211569 1_555
Li2 O2 2.031179 1_555
Li2 O1 2.110354 1_565
Li2 O1 2.110354 1_655
Li2 O14 2.180932 1_655
Li2 O14 2.180932 1_565
Li2 O10 2.206349 1_555
Li3 O11 2.031179 1_555
Li3 O8 2.110354 1_545
Li3 O8 2.110354 1_455
Li3 O4 2.180932 1_545
Li3 O4 2.180932 1_455
Li3 O3 2.206349 1_555
Li4 O12 2.079013 1_555
Li4 O4 2.095229 1_445
Li4 O5 2.169560 1_545
Li4 O5 2.169560 1_455
Li4 O11 2.183001 1_455
Li4 O11 2.183001 1_545
Li5 O13 2.079585 1_555
Li5 O5 2.092665 1_555
Li5 O12 2.172613 1_565
Li5 O12 2.172613 1_655
Li5 O7 2.179036 1_565
Li5 O7 2.179036 1_655
Li6 O6 2.079013 1_555
Li6 O14 2.095229 1_665
Li6 O15 2.169560 1_565
Li6 O15 2.169560 1_655
Li6 O2 2.183001 1_655
Li6 O2 2.183001 1_565
Li7 O7 2.079585 1_555
Li7 O15 2.092665 1_555
Li7 O6 2.172613 1_545
Li7 O6 2.172613 1_455
Li7 O13 2.179036 1_455
Li7 O13 2.179036 1_545
Li8 O0 2.000403 1_554
Li8 O9 2.000403 1_555
Li8 O1 2.152944 1_565
Li8 O1 2.152944 1_655
Li8 O8 2.152944 1_454
Li8 O8 2.152944 1_544
Co0 O8 1.735443 1_445
Co0 O3 1.913459 1_555
Co0 O0 1.988473 1_545
Co0 O0 1.988473 1_455
Co0 O11 2.151171 1_545
Co0 O11 2.151171 1_455
Co1 O1 1.735443 1_665
Co1 O10 1.913459 1_555
Co1 O9 1.988473 1_655
Co1 O9 1.988473 1_565
Co1 O2 2.151171 1_565
Co1 O2 2.151171 1_655
Co2 O2 1.878684 1_555
Co2 O14 1.929011 1_555
Co2 O10 2.089034 1_545
Co2 O10 2.089034 1_455
Co2 O6 2.096052 1_545
Co2 O6 2.096052 1_455
Co3 O6 1.919791 1_555
Co3 O15 1.928552 1_555
Co3 O7 2.086493 1_655
Co3 O7 2.086493 1_565
Co3 O14 2.096606 1_565
Co3 O14 2.096606 1_655
Co4 O13 1.929334 1_445
Co4 O7 1.929334 1_555
Co4 O15 2.087156 1_545
Co4 O15 2.087156 1_455
Co4 O5 2.087156 1_455
Co4 O5 2.087156 1_545
Co5 O12 1.919791 1_555
Co5 O5 1.928552 1_555
Co5 O13 2.086493 1_455
Co5 O13 2.086493 1_545
Co5 O4 2.096606 1_455
Co5 O4 2.096606 1_545
Co6 O11 1.878684 1_555
Co6 O4 1.929011 1_555
Co6 O3 2.089034 1_565
Co6 O3 2.089034 1_655
Co6 O12 2.096052 1_655
Co6 O12 2.096052 1_565
