# generated using pymatgen
data_GdErAl6
_symmetry_space_group_name_H-M   'P 1'
_cell_length_a   6.08910870
_cell_length_b   6.08910681
_cell_length_c   9.48202446
_cell_angle_alpha   90.00001484
_cell_angle_beta   89.99998516
_cell_angle_gamma   119.99999387
_symmetry_Int_Tables_number   1
_chemical_formula_structural   GdErAl6
_chemical_formula_sum   'Gd2 Er2 Al12'
_cell_volume   304.46617346
_cell_formula_units_Z   2
loop_
 _symmetry_equiv_pos_site_id
 _symmetry_equiv_pos_as_xyz
  1  'x, y, z'
loop_
 _atom_site_type_symbol
 _atom_site_label
 _atom_site_symmetry_multiplicity
 _atom_site_fract_x
 _atom_site_fract_y
 _atom_site_fract_z
 _atom_site_occupancy
  Gd  Gd0  1  0.00000000  0.00000000  -0.00000000  1
  Gd  Gd1  1  0.00000000  0.00000000  0.50000000  1
  Er  Er0  1  0.33333400  0.66666600  0.74998464  1
  Er  Er1  1  0.66666600  0.33333400  0.25001536  1
  Al  Al0  1  0.81647915  0.63295731  0.75036575  1
  Al  Al1  1  0.36704169  0.18352085  0.75036575  1
  Al  Al2  1  0.81647915  0.18352085  0.75036575  1
  Al  Al3  1  0.18352085  0.36704269  0.24963425  1
  Al  Al4  1  0.63295831  0.81647915  0.24963425  1
  Al  Al5  1  0.18352085  0.81647915  0.24963425  1
  Al  Al6  1  0.50000000  0.50000000  -0.00000000  1
  Al  Al7  1  0.50000000  0.00000000  -0.00000000  1
  Al  Al8  1  0.00000000  0.50000000  -0.00000000  1
  Al  Al9  1  0.50000000  0.50000000  0.50000000  1
  Al  Al10  1  0.50000000  0.00000000  0.50000000  1
  Al  Al11  1  0.00000000  0.50000000  0.50000000  1
loop_
_geom_bond_atom_site_label_1
_geom_bond_atom_site_label_2
_geom_bond_distance
_geom_bond_site_symmetry_2
Al0 Al2 2.736667 1_555
Al0 Al1 2.736670 1_555
Al0 Al8 2.900305 1_656
Al0 Al6 2.900308 1_556
Al0 Al11 2.905968 1_655
Al0 Al9 2.905972 1_555
Al0 Er0 3.049738 1_555
Al0 Er0 3.049744 1_655
Al0 Gd0 3.057640 1_666
Al0 Gd1 3.063013 1_665
Al0 Al1 3.352438 1_665
Al0 Al2 3.352440 1_565
Al1 Al2 2.736674 1_555
Al1 Al6 2.900307 1_556
Al1 Al7 2.900308 1_556
Al1 Al10 2.905970 1_555
Al1 Al9 2.905971 1_555
Al1 Er0 3.049734 1_555
Al1 Er0 3.049746 1_545
Al1 Gd0 3.057637 1_556
Al1 Gd1 3.063010 1_555
Al1 Al2 3.352435 1_455
Al2 Al8 2.900307 1_656
Al2 Al7 2.900307 1_556
Al2 Er0 3.049741 1_545
Al2 Er0 3.049741 1_655
Al2 Gd0 3.057637 1_656
Al2 Gd1 3.063009 1_655
Al3 Al5 2.736667 1_555
Al3 Al4 2.736670 1_555
Al3 Al8 2.900305 1_555
Al3 Al6 2.900308 1_555
Al3 Al9 2.905972 1_555
Al3 Er1 3.049738 1_555
Al3 Er1 3.049744 1_455
Al3 Gd0 3.057640 1_555
Al3 Gd1 3.063013 1_555
Al3 Al4 3.352438 1_445
Al3 Al5 3.352440 1_545
Al4 Al5 2.736674 1_555
Al4 Al6 2.900307 1_555
Al4 Al7 2.900308 1_565
Al4 Al9 2.905971 1_555
Al4 Er1 3.049734 1_555
Al4 Er1 3.049746 1_565
Al4 Gd0 3.057637 1_665
Al4 Gd1 3.063010 1_665
Al4 Al5 3.352435 1_655
Al5 Al8 2.900307 1_555
Al5 Al7 2.900307 1_565
Al5 Er1 3.049741 1_565
Al5 Er1 3.049741 1_455
Al5 Gd0 3.057637 1_565
Al5 Gd1 3.063009 1_565
Al6 Er0 2.951226 1_554
Al6 Er1 2.951226 1_555
Al6 Al7 3.044553 1_565
Al6 Al7 3.044553 1_555
Al6 Gd0 3.044554 1_555
Al6 Gd0 3.044554 1_665
Al6 Al8 3.044554 1_655
Al6 Al8 3.044554 1_555
Al7 Er1 2.951232 1_555
Al7 Er0 2.951232 1_544
Al7 Al8 3.044554 1_655
Al7 Al8 3.044554 1_545
Al7 Gd0 3.044554 1_655
Al7 Gd0 3.044554 1_555
Al8 Er0 2.951232 1_554
Al8 Er1 2.951232 1_455
Al8 Gd0 3.044553 1_555
Al8 Gd0 3.044553 1_565
Al9 Er1 2.950991 1_555
Al9 Er0 2.950991 1_555
Al9 Gd1 3.044554 1_665
Al9 Gd1 3.044554 1_555
Al10 Al4 2.905970 1_545
Al10 Al5 2.905971 1_545
Al10 Al2 2.905971 1_555
Al10 Er1 2.950998 1_555
Al10 Er0 2.950998 1_545
Al10 Al9 3.044553 1_545
Al10 Al9 3.044553 1_555
Al10 Al11 3.044554 1_545
Al10 Al11 3.044554 1_655
Al10 Gd1 3.044554 1_655
Al10 Gd1 3.044554 1_555
Al11 Al3 2.905968 1_555
Al11 Al5 2.905971 1_555
Al11 Al2 2.905971 1_455
Al11 Er0 2.950999 1_555
Al11 Er1 2.950999 1_455
Al11 Gd1 3.044553 1_565
Al11 Gd1 3.044553 1_555
Al11 Al9 3.044554 1_555
Al11 Al9 3.044554 1_455
