# generated using pymatgen
data_Pb2Br2F
_symmetry_space_group_name_H-M   'P 1'
_cell_length_a   3.93427500
_cell_length_b   3.93427500
_cell_length_c   14.32557500
_cell_angle_alpha   90.00000000
_cell_angle_beta   90.00000000
_cell_angle_gamma   90.00000000
_symmetry_Int_Tables_number   1
_chemical_formula_structural   Pb2Br2F
_chemical_formula_sum   'Pb2 Br2 F1'
_cell_volume   221.73869593
_cell_formula_units_Z   1
loop_
 _symmetry_equiv_pos_site_id
 _symmetry_equiv_pos_as_xyz
  1  'x, y, z'
loop_
 _atom_site_type_symbol
 _atom_site_label
 _atom_site_symmetry_multiplicity
 _atom_site_fract_x
 _atom_site_fract_y
 _atom_site_fract_z
 _atom_site_occupancy
  Pb  Pb0  1  0.50000000  0.50000000  0.16928800  1
  Pb  Pb1  1  0.50000000  0.50000000  0.83071200  1
  Br  Br0  1  0.50000000  0.50000000  0.64577200  1
  Br  Br1  1  0.50000000  0.50000000  0.35422800  1
  F  F0  1  0.50000000  0.50000000  0.00000000  1
loop_
_geom_bond_atom_site_label_1
_geom_bond_atom_site_label_2
_geom_bond_distance
_geom_bond_site_symmetry_2
Br0 Pb1 2.649372 1_555
Br1 Pb0 2.649372 1_555
F0 Pb0 2.425148 1_555
F0 Pb1 2.425148 1_554
