# generated using pymatgen
data_Ba3TaAs3O
_symmetry_space_group_name_H-M   'P 1'
_cell_length_a   6.80762685
_cell_length_b   11.19987392
_cell_length_c   13.62373031
_cell_angle_alpha   90.00000000
_cell_angle_beta   90.00000000
_cell_angle_gamma   90.00000000
_symmetry_Int_Tables_number   1
_chemical_formula_structural   Ba3TaAs3O
_chemical_formula_sum   'Ba12 Ta4 As12 O4'
_cell_volume   1038.73535594
_cell_formula_units_Z   4
loop_
 _symmetry_equiv_pos_site_id
 _symmetry_equiv_pos_as_xyz
  1  'x, y, z'
loop_
 _atom_site_type_symbol
 _atom_site_label
 _atom_site_symmetry_multiplicity
 _atom_site_fract_x
 _atom_site_fract_y
 _atom_site_fract_z
 _atom_site_occupancy
  Ba  Ba0  1  0.24357610  0.04523499  0.13114778  1
  Ba  Ba1  1  0.72659850  0.75000000  0.12831590  1
  Ba  Ba2  1  0.77340150  0.25000000  0.62831590  1
  Ba  Ba3  1  0.27340150  0.25000000  0.87168410  1
  Ba  Ba4  1  0.75642390  0.95476501  0.86885222  1
  Ba  Ba5  1  0.25642390  0.54523499  0.63114778  1
  Ba  Ba6  1  0.24357610  0.45476501  0.13114778  1
  Ba  Ba7  1  0.74357610  0.04523499  0.36885222  1
  Ba  Ba8  1  0.25642390  0.95476501  0.63114778  1
  Ba  Ba9  1  0.74357610  0.45476501  0.36885222  1
  Ba  Ba10  1  0.75642390  0.54523499  0.86885222  1
  Ba  Ba11  1  0.22659850  0.75000000  0.37168410  1
  Ta  Ta0  1  0.66206409  0.75000000  0.54541282  1
  Ta  Ta1  1  0.16206409  0.75000000  0.95458718  1
  Ta  Ta2  1  0.33793591  0.25000000  0.45458718  1
  Ta  Ta3  1  0.83793591  0.25000000  0.04541282  1
  As  As0  1  0.27224997  0.25000000  0.63262766  1
  As  As1  1  0.77224997  0.25000000  0.86737234  1
  As  As2  1  0.72775003  0.75000000  0.36737234  1
  As  As3  1  0.22775003  0.75000000  0.13262766  1
  As  As4  1  0.73667622  0.44324963  0.11725364  1
  As  As5  1  0.23667622  0.05675037  0.38274636  1
  As  As6  1  0.26332378  0.94324963  0.88274636  1
  As  As7  1  0.76332378  0.55675037  0.61725364  1
  As  As8  1  0.26332378  0.55675037  0.88274636  1
  As  As9  1  0.23667622  0.44324963  0.38274636  1
  As  As10  1  0.73667622  0.05675037  0.11725364  1
  As  As11  1  0.76332378  0.94324963  0.61725364  1
  O  O0  1  0.11187236  0.25000000  0.05295650  1
  O  O1  1  0.61187236  0.25000000  0.44704350  1
  O  O2  1  0.88812764  0.75000000  0.94704350  1
  O  O3  1  0.38812764  0.75000000  0.55295650  1
loop_
_geom_bond_atom_site_label_1
_geom_bond_atom_site_label_2
_geom_bond_distance
_geom_bond_site_symmetry_2
Ba0 O0 2.682921 1_555
Ba1 O2 2.703357 1_554
Ba2 O1 2.703357 1_555
Ba3 O0 2.703357 1_556
Ba4 O2 2.682921 1_555
Ba5 O3 2.682921 1_555
Ba6 O0 2.682921 1_555
Ba7 O1 2.682921 1_555
Ba8 O3 2.682921 1_555
Ba9 O1 2.682921 1_555
Ba10 O2 2.682921 1_555
Ba11 O3 2.703357 1_555
As0 Ta2 2.466450 1_555
As0 Ba3 3.256850 1_555
As0 Ba8 3.308411 1_545
As0 Ba5 3.308411 1_555
As0 Ba2 3.396482 1_455
As0 Ba2 3.412158 1_555
As1 Ta3 2.466450 1_556
As1 Ba2 3.256850 1_555
As1 Ba10 3.308411 1_555
As1 Ba4 3.308411 1_545
As1 Ba3 3.396482 1_555
As1 Ba3 3.412158 1_655
As2 Ta0 2.466450 1_555
As2 Ba1 3.256850 1_555
As2 Ba7 3.308411 1_565
As2 Ba9 3.308411 1_555
As2 Ba11 3.396482 1_655
As2 Ba11 3.412158 1_555
As3 Ta1 2.466450 1_554
As3 Ba11 3.256850 1_555
As3 Ba0 3.308411 1_565
As3 Ba6 3.308411 1_555
As3 Ba1 3.396482 1_555
As3 Ba1 3.412158 1_455
As4 Ta3 2.473383 1_555
As4 Ba6 3.364647 1_555
As4 Ba9 3.430458 1_555
As4 Ba1 3.439554 1_555
As4 Ba6 3.458379 1_655
As4 Ba10 3.574247 1_554
As5 Ta2 2.473383 1_555
As5 Ba7 3.364647 1_455
As5 Ba0 3.430458 1_555
As5 Ba11 3.439554 1_545
As5 Ba7 3.458379 1_555
As5 Ba8 3.574247 1_545
As6 Ta1 2.473383 1_555
As6 Ba4 3.364647 1_555
As6 Ba8 3.430458 1_555
As6 Ba3 3.439554 1_565
As6 Ba4 3.458379 1_455
As6 Ba0 3.574247 1_566
As7 Ta0 2.473383 1_555
As7 Ba5 3.364647 1_655
As7 Ba10 3.430458 1_555
As7 Ba2 3.439554 1_555
As7 Ba5 3.458379 1_555
As7 Ba9 3.574247 1_555
As8 Ta1 2.473383 1_555
As8 Ba10 3.364647 1_555
As8 Ba5 3.430458 1_555
As8 Ba3 3.439554 1_555
As8 Ba10 3.458379 1_455
As8 Ba6 3.574247 1_556
As9 Ta2 2.473383 1_555
As9 Ba9 3.364647 1_455
As9 Ba6 3.430458 1_555
As9 Ba11 3.439554 1_555
As9 Ba9 3.458379 1_555
As9 Ba5 3.574247 1_555
As10 Ta3 2.473383 1_555
As10 Ba0 3.364647 1_555
As10 Ba7 3.430458 1_555
As10 Ba1 3.439554 1_545
As10 Ba0 3.458379 1_655
As10 Ba4 3.574247 1_544
As11 Ta0 2.473383 1_555
As11 Ba8 3.364647 1_655
As11 Ba4 3.430458 1_555
As11 Ba2 3.439554 1_565
As11 Ba8 3.458379 1_555
As11 Ba7 3.574247 1_565
O0 Ta3 1.867687 1_455
O1 Ta2 1.867687 1_555
O2 Ta1 1.867687 1_655
O3 Ta0 1.867687 1_555
