# generated using pymatgen
data_SrMg6TiO8
_symmetry_space_group_name_H-M   'P 1'
_cell_length_a   8.82758735
_cell_length_b   4.51415794
_cell_length_c   4.51415794
_cell_angle_alpha   90.00000000
_cell_angle_beta   90.00000000
_cell_angle_gamma   90.00000000
_symmetry_Int_Tables_number   1
_chemical_formula_structural   SrMg6TiO8
_chemical_formula_sum   'Sr1 Mg6 Ti1 O8'
_cell_volume   179.88523737
_cell_formula_units_Z   1
loop_
 _symmetry_equiv_pos_site_id
 _symmetry_equiv_pos_as_xyz
  1  'x, y, z'
loop_
 _atom_site_type_symbol
 _atom_site_label
 _atom_site_symmetry_multiplicity
 _atom_site_fract_x
 _atom_site_fract_y
 _atom_site_fract_z
 _atom_site_occupancy
  Sr  Sr0  1  0.50000000  0.00000000  -0.00000000  1
  Mg  Mg0  1  0.00000000  0.50000000  0.50000000  1
  Mg  Mg1  1  0.50000000  0.50000000  0.50000000  1
  Mg  Mg2  1  0.24236207  -0.00000000  0.50000000  1
  Mg  Mg3  1  0.75763793  0.00000000  0.50000000  1
  Mg  Mg4  1  0.24236207  0.50000000  0.00000000  1
  Mg  Mg5  1  0.75763793  0.50000000  -0.00000000  1
  Ti  Ti0  1  0.00000000  0.00000000  -0.00000000  1
  O  O0  1  0.23131467  -0.00000000  0.00000000  1
  O  O1  1  0.76868533  0.00000000  -0.00000000  1
  O  O2  1  0.24875634  0.50000000  0.50000000  1
  O  O3  1  0.75124366  0.50000000  0.50000000  1
  O  O4  1  0.00000000  0.00000000  0.50000000  1
  O  O5  1  0.50000000  0.00000000  0.50000000  1
  O  O6  1  0.00000000  0.50000000  -0.00000000  1
  O  O7  1  0.50000000  0.50000000  -0.00000000  1
loop_
_geom_bond_atom_site_label_1
_geom_bond_atom_site_label_2
_geom_bond_distance
_geom_bond_site_symmetry_2
Mg0 O2 2.195918 1_555
Mg0 O3 2.195918 1_455
Mg0 O6 2.257079 1_556
Mg0 O6 2.257079 1_555
Mg0 O4 2.257079 1_555
Mg0 O4 2.257079 1_565
Mg1 O2 2.217875 1_555
Mg1 O3 2.217875 1_555
Mg1 O5 2.257079 1_565
Mg1 O7 2.257079 1_555
Mg1 O7 2.257079 1_556
Mg1 O5 2.257079 1_555
Mg2 O4 2.139472 1_555
Mg2 O2 2.257785 1_555
Mg2 O2 2.257785 1_545
Mg2 O0 2.259185 1_555
Mg2 O0 2.259185 1_556
Mg2 O5 2.274321 1_555
Mg3 O4 2.139472 1_655
Mg3 O3 2.257785 1_545
Mg3 O3 2.257785 1_555
Mg3 O1 2.259185 1_555
Mg3 O1 2.259185 1_556
Mg3 O5 2.274321 1_555
Mg4 O6 2.139472 1_555
Mg4 O2 2.257785 1_555
Mg4 O2 2.257785 1_554
Mg4 O0 2.259185 1_555
Mg4 O0 2.259185 1_565
Mg4 O7 2.274321 1_555
Mg5 O6 2.139472 1_655
Mg5 O3 2.257785 1_555
Mg5 O3 2.257785 1_554
Mg5 O1 2.259185 1_555
Mg5 O1 2.259185 1_565
Mg5 O7 2.274321 1_555
O0 Ti0 2.041950 1_555
O0 Sr0 2.371843 1_555
O1 Ti0 2.041950 1_655
O1 Sr0 2.371843 1_555
O4 Ti0 2.257079 1_555
O4 Ti0 2.257079 1_556
O5 Sr0 2.257079 1_556
O5 Sr0 2.257079 1_555
O6 Ti0 2.257079 1_555
O6 Ti0 2.257079 1_565
O7 Sr0 2.257079 1_565
O7 Sr0 2.257079 1_555
