# generated using pymatgen
data_CdCo(PO3)4
_symmetry_space_group_name_H-M   'P 1'
_cell_length_a   7.49244695
_cell_length_b   7.49244695
_cell_length_c   10.12263100
_cell_angle_alpha   67.23747921
_cell_angle_beta   67.23747921
_cell_angle_gamma   70.76875407
_symmetry_Int_Tables_number   1
_chemical_formula_structural   CdCo(PO3)4
_chemical_formula_sum   'Cd2 Co2 P8 O24'
_cell_volume   472.27253436
_cell_formula_units_Z   2
loop_
 _symmetry_equiv_pos_site_id
 _symmetry_equiv_pos_as_xyz
  1  'x, y, z'
loop_
 _atom_site_type_symbol
 _atom_site_label
 _atom_site_symmetry_multiplicity
 _atom_site_fract_x
 _atom_site_fract_y
 _atom_site_fract_z
 _atom_site_occupancy
  Cd  Cd0  1  0.45153300  0.54846700  0.25000000  1
  Cd  Cd1  1  0.54846700  0.45153300  0.75000000  1
  Co  Co0  1  0.50000000  0.00000000  0.00000000  1
  Co  Co1  1  0.00000000  0.50000000  0.50000000  1
  P  P0  1  0.81193700  0.80660400  0.19656800  1
  P  P1  1  0.18806300  0.19339600  0.80343200  1
  P  P2  1  0.19339600  0.18806300  0.30343200  1
  P  P3  1  0.80660400  0.81193700  0.69656800  1
  P  P4  1  0.76562400  0.21927000  0.47504100  1
  P  P5  1  0.23437600  0.78073000  0.52495900  1
  P  P6  1  0.78073000  0.23437600  0.02495900  1
  P  P7  1  0.21927000  0.76562400  0.97504100  1
  O  O0  1  0.59087900  0.32008700  0.41961700  1
  O  O1  1  0.40912100  0.67991300  0.58038300  1
  O  O2  1  0.67991300  0.40912100  0.08038300  1
  O  O3  1  0.32008700  0.59087900  0.91961700  1
  O  O4  1  0.30716500  0.14987000  0.15685600  1
  O  O5  1  0.69283500  0.85013000  0.84314400  1
  O  O6  1  0.85013000  0.69283500  0.34314400  1
  O  O7  1  0.14987000  0.30716500  0.65685600  1
  O  O8  1  0.30288900  0.80633500  0.07372100  1
  O  O9  1  0.69711100  0.19366500  0.92627900  1
  O  O10  1  0.19366500  0.69711100  0.42627900  1
  O  O11  1  0.80633500  0.30288900  0.57372100  1
  O  O12  1  0.62702000  0.79668000  0.17276100  1
  O  O13  1  0.37298000  0.20332000  0.82723900  1
  O  O14  1  0.20332000  0.37298000  0.32723900  1
  O  O15  1  0.79668000  0.62702000  0.67276100  1
  O  O16  1  0.74487700  0.99293200  0.56036100  1
  O  O17  1  0.25512300  0.00706800  0.43963900  1
  O  O18  1  0.00706800  0.25512300  0.93963900  1
  O  O19  1  0.99293200  0.74487700  0.06036100  1
  O  O20  1  0.80357400  0.03720200  0.16437700  1
  O  O21  1  0.19642600  0.96279800  0.83562300  1
  O  O22  1  0.96279800  0.19642600  0.33562300  1
  O  O23  1  0.03720200  0.80357400  0.66437700  1
loop_
_geom_bond_atom_site_label_1
_geom_bond_atom_site_label_2
_geom_bond_distance
_geom_bond_site_symmetry_2
Cd0 O0 2.214222 1_555
Cd0 O2 2.214222 1_555
Cd0 O14 2.342815 1_555
Cd0 O12 2.342815 1_555
Cd0 O10 2.368506 1_555
Cd0 O8 2.368506 1_555
Cd1 O3 2.214222 1_555
Cd1 O1 2.214222 1_555
Cd1 O13 2.342815 1_555
Cd1 O15 2.342815 1_555
Cd1 O9 2.368506 1_555
Cd1 O11 2.368506 1_555
Co0 O5 2.098849 1_544
Co0 O4 2.098849 1_555
Co0 O13 2.134470 1_554
Co0 O12 2.134470 1_545
Co0 O9 2.136439 1_554
Co0 O8 2.136439 1_545
Co1 O6 2.098849 1_455
Co1 O7 2.098849 1_555
Co1 O15 2.134470 1_455
Co1 O14 2.134470 1_555
Co1 O10 2.136439 1_555
Co1 O11 2.136439 1_455
O0 P4 1.479356 1_555
O1 P5 1.479356 1_555
O2 P6 1.479356 1_555
O3 P7 1.479356 1_555
O4 P2 1.482946 1_555
O5 P3 1.482946 1_555
O6 P0 1.482946 1_555
O7 P1 1.482946 1_555
O8 P7 1.526206 1_554
O9 P6 1.526206 1_556
O10 P5 1.526206 1_555
O11 P4 1.526206 1_555
O12 P0 1.524225 1_555
O13 P1 1.524225 1_555
O14 P2 1.524225 1_555
O15 P3 1.524225 1_555
O16 P4 1.606956 1_565
O16 P3 1.608517 1_555
O17 P5 1.606956 1_545
O17 P2 1.608517 1_555
O18 P6 1.606956 1_456
O18 P1 1.608517 1_555
O19 P7 1.606956 1_654
O19 P0 1.608517 1_555
O20 P0 1.613700 1_545
O20 P6 1.615691 1_555
O21 P1 1.613700 1_565
O21 P7 1.615691 1_555
O22 P2 1.613700 1_655
O22 P4 1.615691 1_555
O23 P3 1.613700 1_455
O23 P5 1.615691 1_555
