# generated using pymatgen
data_Li3VS3
_symmetry_space_group_name_H-M   'P 1'
_cell_length_a   6.76225636
_cell_length_b   6.76225636
_cell_length_c   6.76225659
_cell_angle_alpha   111.51951592
_cell_angle_beta   111.51951592
_cell_angle_gamma   111.51951977
_symmetry_Int_Tables_number   1
_chemical_formula_structural   Li3VS3
_chemical_formula_sum   'Li6 V2 S6'
_cell_volume   218.13390533
_cell_formula_units_Z   2
loop_
 _symmetry_equiv_pos_site_id
 _symmetry_equiv_pos_as_xyz
  1  'x, y, z'
loop_
 _atom_site_type_symbol
 _atom_site_label
 _atom_site_symmetry_multiplicity
 _atom_site_fract_x
 _atom_site_fract_y
 _atom_site_fract_z
 _atom_site_occupancy
  Li  Li0  1  0.60010500  0.70000900  0.14219700  1
  Li  Li1  1  0.10010500  0.64219700  0.20000900  1
  Li  Li2  1  0.64219700  0.20000900  0.10010500  1
  Li  Li3  1  0.14219700  0.60010500  0.70000900  1
  Li  Li4  1  0.70000900  0.14219700  0.60010500  1
  Li  Li5  1  0.20000900  0.10010500  0.64219700  1
  V  V0  1  0.39789700  0.39789700  0.39789700  1
  V  V1  1  0.89789700  0.89789700  0.89789700  1
  S  S0  1  0.32024600  0.97212100  0.15150100  1
  S  S1  1  0.82024600  0.65150100  0.47212100  1
  S  S2  1  0.47212100  0.82024600  0.65150100  1
  S  S3  1  0.97212100  0.15150100  0.32024600  1
  S  S4  1  0.65150100  0.47212100  0.82024600  1
  S  S5  1  0.15150100  0.32024600  0.97212100  1
loop_
_geom_bond_atom_site_label_1
_geom_bond_atom_site_label_2
_geom_bond_distance
_geom_bond_site_symmetry_2
Li0 S4 2.392092 1_554
Li0 S1 2.399947 1_555
Li0 S3 2.558510 1_565
Li0 S5 2.584280 1_554
Li0 Li3 3.029250 1_554
Li0 Li4 3.029250 1_565
Li0 S0 3.086835 1_555
Li1 S5 2.392092 1_554
Li1 S0 2.399947 1_555
Li1 S2 2.558511 1_555
Li1 S4 2.584280 1_454
Li1 Li2 3.029250 1_455
Li1 Li5 3.029250 1_565
Li1 S1 3.086835 1_455
Li2 S0 2.392092 1_545
Li2 S3 2.399947 1_555
Li2 S1 2.558510 1_555
Li2 S2 2.584280 1_544
Li2 Li5 3.029250 1_554
Li2 S4 3.086835 1_554
Li3 S1 2.392092 1_455
Li3 S2 2.399947 1_555
Li3 S0 2.558511 1_556
Li3 S3 2.584280 1_455
Li3 Li4 3.029250 1_455
Li3 S5 3.086835 1_555
Li4 S2 2.392092 1_545
Li4 S4 2.399947 1_555
Li4 S5 2.558510 1_655
Li4 S0 2.584280 1_545
Li4 S3 3.086835 1_555
Li5 S3 2.392092 1_455
Li5 S5 2.399947 1_555
Li5 S4 2.558510 1_555
Li5 S1 2.584280 1_445
Li5 S2 3.086835 1_545
S0 V0 2.463991 1_565
S0 V1 2.464428 1_454
S1 V1 2.463991 1_555
S1 V0 2.464428 1_555
S2 V1 2.463991 1_555
S2 V0 2.464428 1_555
S3 V0 2.463991 1_655
S3 V1 2.464428 1_544
S4 V1 2.463991 1_555
S4 V0 2.464428 1_555
S5 V0 2.463991 1_556
S5 V1 2.464428 1_445
