# generated using pymatgen
data_Ti3C2
_symmetry_space_group_name_H-M   'P 1'
_cell_length_a   3.06660463
_cell_length_b   3.06660463
_cell_length_c   15.11715007
_cell_angle_alpha   90.00000000
_cell_angle_beta   90.00000000
_cell_angle_gamma   119.99998555
_symmetry_Int_Tables_number   1
_chemical_formula_structural   Ti3C2
_chemical_formula_sum   'Ti6 C4'
_cell_volume   123.11648095
_cell_formula_units_Z   2
loop_
 _symmetry_equiv_pos_site_id
 _symmetry_equiv_pos_as_xyz
  1  'x, y, z'
loop_
 _atom_site_type_symbol
 _atom_site_label
 _atom_site_symmetry_multiplicity
 _atom_site_fract_x
 _atom_site_fract_y
 _atom_site_fract_z
 _atom_site_occupancy
  Ti  Ti0  1  0.66666700  0.33333300  0.34387771  1
  Ti  Ti1  1  0.33333300  0.66666700  0.84388220  1
  Ti  Ti2  1  0.33333300  0.66666700  0.65612229  1
  Ti  Ti3  1  0.66666700  0.33333300  0.15611780  1
  Ti  Ti4  1  0.00000000  -0.00000000  0.50000000  1
  Ti  Ti5  1  0.00000000  -0.00000000  -0.00000000  1
  C  C0  1  0.33333300  0.66666700  0.41410376  1
  C  C1  1  0.66666700  0.33333300  0.91409085  1
  C  C2  1  0.33333300  0.66666700  0.08590915  1
  C  C3  1  0.66666700  0.33333300  0.58589624  1
loop_
_geom_bond_atom_site_label_1
_geom_bond_atom_site_label_2
_geom_bond_distance
_geom_bond_site_symmetry_2
Ti0 Ti3 2.838395 1_555
Ti1 Ti2 2.838395 1_555
C0 Ti0 2.064392 1_455
C0 Ti0 2.064392 1_565
C0 Ti0 2.064396 1_555
C0 Ti4 2.195632 1_565
C0 Ti4 2.195634 1_555
C0 Ti4 2.195634 1_665
C1 Ti1 2.064257 1_545
C1 Ti1 2.064257 1_655
C1 Ti1 2.064261 1_555
C1 Ti5 2.195747 1_656
C1 Ti5 2.195750 1_556
C1 Ti5 2.195750 1_666
C2 Ti3 2.064257 1_455
C2 Ti3 2.064257 1_565
C2 Ti3 2.064261 1_555
C2 Ti5 2.195747 1_565
C2 Ti5 2.195750 1_665
C2 Ti5 2.195750 1_555
C3 Ti2 2.064392 1_545
C3 Ti2 2.064392 1_655
C3 Ti2 2.064396 1_555
C3 Ti4 2.195632 1_655
C3 Ti4 2.195634 1_665
C3 Ti4 2.195634 1_555
