# generated using pymatgen
data_Dy3Ga15Ru4
_symmetry_space_group_name_H-M   'P 1'
_cell_length_a   8.81182200
_cell_length_b   9.66806900
_cell_length_c   17.83601000
_cell_angle_alpha   90.00000000
_cell_angle_beta   90.00000000
_cell_angle_gamma   90.00000000
_symmetry_Int_Tables_number   1
_chemical_formula_structural   Dy3Ga15Ru4
_chemical_formula_sum   'Dy12 Ga60 Ru16'
_cell_volume   1519.50860623
_cell_formula_units_Z   4
loop_
 _symmetry_equiv_pos_site_id
 _symmetry_equiv_pos_as_xyz
  1  'x, y, z'
loop_
 _atom_site_type_symbol
 _atom_site_label
 _atom_site_symmetry_multiplicity
 _atom_site_fract_x
 _atom_site_fract_y
 _atom_site_fract_z
 _atom_site_occupancy
  Dy  Dy0  1  0.37567600  0.25000000  0.16802900  1
  Dy  Dy1  1  0.62432400  0.75000000  0.83197100  1
  Dy  Dy2  1  0.12432400  0.75000000  0.66802900  1
  Dy  Dy3  1  0.87567600  0.25000000  0.33197100  1
  Dy  Dy4  1  0.37531400  0.25000000  0.74827900  1
  Dy  Dy5  1  0.62468600  0.75000000  0.25172100  1
  Dy  Dy6  1  0.12468600  0.75000000  0.24827900  1
  Dy  Dy7  1  0.87531400  0.25000000  0.75172100  1
  Dy  Dy8  1  0.12590600  0.25000000  0.52445100  1
  Dy  Dy9  1  0.87409400  0.75000000  0.47554900  1
  Dy  Dy10  1  0.37409400  0.75000000  0.02445100  1
  Dy  Dy11  1  0.62590600  0.25000000  0.97554900  1
  Ga  Ga0  1  0.12672800  0.06061800  0.25280800  1
  Ga  Ga1  1  0.87327200  0.93938200  0.74719200  1
  Ga  Ga2  1  0.37327200  0.93938200  0.75280800  1
  Ga  Ga3  1  0.87327200  0.56061800  0.74719200  1
  Ga  Ga4  1  0.62672800  0.06061800  0.24719200  1
  Ga  Ga5  1  0.12672800  0.43938200  0.25280800  1
  Ga  Ga6  1  0.62672800  0.43938200  0.24719200  1
  Ga  Ga7  1  0.37327200  0.56061800  0.75280800  1
  Ga  Ga8  1  0.00728500  0.25000000  0.16849700  1
  Ga  Ga9  1  0.99271500  0.75000000  0.83150300  1
  Ga  Ga10  1  0.49271500  0.75000000  0.66849700  1
  Ga  Ga11  1  0.50728500  0.25000000  0.33150300  1
  Ga  Ga12  1  0.13333700  0.25000000  0.04177400  1
  Ga  Ga13  1  0.86666300  0.75000000  0.95822600  1
  Ga  Ga14  1  0.36666300  0.75000000  0.54177400  1
  Ga  Ga15  1  0.63333700  0.25000000  0.45822600  1
  Ga  Ga16  1  0.37446800  0.57747400  0.33163700  1
  Ga  Ga17  1  0.62553200  0.42252600  0.66836300  1
  Ga  Ga18  1  0.12553200  0.42252600  0.83163700  1
  Ga  Ga19  1  0.62553200  0.07747400  0.66836300  1
  Ga  Ga20  1  0.87446800  0.57747400  0.16836300  1
  Ga  Ga21  1  0.37446800  0.92252600  0.33163700  1
  Ga  Ga22  1  0.87446800  0.92252600  0.16836300  1
  Ga  Ga23  1  0.12553200  0.07747400  0.83163700  1
  Ga  Ga24  1  0.22081400  0.25000000  0.35940100  1
  Ga  Ga25  1  0.77918600  0.75000000  0.64059900  1
  Ga  Ga26  1  0.27918600  0.75000000  0.85940100  1
  Ga  Ga27  1  0.72081400  0.25000000  0.14059900  1
  Ga  Ga28  1  0.12404900  0.08715000  0.67184900  1
  Ga  Ga29  1  0.87595100  0.91285000  0.32815100  1
  Ga  Ga30  1  0.37595100  0.91285000  0.17184900  1
  Ga  Ga31  1  0.87595100  0.58715000  0.32815100  1
  Ga  Ga32  1  0.62404900  0.08715000  0.82815100  1
  Ga  Ga33  1  0.12404900  0.41285000  0.67184900  1
  Ga  Ga34  1  0.62404900  0.41285000  0.82815100  1
  Ga  Ga35  1  0.37595100  0.58715000  0.17184900  1
  Ga  Ga36  1  0.37763500  0.06112800  0.46533700  1
  Ga  Ga37  1  0.62236500  0.93887200  0.53466300  1
  Ga  Ga38  1  0.12236500  0.93887200  0.96533700  1
  Ga  Ga39  1  0.62236500  0.56112800  0.53466300  1
  Ga  Ga40  1  0.87763500  0.06112800  0.03466300  1
  Ga  Ga41  1  0.37763500  0.43887200  0.46533700  1
  Ga  Ga42  1  0.87763500  0.43887200  0.03466300  1
  Ga  Ga43  1  0.12236500  0.56112800  0.96533700  1
  Ga  Ga44  1  0.45088500  0.25000000  0.57769800  1
  Ga  Ga45  1  0.54911500  0.75000000  0.42230200  1
  Ga  Ga46  1  0.04911500  0.75000000  0.07769800  1
  Ga  Ga47  1  0.95088500  0.25000000  0.92230200  1
  Ga  Ga48  1  0.30457000  0.25000000  0.91795500  1
  Ga  Ga49  1  0.69543000  0.75000000  0.08204500  1
  Ga  Ga50  1  0.19543000  0.75000000  0.41795500  1
  Ga  Ga51  1  0.80457000  0.25000000  0.58204500  1
  Ga  Ga52  1  0.37365500  0.06903100  0.03278700  1
  Ga  Ga53  1  0.62634500  0.93096900  0.96721300  1
  Ga  Ga54  1  0.12634500  0.93096900  0.53278700  1
  Ga  Ga55  1  0.62634500  0.56903100  0.96721300  1
  Ga  Ga56  1  0.87365500  0.06903100  0.46721300  1
  Ga  Ga57  1  0.37365500  0.43096900  0.03278700  1
  Ga  Ga58  1  0.87365500  0.43096900  0.46721300  1
  Ga  Ga59  1  0.12634500  0.56903100  0.53278700  1
  Ru  Ru0  1  0.11732600  0.00366100  0.39027800  1
  Ru  Ru1  1  0.88267400  0.99633900  0.60972200  1
  Ru  Ru2  1  0.38267400  0.99633900  0.89027800  1
  Ru  Ru3  1  0.88267400  0.50366100  0.60972200  1
  Ru  Ru4  1  0.61732600  0.00366100  0.10972200  1
  Ru  Ru5  1  0.11732600  0.49633900  0.39027800  1
  Ru  Ru6  1  0.61732600  0.49633900  0.10972200  1
  Ru  Ru7  1  0.38267400  0.50366100  0.89027800  1
  Ru  Ru8  1  0.13041700  0.00461500  0.11345600  1
  Ru  Ru9  1  0.86958300  0.99538500  0.88654400  1
  Ru  Ru10  1  0.36958300  0.99538500  0.61345600  1
  Ru  Ru11  1  0.86958300  0.50461500  0.88654400  1
  Ru  Ru12  1  0.63041700  0.00461500  0.38654400  1
  Ru  Ru13  1  0.13041700  0.49538500  0.11345600  1
  Ru  Ru14  1  0.63041700  0.49538500  0.38654400  1
  Ru  Ru15  1  0.36958300  0.50461500  0.61345600  1
loop_
_geom_bond_atom_site_label_1
_geom_bond_atom_site_label_2
_geom_bond_distance
_geom_bond_site_symmetry_2
Dy0 Ga52 2.979948 1_555
Dy0 Ga57 2.979948 1_555
Dy0 Ga27 3.080395 1_555
Dy0 Ga12 3.103406 1_555
Dy0 Ga11 3.137895 1_555
Dy0 Ga4 3.199994 1_555
Dy0 Ga6 3.199994 1_555
Dy0 Ga5 3.232827 1_555
Dy0 Ga0 3.232827 1_555
Dy0 Ga8 3.246207 1_555
Dy0 Ga30 3.260302 1_545
Dy0 Ga35 3.260302 1_555
Dy0 Ru13 3.353567 1_555
Dy0 Ru8 3.353567 1_555
Dy0 Ru6 3.359747 1_555
Dy0 Ru4 3.359747 1_555
Dy1 Ga53 2.979948 1_555
Dy1 Ga55 2.979948 1_555
Dy1 Ga26 3.080395 1_555
Dy1 Ga13 3.103406 1_555
Dy1 Ga10 3.137895 1_555
Dy1 Ga2 3.199994 1_555
Dy1 Ga7 3.199994 1_555
Dy1 Ga1 3.232827 1_555
Dy1 Ga3 3.232827 1_555
Dy1 Ga9 3.246207 1_555
Dy1 Ga34 3.260302 1_555
Dy1 Ga32 3.260302 1_565
Dy1 Ru9 3.353567 1_555
Dy1 Ru11 3.353567 1_555
Dy1 Ru2 3.359747 1_555
Dy1 Ru7 3.359747 1_555
Dy2 Ga54 2.979948 1_555
Dy2 Ga59 2.979948 1_555
Dy2 Ga25 3.080395 1_455
Dy2 Ga14 3.103406 1_555
Dy2 Ga9 3.137895 1_455
Dy2 Ga1 3.199994 1_455
Dy2 Ga3 3.199994 1_455
Dy2 Ga2 3.232827 1_555
Dy2 Ga7 3.232827 1_555
Dy2 Ga10 3.246207 1_555
Dy2 Ga33 3.260302 1_555
Dy2 Ga28 3.260302 1_565
Dy2 Ru10 3.353567 1_555
Dy2 Ru15 3.353567 1_555
Dy2 Ru1 3.359747 1_455
Dy2 Ru3 3.359747 1_455
Dy3 Ga58 2.979948 1_555
Dy3 Ga56 2.979948 1_555
Dy3 Ga24 3.080395 1_655
Dy3 Ga15 3.103406 1_555
Dy3 Ga8 3.137895 1_655
Dy3 Ga0 3.199994 1_655
Dy3 Ga5 3.199994 1_655
Dy3 Ga4 3.232827 1_555
Dy3 Ga6 3.232827 1_555
Dy3 Ga11 3.246207 1_555
Dy3 Ga29 3.260302 1_545
Dy3 Ga31 3.260302 1_555
Dy3 Ru14 3.353567 1_555
Dy3 Ru12 3.353567 1_555
Dy3 Ru5 3.359747 1_655
Dy3 Ru0 3.359747 1_655
Dy4 Ga7 3.004216 1_555
Dy4 Ga2 3.004216 1_545
Dy4 Ga28 3.039648 1_555
Dy4 Ga33 3.039648 1_555
Dy4 Ga32 3.051619 1_555
Dy4 Ga34 3.051619 1_555
Dy4 Ga48 3.089880 1_555
Dy4 Ga17 3.110530 1_555
Dy4 Ga19 3.110530 1_555
Dy4 Ga44 3.114508 1_555
Dy4 Ga18 3.136439 1_555
Dy4 Ga23 3.136439 1_555
Dy5 Ga6 3.004216 1_555
Dy5 Ga4 3.004216 1_565
Dy5 Ga31 3.039648 1_555
Dy5 Ga29 3.039648 1_555
Dy5 Ga35 3.051619 1_555
Dy5 Ga30 3.051619 1_555
Dy5 Ga49 3.089880 1_555
Dy5 Ga21 3.110530 1_555
Dy5 Ga16 3.110530 1_555
Dy5 Ga45 3.114508 1_555
Dy5 Ga22 3.136439 1_555
Dy5 Ga20 3.136439 1_555
Dy6 Ga5 3.004216 1_555
Dy6 Ga0 3.004216 1_565
Dy6 Ga35 3.039648 1_555
Dy6 Ga30 3.039648 1_555
Dy6 Ga31 3.051619 1_455
Dy6 Ga29 3.051619 1_455
Dy6 Ga50 3.089880 1_555
Dy6 Ga22 3.110530 1_455
Dy6 Ga20 3.110530 1_455
Dy6 Ga46 3.114508 1_555
Dy6 Ga21 3.136439 1_555
Dy6 Ga16 3.136439 1_555
Dy7 Ga3 3.004216 1_555
Dy7 Ga1 3.004216 1_545
Dy7 Ga32 3.039648 1_555
Dy7 Ga34 3.039648 1_555
Dy7 Ga28 3.051619 1_655
Dy7 Ga33 3.051619 1_655
Dy7 Ga51 3.089880 1_555
Dy7 Ga18 3.110530 1_655
Dy7 Ga23 3.110530 1_655
Dy7 Ga47 3.114508 1_555
Dy7 Ga17 3.136439 1_555
Dy7 Ga19 3.136439 1_555
Dy8 Ga58 3.007358 1_455
Dy8 Ga56 3.007358 1_455
Dy8 Ga51 3.012133 1_455
Dy8 Ga44 3.017033 1_555
Dy8 Ga24 3.060323 1_555
Dy8 Ga41 3.060461 1_555
Dy8 Ga36 3.060461 1_555
Dy8 Ga28 3.064432 1_555
Dy8 Ga33 3.064432 1_555
Dy8 Ga59 3.087998 1_555
Dy8 Ga54 3.087998 1_545
Dy8 Ru5 3.377103 1_555
Dy8 Ru0 3.377103 1_555
Dy9 Ga54 3.007358 1_655
Dy9 Ga59 3.007358 1_655
Dy9 Ga50 3.012133 1_655
Dy9 Ga45 3.017033 1_555
Dy9 Ga25 3.060323 1_555
Dy9 Ga37 3.060461 1_555
Dy9 Ga39 3.060461 1_555
Dy9 Ga31 3.064432 1_555
Dy9 Ga29 3.064432 1_555
Dy9 Ga58 3.087998 1_555
Dy9 Ga56 3.087998 1_565
Dy9 Ru1 3.377103 1_555
Dy9 Ru3 3.377103 1_555
Dy10 Ga53 3.007358 1_554
Dy10 Ga55 3.007358 1_554
Dy10 Ga49 3.012133 1_555
Dy10 Ga46 3.017033 1_555
Dy10 Ga26 3.060323 1_554
Dy10 Ga38 3.060461 1_554
Dy10 Ga43 3.060461 1_554
Dy10 Ga35 3.064432 1_555
Dy10 Ga30 3.064432 1_555
Dy10 Ga57 3.087998 1_555
Dy10 Ga52 3.087998 1_565
Dy10 Ru2 3.377103 1_554
Dy10 Ru7 3.377103 1_554
Dy11 Ga52 3.007358 1_556
Dy11 Ga57 3.007358 1_556
Dy11 Ga48 3.012133 1_555
Dy11 Ga47 3.017033 1_555
Dy11 Ga27 3.060323 1_556
Dy11 Ga42 3.060461 1_556
Dy11 Ga40 3.060461 1_556
Dy11 Ga32 3.064432 1_555
Dy11 Ga34 3.064432 1_555
Dy11 Ga55 3.087998 1_555
Dy11 Ga53 3.087998 1_545
Dy11 Ru6 3.377103 1_556
Dy11 Ru4 3.377103 1_556
Ga0 Ru0 2.514356 1_555
Ga0 Ru8 2.543982 1_555
Ga0 Ga8 2.592589 1_555
Ga0 Ga24 2.766641 1_555
Ga0 Ga21 2.919749 1_545
Ga0 Ga29 2.954668 1_445
Ga0 Ga30 2.991484 1_545
Ga0 Ga22 2.998687 1_445
Ga1 Ru1 2.514356 1_555
Ga1 Ru9 2.543982 1_555
Ga1 Ga9 2.592589 1_555
Ga1 Ga25 2.766641 1_555
Ga1 Ga19 2.919749 1_565
Ga1 Ga28 2.954668 1_665
Ga1 Ga32 2.991484 1_565
Ga1 Ga23 2.998687 1_665
Ga2 Ru2 2.514356 1_555
Ga2 Ru10 2.543982 1_555
Ga2 Ga26 2.766641 1_555
Ga2 Ga23 2.919749 1_565
Ga2 Ga32 2.954668 1_565
Ga2 Ga28 2.991484 1_565
Ga3 Ru3 2.514356 1_555
Ga3 Ru11 2.543982 1_555
Ga3 Ga9 2.592589 1_555
Ga3 Ga33 2.954668 1_655
Ga3 Ga34 2.991484 1_555
Ga4 Ru4 2.514356 1_555
Ga4 Ru12 2.543982 1_555
Ga5 Ru5 2.514356 1_555
Ga5 Ru13 2.543982 1_555
Ga5 Ga8 2.592589 1_555
Ga6 Ru6 2.514356 1_555
Ga6 Ru14 2.543982 1_555
Ga7 Ru7 2.514356 1_555
Ga7 Ru15 2.543982 1_555
Ga8 Ru13 2.787346 1_555
Ga8 Ru8 2.787346 1_555
Ga9 Ru9 2.787346 1_555
Ga9 Ru11 2.787346 1_555
Ga10 Ga14 2.518415 1_555
Ga10 Ga25 2.572906 1_555
Ga10 Ga2 2.592589 1_555
Ga10 Ga7 2.592589 1_555
Ga10 Ru10 2.787346 1_555
Ga10 Ru15 2.787346 1_555
Ga10 Ga37 3.215222 1_555
Ga10 Ga39 3.215222 1_555
Ga10 Ga19 3.375435 1_565
Ga10 Ga17 3.375435 1_555
Ga11 Ga15 2.518415 1_555
Ga11 Ga24 2.572906 1_555
Ga11 Ga4 2.592589 1_555
Ga11 Ga6 2.592589 1_555
Ga11 Ru14 2.787346 1_555
Ga11 Ru12 2.787346 1_555
Ga11 Ga41 3.215222 1_555
Ga11 Ga36 3.215222 1_555
Ga11 Ga16 3.375435 1_555
Ga11 Ga21 3.375435 1_545
Ga12 Ga8 2.518415 1_555
Ga12 Ga47 2.669375 1_454
Ga12 Ga48 2.674677 1_554
Ga12 Ru13 2.695098 1_555
Ga12 Ru8 2.695098 1_555
Ga12 Ga52 2.751593 1_555
Ga12 Ga57 2.751593 1_555
Ga12 Ga42 2.902994 1_455
Ga12 Ga40 2.902994 1_455
Ga12 Ga43 3.303956 1_554
Ga12 Ga38 3.303956 1_544
Ga13 Ga9 2.518415 1_555
Ga13 Ga46 2.669375 1_656
Ga13 Ga49 2.674677 1_556
Ga13 Ru9 2.695098 1_555
Ga13 Ru11 2.695098 1_555
Ga13 Ga53 2.751593 1_555
Ga13 Ga55 2.751593 1_555
Ga13 Ga38 2.902994 1_655
Ga13 Ga43 2.902994 1_655
Ga13 Ga40 3.303956 1_566
Ga13 Ga42 3.303956 1_556
Ga14 Ga45 2.669375 1_555
Ga14 Ga50 2.674677 1_555
Ga14 Ru10 2.695098 1_555
Ga14 Ru15 2.695098 1_555
Ga14 Ga54 2.751593 1_555
Ga14 Ga59 2.751593 1_555
Ga14 Ga37 2.902994 1_555
Ga14 Ga39 2.902994 1_555
Ga14 Ga36 3.303956 1_565
Ga14 Ga41 3.303956 1_555
Ga15 Ga44 2.669375 1_555
Ga15 Ga51 2.674677 1_555
Ga15 Ru14 2.695098 1_555
Ga15 Ru12 2.695098 1_555
Ga15 Ga56 2.751593 1_555
Ga15 Ga58 2.751593 1_555
Ga15 Ga41 2.902994 1_555
Ga15 Ga36 2.902994 1_555
Ga15 Ga39 3.303956 1_555
Ga15 Ga37 3.303956 1_545
Ga16 Ru14 2.583731 1_555
Ga16 Ru5 2.616012 1_555
Ga16 Ga41 2.735523 1_555
Ga16 Ga50 2.764318 1_555
Ga16 Ga45 2.786685 1_555
Ga16 Ga35 2.851545 1_555
Ga16 Ga5 2.919749 1_555
Ga16 Ga6 2.998687 1_555
Ga16 Ga21 3.335987 1_555
Ga17 Ru15 2.583731 1_555
Ga17 Ru3 2.616012 1_555
Ga17 Ga39 2.735523 1_555
Ga17 Ga51 2.764318 1_555
Ga17 Ga44 2.786685 1_555
Ga17 Ga34 2.851545 1_555
Ga17 Ga3 2.919749 1_555
Ga17 Ga7 2.998687 1_555
Ga17 Ga19 3.335987 1_555
Ga18 Ru11 2.583731 1_455
Ga18 Ru7 2.616012 1_555
Ga18 Ga43 2.735523 1_555
Ga18 Ga48 2.764318 1_555
Ga18 Ga47 2.786685 1_455
Ga18 Ga33 2.851545 1_555
Ga18 Ga7 2.919749 1_555
Ga18 Ga3 2.998687 1_455
Ga18 Ga23 3.335987 1_555
Ga18 Ga9 3.375435 1_455
Ga19 Ru10 2.583731 1_545
Ga19 Ru1 2.616012 1_545
Ga19 Ga37 2.735523 1_545
Ga19 Ga51 2.764318 1_555
Ga19 Ga44 2.786685 1_555
Ga19 Ga32 2.851545 1_555
Ga19 Ga2 2.998687 1_545
Ga20 Ru13 2.583731 1_655
Ga20 Ru6 2.616012 1_555
Ga20 Ga42 2.735523 1_555
Ga20 Ga49 2.764318 1_555
Ga20 Ga46 2.786685 1_655
Ga20 Ga31 2.851545 1_555
Ga20 Ga6 2.919749 1_555
Ga20 Ga5 2.998687 1_655
Ga20 Ga22 3.335987 1_555
Ga20 Ga8 3.375435 1_655
Ga21 Ru12 2.583731 1_565
Ga21 Ru0 2.616012 1_565
Ga21 Ga36 2.735523 1_565
Ga21 Ga50 2.764318 1_555
Ga21 Ga45 2.786685 1_555
Ga21 Ga30 2.851545 1_555
Ga21 Ga4 2.998687 1_565
Ga22 Ru8 2.583731 1_665
Ga22 Ru4 2.616012 1_565
Ga22 Ga40 2.735523 1_565
Ga22 Ga49 2.764318 1_555
Ga22 Ga46 2.786685 1_655
Ga22 Ga29 2.851545 1_555
Ga22 Ga4 2.919749 1_565
Ga22 Ga8 3.375435 1_665
Ga23 Ru9 2.583731 1_445
Ga23 Ru2 2.616012 1_545
Ga23 Ga38 2.735523 1_545
Ga23 Ga48 2.764318 1_555
Ga23 Ga47 2.786685 1_455
Ga23 Ga28 2.851545 1_555
Ga23 Ga9 3.375435 1_445
Ga24 Ru5 2.609026 1_555
Ga24 Ru0 2.609026 1_555
Ga24 Ga5 2.766641 1_555
Ga24 Ga41 2.968852 1_555
Ga24 Ga36 2.968852 1_555
Ga25 Ru1 2.609026 1_555
Ga25 Ru3 2.609026 1_555
Ga25 Ga3 2.766641 1_555
Ga25 Ga37 2.968852 1_555
Ga25 Ga39 2.968852 1_555
Ga26 Ga9 2.572906 1_455
Ga26 Ru7 2.609026 1_555
Ga26 Ru2 2.609026 1_555
Ga26 Ga7 2.766641 1_555
Ga26 Ga38 2.968852 1_555
Ga26 Ga43 2.968852 1_555
Ga27 Ga8 2.572906 1_655
Ga27 Ru6 2.609026 1_555
Ga27 Ru4 2.609026 1_555
Ga27 Ga4 2.766641 1_555
Ga27 Ga6 2.766641 1_555
Ga27 Ga42 2.968852 1_555
Ga27 Ga40 2.968852 1_555
Ga28 Ru1 2.553946 1_445
Ga28 Ru10 2.559882 1_545
Ga28 Ga54 2.903852 1_545
Ga28 Ga33 3.148890 1_555
Ga29 Ru0 2.553946 1_665
Ga29 Ru12 2.559882 1_565
Ga29 Ga56 2.903852 1_565
Ga29 Ga4 2.991484 1_565
Ga29 Ga31 3.148890 1_555
Ga30 Ru4 2.553946 1_565
Ga30 Ru8 2.559882 1_565
Ga30 Ga52 2.903852 1_565
Ga30 Ga4 2.954668 1_565
Ga30 Ga35 3.148890 1_555
Ga31 Ru5 2.553946 1_655
Ga31 Ru14 2.559882 1_555
Ga31 Ga58 2.903852 1_555
Ga31 Ga5 2.954668 1_655
Ga31 Ga6 2.991484 1_555
Ga32 Ru2 2.553946 1_545
Ga32 Ru9 2.559882 1_545
Ga32 Ga53 2.903852 1_545
Ga32 Ga34 3.148890 1_555
Ga33 Ru3 2.553946 1_455
Ga33 Ru15 2.559882 1_555
Ga33 Ga59 2.903852 1_555
Ga33 Ga7 2.991484 1_555
Ga34 Ru7 2.553946 1_555
Ga34 Ru11 2.559882 1_555
Ga34 Ga55 2.903852 1_555
Ga34 Ga7 2.954668 1_555
Ga35 Ru6 2.553946 1_555
Ga35 Ru13 2.559882 1_555
Ga35 Ga57 2.903852 1_555
Ga35 Ga6 2.954668 1_555
Ga35 Ga5 2.991484 1_555
Ga36 Ru12 2.689825 1_555
Ga36 Ru0 2.713383 1_555
Ga36 Ru10 2.718164 1_545
Ga36 Ga37 2.752557 1_545
Ga36 Ga44 2.786989 1_555
Ga36 Ga54 2.816747 1_545
Ga37 Ru10 2.689825 1_555
Ga37 Ru1 2.713383 1_555
Ga37 Ru12 2.718164 1_565
Ga37 Ga45 2.786989 1_555
Ga37 Ga56 2.816747 1_565
Ga38 Ru9 2.689825 1_455
Ga38 Ru2 2.713383 1_555
Ga38 Ru8 2.718164 1_566
Ga38 Ga40 2.752557 1_466
Ga38 Ga46 2.786989 1_556
Ga38 Ga52 2.816747 1_566
Ga38 Ga9 3.215222 1_455
Ga39 Ru15 2.689825 1_555
Ga39 Ru3 2.713383 1_555
Ga39 Ru14 2.718164 1_555
Ga39 Ga41 2.752557 1_555
Ga39 Ga45 2.786989 1_555
Ga39 Ga58 2.816747 1_555
Ga40 Ru8 2.689825 1_655
Ga40 Ru4 2.713383 1_555
Ga40 Ru9 2.718164 1_544
Ga40 Ga47 2.786989 1_554
Ga40 Ga53 2.816747 1_544
Ga40 Ga8 3.215222 1_655
Ga41 Ru14 2.689825 1_555
Ga41 Ru5 2.713383 1_555
Ga41 Ru15 2.718164 1_555
Ga41 Ga44 2.786989 1_555
Ga41 Ga59 2.816747 1_555
Ga42 Ru13 2.689825 1_655
Ga42 Ru6 2.713383 1_555
Ga42 Ru11 2.718164 1_554
Ga42 Ga43 2.752557 1_654
Ga42 Ga47 2.786989 1_554
Ga42 Ga55 2.816747 1_554
Ga42 Ga8 3.215222 1_655
Ga43 Ru11 2.689825 1_455
Ga43 Ru7 2.713383 1_555
Ga43 Ru13 2.718164 1_556
Ga43 Ga46 2.786989 1_556
Ga43 Ga57 2.816747 1_556
Ga43 Ga9 3.215222 1_455
Ga44 Ru15 2.641906 1_555
Ga44 Ru10 2.641906 1_545
Ga44 Ga51 3.117574 1_555
Ga45 Ru12 2.641906 1_565
Ga45 Ru14 2.641906 1_555
Ga45 Ga50 3.117574 1_555
Ga46 Ru8 2.641906 1_565
Ga46 Ru13 2.641906 1_555
Ga46 Ga49 3.117574 1_455
Ga47 Ru11 2.641906 1_555
Ga47 Ru9 2.641906 1_545
Ga47 Ga48 3.117574 1_655
Ga48 Ru7 2.594549 1_555
Ga48 Ru2 2.594549 1_545
Ga48 Ga52 2.761642 1_556
Ga48 Ga57 2.761642 1_556
Ga49 Ru4 2.594549 1_565
Ga49 Ru6 2.594549 1_555
Ga49 Ga53 2.761642 1_554
Ga49 Ga55 2.761642 1_554
Ga50 Ru0 2.594549 1_565
Ga50 Ru5 2.594549 1_555
Ga50 Ga54 2.761642 1_555
Ga50 Ga59 2.761642 1_555
Ga51 Ru3 2.594549 1_555
Ga51 Ru1 2.594549 1_545
Ga51 Ga58 2.761642 1_555
Ga51 Ga56 2.761642 1_555
Ga52 Ru4 2.625414 1_555
Ga52 Ru2 2.638359 1_544
Ga52 Ru8 2.655574 1_555
Ga52 Ga53 2.847384 1_544
Ga53 Ru2 2.625414 1_555
Ga53 Ru4 2.638359 1_566
Ga53 Ru9 2.655574 1_555
Ga54 Ru1 2.625414 1_455
Ga54 Ru0 2.638359 1_565
Ga54 Ru10 2.655574 1_555
Ga54 Ga56 2.847384 1_465
Ga55 Ru7 2.625414 1_555
Ga55 Ru6 2.638359 1_556
Ga55 Ru11 2.655574 1_555
Ga55 Ga57 2.847384 1_556
Ga56 Ru0 2.625414 1_655
Ga56 Ru1 2.638359 1_545
Ga56 Ru12 2.655574 1_555
Ga57 Ru6 2.625414 1_555
Ga57 Ru7 2.638359 1_554
Ga57 Ru13 2.655574 1_555
Ga58 Ru5 2.625414 1_655
Ga58 Ru3 2.638359 1_555
Ga58 Ru14 2.655574 1_555
Ga58 Ga59 2.847384 1_655
Ga59 Ru3 2.625414 1_455
Ga59 Ru5 2.638359 1_555
Ga59 Ru15 2.655574 1_555
