# generated using pymatgen
data_MgH7C3NO7
_symmetry_space_group_name_H-M   'P 1'
_cell_length_a   7.62888538
_cell_length_b   7.83040800
_cell_length_c   12.68330002
_cell_angle_alpha   90.00000000
_cell_angle_beta   90.00000000
_cell_angle_gamma   90.00000000
_symmetry_Int_Tables_number   1
_chemical_formula_structural   MgH7C3NO7
_chemical_formula_sum   'Mg4 H28 C12 N4 O28'
_cell_volume   757.66590859
_cell_formula_units_Z   4
loop_
 _symmetry_equiv_pos_site_id
 _symmetry_equiv_pos_as_xyz
  1  'x, y, z'
loop_
 _atom_site_type_symbol
 _atom_site_label
 _atom_site_symmetry_multiplicity
 _atom_site_fract_x
 _atom_site_fract_y
 _atom_site_fract_z
 _atom_site_occupancy
  Mg  Mg0  1  0.05932033  0.99369120  0.58566193  1
  Mg  Mg1  1  0.55932035  0.50630880  0.41433804  1
  Mg  Mg2  1  0.94067965  0.49369123  0.91433807  1
  Mg  Mg3  1  0.44067968  0.00630877  0.08566196  1
  H  H0  1  0.04956586  0.65952219  0.71682606  1
  H  H1  1  0.54956583  0.84047781  0.28317394  1
  H  H2  1  0.95043417  0.15952217  0.78317394  1
  H  H3  1  0.45043414  0.34047781  0.21682608  1
  H  H4  1  0.91714424  0.32551242  0.46550576  1
  H  H5  1  0.41714424  0.17448758  0.53449424  1
  H  H6  1  0.08285577  0.82551245  0.03449424  1
  H  H7  1  0.58285576  0.67448755  0.96550576  1
  H  H8  1  0.71233341  0.81502289  0.52441873  1
  H  H9  1  0.21233340  0.68497711  0.47558127  1
  H  H10  1  0.28766662  0.31502286  0.97558127  1
  H  H11  1  0.78766659  0.18497713  0.02441871  1
  H  H12  1  0.70897784  0.95713800  0.71576957  1
  H  H13  1  0.20897784  0.54286200  0.28423043  1
  H  H14  1  0.29102216  0.45713803  0.78423043  1
  H  H15  1  0.79102216  0.04286198  0.21576959  1
  H  H16  1  0.58540791  0.75307105  0.77944775  1
  H  H17  1  0.08540790  0.74692895  0.22055227  1
  H  H18  1  0.41459209  0.25307105  0.72055225  1
  H  H19  1  0.91459209  0.24692895  0.27944775  1
  H  H20  1  0.40584123  0.82436074  0.71057168  1
  H  H21  1  0.90584126  0.67563926  0.28942835  1
  H  H22  1  0.59415874  0.32436077  0.78942832  1
  H  H23  1  0.09415877  0.17563925  0.21057165  1
  H  H24  1  0.43551135  0.87687647  0.84118727  1
  H  H25  1  0.93551132  0.62312353  0.15881275  1
  H  H26  1  0.56448868  0.37687650  0.65881273  1
  H  H27  1  0.06448866  0.12312351  0.34118727  1
  C  C0  1  0.92427145  0.72161135  0.73533814  1
  C  C1  1  0.42427142  0.77838865  0.26466186  1
  C  C2  1  0.07572858  0.22161137  0.76466186  1
  C  C3  1  0.57572855  0.27838863  0.23533814  1
  C  C4  1  0.82214472  0.29020421  0.52752313  1
  C  C5  1  0.32214472  0.20979577  0.47247687  1
  C  C6  1  0.17785528  0.79020424  0.97247687  1
  C  C7  1  0.67785528  0.70979576  0.02752314  1
  C  C8  1  0.80803141  0.78409585  0.46231464  1
  C  C9  1  0.30803141  0.71590415  0.53768536  1
  C  C10  1  0.19196859  0.28409588  0.03768536  1
  C  C11  1  0.69196859  0.21590413  0.96231464  1
  N  N0  1  0.49786315  0.85277027  0.76957117  1
  N  N1  1  0.99786315  0.64722973  0.23042883  1
  N  N2  1  0.50213685  0.35277027  0.73042883  1
  N  N3  1  0.00213686  0.14722973  0.26957117  1
  O  O0  1  0.89603869  0.86542701  0.69258369  1
  O  O1  1  0.39603872  0.63457299  0.30741628  1
  O  O2  1  0.10396128  0.36542704  0.80741631  1
  O  O3  1  0.60396131  0.13457298  0.19258372  1
  O  O4  1  0.81919758  0.64740238  0.79681992  1
  O  O5  1  0.31919758  0.85259762  0.20318010  1
  O  O6  1  0.18080244  0.14740238  0.70318008  1
  O  O7  1  0.68080242  0.35259762  0.29681992  1
  O  O8  1  0.85827272  0.16796040  0.58733946  1
  O  O9  1  0.35827269  0.33203962  0.41266057  1
  O  O10  1  0.14172731  0.66796041  0.91266054  1
  O  O11  1  0.64172728  0.83203959  0.08733945  1
  O  O12  1  0.68345754  0.37853415  0.53372437  1
  O  O13  1  0.18345756  0.12146586  0.46627560  1
  O  O14  1  0.31654246  0.87853412  0.96627563  1
  O  O15  1  0.81654246  0.62146588  0.03372439  1
  O  O16  1  0.95626759  0.85224243  0.46453441  1
  O  O17  1  0.45626759  0.64775757  0.53546559  1
  O  O18  1  0.04373241  0.35224240  0.03546559  1
  O  O19  1  0.54373241  0.14775760  0.96453441  1
  O  O20  1  0.75890094  0.67860830  0.39197067  1
  O  O21  1  0.25890094  0.82139170  0.60802933  1
  O  O22  1  0.24109906  0.17860833  0.10802934  1
  O  O23  1  0.74109906  0.32139167  0.89197067  1
  O  O24  1  0.59016073  0.00067707  0.73693030  1
  O  O25  1  0.09016074  0.49932292  0.26306973  1
  O  O26  1  0.40983924  0.50067705  0.76306970  1
  O  O27  1  0.90983927  0.99932295  0.23693029  1
loop_
_geom_bond_atom_site_label_1
_geom_bond_atom_site_label_2
_geom_bond_distance
_geom_bond_site_symmetry_2
Mg0 O13 2.047134 1_565
Mg0 O16 2.050625 1_455
Mg0 O8 2.053054 1_465
Mg0 O21 2.054020 1_555
Mg0 O0 2.097490 1_455
Mg0 O6 2.128205 1_565
Mg1 O12 2.047134 1_555
Mg1 O17 2.050626 1_555
Mg1 O9 2.053054 1_555
Mg1 O20 2.054020 1_555
Mg1 O1 2.097490 1_555
Mg1 O7 2.128205 1_555
Mg2 O15 2.047134 1_556
Mg2 O18 2.050626 1_656
Mg2 O10 2.053054 1_655
Mg2 O23 2.054020 1_555
Mg2 O2 2.097490 1_655
Mg2 O4 2.128205 1_555
Mg3 O14 2.047134 1_544
Mg3 O19 2.050626 1_554
Mg3 O11 2.053054 1_545
Mg3 O22 2.054020 1_555
Mg3 O3 2.097490 1_555
Mg3 O5 2.128205 1_545
H12 O24 1.004939 1_565
H12 O0 1.624412 1_555
H13 O25 1.004939 1_555
H13 O1 1.624412 1_555
H14 O26 1.004938 1_555
H14 O2 1.624412 1_555
H15 O27 1.004938 1_545
H15 O3 1.624412 1_555
H16 N0 1.034993 1_555
H17 N1 1.034993 1_455
H18 N2 1.034993 1_555
H19 N3 1.034993 1_655
H20 N0 1.049901 1_555
H20 O21 1.717165 1_555
H21 N1 1.049901 1_555
H21 O20 1.717165 1_555
H22 N2 1.049901 1_555
H22 O23 1.717165 1_555
H23 N3 1.049901 1_555
H23 O22 1.717165 1_555
H24 N0 1.042573 1_555
H25 N1 1.042573 1_555
H26 N2 1.042573 1_555
H27 N3 1.042573 1_555
C0 H0 1.097800 1_655
C0 O4 1.260275 1_555
C0 O0 1.268316 1_555
C1 H1 1.097800 1_555
C1 O5 1.260275 1_555
C1 O1 1.268316 1_555
C2 H2 1.097800 1_455
C2 O6 1.260275 1_555
C2 O2 1.268316 1_555
C3 H3 1.097800 1_555
C3 O7 1.260275 1_555
C3 O3 1.268316 1_555
C4 H4 1.104719 1_555
C4 O8 1.252122 1_555
C4 O12 1.266493 1_555
C5 H5 1.104719 1_555
C5 O9 1.252122 1_555
C5 O13 1.266492 1_555
C6 H6 1.104719 1_556
C6 O10 1.252122 1_555
C6 O14 1.266492 1_555
C7 H7 1.104719 1_554
C7 O11 1.252122 1_555
C7 O15 1.266492 1_555
C8 H8 1.100952 1_555
C8 O16 1.250768 1_555
C8 O20 1.272315 1_555
C9 H9 1.100952 1_555
C9 O17 1.250768 1_555
C9 O21 1.272315 1_555
C10 H10 1.100952 1_554
C10 O18 1.250768 1_555
C10 O22 1.272315 1_555
C11 H11 1.100952 1_556
C11 O19 1.250768 1_555
C11 O23 1.272315 1_555
N0 O24 1.417232 1_565
N1 O25 1.417232 1_655
N2 O26 1.417232 1_555
N3 O27 1.417232 1_445
