# generated using pymatgen
data_MgTi3V5O16
_symmetry_space_group_name_H-M   'P 1'
_cell_length_a   5.92245861
_cell_length_b   5.99813008
_cell_length_c   9.27867823
_cell_angle_alpha   89.76385834
_cell_angle_beta   88.65840856
_cell_angle_gamma   120.64709848
_symmetry_Int_Tables_number   1
_chemical_formula_structural   MgTi3V5O16
_chemical_formula_sum   'Mg1 Ti3 V5 O16'
_cell_volume   283.44640575
_cell_formula_units_Z   1
loop_
 _symmetry_equiv_pos_site_id
 _symmetry_equiv_pos_as_xyz
  1  'x, y, z'
loop_
 _atom_site_type_symbol
 _atom_site_label
 _atom_site_symmetry_multiplicity
 _atom_site_fract_x
 _atom_site_fract_y
 _atom_site_fract_z
 _atom_site_occupancy
  Mg  Mg0  1  0.36137500  0.18165200  0.44867200  1
  Ti  Ti0  1  0.14669500  0.79784500  0.20860300  1
  Ti  Ti1  1  0.20162700  0.34033400  0.18589900  1
  Ti  Ti2  1  0.32740600  0.15926100  0.75981300  1
  V  V0  1  0.32002500  0.66103900  0.48503000  1
  V  V1  1  0.67654700  0.84593100  0.21422300  1
  V  V2  1  0.70527800  0.34438100  0.98828400  1
  V  V3  1  0.83066600  0.16367800  0.69912500  1
  V  V4  1  0.82505000  0.66810900  0.70245600  1
  O  O0  1  0.14769800  0.84215600  0.60316600  1
  O  O1  1  0.03926100  0.52248600  0.33408000  1
  O  O2  1  0.34772100  0.67925600  0.10006200  1
  O  O3  1  0.03266800  0.01800900  0.31086600  1
  O  O4  1  0.96944500  0.98722200  0.81824200  1
  O  O5  1  0.15204300  0.31426200  0.59931500  1
  O  O6  1  0.47301700  0.96066600  0.34372900  1
  O  O7  1  0.46895500  0.50770000  0.33538400  1
  O  O8  1  0.35835000  0.18006500  0.09162600  1
  O  O9  1  0.63959700  0.82338200  0.61047000  1
  O  O10  1  0.52273900  0.47625500  0.84604600  1
  O  O11  1  0.52532800  0.04391700  0.84743300  1
  O  O12  1  0.62970200  0.31606400  0.60739300  1
  O  O13  1  0.84315900  0.66485100  0.09710500  1
  O  O14  1  0.94676400  0.47359700  0.82371300  1
  O  O15  1  0.85263700  0.19474400  0.09784200  1
loop_
_geom_bond_atom_site_label_1
_geom_bond_atom_site_label_2
_geom_bond_distance
_geom_bond_site_symmetry_2
Mg0 O6 2.004067 1_545
Mg0 O7 2.004228 1_555
Mg0 O12 2.038995 1_555
Mg0 O3 2.137070 1_555
Mg0 O5 2.248735 1_555
Mg0 O0 2.250967 1_545
O0 V4 1.861693 1_455
O0 V0 2.123943 1_555
O0 Ti2 2.212351 1_565
O1 Ti0 1.834758 1_555
O1 V0 2.031538 1_555
O1 Ti1 2.242854 1_555
O2 Ti1 1.917499 1_555
O2 Ti0 1.936708 1_555
O2 V1 2.008613 1_555
O3 Ti0 1.997457 1_545
O3 Ti1 2.009603 1_555
O3 V1 2.048077 1_445
O4 Ti2 1.887976 1_665
O4 V3 1.984216 1_565
O4 V4 1.985050 1_555
O5 V3 1.858520 1_455
O5 V0 2.064807 1_555
O5 Ti2 2.281707 1_555
O6 V0 2.008645 1_555
O6 V1 2.038446 1_555
O6 Ti0 2.111905 1_555
O7 Ti1 1.982975 1_555
O7 V1 2.065150 1_555
O7 V0 2.081379 1_555
O8 Ti1 1.851862 1_555
O8 V2 1.986932 1_554
O8 Ti0 2.234132 1_545
O9 V3 1.956037 1_565
O9 V4 1.970394 1_555
O9 V0 2.029437 1_555
O10 Ti2 1.845837 1_555
O10 V4 2.019926 1_555
O10 V2 2.113348 1_555
O11 Ti2 1.838589 1_555
O11 V2 2.053853 1_555
O11 V3 2.056889 1_555
O12 V3 2.031405 1_555
O12 V4 2.036649 1_555
O12 Ti2 2.060047 1_555
O13 Ti0 1.889496 1_655
O13 V2 1.958472 1_554
O13 V1 2.094390 1_555
O14 V2 1.932817 1_555
O14 V3 2.004148 1_555
O14 V4 2.007800 1_555
O15 V2 1.852895 1_554
O15 Ti1 1.986703 1_655
O15 V1 2.082131 1_545
