# generated using pymatgen
data_LiDyGe
_symmetry_space_group_name_H-M   'P 1'
_cell_length_a   7.04102789
_cell_length_b   7.04102789
_cell_length_c   4.22829112
_cell_angle_alpha   90.00000000
_cell_angle_beta   90.00000000
_cell_angle_gamma   119.99999277
_symmetry_Int_Tables_number   1
_chemical_formula_structural   LiDyGe
_chemical_formula_sum   'Li3 Dy3 Ge3'
_cell_volume   181.53805314
_cell_formula_units_Z   3
loop_
 _symmetry_equiv_pos_site_id
 _symmetry_equiv_pos_as_xyz
  1  'x, y, z'
loop_
 _atom_site_type_symbol
 _atom_site_label
 _atom_site_symmetry_multiplicity
 _atom_site_fract_x
 _atom_site_fract_y
 _atom_site_fract_z
 _atom_site_occupancy
  Li  Li0  1  0.76650428  0.76650428  0.50000000  1
  Li  Li1  1  0.23349572  1.00000000  0.50000000  1
  Li  Li2  1  1.00000000  0.23349572  0.50000000  1
  Dy  Dy0  1  0.42352085  0.42352085  -0.00000000  1
  Dy  Dy1  1  0.57647915  0.00000000  0.00000000  1
  Dy  Dy2  1  0.00000000  0.57647915  -0.00000000  1
  Ge  Ge0  1  0.00000000  -0.00000000  -0.00000000  1
  Ge  Ge1  1  0.66666700  0.33333300  0.50000000  1
  Ge  Ge2  1  0.33333300  0.66666700  0.50000000  1
loop_
_geom_bond_atom_site_label_1
_geom_bond_atom_site_label_2
_geom_bond_distance
_geom_bond_site_symmetry_2
Li0 Li2 2.847578 1_565
Li0 Li1 2.847578 1_655
Li1 Li2 2.847578 1_465
Dy0 Ge2 2.981768 1_555
Dy0 Ge1 2.981768 1_555
Dy0 Ge1 2.981768 1_554
Dy0 Ge2 2.981768 1_554
Dy0 Ge0 2.982022 1_555
Dy0 Li0 3.209614 1_555
Dy0 Li0 3.209614 1_554
Dy0 Li2 3.341014 1_455
Dy0 Li2 3.341014 1_454
Dy0 Li1 3.341014 1_545
Dy0 Li1 3.341014 1_544
Dy0 Dy1 3.641969 1_555
Dy0 Dy2 3.641969 1_555
Dy0 Dy2 3.641969 1_655
Dy0 Dy1 3.641969 1_565
Dy1 Ge1 2.981763 1_555
Dy1 Ge1 2.981763 1_554
Dy1 Ge2 2.981765 1_545
Dy1 Ge2 2.981765 1_544
Dy1 Ge0 2.982022 1_655
Dy1 Li1 3.209614 1_544
Dy1 Li1 3.209614 1_545
Dy1 Li0 3.341014 1_544
Dy1 Li0 3.341014 1_545
Dy1 Li2 3.341014 1_555
Dy1 Li2 3.341014 1_554
Dy1 Dy2 3.641969 1_655
Dy1 Dy2 3.641969 1_545
Dy2 Ge2 2.981763 1_554
Dy2 Ge2 2.981763 1_555
Dy2 Ge1 2.981765 1_455
Dy2 Ge1 2.981765 1_454
Dy2 Ge0 2.982022 1_565
Dy2 Li2 3.209614 1_454
Dy2 Li2 3.209614 1_455
Dy2 Li0 3.341014 1_454
Dy2 Li0 3.341014 1_455
Dy2 Li1 3.341014 1_555
Dy2 Li1 3.341014 1_554
Ge0 Li2 2.678154 1_455
Ge0 Li1 2.678154 1_544
Ge0 Li2 2.678154 1_454
Ge0 Li1 2.678154 1_545
Ge0 Li0 2.678155 1_444
Ge0 Li0 2.678155 1_445
Ge1 Li2 2.766303 1_555
Ge1 Li1 2.766309 1_545
Ge1 Li0 2.766311 1_555
Ge2 Li1 2.766303 1_555
Ge2 Li2 2.766309 1_455
Ge2 Li0 2.766311 1_555
