# generated using pymatgen
data_Hf9FeW4
_symmetry_space_group_name_H-M   'P 1'
_cell_length_a   8.43968500
_cell_length_b   8.71255627
_cell_length_c   8.71255627
_cell_angle_alpha   119.98555854
_cell_angle_beta   90.00000000
_cell_angle_gamma   90.00000000
_symmetry_Int_Tables_number   1
_chemical_formula_structural   Hf9FeW4
_chemical_formula_sum   'Hf18 Fe2 W8'
_cell_volume   554.89555010
_cell_formula_units_Z   2
loop_
 _symmetry_equiv_pos_site_id
 _symmetry_equiv_pos_as_xyz
  1  'x, y, z'
loop_
 _atom_site_type_symbol
 _atom_site_label
 _atom_site_symmetry_multiplicity
 _atom_site_fract_x
 _atom_site_fract_y
 _atom_site_fract_z
 _atom_site_occupancy
  Hf  Hf0  1  0.55906200  0.79883300  0.59764100  1
  Hf  Hf1  1  0.55901800  0.79881400  0.20118600  1
  Hf  Hf2  1  0.55906200  0.40235900  0.20116700  1
  Hf  Hf3  1  0.44093800  0.20116700  0.40235900  1
  Hf  Hf4  1  0.44098200  0.20118600  0.79881400  1
  Hf  Hf5  1  0.44093800  0.59764100  0.79883300  1
  Hf  Hf6  1  0.05906200  0.20116700  0.40235900  1
  Hf  Hf7  1  0.05901800  0.20118600  0.79881400  1
  Hf  Hf8  1  0.05906200  0.59764100  0.79883300  1
  Hf  Hf9  1  0.94093800  0.79883300  0.59764100  1
  Hf  Hf10  1  0.94098200  0.79881400  0.20118600  1
  Hf  Hf11  1  0.94093800  0.40235900  0.20116700  1
  Hf  Hf12  1  0.75000000  0.45996200  0.91993300  1
  Hf  Hf13  1  0.75000000  0.45996200  0.54003800  1
  Hf  Hf14  1  0.75000000  0.08006700  0.54003800  1
  Hf  Hf15  1  0.25000000  0.54003800  0.08006700  1
  Hf  Hf16  1  0.25000000  0.54003800  0.45996200  1
  Hf  Hf17  1  0.25000000  0.91993300  0.45996200  1
  Fe  Fe0  1  0.75000000  0.66669500  0.33330500  1
  Fe  Fe1  1  0.25000000  0.33330500  0.66669500  1
  W  W0  1  0.75000000  0.11224700  0.22447300  1
  W  W1  1  0.75000000  0.11224400  0.88775600  1
  W  W2  1  0.75000000  0.77552700  0.88775300  1
  W  W3  1  0.25000000  0.88775300  0.77552700  1
  W  W4  1  0.25000000  0.88775600  0.11224400  1
  W  W5  1  0.25000000  0.22447300  0.11224700  1
  W  W6  1  0.50000000  0.00000000  0.00000000  1
  W  W7  1  0.00000000  0.00000000  0.00000000  1
loop_
_geom_bond_atom_site_label_1
_geom_bond_atom_site_label_2
_geom_bond_distance
_geom_bond_site_symmetry_2
Hf0 W3 2.933549 1_555
Hf0 W6 3.077002 1_566
Hf0 W2 3.088672 1_555
Hf0 W1 3.089177 1_565
Hf0 Hf14 3.175162 1_565
Hf0 Hf13 3.175600 1_555
Hf0 Hf5 3.195382 1_555
Hf0 Hf4 3.195674 1_565
Hf0 Hf9 3.222913 1_555
Hf0 Hf17 3.258964 1_555
Hf0 Hf16 3.259301 1_555
Hf0 Hf1 3.454054 1_555
Hf0 Hf2 3.455056 1_555
Hf1 W4 2.933078 1_555
Hf1 W6 3.076385 1_565
Hf1 W2 3.089114 1_554
Hf1 W0 3.089114 1_565
Hf1 Hf12 3.176054 1_554
Hf1 Hf14 3.176054 1_565
Hf1 Hf5 3.195674 1_554
Hf1 Hf3 3.195674 1_565
Hf1 Hf10 3.223656 1_555
Hf1 Hf15 3.258893 1_555
Hf1 Hf17 3.258893 1_555
Hf1 Hf2 3.454054 1_555
Hf2 W5 2.933549 1_555
Hf2 W6 3.077002 1_555
Hf2 W0 3.088672 1_555
Hf2 W1 3.089177 1_554
Hf2 Hf3 3.195382 1_555
Hf2 Hf4 3.195674 1_554
Hf3 W0 2.933549 1_555
Hf3 W6 3.077002 1_555
Hf3 W5 3.088672 1_555
Hf3 W4 3.089177 1_545
Hf3 Hf6 3.222913 1_555
Hf3 Hf4 3.454054 1_555
Hf3 Hf5 3.455056 1_555
Hf4 W1 2.933078 1_555
Hf4 W6 3.076385 1_556
Hf4 W3 3.089114 1_545
Hf4 W5 3.089114 1_556
Hf4 Hf7 3.223656 1_555
Hf4 Hf5 3.454054 1_555
Hf5 W2 2.933549 1_555
Hf5 W6 3.077002 1_566
Hf5 W3 3.088672 1_555
Hf5 W4 3.089177 1_556
Hf5 Hf8 3.222913 1_555
Hf6 W0 2.933549 1_455
Hf6 W7 3.077002 1_555
Hf6 W5 3.088672 1_555
Hf6 W4 3.089177 1_545
Hf6 Hf7 3.454054 1_555
Hf6 Hf8 3.455056 1_555
Hf7 W1 2.933078 1_455
Hf7 W7 3.076385 1_556
Hf7 W3 3.089114 1_545
Hf7 W5 3.089114 1_556
Hf7 Hf9 3.195674 1_445
Hf7 Hf8 3.454054 1_555
Hf8 W2 2.933549 1_455
Hf8 W7 3.077002 1_566
Hf8 W3 3.088672 1_555
Hf8 W4 3.089177 1_556
Hf8 Hf9 3.195382 1_455
Hf9 W3 2.933549 1_655
Hf9 W7 3.077002 1_666
Hf9 W2 3.088672 1_555
Hf9 W1 3.089177 1_565
Hf10 W4 2.933078 1_655
Hf10 W7 3.076385 1_665
Hf10 W2 3.089114 1_554
Hf10 W0 3.089114 1_565
Hf10 Hf12 3.176054 1_554
Hf10 Hf14 3.176054 1_565
Hf10 Hf8 3.195674 1_654
Hf10 Hf6 3.195674 1_665
Hf10 Hf15 3.258893 1_655
Hf10 Hf17 3.258893 1_655
Hf10 Hf9 3.454054 1_555
Hf10 Hf11 3.454054 1_555
Hf11 W5 2.933549 1_655
Hf11 W7 3.077002 1_655
Hf11 W0 3.088672 1_555
Hf11 W1 3.089177 1_554
Hf11 Hf12 3.175162 1_554
Hf11 Hf13 3.175600 1_555
Hf11 Hf6 3.195382 1_655
Hf11 Hf7 3.195674 1_654
Hf11 Hf2 3.222913 1_555
Hf11 Hf15 3.258964 1_655
Hf11 Hf16 3.259301 1_655
Hf11 Hf9 3.455056 1_555
Hf12 W1 2.899587 1_555
Hf12 W2 2.899688 1_555
Hf12 Hf2 3.175162 1_556
Hf12 Hf7 3.258893 1_655
Hf12 Hf4 3.258893 1_555
Hf12 Hf8 3.258964 1_655
Hf12 Hf5 3.258964 1_555
Hf12 Hf13 3.309857 1_555
Hf12 Hf14 3.310579 1_555
Hf13 W2 2.900224 1_555
Hf13 W0 2.900224 1_555
Hf13 Hf9 3.175600 1_555
Hf13 Hf2 3.175600 1_555
Hf13 Hf8 3.259301 1_655
Hf13 Hf6 3.259301 1_655
Hf13 Hf5 3.259301 1_555
Hf13 Hf3 3.259301 1_555
Hf13 Hf14 3.309857 1_555
Hf14 W1 2.899587 1_555
Hf14 W0 2.899688 1_555
Hf14 Hf9 3.175162 1_545
Hf14 Hf7 3.258893 1_655
Hf14 Hf4 3.258893 1_555
Hf14 Hf6 3.258964 1_655
Hf14 Hf3 3.258964 1_555
Hf15 W4 2.899587 1_555
Hf15 W5 2.899688 1_555
Hf15 Hf5 3.175162 1_554
Hf15 Hf8 3.175162 1_554
Hf15 Hf4 3.176054 1_554
Hf15 Hf7 3.176054 1_554
Hf15 Hf2 3.258964 1_555
Hf15 Hf16 3.309857 1_555
Hf15 Hf17 3.310579 1_555
Hf16 W3 2.900224 1_555
Hf16 W5 2.900224 1_555
Hf16 Hf5 3.175600 1_555
Hf16 Hf8 3.175600 1_555
Hf16 Hf3 3.175600 1_555
Hf16 Hf6 3.175600 1_555
Hf16 Hf2 3.259301 1_555
Hf16 Hf9 3.259301 1_455
Hf16 Hf17 3.309857 1_555
Hf17 W4 2.899587 1_555
Hf17 W3 2.899688 1_555
Hf17 Hf3 3.175162 1_565
Hf17 Hf6 3.175162 1_565
Hf17 Hf4 3.176054 1_565
Hf17 Hf7 3.176054 1_565
Hf17 Hf9 3.258964 1_455
Fe0 Hf1 2.563682 1_555
Fe0 Hf10 2.563682 1_555
Fe0 Hf11 2.564362 1_555
Fe0 Hf9 2.564362 1_555
Fe0 Hf2 2.564362 1_555
Fe0 Hf0 2.564362 1_555
Fe0 Hf12 3.119468 1_554
Fe0 Hf14 3.119468 1_565
Fe0 Hf13 3.119496 1_555
Fe1 Hf4 2.563682 1_555
Fe1 Hf7 2.563682 1_555
Fe1 Hf3 2.564362 1_555
Fe1 Hf6 2.564362 1_555
Fe1 Hf5 2.564362 1_555
Fe1 Hf8 2.564362 1_555
Fe1 Hf17 3.119468 1_545
Fe1 Hf15 3.119468 1_556
Fe1 Hf16 3.119496 1_555
W0 W7 2.705785 1_655
W0 W6 2.705785 1_555
W0 W1 2.933653 1_554
W0 W2 2.934332 1_544
W1 W6 2.705625 1_556
W1 W7 2.705625 1_656
W1 W2 2.933653 1_545
W2 W6 2.705785 1_566
W2 W7 2.705785 1_666
W3 W6 2.705785 1_566
W3 W7 2.705785 1_566
W3 W4 2.933653 1_556
W3 W5 2.934332 1_566
W4 W7 2.705625 1_565
W4 W6 2.705625 1_565
W4 W5 2.933653 1_565
W5 W6 2.705785 1_555
W5 W7 2.705785 1_555
