# generated using pymatgen
data_LaSBr
_symmetry_space_group_name_H-M   'P 1'
_cell_length_a   7.01557027
_cell_length_b   7.19842271
_cell_length_c   14.08718185
_cell_angle_alpha   90.00000000
_cell_angle_beta   90.00000000
_cell_angle_gamma   90.00000000
_symmetry_Int_Tables_number   1
_chemical_formula_structural   LaSBr
_chemical_formula_sum   'La8 S8 Br8'
_cell_volume   711.41733910
_cell_formula_units_Z   8
loop_
 _symmetry_equiv_pos_site_id
 _symmetry_equiv_pos_as_xyz
  1  'x, y, z'
loop_
 _atom_site_type_symbol
 _atom_site_label
 _atom_site_symmetry_multiplicity
 _atom_site_fract_x
 _atom_site_fract_y
 _atom_site_fract_z
 _atom_site_occupancy
  La  La0  1  0.25749450  0.96848448  0.90687067  1
  La  La1  1  0.74250550  0.03151552  0.09312933  1
  La  La2  1  0.24250550  0.46848448  0.09312933  1
  La  La3  1  0.74250550  0.53151552  0.40687067  1
  La  La4  1  0.75749450  0.53151552  0.90687067  1
  La  La5  1  0.25749450  0.46848448  0.59312933  1
  La  La6  1  0.75749450  0.03151552  0.59312933  1
  La  La7  1  0.24250550  0.96848448  0.40687067  1
  S  S0  1  0.99940198  0.74243402  0.52285966  1
  S  S1  1  0.00059802  0.25756598  0.47714034  1
  S  S2  1  0.50059802  0.24243402  0.47714034  1
  S  S3  1  0.00059802  0.75756598  0.02285966  1
  S  S4  1  0.49940198  0.75756598  0.52285966  1
  S  S5  1  0.99940198  0.24243402  0.97714034  1
  S  S6  1  0.49940198  0.25756598  0.97714034  1
  S  S7  1  0.50059802  0.74243402  0.02285966  1
  Br  Br0  1  0.15785398  0.60727141  0.79408796  1
  Br  Br1  1  0.84214602  0.39272859  0.20591204  1
  Br  Br2  1  0.34214602  0.10727141  0.20591204  1
  Br  Br3  1  0.84214602  0.89272859  0.29408796  1
  Br  Br4  1  0.65785398  0.89272859  0.79408796  1
  Br  Br5  1  0.15785398  0.10727141  0.70591204  1
  Br  Br6  1  0.65785398  0.39272859  0.70591204  1
  Br  Br7  1  0.34214602  0.60727141  0.29408796  1
loop_
_geom_bond_atom_site_label_1
_geom_bond_atom_site_label_2
_geom_bond_distance
_geom_bond_site_symmetry_2
La0 S5 2.854333 1_465
La0 S6 2.861886 1_565
La0 S3 2.867611 1_556
La0 S7 2.868167 1_556
La1 S3 2.854333 1_645
La1 S7 2.861886 1_545
La1 S5 2.867611 1_554
La1 S6 2.868167 1_554
La2 S7 2.854333 1_555
La2 S3 2.861886 1_555
La2 S6 2.867611 1_554
La2 S5 2.868167 1_454
La3 S1 2.854333 1_655
La3 S2 2.861886 1_555
La3 S0 2.867611 1_555
La3 S4 2.868167 1_555
La4 S6 2.854333 1_555
La4 S5 2.861886 1_555
La4 S7 2.867611 1_556
La4 S3 2.868167 1_656
La5 S0 2.854333 1_455
La5 S4 2.861886 1_555
La5 S1 2.867611 1_555
La5 S2 2.868167 1_555
La6 S4 2.854333 1_545
La6 S0 2.861886 1_545
La6 S2 2.867611 1_555
La6 S1 2.868167 1_655
La7 S2 2.854333 1_565
La7 S1 2.861886 1_565
La7 S4 2.867611 1_555
La7 S0 2.868167 1_455
S0 S4 3.509476 1_555
S0 S4 3.509476 1_655
S0 S1 3.549221 1_655
S1 S2 3.509476 1_455
S1 S2 3.509476 1_555
S2 S4 3.549221 1_545
S3 S7 3.509476 1_455
S3 S7 3.509476 1_555
S3 S5 3.549221 1_464
S5 S6 3.509476 1_555
S5 S6 3.509476 1_655
S6 S7 3.549221 1_556
Br0 La5 3.082364 1_555
Br0 La0 3.126301 1_555
Br0 La4 3.272722 1_455
Br0 S3 3.574034 1_556
Br0 Br5 3.807527 1_565
Br0 Br5 3.807527 1_555
Br0 S5 3.844813 1_455
Br0 Br6 4.028967 1_455
Br0 Br6 4.028967 1_555
Br0 Br4 4.065333 1_455
Br0 Br4 4.065333 1_555
Br1 La3 3.082364 1_555
Br1 La1 3.126301 1_555
Br1 La2 3.272722 1_655
Br1 S5 3.574034 1_554
Br1 Br3 3.807527 1_545
Br1 Br3 3.807527 1_555
Br1 S3 3.844813 1_655
Br1 Br7 4.028967 1_655
Br1 Br7 4.028967 1_555
Br1 Br2 4.065333 1_655
Br1 Br2 4.065333 1_555
Br2 La7 3.082364 1_545
Br2 La2 3.126301 1_555
Br2 La1 3.272722 1_555
Br2 S6 3.574034 1_554
Br2 Br7 3.807527 1_545
Br2 Br7 3.807527 1_555
Br2 S7 3.844813 1_545
Br2 Br3 4.028967 1_545
Br2 Br3 4.028967 1_445
Br3 La1 3.082364 1_565
Br3 La3 3.126301 1_555
Br3 La7 3.272722 1_655
Br3 S0 3.574034 1_555
Br3 S1 3.844813 1_665
Br3 Br7 4.065333 1_655
Br3 Br7 4.065333 1_555
Br4 La6 3.082364 1_565
Br4 La4 3.126301 1_555
Br4 La0 3.272722 1_555
Br4 S7 3.574034 1_556
Br4 Br6 3.807527 1_565
Br4 Br6 3.807527 1_555
Br4 S6 3.844813 1_565
Br4 Br5 4.028967 1_665
Br4 Br5 4.028967 1_565
Br5 La0 3.082364 1_545
Br5 La5 3.126301 1_555
Br5 La6 3.272722 1_455
Br5 S1 3.574034 1_555
Br5 S0 3.844813 1_445
Br5 Br6 4.065333 1_455
Br5 Br6 4.065333 1_555
Br6 La4 3.082364 1_555
Br6 La6 3.126301 1_555
Br6 La5 3.272722 1_555
Br6 S2 3.574034 1_555
Br6 S4 3.844813 1_555
Br7 La2 3.082364 1_555
Br7 La7 3.126301 1_555
Br7 La3 3.272722 1_555
Br7 S4 3.574034 1_555
Br7 S2 3.844813 1_555
