# generated using pymatgen
data_KBS2
_symmetry_space_group_name_H-M   'P 1'
_cell_length_a   9.45280665
_cell_length_b   9.45280665
_cell_length_c   9.45280662
_cell_angle_alpha   111.41248956
_cell_angle_beta   111.41248956
_cell_angle_gamma   111.41248342
_symmetry_Int_Tables_number   1
_chemical_formula_structural   KBS2
_chemical_formula_sum   'K6 B6 S12'
_cell_volume   598.95470553
_cell_formula_units_Z   6
loop_
 _symmetry_equiv_pos_site_id
 _symmetry_equiv_pos_as_xyz
  1  'x, y, z'
loop_
 _atom_site_type_symbol
 _atom_site_label
 _atom_site_symmetry_multiplicity
 _atom_site_fract_x
 _atom_site_fract_y
 _atom_site_fract_z
 _atom_site_occupancy
  K  K0  1  0.25000000  0.70155324  0.79844676  1
  K  K1  1  0.79844676  0.25000000  0.70155324  1
  K  K2  1  0.70155324  0.79844676  0.25000000  1
  K  K3  1  0.75000000  0.29844676  0.20155324  1
  K  K4  1  0.20155324  0.75000000  0.29844676  1
  K  K5  1  0.29844676  0.20155324  0.75000000  1
  B  B0  1  0.25000000  0.36513215  0.13486785  1
  B  B1  1  0.13486785  0.25000000  0.36513215  1
  B  B2  1  0.36513215  0.13486785  0.25000000  1
  B  B3  1  0.75000000  0.63486785  0.86513215  1
  B  B4  1  0.86513215  0.75000000  0.63486785  1
  B  B5  1  0.63486785  0.86513215  0.75000000  1
  S  S0  1  0.86932579  0.63067421  0.75000000  1
  S  S1  1  0.63067421  0.75000000  0.86932579  1
  S  S2  1  0.75000000  0.86932579  0.63067421  1
  S  S3  1  0.13067421  0.36932579  0.25000000  1
  S  S4  1  0.36932579  0.25000000  0.13067421  1
  S  S5  1  0.25000000  0.13067421  0.36932579  1
  S  S6  1  0.52161021  0.97838979  0.75000000  1
  S  S7  1  0.97838979  0.75000000  0.52161021  1
  S  S8  1  0.75000000  0.52161021  0.97838979  1
  S  S9  1  0.47838979  0.02161021  0.25000000  1
  S  S10  1  0.02161021  0.25000000  0.47838979  1
  S  S11  1  0.25000000  0.47838979  0.02161021  1
loop_
_geom_bond_atom_site_label_1
_geom_bond_atom_site_label_2
_geom_bond_distance
_geom_bond_site_symmetry_2
K0 S1 3.227958 1_555
K0 S0 3.227958 1_455
K0 S7 3.236899 1_455
K0 S6 3.236899 1_555
K0 S9 3.332695 1_566
K0 S10 3.332695 1_555
K0 S11 3.485602 1_556
K1 S2 3.227958 1_545
K1 S0 3.227958 1_555
K1 S8 3.236899 1_555
K1 S6 3.236899 1_545
K1 S9 3.332695 1_555
K1 S11 3.332695 1_656
K1 S10 3.485602 1_655
K2 S1 3.227958 1_554
K2 S2 3.227958 1_555
K2 S8 3.236899 1_554
K2 S7 3.236899 1_555
K2 S10 3.332695 1_665
K2 S11 3.332695 1_555
K2 S9 3.485602 1_565
K3 S4 3.227958 1_555
K3 S3 3.227958 1_655
K3 S10 3.236899 1_655
K3 S9 3.236899 1_555
K3 S6 3.332695 1_544
K3 S7 3.332695 1_555
K3 S8 3.485602 1_554
K4 S5 3.227958 1_565
K4 S3 3.227958 1_555
K4 S11 3.236899 1_555
K4 S9 3.236899 1_565
K4 S6 3.332695 1_555
K4 S8 3.332695 1_454
K4 S7 3.485602 1_455
K5 S4 3.227958 1_556
K5 S5 3.227958 1_555
K5 S10 3.236899 1_555
K5 S11 3.236899 1_556
K5 S7 3.332695 1_445
K5 S8 3.332695 1_555
K5 S6 3.485602 1_545
B0 S11 1.768977 1_555
B0 S4 1.831884 1_555
B0 S3 1.831884 1_555
B1 S10 1.768977 1_555
B1 S5 1.831884 1_555
B1 S3 1.831884 1_555
B2 S9 1.768977 1_555
B2 S4 1.831884 1_555
B2 S5 1.831884 1_555
B3 S8 1.768977 1_555
B3 S1 1.831884 1_555
B3 S0 1.831884 1_555
B4 S7 1.768977 1_555
B4 S2 1.831884 1_555
B4 S0 1.831884 1_555
B5 S6 1.768977 1_555
B5 S1 1.831884 1_555
B5 S2 1.831884 1_555
