# generated using pymatgen
data_Li3Ni7O12
_symmetry_space_group_name_H-M   'P 1'
_cell_length_a   4.97577100
_cell_length_b   4.98018003
_cell_length_c   28.64871193
_cell_angle_alpha   90.16986170
_cell_angle_beta   90.06156624
_cell_angle_gamma   119.73201270
_symmetry_Int_Tables_number   1
_chemical_formula_structural   Li3Ni7O12
_chemical_formula_sum   'Li9 Ni21 O36'
_cell_volume   616.45849165
_cell_formula_units_Z   3
loop_
 _symmetry_equiv_pos_site_id
 _symmetry_equiv_pos_as_xyz
  1  'x, y, z'
loop_
 _atom_site_type_symbol
 _atom_site_label
 _atom_site_symmetry_multiplicity
 _atom_site_fract_x
 _atom_site_fract_y
 _atom_site_fract_z
 _atom_site_occupancy
  Li  Li0  1  0.83341700  0.66801400  0.00151800  1
  Li  Li1  1  0.84029500  0.66023200  0.49892100  1
  Li  Li2  1  0.83298600  0.33491300  0.33453300  1
  Li  Li3  1  0.83318900  0.32639100  0.83221600  1
  Li  Li4  1  0.82914800  0.99495100  0.16583400  1
  Li  Li5  1  0.16600000  0.99741100  0.08362900  1
  Li  Li6  1  0.16299000  0.66685700  0.66790200  1
  Li  Li7  1  0.16688700  0.66668700  0.41666900  1
  Li  Li8  1  0.16182400  0.32283800  0.74997500  1
  Ni  Ni0  1  0.84133300  0.67492000  0.75029900  1
  Ni  Ni1  1  0.83303400  0.66868400  0.24988000  1
  Ni  Ni2  1  0.84227300  0.33692800  0.08306800  1
  Ni  Ni3  1  0.82929400  0.32711700  0.58349200  1
  Ni  Ni4  1  0.84369400  0.00471000  0.41666200  1
  Ni  Ni5  1  0.83310900  0.00042300  0.91662800  1
  Ni  Ni6  1  0.49053400  0.32812100  0.91669100  1
  Ni  Ni7  1  0.49278900  0.32991300  0.41668900  1
  Ni  Ni8  1  0.48751800  0.33130800  0.66867700  1
  Ni  Ni9  1  0.49352400  0.32385000  0.16485300  1
  Ni  Ni10  1  0.49059400  0.99549400  0.25002700  1
  Ni  Ni11  1  0.50105200  0.99886600  0.75025200  1
  Ni  Ni12  1  0.49169100  0.00296200  0.00162000  1
  Ni  Ni13  1  0.49187000  0.99322700  0.49800900  1
  Ni  Ni14  1  0.49696500  0.66571200  0.58317600  1
  Ni  Ni15  1  0.49033600  0.66127100  0.08300500  1
  Ni  Ni16  1  0.49285700  0.67171100  0.33510400  1
  Ni  Ni17  1  0.16251200  0.00389400  0.58325900  1
  Ni  Ni18  1  0.49534200  0.65697000  0.83177500  1
  Ni  Ni19  1  0.16226900  0.66453800  0.91653300  1
  Ni  Ni20  1  0.16237900  0.33240700  0.24997300  1
  O  O0  1  0.80367700  0.63155200  0.62014600  1
  O  O1  1  0.79710300  0.63470700  0.11944200  1
  O  O2  1  0.80485900  0.63200000  0.87954900  1
  O  O3  1  0.79739200  0.66069200  0.38023000  1
  O  O4  1  0.79535200  0.33086600  0.95490300  1
  O  O5  1  0.79777800  0.30093000  0.45322100  1
  O  O6  1  0.80011700  0.29858600  0.21252000  1
  O  O7  1  0.80747800  0.34490900  0.71362200  1
  O  O8  1  0.53813600  0.34291900  0.04539400  1
  O  O9  1  0.54124900  0.36177600  0.78761600  1
  O  O10  1  0.53008300  0.32818200  0.54361400  1
  O  O11  1  0.51510700  0.37084800  0.28858600  1
  O  O12  1  0.79853600  0.00107700  0.28808700  1
  O  O13  1  0.80298200  0.97369400  0.78719900  1
  O  O14  1  0.81796800  0.98776300  0.54852200  1
  O  O15  1  0.79590800  0.99240100  0.04668100  1
  O  O16  1  0.53897700  0.01391400  0.37922900  1
  O  O17  1  0.54116800  0.02903600  0.12102500  1
  O  O18  1  0.52064800  0.98335500  0.87713800  1
  O  O19  1  0.46086300  0.00246800  0.62276600  1
  O  O20  1  0.16830100  0.99116600  0.95210000  1
  O  O21  1  0.17626600  0.01481100  0.45265800  1
  O  O22  1  0.52780500  0.67530900  0.71285900  1
  O  O23  1  0.16912000  0.01274600  0.21437700  1
  O  O24  1  0.54309400  0.69384800  0.45465100  1
  O  O25  1  0.51460600  0.64778700  0.21032300  1
  O  O26  1  0.18364800  0.98485400  0.71354600  1
  O  O27  1  0.50631400  0.69895800  0.95532600  1
  O  O28  1  0.17165300  0.65950000  0.28560500  1
  O  O29  1  0.17966500  0.68559500  0.78597400  1
  O  O30  1  0.18847500  0.69749600  0.54576900  1
  O  O31  1  0.17307600  0.66083200  0.04704700  1
  O  O32  1  0.17768500  0.34665700  0.61883900  1
  O  O33  1  0.17544500  0.34653100  0.11903200  1
  O  O34  1  0.17374400  0.34812500  0.88070500  1
  O  O35  1  0.17582300  0.32947500  0.38053100  1
loop_
_geom_bond_atom_site_label_1
_geom_bond_atom_site_label_2
_geom_bond_distance
_geom_bond_site_symmetry_2
Li0 O8 2.004135 1_555
Li0 O4 2.075881 1_554
Li0 O15 2.146150 1_555
Li0 O31 2.148120 1_655
Li0 O27 2.160879 1_554
Li0 O20 2.174773 1_654
Li1 O24 2.016485 1_555
Li1 O10 2.059505 1_555
Li1 O30 2.124104 1_655
Li1 O5 2.137948 1_555
Li1 O21 2.181765 1_665
Li1 O14 2.204230 1_555
Li2 O16 2.007950 1_555
Li2 O12 2.065856 1_555
Li2 O11 2.131707 1_555
Li2 O3 2.156500 1_555
Li2 O35 2.165297 1_655
Li2 O28 2.175813 1_655
Li3 O9 2.006249 1_555
Li3 O18 2.091744 1_545
Li3 O2 2.091916 1_555
Li3 O13 2.120241 1_545
Li3 O34 2.150577 1_655
Li3 O29 2.210714 1_655
Li4 O17 1.992140 1_565
Li4 O6 2.073996 1_565
Li4 O25 2.096802 1_555
Li4 O23 2.156151 1_665
Li4 O1 2.170769 1_555
Li4 O33 2.204302 1_665
Li5 O31 1.989354 1_555
Li5 O33 1.990557 1_565
Li5 O17 2.088163 1_565
Li5 O1 2.100252 1_455
Li5 O8 2.108208 1_565
Li5 O15 2.112404 1_455
Li6 O26 2.013581 1_555
Li6 O19 2.054797 1_565
Li6 O7 2.149358 1_455
Li6 O32 2.150939 1_555
Li6 O0 2.186481 1_455
Li6 O22 2.207841 1_555
Li7 O35 1.989472 1_555
Li7 O21 1.995006 1_565
Li7 O16 2.099584 1_565
Li7 O3 2.100498 1_455
Li7 O24 2.109506 1_555
Li7 O5 2.117736 1_455
Li8 O26 2.026165 1_545
Li8 O29 2.040828 1_555
Li8 O13 2.069870 1_445
Li8 O22 2.091107 1_555
Li8 O7 2.096276 1_455
Li8 O9 2.096668 1_555
Ni0 O9 1.873002 1_555
Ni0 O7 1.883708 1_555
Ni0 O22 1.893051 1_555
Ni0 O13 1.908058 1_555
Ni0 O29 1.946446 1_655
Ni0 O26 1.948859 1_655
Ni1 O11 1.902194 1_555
Ni1 O25 1.907195 1_555
Ni1 O23 1.984667 1_665
Ni1 O28 1.990342 1_655
Ni1 O12 2.058969 1_565
Ni1 O6 2.063519 1_555
Ni2 O8 1.870132 1_555
Ni2 O17 1.874316 1_555
Ni2 O1 1.912495 1_555
Ni2 O15 1.918371 1_545
Ni2 O33 1.931193 1_655
Ni2 O31 1.938101 1_655
Ni3 O10 1.877760 1_555
Ni3 O0 1.897407 1_555
Ni3 O14 1.938682 1_545
Ni3 O32 1.966802 1_655
Ni3 O19 2.077509 1_555
Ni3 O30 2.123803 1_655
Ni4 O16 1.875302 1_555
Ni4 O24 1.880183 1_545
Ni4 O5 1.910795 1_555
Ni4 O3 1.917059 1_545
Ni4 O21 1.928162 1_655
Ni4 O35 1.944444 1_655
Ni5 O18 1.889157 1_545
Ni5 O27 1.928595 1_545
Ni5 O20 1.972164 1_645
Ni5 O34 2.008376 1_655
Ni5 O4 2.059683 1_555
Ni5 O2 2.060827 1_545
Ni6 O4 1.864076 1_555
Ni6 O2 1.879911 1_555
Ni6 O34 1.926215 1_555
Ni6 O20 1.939238 1_545
Ni6 O27 2.118000 1_555
Ni6 O18 2.120981 1_545
Ni7 O35 1.885078 1_555
Ni7 O21 1.888524 1_555
Ni7 O5 1.906284 1_555
Ni7 O3 1.907605 1_555
Ni7 O16 2.007592 1_555
Ni7 O24 2.016978 1_555
Ni8 O7 2.021206 1_555
Ni8 O19 2.049633 1_555
Ni8 O22 2.055066 1_555
Ni8 O0 2.080266 1_555
Ni8 O26 2.084509 1_545
Ni8 O32 2.129309 1_555
Ni9 O1 2.016820 1_555
Ni9 O17 2.030619 1_555
Ni9 O25 2.032223 1_555
Ni9 O6 2.096396 1_555
Ni9 O33 2.101098 1_555
Ni9 O23 2.134558 1_555
Ni10 O12 1.868539 1_565
Ni10 O6 1.874117 1_565
Ni10 O28 1.933129 1_555
Ni10 O23 1.934548 1_565
Ni10 O11 2.119168 1_565
Ni10 O25 2.121445 1_555
Ni11 O26 1.868596 1_555
Ni11 O29 1.891289 1_555
Ni11 O13 1.891372 1_555
Ni11 O7 1.950332 1_565
Ni11 O22 1.991149 1_555
Ni11 O9 2.020365 1_565
Ni12 O15 2.008929 1_545
Ni12 O8 2.022672 1_555
Ni12 O27 2.038140 1_544
Ni12 O4 2.076270 1_554
Ni12 O31 2.109143 1_545
Ni12 O20 2.122782 1_544
Ni13 O5 2.003450 1_565
Ni13 O30 2.032557 1_555
Ni13 O24 2.048780 1_555
Ni13 O10 2.048847 1_565
Ni13 O21 2.080757 1_565
Ni13 O14 2.183280 1_555
Ni14 O14 1.892373 1_555
Ni14 O32 1.897833 1_555
Ni14 O0 1.932592 1_555
Ni14 O30 1.941169 1_555
Ni14 O10 2.097913 1_555
Ni14 O19 2.102225 1_565
Ni15 O31 1.883163 1_555
Ni15 O33 1.885263 1_555
Ni15 O1 1.906506 1_555
Ni15 O15 1.908075 1_555
Ni15 O8 2.023781 1_555
Ni15 O17 2.032977 1_565
Ni16 O3 2.012253 1_555
Ni16 O16 2.038079 1_565
Ni16 O11 2.046062 1_555
Ni16 O12 2.088350 1_565
Ni16 O35 2.106622 1_555
Ni16 O28 2.113583 1_555
Ni17 O19 1.868633 1_555
Ni17 O30 1.919579 1_545
Ni17 O14 1.948112 1_445
Ni17 O32 1.954565 1_555
Ni17 O10 2.080586 1_555
Ni17 O0 2.115395 1_445
Ni18 O13 2.020707 1_555
Ni18 O18 2.032489 1_555
Ni18 O9 2.033858 1_555
Ni18 O29 2.104288 1_555
Ni18 O2 2.108794 1_555
Ni18 O34 2.113691 1_555
Ni19 O34 1.902555 1_555
Ni19 O20 1.904437 1_555
Ni19 O27 1.974539 1_555
Ni19 O2 2.005157 1_455
Ni19 O18 2.044802 1_555
Ni19 O4 2.075772 1_455
Ni20 O28 1.900854 1_555
Ni20 O23 1.902328 1_555
Ni20 O11 2.000502 1_555
Ni20 O25 2.028135 1_555
Ni20 O6 2.030371 1_455
Ni20 O12 2.060208 1_455
