# generated using pymatgen
data_LaScGe
_symmetry_space_group_name_H-M   'P 1'
_cell_length_a   8.74801496
_cell_length_b   8.74802272
_cell_length_c   8.74781178
_cell_angle_alpha   151.05261822
_cell_angle_beta   151.05258183
_cell_angle_gamma   41.39423495
_symmetry_Int_Tables_number   1
_chemical_formula_structural   LaScGe
_chemical_formula_sum   'La2 Sc2 Ge2'
_cell_volume   156.48079868
_cell_formula_units_Z   2
loop_
 _symmetry_equiv_pos_site_id
 _symmetry_equiv_pos_as_xyz
  1  'x, y, z'
loop_
 _atom_site_type_symbol
 _atom_site_label
 _atom_site_symmetry_multiplicity
 _atom_site_fract_x
 _atom_site_fract_y
 _atom_site_fract_z
 _atom_site_occupancy
  La  La0  1  0.67720993  0.67721004  0.00000149  1
  La  La1  1  0.32291794  0.32291787  0.00001010  1
  Sc  Sc0  1  -0.00006822  0.49993205  0.49999742  1
  Sc  Sc1  1  0.49993191  -0.00006851  0.49999700  1
  Ge  Ge0  1  0.88140512  0.88140517  -0.00008605  1
  Ge  Ge1  1  0.11860331  0.11860339  0.00008004  1
loop_
_geom_bond_atom_site_label_1
_geom_bond_atom_site_label_2
_geom_bond_distance
_geom_bond_site_symmetry_2
La0 Sc1 3.632845 1_565
La0 Sc0 3.632851 1_655
La0 Sc0 3.633195 1_554
La0 Sc1 3.633199 1_554
La0 La1 3.904616 1_655
La0 La1 3.904620 1_565
La0 La1 3.904759 1_554
La0 La1 3.905316 1_666
La1 Sc1 3.629528 1_554
La1 Sc0 3.629532 1_554
La1 Sc0 3.629831 1_655
La1 Sc1 3.629833 1_565
Sc0 Sc1 3.091791 1_465
Sc0 Sc1 3.091795 1_555
Sc0 Sc1 3.092322 1_566
Sc0 Sc1 3.092325 1_454
Ge0 Sc0 2.922224 1_654
Ge0 Sc1 2.922228 1_564
Ge0 Sc1 2.922779 1_665
Ge0 Sc0 2.922781 1_665
Ge0 La1 3.236822 1_565
Ge0 La1 3.236825 1_655
Ge0 La1 3.237171 1_554
Ge0 La1 3.237489 1_666
Ge0 La0 3.342753 1_555
Ge1 Sc0 2.923802 1_555
Ge1 Sc1 2.923806 1_555
Ge1 Sc1 2.924354 1_454
Ge1 Sc0 2.924355 1_544
Ge1 La0 3.237358 1_545
Ge1 La0 3.237361 1_455
Ge1 La0 3.237759 1_556
Ge1 La0 3.237973 1_444
Ge1 La1 3.344563 1_555
