# generated using pymatgen
data_Tb7MnBr12
_symmetry_space_group_name_H-M   'P 1'
_cell_length_a   9.12430855
_cell_length_b   9.12430790
_cell_length_c   9.12430930
_cell_angle_alpha   106.80453118
_cell_angle_beta   106.80453501
_cell_angle_gamma   106.80453785
_symmetry_Int_Tables_number   1
_chemical_formula_structural   Tb7MnBr12
_chemical_formula_sum   'Tb7 Mn1 Br12'
_cell_volume   635.96695513
_cell_formula_units_Z   1
loop_
 _symmetry_equiv_pos_site_id
 _symmetry_equiv_pos_as_xyz
  1  'x, y, z'
loop_
 _atom_site_type_symbol
 _atom_site_label
 _atom_site_symmetry_multiplicity
 _atom_site_fract_x
 _atom_site_fract_y
 _atom_site_fract_z
 _atom_site_occupancy
  Tb  Tb0  1  0.00000000  0.00000000  0.00000000  1
  Tb  Tb1  1  0.59747378  0.52135551  0.80477526  1
  Tb  Tb2  1  0.52135551  0.80477526  0.59747378  1
  Tb  Tb3  1  0.80477526  0.59747378  0.52135551  1
  Tb  Tb4  1  0.40252622  0.47864449  0.19522474  1
  Tb  Tb5  1  0.47864449  0.19522474  0.40252622  1
  Tb  Tb6  1  0.19522474  0.40252622  0.47864449  1
  Mn  Mn0  1  0.50000000  0.50000000  0.50000000  1
  Br  Br0  1  0.57129548  0.17911363  0.72557281  1
  Br  Br1  1  0.17911363  0.72557281  0.57129548  1
  Br  Br2  1  0.72557281  0.57129548  0.17911363  1
  Br  Br3  1  0.42870452  0.82088637  0.27442719  1
  Br  Br4  1  0.82088637  0.27442719  0.42870452  1
  Br  Br5  1  0.27442719  0.42870452  0.82088637  1
  Br  Br6  1  0.66475317  0.88527750  0.96425068  1
  Br  Br7  1  0.88527750  0.96425068  0.66475317  1
  Br  Br8  1  0.96425068  0.66475317  0.88527750  1
  Br  Br9  1  0.33524683  0.11472250  0.03574932  1
  Br  Br10  1  0.11472250  0.03574932  0.33524683  1
  Br  Br11  1  0.03574932  0.33524683  0.11472250  1
loop_
_geom_bond_atom_site_label_1
_geom_bond_atom_site_label_2
_geom_bond_distance
_geom_bond_site_symmetry_2
Mn0 Tb5 2.592023 1_555
Mn0 Tb2 2.592023 1_555
Mn0 Tb3 2.592023 1_555
Mn0 Tb6 2.592023 1_555
Mn0 Tb4 2.592023 1_555
Mn0 Tb1 2.592023 1_555
Br0 Tb5 2.882026 1_555
Br0 Tb1 2.914574 1_555
Br0 Tb2 3.118290 1_545
Br0 Br7 3.987059 1_545
Br0 Br6 4.035104 1_545
Br1 Tb6 2.882026 1_555
Br1 Tb2 2.914574 1_555
Br1 Tb3 3.118290 1_455
Br1 Br8 3.987059 1_455
Br1 Br7 4.035104 1_455
Br2 Tb4 2.882026 1_555
Br2 Tb3 2.914574 1_555
Br2 Tb1 3.118290 1_554
Br2 Br6 3.987059 1_554
Br2 Br8 4.035104 1_554
Br3 Tb2 2.882026 1_555
Br3 Tb4 2.914574 1_555
Br3 Tb5 3.118290 1_565
Br3 Br9 4.035104 1_565
Br4 Tb3 2.882026 1_555
Br4 Tb5 2.914574 1_555
Br4 Tb6 3.118290 1_655
Br5 Tb1 2.882026 1_555
Br5 Tb6 2.914574 1_555
Br5 Tb4 3.118290 1_556
Br5 Br9 3.987059 1_556
Br6 Tb0 2.816592 1_666
Br6 Tb2 2.990355 1_555
Br6 Tb1 3.005200 1_555
Br7 Tb0 2.816592 1_666
Br7 Tb3 2.990355 1_555
Br7 Tb2 3.005200 1_555
Br8 Tb0 2.816592 1_666
Br8 Tb1 2.990355 1_555
Br8 Tb3 3.005201 1_555
Br9 Tb0 2.816592 1_555
Br9 Tb5 2.990355 1_555
Br9 Tb4 3.005200 1_555
Br10 Tb0 2.816592 1_555
Br10 Tb6 2.990355 1_555
Br10 Tb5 3.005200 1_555
Br10 Br3 3.987059 1_545
Br10 Br4 4.035104 1_455
Br11 Tb0 2.816592 1_555
Br11 Tb4 2.990355 1_555
Br11 Tb6 3.005201 1_555
Br11 Br4 3.987059 1_455
Br11 Br5 4.035104 1_554
