# generated using pymatgen
data_CeSe2
_symmetry_space_group_name_H-M   'P 1'
_cell_length_a   16.69883571
_cell_length_b   16.69883571
_cell_length_c   16.69883571
_cell_angle_alpha   109.47122039
_cell_angle_beta   109.47122076
_cell_angle_gamma   109.47122076
_symmetry_Int_Tables_number   1
_chemical_formula_structural   CeSe2
_chemical_formula_sum   'Ce24 Se48'
_cell_volume   3584.56685675
_cell_formula_units_Z   24
loop_
 _symmetry_equiv_pos_site_id
 _symmetry_equiv_pos_as_xyz
  1  'x, y, z'
loop_
 _atom_site_type_symbol
 _atom_site_label
 _atom_site_symmetry_multiplicity
 _atom_site_fract_x
 _atom_site_fract_y
 _atom_site_fract_z
 _atom_site_occupancy
  Ce  Ce0  1  0.68040189  0.30641286  0.86887514  1
  Ce  Ce1  1  0.06246228  0.19358714  0.37398904  1
  Ce  Ce2  1  0.81959811  0.18847325  0.12601096  1
  Ce  Ce3  1  0.43753772  0.31152675  0.63112486  1
  Ce  Ce4  1  0.18847325  0.62601096  0.31959811  1
  Ce  Ce5  1  0.31152675  0.13112486  0.93753772  1
  Ce  Ce6  1  0.30641286  0.36887514  0.18040189  1
  Ce  Ce7  1  0.19358714  0.87398904  0.56246228  1
  Ce  Ce8  1  0.13112486  0.43753772  0.81152675  1
  Ce  Ce9  1  0.62601096  0.81959811  0.68847325  1
  Ce  Ce10  1  0.87398904  0.06246228  0.69358714  1
  Ce  Ce11  1  0.36887514  0.68040189  0.80641286  1
  Ce  Ce12  1  0.31959811  0.69358714  0.13112486  1
  Ce  Ce13  1  0.93753772  0.80641286  0.62601096  1
  Ce  Ce14  1  0.18040189  0.81152675  0.87398904  1
  Ce  Ce15  1  0.56246228  0.68847325  0.36887514  1
  Ce  Ce16  1  0.81152675  0.37398904  0.68040189  1
  Ce  Ce17  1  0.68847325  0.86887514  0.06246228  1
  Ce  Ce18  1  0.69358714  0.63112486  0.81959811  1
  Ce  Ce19  1  0.80641286  0.12601096  0.43753772  1
  Ce  Ce20  1  0.86887514  0.56246228  0.18847325  1
  Ce  Ce21  1  0.37398904  0.18040189  0.31152675  1
  Ce  Ce22  1  0.12601096  0.93753772  0.30641286  1
  Ce  Ce23  1  0.63112486  0.31959811  0.19358714  1
  Se  Se0  1  0.76611997  0.25906916  0.75977508  1
  Se  Se1  1  0.00070593  0.24093084  0.50705082  1
  Se  Se2  1  0.73388003  0.99365511  0.99294918  1
  Se  Se3  1  0.49929407  0.50634489  0.74022492  1
  Se  Se4  1  0.99365511  0.49294918  0.23388003  1
  Se  Se5  1  0.50634489  0.24022492  -0.00070593  1
  Se  Se6  1  0.25906916  0.25977508  0.26611997  1
  Se  Se7  1  0.24093084  0.00705082  0.50070593  1
  Se  Se8  1  0.24022492  0.49929407  0.00634489  1
  Se  Se9  1  0.49294918  0.73388003  0.49365511  1
  Se  Se10  1  0.00705082  0.00070593  0.74093084  1
  Se  Se11  1  0.25977508  0.76611997  0.75906916  1
  Se  Se12  1  0.23388003  0.74093084  0.24022492  1
  Se  Se13  1  -0.00070593  0.75906916  0.49294918  1
  Se  Se14  1  0.26611997  0.00634489  0.00705082  1
  Se  Se15  1  0.50070593  0.49365511  0.25977508  1
  Se  Se16  1  0.00634489  0.50705082  0.76611997  1
  Se  Se17  1  0.49365511  0.75977508  0.00070593  1
  Se  Se18  1  0.74093084  0.74022492  0.73388003  1
  Se  Se19  1  0.75906916  0.99294918  0.49929407  1
  Se  Se20  1  0.75977508  0.50070593  0.99365511  1
  Se  Se21  1  0.50705082  0.26611997  0.50634489  1
  Se  Se22  1  0.99294918  -0.00070593  0.25906916  1
  Se  Se23  1  0.74022492  0.23388003  0.24093084  1
  Se  Se24  1  0.48657115  0.23657115  0.75000000  1
  Se  Se25  1  0.01342885  0.26342885  0.25000000  1
  Se  Se26  1  0.26342885  0.75000000  0.51342885  1
  Se  Se27  1  0.23657115  0.25000000  0.98657115  1
  Se  Se28  1  0.25000000  0.48657115  0.73657115  1
  Se  Se29  1  0.75000000  0.01342885  0.76342885  1
  Se  Se30  1  0.51342885  0.76342885  0.25000000  1
  Se  Se31  1  0.98657115  0.73657115  0.75000000  1
  Se  Se32  1  0.73657115  0.25000000  0.48657115  1
  Se  Se33  1  0.76342885  0.75000000  0.01342885  1
  Se  Se34  1  0.75000000  0.51342885  0.26342885  1
  Se  Se35  1  0.25000000  0.98657115  0.23657115  1
  Se  Se36  1  0.75000000  0.24649687  0.99649687  1
  Se  Se37  1  0.25000000  0.25350313  0.50350313  1
  Se  Se38  1  0.24649687  0.49649687  0.25000000  1
  Se  Se39  1  0.25350313  0.00350313  0.75000000  1
  Se  Se40  1  0.00350313  0.25000000  0.75350313  1
  Se  Se41  1  0.49649687  0.75000000  0.74649687  1
  Se  Se42  1  0.25000000  0.75350313  0.00350313  1
  Se  Se43  1  0.75000000  0.74649687  0.49649687  1
  Se  Se44  1  0.75350313  0.50350313  0.75000000  1
  Se  Se45  1  0.74649687  0.99649687  0.25000000  1
  Se  Se46  1  0.99649687  0.75000000  0.24649687  1
  Se  Se47  1  0.50350313  0.25000000  0.25350313  1
loop_
_geom_bond_atom_site_label_1
_geom_bond_atom_site_label_2
_geom_bond_distance
_geom_bond_site_symmetry_2
Ce0 Se20 2.722138 1_555
Ce0 Se24 2.726489 1_555
Ce0 Se36 2.727457 1_555
Ce0 Se0 2.743310 1_555
Ce1 Se22 2.722138 1_455
Ce1 Se25 2.726490 1_555
Ce1 Se37 2.727457 1_555
Ce1 Se1 2.743310 1_555
Ce2 Se23 2.722138 1_555
Ce2 Se25 2.726489 1_655
Ce2 Se36 2.727457 1_554
Ce2 Se2 2.743310 1_544
Ce3 Se21 2.722138 1_555
Ce3 Se24 2.726489 1_555
Ce3 Se37 2.727457 1_555
Ce3 Se3 2.743310 1_555
Ce4 Se12 2.722138 1_555
Ce4 Se26 2.726490 1_555
Ce4 Se38 2.727457 1_555
Ce4 Se4 2.743310 1_455
Ce5 Se14 2.722138 1_556
Ce5 Se27 2.726489 1_555
Ce5 Se39 2.727457 1_555
Ce5 Se5 2.743310 1_556
Ce6 Se15 2.722138 1_555
Ce6 Se27 2.726489 1_554
Ce6 Se38 2.727457 1_555
Ce6 Se6 2.743310 1_555
Ce7 Se13 2.722138 1_555
Ce7 Se26 2.726490 1_555
Ce7 Se39 2.727457 1_565
Ce7 Se7 2.743310 1_565
Ce8 Se16 2.722138 1_555
Ce8 Se28 2.726489 1_555
Ce8 Se40 2.727457 1_555
Ce8 Se8 2.743310 1_556
Ce9 Se18 2.722138 1_555
Ce9 Se29 2.726489 1_565
Ce9 Se41 2.727457 1_555
Ce9 Se9 2.743310 1_555
Ce10 Se19 2.722138 1_545
Ce10 Se29 2.726490 1_555
Ce10 Se40 2.727457 1_655
Ce10 Se10 2.743310 1_655
Ce11 Se17 2.722138 1_556
Ce11 Se28 2.726489 1_555
Ce11 Se41 2.727457 1_555
Ce11 Se11 2.743310 1_555
Ce12 Se8 2.722138 1_555
Ce12 Se30 2.726489 1_555
Ce12 Se42 2.727457 1_555
Ce12 Se12 2.743310 1_555
Ce13 Se10 2.722138 1_665
Ce13 Se31 2.726490 1_555
Ce13 Se43 2.727457 1_555
Ce13 Se13 2.743310 1_655
Ce14 Se11 2.722138 1_555
Ce14 Se31 2.726489 1_455
Ce14 Se42 2.727457 1_556
Ce14 Se14 2.743310 1_566
Ce15 Se9 2.722138 1_555
Ce15 Se30 2.726489 1_555
Ce15 Se43 2.727457 1_555
Ce15 Se15 2.743310 1_555
Ce16 Se0 2.722138 1_555
Ce16 Se32 2.726490 1_555
Ce16 Se44 2.727457 1_555
Ce16 Se16 2.743310 1_655
Ce17 Se2 2.722138 1_554
Ce17 Se33 2.726489 1_555
Ce17 Se45 2.727457 1_555
Ce17 Se17 2.743310 1_555
Ce18 Se3 2.722138 1_555
Ce18 Se33 2.726489 1_556
Ce18 Se44 2.727457 1_555
Ce18 Se18 2.743310 1_555
Ce19 Se1 2.722138 1_655
Ce19 Se32 2.726490 1_555
Ce19 Se45 2.727457 1_545
Ce19 Se19 2.743310 1_545
Ce20 Se4 2.722138 1_555
Ce20 Se34 2.726489 1_555
Ce20 Se46 2.727457 1_555
Ce20 Se20 2.743310 1_554
Ce21 Se6 2.722138 1_555
Ce21 Se35 2.726489 1_545
Ce21 Se47 2.727457 1_555
Ce21 Se21 2.743310 1_555
Ce22 Se7 2.722138 1_565
Ce22 Se35 2.726490 1_555
Ce22 Se46 2.727457 1_455
Ce22 Se22 2.743310 1_465
Ce23 Se5 2.722138 1_555
Ce23 Se34 2.726489 1_555
Ce23 Se47 2.727457 1_555
Ce23 Se23 2.743310 1_555
