# generated using pymatgen
data_Sr4Li(RuO4)3
_symmetry_space_group_name_H-M   'P 1'
_cell_length_a   5.55235700
_cell_length_b   5.61148105
_cell_length_c   7.97447927
_cell_angle_alpha   89.88824593
_cell_angle_beta   89.72914290
_cell_angle_gamma   89.99236258
_symmetry_Int_Tables_number   1
_chemical_formula_structural   Sr4Li(RuO4)3
_chemical_formula_sum   'Sr4 Li1 Ru3 O12'
_cell_volume   248.45716975
_cell_formula_units_Z   1
loop_
 _symmetry_equiv_pos_site_id
 _symmetry_equiv_pos_as_xyz
  1  'x, y, z'
loop_
 _atom_site_type_symbol
 _atom_site_label
 _atom_site_symmetry_multiplicity
 _atom_site_fract_x
 _atom_site_fract_y
 _atom_site_fract_z
 _atom_site_occupancy
  Sr  Sr0  1  0.51056200  0.50260100  0.76713200  1
  Sr  Sr1  1  0.01342800  0.00666800  0.76791400  1
  Sr  Sr2  1  0.48943800  0.49739900  0.23286800  1
  Sr  Sr3  1  0.98657200  0.99333200  0.23208600  1
  Li  Li0  1  0.50000000  0.00000000  0.00000000  1
  Ru  Ru0  1  0.00000000  0.50000000  0.50000000  1
  Ru  Ru1  1  0.50000000  0.00000000  0.50000000  1
  Ru  Ru2  1  0.00000000  0.50000000  0.00000000  1
  O  O0  1  0.74712400  0.73298100  0.02470100  1
  O  O1  1  0.22095700  0.77629700  0.46848200  1
  O  O2  1  0.27767000  0.27950300  0.53657600  1
  O  O3  1  0.76449900  0.25017000  0.97818300  1
  O  O4  1  0.25287600  0.26701900  0.97529900  1
  O  O5  1  0.77904300  0.22370300  0.53151800  1
  O  O6  1  0.72233000  0.72049700  0.46342400  1
  O  O7  1  0.23550100  0.74983000  0.02181700  1
  O  O8  1  0.50022400  0.94809000  0.73713200  1
  O  O9  1  0.99314000  0.56360600  0.74996800  1
  O  O10  1  0.49977600  0.05191000  0.26286800  1
  O  O11  1  0.00686000  0.43639400  0.25003200  1
loop_
_geom_bond_atom_site_label_1
_geom_bond_atom_site_label_2
_geom_bond_distance
_geom_bond_site_symmetry_2
Li0 O3 2.038366 1_554
Li0 O7 2.038366 1_545
Li0 O0 2.041443 1_545
Li0 O4 2.041443 1_554
Li0 O8 2.116935 1_544
Li0 O10 2.116935 1_555
O0 Ru2 1.928028 1_655
O0 Sr2 2.553398 1_555
O0 Sr3 2.582190 1_555
O0 Sr0 2.766158 1_554
O0 Sr1 2.949222 1_664
O1 Ru0 1.992037 1_555
O1 Ru1 2.011186 1_565
O1 Sr3 2.597001 1_455
O1 O10 2.728338 1_565
O1 O6 2.786737 1_455
O1 O6 2.801425 1_555
O1 Sr2 2.861144 1_555
O1 Sr1 2.947229 1_565
O2 Ru0 1.998816 1_555
O2 Ru1 2.016625 1_555
O2 Sr0 2.579068 1_555
O2 O5 2.786737 1_455
O2 O5 2.801425 1_555
O2 Sr1 2.804254 1_555
O2 Sr2 2.950448 1_555
O3 Ru2 1.925879 1_656
O3 Sr1 2.564278 1_655
O3 Sr0 2.615268 1_555
O3 Sr3 2.776486 1_546
O3 Sr2 2.891901 1_556
O4 Ru2 1.928028 1_556
O4 Sr0 2.553398 1_555
O4 Sr1 2.582190 1_555
O4 Sr2 2.766158 1_556
O4 Sr3 2.949222 1_446
O5 Ru0 1.992037 1_655
O5 Ru1 2.011186 1_555
O5 Sr1 2.597001 1_655
O5 O8 2.728338 1_545
O5 Sr0 2.861144 1_555
O5 Sr3 2.947229 1_545
O6 Ru0 1.998816 1_655
O6 Ru1 2.016625 1_565
O6 Sr2 2.579068 1_555
O6 Sr3 2.804254 1_555
O6 Sr0 2.950448 1_555
O7 Ru2 1.925879 1_555
O7 Sr3 2.564278 1_455
O7 Sr2 2.615268 1_555
O7 Sr1 2.776486 1_564
O7 Sr0 2.891901 1_554
O8 Ru1 1.912753 1_565
O8 Sr0 2.511484 1_555
O8 Sr1 2.732689 1_565
O8 Sr1 2.880119 1_665
O8 Sr0 3.121832 1_565
O9 Ru2 2.025419 1_656
O9 Ru0 2.025932 1_655
O9 Sr1 2.493220 1_665
O9 Sr0 2.704061 1_555
O9 Sr0 2.897036 1_655
O9 Sr1 3.130280 1_655
O10 Ru1 1.912753 1_555
O10 Sr2 2.511484 1_555
O10 Sr3 2.732689 1_545
O10 Sr3 2.880119 1_445
O10 Sr2 3.121832 1_545
O11 Ru2 2.025419 1_555
O11 Ru0 2.025932 1_555
O11 Sr3 2.493220 1_445
O11 Sr2 2.704061 1_555
O11 Sr2 2.897036 1_455
O11 Sr3 3.130280 1_455
