# generated using pymatgen
data_La4Ti3(SO2)4
_symmetry_space_group_name_H-M   'P 1'
_cell_length_a   9.52494708
_cell_length_b   9.52494708
_cell_length_c   18.02294666
_cell_angle_alpha   70.37826317
_cell_angle_beta   70.37826317
_cell_angle_gamma   23.59653323
_symmetry_Int_Tables_number   1
_chemical_formula_structural   La4Ti3(SO2)4
_chemical_formula_sum   'La8 Ti6 S8 O16'
_cell_volume   614.80971718
_cell_formula_units_Z   2
loop_
 _symmetry_equiv_pos_site_id
 _symmetry_equiv_pos_as_xyz
  1  'x, y, z'
loop_
 _atom_site_type_symbol
 _atom_site_label
 _atom_site_symmetry_multiplicity
 _atom_site_fract_x
 _atom_site_fract_y
 _atom_site_fract_z
 _atom_site_occupancy
  La  La0  1  0.69034400  0.68743300  0.82310900  1
  La  La1  1  0.31256700  0.30965600  0.17689100  1
  La  La2  1  0.44985200  0.44974700  0.68437900  1
  La  La3  1  0.55025300  0.55014800  0.31562100  1
  La  La4  1  0.20259400  0.20255900  0.42904600  1
  La  La5  1  0.79744100  0.79740600  0.57095400  1
  La  La6  1  0.35790000  0.37317200  0.93744500  1
  La  La7  1  0.62682800  0.64210000  0.06255500  1
  Ti  Ti0  1  0.01635700  0.00378000  0.81152900  1
  Ti  Ti1  1  0.99622000  0.98364300  0.18847100  1
  Ti  Ti2  1  0.00009500  0.99990500  0.50000000  1
  Ti  Ti3  1  0.14986600  0.15030700  0.67115700  1
  Ti  Ti4  1  0.84969300  0.85013400  0.32884300  1
  Ti  Ti5  1  0.81639300  0.18360700  0.00000000  1
  S  S0  1  0.13238600  0.13470400  0.19052700  1
  S  S1  1  0.86529600  0.86761400  0.80947300  1
  S  S2  1  0.28328800  0.28341400  0.69815200  1
  S  S3  1  0.71658600  0.71671200  0.30184800  1
  S  S4  1  0.42289100  0.42294500  0.47171100  1
  S  S5  1  0.57705500  0.57710900  0.52828900  1
  S  S6  1  0.21464600  0.20840100  0.93575500  1
  S  S7  1  0.79159900  0.78535400  0.06424500  1
  O  O0  1  0.04188500  0.04457900  0.69294600  1
  O  O1  1  0.95542100  0.95811500  0.30705400  1
  O  O2  1  0.21547100  0.21533200  0.56488300  1
  O  O3  1  0.78466800  0.78452900  0.43511700  1
  O  O4  1  0.06739100  0.06733500  0.39512100  1
  O  O5  1  0.93266500  0.93260900  0.60487900  1
  O  O6  1  0.11510600  0.11296400  0.79748600  1
  O  O7  1  0.88703600  0.88489400  0.20251400  1
  O  O8  1  0.48899400  0.49802300  0.80939600  1
  O  O9  1  0.50197700  0.51100600  0.19060400  1
  O  O10  1  0.60120600  0.54756300  0.94838600  1
  O  O11  1  0.45243700  0.39879400  0.05161400  1
  O  O12  1  0.66501900  0.66476900  0.67815200  1
  O  O13  1  0.33523100  0.33498100  0.32184800  1
  O  O14  1  0.03237400  0.05283000  0.07564400  1
  O  O15  1  0.94717000  0.96762600  0.92435600  1
loop_
_geom_bond_atom_site_label_1
_geom_bond_atom_site_label_2
_geom_bond_distance
_geom_bond_site_symmetry_2
La0 O10 2.521716 1_555
La0 O6 2.528024 1_655
La0 O6 2.530331 1_565
La0 O12 2.797800 1_555
La0 S6 2.942023 1_565
La0 S6 2.950607 1_655
La0 S2 3.036906 1_655
La0 S2 3.044483 1_565
La0 S1 3.235113 1_555
La1 O11 2.521716 1_555
La1 O7 2.528024 1_545
La1 O7 2.530331 1_455
La1 O13 2.797800 1_555
La1 S7 2.942023 1_455
La1 S7 2.950607 1_545
La1 S3 3.036906 1_545
La1 S3 3.044483 1_455
La1 S0 3.235113 1_555
La2 O5 2.502507 1_545
La2 O5 2.502655 1_455
La2 O8 2.646028 1_555
La2 O0 2.648701 1_655
La2 O0 2.656706 1_565
La2 S1 2.978067 1_545
La2 S1 2.984233 1_455
La2 S5 2.994381 1_555
La2 S2 3.027673 1_555
La3 O4 2.502507 1_655
La3 O4 2.502655 1_565
La3 O9 2.646028 1_555
La3 O1 2.648701 1_545
La3 O1 2.656706 1_455
La3 S0 2.978067 1_655
La3 S0 2.984233 1_565
La3 S4 2.994381 1_555
La3 S3 3.027673 1_555
La4 O3 2.501651 1_455
La4 O3 2.501966 1_545
La4 O2 2.540179 1_555
La4 O13 2.562079 1_555
La4 O4 2.790873 1_555
La4 S3 2.950126 1_545
La4 S3 2.950540 1_455
La4 S5 3.097727 1_545
La4 S5 3.097945 1_455
La5 O2 2.501651 1_565
La5 O2 2.501966 1_655
La5 O3 2.540179 1_555
La5 O12 2.562079 1_555
La5 O5 2.790873 1_555
La5 S2 2.950126 1_655
La5 S2 2.950540 1_565
La5 S4 3.097727 1_655
La5 S4 3.097945 1_565
La6 O15 2.542910 1_545
La6 O15 2.558327 1_455
La6 O11 2.662478 1_556
La6 O8 2.691147 1_555
La6 S6 2.882834 1_555
La6 S7 2.943771 1_456
La6 S1 2.998009 1_455
La6 S7 2.998705 1_546
La6 S1 3.030609 1_545
La7 O14 2.542910 1_655
La7 O14 2.558327 1_565
La7 O10 2.662478 1_554
La7 O9 2.691147 1_555
La7 S7 2.882834 1_555
La7 S6 2.943771 1_564
La7 S0 2.998009 1_565
La7 S6 2.998705 1_654
La7 S0 3.030609 1_655
S0 Ti1 2.691117 1_445
S0 S3 3.512318 1_455
S0 S3 3.517049 1_545
S0 S7 3.569805 1_455
S0 S7 3.587955 1_545
S1 Ti0 2.691117 1_665
S1 S2 3.512318 1_565
S1 S2 3.517049 1_655
S1 S6 3.569805 1_565
S1 S6 3.587955 1_655
S2 Ti3 2.691038 1_555
S3 Ti4 2.691038 1_555
S4 Ti2 2.572909 1_555
S4 Ti2 2.573629 1_645
S5 Ti2 2.572909 1_555
S5 Ti2 2.573629 1_645
S6 S7 3.673530 1_546
S6 S7 3.673530 1_456
O0 Ti3 1.894114 1_555
O0 Ti0 2.011016 1_555
O0 S5 3.419468 1_455
O0 S5 3.425320 1_545
O1 Ti4 1.894114 1_555
O1 Ti1 2.011016 1_555
O1 S4 3.419468 1_565
O1 S4 3.425320 1_655
O2 Ti3 1.884536 1_555
O2 S2 3.076158 1_555
O2 S5 3.470789 1_545
O2 S5 3.471211 1_455
O3 Ti4 1.884536 1_555
O3 S3 3.076158 1_555
O3 S4 3.470789 1_655
O3 S4 3.471211 1_565
O4 Ti2 1.876635 1_545
O4 S5 3.143838 1_545
O4 S5 3.144104 1_455
O4 S3 3.340086 1_545
O4 S3 3.340500 1_455
O4 S0 3.463757 1_555
O5 Ti2 1.876635 1_655
O5 S4 3.143838 1_655
O5 S4 3.144104 1_565
O5 S2 3.340086 1_655
O5 S2 3.340500 1_565
O5 S1 3.463757 1_555
O6 Ti0 1.867191 1_555
O6 Ti3 2.141424 1_555
O6 S2 3.048854 1_555
O7 Ti1 1.867191 1_555
O7 Ti4 2.141424 1_555
O7 S3 3.048854 1_555
O8 Ti0 1.932805 1_565
O8 Ti0 2.015820 1_655
O8 S1 3.058284 1_455
O8 S1 3.074885 1_545
O9 Ti1 1.932805 1_455
O9 Ti1 2.015820 1_545
O9 S0 3.058284 1_565
O9 S0 3.074885 1_655
O10 Ti5 1.782186 1_556
O10 S6 3.103866 1_655
O10 S6 3.217621 1_565
O11 Ti5 1.782186 1_555
O11 S7 3.103866 1_545
O11 S7 3.217621 1_455
O12 Ti3 1.975769 1_655
O12 Ti3 1.978420 1_565
O12 S2 3.057055 1_655
O12 S2 3.057988 1_565
O13 Ti4 1.975769 1_545
O13 Ti4 1.978420 1_455
O13 S3 3.057055 1_545
O13 S3 3.057988 1_455
O14 Ti5 1.920656 1_455
O14 Ti1 1.932227 1_445
O14 S0 3.094095 1_555
O14 S6 3.291279 1_554
O15 Ti5 1.920656 1_566
O15 Ti0 1.932227 1_665
O15 S1 3.094095 1_555
O15 S7 3.291279 1_556
