# generated using pymatgen
data_GaAs
_symmetry_space_group_name_H-M   'P 1'
_cell_length_a   9.18930883
_cell_length_b   9.18930883
_cell_length_c   9.29552328
_cell_angle_alpha   71.35524773
_cell_angle_beta   71.35524773
_cell_angle_gamma   73.87318544
_symmetry_Int_Tables_number   1
_chemical_formula_structural   GaAs
_chemical_formula_sum   'Ga8 As8'
_cell_volume   691.11361409
_cell_formula_units_Z   8
loop_
 _symmetry_equiv_pos_site_id
 _symmetry_equiv_pos_as_xyz
  1  'x, y, z'
loop_
 _atom_site_type_symbol
 _atom_site_label
 _atom_site_symmetry_multiplicity
 _atom_site_fract_x
 _atom_site_fract_y
 _atom_site_fract_z
 _atom_site_occupancy
  Ga  Ga0  1  0.13669600  0.13669600  0.21854000  1
  Ga  Ga1  1  0.47510000  0.47510000  0.13605800  1
  Ga  Ga2  1  0.13848000  0.46753700  0.47923900  1
  Ga  Ga3  1  0.42609700  0.70796000  0.42670200  1
  Ga  Ga4  1  0.46753700  0.13848000  0.47923900  1
  Ga  Ga5  1  0.70796000  0.42609700  0.42670200  1
  Ga  Ga6  1  0.42583300  0.42583300  0.72006900  1
  Ga  Ga7  1  0.71587700  0.71587700  0.68381300  1
  As  As0  1  0.29485700  0.29485700  0.30547300  1
  As  As1  1  0.61909400  0.61909400  0.20216300  1
  As  As2  1  0.20041200  0.60829100  0.62639300  1
  As  As3  1  0.53302400  0.86687400  0.51627500  1
  As  As4  1  0.60829100  0.20041200  0.62639300  1
  As  As5  1  0.86687400  0.53302400  0.51627500  1
  As  As6  1  0.53420100  0.53420100  0.86078800  1
  As  As7  1  0.84966900  0.84966900  0.77588400  1
loop_
_geom_bond_atom_site_label_1
_geom_bond_atom_site_label_2
_geom_bond_distance
_geom_bond_site_symmetry_2
Ga3 Ga6 3.104294 1_555
Ga3 Ga5 3.112973 1_555
Ga5 Ga6 3.104294 1_555
As0 Ga2 2.465752 1_555
As0 Ga4 2.465752 1_555
As0 Ga1 2.480961 1_555
As0 Ga0 2.748284 1_555
As1 Ga1 2.427295 1_555
As1 Ga5 2.467194 1_555
As1 Ga3 2.467194 1_555
As2 Ga2 2.430200 1_555
As2 Ga3 2.468234 1_555
As2 Ga6 2.480076 1_555
As3 Ga4 2.336389 1_565
As3 Ga3 2.426709 1_555
As3 Ga7 2.484015 1_555
As4 Ga4 2.430200 1_555
As4 Ga5 2.468234 1_555
As4 Ga6 2.480076 1_555
As5 Ga2 2.336389 1_655
As5 Ga5 2.426709 1_555
As5 Ga7 2.484015 1_555
As6 Ga1 2.350322 1_556
As6 Ga6 2.431258 1_555
As6 Ga7 2.513327 1_555
As7 Ga7 2.437397 1_555
