# generated using pymatgen
data_Mn2Hg2SF6
_symmetry_space_group_name_H-M   'P 1'
_cell_length_a   7.90129178
_cell_length_b   7.90129178
_cell_length_c   7.90129178
_cell_angle_alpha   60.00000000
_cell_angle_beta   60.00000000
_cell_angle_gamma   60.00000000
_symmetry_Int_Tables_number   1
_chemical_formula_structural   Mn2Hg2SF6
_chemical_formula_sum   'Mn4 Hg4 S2 F12'
_cell_volume   348.80226950
_cell_formula_units_Z   2
loop_
 _symmetry_equiv_pos_site_id
 _symmetry_equiv_pos_as_xyz
  1  'x, y, z'
loop_
 _atom_site_type_symbol
 _atom_site_label
 _atom_site_symmetry_multiplicity
 _atom_site_fract_x
 _atom_site_fract_y
 _atom_site_fract_z
 _atom_site_occupancy
  Mn  Mn0  1  0.62500000  0.62500000  0.12500000  1
  Mn  Mn1  1  0.62500000  0.12500000  0.62500000  1
  Mn  Mn2  1  0.12500000  0.62500000  0.62500000  1
  Mn  Mn3  1  0.62500000  0.62500000  0.62500000  1
  Hg  Hg0  1  0.12500000  0.12500000  0.62500000  1
  Hg  Hg1  1  0.12500000  0.62500000  0.12500000  1
  Hg  Hg2  1  0.62500000  0.12500000  0.12500000  1
  Hg  Hg3  1  0.12500000  0.12500000  0.12500000  1
  S  S0  1  0.00000000  0.00000000  0.00000000  1
  S  S1  1  0.25000000  0.25000000  0.25000000  1
  F  F0  1  0.70077900  0.29922100  0.70077900  1
  F  F1  1  0.29922100  0.29922100  0.70077900  1
  F  F2  1  0.54922100  0.95077900  0.54922100  1
  F  F3  1  0.29922100  0.70077900  0.29922100  1
  F  F4  1  0.54922100  0.54922100  0.95077900  1
  F  F5  1  0.95077900  0.54922100  0.54922100  1
  F  F6  1  0.70077900  0.70077900  0.29922100  1
  F  F7  1  0.95077900  0.95077900  0.54922100  1
  F  F8  1  0.95077900  0.54922100  0.95077900  1
  F  F9  1  0.70077900  0.29922100  0.29922100  1
  F  F10  1  0.29922100  0.70077900  0.70077900  1
  F  F11  1  0.54922100  0.95077900  0.95077900  1
loop_
_geom_bond_atom_site_label_1
_geom_bond_atom_site_label_2
_geom_bond_distance
_geom_bond_site_symmetry_2
Hg0 S1 2.419267 1_555
Hg0 S0 2.419267 1_556
Hg1 S0 2.419267 1_565
Hg1 S1 2.419267 1_555
Hg2 S0 2.419267 1_655
Hg2 S1 2.419267 1_555
Hg3 S1 2.419267 1_555
Hg3 S0 2.419267 1_555
F0 Mn1 2.149165 1_555
F0 Mn3 2.149165 1_555
F0 Hg2 2.773409 1_556
F0 Hg0 2.773409 1_655
F0 F7 2.899794 1_545
F0 F11 2.899794 1_545
F0 F4 2.899794 1_555
F0 F5 2.899794 1_555
F1 Mn1 2.149165 1_555
F1 Mn2 2.149165 1_555
F1 Hg0 2.773409 1_555
F1 Hg3 2.773409 1_556
F1 F5 2.899794 1_455
F1 F2 2.899794 1_545
F1 F8 2.899794 1_455
F1 F11 2.899794 1_545
F2 Mn3 2.149165 1_555
F2 Mn1 2.149165 1_565
F2 Hg2 2.773409 1_565
F2 Hg0 2.773409 1_565
F2 F9 2.899794 1_565
F2 F6 2.899794 1_555
F3 Mn2 2.149165 1_555
F3 Mn0 2.149165 1_555
F3 Hg1 2.773409 1_555
F3 Hg3 2.773409 1_565
F3 F5 2.899794 1_455
F3 F4 2.899794 1_554
F3 F7 2.899794 1_455
F4 Mn3 2.149165 1_555
F4 Mn0 2.149165 1_556
F4 Hg1 2.773409 1_556
F4 Hg2 2.773409 1_556
F4 F9 2.899794 1_556
F5 Mn3 2.149165 1_555
F5 Mn2 2.149165 1_655
F5 Hg1 2.773409 1_655
F5 Hg0 2.773409 1_655
F5 F6 2.899794 1_555
F6 Mn0 2.149165 1_555
F6 Mn3 2.149165 1_555
F6 Hg2 2.773409 1_565
F6 Hg1 2.773409 1_655
F6 F8 2.899794 1_554
F7 Mn1 2.149165 1_565
F7 Mn2 2.149165 1_655
F7 Hg3 2.773409 1_665
F7 Hg0 2.773409 1_665
F7 F9 2.899794 1_565
F8 Mn0 2.149165 1_556
F8 Mn2 2.149165 1_655
F8 Hg3 2.773409 1_656
F8 Hg1 2.773409 1_656
F8 F9 2.899794 1_556
F9 Mn1 2.149165 1_555
F9 Mn0 2.149165 1_555
F9 Hg2 2.773409 1_555
F9 Hg3 2.773409 1_655
F10 Mn2 2.149165 1_555
F10 Mn3 2.149165 1_555
F10 Hg1 2.773409 1_556
F10 Hg0 2.773409 1_565
F10 F7 2.899794 1_455
F10 F8 2.899794 1_455
F10 F4 2.899794 1_555
F10 F2 2.899794 1_555
F11 Mn1 2.149165 1_565
F11 Mn0 2.149165 1_556
F11 Hg3 2.773409 1_566
F11 Hg2 2.773409 1_566
F11 F6 2.899794 1_556
F11 F3 2.899794 1_556
