# generated using pymatgen
data_Zr3Ti(PbO3)4
_symmetry_space_group_name_H-M   'P 1'
_cell_length_a   5.86739207
_cell_length_b   5.93340987
_cell_length_c   10.17431452
_cell_angle_alpha   106.61679449
_cell_angle_beta   90.01994625
_cell_angle_gamma   119.63860145
_symmetry_Int_Tables_number   1
_chemical_formula_structural   Zr3Ti(PbO3)4
_chemical_formula_sum   'Zr3 Ti1 Pb4 O12'
_cell_volume   290.69966696
_cell_formula_units_Z   1
loop_
 _symmetry_equiv_pos_site_id
 _symmetry_equiv_pos_as_xyz
  1  'x, y, z'
loop_
 _atom_site_type_symbol
 _atom_site_label
 _atom_site_symmetry_multiplicity
 _atom_site_fract_x
 _atom_site_fract_y
 _atom_site_fract_z
 _atom_site_occupancy
  Zr  Zr0  1  0.35050600  0.70112500  0.11366200  1
  Zr  Zr1  1  0.85470100  0.70829100  0.62208000  1
  Zr  Zr2  1  0.10364700  0.20709800  0.36819300  1
  Ti  Ti0  1  0.60021800  0.20000200  0.86652500  1
  Pb  Pb0  1  0.19761100  0.39638500  0.73985100  1
  Pb  Pb1  1  0.69500800  0.38892500  0.22333000  1
  Pb  Pb2  1  0.44834000  0.89405300  0.48508500  1
  Pb  Pb3  1  0.93956300  0.88154800  0.97924100  1
  O  O0  1  0.76758400  0.01460300  0.76870600  1
  O  O1  1  0.27958500  0.00402200  0.25854200  1
  O  O2  1  0.47657800  0.50847900  0.51558200  1
  O  O3  1  0.96819600  0.49584000  0.00696900  1
  O  O4  1  0.97332400  0.00801300  0.51272700  1
  O  O5  1  0.47945200  0.01243600  0.99790200  1
  O  O6  1  0.49882600  0.49566200  0.97814900  1
  O  O7  1  0.99942800  0.50851400  0.48365200  1
  O  O8  1  0.27237700  0.01392400  0.74156500  1
  O  O9  1  0.75599400  0.00487200  0.22824900  1
  O  O10  1  0.77738800  0.49701200  0.76037200  1
  O  O11  1  0.28507400  0.50599600  0.25741800  1
loop_
_geom_bond_atom_site_label_1
_geom_bond_atom_site_label_2
_geom_bond_distance
_geom_bond_site_symmetry_2
O0 Ti0 1.899442 1_555
O0 Zr1 2.271267 1_545
O0 Pb0 2.512310 1_655
O0 Pb3 2.825501 1_545
O0 Pb2 3.136528 1_545
O0 Pb0 3.460629 1_545
O1 Zr2 2.055316 1_555
O1 Zr0 2.191094 1_545
O1 Pb1 2.499613 1_555
O1 O9 2.810008 1_555
O1 Pb2 2.866420 1_545
O1 Pb3 3.156673 1_444
O2 Zr1 2.040565 1_555
O2 Zr2 2.197357 1_555
O2 Pb2 2.477594 1_555
O2 Pb0 2.849893 1_555
O2 Pb1 3.268437 1_555
O2 Pb2 3.488554 1_545
O3 Zr0 2.057545 1_655
O3 Ti0 2.144641 1_554
O3 Pb3 2.468773 1_554
O3 Pb1 2.759164 1_555
O3 Pb0 3.068742 1_654
O4 Zr2 2.059962 1_655
O4 Zr1 2.189261 1_545
O4 Pb0 2.516914 1_655
O4 Pb2 2.802695 1_545
O4 Pb2 3.171746 1_645
O5 Ti0 1.897064 1_555
O5 Zr0 2.287829 1_546
O5 Pb1 2.474572 1_556
O5 Pb3 2.855840 1_445
O5 Pb3 3.149119 1_545
O5 Pb0 3.393904 1_545
O6 Zr0 2.057499 1_556
O6 Ti0 2.148112 1_555
O6 Pb3 2.461522 1_555
O6 Pb0 2.738488 1_555
O6 Pb1 3.093771 1_556
O7 Zr1 2.037483 1_555
O7 Zr2 2.198387 1_655
O7 Pb2 2.488442 1_655
O7 Pb1 2.894338 1_555
O7 Pb0 3.216259 1_655
O7 Pb2 3.481151 1_545
O8 Ti0 1.905378 1_555
O8 Zr1 2.261365 1_445
O8 Pb0 2.519859 1_555
O8 Pb2 2.836897 1_545
O8 Pb3 3.138536 1_445
O8 Pb0 3.462965 1_545
O9 Zr2 2.056204 1_655
O9 Zr0 2.196162 1_545
O9 Pb1 2.488958 1_555
O9 Pb3 2.799140 1_544
O9 Pb2 3.214241 1_545
O10 Zr1 2.050327 1_555
O10 Ti0 2.151791 1_555
O10 Pb3 2.452620 1_555
O10 Pb0 2.804353 1_655
O10 Pb0 3.145082 1_555
O10 Pb2 3.435864 1_545
O11 Zr0 2.038721 1_555
O11 Zr2 2.196702 1_555
O11 Pb2 2.520162 1_555
O11 Pb1 2.811273 1_555
O11 Pb1 3.173650 1_455
