# generated using pymatgen
data_FeBiO3
_symmetry_space_group_name_H-M   'P 1'
_cell_length_a   4.87982800
_cell_length_b   5.30529985
_cell_length_c   5.30530409
_cell_angle_alpha   90.00001527
_cell_angle_beta   90.00001910
_cell_angle_gamma   90.00001910
_symmetry_Int_Tables_number   1
_chemical_formula_structural   FeBiO3
_chemical_formula_sum   'Fe2 Bi2 O6'
_cell_volume   137.34875639
_cell_formula_units_Z   2
loop_
 _symmetry_equiv_pos_site_id
 _symmetry_equiv_pos_as_xyz
  1  'x, y, z'
loop_
 _atom_site_type_symbol
 _atom_site_label
 _atom_site_symmetry_multiplicity
 _atom_site_fract_x
 _atom_site_fract_y
 _atom_site_fract_z
 _atom_site_occupancy
  Fe  Fe0  1  0.47616700  0.00000000  0.50000100  1
  Fe  Fe1  1  0.47616300  0.50000000  0.00000000  1
  Bi  Bi0  1  0.04870700  0.00000000  0.00000000  1
  Bi  Bi1  1  0.04870700  0.50000000  0.49999900  1
  O  O0  1  0.85630600  0.50000000  0.00000000  1
  O  O1  1  0.85630300  0.00000000  0.50000000  1
  O  O2  1  0.33041300  0.24999900  0.25000100  1
  O  O3  1  0.33041200  0.75000100  0.74999900  1
  O  O4  1  0.33041200  0.24999900  0.74999800  1
  O  O5  1  0.33041200  0.75000200  0.25000100  1
loop_
_geom_bond_atom_site_label_1
_geom_bond_atom_site_label_2
_geom_bond_distance
_geom_bond_site_symmetry_2
Fe0 O1 1.854998 1_555
Fe0 O4 2.006019 1_555
Fe0 O3 2.006023 1_545
Fe0 O5 2.006025 1_545
Fe0 O2 2.006028 1_555
Fe1 O0 1.855032 1_555
Fe1 O2 2.006032 1_555
Fe1 O3 2.006033 1_554
Fe1 O4 2.006036 1_554
Fe1 O5 2.006037 1_555
Bi0 O5 2.325508 1_545
Bi0 O3 2.325511 1_544
Bi0 O2 2.325513 1_555
Bi0 O4 2.325514 1_554
Bi0 O0 2.813903 1_445
Bi0 O0 2.813904 1_455
Bi0 O1 2.813910 1_454
Bi0 O1 2.813911 1_455
Bi1 O2 2.325511 1_555
Bi1 O4 2.325511 1_555
Bi1 O5 2.325511 1_555
Bi1 O3 2.325513 1_555
Bi1 O0 2.813900 1_455
Bi1 O1 2.813908 1_455
Bi1 O1 2.813909 1_465
Bi1 O0 2.813911 1_456
O2 O5 2.652634 1_545
O2 O4 2.652636 1_555
O2 O5 2.652666 1_555
O2 O4 2.652668 1_554
O3 O4 2.652639 1_565
O3 O5 2.652641 1_555
O3 O4 2.652661 1_555
O3 O5 2.652663 1_556
