# generated using pymatgen
data_Rb2Nb3C3S3N3(Cl3O)2
_symmetry_space_group_name_H-M   'P 1'
_cell_length_a   9.11061085
_cell_length_b   12.12569492
_cell_length_c   12.13853903
_cell_angle_alpha   115.40253497
_cell_angle_beta   99.22060189
_cell_angle_gamma   101.42595974
_symmetry_Int_Tables_number   1
_chemical_formula_structural   Rb2Nb3C3S3N3(Cl3O)2
_chemical_formula_sum   'Rb4 Nb6 C6 S6 N6 Cl12 O4'
_cell_volume   1140.87439524
_cell_formula_units_Z   2
loop_
 _symmetry_equiv_pos_site_id
 _symmetry_equiv_pos_as_xyz
  1  'x, y, z'
loop_
 _atom_site_type_symbol
 _atom_site_label
 _atom_site_symmetry_multiplicity
 _atom_site_fract_x
 _atom_site_fract_y
 _atom_site_fract_z
 _atom_site_occupancy
  Rb  Rb0  1  0.99332500  0.37637700  0.14769500  1
  Rb  Rb1  1  0.00667500  0.62362300  0.85230500  1
  Rb  Rb2  1  0.48121300  0.23192900  0.26346800  1
  Rb  Rb3  1  0.51878700  0.76807200  0.73653200  1
  Nb  Nb0  1  0.79414500  0.84763700  0.45435300  1
  Nb  Nb1  1  0.20585500  0.15236300  0.54564700  1
  Nb  Nb2  1  0.91025200  0.13535200  0.63245700  1
  Nb  Nb3  1  0.08974800  0.86464800  0.36754300  1
  Nb  Nb4  1  0.88758400  0.03242900  0.35075100  1
  Nb  Nb5  1  0.11241600  0.96757100  0.64924900  1
  C  C0  1  0.74022500  0.08024600  0.11133100  1
  C  C1  1  0.25977500  0.91975400  0.88866900  1
  C  C2  1  0.48333500  0.61087800  0.39460000  1
  C  C3  1  0.51666500  0.38912200  0.60540000  1
  C  C4  1  0.77967200  0.34653000  0.84457200  1
  C  C5  1  0.22032800  0.65347000  0.15542800  1
  S  S0  1  0.68343300  0.10370600  0.99312100  1
  S  S1  1  0.31656700  0.89629400  0.00687900  1
  S  S2  1  0.27085900  0.54802400  0.04639400  1
  S  S3  1  0.72914100  0.45197600  0.95360600  1
  S  S4  1  0.33941000  0.49866500  0.37730700  1
  S  S5  1  0.66059000  0.50133500  0.62269300  1
  N  N0  1  0.77915800  0.06590800  0.20187000  1
  N  N1  1  0.22084200  0.93409200  0.79813000  1
  N  N2  1  0.81951500  0.26930600  0.76401400  1
  N  N3  1  0.18048500  0.73069400  0.23598600  1
  N  N4  1  0.59053000  0.69698000  0.41260900  1
  N  N5  1  0.40947000  0.30302000  0.58739100  1
  Cl  Cl0  1  0.66397300  0.98105700  0.59880300  1
  Cl  Cl1  1  0.33602700  0.01894300  0.40119700  1
  Cl  Cl2  1  0.77145600  0.19131800  0.48175500  1
  Cl  Cl3  1  0.22854400  0.80868200  0.51824500  1
  Cl  Cl4  1  0.86909400  0.67439600  0.29858000  1
  Cl  Cl5  1  0.13090600  0.32560400  0.70142000  1
  Cl  Cl6  1  0.10435900  0.21103400  0.38475000  1
  Cl  Cl7  1  0.89564100  0.78896600  0.61525000  1
  Cl  Cl8  1  0.63955900  0.86438500  0.27946200  1
  Cl  Cl9  1  0.36044100  0.13561500  0.72053800  1
  Cl  Cl10  1  0.97676900  0.88513400  0.18240000  1
  Cl  Cl11  1  0.02323100  0.11486600  0.81760000  1
  O  O0  1  0.83663500  0.41146100  0.34968900  1
  O  O1  1  0.16336500  0.58853900  0.65031100  1
  O  O2  1  0.15525400  0.17960600  0.11458700  1
  O  O3  1  0.84474600  0.82039400  0.88541300  1
loop_
_geom_bond_atom_site_label_1
_geom_bond_atom_site_label_2
_geom_bond_distance
_geom_bond_site_symmetry_2
Rb0 S4 3.419675 1_655
Rb0 S0 3.421227 1_554
Rb0 S3 3.618528 1_554
Rb0 S2 3.653000 1_655
Rb1 S5 3.419675 1_455
Rb1 S1 3.421227 1_556
Rb1 S2 3.618528 1_556
Rb1 S3 3.653000 1_455
Rb2 S4 3.526011 1_555
Rb2 S1 3.704453 1_545
Rb2 S0 3.908404 1_554
Rb3 S5 3.526021 1_555
Rb3 S0 3.704445 1_565
Rb3 S1 3.908403 1_556
C0 N0 1.194698 1_555
C0 S0 1.605663 1_554
C0 Rb2 3.544540 1_555
C0 O3 3.601041 1_544
C0 O2 3.722455 1_655
C1 N1 1.194698 1_555
C1 S1 1.605663 1_556
C1 Rb3 3.544535 1_555
C1 O2 3.601041 1_566
C1 O3 3.722455 1_455
C2 N4 1.193056 1_555
C2 S4 1.604581 1_555
C2 Rb3 3.674716 1_555
C3 N5 1.193056 1_555
C3 S5 1.604581 1_555
C3 Rb2 3.674716 1_555
C4 N2 1.194838 1_555
C4 S3 1.604704 1_555
C4 Rb1 3.534018 1_655
C4 Rb0 3.706955 1_556
C5 N3 1.194838 1_555
C5 S2 1.604704 1_555
C5 Rb0 3.534018 1_455
C5 Rb1 3.706955 1_554
N0 Nb4 2.150063 1_555
N1 Nb5 2.150063 1_555
N2 Nb2 2.145107 1_555
N3 Nb3 2.145107 1_555
N4 Nb0 2.144103 1_555
N5 Nb1 2.144103 1_555
Cl0 Nb2 2.467590 1_565
Cl0 Nb0 2.468010 1_555
Cl0 N4 3.056817 1_555
Cl0 N2 3.059340 1_565
Cl0 Cl11 3.436886 1_665
Cl0 Cl8 3.459905 1_555
Cl0 Cl2 3.470209 1_565
Cl0 Rb3 3.778090 1_555
Cl1 Nb3 2.467590 1_545
Cl1 Nb1 2.468010 1_555
Cl1 N5 3.056817 1_555
Cl1 N3 3.059340 1_545
Cl1 Cl10 3.436886 1_445
Cl1 Cl9 3.459905 1_555
Cl1 Cl3 3.470209 1_545
Cl1 Rb2 3.778100 1_555
Cl2 Nb2 2.463663 1_555
Cl2 Nb4 2.465415 1_555
Cl2 N2 3.065994 1_555
Cl2 N0 3.089642 1_555
Cl2 Cl6 3.426540 1_655
Cl2 Cl5 3.442302 1_655
Cl2 Cl8 3.464757 1_545
Cl2 O0 3.660133 1_555
Cl2 Rb2 3.693991 1_555
Cl3 Nb3 2.463663 1_555
Cl3 Nb5 2.465415 1_555
Cl3 N3 3.065994 1_555
Cl3 N1 3.089642 1_555
Cl3 Cl7 3.426540 1_455
Cl3 Cl4 3.442302 1_455
Cl3 Cl9 3.464757 1_565
Cl3 O1 3.660133 1_555
Cl3 Rb3 3.693984 1_555
Cl4 Nb0 2.455333 1_555
Cl4 Nb3 2.455690 1_655
Cl4 N3 3.075734 1_655
Cl4 N4 3.083446 1_555
Cl4 Cl7 3.428049 1_555
Cl4 Cl8 3.456320 1_555
Cl4 O0 3.466934 1_555
Cl4 Rb0 3.781621 1_555
Cl5 Nb1 2.455333 1_555
Cl5 Nb2 2.455690 1_455
Cl5 N2 3.075734 1_455
Cl5 N5 3.083446 1_555
Cl5 Cl6 3.428049 1_555
Cl5 Cl9 3.456320 1_555
Cl5 O1 3.466934 1_555
Cl5 Rb1 3.781621 1_555
Cl6 Nb4 2.457316 1_455
Cl6 Nb1 2.459586 1_555
Cl6 N5 3.041052 1_555
Cl6 N0 3.045932 1_455
Cl6 O2 3.255719 1_555
Cl6 O0 3.865265 1_455
Cl7 Nb5 2.457316 1_655
Cl7 Nb0 2.459586 1_555
Cl7 N4 3.041052 1_555
Cl7 N1 3.045932 1_655
Cl7 O3 3.255719 1_555
Cl7 O1 3.865265 1_655
Cl8 Nb4 2.458288 1_565
Cl8 Nb0 2.461013 1_555
Cl8 N0 3.098869 1_565
Cl8 N4 3.101450 1_555
Cl9 Nb5 2.458288 1_545
Cl9 Nb1 2.461013 1_555
Cl9 N1 3.098869 1_545
Cl9 N5 3.101450 1_555
Cl10 Nb4 2.449884 1_565
Cl10 Nb3 2.451687 1_655
Cl10 N0 3.059006 1_565
Cl10 N3 3.067569 1_655
Cl10 O3 3.296552 1_554
Cl10 Cl6 3.455153 1_665
Cl11 Nb5 2.449884 1_545
Cl11 Nb2 2.451687 1_455
Cl11 N1 3.059006 1_545
Cl11 N2 3.067569 1_455
Cl11 O2 3.296552 1_556
Cl11 Cl7 3.455153 1_445
O0 Rb0 2.949262 1_555
O0 Rb2 3.238225 1_555
O0 S5 3.746895 1_555
O0 O1 3.748530 1_655
O1 Rb1 2.949262 1_555
O1 Rb3 3.238229 1_555
O1 S4 3.746895 1_555
O2 Rb0 2.965268 1_455
O2 Rb2 3.006228 1_555
O2 S4 3.616760 1_555
O3 Rb1 2.965268 1_655
O3 Rb3 3.006231 1_555
O3 S5 3.616760 1_555
