# generated using pymatgen
data_NbH4
_symmetry_space_group_name_H-M   'P 1'
_cell_length_a   3.77952192
_cell_length_b   3.77952192
_cell_length_c   3.77952192
_cell_angle_alpha   109.47122063
_cell_angle_beta   109.47122063
_cell_angle_gamma   109.47122063
_symmetry_Int_Tables_number   1
_chemical_formula_structural   NbH4
_chemical_formula_sum   'Nb1 H4'
_cell_volume   41.56126099
_cell_formula_units_Z   1
loop_
 _symmetry_equiv_pos_site_id
 _symmetry_equiv_pos_as_xyz
  1  'x, y, z'
loop_
 _atom_site_type_symbol
 _atom_site_label
 _atom_site_symmetry_multiplicity
 _atom_site_fract_x
 _atom_site_fract_y
 _atom_site_fract_z
 _atom_site_occupancy
  Nb  Nb0  1  0.00000000  0.00000000  0.00000000  1
  H  H0  1  0.50000000  0.50000000  0.50000000  1
  H  H1  1  0.00000000  0.00000000  0.50000000  1
  H  H2  1  0.00000000  0.50000000  0.00000000  1
  H  H3  1  0.50000000  0.00000000  0.00000000  1
loop_
_geom_bond_atom_site_label_1
_geom_bond_atom_site_label_2
_geom_bond_distance
_geom_bond_site_symmetry_2
H0 Nb0 1.889761 1_666
H0 Nb0 1.889761 1_555
H0 H1 2.182108 1_555
H0 H2 2.182108 1_656
H0 H2 2.182108 1_555
H0 H3 2.182108 1_555
H0 H3 2.182108 1_566
H0 H1 2.182108 1_665
H1 Nb0 1.889761 1_556
H1 Nb0 1.889761 1_555
H1 H2 2.182108 1_545
H1 H3 2.182108 1_455
H1 H3 2.182108 1_556
H1 H2 2.182108 1_556
H2 Nb0 1.889761 1_555
H2 Nb0 1.889761 1_565
H2 H3 2.182108 1_565
H2 H3 2.182108 1_455
H3 Nb0 1.889761 1_555
H3 Nb0 1.889761 1_655
