# generated using pymatgen
data_Nd2CuO4
_symmetry_space_group_name_H-M   'P 1'
_cell_length_a   6.91514864
_cell_length_b   6.91514864
_cell_length_c   5.59673400
_cell_angle_alpha   90.00000000
_cell_angle_beta   90.00000000
_cell_angle_gamma   135.38695621
_symmetry_Int_Tables_number   1
_chemical_formula_structural   Nd2CuO4
_chemical_formula_sum   'Nd4 Cu2 O8'
_cell_volume   187.96185913
_cell_formula_units_Z   2
loop_
 _symmetry_equiv_pos_site_id
 _symmetry_equiv_pos_as_xyz
  1  'x, y, z'
loop_
 _atom_site_type_symbol
 _atom_site_label
 _atom_site_symmetry_multiplicity
 _atom_site_fract_x
 _atom_site_fract_y
 _atom_site_fract_z
 _atom_site_occupancy
  Nd  Nd0  1  0.36116600  0.63883400  0.01837100  1
  Nd  Nd1  1  0.63883400  0.36116600  0.98162900  1
  Nd  Nd2  1  0.13883400  0.86116600  0.51837100  1
  Nd  Nd3  1  0.86116600  0.13883400  0.48162900  1
  Cu  Cu0  1  0.00000000  0.00000000  0.00000000  1
  Cu  Cu1  1  0.50000000  0.50000000  0.50000000  1
  O  O0  1  0.26703400  0.23296600  0.25000000  1
  O  O1  1  0.23296600  0.26703400  0.75000000  1
  O  O2  1  0.73296600  0.76703400  0.75000000  1
  O  O3  1  0.76703400  0.73296600  0.25000000  1
  O  O4  1  0.18681900  0.81318100  0.92571700  1
  O  O5  1  0.81318100  0.18681900  0.07428300  1
  O  O6  1  0.68681900  0.31318100  0.57428300  1
  O  O7  1  0.31318100  0.68681900  0.42571700  1
loop_
_geom_bond_atom_site_label_1
_geom_bond_atom_site_label_2
_geom_bond_distance
_geom_bond_site_symmetry_2
Nd0 O4 2.290304 1_554
Nd0 O7 2.361037 1_555
Nd0 O1 2.531232 1_554
Nd0 O2 2.531232 1_554
Nd0 O5 2.713683 1_565
Nd0 O5 2.713683 1_455
Nd0 O3 2.716693 1_555
Nd0 O0 2.716693 1_555
Nd1 O5 2.290304 1_556
Nd1 O6 2.361037 1_555
Nd1 O0 2.531232 1_556
Nd1 O3 2.531232 1_556
Nd1 O4 2.713683 1_655
Nd1 O4 2.713683 1_545
Nd1 O2 2.716693 1_555
Nd1 O1 2.716693 1_555
Nd2 O7 2.290304 1_555
Nd2 O4 2.361037 1_555
Nd2 O0 2.531232 1_565
Nd2 O3 2.531232 1_455
Nd2 O6 2.713683 1_455
Nd2 O6 2.713683 1_565
Nd2 O2 2.716693 1_455
Nd2 O1 2.716693 1_565
Nd3 O6 2.290304 1_555
Nd3 O5 2.361037 1_555
Nd3 O1 2.531232 1_655
Nd3 O2 2.531232 1_545
Nd3 O7 2.713683 1_545
Nd3 O7 2.713683 1_655
Nd3 O3 2.716693 1_545
Nd3 O0 2.716693 1_655
Cu0 O1 1.930677 1_554
Cu0 O0 1.930677 1_555
Cu0 O2 1.930677 1_444
Cu0 O3 1.930677 1_445
Cu0 O5 2.426294 1_455
Cu0 O4 2.426294 1_544
Cu1 O3 1.930677 1_555
Cu1 O2 1.930677 1_555
Cu1 O1 1.930677 1_555
Cu1 O0 1.930677 1_555
Cu1 O6 2.426294 1_555
Cu1 O7 2.426294 1_555
