# generated using pymatgen
data_NiSb3
_symmetry_space_group_name_H-M   'P 1'
_cell_length_a   7.95484181
_cell_length_b   7.95484181
_cell_length_c   7.95484181
_cell_angle_alpha   109.47122063
_cell_angle_beta   109.47122063
_cell_angle_gamma   109.47122063
_symmetry_Int_Tables_number   1
_chemical_formula_structural   NiSb3
_chemical_formula_sum   'Ni4 Sb12'
_cell_volume   387.50093273
_cell_formula_units_Z   4
loop_
 _symmetry_equiv_pos_site_id
 _symmetry_equiv_pos_as_xyz
  1  'x, y, z'
loop_
 _atom_site_type_symbol
 _atom_site_label
 _atom_site_symmetry_multiplicity
 _atom_site_fract_x
 _atom_site_fract_y
 _atom_site_fract_z
 _atom_site_occupancy
  Ni  Ni0  1  -0.00000000  -0.00000000  0.50000000  1
  Ni  Ni1  1  0.50000000  -0.00000000  -0.00000000  1
  Ni  Ni2  1  -0.00000000  0.50000000  -0.00000000  1
  Ni  Ni3  1  0.50000000  0.50000000  0.50000000  1
  Sb  Sb0  1  0.15872907  0.82178235  0.66305428  1
  Sb  Sb1  1  0.84127093  0.17821765  0.33694572  1
  Sb  Sb2  1  0.84127093  0.50432721  0.66305428  1
  Sb  Sb3  1  0.15872907  0.49567279  0.33694572  1
  Sb  Sb4  1  0.82178235  0.66305428  0.15872907  1
  Sb  Sb5  1  0.17821765  0.33694572  0.84127093  1
  Sb  Sb6  1  0.50432721  0.66305428  0.84127093  1
  Sb  Sb7  1  0.49567279  0.33694572  0.15872907  1
  Sb  Sb8  1  0.66305428  0.15872907  0.82178235  1
  Sb  Sb9  1  0.33694572  0.84127093  0.17821765  1
  Sb  Sb10  1  0.66305428  0.84127093  0.50432721  1
  Sb  Sb11  1  0.33694572  0.15872907  0.49567279  1
loop_
_geom_bond_atom_site_label_1
_geom_bond_atom_site_label_2
_geom_bond_distance
_geom_bond_site_symmetry_2
Ni0 Sb4 2.571763 1_445
Ni0 Sb5 2.571763 1_555
Ni0 Sb0 2.571771 1_545
Ni0 Sb1 2.571771 1_455
Ni0 Sb11 2.571772 1_555
Ni0 Sb10 2.571772 1_445
Ni1 Sb1 2.571763 1_555
Ni1 Sb0 2.571763 1_544
Ni1 Sb8 2.571771 1_554
Ni1 Sb9 2.571771 1_545
Ni1 Sb6 2.571772 1_544
Ni1 Sb7 2.571772 1_555
Ni2 Sb8 2.571763 1_454
Ni2 Sb9 2.571763 1_555
Ni2 Sb4 2.571771 1_455
Ni2 Sb5 2.571771 1_554
Ni2 Sb3 2.571772 1_555
Ni2 Sb2 2.571772 1_454
Ni3 Sb2 2.571756 1_555
Ni3 Sb10 2.571756 1_555
Ni3 Sb7 2.571756 1_555
Ni3 Sb6 2.571756 1_555
Ni3 Sb3 2.571756 1_555
Ni3 Sb11 2.571756 1_555
Sb0 Sb2 2.915985 1_455
Sb0 Sb3 2.995462 1_555
Sb0 Sb8 3.474383 1_565
Sb0 Sb4 3.474383 1_455
Sb0 Sb6 3.474385 1_555
Sb0 Sb11 3.474397 1_565
Sb1 Sb3 2.915985 1_655
Sb1 Sb2 2.995462 1_555
Sb1 Sb5 3.474383 1_655
Sb1 Sb9 3.474383 1_545
Sb1 Sb7 3.474385 1_555
Sb1 Sb10 3.474397 1_545
Sb2 Sb7 3.474379 1_555
Sb2 Sb8 3.474385 1_555
Sb2 Sb5 3.474397 1_655
Sb3 Sb6 3.474379 1_555
Sb3 Sb9 3.474385 1_555
Sb3 Sb4 3.474397 1_455
Sb4 Sb6 2.915985 1_554
Sb4 Sb7 2.995462 1_555
Sb4 Sb8 3.474383 1_554
Sb5 Sb7 2.915985 1_556
Sb5 Sb6 2.995462 1_555
Sb5 Sb9 3.474383 1_556
Sb6 Sb9 3.474397 1_556
Sb7 Sb8 3.474397 1_554
Sb10 Sb8 2.915985 1_565
Sb10 Sb9 2.995462 1_555
Sb10 Sb7 3.474379 1_555
Sb10 Sb3 3.474379 1_555
Sb10 Sb4 3.474385 1_555
Sb11 Sb9 2.915985 1_545
Sb11 Sb8 2.995462 1_555
Sb11 Sb6 3.474379 1_555
Sb11 Sb2 3.474379 1_555
Sb11 Sb5 3.474385 1_555
