# generated using pymatgen
data_Mg17Al11Rh
_symmetry_space_group_name_H-M   'P 1'
_cell_length_a   9.09045349
_cell_length_b   9.09045349
_cell_length_c   8.92796454
_cell_angle_alpha   70.80107422
_cell_angle_beta   70.80107422
_cell_angle_gamma   109.75756972
_symmetry_Int_Tables_number   1
_chemical_formula_structural   Mg17Al11Rh
_chemical_formula_sum   'Mg17 Al11 Rh1'
_cell_volume   569.72824025
_cell_formula_units_Z   1
loop_
 _symmetry_equiv_pos_site_id
 _symmetry_equiv_pos_as_xyz
  1  'x, y, z'
loop_
 _atom_site_type_symbol
 _atom_site_label
 _atom_site_symmetry_multiplicity
 _atom_site_fract_x
 _atom_site_fract_y
 _atom_site_fract_z
 _atom_site_occupancy
  Mg  Mg0  1  0.38811800  0.38811800  0.28376000  1
  Mg  Mg1  1  0.00276200  0.00276200  0.64574300  1
  Mg  Mg2  1  0.68389500  0.68389500  0.70818200  1
  Mg  Mg3  1  0.65128800  0.65128800  0.34518500  1
  Mg  Mg4  1  0.00351900  0.00351900  0.00471500  1
  Mg  Mg5  1  0.31605600  0.59264200  0.00192200  1
  Mg  Mg6  1  0.00668900  0.31591600  0.38864400  1
  Mg  Mg7  1  0.40030800  0.71705300  0.59974600  1
  Mg  Mg8  1  0.00431800  0.33953800  0.00657200  1
  Mg  Mg9  1  0.28538000  0.68262100  0.31585400  1
  Mg  Mg10  1  0.59910300  0.99905500  0.68557300  1
  Mg  Mg11  1  0.99905500  0.59910300  0.68557300  1
  Mg  Mg12  1  0.68262100  0.28538000  0.31585400  1
  Mg  Mg13  1  0.33953800  0.00431800  0.00657200  1
  Mg  Mg14  1  0.71705300  0.40030800  0.59974600  1
  Mg  Mg15  1  0.31591600  0.00668900  0.38864400  1
  Mg  Mg16  1  0.59264200  0.31605600  0.00192200  1
  Al  Al0  1  0.35971600  0.35971600  0.83790600  1
  Al  Al1  1  0.63609500  0.81527000  0.99744000  1
  Al  Al2  1  0.82732200  0.00785600  0.36071600  1
  Al  Al3  1  0.18406000  0.36853800  0.63427700  1
  Al  Al4  1  0.82049900  0.18545300  0.81496600  1
  Al  Al5  1  0.63191100  0.99813100  0.18984300  1
  Al  Al6  1  0.99813100  0.63191100  0.18984300  1
  Al  Al7  1  0.18545300  0.82049900  0.81496600  1
  Al  Al8  1  0.36853800  0.18406000  0.63427700  1
  Al  Al9  1  0.00785600  0.82732200  0.36071600  1
  Al  Al10  1  0.81527000  0.63609500  0.99744000  1
  Rh  Rh0  1  0.17726900  0.17726900  0.18350300  1
loop_
_geom_bond_atom_site_label_1
_geom_bond_atom_site_label_2
_geom_bond_distance
_geom_bond_site_symmetry_2
Mg0 Rh0 2.814555 1_555
Mg0 Mg16 3.007978 1_555
Mg0 Mg5 3.007978 1_555
Mg0 Mg15 3.041702 1_555
Mg0 Mg6 3.041702 1_555
Mg0 Mg3 3.098971 1_555
Mg0 Mg9 3.184412 1_555
Mg0 Mg12 3.184412 1_555
Mg0 Mg1 3.434968 1_555
Mg1 Mg6 2.992257 1_555
Mg1 Mg15 2.992257 1_555
Mg1 Mg2 3.051067 1_445
Mg1 Mg4 3.209422 1_556
Mg1 Rh0 3.428004 1_555
Mg1 Mg11 3.555660 1_445
Mg1 Mg10 3.555660 1_445
Mg2 Mg7 3.106236 1_555
Mg2 Mg5 3.110178 1_556
Mg2 Mg3 3.447152 1_555
Mg3 Mg7 3.022154 1_555
Mg3 Mg4 3.163934 1_665
Mg3 Mg9 3.518257 1_555
Mg4 Rh0 3.027709 1_555
Mg4 Mg8 3.057627 1_555
Mg5 Mg8 2.962737 1_555
Mg5 Mg6 3.045711 1_555
Mg5 Mg7 3.113369 1_554
Mg5 Mg9 3.122548 1_555
Mg5 Rh0 3.144130 1_555
Mg6 Rh0 2.884276 1_555
Mg6 Mg9 3.120195 1_555
Mg6 Mg8 3.354412 1_555
Mg7 Mg9 3.107381 1_555
Mg7 Mg8 3.574687 1_556
Mg8 Rh0 2.968468 1_555
Mg10 Mg7 3.081427 1_555
Mg10 Mg13 3.082539 1_566
Mg10 Mg12 3.100288 1_565
Mg10 Mg14 3.165251 1_565
Mg10 Mg2 3.171399 1_555
Mg10 Mg5 3.190210 1_556
Mg10 Mg6 3.217912 1_665
Mg11 Mg14 3.081427 1_555
Mg11 Mg8 3.082539 1_656
Mg11 Mg9 3.100288 1_655
Mg11 Mg7 3.165251 1_655
Mg11 Mg2 3.171399 1_555
Mg11 Mg16 3.190210 1_556
Mg11 Mg15 3.217912 1_665
Mg12 Mg8 3.039825 1_655
Mg12 Mg14 3.107381 1_555
Mg12 Mg15 3.120195 1_555
Mg12 Mg16 3.122548 1_555
Mg12 Mg6 3.162716 1_655
Mg12 Mg3 3.518257 1_555
Mg13 Mg16 2.962737 1_555
Mg13 Rh0 2.968468 1_555
Mg13 Mg9 3.039825 1_545
Mg13 Mg4 3.057627 1_555
Mg13 Mg15 3.354412 1_555
Mg13 Mg14 3.574687 1_554
Mg14 Mg3 3.022154 1_555
Mg14 Mg2 3.106236 1_555
Mg14 Mg16 3.113369 1_556
Mg14 Mg6 3.182109 1_655
Mg15 Rh0 2.884276 1_555
Mg15 Mg16 3.045711 1_555
Mg15 Mg9 3.162716 1_545
Mg15 Mg7 3.182109 1_545
Mg16 Mg2 3.110178 1_554
Mg16 Rh0 3.144130 1_555
Al0 Rh0 2.535853 1_556
Al0 Al3 2.785899 1_555
Al0 Al8 2.785899 1_555
Al0 Mg2 2.889516 1_555
Al0 Mg8 2.992796 1_556
Al0 Mg13 2.992796 1_556
Al0 Mg5 3.001723 1_556
Al0 Mg16 3.001723 1_556
Al0 Mg14 3.056138 1_555
Al0 Mg7 3.056138 1_555
Al0 Mg4 3.123382 1_556
Al0 Mg3 3.648973 1_555
Al1 Al10 2.664481 1_555
Al1 Al4 2.751841 1_565
Al1 Al5 2.755569 1_556
Al1 Mg5 2.907039 1_556
Al1 Mg10 2.931381 1_555
Al1 Mg9 2.980818 1_556
Al1 Mg3 3.042601 1_556
Al1 Mg1 3.103244 1_665
Al1 Mg2 3.150483 1_555
Al1 Mg4 3.231112 1_666
Al1 Mg0 3.233831 1_556
Al1 Mg13 3.647923 1_566
Al2 Rh0 2.601884 1_655
Al2 Al9 2.684691 1_645
Al2 Al5 2.693599 1_545
Al2 Mg6 2.864019 1_655
Al2 Mg10 2.915479 1_545
Al2 Mg2 2.954904 1_545
Al2 Mg8 2.963283 1_655
Al2 Mg4 3.073421 1_655
Al2 Mg3 3.165621 1_545
Al2 Mg12 3.190741 1_555
Al2 Mg7 3.242554 1_545
Al2 Mg1 3.415083 1_655
Al3 Al4 2.702560 1_455
Al3 Al8 2.743341 1_555
Al3 Mg9 2.871182 1_555
Al3 Mg7 2.957202 1_555
Al3 Mg0 2.976291 1_555
Al3 Mg8 3.057401 1_556
Al3 Mg1 3.121376 1_555
Al3 Mg11 3.152611 1_455
Al3 Mg6 3.183073 1_555
Al3 Mg4 3.189436 1_556
Al3 Mg3 3.514822 1_555
Al4 Al5 2.746744 1_546
Al4 Mg14 2.890147 1_555
Al4 Mg10 2.960934 1_545
Al4 Mg16 3.029521 1_556
Al4 Mg8 3.090964 1_656
Al4 Mg1 3.106442 1_655
Al4 Mg11 3.145165 1_555
Al4 Mg6 3.193016 1_655
Al4 Mg4 3.200696 1_656
Al4 Mg13 3.621388 1_556
Al5 Mg15 2.880352 1_565
Al5 Mg9 2.975515 1_555
Al5 Mg16 3.032687 1_565
Al5 Mg7 3.082134 1_555
Al5 Mg3 3.091248 1_555
Al5 Mg8 3.111835 1_665
Al5 Mg12 3.123468 1_565
Al5 Mg4 3.210669 1_665
Al5 Mg13 3.555993 1_565
Al6 Al9 2.693599 1_655
Al6 Al7 2.746744 1_654
Al6 Mg6 2.880352 1_655
Al6 Mg12 2.975515 1_555
Al6 Mg5 3.032687 1_655
Al6 Mg14 3.082134 1_555
Al6 Mg3 3.091248 1_555
Al6 Mg13 3.111835 1_665
Al6 Mg9 3.123468 1_655
Al6 Mg4 3.210669 1_665
Al6 Mg8 3.555993 1_655
Al7 Al8 2.702560 1_565
Al7 Mg7 2.890147 1_555
Al7 Mg11 2.960934 1_455
Al7 Mg5 3.029521 1_556
Al7 Mg13 3.090964 1_566
Al7 Mg1 3.106442 1_565
Al7 Mg10 3.145165 1_555
Al7 Mg15 3.193016 1_565
Al7 Mg4 3.200696 1_566
Al7 Mg8 3.621388 1_556
Al8 Mg12 2.871182 1_555
Al8 Mg14 2.957202 1_555
Al8 Mg0 2.976291 1_555
Al8 Mg13 3.057401 1_556
Al8 Mg1 3.121376 1_555
Al8 Mg10 3.152611 1_545
Al8 Mg15 3.183073 1_555
Al8 Mg4 3.189436 1_556
Al8 Mg3 3.514822 1_555
Al9 Rh0 2.601884 1_565
Al9 Mg15 2.864019 1_565
Al9 Mg11 2.915479 1_455
Al9 Mg2 2.954904 1_455
Al9 Mg13 2.963283 1_565
Al9 Mg4 3.073421 1_565
Al9 Mg3 3.165621 1_455
Al9 Mg9 3.190741 1_555
Al9 Mg14 3.242554 1_455
Al9 Mg1 3.415083 1_565
Al10 Al7 2.751841 1_655
Al10 Al6 2.755569 1_556
Al10 Mg16 2.907039 1_556
Al10 Mg11 2.931381 1_555
Al10 Mg12 2.980818 1_556
Al10 Mg3 3.042601 1_556
Al10 Mg1 3.103244 1_665
Al10 Mg2 3.150483 1_555
Al10 Mg4 3.231112 1_666
Al10 Mg0 3.233831 1_556
Al10 Mg8 3.647923 1_656
