# generated using pymatgen
data_Li9Mn7O16
_symmetry_space_group_name_H-M   'P 1'
_cell_length_a   5.75304700
_cell_length_b   5.84548900
_cell_length_c   8.82584533
_cell_angle_alpha   89.48297812
_cell_angle_beta   90.00000000
_cell_angle_gamma   90.00000000
_symmetry_Int_Tables_number   1
_chemical_formula_structural   Li9Mn7O16
_chemical_formula_sum   'Li9 Mn7 O16'
_cell_volume   296.79556020
_cell_formula_units_Z   1
loop_
 _symmetry_equiv_pos_site_id
 _symmetry_equiv_pos_as_xyz
  1  'x, y, z'
loop_
 _atom_site_type_symbol
 _atom_site_label
 _atom_site_symmetry_multiplicity
 _atom_site_fract_x
 _atom_site_fract_y
 _atom_site_fract_z
 _atom_site_occupancy
  Li  Li0  1  0.74558300  0.75204800  0.24093400  1
  Li  Li1  1  0.74558300  0.24795200  0.75906600  1
  Li  Li2  1  0.50000000  0.00000000  0.50000000  1
  Li  Li3  1  0.50000000  0.50000000  0.00000000  1
  Li  Li4  1  0.25441700  0.24795200  0.75906600  1
  Li  Li5  1  0.25441700  0.75204800  0.24093400  1
  Li  Li6  1  0.00000000  0.50000000  0.00000000  1
  Li  Li7  1  0.00000000  0.00000000  0.50000000  1
  Li  Li8  1  0.50000000  0.00000000  0.00000000  1
  Mn  Mn0  1  0.00000000  0.00000000  0.00000000  1
  Mn  Mn1  1  0.25118900  0.24636000  0.24063900  1
  Mn  Mn2  1  0.00000000  0.50000000  0.50000000  1
  Mn  Mn3  1  0.74881100  0.24636000  0.24063900  1
  Mn  Mn4  1  0.74881100  0.75364000  0.75936100  1
  Mn  Mn5  1  0.50000000  0.50000000  0.50000000  1
  Mn  Mn6  1  0.25118900  0.75364000  0.75936100  1
  O  O0  1  0.76146100  0.76425500  0.98713500  1
  O  O1  1  0.74927400  0.27230200  0.49423500  1
  O  O2  1  0.50000000  0.02417100  0.25526700  1
  O  O3  1  0.50000000  0.51915200  0.75591500  1
  O  O4  1  0.25072600  0.27230200  0.49423500  1
  O  O5  1  0.23853900  0.76425500  0.98713500  1
  O  O6  1  0.00000000  0.52581500  0.74998900  1
  O  O7  1  0.00000000  0.01647400  0.25710200  1
  O  O8  1  0.74927400  0.72769800  0.50576500  1
  O  O9  1  0.76146100  0.23574500  0.01286500  1
  O  O10  1  0.50000000  0.97582900  0.74473300  1
  O  O11  1  0.50000000  0.48084800  0.24408500  1
  O  O12  1  0.23853900  0.23574500  0.01286500  1
  O  O13  1  0.25072600  0.72769800  0.50576500  1
  O  O14  1  0.00000000  0.47418500  0.25001100  1
  O  O15  1  0.00000000  0.98352600  0.74289800  1
loop_
_geom_bond_atom_site_label_1
_geom_bond_atom_site_label_2
_geom_bond_distance
_geom_bond_site_symmetry_2
Li0 O11 2.123509 1_555
Li0 O2 2.132154 1_565
Li0 O7 2.134448 1_665
Li0 O14 2.187368 1_655
Li0 O0 2.242345 1_554
Li0 O8 2.340501 1_555
Li1 O3 2.123509 1_555
Li1 O10 2.132154 1_545
Li1 O15 2.134448 1_645
Li1 O6 2.187368 1_655
Li1 O9 2.242345 1_556
Li1 O1 2.340501 1_555
Li2 O8 2.142745 1_545
Li2 O4 2.142745 1_555
Li2 O1 2.142745 1_555
Li2 O13 2.142745 1_545
Li2 O10 2.163319 1_545
Li2 O2 2.163319 1_555
Li3 O11 2.156154 1_555
Li3 O3 2.156154 1_554
Li3 O0 2.158341 1_554
Li3 O5 2.158341 1_554
Li3 O9 2.158341 1_555
Li3 O12 2.158341 1_555
Li4 O3 2.123509 1_555
Li4 O10 2.132154 1_545
Li4 O15 2.134448 1_545
Li4 O6 2.187368 1_555
Li4 O12 2.242345 1_556
Li4 O4 2.340501 1_555
Li5 O11 2.123509 1_555
Li5 O2 2.132154 1_565
Li5 O7 2.134448 1_565
Li5 O14 2.187368 1_555
Li5 O5 2.242345 1_554
Li5 O13 2.340501 1_555
Li6 O5 2.068599 1_554
Li6 O0 2.068599 1_454
Li6 O12 2.068599 1_555
Li6 O9 2.068599 1_455
Li6 O6 2.210353 1_554
Li6 O14 2.210353 1_555
Li7 O15 2.145074 1_545
Li7 O7 2.145074 1_555
Li7 O1 2.148345 1_455
Li7 O4 2.148345 1_555
Li7 O13 2.148345 1_545
Li7 O8 2.148345 1_445
Li8 O9 2.043853 1_555
Li8 O0 2.043853 1_544
Li8 O12 2.043853 1_555
Li8 O5 2.043853 1_544
Li8 O2 2.258645 1_555
Li8 O10 2.258645 1_544
Mn0 O12 1.948846 1_555
Mn0 O5 1.948846 1_544
Mn0 O9 1.948846 1_455
Mn0 O0 1.948846 1_444
Mn0 O7 2.272053 1_555
Mn0 O15 2.272053 1_544
Mn1 O2 1.936362 1_555
Mn1 O14 1.967411 1_555
Mn1 O7 1.977801 1_555
Mn1 O11 1.982285 1_555
Mn1 O12 2.013131 1_555
Mn1 O4 2.244697 1_555
Mn2 O13 1.963674 1_555
Mn2 O8 1.963674 1_455
Mn2 O4 1.963674 1_555
Mn2 O1 1.963674 1_455
Mn2 O6 2.212877 1_555
Mn2 O14 2.212877 1_555
Mn3 O2 1.936362 1_555
Mn3 O14 1.967411 1_655
Mn3 O7 1.977801 1_655
Mn3 O11 1.982285 1_555
Mn3 O9 2.013131 1_555
Mn3 O1 2.244697 1_555
Mn4 O10 1.936362 1_555
Mn4 O6 1.967411 1_655
Mn4 O15 1.977801 1_655
Mn4 O3 1.982285 1_555
Mn4 O0 2.013131 1_555
Mn4 O8 2.244697 1_555
Mn5 O13 1.957547 1_555
Mn5 O8 1.957547 1_555
Mn5 O4 1.957547 1_555
Mn5 O1 1.957547 1_555
Mn5 O3 2.262448 1_555
Mn5 O11 2.262448 1_555
Mn6 O10 1.936362 1_555
Mn6 O6 1.967411 1_555
Mn6 O15 1.977801 1_555
Mn6 O3 1.982285 1_555
Mn6 O5 2.013131 1_555
Mn6 O13 2.244697 1_555
