# generated using pymatgen
data_Ce2(CuSn)3
_symmetry_space_group_name_H-M   'P 1'
_cell_length_a   6.32398300
_cell_length_b   6.32398300
_cell_length_c   20.95650100
_cell_angle_alpha   90.00000000
_cell_angle_beta   90.00000000
_cell_angle_gamma   90.00000000
_symmetry_Int_Tables_number   1
_chemical_formula_structural   Ce2(CuSn)3
_chemical_formula_sum   'Ce2 Cu3 Sn3'
_cell_volume   838.10833556
_cell_formula_units_Z   1
loop_
 _symmetry_equiv_pos_site_id
 _symmetry_equiv_pos_as_xyz
  1  'x, y, z'
loop_
 _atom_site_type_symbol
 _atom_site_label
 _atom_site_symmetry_multiplicity
 _atom_site_fract_x
 _atom_site_fract_y
 _atom_site_fract_z
 _atom_site_occupancy
  Ce  Ce0  1  0.50000000  0.50000000  0.75740100  1
  Ce  Ce1  1  0.50000000  0.50000000  0.24259900  1
  Cu  Cu0  1  0.50000000  0.50000000  0.11765500  1
  Cu  Cu1  1  0.50000000  0.50000000  0.88234500  1
  Cu  Cu2  1  0.50000000  0.50000000  0.50000000  1
  Sn  Sn0  1  0.50000000  0.50000000  0.38227500  1
  Sn  Sn1  1  0.50000000  0.50000000  0.61772500  1
  Sn  Sn2  1  0.50000000  0.50000000  0.00000000  1
loop_
_geom_bond_atom_site_label_1
_geom_bond_atom_site_label_2
_geom_bond_distance
_geom_bond_site_symmetry_2
Ce0 Cu1 2.618389 1_555
Ce0 Sn1 2.927120 1_555
Ce1 Cu0 2.618389 1_555
Ce1 Sn0 2.927120 1_555
Cu0 Sn2 2.465637 1_555
Cu1 Sn2 2.465637 1_556
Cu2 Sn1 2.467104 1_555
Cu2 Sn0 2.467104 1_555
