# generated using pymatgen
data_Ba2Mn2TlO7
_symmetry_space_group_name_H-M   'P 1'
_cell_length_a   3.77790200
_cell_length_b   3.77790200
_cell_length_c   14.13712200
_cell_angle_alpha   90.00000000
_cell_angle_beta   90.00000000
_cell_angle_gamma   90.00000000
_symmetry_Int_Tables_number   1
_chemical_formula_structural   Ba2Mn2TlO7
_chemical_formula_sum   'Ba2 Mn2 Tl1 O7'
_cell_volume   201.77268902
_cell_formula_units_Z   1
loop_
 _symmetry_equiv_pos_site_id
 _symmetry_equiv_pos_as_xyz
  1  'x, y, z'
loop_
 _atom_site_type_symbol
 _atom_site_label
 _atom_site_symmetry_multiplicity
 _atom_site_fract_x
 _atom_site_fract_y
 _atom_site_fract_z
 _atom_site_occupancy
  Ba  Ba0  1  0.50000000  0.50000000  0.69968000  1
  Ba  Ba1  1  0.50000000  0.50000000  0.30032000  1
  Mn  Mn0  1  0.00000000  0.00000000  0.87133400  1
  Mn  Mn1  1  0.00000000  0.00000000  0.12866600  1
  Tl  Tl0  1  0.00000000  0.00000000  0.50000000  1
  O  O0  1  0.50000000  0.50000000  0.50000000  1
  O  O1  1  0.00000000  0.50000000  0.85112900  1
  O  O2  1  0.50000000  0.00000000  0.85112900  1
  O  O3  1  0.00000000  0.50000000  0.14887100  1
  O  O4  1  0.50000000  0.00000000  0.14887100  1
  O  O5  1  0.00000000  0.00000000  0.64769200  1
  O  O6  1  0.00000000  0.00000000  0.35230800  1
loop_
_geom_bond_atom_site_label_1
_geom_bond_atom_site_label_2
_geom_bond_distance
_geom_bond_site_symmetry_2
Ba0 O5 2.770639 1_555
Ba0 O5 2.770639 1_565
Ba0 O5 2.770639 1_655
Ba0 O5 2.770639 1_665
Ba0 O0 2.822901 1_555
Ba0 O1 2.855213 1_655
Ba0 O2 2.855213 1_555
Ba0 O2 2.855213 1_565
Ba0 O1 2.855213 1_555
Ba1 O6 2.770639 1_665
Ba1 O6 2.770639 1_555
Ba1 O6 2.770639 1_655
Ba1 O6 2.770639 1_565
Ba1 O0 2.822901 1_555
Ba1 O3 2.855213 1_655
Ba1 O4 2.855213 1_555
Ba1 O4 2.855213 1_565
Ba1 O3 2.855213 1_555
Mn0 O2 1.910426 1_555
Mn0 O1 1.910426 1_545
Mn0 O2 1.910426 1_455
Mn0 O1 1.910426 1_555
Mn1 O4 1.910426 1_555
Mn1 O4 1.910426 1_455
Mn1 O3 1.910426 1_555
Mn1 O3 1.910426 1_545
O0 Tl0 2.671380 1_665
O0 Tl0 2.671380 1_655
O0 Tl0 2.671380 1_555
O0 Tl0 2.671380 1_565
O1 O2 2.671380 1_465
O1 O2 2.671380 1_455
O1 O2 2.671380 1_555
O1 O2 2.671380 1_565
O3 O4 2.671380 1_465
O3 O4 2.671380 1_455
O3 O4 2.671380 1_555
O3 O4 2.671380 1_565
O5 Tl0 2.087940 1_555
O6 Tl0 2.087940 1_555
