# generated using pymatgen
data_RbMgN
_symmetry_space_group_name_H-M   'P 1'
_cell_length_a   21.48945600
_cell_length_b   7.84607800
_cell_length_c   13.98374000
_cell_angle_alpha   90.00000000
_cell_angle_beta   90.00000000
_cell_angle_gamma   90.00000000
_symmetry_Int_Tables_number   1
_chemical_formula_structural   RbMgN
_chemical_formula_sum   'Rb32 Mg32 N32'
_cell_volume   2357.76970612
_cell_formula_units_Z   32
loop_
 _symmetry_equiv_pos_site_id
 _symmetry_equiv_pos_as_xyz
  1  'x, y, z'
loop_
 _atom_site_type_symbol
 _atom_site_label
 _atom_site_symmetry_multiplicity
 _atom_site_fract_x
 _atom_site_fract_y
 _atom_site_fract_z
 _atom_site_occupancy
  Rb  Rb0_0  1  0.33134150  0.12500000  0.02252000  1
  Rb  Rb0_1  1  0.33134150  0.12500000  0.52252000  1
  Rb  Rb0_2  1  0.33134150  0.62500000  0.02252000  1
  Rb  Rb0_3  1  0.33134150  0.62500000  0.52252000  1
  Rb  Rb0_4  1  0.83134150  0.12500000  0.02252000  1
  Rb  Rb0_5  1  0.83134150  0.12500000  0.52252000  1
  Rb  Rb0_6  1  0.83134150  0.62500000  0.02252000  1
  Rb  Rb0_7  1  0.83134150  0.62500000  0.52252000  1
  Rb  Rb1_0  1  0.08134150  0.12500000  0.22748000  1
  Rb  Rb1_1  1  0.08134150  0.12500000  0.72748000  1
  Rb  Rb1_2  1  0.08134150  0.62500000  0.22748000  1
  Rb  Rb1_3  1  0.08134150  0.62500000  0.72748000  1
  Rb  Rb1_4  1  0.58134150  0.12500000  0.22748000  1
  Rb  Rb1_5  1  0.58134150  0.12500000  0.72748000  1
  Rb  Rb1_6  1  0.58134150  0.62500000  0.22748000  1
  Rb  Rb1_7  1  0.58134150  0.62500000  0.72748000  1
  Rb  Rb2_0  1  0.16865850  0.37500000  0.47748000  1
  Rb  Rb2_1  1  0.16865850  0.37500000  0.97748000  1
  Rb  Rb2_2  1  0.16865850  0.87500000  0.47748000  1
  Rb  Rb2_3  1  0.16865850  0.87500000  0.97748000  1
  Rb  Rb2_4  1  0.66865850  0.37500000  0.47748000  1
  Rb  Rb2_5  1  0.66865850  0.37500000  0.97748000  1
  Rb  Rb2_6  1  0.66865850  0.87500000  0.47748000  1
  Rb  Rb2_7  1  0.66865850  0.87500000  0.97748000  1
  Rb  Rb3_0  1  0.41865850  0.37500000  0.27252000  1
  Rb  Rb3_1  1  0.41865850  0.37500000  0.77252000  1
  Rb  Rb3_2  1  0.41865850  0.87500000  0.27252000  1
  Rb  Rb3_3  1  0.41865850  0.87500000  0.77252000  1
  Rb  Rb3_4  1  0.91865850  0.37500000  0.27252000  1
  Rb  Rb3_5  1  0.91865850  0.37500000  0.77252000  1
  Rb  Rb3_6  1  0.91865850  0.87500000  0.27252000  1
  Rb  Rb3_7  1  0.91865850  0.87500000  0.77252000  1
  Mg  Mg0_0  1  0.26929900  0.12500000  0.30245950  1
  Mg  Mg0_1  1  0.26929900  0.12500000  0.80245950  1
  Mg  Mg0_2  1  0.26929900  0.62500000  0.30245950  1
  Mg  Mg0_3  1  0.26929900  0.62500000  0.80245950  1
  Mg  Mg0_4  1  0.76929900  0.12500000  0.30245950  1
  Mg  Mg0_5  1  0.76929900  0.12500000  0.80245950  1
  Mg  Mg0_6  1  0.76929900  0.62500000  0.30245950  1
  Mg  Mg0_7  1  0.76929900  0.62500000  0.80245950  1
  Mg  Mg1_0  1  0.01929900  0.12500000  0.44754050  1
  Mg  Mg1_1  1  0.01929900  0.12500000  0.94754050  1
  Mg  Mg1_2  1  0.01929900  0.62500000  0.44754050  1
  Mg  Mg1_3  1  0.01929900  0.62500000  0.94754050  1
  Mg  Mg1_4  1  0.51929900  0.12500000  0.44754050  1
  Mg  Mg1_5  1  0.51929900  0.12500000  0.94754050  1
  Mg  Mg1_6  1  0.51929900  0.62500000  0.44754050  1
  Mg  Mg1_7  1  0.51929900  0.62500000  0.94754050  1
  Mg  Mg2_0  1  0.23070100  0.37500000  0.19754050  1
  Mg  Mg2_1  1  0.23070100  0.37500000  0.69754050  1
  Mg  Mg2_2  1  0.23070100  0.87500000  0.19754050  1
  Mg  Mg2_3  1  0.23070100  0.87500000  0.69754050  1
  Mg  Mg2_4  1  0.73070100  0.37500000  0.19754050  1
  Mg  Mg2_5  1  0.73070100  0.37500000  0.69754050  1
  Mg  Mg2_6  1  0.73070100  0.87500000  0.19754050  1
  Mg  Mg2_7  1  0.73070100  0.87500000  0.69754050  1
  Mg  Mg3_0  1  0.48070100  0.37500000  0.05245950  1
  Mg  Mg3_1  1  0.48070100  0.37500000  0.55245950  1
  Mg  Mg3_2  1  0.48070100  0.87500000  0.05245950  1
  Mg  Mg3_3  1  0.48070100  0.87500000  0.55245950  1
  Mg  Mg3_4  1  0.98070100  0.37500000  0.05245950  1
  Mg  Mg3_5  1  0.98070100  0.37500000  0.55245950  1
  Mg  Mg3_6  1  0.98070100  0.87500000  0.05245950  1
  Mg  Mg3_7  1  0.98070100  0.87500000  0.55245950  1
  N  N0_0  1  0.47097100  0.12500000  0.08545450  1
  N  N0_1  1  0.47097100  0.12500000  0.58545450  1
  N  N0_2  1  0.47097100  0.62500000  0.08545450  1
  N  N0_3  1  0.47097100  0.62500000  0.58545450  1
  N  N0_4  1  0.97097100  0.12500000  0.08545450  1
  N  N0_5  1  0.97097100  0.12500000  0.58545450  1
  N  N0_6  1  0.97097100  0.62500000  0.08545450  1
  N  N0_7  1  0.97097100  0.62500000  0.58545450  1
  N  N1_0  1  0.22097100  0.12500000  0.16454550  1
  N  N1_1  1  0.22097100  0.12500000  0.66454550  1
  N  N1_2  1  0.22097100  0.62500000  0.16454550  1
  N  N1_3  1  0.22097100  0.62500000  0.66454550  1
  N  N1_4  1  0.72097100  0.12500000  0.16454550  1
  N  N1_5  1  0.72097100  0.12500000  0.66454550  1
  N  N1_6  1  0.72097100  0.62500000  0.16454550  1
  N  N1_7  1  0.72097100  0.62500000  0.66454550  1
  N  N2_0  1  0.02902900  0.37500000  0.41454550  1
  N  N2_1  1  0.02902900  0.37500000  0.91454550  1
  N  N2_2  1  0.02902900  0.87500000  0.41454550  1
  N  N2_3  1  0.02902900  0.87500000  0.91454550  1
  N  N2_4  1  0.52902900  0.37500000  0.41454550  1
  N  N2_5  1  0.52902900  0.37500000  0.91454550  1
  N  N2_6  1  0.52902900  0.87500000  0.41454550  1
  N  N2_7  1  0.52902900  0.87500000  0.91454550  1
  N  N3_0  1  0.27902900  0.37500000  0.33545450  1
  N  N3_1  1  0.27902900  0.37500000  0.83545450  1
  N  N3_2  1  0.27902900  0.87500000  0.33545450  1
  N  N3_3  1  0.27902900  0.87500000  0.83545450  1
  N  N3_4  1  0.77902900  0.37500000  0.33545450  1
  N  N3_5  1  0.77902900  0.37500000  0.83545450  1
  N  N3_6  1  0.77902900  0.87500000  0.33545450  1
  N  N3_7  1  0.77902900  0.87500000  0.83545450  1
loop_
_geom_bond_atom_site_label_1
_geom_bond_atom_site_label_2
_geom_bond_distance
_geom_bond_site_symmetry_2
Rb0_0 Rb0_2 3.923039 1_545
Rb0_0 Rb0_2 3.923039 1_555
Rb0_1 Rb0_3 3.923039 1_555
Rb0_1 Rb0_3 3.923039 1_545
Rb0_4 Rb0_6 3.923039 1_555
Rb0_4 Rb0_6 3.923039 1_545
Rb0_5 Rb0_7 3.923039 1_545
Rb0_5 Rb0_7 3.923039 1_555
Rb1_0 Rb1_2 3.923039 1_545
Rb1_0 Rb1_2 3.923039 1_555
Rb1_1 Rb1_3 3.923039 1_545
Rb1_1 Rb1_3 3.923039 1_555
Rb1_4 Rb1_6 3.923039 1_545
Rb1_4 Rb1_6 3.923039 1_555
Rb1_5 Rb1_7 3.923039 1_545
Rb1_5 Rb1_7 3.923039 1_555
Rb2_0 Rb2_2 3.923039 1_545
Rb2_0 Rb2_2 3.923039 1_555
Rb2_1 Rb2_3 3.923039 1_555
Rb2_1 Rb2_3 3.923039 1_545
Rb2_4 Rb2_6 3.923039 1_545
Rb2_4 Rb2_6 3.923039 1_555
Rb2_5 Rb2_7 3.923039 1_545
Rb2_5 Rb2_7 3.923039 1_555
Rb3_0 Rb3_2 3.923039 1_545
Rb3_0 Rb3_2 3.923039 1_555
Rb3_1 Rb3_3 3.923039 1_545
Rb3_1 Rb3_3 3.923039 1_555
Rb3_4 Rb3_6 3.923039 1_555
Rb3_4 Rb3_6 3.923039 1_545
Rb3_5 Rb3_7 3.923039 1_555
Rb3_5 Rb3_7 3.923039 1_545
Mg0_0 N3_2 2.025873 1_545
Mg0_0 N3_0 2.025873 1_555
Mg0_0 N1_0 2.190408 1_555
Mg0_0 Mg2_2 2.586137 1_545
Mg0_0 Mg2_0 2.586137 1_555
Mg0_0 Rb0_1 3.353679 1_555
Mg0_0 Rb3_2 3.784801 1_545
Mg0_0 Rb3_0 3.784801 1_555
Mg0_0 Rb2_2 3.809835 1_545
Mg0_0 Rb2_0 3.809835 1_555
Mg0_1 N3_1 2.025873 1_555
Mg0_1 N3_3 2.025873 1_545
Mg0_1 N1_1 2.190408 1_555
Mg0_1 Mg2_3 2.586137 1_545
Mg0_1 Mg2_1 2.586137 1_555
Mg0_1 Rb0_0 3.353679 1_556
Mg0_1 Rb3_3 3.784801 1_545
Mg0_1 Rb3_1 3.784801 1_555
Mg0_1 Rb2_3 3.809835 1_545
Mg0_1 Rb2_1 3.809835 1_555
Mg0_2 N3_0 2.025873 1_555
Mg0_2 N3_2 2.025873 1_555
Mg0_2 N1_2 2.190408 1_555
Mg0_2 Mg2_0 2.586137 1_555
Mg0_2 Mg2_2 2.586137 1_555
Mg0_2 Rb0_3 3.353679 1_555
Mg0_2 Rb3_0 3.784801 1_555
Mg0_2 Rb3_2 3.784801 1_555
Mg0_2 Rb2_2 3.809835 1_555
Mg0_2 Rb2_0 3.809835 1_555
Mg0_3 N3_3 2.025873 1_555
Mg0_3 N3_1 2.025873 1_555
Mg0_3 N1_3 2.190408 1_555
Mg0_3 Mg2_3 2.586137 1_555
Mg0_3 Mg2_1 2.586137 1_555
Mg0_3 Rb0_2 3.353679 1_556
Mg0_3 Rb3_3 3.784801 1_555
Mg0_3 Rb3_1 3.784801 1_555
Mg0_3 Rb2_3 3.809835 1_555
Mg0_3 Rb2_1 3.809835 1_555
Mg0_4 N3_4 2.025873 1_555
Mg0_4 N3_6 2.025873 1_545
Mg0_4 N1_4 2.190408 1_555
Mg0_4 Mg2_4 2.586137 1_555
Mg0_4 Mg2_6 2.586137 1_545
Mg0_4 Rb0_5 3.353679 1_555
Mg0_4 Rb3_6 3.784801 1_545
Mg0_4 Rb3_4 3.784801 1_555
Mg0_4 Rb2_4 3.809835 1_555
Mg0_4 Rb2_6 3.809835 1_545
Mg0_5 N3_7 2.025873 1_545
Mg0_5 N3_5 2.025873 1_555
Mg0_5 N1_5 2.190408 1_555
Mg0_5 Mg2_7 2.586137 1_545
Mg0_5 Mg2_5 2.586137 1_555
Mg0_5 Rb0_4 3.353679 1_556
Mg0_5 Rb3_7 3.784801 1_545
Mg0_5 Rb3_5 3.784801 1_555
Mg0_5 Rb2_7 3.809835 1_545
Mg0_5 Rb2_5 3.809835 1_555
Mg0_6 N3_6 2.025873 1_555
Mg0_6 N3_4 2.025873 1_555
Mg0_6 N1_6 2.190408 1_555
Mg0_6 Mg2_6 2.586137 1_555
Mg0_6 Mg2_4 2.586137 1_555
Mg0_6 Rb0_7 3.353679 1_555
Mg0_6 Rb3_4 3.784801 1_555
Mg0_6 Rb3_6 3.784801 1_555
Mg0_6 Rb2_4 3.809835 1_555
Mg0_6 Rb2_6 3.809835 1_555
Mg0_7 N3_5 2.025873 1_555
Mg0_7 N3_7 2.025873 1_555
Mg0_7 N1_7 2.190408 1_555
Mg0_7 Mg2_7 2.586137 1_555
Mg0_7 Mg2_5 2.586137 1_555
Mg0_7 Rb0_6 3.353679 1_556
Mg0_7 Rb3_7 3.784801 1_555
Mg0_7 Rb3_5 3.784801 1_555
Mg0_7 Rb2_5 3.809835 1_555
Mg0_7 Rb2_7 3.809835 1_555
Mg1_0 N2_0 2.025873 1_555
Mg1_0 N2_2 2.025873 1_545
Mg1_0 N0_5 2.190408 1_455
Mg1_0 Mg3_5 2.586137 1_455
Mg1_0 Mg3_7 2.586137 1_445
Mg1_0 Rb1_0 3.353679 1_555
Mg1_0 Rb2_0 3.784801 1_555
Mg1_0 Rb2_2 3.784801 1_545
Mg1_0 Rb3_4 3.809835 1_455
Mg1_0 Rb3_6 3.809835 1_445
Mg1_1 N2_3 2.025873 1_545
Mg1_1 N2_1 2.025873 1_555
Mg1_1 N0_4 2.190408 1_456
Mg1_1 Mg3_6 2.586137 1_446
Mg1_1 Mg3_4 2.586137 1_456
Mg1_1 Rb1_1 3.353679 1_555
Mg1_1 Rb2_1 3.784801 1_555
Mg1_1 Rb2_3 3.784801 1_545
Mg1_1 Rb3_7 3.809835 1_445
Mg1_1 Rb3_5 3.809835 1_455
Mg1_2 N2_2 2.025873 1_555
Mg1_2 N2_0 2.025873 1_555
Mg1_2 N0_7 2.190408 1_455
Mg1_2 Mg3_5 2.586137 1_455
Mg1_2 Mg3_7 2.586137 1_455
Mg1_2 Rb1_2 3.353679 1_555
Mg1_2 Rb2_0 3.784801 1_555
Mg1_2 Rb2_2 3.784801 1_555
Mg1_2 Rb3_6 3.809835 1_455
Mg1_2 Rb3_4 3.809835 1_455
Mg1_3 N2_1 2.025873 1_555
Mg1_3 N2_3 2.025873 1_555
Mg1_3 N0_6 2.190408 1_456
Mg1_3 Mg3_6 2.586137 1_456
Mg1_3 Mg3_4 2.586137 1_456
Mg1_3 Rb1_3 3.353679 1_555
Mg1_3 Rb2_1 3.784801 1_555
Mg1_3 Rb2_3 3.784801 1_555
Mg1_3 Rb3_7 3.809835 1_455
Mg1_3 Rb3_5 3.809835 1_455
Mg1_4 N2_4 2.025873 1_555
Mg1_4 N2_6 2.025873 1_545
Mg1_4 N0_1 2.190408 1_555
Mg1_4 Mg3_1 2.586137 1_555
Mg1_4 Mg3_3 2.586137 1_545
Mg1_4 Rb1_4 3.353679 1_555
Mg1_4 Rb2_6 3.784801 1_545
Mg1_4 Rb2_4 3.784801 1_555
Mg1_4 Rb3_2 3.809835 1_545
Mg1_4 Rb3_0 3.809835 1_555
Mg1_5 N2_5 2.025873 1_555
Mg1_5 N2_7 2.025873 1_545
Mg1_5 N0_0 2.190408 1_556
Mg1_5 Mg3_2 2.586137 1_546
Mg1_5 Mg3_0 2.586137 1_556
Mg1_5 Rb1_5 3.353679 1_555
Mg1_5 Rb2_7 3.784801 1_545
Mg1_5 Rb2_5 3.784801 1_555
Mg1_5 Rb3_1 3.809835 1_555
Mg1_5 Rb3_3 3.809835 1_545
Mg1_6 N2_6 2.025873 1_555
Mg1_6 N2_4 2.025873 1_555
Mg1_6 N0_3 2.190408 1_555
Mg1_6 Mg3_3 2.586137 1_555
Mg1_6 Mg3_1 2.586137 1_555
Mg1_6 Rb1_6 3.353679 1_555
Mg1_6 Rb2_6 3.784801 1_555
Mg1_6 Rb2_4 3.784801 1_555
Mg1_6 Rb3_2 3.809835 1_555
Mg1_6 Rb3_0 3.809835 1_555
Mg1_7 N2_5 2.025873 1_555
Mg1_7 N2_7 2.025873 1_555
Mg1_7 N0_2 2.190408 1_556
Mg1_7 Mg3_2 2.586137 1_556
Mg1_7 Mg3_0 2.586137 1_556
Mg1_7 Rb1_7 3.353679 1_555
Mg1_7 Rb2_7 3.784801 1_555
Mg1_7 Rb2_5 3.784801 1_555
Mg1_7 Rb3_1 3.809835 1_555
Mg1_7 Rb3_3 3.809835 1_555
Mg2_0 N1_0 2.025873 1_555
Mg2_0 N1_2 2.025873 1_555
Mg2_0 N3_0 2.190408 1_555
Mg2_0 Rb2_1 3.353679 1_554
Mg2_0 Rb1_2 3.784801 1_555
Mg2_0 Rb1_0 3.784801 1_555
Mg2_0 Rb0_2 3.809835 1_555
Mg2_0 Rb0_0 3.809835 1_555
Mg2_1 N1_1 2.025873 1_555
Mg2_1 N1_3 2.025873 1_555
Mg2_1 N3_1 2.190408 1_555
Mg2_1 Rb2_0 3.353679 1_555
Mg2_1 Rb1_1 3.784801 1_555
Mg2_1 Rb1_3 3.784801 1_555
Mg2_1 Rb0_1 3.809835 1_555
Mg2_1 Rb0_3 3.809835 1_555
Mg2_2 N1_0 2.025873 1_565
Mg2_2 N1_2 2.025873 1_555
Mg2_2 N3_2 2.190408 1_555
Mg2_2 Rb2_3 3.353679 1_554
Mg2_2 Rb1_2 3.784801 1_555
Mg2_2 Rb1_0 3.784801 1_565
Mg2_2 Rb0_2 3.809835 1_555
Mg2_2 Rb0_0 3.809835 1_565
Mg2_3 N1_1 2.025873 1_565
Mg2_3 N1_3 2.025873 1_555
Mg2_3 N3_3 2.190408 1_555
Mg2_3 Rb2_2 3.353679 1_555
Mg2_3 Rb1_1 3.784801 1_565
Mg2_3 Rb1_3 3.784801 1_555
Mg2_3 Rb0_3 3.809835 1_555
Mg2_3 Rb0_1 3.809835 1_565
Mg2_4 N1_6 2.025873 1_555
Mg2_4 N1_4 2.025873 1_555
Mg2_4 N3_4 2.190408 1_555
Mg2_4 Rb2_5 3.353679 1_554
Mg2_4 Rb1_6 3.784801 1_555
Mg2_4 Rb1_4 3.784801 1_555
Mg2_4 Rb0_6 3.809835 1_555
Mg2_4 Rb0_4 3.809835 1_555
Mg2_5 N1_7 2.025873 1_555
Mg2_5 N1_5 2.025873 1_555
Mg2_5 N3_5 2.190408 1_555
Mg2_5 Rb2_4 3.353679 1_555
Mg2_5 Rb1_5 3.784801 1_555
Mg2_5 Rb1_7 3.784801 1_555
Mg2_5 Rb0_5 3.809835 1_555
Mg2_5 Rb0_7 3.809835 1_555
Mg2_6 N1_6 2.025873 1_555
Mg2_6 N1_4 2.025873 1_565
Mg2_6 N3_6 2.190408 1_555
Mg2_6 Rb2_7 3.353679 1_554
Mg2_6 Rb1_6 3.784801 1_555
Mg2_6 Rb1_4 3.784801 1_565
Mg2_6 Rb0_4 3.809835 1_565
Mg2_6 Rb0_6 3.809835 1_555
Mg2_7 N1_5 2.025873 1_565
Mg2_7 N1_7 2.025873 1_555
Mg2_7 N3_7 2.190408 1_555
Mg2_7 Rb2_6 3.353679 1_555
Mg2_7 Rb1_7 3.784801 1_555
Mg2_7 Rb1_5 3.784801 1_565
Mg2_7 Rb0_5 3.809835 1_565
Mg2_7 Rb0_7 3.809835 1_555
Mg3_0 N0_2 2.025873 1_555
Mg3_0 N0_0 2.025873 1_555
Mg3_0 N2_5 2.190408 1_554
Mg3_0 Rb3_0 3.353679 1_555
Mg3_0 Rb0_0 3.784801 1_555
Mg3_0 Rb0_2 3.784801 1_555
Mg3_0 Rb1_4 3.809835 1_555
Mg3_0 Rb1_6 3.809835 1_555
Mg3_1 N0_1 2.025873 1_555
Mg3_1 N0_3 2.025873 1_555
Mg3_1 N2_4 2.190408 1_555
Mg3_1 Rb3_1 3.353679 1_555
Mg3_1 Rb0_1 3.784801 1_555
Mg3_1 Rb0_3 3.784801 1_555
Mg3_1 Rb1_5 3.809835 1_555
Mg3_1 Rb1_7 3.809835 1_555
Mg3_2 N0_2 2.025873 1_555
Mg3_2 N0_0 2.025873 1_565
Mg3_2 N2_7 2.190408 1_554
Mg3_2 Rb3_2 3.353679 1_555
Mg3_2 Rb0_2 3.784801 1_555
Mg3_2 Rb0_0 3.784801 1_565
Mg3_2 Rb1_6 3.809835 1_555
Mg3_2 Rb1_4 3.809835 1_565
Mg3_3 N0_1 2.025873 1_565
Mg3_3 N0_3 2.025873 1_555
Mg3_3 N2_6 2.190408 1_555
Mg3_3 Rb3_3 3.353679 1_555
Mg3_3 Rb0_1 3.784801 1_565
Mg3_3 Rb0_3 3.784801 1_555
Mg3_3 Rb1_7 3.809835 1_555
Mg3_3 Rb1_5 3.809835 1_565
Mg3_4 N0_6 2.025873 1_555
Mg3_4 N0_4 2.025873 1_555
Mg3_4 N2_1 2.190408 1_654
Mg3_4 Rb3_4 3.353679 1_555
Mg3_4 Rb0_6 3.784801 1_555
Mg3_4 Rb0_4 3.784801 1_555
Mg3_4 Rb1_0 3.809835 1_655
Mg3_4 Rb1_2 3.809835 1_655
Mg3_5 N0_5 2.025873 1_555
Mg3_5 N0_7 2.025873 1_555
Mg3_5 N2_0 2.190408 1_655
Mg3_5 Rb3_5 3.353679 1_555
Mg3_5 Rb0_5 3.784801 1_555
Mg3_5 Rb0_7 3.784801 1_555
Mg3_5 Rb1_1 3.809835 1_655
Mg3_5 Rb1_3 3.809835 1_655
Mg3_6 N0_4 2.025873 1_565
Mg3_6 N0_6 2.025873 1_555
Mg3_6 N2_3 2.190408 1_654
Mg3_6 Rb3_6 3.353679 1_555
Mg3_6 Rb0_4 3.784801 1_565
Mg3_6 Rb0_6 3.784801 1_555
Mg3_6 Rb1_0 3.809835 1_665
Mg3_6 Rb1_2 3.809835 1_655
Mg3_7 N0_5 2.025873 1_565
Mg3_7 N0_7 2.025873 1_555
Mg3_7 N2_2 2.190408 1_655
Mg3_7 Rb3_7 3.353679 1_555
Mg3_7 Rb0_5 3.784801 1_565
Mg3_7 Rb0_7 3.784801 1_555
Mg3_7 Rb1_1 3.809835 1_665
Mg3_7 Rb1_3 3.809835 1_655
N0_0 Rb1_4 3.093514 1_555
N0_0 Rb0_0 3.126960 1_555
N0_0 Rb3_0 3.457472 1_555
N0_0 Rb3_2 3.457472 1_545
N0_1 Rb1_5 3.093514 1_555
N0_1 Rb0_1 3.126960 1_555
N0_1 Rb3_1 3.457472 1_555
N0_1 Rb3_3 3.457472 1_545
N0_2 Rb1_6 3.093514 1_555
N0_2 Rb0_2 3.126960 1_555
N0_2 Rb3_2 3.457472 1_555
N0_2 Rb3_0 3.457472 1_555
N0_3 Rb1_7 3.093514 1_555
N0_3 Rb0_3 3.126960 1_555
N0_3 Rb3_1 3.457472 1_555
N0_3 Rb3_3 3.457472 1_555
N0_4 Rb1_0 3.093514 1_655
N0_4 Rb0_4 3.126960 1_555
N0_4 Rb3_6 3.457472 1_545
N0_4 Rb3_4 3.457472 1_555
N0_5 Rb1_1 3.093514 1_655
N0_5 Rb0_5 3.126960 1_555
N0_5 Rb3_7 3.457472 1_545
N0_5 Rb3_5 3.457472 1_555
N0_6 Rb1_2 3.093514 1_655
N0_6 Rb0_6 3.126960 1_555
N0_6 Rb3_4 3.457472 1_555
N0_6 Rb3_6 3.457472 1_555
N0_7 Rb1_3 3.093514 1_655
N0_7 Rb0_7 3.126960 1_555
N0_7 Rb3_5 3.457472 1_555
N0_7 Rb3_7 3.457472 1_555
N1_0 Rb0_0 3.093514 1_555
N1_0 Rb1_0 3.126960 1_555
N1_0 Rb2_3 3.457472 1_544
N1_0 Rb2_1 3.457472 1_554
N1_1 Rb0_1 3.093514 1_555
N1_1 Rb1_1 3.126960 1_555
N1_1 Rb2_0 3.457472 1_555
N1_1 Rb2_2 3.457472 1_545
N1_2 Rb0_2 3.093514 1_555
N1_2 Rb1_2 3.126960 1_555
N1_2 Rb2_1 3.457472 1_554
N1_2 Rb2_3 3.457472 1_554
N1_3 Rb0_3 3.093514 1_555
N1_3 Rb1_3 3.126960 1_555
N1_3 Rb2_0 3.457472 1_555
N1_3 Rb2_2 3.457472 1_555
N1_4 Rb0_4 3.093514 1_555
N1_4 Rb1_4 3.126960 1_555
N1_4 Rb2_7 3.457472 1_544
N1_4 Rb2_5 3.457472 1_554
N1_5 Rb0_5 3.093514 1_555
N1_5 Rb1_5 3.126960 1_555
N1_5 Rb2_6 3.457472 1_545
N1_5 Rb2_4 3.457472 1_555
N1_6 Rb0_6 3.093514 1_555
N1_6 Rb1_6 3.126960 1_555
N1_6 Rb2_7 3.457472 1_554
N1_6 Rb2_5 3.457472 1_554
N1_7 Rb0_7 3.093514 1_555
N1_7 Rb1_7 3.126960 1_555
N1_7 Rb2_6 3.457472 1_555
N1_7 Rb2_4 3.457472 1_555
N2_0 Rb3_4 3.093514 1_455
N2_0 Rb2_0 3.126960 1_555
N2_0 Rb1_0 3.457472 1_555
N2_0 Rb1_2 3.457472 1_555
N2_1 Rb3_5 3.093514 1_455
N2_1 Rb2_1 3.126960 1_555
N2_1 Rb1_1 3.457472 1_555
N2_1 Rb1_3 3.457472 1_555
N2_2 Rb3_6 3.093514 1_455
N2_2 Rb2_2 3.126960 1_555
N2_2 Rb1_2 3.457472 1_555
N2_2 Rb1_0 3.457472 1_565
N2_3 Rb3_7 3.093514 1_455
N2_3 Rb2_3 3.126960 1_555
N2_3 Rb1_1 3.457472 1_565
N2_3 Rb1_3 3.457472 1_555
N2_4 Rb3_0 3.093514 1_555
N2_4 Rb2_4 3.126960 1_555
N2_4 Rb1_4 3.457472 1_555
N2_4 Rb1_6 3.457472 1_555
N2_5 Rb3_1 3.093514 1_555
N2_5 Rb2_5 3.126960 1_555
N2_5 Rb1_5 3.457472 1_555
N2_5 Rb1_7 3.457472 1_555
N2_6 Rb3_2 3.093514 1_555
N2_6 Rb2_6 3.126960 1_555
N2_6 Rb1_4 3.457472 1_565
N2_6 Rb1_6 3.457472 1_555
N2_7 Rb3_3 3.093514 1_555
N2_7 Rb2_7 3.126960 1_555
N2_7 Rb1_5 3.457472 1_565
N2_7 Rb1_7 3.457472 1_555
N3_0 Rb2_0 3.093514 1_555
N3_0 Rb3_0 3.126960 1_555
N3_0 Rb0_1 3.457472 1_555
N3_0 Rb0_3 3.457472 1_555
N3_1 Rb2_1 3.093514 1_555
N3_1 Rb3_1 3.126960 1_555
N3_1 Rb0_2 3.457472 1_556
N3_1 Rb0_0 3.457472 1_556
N3_2 Rb2_2 3.093514 1_555
N3_2 Rb3_2 3.126960 1_555
N3_2 Rb0_3 3.457472 1_555
N3_2 Rb0_1 3.457472 1_565
N3_3 Rb2_3 3.093514 1_555
N3_3 Rb3_3 3.126960 1_555
N3_3 Rb0_2 3.457472 1_556
N3_3 Rb0_0 3.457472 1_566
N3_4 Rb2_4 3.093514 1_555
N3_4 Rb3_4 3.126960 1_555
N3_4 Rb0_5 3.457472 1_555
N3_4 Rb0_7 3.457472 1_555
N3_5 Rb2_5 3.093514 1_555
N3_5 Rb3_5 3.126960 1_555
N3_5 Rb0_6 3.457472 1_556
N3_5 Rb0_4 3.457472 1_556
N3_6 Rb2_6 3.093514 1_555
N3_6 Rb3_6 3.126960 1_555
N3_6 Rb0_5 3.457472 1_565
N3_6 Rb0_7 3.457472 1_555
N3_7 Rb2_7 3.093514 1_555
N3_7 Rb3_7 3.126960 1_555
N3_7 Rb0_4 3.457472 1_566
N3_7 Rb0_6 3.457472 1_556
