# generated using pymatgen
data_CaSnS3
_symmetry_space_group_name_H-M   'P 1'
_cell_length_a   7.72449800
_cell_length_b   7.74726003
_cell_length_c   7.74726003
_cell_angle_alpha   120.00000022
_cell_angle_beta   90.00000000
_cell_angle_gamma   90.00000000
_symmetry_Int_Tables_number   1
_chemical_formula_structural   CaSnS3
_chemical_formula_sum   'Ca3 Sn3 S9'
_cell_volume   401.51073492
_cell_formula_units_Z   3
loop_
 _symmetry_equiv_pos_site_id
 _symmetry_equiv_pos_as_xyz
  1  'x, y, z'
loop_
 _atom_site_type_symbol
 _atom_site_label
 _atom_site_symmetry_multiplicity
 _atom_site_fract_x
 _atom_site_fract_y
 _atom_site_fract_z
 _atom_site_occupancy
  Ca  Ca0  1  0.50000000  0.33209900  0.00000000  1
  Ca  Ca1  1  0.50000000  0.66790100  0.66790100  1
  Ca  Ca2  1  0.50000000  0.00000000  0.33209900  1
  Sn  Sn0  1  0.00000000  0.66681700  0.00000000  1
  Sn  Sn1  1  0.00000000  0.33318300  0.33318300  1
  Sn  Sn2  1  0.00000000  0.00000000  0.66681700  1
  S  S0  1  0.32036000  0.66483500  0.00000000  1
  S  S1  1  0.32036000  0.33516500  0.33516500  1
  S  S2  1  0.32036000  0.00000000  0.66483500  1
  S  S3  1  0.67964000  0.66483500  0.00000000  1
  S  S4  1  0.67964000  0.33516500  0.33516500  1
  S  S5  1  0.67964000  0.00000000  0.66483500  1
  S  S6  1  0.00000000  0.33257500  0.00000000  1
  S  S7  1  0.00000000  0.66742500  0.66742500  1
  S  S8  1  0.00000000  0.00000000  0.33257500  1
loop_
_geom_bond_atom_site_label_1
_geom_bond_atom_site_label_2
_geom_bond_distance
_geom_bond_site_symmetry_2
Ca0 S0 2.927546 1_555
Ca0 S3 2.927546 1_555
Ca0 S2 2.933732 1_554
Ca0 S5 2.933732 1_554
Ca0 S4 2.933732 1_555
Ca0 S1 2.933732 1_555
Ca1 S1 2.927546 1_555
Ca1 S4 2.927546 1_555
Ca1 S3 2.933732 1_556
Ca1 S2 2.933732 1_565
Ca1 S0 2.933732 1_556
Ca1 S5 2.933732 1_565
Ca2 S2 2.927546 1_555
Ca2 S5 2.927546 1_555
Ca2 S0 2.933732 1_545
Ca2 S3 2.933732 1_545
Ca2 S4 2.933732 1_555
Ca2 S1 2.933732 1_555
S0 Sn0 2.474668 1_555
S0 S3 2.775258 1_555
S1 Sn1 2.474668 1_555
S1 S4 2.775258 1_555
S2 Sn2 2.474668 1_555
S2 S5 2.775258 1_555
S3 Sn0 2.474668 1_655
S4 Sn1 2.474668 1_655
S5 Sn2 2.474668 1_655
S6 Sn2 2.578903 1_554
S6 Sn1 2.578903 1_555
S6 Sn0 2.589460 1_555
S7 Sn2 2.578903 1_565
S7 Sn0 2.578903 1_556
S7 Sn1 2.589460 1_555
S8 Sn0 2.578903 1_545
S8 Sn1 2.578903 1_555
S8 Sn2 2.589460 1_555
