# generated using pymatgen
data_Ca3(CuO3)2
_symmetry_space_group_name_H-M   'P 1'
_cell_length_a   6.56494660
_cell_length_b   6.56494660
_cell_length_c   6.77976620
_cell_angle_alpha   74.85717341
_cell_angle_beta   74.85717341
_cell_angle_gamma   32.78608829
_symmetry_Int_Tables_number   1
_chemical_formula_structural   Ca3(CuO3)2
_chemical_formula_sum   'Ca3 Cu2 O6'
_cell_volume   152.24758229
_cell_formula_units_Z   1
loop_
 _symmetry_equiv_pos_site_id
 _symmetry_equiv_pos_as_xyz
  1  'x, y, z'
loop_
 _atom_site_type_symbol
 _atom_site_label
 _atom_site_symmetry_multiplicity
 _atom_site_fract_x
 _atom_site_fract_y
 _atom_site_fract_z
 _atom_site_occupancy
  Ca  Ca0  1  0.84309200  0.84309200  0.81975100  1
  Ca  Ca1  1  0.84172200  0.84172200  0.33953800  1
  Ca  Ca2  1  0.14840900  0.14840900  0.17285900  1
  Cu  Cu0  1  0.50705500  0.50705500  0.98409200  1
  Cu  Cu1  1  0.51288500  0.51288500  0.50615800  1
  O  O0  1  0.98677400  0.98677400  0.02540900  1
  O  O1  1  0.99117800  0.99117800  0.48649900  1
  O  O2  1  0.35711200  0.35711200  0.58355400  1
  O  O3  1  0.34624500  0.34624500  0.06672400  1
  O  O4  1  0.65546900  0.65546900  0.95438000  1
  O  O5  1  0.66090600  0.66090600  0.38561300  1
loop_
_geom_bond_atom_site_label_1
_geom_bond_atom_site_label_2
_geom_bond_distance
_geom_bond_site_symmetry_2
Ca0 O4 2.289906 1_555
Ca0 O2 2.423710 1_655
Ca0 O2 2.423710 1_565
Ca0 O3 2.504857 1_656
Ca0 O3 2.504857 1_566
Ca0 O1 2.507789 1_555
Ca0 O0 2.567857 1_556
Ca1 O5 2.213032 1_555
Ca1 O1 2.357605 1_555
Ca1 O0 2.398932 1_555
Ca1 O2 2.526265 1_565
Ca1 O2 2.526265 1_655
Ca1 O3 2.607637 1_565
Ca1 O3 2.607637 1_655
Ca2 O4 2.358617 1_454
Ca2 O4 2.358617 1_544
Ca2 O5 2.379465 1_545
Ca2 O5 2.379465 1_455
Ca2 O3 2.398158 1_555
Ca2 O1 2.480027 1_445
Ca2 O0 2.500594 1_445
Cu0 O4 1.824915 1_555
Cu0 O0 1.880850 1_546
Cu0 O0 1.880850 1_456
Cu0 O3 1.949065 1_556
Cu1 O5 1.820555 1_555
Cu1 O1 1.882873 1_545
Cu1 O1 1.882873 1_455
Cu1 O2 1.888021 1_555
O0 O3 2.524800 1_655
O0 O3 2.524800 1_565
