# generated using pymatgen
data_LuMn6GaGe5
_symmetry_space_group_name_H-M   'P 1'
_cell_length_a   5.15713309
_cell_length_b   5.15667701
_cell_length_c   8.12148501
_cell_angle_alpha   90.00292713
_cell_angle_beta   90.00585048
_cell_angle_gamma   59.99707192
_symmetry_Int_Tables_number   1
_chemical_formula_structural   LuMn6GaGe5
_chemical_formula_sum   'Lu1 Mn6 Ga1 Ge5'
_cell_volume   187.03872416
_cell_formula_units_Z   1
loop_
 _symmetry_equiv_pos_site_id
 _symmetry_equiv_pos_as_xyz
  1  'x, y, z'
loop_
 _atom_site_type_symbol
 _atom_site_label
 _atom_site_symmetry_multiplicity
 _atom_site_fract_x
 _atom_site_fract_y
 _atom_site_fract_z
 _atom_site_occupancy
  Lu  Lu0  1  0.99998100  0.00000000  0.99859400  1
  Mn  Mn0  1  0.49999700  0.49997600  0.24921600  1
  Mn  Mn1  1  0.50000700  0.00000000  0.24920400  1
  Mn  Mn2  1  0.99997300  0.50002400  0.24921600  1
  Mn  Mn3  1  0.49999500  0.49998400  0.75133600  1
  Mn  Mn4  1  0.50001300  0.00000000  0.75132100  1
  Mn  Mn5  1  0.99997900  0.50001600  0.75133600  1
  Ga  Ga0  1  0.99994300  0.00000000  0.65589300  1
  Ge  Ge0  1  0.66662200  0.66669200  0.99933600  1
  Ge  Ge1  1  0.33331400  0.33330800  0.99933600  1
  Ge  Ge2  1  0.66665400  0.66664300  0.50204400  1
  Ge  Ge3  1  0.33329800  0.33335700  0.50204400  1
  Ge  Ge4  1  0.00002400  0.00000000  0.34112100  1
loop_
_geom_bond_atom_site_label_1
_geom_bond_atom_site_label_2
_geom_bond_distance
_geom_bond_site_symmetry_2
Lu0 Mn5 3.267931 1_545
Lu0 Mn3 3.267931 1_555
Lu0 Mn4 3.268036 1_555
Lu0 Mn3 3.268215 1_645
Lu0 Mn5 3.268215 1_555
Lu0 Mn4 3.268620 1_655
Lu0 Mn2 3.284931 1_556
Lu0 Mn0 3.284931 1_646
Lu0 Mn0 3.284932 1_556
Lu0 Mn2 3.284932 1_546
Lu0 Mn1 3.284992 1_656
Lu0 Mn1 3.285108 1_556
Mn0 Mn1 2.578189 1_555
Mn0 Mn1 2.578488 1_565
Mn0 Mn2 2.578567 1_455
Mn0 Mn2 2.578567 1_555
Mn1 Mn2 2.578189 1_545
Mn1 Mn2 2.578488 1_455
Mn3 Mn4 2.578210 1_555
Mn3 Mn4 2.578467 1_565
Mn3 Mn5 2.578567 1_455
Mn3 Mn5 2.578567 1_555
Mn4 Mn5 2.578209 1_545
Mn4 Mn5 2.578467 1_455
Ga0 Ge4 2.556416 1_655
Ga0 Mn3 2.692205 1_555
Ga0 Mn5 2.692205 1_545
Ga0 Mn4 2.692249 1_555
Ga0 Mn3 2.692465 1_645
Ga0 Mn5 2.692465 1_555
Ga0 Mn4 2.692789 1_655
Ga0 Lu0 2.783241 1_555
Ga0 Ge3 3.228595 1_645
Ga0 Ge2 3.228595 1_555
Ga0 Ge3 3.228744 1_555
Ga0 Ge2 3.228748 1_545
Ga0 Ge2 3.229220 1_645
Ga0 Ge3 3.229224 1_655
Ge0 Mn3 2.504478 1_555
Ge0 Mn4 2.504532 1_565
Ge0 Mn5 2.504748 1_555
Ge0 Mn1 2.516651 1_566
Ge0 Mn2 2.516815 1_556
Ge0 Mn0 2.517001 1_556
Ge0 Ge1 2.976895 1_565
Ge0 Lu0 2.977240 1_555
Ge0 Lu0 2.977275 1_465
Ge0 Lu0 2.977393 1_565
Ge0 Ge1 2.977497 1_655
Ge0 Ge1 2.977498 1_555
Ge1 Mn5 2.504478 1_455
Ge1 Mn4 2.504532 1_555
Ge1 Mn3 2.504748 1_555
Ge1 Mn1 2.516651 1_556
Ge1 Mn0 2.516815 1_556
Ge1 Mn2 2.517000 1_456
Ge1 Lu0 2.977240 1_465
Ge1 Lu0 2.977275 1_455
Ge1 Lu0 2.977392 1_555
Ge2 Mn5 2.512897 1_555
Ge2 Mn4 2.512912 1_565
Ge2 Mn3 2.513091 1_555
Ge2 Mn0 2.536088 1_555
Ge2 Mn1 2.536282 1_565
Ge2 Mn2 2.536288 1_555
Ge2 Ge3 2.977274 1_555
Ge2 Ge3 2.977283 1_655
Ge2 Ge3 2.977332 1_565
Ge2 Ge4 3.251261 1_655
Ge2 Ge4 3.251343 1_565
Ge2 Ge4 3.251951 1_665
Ge3 Mn3 2.512894 1_555
Ge3 Mn4 2.512912 1_555
Ge3 Mn5 2.513093 1_455
Ge3 Mn2 2.536090 1_455
Ge3 Mn1 2.536282 1_555
Ge3 Mn0 2.536285 1_555
Ge3 Ge4 3.251261 1_565
Ge3 Ge4 3.251347 1_555
Ge3 Ge4 3.251947 1_655
Ge4 Mn0 2.684175 1_455
Ge4 Mn2 2.684175 1_445
Ge4 Mn0 2.684233 1_545
Ge4 Mn2 2.684233 1_455
Ge4 Mn1 2.684439 1_555
Ge4 Mn1 2.684461 1_455
Ge4 Lu0 2.781828 1_454
