# generated using pymatgen
data_CuAu
_symmetry_space_group_name_H-M   'P 1'
_cell_length_a   9.14145287
_cell_length_b   9.14145287
_cell_length_c   9.14145311
_cell_angle_alpha   36.80822861
_cell_angle_beta   36.80822861
_cell_angle_gamma   36.80823313
_symmetry_Int_Tables_number   1
_chemical_formula_structural   CuAu
_chemical_formula_sum   'Cu8 Au8'
_cell_volume   245.62160478
_cell_formula_units_Z   8
loop_
 _symmetry_equiv_pos_site_id
 _symmetry_equiv_pos_as_xyz
  1  'x, y, z'
loop_
 _atom_site_type_symbol
 _atom_site_label
 _atom_site_symmetry_multiplicity
 _atom_site_fract_x
 _atom_site_fract_y
 _atom_site_fract_z
 _atom_site_occupancy
  Cu  Cu0_0  1  0.25000000  0.25000000  0.25000000  1
  Cu  Cu0_1  1  0.25000000  0.25000000  0.75000000  1
  Cu  Cu0_2  1  0.25000000  0.75000000  0.25000000  1
  Cu  Cu0_3  1  0.25000000  0.75000000  0.75000000  1
  Cu  Cu0_4  1  0.75000000  0.25000000  0.25000000  1
  Cu  Cu0_5  1  0.75000000  0.25000000  0.75000000  1
  Cu  Cu0_6  1  0.75000000  0.75000000  0.25000000  1
  Cu  Cu0_7  1  0.75000000  0.75000000  0.75000000  1
  Au  Au0_0  1  0.00000000  0.00000000  0.00000000  1
  Au  Au0_1  1  0.00000000  0.00000000  0.50000000  1
  Au  Au0_2  1  0.00000000  0.50000000  0.00000000  1
  Au  Au0_3  1  0.00000000  0.50000000  0.50000000  1
  Au  Au0_4  1  0.50000000  0.00000000  0.00000000  1
  Au  Au0_5  1  0.50000000  0.00000000  0.50000000  1
  Au  Au0_6  1  0.50000000  0.50000000  0.00000000  1
  Au  Au0_7  1  0.50000000  0.50000000  0.50000000  1
loop_
_geom_bond_atom_site_label_1
_geom_bond_atom_site_label_2
_geom_bond_distance
_geom_bond_site_symmetry_2
Cu0_0 Cu0_5 2.886114 1_455
Cu0_0 Cu0_3 2.886114 1_545
Cu0_0 Cu0_3 2.886114 1_554
Cu0_0 Cu0_5 2.886114 1_554
Cu0_0 Cu0_6 2.886114 1_545
Cu0_0 Cu0_6 2.886114 1_455
Cu0_1 Cu0_4 2.886114 1_555
Cu0_1 Cu0_4 2.886114 1_456
Cu0_1 Cu0_2 2.886114 1_555
Cu0_1 Cu0_2 2.886114 1_546
Cu0_1 Cu0_7 2.886114 1_455
Cu0_1 Cu0_7 2.886114 1_545
Cu0_2 Cu0_7 2.886114 1_554
Cu0_2 Cu0_7 2.886114 1_455
Cu0_2 Cu0_4 2.886114 1_465
Cu0_2 Cu0_4 2.886114 1_555
Cu0_3 Cu0_6 2.886114 1_456
Cu0_3 Cu0_6 2.886114 1_555
Cu0_3 Cu0_5 2.886114 1_465
Cu0_3 Cu0_5 2.886114 1_555
Cu0_4 Cu0_7 2.886114 1_554
Cu0_4 Cu0_7 2.886114 1_545
Cu0_5 Cu0_6 2.886114 1_546
Cu0_5 Cu0_6 2.886114 1_555
Au0_0 Cu0_6 2.702831 1_445
Au0_0 Cu0_1 2.702831 1_554
Au0_0 Cu0_5 2.702832 1_454
Au0_0 Cu0_3 2.702832 1_544
Au0_0 Cu0_4 2.702832 1_455
Au0_0 Cu0_2 2.702832 1_545
Au0_0 Au0_3 2.886114 1_554
Au0_0 Au0_5 2.886114 1_554
Au0_0 Au0_5 2.886114 1_455
Au0_0 Au0_3 2.886114 1_545
Au0_0 Au0_6 2.886114 1_545
Au0_0 Au0_6 2.886114 1_455
Au0_1 Cu0_0 2.702831 1_555
Au0_1 Cu0_7 2.702831 1_445
Au0_1 Cu0_4 2.702832 1_455
Au0_1 Cu0_2 2.702832 1_545
Au0_1 Cu0_5 2.702832 1_455
Au0_1 Cu0_3 2.702832 1_545
Au0_1 Au0_2 2.886114 1_555
Au0_1 Au0_4 2.886114 1_456
Au0_1 Au0_2 2.886114 1_546
Au0_1 Au0_4 2.886114 1_555
Au0_1 Au0_7 2.886114 1_545
Au0_1 Au0_7 2.886114 1_455
Au0_2 Cu0_4 2.702831 1_455
Au0_2 Cu0_3 2.702831 1_554
Au0_2 Cu0_1 2.702832 1_554
Au0_2 Cu0_0 2.702832 1_555
Au0_2 Cu0_6 2.702832 1_455
Au0_2 Cu0_7 2.702832 1_454
Au0_2 Au0_7 2.886114 1_455
Au0_2 Au0_7 2.886114 1_554
Au0_2 Au0_4 2.886114 1_555
Au0_2 Au0_4 2.886114 1_465
Au0_3 Cu0_5 2.702831 1_455
Au0_3 Cu0_2 2.702831 1_555
Au0_3 Cu0_7 2.702832 1_455
Au0_3 Cu0_0 2.702832 1_555
Au0_3 Cu0_1 2.702832 1_555
Au0_3 Cu0_6 2.702832 1_455
Au0_3 Au0_6 2.886114 1_555
Au0_3 Au0_6 2.886114 1_456
Au0_3 Au0_5 2.886114 1_465
Au0_3 Au0_5 2.886114 1_555
Au0_4 Cu0_2 2.702831 1_545
Au0_4 Cu0_5 2.702831 1_554
Au0_4 Cu0_6 2.702832 1_545
Au0_4 Cu0_1 2.702832 1_554
Au0_4 Cu0_0 2.702832 1_555
Au0_4 Cu0_7 2.702832 1_544
Au0_4 Au0_7 2.886114 1_554
Au0_4 Au0_7 2.886114 1_545
Au0_5 Cu0_3 2.702831 1_545
Au0_5 Cu0_4 2.702831 1_555
Au0_5 Cu0_7 2.702832 1_545
Au0_5 Cu0_6 2.702832 1_545
Au0_5 Cu0_0 2.702832 1_555
Au0_5 Cu0_1 2.702832 1_555
Au0_5 Au0_6 2.886114 1_555
Au0_5 Au0_6 2.886114 1_546
Au0_6 Cu0_7 2.702831 1_554
Au0_6 Cu0_0 2.702831 1_555
Au0_6 Cu0_5 2.702832 1_554
Au0_6 Cu0_3 2.702832 1_554
Au0_6 Cu0_2 2.702832 1_555
Au0_6 Cu0_4 2.702832 1_555
Au0_7 Cu0_1 2.702831 1_555
Au0_7 Cu0_6 2.702831 1_555
Au0_7 Cu0_2 2.702832 1_555
Au0_7 Cu0_4 2.702832 1_555
Au0_7 Cu0_5 2.702832 1_555
Au0_7 Cu0_3 2.702832 1_555
