# generated using pymatgen
data_TbAlFe
_symmetry_space_group_name_H-M   'P 1'
_cell_length_a   5.43592230
_cell_length_b   5.41969171
_cell_length_c   8.59196500
_cell_angle_alpha   90.00000000
_cell_angle_beta   90.00000000
_cell_angle_gamma   119.90344082
_symmetry_Int_Tables_number   1
_chemical_formula_structural   TbAlFe
_chemical_formula_sum   'Tb4 Al4 Fe4'
_cell_volume   219.42833026
_cell_formula_units_Z   4
loop_
 _symmetry_equiv_pos_site_id
 _symmetry_equiv_pos_as_xyz
  1  'x, y, z'
loop_
 _atom_site_type_symbol
 _atom_site_label
 _atom_site_symmetry_multiplicity
 _atom_site_fract_x
 _atom_site_fract_y
 _atom_site_fract_z
 _atom_site_occupancy
  Tb  Tb0  1  0.66637400  0.33317800  0.56437000  1
  Tb  Tb1  1  0.32607600  0.66304300  0.44894300  1
  Tb  Tb2  1  0.32607600  0.66304300  0.05105700  1
  Tb  Tb3  1  0.66637400  0.33317800  0.93563000  1
  Al  Al0  1  0.67450100  0.83724200  0.75000000  1
  Al  Al1  1  0.83702100  0.67455200  0.25000000  1
  Al  Al2  1  0.83699800  0.16248000  0.25000000  1
  Al  Al3  1  0.32700500  0.16352300  0.25000000  1
  Fe  Fe0  1  0.01296000  0.00646800  0.51220200  1
  Fe  Fe1  1  0.01296000  0.00646800  0.98779800  1
  Fe  Fe2  1  0.15681400  0.32336100  0.75000000  1
  Fe  Fe3  1  0.15684300  0.83346400  0.75000000  1
loop_
_geom_bond_atom_site_label_1
_geom_bond_atom_site_label_2
_geom_bond_distance
_geom_bond_site_symmetry_2
Tb0 Tb3 3.189853 1_555
Tb0 Tb1 3.263025 1_655
Tb0 Tb1 3.301134 1_545
Tb0 Tb1 3.301358 1_555
Tb1 Tb2 3.418623 1_555
Tb2 Tb3 3.263025 1_454
Tb2 Tb3 3.301134 1_564
Tb2 Tb3 3.301358 1_554
Al0 Fe1 2.591941 1_665
Al0 Fe0 2.591941 1_665
Al0 Fe2 2.632074 1_665
Al0 Fe3 2.632241 1_655
Al0 Fe2 2.803789 1_555
Al0 Fe3 2.803797 1_555
Al0 Tb2 3.063749 1_556
Al0 Tb1 3.063749 1_555
Al0 Tb3 3.144601 1_565
Al0 Tb0 3.144601 1_565
Al0 Tb0 3.144603 1_555
Al0 Tb3 3.144603 1_555
Al1 Al2 2.644482 1_565
Al1 Al3 2.660696 1_665
Al1 Fe0 2.740528 1_665
Al1 Fe1 2.740528 1_664
Al1 Al3 2.775058 1_555
Al1 Al2 2.775210 1_555
Al1 Tb3 3.141336 1_554
Al1 Tb0 3.141336 1_555
Al1 Tb1 3.187226 1_655
Al1 Tb2 3.187226 1_655
Al1 Tb1 3.235300 1_555
Al1 Tb2 3.235300 1_555
Al2 Al3 2.660826 1_655
Al2 Fe0 2.740713 1_655
Al2 Fe1 2.740713 1_654
Al2 Al3 2.775105 1_555
Al2 Tb3 3.141238 1_554
Al2 Tb0 3.141238 1_555
Al2 Tb1 3.187199 1_655
Al2 Tb2 3.187199 1_655
Al2 Tb1 3.235173 1_545
Al2 Tb2 3.235173 1_545
Al3 Fe0 2.695403 1_555
Al3 Fe1 2.695403 1_554
Al3 Tb3 3.138962 1_554
Al3 Tb0 3.138962 1_555
Al3 Tb1 3.203837 1_555
Al3 Tb2 3.203837 1_555
Al3 Tb1 3.203979 1_545
Al3 Tb2 3.203979 1_545
Fe0 Fe2 2.529138 1_555
Fe0 Fe3 2.529144 1_545
Fe0 Tb0 3.111485 1_555
Fe0 Tb1 3.132969 1_545
Fe0 Tb1 3.133032 1_555
Fe0 Tb0 3.195475 1_445
Fe0 Tb0 3.195607 1_455
Fe0 Tb1 3.282066 1_445
Fe1 Fe2 2.529138 1_555
Fe1 Fe3 2.529144 1_545
Fe1 Tb3 3.111485 1_555
Fe1 Tb2 3.132969 1_546
Fe1 Tb2 3.133032 1_556
Fe1 Tb3 3.195475 1_445
Fe1 Tb3 3.195607 1_455
Fe1 Tb2 3.282066 1_446
Fe2 Fe3 2.655169 1_545
Fe2 Fe3 2.764522 1_555
Fe2 Tb2 3.039358 1_556
Fe2 Tb1 3.039358 1_555
Fe2 Tb0 3.129788 1_455
Fe2 Tb3 3.129788 1_455
Fe2 Tb0 3.173670 1_555
Fe2 Tb3 3.173670 1_555
Fe3 Tb2 3.039316 1_556
Fe3 Tb1 3.039316 1_555
Fe3 Tb0 3.129847 1_455
Fe3 Tb3 3.129847 1_455
Fe3 Tb0 3.173458 1_565
Fe3 Tb3 3.173458 1_565
