# generated using pymatgen
data_Er3FeSi3
_symmetry_space_group_name_H-M   'P 1'
_cell_length_a   4.11227688
_cell_length_b   5.57303865
_cell_length_c   12.61179101
_cell_angle_alpha   85.08171849
_cell_angle_beta   80.61699976
_cell_angle_gamma   68.34950250
_symmetry_Int_Tables_number   1
_chemical_formula_structural   Er3FeSi3
_chemical_formula_sum   'Er6 Fe2 Si6'
_cell_volume   264.94703218
_cell_formula_units_Z   2
loop_
 _symmetry_equiv_pos_site_id
 _symmetry_equiv_pos_as_xyz
  1  'x, y, z'
loop_
 _atom_site_type_symbol
 _atom_site_label
 _atom_site_symmetry_multiplicity
 _atom_site_fract_x
 _atom_site_fract_y
 _atom_site_fract_z
 _atom_site_occupancy
  Er  Er0  1  0.74901479  0.73168582  0.77028460  1
  Er  Er1  1  0.25098521  0.26831418  0.22971540  1
  Er  Er2  1  0.52530840  0.32955976  0.61982343  1
  Er  Er3  1  0.47469160  0.67044024  0.38017657  1
  Er  Er4  1  0.39958361  0.28196104  0.91887175  1
  Er  Er5  1  0.60041639  0.71803896  0.08112825  1
  Fe  Fe0  1  0.75313730  0.07759021  0.41613618  1
  Fe  Fe1  1  0.24686270  0.92240979  0.58386382  1
  Si  Si0  1  0.14589802  0.25194754  0.45625542  1
  Si  Si1  1  0.85410198  0.74805246  0.54374458  1
  Si  Si2  1  0.11495621  0.84587177  0.92421282  1
  Si  Si3  1  0.88504279  0.15412823  0.07578718  1
  Si  Si4  1  0.05602919  0.13055289  0.75739174  1
  Si  Si5  1  0.94397081  0.86944711  0.24260826  1
loop_
_geom_bond_atom_site_label_1
_geom_bond_atom_site_label_2
_geom_bond_distance
_geom_bond_site_symmetry_2
Er0 Si1 2.817759 1_555
Er0 Si2 2.882576 1_655
Er0 Si2 2.882584 1_555
Er0 Si4 2.916094 1_565
Er0 Si4 2.916103 1_665
Er0 Si4 3.122387 1_655
Er0 Fe1 3.233661 1_655
Er0 Fe1 3.233664 1_555
Er0 Er4 3.440484 1_565
Er0 Er2 3.505589 1_655
Er0 Er2 3.505589 1_555
Er0 Er4 3.582229 1_555
Er0 Er4 3.582230 1_655
Er1 Si0 2.817759 1_555
Er1 Si3 2.882579 1_455
Er1 Si3 2.882581 1_555
Er1 Si5 2.916094 1_545
Er1 Si5 2.916103 1_445
Er1 Si5 3.122387 1_455
Er1 Fe0 3.233661 1_455
Er1 Fe0 3.233664 1_555
Er1 Er5 3.440484 1_545
Er1 Er3 3.505589 1_455
Er1 Er3 3.505589 1_555
Er1 Er5 3.582229 1_555
Er1 Er5 3.582230 1_455
Er2 Si4 2.849909 1_555
Er2 Si4 2.849919 1_655
Er2 Fe0 2.883001 1_555
Er2 Si0 2.928713 1_655
Er2 Si0 2.928716 1_555
Er2 Fe1 2.988039 1_645
Er2 Fe1 2.988042 1_545
Er2 Fe1 3.090935 1_555
Er2 Si1 3.115835 1_455
Er2 Si1 3.115838 1_555
Er2 Si1 3.182484 1_545
Er2 Er3 3.422851 1_555
Er3 Si5 2.849909 1_555
Er3 Si5 2.849919 1_455
Er3 Fe1 2.883001 1_555
Er3 Si1 2.928713 1_455
Er3 Si1 2.928716 1_555
Er3 Fe0 2.988039 1_465
Er3 Fe0 2.988042 1_565
Er3 Fe0 3.090935 1_555
Er3 Si0 3.115835 1_655
Er3 Si0 3.115838 1_555
Er3 Si0 3.182484 1_565
Er4 Si3 2.899360 1_456
Er4 Si3 2.899364 1_556
Er4 Si2 2.923593 1_555
Er4 Si4 2.994663 1_555
Er4 Si4 2.994670 1_655
Er4 Si2 3.053897 1_645
Er4 Si2 3.053905 1_545
Er5 Si2 2.899357 1_654
Er5 Si2 2.899366 1_554
Er5 Si3 2.923593 1_555
Er5 Si5 2.994663 1_555
Er5 Si5 2.994670 1_455
Er5 Si3 3.053899 1_465
Er5 Si3 3.053902 1_565
Fe0 Si1 2.298633 1_545
Fe0 Si0 2.306020 1_655
Fe0 Si0 2.306027 1_555
Fe0 Si5 2.440192 1_545
Fe1 Si0 2.298633 1_565
Fe1 Si1 2.306020 1_455
Fe1 Si1 2.306027 1_555
Fe1 Si4 2.440192 1_565
Si0 Si1 2.818667 1_455
Si2 Si3 2.504947 1_466
Si2 Si4 2.512463 1_565
Si3 Si5 2.512463 1_545
