# generated using pymatgen
data_ErInPd2
_symmetry_space_group_name_H-M   'P 1'
_cell_length_a   4.74419264
_cell_length_b   4.74419253
_cell_length_c   4.74419142
_cell_angle_alpha   60.00000060
_cell_angle_beta   60.00000125
_cell_angle_gamma   59.99999181
_symmetry_Int_Tables_number   1
_chemical_formula_structural   ErInPd2
_chemical_formula_sum   'Er1 In1 Pd2'
_cell_volume   75.50432088
_cell_formula_units_Z   1
loop_
 _symmetry_equiv_pos_site_id
 _symmetry_equiv_pos_as_xyz
  1  'x, y, z'
loop_
 _atom_site_type_symbol
 _atom_site_label
 _atom_site_symmetry_multiplicity
 _atom_site_fract_x
 _atom_site_fract_y
 _atom_site_fract_z
 _atom_site_occupancy
  Er  Er0  1  0.50000000  0.50000000  0.50000000  1
  In  In0  1  0.00000000  -0.00000000  0.00000000  1
  Pd  Pd0  1  0.75000000  0.75000000  0.75000000  1
  Pd  Pd1  1  0.25000000  0.25000000  0.25000000  1
loop_
_geom_bond_atom_site_label_1
_geom_bond_atom_site_label_2
_geom_bond_distance
_geom_bond_site_symmetry_2
Er0 Pd0 2.905212 1_554
Er0 Pd1 2.905212 1_556
Er0 Pd1 2.905213 1_565
Er0 Pd0 2.905213 1_545
Er0 Pd0 2.905213 1_555
Er0 Pd1 2.905213 1_555
Er0 Pd0 2.905213 1_455
Er0 Pd1 2.905213 1_655
Er0 In0 3.354650 1_566
Er0 In0 3.354650 1_655
Er0 In0 3.354650 1_565
Er0 In0 3.354650 1_656
Er0 In0 3.354651 1_665
Er0 In0 3.354651 1_556
In0 Pd1 2.905212 1_554
In0 Pd0 2.905212 1_445
In0 Pd1 2.905213 1_545
In0 Pd0 2.905213 1_454
In0 Pd0 2.905213 1_444
In0 Pd1 2.905213 1_555
In0 Pd0 2.905213 1_544
In0 Pd1 2.905213 1_455
Pd0 Pd1 3.354650 1_655
Pd0 Pd1 3.354650 1_566
Pd0 Pd1 3.354650 1_565
Pd0 Pd1 3.354650 1_656
Pd0 Pd1 3.354651 1_556
Pd0 Pd1 3.354651 1_665
