# generated using pymatgen
data_KNa7V7CrO24
_symmetry_space_group_name_H-M   'P 1'
_cell_length_a   7.58195672
_cell_length_b   7.58195672
_cell_length_c   7.58195712
_cell_angle_alpha   89.99270565
_cell_angle_beta   89.99270565
_cell_angle_gamma   89.99271146
_symmetry_Int_Tables_number   1
_chemical_formula_structural   KNa7V7CrO24
_chemical_formula_sum   'K1 Na7 V7 Cr1 O24'
_cell_volume   435.85688982
_cell_formula_units_Z   1
loop_
 _symmetry_equiv_pos_site_id
 _symmetry_equiv_pos_as_xyz
  1  'x, y, z'
loop_
 _atom_site_type_symbol
 _atom_site_label
 _atom_site_symmetry_multiplicity
 _atom_site_fract_x
 _atom_site_fract_y
 _atom_site_fract_z
 _atom_site_occupancy
  K  K0  1  0.24951900  0.24951900  0.24951900  1
  Na  Na0  1  0.24948600  0.24948600  0.75051800  1
  Na  Na1  1  0.75052300  0.24945700  0.75052300  1
  Na  Na2  1  0.75051800  0.24948600  0.24948600  1
  Na  Na3  1  0.24945700  0.75052300  0.75052300  1
  Na  Na4  1  0.75050800  0.75050800  0.75050800  1
  Na  Na5  1  0.24948600  0.75051800  0.24948600  1
  Na  Na6  1  0.75052300  0.75052300  0.24945700  1
  V  V0  1  0.50068200  0.99933200  0.99933200  1
  V  V1  1  0.99933200  0.99933200  0.50068200  1
  V  V2  1  0.50072900  0.99930200  0.50072900  1
  V  V3  1  0.99933200  0.50068200  0.99933200  1
  V  V4  1  0.50072900  0.50072900  0.99930200  1
  V  V5  1  0.99930200  0.50072900  0.50072900  1
  V  V6  1  0.50070200  0.50070200  0.50070200  1
  Cr  Cr0  1  0.99927500  0.99927500  0.99927500  1
  O  O0  1  0.99774800  0.25449100  0.99774800  1
  O  O1  1  0.50214100  0.25147200  0.99784800  1
  O  O2  1  0.99784800  0.25147200  0.50214100  1
  O  O3  1  0.50223200  0.25065500  0.50223200  1
  O  O4  1  0.99939700  0.74570700  0.99939700  1
  O  O5  1  0.50060200  0.74851200  0.99933100  1
  O  O6  1  0.99933100  0.74851200  0.50060200  1
  O  O7  1  0.50056100  0.74935500  0.50056100  1
  O  O8  1  0.99939700  0.99939700  0.74570700  1
  O  O9  1  0.50060200  0.99933100  0.74851200  1
  O  O10  1  0.99774800  0.99774800  0.25449100  1
  O  O11  1  0.50214100  0.99784800  0.25147200  1
  O  O12  1  0.99933100  0.50060200  0.74851200  1
  O  O13  1  0.50056100  0.50056100  0.74935500  1
  O  O14  1  0.99784800  0.50214100  0.25147200  1
  O  O15  1  0.50223200  0.50223200  0.25065500  1
  O  O16  1  0.25449100  0.99774800  0.99774800  1
  O  O17  1  0.74570700  0.99939700  0.99939700  1
  O  O18  1  0.25147200  0.99784800  0.50214100  1
  O  O19  1  0.74851200  0.99933100  0.50060200  1
  O  O20  1  0.25147200  0.50214100  0.99784800  1
  O  O21  1  0.74851200  0.50060200  0.99933100  1
  O  O22  1  0.25065500  0.50223200  0.50223200  1
  O  O23  1  0.74935500  0.50056100  0.50056100  1
loop_
_geom_bond_atom_site_label_1
_geom_bond_atom_site_label_2
_geom_bond_distance
_geom_bond_site_symmetry_2
K0 O10 2.700044 1_445
K0 O16 2.700044 1_544
K0 O0 2.700044 1_454
K0 O20 2.703516 1_554
K0 O1 2.703516 1_554
K0 O2 2.703516 1_455
K0 O18 2.703516 1_545
K0 O11 2.703516 1_545
K0 O14 2.703516 1_455
K0 O15 2.709904 1_555
K0 O22 2.709904 1_555
K0 O3 2.709904 1_555
Na0 O16 2.675302 1_545
Na0 O0 2.675302 1_455
Na0 O20 2.680914 1_555
Na0 O1 2.680914 1_555
Na0 O18 2.680974 1_545
Na0 O2 2.680974 1_455
Na0 O8 2.682006 1_445
Na0 O3 2.686109 1_555
Na0 O22 2.686109 1_555
Na0 O12 2.687318 1_455
Na0 O9 2.687318 1_545
Na0 O13 2.692337 1_555
Na1 O0 2.651322 1_555
Na1 O2 2.657491 1_555
Na1 O1 2.657491 1_555
Na1 O3 2.662485 1_555
Na1 O17 2.674998 1_545
Na1 O8 2.674998 1_545
Na1 O12 2.680615 1_555
Na1 O21 2.680615 1_555
Na1 O9 2.681095 1_545
Na1 O19 2.681096 1_545
Na1 O23 2.686192 1_555
Na1 O13 2.686192 1_555
Na2 O0 2.675302 1_554
Na2 O10 2.675302 1_545
Na2 O14 2.680914 1_555
Na2 O2 2.680914 1_555
Na2 O11 2.680974 1_545
Na2 O1 2.680974 1_554
Na2 O17 2.682006 1_544
Na2 O3 2.686109 1_555
Na2 O15 2.686110 1_555
Na2 O19 2.687318 1_545
Na2 O21 2.687318 1_554
Na2 O23 2.692337 1_555
Na3 O16 2.651322 1_555
Na3 O18 2.657491 1_555
Na3 O20 2.657491 1_555
Na3 O22 2.662485 1_555
Na3 O4 2.674998 1_455
Na3 O8 2.674998 1_455
Na3 O9 2.680615 1_555
Na3 O5 2.680615 1_555
Na3 O12 2.681095 1_455
Na3 O6 2.681096 1_455
Na3 O7 2.686192 1_555
Na3 O13 2.686192 1_555
Na4 O8 2.669125 1_555
Na4 O4 2.669125 1_555
Na4 O17 2.669125 1_555
Na4 O21 2.673691 1_555
Na4 O5 2.673691 1_555
Na4 O6 2.673691 1_555
Na4 O19 2.673691 1_555
Na4 O12 2.673691 1_555
Na4 O9 2.673691 1_555
Na4 O13 2.680245 1_555
Na4 O7 2.680245 1_555
Na4 O23 2.680245 1_555
Na5 O16 2.675302 1_554
Na5 O10 2.675302 1_455
Na5 O11 2.680914 1_555
Na5 O18 2.680914 1_555
Na5 O14 2.680974 1_455
Na5 O20 2.680974 1_554
Na5 O4 2.682006 1_454
Na5 O22 2.686109 1_555
Na5 O15 2.686110 1_555
Na5 O6 2.687318 1_455
Na5 O5 2.687318 1_554
Na5 O7 2.692337 1_555
Na6 O10 2.651322 1_555
Na6 O11 2.657492 1_555
Na6 O14 2.657492 1_555
Na6 O15 2.662485 1_555
Na6 O17 2.674998 1_554
Na6 O4 2.674998 1_554
Na6 O6 2.680615 1_555
Na6 O19 2.680615 1_555
Na6 O21 2.681096 1_554
Na6 O5 2.681096 1_554
Na6 O23 2.686192 1_555
Na6 O7 2.686192 1_555
Cr0 O17 1.922542 1_555
Cr0 O4 1.922542 1_555
Cr0 O8 1.922542 1_555
Cr0 O0 1.935103 1_565
Cr0 O16 1.935103 1_655
Cr0 O10 1.935103 1_556
O0 V3 1.866690 1_555
O1 V4 1.889918 1_555
O1 V0 1.911780 1_545
O2 V5 1.889918 1_555
O2 V1 1.911780 1_545
O3 V6 1.895914 1_555
O3 V2 1.905819 1_545
O4 V3 1.857769 1_555
O5 V4 1.878680 1_555
O5 V0 1.901707 1_555
O6 V5 1.878680 1_555
O6 V1 1.901707 1_555
O7 V6 1.885277 1_555
O7 V2 1.895089 1_555
O8 V1 1.857769 1_555
O9 V2 1.878680 1_555
O9 V0 1.901707 1_555
O10 V1 1.866690 1_555
O11 V2 1.889918 1_555
O11 V0 1.911780 1_554
O12 V5 1.878680 1_555
O12 V3 1.901707 1_555
O13 V6 1.885277 1_555
O13 V4 1.895089 1_555
O14 V5 1.889918 1_555
O14 V3 1.911780 1_554
O15 V6 1.895914 1_555
O15 V4 1.905819 1_554
O16 V0 1.866690 1_555
O17 V0 1.857769 1_555
O18 V2 1.889918 1_555
O18 V1 1.911780 1_455
O19 V2 1.878680 1_555
O19 V1 1.901707 1_555
O20 V4 1.889918 1_555
O20 V3 1.911780 1_455
O21 V4 1.878680 1_555
O21 V3 1.901707 1_555
O22 V6 1.895914 1_555
O22 V5 1.905819 1_455
O23 V6 1.885277 1_555
O23 V5 1.895089 1_555
