# generated using pymatgen
data_CaNdGaO4
_symmetry_space_group_name_H-M   'P 1'
_cell_length_a   6.61321302
_cell_length_b   6.61321302
_cell_length_c   5.53565900
_cell_angle_alpha   90.00000000
_cell_angle_beta   90.00000000
_cell_angle_gamma   131.65927074
_symmetry_Int_Tables_number   1
_chemical_formula_structural   CaNdGaO4
_chemical_formula_sum   'Ca2 Nd2 Ga2 O8'
_cell_volume   180.87536249
_cell_formula_units_Z   2
loop_
 _symmetry_equiv_pos_site_id
 _symmetry_equiv_pos_as_xyz
  1  'x, y, z'
loop_
 _atom_site_type_symbol
 _atom_site_label
 _atom_site_symmetry_multiplicity
 _atom_site_fract_x
 _atom_site_fract_y
 _atom_site_fract_z
 _atom_site_occupancy
  Ca  Ca0  1  0.60431300  0.39568700  0.51526200  1
  Ca  Ca1  1  0.39568700  0.60431300  0.01526200  1
  Nd  Nd0  1  0.88941900  0.11058100  0.48244400  1
  Nd  Nd1  1  0.11058100  0.88941900  0.98244400  1
  Ga  Ga0  1  0.74593700  0.25406300  0.99797600  1
  Ga  Ga1  1  0.25406300  0.74593700  0.49797600  1
  O  O0  1  0.58045300  0.41954700  0.94746300  1
  O  O1  1  0.92297900  0.07702100  0.05396400  1
  O  O2  1  0.41954700  0.58045300  0.44746300  1
  O  O3  1  0.07702100  0.92297900  0.55396400  1
  O  O4  1  0.98231800  0.51497200  0.25144500  1
  O  O5  1  0.01768200  0.48502800  0.75144500  1
  O  O6  1  0.51497200  0.98231800  0.75144500  1
  O  O7  1  0.48502800  0.01768200  0.25144500  1
loop_
_geom_bond_atom_site_label_1
_geom_bond_atom_site_label_2
_geom_bond_distance
_geom_bond_site_symmetry_2
Ca0 O2 2.260920 1_555
Ca0 O0 2.409779 1_555
Ca0 O7 2.526385 1_555
Ca0 O4 2.526385 1_555
Ca0 O6 2.717419 1_545
Ca0 O5 2.717419 1_655
Ca0 O3 2.736142 1_655
Ca0 O3 2.736142 1_545
Ca0 O0 3.156301 1_554
Ca1 O0 2.260920 1_554
Ca1 O2 2.409779 1_555
Ca1 O5 2.526385 1_554
Ca1 O6 2.526385 1_554
Ca1 O4 2.717419 1_455
Ca1 O7 2.717419 1_565
Ca1 O1 2.736142 1_565
Ca1 O1 2.736142 1_455
Ca1 O2 3.156301 1_554
Nd0 O3 2.298133 1_645
Nd0 O1 2.406241 1_555
Nd0 O5 2.505313 1_655
Nd0 O6 2.505313 1_545
Nd0 O4 2.642045 1_555
Nd0 O7 2.642045 1_555
Nd0 O2 2.738938 1_545
Nd0 O2 2.738938 1_655
Nd1 O1 2.298133 1_466
Nd1 O3 2.406241 1_555
Nd1 O7 2.505313 1_566
Nd1 O4 2.505313 1_456
Nd1 O6 2.642045 1_555
Nd1 O5 2.642045 1_555
Nd1 O0 2.738938 1_455
Nd1 O0 2.738938 1_565
Ga0 O5 1.943175 1_655
Ga0 O6 1.943175 1_545
Ga0 O4 1.950347 1_556
Ga0 O7 1.950347 1_556
Ga0 O0 2.016360 1_555
Ga0 O1 2.158711 1_556
Ga1 O7 1.943175 1_565
Ga1 O4 1.943175 1_455
Ga1 O6 1.950347 1_555
Ga1 O5 1.950347 1_555
Ga1 O2 2.016360 1_555
Ga1 O3 2.158711 1_555
