# generated using pymatgen
data_NaVP2O7
_symmetry_space_group_name_H-M   'P 1'
_cell_length_a   8.10416700
_cell_length_b   7.43929900
_cell_length_c   9.71148436
_cell_angle_alpha   68.15696234
_cell_angle_beta   90.00000000
_cell_angle_gamma   90.00000000
_symmetry_Int_Tables_number   1
_chemical_formula_structural   NaVP2O7
_chemical_formula_sum   'Na4 V4 P8 O28'
_cell_volume   543.46386001
_cell_formula_units_Z   4
loop_
 _symmetry_equiv_pos_site_id
 _symmetry_equiv_pos_as_xyz
  1  'x, y, z'
loop_
 _atom_site_type_symbol
 _atom_site_label
 _atom_site_symmetry_multiplicity
 _atom_site_fract_x
 _atom_site_fract_y
 _atom_site_fract_z
 _atom_site_occupancy
  Na  Na0  1  0.47178000  0.78671100  0.70894200  1
  Na  Na1  1  0.97178000  0.21328900  0.79105800  1
  Na  Na2  1  0.52822000  0.21328900  0.29105800  1
  Na  Na3  1  0.02822000  0.78671100  0.20894200  1
  V  V0  1  0.00799400  0.76011400  0.75084200  1
  V  V1  1  0.50799400  0.23988600  0.74915800  1
  V  V2  1  0.99200600  0.23988600  0.24915800  1
  V  V3  1  0.49200600  0.76011400  0.25084200  1
  P  P0  1  0.75637400  0.42736300  0.95484300  1
  P  P1  1  0.25637400  0.57263700  0.54515700  1
  P  P2  1  0.24362600  0.57263700  0.04515700  1
  P  P3  1  0.74362600  0.42736300  0.45484300  1
  P  P4  1  0.71065600  0.82704200  0.95283600  1
  P  P5  1  0.21065600  0.17295800  0.54716400  1
  P  P6  1  0.28934400  0.17295800  0.04716400  1
  P  P7  1  0.78934400  0.82704200  0.45283600  1
  O  O0  1  0.63957600  0.31252400  0.89879800  1
  O  O1  1  0.13957600  0.68747600  0.60120200  1
  O  O2  1  0.36042400  0.68747600  0.10120200  1
  O  O3  1  0.86042400  0.31252400  0.39879800  1
  O  O4  1  0.89040600  0.86612700  0.90008300  1
  O  O5  1  0.39040600  0.13387300  0.59991700  1
  O  O6  1  0.10959400  0.13387300  0.09991700  1
  O  O7  1  0.60959400  0.86612700  0.40008300  1
  O  O8  1  0.58774300  0.96588700  0.84609200  1
  O  O9  1  0.08774300  0.03411300  0.65390800  1
  O  O10  1  0.41225700  0.03411300  0.15390800  1
  O  O11  1  0.91225700  0.96588700  0.34609200  1
  O  O12  1  0.65573900  0.62395900  0.93769200  1
  O  O13  1  0.15573900  0.37604100  0.56230800  1
  O  O14  1  0.34426100  0.37604100  0.06230800  1
  O  O15  1  0.84426100  0.62395900  0.43769200  1
  O  O16  1  0.91433400  0.48790600  0.86088100  1
  O  O17  1  0.41433400  0.51209400  0.63911900  1
  O  O18  1  0.08566600  0.51209400  0.13911900  1
  O  O19  1  0.58566600  0.48790600  0.36088100  1
  O  O20  1  0.80440300  0.80689800  0.61500600  1
  O  O21  1  0.30440300  0.19310200  0.88499400  1
  O  O22  1  0.19559700  0.19310200  0.38499400  1
  O  O23  1  0.69559700  0.80689800  0.11500600  1
  O  O24  1  0.21076200  0.67988700  0.87886500  1
  O  O25  1  0.71076200  0.32011300  0.62113500  1
  O  O26  1  0.78923800  0.32011300  0.12113500  1
  O  O27  1  0.28923800  0.67988700  0.37886500  1
loop_
_geom_bond_atom_site_label_1
_geom_bond_atom_site_label_2
_geom_bond_distance
_geom_bond_site_symmetry_2
Na0 O8 2.398977 1_555
Na0 O17 2.425089 1_555
Na0 O5 2.488206 1_565
Na0 O12 2.573346 1_555
Na0 O24 2.617917 1_555
Na0 O20 2.831829 1_555
Na0 O7 3.045431 1_555
Na0 O1 3.076150 1_555
Na1 O9 2.398977 1_655
Na1 O16 2.425089 1_555
Na1 O4 2.488206 1_545
Na1 O13 2.573346 1_655
Na1 O25 2.617917 1_555
Na1 O21 2.831829 1_655
Na1 O6 3.045431 1_656
Na1 O0 3.076150 1_555
Na2 O10 2.398977 1_555
Na2 O19 2.425089 1_555
Na2 O7 2.488206 1_545
Na2 O14 2.573346 1_555
Na2 O26 2.617917 1_555
Na2 O22 2.831829 1_555
Na2 O5 3.045431 1_555
Na2 O3 3.076150 1_555
Na3 O11 2.398977 1_455
Na3 O18 2.425089 1_555
Na3 O6 2.488206 1_565
Na3 O15 2.573346 1_455
Na3 O27 2.617917 1_555
Na3 O23 2.831829 1_455
Na3 O4 3.045431 1_454
Na3 O2 3.076150 1_555
O0 P0 1.506014 1_555
O0 V1 2.031098 1_555
O1 P1 1.506014 1_555
O1 V0 2.031098 1_555
O2 P2 1.506014 1_555
O2 V3 2.031098 1_555
O3 P3 1.506014 1_555
O3 V2 2.031098 1_555
O4 P4 1.535644 1_555
O4 V0 2.116909 1_655
O5 P5 1.535644 1_555
O5 V1 2.116909 1_555
O6 P6 1.535644 1_555
O6 V2 2.116909 1_455
O7 P7 1.535644 1_555
O7 V3 2.116909 1_555
O8 P4 1.528717 1_555
O8 V1 2.007715 1_565
O9 P5 1.528717 1_555
O9 V0 2.007715 1_545
O10 P6 1.528717 1_555
O10 V3 2.007715 1_545
O11 P7 1.528717 1_555
O11 V2 2.007715 1_565
O12 P0 1.628074 1_555
O12 P4 1.633263 1_555
O13 P1 1.628074 1_555
O13 P5 1.633263 1_555
O14 P2 1.628074 1_555
O14 P6 1.633263 1_555
O15 P3 1.628074 1_555
O15 P7 1.633263 1_555
O16 P0 1.538975 1_555
O16 V0 2.051482 1_655
O17 P1 1.538975 1_555
O17 V1 2.051482 1_555
O18 P2 1.538975 1_555
O18 V2 2.051482 1_455
O19 P3 1.538975 1_555
O19 V3 2.051482 1_555
O20 P7 1.530383 1_555
O20 V0 2.059606 1_655
O21 P6 1.530383 1_556
O21 V1 2.059606 1_555
O22 P5 1.530383 1_555
O22 V2 2.059606 1_455
O23 P4 1.530383 1_554
O23 V3 2.059606 1_555
O24 P2 1.535169 1_556
O24 V0 2.012495 1_555
O25 P3 1.535169 1_555
O25 V1 2.012495 1_555
O26 P0 1.535169 1_554
O26 V2 2.012495 1_555
O27 P1 1.535169 1_555
O27 V3 2.012495 1_555
