# generated using pymatgen
data_AlRe2
_symmetry_space_group_name_H-M   'P 1'
_cell_length_a   5.98854287
_cell_length_b   5.98854253
_cell_length_c   10.43783378
_cell_angle_alpha   106.67051659
_cell_angle_beta   106.67050728
_cell_angle_gamma   89.99997518
_symmetry_Int_Tables_number   1
_chemical_formula_structural   AlRe2
_chemical_formula_sum   'Al8 Re16'
_cell_volume   342.13978839
_cell_formula_units_Z   8
loop_
 _symmetry_equiv_pos_site_id
 _symmetry_equiv_pos_as_xyz
  1  'x, y, z'
loop_
 _atom_site_type_symbol
 _atom_site_label
 _atom_site_symmetry_multiplicity
 _atom_site_fract_x
 _atom_site_fract_y
 _atom_site_fract_z
 _atom_site_occupancy
  Al  Al0_0  1  0.00000000  0.00000000  0.00000000  1
  Al  Al0_1  1  0.00000000  0.00000000  0.50000000  1
  Al  Al0_2  1  0.00000000  0.50000000  0.00000000  1
  Al  Al0_3  1  0.00000000  0.50000000  0.50000000  1
  Al  Al0_4  1  0.50000000  0.00000000  0.00000000  1
  Al  Al0_5  1  0.50000000  0.00000000  0.50000000  1
  Al  Al0_6  1  0.50000000  0.50000000  0.00000000  1
  Al  Al0_7  1  0.50000000  0.50000000  0.50000000  1
  Re  Re0_0  1  0.16549931  0.16549931  0.33099862  1
  Re  Re0_1  1  0.16549931  0.16549931  0.83099862  1
  Re  Re0_2  1  0.16549931  0.66549931  0.33099862  1
  Re  Re0_3  1  0.16549931  0.66549931  0.83099862  1
  Re  Re0_4  1  0.66549931  0.16549931  0.33099862  1
  Re  Re0_5  1  0.66549931  0.16549931  0.83099862  1
  Re  Re0_6  1  0.66549931  0.66549931  0.33099862  1
  Re  Re0_7  1  0.66549931  0.66549931  0.83099862  1
  Re  Re1_0  1  0.33450069  0.33450069  0.16900138  1
  Re  Re1_1  1  0.33450069  0.33450069  0.66900138  1
  Re  Re1_2  1  0.33450069  0.83450069  0.16900138  1
  Re  Re1_3  1  0.33450069  0.83450069  0.66900138  1
  Re  Re1_4  1  0.83450069  0.33450069  0.16900138  1
  Re  Re1_5  1  0.83450069  0.33450069  0.66900138  1
  Re  Re1_6  1  0.83450069  0.83450069  0.16900138  1
  Re  Re1_7  1  0.83450069  0.83450069  0.66900138  1
loop_
_geom_bond_atom_site_label_1
_geom_bond_atom_site_label_2
_geom_bond_distance
_geom_bond_site_symmetry_2
Al0_0 Re1_4 2.661279 1_455
Al0_0 Re0_3 2.661279 1_544
Al0_0 Re0_5 2.661280 1_454
Al0_0 Re1_2 2.661280 1_545
Al0_0 Re0_7 2.661280 1_444
Al0_0 Re1_0 2.661280 1_555
Al0_0 Re1_6 2.661281 1_445
Al0_0 Re0_1 2.661281 1_554
Al0_0 Al0_2 2.994271 1_545
Al0_0 Al0_2 2.994271 1_555
Al0_0 Al0_4 2.994271 1_555
Al0_0 Al0_4 2.994271 1_455
Al0_1 Re1_5 2.661279 1_455
Al0_1 Re0_2 2.661279 1_545
Al0_1 Re1_3 2.661280 1_545
Al0_1 Re0_4 2.661280 1_455
Al0_1 Re1_1 2.661280 1_555
Al0_1 Re0_6 2.661280 1_445
Al0_1 Re1_7 2.661281 1_445
Al0_1 Re0_0 2.661281 1_555
Al0_1 Al0_3 2.994271 1_555
Al0_1 Al0_3 2.994271 1_545
Al0_1 Al0_5 2.994271 1_555
Al0_1 Al0_5 2.994271 1_455
Al0_2 Re1_6 2.661279 1_455
Al0_2 Re0_1 2.661279 1_554
Al0_2 Re0_7 2.661280 1_454
Al0_2 Re1_0 2.661280 1_555
Al0_2 Re1_2 2.661280 1_555
Al0_2 Re0_5 2.661280 1_454
Al0_2 Re0_3 2.661281 1_554
Al0_2 Re1_4 2.661281 1_455
Al0_2 Al0_6 2.994271 1_555
Al0_2 Al0_6 2.994271 1_455
Al0_3 Re1_7 2.661279 1_455
Al0_3 Re0_0 2.661279 1_555
Al0_3 Re1_1 2.661280 1_555
Al0_3 Re0_6 2.661280 1_455
Al0_3 Re1_3 2.661280 1_555
Al0_3 Re0_4 2.661280 1_455
Al0_3 Re1_5 2.661281 1_455
Al0_3 Re0_2 2.661281 1_555
Al0_3 Al0_7 2.994271 1_555
Al0_3 Al0_7 2.994271 1_455
Al0_4 Re0_7 2.661279 1_544
Al0_4 Re1_0 2.661279 1_555
Al0_4 Re1_6 2.661280 1_545
Al0_4 Re0_1 2.661280 1_554
Al0_4 Re1_4 2.661280 1_555
Al0_4 Re0_3 2.661280 1_544
Al0_4 Re0_5 2.661281 1_554
Al0_4 Re1_2 2.661281 1_545
Al0_4 Al0_6 2.994271 1_555
Al0_4 Al0_6 2.994271 1_545
Al0_5 Re1_1 2.661279 1_555
Al0_5 Re0_6 2.661279 1_545
Al0_5 Re1_7 2.661280 1_545
Al0_5 Re0_0 2.661280 1_555
Al0_5 Re1_5 2.661280 1_555
Al0_5 Re0_2 2.661280 1_545
Al0_5 Re1_3 2.661281 1_545
Al0_5 Re0_4 2.661281 1_555
Al0_5 Al0_7 2.994271 1_555
Al0_5 Al0_7 2.994271 1_545
Al0_6 Re1_2 2.661279 1_555
Al0_6 Re0_5 2.661279 1_554
Al0_6 Re1_4 2.661280 1_555
Al0_6 Re0_3 2.661280 1_554
Al0_6 Re0_1 2.661280 1_554
Al0_6 Re1_6 2.661280 1_555
Al0_6 Re1_0 2.661281 1_555
Al0_6 Re0_7 2.661281 1_554
Al0_7 Re1_3 2.661279 1_555
Al0_7 Re0_4 2.661279 1_555
Al0_7 Re0_2 2.661280 1_555
Al0_7 Re1_5 2.661280 1_555
Al0_7 Re0_0 2.661280 1_555
Al0_7 Re1_7 2.661280 1_555
Al0_7 Re1_1 2.661281 1_555
Al0_7 Re0_6 2.661281 1_555
Re0_0 Re1_2 2.621335 1_545
Re0_0 Re1_4 2.621335 1_455
Re0_0 Re1_6 2.621335 1_445
Re0_0 Re1_0 2.621336 1_555
Re0_0 Re0_2 2.994271 1_555
Re0_0 Re0_2 2.994271 1_545
Re0_0 Re0_4 2.994271 1_555
Re0_0 Re0_4 2.994271 1_455
Re0_1 Re1_3 2.621335 1_545
Re0_1 Re1_5 2.621335 1_455
Re0_1 Re1_7 2.621335 1_445
Re0_1 Re1_1 2.621336 1_555
Re0_1 Re0_3 2.994271 1_555
Re0_1 Re0_3 2.994271 1_545
Re0_1 Re0_5 2.994271 1_555
Re0_1 Re0_5 2.994271 1_455
Re0_2 Re1_0 2.621335 1_555
Re0_2 Re1_6 2.621335 1_455
Re0_2 Re1_4 2.621335 1_455
Re0_2 Re1_2 2.621336 1_555
Re0_2 Re0_6 2.994271 1_455
Re0_2 Re0_6 2.994271 1_555
Re0_3 Re1_1 2.621335 1_555
Re0_3 Re1_7 2.621335 1_455
Re0_3 Re1_5 2.621335 1_455
Re0_3 Re1_3 2.621336 1_555
Re0_3 Re0_7 2.994271 1_455
Re0_3 Re0_7 2.994271 1_555
Re0_4 Re1_6 2.621335 1_545
Re0_4 Re1_0 2.621335 1_555
Re0_4 Re1_2 2.621335 1_545
Re0_4 Re1_4 2.621336 1_555
Re0_4 Re0_6 2.994271 1_545
Re0_4 Re0_6 2.994271 1_555
Re0_5 Re1_7 2.621335 1_545
Re0_5 Re1_1 2.621335 1_555
Re0_5 Re1_3 2.621335 1_545
Re0_5 Re1_5 2.621336 1_555
Re0_5 Re0_7 2.994271 1_545
Re0_5 Re0_7 2.994271 1_555
Re0_6 Re1_4 2.621335 1_555
Re0_6 Re1_2 2.621335 1_555
Re0_6 Re1_0 2.621335 1_555
Re0_6 Re1_6 2.621336 1_555
Re0_7 Re1_5 2.621335 1_555
Re0_7 Re1_3 2.621335 1_555
Re0_7 Re1_1 2.621335 1_555
Re0_7 Re1_7 2.621336 1_555
Re1_0 Re1_2 2.994271 1_555
Re1_0 Re1_2 2.994271 1_545
Re1_0 Re1_4 2.994271 1_555
Re1_0 Re1_4 2.994271 1_455
Re1_1 Re1_3 2.994271 1_555
Re1_1 Re1_3 2.994271 1_545
Re1_1 Re1_5 2.994271 1_455
Re1_1 Re1_5 2.994271 1_555
Re1_2 Re1_6 2.994271 1_455
Re1_2 Re1_6 2.994271 1_555
Re1_3 Re1_7 2.994271 1_555
Re1_3 Re1_7 2.994271 1_455
Re1_4 Re1_6 2.994271 1_545
Re1_4 Re1_6 2.994271 1_555
Re1_5 Re1_7 2.994271 1_545
Re1_5 Re1_7 2.994271 1_555
