# generated using pymatgen
data_NaTiP2O7
_symmetry_space_group_name_H-M   'P 1'
_cell_length_a   8.03656900
_cell_length_b   7.47974900
_cell_length_c   9.84832174
_cell_angle_alpha   68.32817445
_cell_angle_beta   90.00000000
_cell_angle_gamma   90.00000000
_symmetry_Int_Tables_number   1
_chemical_formula_structural   NaTiP2O7
_chemical_formula_sum   'Na4 Ti4 P8 O28'
_cell_volume   550.15180209
_cell_formula_units_Z   4
loop_
 _symmetry_equiv_pos_site_id
 _symmetry_equiv_pos_as_xyz
  1  'x, y, z'
loop_
 _atom_site_type_symbol
 _atom_site_label
 _atom_site_symmetry_multiplicity
 _atom_site_fract_x
 _atom_site_fract_y
 _atom_site_fract_z
 _atom_site_occupancy
  Na  Na0  1  0.97756000  0.71558600  0.79003200  1
  Na  Na1  1  0.47756000  0.28441400  0.70996800  1
  Na  Na2  1  0.02244000  0.28441400  0.20996800  1
  Na  Na3  1  0.52244000  0.71558600  0.29003200  1
  Ti  Ti0  1  0.50941300  0.73903400  0.74950400  1
  Ti  Ti1  1  0.00941300  0.26096600  0.75049600  1
  Ti  Ti2  1  0.49058700  0.26096600  0.25049600  1
  Ti  Ti3  1  0.99058700  0.73903400  0.24950400  1
  P  P0  1  0.71308900  0.32787300  0.95349600  1
  P  P1  1  0.21308900  0.67212700  0.54650400  1
  P  P2  1  0.28691100  0.67212700  0.04650400  1
  P  P3  1  0.78691100  0.32787300  0.45349600  1
  P  P4  1  0.75615800  0.92939500  0.95434800  1
  P  P5  1  0.25615800  0.07060500  0.54565200  1
  P  P6  1  0.24384200  0.07060500  0.04565200  1
  P  P7  1  0.74384200  0.92939500  0.45434800  1
  O  O0  1  0.65738100  0.12648000  0.93776600  1
  O  O1  1  0.15738100  0.87352000  0.56223400  1
  O  O2  1  0.34261900  0.87352000  0.06223400  1
  O  O3  1  0.84261900  0.12648000  0.43776600  1
  O  O4  1  0.39311400  0.63053400  0.60254300  1
  O  O5  1  0.89311400  0.36946600  0.89745700  1
  O  O6  1  0.60688600  0.36946600  0.39745700  1
  O  O7  1  0.10688600  0.63053400  0.10254300  1
  O  O8  1  0.71462800  0.81807200  0.61756500  1
  O  O9  1  0.21462800  0.18192800  0.88243500  1
  O  O10  1  0.28537200  0.18192800  0.38243500  1
  O  O11  1  0.78537200  0.81807200  0.11756500  1
  O  O12  1  0.41750300  0.01155000  0.63543100  1
  O  O13  1  0.91750300  0.98845000  0.86456900  1
  O  O14  1  0.58249700  0.98845000  0.36456900  1
  O  O15  1  0.08249700  0.01155000  0.13543100  1
  O  O16  1  0.91326100  0.46605400  0.35116300  1
  O  O17  1  0.41326100  0.53394600  0.14883700  1
  O  O18  1  0.08673900  0.53394600  0.64883700  1
  O  O19  1  0.58673900  0.46605400  0.85116300  1
  O  O20  1  0.20025500  0.69269500  0.38666900  1
  O  O21  1  0.70025500  0.30730500  0.11333100  1
  O  O22  1  0.79974500  0.30730500  0.61333100  1
  O  O23  1  0.29974500  0.69269500  0.88666900  1
  O  O24  1  0.86286500  0.82416700  0.39118900  1
  O  O25  1  0.36286500  0.17583300  0.10881100  1
  O  O26  1  0.13713500  0.17583300  0.60881100  1
  O  O27  1  0.63713500  0.82416700  0.89118900  1
loop_
_geom_bond_atom_site_label_1
_geom_bond_atom_site_label_2
_geom_bond_distance
_geom_bond_site_symmetry_2
Na0 O18 2.438164 1_655
Na0 O13 2.458421 1_555
Na0 O5 2.501855 1_555
Na0 O1 2.561158 1_655
Na0 O8 2.641209 1_555
Na0 O23 2.742079 1_655
Na0 O7 3.084012 1_656
Na0 O27 3.120019 1_555
Na1 O19 2.438164 1_555
Na1 O12 2.458421 1_555
Na1 O4 2.501855 1_555
Na1 O0 2.561158 1_555
Na1 O9 2.641209 1_555
Na1 O22 2.742079 1_555
Na1 O6 3.084012 1_555
Na1 O26 3.120019 1_555
Na2 O16 2.438164 1_455
Na2 O15 2.458421 1_555
Na2 O7 2.501855 1_555
Na2 O3 2.561158 1_455
Na2 O10 2.641209 1_555
Na2 O21 2.742079 1_455
Na2 O5 3.084012 1_454
Na2 O25 3.120019 1_555
Na3 O17 2.438164 1_555
Na3 O14 2.458421 1_555
Na3 O6 2.501855 1_555
Na3 O2 2.561158 1_555
Na3 O11 2.641209 1_555
Na3 O20 2.742079 1_555
Na3 O4 3.084012 1_555
Na3 O24 3.120019 1_555
O0 P4 1.628538 1_545
O0 P0 1.632769 1_555
O1 P5 1.628538 1_565
O1 P1 1.632769 1_555
O2 P6 1.628538 1_565
O2 P2 1.632769 1_555
O3 P7 1.628538 1_545
O3 P3 1.632769 1_555
O4 P1 1.538746 1_555
O4 Ti0 2.120007 1_555
O5 P0 1.538746 1_555
O5 Ti1 2.120007 1_655
O6 P3 1.538746 1_555
O6 Ti2 2.120007 1_555
O7 P2 1.538746 1_555
O7 Ti3 2.120007 1_455
O8 P7 1.530912 1_555
O8 Ti0 2.047063 1_555
O9 P6 1.530912 1_556
O9 Ti1 2.047063 1_555
O10 P5 1.530912 1_555
O10 Ti2 2.047063 1_555
O11 P4 1.530912 1_554
O11 Ti3 2.047063 1_555
O12 P5 1.539398 1_555
O12 Ti0 2.066701 1_545
O13 P4 1.539398 1_555
O13 Ti1 2.066701 1_665
O14 P7 1.539398 1_555
O14 Ti2 2.066701 1_565
O15 P6 1.539398 1_555
O15 Ti3 2.066701 1_445
O16 P3 1.531560 1_555
O16 Ti3 2.011902 1_555
O17 P2 1.531560 1_555
O17 Ti2 2.011902 1_555
O18 P1 1.531560 1_555
O18 Ti1 2.011902 1_555
O19 P0 1.531560 1_555
O19 Ti0 2.011902 1_555
O20 P1 1.527501 1_555
O20 Ti3 2.106744 1_455
O21 P0 1.527501 1_554
O21 Ti2 2.106744 1_555
O22 P3 1.527501 1_555
O22 Ti1 2.106744 1_655
O23 P2 1.527501 1_556
O23 Ti0 2.106744 1_555
O24 P7 1.510940 1_555
O24 Ti3 2.015527 1_555
O25 P6 1.510940 1_555
O25 Ti2 2.015527 1_555
O26 P5 1.510940 1_555
O26 Ti1 2.015527 1_555
O27 P4 1.510940 1_555
O27 Ti0 2.015527 1_555
