# generated using pymatgen
data_LaPO4
_symmetry_space_group_name_H-M   'P 1'
_cell_length_a   5.28111300
_cell_length_b   7.42209700
_cell_length_c   9.22067100
_cell_angle_alpha   90.00000000
_cell_angle_beta   90.00000000
_cell_angle_gamma   90.00000000
_symmetry_Int_Tables_number   1
_chemical_formula_structural   LaPO4
_chemical_formula_sum   'La4 P4 O16'
_cell_volume   361.42202298
_cell_formula_units_Z   4
loop_
 _symmetry_equiv_pos_site_id
 _symmetry_equiv_pos_as_xyz
  1  'x, y, z'
loop_
 _atom_site_type_symbol
 _atom_site_label
 _atom_site_symmetry_multiplicity
 _atom_site_fract_x
 _atom_site_fract_y
 _atom_site_fract_z
 _atom_site_occupancy
  La  La0  1  0.25000000  0.97946100  0.30692600  1
  La  La1  1  0.25000000  0.47946100  0.19307400  1
  La  La2  1  0.75000000  0.02053900  0.69307400  1
  La  La3  1  0.75000000  0.52053900  0.80692600  1
  P  P0  1  0.75000000  0.24519800  0.08020500  1
  P  P1  1  0.75000000  0.74519800  0.41979500  1
  P  P2  1  0.25000000  0.75480200  0.91979500  1
  P  P3  1  0.25000000  0.25480200  0.58020500  1
  O  O0  1  0.25000000  0.04134800  0.58408400  1
  O  O1  1  0.25000000  0.54134800  0.91591600  1
  O  O2  1  0.75000000  0.95865200  0.41591600  1
  O  O3  1  0.75000000  0.45865200  0.08408400  1
  O  O4  1  0.50749600  0.18211000  0.15779600  1
  O  O5  1  0.99250400  0.68211000  0.34220400  1
  O  O6  1  0.00749600  0.81789000  0.84220400  1
  O  O7  1  0.49250400  0.31789000  0.65779600  1
  O  O8  1  0.49250400  0.81789000  0.84220400  1
  O  O9  1  0.00749600  0.31789000  0.65779600  1
  O  O10  1  0.99250400  0.18211000  0.15779600  1
  O  O11  1  0.50749600  0.68211000  0.34220400  1
  O  O12  1  0.25000000  0.30467300  0.41672900  1
  O  O13  1  0.25000000  0.80467300  0.08327100  1
  O  O14  1  0.75000000  0.69532700  0.58327100  1
  O  O15  1  0.75000000  0.19532700  0.91672900  1
loop_
_geom_bond_atom_site_label_1
_geom_bond_atom_site_label_2
_geom_bond_distance
_geom_bond_site_symmetry_2
La0 O13 2.436358 1_555
La0 O4 2.449966 1_565
La0 O10 2.449966 1_465
La0 O0 2.596534 1_565
La0 O11 2.612614 1_555
La0 O5 2.612614 1_455
La0 O12 2.617496 1_565
La0 O2 2.829547 1_555
La0 O2 2.829547 1_455
La1 O12 2.436358 1_555
La1 O11 2.449966 1_555
La1 O5 2.449966 1_455
La1 O1 2.596534 1_554
La1 O4 2.612614 1_555
La1 O10 2.612614 1_455
La1 O13 2.617496 1_555
La1 O3 2.829547 1_455
La1 O3 2.829547 1_555
La2 O15 2.436358 1_555
La2 O6 2.449966 1_645
La2 O8 2.449966 1_545
La2 O2 2.596534 1_545
La2 O7 2.612614 1_555
La2 O9 2.612614 1_655
La2 O14 2.617496 1_545
La2 O0 2.829547 1_555
La2 O0 2.829547 1_655
La3 O14 2.436358 1_555
La3 O9 2.449966 1_655
La3 O7 2.449966 1_555
La3 O3 2.596534 1_556
La3 O6 2.612614 1_655
La3 O8 2.612614 1_555
La3 O15 2.617496 1_555
La3 O1 2.829547 1_555
La3 O1 2.829547 1_655
O0 P3 1.584680 1_555
O1 P2 1.584680 1_555
O2 P1 1.584680 1_555
O3 P0 1.584680 1_555
O4 P0 1.539896 1_555
O5 P1 1.539896 1_555
O6 P2 1.539896 1_555
O7 P3 1.539896 1_555
O8 P2 1.539896 1_555
O9 P3 1.539896 1_555
O10 P0 1.539896 1_555
O11 P1 1.539896 1_555
O12 P3 1.552140 1_555
O13 P2 1.552140 1_554
O14 P1 1.552140 1_555
O15 P0 1.552140 1_556
