# generated using pymatgen
data_XeNO2F5
_symmetry_space_group_name_H-M   'P 1'
_cell_length_a   5.74635800
_cell_length_b   6.84038900
_cell_length_c   15.04553348
_cell_angle_alpha   73.40915495
_cell_angle_beta   90.00000000
_cell_angle_gamma   90.00000000
_symmetry_Int_Tables_number   1
_chemical_formula_structural   XeNO2F5
_chemical_formula_sum   'Xe4 N4 O8 F20'
_cell_volume   566.77863400
_cell_formula_units_Z   4
loop_
 _symmetry_equiv_pos_site_id
 _symmetry_equiv_pos_as_xyz
  1  'x, y, z'
loop_
 _atom_site_type_symbol
 _atom_site_label
 _atom_site_symmetry_multiplicity
 _atom_site_fract_x
 _atom_site_fract_y
 _atom_site_fract_z
 _atom_site_occupancy
  Xe  Xe0  1  0.13176900  0.32929400  0.85106900  1
  Xe  Xe1  1  0.36823100  0.32929400  0.35106900  1
  Xe  Xe2  1  0.86823100  0.67070600  0.14893100  1
  Xe  Xe3  1  0.63176900  0.67070600  0.64893100  1
  N  N0  1  0.00415900  0.15032000  0.59509500  1
  N  N1  1  0.49584100  0.15032000  0.09509500  1
  N  N2  1  0.99584100  0.84968000  0.40490500  1
  N  N3  1  0.50415900  0.84968000  0.90490500  1
  O  O0  1  0.91136400  0.18372500  0.93029800  1
  O  O1  1  0.58863600  0.18372500  0.43029800  1
  O  O2  1  0.08863600  0.81627500  0.06970200  1
  O  O3  1  0.41136400  0.81627500  0.56970200  1
  O  O4  1  0.17848300  0.12828500  0.62736100  1
  O  O5  1  0.32151700  0.12828500  0.12736100  1
  O  O6  1  0.82151700  0.87171500  0.37263900  1
  O  O7  1  0.67848300  0.87171500  0.87263900  1
  F  F0  1  0.92103800  0.34270800  0.73161600  1
  F  F1  1  0.57896200  0.34270800  0.23161600  1
  F  F2  1  0.07896200  0.65729200  0.26838400  1
  F  F3  1  0.42103800  0.65729200  0.76838400  1
  F  F4  1  0.92841300  0.59316400  0.82150800  1
  F  F5  1  0.57158700  0.59316400  0.32150800  1
  F  F6  1  0.07158700  0.40683600  0.17849200  1
  F  F7  1  0.42841300  0.40683600  0.67849200  1
  F  F8  1  0.23517700  0.47748800  0.94693900  1
  F  F9  1  0.26482300  0.47748800  0.44693900  1
  F  F10  1  0.76482300  0.52251200  0.05306100  1
  F  F11  1  0.73517700  0.52251200  0.55306100  1
  F  F12  1  0.41381600  0.15679900  0.93348700  1
  F  F13  1  0.08618400  0.15679900  0.43348700  1
  F  F14  1  0.58618400  0.84320100  0.06651300  1
  F  F15  1  0.91381600  0.84320100  0.56651300  1
  F  F16  1  0.20753200  0.06629600  0.80608400  1
  F  F17  1  0.29246800  0.06629600  0.30608400  1
  F  F18  1  0.79246800  0.93370400  0.19391600  1
  F  F19  1  0.70753200  0.93370400  0.69391600  1
loop_
_geom_bond_atom_site_label_1
_geom_bond_atom_site_label_2
_geom_bond_distance
_geom_bond_site_symmetry_2
N0 O4 1.104564 1_555
N1 O5 1.104564 1_555
N2 O6 1.104564 1_555
N3 O7 1.104564 1_555
O0 Xe0 1.827217 1_655
O1 Xe1 1.827217 1_555
O2 Xe2 1.827217 1_455
O3 Xe3 1.827217 1_555
F0 Xe0 2.147245 1_655
F0 F4 2.467652 1_555
F0 F16 2.516115 1_655
F0 N0 2.778982 1_655
F0 Xe3 2.783995 1_555
F0 F11 2.825516 1_555
F0 O4 2.848530 1_655
F0 O0 2.874903 1_555
F0 F7 2.940148 1_555
F0 F7 3.021842 1_655
F1 Xe1 2.147245 1_555
F1 F5 2.467652 1_555
F1 F17 2.516115 1_555
F1 N1 2.778982 1_555
F1 Xe2 2.783995 1_555
F1 F10 2.825516 1_555
F1 O5 2.848530 1_555
F1 O1 2.874903 1_555
F1 F6 2.940148 1_655
F1 F6 3.021842 1_555
F2 Xe2 2.147245 1_455
F2 F6 2.467652 1_555
F2 N2 2.778982 1_455
F2 Xe1 2.783995 1_555
F2 F9 2.825516 1_555
F2 O6 2.848530 1_455
F2 O2 2.874903 1_555
F2 F5 2.940148 1_555
F2 F5 3.021842 1_455
F3 Xe3 2.147245 1_555
F3 F7 2.467652 1_555
F3 N3 2.778982 1_555
F3 Xe0 2.783995 1_555
F3 F8 2.825516 1_555
F3 O7 2.848530 1_555
F3 O3 2.874903 1_555
F3 F4 2.940148 1_455
F3 F4 3.021842 1_555
F4 Xe0 2.088737 1_655
F4 F8 2.538141 1_655
F4 O7 2.668720 1_555
F4 O0 2.813334 1_555
F5 Xe1 2.088737 1_555
F5 F9 2.538141 1_555
F5 O6 2.668720 1_555
F5 O1 2.813334 1_555
F6 Xe2 2.088737 1_455
F6 O5 2.668720 1_555
F6 O2 2.813334 1_555
F7 Xe3 2.088737 1_555
F7 O4 2.668720 1_555
F7 O3 2.813334 1_555
F8 Xe0 2.072743 1_555
F8 O0 2.801834 1_455
F8 N3 2.889872 1_555
F9 Xe1 2.072743 1_555
F9 O1 2.801834 1_555
F9 N2 2.889872 1_455
F10 Xe2 2.072743 1_555
F10 F14 2.481995 1_555
F10 F6 2.538141 1_655
F10 O2 2.801834 1_655
F10 N1 2.889872 1_555
F11 Xe3 2.072743 1_555
F11 F15 2.481995 1_555
F11 F7 2.538141 1_555
F11 O3 2.801834 1_555
F11 N0 2.889872 1_655
F12 Xe0 2.172820 1_555
F12 N3 2.320295 1_545
F12 N1 2.464687 1_556
F12 F16 2.477974 1_555
F12 F8 2.481995 1_555
F12 F14 2.671448 1_546
F12 O0 2.864536 1_555
F12 O0 2.892663 1_455
F13 Xe1 2.172820 1_555
F13 N2 2.320295 1_445
F13 N0 2.464687 1_555
F13 F17 2.477974 1_555
F13 F9 2.481995 1_555
F13 F15 2.671448 1_445
F13 O1 2.864536 1_455
F13 O1 2.892663 1_555
F14 Xe2 2.172820 1_555
F14 N1 2.320295 1_565
F14 N3 2.464687 1_554
F14 F18 2.477974 1_555
F14 O2 2.864536 1_555
F14 O2 2.892663 1_655
F15 Xe3 2.172820 1_555
F15 N0 2.320295 1_665
F15 N2 2.464687 1_555
F15 F19 2.477974 1_555
F15 O3 2.864536 1_655
F15 O3 2.892663 1_555
F16 Xe0 2.139954 1_555
F16 N3 2.460378 1_545
F16 O4 2.605217 1_555
F16 O0 2.809197 1_455
F16 F7 2.858104 1_555
F17 Xe1 2.139954 1_555
F17 N2 2.460378 1_445
F17 O5 2.605217 1_555
F17 O1 2.809197 1_555
F17 F6 2.858104 1_555
F18 Xe2 2.139954 1_555
F18 N1 2.460378 1_565
F18 F2 2.516115 1_655
F18 O6 2.605217 1_555
F18 O2 2.809197 1_655
F18 F5 2.858104 1_555
F19 Xe3 2.139954 1_555
F19 N0 2.460378 1_665
F19 F3 2.516115 1_555
F19 O7 2.605217 1_555
F19 O3 2.809197 1_555
F19 F4 2.858104 1_555
