# generated using pymatgen
data_La5CuBi3
_symmetry_space_group_name_H-M   'P 1'
_cell_length_a   9.82389197
_cell_length_b   9.82389197
_cell_length_c   6.71670500
_cell_angle_alpha   90.00000000
_cell_angle_beta   90.00000000
_cell_angle_gamma   119.99999979
_symmetry_Int_Tables_number   1
_chemical_formula_structural   La5CuBi3
_chemical_formula_sum   'La10 Cu2 Bi6'
_cell_volume   561.37628597
_cell_formula_units_Z   2
loop_
 _symmetry_equiv_pos_site_id
 _symmetry_equiv_pos_as_xyz
  1  'x, y, z'
loop_
 _atom_site_type_symbol
 _atom_site_label
 _atom_site_symmetry_multiplicity
 _atom_site_fract_x
 _atom_site_fract_y
 _atom_site_fract_z
 _atom_site_occupancy
  La  La0  1  0.66666700  0.33333300  0.00000000  1
  La  La1  1  0.33333300  0.66666700  0.00000000  1
  La  La2  1  0.33333300  0.66666700  0.50000000  1
  La  La3  1  0.66666700  0.33333300  0.50000000  1
  La  La4  1  0.74063600  0.74063600  0.75000000  1
  La  La5  1  0.25936400  0.00000000  0.75000000  1
  La  La6  1  0.00000000  0.25936400  0.75000000  1
  La  La7  1  0.25936400  0.25936400  0.25000000  1
  La  La8  1  0.74063600  0.00000000  0.25000000  1
  La  La9  1  0.00000000  0.74063600  0.25000000  1
  Cu  Cu0  1  0.00000000  0.00000000  0.00000000  1
  Cu  Cu1  1  0.00000000  0.00000000  0.50000000  1
  Bi  Bi0  1  0.38454200  0.38454200  0.75000000  1
  Bi  Bi1  1  0.61545800  0.00000000  0.75000000  1
  Bi  Bi2  1  0.00000000  0.61545800  0.75000000  1
  Bi  Bi3  1  0.61545800  0.61545800  0.25000000  1
  Bi  Bi4  1  0.38454200  0.00000000  0.25000000  1
  Bi  Bi5  1  0.00000000  0.38454200  0.25000000  1
loop_
_geom_bond_atom_site_label_1
_geom_bond_atom_site_label_2
_geom_bond_distance
_geom_bond_site_symmetry_2
La0 La3 3.358353 1_554
La0 La3 3.358353 1_555
La0 La6 4.055910 1_654
La0 La8 4.055910 1_555
La0 La9 4.055916 1_655
La0 La5 4.055916 1_554
La0 La4 4.055919 1_554
La0 La7 4.055919 1_555
La1 La2 3.358353 1_555
La1 La2 3.358353 1_554
La1 La9 4.055910 1_555
La1 La5 4.055910 1_564
La1 La8 4.055916 1_565
La1 La6 4.055916 1_554
La1 La4 4.055919 1_554
La1 La7 4.055919 1_555
La2 La5 4.055910 1_565
La2 La9 4.055910 1_555
La2 La6 4.055916 1_555
La2 La8 4.055916 1_565
La2 La7 4.055919 1_555
La2 La4 4.055919 1_555
La3 La6 4.055910 1_655
La3 La8 4.055910 1_555
La3 La5 4.055916 1_555
La3 La9 4.055916 1_655
La3 La7 4.055919 1_555
La3 La4 4.055919 1_555
Cu0 La6 3.051517 1_554
Cu0 La5 3.051517 1_554
Cu0 La9 3.051517 1_545
Cu0 La8 3.051517 1_455
Cu0 La7 3.051517 1_555
Cu0 La4 3.051517 1_444
Cu0 Cu1 3.358353 1_554
Cu0 Cu1 3.358353 1_555
Cu1 La6 3.051517 1_555
Cu1 La5 3.051517 1_555
Cu1 La9 3.051517 1_545
Cu1 La8 3.051517 1_455
Cu1 La4 3.051517 1_445
Cu1 La7 3.051517 1_555
Bi0 La5 3.337318 1_555
Bi0 La6 3.337318 1_555
Bi0 La1 3.485482 1_556
Bi0 La2 3.485482 1_555
Bi0 La0 3.485482 1_556
Bi0 La3 3.485482 1_555
Bi0 La4 3.498229 1_555
Bi0 La7 3.576420 1_556
Bi0 La7 3.576420 1_555
Bi0 Bi3 4.052727 1_555
Bi0 Bi3 4.052727 1_556
Bi1 La4 3.337318 1_545
Bi1 La6 3.337318 1_655
Bi1 La3 3.485474 1_555
Bi1 La0 3.485474 1_556
Bi1 La1 3.485477 1_546
Bi1 La2 3.485477 1_545
Bi1 La5 3.498229 1_555
Bi1 La8 3.576420 1_556
Bi1 La8 3.576420 1_555
Bi1 Bi4 4.052727 1_555
Bi1 Bi4 4.052727 1_556
Bi2 La4 3.337318 1_455
Bi2 La5 3.337318 1_565
Bi2 La1 3.485474 1_556
Bi2 La2 3.485474 1_555
Bi2 La0 3.485477 1_456
Bi2 La3 3.485477 1_455
Bi2 La6 3.498229 1_555
Bi2 La9 3.576420 1_556
Bi2 La9 3.576420 1_555
Bi2 Bi5 4.052727 1_555
Bi2 Bi5 4.052727 1_556
Bi3 La8 3.337318 1_565
Bi3 La9 3.337318 1_655
Bi3 La3 3.485482 1_555
Bi3 La0 3.485482 1_555
Bi3 La2 3.485482 1_555
Bi3 La1 3.485482 1_555
Bi3 La7 3.498229 1_555
Bi3 La4 3.576420 1_554
Bi3 La4 3.576420 1_555
Bi4 La7 3.337318 1_555
Bi4 La9 3.337318 1_545
Bi4 La1 3.485474 1_545
Bi4 La2 3.485474 1_545
Bi4 La3 3.485477 1_555
Bi4 La0 3.485477 1_555
Bi4 La8 3.498229 1_555
Bi4 La5 3.576420 1_554
Bi4 La5 3.576420 1_555
Bi5 La7 3.337318 1_555
Bi5 La8 3.337318 1_455
Bi5 La0 3.485474 1_455
Bi5 La3 3.485474 1_455
Bi5 La1 3.485477 1_555
Bi5 La2 3.485477 1_555
Bi5 La9 3.498229 1_555
Bi5 La6 3.576420 1_554
Bi5 La6 3.576420 1_555
