# generated using pymatgen
data_SiH12C8(NO2)8
_symmetry_space_group_name_H-M   'P 1'
_cell_length_a   10.36769900
_cell_length_b   10.36769900
_cell_length_c   10.28286600
_cell_angle_alpha   90.00000000
_cell_angle_beta   90.00000000
_cell_angle_gamma   90.00000000
_symmetry_Int_Tables_number   1
_chemical_formula_structural   SiH12C8(NO2)8
_chemical_formula_sum   'Si2 H24 C16 N16 O32'
_cell_volume   1105.29686066
_cell_formula_units_Z   2
loop_
 _symmetry_equiv_pos_site_id
 _symmetry_equiv_pos_as_xyz
  1  'x, y, z'
loop_
 _atom_site_type_symbol
 _atom_site_label
 _atom_site_symmetry_multiplicity
 _atom_site_fract_x
 _atom_site_fract_y
 _atom_site_fract_z
 _atom_site_occupancy
  Si  Si0  1  0.50000000  0.50000000  0.50000000  1
  Si  Si1  1  0.00000000  0.00000000  0.00000000  1
  H  H0  1  0.32923100  0.45217700  0.33286900  1
  H  H1  1  0.82923100  0.04782300  0.16713100  1
  H  H2  1  0.67076900  0.54782300  0.33286900  1
  H  H3  1  0.17076900  0.95217700  0.16713100  1
  H  H4  1  0.54782300  0.32923100  0.66713100  1
  H  H5  1  0.95217700  0.82923100  0.83286900  1
  H  H6  1  0.45217700  0.67076900  0.66713100  1
  H  H7  1  0.04782300  0.17076900  0.83286900  1
  H  H8  1  0.37867500  0.61659700  0.32336300  1
  H  H9  1  0.87867500  0.88340300  0.17663700  1
  H  H10  1  0.62132500  0.38340300  0.32336300  1
  H  H11  1  0.12132500  0.11659700  0.17663700  1
  H  H12  1  0.38340300  0.37867500  0.67663700  1
  H  H13  1  0.11659700  0.87867500  0.82336300  1
  H  H14  1  0.61659700  0.62132500  0.67663700  1
  H  H15  1  0.88340300  0.12132500  0.82336300  1
  H  H16  1  0.08488000  0.65636700  0.60345300  1
  H  H17  1  0.58488000  0.84363300  0.89654700  1
  H  H18  1  0.91512000  0.34363300  0.60345300  1
  H  H19  1  0.41512000  0.15636700  0.89654700  1
  H  H20  1  0.34363300  0.08488000  0.39654700  1
  H  H21  1  0.15636700  0.58488000  0.10345300  1
  H  H22  1  0.65636700  0.91512000  0.39654700  1
  H  H23  1  0.84363300  0.41512000  0.10345300  1
  C  C0  1  0.35744600  0.53687400  0.39059300  1
  C  C1  1  0.85744600  0.96312600  0.10940700  1
  C  C2  1  0.64255400  0.46312600  0.39059300  1
  C  C3  1  0.14255400  0.03687400  0.10940700  1
  C  C4  1  0.46312600  0.35744600  0.60940700  1
  C  C5  1  0.03687400  0.85744600  0.89059300  1
  C  C6  1  0.53687400  0.64255400  0.60940700  1
  C  C7  1  0.96312600  0.14255400  0.89059300  1
  C  C8  1  0.14418700  0.61875800  0.41052200  1
  C  C9  1  0.64418700  0.88124200  0.08947800  1
  C  C10  1  0.85581300  0.38124200  0.41052200  1
  C  C11  1  0.35581300  0.11875800  0.08947800  1
  C  C12  1  0.38124200  0.14418700  0.58947800  1
  C  C13  1  0.11875800  0.64418700  0.91052200  1
  C  C14  1  0.61875800  0.85581300  0.58947800  1
  C  C15  1  0.88124200  0.35581300  0.91052200  1
  N  N0  1  0.94100700  0.71824900  0.48597700  1
  N  N1  1  0.44100700  0.78175100  0.01402300  1
  N  N2  1  0.05899300  0.28175100  0.48597700  1
  N  N3  1  0.55899300  0.21824900  0.01402300  1
  N  N4  1  0.28175100  0.94100700  0.51402300  1
  N  N5  1  0.21824900  0.44100700  0.98597700  1
  N  N6  1  0.71824900  0.05899300  0.51402300  1
  N  N7  1  0.78175100  0.55899300  0.98597700  1
  N  N8  1  0.05565700  0.65241800  0.50790100  1
  N  N9  1  0.55565700  0.84758200  0.99209900  1
  N  N10  1  0.94434300  0.34758200  0.50790100  1
  N  N11  1  0.44434300  0.15241800  0.99209900  1
  N  N12  1  0.34758200  0.05565700  0.49209900  1
  N  N13  1  0.15241800  0.55565700  0.00790100  1
  N  N14  1  0.65241800  0.94434300  0.49209900  1
  N  N15  1  0.84758200  0.44434300  0.00790100  1
  O  O0  1  0.24953000  0.57405700  0.47382200  1
  O  O1  1  0.74953000  0.92594300  0.02617800  1
  O  O2  1  0.75047000  0.42594300  0.47382200  1
  O  O3  1  0.25047000  0.07405700  0.02617800  1
  O  O4  1  0.42594300  0.24953000  0.52617800  1
  O  O5  1  0.07405700  0.74953000  0.97382200  1
  O  O6  1  0.57405700  0.75047000  0.52617800  1
  O  O7  1  0.92594300  0.25047000  0.97382200  1
  O  O8  1  0.12905800  0.62641100  0.29345900  1
  O  O9  1  0.62905800  0.87358900  0.20654100  1
  O  O10  1  0.87094200  0.37358900  0.29345900  1
  O  O11  1  0.37094200  0.12641100  0.20654100  1
  O  O12  1  0.37358900  0.12905800  0.70654100  1
  O  O13  1  0.12641100  0.62905800  0.79345900  1
  O  O14  1  0.62641100  0.87094200  0.70654100  1
  O  O15  1  0.87358900  0.37094200  0.79345900  1
  O  O16  1  0.89434800  0.71922100  0.37593400  1
  O  O17  1  0.39434800  0.78077900  0.12406600  1
  O  O18  1  0.10565200  0.28077900  0.37593400  1
  O  O19  1  0.60565200  0.21922100  0.12406600  1
  O  O20  1  0.28077900  0.89434800  0.62406600  1
  O  O21  1  0.21922100  0.39434800  0.87593400  1
  O  O22  1  0.71922100  0.10565200  0.62406600  1
  O  O23  1  0.78077900  0.60565200  0.87593400  1
  O  O24  1  0.89400000  0.76860400  0.58470500  1
  O  O25  1  0.39400000  0.73139600  0.91529500  1
  O  O26  1  0.10600000  0.23139600  0.58470500  1
  O  O27  1  0.60600000  0.26860400  0.91529500  1
  O  O28  1  0.23139600  0.89400000  0.41529500  1
  O  O29  1  0.26860400  0.39400000  0.08470500  1
  O  O30  1  0.76860400  0.10600000  0.41529500  1
  O  O31  1  0.73139600  0.60600000  0.08470500  1
loop_
_geom_bond_atom_site_label_1
_geom_bond_atom_site_label_2
_geom_bond_distance
_geom_bond_site_symmetry_2
H16 N8 1.029015 1_555
H17 N9 1.029015 1_555
H18 N10 1.029015 1_555
H19 N11 1.029015 1_555
H20 N12 1.029015 1_555
H21 N13 1.029015 1_555
H22 N14 1.029015 1_555
H23 N15 1.029015 1_555
C0 H0 1.099535 1_555
C0 H8 1.099789 1_555
C0 O0 1.460433 1_555
C0 Si0 1.896358 1_555
C1 H1 1.099535 1_565
C1 H9 1.099789 1_555
C1 O1 1.460433 1_555
C1 Si1 1.896358 1_665
C2 H2 1.099535 1_555
C2 H10 1.099789 1_555
C2 O2 1.460433 1_555
C2 Si0 1.896358 1_555
C3 H3 1.099535 1_545
C3 H11 1.099789 1_555
C3 O3 1.460433 1_555
C3 Si1 1.896358 1_555
C4 H4 1.099535 1_555
C4 H12 1.099789 1_555
C4 O4 1.460433 1_555
C4 Si0 1.896358 1_555
C5 H5 1.099535 1_455
C5 H13 1.099789 1_555
C5 O5 1.460433 1_555
C5 Si1 1.896358 1_566
C6 H6 1.099535 1_555
C6 H14 1.099789 1_555
C6 O6 1.460433 1_555
C6 Si0 1.896358 1_555
C7 H7 1.099535 1_655
C7 H15 1.099789 1_555
C7 O7 1.460433 1_555
C7 Si1 1.896358 1_656
C8 O8 1.216510 1_555
C8 O0 1.353249 1_555
C8 N8 1.402466 1_555
C9 O9 1.216510 1_555
C9 O1 1.353249 1_555
C9 N9 1.402466 1_554
C10 O10 1.216510 1_555
C10 O2 1.353249 1_555
C10 N10 1.402466 1_555
C11 O11 1.216510 1_555
C11 O3 1.353249 1_555
C11 N11 1.402466 1_554
C12 O12 1.216510 1_555
C12 O4 1.353249 1_555
C12 N12 1.402466 1_555
C13 O13 1.216510 1_555
C13 O5 1.353249 1_555
C13 N13 1.402466 1_556
C14 O14 1.216510 1_555
C14 O6 1.353249 1_555
C14 N14 1.402466 1_555
C15 O15 1.216510 1_555
C15 O7 1.353249 1_555
C15 N15 1.402466 1_556
N0 O16 1.230664 1_555
N0 O24 1.241254 1_555
N0 N8 1.389085 1_655
N1 O17 1.230664 1_555
N1 O25 1.241254 1_554
N1 N9 1.389085 1_554
N2 O18 1.230664 1_555
N2 O26 1.241254 1_555
N3 O19 1.230664 1_555
N3 O27 1.241254 1_554
N4 O20 1.230664 1_555
N4 O28 1.241254 1_555
N5 O21 1.230664 1_555
N5 O29 1.241254 1_556
N6 O22 1.230664 1_555
N6 O30 1.241254 1_555
N7 O23 1.230664 1_555
N7 O31 1.241254 1_556
N10 N2 1.389085 1_655
N11 N3 1.389085 1_556
N12 N4 1.389085 1_545
N13 N5 1.389085 1_554
N14 N6 1.389085 1_565
N15 N7 1.389085 1_554
