# generated using pymatgen
data_La16(Mo3O8)7
_symmetry_space_group_name_H-M   'P 1'
_cell_length_a   13.73438635
_cell_length_b   13.73116987
_cell_length_c   13.77346391
_cell_angle_alpha   90.00000000
_cell_angle_beta   100.14674827
_cell_angle_gamma   90.00000000
_symmetry_Int_Tables_number   1
_chemical_formula_structural   La16(Mo3O8)7
_chemical_formula_sum   'La32 Mo42 O112'
_cell_volume   2556.90051666
_cell_formula_units_Z   2
loop_
 _symmetry_equiv_pos_site_id
 _symmetry_equiv_pos_as_xyz
  1  'x, y, z'
loop_
 _atom_site_type_symbol
 _atom_site_label
 _atom_site_symmetry_multiplicity
 _atom_site_fract_x
 _atom_site_fract_y
 _atom_site_fract_z
 _atom_site_occupancy
  La  La0  1  0.21891086  0.61663961  0.63451571  1
  La  La1  1  0.28108914  0.11663961  0.36548429  1
  La  La2  1  0.78108914  0.38336039  0.36548429  1
  La  La3  1  0.71891086  0.88336039  0.63451571  1
  La  La4  1  0.22655386  0.80627876  0.86101000  1
  La  La5  1  0.27344614  0.30627876  0.13899000  1
  La  La6  1  0.77344614  0.19372124  0.13899000  1
  La  La7  1  0.72655386  0.69372124  0.86101000  1
  La  La8  1  0.42576919  0.81292190  0.67131014  1
  La  La9  1  0.07423081  0.31292190  0.32868986  1
  La  La10  1  0.57423081  0.18707810  0.32868986  1
  La  La11  1  0.92576919  0.68707810  0.67131014  1
  La  La12  1  0.45006243  0.60855659  0.88815390  1
  La  La13  1  0.04993757  0.10855659  0.11184610  1
  La  La14  1  0.54993757  0.39144341  0.11184610  1
  La  La15  1  0.95006243  0.89144341  0.88815390  1
  La  La16  1  0.85821492  0.66761241  0.35802448  1
  La  La17  1  0.64178508  0.16761241  0.64197552  1
  La  La18  1  0.14178508  0.33238759  0.64197552  1
  La  La19  1  0.35821492  0.83238759  0.35802448  1
  La  La20  1  0.36757502  0.59327312  0.15199798  1
  La  La21  1  0.13242498  0.09327312  0.84800202  1
  La  La22  1  0.63242498  0.40672688  0.84800202  1
  La  La23  1  0.86757502  0.90672688  0.15199798  1
  La  La24  1  0.36253801  0.32819880  0.87365831  1
  La  La25  1  0.13746199  0.82819880  0.12634169  1
  La  La26  1  0.63746199  0.67180120  0.12634169  1
  La  La27  1  0.86253801  0.17180120  0.87365831  1
  La  La28  1  0.14540608  0.62372146  0.32166381  1
  La  La29  1  0.35459392  0.12372146  0.67833619  1
  La  La30  1  0.85459392  0.37627854  0.67833619  1
  La  La31  1  0.64540608  0.87627854  0.32166381  1
  Mo  Mo0  1  0.28216271  0.42427753  0.47708521  1
  Mo  Mo1  1  0.21783729  0.92427753  0.52291479  1
  Mo  Mo2  1  0.71783729  0.57572247  0.52291479  1
  Mo  Mo3  1  0.78216271  0.07572247  0.47708521  1
  Mo  Mo4  1  0.07443730  0.78578655  0.48602706  1
  Mo  Mo5  1  0.42556270  0.28578655  0.51397294  1
  Mo  Mo6  1  0.92556270  0.21421345  0.51397294  1
  Mo  Mo7  1  0.57443730  0.71421345  0.48602706  1
  Mo  Mo8  1  0.43055546  0.43547408  0.64886348  1
  Mo  Mo9  1  0.06944454  0.93547408  0.35113652  1
  Mo  Mo10  1  0.56944454  0.56452592  0.35113652  1
  Mo  Mo11  1  0.93055546  0.06452592  0.64886348  1
  Mo  Mo12  1  0.58623221  0.59029905  0.64764406  1
  Mo  Mo13  1  0.91376779  0.09029905  0.35235594  1
  Mo  Mo14  1  0.41376779  0.40970095  0.35235594  1
  Mo  Mo15  1  0.08623221  0.90970095  0.64764406  1
  Mo  Mo16  1  0.57400571  0.43054564  0.51341061  1
  Mo  Mo17  1  0.92599429  0.93054564  0.48658939  1
  Mo  Mo18  1  0.42599429  0.56945436  0.48658939  1
  Mo  Mo19  1  0.07400571  0.06945436  0.51341061  1
  Mo  Mo20  1  0.21730699  0.49703505  0.95912380  1
  Mo  Mo21  1  0.28269301  0.99703505  0.04087620  1
  Mo  Mo22  1  0.78269301  0.50296495  0.04087620  1
  Mo  Mo23  1  0.71730699  0.00296495  0.95912380  1
  Mo  Mo24  1  0.07469039  0.50602468  0.79961972  1
  Mo  Mo25  1  0.42530961  0.00602468  0.20038028  1
  Mo  Mo26  1  0.92530961  0.49397532  0.20038028  1
  Mo  Mo27  1  0.57469039  0.99397532  0.79961972  1
  Mo  Mo28  1  0.93474678  0.64885200  0.07147620  1
  Mo  Mo29  1  0.56525322  0.14885200  0.92852380  1
  Mo  Mo30  1  0.06525322  0.35114800  0.92852380  1
  Mo  Mo31  1  0.43474678  0.85114800  0.07147620  1
  Mo  Mo32  1  0.08169493  0.64327506  0.94778173  1
  Mo  Mo33  1  0.41830507  0.14327506  0.05221827  1
  Mo  Mo34  1  0.91830507  0.35672494  0.05221827  1
  Mo  Mo35  1  0.58169493  0.85672494  0.94778173  1
  Mo  Mo36  1  0.07450174  0.48998123  0.08464051  1
  Mo  Mo37  1  0.42549826  0.98998123  0.91535949  1
  Mo  Mo38  1  0.92549826  0.51001877  0.91535949  1
  Mo  Mo39  1  0.57450174  0.01001877  0.08464051  1
  Mo  Mo40  1  -0.00000000  0.50000000  0.50000000  1
  Mo  Mo41  1  0.50000000  0.00000000  0.50000000  1
  O  O0  1  0.73486933  0.58924291  0.67007793  1
  O  O1  1  0.76513067  0.08924291  0.32992207  1
  O  O2  1  0.26513067  0.41075709  0.32992207  1
  O  O3  1  0.23486933  0.91075709  0.67007793  1
  O  O4  1  0.27678475  0.44102953  0.62532088  1
  O  O5  1  0.22321525  0.94102953  0.37467912  1
  O  O6  1  0.72321525  0.55897047  0.37467912  1
  O  O7  1  0.77678475  0.05897047  0.62532088  1
  O  O8  1  0.22790269  0.07330911  0.52990821  1
  O  O9  1  0.27209731  0.57330911  0.47009179  1
  O  O10  1  0.77209731  0.92669089  0.47009179  1
  O  O11  1  0.72790269  0.42669089  0.52990821  1
  O  O12  1  0.22431418  0.77588149  0.51153090  1
  O  O13  1  0.27568582  0.27588149  0.48846910  1
  O  O14  1  0.77568582  0.22411851  0.48846910  1
  O  O15  1  0.72431418  0.72411851  0.51153090  1
  O  O16  1  0.87667031  0.58186708  0.53847755  1
  O  O17  1  0.62332969  0.08186708  0.46152245  1
  O  O18  1  0.12332969  0.41813292  0.46152245  1
  O  O19  1  0.37667031  0.91813292  0.53847755  1
  O  O20  1  0.08651703  0.76203029  0.63629350  1
  O  O21  1  0.41348297  0.26203029  0.36370650  1
  O  O22  1  0.91348297  0.23796971  0.36370650  1
  O  O23  1  0.58651703  0.73796971  0.63629350  1
  O  O24  1  0.93411237  0.21619702  0.66092806  1
  O  O25  1  0.56588763  0.71619702  0.33907194  1
  O  O26  1  0.06588763  0.78380298  0.33907194  1
  O  O27  1  0.43411237  0.28380298  0.66092806  1
  O  O28  1  0.07264014  0.22106759  0.51560504  1
  O  O29  1  0.42735986  0.72106759  0.48439496  1
  O  O30  1  0.92735986  0.77893241  0.48439496  1
  O  O31  1  0.57264014  0.27893241  0.51560504  1
  O  O32  1  0.93199408  0.36656515  0.53505639  1
  O  O33  1  0.56800592  0.86656515  0.46494361  1
  O  O34  1  0.06800592  0.63343485  0.46494361  1
  O  O35  1  0.43199408  0.13343485  0.53505639  1
  O  O36  1  0.93055008  0.90676645  0.63767005  1
  O  O37  1  0.56944992  0.40676645  0.36232995  1
  O  O38  1  0.06944992  0.09323355  0.36232995  1
  O  O39  1  0.43055008  0.59323355  0.63767005  1
  O  O40  1  0.09035540  0.06258406  0.66740029  1
  O  O41  1  0.40964460  0.56258406  0.33259971  1
  O  O42  1  0.90964460  0.93741594  0.33259971  1
  O  O43  1  0.59035540  0.43741594  0.66740029  1
  O  O44  1  0.95131113  0.05163238  0.80152347  1
  O  O45  1  0.54868887  0.55163238  0.19847653  1
  O  O46  1  0.04868887  0.94836762  0.19847653  1
  O  O47  1  0.45131113  0.44836762  0.80152347  1
  O  O48  1  0.08934345  0.90510210  0.79676415  1
  O  O49  1  0.41065655  0.40510210  0.20323585  1
  O  O50  1  0.91065655  0.09489790  0.20323585  1
  O  O51  1  0.58934345  0.59489790  0.79676415  1
  O  O52  1  0.23787675  0.64026098  0.97123272  1
  O  O53  1  0.26212325  0.14026098  0.02876728  1
  O  O54  1  0.76212325  0.35973902  0.02876728  1
  O  O55  1  0.73787675  0.85973902  0.97123272  1
  O  O56  1  0.21858455  0.34564609  0.95757184  1
  O  O57  1  0.28141545  0.84564609  0.04242816  1
  O  O58  1  0.78141545  0.65435391  0.04242816  1
  O  O59  1  0.71858455  0.15435391  0.95757184  1
  O  O60  1  0.27223576  0.98174473  0.89057114  1
  O  O61  1  0.22776424  0.48174473  0.10942886  1
  O  O62  1  0.72776424  0.01825527  0.10942886  1
  O  O63  1  0.77223576  0.51825527  0.89057114  1
  O  O64  1  0.22351362  0.49104502  0.81410434  1
  O  O65  1  0.27648638  0.99104502  0.18589566  1
  O  O66  1  0.77648638  0.50895498  0.18589566  1
  O  O67  1  0.72351362  0.00895498  0.81410434  1
  O  O68  1  0.87925402  0.00419396  0.98812752  1
  O  O69  1  0.62074598  0.50419396  0.01187248  1
  O  O70  1  0.12074598  0.99580604  0.01187248  1
  O  O71  1  0.37925402  0.49580604  0.98812752  1
  O  O72  1  0.08162467  0.65473647  0.79743382  1
  O  O73  1  0.41837533  0.15473647  0.20256618  1
  O  O74  1  0.91837533  0.34526353  0.20256618  1
  O  O75  1  0.58162467  0.84526353  0.79743382  1
  O  O76  1  0.05197131  0.36191368  0.77343054  1
  O  O77  1  0.44802869  0.86191368  0.22656946  1
  O  O78  1  0.94802869  0.63808632  0.22656946  1
  O  O79  1  0.55197131  0.13808632  0.77343054  1
  O  O80  1  0.92423254  0.52355320  0.76153610  1
  O  O81  1  0.57576746  0.02355320  0.23846390  1
  O  O82  1  0.07576746  0.47644680  0.23846390  1
  O  O83  1  0.42423254  0.97644680  0.76153610  1
  O  O84  1  0.08247029  0.51437495  0.64627777  1
  O  O85  1  0.41752971  0.01437495  0.35372223  1
  O  O86  1  0.91752971  0.48562505  0.35372223  1
  O  O87  1  0.58247029  0.98562505  0.64627777  1
  O  O88  1  0.92237015  0.66286672  0.91424511  1
  O  O89  1  0.57762985  0.16286672  0.08575489  1
  O  O90  1  0.07762985  0.33713328  0.08575489  1
  O  O91  1  0.42237015  0.83713328  0.91424511  1
  O  O92  1  0.90663181  0.35684286  0.89287104  1
  O  O93  1  0.59336819  0.85684286  0.10712896  1
  O  O94  1  0.09336819  0.64315714  0.10712896  1
  O  O95  1  0.40663181  0.14315714  0.89287104  1
  O  O96  1  0.04704362  0.20304085  0.92553250  1
  O  O97  1  0.45295638  0.70304085  0.07446750  1
  O  O98  1  0.95295638  0.79695915  0.07446750  1
  O  O99  1  0.54704362  0.29695915  0.92553250  1
  O  O100  1  0.09187020  0.78899971  0.95461831  1
  O  O101  1  0.40812980  0.28899971  0.04538169  1
  O  O102  1  0.90812980  0.21100029  0.04538169  1
  O  O103  1  0.59187020  0.71100029  0.95461831  1
  O  O104  1  0.74543106  0.27424993  0.74679659  1
  O  O105  1  0.75456894  0.77424993  0.25320341  1
  O  O106  1  0.25456894  0.72575007  0.25320341  1
  O  O107  1  0.24543106  0.22575007  0.74679659  1
  O  O108  1  0.82362013  0.79125058  0.75634004  1
  O  O109  1  0.67637987  0.29125058  0.24365996  1
  O  O110  1  0.17637987  0.20874942  0.24365996  1
  O  O111  1  0.32362013  0.70874942  0.75634004  1
loop_
_geom_bond_atom_site_label_1
_geom_bond_atom_site_label_2
_geom_bond_distance
_geom_bond_site_symmetry_2
La0 O84 2.369943 1_555
La0 O111 2.373417 1_555
La0 O4 2.549085 1_555
La0 O9 2.568909 1_555
La0 O20 2.703373 1_555
La0 O12 2.774943 1_555
La0 O34 2.845738 1_555
La0 O39 2.917155 1_555
La0 O64 3.006908 1_555
La1 O85 2.369943 1_555
La1 O110 2.373417 1_555
La1 O5 2.549085 1_545
La1 O8 2.568909 1_555
La1 O21 2.703373 1_555
La1 O13 2.774943 1_555
La1 O35 2.845738 1_555
La1 O38 2.917155 1_555
La1 O65 3.006908 1_545
La2 O86 2.369943 1_555
La2 O109 2.373417 1_555
La2 O6 2.549085 1_555
La2 O11 2.568909 1_555
La2 O22 2.703373 1_555
La2 O14 2.774943 1_555
La2 O32 2.845738 1_555
La2 O37 2.917155 1_555
La2 O66 3.006908 1_555
La3 O87 2.369943 1_555
La3 O108 2.373417 1_555
La3 O7 2.549085 1_565
La3 O10 2.568909 1_555
La3 O23 2.703373 1_555
La3 O15 2.774943 1_555
La3 O33 2.845738 1_555
La3 O36 2.917155 1_555
La3 O67 3.006908 1_565
La4 O48 2.363929 1_555
La4 O100 2.445544 1_555
La4 O60 2.504875 1_555
La4 O111 2.515214 1_555
La4 O57 2.537785 1_556
La4 O91 2.693563 1_555
La4 O52 2.728083 1_555
La4 O72 2.905984 1_555
La4 O3 3.015427 1_555
La5 O49 2.363929 1_555
La5 O101 2.445544 1_555
La5 O61 2.504875 1_555
La5 O110 2.515214 1_555
La5 O56 2.537785 1_554
La5 O90 2.693563 1_555
La5 O53 2.728083 1_555
La5 O73 2.905984 1_555
La5 O2 3.015427 1_555
La6 O50 2.363929 1_555
La6 O102 2.445544 1_555
La6 O62 2.504875 1_555
La6 O109 2.515214 1_555
La6 O59 2.537785 1_554
La6 O89 2.693563 1_555
La6 O54 2.728083 1_555
La6 O74 2.905984 1_555
La6 O1 3.015427 1_555
La7 O51 2.363929 1_555
La7 O103 2.445544 1_555
La7 O63 2.504875 1_555
La7 O108 2.515214 1_555
La7 O58 2.537785 1_556
La7 O88 2.693563 1_555
La7 O55 2.728083 1_555
La7 O75 2.905984 1_555
La7 O0 3.015427 1_555
La8 O19 2.335470 1_555
La8 O111 2.442311 1_555
La8 O75 2.546926 1_555
La8 O23 2.557590 1_555
La8 O83 2.568232 1_555
La8 O29 2.870363 1_555
La8 O3 2.943405 1_555
La8 O39 3.054416 1_555
La9 O18 2.335470 1_555
La9 O110 2.442311 1_555
La9 O74 2.546926 1_455
La9 O22 2.557590 1_455
La9 O82 2.568232 1_555
La9 O28 2.870363 1_555
La9 O2 2.943405 1_555
La9 O38 3.054416 1_555
La10 O17 2.335470 1_555
La10 O109 2.442311 1_555
La10 O73 2.546926 1_555
La10 O21 2.557590 1_555
La10 O81 2.568232 1_555
La10 O31 2.870363 1_555
La10 O1 2.943405 1_555
La10 O37 3.054416 1_555
La11 O16 2.335470 1_555
La11 O108 2.442311 1_555
La11 O72 2.546926 1_655
La11 O20 2.557590 1_655
La11 O80 2.568232 1_555
La11 O30 2.870363 1_555
La11 O0 2.943405 1_555
La11 O36 3.054416 1_555
La12 O71 2.389686 1_555
La12 O103 2.445786 1_555
La12 O51 2.475354 1_555
La12 O47 2.503876 1_555
La12 O111 2.663422 1_555
La12 O97 2.869518 1_556
La12 O69 3.007530 1_556
La12 O91 3.189503 1_555
La13 O70 2.389686 1_545
La13 O102 2.445786 1_455
La13 O50 2.475354 1_455
La13 O46 2.503876 1_545
La13 O110 2.663422 1_555
La13 O96 2.869518 1_554
La13 O68 3.007530 1_454
La13 O90 3.189503 1_555
La14 O69 2.389686 1_555
La14 O101 2.445786 1_555
La14 O49 2.475354 1_555
La14 O45 2.503876 1_555
La14 O109 2.663422 1_555
La14 O99 2.869518 1_554
La14 O71 3.007530 1_554
La14 O89 3.189503 1_555
La15 O68 2.389686 1_565
La15 O100 2.445786 1_655
La15 O48 2.475354 1_655
La15 O44 2.503876 1_565
La15 O108 2.663422 1_555
La15 O98 2.869518 1_556
La15 O70 3.007530 1_656
La15 O88 3.189503 1_555
La16 O105 2.351750 1_555
La16 O30 2.384426 1_555
La16 O78 2.398156 1_555
La16 O6 2.421924 1_555
La16 O86 2.632238 1_555
La16 O16 2.721404 1_555
La16 O34 3.032500 1_655
La17 O104 2.351750 1_555
La17 O31 2.384426 1_555
La17 O79 2.398156 1_555
La17 O7 2.421924 1_555
La17 O87 2.632238 1_545
La17 O17 2.721404 1_555
La17 O35 3.032500 1_555
La18 O107 2.351750 1_555
La18 O28 2.384426 1_555
La18 O76 2.398156 1_555
La18 O4 2.421924 1_555
La18 O84 2.632238 1_555
La18 O18 2.721404 1_555
La18 O32 3.032500 1_455
La19 O106 2.351750 1_555
La19 O29 2.384426 1_555
La19 O77 2.398156 1_555
La19 O5 2.421924 1_555
La19 O85 2.632238 1_565
La19 O19 2.721404 1_555
La19 O33 3.032500 1_555
La20 O97 2.286580 1_555
La20 O61 2.445311 1_555
La20 O41 2.488519 1_555
La20 O45 2.522552 1_555
La20 O71 2.653069 1_554
La20 O49 2.716080 1_555
La20 O52 2.868043 1_554
La20 O106 2.902291 1_555
La21 O96 2.286580 1_555
La21 O60 2.445311 1_545
La21 O40 2.488519 1_555
La21 O44 2.522552 1_455
La21 O70 2.653069 1_546
La21 O48 2.716080 1_545
La21 O53 2.868043 1_556
La21 O107 2.902291 1_555
La22 O99 2.286580 1_555
La22 O63 2.445311 1_555
La22 O43 2.488519 1_555
La22 O47 2.522552 1_555
La22 O69 2.653069 1_556
La22 O51 2.716080 1_555
La22 O54 2.868043 1_556
La22 O104 2.902291 1_555
La23 O98 2.286580 1_555
La23 O62 2.445311 1_565
La23 O42 2.488519 1_555
La23 O46 2.522552 1_655
La23 O68 2.653069 1_564
La23 O50 2.716080 1_565
La23 O55 2.868043 1_554
La23 O105 2.902291 1_555
La24 O47 2.371329 1_555
La24 O101 2.398806 1_556
La24 O56 2.471301 1_555
La24 O99 2.545207 1_555
La24 O107 2.574642 1_555
La24 O95 2.614608 1_555
La24 O71 2.776256 1_555
La24 O64 2.960888 1_555
La24 O27 3.307250 1_555
La25 O46 2.371329 1_555
La25 O100 2.398806 1_554
La25 O57 2.471301 1_555
La25 O98 2.545207 1_455
La25 O106 2.574642 1_555
La25 O94 2.614608 1_555
La25 O70 2.776256 1_555
La25 O65 2.960888 1_555
La25 O26 3.307250 1_555
La26 O45 2.371329 1_555
La26 O103 2.398806 1_554
La26 O58 2.471301 1_555
La26 O97 2.545207 1_555
La26 O105 2.574642 1_555
La26 O93 2.614608 1_555
La26 O69 2.776256 1_555
La26 O66 2.960888 1_555
La26 O25 3.307250 1_555
La27 O44 2.371329 1_555
La27 O102 2.398806 1_556
La27 O59 2.471301 1_555
La27 O96 2.545207 1_655
La27 O104 2.574642 1_555
La27 O92 2.614608 1_555
La27 O68 2.776256 1_555
La27 O67 2.960888 1_555
La27 O24 3.307250 1_555
La28 O106 2.365972 1_555
La28 O34 2.404487 1_555
La28 O82 2.435430 1_555
La28 O26 2.484792 1_555
La28 O9 2.536323 1_555
La28 O78 2.802168 1_455
La28 O94 2.927335 1_555
La29 O107 2.365972 1_555
La29 O35 2.404487 1_555
La29 O83 2.435430 1_545
La29 O27 2.484792 1_555
La29 O8 2.536323 1_555
La29 O79 2.802168 1_555
La29 O95 2.927335 1_555
La30 O104 2.365972 1_555
La30 O32 2.404487 1_555
La30 O80 2.435430 1_555
La30 O24 2.484792 1_555
La30 O11 2.536323 1_555
La30 O76 2.802168 1_655
La30 O92 2.927335 1_555
La31 O105 2.365972 1_555
La31 O33 2.404487 1_555
La31 O81 2.435430 1_565
La31 O25 2.484792 1_555
La31 O10 2.536323 1_555
La31 O77 2.802168 1_555
La31 O93 2.927335 1_555
Mo0 O2 2.007644 1_555
Mo0 O13 2.046811 1_555
Mo0 O9 2.052160 1_555
Mo0 O4 2.068844 1_555
Mo0 O18 2.155722 1_555
Mo0 Mo14 2.711574 1_555
Mo0 Mo5 2.720439 1_555
Mo0 Mo18 2.793244 1_555
Mo1 O3 2.007644 1_555
Mo1 O12 2.046811 1_555
Mo1 O8 2.052160 1_565
Mo1 O5 2.068844 1_555
Mo1 O19 2.155722 1_555
Mo1 Mo15 2.711574 1_555
Mo1 Mo4 2.720439 1_555
Mo1 Mo19 2.793244 1_565
Mo2 O0 2.007644 1_555
Mo2 O15 2.046811 1_555
Mo2 O11 2.052160 1_555
Mo2 O6 2.068844 1_555
Mo2 O16 2.155722 1_555
Mo2 Mo7 2.720439 1_555
Mo3 O1 2.007644 1_555
Mo3 O14 2.046811 1_555
Mo3 O10 2.052160 1_545
Mo3 O7 2.068844 1_555
Mo3 O17 2.155722 1_555
Mo3 Mo6 2.720439 1_555
Mo4 O26 2.006911 1_555
Mo4 O30 2.018375 1_455
Mo4 O12 2.030863 1_555
Mo4 O20 2.072815 1_555
Mo4 O34 2.111734 1_555
Mo4 Mo9 2.763377 1_555
Mo5 O27 2.006911 1_555
Mo5 O31 2.018375 1_555
Mo5 O13 2.030863 1_555
Mo5 O21 2.072815 1_555
Mo5 O35 2.111734 1_555
Mo5 Mo8 2.763377 1_555
Mo6 O24 2.006911 1_555
Mo6 O28 2.018375 1_655
Mo6 O14 2.030863 1_555
Mo6 O22 2.072815 1_555
Mo6 O32 2.111734 1_555
Mo7 O25 2.006911 1_555
Mo7 O29 2.018375 1_555
Mo7 O15 2.030863 1_555
Mo7 O23 2.072815 1_555
Mo7 O33 2.111734 1_555
Mo8 O47 2.079082 1_555
Mo8 O4 2.080863 1_555
Mo8 O27 2.089127 1_555
Mo8 O43 2.164580 1_555
Mo8 O39 2.171701 1_555
Mo9 O46 2.079082 1_555
Mo9 O5 2.080863 1_555
Mo9 O26 2.089127 1_555
Mo9 O42 2.164580 1_455
Mo9 O38 2.171701 1_565
Mo10 O45 2.079082 1_555
Mo10 O6 2.080863 1_555
Mo10 O25 2.089127 1_555
Mo10 O41 2.164580 1_555
Mo10 O37 2.171701 1_555
Mo10 Mo7 2.763377 1_555
Mo11 O44 2.079082 1_555
Mo11 O7 2.080863 1_555
Mo11 O24 2.089127 1_555
Mo11 O40 2.164580 1_655
Mo11 O36 2.171701 1_545
Mo11 Mo6 2.763377 1_555
Mo12 O0 2.010202 1_555
Mo12 O23 2.033766 1_555
Mo12 O51 2.047778 1_555
Mo12 O43 2.116301 1_555
Mo12 O39 2.118701 1_555
Mo12 Mo2 2.711574 1_555
Mo13 O1 2.010202 1_555
Mo13 O22 2.033766 1_555
Mo13 O50 2.047778 1_555
Mo13 O42 2.116301 1_545
Mo13 O38 2.118701 1_655
Mo13 Mo3 2.711574 1_555
Mo14 O2 2.010202 1_555
Mo14 O21 2.033766 1_555
Mo14 O49 2.047778 1_555
Mo14 O41 2.116301 1_555
Mo14 O37 2.118701 1_555
Mo15 O3 2.010202 1_555
Mo15 O20 2.033766 1_555
Mo15 O48 2.047778 1_555
Mo15 O40 2.116301 1_565
Mo15 O36 2.118701 1_455
Mo16 O31 2.082179 1_555
Mo16 O11 2.086350 1_555
Mo16 O43 2.095241 1_555
Mo16 O37 2.096381 1_555
Mo16 Mo18 2.764495 1_555
Mo16 Mo2 2.793244 1_555
Mo17 O30 2.082179 1_555
Mo17 O10 2.086350 1_555
Mo17 O42 2.095241 1_555
Mo17 O36 2.096381 1_555
Mo17 Mo19 2.764495 1_665
Mo17 Mo3 2.793244 1_565
Mo18 O29 2.082179 1_555
Mo18 O9 2.086350 1_555
Mo18 O41 2.095241 1_555
Mo18 O39 2.096381 1_555
Mo19 O28 2.082179 1_555
Mo19 O8 2.086350 1_555
Mo19 O40 2.095241 1_555
Mo19 O38 2.096381 1_555
Mo20 O52 1.989668 1_555
Mo20 O64 2.015865 1_555
Mo20 O61 2.060525 1_556
Mo20 O56 2.078963 1_555
Mo20 O71 2.189534 1_555
Mo20 Mo24 2.676232 1_555
Mo20 Mo32 2.724559 1_555
Mo20 Mo36 2.835436 1_556
Mo20 Mo30 2.870817 1_555
Mo21 O53 1.989668 1_565
Mo21 O65 2.015865 1_555
Mo21 O60 2.060525 1_554
Mo21 O57 2.078963 1_555
Mo21 O70 2.189534 1_555
Mo21 Mo25 2.676232 1_565
Mo21 Mo33 2.724559 1_565
Mo21 Mo37 2.835436 1_554
Mo21 Mo31 2.870817 1_555
Mo22 O54 1.989668 1_555
Mo22 O66 2.015865 1_555
Mo22 O63 2.060525 1_554
Mo22 O58 2.078963 1_555
Mo22 O69 2.189534 1_555
Mo22 Mo26 2.676232 1_555
Mo22 Mo34 2.724559 1_555
Mo22 Mo38 2.835436 1_554
Mo22 Mo28 2.870817 1_555
Mo23 O55 1.989668 1_545
Mo23 O67 2.015865 1_555
Mo23 O62 2.060525 1_556
Mo23 O59 2.078963 1_555
Mo23 O68 2.189534 1_555
Mo23 Mo27 2.676232 1_545
Mo23 Mo35 2.724559 1_545
Mo23 Mo39 2.835436 1_556
Mo23 Mo29 2.870817 1_555
Mo24 O76 2.025715 1_555
Mo24 O64 2.028879 1_555
Mo24 O72 2.044675 1_555
Mo24 O80 2.054595 1_455
Mo24 O84 2.136547 1_555
Mo24 Mo32 2.767003 1_555
Mo24 Mo30 2.787959 1_555
Mo24 Mo38 2.809600 1_455
Mo25 O77 2.025715 1_545
Mo25 O65 2.028879 1_545
Mo25 O73 2.044675 1_555
Mo25 O81 2.054595 1_555
Mo25 O85 2.136547 1_555
Mo25 Mo33 2.767003 1_555
Mo25 Mo31 2.787959 1_545
Mo25 Mo39 2.809600 1_555
Mo26 O78 2.025715 1_555
Mo26 O66 2.028879 1_555
Mo26 O74 2.044675 1_555
Mo26 O82 2.054595 1_655
Mo26 O86 2.136547 1_555
Mo26 Mo34 2.767003 1_555
Mo26 Mo28 2.787959 1_555
Mo26 Mo36 2.809600 1_655
Mo27 O79 2.025715 1_565
Mo27 O67 2.028879 1_565
Mo27 O75 2.044675 1_555
Mo27 O83 2.054595 1_555
Mo27 O87 2.136547 1_555
Mo27 Mo35 2.767003 1_555
Mo27 Mo29 2.787959 1_565
Mo27 Mo37 2.809600 1_555
Mo28 O98 2.048533 1_555
Mo28 O58 2.074555 1_555
Mo28 O78 2.116851 1_555
Mo28 O94 2.148599 1_655
Mo28 O88 2.150841 1_554
Mo28 Mo38 2.859667 1_554
Mo28 Mo36 2.890224 1_655
Mo29 O99 2.048533 1_555
Mo29 O59 2.074555 1_555
Mo29 O79 2.116851 1_555
Mo29 O95 2.148599 1_555
Mo29 O89 2.150841 1_556
Mo29 Mo39 2.859667 1_556
Mo29 Mo37 2.890224 1_545
Mo30 O96 2.048533 1_555
Mo30 O56 2.074555 1_555
Mo30 O76 2.116851 1_555
Mo30 O92 2.148599 1_455
Mo30 O90 2.150841 1_556
Mo30 Mo36 2.859667 1_556
Mo30 Mo38 2.890224 1_455
Mo31 O97 2.048533 1_555
Mo31 O57 2.074555 1_555
Mo31 O77 2.116851 1_555
Mo31 O93 2.148599 1_555
Mo31 O91 2.150841 1_554
Mo31 Mo37 2.859667 1_554
Mo31 Mo39 2.890224 1_565
Mo32 O100 2.006898 1_555
Mo32 O72 2.076614 1_555
Mo32 O52 2.112631 1_555
Mo32 O88 2.172082 1_455
Mo32 O94 2.172260 1_556
Mo32 Mo38 2.795010 1_455
Mo32 Mo36 2.838890 1_556
Mo33 O101 2.006898 1_555
Mo33 O73 2.076614 1_555
Mo33 O53 2.112631 1_555
Mo33 O89 2.172082 1_555
Mo33 O95 2.172260 1_554
Mo33 Mo39 2.795010 1_555
Mo33 Mo37 2.838890 1_544
Mo34 O102 2.006898 1_555
Mo34 O74 2.076614 1_555
Mo34 O54 2.112631 1_555
Mo34 O90 2.172082 1_655
Mo34 O92 2.172260 1_554
Mo34 Mo36 2.795010 1_655
Mo34 Mo38 2.838890 1_554
Mo35 O103 2.006898 1_555
Mo35 O75 2.076614 1_555
Mo35 O55 2.112631 1_555
Mo35 O91 2.172082 1_555
Mo35 O93 2.172260 1_556
Mo35 Mo37 2.795010 1_555
Mo35 Mo39 2.838890 1_566
Mo36 O61 2.075337 1_555
Mo36 O90 2.099222 1_555
Mo36 O82 2.123834 1_555
Mo36 O94 2.135090 1_555
Mo36 Mo38 2.831756 1_454
Mo37 O60 2.075337 1_555
Mo37 O91 2.099222 1_555
Mo37 O83 2.123834 1_555
Mo37 O95 2.135090 1_565
Mo37 Mo39 2.831756 1_566
Mo38 O63 2.075337 1_555
Mo38 O88 2.099222 1_555
Mo38 O80 2.123834 1_555
Mo38 O92 2.135090 1_555
Mo39 O62 2.075337 1_555
Mo39 O89 2.099222 1_555
Mo39 O81 2.123834 1_555
Mo39 O93 2.135090 1_545
Mo40 O86 2.139412 1_455
Mo40 O84 2.139412 1_555
Mo40 O34 2.149757 1_555
Mo40 O32 2.149757 1_455
Mo40 O16 2.174853 1_455
Mo40 O18 2.174853 1_555
Mo41 O85 2.139412 1_555
Mo41 O87 2.139412 1_545
Mo41 O33 2.149757 1_545
Mo41 O35 2.149757 1_555
Mo41 O19 2.174853 1_545
Mo41 O17 2.174853 1_555
O0 O80 2.830228 1_555
O0 O15 2.847474 1_555
O0 O23 2.864357 1_555
O0 O43 2.874243 1_555
O0 O108 3.175084 1_555
O1 O81 2.830228 1_555
O1 O14 2.847474 1_555
O1 O22 2.864357 1_555
O1 O42 2.874243 1_545
O1 O109 3.175084 1_555
O2 O82 2.830228 1_555
O2 O21 2.864357 1_555
O2 O41 2.874243 1_555
O3 O83 2.830228 1_555
O3 O40 2.874243 1_565
O4 O64 2.904878 1_555
O4 O84 2.914012 1_555
O5 O65 2.904878 1_555
O5 O85 2.914012 1_565
O6 O66 2.904878 1_555
O6 O86 2.914012 1_555
O7 O87 2.914012 1_545
O10 O42 2.904695 1_555
O10 O33 2.910981 1_555
O10 O17 2.940043 1_565
O11 O43 2.904695 1_555
O11 O32 2.910981 1_555
O11 O16 2.940043 1_555
O12 O20 2.777909 1_555
O12 O19 2.838669 1_555
O12 O3 2.847474 1_555
O13 O21 2.777909 1_555
O13 O18 2.838669 1_555
O13 O2 2.847474 1_555
O14 O22 2.777909 1_555
O14 O17 2.838669 1_555
O15 O23 2.777909 1_555
O15 O16 2.838669 1_555
O16 O6 2.820529 1_555
O16 O30 2.923078 1_555
O17 O7 2.820529 1_555
O17 O31 2.923078 1_555
O18 O4 2.820529 1_555
O18 O28 2.923078 1_555
O18 O9 2.940043 1_555
O19 O5 2.820529 1_555
O19 O29 2.923078 1_555
O19 O8 2.940043 1_565
O20 O72 2.674619 1_555
O20 O30 2.756437 1_455
O20 O3 2.864357 1_555
O21 O73 2.674619 1_555
O21 O31 2.756437 1_555
O22 O74 2.674619 1_555
O22 O28 2.756437 1_655
O23 O75 2.674619 1_555
O23 O29 2.756437 1_555
O24 O32 2.692928 1_555
O24 O76 2.853249 1_655
O25 O33 2.692928 1_555
O25 O77 2.853249 1_555
O26 O34 2.692928 1_555
O26 O78 2.853249 1_455
O27 O35 2.692928 1_555
O27 O79 2.853249 1_555
O28 O38 2.739947 1_555
O28 O32 2.824349 1_455
O29 O39 2.739947 1_555
O29 O33 2.824349 1_555
O30 O36 2.739947 1_555
O30 O34 2.824349 1_655
O31 O37 2.739947 1_555
O31 O35 2.824349 1_555
O34 O9 2.910981 1_555
O35 O8 2.910981 1_555
O36 O48 2.806213 1_655
O37 O49 2.806213 1_555
O38 O50 2.806213 1_455
O39 O51 2.806213 1_555
O40 O8 2.904695 1_555
O41 O9 2.904695 1_555
O44 O48 2.773152 1_645
O44 O96 2.859577 1_655
O44 O68 2.984257 1_555
O45 O49 2.773152 1_555
O45 O97 2.859577 1_555
O45 O69 2.984257 1_555
O46 O50 2.773152 1_465
O46 O98 2.859577 1_455
O46 O70 2.984257 1_555
O47 O51 2.773152 1_555
O47 O99 2.859577 1_555
O47 O71 2.984257 1_555
O48 O60 2.818351 1_555
O49 O61 2.818351 1_555
O50 O62 2.818351 1_555
O51 O63 2.818351 1_555
O52 O71 2.756751 1_555
O52 O94 2.958577 1_556
O53 O70 2.756751 1_545
O53 O95 2.958577 1_554
O54 O69 2.756751 1_555
O54 O92 2.958577 1_554
O55 O68 2.756751 1_565
O55 O93 2.958577 1_556
O56 O64 2.818239 1_555
O56 O90 2.843031 1_556
O57 O65 2.818239 1_555
O57 O91 2.843031 1_554
O58 O66 2.818239 1_555
O58 O88 2.843031 1_554
O59 O67 2.818239 1_555
O59 O89 2.843031 1_556
O60 O91 2.839758 1_555
O60 O95 2.880955 1_565
O60 O70 2.895241 1_556
O61 O90 2.839758 1_555
O61 O94 2.880955 1_555
O61 O71 2.895241 1_554
O62 O89 2.839758 1_555
O62 O93 2.880955 1_545
O62 O68 2.895241 1_554
O63 O88 2.839758 1_555
O63 O92 2.880955 1_555
O63 O69 2.895241 1_556
O64 O84 2.760564 1_555
O64 O71 2.918611 1_555
O65 O85 2.760564 1_565
O65 O70 2.918611 1_555
O66 O86 2.760564 1_555
O66 O69 2.918611 1_555
O67 O87 2.760564 1_545
O67 O7 2.904878 1_555
O67 O68 2.918611 1_555
O72 O80 2.790240 1_455
O72 O84 2.838614 1_555
O72 O88 2.936842 1_455
O73 O81 2.790240 1_555
O73 O85 2.838614 1_555
O73 O89 2.936842 1_555
O74 O82 2.790240 1_655
O74 O86 2.838614 1_555
O74 O90 2.936842 1_655
O75 O83 2.790240 1_555
O75 O87 2.838614 1_555
O75 O91 2.936842 1_555
O76 O92 2.802300 1_455
O76 O84 2.807799 1_555
O76 O80 2.815975 1_455
O77 O93 2.802300 1_555
O77 O85 2.807799 1_565
O77 O81 2.815975 1_565
O78 O94 2.802300 1_655
O78 O86 2.807799 1_555
O78 O82 2.815975 1_655
O79 O95 2.802300 1_555
O79 O87 2.807799 1_545
O79 O83 2.815975 1_545
O80 O88 2.846567 1_555
O80 O84 2.911169 1_655
O81 O89 2.846567 1_555
O81 O85 2.911169 1_555
O82 O90 2.846567 1_555
O82 O86 2.911169 1_455
O83 O91 2.846567 1_555
O83 O87 2.911169 1_555
O88 O98 2.847817 1_556
O89 O99 2.847817 1_554
O90 O96 2.847817 1_554
O91 O97 2.847817 1_556
O100 O48 2.691338 1_555
O100 O98 2.736169 1_456
O100 O57 2.781280 1_556
O100 O72 2.828146 1_555
O100 O88 2.876153 1_455
O100 O70 2.955134 1_556
O101 O49 2.691338 1_555
O101 O99 2.736169 1_554
O101 O56 2.781280 1_554
O101 O73 2.828146 1_555
O101 O89 2.876153 1_555
O101 O71 2.955134 1_554
O102 O50 2.691338 1_555
O102 O96 2.736169 1_654
O102 O59 2.781280 1_554
O102 O74 2.828146 1_555
O102 O90 2.876153 1_655
O102 O68 2.955134 1_554
O103 O51 2.691338 1_555
O103 O97 2.736169 1_556
O103 O58 2.781280 1_556
O103 O75 2.828146 1_555
O103 O91 2.876153 1_555
O103 O69 2.955134 1_556
O104 O92 2.943877 1_555
O104 O43 3.151386 1_555
O105 O93 2.943877 1_555
O105 O42 3.151386 1_555
O106 O94 2.943877 1_555
O106 O41 3.151386 1_555
O107 O95 2.943877 1_555
O107 O40 3.151386 1_555
O108 O36 2.861839 1_555
O108 O88 2.939051 1_555
O109 O37 2.861839 1_555
O109 O89 2.939051 1_555
O110 O38 2.861839 1_555
O110 O90 2.939051 1_555
O110 O2 3.175084 1_555
O111 O39 2.861839 1_555
O111 O91 2.939051 1_555
O111 O3 3.175084 1_555
