# generated using pymatgen
data_CaCo(PO3)4
_symmetry_space_group_name_H-M   'P 1'
_cell_length_a   7.53119165
_cell_length_b   7.53119165
_cell_length_c   10.22242375
_cell_angle_alpha   67.58175190
_cell_angle_beta   67.58175190
_cell_angle_gamma   71.18035904
_symmetry_Int_Tables_number   1
_chemical_formula_structural   CaCo(PO3)4
_chemical_formula_sum   'Ca2 Co2 P8 O24'
_cell_volume   484.71476509
_cell_formula_units_Z   2
loop_
 _symmetry_equiv_pos_site_id
 _symmetry_equiv_pos_as_xyz
  1  'x, y, z'
loop_
 _atom_site_type_symbol
 _atom_site_label
 _atom_site_symmetry_multiplicity
 _atom_site_fract_x
 _atom_site_fract_y
 _atom_site_fract_z
 _atom_site_occupancy
  Ca  Ca0  1  0.95289000  0.04711000  0.75000000  1
  Ca  Ca1  1  0.04711000  0.95289000  0.25000000  1
  Co  Co0  1  0.00000000  0.50000000  0.50000000  1
  Co  Co1  1  0.50000000  0.00000000  0.00000000  1
  P  P0  1  0.69613100  0.68241700  0.80476600  1
  P  P1  1  0.31758300  0.30386900  0.69523400  1
  P  P2  1  0.30386900  0.31758300  0.19523400  1
  P  P3  1  0.68241700  0.69613100  0.30476600  1
  P  P4  1  0.72631000  0.28139000  0.02452400  1
  P  P5  1  0.71861000  0.27369000  0.47547600  1
  P  P6  1  0.27369000  0.71861000  0.97547600  1
  P  P7  1  0.28139000  0.72631000  0.52452400  1
  O  O0  1  0.46824300  0.67919400  0.84324200  1
  O  O1  1  0.32080600  0.53175700  0.65675800  1
  O  O2  1  0.53175700  0.32080600  0.15675800  1
  O  O3  1  0.67919400  0.46824300  0.34324200  1
  O  O4  1  0.76783600  0.49783400  0.93291700  1
  O  O5  1  0.50216600  0.23216400  0.56708300  1
  O  O6  1  0.23216400  0.50216600  0.06708300  1
  O  O7  1  0.49783400  0.76783600  0.43291700  1
  O  O8  1  0.80481600  0.65158200  0.65683000  1
  O  O9  1  0.34841800  0.19518400  0.84317000  1
  O  O10  1  0.19518400  0.34841800  0.34317000  1
  O  O11  1  0.65158200  0.80481600  0.15683000  1
  O  O12  1  0.70522900  0.86413200  0.83114900  1
  O  O13  1  0.13586800  0.29477100  0.66885100  1
  O  O14  1  0.29477100  0.13586800  0.16885100  1
  O  O15  1  0.86413200  0.70522900  0.33114900  1
  O  O16  1  0.68501500  0.19591200  0.92854600  1
  O  O17  1  0.80408800  0.31498600  0.57145400  1
  O  O18  1  0.31498600  0.80408800  0.07145400  1
  O  O19  1  0.19591200  0.68501400  0.42854600  1
  O  O20  1  0.89100700  0.17026500  0.08801700  1
  O  O21  1  0.82973500  0.10899300  0.41198300  1
  O  O22  1  0.10899300  0.82973500  0.91198300  1
  O  O23  1  0.17026500  0.89100700  0.58801700  1
loop_
_geom_bond_atom_site_label_1
_geom_bond_atom_site_label_2
_geom_bond_distance
_geom_bond_site_symmetry_2
Ca0 O22 2.231488 1_645
Ca0 O23 2.231488 1_645
Ca0 O13 2.381662 1_655
Ca0 O12 2.381662 1_545
Ca0 O16 2.439275 1_555
Ca0 O17 2.439278 1_555
Ca1 O21 2.231488 1_465
Ca1 O20 2.231488 1_465
Ca1 O14 2.381662 1_565
Ca1 O15 2.381662 1_455
Ca1 O19 2.439278 1_555
Ca1 O18 2.439278 1_555
Co0 O19 2.092867 1_555
Co0 O17 2.092867 1_455
Co0 O10 2.133078 1_555
Co0 O8 2.133078 1_455
Co0 O13 2.169604 1_555
Co0 O15 2.169604 1_455
Co1 O18 2.092867 1_545
Co1 O16 2.092873 1_554
Co1 O9 2.133078 1_554
Co1 O11 2.133078 1_545
Co1 O14 2.169604 1_555
Co1 O12 2.169604 1_544
O0 P6 1.605297 1_555
O0 P0 1.614183 1_555
O1 P7 1.605297 1_555
O1 P1 1.614183 1_555
O2 P4 1.605297 1_555
O2 P2 1.614183 1_555
O3 P5 1.605297 1_555
O3 P3 1.614183 1_555
O4 P4 1.604101 1_556
O4 P0 1.614457 1_555
O5 P5 1.604101 1_555
O5 P1 1.614457 1_555
O6 P6 1.604101 1_554
O6 P2 1.614457 1_555
O7 P7 1.604101 1_555
O7 P3 1.614457 1_555
O8 P0 1.487263 1_555
O9 P1 1.487263 1_555
O10 P2 1.487263 1_555
O11 P3 1.487263 1_555
O12 P0 1.518689 1_555
O13 P1 1.518689 1_555
O14 P2 1.518689 1_555
O15 P3 1.518689 1_555
O16 P4 1.522298 1_556
O17 P5 1.522303 1_555
O18 P6 1.522303 1_554
O19 P7 1.522303 1_555
O20 P4 1.479924 1_555
O21 P5 1.479924 1_555
O22 P6 1.479924 1_555
O23 P7 1.479924 1_555
