# generated using pymatgen
data_Sr2ScNbO6
_symmetry_space_group_name_H-M   'P 1'
_cell_length_a   5.76486500
_cell_length_b   5.76668400
_cell_length_c   9.98083733
_cell_angle_alpha   54.62965178
_cell_angle_beta   90.00000000
_cell_angle_gamma   90.00000000
_symmetry_Int_Tables_number   1
_chemical_formula_structural   Sr2ScNbO6
_chemical_formula_sum   'Sr4 Sc2 Nb2 O12'
_cell_volume   270.56250687
_cell_formula_units_Z   2
loop_
 _symmetry_equiv_pos_site_id
 _symmetry_equiv_pos_as_xyz
  1  'x, y, z'
loop_
 _atom_site_type_symbol
 _atom_site_label
 _atom_site_symmetry_multiplicity
 _atom_site_fract_x
 _atom_site_fract_y
 _atom_site_fract_z
 _atom_site_occupancy
  Sr  Sr0  1  0.48400500  0.75308100  0.25024000  1
  Sr  Sr1  1  0.51599500  0.24691900  0.74976000  1
  Sr  Sr2  1  0.98400500  0.24691900  0.24976000  1
  Sr  Sr3  1  0.01599500  0.75308100  0.75024000  1
  Sc  Sc0  1  0.00000000  0.00000000  0.00000000  1
  Sc  Sc1  1  0.50000000  0.00000000  0.50000000  1
  Nb  Nb0  1  0.00000000  0.50000000  0.50000000  1
  Nb  Nb1  1  0.50000000  0.50000000  0.00000000  1
  O  O0  1  0.71971600  0.20050300  0.03089200  1
  O  O1  1  0.28028400  0.79949700  0.96910800  1
  O  O2  1  0.21971600  0.79949700  0.46910800  1
  O  O3  1  0.78028400  0.20050300  0.53089200  1
  O  O4  1  0.00891400  0.68427700  0.25598200  1
  O  O5  1  0.99108600  0.31572300  0.74401800  1
  O  O6  1  0.50891400  0.31572300  0.24401800  1
  O  O7  1  0.49108600  0.68427700  0.75598200  1
  O  O8  1  0.23048800  0.24947900  0.03149500  1
  O  O9  1  0.76951200  0.75052100  0.96850500  1
  O  O10  1  0.73048800  0.75052100  0.46850500  1
  O  O11  1  0.26951200  0.24947900  0.53149500  1
loop_
_geom_bond_atom_site_label_1
_geom_bond_atom_site_label_2
_geom_bond_distance
_geom_bond_site_symmetry_2
Nb0 O2 2.016386 1_555
Nb0 O3 2.016386 1_455
Nb0 O5 2.016744 1_455
Nb0 O4 2.016744 1_555
Nb0 O10 2.018448 1_455
Nb0 O11 2.018448 1_555
Nb1 O1 2.016386 1_554
Nb1 O0 2.016386 1_555
Nb1 O6 2.016744 1_555
Nb1 O7 2.016744 1_554
Nb1 O9 2.018448 1_554
Nb1 O8 2.018448 1_555
O0 Sc0 2.110802 1_655
O0 Sr0 2.599418 1_545
O0 Sr2 2.800337 1_555
O0 Sr1 2.907691 1_554
O1 Sc0 2.110802 1_566
O1 Sr1 2.599418 1_565
O1 Sr3 2.800337 1_555
O1 Sr0 2.907691 1_556
O2 Sc1 2.110802 1_565
O2 Sr2 2.599418 1_465
O2 Sr0 2.800337 1_555
O2 Sr3 2.907691 1_555
O3 Sc1 2.110802 1_555
O3 Sr3 2.599418 1_645
O3 Sr1 2.800337 1_555
O3 Sr2 2.907691 1_555
O4 Sc0 2.111815 1_565
O4 Sr2 2.562581 1_455
O4 Sr0 2.763260 1_555
O4 Sr0 3.048154 1_455
O5 Sc0 2.111815 1_656
O5 Sr3 2.562581 1_655
O5 Sr1 2.763260 1_555
O5 Sr1 3.048154 1_655
O6 Sc1 2.111815 1_555
O6 Sr0 2.562581 1_555
O6 Sr2 2.763260 1_555
O6 Sr2 3.048154 1_455
O7 Sc1 2.111815 1_565
O7 Sr1 2.562581 1_555
O7 Sr3 2.763260 1_555
O7 Sr3 3.048154 1_655
O8 Sc0 2.111320 1_555
O8 Sr2 2.593796 1_455
O8 Sr0 2.803828 1_545
O8 Sr3 2.899126 1_554
O9 Sc0 2.111320 1_666
O9 Sr3 2.593796 1_655
O9 Sr1 2.803828 1_565
O9 Sr2 2.899126 1_556
O10 Sc1 2.111320 1_565
O10 Sr0 2.593796 1_555
O10 Sr2 2.803828 1_565
O10 Sr1 2.899126 1_555
O11 Sc1 2.111320 1_555
O11 Sr1 2.593796 1_555
O11 Sr3 2.803828 1_545
O11 Sr0 2.899126 1_555
