# generated using pymatgen
data_Na6GaAs3
_symmetry_space_group_name_H-M   'P 1'
_cell_length_a   8.40471019
_cell_length_b   8.35064758
_cell_length_c   16.36882618
_cell_angle_alpha   94.11996096
_cell_angle_beta   95.85539098
_cell_angle_gamma   119.60526826
_symmetry_Int_Tables_number   1
_chemical_formula_structural   Na6GaAs3
_chemical_formula_sum   'Na24 Ga4 As12'
_cell_volume   983.67422879
_cell_formula_units_Z   4
loop_
 _symmetry_equiv_pos_site_id
 _symmetry_equiv_pos_as_xyz
  1  'x, y, z'
loop_
 _atom_site_type_symbol
 _atom_site_label
 _atom_site_symmetry_multiplicity
 _atom_site_fract_x
 _atom_site_fract_y
 _atom_site_fract_z
 _atom_site_occupancy
  Na  Na0  1  0.02102500  0.83851700  0.07096200  1
  Na  Na1  1  0.14079900  0.96934700  0.41983400  1
  Na  Na2  1  0.07876000  0.56582000  0.18848600  1
  Na  Na3  1  0.04195700  0.23387900  0.30103100  1
  Na  Na4  1  0.36093400  0.85466500  0.53080600  1
  Na  Na5  1  0.21167100  0.44592800  0.68917300  1
  Na  Na6  1  0.43930600  0.94753100  0.30184100  1
  Na  Na7  1  0.20019300  0.35849600  0.50048700  1
  Na  Na8  1  0.31042000  0.50859000  0.06246000  1
  Na  Na9  1  0.28907800  0.15735000  0.80046700  1
  Na  Na10  1  0.64515000  0.84230300  0.00171700  1
  Na  Na11  1  0.62780000  0.74538500  0.79638700  1
  Na  Na12  1  0.37542500  0.25148600  0.20258200  1
  Na  Na13  1  0.35452300  0.15826900  0.99758900  1
  Na  Na14  1  0.70621500  0.84587200  0.19751300  1
  Na  Na15  1  0.68799100  0.49199100  0.93686000  1
  Na  Na16  1  0.81623300  0.65553500  0.50483900  1
  Na  Na17  1  0.55823100  0.05383000  0.70704700  1
  Na  Na18  1  0.78753300  0.57247300  0.30561100  1
  Na  Na19  1  0.97151200  0.76100800  0.69483200  1
  Na  Na20  1  0.78939300  0.27905100  0.44046700  1
  Na  Na21  1  0.92156400  0.43388700  0.81248800  1
  Na  Na22  1  0.84791200  0.03168000  0.57768900  1
  Na  Na23  1  0.97884100  0.16078900  0.92829000  1
  Ga  Ga0  1  0.29548100  0.79871200  0.90881600  1
  Ga  Ga1  1  0.47017800  0.63394100  0.40444600  1
  Ga  Ga2  1  0.52923400  0.35413600  0.59195900  1
  Ga  Ga3  1  0.70381200  0.20126100  0.09208700  1
  As  As0  1  0.00660800  0.82021900  0.87902100  1
  As  As1  1  0.15422200  0.61279000  0.37298500  1
  As  As2  1  0.39611900  0.89745000  0.10480600  1
  As  As3  1  0.30768200  0.50291000  0.87930700  1
  As  As4  1  0.22850800  0.08198000  0.61473500  1
  As  As5  1  0.54244400  0.67151700  0.60245200  1
  As  As6  1  0.46493600  0.32339800  0.40005400  1
  As  As7  1  0.76524900  0.91557200  0.38210200  1
  As  As8  1  0.69236200  0.49826900  0.11985100  1
  As  As9  1  0.60381600  0.10371600  0.89744200  1
  As  As10  1  0.83614700  0.37337900  0.62612000  1
  As  As11  1  0.99383500  0.17976600  0.11944000  1
loop_
_geom_bond_atom_site_label_1
_geom_bond_atom_site_label_2
_geom_bond_distance
_geom_bond_site_symmetry_2
Na0 Na13 3.190853 1_564
Na0 Na10 3.261749 1_455
Na0 Na2 3.263834 1_555
Na0 Na15 3.295080 1_454
Na0 Na14 3.543467 1_455
Na0 Na12 3.588926 1_565
Na1 Na4 2.992452 1_555
Na1 Na7 3.193524 1_565
Na1 Na16 3.237279 1_455
Na1 Na6 3.383437 1_555
Na1 Na3 3.384140 1_565
Na1 Na18 3.398455 1_455
Na2 Na8 3.141994 1_555
Na2 Na3 3.343039 1_555
Na2 Na6 3.353374 1_555
Na3 Na7 3.281676 1_555
Na4 Na7 3.643590 1_555
Na5 Na7 3.102776 1_555
Na5 Na9 3.389287 1_555
Na10 Na8 3.145129 1_555
Na10 Na23 3.187609 1_564
Na10 Na14 3.189287 1_555
Na10 Na15 3.238325 1_554
Na10 Na11 3.371232 1_554
Na11 Na17 3.312036 1_565
Na11 Na5 3.322804 1_555
Na11 Na15 3.397054 1_555
Na11 Na19 3.429890 1_555
Na11 Na23 3.593269 1_565
Na12 Na18 3.318330 1_555
Na12 Na3 3.319955 1_555
Na12 Na6 3.336423 1_545
Na12 Na13 3.356403 1_554
Na12 Na8 3.432153 1_555
Na13 Na15 3.139883 1_555
Na13 Na9 3.216219 1_555
Na13 Na8 3.244737 1_556
Na13 Na23 3.255036 1_455
Na14 Na3 3.245614 1_665
Na14 Na18 3.268915 1_555
Na14 Na6 3.335311 1_555
Na14 Na8 3.497617 1_555
Na15 Na21 3.138224 1_555
Na15 Na9 3.514765 1_555
Na16 Na19 3.129440 1_555
Na16 Na20 3.133680 1_555
Na16 Na22 3.151157 1_565
Na16 Na18 3.243982 1_555
Na16 Na4 3.985487 1_655
Na17 Na4 3.073730 1_545
Na17 Na9 3.263591 1_555
Na17 Na21 3.307314 1_555
Na17 Na22 3.447606 1_555
Na18 Na2 3.278170 1_655
Na18 Na20 3.418303 1_555
Na19 Na9 3.252037 1_665
Na19 Na21 3.336941 1_555
Na19 Na22 3.521523 1_565
Na19 Na5 4.031880 1_655
Na20 Na7 3.205814 1_655
Na20 Na22 3.316541 1_555
Na20 Na6 3.340277 1_545
Na20 Na3 3.393171 1_655
Na20 Na4 4.116295 1_545
Na21 Na23 3.247368 1_555
Na21 Na5 3.289500 1_655
Na22 Na7 3.329666 1_655
Na22 Na5 3.485487 1_655
Na22 Na4 3.569909 1_545
Na23 Na8 3.295836 1_656
Na23 Na9 3.515095 1_655
Ga0 Na10 3.005582 1_556
Ga0 Na13 3.021059 1_565
Ga0 Na21 3.237722 1_455
Ga0 Na8 3.649930 1_556
Ga1 Na7 3.000266 1_555
Ga1 Na16 3.107466 1_555
Ga1 Na4 3.167065 1_555
Ga1 Na6 3.310589 1_555
Ga1 Na18 3.479802 1_555
Ga1 Na3 3.611650 1_555
Ga2 Na7 3.025494 1_555
Ga2 Na16 3.066893 1_555
Ga2 Na17 3.329583 1_555
Ga2 Na4 3.698815 1_545
Ga3 Na13 3.015306 1_554
Ga3 Na10 3.028250 1_545
Ga3 Na2 3.241113 1_655
Ga3 Na14 3.545964 1_545
Ga3 Na12 3.621886 1_555
Ga3 Na15 3.674822 1_554
As0 Ga0 2.523212 1_555
As0 Na19 2.980217 1_455
As0 Na23 3.026169 1_465
As0 Na21 3.027009 1_455
As0 Na15 3.036132 1_455
As0 Na11 3.064406 1_455
As0 Na0 3.121585 1_556
As0 Na9 3.123235 1_565
As0 Na13 3.191416 1_565
As1 Ga1 2.567618 1_555
As1 Na3 2.928698 1_555
As1 Na4 2.939223 1_555
As1 Na2 2.978234 1_555
As1 Na18 3.009279 1_455
As1 Na6 3.054570 1_555
As1 Na1 3.080204 1_555
As1 Na7 3.208953 1_555
As1 Na20 3.328559 1_455
As1 Na16 3.872641 1_455
As2 Ga3 2.621232 1_565
As2 Na0 2.925623 1_555
As2 Na8 2.967752 1_555
As2 Na10 3.000275 1_555
As2 Na13 3.020333 1_564
As2 Na14 3.110793 1_555
As2 Ga0 3.172465 1_554
As2 Na6 3.182155 1_555
As2 Na2 3.263752 1_555
As2 Na12 3.349211 1_565
As3 Ga0 2.536602 1_555
As3 Na11 2.989703 1_555
As3 Na8 2.992523 1_556
As3 Na9 2.999130 1_555
As3 Na21 3.065447 1_455
As3 Na23 3.069735 1_455
As3 Na5 3.075582 1_555
As3 Na10 3.189666 1_556
As3 Na15 3.286125 1_555
As3 Na13 3.735100 1_555
As4 Ga2 2.516119 1_555
As4 Na4 2.958743 1_545
As4 Na19 2.988503 1_445
As4 Na9 2.998481 1_555
As4 Na22 3.002755 1_455
As4 Na17 3.139823 1_555
As4 Na7 3.155700 1_555
As4 Na1 3.163860 1_545
As4 Na5 3.266410 1_555
As4 Na16 3.679646 1_445
As5 Ga2 2.589609 1_555
As5 Na4 2.870483 1_555
As5 Na22 2.925668 1_565
As5 Na7 2.976091 1_555
As5 Na16 2.981431 1_555
As5 Na5 3.050809 1_555
As5 Na11 3.128780 1_555
As5 Ga1 3.199400 1_555
As5 Na17 3.448338 1_565
As5 Na19 3.451373 1_555
As6 Ga1 2.567422 1_555
As6 Na1 2.937189 1_545
As6 Na20 2.945508 1_555
As6 Na7 3.010156 1_555
As6 Na16 3.089353 1_555
As6 Ga2 3.102606 1_555
As6 Na18 3.132508 1_555
As6 Na12 3.186448 1_555
As6 Na6 3.319455 1_545
As6 Na3 3.442190 1_555
As7 Ga1 2.522109 1_555
As7 Na1 2.950905 1_655
As7 Na14 2.978343 1_555
As7 Na20 3.016963 1_565
As7 Na3 3.043637 1_665
As7 Na6 3.056185 1_555
As7 Na18 3.142311 1_555
As7 Na22 3.179171 1_565
As7 Na16 3.210270 1_555
As8 Ga3 2.539690 1_555
As8 Na12 2.981541 1_555
As8 Na15 2.988191 1_554
As8 Na18 3.002127 1_555
As8 Na14 3.026711 1_555
As8 Na0 3.060520 1_655
As8 Na2 3.079210 1_655
As8 Na13 3.191775 1_554
As8 Na8 3.296127 1_555
As8 Na10 3.730729 1_555
As9 Ga0 2.623462 1_545
As9 Na23 2.928052 1_555
As9 Na15 2.961330 1_555
As9 Na13 2.970081 1_555
As9 Na10 2.993845 1_546
As9 Na17 3.073319 1_555
As9 Ga3 3.150472 1_556
As9 Na9 3.183370 1_555
As9 Na21 3.271254 1_555
As9 Na11 3.418109 1_545
As10 Ga2 2.505121 1_555
As10 Na19 2.935027 1_555
As10 Na22 2.958025 1_555
As10 Na5 2.958030 1_655
As10 Na21 3.008366 1_555
As10 Na20 3.019353 1_555
As10 Na17 3.051581 1_555
As10 Na16 3.242641 1_555
As11 Ga3 2.528943 1_555
As11 Na3 2.929889 1_655
As11 Na8 3.024098 1_655
As11 Na0 3.026206 1_645
As11 Na2 3.036122 1_655
As11 Na12 3.096961 1_655
As11 Na23 3.107987 1_554
As11 Na14 3.119907 1_545
As11 Na10 3.186016 1_545
