# generated using pymatgen
data_Y3(CuSn)4
_symmetry_space_group_name_H-M   'P 1'
_cell_length_a   8.40591175
_cell_length_b   8.40591175
_cell_length_c   8.40591175
_cell_angle_alpha   149.27449258
_cell_angle_beta   131.25863165
_cell_angle_gamma   58.72917385
_symmetry_Int_Tables_number   1
_chemical_formula_structural   Y3(CuSn)4
_chemical_formula_sum   'Y3 Cu4 Sn4'
_cell_volume   226.35498588
_cell_formula_units_Z   1
loop_
 _symmetry_equiv_pos_site_id
 _symmetry_equiv_pos_as_xyz
  1  'x, y, z'
loop_
 _atom_site_type_symbol
 _atom_site_label
 _atom_site_symmetry_multiplicity
 _atom_site_fract_x
 _atom_site_fract_y
 _atom_site_fract_z
 _atom_site_occupancy
  Y  Y0  1  0.50000000  -0.00000000  0.50000000  1
  Y  Y1  1  0.86832510  0.86832510  0.00000000  1
  Y  Y2  1  0.13167490  0.13167490  -0.00000000  1
  Cu  Cu0  1  0.48440617  0.67136704  0.81303813  1
  Cu  Cu1  1  0.85832891  0.67136704  0.18696187  1
  Cu  Cu2  1  0.14167109  0.32863296  0.81303813  1
  Cu  Cu3  1  0.51559383  0.32863296  0.18696187  1
  Sn  Sn0  1  0.28369616  0.78369616  0.50000000  1
  Sn  Sn1  1  0.71630384  0.21630384  0.50000000  1
  Sn  Sn2  1  0.79761297  0.50000000  0.29761297  1
  Sn  Sn3  1  0.20238703  0.50000000  0.70238703  1
loop_
_geom_bond_atom_site_label_1
_geom_bond_atom_site_label_2
_geom_bond_distance
_geom_bond_site_symmetry_2
Y1 Y2 3.858546 1_665
Cu0 Cu1 2.593982 1_556
Cu0 Sn3 2.625558 1_555
Cu0 Sn1 2.659899 1_555
Cu0 Sn1 2.659903 1_566
Cu0 Sn0 2.724814 1_555
Cu0 Y1 3.163845 1_556
Cu0 Y2 3.164415 1_555
Cu0 Y2 3.164418 1_566
Cu1 Sn2 2.625550 1_555
Cu1 Sn1 2.659905 1_565
Cu1 Sn1 2.659905 1_554
Cu1 Sn0 2.724816 1_655
Cu1 Y1 3.163853 1_555
Cu1 Y2 3.164413 1_666
Cu1 Y2 3.164413 1_655
Cu2 Cu3 2.593982 1_556
Cu2 Sn3 2.625550 1_555
Cu2 Sn0 2.659905 1_556
Cu2 Sn0 2.659905 1_545
Cu2 Sn1 2.724816 1_455
Cu2 Y2 3.163853 1_556
Cu2 Y1 3.164413 1_456
Cu2 Y1 3.164413 1_445
Cu3 Sn2 2.625558 1_555
Cu3 Sn0 2.659899 1_555
Cu3 Sn0 2.659903 1_544
Cu3 Sn1 2.724814 1_555
Cu3 Y2 3.163845 1_555
Cu3 Y1 3.164415 1_556
Cu3 Y1 3.164418 1_545
Sn0 Y2 3.149706 1_566
Sn0 Y2 3.149706 1_555
Sn0 Y0 3.169239 1_565
Sn1 Y1 3.149706 1_556
Sn1 Y1 3.149706 1_545
Sn1 Y0 3.169239 1_555
Sn2 Sn3 2.808000 1_655
Sn2 Y0 3.036773 1_565
Sn2 Y0 3.036773 1_554
Sn2 Y2 3.263850 1_655
Sn2 Y2 3.263850 1_666
Sn2 Y1 3.263850 1_556
Sn2 Y1 3.263850 1_545
Sn3 Y0 3.036773 1_566
Sn3 Y0 3.036773 1_555
Sn3 Y2 3.263850 1_555
Sn3 Y2 3.263850 1_566
Sn3 Y1 3.263850 1_456
Sn3 Y1 3.263850 1_445
