# generated using pymatgen
data_Sn3S7
_symmetry_space_group_name_H-M   'P 1'
_cell_length_a   13.28788759
_cell_length_b   13.28788759
_cell_length_c   16.06265113
_cell_angle_alpha   74.32474244
_cell_angle_beta   74.32474244
_cell_angle_gamma   59.96562051
_symmetry_Int_Tables_number   1
_chemical_formula_structural   Sn3S7
_chemical_formula_sum   'Sn12 S28'
_cell_volume   2332.81917539
_cell_formula_units_Z   4
loop_
 _symmetry_equiv_pos_site_id
 _symmetry_equiv_pos_as_xyz
  1  'x, y, z'
loop_
 _atom_site_type_symbol
 _atom_site_label
 _atom_site_symmetry_multiplicity
 _atom_site_fract_x
 _atom_site_fract_y
 _atom_site_fract_z
 _atom_site_occupancy
  Sn  Sn0  1  0.76770200  0.44533500  0.23240100  1
  Sn  Sn1  1  0.44533500  0.76770200  0.73240100  1
  Sn  Sn2  1  0.50314500  0.43217500  0.23571600  1
  Sn  Sn3  1  0.43217500  0.50314500  0.73571600  1
  Sn  Sn4  1  0.19213000  0.58136400  0.25590700  1
  Sn  Sn5  1  0.58136400  0.19213000  0.75590700  1
  Sn  Sn6  1  0.78178100  0.16943300  0.23246700  1
  Sn  Sn7  1  0.16943300  0.78178100  0.73246700  1
  Sn  Sn8  1  0.92570400  0.85974200  0.25560100  1
  Sn  Sn9  1  0.85974200  0.92570400  0.75560100  1
  Sn  Sn10  1  0.91333500  0.59305200  0.25692500  1
  Sn  Sn11  1  0.59305200  0.91333500  0.75692500  1
  S  S0  1  0.66109800  0.32616300  0.34095400  1
  S  S1  1  0.32616300  0.66109800  0.84095400  1
  S  S2  1  0.10502800  0.76111800  0.32294600  1
  S  S3  1  0.76111800  0.10502800  0.82294600  1
  S  S4  1  0.78042500  0.78412700  0.30809100  1
  S  S5  1  0.78412700  0.78042500  0.80809100  1
  S  S6  1  0.09925900  0.45076600  0.31269900  1
  S  S7  1  0.45076600  0.09925900  0.81269900  1
  S  S8  1  0.90779700  0.26621900  0.16836000  1
  S  S9  1  0.26621900  0.90779700  0.66836000  1
  S  S10  1  0.34232000  0.48171600  0.36044400  1
  S  S11  1  0.48171600  0.34232000  0.86044400  1
  S  S12  1  0.80816200  0.47974300  0.36045400  1
  S  S13  1  0.47974300  0.80816200  0.86045400  1
  S  S14  1  0.59502100  0.24309300  0.18068700  1
  S  S15  1  0.24309300  0.59502100  0.68068700  1
  S  S16  1  0.03512500  0.70144500  0.14908600  1
  S  S17  1  0.70144500  0.03512500  0.64908600  1
  S  S18  1  0.58834900  0.56623700  0.16340800  1
  S  S19  1  0.56623700  0.58834900  0.66340800  1
  S  S20  1  0.81203900  0.01135600  0.35986500  1
  S  S21  1  0.01135600  0.81203900  0.85986500  1
  S  S22  1  0.90510500  0.01684900  0.12913300  1
  S  S23  1  0.01684900  0.90510500  0.62913300  1
  S  S24  1  0.86038700  0.57203700  0.13070400  1
  S  S25  1  0.57203700  0.86038700  0.63070400  1
  S  S26  1  0.35166300  0.52065300  0.13165200  1
  S  S27  1  0.52065300  0.35166300  0.63165200  1
loop_
_geom_bond_atom_site_label_1
_geom_bond_atom_site_label_2
_geom_bond_distance
_geom_bond_site_symmetry_2
S0 Sn2 2.630171 1_555
S0 Sn0 2.640696 1_555
S0 Sn6 2.655811 1_555
S0 S12 3.570693 1_555
S0 S20 3.585720 1_555
S0 S10 3.630653 1_555
S1 Sn3 2.630171 1_555
S1 Sn1 2.640696 1_555
S1 Sn7 2.655811 1_555
S1 S13 3.570693 1_555
S1 S21 3.585720 1_555
S1 S11 3.630653 1_555
S2 Sn8 2.462996 1_455
S2 Sn4 2.480585 1_555
S3 Sn9 2.462996 1_545
S3 Sn5 2.480585 1_555
S4 Sn8 2.459966 1_555
S4 Sn10 2.468903 1_555
S5 Sn9 2.459966 1_555
S5 Sn11 2.468903 1_555
S6 Sn4 2.458984 1_555
S6 Sn10 2.466918 1_455
S7 Sn5 2.458984 1_555
S7 Sn11 2.466918 1_545
S8 Sn6 2.454925 1_555
S8 Sn0 2.457903 1_555
S9 Sn7 2.454925 1_555
S9 Sn1 2.457903 1_555
S10 Sn2 2.450499 1_555
S10 Sn4 2.553376 1_555
S11 Sn3 2.450499 1_555
S11 Sn5 2.553376 1_555
S12 Sn0 2.465887 1_555
S12 Sn10 2.546169 1_555
S13 Sn1 2.465887 1_555
S13 Sn11 2.546169 1_555
S14 Sn6 2.460137 1_555
S14 Sn2 2.476047 1_555
S15 Sn7 2.460137 1_555
S15 Sn3 2.476047 1_555
S16 Sn4 2.639156 1_555
S16 Sn8 2.646624 1_455
S16 Sn10 2.676627 1_455
S16 S22 3.602439 1_465
S16 S24 3.616198 1_455
S16 S26 3.626724 1_555
S17 Sn5 2.639156 1_555
S17 Sn9 2.646624 1_545
S17 Sn11 2.676627 1_545
S17 S23 3.602439 1_645
S17 S25 3.616198 1_545
S17 S27 3.626724 1_555
S18 Sn2 2.448379 1_555
S18 Sn0 2.474114 1_555
S19 Sn3 2.448379 1_555
S19 Sn1 2.474114 1_555
S20 Sn6 2.457196 1_555
S20 Sn8 2.560295 1_545
S21 Sn7 2.457196 1_555
S21 Sn9 2.560295 1_455
S22 Sn8 2.448787 1_545
S22 Sn6 2.563974 1_555
S23 Sn9 2.448787 1_455
S23 Sn7 2.563974 1_555
S24 Sn10 2.440681 1_555
S24 Sn0 2.553845 1_555
S25 Sn11 2.440681 1_555
S25 Sn1 2.553845 1_555
S26 Sn4 2.449476 1_555
S26 Sn2 2.572001 1_555
S27 Sn5 2.449476 1_555
S27 Sn3 2.572001 1_555
