# generated using pymatgen
data_Ge(NF3)2
_symmetry_space_group_name_H-M   'P 1'
_cell_length_a   5.56847580
_cell_length_b   5.56847580
_cell_length_c   5.56847580
_cell_angle_alpha   60.00000000
_cell_angle_beta   60.00000000
_cell_angle_gamma   60.00000000
_symmetry_Int_Tables_number   1
_chemical_formula_structural   Ge(NF3)2
_chemical_formula_sum   'Ge1 N2 F6'
_cell_volume   122.09391288
_cell_formula_units_Z   1
loop_
 _symmetry_equiv_pos_site_id
 _symmetry_equiv_pos_as_xyz
  1  'x, y, z'
loop_
 _atom_site_type_symbol
 _atom_site_label
 _atom_site_symmetry_multiplicity
 _atom_site_fract_x
 _atom_site_fract_y
 _atom_site_fract_z
 _atom_site_occupancy
  Ge  Ge0  1  0.00000000  0.00000000  0.00000000  1
  N  N0  1  0.75000000  0.75000000  0.75000000  1
  N  N1  1  0.25000000  0.25000000  0.25000000  1
  F  F0  1  0.76774900  0.76774900  0.23225100  1
  F  F1  1  0.23225100  0.76774900  0.23225100  1
  F  F2  1  0.76774900  0.23225100  0.23225100  1
  F  F3  1  0.23225100  0.23225100  0.76774900  1
  F  F4  1  0.76774900  0.23225100  0.76774900  1
  F  F5  1  0.23225100  0.76774900  0.76774900  1
loop_
_geom_bond_atom_site_label_1
_geom_bond_atom_site_label_2
_geom_bond_distance
_geom_bond_site_symmetry_2
F0 Ge0 1.828980 1_665
F0 N0 2.787744 1_554
F0 N1 2.787744 1_565
F0 N1 2.787744 1_655
F0 N0 2.787744 1_555
F1 Ge0 1.828980 1_565
F1 N1 2.787744 1_555
F1 N0 2.787744 1_554
F1 N0 2.787744 1_455
F1 N1 2.787744 1_565
F2 Ge0 1.828980 1_655
F2 N1 2.787744 1_555
F2 N0 2.787744 1_554
F2 N0 2.787744 1_545
F2 N1 2.787744 1_655
F3 Ge0 1.828980 1_556
F3 N1 2.787744 1_555
F3 N0 2.787744 1_455
F3 N0 2.787744 1_545
F3 N1 2.787744 1_556
F4 Ge0 1.828980 1_656
F4 N0 2.787744 1_545
F4 N1 2.787744 1_655
F4 N1 2.787744 1_556
F4 N0 2.787744 1_555
F5 Ge0 1.828980 1_566
F5 N0 2.787744 1_455
F5 N1 2.787744 1_565
F5 N1 2.787744 1_556
F5 N0 2.787744 1_555
