# generated using pymatgen
data_MgCo6(OF5)2
_symmetry_space_group_name_H-M   'P 1'
_cell_length_a   5.27302553
_cell_length_b   5.31056846
_cell_length_c   9.98108604
_cell_angle_alpha   87.69061795
_cell_angle_beta   73.90724974
_cell_angle_gamma   102.55096711
_symmetry_Int_Tables_number   1
_chemical_formula_structural   MgCo6(OF5)2
_chemical_formula_sum   'Mg1 Co6 O2 F10'
_cell_volume   260.61790222
_cell_formula_units_Z   1
loop_
 _symmetry_equiv_pos_site_id
 _symmetry_equiv_pos_as_xyz
  1  'x, y, z'
loop_
 _atom_site_type_symbol
 _atom_site_label
 _atom_site_symmetry_multiplicity
 _atom_site_fract_x
 _atom_site_fract_y
 _atom_site_fract_z
 _atom_site_occupancy
  Mg  Mg0  1  0.56129000  0.26847100  0.73653300  1
  Co  Co0  1  0.98999600  0.00236800  0.99089300  1
  Co  Co1  1  0.03797900  0.98181000  0.30415100  1
  Co  Co2  1  0.01726900  0.96159600  0.66404200  1
  Co  Co3  1  0.65428800  0.44313500  0.18406500  1
  Co  Co4  1  0.47336000  0.71821700  0.93378000  1
  Co  Co5  1  0.29366000  0.49324500  0.44853600  1
  O  O0  1  0.29460300  0.29077200  0.30037000  1
  O  O1  1  0.73508700  0.67562200  0.02422300  1
  F  F0  1  0.21405700  0.84693300  0.10488300  1
  F  F1  1  0.27094300  0.90636000  0.79435400  1
  F  F2  1  0.14298400  0.80449600  0.47896100  1
  F  F3  1  0.28921100  0.33910700  0.91217800  1
  F  F4  1  0.32137100  0.30579800  0.61861100  1
  F  F5  1  0.72364900  0.63821000  0.73320900  1
  F  F6  1  0.71040000  0.67791700  0.34791500  1
  F  F7  1  0.85845900  0.16279900  0.17293600  1
  F  F8  1  0.76815200  0.09907900  0.84276500  1
  F  F9  1  0.83768900  0.18962300  0.57188300  1
loop_
_geom_bond_atom_site_label_1
_geom_bond_atom_site_label_2
_geom_bond_distance
_geom_bond_site_symmetry_2
Co0 O1 1.902690 1_546
Co0 F7 2.047268 1_556
Co0 F3 2.068295 1_655
Co0 F0 2.113081 1_646
Co0 F8 2.230877 1_555
Co0 F1 2.258442 1_645
Co1 O0 1.877866 1_565
Co1 F6 2.022947 1_455
Co1 F7 2.125185 1_465
Co1 F0 2.170474 1_555
Co1 F2 2.206205 1_555
Co2 F5 1.994827 1_455
Co2 F9 2.025016 1_465
Co2 F2 2.057597 1_555
Co2 F4 2.091502 1_565
Co2 F8 2.159502 1_465
Co2 F1 2.161320 1_555
Co3 O1 1.867338 1_555
Co3 O0 1.906884 1_555
Co3 F7 2.007831 1_555
Co3 F6 2.142174 1_555
Co4 O1 1.892254 1_556
Co4 F3 2.084252 1_555
Co4 F0 2.111657 1_556
Co4 F5 2.185758 1_555
Co4 F8 2.243895 1_565
Co4 F1 2.291077 1_555
Co5 O0 1.862686 1_555
Co5 F2 1.983201 1_555
Co5 F4 1.989582 1_555
Co5 F6 2.135377 1_555
Co5 F9 2.531899 1_455
F1 Mg0 2.125131 1_565
F1 F5 2.972961 1_555
F3 Mg0 2.040832 1_555
F4 Mg0 1.985132 1_555
F4 F9 2.664923 1_455
F5 Mg0 1.959051 1_555
F8 Mg0 2.028320 1_555
F9 Mg0 1.998270 1_555
