# generated using pymatgen
data_Na2TiF5
_symmetry_space_group_name_H-M   'P 1'
_cell_length_a   5.25721655
_cell_length_b   7.43154564
_cell_length_c   11.08597376
_cell_angle_alpha   71.99574036
_cell_angle_beta   90.00000000
_cell_angle_gamma   90.00000000
_symmetry_Int_Tables_number   1
_chemical_formula_structural   Na2TiF5
_chemical_formula_sum   'Na8 Ti4 F20'
_cell_volume   411.91223804
_cell_formula_units_Z   4
loop_
 _symmetry_equiv_pos_site_id
 _symmetry_equiv_pos_as_xyz
  1  'x, y, z'
loop_
 _atom_site_type_symbol
 _atom_site_label
 _atom_site_symmetry_multiplicity
 _atom_site_fract_x
 _atom_site_fract_y
 _atom_site_fract_z
 _atom_site_occupancy
  Na  Na0  1  0.93229179  0.34643865  0.31490041  1
  Na  Na1  1  0.43229179  0.65356135  0.18509959  1
  Na  Na2  1  0.06770821  0.65356135  0.68509959  1
  Na  Na3  1  0.56770821  0.34643865  0.81490041  1
  Na  Na4  1  0.49458961  0.15477367  0.13825446  1
  Na  Na5  1  0.99458961  0.84522633  0.36174554  1
  Na  Na6  1  0.50541039  0.84522633  0.86174554  1
  Na  Na7  1  0.00541039  0.15477367  0.63825446  1
  Ti  Ti0  1  0.50000000  0.50000000  0.50000000  1
  Ti  Ti1  1  -0.00000000  0.50000000  -0.00000000  1
  Ti  Ti2  1  0.50000000  0.00000000  0.50000000  1
  Ti  Ti3  1  -0.00000000  0.00000000  -0.00000000  1
  F  F0  1  0.76427530  0.48139950  0.62679279  1
  F  F1  1  0.26427530  0.51860050  0.87320721  1
  F  F2  1  0.23572470  0.51860050  0.37320721  1
  F  F3  1  0.73572470  0.48139950  0.12679279  1
  F  F4  1  0.71441331  0.61971015  0.35376179  1
  F  F5  1  0.21441331  0.38028985  0.14623821  1
  F  F6  1  0.28558669  0.38028985  0.64623821  1
  F  F7  1  0.78558669  0.61971015  0.85376179  1
  F  F8  1  0.65751620  0.25198454  0.49557497  1
  F  F9  1  0.15751620  0.74801546  0.00442503  1
  F  F10  1  0.34248380  0.74801546  0.50442503  1
  F  F11  1  0.84248380  0.25198454  0.99557497  1
  F  F12  1  0.83137555  0.05781646  0.82939546  1
  F  F13  1  0.33137555  0.94218354  0.67060454  1
  F  F14  1  0.16862445  0.94218354  0.17060454  1
  F  F15  1  0.66862445  0.05781646  0.32939546  1
  F  F16  1  0.68996122  0.88842277  0.07483884  1
  F  F17  1  0.18996122  0.11157723  0.42516116  1
  F  F18  1  0.31003878  0.11157723  0.92516116  1
  F  F19  1  0.81003878  0.88842277  0.57483884  1
loop_
_geom_bond_atom_site_label_1
_geom_bond_atom_site_label_2
_geom_bond_distance
_geom_bond_site_symmetry_2
F0 Ti0 1.950659 1_555
F0 Na2 2.260684 1_655
F0 Na3 2.264866 1_555
F0 F8 2.621247 1_555
F0 Na7 2.706381 1_655
F1 Ti1 1.950659 1_556
F1 Na3 2.260684 1_555
F1 Na2 2.264866 1_555
F1 F9 2.621247 1_556
F1 Na6 2.706381 1_555
F2 Ti0 1.950659 1_555
F2 Na0 2.260684 1_455
F2 Na1 2.264866 1_555
F2 Na5 2.706381 1_455
F3 Ti1 1.950659 1_655
F3 Na1 2.260684 1_555
F3 Na0 2.264866 1_555
F3 Na4 2.706381 1_555
F4 Ti0 1.949040 1_555
F4 Na5 2.253410 1_555
F4 Na1 2.338463 1_555
F4 Na0 2.482487 1_555
F4 F8 2.715374 1_555
F5 Ti1 1.949040 1_555
F5 Na4 2.253410 1_555
F5 Na0 2.338463 1_455
F5 Na1 2.482487 1_555
F5 F9 2.715374 1_555
F6 Ti0 1.949040 1_555
F6 Na7 2.253410 1_555
F6 Na3 2.338463 1_555
F6 Na2 2.482487 1_555
F7 Ti1 1.949040 1_656
F7 Na6 2.253410 1_555
F7 Na2 2.338463 1_655
F7 Na3 2.482487 1_555
F8 Ti2 2.034238 1_555
F8 Ti0 2.034994 1_555
F8 Na7 2.379600 1_655
F8 Na0 2.392103 1_555
F9 Ti3 2.034238 1_565
F9 Ti1 2.034994 1_555
F9 Na6 2.379600 1_554
F9 Na1 2.392103 1_555
F10 Ti2 2.034238 1_565
F10 Ti0 2.034994 1_555
F10 Na5 2.379600 1_455
F10 Na2 2.392103 1_555
F10 F2 2.621247 1_555
F10 F13 2.668859 1_555
F10 F17 2.692086 1_565
F10 F6 2.715374 1_555
F11 Ti3 2.034238 1_656
F11 Ti1 2.034994 1_656
F11 Na4 2.379600 1_556
F11 Na3 2.392103 1_555
F11 F3 2.621247 1_556
F11 F12 2.668859 1_555
F11 F16 2.692086 1_546
F11 F7 2.715374 1_555
F12 Ti3 2.011273 1_656
F12 Na7 2.214170 1_655
F12 Na6 2.282767 1_545
F12 Na3 2.516907 1_555
F12 F18 2.807381 1_655
F13 Ti2 2.011273 1_565
F13 Na6 2.214170 1_555
F13 Na7 2.282767 1_565
F13 Na2 2.516907 1_555
F13 F19 2.807381 1_555
F14 Ti3 2.011273 1_565
F14 Na5 2.214170 1_455
F14 Na4 2.282767 1_565
F14 Na1 2.516907 1_555
F14 F9 2.668859 1_555
F14 F16 2.807381 1_455
F15 Ti2 2.011273 1_555
F15 Na4 2.214170 1_555
F15 Na5 2.282767 1_545
F15 Na0 2.516907 1_555
F15 F8 2.668859 1_555
F15 F17 2.807381 1_555
F16 Ti3 1.899298 1_665
F16 Na1 2.248699 1_555
F16 Na4 2.515442 1_565
F16 Na6 2.663430 1_554
F17 Ti2 1.899298 1_555
F17 Na0 2.248699 1_455
F17 Na5 2.515442 1_445
F17 Na7 2.663430 1_555
F18 Ti3 1.899298 1_556
F18 Na3 2.248699 1_555
F18 Na6 2.515442 1_545
F18 Na4 2.663430 1_556
F18 F9 2.692086 1_546
F19 Ti2 1.899298 1_565
F19 Na2 2.248699 1_655
F19 Na7 2.515442 1_665
F19 Na5 2.663430 1_555
F19 F8 2.692086 1_565
