# generated using pymatgen
data_Fe(WCl5)2
_symmetry_space_group_name_H-M   'P 1'
_cell_length_a   9.02911211
_cell_length_b   9.02911211
_cell_length_c   12.92983985
_cell_angle_alpha   86.87735478
_cell_angle_beta   86.87735478
_cell_angle_gamma   139.15825283
_symmetry_Int_Tables_number   1
_chemical_formula_structural   Fe(WCl5)2
_chemical_formula_sum   'Fe2 W4 Cl20'
_cell_volume   680.90100549
_cell_formula_units_Z   2
loop_
 _symmetry_equiv_pos_site_id
 _symmetry_equiv_pos_as_xyz
  1  'x, y, z'
loop_
 _atom_site_type_symbol
 _atom_site_label
 _atom_site_symmetry_multiplicity
 _atom_site_fract_x
 _atom_site_fract_y
 _atom_site_fract_z
 _atom_site_occupancy
  Fe  Fe0  1  0.05725600  0.94274400  0.75000000  1
  Fe  Fe1  1  0.94274400  0.05725600  0.25000000  1
  W  W0  1  0.42900800  0.57099200  0.75000000  1
  W  W1  1  0.57099200  0.42900800  0.25000000  1
  W  W2  1  0.27200500  0.72799500  0.75000000  1
  W  W3  1  0.72799500  0.27200500  0.25000000  1
  Cl  Cl0  1  0.77637100  0.47678600  0.38000500  1
  Cl  Cl1  1  0.52321400  0.22362900  0.11999500  1
  Cl  Cl2  1  0.22362900  0.52321400  0.61999500  1
  Cl  Cl3  1  0.47678600  0.77637100  0.88000500  1
  Cl  Cl4  1  0.89473500  0.78801900  0.14641500  1
  Cl  Cl5  1  0.21198100  0.10526500  0.35358500  1
  Cl  Cl6  1  0.10526500  0.21198100  0.85358500  1
  Cl  Cl7  1  0.78801900  0.89473500  0.64641500  1
  Cl  Cl8  1  0.07626400  0.59069700  0.14914400  1
  Cl  Cl9  1  0.40930300  0.92373600  0.35085600  1
  Cl  Cl10  1  0.92373600  0.40930300  0.85085600  1
  Cl  Cl11  1  0.59069700  0.07626400  0.64914400  1
  Cl  Cl12  1  0.60910500  0.68047000  0.35207400  1
  Cl  Cl13  1  0.31953000  0.39089500  0.14792600  1
  Cl  Cl14  1  0.39089500  0.31953000  0.64792600  1
  Cl  Cl15  1  0.68047000  0.60910500  0.85207500  1
  Cl  Cl16  1  0.94483100  0.26519500  0.35817300  1
  Cl  Cl17  1  0.73480500  0.05516900  0.14182700  1
  Cl  Cl18  1  0.05516900  0.73480500  0.64182700  1
  Cl  Cl19  1  0.26519500  0.94483100  0.85817300  1
loop_
_geom_bond_atom_site_label_1
_geom_bond_atom_site_label_2
_geom_bond_distance
_geom_bond_site_symmetry_2
W0 W2 2.657017 1_555
W1 W3 2.657017 1_555
Cl0 W3 2.373134 1_555
Cl0 W1 2.378792 1_555
Cl0 Cl12 3.159602 1_555
Cl0 Cl16 3.232945 1_555
Cl1 W3 2.373134 1_555
Cl1 W1 2.378792 1_555
Cl1 Cl13 3.159602 1_555
Cl1 Cl17 3.232945 1_555
Cl2 W2 2.373134 1_555
Cl2 W0 2.378792 1_555
Cl3 W2 2.373134 1_555
Cl3 W0 2.378792 1_555
Cl4 W1 2.368517 1_555
Cl4 Fe1 2.591316 1_565
Cl4 Cl8 3.206210 1_655
Cl5 W1 2.368517 1_555
Cl5 Fe1 2.591316 1_455
Cl5 Cl9 3.206210 1_545
Cl6 W0 2.368517 1_555
Cl6 Fe0 2.591316 1_545
Cl7 W0 2.368517 1_555
Cl7 Fe0 2.591316 1_655
Cl8 W3 2.307071 1_455
Cl9 W3 2.307071 1_565
Cl10 W2 2.307071 1_655
Cl10 Cl6 3.206210 1_655
Cl10 Cl19 3.228082 1_655
Cl10 Cl18 3.295253 1_655
Cl11 W2 2.307071 1_545
Cl11 Cl7 3.206210 1_545
Cl11 Cl18 3.228082 1_545
Cl11 Cl19 3.295253 1_545
Cl12 Fe1 2.441714 1_565
Cl12 W1 2.491813 1_555
Cl12 Cl5 3.411093 1_555
Cl12 Cl13 3.435148 1_555
Cl13 Fe1 2.441714 1_455
Cl13 W1 2.491813 1_555
Cl13 Cl4 3.411093 1_555
Cl14 Fe0 2.441714 1_545
Cl14 W0 2.491813 1_555
Cl14 Cl2 3.159602 1_555
Cl14 Cl7 3.411093 1_555
Cl14 Cl15 3.435159 1_555
Cl15 Fe0 2.441719 1_655
Cl15 W0 2.491821 1_555
Cl15 Cl3 3.159601 1_555
Cl15 Cl6 3.411095 1_555
Cl16 Fe1 2.391038 1_555
Cl16 W3 2.502851 1_555
Cl16 Cl9 3.228082 1_545
Cl16 Cl8 3.295253 1_655
Cl17 Fe1 2.391038 1_555
Cl17 W3 2.502851 1_555
Cl17 Cl8 3.228082 1_655
Cl17 Cl9 3.295253 1_545
Cl18 Fe0 2.391038 1_555
Cl18 W2 2.502851 1_555
Cl18 Cl2 3.232945 1_555
Cl19 Fe0 2.391038 1_555
Cl19 W2 2.502851 1_555
Cl19 Cl3 3.232945 1_555
