# generated using pymatgen
data_CaV6O11F
_symmetry_space_group_name_H-M   'P 1'
_cell_length_a   5.15480296
_cell_length_b   5.08772917
_cell_length_c   10.09151505
_cell_angle_alpha   99.52592896
_cell_angle_beta   89.60959403
_cell_angle_gamma   105.24911355
_symmetry_Int_Tables_number   1
_chemical_formula_structural   CaV6O11F
_chemical_formula_sum   'Ca1 V6 O11 F1'
_cell_volume   251.63558886
_cell_formula_units_Z   1
loop_
 _symmetry_equiv_pos_site_id
 _symmetry_equiv_pos_as_xyz
  1  'x, y, z'
loop_
 _atom_site_type_symbol
 _atom_site_label
 _atom_site_symmetry_multiplicity
 _atom_site_fract_x
 _atom_site_fract_y
 _atom_site_fract_z
 _atom_site_occupancy
  Ca  Ca0  1  0.21837000  0.76663500  0.67621800  1
  V  V0  1  0.06779100  0.90095000  0.04480000  1
  V  V1  1  0.03938100  0.06176700  0.33156000  1
  V  V2  1  0.86463300  0.10096400  0.62498600  1
  V  V3  1  0.62463800  0.38560500  0.15686600  1
  V  V4  1  0.42755300  0.45596800  0.87903100  1
  V  V5  1  0.69010700  0.55538700  0.44706600  1
  O  O0  1  0.19951400  0.81352100  0.17603800  1
  O  O1  1  0.05330800  0.87363900  0.48828100  1
  O  O2  1  0.22643300  0.74208900  0.90275100  1
  O  O3  1  0.31841900  0.24659100  0.02926900  1
  O  O4  1  0.38003100  0.28249400  0.33323700  1
  O  O5  1  0.18280600  0.25581600  0.72968600  1
  O  O6  1  0.73965800  0.64063200  0.00834200  1
  O  O7  1  0.73273500  0.71776400  0.28898200  1
  O  O8  1  0.62591300  0.73325900  0.62504400  1
  O  O9  1  0.87590200  0.15834200  0.16689500  1
  O  O10  1  0.87828100  0.28567500  0.47203600  1
  F  F0  1  0.66008500  0.21734000  0.79033700  1
loop_
_geom_bond_atom_site_label_1
_geom_bond_atom_site_label_2
_geom_bond_distance
_geom_bond_site_symmetry_2
Ca0 O8 2.202895 1_555
Ca0 O1 2.285766 1_555
Ca0 O2 2.311259 1_555
Ca0 O5 2.512599 1_565
Ca0 O5 2.700230 1_555
Ca0 F0 2.860782 1_565
Ca0 O8 3.056486 1_455
Ca0 O10 3.070926 1_455
O0 V0 1.667046 1_555
O0 V1 2.148119 1_565
O0 O7 2.618357 1_455
O1 V1 1.990307 1_565
O1 V2 2.057200 1_465
O1 V5 2.119677 1_455
O1 O7 2.496536 1_455
O1 O10 2.519160 1_465
O2 V0 1.823490 1_556
O2 V4 1.981504 1_555
O2 O3 2.593566 1_566
O3 V0 1.918191 1_545
O3 V3 1.946512 1_555
O3 V4 1.989371 1_554
O3 O9 2.637867 1_455
O4 V1 1.817055 1_555
O4 V5 2.032679 1_555
O4 V3 2.227881 1_555
O5 V2 1.869607 1_455
O5 V4 1.934475 1_555
O6 V0 1.849130 1_655
O6 V4 2.000409 1_554
O6 V3 2.123314 1_555
O6 O9 2.763774 1_565
O7 V5 1.900455 1_555
O7 V3 1.926904 1_555
O7 V1 2.012827 1_665
O7 O9 2.668066 1_565
O8 V5 1.940558 1_555
O8 V2 1.950248 1_565
O9 V3 1.962919 1_555
O9 V1 2.054268 1_655
O9 V0 2.083787 1_645
O10 V5 1.924928 1_555
O10 V2 1.927259 1_555
O10 V1 1.985970 1_655
F0 V4 2.025611 1_555
F0 V2 2.055267 1_555
F0 O5 2.603735 1_555
F0 O8 2.700965 1_545
F0 O5 2.722703 1_655
F0 O6 2.761458 1_556
