# generated using pymatgen
data_Mg6ZrCr
_symmetry_space_group_name_H-M   'P 1'
_cell_length_a   4.95654300
_cell_length_b   6.26640100
_cell_length_c   11.08204000
_cell_angle_alpha   90.00000000
_cell_angle_beta   90.00000000
_cell_angle_gamma   90.00000000
_symmetry_Int_Tables_number   1
_chemical_formula_structural   Mg6ZrCr
_chemical_formula_sum   'Mg12 Zr2 Cr2'
_cell_volume   344.20468277
_cell_formula_units_Z   2
loop_
 _symmetry_equiv_pos_site_id
 _symmetry_equiv_pos_as_xyz
  1  'x, y, z'
loop_
 _atom_site_type_symbol
 _atom_site_label
 _atom_site_symmetry_multiplicity
 _atom_site_fract_x
 _atom_site_fract_y
 _atom_site_fract_z
 _atom_site_occupancy
  Mg  Mg0  1  0.00000000  0.25778800  0.07972500  1
  Mg  Mg1  1  0.00000000  0.74221200  0.07972500  1
  Mg  Mg2  1  0.00000000  0.00000000  0.33556000  1
  Mg  Mg3  1  0.50000000  0.74547800  0.41866900  1
  Mg  Mg4  1  0.50000000  0.25452200  0.41866900  1
  Mg  Mg5  1  0.50000000  0.00000000  0.16775000  1
  Mg  Mg6  1  0.00000000  0.75778800  0.57972500  1
  Mg  Mg7  1  0.00000000  0.24221200  0.57972500  1
  Mg  Mg8  1  0.00000000  0.50000000  0.83556000  1
  Mg  Mg9  1  0.50000000  0.24547800  0.91866900  1
  Mg  Mg10  1  0.50000000  0.75452200  0.91866900  1
  Mg  Mg11  1  0.50000000  0.50000000  0.66775000  1
  Zr  Zr0  1  0.00000000  0.50000000  0.31978500  1
  Zr  Zr1  1  0.00000000  0.00000000  0.81978500  1
  Cr  Cr0  1  0.50000000  0.50000000  0.18011700  1
  Cr  Cr1  1  0.50000000  0.00000000  0.68011700  1
loop_
_geom_bond_atom_site_label_1
_geom_bond_atom_site_label_2
_geom_bond_distance
_geom_bond_site_symmetry_2
Mg0 Mg1 3.035595 1_555
Mg0 Mg9 3.055061 1_454
Mg0 Mg9 3.055061 1_554
Mg0 Zr0 3.062874 1_555
Mg0 Mg8 3.102469 1_554
Mg0 Mg5 3.114956 1_455
Mg0 Mg5 3.114956 1_555
Mg0 Mg1 3.230806 1_545
Mg0 Mg2 3.263087 1_555
Mg0 Zr1 3.302690 1_554
Mg1 Mg10 3.055061 1_454
Mg1 Mg10 3.055061 1_554
Mg1 Zr0 3.062874 1_555
Mg1 Mg8 3.102469 1_554
Mg1 Mg5 3.114956 1_465
Mg1 Mg5 3.114956 1_565
Mg1 Mg2 3.263087 1_565
Mg1 Zr1 3.302690 1_564
Mg2 Mg4 3.087706 1_555
Mg2 Mg4 3.087706 1_455
Mg2 Mg3 3.087706 1_445
Mg2 Mg3 3.087706 1_545
Mg2 Mg5 3.098424 1_455
Mg2 Mg5 3.098424 1_555
Mg2 Mg7 3.102469 1_555
Mg2 Mg6 3.102469 1_545
Mg2 Zr0 3.138074 1_545
Mg2 Zr0 3.138074 1_555
Mg3 Mg6 3.055061 1_555
Mg3 Mg6 3.055061 1_655
Mg3 Mg4 3.076527 1_555
Mg3 Zr0 3.115918 1_655
Mg3 Zr0 3.115918 1_555
Mg3 Mg4 3.189874 1_565
Mg3 Mg5 3.205633 1_565
Mg4 Mg7 3.055061 1_655
Mg4 Mg7 3.055061 1_555
Mg4 Zr0 3.115918 1_555
Mg4 Zr0 3.115918 1_655
Mg4 Mg5 3.205633 1_555
Mg5 Mg9 3.160008 1_554
Mg6 Mg7 3.035595 1_565
Mg6 Zr1 3.062874 1_565
Mg6 Mg7 3.230806 1_555
Mg6 Mg8 3.263087 1_555
Mg6 Zr0 3.302690 1_555
Mg7 Zr1 3.062874 1_555
Mg7 Mg8 3.263087 1_555
Mg7 Zr0 3.302690 1_555
Mg8 Mg9 3.087706 1_555
Mg8 Mg9 3.087706 1_455
Mg8 Zr1 3.138074 1_565
Mg8 Zr1 3.138074 1_555
Mg9 Zr1 3.115918 1_555
Mg9 Zr1 3.115918 1_655
Mg10 Mg9 3.076527 1_565
Mg10 Mg8 3.087706 1_655
Mg10 Mg8 3.087706 1_555
Mg10 Zr1 3.115918 1_565
Mg10 Zr1 3.115918 1_665
Mg10 Mg5 3.160008 1_566
Mg10 Mg9 3.189874 1_555
Mg10 Mg11 3.205633 1_555
Mg11 Mg8 3.098424 1_655
Mg11 Mg8 3.098424 1_555
Mg11 Mg6 3.114956 1_655
Mg11 Mg6 3.114956 1_555
Mg11 Mg7 3.114956 1_555
Mg11 Mg7 3.114956 1_655
Mg11 Mg3 3.160008 1_555
Mg11 Mg4 3.160008 1_555
Mg11 Mg9 3.205633 1_555
Cr0 Zr0 2.921906 1_555
Cr0 Zr0 2.921906 1_655
Cr0 Mg3 3.058611 1_555
Cr0 Mg4 3.058611 1_555
Cr0 Mg1 3.111800 1_555
Cr0 Mg1 3.111800 1_655
Cr0 Mg0 3.111800 1_555
Cr0 Mg0 3.111800 1_655
Cr0 Mg5 3.136197 1_555
Cr0 Mg5 3.136197 1_565
Cr0 Mg10 3.307358 1_554
Cr0 Mg9 3.307358 1_554
Cr1 Zr1 2.921906 1_655
Cr1 Zr1 2.921906 1_555
Cr1 Mg9 3.058611 1_555
Cr1 Mg10 3.058611 1_545
Cr1 Mg7 3.111800 1_555
Cr1 Mg7 3.111800 1_655
Cr1 Mg6 3.111800 1_545
Cr1 Mg6 3.111800 1_645
Cr1 Mg11 3.136197 1_555
Cr1 Mg11 3.136197 1_545
Cr1 Mg4 3.307358 1_555
Cr1 Mg3 3.307358 1_545
