# generated using pymatgen
data_La2(SO7)3
_symmetry_space_group_name_H-M   'P 1'
_cell_length_a   10.54341951
_cell_length_b   10.54341951
_cell_length_c   8.10230400
_cell_angle_alpha   90.00000000
_cell_angle_beta   90.00000000
_cell_angle_gamma   119.99999694
_symmetry_Int_Tables_number   1
_chemical_formula_structural   La2(SO7)3
_chemical_formula_sum   'La4 S6 O42'
_cell_volume   780.01356077
_cell_formula_units_Z   2
loop_
 _symmetry_equiv_pos_site_id
 _symmetry_equiv_pos_as_xyz
  1  'x, y, z'
loop_
 _atom_site_type_symbol
 _atom_site_label
 _atom_site_symmetry_multiplicity
 _atom_site_fract_x
 _atom_site_fract_y
 _atom_site_fract_z
 _atom_site_occupancy
  La  La0  1  0.00000000  0.00000000  0.50000000  1
  La  La1  1  0.00000000  0.00000000  0.00000000  1
  La  La2  1  0.33333300  0.66666700  0.75000000  1
  La  La3  1  0.66666700  0.33333300  0.25000000  1
  S  S0  1  0.77544700  0.73231200  0.25000000  1
  S  S1  1  0.95686500  0.22455300  0.25000000  1
  S  S2  1  0.26768800  0.04313500  0.25000000  1
  S  S3  1  0.22455300  0.26768800  0.75000000  1
  S  S4  1  0.04313500  0.77544700  0.75000000  1
  S  S5  1  0.73231200  0.95686500  0.75000000  1
  O  O0  1  0.94083400  0.82416500  0.25000000  1
  O  O1  1  0.88333100  0.05916600  0.25000000  1
  O  O2  1  0.17583500  0.11666900  0.25000000  1
  O  O3  1  0.05916600  0.17583500  0.75000000  1
  O  O4  1  0.11666900  0.94083400  0.75000000  1
  O  O5  1  0.82416500  0.88333100  0.75000000  1
  O  O6  1  0.73392400  0.57062500  0.25000000  1
  O  O7  1  0.83670100  0.26607600  0.25000000  1
  O  O8  1  0.42937500  0.16329900  0.25000000  1
  O  O9  1  0.26607600  0.42937500  0.75000000  1
  O  O10  1  0.16329900  0.73392400  0.75000000  1
  O  O11  1  0.57062500  0.83670100  0.75000000  1
  O  O12  1  0.72261200  0.76274500  0.40392700  1
  O  O13  1  0.04013300  0.27738800  0.40392700  1
  O  O14  1  0.23725500  0.95986700  0.40392700  1
  O  O15  1  0.27738800  0.23725500  0.90392700  1
  O  O16  1  0.95986700  0.72261200  0.90392700  1
  O  O17  1  0.76274500  0.04013300  0.90392700  1
  O  O18  1  0.27738800  0.23725500  0.59607300  1
  O  O19  1  0.95986700  0.72261200  0.59607300  1
  O  O20  1  0.76274500  0.04013300  0.59607300  1
  O  O21  1  0.72261200  0.76274500  0.09607300  1
  O  O22  1  0.04013300  0.27738800  0.09607300  1
  O  O23  1  0.23725500  0.95986700  0.09607300  1
  O  O24  1  0.11084800  0.60571100  0.25000000  1
  O  O25  1  0.49486300  0.88915200  0.25000000  1
  O  O26  1  0.39428900  0.50513700  0.25000000  1
  O  O27  1  0.88915200  0.39428900  0.75000000  1
  O  O28  1  0.50513700  0.11084800  0.75000000  1
  O  O29  1  0.60571100  0.49486300  0.75000000  1
  O  O30  1  0.41003500  0.57731100  0.38586800  1
  O  O31  1  0.16727700  0.58996500  0.38586800  1
  O  O32  1  0.42268900  0.83272300  0.38586800  1
  O  O33  1  0.58996500  0.42268900  0.88586800  1
  O  O34  1  0.83272300  0.41003500  0.88586800  1
  O  O35  1  0.57731100  0.16727700  0.88586800  1
  O  O36  1  0.58996500  0.42268900  0.61413200  1
  O  O37  1  0.83272300  0.41003500  0.61413200  1
  O  O38  1  0.57731100  0.16727700  0.61413200  1
  O  O39  1  0.41003500  0.57731100  0.11413200  1
  O  O40  1  0.16727700  0.58996500  0.11413200  1
  O  O41  1  0.42268900  0.83272300  0.11413200  1
loop_
_geom_bond_atom_site_label_1
_geom_bond_atom_site_label_2
_geom_bond_distance
_geom_bond_site_symmetry_2
La0 O1 2.602415 1_455
La0 O4 2.602415 1_545
La0 O3 2.602416 1_555
La0 O0 2.602416 1_445
La0 O2 2.602416 1_555
La0 O5 2.602416 1_445
La0 O20 2.846198 1_455
La0 O14 2.846198 1_545
La0 O13 2.846198 1_555
La0 O19 2.846198 1_445
La0 O18 2.846198 1_555
La0 O12 2.846198 1_445
La1 O1 2.602415 1_455
La1 O4 2.602415 1_544
La1 O3 2.602416 1_554
La1 O0 2.602416 1_445
La1 O2 2.602416 1_555
La1 O5 2.602416 1_444
La1 O17 2.846198 1_454
La1 O23 2.846198 1_545
La1 O22 2.846198 1_555
La1 O16 2.846198 1_444
La1 O15 2.846198 1_554
La1 O21 2.846198 1_445
La2 O10 2.233390 1_555
La2 O11 2.233398 1_555
La2 O9 2.233400 1_555
La3 O7 2.233390 1_555
La3 O8 2.233398 1_555
La3 O6 2.233400 1_555
O0 S0 1.513212 1_555
O1 S1 1.513212 1_555
O2 S2 1.513212 1_555
O3 S3 1.513212 1_555
O4 S4 1.513212 1_555
O5 S5 1.513212 1_555
O6 S0 1.533447 1_555
O7 S1 1.533447 1_555
O8 S2 1.533447 1_555
O9 S3 1.533447 1_555
O10 S4 1.533447 1_555
O11 S5 1.533447 1_555
O12 S0 1.465412 1_555
O13 S1 1.465412 1_455
O14 S2 1.465412 1_565
O15 S3 1.465412 1_555
O16 S4 1.465412 1_655
O17 S5 1.465412 1_545
O18 S3 1.465412 1_555
O19 S4 1.465412 1_655
O20 S5 1.465412 1_545
O21 S0 1.465412 1_555
O22 S1 1.465412 1_455
O23 S2 1.465412 1_565
O24 O31 1.300831 1_555
O24 O40 1.300831 1_555
O25 O32 1.300828 1_555
O25 O41 1.300828 1_555
O26 O39 1.300826 1_555
O26 O30 1.300826 1_555
O27 O37 1.300831 1_555
O27 O34 1.300831 1_555
O28 O35 1.300828 1_555
O28 O38 1.300828 1_555
O29 O36 1.300826 1_555
O29 O33 1.300826 1_555
