# generated using pymatgen
data_Tb6Al43Mo4
_symmetry_space_group_name_H-M   'P 1'
_cell_length_a   11.07310592
_cell_length_b   11.07310592
_cell_length_c   17.63055700
_cell_angle_alpha   90.00000000
_cell_angle_beta   90.00000000
_cell_angle_gamma   119.99999951
_symmetry_Int_Tables_number   1
_chemical_formula_structural   Tb6Al43Mo4
_chemical_formula_sum   'Tb12 Al86 Mo8'
_cell_volume   1872.12815710
_cell_formula_units_Z   2
loop_
 _symmetry_equiv_pos_site_id
 _symmetry_equiv_pos_as_xyz
  1  'x, y, z'
loop_
 _atom_site_type_symbol
 _atom_site_label
 _atom_site_symmetry_multiplicity
 _atom_site_fract_x
 _atom_site_fract_y
 _atom_site_fract_z
 _atom_site_occupancy
  Tb  Tb0  1  0.46901800  0.46901800  0.90479700  1
  Tb  Tb1  1  0.53098200  0.00000000  0.90479700  1
  Tb  Tb2  1  0.00000000  0.53098200  0.90479700  1
  Tb  Tb3  1  0.53098200  0.53098200  0.09520300  1
  Tb  Tb4  1  0.46901800  0.00000000  0.09520300  1
  Tb  Tb5  1  0.00000000  0.46901800  0.09520300  1
  Tb  Tb6  1  0.53098200  0.53098200  0.40479700  1
  Tb  Tb7  1  0.46901800  0.00000000  0.40479700  1
  Tb  Tb8  1  0.00000000  0.46901800  0.40479700  1
  Tb  Tb9  1  0.46901800  0.46901800  0.59520300  1
  Tb  Tb10  1  0.53098200  0.00000000  0.59520300  1
  Tb  Tb11  1  0.00000000  0.53098200  0.59520300  1
  Al  Al0  1  0.84172700  0.23602200  0.83630000  1
  Al  Al1  1  0.76397800  0.60570500  0.83630000  1
  Al  Al2  1  0.39429500  0.15827300  0.83630000  1
  Al  Al3  1  0.23602200  0.84172700  0.83630000  1
  Al  Al4  1  0.60570500  0.76397800  0.83630000  1
  Al  Al5  1  0.15827300  0.39429500  0.83630000  1
  Al  Al6  1  0.15827300  0.76397800  0.16370000  1
  Al  Al7  1  0.23602200  0.39429500  0.16370000  1
  Al  Al8  1  0.60570500  0.84172700  0.16370000  1
  Al  Al9  1  0.76397800  0.15827300  0.16370000  1
  Al  Al10  1  0.39429500  0.23602200  0.16370000  1
  Al  Al11  1  0.84172700  0.60570500  0.16370000  1
  Al  Al12  1  0.15827300  0.76397800  0.33630000  1
  Al  Al13  1  0.23602200  0.39429500  0.33630000  1
  Al  Al14  1  0.60570500  0.84172700  0.33630000  1
  Al  Al15  1  0.76397800  0.15827300  0.33630000  1
  Al  Al16  1  0.39429500  0.23602200  0.33630000  1
  Al  Al17  1  0.84172700  0.60570500  0.33630000  1
  Al  Al18  1  0.84172700  0.23602200  0.66370000  1
  Al  Al19  1  0.76397800  0.60570500  0.66370000  1
  Al  Al20  1  0.39429500  0.15827300  0.66370000  1
  Al  Al21  1  0.23602200  0.84172700  0.66370000  1
  Al  Al22  1  0.60570500  0.76397800  0.66370000  1
  Al  Al23  1  0.15827300  0.39429500  0.66370000  1
  Al  Al24  1  0.84108200  0.84108200  0.38503400  1
  Al  Al25  1  0.15891800  0.00000000  0.38503400  1
  Al  Al26  1  0.00000000  0.15891800  0.38503400  1
  Al  Al27  1  0.15891800  0.15891800  0.61496600  1
  Al  Al28  1  0.84108200  0.00000000  0.61496600  1
  Al  Al29  1  0.00000000  0.84108200  0.61496600  1
  Al  Al30  1  0.15891800  0.15891800  0.88503400  1
  Al  Al31  1  0.84108200  0.00000000  0.88503400  1
  Al  Al32  1  0.00000000  0.84108200  0.88503400  1
  Al  Al33  1  0.84108200  0.84108200  0.11496600  1
  Al  Al34  1  0.15891800  0.00000000  0.11496600  1
  Al  Al35  1  0.00000000  0.15891800  0.11496600  1
  Al  Al36  1  0.74634900  0.74634900  0.96938400  1
  Al  Al37  1  0.25365100  0.00000000  0.96938400  1
  Al  Al38  1  0.00000000  0.25365100  0.96938400  1
  Al  Al39  1  0.25365100  0.25365100  0.03061600  1
  Al  Al40  1  0.74634900  0.00000000  0.03061600  1
  Al  Al41  1  0.00000000  0.74634900  0.03061600  1
  Al  Al42  1  0.25365100  0.25365100  0.46938400  1
  Al  Al43  1  0.74634900  0.00000000  0.46938400  1
  Al  Al44  1  0.00000000  0.74634900  0.46938400  1
  Al  Al45  1  0.74634900  0.74634900  0.53061600  1
  Al  Al46  1  0.25365100  0.00000000  0.53061600  1
  Al  Al47  1  0.00000000  0.25365100  0.53061600  1
  Al  Al48  1  0.85252200  0.44856600  0.75000000  1
  Al  Al49  1  0.55143400  0.40395600  0.75000000  1
  Al  Al50  1  0.59604400  0.14747800  0.75000000  1
  Al  Al51  1  0.44856600  0.85252200  0.75000000  1
  Al  Al52  1  0.40395600  0.55143400  0.75000000  1
  Al  Al53  1  0.14747800  0.59604400  0.75000000  1
  Al  Al54  1  0.14747800  0.55143400  0.25000000  1
  Al  Al55  1  0.44856600  0.59604400  0.25000000  1
  Al  Al56  1  0.40395600  0.85252200  0.25000000  1
  Al  Al57  1  0.55143400  0.14747800  0.25000000  1
  Al  Al58  1  0.59604400  0.44856600  0.25000000  1
  Al  Al59  1  0.85252200  0.40395600  0.25000000  1
  Al  Al60  1  0.75281800  0.24718200  0.00000000  1
  Al  Al61  1  0.75281800  0.50563500  0.00000000  1
  Al  Al62  1  0.49436500  0.24718200  0.00000000  1
  Al  Al63  1  0.24718200  0.75281800  0.00000000  1
  Al  Al64  1  0.50563500  0.75281800  0.00000000  1
  Al  Al65  1  0.24718200  0.49436500  0.00000000  1
  Al  Al66  1  0.24718200  0.75281800  0.50000000  1
  Al  Al67  1  0.24718200  0.49436500  0.50000000  1
  Al  Al68  1  0.50563500  0.75281800  0.50000000  1
  Al  Al69  1  0.75281800  0.24718200  0.50000000  1
  Al  Al70  1  0.49436500  0.24718200  0.50000000  1
  Al  Al71  1  0.75281800  0.50563500  0.50000000  1
  Al  Al72  1  0.66666700  0.33333300  0.87370200  1
  Al  Al73  1  0.33333300  0.66666700  0.87370200  1
  Al  Al74  1  0.33333300  0.66666700  0.12629800  1
  Al  Al75  1  0.66666700  0.33333300  0.12629800  1
  Al  Al76  1  0.33333300  0.66666700  0.37370200  1
  Al  Al77  1  0.66666700  0.33333300  0.37370200  1
  Al  Al78  1  0.66666700  0.33333300  0.62629800  1
  Al  Al79  1  0.33333300  0.66666700  0.62629800  1
  Al  Al80  1  0.85300300  0.85300300  0.75000000  1
  Al  Al81  1  0.14699700  0.00000000  0.75000000  1
  Al  Al82  1  0.00000000  0.14699700  0.75000000  1
  Al  Al83  1  0.14699700  0.14699700  0.25000000  1
  Al  Al84  1  0.85300300  0.00000000  0.25000000  1
  Al  Al85  1  0.00000000  0.85300300  0.25000000  1
  Mo  Mo0  1  0.27018500  0.27018500  0.75000000  1
  Mo  Mo1  1  0.72981500  0.00000000  0.75000000  1
  Mo  Mo2  1  0.00000000  0.72981500  0.75000000  1
  Mo  Mo3  1  0.72981500  0.72981500  0.25000000  1
  Mo  Mo4  1  0.27018500  0.00000000  0.25000000  1
  Mo  Mo5  1  0.00000000  0.27018500  0.25000000  1
  Mo  Mo6  1  0.00000000  0.00000000  0.00000000  1
  Mo  Mo7  1  0.00000000  0.00000000  0.50000000  1
loop_
_geom_bond_atom_site_label_1
_geom_bond_atom_site_label_2
_geom_bond_distance
_geom_bond_site_symmetry_2
Tb0 Tb3 3.426366 1_556
Tb1 Tb4 3.426366 1_556
Tb2 Tb5 3.426366 1_556
Tb6 Tb9 3.426366 1_555
Tb10 Tb7 3.426366 1_555
Tb11 Tb8 3.426366 1_555
Al0 Al72 2.728056 1_555
Al0 Mo1 2.728067 1_555
Al0 Al31 2.747724 1_555
Al0 Al48 2.754459 1_555
Al0 Al50 2.830191 1_555
Al0 Al82 2.843581 1_655
Al0 Al38 2.876254 1_655
Al0 Al5 3.035547 1_655
Al0 Al18 3.043034 1_555
Al0 Al60 3.071786 1_556
Al0 Tb2 3.077881 1_655
Al0 Tb1 3.337038 1_555
Al1 Al72 2.728066 1_555
Al1 Mo2 2.728067 1_655
Al1 Al32 2.747724 1_655
Al1 Al49 2.754459 1_555
Al1 Al48 2.830191 1_555
Al1 Al80 2.843581 1_555
Al1 Al36 2.876254 1_555
Al1 Al4 3.035547 1_555
Al1 Al19 3.043034 1_555
Al1 Al61 3.071790 1_556
Al1 Tb0 3.077881 1_555
Al1 Tb2 3.337038 1_655
Al2 Al72 2.728064 1_555
Al2 Mo0 2.728067 1_555
Al2 Al30 2.747724 1_555
Al2 Al50 2.754459 1_555
Al2 Al49 2.830191 1_555
Al2 Al81 2.843581 1_555
Al2 Al37 2.876254 1_555
Al2 Al3 3.035547 1_545
Al2 Al20 3.043034 1_555
Al2 Al62 3.071788 1_556
Al2 Tb1 3.077881 1_555
Al2 Tb0 3.337038 1_555
Al3 Al73 2.728056 1_555
Al3 Mo2 2.728067 1_555
Al3 Al32 2.747724 1_555
Al3 Al51 2.754459 1_555
Al3 Al53 2.830191 1_555
Al3 Al81 2.843581 1_565
Al3 Al37 2.876254 1_565
Al3 Al63 3.071786 1_556
Al3 Tb1 3.077881 1_565
Al3 Tb2 3.337038 1_555
Al4 Al73 2.728066 1_555
Al4 Mo1 2.728067 1_565
Al4 Al52 2.754459 1_555
Al4 Al51 2.830191 1_555
Al4 Al80 2.843581 1_555
Al4 Al64 3.071790 1_556
Al4 Tb0 3.077881 1_555
Al4 Tb1 3.337038 1_565
Al5 Al73 2.728064 1_555
Al5 Mo0 2.728067 1_555
Al5 Al53 2.754459 1_555
Al5 Al52 2.830191 1_555
Al5 Al82 2.843581 1_555
Al5 Al65 3.071788 1_556
Al5 Tb2 3.077881 1_555
Al5 Tb0 3.337038 1_555
Al6 Al74 2.728056 1_555
Al6 Mo4 2.728067 1_565
Al6 Al85 2.843581 1_555
Al6 Al63 3.071786 1_555
Al6 Tb5 3.077881 1_555
Al6 Tb4 3.337038 1_565
Al7 Al74 2.728066 1_555
Al7 Mo5 2.728067 1_555
Al7 Al83 2.843581 1_555
Al7 Tb3 3.077881 1_555
Al7 Tb5 3.337038 1_555
Al8 Mo3 2.728067 1_555
Al8 Al84 2.843581 1_565
Al8 Al9 3.035547 1_565
Al8 Tb4 3.077881 1_565
Al8 Tb3 3.337038 1_555
Al9 Mo5 2.728067 1_655
Al9 Tb4 3.077881 1_555
Al9 Tb5 3.337038 1_655
Al10 Al75 2.728066 1_555
Al10 Mo4 2.728067 1_555
Al10 Al34 2.747724 1_555
Al10 Al58 2.754459 1_555
Al10 Al57 2.830191 1_555
Al10 Al83 2.843581 1_555
Al10 Al39 2.876254 1_555
Al10 Al7 3.035547 1_555
Al10 Al16 3.043034 1_555
Al10 Al62 3.071790 1_555
Al10 Tb3 3.077881 1_555
Al10 Tb4 3.337038 1_555
Al11 Al75 2.728064 1_555
Al11 Mo3 2.728067 1_555
Al11 Al33 2.747724 1_555
Al11 Al59 2.754459 1_555
Al11 Al58 2.830191 1_555
Al11 Al85 2.843581 1_655
Al11 Al41 2.876254 1_655
Al11 Al6 3.035547 1_655
Al11 Al17 3.043034 1_555
Al11 Al61 3.071788 1_555
Al11 Tb5 3.077881 1_655
Al11 Tb3 3.337038 1_555
Al12 Al76 2.728056 1_555
Al12 Mo4 2.728067 1_565
Al12 Al25 2.747724 1_565
Al12 Al54 2.754459 1_555
Al12 Al56 2.830191 1_555
Al12 Al85 2.843581 1_555
Al12 Al44 2.876254 1_555
Al12 Al17 3.035547 1_455
Al12 Al6 3.043034 1_555
Al12 Al66 3.071786 1_555
Al12 Tb8 3.077881 1_555
Al12 Tb7 3.337038 1_565
Al13 Al76 2.728066 1_555
Al13 Mo5 2.728067 1_555
Al13 Al26 2.747724 1_555
Al13 Al55 2.754459 1_555
Al13 Al54 2.830191 1_555
Al13 Al83 2.843581 1_555
Al13 Al42 2.876254 1_555
Al13 Al16 3.035547 1_555
Al13 Al7 3.043034 1_555
Al13 Al67 3.071790 1_555
Al13 Tb6 3.077881 1_555
Al13 Tb8 3.337038 1_555
Al14 Al76 2.728064 1_555
Al14 Mo3 2.728067 1_555
Al14 Al24 2.747724 1_555
Al14 Al56 2.754459 1_555
Al14 Al55 2.830191 1_555
Al14 Al84 2.843581 1_565
Al14 Al43 2.876254 1_565
Al14 Al15 3.035547 1_565
Al14 Al8 3.043034 1_555
Al14 Al68 3.071788 1_555
Al14 Tb7 3.077881 1_565
Al14 Tb6 3.337038 1_555
Al15 Al77 2.728056 1_555
Al15 Mo5 2.728067 1_655
Al15 Al26 2.747724 1_655
Al15 Al57 2.754459 1_555
Al15 Al59 2.830191 1_555
Al15 Al84 2.843581 1_555
Al15 Al43 2.876254 1_555
Al15 Al9 3.043034 1_555
Al15 Al69 3.071786 1_555
Al15 Tb7 3.077881 1_555
Al15 Tb8 3.337038 1_655
Al16 Al77 2.728066 1_555
Al16 Mo4 2.728067 1_555
Al16 Al25 2.747724 1_555
Al16 Al58 2.754459 1_555
Al16 Al57 2.830191 1_555
Al16 Al83 2.843581 1_555
Al16 Al42 2.876254 1_555
Al16 Al70 3.071790 1_555
Al16 Tb6 3.077881 1_555
Al16 Tb7 3.337038 1_555
Al17 Al77 2.728064 1_555
Al17 Mo3 2.728067 1_555
Al17 Al24 2.747724 1_555
Al17 Al59 2.754459 1_555
Al17 Al58 2.830191 1_555
Al17 Al85 2.843581 1_655
Al17 Al44 2.876254 1_655
Al17 Al71 3.071788 1_555
Al17 Tb8 3.077881 1_655
Al17 Tb6 3.337038 1_555
Al18 Al78 2.728056 1_555
Al18 Mo1 2.728067 1_555
Al18 Al28 2.747724 1_555
Al18 Al48 2.754459 1_555
Al18 Al50 2.830191 1_555
Al18 Al82 2.843581 1_655
Al18 Al47 2.876254 1_655
Al18 Al23 3.035547 1_655
Al18 Al69 3.071786 1_555
Al18 Tb11 3.077881 1_655
Al18 Tb10 3.337038 1_555
Al19 Al78 2.728066 1_555
Al19 Mo2 2.728067 1_655
Al19 Al29 2.747724 1_655
Al19 Al49 2.754459 1_555
Al19 Al48 2.830191 1_555
Al19 Al80 2.843581 1_555
Al19 Al45 2.876254 1_555
Al19 Al22 3.035547 1_555
Al19 Al71 3.071790 1_555
Al19 Tb9 3.077881 1_555
Al19 Tb11 3.337038 1_655
Al20 Al78 2.728064 1_555
Al20 Mo0 2.728067 1_555
Al20 Al27 2.747724 1_555
Al20 Al50 2.754459 1_555
Al20 Al49 2.830191 1_555
Al20 Al81 2.843581 1_555
Al20 Al46 2.876254 1_555
Al20 Al21 3.035547 1_545
Al20 Al70 3.071788 1_555
Al20 Tb10 3.077881 1_555
Al20 Tb9 3.337038 1_555
Al21 Al79 2.728056 1_555
Al21 Mo2 2.728067 1_555
Al21 Al29 2.747724 1_555
Al21 Al51 2.754459 1_555
Al21 Al53 2.830191 1_555
Al21 Al81 2.843581 1_565
Al21 Al46 2.876254 1_565
Al21 Al3 3.043034 1_555
Al21 Al66 3.071786 1_555
Al21 Tb10 3.077881 1_565
Al21 Tb11 3.337038 1_555
Al22 Al79 2.728066 1_555
Al22 Mo1 2.728067 1_565
Al22 Al28 2.747724 1_565
Al22 Al52 2.754459 1_555
Al22 Al51 2.830191 1_555
Al22 Al80 2.843581 1_555
Al22 Al45 2.876254 1_555
Al22 Al4 3.043034 1_555
Al22 Al68 3.071790 1_555
Al22 Tb9 3.077881 1_555
Al22 Tb10 3.337038 1_565
Al23 Al79 2.728064 1_555
Al23 Mo0 2.728067 1_555
Al23 Al27 2.747724 1_555
Al23 Al53 2.754459 1_555
Al23 Al52 2.830191 1_555
Al23 Al82 2.843581 1_555
Al23 Al47 2.876254 1_555
Al23 Al5 3.043034 1_555
Al23 Al67 3.071788 1_555
Al23 Tb11 3.077881 1_555
Al23 Tb9 3.337038 1_555
Al24 Mo3 2.680643 1_555
Al24 Mo7 2.684210 1_665
Al24 Al45 2.772775 1_555
Al24 Al43 2.873060 1_565
Al24 Al44 2.873060 1_655
Al24 Al84 2.923968 1_565
Al24 Al85 2.923968 1_655
Al24 Al25 3.047917 1_665
Al24 Al26 3.047917 1_665
Al24 Tb6 3.451403 1_555
Al25 Mo4 2.680643 1_555
Al25 Mo7 2.684210 1_555
Al25 Al46 2.772775 1_555
Al25 Al42 2.873060 1_555
Al25 Al44 2.873060 1_545
Al25 Al83 2.923968 1_555
Al25 Al85 2.923968 1_545
Al25 Al26 3.047917 1_555
Al25 Tb7 3.451403 1_555
Al26 Mo5 2.680643 1_555
Al26 Mo7 2.684210 1_555
Al26 Al47 2.772775 1_555
Al26 Al42 2.873060 1_555
Al26 Al43 2.873060 1_455
Al26 Al83 2.923968 1_555
Al26 Al84 2.923968 1_455
Al26 Tb8 3.451403 1_555
Al27 Mo0 2.680643 1_555
Al27 Mo7 2.684210 1_555
Al27 Al42 2.772775 1_555
Al27 Al47 2.873060 1_555
Al27 Al46 2.873060 1_555
Al27 Al82 2.923968 1_555
Al27 Al81 2.923968 1_555
Al27 Al29 3.047917 1_545
Al27 Al28 3.047917 1_455
Al27 Tb9 3.451403 1_555
Al28 Mo1 2.680643 1_555
Al28 Mo7 2.684210 1_655
Al28 Al43 2.772775 1_555
Al28 Al45 2.873060 1_545
Al28 Al47 2.873060 1_655
Al28 Al80 2.923968 1_545
Al28 Al82 2.923968 1_655
Al28 Al29 3.047917 1_645
Al28 Tb10 3.451403 1_555
Al29 Mo2 2.680643 1_555
Al29 Mo7 2.684210 1_565
Al29 Al44 2.772775 1_555
Al29 Al45 2.873060 1_455
Al29 Al46 2.873060 1_565
Al29 Al80 2.923968 1_455
Al29 Al81 2.923968 1_565
Al29 Tb11 3.451403 1_555
Al30 Mo0 2.680643 1_555
Al30 Mo6 2.684210 1_556
Al30 Al5 2.747724 1_555
Al30 Al39 2.772775 1_556
Al30 Al37 2.873060 1_555
Al30 Al38 2.873060 1_555
Al30 Al82 2.923968 1_555
Al30 Al81 2.923968 1_555
Al30 Al31 3.047917 1_455
Al30 Al32 3.047917 1_545
Al30 Tb0 3.451403 1_555
Al31 Mo1 2.680643 1_555
Al31 Mo6 2.684210 1_656
Al31 Al4 2.747724 1_545
Al31 Al40 2.772775 1_556
Al31 Al36 2.873060 1_545
Al31 Al38 2.873060 1_655
Al31 Al80 2.923968 1_545
Al31 Al82 2.923968 1_655
Al31 Al32 3.047917 1_645
Al31 Tb1 3.451403 1_555
Al32 Mo2 2.680643 1_555
Al32 Mo6 2.684210 1_566
Al32 Al41 2.772775 1_556
Al32 Al36 2.873060 1_455
Al32 Al37 2.873060 1_565
Al32 Al80 2.923968 1_455
Al32 Al81 2.923968 1_565
Al32 Tb2 3.451403 1_555
Al33 Mo3 2.680643 1_555
Al33 Mo6 2.684210 1_665
Al33 Al8 2.747724 1_555
Al33 Al36 2.772775 1_554
Al33 Al41 2.873060 1_655
Al33 Al40 2.873060 1_565
Al33 Al84 2.923968 1_565
Al33 Al85 2.923968 1_655
Al33 Al34 3.047917 1_665
Al33 Al35 3.047917 1_665
Al33 Tb3 3.451403 1_555
Al34 Mo4 2.680643 1_555
Al34 Mo6 2.684210 1_555
Al34 Al6 2.747724 1_545
Al34 Al37 2.772775 1_554
Al34 Al39 2.873060 1_555
Al34 Al41 2.873060 1_545
Al34 Al83 2.923968 1_555
Al34 Al85 2.923968 1_545
Al34 Al35 3.047917 1_555
Al34 Tb4 3.451403 1_555
Al35 Mo5 2.680643 1_555
Al35 Mo6 2.684210 1_555
Al35 Al9 2.747724 1_455
Al35 Al7 2.747724 1_555
Al35 Al38 2.772775 1_554
Al35 Al39 2.873060 1_555
Al35 Al40 2.873060 1_455
Al35 Al83 2.923968 1_555
Al35 Al84 2.923968 1_455
Al35 Tb5 3.451403 1_555
Al36 Al64 2.755368 1_556
Al36 Al61 2.755368 1_556
Al36 Mo6 2.860101 1_666
Al36 Al4 2.876254 1_555
Al36 Al41 3.009029 1_656
Al36 Al40 3.009029 1_566
Al36 Tb3 3.256970 1_556
Al36 Tb0 3.275236 1_555
Al37 Al63 2.755357 1_546
Al37 Al62 2.755363 1_556
Al37 Mo6 2.860101 1_556
Al37 Al39 3.009029 1_556
Al37 Al41 3.009029 1_546
Al37 Tb4 3.256970 1_556
Al37 Tb1 3.275236 1_555
Al38 Al60 2.755357 1_456
Al38 Al65 2.755363 1_556
Al38 Mo6 2.860101 1_556
Al38 Al5 2.876254 1_555
Al38 Al39 3.009029 1_556
Al38 Al40 3.009029 1_456
Al38 Tb5 3.256970 1_556
Al38 Tb2 3.275236 1_555
Al39 Al62 2.755368 1_555
Al39 Al65 2.755368 1_555
Al39 Mo6 2.860101 1_555
Al39 Al7 2.876254 1_555
Al39 Tb0 3.256970 1_554
Al39 Tb3 3.275236 1_555
Al40 Al60 2.755357 1_555
Al40 Al64 2.755363 1_545
Al40 Mo6 2.860101 1_655
Al40 Al9 2.876254 1_555
Al40 Al8 2.876254 1_545
Al40 Tb1 3.256970 1_554
Al40 Tb4 3.275236 1_555
Al41 Al63 2.755357 1_555
Al41 Al61 2.755363 1_455
Al41 Mo6 2.860101 1_565
Al41 Al6 2.876254 1_555
Al41 Tb2 3.256970 1_554
Al41 Tb5 3.275236 1_555
Al42 Al70 2.755368 1_555
Al42 Al67 2.755368 1_555
Al42 Mo7 2.860101 1_555
Al42 Al46 3.009029 1_555
Al42 Al47 3.009029 1_555
Al42 Tb9 3.256970 1_555
Al42 Tb6 3.275236 1_555
Al43 Al69 2.755357 1_555
Al43 Al68 2.755363 1_545
Al43 Mo7 2.860101 1_655
Al43 Al45 3.009029 1_545
Al43 Al47 3.009029 1_655
Al43 Tb10 3.256970 1_555
Al43 Tb7 3.275236 1_555
Al44 Al66 2.755357 1_555
Al44 Al71 2.755363 1_455
Al44 Mo7 2.860101 1_565
Al44 Al45 3.009029 1_455
Al44 Al46 3.009029 1_565
Al44 Tb11 3.256970 1_555
Al44 Tb8 3.275236 1_555
Al45 Al68 2.755368 1_555
Al45 Al71 2.755368 1_555
Al45 Mo7 2.860101 1_665
Al45 Tb6 3.256970 1_555
Al45 Tb9 3.275236 1_555
Al46 Al66 2.755357 1_545
Al46 Al70 2.755363 1_555
Al46 Mo7 2.860101 1_555
Al46 Tb7 3.256970 1_555
Al46 Tb10 3.275236 1_555
Al47 Al69 2.755357 1_455
Al47 Al67 2.755363 1_555
Al47 Mo7 2.860101 1_555
Al47 Tb8 3.256970 1_555
Al47 Tb11 3.275236 1_555
Al48 Mo2 2.698130 1_655
Al48 Al78 2.827363 1_555
Al48 Al72 2.827363 1_555
Al48 Al53 2.828507 1_655
Al48 Tb2 3.075328 1_655
Al48 Tb11 3.075328 1_655
Al48 Al49 3.116494 1_555
Al48 Al50 3.116494 1_555
Al49 Mo0 2.698130 1_555
Al49 Al72 2.827369 1_555
Al49 Al78 2.827369 1_555
Al49 Al52 2.828507 1_555
Al49 Tb0 3.075328 1_555
Al49 Tb9 3.075328 1_555
Al49 Al50 3.116494 1_555
Al50 Mo1 2.698130 1_555
Al50 Al78 2.827362 1_555
Al50 Al72 2.827362 1_555
Al50 Al51 2.828507 1_545
Al50 Tb1 3.075328 1_555
Al50 Tb10 3.075328 1_555
Al51 Mo1 2.698130 1_565
Al51 Al79 2.827363 1_555
Al51 Al73 2.827363 1_555
Al51 Tb1 3.075328 1_565
Al51 Tb10 3.075328 1_565
Al51 Al52 3.116494 1_555
Al51 Al53 3.116494 1_555
Al52 Mo0 2.698130 1_555
Al52 Al73 2.827369 1_555
Al52 Al79 2.827369 1_555
Al52 Tb0 3.075328 1_555
Al52 Tb9 3.075328 1_555
Al52 Al53 3.116494 1_555
Al53 Mo2 2.698130 1_555
Al53 Al73 2.827362 1_555
Al53 Al79 2.827362 1_555
Al53 Tb2 3.075328 1_555
Al53 Tb11 3.075328 1_555
Al54 Mo5 2.698130 1_555
Al54 Al6 2.754459 1_555
Al54 Al76 2.827363 1_555
Al54 Al74 2.827363 1_555
Al54 Al59 2.828507 1_455
Al54 Al7 2.830191 1_555
Al54 Tb8 3.075328 1_555
Al54 Tb5 3.075328 1_555
Al54 Al55 3.116494 1_555
Al54 Al56 3.116494 1_555
Al55 Mo3 2.698130 1_555
Al55 Al7 2.754459 1_555
Al55 Al76 2.827369 1_555
Al55 Al74 2.827369 1_555
Al55 Al58 2.828507 1_555
Al55 Al8 2.830191 1_555
Al55 Tb6 3.075328 1_555
Al55 Tb3 3.075328 1_555
Al55 Al56 3.116494 1_555
Al56 Mo4 2.698130 1_565
Al56 Al8 2.754459 1_555
Al56 Al76 2.827362 1_555
Al56 Al74 2.827362 1_555
Al56 Al57 2.828507 1_565
Al56 Al6 2.830191 1_555
Al56 Tb7 3.075328 1_565
Al56 Tb4 3.075328 1_565
Al57 Mo4 2.698130 1_555
Al57 Al9 2.754459 1_555
Al57 Al77 2.827363 1_555
Al57 Al75 2.827363 1_555
Al57 Tb7 3.075328 1_555
Al57 Tb4 3.075328 1_555
Al57 Al58 3.116494 1_555
Al57 Al59 3.116494 1_555
Al58 Mo3 2.698130 1_555
Al58 Al77 2.827369 1_555
Al58 Al75 2.827369 1_555
Al58 Tb6 3.075328 1_555
Al58 Tb3 3.075328 1_555
Al58 Al59 3.116494 1_555
Al59 Mo5 2.698130 1_655
Al59 Al77 2.827362 1_555
Al59 Al75 2.827362 1_555
Al59 Al9 2.830191 1_555
Al59 Tb8 3.075328 1_655
Al59 Tb5 3.075328 1_655
Al60 Al75 2.772783 1_555
Al60 Al72 2.772783 1_554
Al60 Al62 2.861877 1_555
Al60 Al61 2.861877 1_555
Al60 Al9 3.071786 1_555
Al60 Tb1 3.101524 1_554
Al60 Tb5 3.101524 1_655
Al60 Tb4 3.403394 1_555
Al60 Tb2 3.403394 1_654
Al61 Al75 2.772783 1_555
Al61 Al72 2.772783 1_554
Al61 Al62 2.861877 1_555
Al61 Tb2 3.101520 1_654
Al61 Tb3 3.101530 1_555
Al61 Tb5 3.403388 1_655
Al61 Tb0 3.403398 1_554
Al62 Al75 2.772783 1_555
Al62 Al72 2.772783 1_554
Al62 Tb4 3.101520 1_555
Al62 Tb0 3.101530 1_554
Al62 Tb1 3.403388 1_554
Al62 Tb3 3.403398 1_555
Al63 Al74 2.772783 1_555
Al63 Al73 2.772783 1_554
Al63 Al65 2.861877 1_555
Al63 Al64 2.861877 1_555
Al63 Tb2 3.101524 1_554
Al63 Tb4 3.101524 1_565
Al63 Tb5 3.403394 1_555
Al63 Tb1 3.403394 1_564
Al64 Al74 2.772783 1_555
Al64 Al73 2.772783 1_554
Al64 Al65 2.861877 1_555
Al64 Al8 3.071788 1_555
Al64 Tb1 3.101520 1_564
Al64 Tb3 3.101530 1_555
Al64 Tb4 3.403388 1_565
Al64 Tb0 3.403398 1_554
Al65 Al74 2.772783 1_555
Al65 Al73 2.772783 1_554
Al65 Al7 3.071790 1_555
Al65 Tb5 3.101520 1_555
Al65 Tb0 3.101530 1_554
Al65 Tb2 3.403388 1_554
Al65 Tb3 3.403398 1_555
Al66 Al79 2.772783 1_555
Al66 Al76 2.772783 1_555
Al66 Al67 2.861877 1_555
Al66 Al68 2.861877 1_555
Al66 Tb11 3.101524 1_555
Al66 Tb7 3.101524 1_565
Al66 Tb10 3.403394 1_565
Al66 Tb8 3.403394 1_555
Al67 Al76 2.772783 1_555
Al67 Al79 2.772783 1_555
Al67 Al68 2.861877 1_555
Al67 Tb8 3.101520 1_555
Al67 Tb9 3.101530 1_555
Al67 Tb11 3.403388 1_555
Al67 Tb6 3.403398 1_555
Al68 Al79 2.772783 1_555
Al68 Al76 2.772783 1_555
Al68 Tb10 3.101520 1_565
Al68 Tb6 3.101530 1_555
Al68 Tb7 3.403388 1_565
Al68 Tb9 3.403398 1_555
Al69 Al77 2.772783 1_555
Al69 Al78 2.772783 1_555
Al69 Al70 2.861877 1_555
Al69 Al71 2.861877 1_555
Al69 Tb10 3.101524 1_555
Al69 Tb8 3.101524 1_655
Al69 Tb11 3.403394 1_655
Al69 Tb7 3.403394 1_555
Al70 Al77 2.772783 1_555
Al70 Al78 2.772783 1_555
Al70 Al71 2.861877 1_555
Al70 Tb7 3.101520 1_555
Al70 Tb9 3.101530 1_555
Al70 Tb10 3.403388 1_555
Al70 Tb6 3.403398 1_555
Al71 Al77 2.772783 1_555
Al71 Al78 2.772783 1_555
Al71 Tb11 3.101520 1_655
Al71 Tb6 3.101530 1_555
Al71 Tb8 3.403388 1_655
Al71 Tb9 3.403398 1_555
Al72 Tb1 3.261292 1_555
Al72 Tb2 3.261293 1_655
Al72 Tb0 3.261302 1_555
Al73 Tb2 3.261292 1_555
Al73 Tb1 3.261293 1_565
Al73 Tb0 3.261302 1_555
Al74 Al8 2.728064 1_555
Al74 Tb4 3.261292 1_565
Al74 Tb5 3.261293 1_555
Al74 Tb3 3.261302 1_555
Al75 Al9 2.728056 1_555
Al75 Tb5 3.261292 1_655
Al75 Tb4 3.261293 1_555
Al75 Tb3 3.261302 1_555
Al76 Tb7 3.261292 1_565
Al76 Tb8 3.261293 1_555
Al76 Tb6 3.261302 1_555
Al77 Tb8 3.261292 1_655
Al77 Tb7 3.261293 1_555
Al77 Tb6 3.261302 1_555
Al78 Tb10 3.261292 1_555
Al78 Tb11 3.261293 1_655
Al78 Tb9 3.261302 1_555
Al79 Tb11 3.261292 1_555
Al79 Tb10 3.261293 1_565
Al79 Tb9 3.261302 1_555
Al80 Mo2 2.594315 1_655
Al80 Mo1 2.594315 1_565
Al80 Al81 2.819282 1_665
Al80 Al82 2.819282 1_665
Al81 Mo0 2.594315 1_555
Al81 Mo2 2.594315 1_545
Al81 Al82 2.819282 1_555
Al82 Mo0 2.594315 1_555
Al82 Mo1 2.594315 1_455
Al83 Mo5 2.594315 1_555
Al83 Mo4 2.594315 1_555
Al83 Al85 2.819282 1_545
Al83 Al84 2.819282 1_455
Al84 Mo3 2.594315 1_545
Al84 Mo5 2.594315 1_655
Al84 Al85 2.819282 1_645
Al84 Al9 2.843581 1_555
Al85 Mo3 2.594315 1_455
Al85 Mo4 2.594315 1_565
Mo0 Tb0 3.506534 1_555
Mo0 Tb9 3.506534 1_555
Mo1 Tb1 3.506534 1_555
Mo1 Tb10 3.506534 1_555
Mo2 Tb2 3.506534 1_555
Mo2 Tb11 3.506534 1_555
Mo3 Tb6 3.506534 1_555
Mo3 Tb3 3.506534 1_555
Mo4 Tb7 3.506534 1_555
Mo4 Tb4 3.506534 1_555
Mo5 Tb8 3.506534 1_555
Mo5 Tb5 3.506534 1_555
