# generated using pymatgen
data_NaEuTiSnO6
_symmetry_space_group_name_H-M   'P 1'
_cell_length_a   5.64309583
_cell_length_b   5.64309583
_cell_length_c   5.64309583
_cell_angle_alpha   60.00000000
_cell_angle_beta   60.00000000
_cell_angle_gamma   60.00000000
_symmetry_Int_Tables_number   1
_chemical_formula_structural   NaEuTiSnO6
_chemical_formula_sum   'Na1 Eu1 Ti1 Sn1 O6'
_cell_volume   127.06831737
_cell_formula_units_Z   1
loop_
 _symmetry_equiv_pos_site_id
 _symmetry_equiv_pos_as_xyz
  1  'x, y, z'
loop_
 _atom_site_type_symbol
 _atom_site_label
 _atom_site_symmetry_multiplicity
 _atom_site_fract_x
 _atom_site_fract_y
 _atom_site_fract_z
 _atom_site_occupancy
  Na  Na0  1  0.25000000  0.25000000  0.25000000  1
  Eu  Eu0  1  0.75000000  0.75000000  0.75000000  1
  Ti  Ti0  1  0.50000000  0.50000000  0.50000000  1
  Sn  Sn0  1  0.00000000  0.00000000  0.00000000  1
  O  O0  1  0.74400017  0.25599983  0.25599983  1
  O  O1  1  0.25599983  0.74400017  0.74400017  1
  O  O2  1  0.74400017  0.25599983  0.74400017  1
  O  O3  1  0.25599983  0.74400017  0.25599983  1
  O  O4  1  0.74400017  0.74400017  0.25599983  1
  O  O5  1  0.25599983  0.25599983  0.74400017  1
loop_
_geom_bond_atom_site_label_1
_geom_bond_atom_site_label_2
_geom_bond_distance
_geom_bond_site_symmetry_2
Na0 O0 2.821954 1_555
Na0 O3 2.821954 1_555
Na0 O5 2.821954 1_555
Na0 O3 2.821954 1_545
Na0 O2 2.821954 1_455
Na0 O2 2.821954 1_554
Na0 O0 2.821954 1_455
Na0 O4 2.821954 1_545
Na0 O1 2.821954 1_545
Na0 O4 2.821954 1_455
Na0 O1 2.821954 1_554
Na0 O5 2.821954 1_554
Eu0 O1 2.821954 1_655
Eu0 O2 2.821954 1_565
Eu0 O0 2.821954 1_556
Eu0 O3 2.821954 1_556
Eu0 O4 2.821954 1_556
Eu0 O0 2.821954 1_565
Eu0 O3 2.821954 1_655
Eu0 O5 2.821954 1_565
Eu0 O5 2.821954 1_655
Eu0 O2 2.821954 1_555
Eu0 O1 2.821954 1_555
Eu0 O4 2.821954 1_555
O0 Ti0 1.947254 1_555
O0 Sn0 2.043018 1_655
O1 Ti0 1.947254 1_555
O1 Sn0 2.043018 1_566
O2 Ti0 1.947254 1_555
O2 Sn0 2.043018 1_656
O3 Ti0 1.947254 1_555
O3 Sn0 2.043018 1_565
O4 Ti0 1.947254 1_555
O4 Sn0 2.043018 1_665
O5 Ti0 1.947254 1_555
O5 Sn0 2.043018 1_556
