# generated using pymatgen
data_CaMn9CdO10
_symmetry_space_group_name_H-M   'P 1'
_cell_length_a   5.82598996
_cell_length_b   9.16523817
_cell_length_c   5.97054732
_cell_angle_alpha   89.13333944
_cell_angle_beta   106.01943143
_cell_angle_gamma   91.37101913
_symmetry_Int_Tables_number   1
_chemical_formula_structural   CaMn9CdO10
_chemical_formula_sum   'Ca1 Mn9 Cd1 O10'
_cell_volume   306.32721099
_cell_formula_units_Z   1
loop_
 _symmetry_equiv_pos_site_id
 _symmetry_equiv_pos_as_xyz
  1  'x, y, z'
loop_
 _atom_site_type_symbol
 _atom_site_label
 _atom_site_symmetry_multiplicity
 _atom_site_fract_x
 _atom_site_fract_y
 _atom_site_fract_z
 _atom_site_occupancy
  Ca  Ca0  1  0.61466000  0.29835900  0.33398900  1
  Mn  Mn0  1  0.46372300  0.61814600  0.22875800  1
  Mn  Mn1  1  0.01709900  0.04086300  0.88054900  1
  Mn  Mn2  1  0.47308500  0.83925100  0.61591600  1
  Mn  Mn3  1  0.93022800  0.67095600  0.12011200  1
  Mn  Mn4  1  0.12995500  0.14275800  0.38085100  1
  Mn  Mn5  1  0.50573000  0.16651300  0.83311400  1
  Mn  Mn6  1  0.40427900  0.50955400  0.71289800  1
  Mn  Mn7  1  0.90888800  0.39724500  0.84042600  1
  Mn  Mn8  1  0.96152500  0.70764800  0.63309100  1
  Cd  Cd0  1  0.61264800  0.93114900  0.20906400  1
  O  O0  1  0.80917800  0.12926100  0.13496800  1
  O  O1  1  0.67963500  0.49156500  0.04558800  1
  O  O2  1  0.81542300  0.20373900  0.67753500  1
  O  O3  1  0.69557500  0.53847500  0.54415200  1
  O  O4  1  0.32515700  0.13254000  0.12114900  1
  O  O5  1  0.21280300  0.67695000  0.44380500  1
  O  O6  1  0.81612000  0.83199400  0.84971600  1
  O  O7  1  0.25623800  0.99276600  0.66519400  1
  O  O8  1  0.32415900  0.31101800  0.56808400  1
  O  O9  1  0.16293900  0.57237500  0.93485000  1
loop_
_geom_bond_atom_site_label_1
_geom_bond_atom_site_label_2
_geom_bond_distance
_geom_bond_site_symmetry_2
Ca0 O2 2.235613 1_555
Ca0 O4 2.349919 1_555
Ca0 O0 2.445647 1_555
Ca0 O8 2.480172 1_555
Ca0 O3 2.519386 1_555
Ca0 O1 2.545462 1_555
Mn0 O3 2.122608 1_555
Mn0 O9 2.148477 1_554
Mn0 O1 2.234223 1_555
Mn0 O5 2.273894 1_555
Mn1 O2 2.078782 1_455
Mn1 O4 2.128865 1_556
Mn1 O7 2.196335 1_545
Mn1 O6 2.203181 1_445
Mn1 O0 2.351799 1_456
Mn2 O7 1.991231 1_555
Mn2 O6 2.100211 1_555
Mn2 O5 2.155556 1_555
Mn3 O1 2.140429 1_555
Mn3 O6 2.146911 1_554
Mn3 O5 2.165904 1_655
Mn3 O9 2.189634 1_654
Mn4 O0 2.035498 1_455
Mn4 O8 2.044157 1_555
Mn4 O7 2.145153 1_545
Mn4 O4 2.165429 1_555
Mn5 O8 2.111112 1_555
Mn5 O0 2.177564 1_556
Mn5 O7 2.187919 1_545
Mn5 O2 2.262874 1_555
Mn5 O4 2.264467 1_556
Mn6 O8 2.015118 1_555
Mn6 O1 2.188671 1_556
Mn6 O3 2.208966 1_555
Mn6 O9 2.270410 1_555
Mn6 O5 2.279841 1_555
Mn7 O2 2.025201 1_555
Mn7 O9 2.130268 1_655
Mn7 O1 2.240962 1_556
Mn7 O3 2.267907 1_555
Mn8 O6 2.093983 1_555
Mn8 O5 2.107600 1_655
Mn8 O3 2.131339 1_555
Mn8 O9 2.235011 1_655
Cd0 O0 2.226972 1_565
Cd0 O4 2.474113 1_565
Cd0 Mn2 2.875179 1_555
Cd0 O6 2.889390 1_554
Cd0 Mn0 2.987193 1_555
