# generated using pymatgen
data_MgAg4(PO3)4
_symmetry_space_group_name_H-M   'P 1'
_cell_length_a   13.17270957
_cell_length_b   4.31374884
_cell_length_c   6.18811098
_cell_angle_alpha   87.25945256
_cell_angle_beta   108.94423867
_cell_angle_gamma   93.11934756
_symmetry_Int_Tables_number   1
_chemical_formula_structural   MgAg4(PO3)4
_chemical_formula_sum   'Mg1 Ag4 P4 O12'
_cell_volume   331.92358485
_cell_formula_units_Z   1
loop_
 _symmetry_equiv_pos_site_id
 _symmetry_equiv_pos_as_xyz
  1  'x, y, z'
loop_
 _atom_site_type_symbol
 _atom_site_label
 _atom_site_symmetry_multiplicity
 _atom_site_fract_x
 _atom_site_fract_y
 _atom_site_fract_z
 _atom_site_occupancy
  Mg  Mg0  1  0.33087500  0.26107900  0.81118900  1
  Ag  Ag0  1  0.04402000  0.19049500  0.77690900  1
  Ag  Ag1  1  0.49070300  0.72231900  0.80561800  1
  Ag  Ag2  1  0.52945100  0.22679900  0.10628500  1
  Ag  Ag3  1  0.92438800  0.82462600  0.23966200  1
  P  P0  1  0.16199400  0.35350200  0.37645200  1
  P  P1  1  0.28768300  0.88310700  0.24925400  1
  P  P2  1  0.69603900  0.11802500  0.67715100  1
  P  P3  1  0.84806500  0.64452700  0.67851100  1
  O  O0  1  0.05693800  0.21055700  0.23947500  1
  O  O1  1  0.18220900  0.45278000  0.62090300  1
  O  O2  1  0.18851000  0.62842500  0.21820000  1
  O  O3  1  0.26255600  0.12114300  0.42547800  1
  O  O4  1  0.25868900  0.04451600  0.01628300  1
  O  O5  1  0.39338800  0.75134700  0.36727800  1
  O  O6  1  0.61242300  0.27109500  0.48441200  1
  O  O7  1  0.67171600  0.95180700  0.87350600  1
  O  O8  1  0.75714100  0.88624400  0.55916900  1
  O  O9  1  0.79354500  0.37442100  0.79521800  1
  O  O10  1  0.88370600  0.50935200  0.49415800  1
  O  O11  1  0.93707400  0.79605600  0.87238800  1
loop_
_geom_bond_atom_site_label_1
_geom_bond_atom_site_label_2
_geom_bond_distance
_geom_bond_site_symmetry_2
Mg0 O4 1.990266 1_556
Mg0 O1 2.119276 1_555
Mg0 O3 2.356942 1_555
Ag0 O11 2.326432 1_445
Ag0 O1 2.517557 1_555
Ag0 O10 2.664542 1_455
Ag0 O0 2.817031 1_556
Ag0 O4 2.823455 1_556
Ag0 O11 3.200943 1_455
Ag1 O7 2.444275 1_555
Ag1 O5 2.596898 1_555
Ag1 Ag2 2.722709 1_556
Ag1 Mg0 2.824400 1_555
Ag1 Ag2 2.847411 1_566
Ag1 Mg0 3.228373 1_565
Ag2 O6 2.250708 1_555
Ag2 Mg0 2.667134 1_554
Ag2 O7 3.025248 1_544
Ag3 O10 2.209254 1_555
Ag3 O11 2.341805 1_554
Ag3 O0 2.346280 1_665
O0 P0 1.486368 1_555
O1 P0 1.526611 1_555
O2 P0 1.597942 1_555
O2 P1 1.628354 1_555
O3 P0 1.644983 1_555
O3 P1 1.652735 1_545
O4 P1 1.511448 1_545
O5 P1 1.476967 1_555
O6 P2 1.490830 1_555
O7 P2 1.495869 1_565
O8 P3 1.598472 1_555
O8 P2 1.649084 1_565
O9 P3 1.600060 1_555
O9 P2 1.649297 1_555
O10 P3 1.517570 1_555
O11 P3 1.523021 1_555
