# generated using pymatgen
data_Li6Ca12W4N16O3
_symmetry_space_group_name_H-M   'P 1'
_cell_length_a   11.40762068
_cell_length_b   11.40762039
_cell_length_c   11.40762100
_cell_angle_alpha   109.47121994
_cell_angle_beta   109.47121943
_cell_angle_gamma   109.47122235
_symmetry_Int_Tables_number   1
_chemical_formula_structural   Li6Ca12W4N16O3
_chemical_formula_sum   'Li12 Ca24 W8 N32 O6'
_cell_volume   1142.78183111
_cell_formula_units_Z   2
loop_
 _symmetry_equiv_pos_site_id
 _symmetry_equiv_pos_as_xyz
  1  'x, y, z'
loop_
 _atom_site_type_symbol
 _atom_site_label
 _atom_site_symmetry_multiplicity
 _atom_site_fract_x
 _atom_site_fract_y
 _atom_site_fract_z
 _atom_site_occupancy
  Li  Li0  1  0.25000100  0.27397400  0.02397400  1
  Li  Li1  1  0.25000000  0.97602600  0.72602700  1
  Li  Li2  1  0.77397400  0.75000000  0.52397300  1
  Li  Li3  1  0.52397400  0.77397400  0.75000000  1
  Li  Li4  1  0.72602600  0.24999900  0.97602600  1
  Li  Li5  1  0.97602600  0.72602600  0.25000000  1
  Li  Li6  1  0.74999900  0.22602600  0.47602600  1
  Li  Li7  1  0.22602700  0.47602600  0.75000000  1
  Li  Li8  1  0.27397300  0.02397400  0.25000000  1
  Li  Li9  1  0.02397400  0.24999900  0.27397400  1
  Li  Li10  1  0.47602600  0.75000000  0.22602600  1
  Li  Li11  1  0.75000000  0.52397400  0.77397400  1
  Ca  Ca0  1  0.59337000  0.53748100  0.20805500  1
  Ca  Ca1  1  0.96251800  0.55588900  0.67057300  1
  Ca  Ca2  1  0.29194400  0.82942600  0.38531500  1
  Ca  Ca3  1  0.90663000  0.11468600  0.94411200  1
  Ca  Ca4  1  0.11468500  0.94411200  0.90663100  1
  Ca  Ca5  1  0.94411200  0.90663000  0.11468600  1
  Ca  Ca6  1  0.09337000  0.70805600  0.03748100  1
  Ca  Ca7  1  0.17057400  0.05588900  0.46251900  1
  Ca  Ca8  1  0.32942700  0.79194500  0.88531400  1
  Ca  Ca9  1  0.44411200  0.61468600  0.40663000  1
  Ca  Ca10  1  0.61468500  0.40663000  0.44411200  1
  Ca  Ca11  1  0.03748200  0.09337000  0.70805500  1
  Ca  Ca12  1  0.05588800  0.46251900  0.17057300  1
  Ca  Ca13  1  0.88531500  0.32942600  0.79194500  1
  Ca  Ca14  1  0.70805500  0.03748100  0.09337000  1
  Ca  Ca15  1  0.46251900  0.17057400  0.05588900  1
  Ca  Ca16  1  0.79194400  0.88531400  0.32942600  1
  Ca  Ca17  1  0.67057400  0.96251900  0.55588900  1
  Ca  Ca18  1  0.82942600  0.38531400  0.29194500  1
  Ca  Ca19  1  0.38531400  0.29194500  0.82942600  1
  Ca  Ca20  1  0.53748200  0.20805600  0.59337000  1
  Ca  Ca21  1  0.20805500  0.59337000  0.53748200  1
  Ca  Ca22  1  0.55588800  0.67057300  0.96251900  1
  Ca  Ca23  1  0.40663000  0.44411100  0.61468500  1
  W  W0  1  0.27560100  0.27560100  0.27560100  1
  W  W1  1  0.72439900  0.50000000  0.00000000  1
  W  W2  1  0.50000000  0.00000000  0.72439900  1
  W  W3  1  0.00000000  0.72439900  0.50000000  1
  W  W4  1  0.50000000  0.00000000  0.22439900  1
  W  W5  1  0.00000000  0.22439900  0.50000000  1
  W  W6  1  0.22439900  0.50000000  0.00000000  1
  W  W7  1  0.77560100  0.77560100  0.77560100  1
  N  N0  1  0.10922200  0.10922300  0.10922200  1
  N  N1  1  0.89077800  0.50000000  0.00000000  1
  N  N2  1  0.50000000  0.00000000  0.89077700  1
  N  N3  1  0.00000000  0.89077800  0.50000000  1
  N  N4  1  0.50000000  0.00000000  0.39077800  1
  N  N5  1  0.00000000  0.39077700  0.50000000  1
  N  N6  1  0.39077800  0.50000000  0.00000000  1
  N  N7  1  0.60922200  0.60922300  0.60922200  1
  N  N8  1  0.41858900  0.36674300  0.23407800  1
  N  N9  1  0.13325700  0.55184600  0.86733600  1
  N  N10  1  0.26592100  0.63266500  0.18451000  1
  N  N11  1  0.08141000  0.31548900  0.94815400  1
  N  N12  1  0.31548900  0.94815400  0.08141100  1
  N  N13  1  0.94815400  0.08141100  0.31548900  1
  N  N14  1  0.91858900  0.73407800  0.86674300  1
  N  N15  1  0.36733500  0.05184600  0.63325700  1
  N  N16  1  0.13266500  0.76592200  0.68451100  1
  N  N17  1  0.44815400  0.81548900  0.58141000  1
  N  N18  1  0.81549000  0.58141100  0.44815400  1
  N  N19  1  0.86674300  0.91858900  0.73407800  1
  N  N20  1  0.05184600  0.63325700  0.36733500  1
  N  N21  1  0.68451100  0.13266500  0.76592200  1
  N  N22  1  0.73407800  0.86674300  0.91858900  1
  N  N23  1  0.63325600  0.36733500  0.05184500  1
  N  N24  1  0.76592100  0.68451100  0.13266500  1
  N  N25  1  0.86733600  0.13325700  0.55184600  1
  N  N26  1  0.63266500  0.18451100  0.26592200  1
  N  N27  1  0.18451100  0.26592200  0.63266500  1
  N  N28  1  0.36674300  0.23407800  0.41858900  1
  N  N29  1  0.23407900  0.41858900  0.36674300  1
  N  N30  1  0.55184600  0.86733500  0.13325700  1
  N  N31  1  0.58141100  0.44815400  0.81549000  1
  O  O0  1  0.12500000  0.87500000  0.25000000  1
  O  O1  1  0.62500000  0.75000000  0.37500000  1
  O  O2  1  0.87500000  0.24999900  0.12500000  1
  O  O3  1  0.25000000  0.12500000  0.87500000  1
  O  O4  1  0.75000000  0.37500000  0.62500000  1
  O  O5  1  0.37500000  0.62500000  0.75000000  1
loop_
_geom_bond_atom_site_label_1
_geom_bond_atom_site_label_2
_geom_bond_distance
_geom_bond_site_symmetry_2
Li0 O3 1.962336 1_554
Li0 N8 2.107698 1_555
Li0 N11 2.107722 1_554
Li0 N6 2.702675 1_555
Li0 N0 2.702677 1_555
Li1 O3 1.962336 1_565
Li1 N16 2.107698 1_555
Li1 N15 2.107712 1_565
Li1 N2 2.702672 1_565
Li1 N3 2.702684 1_555
Li2 O1 1.962336 1_555
Li2 N18 2.107708 1_555
Li2 N19 2.107710 1_555
Li2 N3 2.702671 1_655
Li2 N7 2.702682 1_555
Li3 O5 1.962343 1_555
Li3 N22 2.107702 1_555
Li3 N17 2.107712 1_555
Li3 N7 2.702671 1_555
Li3 N2 2.702675 1_565
Li4 O2 1.962343 1_556
Li4 N21 2.107700 1_555
Li4 N23 2.107715 1_556
Li4 N2 2.702668 1_555
Li4 N1 2.702687 1_556
Li5 O0 1.962343 1_655
Li5 N20 2.107702 1_655
Li5 N24 2.107712 1_555
Li5 N1 2.702679 1_555
Li5 N3 2.702679 1_655
Li6 O4 1.962336 1_555
Li6 N26 2.107700 1_555
Li6 N25 2.107717 1_555
Li6 N4 2.702671 1_555
Li6 N5 2.702684 1_655
Li7 O5 1.962336 1_555
Li7 N27 2.107698 1_555
Li7 N9 2.107719 1_555
Li7 N6 2.702675 1_556
Li7 N5 2.702681 1_555
Li8 O0 1.962336 1_545
Li8 N28 2.107700 1_555
Li8 N12 2.107710 1_545
Li8 N0 2.702681 1_555
Li8 N4 2.702688 1_555
Li9 O2 1.962343 1_455
Li9 N13 2.107692 1_455
Li9 N29 2.107714 1_555
Li9 N0 2.702668 1_555
Li9 N5 2.702679 1_555
Li10 O1 1.962343 1_555
Li10 N30 2.107702 1_555
Li10 N10 2.107708 1_555
Li10 N4 2.702678 1_565
Li10 N6 2.702679 1_555
Li11 O4 1.962343 1_555
Li11 N14 2.107702 1_555
Li11 N31 2.107710 1_555
Li11 N1 2.702679 1_556
Li11 N7 2.702688 1_555
Ca0 O1 2.348450 1_555
Ca0 N23 2.444032 1_555
Ca0 N8 2.459311 1_555
Ca0 N6 2.482935 1_555
Ca0 N24 2.704930 1_555
Ca0 N18 2.790183 1_555
Ca1 O4 2.348447 1_555
Ca1 N16 2.444032 1_655
Ca1 N9 2.459331 1_655
Ca1 N5 2.482943 1_655
Ca1 N18 2.704920 1_555
Ca1 N14 2.790176 1_555
Ca2 O0 2.348443 1_555
Ca2 N17 2.444031 1_555
Ca2 N10 2.459317 1_555
Ca2 N4 2.482943 1_565
Ca2 N15 2.704933 1_565
Ca2 N20 2.790169 1_555
Ca3 O2 2.348433 1_556
Ca3 N19 2.444046 1_545
Ca3 N11 2.459304 1_655
Ca3 N0 2.482930 1_656
Ca3 N22 2.704940 1_545
Ca3 N21 2.790175 1_555
Ca4 O3 2.348449 1_565
Ca4 N14 2.444035 1_455
Ca4 N12 2.459312 1_556
Ca4 N0 2.482928 1_566
Ca4 N19 2.704935 1_455
Ca4 N16 2.790190 1_555
Ca5 O0 2.348437 1_655
Ca5 N22 2.444046 1_554
Ca5 N13 2.459310 1_565
Ca5 N0 2.482945 1_665
Ca5 N14 2.704940 1_554
Ca5 N24 2.790180 1_555
Ca6 O0 2.348445 1_555
Ca6 N9 2.444032 1_554
Ca6 N14 2.459303 1_454
Ca6 N1 2.482942 1_455
Ca6 N10 2.704933 1_555
Ca6 N12 2.790170 1_555
Ca7 O0 2.348450 1_545
Ca7 N27 2.444033 1_555
Ca7 N15 2.459311 1_555
Ca7 N3 2.482935 1_545
Ca7 N13 2.704937 1_455
Ca7 N28 2.790177 1_555
Ca8 O5 2.348437 1_555
Ca8 N12 2.444048 1_556
Ca8 N16 2.459311 1_555
Ca8 N2 2.482930 1_565
Ca8 N30 2.704939 1_556
Ca8 N9 2.790194 1_555
Ca9 O1 2.348437 1_555
Ca9 N29 2.444039 1_555
Ca9 N17 2.459304 1_555
Ca9 N7 2.482930 1_555
Ca9 N8 2.704940 1_555
Ca9 N10 2.790188 1_555
Ca10 O4 2.348442 1_555
Ca10 N8 2.444040 1_555
Ca10 N18 2.459325 1_555
Ca10 N7 2.482938 1_555
Ca10 N28 2.704931 1_555
Ca10 N26 2.790182 1_555
Ca11 O3 2.348442 1_555
Ca11 N25 2.444033 1_455
Ca11 N19 2.459317 1_445
Ca11 N3 2.482930 1_545
Ca11 N27 2.704931 1_555
Ca11 N11 2.790187 1_555
Ca12 O2 2.348457 1_455
Ca12 N10 2.444033 1_555
Ca12 N20 2.459312 1_555
Ca12 N1 2.482922 1_455
Ca12 N11 2.704928 1_554
Ca12 N29 2.790196 1_555
Ca13 O4 2.348450 1_555
Ca13 N11 2.444026 1_655
Ca13 N21 2.459311 1_555
Ca13 N1 2.482935 1_556
Ca13 N9 2.704933 1_655
Ca13 N25 2.790183 1_555
Ca14 O2 2.348442 1_555
Ca14 N30 2.444033 1_545
Ca14 N22 2.459311 1_544
Ca14 N2 2.482942 1_554
Ca14 N26 2.704937 1_555
Ca14 N13 2.790177 1_555
Ca15 O3 2.348450 1_554
Ca15 N26 2.444033 1_555
Ca15 N23 2.459312 1_555
Ca15 N2 2.482942 1_554
Ca15 N12 2.704937 1_545
Ca15 N8 2.790177 1_555
Ca16 O1 2.348437 1_555
Ca16 N13 2.444046 1_565
Ca16 N24 2.459304 1_555
Ca16 N3 2.482937 1_655
Ca16 N25 2.704936 1_565
Ca16 N30 2.790175 1_555
Ca17 O1 2.348450 1_555
Ca17 N21 2.444033 1_565
Ca17 N25 2.459318 1_565
Ca17 N4 2.482935 1_565
Ca17 N17 2.704930 1_555
Ca17 N19 2.790177 1_555
Ca18 O2 2.348450 1_555
Ca18 N18 2.444034 1_555
Ca18 N26 2.459304 1_555
Ca18 N5 2.482935 1_655
Ca18 N20 2.704944 1_655
Ca18 N23 2.790196 1_555
Ca19 O3 2.348445 1_555
Ca19 N31 2.444034 1_555
Ca19 N27 2.459304 1_555
Ca19 N6 2.482929 1_556
Ca19 N23 2.704931 1_556
Ca19 N15 2.790183 1_555
Ca20 O4 2.348437 1_555
Ca20 N15 2.444046 1_555
Ca20 N28 2.459310 1_555
Ca20 N4 2.482937 1_555
Ca20 N21 2.704940 1_555
Ca20 N31 2.790181 1_555
Ca21 O5 2.348442 1_555
Ca21 N20 2.444040 1_555
Ca21 N29 2.459325 1_555
Ca21 N5 2.482936 1_555
Ca21 N16 2.704931 1_555
Ca21 N17 2.790187 1_555
Ca22 O5 2.348450 1_555
Ca22 N24 2.444027 1_556
Ca22 N30 2.459312 1_556
Ca22 N6 2.482922 1_556
Ca22 N31 2.704931 1_555
Ca22 N22 2.790190 1_555
Ca23 O5 2.348450 1_555
Ca23 N28 2.444033 1_555
Ca23 N31 2.459318 1_555
Ca23 N7 2.482940 1_555
Ca23 N29 2.704933 1_555
Ca23 N27 2.790177 1_555
N0 W0 1.897985 1_555
N1 W1 1.897989 1_555
N2 W2 1.897977 1_555
N3 W3 1.897988 1_555
N4 W4 1.897989 1_555
N5 W5 1.897977 1_555
N6 W6 1.897989 1_555
N7 W7 1.897985 1_555
N8 W0 1.918029 1_555
N9 W6 1.918021 1_556
N10 W6 1.918025 1_555
N11 W6 1.918033 1_556
N12 W4 1.918029 1_565
N13 W5 1.918029 1_655
N14 W7 1.918029 1_555
N15 W2 1.918029 1_555
N16 W3 1.918029 1_555
N17 W2 1.918033 1_565
N18 W3 1.918021 1_655
N19 W7 1.918029 1_555
N20 W3 1.918029 1_555
N21 W2 1.918029 1_555
N22 W7 1.918029 1_555
N23 W1 1.918025 1_555
N24 W1 1.918033 1_555
N25 W5 1.918021 1_655
N26 W4 1.918029 1_555
N27 W5 1.918029 1_555
N28 W0 1.918029 1_555
N29 W0 1.918021 1_555
N30 W4 1.918029 1_565
N31 W1 1.918021 1_556
