# generated using pymatgen
data_PrEuZn2
_symmetry_space_group_name_H-M   'P 1'
_cell_length_a   5.24877132
_cell_length_b   5.24877132
_cell_length_c   5.24877132
_cell_angle_alpha   60.00000000
_cell_angle_beta   60.00000000
_cell_angle_gamma   60.00000000
_symmetry_Int_Tables_number   1
_chemical_formula_structural   PrEuZn2
_chemical_formula_sum   'Pr1 Eu1 Zn2'
_cell_volume   102.24873793
_cell_formula_units_Z   1
loop_
 _symmetry_equiv_pos_site_id
 _symmetry_equiv_pos_as_xyz
  1  'x, y, z'
loop_
 _atom_site_type_symbol
 _atom_site_label
 _atom_site_symmetry_multiplicity
 _atom_site_fract_x
 _atom_site_fract_y
 _atom_site_fract_z
 _atom_site_occupancy
  Pr  Pr0  1  -0.00000000  0.00000000  -0.00000000  1
  Eu  Eu0  1  0.50000000  0.50000000  0.50000000  1
  Zn  Zn0  1  0.25000000  0.25000000  0.25000000  1
  Zn  Zn1  1  0.75000000  0.75000000  0.75000000  1
loop_
_geom_bond_atom_site_label_1
_geom_bond_atom_site_label_2
_geom_bond_distance
_geom_bond_site_symmetry_2
Pr0 Zn0 3.214203 1_545
Pr0 Zn1 3.214203 1_445
Pr0 Zn1 3.214203 1_454
Pr0 Zn0 3.214203 1_554
Pr0 Zn1 3.214203 1_544
Pr0 Zn0 3.214203 1_455
Pr0 Zn0 3.214203 1_555
Pr0 Zn1 3.214203 1_444
Eu0 Zn1 3.214203 1_455
Eu0 Zn1 3.214203 1_555
Eu0 Zn1 3.214203 1_545
Eu0 Zn0 3.214203 1_565
Eu0 Zn0 3.214203 1_655
Eu0 Zn0 3.214203 1_555
Eu0 Zn1 3.214203 1_554
Eu0 Zn0 3.214203 1_556
Eu0 Pr0 3.711442 1_665
Eu0 Pr0 3.711442 1_566
Eu0 Pr0 3.711442 1_656
Eu0 Pr0 3.711442 1_556
Eu0 Pr0 3.711442 1_565
Eu0 Pr0 3.711442 1_655
Zn0 Zn1 3.711442 1_544
Zn0 Zn1 3.711442 1_454
Zn0 Zn1 3.711442 1_545
Zn0 Zn1 3.711442 1_554
Zn0 Zn1 3.711442 1_455
Zn0 Zn1 3.711442 1_445
