# generated using pymatgen
data_EuSiPt2
_symmetry_space_group_name_H-M   'P 1'
_cell_length_a   4.15631814
_cell_length_b   4.18390249
_cell_length_c   9.18464383
_cell_angle_alpha   90.00000356
_cell_angle_beta   103.06351007
_cell_angle_gamma   89.99996812
_symmetry_Int_Tables_number   1
_chemical_formula_structural   EuSiPt2
_chemical_formula_sum   'Eu2 Si2 Pt4'
_cell_volume   155.58408460
_cell_formula_units_Z   2
loop_
 _symmetry_equiv_pos_site_id
 _symmetry_equiv_pos_as_xyz
  1  'x, y, z'
loop_
 _atom_site_type_symbol
 _atom_site_label
 _atom_site_symmetry_multiplicity
 _atom_site_fract_x
 _atom_site_fract_y
 _atom_site_fract_z
 _atom_site_occupancy
  Eu  Eu0  1  0.59822004  0.24999994  0.19654589  1
  Eu  Eu1  1  0.40175904  0.75000026  0.80340042  1
  Si  Si0  1  0.82251625  0.25000015  0.64469455  1
  Si  Si1  1  0.17749707  0.74999982  0.35532155  1
  Pt  Pt0  1  0.95244219  0.25000004  0.90536432  1
  Pt  Pt1  1  0.04751247  0.74999995  0.09456881  1
  Pt  Pt2  1  0.25152919  0.24999999  0.50271927  1
  Pt  Pt3  1  0.74852275  0.74999984  0.49738218  1
loop_
_geom_bond_atom_site_label_1
_geom_bond_atom_site_label_2
_geom_bond_distance
_geom_bond_site_symmetry_2
Eu0 Pt1 3.086017 1_555
Eu0 Pt1 3.086018 1_545
Eu0 Pt1 3.087295 1_645
Eu0 Pt1 3.087296 1_655
Eu0 Si1 3.272994 1_645
Eu0 Si1 3.272994 1_655
Eu0 Si1 3.273145 1_555
Eu0 Si1 3.273147 1_545
Eu0 Pt0 3.331653 1_554
Eu0 Pt0 3.333402 1_454
Eu0 Pt3 3.408928 1_555
Eu0 Pt3 3.408928 1_545
Eu0 Pt2 3.437445 1_555
Eu0 Pt2 3.439357 1_655
Eu1 Pt0 3.085933 1_555
Eu1 Pt0 3.085933 1_565
Eu1 Pt0 3.087309 1_465
Eu1 Pt0 3.087312 1_455
Eu1 Si0 3.272724 1_465
Eu1 Si0 3.272726 1_455
Eu1 Si0 3.272873 1_555
Eu1 Si0 3.272874 1_565
Eu1 Pt1 3.331607 1_556
Eu1 Pt1 3.333263 1_656
Eu1 Pt2 3.407831 1_565
Eu1 Pt2 3.407833 1_555
Eu1 Pt3 3.436328 1_555
Eu1 Pt3 3.438263 1_455
Pt0 Si0 2.332199 1_555
Pt0 Pt1 2.691068 1_656
Pt0 Pt1 2.691068 1_646
Pt1 Si1 2.332941 1_555
Pt2 Si0 2.435367 1_455
Pt2 Si0 2.435883 1_555
Pt2 Si1 2.472931 1_555
Pt2 Si1 2.472932 1_545
Pt2 Pt3 2.948118 1_545
Pt2 Pt3 2.948119 1_555
Pt2 Pt3 2.950113 1_455
Pt2 Pt3 2.950115 1_445
Pt3 Si1 2.435780 1_655
Pt3 Si1 2.436267 1_555
Pt3 Si0 2.472523 1_555
Pt3 Si0 2.472525 1_565
