# generated using pymatgen
data_KNi2H3(SeO5)2
_symmetry_space_group_name_H-M   'P 1'
_cell_length_a   5.59280592
_cell_length_b   10.74753648
_cell_length_c   7.82561827
_cell_angle_alpha   80.20517483
_cell_angle_beta   70.85028975
_cell_angle_gamma   100.39531311
_symmetry_Int_Tables_number   1
_chemical_formula_structural   KNi2H3(SeO5)2
_chemical_formula_sum   'K2 Ni4 H6 Se4 O20'
_cell_volume   423.54703984
_cell_formula_units_Z   2
loop_
 _symmetry_equiv_pos_site_id
 _symmetry_equiv_pos_as_xyz
  1  'x, y, z'
loop_
 _atom_site_type_symbol
 _atom_site_label
 _atom_site_symmetry_multiplicity
 _atom_site_fract_x
 _atom_site_fract_y
 _atom_site_fract_z
 _atom_site_occupancy
  K  K0  1  0.74826400  0.24969000  0.50148500  1
  K  K1  1  0.24833500  0.74970100  0.50154000  1
  Ni  Ni0  1  0.74297600  0.75003000  0.99864800  1
  Ni  Ni1  1  0.49607300  0.99639800  0.99858600  1
  Ni  Ni2  1  0.24334200  0.25039100  0.99837700  1
  Ni  Ni3  1  0.99660900  0.49630100  0.99869700  1
  H  H0  1  0.01978800  0.33977000  0.79024300  1
  H  H1  1  0.51986700  0.83979600  0.79030000  1
  H  H2  1  0.46888700  0.15621500  0.21629100  1
  H  H3  1  0.96898500  0.65624700  0.21630000  1
  H  H4  1  0.71767100  0.23896900  0.01404600  1
  H  H5  1  0.21781000  0.73903500  0.01396400  1
  Se  Se0  1  0.37857800  0.45979800  0.28037400  1
  Se  Se1  1  0.87854900  0.95982600  0.28030900  1
  Se  Se2  1  0.11655400  0.03880700  0.72087500  1
  Se  Se3  1  0.61664700  0.53884200  0.72082800  1
  O  O0  1  0.19826200  0.39941500  0.50287500  1
  O  O1  1  0.69831000  0.89942400  0.50284200  1
  O  O2  1  0.29770100  0.09935400  0.49810200  1
  O  O3  1  0.79772900  0.59930200  0.49800300  1
  O  O4  1  0.97058900  0.32322200  0.92571700  1
  O  O5  1  0.47059100  0.82319800  0.92580300  1
  O  O6  1  0.52028400  0.17321700  0.08005200  1
  O  O7  1  0.02032000  0.67316700  0.08005700  1
  O  O8  1  0.20838600  0.40292100  0.15013500  1
  O  O9  1  0.70848800  0.90299000  0.15000900  1
  O  O10  1  0.28795200  0.09608700  0.85056600  1
  O  O11  1  0.78797500  0.59605500  0.85058500  1
  O  O12  1  0.65511600  0.40943800  0.22689500  1
  O  O13  1  0.15510200  0.90945400  0.22689200  1
  O  O14  1  0.94185600  0.12335400  0.22740400  1
  O  O15  1  0.44176200  0.62330200  0.22747600  1
  O  O16  1  0.84026500  0.08923400  0.77440300  1
  O  O17  1  0.34027600  0.58921900  0.77441300  1
  O  O18  1  0.55460100  0.37544800  0.77439800  1
  O  O19  1  0.05450100  0.87538000  0.77450700  1
loop_
_geom_bond_atom_site_label_1
_geom_bond_atom_site_label_2
_geom_bond_distance
_geom_bond_site_symmetry_2
K0 O0 2.736056 1_655
K0 O2 2.747777 1_555
K0 O18 2.748454 1_555
K0 O16 2.754664 1_555
K0 O14 2.759371 1_555
K0 O12 2.763801 1_555
K0 O10 3.022161 1_555
K0 O8 3.030210 1_655
K1 O1 2.735663 1_555
K1 O19 2.748391 1_555
K1 O3 2.748755 1_455
K1 O17 2.754368 1_555
K1 O15 2.759535 1_555
K1 O13 2.764427 1_555
K1 O11 3.022244 1_455
K1 O9 3.031195 1_555
Ni0 O5 2.028210 1_555
Ni0 O15 2.064628 1_556
Ni0 O19 2.066675 1_655
Ni0 O7 2.103800 1_656
Ni0 O11 2.180780 1_555
Ni0 O9 2.183998 1_556
Ni1 O5 2.031763 1_555
Ni1 O13 2.062868 1_556
Ni1 O16 2.067507 1_565
Ni1 O6 2.100513 1_566
Ni1 O10 2.181035 1_565
Ni1 O9 2.184621 1_556
Ni2 O4 2.027702 1_455
Ni2 O18 2.064308 1_555
Ni2 O14 2.067227 1_456
Ni2 O6 2.104343 1_556
Ni2 O8 2.182137 1_556
Ni2 O10 2.182461 1_555
Ni3 O4 2.031229 1_555
Ni3 O12 2.063970 1_556
Ni3 O17 2.066363 1_655
Ni3 O7 2.100594 1_656
Ni3 O8 2.181686 1_656
Ni3 O11 2.184116 1_555
H0 O4 0.978825 1_455
H0 O0 2.066499 1_555
H1 O5 0.978969 1_555
H1 O1 2.067097 1_555
H2 O6 0.983055 1_555
H2 O2 2.024524 1_555
H3 O7 0.983164 1_655
H3 O3 2.023831 1_555
H4 O6 1.097750 1_555
H4 O4 1.407814 1_554
H5 O7 1.098672 1_555
H5 O5 1.406822 1_554
O0 Se0 1.642342 1_555
O1 Se1 1.642478 1_555
O2 Se2 1.645120 1_555
O3 Se3 1.645273 1_555
O8 Se0 1.719575 1_555
O9 Se1 1.719316 1_555
O10 Se2 1.722163 1_555
O11 Se3 1.722068 1_555
O12 Se0 1.677689 1_555
O13 Se1 1.677832 1_455
O14 Se1 1.678495 1_545
O15 Se0 1.678286 1_555
O16 Se2 1.676822 1_655
O17 Se3 1.676949 1_555
O18 Se3 1.677545 1_555
O19 Se2 1.677887 1_565
