# generated using pymatgen
data_Li7Ni(O2F)2
_symmetry_space_group_name_H-M   'P 1'
_cell_length_a   5.73009957
_cell_length_b   9.74396513
_cell_length_c   10.06734218
_cell_angle_alpha   94.81118674
_cell_angle_beta   104.91484511
_cell_angle_gamma   82.57849152
_symmetry_Int_Tables_number   1
_chemical_formula_structural   Li7Ni(O2F)2
_chemical_formula_sum   'Li28 Ni4 O16 F8'
_cell_volume   537.85895470
_cell_formula_units_Z   4
loop_
 _symmetry_equiv_pos_site_id
 _symmetry_equiv_pos_as_xyz
  1  'x, y, z'
loop_
 _atom_site_type_symbol
 _atom_site_label
 _atom_site_symmetry_multiplicity
 _atom_site_fract_x
 _atom_site_fract_y
 _atom_site_fract_z
 _atom_site_occupancy
  Li  Li0  1  0.30884500  0.97706300  0.21822800  1
  Li  Li1  1  0.80595500  0.47264200  0.21352400  1
  Li  Li2  1  0.10331700  0.26429000  0.74377100  1
  Li  Li3  1  0.60799500  0.76051000  0.74772500  1
  Li  Li4  1  0.12267500  0.22895700  0.38621100  1
  Li  Li5  1  0.62012500  0.72275500  0.38176000  1
  Li  Li6  1  0.77516700  0.04766000  0.14779900  1
  Li  Li7  1  0.25254900  0.54299100  0.13770700  1
  Li  Li8  1  0.67441500  0.96986900  0.43601400  1
  Li  Li9  1  0.16994800  0.47304700  0.43503900  1
  Li  Li10  1  0.42595500  0.24193300  0.96015600  1
  Li  Li11  1  0.93837400  0.75190100  0.97308600  1
  Li  Li12  1  0.99821100  0.01663300  0.67134600  1
  Li  Li13  1  0.49618900  0.51142300  0.66707400  1
  Li  Li14  1  0.54256800  0.75814000  0.07605200  1
  Li  Li15  1  0.05482200  0.25874400  0.07076200  1
  Li  Li16  1  0.27792400  0.00134400  0.51787500  1
  Li  Li17  1  0.78561900  0.50146400  0.52372000  1
  Li  Li18  1  0.40213600  0.99953300  0.91980200  1
  Li  Li19  1  0.88687900  0.51247000  0.90487800  1
  Li  Li20  1  0.89605700  0.74970900  0.61424800  1
  Li  Li21  1  0.39836200  0.24835100  0.61641300  1
  Li  Li22  1  0.03650500  0.79131600  0.28323800  1
  Li  Li23  1  0.53163000  0.29420000  0.28315600  1
  Li  Li24  1  0.62084100  0.01243500  0.74519200  1
  Li  Li25  1  0.13427400  0.51200600  0.74783400  1
  Li  Li26  1  0.24012700  0.76000400  0.85436800  1
  Li  Li27  1  0.74374300  0.26259700  0.85919200  1
  Ni  Ni0  1  0.48927400  0.50060600  0.94563300  1
  Ni  Ni1  1  0.75854900  0.23733900  0.50402300  1
  Ni  Ni2  1  0.98561100  0.00209100  0.93412100  1
  Ni  Ni3  1  0.26174500  0.73677800  0.50524000  1
  O  O0  1  0.84995000  0.36320300  0.38902100  1
  O  O1  1  0.35411100  0.86119300  0.38892100  1
  O  O2  1  0.39787900  0.36091900  0.79704100  1
  O  O3  1  0.89256900  0.86516800  0.78788400  1
  O  O4  1  0.25849000  0.89518700  0.02899700  1
  O  O5  1  0.78665500  0.40097100  0.01842200  1
  O  O6  1  0.08210400  0.16354700  0.56404200  1
  O  O7  1  0.58302000  0.66264300  0.56537200  1
  O  O8  1  0.11213500  0.15319800  0.88951900  1
  O  O9  1  0.61011400  0.65877800  0.90206600  1
  O  O10  1  0.94751600  0.82560300  0.45858000  1
  O  O11  1  0.44432900  0.32843800  0.46108300  1
  O  O12  1  0.68052400  0.08968000  0.94704600  1
  O  O13  1  0.17660000  0.59344100  0.93487200  1
  O  O14  1  0.15589200  0.60188200  0.59678100  1
  O  O15  1  0.65393000  0.10228500  0.59624500  1
  F  F0  1  0.58796100  0.08173700  0.27468100  1
  F  F1  1  0.08182800  0.57862800  0.27156800  1
  F  F2  1  0.82904900  0.84938100  0.12443400  1
  F  F3  1  0.34755400  0.34815000  0.11420000  1
  F  F4  1  0.55344800  0.62235600  0.20553300  1
  F  F5  1  0.06824700  0.13346600  0.21122100  1
  F  F6  1  0.35015800  0.91742900  0.72762600  1
  F  F7  1  0.84955600  0.42191100  0.71966500  1
loop_
_geom_bond_atom_site_label_1
_geom_bond_atom_site_label_2
_geom_bond_distance
_geom_bond_site_symmetry_2
Li0 O4 1.967365 1_555
Li0 O1 2.077338 1_555
Li1 O5 2.008954 1_555
Li1 O0 2.083159 1_555
Li2 O8 1.881861 1_555
Li2 O6 1.967728 1_555
Li2 O2 1.970511 1_555
Li2 Li21 2.353913 1_555
Li2 Li27 2.615363 1_455
Li3 O9 1.908565 1_555
Li3 O3 1.970648 1_555
Li3 O7 1.976464 1_555
Li4 O0 1.908537 1_455
Li4 O6 2.027144 1_555
Li4 O11 2.128065 1_555
Li4 Li9 2.423550 1_555
Li5 O1 1.912419 1_555
Li5 O7 2.054576 1_555
Li5 O10 2.174981 1_555
Li5 Li8 2.465435 1_555
Li6 O12 2.015844 1_554
Li7 O13 2.063131 1_554
Li8 O10 1.943924 1_555
Li8 O15 1.997461 1_565
Li8 O1 2.164407 1_555
Li9 O11 1.950277 1_555
Li9 O14 1.983009 1_555
Li9 O0 2.170001 1_455
Li10 O12 1.962998 1_555
Li10 O8 2.031536 1_555
Li10 O2 2.049847 1_555
Li10 Li27 2.339102 1_555
Li10 Li18 2.378276 1_545
Li10 O5 2.658616 1_556
Li11 O13 2.005396 1_655
Li11 O9 2.124235 1_555
Li11 O3 2.186720 1_555
Li11 Li26 2.353564 1_655
Li11 O4 2.372564 1_656
Li11 Li19 2.409631 1_555
Li11 Li3 2.553082 1_555
Li12 O15 2.018091 1_555
Li12 O6 2.037603 1_655
Li12 O3 2.192699 1_545
Li12 O8 2.452995 1_655
Li12 Li24 2.466916 1_555
Li12 Li16 2.480470 1_655
Li12 Li2 2.563584 1_655
Li12 Li8 2.652845 1_545
Li12 O10 2.699601 1_545
Li12 Li20 2.721588 1_545
Li13 O14 2.007549 1_555
Li13 O7 2.042477 1_555
Li13 O2 2.257133 1_555
Li13 Li25 2.413684 1_555
Li13 Li17 2.451477 1_555
Li13 Li3 2.600739 1_555
Li13 O11 2.601417 1_555
Li13 Li9 2.622478 1_555
Li13 O9 2.638531 1_555
Li13 Li21 2.673933 1_555
Li14 O4 1.950638 1_555
Li14 O9 2.030493 1_554
Li14 Li26 2.447893 1_554
Li15 O5 1.927438 1_455
Li15 O8 2.097918 1_554
Li15 Li27 2.399411 1_454
Li16 O1 1.892417 1_545
Li16 O6 1.913147 1_555
Li16 O15 2.402959 1_555
Li16 Li8 2.583861 1_545
Li16 Li24 2.609298 1_555
Li16 Li4 2.616039 1_555
Li16 O10 2.637702 1_445
Li17 O0 1.900614 1_555
Li17 O7 1.912904 1_555
Li17 O14 2.369024 1_655
Li17 Li9 2.556698 1_655
Li17 Li20 2.609762 1_555
Li17 Li5 2.623401 1_555
Li17 O11 2.665181 1_555
Li18 O12 1.867558 1_565
Li18 O4 1.946589 1_556
Li18 O8 2.066216 1_565
Li18 Li24 2.426553 1_565
Li18 Li26 2.594253 1_555
Li19 O13 1.873515 1_655
Li19 O5 1.877299 1_556
Li19 O9 1.986917 1_555
Li19 Li25 2.379092 1_655
Li20 O10 1.891674 1_555
Li20 O14 1.964880 1_655
Li20 O3 2.001016 1_555
Li20 O7 2.011985 1_555
Li20 Li3 2.369492 1_555
Li20 Li5 2.479155 1_555
Li20 Li26 2.701448 1_655
Li21 O11 1.895658 1_555
Li21 O15 1.943604 1_555
Li21 O6 2.016621 1_555
Li21 O2 2.043789 1_555
Li21 Li4 2.453814 1_555
Li21 Li27 2.726512 1_555
Li22 O10 1.951429 1_455
Li22 O1 2.027196 1_555
Li23 O11 1.971810 1_555
Li23 O0 2.027528 1_555
Li24 O15 1.860214 1_555
Li24 O3 1.962132 1_545
Li24 O12 2.065241 1_555
Li24 Li3 2.467793 1_545
Li24 Li27 2.704257 1_555
Li25 O14 1.855587 1_555
Li25 O13 1.948861 1_555
Li25 O2 1.963921 1_555
Li25 Li26 2.639434 1_555
Li26 O13 1.987100 1_555
Li26 O3 2.089484 1_455
Li26 O4 2.094995 1_556
Li26 O9 2.171016 1_555
Li26 Li3 2.600871 1_555
Li27 O5 1.992052 1_556
Li27 O2 2.051524 1_555
Li27 O12 2.079651 1_555
Li27 O8 2.197054 1_655
Ni0 O5 1.852670 1_556
Ni0 O13 1.880921 1_555
Ni0 O9 1.895419 1_555
Ni0 O2 1.950381 1_555
Ni1 O11 1.862119 1_555
Ni1 O6 1.863129 1_655
Ni1 O15 1.910068 1_555
Ni1 O0 1.958331 1_555
Ni2 O4 1.849224 1_646
Ni2 O8 1.857254 1_655
Ni2 O12 1.874697 1_555
Ni2 O3 1.918831 1_545
Ni3 O7 1.852963 1_555
Ni3 O10 1.855265 1_455
Ni3 O14 1.908352 1_555
Ni3 O1 1.960615 1_555
F0 Li6 1.853324 1_555
F0 Li0 1.943581 1_545
F0 Li8 1.953176 1_545
F0 Li23 2.051645 1_555
F1 Li7 1.845538 1_555
F1 Li9 1.934885 1_555
F1 Li1 1.936969 1_455
F1 Li22 2.052320 1_555
F2 Li22 1.813519 1_655
F2 Li14 1.901363 1_555
F2 Li6 1.921048 1_565
F2 Li11 1.926412 1_554
F3 Li23 1.834472 1_555
F3 Li10 1.909790 1_554
F3 Li7 1.918517 1_555
F3 Li15 1.923483 1_555
F4 Li1 1.908553 1_555
F4 Li14 1.918271 1_555
F4 Li7 1.920137 1_555
F4 Li5 1.925375 1_555
F5 Li4 1.893075 1_555
F5 Li6 1.910038 1_455
F5 Li0 1.911382 1_545
F5 Li15 1.924803 1_555
F6 Li24 1.869829 1_565
F6 Li3 1.968770 1_555
F6 Li18 1.994268 1_555
F6 Li12 2.079072 1_465
F6 Li16 2.247483 1_565
F6 Li26 2.317507 1_555
F7 Li25 1.898115 1_655
F7 Li2 1.958577 1_655
F7 Li19 1.966875 1_555
F7 Li13 2.051915 1_555
F7 Li17 2.106547 1_555
F7 Li27 2.407870 1_555
