# generated using pymatgen
data_K5Sc3F14
_symmetry_space_group_name_H-M   'P 1'
_cell_length_a   7.76464483
_cell_length_b   7.76464483
_cell_length_c   11.88029818
_cell_angle_alpha   90.00000000
_cell_angle_beta   90.00000000
_cell_angle_gamma   90.00000000
_symmetry_Int_Tables_number   1
_chemical_formula_structural   K5Sc3F14
_chemical_formula_sum   'K10 Sc6 F28'
_cell_volume   716.25972410
_cell_formula_units_Z   2
loop_
 _symmetry_equiv_pos_site_id
 _symmetry_equiv_pos_as_xyz
  1  'x, y, z'
loop_
 _atom_site_type_symbol
 _atom_site_label
 _atom_site_symmetry_multiplicity
 _atom_site_fract_x
 _atom_site_fract_y
 _atom_site_fract_z
 _atom_site_occupancy
  K  K0  1  0.00000000  -0.00000000  0.50000000  1
  K  K1  1  0.50000000  0.50000000  0.00000000  1
  K  K2  1  0.21361210  0.71361210  0.25000000  1
  K  K3  1  0.78638790  0.28638790  0.75000000  1
  K  K4  1  0.78638790  0.28638790  0.25000000  1
  K  K5  1  0.28638790  0.21361210  0.25000000  1
  K  K6  1  0.21361210  0.71361210  0.75000000  1
  K  K7  1  0.71361210  0.78638790  0.75000000  1
  K  K8  1  0.71361210  0.78638790  0.25000000  1
  K  K9  1  0.28638790  0.21361210  0.75000000  1
  Sc  Sc0  1  0.00000000  -0.00000000  0.00000000  1
  Sc  Sc1  1  0.50000000  0.50000000  0.50000000  1
  Sc  Sc2  1  0.00000000  0.50000000  0.00000000  1
  Sc  Sc3  1  0.50000000  -0.00000000  0.00000000  1
  Sc  Sc4  1  0.50000000  -0.00000000  0.50000000  1
  Sc  Sc5  1  0.00000000  0.50000000  0.50000000  1
  F  F0  1  0.24791170  0.08328230  0.00000000  1
  F  F1  1  0.75208830  0.91671770  0.00000000  1
  F  F2  1  0.91671770  0.24791170  0.00000000  1
  F  F3  1  0.25208830  0.58328230  0.50000000  1
  F  F4  1  0.08328230  0.75208830  0.00000000  1
  F  F5  1  0.74791170  0.41671770  0.50000000  1
  F  F6  1  0.58328230  0.74791170  0.50000000  1
  F  F7  1  0.41671770  0.25208830  0.50000000  1
  F  F8  1  0.00000000  -0.00000000  0.16942107  1
  F  F9  1  0.00000000  -0.00000000  0.83057893  1
  F  F10  1  0.50000000  0.50000000  0.33057893  1
  F  F11  1  0.50000000  0.50000000  0.66942107  1
  F  F12  1  0.04827779  0.32116347  0.38237149  1
  F  F13  1  0.95172221  0.67883653  0.61762851  1
  F  F14  1  0.95172221  0.67883653  0.38237149  1
  F  F15  1  0.67883653  0.04827779  0.38237149  1
  F  F16  1  0.45172221  0.82116347  0.11762851  1
  F  F17  1  0.04827779  0.32116347  0.61762851  1
  F  F18  1  0.32116347  0.95172221  0.61762851  1
  F  F19  1  0.54827779  0.17883653  0.88237149  1
  F  F20  1  0.32116347  0.95172221  0.38237149  1
  F  F21  1  0.54827779  0.17883653  0.11762851  1
  F  F22  1  0.67883653  0.04827779  0.61762851  1
  F  F23  1  0.45172221  0.82116347  0.88237149  1
  F  F24  1  0.82116347  0.54827779  0.11762851  1
  F  F25  1  0.17883653  0.45172221  0.88237149  1
  F  F26  1  0.17883653  0.45172221  0.11762851  1
  F  F27  1  0.82116347  0.54827779  0.88237149  1
loop_
_geom_bond_atom_site_label_1
_geom_bond_atom_site_label_2
_geom_bond_distance
_geom_bond_site_symmetry_2
F0 Sc0 2.030661 1_555
F0 Sc3 2.061428 1_555
F0 F19 2.818281 1_554
F0 F21 2.818281 1_555
F0 F9 2.859167 1_554
F0 F8 2.859167 1_555
F0 K9 3.151931 1_554
F0 K5 3.151931 1_555
F1 Sc0 2.030661 1_665
F1 Sc3 2.061428 1_565
F1 F23 2.818281 1_554
F1 F16 2.818281 1_555
F1 F9 2.859167 1_664
F1 F8 2.859167 1_665
F1 K7 3.151931 1_554
F1 K8 3.151931 1_555
F2 Sc0 2.030661 1_655
F2 Sc2 2.061428 1_655
F2 F27 2.818281 1_554
F2 F24 2.818281 1_555
F2 F9 2.859167 1_654
F2 F8 2.859167 1_655
F2 K4 3.151931 1_555
F2 K3 3.151931 1_554
F3 Sc1 2.030661 1_555
F3 Sc5 2.061428 1_555
F3 K2 3.151931 1_555
F3 K6 3.151931 1_555
F4 Sc0 2.030661 1_565
F4 Sc2 2.061428 1_555
F4 F9 2.859167 1_564
F4 F8 2.859167 1_565
F4 K2 3.151931 1_555
F4 K6 3.151931 1_554
F5 Sc1 2.030661 1_555
F5 Sc5 2.061428 1_655
F5 K3 3.151931 1_555
F5 K4 3.151931 1_555
F6 Sc1 2.030661 1_555
F6 Sc4 2.061428 1_565
F6 K8 3.151931 1_555
F6 K7 3.151931 1_555
F7 Sc1 2.030661 1_555
F7 Sc4 2.061428 1_555
F7 K5 3.151931 1_555
F7 K9 3.151931 1_555
F8 Sc0 2.012773 1_555
F8 K5 2.934672 1_555
F8 K2 2.934672 1_545
F8 K4 2.934672 1_455
F8 K8 2.934672 1_445
F9 Sc0 2.012773 1_556
F9 K9 2.934672 1_555
F9 K6 2.934672 1_545
F9 K3 2.934672 1_455
F9 K7 2.934672 1_445
F10 Sc1 2.012773 1_555
F10 F6 2.859167 1_555
F10 F3 2.859167 1_555
F10 F5 2.859167 1_555
F10 F7 2.859167 1_555
F10 K8 2.934672 1_555
F10 K4 2.934672 1_555
F10 K2 2.934672 1_555
F10 K5 2.934672 1_555
F11 Sc1 2.012773 1_555
F11 F6 2.859167 1_555
F11 F3 2.859167 1_555
F11 F5 2.859167 1_555
F11 F7 2.859167 1_555
F11 K7 2.934672 1_555
F11 K3 2.934672 1_555
F11 K6 2.934672 1_555
F11 K9 2.934672 1_555
F12 Sc5 2.005402 1_555
F12 K5 2.566848 1_555
F12 K4 2.584777 1_455
F12 F17 2.794924 1_555
F12 F5 2.818281 1_455
F12 K0 2.883064 1_555
F13 Sc5 2.005402 1_655
F13 K7 2.566848 1_555
F13 K6 2.584777 1_655
F13 F14 2.794924 1_555
F13 F3 2.818281 1_655
F13 K0 2.883064 1_665
F14 Sc5 2.005402 1_655
F14 K8 2.566848 1_555
F14 K2 2.584777 1_655
F14 F3 2.818281 1_655
F14 K0 2.883064 1_665
F15 Sc4 2.005402 1_555
F15 K4 2.566848 1_555
F15 K8 2.584777 1_545
F15 F22 2.794924 1_555
F15 F6 2.818281 1_545
F15 K0 2.883064 1_655
F16 Sc3 2.005402 1_565
F16 K2 2.566848 1_555
F16 K8 2.584777 1_555
F16 F23 2.794924 1_554
F16 K1 2.883064 1_555
F17 Sc5 2.005402 1_555
F17 K9 2.566848 1_555
F17 K3 2.584777 1_455
F17 F5 2.818281 1_455
F17 K0 2.883064 1_555
F18 Sc4 2.005402 1_565
F18 K6 2.566848 1_555
F18 K9 2.584777 1_565
F18 F20 2.794924 1_555
F18 F7 2.818281 1_565
F18 K0 2.883064 1_565
F19 Sc3 2.005402 1_556
F19 K3 2.566848 1_555
F19 K9 2.584777 1_555
F19 F21 2.794924 1_556
F19 K1 2.883064 1_556
F20 Sc4 2.005402 1_565
F20 K2 2.566848 1_555
F20 K5 2.584777 1_565
F20 F7 2.818281 1_565
F20 K0 2.883064 1_565
F21 Sc3 2.005402 1_555
F21 K4 2.566848 1_555
F21 K5 2.584777 1_555
F21 K1 2.883064 1_555
F22 Sc4 2.005402 1_555
F22 K3 2.566848 1_555
F22 K7 2.584777 1_545
F22 F6 2.818281 1_545
F22 K0 2.883064 1_655
F23 Sc3 2.005402 1_566
F23 K6 2.566848 1_555
F23 K7 2.584777 1_555
F23 K1 2.883064 1_556
F24 Sc2 2.005402 1_655
F24 K8 2.566848 1_555
F24 K4 2.584777 1_555
F24 F27 2.794924 1_554
F24 K1 2.883064 1_555
F25 Sc2 2.005402 1_556
F25 K9 2.566848 1_555
F25 K6 2.584777 1_555
F25 F26 2.794924 1_556
F25 F4 2.818281 1_556
F25 K1 2.883064 1_556
F26 Sc2 2.005402 1_555
F26 K5 2.566848 1_555
F26 K2 2.584777 1_555
F26 F4 2.818281 1_555
F26 K1 2.883064 1_555
F27 Sc2 2.005402 1_656
F27 K7 2.566848 1_555
F27 K3 2.584777 1_555
F27 K1 2.883064 1_556
