# generated using pymatgen
data_SrMg6Bi
_symmetry_space_group_name_H-M   'P 1'
_cell_length_a   5.45383900
_cell_length_b   6.52477900
_cell_length_c   12.12026500
_cell_angle_alpha   90.00000000
_cell_angle_beta   90.00000000
_cell_angle_gamma   90.00000000
_symmetry_Int_Tables_number   1
_chemical_formula_structural   SrMg6Bi
_chemical_formula_sum   'Sr2 Mg12 Bi2'
_cell_volume   431.30077147
_cell_formula_units_Z   2
loop_
 _symmetry_equiv_pos_site_id
 _symmetry_equiv_pos_as_xyz
  1  'x, y, z'
loop_
 _atom_site_type_symbol
 _atom_site_label
 _atom_site_symmetry_multiplicity
 _atom_site_fract_x
 _atom_site_fract_y
 _atom_site_fract_z
 _atom_site_occupancy
  Sr  Sr0  1  0.50000000  0.00000000  0.17074700  1
  Sr  Sr1  1  0.50000000  0.50000000  0.67074700  1
  Mg  Mg0  1  0.50000000  0.24794900  0.41836400  1
  Mg  Mg1  1  0.50000000  0.75205100  0.41836400  1
  Mg  Mg2  1  0.00000000  0.74400000  0.07329700  1
  Mg  Mg3  1  0.00000000  0.25600000  0.07329700  1
  Mg  Mg4  1  0.00000000  0.00000000  0.34361300  1
  Mg  Mg5  1  0.00000000  0.50000000  0.33918700  1
  Mg  Mg6  1  0.50000000  0.74794900  0.91836400  1
  Mg  Mg7  1  0.50000000  0.25205100  0.91836400  1
  Mg  Mg8  1  0.00000000  0.24400000  0.57329700  1
  Mg  Mg9  1  0.00000000  0.75600000  0.57329700  1
  Mg  Mg10  1  0.00000000  0.50000000  0.84361300  1
  Mg  Mg11  1  0.00000000  0.00000000  0.83918700  1
  Bi  Bi0  1  0.50000000  0.50000000  0.16312600  1
  Bi  Bi1  1  0.50000000  0.00000000  0.66312600  1
loop_
_geom_bond_atom_site_label_1
_geom_bond_atom_site_label_2
_geom_bond_distance
_geom_bond_site_symmetry_2
Mg0 Mg1 3.235625 1_545
Mg0 Mg1 3.289154 1_555
Mg0 Mg4 3.297612 1_655
Mg0 Mg4 3.297612 1_555
Mg0 Mg8 3.311041 1_555
Mg0 Mg8 3.311041 1_655
Mg0 Mg5 3.325905 1_655
Mg0 Mg5 3.325905 1_555
Mg0 Sr0 3.409460 1_555
Mg0 Sr1 3.473010 1_555
Mg1 Mg4 3.297612 1_665
Mg1 Mg4 3.297612 1_565
Mg1 Mg9 3.311041 1_655
Mg1 Mg9 3.311041 1_555
Mg1 Mg5 3.325905 1_555
Mg1 Mg5 3.325905 1_655
Mg1 Sr0 3.409460 1_565
Mg1 Sr1 3.473010 1_555
Mg2 Mg3 3.184092 1_555
Mg2 Mg6 3.311041 1_454
Mg2 Mg6 3.311041 1_554
Mg2 Mg3 3.340687 1_565
Mg2 Sr0 3.408985 1_465
Mg2 Sr0 3.408985 1_565
Mg2 Mg5 3.594458 1_555
Mg2 Mg4 3.677526 1_565
Mg3 Mg7 3.311041 1_554
Mg3 Mg7 3.311041 1_454
Mg3 Sr0 3.408985 1_455
Mg3 Sr0 3.408985 1_555
Mg3 Mg5 3.594458 1_555
Mg3 Mg4 3.677526 1_555
Mg4 Mg9 3.206918 1_545
Mg4 Mg8 3.206918 1_555
Mg4 Mg5 3.262831 1_555
Mg4 Mg5 3.262831 1_545
Mg4 Sr0 3.438877 1_455
Mg4 Sr0 3.438877 1_555
Mg5 Mg8 3.292615 1_555
Mg5 Mg9 3.292615 1_555
Mg6 Mg7 3.235625 1_555
Mg6 Mg7 3.289154 1_565
Mg6 Sr1 3.409460 1_555
Mg6 Sr0 3.473010 1_566
Mg7 Sr1 3.409460 1_555
Mg7 Sr0 3.473010 1_556
Mg8 Mg9 3.184092 1_545
Mg8 Mg9 3.340687 1_555
Mg8 Sr1 3.408985 1_455
Mg8 Sr1 3.408985 1_555
Mg9 Sr1 3.408985 1_455
Mg9 Sr1 3.408985 1_555
Mg10 Mg3 3.206918 1_556
Mg10 Mg2 3.206918 1_556
Mg10 Mg11 3.262831 1_565
Mg10 Mg11 3.262831 1_555
Mg10 Mg6 3.297612 1_455
Mg10 Mg6 3.297612 1_555
Mg10 Mg7 3.297612 1_555
Mg10 Mg7 3.297612 1_455
Mg10 Sr1 3.438877 1_455
Mg10 Sr1 3.438877 1_555
Mg10 Mg8 3.677526 1_555
Mg10 Mg9 3.677526 1_555
Mg11 Mg3 3.292615 1_556
Mg11 Mg2 3.292615 1_546
Mg11 Mg7 3.325905 1_555
Mg11 Mg7 3.325905 1_455
Mg11 Mg6 3.325905 1_445
Mg11 Mg6 3.325905 1_545
Mg11 Mg8 3.594458 1_555
Mg11 Mg9 3.594458 1_545
Bi0 Sr0 3.263697 1_565
Bi0 Sr0 3.263697 1_555
Bi0 Mg3 3.340072 1_555
Bi0 Mg2 3.340072 1_555
Bi0 Mg3 3.340072 1_655
Bi0 Mg2 3.340072 1_655
Bi0 Mg6 3.379041 1_554
Bi0 Mg7 3.379041 1_554
Bi0 Mg5 3.462607 1_655
Bi0 Mg5 3.462607 1_555
Bi0 Mg1 3.503527 1_555
Bi0 Mg0 3.503527 1_555
Bi1 Sr1 3.263697 1_545
Bi1 Sr1 3.263697 1_555
Bi1 Mg8 3.340072 1_555
Bi1 Mg8 3.340072 1_655
Bi1 Mg9 3.340072 1_645
Bi1 Mg9 3.340072 1_545
Bi1 Mg0 3.379041 1_555
Bi1 Mg1 3.379041 1_545
Bi1 Mg11 3.462607 1_655
Bi1 Mg11 3.462607 1_555
Bi1 Mg7 3.503527 1_555
Bi1 Mg6 3.503527 1_545
