# generated using pymatgen
data_FeCo2B
_symmetry_space_group_name_H-M   'P 1'
_cell_length_a   4.35241200
_cell_length_b   5.20279900
_cell_length_c   6.57164500
_cell_angle_alpha   90.00000000
_cell_angle_beta   90.00000000
_cell_angle_gamma   90.00000000
_symmetry_Int_Tables_number   1
_chemical_formula_structural   FeCo2B
_chemical_formula_sum   'Fe4 Co8 B4'
_cell_volume   148.81309252
_cell_formula_units_Z   4
loop_
 _symmetry_equiv_pos_site_id
 _symmetry_equiv_pos_as_xyz
  1  'x, y, z'
loop_
 _atom_site_type_symbol
 _atom_site_label
 _atom_site_symmetry_multiplicity
 _atom_site_fract_x
 _atom_site_fract_y
 _atom_site_fract_z
 _atom_site_occupancy
  Fe  Fe0  1  0.86942400  0.52822000  0.25000000  1
  Fe  Fe1  1  0.63057600  0.02822000  0.25000000  1
  Fe  Fe2  1  0.13057600  0.47178000  0.75000000  1
  Fe  Fe3  1  0.36942400  0.97178000  0.75000000  1
  Co  Co0  1  0.35276200  0.68590900  0.05988800  1
  Co  Co1  1  0.14723800  0.18590900  0.44011200  1
  Co  Co2  1  0.64723800  0.31409100  0.55988800  1
  Co  Co3  1  0.85276200  0.81409100  0.94011200  1
  Co  Co4  1  0.64723800  0.31409100  0.94011200  1
  Co  Co5  1  0.85276200  0.81409100  0.55988800  1
  Co  Co6  1  0.35276200  0.68590900  0.44011200  1
  Co  Co7  1  0.14723800  0.18590900  0.05988800  1
  B  B0  1  0.07093200  0.88315000  0.25000000  1
  B  B1  1  0.42906800  0.38315000  0.25000000  1
  B  B2  1  0.92906800  0.11685000  0.75000000  1
  B  B3  1  0.57093200  0.61685000  0.75000000  1
loop_
_geom_bond_atom_site_label_1
_geom_bond_atom_site_label_2
_geom_bond_distance
_geom_bond_site_symmetry_2
Co0 Co3 2.408361 1_554
Co0 Co3 2.408361 1_454
Co0 Co4 2.450416 1_554
Co0 Fe1 2.488939 1_565
Co0 Co6 2.498697 1_555
Co0 Fe2 2.514668 1_554
Co0 Fe3 2.522823 1_554
Co0 Fe0 2.580594 1_455
Co0 Fe0 2.700136 1_555
Co1 Co2 2.408361 1_455
Co1 Co2 2.408361 1_555
Co1 Co5 2.450416 1_445
Co1 Fe0 2.488939 1_455
Co1 Co7 2.498697 1_555
Co1 Fe3 2.514668 1_545
Co1 Fe2 2.522823 1_555
Co1 Fe1 2.580594 1_555
Co1 Fe1 2.700136 1_455
Co2 Co6 2.450416 1_555
Co2 Fe3 2.488939 1_545
Co2 Co4 2.498697 1_555
Co2 Fe0 2.514668 1_555
Co2 Fe1 2.522823 1_555
Co2 Fe2 2.580594 1_655
Co2 Fe2 2.700136 1_555
Co3 Co7 2.450416 1_666
Co3 Fe2 2.488939 1_655
Co3 Co5 2.498697 1_555
Co3 Fe1 2.514668 1_566
Co3 Fe0 2.522823 1_556
Co3 Fe3 2.580594 1_555
Co3 Fe3 2.700136 1_655
Co4 Co7 2.408361 1_656
Co4 Co7 2.408361 1_556
Co4 Fe3 2.488939 1_545
Co4 Fe0 2.514668 1_556
Co4 Fe1 2.522823 1_556
Co4 Fe2 2.580594 1_655
Co4 Fe2 2.700136 1_555
Co5 Co6 2.408361 1_655
Co5 Co6 2.408361 1_555
Co5 Fe2 2.488939 1_655
Co5 Fe1 2.514668 1_565
Co5 Fe0 2.522823 1_555
Co5 Fe3 2.580594 1_555
Co5 Fe3 2.700136 1_655
Co6 Fe1 2.488939 1_565
Co6 Fe2 2.514668 1_555
Co6 Fe3 2.522823 1_555
Co6 Fe0 2.580594 1_455
Co6 Fe0 2.700136 1_555
Co7 Fe0 2.488939 1_455
Co7 Fe3 2.514668 1_544
Co7 Fe2 2.522823 1_554
Co7 Fe1 2.580594 1_555
Co7 Fe1 2.700136 1_455
B0 Co0 2.029437 1_555
B0 Co6 2.029437 1_555
B0 Co7 2.037746 1_565
B0 Co1 2.037746 1_565
B0 Fe0 2.044321 1_455
B0 Fe1 2.059872 1_465
B0 Co5 2.275521 1_455
B0 Co3 2.275521 1_454
B0 Fe1 2.550060 1_565
B1 Co7 2.029437 1_555
B1 Co1 2.029437 1_555
B1 Co6 2.037746 1_555
B1 Co0 2.037746 1_555
B1 Fe1 2.044321 1_555
B1 Fe0 2.059872 1_555
B1 Co2 2.275521 1_555
B1 Co4 2.275521 1_554
B1 Fe0 2.550060 1_455
B2 Co4 2.029437 1_555
B2 Co2 2.029437 1_555
B2 Co3 2.037746 1_545
B2 Co5 2.037746 1_545
B2 Fe2 2.044321 1_655
B2 Fe3 2.059872 1_645
B2 Co7 2.275521 1_656
B2 Co1 2.275521 1_655
B2 Fe3 2.550060 1_545
B3 Co3 2.029437 1_555
B3 Co5 2.029437 1_555
B3 Co4 2.037746 1_555
B3 Co2 2.037746 1_555
B3 Fe3 2.044321 1_555
B3 Fe2 2.059872 1_555
B3 Co0 2.275521 1_556
B3 Co6 2.275521 1_555
B3 Fe2 2.550060 1_655
