# generated using pymatgen
data_Tl2SnHgSe4
_symmetry_space_group_name_H-M   'P 1'
_cell_length_a   6.82916388
_cell_length_b   6.82916388
_cell_length_c   6.82916388
_cell_angle_alpha   105.55382537
_cell_angle_beta   105.55382537
_cell_angle_gamma   117.62695862
_symmetry_Int_Tables_number   1
_chemical_formula_structural   Tl2SnHgSe4
_chemical_formula_sum   'Tl2 Sn1 Hg1 Se4'
_cell_volume   241.40272903
_cell_formula_units_Z   1
loop_
 _symmetry_equiv_pos_site_id
 _symmetry_equiv_pos_as_xyz
  1  'x, y, z'
loop_
 _atom_site_type_symbol
 _atom_site_label
 _atom_site_symmetry_multiplicity
 _atom_site_fract_x
 _atom_site_fract_y
 _atom_site_fract_z
 _atom_site_occupancy
  Tl  Tl0  1  0.50000000  0.00000000  0.50000000  1
  Tl  Tl1  1  0.00000000  0.50000000  0.50000000  1
  Sn  Sn0  1  0.00000000  0.00000000  0.00000000  1
  Hg  Hg0  1  0.50000000  0.50000000  0.00000000  1
  Se  Se0  1  0.94103000  0.59769400  0.00000000  1
  Se  Se1  1  0.59769400  0.94103000  0.00000000  1
  Se  Se2  1  0.05897000  0.05897000  0.65666400  1
  Se  Se3  1  0.40230600  0.40230600  0.34333600  1
loop_
_geom_bond_atom_site_label_1
_geom_bond_atom_site_label_2
_geom_bond_distance
_geom_bond_site_symmetry_2
Tl0 Tl1 3.536317 1_545
Tl0 Tl1 3.536317 1_655
Hg0 Se3 2.766381 1_555
Hg0 Se1 2.766381 1_555
Hg0 Se0 2.766381 1_555
Hg0 Se2 2.766381 1_554
Se0 Sn0 2.585408 1_665
Se0 Tl0 3.468657 1_665
Se0 Tl1 3.468657 1_654
Se0 Tl0 3.605566 1_554
Se0 Tl1 3.605566 1_655
Se1 Sn0 2.585408 1_665
Se1 Tl0 3.468657 1_564
Se1 Tl1 3.468657 1_665
Se1 Tl1 3.605566 1_554
Se1 Tl0 3.605566 1_565
Se2 Sn0 2.585408 1_556
Se2 Tl0 3.468657 1_455
Se2 Tl1 3.468657 1_545
Se2 Tl1 3.605566 1_555
Se2 Tl0 3.605566 1_555
Se3 Sn0 2.585408 1_555
Se3 Tl0 3.468657 1_555
Se3 Tl1 3.468657 1_555
Se3 Tl0 3.605566 1_565
Se3 Tl1 3.605566 1_655
