# generated using pymatgen
data_Sr2TaInO6
_symmetry_space_group_name_H-M   'P 1'
_cell_length_a   5.79278320
_cell_length_b   5.79278320
_cell_length_c   5.83799595
_cell_angle_alpha   59.84899754
_cell_angle_beta   59.84899754
_cell_angle_gamma   60.18609907
_symmetry_Int_Tables_number   1
_chemical_formula_structural   Sr2TaInO6
_chemical_formula_sum   'Sr2 Ta1 In1 O6'
_cell_volume   138.39888844
_cell_formula_units_Z   1
loop_
 _symmetry_equiv_pos_site_id
 _symmetry_equiv_pos_as_xyz
  1  'x, y, z'
loop_
 _atom_site_type_symbol
 _atom_site_label
 _atom_site_symmetry_multiplicity
 _atom_site_fract_x
 _atom_site_fract_y
 _atom_site_fract_z
 _atom_site_occupancy
  Sr  Sr0  1  0.74878500  0.74878500  0.74192500  1
  Sr  Sr1  1  0.25121500  0.25121500  0.25807500  1
  Ta  Ta0  1  0.50000000  0.50000000  0.50000000  1
  In  In0  1  0.00000000  0.00000000  0.00000000  1
  O  O0  1  0.73846400  0.73846400  0.18142200  1
  O  O1  1  0.26153600  0.26153600  0.81857800  1
  O  O2  1  0.30321000  0.78402200  0.69454900  1
  O  O3  1  0.21597800  0.69679000  0.30545100  1
  O  O4  1  0.69679000  0.21597800  0.30545100  1
  O  O5  1  0.78402200  0.30321000  0.69454900  1
loop_
_geom_bond_atom_site_label_1
_geom_bond_atom_site_label_2
_geom_bond_distance
_geom_bond_site_symmetry_2
In0 O3 2.177129 1_545
In0 O4 2.177129 1_455
In0 O5 2.177129 1_454
In0 O2 2.177129 1_544
In0 O1 2.184226 1_554
In0 O0 2.184226 1_445
O0 Ta0 2.002782 1_555
O0 Sr0 2.507137 1_554
O0 O2 2.818806 1_555
O0 O5 2.818806 1_555
O0 Sr1 2.952851 1_565
O0 Sr1 2.952851 1_655
O1 Ta0 2.002782 1_555
O1 Sr1 2.507137 1_556
O1 O3 2.818806 1_555
O1 O4 2.818806 1_555
O1 Sr0 2.952851 1_545
O1 Sr0 2.952851 1_455
O2 Ta0 2.001997 1_555
O2 Sr0 2.629996 1_555
O2 Sr1 2.634553 1_565
O2 O5 2.793071 1_555
O2 Sr0 3.183673 1_455
O2 Sr1 3.188841 1_556
O3 Ta0 2.001997 1_555
O3 Sr1 2.629996 1_555
O3 Sr0 2.634553 1_455
O3 O4 2.793071 1_555
O3 Sr1 3.183673 1_565
O3 Sr0 3.188841 1_554
O4 Ta0 2.001997 1_555
O4 Sr1 2.629996 1_555
O4 Sr0 2.634553 1_545
O4 Sr1 3.183673 1_655
O4 Sr0 3.188841 1_554
O5 Ta0 2.001997 1_555
O5 Sr0 2.629996 1_555
O5 Sr1 2.634553 1_655
O5 Sr0 3.183673 1_545
O5 Sr1 3.188841 1_556
