# generated using pymatgen
data_K3Rb5Te4H24(SO10)4
_symmetry_space_group_name_H-M   'P 1'
_cell_length_a   6.65884900
_cell_length_b   11.53296809
_cell_length_c   13.79215999
_cell_angle_alpha   73.30788353
_cell_angle_beta   89.92166785
_cell_angle_gamma   89.92804844
_symmetry_Int_Tables_number   1
_chemical_formula_structural   K3Rb5Te4H24(SO10)4
_chemical_formula_sum   'K3 Rb5 Te4 H24 S4 O40'
_cell_volume   1014.55341489
_cell_formula_units_Z   1
loop_
 _symmetry_equiv_pos_site_id
 _symmetry_equiv_pos_as_xyz
  1  'x, y, z'
loop_
 _atom_site_type_symbol
 _atom_site_label
 _atom_site_symmetry_multiplicity
 _atom_site_fract_x
 _atom_site_fract_y
 _atom_site_fract_z
 _atom_site_occupancy
  K  K0  1  0.47815100  0.15266700  0.14402200  1
  K  K1  1  0.97826800  0.34715100  0.85597200  1
  K  K2  1  0.52155900  0.84693600  0.85600700  1
  Rb  Rb0  1  0.01803800  0.65245400  0.14437400  1
  Rb  Rb1  1  0.49678800  0.39798800  0.35915400  1
  Rb  Rb2  1  0.99677100  0.10169800  0.64115700  1
  Rb  Rb3  1  0.50321300  0.60169400  0.64120800  1
  Rb  Rb4  1  0.00346700  0.89876400  0.35902500  1
  Te  Te0  1  0.00021400  0.49972600  0.50058700  1
  Te  Te1  1  0.50000800  0.99997800  0.50005600  1
  Te  Te2  1  0.00015600  0.00121000  0.99964700  1
  Te  Te3  1  0.49921000  0.49973200  0.99908200  1
  H  H0  1  0.25611700  0.36525900  0.61130200  1
  H  H1  1  0.75587100  0.13416100  0.38927800  1
  H  H2  1  0.74445900  0.63472300  0.38991200  1
  H  H3  1  0.24411100  0.86568500  0.61077400  1
  H  H4  1  0.32364900  0.09685100  0.92222100  1
  H  H5  1  0.82251600  0.40291000  0.07727000  1
  H  H6  1  0.67688100  0.90418600  0.07716200  1
  H  H7  1  0.17608700  0.59589500  0.92111900  1
  H  H8  1  0.94186900  0.14167100  0.10344600  1
  H  H9  1  0.44221000  0.35758800  0.89641400  1
  H  H10  1  0.05800400  0.85892700  0.89679300  1
  H  H11  1  0.55616600  0.64125600  0.10290100  1
  H  H12  1  0.00786700  0.32850500  0.41897700  1
  H  H13  1  0.50768100  0.17147200  0.58113700  1
  H  H14  1  0.99203000  0.67162700  0.58143300  1
  H  H15  1  0.49196100  0.82859400  0.41900100  1
  H  H16  1  0.78792600  0.36644000  0.63591500  1
  H  H17  1  0.28828200  0.13329500  0.36439200  1
  H  H18  1  0.21243000  0.63331200  0.36528500  1
  H  H19  1  0.71174400  0.86662200  0.63564700  1
  H  H20  1  0.24365300  0.91182900  0.13799200  1
  H  H21  1  0.74380500  0.58912200  0.86132500  1
  H  H22  1  0.75644700  0.08965800  0.86151700  1
  H  H23  1  0.25650000  0.40976000  0.13805900  1
  S  S0  1  0.98936400  0.26412200  0.24584500  1
  S  S1  1  0.48956400  0.23429900  0.75434300  1
  S  S2  1  0.01046900  0.73448500  0.75431900  1
  S  S3  1  0.51200600  0.76621500  0.24647300  1
  O  O0  1  0.26461800  0.43235800  0.54573600  1
  O  O1  1  0.76452300  0.06712800  0.45494800  1
  O  O2  1  0.73570500  0.56687000  0.45503200  1
  O  O3  1  0.23542700  0.93284600  0.54524700  1
  O  O4  1  0.23686400  0.10495500  0.97936900  1
  O  O5  1  0.73666900  0.39611500  0.01952100  1
  O  O6  1  0.76361100  0.89701600  0.01968900  1
  O  O7  1  0.26319800  0.60385800  0.97808100  1
  O  O8  1  0.88140700  0.43441000  0.63529400  1
  O  O9  1  0.38213000  0.06531400  0.36521200  1
  O  O10  1  0.12008800  0.56468600  0.36628700  1
  O  O11  1  0.61797300  0.93463100  0.63489800  1
  O  O12  1  0.49962900  0.88991400  0.17144000  1
  O  O13  1  0.99942200  0.60998700  0.82831600  1
  O  O14  1  0.50082600  0.10992900  0.82850900  1
  O  O15  1  0.00040900  0.38777000  0.17078600  1
  O  O16  1  0.12113500  0.26219000  0.33499600  1
  O  O17  1  0.62131800  0.23738200  0.66478300  1
  O  O18  1  0.87864100  0.73763100  0.66493700  1
  O  O19  1  0.37704600  0.76294200  0.33491500  1
  O  O20  1  0.09369900  0.91723700  0.13676400  1
  O  O21  1  0.59375900  0.58491500  0.86231600  1
  O  O22  1  0.90661800  0.08643100  0.86278500  1
  O  O23  1  0.40647600  0.41463300  0.13643400  1
  O  O24  1  0.06563800  0.17102900  0.19961400  1
  O  O25  1  0.56578900  0.32657700  0.80135700  1
  O  O26  1  0.93414200  0.82663800  0.80162100  1
  O  O27  1  0.44107700  0.67239400  0.19984100  1
  O  O28  1  0.91856400  0.35168900  0.46896800  1
  O  O29  1  0.41814200  0.14826600  0.53134600  1
  O  O30  1  0.08142800  0.64807700  0.53161200  1
  O  O31  1  0.58168300  0.85169300  0.46874900  1
  O  O32  1  0.85703200  0.11927100  0.05108100  1
  O  O33  1  0.35717700  0.38108800  0.94832900  1
  O  O34  1  0.14318000  0.88294300  0.94820800  1
  O  O35  1  0.63891500  0.61903800  0.04964700  1
  O  O36  1  0.77684400  0.23900200  0.27874200  1
  O  O37  1  0.27704500  0.26002200  0.72181800  1
  O  O38  1  0.22289800  0.76018900  0.72149900  1
  O  O39  1  0.72374600  0.74246500  0.28073200  1
loop_
_geom_bond_atom_site_label_1
_geom_bond_atom_site_label_2
_geom_bond_distance
_geom_bond_site_symmetry_2
K0 O24 2.874723 1_555
K0 O32 2.903260 1_555
K0 O12 2.947385 1_545
K0 O4 2.961650 1_554
K0 O9 2.993527 1_555
K0 O23 3.030106 1_555
K0 O36 3.078584 1_555
K0 O33 3.284762 1_554
K0 O5 3.321061 1_555
K1 O25 2.877095 1_555
K1 O33 2.905074 1_655
K1 O13 2.948000 1_555
K1 O5 2.952071 1_556
K1 O8 2.989416 1_555
K1 O22 3.019757 1_555
K1 O37 3.073171 1_655
K1 O32 3.276711 1_556
K1 O4 3.305882 1_655
K2 O26 2.873827 1_555
K2 O34 2.903401 1_555
K2 O14 2.949714 1_565
K2 O6 2.964658 1_556
K2 O11 2.993232 1_555
K2 O21 3.035767 1_555
K2 O38 3.078775 1_555
K2 O35 3.258785 1_556
K2 O7 3.308522 1_555
H0 O0 1.008847 1_555
H0 O37 1.659292 1_555
H0 Rb3 3.312407 1_555
H1 O1 1.009517 1_555
H1 O36 1.657287 1_555
H1 Rb4 3.301547 1_645
H1 Rb1 3.416073 1_555
H2 O2 1.009288 1_555
H2 O39 1.660066 1_555
H2 Rb1 3.321553 1_555
H3 O3 1.008947 1_555
H3 O38 1.662796 1_555
H3 Rb2 3.307447 1_465
H4 O4 1.002436 1_555
H4 O14 1.723220 1_555
H5 O5 1.002255 1_555
H5 O15 1.723808 1_655
H6 O6 1.002491 1_555
H6 O12 1.727513 1_555
H7 O7 1.002468 1_555
H7 O13 1.712517 1_455
H8 O32 1.008040 1_555
H8 O24 1.677734 1_655
H8 K0 3.146270 1_555
H9 O33 1.008331 1_555
H9 O25 1.670199 1_555
H9 K1 3.148606 1_455
H10 O34 1.007761 1_555
H10 O26 1.681206 1_455
H10 K2 3.146810 1_555
H11 O35 1.007671 1_555
H11 O27 1.666193 1_555
H11 Rb0 3.138635 1_655
H12 O28 1.002436 1_455
H12 O16 1.732185 1_555
H12 Rb1 3.397290 1_555
H12 Rb2 3.410733 1_455
H13 O29 1.002899 1_555
H13 O17 1.728849 1_555
H13 Rb1 3.407193 1_555
H14 O30 1.002986 1_655
H14 O18 1.725040 1_555
H15 O31 1.002602 1_555
H15 O19 1.735543 1_555
H15 Rb3 3.411593 1_555
H16 O8 0.999698 1_555
H16 O17 1.807550 1_555
H16 Rb3 3.325873 1_555
H16 Rb2 3.335324 1_555
H17 O9 0.999519 1_555
H17 O16 1.806605 1_555
H17 Rb1 3.336995 1_555
H18 O10 0.999805 1_555
H18 O19 1.804220 1_555
H18 Rb1 3.328165 1_555
H18 Rb4 3.339739 1_555
H19 O11 0.999661 1_555
H19 O18 1.806438 1_555
H19 Rb2 3.330145 1_565
H19 Rb3 3.338454 1_555
H20 O20 1.000252 1_555
H20 O12 1.765255 1_555
H20 K0 3.209991 1_565
H21 O21 1.000256 1_555
H21 O13 1.760211 1_555
H21 K1 3.215238 1_555
H22 O22 1.000602 1_555
H22 O14 1.760447 1_555
H22 K2 3.228277 1_545
H23 O23 1.000177 1_555
H23 O15 1.763301 1_555
H23 Rb0 3.239099 1_555
O0 Te0 1.952653 1_555
O0 Rb3 3.092382 1_555
O0 Rb1 3.121375 1_555
O1 Te1 1.952657 1_545
O1 Rb4 3.084543 1_645
O1 Rb2 3.122023 1_555
O2 Te0 1.953659 1_655
O2 Rb1 3.092948 1_555
O2 Rb3 3.119525 1_555
O3 Te1 1.953223 1_555
O3 Rb2 3.087684 1_465
O3 Rb4 3.119177 1_555
O4 Te2 1.950774 1_555
O5 Te3 1.952096 1_554
O6 Te2 1.952986 1_664
O6 Rb0 3.315502 1_655
O7 Te3 1.947442 1_555
O7 Rb0 2.994215 1_556
O8 Te0 1.959237 1_655
O8 Rb3 3.185661 1_555
O9 Te1 1.959642 1_545
O9 Rb4 3.187708 1_545
O10 Te0 1.956958 1_555
O10 Rb0 3.013014 1_555
O10 Rb1 3.177050 1_555
O11 Te1 1.959865 1_555
O11 Rb2 3.192267 1_565
O12 S3 1.504929 1_555
O13 S2 1.505611 1_655
O14 S1 1.505466 1_555
O15 S0 1.504216 1_455
O15 Rb0 2.970991 1_555
O16 S0 1.506467 1_455
O16 Rb1 3.022057 1_555
O17 S1 1.506201 1_555
O17 Rb2 3.014331 1_555
O18 S2 1.506253 1_655
O18 Rb3 3.020164 1_555
O19 S3 1.505859 1_555
O19 Rb4 3.006600 1_555
O20 Te2 1.962627 1_564
O20 Rb0 3.067529 1_555
O20 Rb4 3.069781 1_555
O21 Te3 1.963009 1_555
O21 Rb3 3.060474 1_555
O22 Te2 1.962900 1_655
O22 Rb2 3.069371 1_555
O23 Te3 1.965578 1_554
O23 Rb1 3.082273 1_555
O24 S0 1.486012 1_455
O24 Rb4 3.301508 1_545
O25 S1 1.486393 1_555
O25 Rb3 3.330619 1_555
O26 S2 1.486447 1_655
O26 Rb2 3.332098 1_565
O27 S3 1.486408 1_555
O27 Rb0 2.946512 1_555
O27 Rb1 3.314468 1_555
O28 Te0 1.957388 1_655
O28 Rb1 3.163897 1_555
O28 Rb2 3.207789 1_555
O29 Te1 1.956832 1_545
O29 Rb2 3.159100 1_455
O29 Rb1 3.206279 1_555
O30 Te0 1.956106 1_555
O30 Rb3 3.162684 1_555
O30 Rb4 3.215679 1_555
O31 Te1 1.956558 1_555
O31 Rb4 3.161227 1_655
O31 Rb3 3.210055 1_555
O32 Te2 1.953257 1_654
O33 Te3 1.952450 1_555
O34 Te2 1.954875 1_565
O34 Rb0 3.308848 1_556
O35 Te3 1.949681 1_554
O35 Rb0 2.920506 1_655
O36 S0 1.488682 1_555
O36 Rb1 3.037043 1_555
O37 S1 1.488648 1_555
O37 Rb2 3.039071 1_455
O38 S2 1.488589 1_555
O38 Rb3 3.033198 1_555
O39 S3 1.487526 1_555
O39 Rb4 3.002804 1_655
O39 Rb0 3.092105 1_655
