# generated using pymatgen
data_NdF3
_symmetry_space_group_name_H-M   'P 1'
_cell_length_a   7.11341517
_cell_length_b   7.11341517
_cell_length_c   7.08252900
_cell_angle_alpha   90.00000000
_cell_angle_beta   90.00000000
_cell_angle_gamma   119.99999224
_symmetry_Int_Tables_number   1
_chemical_formula_structural   NdF3
_chemical_formula_sum   'Nd6 F18'
_cell_volume   310.36685830
_cell_formula_units_Z   6
loop_
 _symmetry_equiv_pos_site_id
 _symmetry_equiv_pos_as_xyz
  1  'x, y, z'
loop_
 _atom_site_type_symbol
 _atom_site_label
 _atom_site_symmetry_multiplicity
 _atom_site_fract_x
 _atom_site_fract_y
 _atom_site_fract_z
 _atom_site_occupancy
  Nd  Nd0  1  0.33053300  0.00000000  0.50000000  1
  Nd  Nd1  1  0.00000000  0.33053300  0.50000000  1
  Nd  Nd2  1  0.66946700  0.66946700  0.50000000  1
  Nd  Nd3  1  0.66946700  0.00000000  0.00000000  1
  Nd  Nd4  1  0.00000000  0.66946700  0.00000000  1
  Nd  Nd5  1  0.33053300  0.33053300  0.00000000  1
  F  F0  1  0.34765100  0.34019300  0.33395400  1
  F  F1  1  0.65980700  0.00745700  0.33395400  1
  F  F2  1  0.99254300  0.65234900  0.33395400  1
  F  F3  1  0.34019300  0.34765100  0.66604600  1
  F  F4  1  0.00745700  0.65980700  0.66604600  1
  F  F5  1  0.65234900  0.99254300  0.66604600  1
  F  F6  1  0.65234900  0.65980700  0.83395400  1
  F  F7  1  0.34019300  0.99254300  0.83395400  1
  F  F8  1  0.00745700  0.34765100  0.83395400  1
  F  F9  1  0.65980700  0.65234900  0.16604600  1
  F  F10  1  0.99254300  0.34019300  0.16604600  1
  F  F11  1  0.34765100  0.00745700  0.16604600  1
  F  F12  1  0.33333300  0.66666700  0.48396100  1
  F  F13  1  0.66666700  0.33333300  0.51603900  1
  F  F14  1  0.66666700  0.33333300  0.98396100  1
  F  F15  1  0.33333300  0.66666700  0.01603900  1
  F  F16  1  0.00000000  0.00000000  0.25000000  1
  F  F17  1  0.00000000  0.00000000  0.75000000  1
loop_
_geom_bond_atom_site_label_1
_geom_bond_atom_site_label_2
_geom_bond_distance
_geom_bond_site_symmetry_2
F0 F3 2.353845 1_555
F0 Nd5 2.367601 1_555
F0 F16 2.518102 1_555
F0 F9 2.518894 1_555
F0 Nd2 2.597650 1_555
F0 F12 2.601720 1_555
F0 F13 2.631717 1_555
F0 Nd0 2.638044 1_555
F0 F11 2.648848 1_555
F0 Nd1 2.708041 1_555
F0 F10 2.791963 1_455
F1 F5 2.353845 1_545
F1 Nd3 2.367601 1_555
F1 F16 2.518098 1_655
F1 F11 2.518894 1_555
F1 Nd0 2.597653 1_555
F1 F12 2.601713 1_545
F1 F13 2.631717 1_555
F1 Nd1 2.638047 1_655
F1 F10 2.648848 1_555
F1 Nd2 2.708034 1_545
F1 F9 2.791963 1_545
F2 F4 2.353845 1_655
F2 Nd4 2.367602 1_655
F2 Nd1 2.597646 1_655
F2 Nd2 2.638050 1_555
F2 F9 2.648848 1_555
F2 Nd0 2.708038 1_665
F3 Nd5 2.367601 1_556
F3 F6 2.518894 1_555
F3 Nd2 2.597650 1_555
F3 Nd1 2.638044 1_555
F3 F8 2.648848 1_555
F3 Nd0 2.708041 1_555
F3 F7 2.791963 1_545
F4 Nd4 2.367601 1_556
F4 F8 2.518894 1_555
F4 Nd1 2.597653 1_555
F4 Nd0 2.638047 1_565
F4 F7 2.648848 1_555
F4 Nd2 2.708034 1_455
F4 F6 2.791963 1_455
F5 Nd3 2.367602 1_566
F5 F7 2.518894 1_555
F5 Nd0 2.597646 1_565
F5 Nd2 2.638050 1_555
F5 F6 2.648848 1_555
F5 Nd1 2.708038 1_665
F5 F8 2.791964 1_665
F6 F9 2.353845 1_556
F6 Nd2 2.367601 1_555
F6 Nd5 2.597650 1_556
F6 Nd3 2.638044 1_566
F6 Nd4 2.708041 1_656
F7 Nd0 2.367601 1_565
F7 Nd3 2.597653 1_566
F7 Nd4 2.638047 1_556
F7 Nd5 2.708034 1_566
F8 Nd1 2.367602 1_555
F8 Nd4 2.597646 1_556
F8 Nd5 2.638050 1_556
F8 Nd3 2.708038 1_456
F9 Nd2 2.367601 1_555
F9 Nd5 2.597650 1_555
F9 Nd4 2.638044 1_655
F9 Nd3 2.708041 1_565
F10 F8 2.353845 1_654
F10 Nd1 2.367601 1_655
F10 F16 2.518098 1_655
F10 F2 2.518894 1_555
F10 Nd4 2.597653 1_655
F10 F15 2.601713 1_655
F10 F14 2.631717 1_554
F10 Nd3 2.638047 1_555
F10 Nd5 2.708034 1_655
F11 F7 2.353845 1_544
F11 Nd0 2.367602 1_555
F11 F16 2.518105 1_555
F11 Nd3 2.597646 1_555
F11 F15 2.601707 1_545
F11 F14 2.631718 1_554
F11 Nd5 2.638050 1_555
F11 Nd4 2.708038 1_545
F11 F2 2.791964 1_445
F12 Nd0 2.383865 1_565
F12 Nd1 2.383869 1_555
F12 Nd2 2.383872 1_555
F12 F2 2.601707 1_455
F12 F3 2.631717 1_555
F12 F4 2.631717 1_555
F12 F5 2.631718 1_555
F12 F15 3.314071 1_555
F13 Nd1 2.383865 1_655
F13 Nd0 2.383869 1_555
F13 Nd2 2.383872 1_555
F13 F5 2.601707 1_545
F13 F4 2.601713 1_655
F13 F3 2.601720 1_555
F13 F2 2.631718 1_555
F13 F14 3.314071 1_555
F14 Nd3 2.383865 1_556
F14 Nd4 2.383869 1_656
F14 Nd5 2.383872 1_556
F14 F8 2.601707 1_655
F14 F7 2.601713 1_545
F14 F6 2.601720 1_555
F14 F9 2.631717 1_556
F15 Nd4 2.383865 1_555
F15 Nd3 2.383869 1_565
F15 Nd5 2.383872 1_555
F15 F9 2.601720 1_555
F15 F6 2.631717 1_554
F15 F7 2.631717 1_554
F15 F8 2.631718 1_554
F16 F9 2.518102 1_445
F16 F2 2.518105 1_445
F16 Nd1 2.943360 1_555
F16 Nd0 2.943360 1_555
F16 Nd3 2.943360 1_455
F16 Nd4 2.943360 1_545
F16 Nd5 2.943360 1_555
F16 Nd2 2.943360 1_445
F17 F7 2.518098 1_545
F17 F4 2.518098 1_545
F17 F3 2.518102 1_555
F17 F6 2.518102 1_445
F17 F8 2.518105 1_555
F17 F5 2.518105 1_445
F17 Nd1 2.943360 1_555
F17 Nd0 2.943360 1_555
F17 Nd3 2.943360 1_456
F17 Nd4 2.943360 1_546
F17 Nd5 2.943360 1_556
F17 Nd2 2.943360 1_445
