# generated using pymatgen
data_RbPbF3
_symmetry_space_group_name_H-M   'P 1'
_cell_length_a   9.36106310
_cell_length_b   6.44687958
_cell_length_c   6.79109437
_cell_angle_alpha   58.21800898
_cell_angle_beta   43.52421330
_cell_angle_gamma   46.49083906
_symmetry_Int_Tables_number   1
_chemical_formula_structural   RbPbF3
_chemical_formula_sum   'Rb2 Pb2 F6'
_cell_volume   204.38899730
_cell_formula_units_Z   2
loop_
 _symmetry_equiv_pos_site_id
 _symmetry_equiv_pos_as_xyz
  1  'x, y, z'
loop_
 _atom_site_type_symbol
 _atom_site_label
 _atom_site_symmetry_multiplicity
 _atom_site_fract_x
 _atom_site_fract_y
 _atom_site_fract_z
 _atom_site_occupancy
  Rb  Rb0  1  0.24203164  0.42152623  0.54827450  1
  Rb  Rb1  1  0.74198639  0.42161323  0.54823835  1
  Pb  Pb0  1  0.98865122  0.91475850  0.05513064  1
  Pb  Pb1  1  0.48869770  0.91506729  0.05496682  1
  F  F0  1  0.17244797  0.43516690  0.02151966  1
  F  F1  1  0.83850328  0.76909384  0.53421916  1
  F  F2  1  0.33836067  0.76910670  0.02152494  1
  F  F3  1  0.67268795  0.43479383  0.20034106  1
  F  F4  1  0.65912632  0.94816748  0.20124285  1
  F  F5  1  0.15935585  0.94779500  0.53460304  1
loop_
_geom_bond_atom_site_label_1
_geom_bond_atom_site_label_2
_geom_bond_distance
_geom_bond_site_symmetry_2
F0 Pb0 2.328309 1_455
F0 Pb1 2.561900 1_545
F0 Rb0 2.818490 1_554
F0 Rb1 2.879796 1_455
F0 F1 3.061819 1_455
F0 F4 3.063058 1_455
F0 Rb1 3.683372 1_554
F1 Pb0 2.326018 1_555
F1 Pb1 2.565922 1_556
F1 Rb0 2.818146 1_655
F1 Rb1 2.877713 1_555
F1 F4 3.058253 1_555
F1 Rb1 3.685855 1_565
F2 Pb1 2.330154 1_555
F2 Pb0 2.561297 1_455
F2 Rb1 2.818520 1_554
F2 Rb0 2.879502 1_555
F2 F5 3.062498 1_555
F2 F3 3.062876 1_555
F2 Rb0 3.684309 1_564
F3 Pb1 2.330425 1_555
F3 Pb0 2.561165 1_545
F3 Rb1 2.818712 1_555
F3 Rb0 2.879371 1_555
F3 F5 3.064101 1_555
F3 Rb0 3.683448 1_654
F4 Pb0 2.327647 1_555
F4 Pb1 2.562798 1_555
F4 Rb0 2.817278 1_565
F4 Rb1 2.876953 1_555
F4 Rb1 3.687458 1_564
F5 Pb1 2.329080 1_555
F5 Pb0 2.564893 1_456
F5 Rb1 2.818575 1_465
F5 Rb0 2.876708 1_555
F5 Rb0 3.686809 1_565
