# generated using pymatgen
data_CsAlTe3
_symmetry_space_group_name_H-M   'P 1'
_cell_length_a   14.12703173
_cell_length_b   7.28206706
_cell_length_c   8.29657145
_cell_angle_alpha   76.08096223
_cell_angle_beta   90.00000000
_cell_angle_gamma   90.00000000
_symmetry_Int_Tables_number   1
_chemical_formula_structural   CsAlTe3
_chemical_formula_sum   'Cs4 Al4 Te12'
_cell_volume   828.43973090
_cell_formula_units_Z   4
loop_
 _symmetry_equiv_pos_site_id
 _symmetry_equiv_pos_as_xyz
  1  'x, y, z'
loop_
 _atom_site_type_symbol
 _atom_site_label
 _atom_site_symmetry_multiplicity
 _atom_site_fract_x
 _atom_site_fract_y
 _atom_site_fract_z
 _atom_site_occupancy
  Cs  Cs0  1  0.57970933  0.78873969  0.74516360  1
  Cs  Cs1  1  0.07970933  0.71126031  0.25483640  1
  Cs  Cs2  1  0.42029067  0.21126031  0.25483640  1
  Cs  Cs3  1  0.92029067  0.28873969  0.74516360  1
  Al  Al0  1  0.72699867  0.84712317  0.17823202  1
  Al  Al1  1  0.22699867  0.65287683  0.82176798  1
  Al  Al2  1  0.27300133  0.15287683  0.82176798  1
  Al  Al3  1  0.77300133  0.34712317  0.17823202  1
  Te  Te0  1  0.67926099  0.35321516  0.45179920  1
  Te  Te1  1  0.17926099  0.14678484  0.54820080  1
  Te  Te2  1  0.32073901  0.64678484  0.54820080  1
  Te  Te3  1  0.82073901  0.85321516  0.45179920  1
  Te  Te4  1  0.82893971  0.67307950  0.99620284  1
  Te  Te5  1  0.32893971  0.82692050  0.00379716  1
  Te  Te6  1  0.17106029  0.32692050  0.00379716  1
  Te  Te7  1  0.67106029  0.17307950  0.99620284  1
  Te  Te8  1  0.57153846  0.65715725  0.28093090  1
  Te  Te9  1  0.07153846  0.84284275  0.71906910  1
  Te  Te10  1  0.42846154  0.34284275  0.71906910  1
  Te  Te11  1  0.92846154  0.15715725  0.28093090  1
loop_
_geom_bond_atom_site_label_1
_geom_bond_atom_site_label_2
_geom_bond_distance
_geom_bond_site_symmetry_2
Cs0 Te10 3.936220 1_555
Cs0 Te4 4.074307 1_555
Cs0 Te7 4.079339 1_565
Cs0 Te3 4.145947 1_555
Cs0 Te5 4.185558 1_556
Cs0 Te8 4.188237 1_555
Cs0 Te2 4.235103 1_555
Cs0 Te8 4.317483 1_556
Cs0 Te0 4.470475 1_565
Cs0 Te10 4.524750 1_565
Cs0 Te7 4.648741 1_555
Cs0 Te0 4.655544 1_555
Cs0 Cs2 5.006595 1_565
Cs1 Te11 3.936220 1_465
Cs1 Te5 4.074307 1_555
Cs1 Te6 4.079339 1_555
Cs1 Te2 4.145947 1_555
Cs1 Te4 4.185558 1_454
Cs1 Te9 4.188237 1_555
Cs1 Te3 4.235103 1_455
Cs1 Te9 4.317483 1_554
Cs1 Te1 4.470475 1_555
Cs1 Te11 4.524750 1_455
Cs1 Te6 4.648741 1_565
Cs1 Te1 4.655544 1_565
Cs1 Cs3 5.006595 1_455
Cs2 Te8 3.936220 1_555
Cs2 Te6 4.074307 1_555
Cs2 Te5 4.079339 1_545
Cs2 Te1 4.145947 1_555
Cs2 Te7 4.185558 1_554
Cs2 Te10 4.188237 1_555
Cs2 Te0 4.235103 1_555
Cs2 Te10 4.317483 1_554
Cs2 Te2 4.470475 1_545
Cs2 Te8 4.524750 1_545
Cs2 Te5 4.648741 1_555
Cs2 Te2 4.655544 1_555
Cs3 Te9 3.936220 1_645
Cs3 Te7 4.074307 1_555
Cs3 Te4 4.079339 1_555
Cs3 Te0 4.145947 1_555
Cs3 Te6 4.185558 1_656
Cs3 Te11 4.188237 1_555
Cs3 Te1 4.235103 1_655
Cs3 Te11 4.317483 1_556
Cs3 Te3 4.470475 1_555
Cs3 Te9 4.524750 1_655
Cs3 Te4 4.648741 1_545
Cs3 Te3 4.655544 1_545
Al0 Te7 2.610514 1_564
Al0 Te4 2.623331 1_554
Al0 Te8 2.625990 1_555
Al0 Te3 2.637330 1_555
Al1 Te6 2.610514 1_556
Al1 Te5 2.623331 1_556
Al1 Te9 2.625990 1_555
Al1 Te2 2.637330 1_555
Al2 Te5 2.610514 1_546
Al2 Te6 2.623331 1_556
Al2 Te10 2.625990 1_555
Al2 Te1 2.637330 1_555
Al3 Te4 2.610514 1_554
Al3 Te7 2.623331 1_554
Al3 Te11 2.625990 1_555
Al3 Te0 2.637330 1_555
Te0 Te8 2.777554 1_555
Te1 Te9 2.777554 1_545
Te10 Te2 2.777554 1_555
Te11 Te3 2.777554 1_545
