# generated using pymatgen
data_LiSiPt2
_symmetry_space_group_name_H-M   'P 1'
_cell_length_a   4.18603166
_cell_length_b   4.18603166
_cell_length_c   4.18603166
_cell_angle_alpha   60.00000000
_cell_angle_beta   60.00000000
_cell_angle_gamma   60.00000000
_symmetry_Int_Tables_number   1
_chemical_formula_structural   LiSiPt2
_chemical_formula_sum   'Li1 Si1 Pt2'
_cell_volume   51.86716695
_cell_formula_units_Z   1
loop_
 _symmetry_equiv_pos_site_id
 _symmetry_equiv_pos_as_xyz
  1  'x, y, z'
loop_
 _atom_site_type_symbol
 _atom_site_label
 _atom_site_symmetry_multiplicity
 _atom_site_fract_x
 _atom_site_fract_y
 _atom_site_fract_z
 _atom_site_occupancy
  Li  Li0  1  0.50000000  0.50000000  0.50000000  1
  Si  Si0  1  -0.00000000  0.00000000  -0.00000000  1
  Pt  Pt0  1  0.25000000  0.25000000  0.25000000  1
  Pt  Pt1  1  0.75000000  0.75000000  0.75000000  1
loop_
_geom_bond_atom_site_label_1
_geom_bond_atom_site_label_2
_geom_bond_distance
_geom_bond_site_symmetry_2
Li0 Pt1 2.563410 1_545
Li0 Pt0 2.563410 1_555
Li0 Pt0 2.563410 1_556
Li0 Pt1 2.563410 1_554
Li0 Pt0 2.563410 1_565
Li0 Pt1 2.563410 1_455
Li0 Pt1 2.563410 1_555
Li0 Pt0 2.563410 1_655
Li0 Si0 2.959971 1_565
Li0 Si0 2.959971 1_655
Li0 Si0 2.959971 1_556
Li0 Si0 2.959971 1_566
Li0 Si0 2.959971 1_656
Li0 Si0 2.959971 1_665
Pt0 Si0 2.563410 1_565
Pt0 Si0 2.563410 1_556
Pt0 Si0 2.563410 1_555
Pt0 Si0 2.563410 1_655
Pt0 Pt1 2.959971 1_455
Pt0 Pt1 2.959971 1_445
Pt0 Pt1 2.959971 1_544
Pt0 Pt1 2.959971 1_545
Pt0 Pt1 2.959971 1_554
Pt0 Pt1 2.959971 1_454
Pt1 Si0 2.563410 1_665
Pt1 Si0 2.563410 1_566
Pt1 Si0 2.563410 1_656
Pt1 Si0 2.563410 1_666
