# generated using pymatgen
data_Ce2MnSb2O
_symmetry_space_group_name_H-M   'P 1'
_cell_length_a   6.51073800
_cell_length_b   6.51073800
_cell_length_c   32.32776600
_cell_angle_alpha   90.00000000
_cell_angle_beta   90.00000000
_cell_angle_gamma   90.00000000
_symmetry_Int_Tables_number   1
_chemical_formula_structural   Ce2MnSb2O
_chemical_formula_sum   'Ce16 Mn8 Sb16 O8'
_cell_volume   1370.36460321
_cell_formula_units_Z   8
loop_
 _symmetry_equiv_pos_site_id
 _symmetry_equiv_pos_as_xyz
  1  'x, y, z'
loop_
 _atom_site_type_symbol
 _atom_site_label
 _atom_site_symmetry_multiplicity
 _atom_site_fract_x
 _atom_site_fract_y
 _atom_site_fract_z
 _atom_site_occupancy
  Ce  Ce0_0  1  0.25000000  0.25000000  0.31366200  1
  Ce  Ce0_1  1  0.25000000  0.25000000  0.81366200  1
  Ce  Ce0_2  1  0.25000000  0.75000000  0.31366200  1
  Ce  Ce0_3  1  0.25000000  0.75000000  0.81366200  1
  Ce  Ce0_4  1  0.75000000  0.25000000  0.31366200  1
  Ce  Ce0_5  1  0.75000000  0.25000000  0.81366200  1
  Ce  Ce0_6  1  0.75000000  0.75000000  0.31366200  1
  Ce  Ce0_7  1  0.75000000  0.75000000  0.81366200  1
  Ce  Ce1_0  1  0.25000000  0.25000000  0.18633800  1
  Ce  Ce1_1  1  0.25000000  0.25000000  0.68633800  1
  Ce  Ce1_2  1  0.25000000  0.75000000  0.18633800  1
  Ce  Ce1_3  1  0.25000000  0.75000000  0.68633800  1
  Ce  Ce1_4  1  0.75000000  0.25000000  0.18633800  1
  Ce  Ce1_5  1  0.75000000  0.25000000  0.68633800  1
  Ce  Ce1_6  1  0.75000000  0.75000000  0.18633800  1
  Ce  Ce1_7  1  0.75000000  0.75000000  0.68633800  1
  Mn  Mn0_0  1  0.25000000  0.25000000  0.00000000  1
  Mn  Mn0_1  1  0.25000000  0.25000000  0.50000000  1
  Mn  Mn0_2  1  0.25000000  0.75000000  0.00000000  1
  Mn  Mn0_3  1  0.25000000  0.75000000  0.50000000  1
  Mn  Mn0_4  1  0.75000000  0.25000000  0.00000000  1
  Mn  Mn0_5  1  0.75000000  0.25000000  0.50000000  1
  Mn  Mn0_6  1  0.75000000  0.75000000  0.00000000  1
  Mn  Mn0_7  1  0.75000000  0.75000000  0.50000000  1
  Sb  Sb0_0  1  0.25000000  0.25000000  0.08518600  1
  Sb  Sb0_1  1  0.25000000  0.25000000  0.58518600  1
  Sb  Sb0_2  1  0.25000000  0.75000000  0.08518600  1
  Sb  Sb0_3  1  0.25000000  0.75000000  0.58518600  1
  Sb  Sb0_4  1  0.75000000  0.25000000  0.08518600  1
  Sb  Sb0_5  1  0.75000000  0.25000000  0.58518600  1
  Sb  Sb0_6  1  0.75000000  0.75000000  0.08518600  1
  Sb  Sb0_7  1  0.75000000  0.75000000  0.58518600  1
  Sb  Sb1_0  1  0.25000000  0.25000000  0.41481400  1
  Sb  Sb1_1  1  0.25000000  0.25000000  0.91481400  1
  Sb  Sb1_2  1  0.25000000  0.75000000  0.41481400  1
  Sb  Sb1_3  1  0.25000000  0.75000000  0.91481400  1
  Sb  Sb1_4  1  0.75000000  0.25000000  0.41481400  1
  Sb  Sb1_5  1  0.75000000  0.25000000  0.91481400  1
  Sb  Sb1_6  1  0.75000000  0.75000000  0.41481400  1
  Sb  Sb1_7  1  0.75000000  0.75000000  0.91481400  1
  O  O0_0  1  0.25000000  0.25000000  0.25000000  1
  O  O0_1  1  0.25000000  0.25000000  0.75000000  1
  O  O0_2  1  0.25000000  0.75000000  0.25000000  1
  O  O0_3  1  0.25000000  0.75000000  0.75000000  1
  O  O0_4  1  0.75000000  0.25000000  0.25000000  1
  O  O0_5  1  0.75000000  0.25000000  0.75000000  1
  O  O0_6  1  0.75000000  0.75000000  0.25000000  1
  O  O0_7  1  0.75000000  0.75000000  0.75000000  1
loop_
_geom_bond_atom_site_label_1
_geom_bond_atom_site_label_2
_geom_bond_distance
_geom_bond_site_symmetry_2
Ce0_0 O0_0 2.058050 1_555
Ce0_0 Sb1_0 3.270018 1_555
Ce0_1 O0_1 2.058050 1_555
Ce0_1 Sb1_1 3.270018 1_555
Ce0_2 O0_2 2.058050 1_555
Ce0_2 Sb1_2 3.270018 1_555
Ce0_3 O0_3 2.058050 1_555
Ce0_3 Sb1_3 3.270018 1_555
Ce0_4 O0_4 2.058050 1_555
Ce0_4 Sb1_4 3.270018 1_555
Ce0_5 O0_5 2.058050 1_555
Ce0_5 Sb1_5 3.270018 1_555
Ce0_6 O0_6 2.058050 1_555
Ce0_6 Sb1_6 3.270018 1_555
Ce0_7 O0_7 2.058050 1_555
Ce0_7 Sb1_7 3.270018 1_555
Ce1_0 O0_0 2.058050 1_555
Ce1_0 Sb0_0 3.270018 1_555
Ce1_1 O0_1 2.058050 1_555
Ce1_1 Sb0_1 3.270018 1_555
Ce1_2 O0_2 2.058050 1_555
Ce1_2 Sb0_2 3.270018 1_555
Ce1_3 O0_3 2.058050 1_555
Ce1_3 Sb0_3 3.270018 1_555
Ce1_4 O0_4 2.058050 1_555
Ce1_4 Sb0_4 3.270018 1_555
Ce1_5 O0_5 2.058050 1_555
Ce1_5 Sb0_5 3.270018 1_555
Ce1_6 O0_6 2.058050 1_555
Ce1_6 Sb0_6 3.270018 1_555
Ce1_7 O0_7 2.058050 1_555
Ce1_7 Sb0_7 3.270018 1_555
Mn0_0 Sb0_0 2.753873 1_555
Mn0_0 Sb1_1 2.753873 1_554
Mn0_0 Mn0_2 3.255369 1_555
Mn0_0 Mn0_2 3.255369 1_545
Mn0_0 Mn0_4 3.255369 1_455
Mn0_0 Mn0_4 3.255369 1_555
Mn0_1 Sb0_1 2.753873 1_555
Mn0_1 Sb1_0 2.753873 1_555
Mn0_1 Mn0_5 3.255369 1_555
Mn0_1 Mn0_3 3.255369 1_545
Mn0_1 Mn0_5 3.255369 1_455
Mn0_1 Mn0_3 3.255369 1_555
Mn0_2 Sb0_2 2.753873 1_555
Mn0_2 Sb1_3 2.753873 1_554
Mn0_2 Mn0_6 3.255369 1_455
Mn0_2 Mn0_6 3.255369 1_555
Mn0_3 Sb0_3 2.753873 1_555
Mn0_3 Sb1_2 2.753873 1_555
Mn0_3 Mn0_7 3.255369 1_455
Mn0_3 Mn0_7 3.255369 1_555
Mn0_4 Sb0_4 2.753873 1_555
Mn0_4 Sb1_5 2.753873 1_554
Mn0_4 Mn0_6 3.255369 1_545
Mn0_4 Mn0_6 3.255369 1_555
Mn0_5 Sb0_5 2.753873 1_555
Mn0_5 Sb1_4 2.753873 1_555
Mn0_5 Mn0_7 3.255369 1_545
Mn0_5 Mn0_7 3.255369 1_555
Mn0_6 Sb0_6 2.753873 1_555
Mn0_6 Sb1_7 2.753873 1_554
Mn0_7 Sb0_7 2.753873 1_555
Mn0_7 Sb1_6 2.753873 1_555
Sb0_0 Sb0_4 3.255369 1_555
Sb0_0 Sb0_2 3.255369 1_555
Sb0_0 Sb0_2 3.255369 1_545
Sb0_0 Sb0_4 3.255369 1_455
Sb0_1 Sb0_3 3.255369 1_555
Sb0_1 Sb0_5 3.255369 1_455
Sb0_1 Sb0_5 3.255369 1_555
Sb0_1 Sb0_3 3.255369 1_545
Sb0_2 Sb0_6 3.255369 1_455
Sb0_2 Sb0_6 3.255369 1_555
Sb0_3 Sb0_7 3.255369 1_555
Sb0_3 Sb0_7 3.255369 1_455
Sb0_4 Sb0_6 3.255369 1_545
Sb0_4 Sb0_6 3.255369 1_555
Sb0_5 Sb0_7 3.255369 1_545
Sb0_5 Sb0_7 3.255369 1_555
Sb1_0 Sb1_4 3.255369 1_455
Sb1_0 Sb1_2 3.255369 1_545
Sb1_0 Sb1_4 3.255369 1_555
Sb1_0 Sb1_2 3.255369 1_555
Sb1_1 Sb1_3 3.255369 1_545
Sb1_1 Sb1_3 3.255369 1_555
Sb1_1 Sb1_5 3.255369 1_455
Sb1_1 Sb1_5 3.255369 1_555
Sb1_2 Sb1_6 3.255369 1_555
Sb1_2 Sb1_6 3.255369 1_455
Sb1_3 Sb1_7 3.255369 1_455
Sb1_3 Sb1_7 3.255369 1_555
Sb1_4 Sb1_6 3.255369 1_545
Sb1_4 Sb1_6 3.255369 1_555
Sb1_5 Sb1_7 3.255369 1_545
Sb1_5 Sb1_7 3.255369 1_555
