# generated using pymatgen
data_CaW5O7
_symmetry_space_group_name_H-M   'P 1'
_cell_length_a   11.27584370
_cell_length_b   11.27584370
_cell_length_c   37.33958400
_cell_angle_alpha   90.00000000
_cell_angle_beta   90.00000000
_cell_angle_gamma   146.26408856
_symmetry_Int_Tables_number   1
_chemical_formula_structural   CaW5O7
_chemical_formula_sum   'Ca16 W80 O112'
_cell_volume   2636.61472946
_cell_formula_units_Z   16
loop_
 _symmetry_equiv_pos_site_id
 _symmetry_equiv_pos_as_xyz
  1  'x, y, z'
loop_
 _atom_site_type_symbol
 _atom_site_label
 _atom_site_symmetry_multiplicity
 _atom_site_fract_x
 _atom_site_fract_y
 _atom_site_fract_z
 _atom_site_occupancy
  Ca  Ca0_0  1  0.09163400  0.40836600  0.37500000  1
  Ca  Ca0_1  1  0.09163400  0.40836600  0.87500000  1
  Ca  Ca0_2  1  0.09163400  0.90836600  0.37500000  1
  Ca  Ca0_3  1  0.09163400  0.90836600  0.87500000  1
  Ca  Ca0_4  1  0.59163400  0.40836600  0.37500000  1
  Ca  Ca0_5  1  0.59163400  0.40836600  0.87500000  1
  Ca  Ca0_6  1  0.59163400  0.90836600  0.37500000  1
  Ca  Ca0_7  1  0.59163400  0.90836600  0.87500000  1
  Ca  Ca1_0  1  0.40836600  0.09163400  0.12500000  1
  Ca  Ca1_1  1  0.40836600  0.09163400  0.62500000  1
  Ca  Ca1_2  1  0.40836600  0.59163400  0.12500000  1
  Ca  Ca1_3  1  0.40836600  0.59163400  0.62500000  1
  Ca  Ca1_4  1  0.90836600  0.09163400  0.12500000  1
  Ca  Ca1_5  1  0.90836600  0.09163400  0.62500000  1
  Ca  Ca1_6  1  0.90836600  0.59163400  0.12500000  1
  Ca  Ca1_7  1  0.90836600  0.59163400  0.62500000  1
  W  W0_0  1  0.34258250  0.15741750  0.28661650  1
  W  W0_1  1  0.34258250  0.15741750  0.78661650  1
  W  W0_2  1  0.34258250  0.65741750  0.28661650  1
  W  W0_3  1  0.34258250  0.65741750  0.78661650  1
  W  W0_4  1  0.84258250  0.15741750  0.28661650  1
  W  W0_5  1  0.84258250  0.15741750  0.78661650  1
  W  W0_6  1  0.84258250  0.65741750  0.28661650  1
  W  W0_7  1  0.84258250  0.65741750  0.78661650  1
  W  W1_0  1  0.27940650  0.22059350  0.07364650  1
  W  W1_1  1  0.27940650  0.22059350  0.57364650  1
  W  W1_2  1  0.27940650  0.72059350  0.07364650  1
  W  W1_3  1  0.27940650  0.72059350  0.57364650  1
  W  W1_4  1  0.77940650  0.22059350  0.07364650  1
  W  W1_5  1  0.77940650  0.22059350  0.57364650  1
  W  W1_6  1  0.77940650  0.72059350  0.07364650  1
  W  W1_7  1  0.77940650  0.72059350  0.57364650  1
  W  W2_0  1  0.00000000  0.00000000  0.25000000  1
  W  W2_1  1  0.00000000  0.00000000  0.75000000  1
  W  W2_2  1  0.00000000  0.50000000  0.25000000  1
  W  W2_3  1  0.00000000  0.50000000  0.75000000  1
  W  W2_4  1  0.50000000  0.00000000  0.25000000  1
  W  W2_5  1  0.50000000  0.00000000  0.75000000  1
  W  W2_6  1  0.50000000  0.50000000  0.25000000  1
  W  W2_7  1  0.50000000  0.50000000  0.75000000  1
  W  W3_0  1  0.00000000  0.00000000  0.00000000  1
  W  W3_1  1  0.00000000  0.00000000  0.50000000  1
  W  W3_2  1  0.00000000  0.50000000  0.00000000  1
  W  W3_3  1  0.00000000  0.50000000  0.50000000  1
  W  W3_4  1  0.50000000  0.00000000  0.00000000  1
  W  W3_5  1  0.50000000  0.00000000  0.50000000  1
  W  W3_6  1  0.50000000  0.50000000  0.00000000  1
  W  W3_7  1  0.50000000  0.50000000  0.50000000  1
  W  W4_0  1  0.22059350  0.27940650  0.42635350  1
  W  W4_1  1  0.22059350  0.27940650  0.92635350  1
  W  W4_2  1  0.22059350  0.77940650  0.42635350  1
  W  W4_3  1  0.22059350  0.77940650  0.92635350  1
  W  W4_4  1  0.72059350  0.27940650  0.42635350  1
  W  W4_5  1  0.72059350  0.27940650  0.92635350  1
  W  W4_6  1  0.72059350  0.77940650  0.42635350  1
  W  W4_7  1  0.72059350  0.77940650  0.92635350  1
  W  W5_0  1  0.15741750  0.34258250  0.21338350  1
  W  W5_1  1  0.15741750  0.34258250  0.71338350  1
  W  W5_2  1  0.15741750  0.84258250  0.21338350  1
  W  W5_3  1  0.15741750  0.84258250  0.71338350  1
  W  W5_4  1  0.65741750  0.34258250  0.21338350  1
  W  W5_5  1  0.65741750  0.34258250  0.71338350  1
  W  W5_6  1  0.65741750  0.84258250  0.21338350  1
  W  W5_7  1  0.65741750  0.84258250  0.71338350  1
  W  W6_0  1  0.15741750  0.34258250  0.03661650  1
  W  W6_1  1  0.15741750  0.34258250  0.53661650  1
  W  W6_2  1  0.15741750  0.84258250  0.03661650  1
  W  W6_3  1  0.15741750  0.84258250  0.53661650  1
  W  W6_4  1  0.65741750  0.34258250  0.03661650  1
  W  W6_5  1  0.65741750  0.34258250  0.53661650  1
  W  W6_6  1  0.65741750  0.84258250  0.03661650  1
  W  W6_7  1  0.65741750  0.84258250  0.53661650  1
  W  W7_0  1  0.34258250  0.15741750  0.46338350  1
  W  W7_1  1  0.34258250  0.15741750  0.96338350  1
  W  W7_2  1  0.34258250  0.65741750  0.46338350  1
  W  W7_3  1  0.34258250  0.65741750  0.96338350  1
  W  W7_4  1  0.84258250  0.15741750  0.46338350  1
  W  W7_5  1  0.84258250  0.15741750  0.96338350  1
  W  W7_6  1  0.84258250  0.65741750  0.46338350  1
  W  W7_7  1  0.84258250  0.65741750  0.96338350  1
  W  W8_0  1  0.22059350  0.27940650  0.32364650  1
  W  W8_1  1  0.22059350  0.27940650  0.82364650  1
  W  W8_2  1  0.22059350  0.77940650  0.32364650  1
  W  W8_3  1  0.22059350  0.77940650  0.82364650  1
  W  W8_4  1  0.72059350  0.27940650  0.32364650  1
  W  W8_5  1  0.72059350  0.27940650  0.82364650  1
  W  W8_6  1  0.72059350  0.77940650  0.32364650  1
  W  W8_7  1  0.72059350  0.77940650  0.82364650  1
  W  W9_0  1  0.27940650  0.22059350  0.17635350  1
  W  W9_1  1  0.27940650  0.22059350  0.67635350  1
  W  W9_2  1  0.27940650  0.72059350  0.17635350  1
  W  W9_3  1  0.27940650  0.72059350  0.67635350  1
  W  W9_4  1  0.77940650  0.22059350  0.17635350  1
  W  W9_5  1  0.77940650  0.22059350  0.67635350  1
  W  W9_6  1  0.77940650  0.72059350  0.17635350  1
  W  W9_7  1  0.77940650  0.72059350  0.67635350  1
  O  O0_0  1  0.15085000  0.34915000  0.47646650  1
  O  O0_1  1  0.15085000  0.34915000  0.97646650  1
  O  O0_2  1  0.15085000  0.84915000  0.47646650  1
  O  O0_3  1  0.15085000  0.84915000  0.97646650  1
  O  O0_4  1  0.65085000  0.34915000  0.47646650  1
  O  O0_5  1  0.65085000  0.34915000  0.97646650  1
  O  O0_6  1  0.65085000  0.84915000  0.47646650  1
  O  O0_7  1  0.65085000  0.84915000  0.97646650  1
  O  O1_0  1  0.34915000  0.15085000  0.02353350  1
  O  O1_1  1  0.34915000  0.15085000  0.52353350  1
  O  O1_2  1  0.34915000  0.65085000  0.02353350  1
  O  O1_3  1  0.34915000  0.65085000  0.52353350  1
  O  O1_4  1  0.84915000  0.15085000  0.02353350  1
  O  O1_5  1  0.84915000  0.15085000  0.52353350  1
  O  O1_6  1  0.84915000  0.65085000  0.02353350  1
  O  O1_7  1  0.84915000  0.65085000  0.52353350  1
  O  O2_0  1  0.34915000  0.15085000  0.22646650  1
  O  O2_1  1  0.34915000  0.15085000  0.72646650  1
  O  O2_2  1  0.34915000  0.65085000  0.22646650  1
  O  O2_3  1  0.34915000  0.65085000  0.72646650  1
  O  O2_4  1  0.84915000  0.15085000  0.22646650  1
  O  O2_5  1  0.84915000  0.15085000  0.72646650  1
  O  O2_6  1  0.84915000  0.65085000  0.22646650  1
  O  O2_7  1  0.84915000  0.65085000  0.72646650  1
  O  O3_0  1  0.15085000  0.34915000  0.27353350  1
  O  O3_1  1  0.15085000  0.34915000  0.77353350  1
  O  O3_2  1  0.15085000  0.84915000  0.27353350  1
  O  O3_3  1  0.15085000  0.84915000  0.77353350  1
  O  O3_4  1  0.65085000  0.34915000  0.27353350  1
  O  O3_5  1  0.65085000  0.34915000  0.77353350  1
  O  O3_6  1  0.65085000  0.84915000  0.27353350  1
  O  O3_7  1  0.65085000  0.84915000  0.77353350  1
  O  O4_0  1  0.40547100  0.09452900  0.41571350  1
  O  O4_1  1  0.40547100  0.09452900  0.91571350  1
  O  O4_2  1  0.40547100  0.59452900  0.41571350  1
  O  O4_3  1  0.40547100  0.59452900  0.91571350  1
  O  O4_4  1  0.90547100  0.09452900  0.41571350  1
  O  O4_5  1  0.90547100  0.09452900  0.91571350  1
  O  O4_6  1  0.90547100  0.59452900  0.41571350  1
  O  O4_7  1  0.90547100  0.59452900  0.91571350  1
  O  O5_0  1  0.09452900  0.40547100  0.08428650  1
  O  O5_1  1  0.09452900  0.40547100  0.58428650  1
  O  O5_2  1  0.09452900  0.90547100  0.08428650  1
  O  O5_3  1  0.09452900  0.90547100  0.58428650  1
  O  O5_4  1  0.59452900  0.40547100  0.08428650  1
  O  O5_5  1  0.59452900  0.40547100  0.58428650  1
  O  O5_6  1  0.59452900  0.90547100  0.08428650  1
  O  O5_7  1  0.59452900  0.90547100  0.58428650  1
  O  O6_0  1  0.09452900  0.40547100  0.16571350  1
  O  O6_1  1  0.09452900  0.40547100  0.66571350  1
  O  O6_2  1  0.09452900  0.90547100  0.16571350  1
  O  O6_3  1  0.09452900  0.90547100  0.66571350  1
  O  O6_4  1  0.59452900  0.40547100  0.16571350  1
  O  O6_5  1  0.59452900  0.40547100  0.66571350  1
  O  O6_6  1  0.59452900  0.90547100  0.16571350  1
  O  O6_7  1  0.59452900  0.90547100  0.66571350  1
  O  O7_0  1  0.40547100  0.09452900  0.33428650  1
  O  O7_1  1  0.40547100  0.09452900  0.83428650  1
  O  O7_2  1  0.40547100  0.59452900  0.33428650  1
  O  O7_3  1  0.40547100  0.59452900  0.83428650  1
  O  O7_4  1  0.90547100  0.09452900  0.33428650  1
  O  O7_5  1  0.90547100  0.09452900  0.83428650  1
  O  O7_6  1  0.90547100  0.59452900  0.33428650  1
  O  O7_7  1  0.90547100  0.59452900  0.83428650  1
  O  O8_0  1  0.04658550  0.45341450  0.43192400  1
  O  O8_1  1  0.04658550  0.45341450  0.93192400  1
  O  O8_2  1  0.04658550  0.95341450  0.43192400  1
  O  O8_3  1  0.04658550  0.95341450  0.93192400  1
  O  O8_4  1  0.54658550  0.45341450  0.43192400  1
  O  O8_5  1  0.54658550  0.45341450  0.93192400  1
  O  O8_6  1  0.54658550  0.95341450  0.43192400  1
  O  O8_7  1  0.54658550  0.95341450  0.93192400  1
  O  O9_0  1  0.45341450  0.04658550  0.06807600  1
  O  O9_1  1  0.45341450  0.04658550  0.56807600  1
  O  O9_2  1  0.45341450  0.54658550  0.06807600  1
  O  O9_3  1  0.45341450  0.54658550  0.56807600  1
  O  O9_4  1  0.95341450  0.04658550  0.06807600  1
  O  O9_5  1  0.95341450  0.04658550  0.56807600  1
  O  O9_6  1  0.95341450  0.54658550  0.06807600  1
  O  O9_7  1  0.95341450  0.54658550  0.56807600  1
  O  O10_0  1  0.45341450  0.04658550  0.18192400  1
  O  O10_1  1  0.45341450  0.04658550  0.68192400  1
  O  O10_2  1  0.45341450  0.54658550  0.18192400  1
  O  O10_3  1  0.45341450  0.54658550  0.68192400  1
  O  O10_4  1  0.95341450  0.04658550  0.18192400  1
  O  O10_5  1  0.95341450  0.04658550  0.68192400  1
  O  O10_6  1  0.95341450  0.54658550  0.18192400  1
  O  O10_7  1  0.95341450  0.54658550  0.68192400  1
  O  O11_0  1  0.04658550  0.45341450  0.31807600  1
  O  O11_1  1  0.04658550  0.45341450  0.81807600  1
  O  O11_2  1  0.04658550  0.95341450  0.31807600  1
  O  O11_3  1  0.04658550  0.95341450  0.81807600  1
  O  O11_4  1  0.54658550  0.45341450  0.31807600  1
  O  O11_5  1  0.54658550  0.45341450  0.81807600  1
  O  O11_6  1  0.54658550  0.95341450  0.31807600  1
  O  O11_7  1  0.54658550  0.95341450  0.81807600  1
  O  O12_0  1  0.26324200  0.23675800  0.37500000  1
  O  O12_1  1  0.26324200  0.23675800  0.87500000  1
  O  O12_2  1  0.26324200  0.73675800  0.37500000  1
  O  O12_3  1  0.26324200  0.73675800  0.87500000  1
  O  O12_4  1  0.76324200  0.23675800  0.37500000  1
  O  O12_5  1  0.76324200  0.23675800  0.87500000  1
  O  O12_6  1  0.76324200  0.73675800  0.37500000  1
  O  O12_7  1  0.76324200  0.73675800  0.87500000  1
  O  O13_0  1  0.23675800  0.26324200  0.12500000  1
  O  O13_1  1  0.23675800  0.26324200  0.62500000  1
  O  O13_2  1  0.23675800  0.76324200  0.12500000  1
  O  O13_3  1  0.23675800  0.76324200  0.62500000  1
  O  O13_4  1  0.73675800  0.26324200  0.12500000  1
  O  O13_5  1  0.73675800  0.26324200  0.62500000  1
  O  O13_6  1  0.73675800  0.76324200  0.12500000  1
  O  O13_7  1  0.73675800  0.76324200  0.62500000  1
loop_
_geom_bond_atom_site_label_1
_geom_bond_atom_site_label_2
_geom_bond_distance
_geom_bond_site_symmetry_2
Ca0_0 O8_0 2.337311 1_555
Ca0_0 O11_0 2.337311 1_555
Ca0_0 O12_4 2.353406 1_455
Ca0_0 O12_2 2.353406 1_555
Ca0_0 O4_2 2.624008 1_555
Ca0_0 O4_4 2.624008 1_455
Ca0_0 O7_2 2.624008 1_555
Ca0_0 O7_4 2.624008 1_455
Ca0_1 O8_1 2.337311 1_555
Ca0_1 O11_1 2.337311 1_555
Ca0_1 O12_5 2.353406 1_455
Ca0_1 O12_3 2.353406 1_555
Ca0_1 O4_3 2.624008 1_555
Ca0_1 O4_5 2.624008 1_455
Ca0_1 O7_3 2.624008 1_555
Ca0_1 O7_5 2.624008 1_455
Ca0_2 O8_2 2.337311 1_555
Ca0_2 O11_2 2.337311 1_555
Ca0_2 O12_6 2.353406 1_455
Ca0_2 O12_0 2.353406 1_565
Ca0_2 O4_0 2.624008 1_565
Ca0_2 O4_6 2.624008 1_455
Ca0_2 O7_0 2.624008 1_565
Ca0_2 O7_6 2.624008 1_455
Ca0_3 O8_3 2.337311 1_555
Ca0_3 O11_3 2.337311 1_555
Ca0_3 O12_7 2.353406 1_455
Ca0_3 O12_1 2.353406 1_565
Ca0_3 O4_1 2.624008 1_565
Ca0_3 O4_7 2.624008 1_455
Ca0_3 O7_1 2.624008 1_565
Ca0_3 O7_7 2.624008 1_455
Ca0_4 O8_4 2.337311 1_555
Ca0_4 O11_4 2.337311 1_555
Ca0_4 O12_6 2.353406 1_555
Ca0_4 O12_0 2.353406 1_555
Ca0_4 O4_6 2.624008 1_555
Ca0_4 O4_0 2.624008 1_555
Ca0_4 O7_6 2.624008 1_555
Ca0_4 O7_0 2.624008 1_555
Ca0_5 O8_5 2.337311 1_555
Ca0_5 O11_5 2.337311 1_555
Ca0_5 O12_7 2.353406 1_555
Ca0_5 O12_1 2.353406 1_555
Ca0_5 O4_7 2.624008 1_555
Ca0_5 O4_1 2.624008 1_555
Ca0_5 O7_7 2.624008 1_555
Ca0_5 O7_1 2.624008 1_555
Ca0_6 O8_6 2.337311 1_555
Ca0_6 O11_6 2.337311 1_555
Ca0_6 O12_2 2.353406 1_555
Ca0_6 O12_4 2.353406 1_565
Ca0_6 O4_4 2.624008 1_565
Ca0_6 O4_2 2.624008 1_555
Ca0_6 O7_4 2.624008 1_565
Ca0_6 O7_2 2.624008 1_555
Ca0_7 O8_7 2.337311 1_555
Ca0_7 O11_7 2.337311 1_555
Ca0_7 O12_3 2.353406 1_555
Ca0_7 O12_5 2.353406 1_565
Ca0_7 O4_5 2.624008 1_565
Ca0_7 O4_3 2.624008 1_555
Ca0_7 O7_5 2.624008 1_565
Ca0_7 O7_3 2.624008 1_555
Ca1_0 O9_0 2.337311 1_555
Ca1_0 O10_0 2.337311 1_555
Ca1_0 O13_4 2.353406 1_555
Ca1_0 O13_2 2.353406 1_545
Ca1_0 O6_4 2.624008 1_555
Ca1_0 O6_2 2.624008 1_545
Ca1_0 O5_4 2.624008 1_555
Ca1_0 O5_2 2.624008 1_545
Ca1_1 O10_1 2.337311 1_555
Ca1_1 O9_1 2.337311 1_555
Ca1_1 O13_5 2.353406 1_555
Ca1_1 O13_3 2.353406 1_545
Ca1_1 O6_5 2.624008 1_555
Ca1_1 O6_3 2.624008 1_545
Ca1_1 O5_5 2.624008 1_555
Ca1_1 O5_3 2.624008 1_545
Ca1_2 O9_2 2.337311 1_555
Ca1_2 O10_2 2.337311 1_555
Ca1_2 O13_0 2.353406 1_555
Ca1_2 O13_6 2.353406 1_555
Ca1_2 O6_6 2.624008 1_555
Ca1_2 O6_0 2.624008 1_555
Ca1_2 O5_6 2.624008 1_555
Ca1_2 O5_0 2.624008 1_555
Ca1_3 O10_3 2.337311 1_555
Ca1_3 O9_3 2.337311 1_555
Ca1_3 O13_1 2.353406 1_555
Ca1_3 O13_7 2.353406 1_555
Ca1_3 O6_7 2.624008 1_555
Ca1_3 O6_1 2.624008 1_555
Ca1_3 O5_7 2.624008 1_555
Ca1_3 O5_1 2.624008 1_555
Ca1_4 O10_4 2.337311 1_555
Ca1_4 O9_4 2.337311 1_555
Ca1_4 O13_0 2.353406 1_655
Ca1_4 O13_6 2.353406 1_545
Ca1_4 O6_6 2.624008 1_545
Ca1_4 O6_0 2.624008 1_655
Ca1_4 O5_6 2.624008 1_545
Ca1_4 O5_0 2.624008 1_655
Ca1_5 O10_5 2.337311 1_555
Ca1_5 O9_5 2.337311 1_555
Ca1_5 O13_1 2.353406 1_655
Ca1_5 O13_7 2.353406 1_545
Ca1_5 O6_7 2.624008 1_545
Ca1_5 O6_1 2.624008 1_655
Ca1_5 O5_7 2.624008 1_545
Ca1_5 O5_1 2.624008 1_655
Ca1_6 O10_6 2.337311 1_555
Ca1_6 O9_6 2.337311 1_555
Ca1_6 O13_4 2.353406 1_555
Ca1_6 O13_2 2.353406 1_655
Ca1_6 O6_2 2.624008 1_655
Ca1_6 O6_4 2.624008 1_555
Ca1_6 O5_2 2.624008 1_655
Ca1_6 O5_4 2.624008 1_555
Ca1_7 O9_7 2.337311 1_555
Ca1_7 O10_7 2.337311 1_555
Ca1_7 O13_5 2.353406 1_555
Ca1_7 O13_3 2.353406 1_655
Ca1_7 O6_3 2.624008 1_655
Ca1_7 O6_5 2.624008 1_555
Ca1_7 O5_3 2.624008 1_655
Ca1_7 O5_5 2.624008 1_555
W0_0 W2_6 2.921970 1_555
W0_0 W2_0 2.921970 1_555
W0_1 W2_7 2.921970 1_555
W0_1 W2_1 2.921970 1_555
W0_2 W2_2 2.921970 1_555
W0_2 W2_4 2.921970 1_565
W0_3 W2_3 2.921970 1_555
W0_3 W2_5 2.921970 1_565
W0_4 W2_2 2.921970 1_655
W0_4 W2_4 2.921970 1_555
W0_5 W2_3 2.921970 1_655
W0_5 W2_5 2.921970 1_555
W0_6 W2_6 2.921970 1_555
W0_6 W2_0 2.921970 1_665
W0_7 W2_7 2.921970 1_555
W0_7 W2_1 2.921970 1_665
W1_0 W3_0 3.262081 1_555
W1_0 W3_6 3.262081 1_555
W1_1 W3_7 3.262081 1_555
W1_1 W3_1 3.262081 1_555
W1_2 W3_2 3.262081 1_555
W1_2 W3_4 3.262081 1_565
W1_3 W3_3 3.262081 1_555
W1_3 W3_5 3.262081 1_565
W1_4 W3_2 3.262081 1_655
W1_4 W3_4 3.262081 1_555
W1_5 W3_3 3.262081 1_655
W1_5 W3_5 3.262081 1_555
W1_6 W3_6 3.262081 1_555
W1_6 W3_0 3.262081 1_665
W1_7 W3_7 3.262081 1_555
W1_7 W3_1 3.262081 1_665
W2_0 W5_0 2.921970 1_555
W2_0 W5_6 2.921970 1_445
W2_0 W8_6 3.262081 1_445
W2_0 W8_0 3.262081 1_555
W2_0 W9_0 3.262081 1_555
W2_0 W9_6 3.262081 1_445
W2_0 W2_6 3.271878 1_555
W2_0 W2_6 3.271878 1_445
W2_1 W5_1 2.921970 1_555
W2_1 W5_7 2.921970 1_445
W2_1 W8_7 3.262081 1_445
W2_1 W8_1 3.262081 1_555
W2_1 W9_1 3.262081 1_555
W2_1 W9_7 3.262081 1_445
W2_1 W2_7 3.271878 1_555
W2_1 W2_7 3.271878 1_445
W2_2 W5_2 2.921970 1_555
W2_2 W5_4 2.921970 1_455
W2_2 W9_2 3.262081 1_555
W2_2 W9_4 3.262081 1_455
W2_2 W8_2 3.262081 1_555
W2_2 W8_4 3.262081 1_455
W2_2 W2_4 3.271878 1_565
W2_2 W2_4 3.271878 1_455
W2_3 W5_5 2.921970 1_455
W2_3 W5_3 2.921970 1_555
W2_3 W9_5 3.262081 1_455
W2_3 W9_3 3.262081 1_555
W2_3 W8_5 3.262081 1_455
W2_3 W8_3 3.262081 1_555
W2_3 W2_5 3.271878 1_565
W2_3 W2_5 3.271878 1_455
W2_4 W5_2 2.921970 1_545
W2_4 W5_4 2.921970 1_555
W2_4 W8_2 3.262081 1_545
W2_4 W8_4 3.262081 1_555
W2_4 W9_2 3.262081 1_545
W2_4 W9_4 3.262081 1_555
W2_5 W5_3 2.921970 1_545
W2_5 W5_5 2.921970 1_555
W2_5 W8_3 3.262081 1_545
W2_5 W8_5 3.262081 1_555
W2_5 W9_3 3.262081 1_545
W2_5 W9_5 3.262081 1_555
W2_6 W5_6 2.921970 1_555
W2_6 W5_0 2.921970 1_555
W2_6 W8_6 3.262081 1_555
W2_6 W9_0 3.262081 1_555
W2_6 W9_6 3.262081 1_555
W2_6 W8_0 3.262081 1_555
W2_7 W5_7 2.921970 1_555
W2_7 W5_1 2.921970 1_555
W2_7 W9_7 3.262081 1_555
W2_7 W8_1 3.262081 1_555
W2_7 W8_7 3.262081 1_555
W2_7 W9_1 3.262081 1_555
W3_0 W6_0 2.921970 1_555
W3_0 W6_6 2.921970 1_445
W3_0 W7_1 2.921970 1_554
W3_0 W7_7 2.921970 1_444
W3_0 W4_1 3.262081 1_554
W3_0 W4_7 3.262081 1_444
W3_0 W3_6 3.271878 1_555
W3_0 W3_6 3.271878 1_445
W3_1 W6_7 2.921970 1_445
W3_1 W6_1 2.921970 1_555
W3_1 W7_0 2.921970 1_555
W3_1 W7_6 2.921970 1_445
W3_1 W4_0 3.262081 1_555
W3_1 W4_6 3.262081 1_445
W3_1 W3_7 3.271878 1_555
W3_1 W3_7 3.271878 1_445
W3_2 W6_2 2.921970 1_555
W3_2 W6_4 2.921970 1_455
W3_2 W7_5 2.921970 1_454
W3_2 W7_3 2.921970 1_554
W3_2 W4_5 3.262081 1_454
W3_2 W4_3 3.262081 1_554
W3_2 W3_4 3.271878 1_565
W3_2 W3_4 3.271878 1_455
W3_3 W6_5 2.921970 1_455
W3_3 W6_3 2.921970 1_555
W3_3 W7_4 2.921970 1_455
W3_3 W7_2 2.921970 1_555
W3_3 W4_4 3.262081 1_455
W3_3 W4_2 3.262081 1_555
W3_3 W3_5 3.271878 1_565
W3_3 W3_5 3.271878 1_455
W3_4 W6_2 2.921970 1_545
W3_4 W6_4 2.921970 1_555
W3_4 W7_5 2.921970 1_554
W3_4 W7_3 2.921970 1_544
W3_4 W4_3 3.262081 1_544
W3_4 W4_5 3.262081 1_554
W3_5 W6_3 2.921970 1_545
W3_5 W6_5 2.921970 1_555
W3_5 W7_4 2.921970 1_555
W3_5 W7_2 2.921970 1_545
W3_5 W4_2 3.262081 1_545
W3_5 W4_4 3.262081 1_555
W3_6 W6_6 2.921970 1_555
W3_6 W6_0 2.921970 1_555
W3_6 W7_1 2.921970 1_554
W3_6 W7_7 2.921970 1_554
W3_6 W4_1 3.262081 1_554
W3_6 W4_7 3.262081 1_554
W3_7 W6_7 2.921970 1_555
W3_7 W6_1 2.921970 1_555
W3_7 W7_0 2.921970 1_555
W3_7 W7_6 2.921970 1_555
W3_7 W4_6 3.262081 1_555
W3_7 W4_0 3.262081 1_555
O0_0 W7_2 2.120433 1_555
O0_0 W7_4 2.120433 1_455
O0_0 W6_1 2.250444 1_555
O0_0 W4_0 2.401438 1_555
O0_0 O1_3 2.647620 1_555
O0_0 O1_5 2.647620 1_455
O0_0 W3_1 2.833232 1_555
O0_0 W3_7 2.833232 1_555
O0_1 W7_3 2.120433 1_555
O0_1 W7_5 2.120433 1_455
O0_1 W6_0 2.250444 1_556
O0_1 W4_1 2.401438 1_555
O0_1 O1_2 2.647620 1_556
O0_1 O1_4 2.647620 1_456
O0_1 W3_0 2.833232 1_556
O0_1 W3_6 2.833232 1_556
O0_2 W7_6 2.120433 1_455
O0_2 W7_0 2.120433 1_565
O0_2 W6_3 2.250444 1_555
O0_2 W4_2 2.401438 1_555
O0_2 O1_1 2.647620 1_565
O0_2 O1_7 2.647620 1_455
O0_2 W3_5 2.833232 1_565
O0_2 W3_3 2.833232 1_555
O0_3 W7_7 2.120433 1_455
O0_3 W7_1 2.120433 1_565
O0_3 W6_2 2.250444 1_556
O0_3 W4_3 2.401438 1_555
O0_3 O1_0 2.647620 1_566
O0_3 O1_6 2.647620 1_456
O0_3 W3_4 2.833232 1_566
O0_3 W3_2 2.833232 1_556
O0_4 W7_6 2.120433 1_555
O0_4 W7_0 2.120433 1_555
O0_4 W6_5 2.250444 1_555
O0_4 W4_4 2.401438 1_555
O0_4 O1_1 2.647620 1_555
O0_4 O1_7 2.647620 1_555
O0_4 W3_5 2.833232 1_555
O0_4 W3_3 2.833232 1_655
O0_5 W7_7 2.120433 1_555
O0_5 W7_1 2.120433 1_555
O0_5 W6_4 2.250444 1_556
O0_5 W4_5 2.401438 1_555
O0_5 O1_0 2.647620 1_556
O0_5 O1_6 2.647620 1_556
O0_5 W3_4 2.833232 1_556
O0_5 W3_2 2.833232 1_656
O0_6 W7_2 2.120433 1_555
O0_6 W7_4 2.120433 1_565
O0_6 W6_7 2.250444 1_555
O0_6 W4_6 2.401438 1_555
O0_6 O1_3 2.647620 1_555
O0_6 O1_5 2.647620 1_565
O0_6 W3_7 2.833232 1_555
O0_6 W3_1 2.833232 1_665
O0_7 W7_3 2.120433 1_555
O0_7 W7_5 2.120433 1_565
O0_7 W6_6 2.250444 1_556
O0_7 W4_7 2.401438 1_555
O0_7 O1_2 2.647620 1_556
O0_7 O1_4 2.647620 1_566
O0_7 W3_6 2.833232 1_556
O0_7 W3_0 2.833232 1_666
O1_0 W6_2 2.120433 1_545
O1_0 W6_4 2.120433 1_555
O1_0 W7_1 2.250444 1_554
O1_0 W1_0 2.401438 1_555
O1_0 W3_6 2.833232 1_555
O1_0 W3_0 2.833232 1_555
O1_1 W6_3 2.120433 1_545
O1_1 W6_5 2.120433 1_555
O1_1 W7_0 2.250444 1_555
O1_1 W1_1 2.401438 1_555
O1_1 W3_7 2.833232 1_555
O1_1 W3_1 2.833232 1_555
O1_2 W6_0 2.120433 1_555
O1_2 W6_6 2.120433 1_555
O1_2 W7_3 2.250444 1_554
O1_2 W1_2 2.401438 1_555
O1_2 W3_2 2.833232 1_555
O1_2 W3_4 2.833232 1_565
O1_3 W6_1 2.120433 1_555
O1_3 W6_7 2.120433 1_555
O1_3 W7_2 2.250444 1_555
O1_3 W1_3 2.401438 1_555
O1_3 W3_3 2.833232 1_555
O1_3 W3_5 2.833232 1_565
O1_4 W6_6 2.120433 1_545
O1_4 W6_0 2.120433 1_655
O1_4 W7_5 2.250444 1_554
O1_4 W1_4 2.401438 1_555
O1_4 W3_2 2.833232 1_655
O1_4 W3_4 2.833232 1_555
O1_5 W6_7 2.120433 1_545
O1_5 W6_1 2.120433 1_655
O1_5 W7_4 2.250444 1_555
O1_5 W1_5 2.401438 1_555
O1_5 W3_3 2.833232 1_655
O1_5 W3_5 2.833232 1_555
O1_6 W6_4 2.120433 1_555
O1_6 W6_2 2.120433 1_655
O1_6 W7_7 2.250444 1_554
O1_6 W1_6 2.401438 1_555
O1_6 W3_6 2.833232 1_555
O1_6 W3_0 2.833232 1_665
O1_7 W6_5 2.120433 1_555
O1_7 W6_3 2.120433 1_655
O1_7 W7_6 2.250444 1_555
O1_7 W1_7 2.401438 1_555
O1_7 W3_7 2.833232 1_555
O1_7 W3_1 2.833232 1_665
O2_0 W5_2 2.120433 1_545
O2_0 W5_4 2.120433 1_555
O2_0 W0_0 2.250444 1_555
O2_0 W9_0 2.401438 1_555
O2_0 O3_4 2.647620 1_555
O2_0 O3_2 2.647620 1_545
O2_0 W2_6 2.833232 1_555
O2_0 W2_0 2.833232 1_555
O2_1 W5_3 2.120433 1_545
O2_1 W5_5 2.120433 1_555
O2_1 W0_1 2.250444 1_555
O2_1 W9_1 2.401438 1_555
O2_1 O3_5 2.647620 1_555
O2_1 O3_3 2.647620 1_545
O2_1 W2_7 2.833232 1_555
O2_1 W2_1 2.833232 1_555
O2_2 W5_6 2.120433 1_555
O2_2 W5_0 2.120433 1_555
O2_2 W0_2 2.250444 1_555
O2_2 W9_2 2.401438 1_555
O2_2 O3_0 2.647620 1_555
O2_2 O3_6 2.647620 1_555
O2_2 W2_2 2.833232 1_555
O2_2 W2_4 2.833232 1_565
O2_3 W5_1 2.120433 1_555
O2_3 W5_7 2.120433 1_555
O2_3 W0_3 2.250444 1_555
O2_3 W9_3 2.401438 1_555
O2_3 O3_1 2.647620 1_555
O2_3 O3_7 2.647620 1_555
O2_3 W2_3 2.833232 1_555
O2_3 W2_5 2.833232 1_565
O2_4 W5_0 2.120433 1_655
O2_4 W5_6 2.120433 1_545
O2_4 W0_4 2.250444 1_555
O2_4 W9_4 2.401438 1_555
O2_4 O3_0 2.647620 1_655
O2_4 O3_6 2.647620 1_545
O2_4 W2_2 2.833232 1_655
O2_4 W2_4 2.833232 1_555
O2_5 W5_1 2.120433 1_655
O2_5 W5_7 2.120433 1_545
O2_5 W0_5 2.250444 1_555
O2_5 W9_5 2.401438 1_555
O2_5 O3_1 2.647620 1_655
O2_5 O3_7 2.647620 1_545
O2_5 W2_3 2.833232 1_655
O2_5 W2_5 2.833232 1_555
O2_6 W5_4 2.120433 1_555
O2_6 W5_2 2.120433 1_655
O2_6 W0_6 2.250444 1_555
O2_6 W9_6 2.401438 1_555
O2_6 O3_4 2.647620 1_555
O2_6 O3_2 2.647620 1_655
O2_6 W2_6 2.833232 1_555
O2_6 W2_0 2.833232 1_665
O2_7 W5_5 2.120433 1_555
O2_7 W5_3 2.120433 1_655
O2_7 W0_7 2.250444 1_555
O2_7 W9_7 2.401438 1_555
O2_7 O3_5 2.647620 1_555
O2_7 O3_3 2.647620 1_655
O2_7 W2_7 2.833232 1_555
O2_7 W2_1 2.833232 1_665
O3_0 W0_2 2.120433 1_555
O3_0 W0_4 2.120433 1_455
O3_0 W5_0 2.250444 1_555
O3_0 W8_0 2.401438 1_555
O3_0 W2_0 2.833232 1_555
O3_0 W2_6 2.833232 1_555
O3_1 W0_3 2.120433 1_555
O3_1 W0_5 2.120433 1_455
O3_1 W5_1 2.250444 1_555
O3_1 W8_1 2.401438 1_555
O3_1 W2_1 2.833232 1_555
O3_1 W2_7 2.833232 1_555
O3_2 W0_0 2.120433 1_565
O3_2 W0_6 2.120433 1_455
O3_2 W5_2 2.250444 1_555
O3_2 W8_2 2.401438 1_555
O3_2 W2_4 2.833232 1_565
O3_2 W2_2 2.833232 1_555
O3_3 W0_7 2.120433 1_455
O3_3 W0_1 2.120433 1_565
O3_3 W5_3 2.250444 1_555
O3_3 W8_3 2.401438 1_555
O3_3 W2_5 2.833232 1_565
O3_3 W2_3 2.833232 1_555
O3_4 W0_6 2.120433 1_555
O3_4 W0_0 2.120433 1_555
O3_4 W5_4 2.250444 1_555
O3_4 W8_4 2.401438 1_555
O3_4 W2_4 2.833232 1_555
O3_4 W2_2 2.833232 1_655
O3_5 W0_7 2.120433 1_555
O3_5 W0_1 2.120433 1_555
O3_5 W5_5 2.250444 1_555
O3_5 W8_5 2.401438 1_555
O3_5 W2_5 2.833232 1_555
O3_5 W2_3 2.833232 1_655
O3_6 W0_2 2.120433 1_555
O3_6 W0_4 2.120433 1_565
O3_6 W5_6 2.250444 1_555
O3_6 W8_6 2.401438 1_555
O3_6 W2_0 2.833232 1_665
O3_6 W2_6 2.833232 1_555
O3_7 W0_3 2.120433 1_555
O3_7 W0_5 2.120433 1_565
O3_7 W5_7 2.250444 1_555
O3_7 W8_7 2.401438 1_555
O3_7 W2_1 2.833232 1_665
O3_7 W2_7 2.833232 1_555
O4_0 W4_2 2.193032 1_545
O4_0 W4_4 2.193032 1_555
O4_0 W7_0 2.238387 1_555
O4_0 O7_0 3.040450 1_555
O4_1 W4_3 2.193032 1_545
O4_1 W4_5 2.193032 1_555
O4_1 W7_1 2.238387 1_555
O4_1 O7_1 3.040450 1_555
O4_2 W4_0 2.193032 1_555
O4_2 W4_6 2.193032 1_555
O4_2 W7_2 2.238387 1_555
O4_2 O7_2 3.040450 1_555
O4_3 W4_1 2.193032 1_555
O4_3 W4_7 2.193032 1_555
O4_3 W7_3 2.238387 1_555
O4_3 O7_3 3.040450 1_555
O4_4 W4_6 2.193032 1_545
O4_4 W4_0 2.193032 1_655
O4_4 W7_4 2.238387 1_555
O4_4 O7_4 3.040450 1_555
O4_5 W4_7 2.193032 1_545
O4_5 W4_1 2.193032 1_655
O4_5 W7_5 2.238387 1_555
O4_5 O7_5 3.040450 1_555
O4_6 W4_4 2.193032 1_555
O4_6 W4_2 2.193032 1_655
O4_6 W7_6 2.238387 1_555
O4_6 O7_6 3.040450 1_555
O4_7 W4_5 2.193032 1_555
O4_7 W4_3 2.193032 1_655
O4_7 W7_7 2.238387 1_555
O4_7 O7_7 3.040450 1_555
O5_0 W1_4 2.193032 1_455
O5_0 W1_2 2.193032 1_555
O5_0 W6_0 2.238387 1_555
O5_0 O6_0 3.040450 1_555
O5_1 W1_5 2.193032 1_455
O5_1 W1_3 2.193032 1_555
O5_1 W6_1 2.238387 1_555
O5_1 O6_1 3.040450 1_555
O5_2 W1_6 2.193032 1_455
O5_2 W1_0 2.193032 1_565
O5_2 W6_2 2.238387 1_555
O5_2 O6_2 3.040450 1_555
O5_3 W1_7 2.193032 1_455
O5_3 W1_1 2.193032 1_565
O5_3 W6_3 2.238387 1_555
O5_3 O6_3 3.040450 1_555
O5_4 W1_0 2.193032 1_555
O5_4 W1_6 2.193032 1_555
O5_4 W6_4 2.238387 1_555
O5_4 O6_4 3.040450 1_555
O5_5 W1_1 2.193032 1_555
O5_5 W1_7 2.193032 1_555
O5_5 W6_5 2.238387 1_555
O5_5 O6_5 3.040450 1_555
O5_6 W1_2 2.193032 1_555
O5_6 W1_4 2.193032 1_565
O5_6 W6_6 2.238387 1_555
O5_6 O6_6 3.040450 1_555
O5_7 W1_3 2.193032 1_555
O5_7 W1_5 2.193032 1_565
O5_7 W6_7 2.238387 1_555
O5_7 O6_7 3.040450 1_555
O6_0 W9_4 2.193032 1_455
O6_0 W9_2 2.193032 1_555
O6_0 W5_0 2.238387 1_555
O6_1 W9_5 2.193032 1_455
O6_1 W9_3 2.193032 1_555
O6_1 W5_1 2.238387 1_555
O6_2 W9_6 2.193032 1_455
O6_2 W9_0 2.193032 1_565
O6_2 W5_2 2.238387 1_555
O6_3 W9_7 2.193032 1_455
O6_3 W9_1 2.193032 1_565
O6_3 W5_3 2.238387 1_555
O6_4 W9_0 2.193032 1_555
O6_4 W9_6 2.193032 1_555
O6_4 W5_4 2.238387 1_555
O6_5 W9_1 2.193032 1_555
O6_5 W9_7 2.193032 1_555
O6_5 W5_5 2.238387 1_555
O6_6 W9_2 2.193032 1_555
O6_6 W9_4 2.193032 1_565
O6_6 W5_6 2.238387 1_555
O6_7 W9_3 2.193032 1_555
O6_7 W9_5 2.193032 1_565
O6_7 W5_7 2.238387 1_555
O7_0 W8_2 2.193032 1_545
O7_0 W8_4 2.193032 1_555
O7_0 W0_0 2.238387 1_555
O7_1 W8_3 2.193032 1_545
O7_1 W8_5 2.193032 1_555
O7_1 W0_1 2.238387 1_555
O7_2 W8_0 2.193032 1_555
O7_2 W8_6 2.193032 1_555
O7_2 W0_2 2.238387 1_555
O7_3 W8_1 2.193032 1_555
O7_3 W8_7 2.193032 1_555
O7_3 W0_3 2.238387 1_555
O7_4 W8_6 2.193032 1_545
O7_4 W8_0 2.193032 1_655
O7_4 W0_4 2.238387 1_555
O7_5 W8_7 2.193032 1_545
O7_5 W8_1 2.193032 1_655
O7_5 W0_5 2.238387 1_555
O7_6 W8_4 2.193032 1_555
O7_6 W8_2 2.193032 1_655
O7_6 W0_6 2.238387 1_555
O7_7 W8_5 2.193032 1_555
O7_7 W8_3 2.193032 1_655
O7_7 W0_7 2.238387 1_555
O8_0 W7_4 2.245350 1_455
O8_0 W7_2 2.245350 1_555
O8_0 W4_4 2.325771 1_455
O8_0 W4_2 2.325771 1_555
O8_0 W3_3 2.733532 1_555
O8_1 W7_5 2.245350 1_455
O8_1 W7_3 2.245350 1_555
O8_1 W4_5 2.325771 1_455
O8_1 W4_3 2.325771 1_555
O8_1 W3_2 2.733532 1_556
O8_2 W7_6 2.245350 1_455
O8_2 W7_0 2.245350 1_565
O8_2 W4_6 2.325771 1_455
O8_2 W4_0 2.325771 1_565
O8_2 W3_1 2.733532 1_565
O8_3 W7_7 2.245350 1_455
O8_3 W7_1 2.245350 1_565
O8_3 W4_7 2.325771 1_455
O8_3 W4_1 2.325771 1_565
O8_3 W3_0 2.733532 1_566
O8_4 W7_0 2.245350 1_555
O8_4 W7_6 2.245350 1_555
O8_4 W4_0 2.325771 1_555
O8_4 W4_6 2.325771 1_555
O8_4 W3_7 2.733532 1_555
O8_5 W7_1 2.245350 1_555
O8_5 W7_7 2.245350 1_555
O8_5 W4_1 2.325771 1_555
O8_5 W4_7 2.325771 1_555
O8_5 W3_6 2.733532 1_556
O8_6 W7_4 2.245350 1_565
O8_6 W7_2 2.245350 1_555
O8_6 W4_2 2.325771 1_555
O8_6 W4_4 2.325771 1_565
O8_6 W3_5 2.733532 1_565
O8_7 W7_3 2.245350 1_555
O8_7 W7_5 2.245350 1_565
O8_7 W4_3 2.325771 1_555
O8_7 W4_5 2.325771 1_565
O8_7 W3_4 2.733532 1_566
O9_0 W6_2 2.245350 1_545
O9_0 W6_4 2.245350 1_555
O9_0 W1_2 2.325771 1_545
O9_0 W1_4 2.325771 1_555
O9_0 W3_4 2.733532 1_555
O9_1 W6_3 2.245350 1_545
O9_1 W6_5 2.245350 1_555
O9_1 W1_3 2.325771 1_545
O9_1 W1_5 2.325771 1_555
O9_1 W3_5 2.733532 1_555
O9_2 W6_0 2.245350 1_555
O9_2 W6_6 2.245350 1_555
O9_2 W1_0 2.325771 1_555
O9_2 W1_6 2.325771 1_555
O9_2 W3_6 2.733532 1_555
O9_3 W6_1 2.245350 1_555
O9_3 W6_7 2.245350 1_555
O9_3 W1_1 2.325771 1_555
O9_3 W1_7 2.325771 1_555
O9_3 W3_7 2.733532 1_555
O9_4 W6_6 2.245350 1_545
O9_4 W6_0 2.245350 1_655
O9_4 W1_6 2.325771 1_545
O9_4 W1_0 2.325771 1_655
O9_4 W3_0 2.733532 1_655
O9_5 W6_7 2.245350 1_545
O9_5 W6_1 2.245350 1_655
O9_5 W1_7 2.325771 1_545
O9_5 W1_1 2.325771 1_655
O9_5 W3_1 2.733532 1_655
O9_6 W6_4 2.245350 1_555
O9_6 W6_2 2.245350 1_655
O9_6 W1_4 2.325771 1_555
O9_6 W1_2 2.325771 1_655
O9_6 W3_2 2.733532 1_655
O9_7 W6_5 2.245350 1_555
O9_7 W6_3 2.245350 1_655
O9_7 W1_5 2.325771 1_555
O9_7 W1_3 2.325771 1_655
O9_7 W3_3 2.733532 1_655
O10_0 W5_2 2.245350 1_545
O10_0 W5_4 2.245350 1_555
O10_0 W9_2 2.325771 1_545
O10_0 W9_4 2.325771 1_555
O10_0 W2_4 2.733532 1_555
O10_0 O13_2 2.777040 1_545
O10_0 O13_4 2.777040 1_555
O10_1 W5_3 2.245350 1_545
O10_1 W5_5 2.245350 1_555
O10_1 W9_3 2.325771 1_545
O10_1 W9_5 2.325771 1_555
O10_1 W2_5 2.733532 1_555
O10_1 O13_3 2.777040 1_545
O10_1 O13_5 2.777040 1_555
O10_2 W5_0 2.245350 1_555
O10_2 W5_6 2.245350 1_555
O10_2 W9_0 2.325771 1_555
O10_2 W9_6 2.325771 1_555
O10_2 W2_6 2.733532 1_555
O10_2 O13_0 2.777040 1_555
O10_2 O13_6 2.777040 1_555
O10_3 W5_1 2.245350 1_555
O10_3 W5_7 2.245350 1_555
O10_3 W9_1 2.325771 1_555
O10_3 W9_7 2.325771 1_555
O10_3 W2_7 2.733532 1_555
O10_3 O13_1 2.777040 1_555
O10_3 O13_7 2.777040 1_555
O10_4 W5_6 2.245350 1_545
O10_4 W5_0 2.245350 1_655
O10_4 W9_6 2.325771 1_545
O10_4 W9_0 2.325771 1_655
O10_4 W2_0 2.733532 1_655
O10_4 O13_6 2.777040 1_545
O10_4 O13_0 2.777040 1_655
O10_5 W5_7 2.245350 1_545
O10_5 W5_1 2.245350 1_655
O10_5 W9_7 2.325771 1_545
O10_5 W9_1 2.325771 1_655
O10_5 W2_1 2.733532 1_655
O10_5 O13_7 2.777040 1_545
O10_5 O13_1 2.777040 1_655
O10_6 W5_4 2.245350 1_555
O10_6 W5_2 2.245350 1_655
O10_6 W9_4 2.325771 1_555
O10_6 W9_2 2.325771 1_655
O10_6 W2_2 2.733532 1_655
O10_6 O13_4 2.777040 1_555
O10_6 O13_2 2.777040 1_655
O10_7 W5_5 2.245350 1_555
O10_7 W5_3 2.245350 1_655
O10_7 W9_5 2.325771 1_555
O10_7 W9_3 2.325771 1_655
O10_7 W2_3 2.733532 1_655
O10_7 O13_5 2.777040 1_555
O10_7 O13_3 2.777040 1_655
O11_0 W0_4 2.245350 1_455
O11_0 W0_2 2.245350 1_555
O11_0 W8_4 2.325771 1_455
O11_0 W8_2 2.325771 1_555
O11_0 W2_2 2.733532 1_555
O11_0 O12_4 2.777040 1_455
O11_0 O12_2 2.777040 1_555
O11_1 W0_5 2.245350 1_455
O11_1 W0_3 2.245350 1_555
O11_1 W8_5 2.325771 1_455
O11_1 W8_3 2.325771 1_555
O11_1 W2_3 2.733532 1_555
O11_1 O12_5 2.777040 1_455
O11_1 O12_3 2.777040 1_555
O11_2 W0_6 2.245350 1_455
O11_2 W0_0 2.245350 1_565
O11_2 W8_6 2.325771 1_455
O11_2 W8_0 2.325771 1_565
O11_2 W2_0 2.733532 1_565
O11_2 O12_6 2.777040 1_455
O11_2 O12_0 2.777040 1_565
O11_3 W0_7 2.245350 1_455
O11_3 W0_1 2.245350 1_565
O11_3 W8_7 2.325771 1_455
O11_3 W8_1 2.325771 1_565
O11_3 W2_1 2.733532 1_565
O11_3 O12_7 2.777040 1_455
O11_3 O12_1 2.777040 1_565
O11_4 W0_0 2.245350 1_555
O11_4 W0_6 2.245350 1_555
O11_4 W8_0 2.325771 1_555
O11_4 W8_6 2.325771 1_555
O11_4 W2_6 2.733532 1_555
O11_4 O12_0 2.777040 1_555
O11_4 O12_6 2.777040 1_555
O11_5 W0_1 2.245350 1_555
O11_5 W0_7 2.245350 1_555
O11_5 W8_1 2.325771 1_555
O11_5 W8_7 2.325771 1_555
O11_5 W2_7 2.733532 1_555
O11_5 O12_1 2.777040 1_555
O11_5 O12_7 2.777040 1_555
O11_6 W0_4 2.245350 1_565
O11_6 W0_2 2.245350 1_555
O11_6 W8_2 2.325771 1_555
O11_6 W8_4 2.325771 1_565
O11_6 W2_4 2.733532 1_565
O11_6 O12_2 2.777040 1_555
O11_6 O12_4 2.777040 1_565
O11_7 W0_3 2.245350 1_555
O11_7 W0_5 2.245350 1_565
O11_7 W8_5 2.325771 1_565
O11_7 W8_3 2.325771 1_555
O11_7 W2_5 2.733532 1_565
O11_7 O12_3 2.777040 1_555
O11_7 O12_5 2.777040 1_565
O12_0 W8_0 2.126979 1_555
O12_0 W4_0 2.126979 1_555
O12_0 O8_4 2.777040 1_555
O12_0 O8_2 2.777040 1_545
O12_1 W4_1 2.126979 1_555
O12_1 W8_1 2.126979 1_555
O12_1 O8_5 2.777040 1_555
O12_1 O8_3 2.777040 1_545
O12_2 W4_2 2.126979 1_555
O12_2 W8_2 2.126979 1_555
O12_2 O8_6 2.777040 1_555
O12_2 O8_0 2.777040 1_555
O12_3 W8_3 2.126979 1_555
O12_3 W4_3 2.126979 1_555
O12_3 O8_7 2.777040 1_555
O12_3 O8_1 2.777040 1_555
O12_4 W4_4 2.126979 1_555
O12_4 W8_4 2.126979 1_555
O12_4 O8_0 2.777040 1_655
O12_4 O8_6 2.777040 1_545
O12_5 W8_5 2.126979 1_555
O12_5 W4_5 2.126979 1_555
O12_5 O8_1 2.777040 1_655
O12_5 O8_7 2.777040 1_545
O12_6 W8_6 2.126979 1_555
O12_6 W4_6 2.126979 1_555
O12_6 O8_2 2.777040 1_655
O12_6 O8_4 2.777040 1_555
O12_7 W8_7 2.126979 1_555
O12_7 W4_7 2.126979 1_555
O12_7 O8_3 2.777040 1_655
O12_7 O8_5 2.777040 1_555
O13_0 W9_0 2.126979 1_555
O13_0 W1_0 2.126979 1_555
O13_0 O9_2 2.777040 1_555
O13_0 O9_4 2.777040 1_455
O13_1 W9_1 2.126979 1_555
O13_1 W1_1 2.126979 1_555
O13_1 O9_3 2.777040 1_555
O13_1 O9_5 2.777040 1_455
O13_2 W9_2 2.126979 1_555
O13_2 W1_2 2.126979 1_555
O13_2 O9_0 2.777040 1_565
O13_2 O9_6 2.777040 1_455
O13_3 W9_3 2.126979 1_555
O13_3 W1_3 2.126979 1_555
O13_3 O9_1 2.777040 1_565
O13_3 O9_7 2.777040 1_455
O13_4 W9_4 2.126979 1_555
O13_4 W1_4 2.126979 1_555
O13_4 O9_6 2.777040 1_555
O13_4 O9_0 2.777040 1_555
O13_5 W9_5 2.126979 1_555
O13_5 W1_5 2.126979 1_555
O13_5 O9_7 2.777040 1_555
O13_5 O9_1 2.777040 1_555
O13_6 W9_6 2.126979 1_555
O13_6 W1_6 2.126979 1_555
O13_6 O9_4 2.777040 1_565
O13_6 O9_2 2.777040 1_555
O13_7 W9_7 2.126979 1_555
O13_7 W1_7 2.126979 1_555
O13_7 O9_5 2.777040 1_565
O13_7 O9_3 2.777040 1_555
