# generated using pymatgen
data_Er2InAg
_symmetry_space_group_name_H-M   'P 1'
_cell_length_a   7.21485144
_cell_length_b   7.21485144
_cell_length_c   14.94085492
_cell_angle_alpha   90.00000000
_cell_angle_beta   90.00000000
_cell_angle_gamma   90.00000000
_symmetry_Int_Tables_number   1
_chemical_formula_structural   Er2InAg
_chemical_formula_sum   'Er16 In8 Ag8'
_cell_volume   777.73247672
_cell_formula_units_Z   8
loop_
 _symmetry_equiv_pos_site_id
 _symmetry_equiv_pos_as_xyz
  1  'x, y, z'
loop_
 _atom_site_type_symbol
 _atom_site_label
 _atom_site_symmetry_multiplicity
 _atom_site_fract_x
 _atom_site_fract_y
 _atom_site_fract_z
 _atom_site_occupancy
  Er  Er0_0  1  0.00000000  0.00000000  0.38321549  1
  Er  Er0_1  1  0.00000000  0.00000000  0.88321549  1
  Er  Er0_2  1  0.00000000  0.50000000  0.38321549  1
  Er  Er0_3  1  0.00000000  0.50000000  0.88321549  1
  Er  Er0_4  1  0.50000000  0.00000000  0.38321549  1
  Er  Er0_5  1  0.50000000  0.00000000  0.88321549  1
  Er  Er0_6  1  0.50000000  0.50000000  0.38321549  1
  Er  Er0_7  1  0.50000000  0.50000000  0.88321549  1
  Er  Er1_0  1  0.00000000  0.00000000  0.11678451  1
  Er  Er1_1  1  0.00000000  0.00000000  0.61678451  1
  Er  Er1_2  1  0.00000000  0.50000000  0.11678451  1
  Er  Er1_3  1  0.00000000  0.50000000  0.61678451  1
  Er  Er1_4  1  0.50000000  0.00000000  0.11678451  1
  Er  Er1_5  1  0.50000000  0.00000000  0.61678451  1
  Er  Er1_6  1  0.50000000  0.50000000  0.11678451  1
  Er  Er1_7  1  0.50000000  0.50000000  0.61678451  1
  In  In0_0  1  0.25000000  0.25000000  0.25000000  1
  In  In0_1  1  0.25000000  0.25000000  0.75000000  1
  In  In0_2  1  0.25000000  0.75000000  0.25000000  1
  In  In0_3  1  0.25000000  0.75000000  0.75000000  1
  In  In0_4  1  0.75000000  0.25000000  0.25000000  1
  In  In0_5  1  0.75000000  0.25000000  0.75000000  1
  In  In0_6  1  0.75000000  0.75000000  0.25000000  1
  In  In0_7  1  0.75000000  0.75000000  0.75000000  1
  Ag  Ag0_0  1  0.25000000  0.25000000  0.00000000  1
  Ag  Ag0_1  1  0.25000000  0.25000000  0.50000000  1
  Ag  Ag0_2  1  0.25000000  0.75000000  0.00000000  1
  Ag  Ag0_3  1  0.25000000  0.75000000  0.50000000  1
  Ag  Ag0_4  1  0.75000000  0.25000000  0.00000000  1
  Ag  Ag0_5  1  0.75000000  0.25000000  0.50000000  1
  Ag  Ag0_6  1  0.75000000  0.75000000  0.00000000  1
  Ag  Ag0_7  1  0.75000000  0.75000000  0.50000000  1
loop_
_geom_bond_atom_site_label_1
_geom_bond_atom_site_label_2
_geom_bond_distance
_geom_bond_site_symmetry_2
Er0_0 In0_6 3.235470 1_445
Er0_0 In0_2 3.235470 1_545
Er0_0 In0_4 3.235470 1_455
Er0_0 In0_0 3.235470 1_555
Er0_0 Er1_1 3.489721 1_555
Er0_0 Er0_2 3.607426 1_545
Er0_0 Er0_4 3.607426 1_555
Er0_0 Er0_2 3.607426 1_555
Er0_0 Er0_4 3.607426 1_455
Er0_1 In0_1 3.235470 1_555
Er0_1 In0_3 3.235470 1_545
Er0_1 In0_7 3.235470 1_445
Er0_1 In0_5 3.235470 1_455
Er0_1 Er1_0 3.489721 1_556
Er0_1 Er0_5 3.607426 1_455
Er0_1 Er0_5 3.607426 1_555
Er0_1 Er0_3 3.607426 1_555
Er0_1 Er0_3 3.607426 1_545
Er0_2 In0_2 3.235470 1_555
Er0_2 In0_6 3.235470 1_455
Er0_2 In0_4 3.235470 1_455
Er0_2 In0_0 3.235470 1_555
Er0_2 Er1_3 3.489721 1_555
Er0_2 Er0_6 3.607426 1_555
Er0_2 Er0_6 3.607426 1_455
Er0_3 In0_1 3.235470 1_555
Er0_3 In0_7 3.235470 1_455
Er0_3 In0_3 3.235470 1_555
Er0_3 In0_5 3.235470 1_455
Er0_3 Er1_2 3.489721 1_556
Er0_3 Er0_7 3.607426 1_455
Er0_3 Er0_7 3.607426 1_555
Er0_4 In0_4 3.235470 1_555
Er0_4 In0_2 3.235470 1_545
Er0_4 In0_6 3.235470 1_545
Er0_4 In0_0 3.235470 1_555
Er0_4 Er1_5 3.489721 1_555
Er0_4 Er0_6 3.607426 1_555
Er0_4 Er0_6 3.607426 1_545
Er0_5 In0_1 3.235470 1_555
Er0_5 In0_5 3.235470 1_555
Er0_5 In0_7 3.235470 1_545
Er0_5 In0_3 3.235470 1_545
Er0_5 Er1_4 3.489721 1_556
Er0_5 Er0_7 3.607426 1_545
Er0_5 Er0_7 3.607426 1_555
Er0_6 In0_4 3.235470 1_555
Er0_6 In0_2 3.235470 1_555
Er0_6 In0_6 3.235470 1_555
Er0_6 In0_0 3.235470 1_555
Er0_6 Er1_7 3.489721 1_555
Er0_7 In0_1 3.235470 1_555
Er0_7 In0_5 3.235470 1_555
Er0_7 In0_3 3.235470 1_555
Er0_7 In0_7 3.235470 1_555
Er0_7 Er1_6 3.489721 1_556
Er1_0 In0_6 3.235470 1_445
Er1_0 In0_2 3.235470 1_545
Er1_0 In0_4 3.235470 1_455
Er1_0 In0_0 3.235470 1_555
Er1_0 Er1_2 3.607426 1_545
Er1_0 Er1_4 3.607426 1_555
Er1_0 Er1_2 3.607426 1_555
Er1_0 Er1_4 3.607426 1_455
Er1_1 In0_1 3.235470 1_555
Er1_1 In0_3 3.235470 1_545
Er1_1 In0_7 3.235470 1_445
Er1_1 In0_5 3.235470 1_455
Er1_1 Er1_3 3.607426 1_545
Er1_1 Er1_3 3.607426 1_555
Er1_1 Er1_5 3.607426 1_455
Er1_1 Er1_5 3.607426 1_555
Er1_2 In0_2 3.235470 1_555
Er1_2 In0_6 3.235470 1_455
Er1_2 In0_4 3.235470 1_455
Er1_2 In0_0 3.235470 1_555
Er1_2 Er1_6 3.607426 1_555
Er1_2 Er1_6 3.607426 1_455
Er1_3 In0_1 3.235470 1_555
Er1_3 In0_7 3.235470 1_455
Er1_3 In0_3 3.235470 1_555
Er1_3 In0_5 3.235470 1_455
Er1_3 Er1_7 3.607426 1_555
Er1_3 Er1_7 3.607426 1_455
Er1_4 In0_4 3.235470 1_555
Er1_4 In0_2 3.235470 1_545
Er1_4 In0_6 3.235470 1_545
Er1_4 In0_0 3.235470 1_555
Er1_4 Er1_6 3.607426 1_555
Er1_4 Er1_6 3.607426 1_545
Er1_5 In0_1 3.235470 1_555
Er1_5 In0_5 3.235470 1_555
Er1_5 In0_7 3.235470 1_545
Er1_5 In0_3 3.235470 1_545
Er1_5 Er1_7 3.607426 1_545
Er1_5 Er1_7 3.607426 1_555
Er1_6 In0_4 3.235470 1_555
Er1_6 In0_2 3.235470 1_555
Er1_6 In0_6 3.235470 1_555
Er1_6 In0_0 3.235470 1_555
Er1_7 In0_1 3.235470 1_555
Er1_7 In0_5 3.235470 1_555
Er1_7 In0_3 3.235470 1_555
Er1_7 In0_7 3.235470 1_555
In0_0 In0_2 3.607426 1_545
In0_0 In0_2 3.607426 1_555
In0_0 In0_4 3.607426 1_455
In0_0 In0_4 3.607426 1_555
In0_1 In0_3 3.607426 1_555
In0_1 In0_3 3.607426 1_545
In0_1 In0_5 3.607426 1_455
In0_1 In0_5 3.607426 1_555
In0_2 In0_6 3.607426 1_455
In0_2 In0_6 3.607426 1_555
In0_3 In0_7 3.607426 1_555
In0_3 In0_7 3.607426 1_455
In0_4 In0_6 3.607426 1_545
In0_4 In0_6 3.607426 1_555
In0_5 In0_7 3.607426 1_555
In0_5 In0_7 3.607426 1_545
Ag0_0 Er0_1 3.090517 1_554
Ag0_0 Er0_7 3.090517 1_554
Ag0_0 Er1_4 3.090517 1_555
Ag0_0 Er0_5 3.090517 1_554
Ag0_0 Er1_2 3.090517 1_555
Ag0_0 Er0_3 3.090517 1_554
Ag0_0 Er1_6 3.090517 1_555
Ag0_0 Er1_0 3.090517 1_555
Ag0_0 Ag0_2 3.607426 1_545
Ag0_0 Ag0_2 3.607426 1_555
Ag0_0 Ag0_4 3.607426 1_555
Ag0_0 Ag0_4 3.607426 1_455
Ag0_0 In0_1 3.735214 1_554
Ag0_0 In0_0 3.735214 1_555
Ag0_1 Er0_2 3.090517 1_555
Ag0_1 Er0_6 3.090517 1_555
Ag0_1 Er1_7 3.090517 1_555
Ag0_1 Er1_1 3.090517 1_555
Ag0_1 Er1_5 3.090517 1_555
Ag0_1 Er0_0 3.090517 1_555
Ag0_1 Er1_3 3.090517 1_555
Ag0_1 Er0_4 3.090517 1_555
Ag0_1 Ag0_5 3.607426 1_455
Ag0_1 Ag0_3 3.607426 1_555
Ag0_1 Ag0_3 3.607426 1_545
Ag0_1 Ag0_5 3.607426 1_555
Ag0_1 In0_1 3.735214 1_555
Ag0_1 In0_0 3.735214 1_555
Ag0_2 Er0_7 3.090517 1_554
Ag0_2 Er1_4 3.090517 1_565
Ag0_2 Er0_1 3.090517 1_564
Ag0_2 Er0_5 3.090517 1_564
Ag0_2 Er1_2 3.090517 1_555
Ag0_2 Er0_3 3.090517 1_554
Ag0_2 Er1_6 3.090517 1_555
Ag0_2 Er1_0 3.090517 1_565
Ag0_2 Ag0_6 3.607426 1_455
Ag0_2 Ag0_6 3.607426 1_555
Ag0_2 In0_3 3.735214 1_554
Ag0_2 In0_2 3.735214 1_555
Ag0_3 Er0_0 3.090517 1_565
Ag0_3 Er0_2 3.090517 1_555
Ag0_3 Er0_6 3.090517 1_555
Ag0_3 Er1_5 3.090517 1_565
Ag0_3 Er1_7 3.090517 1_555
Ag0_3 Er0_4 3.090517 1_565
Ag0_3 Er1_1 3.090517 1_565
Ag0_3 Er1_3 3.090517 1_555
Ag0_3 Ag0_7 3.607426 1_455
Ag0_3 Ag0_7 3.607426 1_555
Ag0_3 In0_2 3.735214 1_555
Ag0_3 In0_3 3.735214 1_555
Ag0_4 Er0_7 3.090517 1_554
Ag0_4 Er1_2 3.090517 1_655
Ag0_4 Er1_4 3.090517 1_555
Ag0_4 Er0_5 3.090517 1_554
Ag0_4 Er1_0 3.090517 1_655
Ag0_4 Er0_3 3.090517 1_654
Ag0_4 Er1_6 3.090517 1_555
Ag0_4 Er0_1 3.090517 1_654
Ag0_4 Ag0_6 3.607426 1_545
Ag0_4 Ag0_6 3.607426 1_555
Ag0_4 In0_4 3.735214 1_555
Ag0_4 In0_5 3.735214 1_554
Ag0_5 Er0_6 3.090517 1_555
Ag0_5 Er1_7 3.090517 1_555
Ag0_5 Er1_1 3.090517 1_655
Ag0_5 Er1_5 3.090517 1_555
Ag0_5 Er0_2 3.090517 1_655
Ag0_5 Er0_0 3.090517 1_655
Ag0_5 Er1_3 3.090517 1_655
Ag0_5 Er0_4 3.090517 1_555
Ag0_5 Ag0_7 3.607426 1_545
Ag0_5 Ag0_7 3.607426 1_555
Ag0_5 In0_5 3.735214 1_555
Ag0_5 In0_4 3.735214 1_555
Ag0_6 Er0_7 3.090517 1_554
Ag0_6 Er1_2 3.090517 1_655
Ag0_6 Er1_4 3.090517 1_565
Ag0_6 Er0_5 3.090517 1_564
Ag0_6 Er0_1 3.090517 1_664
Ag0_6 Er0_3 3.090517 1_654
Ag0_6 Er1_6 3.090517 1_555
Ag0_6 Er1_0 3.090517 1_665
Ag0_6 In0_6 3.735214 1_555
Ag0_6 In0_7 3.735214 1_554
Ag0_7 Er1_1 3.090517 1_665
Ag0_7 Er0_6 3.090517 1_555
Ag0_7 Er1_5 3.090517 1_565
Ag0_7 Er1_7 3.090517 1_555
Ag0_7 Er0_2 3.090517 1_655
Ag0_7 Er0_4 3.090517 1_565
Ag0_7 Er1_3 3.090517 1_655
Ag0_7 Er0_0 3.090517 1_665
Ag0_7 In0_7 3.735214 1_555
Ag0_7 In0_6 3.735214 1_555
