# generated using pymatgen
data_NaMnN
_symmetry_space_group_name_H-M   'P 1'
_cell_length_a   6.07147800
_cell_length_b   6.07479725
_cell_length_c   20.50341200
_cell_angle_alpha   90.00000000
_cell_angle_beta   90.00000000
_cell_angle_gamma   119.98193787
_symmetry_Int_Tables_number   1
_chemical_formula_structural   NaMnN
_chemical_formula_sum   'Na16 Mn16 N16'
_cell_volume   655.03121891
_cell_formula_units_Z   16
loop_
 _symmetry_equiv_pos_site_id
 _symmetry_equiv_pos_as_xyz
  1  'x, y, z'
loop_
 _atom_site_type_symbol
 _atom_site_label
 _atom_site_symmetry_multiplicity
 _atom_site_fract_x
 _atom_site_fract_y
 _atom_site_fract_z
 _atom_site_occupancy
  Na  Na0_0  1  0.33362900  0.16725750  0.37969150  1
  Na  Na0_1  1  0.33362900  0.16725750  0.87969150  1
  Na  Na0_2  1  0.33362900  0.66725750  0.37969150  1
  Na  Na0_3  1  0.33362900  0.66725750  0.87969150  1
  Na  Na0_4  1  0.83362900  0.16725750  0.37969150  1
  Na  Na0_5  1  0.83362900  0.16725750  0.87969150  1
  Na  Na0_6  1  0.83362900  0.66725750  0.37969150  1
  Na  Na0_7  1  0.83362900  0.66725750  0.87969150  1
  Na  Na1_0  1  0.16637100  0.33274250  0.12969150  1
  Na  Na1_1  1  0.16637100  0.33274250  0.62969150  1
  Na  Na1_2  1  0.16637100  0.83274250  0.12969150  1
  Na  Na1_3  1  0.16637100  0.83274250  0.62969150  1
  Na  Na1_4  1  0.66637100  0.33274250  0.12969150  1
  Na  Na1_5  1  0.66637100  0.33274250  0.62969150  1
  Na  Na1_6  1  0.66637100  0.83274250  0.12969150  1
  Na  Na1_7  1  0.66637100  0.83274250  0.62969150  1
  Mn  Mn0_0  1  0.49992150  0.49984250  0.25680550  1
  Mn  Mn0_1  1  0.49992150  0.49984250  0.75680550  1
  Mn  Mn0_2  1  0.49992150  0.99984250  0.25680550  1
  Mn  Mn0_3  1  0.49992150  0.99984250  0.75680550  1
  Mn  Mn0_4  1  0.99992150  0.49984250  0.25680550  1
  Mn  Mn0_5  1  0.99992150  0.49984250  0.75680550  1
  Mn  Mn0_6  1  0.99992150  0.99984250  0.25680550  1
  Mn  Mn0_7  1  0.99992150  0.99984250  0.75680550  1
  Mn  Mn1_0  1  0.00007850  0.00015750  0.00680550  1
  Mn  Mn1_1  1  0.00007850  0.00015750  0.50680550  1
  Mn  Mn1_2  1  0.00007850  0.50015750  0.00680550  1
  Mn  Mn1_3  1  0.00007850  0.50015750  0.50680550  1
  Mn  Mn1_4  1  0.50007850  0.00015750  0.00680550  1
  Mn  Mn1_5  1  0.50007850  0.00015750  0.50680550  1
  Mn  Mn1_6  1  0.50007850  0.50015750  0.00680550  1
  Mn  Mn1_7  1  0.50007850  0.50015750  0.50680550  1
  N  N0_0  1  0.16665100  0.33330150  0.28582300  1
  N  N0_1  1  0.16665100  0.33330150  0.78582300  1
  N  N0_2  1  0.16665100  0.83330150  0.28582300  1
  N  N0_3  1  0.16665100  0.83330150  0.78582300  1
  N  N0_4  1  0.66665100  0.33330150  0.28582300  1
  N  N0_5  1  0.66665100  0.33330150  0.78582300  1
  N  N0_6  1  0.66665100  0.83330150  0.28582300  1
  N  N0_7  1  0.66665100  0.83330150  0.78582300  1
  N  N1_0  1  0.33334900  0.16669850  0.03582300  1
  N  N1_1  1  0.33334900  0.16669850  0.53582300  1
  N  N1_2  1  0.33334900  0.66669850  0.03582300  1
  N  N1_3  1  0.33334900  0.66669850  0.53582300  1
  N  N1_4  1  0.83334900  0.16669850  0.03582300  1
  N  N1_5  1  0.83334900  0.16669850  0.53582300  1
  N  N1_6  1  0.83334900  0.66669850  0.03582300  1
  N  N1_7  1  0.83334900  0.66669850  0.53582300  1
loop_
_geom_bond_atom_site_label_1
_geom_bond_atom_site_label_2
_geom_bond_distance
_geom_bond_site_symmetry_2
Na0_0 Na0_4 3.035739 1_455
Na0_0 Na0_4 3.035739 1_555
Na0_0 Na0_6 3.037398 1_555
Na0_0 Na0_6 3.037398 1_445
Na0_0 Na0_2 3.037399 1_545
Na0_0 Na0_2 3.037399 1_555
Na0_1 Na0_5 3.035739 1_455
Na0_1 Na0_5 3.035739 1_555
Na0_1 Na0_7 3.037398 1_555
Na0_1 Na0_7 3.037398 1_445
Na0_1 Na0_3 3.037399 1_545
Na0_1 Na0_3 3.037399 1_555
Na0_2 Na0_6 3.035739 1_555
Na0_2 Na0_6 3.035739 1_455
Na0_2 Na0_4 3.037398 1_455
Na0_2 Na0_4 3.037398 1_565
Na0_3 Na0_7 3.035739 1_555
Na0_3 Na0_7 3.035739 1_455
Na0_3 Na0_5 3.037398 1_565
Na0_3 Na0_5 3.037398 1_455
Na0_4 Na0_6 3.037399 1_545
Na0_4 Na0_6 3.037399 1_555
Na0_5 Na0_7 3.037399 1_545
Na0_5 Na0_7 3.037399 1_555
Na1_0 Na1_4 3.035739 1_455
Na1_0 Na1_4 3.035739 1_555
Na1_0 Na1_6 3.037398 1_555
Na1_0 Na1_6 3.037398 1_445
Na1_0 Na1_2 3.037399 1_555
Na1_0 Na1_2 3.037399 1_545
Na1_1 Na1_5 3.035739 1_555
Na1_1 Na1_5 3.035739 1_455
Na1_1 Na1_7 3.037398 1_555
Na1_1 Na1_7 3.037398 1_445
Na1_1 Na1_3 3.037399 1_545
Na1_1 Na1_3 3.037399 1_555
Na1_2 Na1_6 3.035739 1_555
Na1_2 Na1_6 3.035739 1_455
Na1_2 Na1_4 3.037398 1_455
Na1_2 Na1_4 3.037398 1_565
Na1_3 Na1_7 3.035739 1_455
Na1_3 Na1_7 3.035739 1_555
Na1_3 Na1_5 3.037398 1_455
Na1_3 Na1_5 3.037398 1_565
Na1_4 Na1_6 3.037399 1_555
Na1_4 Na1_6 3.037399 1_545
Na1_5 Na1_7 3.037399 1_555
Na1_5 Na1_7 3.037399 1_545
Mn0_0 N0_0 1.850902 1_555
Mn0_0 N0_4 1.850902 1_555
Mn0_0 N0_6 1.852749 1_555
Mn0_0 Na1_6 3.140229 1_555
Mn0_0 Na1_4 3.141603 1_555
Mn0_0 Na1_0 3.141605 1_555
Mn0_1 N0_1 1.850902 1_555
Mn0_1 N0_5 1.850902 1_555
Mn0_1 N0_7 1.852749 1_555
Mn0_1 Na1_7 3.140229 1_555
Mn0_1 Na1_5 3.141603 1_555
Mn0_1 Na1_1 3.141605 1_555
Mn0_2 N0_2 1.850902 1_555
Mn0_2 N0_6 1.850902 1_555
Mn0_2 N0_4 1.852749 1_565
Mn0_2 Na1_4 3.140229 1_565
Mn0_2 Na1_6 3.141603 1_555
Mn0_2 Na1_2 3.141605 1_555
Mn0_3 N0_3 1.850902 1_555
Mn0_3 N0_7 1.850902 1_555
Mn0_3 N0_5 1.852749 1_565
Mn0_3 Na1_5 3.140229 1_565
Mn0_3 Na1_7 3.141603 1_555
Mn0_3 Na1_3 3.141605 1_555
Mn0_4 N0_4 1.850902 1_555
Mn0_4 N0_0 1.850902 1_655
Mn0_4 N0_2 1.852749 1_655
Mn0_4 Na1_2 3.140229 1_655
Mn0_4 Na1_0 3.141603 1_655
Mn0_4 Na1_4 3.141605 1_555
Mn0_5 N0_5 1.850902 1_555
Mn0_5 N0_1 1.850902 1_655
Mn0_5 N0_3 1.852749 1_655
Mn0_5 Na1_3 3.140229 1_655
Mn0_5 Na1_1 3.141603 1_655
Mn0_5 Na1_5 3.141605 1_555
Mn0_6 N0_6 1.850902 1_555
Mn0_6 N0_2 1.850902 1_655
Mn0_6 N0_0 1.852749 1_665
Mn0_6 Na1_0 3.140229 1_665
Mn0_6 Na1_2 3.141603 1_655
Mn0_6 Na1_6 3.141605 1_555
Mn0_7 N0_7 1.850902 1_555
Mn0_7 N0_3 1.850902 1_655
Mn0_7 N0_1 1.852749 1_665
Mn0_7 Na1_1 3.140229 1_665
Mn0_7 Na1_3 3.141603 1_655
Mn0_7 Na1_7 3.141605 1_555
Mn1_0 N1_0 1.850902 1_555
Mn1_0 N1_4 1.850902 1_455
Mn1_0 N1_6 1.852749 1_445
Mn1_0 Na0_7 3.140229 1_444
Mn1_0 Na0_5 3.141603 1_454
Mn1_0 Na0_1 3.141605 1_554
Mn1_1 N1_1 1.850902 1_555
Mn1_1 N1_5 1.850902 1_455
Mn1_1 N1_7 1.852749 1_445
Mn1_1 Na0_6 3.140229 1_445
Mn1_1 Na0_4 3.141603 1_455
Mn1_1 Na0_0 3.141605 1_555
Mn1_2 N1_2 1.850902 1_555
Mn1_2 N1_6 1.850902 1_455
Mn1_2 N1_4 1.852749 1_455
Mn1_2 Na0_5 3.140229 1_454
Mn1_2 Na0_7 3.141603 1_454
Mn1_2 Na0_3 3.141605 1_554
Mn1_3 N1_3 1.850902 1_555
Mn1_3 N1_7 1.850902 1_455
Mn1_3 N1_5 1.852749 1_455
Mn1_3 Na0_4 3.140229 1_455
Mn1_3 Na0_6 3.141603 1_455
Mn1_3 Na0_2 3.141605 1_555
Mn1_4 N1_4 1.850902 1_555
Mn1_4 N1_0 1.850902 1_555
Mn1_4 N1_2 1.852749 1_545
Mn1_4 Na0_3 3.140229 1_544
Mn1_4 Na0_1 3.141603 1_554
Mn1_4 Na0_5 3.141605 1_554
Mn1_5 N1_5 1.850902 1_555
Mn1_5 N1_1 1.850902 1_555
Mn1_5 N1_3 1.852749 1_545
Mn1_5 Na0_2 3.140229 1_545
Mn1_5 Na0_0 3.141603 1_555
Mn1_5 Na0_4 3.141605 1_555
Mn1_6 N1_6 1.850902 1_555
Mn1_6 N1_2 1.850902 1_555
Mn1_6 N1_0 1.852749 1_555
Mn1_6 Na0_1 3.140229 1_554
Mn1_6 Na0_3 3.141603 1_554
Mn1_6 Na0_7 3.141605 1_554
Mn1_7 N1_7 1.850902 1_555
Mn1_7 N1_3 1.850902 1_555
Mn1_7 N1_1 1.852749 1_555
Mn1_7 Na0_0 3.140229 1_555
Mn1_7 Na0_2 3.141603 1_555
Mn1_7 Na0_6 3.141605 1_555
N0_0 Na0_4 2.602204 1_455
N0_0 Na0_0 2.602204 1_555
N0_0 Na0_2 2.606159 1_555
N0_1 Na0_5 2.602204 1_455
N0_1 Na0_1 2.602204 1_555
N0_1 Na0_3 2.606159 1_555
N0_2 Na0_6 2.602204 1_455
N0_2 Na0_2 2.602204 1_555
N0_2 Na0_0 2.606159 1_565
N0_3 Na0_7 2.602204 1_455
N0_3 Na0_3 2.602204 1_555
N0_3 Na0_1 2.606159 1_565
N0_4 Na0_0 2.602204 1_555
N0_4 Na0_4 2.602204 1_555
N0_4 Na0_6 2.606159 1_555
N0_5 Na0_1 2.602204 1_555
N0_5 Na0_5 2.602204 1_555
N0_5 Na0_7 2.606159 1_555
N0_6 Na0_2 2.602204 1_555
N0_6 Na0_6 2.602204 1_555
N0_6 Na0_4 2.606159 1_565
N0_7 Na0_3 2.602204 1_555
N0_7 Na0_7 2.602204 1_555
N0_7 Na0_5 2.606159 1_565
N1_0 Na1_4 2.602204 1_555
N1_0 Na1_0 2.602204 1_555
N1_0 Na1_2 2.606159 1_545
N1_1 Na1_5 2.602204 1_555
N1_1 Na1_1 2.602204 1_555
N1_1 Na1_3 2.606159 1_545
N1_2 Na1_6 2.602204 1_555
N1_2 Na1_2 2.602204 1_555
N1_2 Na1_0 2.606159 1_555
N1_3 Na1_7 2.602204 1_555
N1_3 Na1_3 2.602204 1_555
N1_3 Na1_1 2.606159 1_555
N1_4 Na1_0 2.602204 1_655
N1_4 Na1_4 2.602204 1_555
N1_4 Na1_6 2.606159 1_545
N1_5 Na1_1 2.602204 1_655
N1_5 Na1_5 2.602204 1_555
N1_5 Na1_7 2.606159 1_545
N1_6 Na1_2 2.602204 1_655
N1_6 Na1_6 2.602204 1_555
N1_6 Na1_4 2.606159 1_555
N1_7 Na1_3 2.602204 1_655
N1_7 Na1_7 2.602204 1_555
N1_7 Na1_5 2.606159 1_555
