# generated using pymatgen
data_ZrMoN3
_symmetry_space_group_name_H-M   'P 1'
_cell_length_a   8.56858365
_cell_length_b   5.86929050
_cell_length_c   7.95089494
_cell_angle_alpha   122.28868184
_cell_angle_beta   116.28231999
_cell_angle_gamma   84.69724079
_symmetry_Int_Tables_number   1
_chemical_formula_structural   ZrMoN3
_chemical_formula_sum   'Zr4 Mo4 N12'
_cell_volume   297.55737395
_cell_formula_units_Z   4
loop_
 _symmetry_equiv_pos_site_id
 _symmetry_equiv_pos_as_xyz
  1  'x, y, z'
loop_
 _atom_site_type_symbol
 _atom_site_label
 _atom_site_symmetry_multiplicity
 _atom_site_fract_x
 _atom_site_fract_y
 _atom_site_fract_z
 _atom_site_occupancy
  Zr  Zr0  1  0.28864600  0.38177600  0.97303000  1
  Zr  Zr1  1  0.71135400  0.61822400  0.02697000  1
  Zr  Zr2  1  0.80900100  0.48005800  0.62802100  1
  Zr  Zr3  1  0.19099900  0.51994200  0.37197900  1
  Mo  Mo0  1  0.24496000  0.82047200  0.88109000  1
  Mo  Mo1  1  0.75504000  0.17952800  0.11891000  1
  Mo  Mo2  1  0.60057000  0.90025100  0.38777800  1
  Mo  Mo3  1  0.39943000  0.09974900  0.61222200  1
  N  N0  1  0.73300100  0.67602800  0.45038500  1
  N  N1  1  0.26699900  0.32397200  0.54961500  1
  N  N2  1  0.75764400  0.07508700  0.31847100  1
  N  N3  1  0.24235600  0.92491300  0.68152900  1
  N  N4  1  0.63607600  0.27392300  0.66049900  1
  N  N5  1  0.36392400  0.72607700  0.33950100  1
  N  N6  1  0.77464700  0.84376300  0.91170400  1
  N  N7  1  0.22535300  0.15623700  0.08829600  1
  N  N8  1  0.91769500  0.45614200  0.18047400  1
  N  N9  1  0.08230500  0.54385800  0.81952600  1
  N  N10  1  0.54727000  0.26098000  0.95147300  1
  N  N11  1  0.45273000  0.73902000  0.04852700  1
loop_
_geom_bond_atom_site_label_1
_geom_bond_atom_site_label_2
_geom_bond_distance
_geom_bond_site_symmetry_2
Mo0 N7 1.827928 1_566
Mo0 N11 1.895791 1_556
Mo0 N9 1.944982 1_555
Mo0 N3 1.974612 1_555
Mo1 N6 1.827928 1_544
Mo1 N10 1.895791 1_554
Mo1 N8 1.944982 1_555
Mo1 N2 1.974612 1_555
Mo2 N0 1.786336 1_555
Mo2 N4 2.015638 1_565
Mo2 N11 2.060205 1_555
Mo2 N5 2.139786 1_555
Mo2 N2 2.164334 1_565
Mo3 N1 1.786336 1_555
Mo3 N5 2.015638 1_545
Mo3 N10 2.060205 1_555
Mo3 N4 2.139786 1_555
Mo3 N3 2.164334 1_545
N0 Zr2 2.127072 1_555
N1 Zr3 2.127072 1_555
N2 Zr2 2.210198 1_555
N2 Zr1 2.337097 1_545
N3 Zr3 2.210198 1_555
N3 Zr0 2.337097 1_565
N4 Zr2 2.174844 1_555
N4 Zr1 2.296854 1_556
N5 Zr3 2.174844 1_555
N5 Zr0 2.296854 1_554
N6 Zr1 2.180675 1_556
N6 Zr2 2.249170 1_555
N7 Zr0 2.180675 1_554
N7 Zr3 2.249170 1_555
N8 Zr3 2.082774 1_655
N8 Zr1 2.130526 1_555
N9 Zr2 2.082774 1_455
N9 Zr0 2.130526 1_555
N10 Zr1 2.277351 1_556
N10 Zr0 2.314954 1_555
N10 N3 2.605170 1_545
N10 N11 2.635203 1_556
N11 Zr0 2.277351 1_554
N11 Zr1 2.314954 1_555
N11 N2 2.605170 1_565
