# generated using pymatgen
data_MgTi
_symmetry_space_group_name_H-M   'P 1'
_cell_length_a   4.85273500
_cell_length_b   5.99109800
_cell_length_c   15.98246400
_cell_angle_alpha   90.00000000
_cell_angle_beta   90.00000000
_cell_angle_gamma   90.00000000
_symmetry_Int_Tables_number   1
_chemical_formula_structural   MgTi
_chemical_formula_sum   'Mg12 Ti12'
_cell_volume   464.66154742
_cell_formula_units_Z   12
loop_
 _symmetry_equiv_pos_site_id
 _symmetry_equiv_pos_as_xyz
  1  'x, y, z'
loop_
 _atom_site_type_symbol
 _atom_site_label
 _atom_site_symmetry_multiplicity
 _atom_site_fract_x
 _atom_site_fract_y
 _atom_site_fract_z
 _atom_site_occupancy
  Mg  Mg0  1  0.25000000  0.88253800  0.86419400  1
  Mg  Mg1  1  0.25000000  0.36807200  0.86399700  1
  Mg  Mg2  1  0.75000000  0.62585700  0.80889100  1
  Mg  Mg3  1  0.25000000  0.62585700  0.69110900  1
  Mg  Mg4  1  0.75000000  0.88253800  0.63580600  1
  Mg  Mg5  1  0.75000000  0.36807200  0.63600300  1
  Mg  Mg6  1  0.25000000  0.63192800  0.36399700  1
  Mg  Mg7  1  0.25000000  0.11746200  0.36419400  1
  Mg  Mg8  1  0.75000000  0.37414300  0.30889100  1
  Mg  Mg9  1  0.25000000  0.37414300  0.19110900  1
  Mg  Mg10  1  0.75000000  0.63192800  0.13600300  1
  Mg  Mg11  1  0.75000000  0.11746200  0.13580600  1
  Ti  Ti0  1  0.75000000  0.87909800  0.97561000  1
  Ti  Ti1  1  0.75000000  0.36983300  0.97250200  1
  Ti  Ti2  1  0.75000000  0.12621900  0.80619300  1
  Ti  Ti3  1  0.25000000  0.12621900  0.69380700  1
  Ti  Ti4  1  0.25000000  0.87909800  0.52439000  1
  Ti  Ti5  1  0.25000000  0.36983300  0.52749800  1
  Ti  Ti6  1  0.75000000  0.63016700  0.47250200  1
  Ti  Ti7  1  0.75000000  0.12090200  0.47561000  1
  Ti  Ti8  1  0.75000000  0.87378100  0.30619300  1
  Ti  Ti9  1  0.25000000  0.87378100  0.19380700  1
  Ti  Ti10  1  0.25000000  0.63016700  0.02749800  1
  Ti  Ti11  1  0.25000000  0.12090200  0.02439000  1
loop_
_geom_bond_atom_site_label_1
_geom_bond_atom_site_label_2
_geom_bond_distance
_geom_bond_site_symmetry_2
Mg0 Mg1 2.908883 1_565
Mg0 Ti11 2.931661 1_566
Mg0 Ti2 2.979588 1_465
Mg0 Ti2 2.979588 1_565
Mg0 Mg2 3.005550 1_455
Mg0 Mg2 3.005550 1_555
Mg0 Ti0 3.009748 1_555
Mg0 Ti0 3.009748 1_455
Mg0 Ti10 3.016319 1_556
Mg0 Mg1 3.082218 1_555
Mg0 Ti3 3.089854 1_565
Mg0 Mg3 3.165025 1_555
Mg1 Ti11 2.960445 1_556
Mg1 Ti2 2.973257 1_555
Mg1 Ti2 2.973257 1_455
Mg1 Ti1 2.982405 1_455
Mg1 Ti1 2.982405 1_555
Mg1 Mg2 3.008016 1_455
Mg1 Mg2 3.008016 1_555
Mg1 Ti10 3.048637 1_556
Mg1 Ti3 3.081915 1_555
Mg1 Mg3 3.165495 1_555
Mg2 Ti2 2.993691 1_555
Mg2 Ti2 2.998028 1_565
Mg2 Ti1 3.031580 1_555
Mg2 Ti0 3.066245 1_555
Mg2 Mg3 3.070971 1_555
Mg2 Mg3 3.070971 1_655
Mg2 Mg4 3.165025 1_555
Mg2 Mg5 3.165495 1_555
Mg3 Ti3 2.993691 1_555
Mg3 Ti3 2.998028 1_565
Mg3 Mg4 3.005550 1_555
Mg3 Mg4 3.005550 1_455
Mg3 Mg5 3.008016 1_455
Mg3 Mg5 3.008016 1_555
Mg3 Ti5 3.031580 1_555
Mg3 Ti4 3.066245 1_555
Mg4 Mg5 2.908883 1_565
Mg4 Ti7 2.931661 1_565
Mg4 Ti3 2.979588 1_665
Mg4 Ti3 2.979588 1_565
Mg4 Ti4 3.009748 1_555
Mg4 Ti4 3.009748 1_655
Mg4 Ti6 3.016319 1_555
Mg4 Mg5 3.082218 1_555
Mg4 Ti2 3.089854 1_565
Mg5 Ti7 2.960445 1_555
Mg5 Ti3 2.973257 1_555
Mg5 Ti3 2.973257 1_655
Mg5 Ti5 2.982405 1_655
Mg5 Ti5 2.982405 1_555
Mg5 Ti6 3.048637 1_555
Mg5 Ti2 3.081915 1_555
Mg6 Mg7 2.908883 1_565
Mg6 Ti4 2.960445 1_555
Mg6 Ti8 2.973257 1_455
Mg6 Ti8 2.973257 1_555
Mg6 Ti6 2.982405 1_555
Mg6 Ti6 2.982405 1_455
Mg6 Mg8 3.008016 1_455
Mg6 Mg8 3.008016 1_555
Mg6 Ti5 3.048637 1_555
Mg6 Ti9 3.081915 1_555
Mg6 Mg7 3.082218 1_555
Mg6 Mg9 3.165495 1_555
Mg7 Ti4 2.931661 1_545
Mg7 Ti8 2.979588 1_545
Mg7 Ti8 2.979588 1_445
Mg7 Mg8 3.005550 1_455
Mg7 Mg8 3.005550 1_555
Mg7 Ti7 3.009748 1_555
Mg7 Ti7 3.009748 1_455
Mg7 Ti5 3.016319 1_555
Mg7 Ti9 3.089854 1_545
Mg7 Mg9 3.165025 1_555
Mg8 Ti8 2.993691 1_555
Mg8 Ti8 2.998028 1_545
Mg8 Ti6 3.031580 1_555
Mg8 Ti7 3.066245 1_555
Mg8 Mg9 3.070971 1_655
Mg8 Mg9 3.070971 1_555
Mg9 Ti9 2.993691 1_555
Mg9 Ti9 2.998028 1_545
Mg9 Ti10 3.031580 1_555
Mg9 Ti11 3.066245 1_555
Mg10 Mg11 2.908883 1_565
Mg10 Ti0 2.960445 1_554
Mg10 Ti9 2.973257 1_555
Mg10 Ti9 2.973257 1_655
Mg10 Ti10 2.982405 1_555
Mg10 Ti10 2.982405 1_655
Mg10 Mg9 3.008016 1_555
Mg10 Mg9 3.008016 1_655
Mg10 Ti1 3.048637 1_554
Mg10 Ti8 3.081915 1_555
Mg10 Mg11 3.082218 1_555
Mg10 Mg8 3.165495 1_555
Mg11 Ti0 2.931661 1_544
Mg11 Ti9 2.979588 1_545
Mg11 Ti9 2.979588 1_645
Mg11 Mg9 3.005550 1_555
Mg11 Mg9 3.005550 1_655
Mg11 Ti11 3.009748 1_655
Mg11 Ti11 3.009748 1_555
Mg11 Ti1 3.016319 1_554
Mg11 Ti8 3.089854 1_545
Mg11 Mg8 3.165025 1_555
Ti0 Ti11 2.931505 1_666
Ti0 Ti11 2.931505 1_566
Ti0 Ti1 2.940461 1_565
Ti0 Ti10 2.966341 1_656
Ti0 Ti10 2.966341 1_556
Ti0 Ti1 3.051461 1_555
Ti0 Ti2 3.086034 1_565
Ti1 Ti11 2.966341 1_656
Ti1 Ti11 2.966341 1_556
Ti1 Ti10 3.015373 1_656
Ti1 Ti10 3.015373 1_556
Ti1 Ti2 3.032375 1_555
Ti2 Ti3 3.018876 1_555
Ti2 Ti3 3.018876 1_655
Ti3 Ti5 3.032375 1_555
Ti3 Ti4 3.086034 1_545
Ti4 Ti7 2.931505 1_565
Ti4 Ti7 2.931505 1_465
Ti4 Ti5 2.940461 1_565
Ti4 Ti6 2.966341 1_455
Ti4 Ti6 2.966341 1_555
Ti4 Ti5 3.051461 1_555
Ti5 Ti7 2.966341 1_555
Ti5 Ti7 2.966341 1_455
Ti5 Ti6 3.015373 1_555
Ti5 Ti6 3.015373 1_455
Ti6 Ti7 2.940461 1_565
Ti6 Ti8 3.032375 1_555
Ti6 Ti7 3.051461 1_555
Ti7 Ti8 3.086034 1_545
Ti8 Ti9 3.018876 1_555
Ti8 Ti9 3.018876 1_655
Ti10 Ti11 2.940461 1_565
Ti10 Ti9 3.032375 1_555
Ti10 Ti11 3.051461 1_555
Ti11 Ti9 3.086034 1_545
