# generated using pymatgen
data_Mn10C3N
_symmetry_space_group_name_H-M   'P 1'
_cell_length_a   5.61779149
_cell_length_b   5.61779149
_cell_length_c   43.91040800
_cell_angle_alpha   90.00000000
_cell_angle_beta   90.00000000
_cell_angle_gamma   119.99999403
_symmetry_Int_Tables_number   1
_chemical_formula_structural   Mn10C3N
_chemical_formula_sum   'Mn80 C24 N8'
_cell_volume   1200.13295809
_cell_formula_units_Z   8
loop_
 _symmetry_equiv_pos_site_id
 _symmetry_equiv_pos_as_xyz
  1  'x, y, z'
loop_
 _atom_site_type_symbol
 _atom_site_label
 _atom_site_symmetry_multiplicity
 _atom_site_fract_x
 _atom_site_fract_y
 _atom_site_fract_z
 _atom_site_occupancy
  Mn  Mn0_0  1  0.33333350  0.16666650  0.47456650  1
  Mn  Mn0_1  1  0.33333350  0.16666650  0.97456650  1
  Mn  Mn0_2  1  0.33333350  0.66666650  0.47456650  1
  Mn  Mn0_3  1  0.33333350  0.66666650  0.97456650  1
  Mn  Mn0_4  1  0.83333350  0.16666650  0.47456650  1
  Mn  Mn0_5  1  0.83333350  0.16666650  0.97456650  1
  Mn  Mn0_6  1  0.83333350  0.66666650  0.47456650  1
  Mn  Mn0_7  1  0.83333350  0.66666650  0.97456650  1
  Mn  Mn1_0  1  0.33333350  0.16666650  0.37478900  1
  Mn  Mn1_1  1  0.33333350  0.16666650  0.87478900  1
  Mn  Mn1_2  1  0.33333350  0.66666650  0.37478900  1
  Mn  Mn1_3  1  0.33333350  0.66666650  0.87478900  1
  Mn  Mn1_4  1  0.83333350  0.16666650  0.37478900  1
  Mn  Mn1_5  1  0.83333350  0.16666650  0.87478900  1
  Mn  Mn1_6  1  0.83333350  0.66666650  0.37478900  1
  Mn  Mn1_7  1  0.83333350  0.66666650  0.87478900  1
  Mn  Mn2_0  1  0.33333350  0.16666650  0.27476200  1
  Mn  Mn2_1  1  0.33333350  0.16666650  0.77476200  1
  Mn  Mn2_2  1  0.33333350  0.66666650  0.27476200  1
  Mn  Mn2_3  1  0.33333350  0.66666650  0.77476200  1
  Mn  Mn2_4  1  0.83333350  0.16666650  0.27476200  1
  Mn  Mn2_5  1  0.83333350  0.16666650  0.77476200  1
  Mn  Mn2_6  1  0.83333350  0.66666650  0.27476200  1
  Mn  Mn2_7  1  0.83333350  0.66666650  0.77476200  1
  Mn  Mn3_0  1  0.33333350  0.16666650  0.17470500  1
  Mn  Mn3_1  1  0.33333350  0.16666650  0.67470500  1
  Mn  Mn3_2  1  0.33333350  0.66666650  0.17470500  1
  Mn  Mn3_3  1  0.33333350  0.66666650  0.67470500  1
  Mn  Mn3_4  1  0.83333350  0.16666650  0.17470500  1
  Mn  Mn3_5  1  0.83333350  0.16666650  0.67470500  1
  Mn  Mn3_6  1  0.83333350  0.66666650  0.17470500  1
  Mn  Mn3_7  1  0.83333350  0.66666650  0.67470500  1
  Mn  Mn4_0  1  0.33333350  0.16666650  0.07441900  1
  Mn  Mn4_1  1  0.33333350  0.16666650  0.57441900  1
  Mn  Mn4_2  1  0.33333350  0.66666650  0.07441900  1
  Mn  Mn4_3  1  0.33333350  0.66666650  0.57441900  1
  Mn  Mn4_4  1  0.83333350  0.16666650  0.07441900  1
  Mn  Mn4_5  1  0.83333350  0.16666650  0.57441900  1
  Mn  Mn4_6  1  0.83333350  0.66666650  0.07441900  1
  Mn  Mn4_7  1  0.83333350  0.66666650  0.57441900  1
  Mn  Mn5_0  1  0.16666650  0.33333350  0.42531600  1
  Mn  Mn5_1  1  0.16666650  0.33333350  0.92531600  1
  Mn  Mn5_2  1  0.16666650  0.83333350  0.42531600  1
  Mn  Mn5_3  1  0.16666650  0.83333350  0.92531600  1
  Mn  Mn5_4  1  0.66666650  0.33333350  0.42531600  1
  Mn  Mn5_5  1  0.66666650  0.33333350  0.92531600  1
  Mn  Mn5_6  1  0.66666650  0.83333350  0.42531600  1
  Mn  Mn5_7  1  0.66666650  0.83333350  0.92531600  1
  Mn  Mn6_0  1  0.16666650  0.33333350  0.32515250  1
  Mn  Mn6_1  1  0.16666650  0.33333350  0.82515250  1
  Mn  Mn6_2  1  0.16666650  0.83333350  0.32515250  1
  Mn  Mn6_3  1  0.16666650  0.83333350  0.82515250  1
  Mn  Mn6_4  1  0.66666650  0.33333350  0.32515250  1
  Mn  Mn6_5  1  0.66666650  0.33333350  0.82515250  1
  Mn  Mn6_6  1  0.66666650  0.83333350  0.32515250  1
  Mn  Mn6_7  1  0.66666650  0.83333350  0.82515250  1
  Mn  Mn7_0  1  0.16666650  0.33333350  0.22521400  1
  Mn  Mn7_1  1  0.16666650  0.33333350  0.72521400  1
  Mn  Mn7_2  1  0.16666650  0.83333350  0.22521400  1
  Mn  Mn7_3  1  0.16666650  0.83333350  0.72521400  1
  Mn  Mn7_4  1  0.66666650  0.33333350  0.22521400  1
  Mn  Mn7_5  1  0.66666650  0.33333350  0.72521400  1
  Mn  Mn7_6  1  0.66666650  0.83333350  0.22521400  1
  Mn  Mn7_7  1  0.66666650  0.83333350  0.72521400  1
  Mn  Mn8_0  1  0.16666650  0.33333350  0.12538300  1
  Mn  Mn8_1  1  0.16666650  0.33333350  0.62538300  1
  Mn  Mn8_2  1  0.16666650  0.83333350  0.12538300  1
  Mn  Mn8_3  1  0.16666650  0.83333350  0.62538300  1
  Mn  Mn8_4  1  0.66666650  0.33333350  0.12538300  1
  Mn  Mn8_5  1  0.66666650  0.33333350  0.62538300  1
  Mn  Mn8_6  1  0.66666650  0.83333350  0.12538300  1
  Mn  Mn8_7  1  0.66666650  0.83333350  0.62538300  1
  Mn  Mn9_0  1  0.16666650  0.33333350  0.02554850  1
  Mn  Mn9_1  1  0.16666650  0.33333350  0.52554850  1
  Mn  Mn9_2  1  0.16666650  0.83333350  0.02554850  1
  Mn  Mn9_3  1  0.16666650  0.83333350  0.52554850  1
  Mn  Mn9_4  1  0.66666650  0.33333350  0.02554850  1
  Mn  Mn9_5  1  0.66666650  0.33333350  0.52554850  1
  Mn  Mn9_6  1  0.66666650  0.83333350  0.02554850  1
  Mn  Mn9_7  1  0.66666650  0.83333350  0.52554850  1
  C  C0_0  1  0.00000000  0.00000000  0.39989900  1
  C  C0_1  1  0.00000000  0.00000000  0.89989900  1
  C  C0_2  1  1.00000000  0.50000000  0.39989900  1
  C  C0_3  1  1.00000000  0.50000000  0.89989900  1
  C  C0_4  1  0.50000000  0.00000000  0.39989900  1
  C  C0_5  1  0.50000000  0.00000000  0.89989900  1
  C  C0_6  1  0.50000000  0.50000000  0.39989900  1
  C  C0_7  1  0.50000000  0.50000000  0.89989900  1
  C  C1_0  1  0.00000000  0.00000000  0.30000600  1
  C  C1_1  1  0.00000000  0.00000000  0.80000600  1
  C  C1_2  1  1.00000000  0.50000000  0.30000600  1
  C  C1_3  1  1.00000000  0.50000000  0.80000600  1
  C  C1_4  1  0.50000000  0.00000000  0.30000600  1
  C  C1_5  1  0.50000000  0.00000000  0.80000600  1
  C  C1_6  1  0.50000000  0.50000000  0.30000600  1
  C  C1_7  1  0.50000000  0.50000000  0.80000600  1
  C  C2_0  1  0.00000000  0.00000000  0.20007350  1
  C  C2_1  1  0.00000000  0.00000000  0.70007350  1
  C  C2_2  1  1.00000000  0.50000000  0.20007350  1
  C  C2_3  1  1.00000000  0.50000000  0.70007350  1
  C  C2_4  1  0.50000000  0.00000000  0.20007350  1
  C  C2_5  1  0.50000000  0.00000000  0.70007350  1
  C  C2_6  1  0.50000000  0.50000000  0.20007350  1
  C  C2_7  1  0.50000000  0.50000000  0.70007350  1
  N  N0_0  1  0.00000000  0.00000000  0.10016650  1
  N  N0_1  1  0.00000000  0.00000000  0.60016650  1
  N  N0_2  1  1.00000000  0.50000000  0.10016650  1
  N  N0_3  1  1.00000000  0.50000000  0.60016650  1
  N  N0_4  1  0.50000000  0.00000000  0.10016650  1
  N  N0_5  1  0.50000000  0.00000000  0.60016650  1
  N  N0_6  1  0.50000000  0.50000000  0.10016650  1
  N  N0_7  1  0.50000000  0.50000000  0.60016650  1
loop_
_geom_bond_atom_site_label_1
_geom_bond_atom_site_label_2
_geom_bond_distance
_geom_bond_site_symmetry_2
Mn0_0 Mn5_4 2.703117 1_555
Mn0_0 Mn5_2 2.703117 1_545
Mn0_0 Mn5_0 2.703120 1_555
Mn0_0 Mn9_5 2.764321 1_555
Mn0_0 Mn9_3 2.764321 1_545
Mn0_0 Mn9_1 2.764324 1_555
Mn0_0 Mn0_2 2.808896 1_545
Mn0_0 Mn0_4 2.808896 1_555
Mn0_0 Mn0_2 2.808896 1_555
Mn0_0 Mn0_4 2.808896 1_455
Mn0_0 Mn0_6 2.808896 1_555
Mn0_0 Mn0_6 2.808896 1_445
Mn0_1 Mn5_5 2.703117 1_555
Mn0_1 Mn5_3 2.703117 1_545
Mn0_1 Mn5_1 2.703120 1_555
Mn0_1 Mn9_4 2.764321 1_556
Mn0_1 Mn9_2 2.764321 1_546
Mn0_1 Mn9_0 2.764324 1_556
Mn0_1 Mn0_3 2.808896 1_545
Mn0_1 Mn0_5 2.808896 1_555
Mn0_1 Mn0_5 2.808896 1_455
Mn0_1 Mn0_3 2.808896 1_555
Mn0_1 Mn0_7 2.808896 1_555
Mn0_1 Mn0_7 2.808896 1_445
Mn0_2 Mn5_6 2.703117 1_555
Mn0_2 Mn5_0 2.703117 1_555
Mn0_2 Mn5_2 2.703120 1_555
Mn0_2 Mn9_7 2.764321 1_555
Mn0_2 Mn9_1 2.764321 1_555
Mn0_2 Mn9_3 2.764324 1_555
Mn0_2 Mn0_6 2.808896 1_455
Mn0_2 Mn0_6 2.808896 1_555
Mn0_2 Mn0_4 2.808896 1_455
Mn0_2 Mn0_4 2.808896 1_565
Mn0_3 Mn5_1 2.703117 1_555
Mn0_3 Mn5_7 2.703117 1_555
Mn0_3 Mn5_3 2.703120 1_555
Mn0_3 Mn9_6 2.764321 1_556
Mn0_3 Mn9_0 2.764321 1_556
Mn0_3 Mn9_2 2.764324 1_556
Mn0_3 Mn0_7 2.808896 1_455
Mn0_3 Mn0_7 2.808896 1_555
Mn0_3 Mn0_5 2.808896 1_455
Mn0_3 Mn0_5 2.808896 1_565
Mn0_4 Mn5_0 2.703117 1_655
Mn0_4 Mn5_6 2.703117 1_545
Mn0_4 Mn5_4 2.703120 1_555
Mn0_4 Mn9_1 2.764321 1_655
Mn0_4 Mn9_7 2.764321 1_545
Mn0_4 Mn9_5 2.764324 1_555
Mn0_4 Mn0_6 2.808896 1_555
Mn0_4 Mn0_6 2.808896 1_545
Mn0_5 Mn5_1 2.703117 1_655
Mn0_5 Mn5_7 2.703117 1_545
Mn0_5 Mn5_5 2.703120 1_555
Mn0_5 Mn9_0 2.764321 1_656
Mn0_5 Mn9_6 2.764321 1_546
Mn0_5 Mn9_4 2.764324 1_556
Mn0_5 Mn0_7 2.808896 1_555
Mn0_5 Mn0_7 2.808896 1_545
Mn0_6 Mn5_4 2.703117 1_555
Mn0_6 Mn5_2 2.703117 1_655
Mn0_6 Mn5_6 2.703120 1_555
Mn0_6 Mn9_5 2.764321 1_555
Mn0_6 Mn9_3 2.764321 1_655
Mn0_6 Mn9_7 2.764324 1_555
Mn0_7 Mn5_5 2.703117 1_555
Mn0_7 Mn5_3 2.703117 1_655
Mn0_7 Mn5_7 2.703120 1_555
Mn0_7 Mn9_4 2.764321 1_556
Mn0_7 Mn9_2 2.764321 1_656
Mn0_7 Mn9_6 2.764324 1_556
Mn1_0 Mn6_4 2.716696 1_555
Mn1_0 Mn6_2 2.716696 1_545
Mn1_0 Mn6_0 2.716699 1_555
Mn1_1 Mn6_3 2.716696 1_545
Mn1_1 Mn6_5 2.716696 1_555
Mn1_1 Mn6_1 2.716699 1_555
Mn1_2 Mn6_0 2.716696 1_555
Mn1_2 Mn6_6 2.716696 1_555
Mn1_2 Mn6_2 2.716699 1_555
Mn1_3 Mn6_7 2.716696 1_555
Mn1_3 Mn6_1 2.716696 1_555
Mn1_3 Mn6_3 2.716699 1_555
Mn1_4 Mn6_0 2.716696 1_655
Mn1_4 Mn6_6 2.716696 1_545
Mn1_4 Mn6_4 2.716699 1_555
Mn1_5 Mn6_1 2.716696 1_655
Mn1_5 Mn6_7 2.716696 1_545
Mn1_5 Mn6_5 2.716699 1_555
Mn1_6 Mn6_4 2.716696 1_555
Mn1_6 Mn6_2 2.716696 1_655
Mn1_6 Mn6_6 2.716699 1_555
Mn1_7 Mn6_5 2.716696 1_555
Mn1_7 Mn6_3 2.716696 1_655
Mn1_7 Mn6_7 2.716699 1_555
Mn2_0 Mn7_2 2.713579 1_545
Mn2_0 Mn7_4 2.713579 1_555
Mn2_0 Mn7_0 2.713582 1_555
Mn2_1 Mn7_3 2.713579 1_545
Mn2_1 Mn7_5 2.713579 1_555
Mn2_1 Mn7_1 2.713582 1_555
Mn2_2 Mn7_0 2.713579 1_555
Mn2_2 Mn7_6 2.713579 1_555
Mn2_2 Mn7_2 2.713582 1_555
Mn2_3 Mn7_7 2.713579 1_555
Mn2_3 Mn7_1 2.713579 1_555
Mn2_3 Mn7_3 2.713582 1_555
Mn2_4 Mn7_0 2.713579 1_655
Mn2_4 Mn7_6 2.713579 1_545
Mn2_4 Mn7_4 2.713582 1_555
Mn2_5 Mn7_1 2.713579 1_655
Mn2_5 Mn7_7 2.713579 1_545
Mn2_5 Mn7_5 2.713582 1_555
Mn2_6 Mn7_4 2.713579 1_555
Mn2_6 Mn7_2 2.713579 1_655
Mn2_6 Mn7_6 2.713582 1_555
Mn2_7 Mn7_5 2.713579 1_555
Mn2_7 Mn7_3 2.713579 1_655
Mn2_7 Mn7_7 2.713582 1_555
Mn3_0 Mn8_4 2.705629 1_555
Mn3_0 Mn8_2 2.705629 1_545
Mn3_0 Mn8_0 2.705632 1_555
Mn3_1 Mn8_5 2.705629 1_555
Mn3_1 Mn8_3 2.705629 1_545
Mn3_1 Mn8_1 2.705632 1_555
Mn3_2 Mn8_0 2.705629 1_555
Mn3_2 Mn8_6 2.705629 1_555
Mn3_2 Mn8_2 2.705632 1_555
Mn3_3 Mn8_1 2.705629 1_555
Mn3_3 Mn8_7 2.705629 1_555
Mn3_3 Mn8_3 2.705632 1_555
Mn3_4 Mn8_0 2.705629 1_655
Mn3_4 Mn8_6 2.705629 1_545
Mn3_4 Mn8_4 2.705632 1_555
Mn3_5 Mn8_1 2.705629 1_655
Mn3_5 Mn8_7 2.705629 1_545
Mn3_5 Mn8_5 2.705632 1_555
Mn3_6 Mn8_4 2.705629 1_555
Mn3_6 Mn8_2 2.705629 1_655
Mn3_6 Mn8_6 2.705632 1_555
Mn3_7 Mn8_5 2.705629 1_555
Mn3_7 Mn8_3 2.705629 1_655
Mn3_7 Mn8_7 2.705632 1_555
Mn4_0 N0_4 1.976911 1_555
Mn4_0 N0_0 1.976913 1_555
Mn4_0 N0_6 1.976913 1_555
Mn4_0 Mn9_2 2.689786 1_545
Mn4_0 Mn9_4 2.689786 1_555
Mn4_0 Mn9_0 2.689789 1_555
Mn4_1 N0_5 1.976911 1_555
Mn4_1 N0_1 1.976913 1_555
Mn4_1 N0_7 1.976913 1_555
Mn4_1 Mn9_5 2.689786 1_555
Mn4_1 Mn9_3 2.689786 1_545
Mn4_1 Mn9_1 2.689789 1_555
Mn4_2 N0_6 1.976911 1_555
Mn4_2 N0_2 1.976913 1_455
Mn4_2 N0_4 1.976913 1_565
Mn4_2 Mn9_0 2.689786 1_555
Mn4_2 Mn9_6 2.689786 1_555
Mn4_2 Mn9_2 2.689789 1_555
Mn4_3 N0_7 1.976911 1_555
Mn4_3 N0_3 1.976913 1_455
Mn4_3 N0_5 1.976913 1_565
Mn4_3 Mn9_7 2.689786 1_555
Mn4_3 Mn9_1 2.689786 1_555
Mn4_3 Mn9_3 2.689789 1_555
Mn4_4 N0_0 1.976911 1_655
Mn4_4 N0_4 1.976913 1_555
Mn4_4 N0_2 1.976913 1_555
Mn4_4 Mn9_0 2.689786 1_655
Mn4_4 Mn9_6 2.689786 1_545
Mn4_4 Mn9_4 2.689789 1_555
Mn4_5 N0_1 1.976911 1_655
Mn4_5 N0_5 1.976913 1_555
Mn4_5 N0_3 1.976913 1_555
Mn4_5 Mn9_1 2.689786 1_655
Mn4_5 Mn9_7 2.689786 1_545
Mn4_5 Mn9_5 2.689789 1_555
Mn4_6 N0_2 1.976911 1_555
Mn4_6 N0_6 1.976913 1_555
Mn4_6 N0_0 1.976913 1_665
Mn4_6 Mn9_4 2.689786 1_555
Mn4_6 Mn9_2 2.689786 1_655
Mn4_6 Mn9_6 2.689789 1_555
Mn4_7 N0_3 1.976911 1_555
Mn4_7 N0_7 1.976913 1_555
Mn4_7 N0_1 1.976913 1_665
Mn4_7 Mn9_5 2.689786 1_555
Mn4_7 Mn9_3 2.689786 1_655
Mn4_7 Mn9_7 2.689789 1_555
Mn8_0 N0_2 1.963670 1_455
Mn8_0 N0_6 1.963672 1_555
Mn8_0 N0_0 1.963672 1_555
Mn8_1 N0_3 1.963670 1_455
Mn8_1 N0_7 1.963672 1_555
Mn8_1 N0_1 1.963672 1_555
Mn8_2 N0_0 1.963670 1_565
Mn8_2 N0_2 1.963672 1_455
Mn8_2 N0_4 1.963672 1_565
Mn8_3 N0_1 1.963670 1_565
Mn8_3 N0_3 1.963672 1_455
Mn8_3 N0_5 1.963672 1_565
Mn8_4 N0_6 1.963670 1_555
Mn8_4 N0_2 1.963672 1_555
Mn8_4 N0_4 1.963672 1_555
Mn8_5 N0_7 1.963670 1_555
Mn8_5 N0_3 1.963672 1_555
Mn8_5 N0_5 1.963672 1_555
Mn8_6 N0_4 1.963670 1_565
Mn8_6 N0_6 1.963672 1_555
Mn8_6 N0_0 1.963672 1_665
Mn8_7 N0_5 1.963670 1_565
Mn8_7 N0_7 1.963672 1_555
Mn8_7 N0_1 1.963672 1_665
Mn9_0 Mn9_2 2.808896 1_545
Mn9_0 Mn9_4 2.808896 1_555
Mn9_0 Mn9_4 2.808896 1_455
Mn9_0 Mn9_2 2.808896 1_555
Mn9_0 Mn9_6 2.808896 1_555
Mn9_0 Mn9_6 2.808896 1_445
Mn9_1 Mn9_3 2.808896 1_545
Mn9_1 Mn9_5 2.808896 1_455
Mn9_1 Mn9_5 2.808896 1_555
Mn9_1 Mn9_3 2.808896 1_555
Mn9_1 Mn9_7 2.808896 1_555
Mn9_1 Mn9_7 2.808896 1_445
Mn9_2 Mn9_6 2.808896 1_455
Mn9_2 Mn9_6 2.808896 1_555
Mn9_2 Mn9_4 2.808896 1_455
Mn9_2 Mn9_4 2.808896 1_565
Mn9_3 Mn9_7 2.808896 1_455
Mn9_3 Mn9_7 2.808896 1_555
Mn9_3 Mn9_5 2.808896 1_455
Mn9_3 Mn9_5 2.808896 1_565
Mn9_4 Mn9_6 2.808896 1_555
Mn9_4 Mn9_6 2.808896 1_545
Mn9_5 Mn9_7 2.808896 1_555
Mn9_5 Mn9_7 2.808896 1_545
C0_0 Mn1_4 1.961037 1_455
C0_0 Mn1_0 1.961039 1_555
C0_0 Mn1_6 1.961039 1_445
C0_0 Mn5_2 1.968648 1_545
C0_0 Mn5_0 1.968650 1_555
C0_0 Mn5_6 1.968650 1_445
C0_1 Mn1_5 1.961037 1_455
C0_1 Mn1_1 1.961039 1_555
C0_1 Mn1_7 1.961039 1_445
C0_1 Mn5_3 1.968648 1_545
C0_1 Mn5_1 1.968650 1_555
C0_1 Mn5_7 1.968650 1_445
C0_2 Mn1_6 1.961037 1_555
C0_2 Mn1_2 1.961039 1_655
C0_2 Mn1_4 1.961039 1_555
C0_2 Mn5_0 1.968648 1_655
C0_2 Mn5_4 1.968650 1_555
C0_2 Mn5_2 1.968650 1_655
C0_3 Mn1_7 1.961037 1_555
C0_3 Mn1_3 1.961039 1_655
C0_3 Mn1_5 1.961039 1_555
C0_3 Mn5_1 1.968648 1_655
C0_3 Mn5_5 1.968650 1_555
C0_3 Mn5_3 1.968650 1_655
C0_4 Mn1_0 1.961037 1_555
C0_4 Mn1_4 1.961039 1_555
C0_4 Mn1_2 1.961039 1_545
C0_4 Mn5_6 1.968648 1_545
C0_4 Mn5_4 1.968650 1_555
C0_4 Mn5_2 1.968650 1_545
C0_5 Mn1_1 1.961037 1_555
C0_5 Mn1_5 1.961039 1_555
C0_5 Mn1_3 1.961039 1_545
C0_5 Mn5_7 1.968648 1_545
C0_5 Mn5_5 1.968650 1_555
C0_5 Mn5_3 1.968650 1_545
C0_6 Mn1_2 1.961037 1_555
C0_6 Mn1_6 1.961039 1_555
C0_6 Mn1_0 1.961039 1_555
C0_6 Mn5_4 1.968648 1_555
C0_6 Mn5_6 1.968650 1_555
C0_6 Mn5_0 1.968650 1_555
C0_7 Mn1_3 1.961037 1_555
C0_7 Mn1_7 1.961039 1_555
C0_7 Mn1_1 1.961039 1_555
C0_7 Mn5_5 1.968648 1_555
C0_7 Mn5_7 1.968650 1_555
C0_7 Mn5_1 1.968650 1_555
C1_0 Mn6_2 1.961938 1_545
C1_0 Mn6_0 1.961940 1_555
C1_0 Mn6_6 1.961940 1_445
C1_0 Mn2_4 1.964351 1_455
C1_0 Mn2_0 1.964353 1_555
C1_0 Mn2_6 1.964353 1_445
C1_1 Mn6_3 1.961938 1_545
C1_1 Mn6_1 1.961940 1_555
C1_1 Mn6_7 1.961940 1_445
C1_1 Mn2_5 1.964351 1_455
C1_1 Mn2_1 1.964353 1_555
C1_1 Mn2_7 1.964353 1_445
C1_2 Mn6_0 1.961938 1_655
C1_2 Mn6_4 1.961940 1_555
C1_2 Mn6_2 1.961940 1_655
C1_2 Mn2_6 1.964351 1_555
C1_2 Mn2_4 1.964353 1_555
C1_2 Mn2_2 1.964353 1_655
C1_3 Mn6_1 1.961938 1_655
C1_3 Mn6_5 1.961940 1_555
C1_3 Mn6_3 1.961940 1_655
C1_3 Mn2_7 1.964351 1_555
C1_3 Mn2_5 1.964353 1_555
C1_3 Mn2_3 1.964353 1_655
C1_4 Mn6_6 1.961938 1_545
C1_4 Mn6_4 1.961940 1_555
C1_4 Mn6_2 1.961940 1_545
C1_4 Mn2_0 1.964351 1_555
C1_4 Mn2_4 1.964353 1_555
C1_4 Mn2_2 1.964353 1_545
C1_5 Mn6_7 1.961938 1_545
C1_5 Mn6_5 1.961940 1_555
C1_5 Mn6_3 1.961940 1_545
C1_5 Mn2_1 1.964351 1_555
C1_5 Mn2_5 1.964353 1_555
C1_5 Mn2_3 1.964353 1_545
C1_6 Mn6_4 1.961938 1_555
C1_6 Mn6_6 1.961940 1_555
C1_6 Mn6_0 1.961940 1_555
C1_6 Mn2_2 1.964351 1_555
C1_6 Mn2_6 1.964353 1_555
C1_6 Mn2_0 1.964353 1_555
C1_7 Mn6_5 1.961938 1_555
C1_7 Mn6_7 1.961940 1_555
C1_7 Mn6_1 1.961940 1_555
C1_7 Mn2_3 1.964351 1_555
C1_7 Mn2_7 1.964353 1_555
C1_7 Mn2_1 1.964353 1_555
C2_0 Mn7_2 1.961790 1_545
C2_0 Mn7_0 1.961792 1_555
C2_0 Mn7_6 1.961792 1_445
C2_0 Mn3_4 1.967441 1_455
C2_0 Mn3_0 1.967443 1_555
C2_0 Mn3_6 1.967443 1_445
C2_1 Mn7_3 1.961790 1_545
C2_1 Mn7_1 1.961792 1_555
C2_1 Mn7_7 1.961792 1_445
C2_1 Mn3_5 1.967441 1_455
C2_1 Mn3_1 1.967443 1_555
C2_1 Mn3_7 1.967443 1_445
C2_2 Mn7_0 1.961790 1_655
C2_2 Mn7_4 1.961792 1_555
C2_2 Mn7_2 1.961792 1_655
C2_2 Mn3_6 1.967441 1_555
C2_2 Mn3_2 1.967443 1_655
C2_2 Mn3_4 1.967443 1_555
C2_3 Mn7_1 1.961790 1_655
C2_3 Mn7_5 1.961792 1_555
C2_3 Mn7_3 1.961792 1_655
C2_3 Mn3_7 1.967441 1_555
C2_3 Mn3_5 1.967443 1_555
C2_3 Mn3_3 1.967443 1_655
C2_4 Mn7_6 1.961790 1_545
C2_4 Mn7_4 1.961792 1_555
C2_4 Mn7_2 1.961792 1_545
C2_4 Mn3_0 1.967441 1_555
C2_4 Mn3_4 1.967443 1_555
C2_4 Mn3_2 1.967443 1_545
C2_5 Mn7_7 1.961790 1_545
C2_5 Mn7_5 1.961792 1_555
C2_5 Mn7_3 1.961792 1_545
C2_5 Mn3_1 1.967441 1_555
C2_5 Mn3_5 1.967443 1_555
C2_5 Mn3_3 1.967443 1_545
C2_6 Mn7_4 1.961790 1_555
C2_6 Mn7_6 1.961792 1_555
C2_6 Mn7_0 1.961792 1_555
C2_6 Mn3_2 1.967441 1_555
C2_6 Mn3_6 1.967443 1_555
C2_6 Mn3_0 1.967443 1_555
C2_7 Mn7_5 1.961790 1_555
C2_7 Mn7_7 1.961792 1_555
C2_7 Mn7_1 1.961792 1_555
C2_7 Mn3_3 1.967441 1_555
C2_7 Mn3_7 1.967443 1_555
C2_7 Mn3_1 1.967443 1_555
