# generated using pymatgen
data_ZnPNO4
_symmetry_space_group_name_H-M   'P 1'
_cell_length_a   10.80017259
_cell_length_b   10.80017259
_cell_length_c   8.85229500
_cell_angle_alpha   90.00000000
_cell_angle_beta   90.00000000
_cell_angle_gamma   120.00000362
_symmetry_Int_Tables_number   1
_chemical_formula_structural   ZnPNO4
_chemical_formula_sum   'Zn8 P8 N8 O32'
_cell_volume   894.22722010
_cell_formula_units_Z   8
loop_
 _symmetry_equiv_pos_site_id
 _symmetry_equiv_pos_as_xyz
  1  'x, y, z'
loop_
 _atom_site_type_symbol
 _atom_site_label
 _atom_site_symmetry_multiplicity
 _atom_site_fract_x
 _atom_site_fract_y
 _atom_site_fract_z
 _atom_site_occupancy
  Zn  Zn0  1  0.14635700  0.32571200  0.18289700  1
  Zn  Zn1  1  0.17935500  0.85364300  0.18289700  1
  Zn  Zn2  1  0.67428800  0.82064500  0.18289700  1
  Zn  Zn3  1  0.85364300  0.67428800  0.68289700  1
  Zn  Zn4  1  0.82064500  0.14635700  0.68289700  1
  Zn  Zn5  1  0.32571200  0.17935500  0.68289700  1
  Zn  Zn6  1  0.33333300  0.66666700  0.80519700  1
  Zn  Zn7  1  0.66666700  0.33333300  0.30519700  1
  P  P0  1  0.33333300  0.66666700  0.19581400  1
  P  P1  1  0.66666700  0.33333300  0.69581400  1
  P  P2  1  0.14481300  0.32437800  0.80608500  1
  P  P3  1  0.17956500  0.85518700  0.80608500  1
  P  P4  1  0.67562200  0.82043500  0.80608500  1
  P  P5  1  0.85518700  0.67562200  0.30608500  1
  P  P6  1  0.82043500  0.14481300  0.30608500  1
  P  P7  1  0.32437800  0.17956500  0.30608500  1
  N  N0  1  0.05195300  0.51613700  0.48843000  1
  N  N1  1  0.46418400  0.94804700  0.48843000  1
  N  N2  1  0.48386300  0.53581600  0.48843000  1
  N  N3  1  0.94804700  0.48386300  0.98843000  1
  N  N4  1  0.53581600  0.05195300  0.98843000  1
  N  N5  1  0.51613700  0.46418400  0.98843000  1
  N  N6  1  0.00000000  0.00000000  0.97844900  1
  N  N7  1  0.00000000  0.00000000  0.47844900  1
  O  O0  1  0.02142900  0.21088400  0.70961900  1
  O  O1  1  0.18945500  0.97857100  0.70961900  1
  O  O2  1  0.78911600  0.81054500  0.70961900  1
  O  O3  1  0.97857100  0.78911600  0.20961900  1
  O  O4  1  0.81054500  0.02142900  0.20961900  1
  O  O5  1  0.21088400  0.18945500  0.20961900  1
  O  O6  1  0.27179500  0.29702600  0.80061200  1
  O  O7  1  0.02523100  0.72820500  0.80061200  1
  O  O8  1  0.70297400  0.97476900  0.80061200  1
  O  O9  1  0.72820500  0.70297400  0.30061200  1
  O  O10  1  0.97476900  0.27179500  0.30061200  1
  O  O11  1  0.29702600  0.02523100  0.30061200  1
  O  O12  1  0.09467900  0.31732300  0.97095200  1
  O  O13  1  0.22264400  0.90532100  0.97095200  1
  O  O14  1  0.68267700  0.77735600  0.97095200  1
  O  O15  1  0.90532100  0.68267700  0.47095200  1
  O  O16  1  0.77735600  0.09467900  0.47095200  1
  O  O17  1  0.31732300  0.22264400  0.47095200  1
  O  O18  1  0.48511200  0.76796600  0.25772300  1
  O  O19  1  0.28285400  0.51488800  0.25772300  1
  O  O20  1  0.23203400  0.71714600  0.25772300  1
  O  O21  1  0.51488800  0.23203400  0.75772300  1
  O  O22  1  0.71714600  0.48511200  0.75772300  1
  O  O23  1  0.76796600  0.28285400  0.75772300  1
  O  O24  1  0.18957900  0.47481400  0.74299100  1
  O  O25  1  0.28523500  0.81042100  0.74299100  1
  O  O26  1  0.52518600  0.71476500  0.74299100  1
  O  O27  1  0.81042100  0.52518600  0.24299100  1
  O  O28  1  0.71476500  0.18957900  0.24299100  1
  O  O29  1  0.47481400  0.28523500  0.24299100  1
  O  O30  1  0.33333300  0.66666700  0.02316600  1
  O  O31  1  0.66666700  0.33333300  0.52316600  1
loop_
_geom_bond_atom_site_label_1
_geom_bond_atom_site_label_2
_geom_bond_distance
_geom_bond_site_symmetry_2
N0 O24 2.854806 1_555
N0 O10 2.867640 1_455
N0 O20 2.905904 1_555
N0 O15 2.935221 1_455
N0 O19 3.228567 1_555
N0 O27 3.433633 1_455
N0 O31 3.618322 1_455
N0 O25 3.676931 1_555
N0 O23 3.702734 1_455
N1 O25 2.854806 1_555
N1 O11 2.867640 1_565
N1 O18 2.905904 1_555
N1 O16 2.935220 1_565
N1 O20 3.228567 1_555
N1 O28 3.433633 1_565
N1 O31 3.618322 1_565
N1 O26 3.676931 1_555
N1 O21 3.702734 1_565
N2 O26 2.854806 1_555
N2 O9 2.867640 1_555
N2 O19 2.905904 1_555
N2 O17 2.935220 1_555
N2 O18 3.228567 1_555
N2 O29 3.433633 1_555
N2 O31 3.618332 1_555
N2 O24 3.676931 1_555
N2 O22 3.702734 1_555
N3 O27 2.854806 1_556
N3 O7 2.867640 1_655
N3 O23 2.905904 1_555
N3 O12 2.935221 1_655
N3 O22 3.228567 1_555
N3 O24 3.433633 1_655
N3 O30 3.618322 1_656
N3 O28 3.676931 1_556
N3 O20 3.702734 1_656
N4 O28 2.854806 1_556
N4 O8 2.867640 1_545
N4 O21 2.905904 1_555
N4 O13 2.935220 1_545
N4 O23 3.228567 1_555
N4 O25 3.433633 1_545
N4 O30 3.618322 1_546
N4 O29 3.676931 1_556
N4 O18 3.702734 1_546
N5 O29 2.854806 1_556
N5 O6 2.867640 1_555
N5 O22 2.905904 1_555
N5 O14 2.935220 1_555
N5 O21 3.228567 1_555
N5 O26 3.433633 1_555
N5 O30 3.618332 1_556
N5 O27 3.676931 1_556
N5 O19 3.702734 1_556
N6 O5 2.983542 1_556
N6 O3 2.983542 1_446
N6 O4 2.983542 1_456
N6 O14 3.048097 1_445
N6 O12 3.048097 1_555
N6 O13 3.048098 1_545
N6 O2 3.221351 1_445
N6 O0 3.221351 1_555
N6 O1 3.221351 1_545
N6 O6 3.459658 1_555
N6 O8 3.459659 1_445
N6 O7 3.459659 1_545
N7 O2 2.983542 1_445
N7 O0 2.983542 1_555
N7 O1 2.983542 1_545
N7 O17 3.048097 1_555
N7 O15 3.048097 1_445
N7 O16 3.048098 1_455
N7 O5 3.221351 1_555
N7 O3 3.221351 1_445
N7 O4 3.221351 1_455
N7 O9 3.459658 1_445
N7 O11 3.459659 1_555
N7 O10 3.459659 1_455
O0 P2 1.540790 1_555
O0 Zn4 1.932044 1_455
O1 P3 1.540790 1_555
O1 Zn5 1.932044 1_565
O2 P4 1.540790 1_555
O2 Zn3 1.932044 1_555
O3 P5 1.540790 1_555
O3 Zn1 1.932044 1_655
O4 P6 1.540790 1_555
O4 Zn2 1.932044 1_545
O5 P7 1.540790 1_555
O5 Zn0 1.932044 1_555
O6 P2 1.541283 1_555
O6 Zn5 1.944247 1_555
O7 P3 1.541283 1_555
O7 Zn3 1.944247 1_455
O8 P4 1.541283 1_555
O8 Zn4 1.944247 1_565
O9 P5 1.541283 1_555
O9 Zn2 1.944247 1_555
O10 P6 1.541283 1_555
O10 Zn0 1.944247 1_655
O11 P7 1.541283 1_555
O11 Zn1 1.944247 1_545
O12 P2 1.545226 1_555
O12 Zn0 1.946606 1_556
O13 P3 1.545226 1_555
O13 Zn1 1.946606 1_556
O14 P4 1.545226 1_555
O14 Zn2 1.946606 1_556
O15 P5 1.545226 1_555
O15 Zn3 1.946606 1_555
O16 P6 1.545226 1_555
O16 Zn4 1.946606 1_555
O17 P7 1.545226 1_555
O17 Zn5 1.946606 1_555
O18 P0 1.546281 1_555
O18 Zn2 1.942785 1_555
O19 P0 1.546283 1_555
O19 Zn0 1.942785 1_555
O20 P0 1.546273 1_555
O20 Zn1 1.942785 1_555
O21 P1 1.546281 1_555
O21 Zn5 1.942785 1_555
O22 P1 1.546283 1_555
O22 Zn3 1.942785 1_555
O23 P1 1.546273 1_555
O23 Zn4 1.942785 1_555
O24 P2 1.549174 1_555
O24 Zn6 1.946813 1_555
O25 P3 1.549174 1_555
O25 Zn6 1.946806 1_555
O26 P4 1.549174 1_555
O26 Zn6 1.946816 1_555
O27 P5 1.549174 1_555
O27 Zn7 1.946813 1_555
O28 P6 1.549174 1_555
O28 Zn7 1.946806 1_555
O29 P7 1.549174 1_555
O29 Zn7 1.946816 1_555
O30 P0 1.528331 1_555
O30 Zn6 1.929526 1_554
O31 P1 1.528331 1_555
O31 Zn7 1.929526 1_555
