# generated using pymatgen
data_Mn3ReO6
_symmetry_space_group_name_H-M   'P 1'
_cell_length_a   5.35881325
_cell_length_b   5.45362974
_cell_length_c   7.83092141
_cell_angle_alpha   90.35407455
_cell_angle_beta   89.99630127
_cell_angle_gamma   89.48188848
_symmetry_Int_Tables_number   1
_chemical_formula_structural   Mn3ReO6
_chemical_formula_sum   'Mn6 Re2 O12'
_cell_volume   228.84481923
_cell_formula_units_Z   2
loop_
 _symmetry_equiv_pos_site_id
 _symmetry_equiv_pos_as_xyz
  1  'x, y, z'
loop_
 _atom_site_type_symbol
 _atom_site_label
 _atom_site_symmetry_multiplicity
 _atom_site_fract_x
 _atom_site_fract_y
 _atom_site_fract_z
 _atom_site_occupancy
  Mn  Mn0  1  0.49990800  0.99997300  0.50001000  1
  Mn  Mn1  1  0.99998200  0.95458400  0.75571000  1
  Mn  Mn2  1  0.99992400  0.04541300  0.24429000  1
  Mn  Mn3  1  0.00018400  0.50000500  0.99998400  1
  Mn  Mn4  1  0.49542300  0.55105300  0.25954900  1
  Mn  Mn5  1  0.50473900  0.44892000  0.74044100  1
  Re  Re0  1  0.99999400  0.49999000  0.49998900  1
  Re  Re1  1  0.50001100  0.99998500  0.00004100  1
  O  O0  1  0.15881700  0.79855600  0.42510800  1
  O  O1  1  0.65518400  0.70007200  0.92545900  1
  O  O2  1  0.84104300  0.20143300  0.57491800  1
  O  O3  1  0.34485100  0.29993700  0.07452900  1
  O  O4  1  0.30828800  0.32878900  0.44380400  1
  O  O5  1  0.80784000  0.17057900  0.94357300  1
  O  O6  1  0.69161900  0.67120300  0.55615000  1
  O  O7  1  0.19223600  0.82956400  0.05645100  1
  O  O8  1  0.62107100  0.92840700  0.23332400  1
  O  O9  1  0.12188200  0.57297800  0.73348300  1
  O  O10  1  0.37885700  0.07156000  0.76667600  1
  O  O11  1  0.87814800  0.42699900  0.26650900  1
loop_
_geom_bond_atom_site_label_1
_geom_bond_atom_site_label_2
_geom_bond_distance
_geom_bond_site_symmetry_2
Mn0 O6 2.107132 1_555
Mn0 O4 2.107222 1_565
Mn0 O10 2.217912 1_565
Mn0 O0 2.218139 1_555
Mn0 O8 2.218215 1_555
Mn0 O2 2.218464 1_565
Mn1 O2 2.131930 1_565
Mn1 O10 2.135256 1_665
Mn1 O5 2.137399 1_565
Mn1 O9 2.181530 1_655
Mn1 O7 2.660854 1_656
Mn1 O1 2.678898 1_555
Mn1 O6 2.752794 1_555
Mn1 O0 2.847883 1_655
Mn2 O0 2.131996 1_645
Mn2 O8 2.135194 1_545
Mn2 O7 2.137272 1_645
Mn2 O11 2.181229 1_555
Mn2 O5 2.660542 1_554
Mn2 O3 2.679459 1_655
Mn2 O4 2.752579 1_655
Mn2 O2 2.848128 1_555
Mn3 O7 2.123364 1_556
Mn3 O5 2.123430 1_455
Mn3 O3 2.216813 1_556
Mn3 O1 2.218248 1_455
Mn3 O9 2.225719 1_555
Mn3 O11 2.226463 1_456
Mn4 O4 2.144827 1_555
Mn4 O3 2.149753 1_555
Mn4 O11 2.154637 1_555
Mn4 O8 2.181963 1_555
Mn4 O0 2.586610 1_555
Mn4 O6 2.631247 1_555
Mn4 O7 2.731637 1_555
Mn4 O1 2.876921 1_554
Mn5 O6 2.144432 1_555
Mn5 O1 2.149608 1_555
Mn5 O9 2.155315 1_555
Mn5 O10 2.182399 1_555
Mn5 O2 2.585305 1_555
Mn5 O4 2.632020 1_555
Mn5 O5 2.731008 1_555
Mn5 O3 2.877054 1_556
O0 Re0 1.938113 1_455
O1 Re1 1.916074 1_556
O2 Re0 1.938494 1_555
O3 Re1 1.916005 1_545
O4 Re0 1.939497 1_455
O5 Re1 1.953208 1_546
O6 Re0 1.939854 1_555
O7 Re1 1.952400 1_555
O8 Re1 1.978611 1_555
O9 Re0 1.980973 1_455
O10 Re1 1.979366 1_546
O11 Re0 1.980801 1_555
