# generated using pymatgen
data_LaGdC4
_symmetry_space_group_name_H-M   'P 1'
_cell_length_a   4.22258492
_cell_length_b   4.22258492
_cell_length_c   5.44818400
_cell_angle_alpha   90.00000000
_cell_angle_beta   90.00000000
_cell_angle_gamma   99.56542106
_symmetry_Int_Tables_number   1
_chemical_formula_structural   LaGdC4
_chemical_formula_sum   'La1 Gd1 C4'
_cell_volume   95.79171967
_cell_formula_units_Z   1
loop_
 _symmetry_equiv_pos_site_id
 _symmetry_equiv_pos_as_xyz
  1  'x, y, z'
loop_
 _atom_site_type_symbol
 _atom_site_label
 _atom_site_symmetry_multiplicity
 _atom_site_fract_x
 _atom_site_fract_y
 _atom_site_fract_z
 _atom_site_occupancy
  La  La0  1  0.50000000  0.50000000  0.50000000  1
  Gd  Gd0  1  0.00000000  0.00000000  0.00000000  1
  C  C0  1  0.60108400  0.39891600  0.00000000  1
  C  C1  1  0.10040900  0.89959100  0.50000000  1
  C  C2  1  0.89959100  0.10040900  0.50000000  1
  C  C3  1  0.39891600  0.60108400  0.00000000  1
loop_
_geom_bond_atom_site_label_1
_geom_bond_atom_site_label_2
_geom_bond_distance
_geom_bond_site_symmetry_2
C0 C3 1.303729 1_555
C0 Gd0 2.572506 1_655
C0 La0 2.801001 1_554
C0 La0 2.801001 1_555
C0 Gd0 2.803316 1_555
C0 Gd0 2.803316 1_665
C1 C2 1.295023 1_465
C1 La0 2.576859 1_555
C1 Gd0 2.799991 1_565
C1 Gd0 2.799991 1_566
C1 La0 2.802307 1_455
C1 La0 2.802307 1_565
C2 La0 2.576859 1_555
C2 Gd0 2.799991 1_656
C2 Gd0 2.799991 1_655
C2 La0 2.802307 1_545
C2 La0 2.802307 1_655
C3 Gd0 2.572506 1_565
C3 La0 2.801001 1_555
C3 La0 2.801001 1_554
C3 Gd0 2.803316 1_555
C3 Gd0 2.803316 1_665
