# generated using pymatgen
data_IrC3
_symmetry_space_group_name_H-M   'P 1'
_cell_length_a   5.21395400
_cell_length_b   8.67761400
_cell_length_c   27.25758000
_cell_angle_alpha   90.00000000
_cell_angle_beta   90.00000000
_cell_angle_gamma   90.00000000
_symmetry_Int_Tables_number   1
_chemical_formula_structural   IrC3
_chemical_formula_sum   'Ir32 C96'
_cell_volume   1233.26049083
_cell_formula_units_Z   32
loop_
 _symmetry_equiv_pos_site_id
 _symmetry_equiv_pos_as_xyz
  1  'x, y, z'
loop_
 _atom_site_type_symbol
 _atom_site_label
 _atom_site_symmetry_multiplicity
 _atom_site_fract_x
 _atom_site_fract_y
 _atom_site_fract_z
 _atom_site_occupancy
  Ir  Ir0_0  1  0.12500000  0.01162000  0.08087100  1
  Ir  Ir0_1  1  0.12500000  0.01162000  0.58087100  1
  Ir  Ir0_2  1  0.12500000  0.51162000  0.08087100  1
  Ir  Ir0_3  1  0.12500000  0.51162000  0.58087100  1
  Ir  Ir0_4  1  0.62500000  0.01162000  0.08087100  1
  Ir  Ir0_5  1  0.62500000  0.01162000  0.58087100  1
  Ir  Ir0_6  1  0.62500000  0.51162000  0.08087100  1
  Ir  Ir0_7  1  0.62500000  0.51162000  0.58087100  1
  Ir  Ir1_0  1  0.37500000  0.26162000  0.16912900  1
  Ir  Ir1_1  1  0.37500000  0.26162000  0.66912900  1
  Ir  Ir1_2  1  0.37500000  0.76162000  0.16912900  1
  Ir  Ir1_3  1  0.37500000  0.76162000  0.66912900  1
  Ir  Ir1_4  1  0.87500000  0.26162000  0.16912900  1
  Ir  Ir1_5  1  0.87500000  0.26162000  0.66912900  1
  Ir  Ir1_6  1  0.87500000  0.76162000  0.16912900  1
  Ir  Ir1_7  1  0.87500000  0.76162000  0.66912900  1
  Ir  Ir2_0  1  0.12500000  0.23838000  0.33087100  1
  Ir  Ir2_1  1  0.12500000  0.23838000  0.83087100  1
  Ir  Ir2_2  1  0.12500000  0.73838000  0.33087100  1
  Ir  Ir2_3  1  0.12500000  0.73838000  0.83087100  1
  Ir  Ir2_4  1  0.62500000  0.23838000  0.33087100  1
  Ir  Ir2_5  1  0.62500000  0.23838000  0.83087100  1
  Ir  Ir2_6  1  0.62500000  0.73838000  0.33087100  1
  Ir  Ir2_7  1  0.62500000  0.73838000  0.83087100  1
  Ir  Ir3_0  1  0.37500000  0.48838000  0.41912900  1
  Ir  Ir3_1  1  0.37500000  0.48838000  0.91912900  1
  Ir  Ir3_2  1  0.37500000  0.98838000  0.41912900  1
  Ir  Ir3_3  1  0.37500000  0.98838000  0.91912900  1
  Ir  Ir3_4  1  0.87500000  0.48838000  0.41912900  1
  Ir  Ir3_5  1  0.87500000  0.48838000  0.91912900  1
  Ir  Ir3_6  1  0.87500000  0.98838000  0.41912900  1
  Ir  Ir3_7  1  0.87500000  0.98838000  0.91912900  1
  C  C0_0  1  0.12500000  0.44763600  0.15190600  1
  C  C0_1  1  0.12500000  0.44763600  0.65190600  1
  C  C0_2  1  0.12500000  0.94763600  0.15190600  1
  C  C0_3  1  0.12500000  0.94763600  0.65190600  1
  C  C0_4  1  0.62500000  0.44763600  0.15190600  1
  C  C0_5  1  0.62500000  0.44763600  0.65190600  1
  C  C0_6  1  0.62500000  0.94763600  0.15190600  1
  C  C0_7  1  0.62500000  0.94763600  0.65190600  1
  C  C1_0  1  0.37500000  0.19763600  0.09809400  1
  C  C1_1  1  0.37500000  0.19763600  0.59809400  1
  C  C1_2  1  0.37500000  0.69763600  0.09809400  1
  C  C1_3  1  0.37500000  0.69763600  0.59809400  1
  C  C1_4  1  0.87500000  0.19763600  0.09809400  1
  C  C1_5  1  0.87500000  0.19763600  0.59809400  1
  C  C1_6  1  0.87500000  0.69763600  0.09809400  1
  C  C1_7  1  0.87500000  0.69763600  0.59809400  1
  C  C2_0  1  0.12500000  0.30236400  0.40190600  1
  C  C2_1  1  0.12500000  0.30236400  0.90190600  1
  C  C2_2  1  0.12500000  0.80236400  0.40190600  1
  C  C2_3  1  0.12500000  0.80236400  0.90190600  1
  C  C2_4  1  0.62500000  0.30236400  0.40190600  1
  C  C2_5  1  0.62500000  0.30236400  0.90190600  1
  C  C2_6  1  0.62500000  0.80236400  0.40190600  1
  C  C2_7  1  0.62500000  0.80236400  0.90190600  1
  C  C3_0  1  0.37500000  0.05236400  0.34809400  1
  C  C3_1  1  0.37500000  0.05236400  0.84809400  1
  C  C3_2  1  0.37500000  0.55236400  0.34809400  1
  C  C3_3  1  0.37500000  0.55236400  0.84809400  1
  C  C3_4  1  0.87500000  0.05236400  0.34809400  1
  C  C3_5  1  0.87500000  0.05236400  0.84809400  1
  C  C3_6  1  0.87500000  0.55236400  0.34809400  1
  C  C3_7  1  0.87500000  0.55236400  0.84809400  1
  C  C4_0  1  0.12500000  0.23325500  0.48871300  1
  C  C4_1  1  0.12500000  0.23325500  0.98871300  1
  C  C4_2  1  0.12500000  0.73325500  0.48871300  1
  C  C4_3  1  0.12500000  0.73325500  0.98871300  1
  C  C4_4  1  0.62500000  0.23325500  0.48871300  1
  C  C4_5  1  0.62500000  0.23325500  0.98871300  1
  C  C4_6  1  0.62500000  0.73325500  0.48871300  1
  C  C4_7  1  0.62500000  0.73325500  0.98871300  1
  C  C5_0  1  0.37500000  0.48325500  0.26128700  1
  C  C5_1  1  0.37500000  0.48325500  0.76128700  1
  C  C5_2  1  0.37500000  0.98325500  0.26128700  1
  C  C5_3  1  0.37500000  0.98325500  0.76128700  1
  C  C5_4  1  0.87500000  0.48325500  0.26128700  1
  C  C5_5  1  0.87500000  0.48325500  0.76128700  1
  C  C5_6  1  0.87500000  0.98325500  0.26128700  1
  C  C5_7  1  0.87500000  0.98325500  0.76128700  1
  C  C6_0  1  0.12500000  0.01674500  0.23871300  1
  C  C6_1  1  0.12500000  0.01674500  0.73871300  1
  C  C6_2  1  0.12500000  0.51674500  0.23871300  1
  C  C6_3  1  0.12500000  0.51674500  0.73871300  1
  C  C6_4  1  0.62500000  0.01674500  0.23871300  1
  C  C6_5  1  0.62500000  0.01674500  0.73871300  1
  C  C6_6  1  0.62500000  0.51674500  0.23871300  1
  C  C6_7  1  0.62500000  0.51674500  0.73871300  1
  C  C7_0  1  0.37500000  0.26674500  0.01128700  1
  C  C7_1  1  0.37500000  0.26674500  0.51128700  1
  C  C7_2  1  0.37500000  0.76674500  0.01128700  1
  C  C7_3  1  0.37500000  0.76674500  0.51128700  1
  C  C7_4  1  0.87500000  0.26674500  0.01128700  1
  C  C7_5  1  0.87500000  0.26674500  0.51128700  1
  C  C7_6  1  0.87500000  0.76674500  0.01128700  1
  C  C7_7  1  0.87500000  0.76674500  0.51128700  1
  C  C8_0  1  0.12500000  0.07676600  0.18692850  1
  C  C8_1  1  0.12500000  0.07676600  0.68692850  1
  C  C8_2  1  0.12500000  0.57676600  0.18692850  1
  C  C8_3  1  0.12500000  0.57676600  0.68692850  1
  C  C8_4  1  0.62500000  0.07676600  0.18692850  1
  C  C8_5  1  0.62500000  0.07676600  0.68692850  1
  C  C8_6  1  0.62500000  0.57676600  0.18692850  1
  C  C8_7  1  0.62500000  0.57676600  0.68692850  1
  C  C9_0  1  0.37500000  0.32676600  0.06307150  1
  C  C9_1  1  0.37500000  0.32676600  0.56307150  1
  C  C9_2  1  0.37500000  0.82676600  0.06307150  1
  C  C9_3  1  0.37500000  0.82676600  0.56307150  1
  C  C9_4  1  0.87500000  0.32676600  0.06307150  1
  C  C9_5  1  0.87500000  0.32676600  0.56307150  1
  C  C9_6  1  0.87500000  0.82676600  0.06307150  1
  C  C9_7  1  0.87500000  0.82676600  0.56307150  1
  C  C10_0  1  0.12500000  0.17323400  0.43692850  1
  C  C10_1  1  0.12500000  0.17323400  0.93692850  1
  C  C10_2  1  0.12500000  0.67323400  0.43692850  1
  C  C10_3  1  0.12500000  0.67323400  0.93692850  1
  C  C10_4  1  0.62500000  0.17323400  0.43692850  1
  C  C10_5  1  0.62500000  0.17323400  0.93692850  1
  C  C10_6  1  0.62500000  0.67323400  0.43692850  1
  C  C10_7  1  0.62500000  0.67323400  0.93692850  1
  C  C11_0  1  0.37500000  0.42323400  0.31307150  1
  C  C11_1  1  0.37500000  0.42323400  0.81307150  1
  C  C11_2  1  0.37500000  0.92323400  0.31307150  1
  C  C11_3  1  0.37500000  0.92323400  0.81307150  1
  C  C11_4  1  0.87500000  0.42323400  0.31307150  1
  C  C11_5  1  0.87500000  0.42323400  0.81307150  1
  C  C11_6  1  0.87500000  0.92323400  0.31307150  1
  C  C11_7  1  0.87500000  0.92323400  0.81307150  1
loop_
_geom_bond_atom_site_label_1
_geom_bond_atom_site_label_2
_geom_bond_distance
_geom_bond_site_symmetry_2
Ir0_0 Ir0_4 2.606977 1_555
Ir0_0 Ir0_4 2.606977 1_455
Ir0_1 Ir0_5 2.606977 1_555
Ir0_1 Ir0_5 2.606977 1_455
Ir0_2 Ir0_6 2.606977 1_455
Ir0_2 Ir0_6 2.606977 1_555
Ir0_3 Ir0_7 2.606977 1_555
Ir0_3 Ir0_7 2.606977 1_455
Ir1_0 Ir1_4 2.606977 1_555
Ir1_0 Ir1_4 2.606977 1_455
Ir1_1 Ir1_5 2.606977 1_555
Ir1_1 Ir1_5 2.606977 1_455
Ir1_2 Ir1_6 2.606977 1_555
Ir1_2 Ir1_6 2.606977 1_455
Ir1_3 Ir1_7 2.606977 1_555
Ir1_3 Ir1_7 2.606977 1_455
Ir2_0 Ir2_4 2.606977 1_455
Ir2_0 Ir2_4 2.606977 1_555
Ir2_1 Ir2_5 2.606977 1_455
Ir2_1 Ir2_5 2.606977 1_555
Ir2_2 Ir2_6 2.606977 1_455
Ir2_2 Ir2_6 2.606977 1_555
Ir2_3 Ir2_7 2.606977 1_555
Ir2_3 Ir2_7 2.606977 1_455
Ir3_0 Ir3_4 2.606977 1_555
Ir3_0 Ir3_4 2.606977 1_455
Ir3_1 Ir3_5 2.606977 1_555
Ir3_1 Ir3_5 2.606977 1_455
Ir3_2 Ir3_6 2.606977 1_555
Ir3_2 Ir3_6 2.606977 1_455
Ir3_3 Ir3_7 2.606977 1_555
Ir3_3 Ir3_7 2.606977 1_455
C0_0 C8_2 1.472048 1_555
C0_0 Ir0_2 2.014277 1_555
C0_0 Ir1_0 2.127213 1_555
C0_0 Ir1_4 2.127213 1_455
C0_1 C8_3 1.472048 1_555
C0_1 Ir0_3 2.014277 1_555
C0_1 Ir1_1 2.127213 1_555
C0_1 Ir1_5 2.127213 1_455
C0_2 C8_0 1.472048 1_565
C0_2 Ir0_0 2.014277 1_565
C0_2 Ir1_2 2.127213 1_555
C0_2 Ir1_6 2.127213 1_455
C0_3 C8_1 1.472048 1_565
C0_3 Ir0_1 2.014277 1_565
C0_3 Ir1_3 2.127213 1_555
C0_3 Ir1_7 2.127213 1_455
C0_4 C8_6 1.472048 1_555
C0_4 Ir0_6 2.014277 1_555
C0_4 Ir1_4 2.127213 1_555
C0_4 Ir1_0 2.127213 1_555
C0_5 C8_7 1.472048 1_555
C0_5 Ir0_7 2.014277 1_555
C0_5 Ir1_5 2.127213 1_555
C0_5 Ir1_1 2.127213 1_555
C0_6 C8_4 1.472048 1_565
C0_6 Ir0_4 2.014277 1_565
C0_6 Ir1_6 2.127213 1_555
C0_6 Ir1_2 2.127213 1_555
C0_7 C8_5 1.472048 1_565
C0_7 Ir0_5 2.014277 1_565
C0_7 Ir1_7 2.127213 1_555
C0_7 Ir1_3 2.127213 1_555
C1_0 C9_0 1.472048 1_555
C1_0 Ir1_0 2.014277 1_555
C1_0 Ir0_0 2.127213 1_555
C1_0 Ir0_4 2.127213 1_555
C1_1 C9_1 1.472048 1_555
C1_1 Ir1_1 2.014277 1_555
C1_1 Ir0_1 2.127213 1_555
C1_1 Ir0_5 2.127213 1_555
C1_2 C9_2 1.472048 1_555
C1_2 Ir1_2 2.014277 1_555
C1_2 Ir0_6 2.127213 1_555
C1_2 Ir0_2 2.127213 1_555
C1_3 C9_3 1.472048 1_555
C1_3 Ir1_3 2.014277 1_555
C1_3 Ir0_3 2.127213 1_555
C1_3 Ir0_7 2.127213 1_555
C1_4 C9_4 1.472048 1_555
C1_4 Ir1_4 2.014277 1_555
C1_4 Ir0_4 2.127213 1_555
C1_4 Ir0_0 2.127213 1_655
C1_5 C9_5 1.472048 1_555
C1_5 Ir1_5 2.014277 1_555
C1_5 Ir0_5 2.127213 1_555
C1_5 Ir0_1 2.127213 1_655
C1_6 C9_6 1.472048 1_555
C1_6 Ir1_6 2.014277 1_555
C1_6 Ir0_6 2.127213 1_555
C1_6 Ir0_2 2.127213 1_655
C1_7 C9_7 1.472048 1_555
C1_7 Ir1_7 2.014277 1_555
C1_7 Ir0_7 2.127213 1_555
C1_7 Ir0_3 2.127213 1_655
C2_0 Ir2_0 2.014277 1_555
C2_0 Ir3_0 2.127213 1_555
C2_0 Ir3_4 2.127213 1_455
C2_1 Ir2_1 2.014277 1_555
C2_1 Ir3_1 2.127213 1_555
C2_1 Ir3_5 2.127213 1_455
C2_2 Ir2_2 2.014277 1_555
C2_2 Ir3_2 2.127213 1_555
C2_2 Ir3_6 2.127213 1_455
C2_3 Ir2_3 2.014277 1_555
C2_3 Ir3_3 2.127213 1_555
C2_3 Ir3_7 2.127213 1_455
C2_4 Ir2_4 2.014277 1_555
C2_4 Ir3_4 2.127213 1_555
C2_4 Ir3_0 2.127213 1_555
C2_5 Ir2_5 2.014277 1_555
C2_5 Ir3_5 2.127213 1_555
C2_5 Ir3_1 2.127213 1_555
C2_6 Ir2_6 2.014277 1_555
C2_6 Ir3_6 2.127213 1_555
C2_6 Ir3_2 2.127213 1_555
C2_7 Ir2_7 2.014277 1_555
C2_7 Ir3_7 2.127213 1_555
C2_7 Ir3_3 2.127213 1_555
C3_0 Ir3_2 2.014277 1_545
C3_0 Ir2_0 2.127213 1_555
C3_0 Ir2_4 2.127213 1_555
C3_1 Ir3_3 2.014277 1_545
C3_1 Ir2_1 2.127213 1_555
C3_1 Ir2_5 2.127213 1_555
C3_2 Ir3_0 2.014277 1_555
C3_2 Ir2_2 2.127213 1_555
C3_2 Ir2_6 2.127213 1_555
C3_3 Ir3_1 2.014277 1_555
C3_3 Ir2_7 2.127213 1_555
C3_3 Ir2_3 2.127213 1_555
C3_4 Ir3_6 2.014277 1_545
C3_4 Ir2_4 2.127213 1_555
C3_4 Ir2_0 2.127213 1_655
C3_5 Ir3_7 2.014277 1_545
C3_5 Ir2_5 2.127213 1_555
C3_5 Ir2_1 2.127213 1_655
C3_6 Ir3_4 2.014277 1_555
C3_6 Ir2_6 2.127213 1_555
C3_6 Ir2_2 2.127213 1_655
C3_7 Ir3_5 2.014277 1_555
C3_7 Ir2_7 2.127213 1_555
C3_7 Ir2_3 2.127213 1_655
C4_0 C7_1 1.470424 1_555
C4_0 C7_5 1.470424 1_455
C4_1 C7_0 1.470424 1_556
C4_1 C7_4 1.470424 1_456
C4_2 C7_3 1.470424 1_555
C4_2 C7_7 1.470424 1_455
C4_3 C7_2 1.470424 1_556
C4_3 C7_6 1.470424 1_456
C4_4 C7_5 1.470424 1_555
C4_4 C7_1 1.470424 1_555
C4_5 C7_4 1.470424 1_556
C4_5 C7_0 1.470424 1_556
C4_6 C7_7 1.470424 1_555
C4_6 C7_3 1.470424 1_555
C4_7 C7_6 1.470424 1_556
C4_7 C7_2 1.470424 1_556
C5_0 C6_2 1.470424 1_555
C5_0 C6_6 1.470424 1_555
C5_1 C6_3 1.470424 1_555
C5_1 C6_7 1.470424 1_555
C5_2 C6_0 1.470424 1_565
C5_2 C6_4 1.470424 1_565
C5_3 C6_1 1.470424 1_565
C5_3 C6_5 1.470424 1_565
C5_4 C6_6 1.470424 1_555
C5_4 C6_2 1.470424 1_655
C5_5 C6_7 1.470424 1_555
C5_5 C6_3 1.470424 1_655
C5_6 C6_4 1.470424 1_565
C5_6 C6_0 1.470424 1_665
C5_7 C6_5 1.470424 1_565
C5_7 C6_1 1.470424 1_665
C6_0 C8_0 1.504547 1_555
C6_1 C8_1 1.504547 1_555
C6_2 C8_2 1.504547 1_555
C6_3 C8_3 1.504547 1_555
C6_4 C8_4 1.504547 1_555
C6_5 C8_5 1.504547 1_555
C6_6 C8_6 1.504547 1_555
C6_7 C8_7 1.504547 1_555
C7_0 C9_0 1.504547 1_555
C7_1 C9_1 1.504547 1_555
C7_2 C9_2 1.504547 1_555
C7_3 C9_3 1.504547 1_555
C7_4 C9_4 1.504547 1_555
C7_5 C9_5 1.504547 1_555
C7_6 C9_6 1.504547 1_555
C7_7 C9_7 1.504547 1_555
C8_0 Ir1_0 2.123107 1_555
C8_0 Ir1_4 2.123107 1_455
C8_1 Ir1_1 2.123107 1_555
C8_1 Ir1_5 2.123107 1_455
C8_2 Ir1_2 2.123107 1_555
C8_2 Ir1_6 2.123107 1_455
C8_3 Ir1_3 2.123107 1_555
C8_3 Ir1_7 2.123107 1_455
C8_4 Ir1_4 2.123107 1_555
C8_4 Ir1_0 2.123107 1_555
C8_5 Ir1_5 2.123107 1_555
C8_5 Ir1_1 2.123107 1_555
C8_6 Ir1_6 2.123107 1_555
C8_6 Ir1_2 2.123107 1_555
C8_7 Ir1_7 2.123107 1_555
C8_7 Ir1_3 2.123107 1_555
C9_0 Ir0_6 2.123107 1_555
C9_0 Ir0_2 2.123107 1_555
C9_1 Ir0_3 2.123107 1_555
C9_1 Ir0_7 2.123107 1_555
C9_2 Ir0_0 2.123107 1_565
C9_2 Ir0_4 2.123107 1_565
C9_3 Ir0_5 2.123107 1_565
C9_3 Ir0_1 2.123107 1_565
C9_4 Ir0_6 2.123107 1_555
C9_4 Ir0_2 2.123107 1_655
C9_5 Ir0_7 2.123107 1_555
C9_5 Ir0_3 2.123107 1_655
C9_6 Ir0_4 2.123107 1_565
C9_6 Ir0_0 2.123107 1_665
C9_7 Ir0_5 2.123107 1_565
C9_7 Ir0_1 2.123107 1_665
C10_0 C2_0 1.472048 1_555
C10_0 C4_0 1.504547 1_555
C10_0 Ir3_2 2.123107 1_545
C10_0 Ir3_6 2.123107 1_445
C10_1 C2_1 1.472048 1_555
C10_1 C4_1 1.504547 1_555
C10_1 Ir3_3 2.123107 1_545
C10_1 Ir3_7 2.123107 1_445
C10_2 C2_2 1.472048 1_555
C10_2 C4_2 1.504547 1_555
C10_2 Ir3_0 2.123107 1_555
C10_2 Ir3_4 2.123107 1_455
C10_3 C2_3 1.472048 1_555
C10_3 C4_3 1.504547 1_555
C10_3 Ir3_1 2.123107 1_555
C10_3 Ir3_5 2.123107 1_455
C10_4 C2_4 1.472048 1_555
C10_4 C4_4 1.504547 1_555
C10_4 Ir3_6 2.123107 1_545
C10_4 Ir3_2 2.123107 1_545
C10_5 C2_5 1.472048 1_555
C10_5 C4_5 1.504547 1_555
C10_5 Ir3_7 2.123107 1_545
C10_5 Ir3_3 2.123107 1_545
C10_6 C2_6 1.472048 1_555
C10_6 C4_6 1.504547 1_555
C10_6 Ir3_4 2.123107 1_555
C10_6 Ir3_0 2.123107 1_555
C10_7 C2_7 1.472048 1_555
C10_7 C4_7 1.504547 1_555
C10_7 Ir3_5 2.123107 1_555
C10_7 Ir3_1 2.123107 1_555
C11_0 C3_2 1.472048 1_555
C11_0 C5_0 1.504547 1_555
C11_0 Ir2_0 2.123107 1_555
C11_0 Ir2_4 2.123107 1_555
C11_1 C3_3 1.472048 1_555
C11_1 C5_1 1.504547 1_555
C11_1 Ir2_1 2.123107 1_555
C11_1 Ir2_5 2.123107 1_555
C11_2 C3_0 1.472048 1_565
C11_2 C5_2 1.504547 1_555
C11_2 Ir2_2 2.123107 1_555
C11_2 Ir2_6 2.123107 1_555
C11_3 C3_1 1.472048 1_565
C11_3 C5_3 1.504547 1_555
C11_3 Ir2_3 2.123107 1_555
C11_3 Ir2_7 2.123107 1_555
C11_4 C3_6 1.472048 1_555
C11_4 C5_4 1.504547 1_555
C11_4 Ir2_4 2.123107 1_555
C11_4 Ir2_0 2.123107 1_655
C11_5 C3_7 1.472048 1_555
C11_5 C5_5 1.504547 1_555
C11_5 Ir2_5 2.123107 1_555
C11_5 Ir2_1 2.123107 1_655
C11_6 C3_4 1.472048 1_565
C11_6 C5_6 1.504547 1_555
C11_6 Ir2_6 2.123107 1_555
C11_6 Ir2_2 2.123107 1_655
C11_7 C3_5 1.472048 1_565
C11_7 C5_7 1.504547 1_555
C11_7 Ir2_7 2.123107 1_555
C11_7 Ir2_3 2.123107 1_655
