# generated using pymatgen
data_Li9Mn2Co5O16
_symmetry_space_group_name_H-M   'P 1'
_cell_length_a   6.56235900
_cell_length_b   6.64220127
_cell_length_c   7.77656814
_cell_angle_alpha   74.67246882
_cell_angle_beta   65.25343154
_cell_angle_gamma   71.25291159
_symmetry_Int_Tables_number   1
_chemical_formula_structural   Li9Mn2Co5O16
_chemical_formula_sum   'Li9 Mn2 Co5 O16'
_cell_volume   288.16931908
_cell_formula_units_Z   1
loop_
 _symmetry_equiv_pos_site_id
 _symmetry_equiv_pos_as_xyz
  1  'x, y, z'
loop_
 _atom_site_type_symbol
 _atom_site_label
 _atom_site_symmetry_multiplicity
 _atom_site_fract_x
 _atom_site_fract_y
 _atom_site_fract_z
 _atom_site_occupancy
  Li  Li0  1  0.07545100  0.43327900  0.79847400  1
  Li  Li1  1  0.68477500  0.81404700  0.93713200  1
  Li  Li2  1  0.31332400  0.19364000  0.06588800  1
  Li  Li3  1  0.92281200  0.56508200  0.20297800  1
  Li  Li4  1  0.18831800  0.31707900  0.44213300  1
  Li  Li5  1  0.81204500  0.68544200  0.55928300  1
  Li  Li6  1  0.44112300  0.06341500  0.67975900  1
  Li  Li7  1  0.56130900  0.93069300  0.31396000  1
  Li  Li8  1  0.49623400  0.50331900  0.50236300  1
  Mn  Mn0  1  0.00257300  0.00023800  0.99689200  1
  Mn  Mn1  1  0.37326600  0.62321600  0.87519200  1
  Co  Co0  1  0.74801600  0.25906200  0.73865300  1
  Co  Co1  1  0.12856800  0.86810400  0.62030700  1
  Co  Co2  1  0.87555600  0.12648900  0.37663900  1
  Co  Co3  1  0.25915700  0.73924300  0.25770500  1
  Co  Co4  1  0.62413300  0.37341300  0.13390100  1
  O  O0  1  0.08398100  0.14458800  0.73601100  1
  O  O1  1  0.69164300  0.52916400  0.85603700  1
  O  O2  1  0.32588000  0.89259400  0.96750500  1
  O  O3  1  0.96634500  0.25902900  0.08969600  1
  O  O4  1  0.20634300  0.02358000  0.34773000  1
  O  O5  1  0.84380100  0.38896800  0.48036200  1
  O  O6  1  0.44432900  0.77776200  0.61567900  1
  O  O7  1  0.57900300  0.65523400  0.21403300  1
  O  O8  1  0.04586900  0.73135700  0.90901400  1
  O  O9  1  0.68368100  0.09826900  0.01705800  1
  O  O10  1  0.29109700  0.48058000  0.14275000  1
  O  O11  1  0.92442900  0.85464500  0.26191000  1
  O  O12  1  0.14972500  0.60995900  0.52736700  1
  O  O13  1  0.79435600  0.97703900  0.65323300  1
  O  O14  1  0.40812900  0.36456400  0.79327100  1
  O  O15  1  0.55473000  0.21690700  0.38708400  1
loop_
_geom_bond_atom_site_label_1
_geom_bond_atom_site_label_2
_geom_bond_distance
_geom_bond_site_symmetry_2
Li0 O12 2.063725 1_555
Li0 O14 2.066744 1_555
Li0 O0 2.077674 1_555
Li0 O3 2.184148 1_456
Li0 O1 2.263952 1_455
Li0 O8 2.282461 1_555
Li1 O7 2.061512 1_556
Li1 O13 2.114481 1_555
Li1 O1 2.128994 1_555
Li1 O9 2.135015 1_566
Li1 O2 2.164377 1_555
Li1 O8 2.181222 1_655
Li2 O14 2.061022 1_554
Li2 O10 2.088453 1_555
Li2 O3 2.112233 1_455
Li2 O4 2.117845 1_555
Li2 O9 2.194831 1_555
Li2 O2 2.289255 1_544
Li3 O11 2.095840 1_555
Li3 O5 2.099944 1_555
Li3 O7 2.110166 1_555
Li3 O10 2.166741 1_655
Li3 O8 2.188788 1_654
Li3 O3 2.313654 1_555
Li4 O5 2.060636 1_455
Li4 O12 2.124241 1_555
Li4 O15 2.160588 1_555
Li4 O0 2.194149 1_555
Li4 O10 2.207753 1_555
Li4 O4 2.211133 1_555
Li5 O12 2.028473 1_655
Li5 O5 2.136841 1_555
Li5 O6 2.167108 1_555
Li5 O1 2.182111 1_555
Li5 O13 2.198005 1_555
Li5 O11 2.210372 1_555
Li6 O6 2.077062 1_545
Li6 O0 2.104534 1_555
Li6 O13 2.133640 1_545
Li6 O15 2.148642 1_555
Li6 O2 2.158475 1_545
Li6 O14 2.307023 1_555
Li7 O15 2.106560 1_565
Li7 O7 2.122393 1_555
Li7 O4 2.127322 1_565
Li7 O11 2.150392 1_555
Li7 O6 2.204466 1_555
Li7 O9 2.208692 1_565
Li8 O12 2.092261 1_555
Li8 O6 2.101040 1_555
Li8 O5 2.106401 1_555
Li8 O14 2.108727 1_555
Li8 O7 2.115960 1_555
Li8 O15 2.171240 1_555
Mn0 O0 1.927190 1_555
Mn0 O9 1.931646 1_456
Mn0 O2 1.941710 1_545
Mn0 O3 1.944646 1_456
Mn0 O11 1.955989 1_446
Mn0 O8 1.973304 1_545
Mn1 O14 1.900983 1_555
Mn1 O1 1.930626 1_555
Mn1 O6 1.941287 1_555
Mn1 O8 1.958561 1_555
Mn1 O10 1.965836 1_556
Mn1 O2 1.986967 1_555
Co0 O5 1.884012 1_555
Co0 O14 2.001488 1_555
Co0 O13 2.040928 1_545
Co0 O9 2.075672 1_556
Co0 O0 2.081384 1_655
Co0 O1 2.084540 1_555
Co1 O6 1.950605 1_555
Co1 O12 1.974795 1_555
Co1 O13 2.001762 1_455
Co1 O4 2.023836 1_565
Co1 O8 2.092577 1_555
Co1 O0 2.139063 1_565
Co2 O15 1.967169 1_555
Co2 O4 1.987162 1_655
Co2 O5 2.025543 1_555
Co2 O13 2.036553 1_545
Co2 O3 2.072397 1_555
Co2 O11 2.097404 1_545
Co3 O7 1.892836 1_555
Co3 O12 1.958134 1_555
Co3 O10 2.053915 1_555
Co3 O4 2.062102 1_565
Co3 O11 2.069911 1_455
Co3 O2 2.136899 1_554
Co4 O15 1.906869 1_555
Co4 O7 2.021364 1_555
Co4 O3 2.033149 1_555
Co4 O10 2.046426 1_555
Co4 O1 2.060831 1_554
Co4 O9 2.107106 1_555
