# generated using pymatgen
data_Sm2BiO2
_symmetry_space_group_name_H-M   'P 1'
_cell_length_a   14.86535392
_cell_length_b   14.86535392
_cell_length_c   14.86535392
_cell_angle_alpha   149.15711109
_cell_angle_beta   149.15711109
_cell_angle_gamma   44.18009783
_symmetry_Int_Tables_number   1
_chemical_formula_structural   Sm2BiO2
_chemical_formula_sum   'Sm16 Bi8 O16'
_cell_volume   860.92875842
_cell_formula_units_Z   8
loop_
 _symmetry_equiv_pos_site_id
 _symmetry_equiv_pos_as_xyz
  1  'x, y, z'
loop_
 _atom_site_type_symbol
 _atom_site_label
 _atom_site_symmetry_multiplicity
 _atom_site_fract_x
 _atom_site_fract_y
 _atom_site_fract_z
 _atom_site_occupancy
  Sm  Sm0_0  1  0.33313645  0.33313645  0.00000000  1
  Sm  Sm0_1  1  0.33313645  0.33313645  0.50000000  1
  Sm  Sm0_2  1  0.33313645  0.83313645  0.00000000  1
  Sm  Sm0_3  1  0.33313645  0.83313645  0.50000000  1
  Sm  Sm0_4  1  0.83313645  0.33313645  0.00000000  1
  Sm  Sm0_5  1  0.83313645  0.33313645  0.50000000  1
  Sm  Sm0_6  1  0.83313645  0.83313645  0.00000000  1
  Sm  Sm0_7  1  0.83313645  0.83313645  0.50000000  1
  Sm  Sm1_0  1  0.16686355  0.16686355  0.00000000  1
  Sm  Sm1_1  1  0.16686355  0.16686355  0.50000000  1
  Sm  Sm1_2  1  0.16686355  0.66686355  0.00000000  1
  Sm  Sm1_3  1  0.16686355  0.66686355  0.50000000  1
  Sm  Sm1_4  1  0.66686355  0.16686355  0.00000000  1
  Sm  Sm1_5  1  0.66686355  0.16686355  0.50000000  1
  Sm  Sm1_6  1  0.66686355  0.66686355  0.00000000  1
  Sm  Sm1_7  1  0.66686355  0.66686355  0.50000000  1
  Bi  Bi0_0  1  0.00000000  0.00000000  0.00000000  1
  Bi  Bi0_1  1  0.00000000  0.00000000  0.50000000  1
  Bi  Bi0_2  1  0.00000000  0.50000000  0.00000000  1
  Bi  Bi0_3  1  0.00000000  0.50000000  0.50000000  1
  Bi  Bi0_4  1  0.50000000  0.00000000  0.00000000  1
  Bi  Bi0_5  1  0.50000000  0.00000000  0.50000000  1
  Bi  Bi0_6  1  0.50000000  0.50000000  0.00000000  1
  Bi  Bi0_7  1  0.50000000  0.50000000  0.50000000  1
  O  O0_0  1  0.37500000  0.12500000  0.25000000  1
  O  O0_1  1  0.37500000  0.12500000  0.75000000  1
  O  O0_2  1  0.37500000  0.62500000  0.25000000  1
  O  O0_3  1  0.37500000  0.62500000  0.75000000  1
  O  O0_4  1  0.87500000  0.12500000  0.25000000  1
  O  O0_5  1  0.87500000  0.12500000  0.75000000  1
  O  O0_6  1  0.87500000  0.62500000  0.25000000  1
  O  O0_7  1  0.87500000  0.62500000  0.75000000  1
  O  O1_0  1  0.12500000  0.37500000  0.25000000  1
  O  O1_1  1  0.12500000  0.37500000  0.75000000  1
  O  O1_2  1  0.12500000  0.87500000  0.25000000  1
  O  O1_3  1  0.12500000  0.87500000  0.75000000  1
  O  O1_4  1  0.62500000  0.37500000  0.25000000  1
  O  O1_5  1  0.62500000  0.37500000  0.75000000  1
  O  O1_6  1  0.62500000  0.87500000  0.25000000  1
  O  O1_7  1  0.62500000  0.87500000  0.75000000  1
loop_
_geom_bond_atom_site_label_1
_geom_bond_atom_site_label_2
_geom_bond_distance
_geom_bond_site_symmetry_2
Bi0_0 Sm1_1 3.613617 1_555
Bi0_0 Sm1_7 3.613617 1_444
Bi0_0 Sm1_4 3.613617 1_455
Bi0_0 Sm1_2 3.613617 1_545
Bi0_0 Sm0_2 3.613617 1_545
Bi0_0 Sm0_4 3.613617 1_455
Bi0_0 Sm0_7 3.613617 1_444
Bi0_0 Sm0_1 3.613617 1_555
Bi0_0 Bi0_3 3.952949 1_544
Bi0_0 Bi0_3 3.952949 1_555
Bi0_0 Bi0_5 3.952949 1_555
Bi0_0 Bi0_5 3.952949 1_454
Bi0_1 Sm0_5 3.613617 1_455
Bi0_1 Sm0_3 3.613617 1_545
Bi0_1 Sm0_0 3.613617 1_556
Bi0_1 Sm0_6 3.613617 1_445
Bi0_1 Sm1_0 3.613617 1_556
Bi0_1 Sm1_3 3.613617 1_545
Bi0_1 Sm1_5 3.613617 1_455
Bi0_1 Sm1_6 3.613617 1_445
Bi0_1 Bi0_4 3.952949 1_556
Bi0_1 Bi0_2 3.952949 1_556
Bi0_1 Bi0_2 3.952949 1_545
Bi0_1 Bi0_4 3.952949 1_455
Bi0_2 Sm0_3 3.613617 1_555
Bi0_2 Sm0_0 3.613617 1_555
Bi0_2 Sm1_5 3.613617 1_454
Bi0_2 Sm0_5 3.613617 1_454
Bi0_2 Sm1_3 3.613617 1_555
Bi0_2 Sm1_0 3.613617 1_555
Bi0_2 Sm1_6 3.613617 1_455
Bi0_2 Sm0_6 3.613617 1_455
Bi0_2 Bi0_7 3.952949 1_555
Bi0_2 Bi0_7 3.952949 1_454
Bi0_3 Sm0_2 3.613617 1_556
Bi0_3 Sm1_7 3.613617 1_455
Bi0_3 Sm1_2 3.613617 1_556
Bi0_3 Sm0_4 3.613617 1_455
Bi0_3 Sm0_1 3.613617 1_555
Bi0_3 Sm1_1 3.613617 1_555
Bi0_3 Sm0_7 3.613617 1_455
Bi0_3 Sm1_4 3.613617 1_455
Bi0_3 Bi0_6 3.952949 1_455
Bi0_3 Bi0_6 3.952949 1_556
Bi0_4 Sm0_5 3.613617 1_555
Bi0_4 Sm1_3 3.613617 1_544
Bi0_4 Sm0_0 3.613617 1_555
Bi0_4 Sm1_0 3.613617 1_555
Bi0_4 Sm1_5 3.613617 1_555
Bi0_4 Sm0_3 3.613617 1_544
Bi0_4 Sm1_6 3.613617 1_545
Bi0_4 Sm0_6 3.613617 1_545
Bi0_4 Bi0_7 3.952949 1_555
Bi0_4 Bi0_7 3.952949 1_544
Bi0_5 Sm1_1 3.613617 1_555
Bi0_5 Sm1_4 3.613617 1_556
Bi0_5 Sm1_7 3.613617 1_545
Bi0_5 Sm1_2 3.613617 1_545
Bi0_5 Sm0_1 3.613617 1_555
Bi0_5 Sm0_4 3.613617 1_556
Bi0_5 Sm0_2 3.613617 1_545
Bi0_5 Sm0_7 3.613617 1_545
Bi0_5 Bi0_6 3.952949 1_545
Bi0_5 Bi0_6 3.952949 1_556
Bi0_6 Sm1_7 3.613617 1_555
Bi0_6 Sm1_1 3.613617 1_554
Bi0_6 Sm0_4 3.613617 1_555
Bi0_6 Sm1_2 3.613617 1_555
Bi0_6 Sm1_4 3.613617 1_555
Bi0_6 Sm0_2 3.613617 1_555
Bi0_6 Sm0_1 3.613617 1_554
Bi0_6 Sm0_7 3.613617 1_555
Bi0_7 Sm0_5 3.613617 1_555
Bi0_7 Sm0_6 3.613617 1_556
Bi0_7 Sm0_0 3.613617 1_555
Bi0_7 Sm1_0 3.613617 1_555
Bi0_7 Sm1_3 3.613617 1_555
Bi0_7 Sm1_5 3.613617 1_555
Bi0_7 Sm0_3 3.613617 1_555
Bi0_7 Sm1_6 3.613617 1_556
O0_0 Sm0_1 2.288336 1_555
O0_0 Sm0_2 2.288336 1_545
O0_0 Sm1_0 2.288336 1_555
O0_0 Sm1_5 2.288336 1_555
O0_0 O1_0 2.795157 1_555
O0_0 O1_3 2.795157 1_544
O0_0 O1_6 2.795157 1_545
O0_0 O1_5 2.795157 1_555
O0_1 Sm0_3 2.288336 1_545
O0_1 Sm0_0 2.288336 1_556
O0_1 Sm1_4 2.288336 1_556
O0_1 Sm1_1 2.288336 1_555
O0_1 O1_1 2.795157 1_555
O0_1 O1_2 2.795157 1_545
O0_1 O1_4 2.795157 1_556
O0_1 O1_7 2.795157 1_545
O0_2 Sm1_2 2.288336 1_555
O0_2 Sm1_7 2.288336 1_555
O0_2 Sm0_3 2.288336 1_555
O0_2 Sm0_0 2.288336 1_555
O0_2 O1_4 2.795157 1_555
O0_2 O1_7 2.795157 1_555
O0_2 O1_1 2.795157 1_554
O0_2 O1_2 2.795157 1_555
O0_3 Sm1_6 2.288336 1_556
O0_3 Sm0_2 2.288336 1_556
O0_3 Sm1_3 2.288336 1_555
O0_3 Sm0_1 2.288336 1_555
O0_3 O1_5 2.795157 1_555
O0_3 O1_3 2.795157 1_555
O0_3 O1_6 2.795157 1_556
O0_3 O1_0 2.795157 1_555
O0_4 Sm0_5 2.288336 1_555
O0_4 Sm0_6 2.288336 1_545
O0_4 Sm1_1 2.288336 1_655
O0_4 Sm1_4 2.288336 1_555
O0_4 O1_1 2.795157 1_655
O0_4 O1_4 2.795157 1_555
O0_4 O1_2 2.795157 1_645
O0_4 O1_7 2.795157 1_544
O0_5 Sm0_7 2.288336 1_545
O0_5 Sm0_4 2.288336 1_556
O0_5 Sm1_5 2.288336 1_555
O0_5 Sm1_0 2.288336 1_656
O0_5 O1_3 2.795157 1_645
O0_5 O1_0 2.795157 1_656
O0_5 O1_6 2.795157 1_545
O0_5 O1_5 2.795157 1_555
O0_6 Sm0_7 2.288336 1_555
O0_6 Sm0_4 2.288336 1_555
O0_6 Sm1_6 2.288336 1_555
O0_6 Sm1_3 2.288336 1_655
O0_6 O1_6 2.795157 1_555
O0_6 O1_3 2.795157 1_655
O0_6 O1_5 2.795157 1_554
O0_6 O1_0 2.795157 1_655
O0_7 Sm1_2 2.288336 1_656
O0_7 Sm0_6 2.288336 1_556
O0_7 Sm1_7 2.288336 1_555
O0_7 Sm0_5 2.288336 1_555
O0_7 O1_7 2.795157 1_555
O0_7 O1_1 2.795157 1_655
O0_7 O1_2 2.795157 1_656
O0_7 O1_4 2.795157 1_555
O1_0 Sm0_4 2.288336 1_455
O1_0 Sm0_1 2.288336 1_555
O1_0 Sm1_0 2.288336 1_555
O1_0 Sm1_3 2.288336 1_555
O1_1 Sm1_2 2.288336 1_556
O1_1 Sm1_1 2.288336 1_555
O1_1 Sm0_0 2.288336 1_556
O1_1 Sm0_5 2.288336 1_455
O1_2 Sm1_2 2.288336 1_555
O1_2 Sm0_3 2.288336 1_555
O1_2 Sm1_1 2.288336 1_565
O1_2 Sm0_6 2.288336 1_455
O1_3 Sm0_7 2.288336 1_455
O1_3 Sm1_3 2.288336 1_555
O1_3 Sm0_2 2.288336 1_556
O1_3 Sm1_0 2.288336 1_566
O1_4 Sm1_7 2.288336 1_555
O1_4 Sm1_4 2.288336 1_555
O1_4 Sm0_0 2.288336 1_555
O1_4 Sm0_5 2.288336 1_555
O1_5 Sm0_1 2.288336 1_555
O1_5 Sm1_6 2.288336 1_556
O1_5 Sm0_4 2.288336 1_556
O1_5 Sm1_5 2.288336 1_555
O1_6 Sm0_2 2.288336 1_555
O1_6 Sm1_5 2.288336 1_565
O1_6 Sm1_6 2.288336 1_555
O1_6 Sm0_7 2.288336 1_555
O1_7 Sm1_7 2.288336 1_555
O1_7 Sm1_4 2.288336 1_566
O1_7 Sm0_6 2.288336 1_556
O1_7 Sm0_3 2.288336 1_555
