# generated using pymatgen
data_Sr2YRuO6
_symmetry_space_group_name_H-M   'P 1'
_cell_length_a   5.88539400
_cell_length_b   5.81665800
_cell_length_c   10.06544416
_cell_angle_alpha   55.09474817
_cell_angle_beta   90.00000000
_cell_angle_gamma   90.00000000
_symmetry_Int_Tables_number   1
_chemical_formula_structural   Sr2YRuO6
_chemical_formula_sum   'Sr4 Y2 Ru2 O12'
_cell_volume   282.58462223
_cell_formula_units_Z   2
loop_
 _symmetry_equiv_pos_site_id
 _symmetry_equiv_pos_as_xyz
  1  'x, y, z'
loop_
 _atom_site_type_symbol
 _atom_site_label
 _atom_site_symmetry_multiplicity
 _atom_site_fract_x
 _atom_site_fract_y
 _atom_site_fract_z
 _atom_site_occupancy
  Sr  Sr0  1  0.53740700  0.74071300  0.75054000  1
  Sr  Sr1  1  0.03740700  0.25928700  0.74946000  1
  Sr  Sr2  1  0.96259300  0.74071300  0.25054000  1
  Sr  Sr3  1  0.46259300  0.25928700  0.24946000  1
  Y  Y0  1  0.00000000  0.00000000  0.50000000  1
  Y  Y1  1  0.50000000  0.00000000  0.00000000  1
  Ru  Ru0  1  0.00000000  0.50000000  0.00000000  1
  Ru  Ru1  1  0.50000000  0.50000000  0.50000000  1
  O  O0  1  0.52069200  0.81002700  0.26631400  1
  O  O1  1  0.02069200  0.18997300  0.23368600  1
  O  O2  1  0.47930800  0.18997300  0.73368600  1
  O  O3  1  0.97930800  0.81002700  0.76631400  1
  O  O4  1  0.77201000  0.65358500  0.54191700  1
  O  O5  1  0.27201000  0.34641500  0.95808300  1
  O  O6  1  0.22799000  0.34641500  0.45808300  1
  O  O7  1  0.72799000  0.65358500  0.04191700  1
  O  O8  1  0.19851900  0.73154000  0.03926400  1
  O  O9  1  0.69851900  0.26846000  0.46073600  1
  O  O10  1  0.80148100  0.26846000  0.96073600  1
  O  O11  1  0.30148100  0.73154000  0.53926400  1
loop_
_geom_bond_atom_site_label_1
_geom_bond_atom_site_label_2
_geom_bond_distance
_geom_bond_site_symmetry_2
O0 Ru1 1.986217 1_555
O0 Y1 2.243084 1_565
O0 Sr3 2.543055 1_565
O0 Sr2 2.650468 1_555
O0 Sr2 3.324128 1_455
O1 Ru0 1.986217 1_555
O1 Y0 2.243084 1_555
O1 Sr2 2.543055 1_445
O1 Sr3 2.650468 1_555
O1 Sr3 3.324128 1_455
O2 Ru1 1.986217 1_555
O2 Y1 2.243084 1_556
O2 Sr0 2.543055 1_545
O2 Sr1 2.650468 1_555
O2 Sr1 3.324128 1_655
O3 Ru0 1.986217 1_656
O3 Y0 2.243084 1_665
O3 Sr1 2.543055 1_665
O3 Sr0 2.650468 1_555
O3 Sr0 3.324128 1_655
O4 Ru1 1.992557 1_555
O4 Y0 2.250702 1_665
O4 Sr1 2.565278 1_655
O4 Sr0 2.791181 1_555
O4 Sr2 2.900941 1_555
O5 Ru0 1.992557 1_556
O5 Y1 2.250702 1_556
O5 Sr0 2.565278 1_555
O5 Sr1 2.791181 1_555
O5 Sr3 2.900941 1_556
O6 Ru1 1.992557 1_555
O6 Y0 2.250702 1_555
O6 Sr2 2.565278 1_455
O6 Sr3 2.791181 1_555
O6 Sr1 2.900941 1_555
O7 Ru0 1.992557 1_655
O7 Y1 2.250702 1_565
O7 Sr3 2.565278 1_555
O7 Sr2 2.791181 1_555
O7 Sr0 2.900941 1_554
O8 Ru0 1.986013 1_555
O8 Y1 2.244234 1_565
O8 Sr2 2.565746 1_455
O8 Sr3 2.790374 1_555
O8 Sr1 2.929749 1_564
O9 Ru1 1.986013 1_555
O9 Y0 2.244234 1_655
O9 Sr3 2.565746 1_555
O9 Sr2 2.790374 1_555
O9 Sr0 2.929749 1_545
O10 Ru0 1.986013 1_656
O10 Y1 2.244234 1_556
O10 Sr1 2.565746 1_655
O10 Sr0 2.790374 1_555
O10 Sr2 2.929749 1_546
O11 Ru1 1.986013 1_555
O11 Y0 2.244234 1_565
O11 Sr0 2.565746 1_555
O11 Sr1 2.790374 1_555
O11 Sr3 2.929749 1_565
