# generated using pymatgen
data_CaSnS3
_symmetry_space_group_name_H-M   'P 1'
_cell_length_a   13.84484946
_cell_length_b   13.84484946
_cell_length_c   13.84484946
_cell_angle_alpha   109.16578360
_cell_angle_beta   109.16578360
_cell_angle_gamma   110.08383706
_symmetry_Int_Tables_number   1
_chemical_formula_structural   CaSnS3
_chemical_formula_sum   'Ca16 Sn16 S48'
_cell_volume   2042.70446154
_cell_formula_units_Z   16
loop_
 _symmetry_equiv_pos_site_id
 _symmetry_equiv_pos_as_xyz
  1  'x, y, z'
loop_
 _atom_site_type_symbol
 _atom_site_label
 _atom_site_symmetry_multiplicity
 _atom_site_fract_x
 _atom_site_fract_y
 _atom_site_fract_z
 _atom_site_occupancy
  Ca  Ca0  1  0.87490500  0.99387800  0.63230300  1
  Ca  Ca1  1  0.36157500  0.24260200  0.36769700  1
  Ca  Ca2  1  0.24387800  0.11157500  0.61897300  1
  Ca  Ca3  1  0.49260200  0.62490500  0.38102700  1
  Ca  Ca4  1  0.37509500  0.75612200  0.86769700  1
  Ca  Ca5  1  0.88842500  0.50739800  0.13230300  1
  Ca  Ca6  1  0.00612200  0.63842500  0.88102700  1
  Ca  Ca7  1  0.75739800  0.12509500  0.11897300  1
  Ca  Ca8  1  0.75568800  0.75568800  0.00000000  1
  Ca  Ca9  1  0.00568800  0.50568800  0.50000000  1
  Ca  Ca10  1  0.49431200  0.99431200  0.50000000  1
  Ca  Ca11  1  0.24431200  0.24431200  0.00000000  1
  Ca  Ca12  1  0.62500000  0.87500000  0.75000000  1
  Ca  Ca13  1  0.12500000  0.87500000  0.25000000  1
  Ca  Ca14  1  0.12500000  0.87500000  0.75000000  1
  Ca  Ca15  1  0.12500000  0.37500000  0.25000000  1
  Sn  Sn0  1  0.12500000  0.37500000  0.75000000  1
  Sn  Sn1  1  0.62500000  0.37500000  0.25000000  1
  Sn  Sn2  1  0.62500000  0.37500000  0.75000000  1
  Sn  Sn3  1  0.62500000  0.87500000  0.25000000  1
  Sn  Sn4  1  0.00000000  0.00000000  0.00000000  1
  Sn  Sn5  1  0.25000000  0.75000000  0.50000000  1
  Sn  Sn6  1  0.50000000  0.50000000  0.00000000  1
  Sn  Sn7  1  0.75000000  0.25000000  0.50000000  1
  Sn  Sn8  1  0.38368700  0.49701400  0.63263100  1
  Sn  Sn9  1  0.86438400  0.75105600  0.36736900  1
  Sn  Sn10  1  0.74701400  0.61438400  0.61332700  1
  Sn  Sn11  1  0.00105600  0.13368700  0.38667300  1
  Sn  Sn12  1  0.86631300  0.25298600  0.86736900  1
  Sn  Sn13  1  0.38561600  0.99894400  0.13263100  1
  Sn  Sn14  1  0.50298600  0.13561600  0.88667300  1
  Sn  Sn15  1  0.24894400  0.61631300  0.11332700  1
  S  S0  1  0.53109900  0.69133600  0.79520600  1
  S  S1  1  0.89613000  0.73589300  0.20479400  1
  S  S2  1  0.94133600  0.64613000  0.66023700  1
  S  S3  1  0.98589300  0.28109900  0.33976300  1
  S  S4  1  0.71890100  0.05866400  0.70479400  1
  S  S5  1  0.35387000  0.01410700  0.29520600  1
  S  S6  1  0.30866400  0.10387000  0.83976300  1
  S  S7  1  0.26410700  0.46890100  0.16023700  1
  S  S8  1  0.21222300  0.48812600  0.65633200  1
  S  S9  1  0.83179400  0.55589100  0.34366800  1
  S  S10  1  0.73812600  0.58179400  0.77590300  1
  S  S11  1  0.80589100  0.96222300  0.22409700  1
  S  S12  1  0.03777700  0.26187400  0.84366800  1
  S  S13  1  0.41820600  0.19410900  0.15633200  1
  S  S14  1  0.51187400  0.16820600  0.72409700  1
  S  S15  1  0.44410900  0.78777700  0.27590300  1
  S  S16  1  0.41381700  0.33018000  0.62617800  1
  S  S17  1  0.70400200  0.78763900  0.37382200  1
  S  S18  1  0.58018000  0.45400200  0.41636300  1
  S  S19  1  0.03763900  0.16381700  0.58363700  1
  S  S20  1  0.83618300  0.41982000  0.87382200  1
  S  S21  1  0.54599800  0.96236100  0.12617800  1
  S  S22  1  0.66982000  0.29599800  0.08363700  1
  S  S23  1  0.21236100  0.58618300  0.91636300  1
  S  S24  1  0.34780100  0.46136600  0.44021500  1
  S  S25  1  0.02115100  0.90758600  0.55978500  1
  S  S26  1  0.71136600  0.77115100  0.61356500  1
  S  S27  1  0.15758600  0.09780100  0.38643500  1
  S  S28  1  0.90219900  0.28863400  0.05978500  1
  S  S29  1  0.22884900  0.84241400  0.94021500  1
  S  S30  1  0.53863400  0.97884900  0.88643500  1
  S  S31  1  0.09241400  0.65219900  0.11356500  1
  S  S32  1  0.80910600  0.96723200  0.97617800  1
  S  S33  1  0.99105400  0.83292800  0.02382200  1
  S  S34  1  0.21723200  0.74105400  0.65812600  1
  S  S35  1  0.08292800  0.55910600  0.34187400  1
  S  S36  1  0.44089400  0.78276800  0.52382200  1
  S  S37  1  0.25894600  0.91707200  0.47617800  1
  S  S38  1  0.03276800  0.00894600  0.84187400  1
  S  S39  1  0.16707200  0.19089400  0.15812600  1
  S  S40  1  0.54312300  0.70061300  0.04286600  1
  S  S41  1  0.65774700  0.50025600  0.95713400  1
  S  S42  1  0.95061300  0.40774700  0.65749000  1
  S  S43  1  0.75025600  0.29312300  0.34251000  1
  S  S44  1  0.70687700  0.04938700  0.45713400  1
  S  S45  1  0.59225300  0.24974400  0.54286600  1
  S  S46  1  0.29938700  0.34225300  0.84251000  1
  S  S47  1  0.49974400  0.45687700  0.15749000  1
loop_
_geom_bond_atom_site_label_1
_geom_bond_atom_site_label_2
_geom_bond_distance
_geom_bond_site_symmetry_2
Ca0 S38 2.892145 1_665
Ca0 S4 2.939301 1_565
Ca0 S25 2.956937 1_655
Ca0 S26 2.999416 1_555
Ca0 S19 3.076152 1_665
Ca0 S17 3.106282 1_555
Ca0 S12 3.194811 1_665
Ca0 S44 3.260542 1_565
Ca1 S39 2.892145 1_555
Ca1 S5 2.939301 1_555
Ca1 S24 2.956937 1_555
Ca1 S27 2.999416 1_555
Ca1 S18 3.076152 1_555
Ca1 S16 3.106282 1_555
Ca1 S13 3.194811 1_555
Ca1 S45 3.260535 1_555
Ca2 S37 2.892145 1_545
Ca2 S6 2.939301 1_555
Ca2 S27 2.956937 1_555
Ca2 S25 2.999416 1_545
Ca2 S16 3.076152 1_555
Ca2 S19 3.106282 1_555
Ca2 S14 3.194811 1_555
Ca2 S46 3.260542 1_555
Ca3 S36 2.892145 1_555
Ca3 S7 2.939301 1_555
Ca3 S26 2.956937 1_555
Ca3 S24 2.999416 1_555
Ca3 S17 3.076152 1_555
Ca3 S18 3.106282 1_555
Ca3 S15 3.194811 1_555
Ca3 S47 3.260551 1_555
Ca4 S34 2.892145 1_555
Ca4 S0 2.939301 1_555
Ca4 S29 2.956937 1_555
Ca4 S30 2.999416 1_555
Ca4 S23 3.076152 1_555
Ca4 S21 3.106282 1_556
Ca4 S8 3.194811 1_555
Ca4 S40 3.260542 1_556
Ca5 S35 2.892145 1_655
Ca5 S1 2.939301 1_555
Ca5 S28 2.956937 1_555
Ca5 S31 2.999416 1_655
Ca5 S22 3.076152 1_555
Ca5 S20 3.106282 1_554
Ca5 S9 3.194811 1_555
Ca5 S41 3.260535 1_554
Ca6 S33 2.892145 1_456
Ca6 S2 2.939301 1_455
Ca6 S31 2.956937 1_556
Ca6 S29 2.999416 1_555
Ca6 S20 3.076152 1_455
Ca6 S23 3.106282 1_555
Ca6 S10 3.194811 1_455
Ca6 S42 3.260542 1_455
Ca7 S32 2.892145 1_544
Ca7 S3 2.939301 1_555
Ca7 S30 2.956937 1_544
Ca7 S28 2.999416 1_555
Ca7 S21 3.076152 1_545
Ca7 S22 3.106282 1_555
Ca7 S11 3.194811 1_545
Ca7 S43 3.260551 1_555
Ca8 S32 2.922391 1_554
Ca8 S33 2.922391 1_555
Ca8 S0 3.025105 1_554
Ca8 S1 3.025105 1_555
Ca8 S40 3.081758 1_555
Ca8 S41 3.081771 1_554
Ca8 S11 3.111186 1_555
Ca8 S10 3.111186 1_554
Ca9 S34 2.922391 1_555
Ca9 S35 2.922391 1_555
Ca9 S2 3.025105 1_455
Ca9 S3 3.025105 1_455
Ca9 S42 3.081758 1_455
Ca9 S43 3.081766 1_455
Ca9 S9 3.111186 1_455
Ca9 S8 3.111186 1_555
Ca10 S36 2.922391 1_555
Ca10 S37 2.922391 1_555
Ca10 S4 3.025105 1_565
Ca10 S5 3.025105 1_565
Ca10 S44 3.081758 1_565
Ca10 S45 3.081771 1_565
Ca10 S15 3.111186 1_555
Ca10 S14 3.111186 1_565
Ca11 S39 2.922391 1_555
Ca11 S38 2.922391 1_554
Ca11 S7 3.025105 1_555
Ca11 S6 3.025105 1_554
Ca11 S46 3.081758 1_554
Ca11 S47 3.081766 1_555
Ca11 S13 3.111186 1_555
Ca11 S12 3.111186 1_554
Ca12 S32 2.798488 1_555
Ca12 S36 2.798488 1_555
Ca12 S4 2.802949 1_565
Ca12 S0 2.802949 1_555
Ca12 S26 2.818773 1_555
Ca12 S30 2.818773 1_555
Ca13 S33 2.798488 1_455
Ca13 S37 2.798488 1_555
Ca13 S1 2.802949 1_455
Ca13 S5 2.802949 1_565
Ca13 S31 2.818773 1_555
Ca13 S27 2.818773 1_565
Ca14 S34 2.798488 1_555
Ca14 S38 2.798488 1_565
Ca14 S2 2.802949 1_455
Ca14 S6 2.802949 1_565
Ca14 S29 2.818773 1_555
Ca14 S25 2.818773 1_555
Ca15 S35 2.798488 1_555
Ca15 S39 2.798488 1_555
Ca15 S7 2.802949 1_555
Ca15 S3 2.802949 1_455
Ca15 S24 2.818773 1_555
Ca15 S28 2.818773 1_455
S0 Sn8 2.388761 1_555
S0 S40 3.335018 1_556
S1 Sn9 2.388754 1_555
S1 S41 3.335023 1_554
S2 Sn10 2.388765 1_555
S2 S42 3.335018 1_555
S3 Sn11 2.388761 1_655
S3 S43 3.335032 1_555
S4 Sn12 2.388761 1_555
S4 S44 3.335018 1_555
S5 Sn13 2.388754 1_545
S6 Sn14 2.388765 1_555
S7 Sn15 2.388761 1_555
S8 Sn8 2.468916 1_555
S8 Sn0 2.579916 1_555
S9 Sn9 2.468913 1_555
S9 Sn1 2.579916 1_555
S10 Sn10 2.468923 1_555
S10 Sn2 2.579916 1_555
S10 S33 3.470253 1_556
S11 Sn11 2.468916 1_665
S11 Sn3 2.579916 1_555
S11 S32 3.470253 1_554
S12 Sn12 2.468916 1_455
S12 Sn0 2.579916 1_555
S12 S38 3.470253 1_555
S13 Sn13 2.468913 1_545
S13 Sn1 2.579916 1_555
S13 S39 3.470253 1_555
S14 Sn14 2.468923 1_555
S14 Sn2 2.579916 1_555
S14 S37 3.470253 1_545
S15 Sn15 2.468916 1_555
S15 Sn3 2.579916 1_555
S15 S36 3.470253 1_555
S16 Sn8 2.463298 1_555
S16 Sn2 2.576212 1_555
S16 S27 3.372079 1_555
S17 Sn9 2.463312 1_555
S17 Sn3 2.576212 1_555
S17 S26 3.372079 1_555
S18 Sn10 2.463301 1_555
S18 Sn1 2.576212 1_555
S18 S24 3.372079 1_555
S19 Sn11 2.463298 1_555
S19 Sn0 2.576212 1_555
S19 S25 3.372079 1_545
S20 Sn12 2.463298 1_555
S20 Sn2 2.576212 1_555
S20 S31 3.372079 1_656
S21 Sn13 2.463312 1_555
S21 Sn3 2.576212 1_555
S21 S30 3.372079 1_554
S22 Sn14 2.463301 1_554
S22 Sn1 2.576212 1_555
S22 S28 3.372079 1_555
S23 Sn15 2.463298 1_556
S23 Sn0 2.576212 1_555
S23 S29 3.372079 1_555
S24 Sn8 2.384621 1_555
S25 Sn9 2.384617 1_455
S26 Sn10 2.384607 1_555
S27 Sn11 2.384621 1_555
S28 Sn12 2.384621 1_554
S29 Sn13 2.384617 1_556
S30 Sn14 2.384607 1_565
S31 Sn15 2.384621 1_555
S32 Sn4 2.409453 1_666
S33 Sn4 2.409453 1_665
S34 Sn5 2.409453 1_555
S34 S8 3.470253 1_555
S35 Sn5 2.409453 1_555
S35 S9 3.470253 1_455
S36 Sn5 2.409453 1_555
S37 Sn5 2.409453 1_555
S38 Sn4 2.409453 1_556
S39 Sn4 2.409453 1_555
S40 Sn6 2.443175 1_555
S40 Sn3 2.603411 1_555
S41 Sn6 2.443179 1_556
S41 Sn2 2.603408 1_555
S42 Sn7 2.443175 1_555
S42 Sn0 2.603411 1_655
S43 Sn7 2.443173 1_555
S43 Sn1 2.603402 1_555
S44 Sn7 2.443175 1_555
S44 Sn3 2.603411 1_545
S45 Sn7 2.443179 1_555
S45 Sn2 2.603408 1_555
S45 S5 3.335023 1_555
S46 Sn6 2.443175 1_556
S46 Sn0 2.603411 1_555
S46 S6 3.335018 1_555
S47 Sn6 2.443173 1_555
S47 Sn1 2.603402 1_555
S47 S7 3.335032 1_555
