# generated using pymatgen
data_BaMgV2CuO8
_symmetry_space_group_name_H-M   'P 1'
_cell_length_a   9.92259278
_cell_length_b   9.92259278
_cell_length_c   9.92259278
_cell_angle_alpha   129.85768858
_cell_angle_beta   100.90165234
_cell_angle_gamma   99.78743026
_symmetry_Int_Tables_number   1
_chemical_formula_structural   BaMgV2CuO8
_chemical_formula_sum   'Ba4 Mg4 V8 Cu4 O32'
_cell_volume   679.24525489
_cell_formula_units_Z   4
loop_
 _symmetry_equiv_pos_site_id
 _symmetry_equiv_pos_as_xyz
  1  'x, y, z'
loop_
 _atom_site_type_symbol
 _atom_site_label
 _atom_site_symmetry_multiplicity
 _atom_site_fract_x
 _atom_site_fract_y
 _atom_site_fract_z
 _atom_site_occupancy
  Ba  Ba0  1  0.87413500  0.12604300  0.49989600  1
  Ba  Ba1  1  0.87385300  0.62576200  0.99989600  1
  Ba  Ba2  1  0.37413500  0.37423800  0.24809100  1
  Ba  Ba3  1  0.37385300  0.87395700  0.74809100  1
  Mg  Mg0  1  0.21263500  0.04460000  0.42147100  1
  Mg  Mg1  1  0.87687100  0.20883600  0.92147100  1
  Mg  Mg2  1  0.71263500  0.79116400  0.66803500  1
  Mg  Mg3  1  0.37687100  0.95540000  0.16803500  1
  V  V0  1  0.04476100  0.00000000  0.04476100  1
  V  V1  1  0.54476100  0.00000000  0.54476100  1
  V  V2  1  0.70379800  0.50000000  0.20379800  1
  V  V3  1  0.20379800  0.50000000  0.70379800  1
  V  V4  1  0.54366000  0.42165600  0.62621400  1
  V  V5  1  0.04366000  0.91744700  0.62200400  1
  V  V6  1  0.20455800  0.57834400  0.12200400  1
  V  V7  1  0.70455800  0.08255300  0.12621400  1
  Cu  Cu0  1  0.54191100  0.70808900  0.08244400  1
  Cu  Cu1  1  0.87435600  0.54053300  0.58244400  1
  Cu  Cu2  1  0.04191100  0.45946700  0.33382300  1
  Cu  Cu3  1  0.37435600  0.29191100  0.83382300  1
  O  O0  1  0.89461700  0.78875600  0.82699200  1
  O  O1  1  0.53823600  0.93237500  0.32699200  1
  O  O2  1  0.39461700  0.06762500  0.60586100  1
  O  O3  1  0.03823600  0.21124400  0.10586100  1
  O  O4  1  0.85571200  0.44041600  0.14999800  1
  O  O5  1  0.20958100  0.29428600  0.64999800  1
  O  O6  1  0.35571200  0.70571400  0.91529600  1
  O  O7  1  0.70958100  0.55958400  0.41529600  1
  O  O8  1  0.54162200  0.48504400  0.83917200  1
  O  O9  1  0.89346200  0.97348800  0.68650600  1
  O  O10  1  0.04162200  0.70245000  0.55657800  1
  O  O11  1  0.39346200  0.20695600  0.41997400  1
  O  O12  1  0.21301900  0.79304400  0.18650600  1
  O  O13  1  0.85412800  0.29755000  0.33917200  1
  O  O14  1  0.71301900  0.02651200  0.91997400  1
  O  O15  1  0.35412800  0.51495600  0.05657800  1
  O  O16  1  0.04014100  0.00875300  0.22292400  1
  O  O17  1  0.71417100  0.18278300  0.72292400  1
  O  O18  1  0.54014100  0.81721700  0.53138800  1
  O  O19  1  0.21417100  0.99124700  0.03138800  1
  O  O20  1  0.71085100  0.68750100  0.22128900  1
  O  O21  1  0.03378800  0.51043800  0.72128900  1
  O  O22  1  0.21085100  0.48956200  0.52334900  1
  O  O23  1  0.53378800  0.31249900  0.02334900  1
  O  O24  1  0.71207600  0.40195600  0.61660200  1
  O  O25  1  0.04017400  0.90700000  0.44023900  1
  O  O26  1  0.21207600  0.09547400  0.81012100  1
  O  O27  1  0.54017400  0.59993500  0.63317400  1
  O  O28  1  0.03323900  0.40006500  0.94023900  1
  O  O29  1  0.71464700  0.90452600  0.11660200  1
  O  O30  1  0.53323900  0.09300000  0.13317400  1
  O  O31  1  0.21464700  0.59804400  0.31012100  1
loop_
_geom_bond_atom_site_label_1
_geom_bond_atom_site_label_2
_geom_bond_distance
_geom_bond_site_symmetry_2
Ba0 O29 2.761560 1_545
Ba0 O25 2.779570 1_645
Ba0 O17 2.787340 1_555
Ba0 O21 2.788013 1_655
Ba0 O13 2.992113 1_555
Ba0 O5 3.022049 1_655
Ba0 O1 3.029642 1_545
Ba0 O9 3.051867 1_545
Ba0 O24 3.091867 1_555
Ba0 O28 3.111309 1_655
Ba0 O20 3.113271 1_545
Ba0 O16 3.144072 1_655
Ba1 O24 2.761560 1_555
Ba1 O28 2.779578 1_655
Ba1 O16 2.787332 1_666
Ba1 O20 2.788015 1_556
Ba1 O8 2.992113 1_555
Ba1 O4 3.022068 1_556
Ba1 O0 3.029633 1_555
Ba1 O12 3.051876 1_656
Ba1 O29 3.091852 1_556
Ba1 O25 3.111310 1_656
Ba1 O21 3.113270 1_655
Ba1 O17 3.144079 1_555
Ba2 O31 2.761558 1_555
Ba2 O27 2.779576 1_555
Ba2 O19 2.787334 1_545
Ba2 O23 2.788015 1_555
Ba2 O15 2.992113 1_555
Ba2 O7 3.022050 1_555
Ba2 O3 3.029642 1_555
Ba2 O11 3.051867 1_555
Ba2 O26 3.091853 1_554
Ba2 O30 3.111302 1_555
Ba2 O22 3.113270 1_555
Ba2 O18 3.144078 1_555
Ba3 O26 2.761558 1_565
Ba3 O30 2.779578 1_566
Ba3 O18 2.787332 1_555
Ba3 O22 2.788013 1_555
Ba3 O10 2.992113 1_555
Ba3 O6 3.022068 1_555
Ba3 O2 3.029633 1_565
Ba3 O14 3.051876 1_565
Ba3 O31 3.091851 1_555
Ba3 O27 3.111310 1_555
Ba3 O23 3.113271 1_566
Ba3 O19 3.144079 1_556
Mg0 O5 2.032623 1_555
Mg0 O12 2.052681 1_545
Mg0 O25 2.116448 1_545
Mg0 O16 2.134645 1_555
Mg0 O2 2.175934 1_555
Mg0 O11 2.207472 1_555
Mg1 O4 2.032619 1_556
Mg1 O9 2.052676 1_545
Mg1 O28 2.116448 1_655
Mg1 O17 2.134645 1_555
Mg1 O3 2.175934 1_656
Mg1 O14 2.207466 1_555
Mg2 O7 2.032615 1_555
Mg2 O14 2.052672 1_565
Mg2 O27 2.116448 1_555
Mg2 O18 2.134645 1_555
Mg2 O0 2.175934 1_555
Mg2 O9 2.207472 1_555
Mg3 O6 2.032619 1_554
Mg3 O11 2.052676 1_565
Mg3 O30 2.116448 1_565
Mg3 O19 2.134645 1_555
Mg3 O1 2.175934 1_555
Mg3 O12 2.207466 1_555
Cu0 O8 1.967891 1_554
Cu0 O1 1.995365 1_555
Cu0 O20 2.086499 1_555
Cu0 O29 2.156272 1_555
Cu0 O6 2.222813 1_554
Cu0 O15 2.277038 1_555
Cu1 O13 1.967888 1_555
Cu1 O0 1.995368 1_555
Cu1 O21 2.086492 1_655
Cu1 O24 2.156273 1_555
Cu1 O7 2.222825 1_555
Cu1 O10 2.277032 1_655
Cu2 O10 1.967888 1_555
Cu2 O3 1.995368 1_555
Cu2 O22 2.086486 1_555
Cu2 O31 2.156273 1_555
Cu2 O4 2.222819 1_455
Cu2 O13 2.277032 1_455
Cu3 O15 1.967892 1_556
Cu3 O2 1.995364 1_555
Cu3 O23 2.086480 1_556
Cu3 O26 2.156272 1_555
Cu3 O5 2.222831 1_555
Cu3 O8 2.277039 1_555
O0 V0 1.788146 1_666
O1 V1 1.788146 1_565
O2 V1 1.788146 1_555
O3 V0 1.788146 1_555
O4 V2 1.763392 1_555
O5 V3 1.763389 1_555
O6 V3 1.763392 1_555
O7 V2 1.763394 1_555
O8 V4 1.782724 1_555
O9 V5 1.768158 1_655
O10 V5 1.782734 1_555
O11 V4 1.768160 1_555
O12 V6 1.768158 1_555
O13 V7 1.782727 1_555
O14 V7 1.768167 1_556
O15 V6 1.782724 1_555
O16 V0 1.723399 1_555
O17 V1 1.723399 1_555
O18 V1 1.723399 1_565
O19 V0 1.723399 1_565
O20 V2 1.741758 1_555
O21 V3 1.741758 1_555
O22 V3 1.741768 1_555
O23 V2 1.741759 1_555
O24 V4 1.728413 1_555
O25 V5 1.732162 1_555
O26 V5 1.728414 1_545
O27 V4 1.732168 1_555
O28 V6 1.732168 1_556
O29 V7 1.728406 1_565
O30 V7 1.732170 1_555
O31 V6 1.728421 1_555
