# generated using pymatgen
data_Ca(BiO2)2
_symmetry_space_group_name_H-M   'P 1'
_cell_length_a   3.43735600
_cell_length_b   11.38404500
_cell_length_c   11.48282300
_cell_angle_alpha   90.00000000
_cell_angle_beta   90.00000000
_cell_angle_gamma   90.00000000
_symmetry_Int_Tables_number   1
_chemical_formula_structural   Ca(BiO2)2
_chemical_formula_sum   'Ca4 Bi8 O16'
_cell_volume   449.33452348
_cell_formula_units_Z   4
loop_
 _symmetry_equiv_pos_site_id
 _symmetry_equiv_pos_as_xyz
  1  'x, y, z'
loop_
 _atom_site_type_symbol
 _atom_site_label
 _atom_site_symmetry_multiplicity
 _atom_site_fract_x
 _atom_site_fract_y
 _atom_site_fract_z
 _atom_site_occupancy
  Ca  Ca0  1  0.80880200  0.75000000  0.36504500  1
  Ca  Ca1  1  0.80880200  0.25000000  0.13495500  1
  Ca  Ca2  1  0.19119800  0.75000000  0.86504500  1
  Ca  Ca3  1  0.19119800  0.25000000  0.63495500  1
  Bi  Bi0  1  0.28819000  0.57743500  0.11884000  1
  Bi  Bi1  1  0.28819000  0.07743500  0.38116000  1
  Bi  Bi2  1  0.71181000  0.07743500  0.88116000  1
  Bi  Bi3  1  0.28819000  0.42256500  0.38116000  1
  Bi  Bi4  1  0.71181000  0.42256500  0.88116000  1
  Bi  Bi5  1  0.28819000  0.92256500  0.11884000  1
  Bi  Bi6  1  0.71181000  0.92256500  0.61884000  1
  Bi  Bi7  1  0.71181000  0.57743500  0.61884000  1
  O  O0  1  0.72538900  0.87929400  0.97645400  1
  O  O1  1  0.27461100  0.12070600  0.02354600  1
  O  O2  1  0.73776600  0.00000000  0.25000000  1
  O  O3  1  0.27461100  0.87929400  0.47645400  1
  O  O4  1  0.27461100  0.62070600  0.47645400  1
  O  O5  1  0.31098000  0.25000000  0.27491800  1
  O  O6  1  0.72538900  0.12070600  0.52354600  1
  O  O7  1  0.68902000  0.25000000  0.77491800  1
  O  O8  1  0.73776600  0.50000000  0.25000000  1
  O  O9  1  0.26223400  0.00000000  0.75000000  1
  O  O10  1  0.72538900  0.62070600  0.97645400  1
  O  O11  1  0.68902000  0.75000000  0.72508200  1
  O  O12  1  0.31098000  0.75000000  0.22508200  1
  O  O13  1  0.26223400  0.50000000  0.75000000  1
  O  O14  1  0.72538900  0.37929400  0.52354600  1
  O  O15  1  0.27461100  0.37929400  0.02354600  1
loop_
_geom_bond_atom_site_label_1
_geom_bond_atom_site_label_2
_geom_bond_distance
_geom_bond_site_symmetry_2
Ca0 O12 2.347589 1_555
Ca0 O12 2.358525 1_655
Ca0 O3 2.523237 1_655
Ca0 O4 2.523237 1_655
Ca0 O3 2.678560 1_555
Ca0 O4 2.678560 1_555
Ca0 O8 3.147150 1_555
Ca0 O2 3.147150 1_565
Ca1 O5 2.347589 1_555
Ca1 O5 2.358525 1_655
Ca1 O15 2.523237 1_655
Ca1 O1 2.523237 1_655
Ca1 O15 2.678560 1_555
Ca1 O1 2.678560 1_555
Ca1 O2 3.147150 1_555
Ca1 O8 3.147150 1_555
Ca2 O11 2.347589 1_555
Ca2 O11 2.358525 1_455
Ca2 O0 2.523237 1_455
Ca2 O10 2.523237 1_455
Ca2 O0 2.678560 1_555
Ca2 O10 2.678560 1_555
Ca2 O13 3.147150 1_555
Ca2 O9 3.147150 1_565
Ca3 O7 2.347589 1_555
Ca3 O7 2.358525 1_455
Ca3 O14 2.523237 1_455
Ca3 O6 2.523237 1_455
Ca3 O14 2.678560 1_555
Ca3 O6 2.678560 1_555
Ca3 O9 3.147150 1_555
Ca3 O13 3.147150 1_555
Bi0 O10 2.274707 1_554
Bi0 O12 2.313795 1_555
Bi0 O8 2.330986 1_555
Bi0 O15 2.507486 1_555
Bi0 O8 2.573919 1_455
Bi0 O10 2.580374 1_454
Bi1 O6 2.274707 1_555
Bi1 O5 2.313795 1_555
Bi1 O2 2.330986 1_555
Bi1 O3 2.507486 1_545
Bi1 O2 2.573919 1_455
Bi1 O6 2.580374 1_455
Bi2 O1 2.274707 1_556
Bi2 O7 2.313795 1_555
Bi2 O9 2.330986 1_555
Bi2 O0 2.507486 1_545
Bi2 O9 2.573919 1_655
Bi2 O1 2.580374 1_656
Bi3 O14 2.274707 1_555
Bi3 O5 2.313795 1_555
Bi3 O8 2.330986 1_555
Bi3 O4 2.507486 1_555
Bi3 O8 2.573919 1_455
Bi3 O14 2.580374 1_455
Bi4 O15 2.274707 1_556
Bi4 O7 2.313795 1_555
Bi4 O13 2.330986 1_555
Bi4 O10 2.507486 1_555
Bi4 O13 2.573919 1_655
Bi4 O15 2.580374 1_656
Bi5 O0 2.274707 1_554
Bi5 O12 2.313795 1_555
Bi5 O2 2.330986 1_565
Bi5 O1 2.507486 1_565
Bi5 O2 2.573919 1_465
Bi5 O0 2.580374 1_454
Bi6 O3 2.274707 1_555
Bi6 O11 2.313795 1_555
Bi6 O9 2.330986 1_565
Bi6 O6 2.507486 1_565
Bi6 O9 2.573919 1_665
Bi6 O3 2.580374 1_655
Bi7 O4 2.274707 1_555
Bi7 O11 2.313795 1_555
Bi7 O13 2.330986 1_555
Bi7 O14 2.507486 1_555
Bi7 O13 2.573919 1_655
Bi7 O4 2.580374 1_655
O0 O10 2.943777 1_555
O1 O15 2.943777 1_555
O3 O4 2.943777 1_555
O14 O6 2.943777 1_555
