# generated using pymatgen
data_MgSi2
_symmetry_space_group_name_H-M   'P 1'
_cell_length_a   5.98821000
_cell_length_b   7.15187700
_cell_length_c   9.80017900
_cell_angle_alpha   90.00000000
_cell_angle_beta   90.00000000
_cell_angle_gamma   90.00000000
_symmetry_Int_Tables_number   1
_chemical_formula_structural   MgSi2
_chemical_formula_sum   'Mg8 Si16'
_cell_volume   419.71169145
_cell_formula_units_Z   8
loop_
 _symmetry_equiv_pos_site_id
 _symmetry_equiv_pos_as_xyz
  1  'x, y, z'
loop_
 _atom_site_type_symbol
 _atom_site_label
 _atom_site_symmetry_multiplicity
 _atom_site_fract_x
 _atom_site_fract_y
 _atom_site_fract_z
 _atom_site_occupancy
  Mg  Mg0  1  0.76630700  0.93279400  0.66832900  1
  Mg  Mg1  1  0.24906700  0.97530700  0.14060500  1
  Mg  Mg2  1  0.75093300  0.47530700  0.35939500  1
  Mg  Mg3  1  0.23369300  0.43279400  0.83167100  1
  Mg  Mg4  1  0.26630700  0.56720600  0.33167100  1
  Mg  Mg5  1  0.74906700  0.52469300  0.85939500  1
  Mg  Mg6  1  0.25093300  0.02469300  0.64060500  1
  Mg  Mg7  1  0.73369300  0.06720600  0.16832900  1
  Si  Si0  1  0.56118000  0.31689400  0.62692900  1
  Si  Si1  1  0.04692800  0.35147900  0.11363400  1
  Si  Si2  1  0.55234300  0.85112400  0.41136700  1
  Si  Si3  1  0.04173700  0.81638000  0.89812400  1
  Si  Si4  1  0.45826300  0.18362000  0.39812400  1
  Si  Si5  1  0.94765700  0.14887600  0.91136700  1
  Si  Si6  1  0.45307200  0.64852100  0.61363400  1
  Si  Si7  1  0.93882000  0.68310600  0.12692900  1
  Si  Si8  1  0.95307200  0.85147900  0.38636600  1
  Si  Si9  1  0.43882000  0.81689400  0.87307100  1
  Si  Si10  1  0.95826300  0.31638000  0.60187600  1
  Si  Si11  1  0.44765700  0.35112400  0.08863300  1
  Si  Si12  1  0.05234300  0.64887600  0.58863300  1
  Si  Si13  1  0.54173700  0.68362000  0.10187600  1
  Si  Si14  1  0.06118000  0.18310600  0.37307100  1
  Si  Si15  1  0.54692800  0.14852100  0.88636600  1
loop_
_geom_bond_atom_site_label_1
_geom_bond_atom_site_label_2
_geom_bond_distance
_geom_bond_site_symmetry_2
Mg0 Si12 2.768929 1_655
Mg0 Si6 2.817635 1_555
Mg0 Si2 2.885221 1_555
Mg0 Si3 2.912925 1_655
Mg0 Si9 2.925562 1_555
Mg0 Si15 2.944841 1_565
Mg0 Mg6 2.987917 1_665
Mg0 Si0 3.036388 1_565
Mg0 Si8 3.037229 1_555
Mg0 Si5 3.039835 1_565
Mg0 Si10 3.044904 1_565
Mg0 Mg6 3.167054 1_565
Mg1 Si13 2.750893 1_555
Mg1 Si7 2.799407 1_455
Mg1 Si3 2.912113 1_554
Mg1 Si14 2.943595 1_565
Mg1 Si1 2.961919 1_565
Mg1 Si11 2.982929 1_565
Mg1 Mg7 2.987917 1_565
Mg1 Si9 3.073918 1_554
Mg1 Si8 3.118791 1_455
Mg1 Si5 3.137788 1_464
Mg1 Mg7 3.167054 1_465
Mg1 Si4 3.187177 1_565
Mg1 Si15 3.305158 1_564
Mg1 Si2 3.335879 1_555
Mg2 Si4 2.750893 1_555
Mg2 Si14 2.799407 1_655
Mg2 Si10 2.912113 1_555
Mg2 Si7 2.943595 1_555
Mg2 Si8 2.961919 1_555
Mg2 Si2 2.982929 1_555
Mg2 Mg4 2.987917 1_555
Mg2 Si0 3.073918 1_555
Mg2 Si1 3.118791 1_655
Mg2 Si12 3.137788 1_655
Mg2 Mg4 3.167054 1_655
Mg2 Si13 3.187177 1_555
Mg2 Si6 3.305158 1_555
Mg2 Si11 3.335879 1_555
Mg3 Si5 2.768929 1_455
Mg3 Si15 2.817635 1_555
Mg3 Si11 2.885221 1_556
Mg3 Si10 2.912925 1_455
Mg3 Si0 2.925562 1_555
Mg3 Si6 2.944841 1_555
Mg3 Mg5 2.987917 1_455
Mg3 Si9 3.036388 1_555
Mg3 Si1 3.037229 1_556
Mg3 Si12 3.039835 1_555
Mg3 Si3 3.044904 1_555
Mg3 Mg5 3.167054 1_555
Mg4 Si2 2.768929 1_555
Mg4 Si8 2.817635 1_455
Mg4 Si12 2.885221 1_555
Mg4 Si13 2.912925 1_555
Mg4 Si7 2.925562 1_455
Mg4 Si1 2.944841 1_555
Mg4 Si14 3.036388 1_555
Mg4 Si6 3.037229 1_555
Mg4 Si11 3.039835 1_555
Mg4 Si4 3.044904 1_555
Mg5 Si3 2.750893 1_655
Mg5 Si9 2.799407 1_555
Mg5 Si13 2.912113 1_556
Mg5 Si0 2.943595 1_555
Mg5 Si15 2.961919 1_555
Mg5 Si5 2.982929 1_555
Mg5 Si7 3.073918 1_556
Mg5 Si6 3.118791 1_555
Mg5 Si11 3.137788 1_556
Mg5 Si10 3.187177 1_555
Mg5 Si1 3.305158 1_656
Mg5 Si12 3.335879 1_655
Mg6 Si10 2.750893 1_455
Mg6 Si0 2.799407 1_555
Mg6 Si4 2.912113 1_555
Mg6 Si9 2.943595 1_545
Mg6 Si6 2.961919 1_545
Mg6 Si12 2.982929 1_545
Mg6 Si14 3.073918 1_555
Mg6 Si15 3.118791 1_555
Mg6 Si2 3.137788 1_545
Mg6 Si3 3.187177 1_545
Mg6 Si8 3.305158 1_445
Mg6 Si5 3.335879 1_455
Mg7 Si11 2.768929 1_555
Mg7 Si1 2.817635 1_655
Mg7 Si5 2.885221 1_554
Mg7 Si4 2.912925 1_555
Mg7 Si14 2.925562 1_655
Mg7 Si8 2.944841 1_545
Mg7 Si7 3.036388 1_545
Mg7 Si15 3.037229 1_554
Mg7 Si2 3.039835 1_545
Mg7 Si13 3.044904 1_545
Si0 Si10 2.390462 1_555
Si0 Si6 2.461969 1_555
Si0 Si4 2.513239 1_555
Si0 Si15 2.814568 1_555
Si1 Si11 2.412127 1_555
Si1 Si7 2.461969 1_455
Si1 Si5 2.526318 1_454
Si1 Si14 2.814568 1_555
Si2 Si8 2.412127 1_555
Si2 Si4 2.447238 1_565
Si2 Si6 2.526318 1_555
Si3 Si9 2.390462 1_555
Si3 Si5 2.447238 1_465
Si3 Si7 2.513239 1_456
Si6 Si9 2.814568 1_555
Si7 Si8 2.814568 1_555
Si10 Si12 2.447238 1_655
Si10 Si14 2.513239 1_655
Si10 Si5 3.261696 1_555
Si11 Si13 2.447238 1_555
Si11 Si15 2.526318 1_554
Si11 Si4 3.261696 1_555
Si12 Si6 2.412127 1_555
Si12 Si8 2.526318 1_455
Si12 Si3 3.261696 1_555
Si13 Si7 2.390462 1_555
Si13 Si9 2.513239 1_554
Si13 Si2 3.261696 1_555
Si14 Si4 2.390462 1_555
Si14 Si8 2.461969 1_445
Si15 Si5 2.412127 1_555
Si15 Si9 2.461969 1_545
