# generated using pymatgen
data_Mg14FeC
_symmetry_space_group_name_H-M   'P 1'
_cell_length_a   6.26229893
_cell_length_b   6.26229893
_cell_length_c   8.74360200
_cell_angle_alpha   90.00000000
_cell_angle_beta   90.00000000
_cell_angle_gamma   104.59708899
_symmetry_Int_Tables_number   1
_chemical_formula_structural   Mg14FeC
_chemical_formula_sum   'Mg14 Fe1 C1'
_cell_volume   331.82459586
_cell_formula_units_Z   1
loop_
 _symmetry_equiv_pos_site_id
 _symmetry_equiv_pos_as_xyz
  1  'x, y, z'
loop_
 _atom_site_type_symbol
 _atom_site_label
 _atom_site_symmetry_multiplicity
 _atom_site_fract_x
 _atom_site_fract_y
 _atom_site_fract_z
 _atom_site_occupancy
  Mg  Mg0  1  0.86317700  0.13682300  0.00000000  1
  Mg  Mg1  1  0.32089600  0.67910400  0.00000000  1
  Mg  Mg2  1  0.34710300  0.05256200  0.50000000  1
  Mg  Mg3  1  0.39034200  0.20301000  0.00000000  1
  Mg  Mg4  1  0.94743800  0.65289700  0.50000000  1
  Mg  Mg5  1  0.79699000  0.60965800  0.00000000  1
  Mg  Mg6  1  0.20201300  0.41362300  0.32228700  1
  Mg  Mg7  1  0.20201300  0.41362300  0.67771300  1
  Mg  Mg8  1  0.58637700  0.79798700  0.32228700  1
  Mg  Mg9  1  0.58637700  0.79798700  0.67771300  1
  Mg  Mg10  1  0.69336600  0.30663400  0.28696700  1
  Mg  Mg11  1  0.69336600  0.30663400  0.71303300  1
  Mg  Mg12  1  0.07883400  0.92116600  0.23458100  1
  Mg  Mg13  1  0.07883400  0.92116600  0.76541900  1
  Fe  Fe0  1  0.89741600  0.10258400  0.50000000  1
  C  C0  1  0.31546600  0.68453400  0.50000000  1
loop_
_geom_bond_atom_site_label_1
_geom_bond_atom_site_label_2
_geom_bond_distance
_geom_bond_site_symmetry_2
Mg0 Mg12 2.962093 1_645
Mg0 Mg13 2.962093 1_644
Mg0 Mg10 3.021153 1_555
Mg0 Mg11 3.021153 1_554
Mg0 Mg5 3.091622 1_555
Mg0 Mg3 3.091622 1_555
Mg0 Mg3 3.221872 1_655
Mg0 Mg5 3.221872 1_545
Mg0 Mg7 3.687010 1_654
Mg0 Mg6 3.687010 1_655
Mg0 Mg9 3.687010 1_544
Mg0 Mg8 3.687010 1_545
Mg0 Mg1 3.852542 1_655
Mg0 Mg1 3.852542 1_545
Mg1 Mg3 3.119563 1_555
Mg1 Mg5 3.119563 1_555
Mg1 Mg12 3.156080 1_555
Mg1 Mg13 3.156080 1_554
Mg1 Mg5 3.199058 1_455
Mg1 Mg3 3.199058 1_565
Mg1 Mg7 3.261167 1_554
Mg1 Mg6 3.261167 1_555
Mg1 Mg8 3.261167 1_555
Mg1 Mg9 3.261167 1_554
Mg2 Mg8 2.899185 1_545
Mg2 Mg9 2.899185 1_545
Mg2 Mg6 3.063976 1_555
Mg2 Mg7 3.063976 1_555
Mg3 Mg5 3.114672 1_555
Mg3 Mg7 3.443159 1_554
Mg3 Mg6 3.443159 1_555
Mg4 Mg7 2.899185 1_655
Mg4 Mg6 2.899185 1_655
Mg4 Mg9 3.063976 1_555
Mg4 Mg8 3.063976 1_555
Mg5 Mg8 3.443159 1_555
Mg5 Mg9 3.443159 1_554
Mg6 Mg8 2.943991 1_555
Mg7 Mg9 2.943991 1_555
Mg10 Mg2 2.994005 1_555
Mg10 Mg4 2.994005 1_555
Mg10 Mg8 3.100759 1_545
Mg10 Mg6 3.100759 1_655
Mg10 Mg3 3.114019 1_555
Mg10 Mg5 3.114019 1_555
Mg10 Mg6 3.324352 1_555
Mg10 Mg8 3.324352 1_555
Mg11 Mg2 2.994005 1_555
Mg11 Mg4 2.994005 1_555
Mg11 Mg9 3.100759 1_545
Mg11 Mg7 3.100759 1_655
Mg11 Mg3 3.114019 1_556
Mg11 Mg5 3.114019 1_556
Mg11 Mg7 3.324352 1_555
Mg11 Mg9 3.324352 1_555
Mg12 Mg4 2.861533 1_455
Mg12 Mg2 2.861533 1_565
Mg12 Mg3 3.064660 1_565
Mg12 Mg5 3.064660 1_455
Mg12 Mg6 3.081328 1_565
Mg12 Mg8 3.081328 1_455
Mg12 Mg8 3.538508 1_555
Mg12 Mg6 3.538508 1_555
Mg13 Mg4 2.861533 1_455
Mg13 Mg2 2.861533 1_565
Mg13 Mg3 3.064660 1_566
Mg13 Mg5 3.064660 1_456
Mg13 Mg7 3.081328 1_565
Mg13 Mg9 3.081328 1_455
Mg13 Mg9 3.538508 1_555
Mg13 Mg7 3.538508 1_555
Fe0 Mg11 2.749224 1_555
Fe0 Mg10 2.749224 1_555
Fe0 Mg7 2.823863 1_655
Fe0 Mg6 2.823863 1_655
Fe0 Mg8 2.823863 1_545
Fe0 Mg9 2.823863 1_545
Fe0 Mg2 2.910848 1_655
Fe0 Mg4 2.910848 1_545
Fe0 Mg13 2.935595 1_645
Fe0 Mg12 2.935595 1_645
C0 Mg4 2.262908 1_455
C0 Mg2 2.262908 1_565
C0 Mg9 2.278133 1_555
C0 Mg8 2.278133 1_555
C0 Mg6 2.278133 1_555
C0 Mg7 2.278133 1_555
