# generated using pymatgen
data_CsVSO6
_symmetry_space_group_name_H-M   'P 1'
_cell_length_a   6.66243200
_cell_length_b   10.74227000
_cell_length_c   17.97035600
_cell_angle_alpha   90.00000000
_cell_angle_beta   90.00000000
_cell_angle_gamma   90.00000000
_symmetry_Int_Tables_number   1
_chemical_formula_structural   CsVSO6
_chemical_formula_sum   'Cs8 V8 S8 O48'
_cell_volume   1286.13197070
_cell_formula_units_Z   8
loop_
 _symmetry_equiv_pos_site_id
 _symmetry_equiv_pos_as_xyz
  1  'x, y, z'
loop_
 _atom_site_type_symbol
 _atom_site_label
 _atom_site_symmetry_multiplicity
 _atom_site_fract_x
 _atom_site_fract_y
 _atom_site_fract_z
 _atom_site_occupancy
  Cs  Cs0  1  0.74941500  0.47661400  0.41161700  1
  Cs  Cs1  1  0.24941500  0.02338600  0.58838300  1
  Cs  Cs2  1  0.25058500  0.97661400  0.08838300  1
  Cs  Cs3  1  0.75058500  0.52338600  0.91161700  1
  Cs  Cs4  1  0.25058500  0.52338600  0.58838300  1
  Cs  Cs5  1  0.75058500  0.97661400  0.41161700  1
  Cs  Cs6  1  0.74941500  0.02338600  0.91161700  1
  Cs  Cs7  1  0.24941500  0.47661400  0.08838300  1
  V  V0  1  0.50608400  0.22399300  0.24774600  1
  V  V1  1  0.00608400  0.27600700  0.75225400  1
  V  V2  1  0.49391600  0.72399300  0.25225400  1
  V  V3  1  0.99391600  0.77600700  0.74774600  1
  V  V4  1  0.49391600  0.77600700  0.75225400  1
  V  V5  1  0.99391600  0.72399300  0.24774600  1
  V  V6  1  0.50608400  0.27600700  0.74774600  1
  V  V7  1  0.00608400  0.22399300  0.25225400  1
  S  S0  1  0.76234000  0.27960600  0.59752400  1
  S  S1  1  0.26234000  0.22039400  0.40247600  1
  S  S2  1  0.23766000  0.77960600  0.90247600  1
  S  S3  1  0.73766000  0.72039400  0.09752400  1
  S  S4  1  0.23766000  0.72039400  0.40247600  1
  S  S5  1  0.73766000  0.77960600  0.59752400  1
  S  S6  1  0.76234000  0.22039400  0.09752400  1
  S  S7  1  0.26234000  0.27960600  0.90247600  1
  O  O0  1  0.76963300  0.20645800  0.52968800  1
  O  O1  1  0.26963300  0.29354200  0.47031200  1
  O  O2  1  0.23036700  0.70645800  0.97031200  1
  O  O3  1  0.73036700  0.79354200  0.02968800  1
  O  O4  1  0.23036700  0.79354200  0.47031200  1
  O  O5  1  0.73036700  0.70645800  0.52968800  1
  O  O6  1  0.76963300  0.29354200  0.02968800  1
  O  O7  1  0.26963300  0.20645800  0.97031200  1
  O  O8  1  0.75714000  0.41425200  0.58708100  1
  O  O9  1  0.25714000  0.08574800  0.41291900  1
  O  O10  1  0.24286000  0.91425200  0.91291900  1
  O  O11  1  0.74286000  0.58574800  0.08708100  1
  O  O12  1  0.24286000  0.58574800  0.41291900  1
  O  O13  1  0.74286000  0.91425200  0.58708100  1
  O  O14  1  0.75714000  0.08574800  0.08708100  1
  O  O15  1  0.25714000  0.41425200  0.91291900  1
  O  O16  1  0.25812300  0.28304100  0.22754900  1
  O  O17  1  0.75812300  0.21695900  0.77245100  1
  O  O18  1  0.74187700  0.78304100  0.27245100  1
  O  O19  1  0.24187700  0.71695900  0.72754900  1
  O  O20  1  0.74187700  0.71695900  0.77245100  1
  O  O21  1  0.24187700  0.78304100  0.22754900  1
  O  O22  1  0.25812300  0.21695900  0.72754900  1
  O  O23  1  0.75812300  0.28304100  0.27245100  1
  O  O24  1  0.57680900  0.23842700  0.64277500  1
  O  O25  1  0.07680900  0.26157300  0.35722500  1
  O  O26  1  0.42319100  0.73842700  0.85722500  1
  O  O27  1  0.92319100  0.76157300  0.14277500  1
  O  O28  1  0.42319100  0.76157300  0.35722500  1
  O  O29  1  0.92319100  0.73842700  0.64277500  1
  O  O30  1  0.57680900  0.26157300  0.14277500  1
  O  O31  1  0.07680900  0.23842700  0.85722500  1
  O  O32  1  0.94643600  0.24461300  0.64509800  1
  O  O33  1  0.44643600  0.25538700  0.35490200  1
  O  O34  1  0.05356400  0.74461300  0.85490200  1
  O  O35  1  0.55356400  0.75538700  0.14509800  1
  O  O36  1  0.05356400  0.75538700  0.35490200  1
  O  O37  1  0.55356400  0.74461300  0.64509800  1
  O  O38  1  0.94643600  0.25538700  0.14509800  1
  O  O39  1  0.44643600  0.24461300  0.85490200  1
  O  O40  1  0.50268500  0.07328700  0.24573400  1
  O  O41  1  0.00268500  0.42671300  0.75426600  1
  O  O42  1  0.49731500  0.57328700  0.25426600  1
  O  O43  1  0.99731500  0.92671300  0.74573400  1
  O  O44  1  0.49731500  0.92671300  0.75426600  1
  O  O45  1  0.99731500  0.57328700  0.24573400  1
  O  O46  1  0.50268500  0.42671300  0.74573400  1
  O  O47  1  0.00268500  0.07328700  0.25426600  1
loop_
_geom_bond_atom_site_label_1
_geom_bond_atom_site_label_2
_geom_bond_distance
_geom_bond_site_symmetry_2
Cs0 O8 3.223940 1_555
Cs0 O23 3.252943 1_555
Cs0 O5 3.257950 1_555
Cs0 O33 3.280405 1_555
Cs0 O25 3.324069 1_655
Cs0 O42 3.448932 1_555
Cs0 O12 3.490399 1_655
Cs0 O45 3.562656 1_555
Cs0 O12 3.572788 1_555
Cs0 O0 3.597528 1_555
Cs0 O36 3.756712 1_655
Cs1 O9 3.223940 1_555
Cs1 O22 3.252943 1_555
Cs1 O4 3.257950 1_545
Cs1 O32 3.280405 1_455
Cs1 O24 3.324069 1_555
Cs1 O43 3.448932 1_445
Cs1 O13 3.490399 1_545
Cs1 O44 3.562656 1_545
Cs1 O13 3.572788 1_445
Cs1 O1 3.597528 1_555
Cs1 O37 3.756712 1_545
Cs2 O10 3.223940 1_554
Cs2 O21 3.252943 1_555
Cs2 O7 3.257950 1_564
Cs2 O35 3.280405 1_555
Cs2 O27 3.324069 1_455
Cs2 O40 3.448932 1_565
Cs2 O14 3.490399 1_465
Cs2 O47 3.562656 1_565
Cs2 O14 3.572788 1_565
Cs2 O2 3.597528 1_554
Cs2 O38 3.756712 1_465
Cs3 O11 3.223940 1_556
Cs3 O20 3.252943 1_555
Cs3 O6 3.257950 1_556
Cs3 O34 3.280405 1_655
Cs3 O26 3.324069 1_555
Cs3 O41 3.448932 1_655
Cs3 O15 3.490399 1_555
Cs3 O46 3.562656 1_555
Cs3 O15 3.572788 1_655
Cs3 O3 3.597528 1_556
Cs3 O39 3.756712 1_555
Cs4 O12 3.223940 1_555
Cs4 O19 3.252943 1_555
Cs4 O1 3.257950 1_555
Cs4 O37 3.280405 1_555
Cs4 O29 3.324069 1_455
Cs4 O46 3.448932 1_555
Cs4 O8 3.490399 1_455
Cs4 O41 3.562656 1_555
Cs4 O8 3.572788 1_555
Cs4 O4 3.597528 1_555
Cs4 O32 3.756712 1_455
Cs5 O13 3.223940 1_555
Cs5 O18 3.252943 1_555
Cs5 O0 3.257950 1_565
Cs5 O36 3.280405 1_655
Cs5 O28 3.324069 1_555
Cs5 O47 3.448932 1_665
Cs5 O9 3.490399 1_565
Cs5 O40 3.562656 1_565
Cs5 O9 3.572788 1_665
Cs5 O5 3.597528 1_555
Cs5 O33 3.756712 1_565
Cs6 O14 3.223940 1_556
Cs6 O17 3.252943 1_555
Cs6 O3 3.257950 1_546
Cs6 O39 3.280405 1_555
Cs6 O31 3.324069 1_655
Cs6 O44 3.448932 1_545
Cs6 O10 3.490399 1_645
Cs6 O43 3.562656 1_545
Cs6 O10 3.572788 1_545
Cs6 O6 3.597528 1_556
Cs6 O34 3.756712 1_645
Cs7 O15 3.223940 1_554
Cs7 O16 3.252943 1_555
Cs7 O2 3.257950 1_554
Cs7 O38 3.280405 1_455
Cs7 O30 3.324069 1_555
Cs7 O45 3.448932 1_455
Cs7 O11 3.490399 1_555
Cs7 O42 3.562656 1_555
Cs7 O11 3.572788 1_455
Cs7 O7 3.597528 1_554
Cs7 O35 3.756712 1_555
O0 S0 1.451157 1_555
O1 S1 1.451157 1_555
O2 S2 1.451157 1_555
O3 S3 1.451157 1_555
O4 S4 1.451157 1_555
O5 S5 1.451157 1_555
O6 S6 1.451157 1_555
O7 S7 1.451157 1_555
O8 S0 1.458939 1_555
O9 S1 1.458939 1_555
O10 S2 1.458939 1_555
O11 S3 1.458939 1_555
O12 S4 1.458939 1_555
O13 S5 1.458939 1_555
O14 S6 1.458939 1_555
O15 S7 1.458939 1_555
O16 V0 1.806450 1_555
O16 V7 1.849090 1_555
O17 V1 1.806450 1_655
O17 V6 1.849090 1_555
O18 V2 1.806450 1_555
O18 V5 1.849090 1_555
O19 V3 1.806450 1_455
O19 V4 1.849090 1_555
O20 V4 1.806450 1_555
O20 V3 1.849090 1_555
O21 V5 1.806450 1_455
O21 V2 1.849090 1_555
O22 V6 1.806450 1_555
O22 V1 1.849090 1_555
O23 V7 1.806450 1_655
O23 V0 1.849090 1_555
O24 S0 1.544295 1_555
O24 V6 1.985794 1_555
O25 S1 1.544295 1_555
O25 V7 1.985794 1_555
O26 S2 1.544295 1_555
O26 V4 1.985794 1_555
O27 S3 1.544295 1_555
O27 V5 1.985794 1_555
O28 S4 1.544295 1_555
O28 V2 1.985794 1_555
O29 S5 1.544295 1_555
O29 V3 1.985794 1_555
O30 S6 1.544295 1_555
O30 V0 1.985794 1_555
O31 S7 1.544295 1_555
O31 V1 1.985794 1_555
O32 S0 1.541611 1_555
O32 V1 1.994923 1_655
O33 S1 1.541611 1_555
O33 V0 1.994923 1_555
O34 S2 1.541611 1_555
O34 V3 1.994923 1_455
O35 S3 1.541611 1_555
O35 V2 1.994923 1_555
O36 S4 1.541611 1_555
O36 V5 1.994923 1_455
O37 S5 1.541611 1_555
O37 V4 1.994923 1_555
O38 S6 1.541611 1_555
O38 V7 1.994923 1_655
O39 S7 1.541611 1_555
O39 V6 1.994923 1_555
O40 V0 1.619487 1_555
O41 V1 1.619487 1_555
O42 V2 1.619487 1_555
O43 V3 1.619487 1_555
O44 V4 1.619487 1_555
O45 V5 1.619487 1_555
O46 V6 1.619487 1_555
O47 V7 1.619487 1_555
