# generated using pymatgen
data_Cs2LiCr3F12
_symmetry_space_group_name_H-M   'P 1'
_cell_length_a   7.45451637
_cell_length_b   7.45451637
_cell_length_c   7.45451597
_cell_angle_alpha   59.25288653
_cell_angle_beta   59.25288653
_cell_angle_gamma   59.25289058
_symmetry_Int_Tables_number   1
_chemical_formula_structural   Cs2LiCr3F12
_chemical_formula_sum   'Cs2 Li1 Cr3 F12'
_cell_volume   287.93176985
_cell_formula_units_Z   1
loop_
 _symmetry_equiv_pos_site_id
 _symmetry_equiv_pos_as_xyz
  1  'x, y, z'
loop_
 _atom_site_type_symbol
 _atom_site_label
 _atom_site_symmetry_multiplicity
 _atom_site_fract_x
 _atom_site_fract_y
 _atom_site_fract_z
 _atom_site_occupancy
  Cs  Cs0  1  0.36893500  0.36893500  0.36893500  1
  Cs  Cs1  1  0.63106500  0.63106500  0.63106500  1
  Li  Li0  1  0.00000000  0.00000000  0.00000000  1
  Cr  Cr0  1  0.50000000  0.00000000  0.00000000  1
  Cr  Cr1  1  0.00000000  0.00000000  0.50000000  1
  Cr  Cr2  1  0.00000000  0.50000000  0.00000000  1
  F  F0  1  0.92758500  0.31551200  0.31551200  1
  F  F1  1  0.33535500  0.92976100  0.92976100  1
  F  F2  1  0.31551200  0.31551200  0.92758500  1
  F  F3  1  0.92976100  0.92976100  0.33535500  1
  F  F4  1  0.92976100  0.33535500  0.92976100  1
  F  F5  1  0.31551200  0.92758500  0.31551200  1
  F  F6  1  0.07241500  0.68448800  0.68448800  1
  F  F7  1  0.66464500  0.07023900  0.07023900  1
  F  F8  1  0.68448800  0.68448800  0.07241500  1
  F  F9  1  0.07023900  0.07023900  0.66464500  1
  F  F10  1  0.07023900  0.66464500  0.07023900  1
  F  F11  1  0.68448800  0.07241500  0.68448800  1
loop_
_geom_bond_atom_site_label_1
_geom_bond_atom_site_label_2
_geom_bond_distance
_geom_bond_site_symmetry_2
Cs0 F9 3.131609 1_555
Cs0 F10 3.131609 1_555
Cs0 F7 3.131609 1_555
Cs0 F8 3.313191 1_555
Cs0 F6 3.313191 1_555
Cs0 F11 3.313191 1_555
Cs0 F1 3.745910 1_545
Cs0 F4 3.745910 1_455
Cs0 F4 3.745910 1_554
Cs0 F1 3.745910 1_554
Cs0 F3 3.745911 1_455
Cs0 F3 3.745911 1_545
Cs1 F3 3.131609 1_555
Cs1 F4 3.131609 1_555
Cs1 F1 3.131609 1_555
Cs1 F2 3.313191 1_555
Cs1 F5 3.313191 1_555
Cs1 F0 3.313191 1_555
Cs1 F7 3.745910 1_565
Cs1 F10 3.745910 1_655
Cs1 F7 3.745910 1_556
Cs1 F10 3.745910 1_556
Cs1 F9 3.745911 1_565
Cs1 F9 3.745911 1_655
Cr0 F7 1.910290 1_555
Cr0 F1 1.910290 1_544
Cr0 F5 1.966752 1_545
Cr0 F11 1.966752 1_554
Cr0 F2 1.966752 1_554
Cr0 F8 1.966752 1_545
Cr1 F9 1.910290 1_555
Cr1 F3 1.910290 1_445
Cr1 F0 1.966752 1_455
Cr1 F5 1.966752 1_545
Cr1 F11 1.966752 1_455
Cr1 F6 1.966752 1_545
Cr2 F10 1.910290 1_555
Cr2 F4 1.910290 1_454
Cr2 F0 1.966752 1_455
Cr2 F6 1.966752 1_554
Cr2 F2 1.966752 1_554
Cr2 F8 1.966752 1_455
F0 F9 2.687688 1_655
F0 F10 2.687688 1_655
F0 F11 2.701490 1_555
F0 F8 2.701490 1_555
F1 Li0 2.097947 1_566
F1 F11 2.687688 1_565
F1 F8 2.687688 1_556
F2 F7 2.687688 1_556
F2 F6 2.701490 1_555
F3 Li0 2.097947 1_665
F3 F6 2.687688 1_655
F4 Li0 2.097947 1_656
F4 F6 2.687688 1_655
F4 F8 2.687688 1_556
F5 F9 2.687688 1_565
F5 F7 2.687688 1_565
F5 F6 2.701490 1_555
F5 F8 2.701490 1_555
F7 Li0 2.097947 1_655
F9 Li0 2.097947 1_556
F10 Li0 2.097947 1_565
F10 F2 2.687688 1_554
F11 F3 2.687688 1_545
F11 F2 2.701490 1_555
