# generated using pymatgen
data_KAg(NO3)2
_symmetry_space_group_name_H-M   'P 1'
_cell_length_a   5.03485400
_cell_length_b   8.44685600
_cell_length_c   14.45032536
_cell_angle_alpha   80.27600621
_cell_angle_beta   90.00000000
_cell_angle_gamma   90.00000000
_symmetry_Int_Tables_number   1
_chemical_formula_structural   KAg(NO3)2
_chemical_formula_sum   'K4 Ag4 N8 O24'
_cell_volume   605.72396426
_cell_formula_units_Z   4
loop_
 _symmetry_equiv_pos_site_id
 _symmetry_equiv_pos_as_xyz
  1  'x, y, z'
loop_
 _atom_site_type_symbol
 _atom_site_label
 _atom_site_symmetry_multiplicity
 _atom_site_fract_x
 _atom_site_fract_y
 _atom_site_fract_z
 _atom_site_occupancy
  K  K0  1  0.54795600  0.73601600  0.56790500  1
  K  K1  1  0.04795600  0.26398400  0.93209500  1
  K  K2  1  0.45204400  0.26398400  0.43209500  1
  K  K3  1  0.95204400  0.73601600  0.06790500  1
  Ag  Ag0  1  0.08580200  0.80749600  0.78548300  1
  Ag  Ag1  1  0.58580200  0.19250400  0.71451700  1
  Ag  Ag2  1  0.91419800  0.19250400  0.21451700  1
  Ag  Ag3  1  0.41419800  0.80749600  0.28548300  1
  N  N0  1  0.14202000  0.43781200  0.66451500  1
  N  N1  1  0.64202000  0.56218800  0.83548500  1
  N  N2  1  0.85798000  0.56218800  0.33548500  1
  N  N3  1  0.35798000  0.43781200  0.16451500  1
  N  N4  1  0.05383500  0.06196900  0.59997100  1
  N  N5  1  0.55383500  0.93803100  0.90002900  1
  N  N6  1  0.94616500  0.93803100  0.40002900  1
  N  N7  1  0.44616500  0.06196900  0.09997100  1
  O  O0  1  0.45826000  0.32371600  0.22220500  1
  O  O1  1  0.95826000  0.67628400  0.27779500  1
  O  O2  1  0.54174000  0.67628400  0.77779500  1
  O  O3  1  0.04174000  0.32371600  0.72220500  1
  O  O4  1  0.47363200  0.57015900  0.14151700  1
  O  O5  1  0.97363200  0.42984100  0.35848300  1
  O  O6  1  0.52636800  0.42984100  0.85848300  1
  O  O7  1  0.02636800  0.57015900  0.64151700  1
  O  O8  1  0.61173800  0.99033700  0.16140700  1
  O  O9  1  0.11173800  0.00966300  0.33859300  1
  O  O10  1  0.38826200  0.00966300  0.83859300  1
  O  O11  1  0.88826200  0.99033700  0.66140700  1
  O  O12  1  0.20451400  0.02026700  0.10483200  1
  O  O13  1  0.70451400  0.97973300  0.39516800  1
  O  O14  1  0.79548600  0.97973300  0.89516800  1
  O  O15  1  0.29548600  0.02026700  0.60483200  1
  O  O16  1  0.52707600  0.17275300  0.03721400  1
  O  O17  1  0.02707600  0.82724700  0.46278600  1
  O  O18  1  0.47292400  0.82724700  0.96278600  1
  O  O19  1  0.97292400  0.17275300  0.53721400  1
  O  O20  1  0.12778000  0.41790700  0.12884300  1
  O  O21  1  0.62778000  0.58209300  0.37115700  1
  O  O22  1  0.87222000  0.58209300  0.87115700  1
  O  O23  1  0.37222000  0.41790700  0.62884300  1
loop_
_geom_bond_atom_site_label_1
_geom_bond_atom_site_label_2
_geom_bond_distance
_geom_bond_site_symmetry_2
K0 O23 2.824728 1_555
K0 O15 2.845749 1_565
K0 O17 2.885305 1_655
K0 O7 2.897034 1_655
K0 O2 2.989577 1_555
K0 O13 3.058439 1_555
K0 O17 3.063265 1_555
K0 O7 3.080147 1_555
K0 O11 3.218164 1_555
K0 O21 3.344204 1_555
K1 O22 2.824728 1_455
K1 O14 2.845749 1_445
K1 O16 2.885305 1_556
K1 O6 2.897034 1_555
K1 O3 2.989577 1_555
K1 O12 3.058439 1_556
K1 O16 3.063265 1_456
K1 O6 3.080147 1_455
K1 O10 3.218164 1_555
K1 O20 3.344204 1_556
K2 O21 2.824728 1_555
K2 O13 2.845749 1_545
K2 O19 2.885305 1_455
K2 O5 2.897034 1_455
K2 O0 2.989577 1_555
K2 O15 3.058439 1_555
K2 O19 3.063265 1_555
K2 O5 3.080147 1_555
K2 O9 3.218164 1_555
K2 O23 3.344204 1_555
K3 O20 2.824728 1_655
K3 O12 2.845749 1_665
K3 O18 2.885305 1_554
K3 O4 2.897034 1_555
K3 O1 2.989577 1_555
K3 O14 3.058439 1_554
K3 O18 3.063265 1_654
K3 O4 3.080147 1_655
K3 O8 3.218164 1_555
K3 O22 3.344204 1_554
Ag0 O22 2.349009 1_455
Ag0 O11 2.377750 1_455
Ag0 O10 2.503379 1_565
Ag0 O2 2.559692 1_555
Ag0 O14 2.746691 1_455
Ag0 O2 2.964109 1_455
Ag0 O15 3.094241 1_565
Ag0 O7 3.137722 1_555
Ag1 O23 2.349009 1_555
Ag1 O10 2.377750 1_555
Ag1 O11 2.503379 1_545
Ag1 O3 2.559692 1_655
Ag1 O15 2.746691 1_555
Ag1 O3 2.964109 1_555
Ag1 O14 3.094241 1_545
Ag1 O6 3.137722 1_555
Ag2 O20 2.349009 1_655
Ag2 O9 2.377750 1_655
Ag2 O8 2.503379 1_545
Ag2 O0 2.559692 1_555
Ag2 O12 2.746691 1_655
Ag2 O0 2.964109 1_655
Ag2 O13 3.094241 1_545
Ag2 O5 3.137722 1_555
Ag3 O21 2.349009 1_555
Ag3 O8 2.377750 1_555
Ag3 O9 2.503379 1_565
Ag3 O1 2.559692 1_455
Ag3 O13 2.746691 1_555
Ag3 O1 2.964109 1_555
Ag3 O12 3.094241 1_565
Ag3 O4 3.137722 1_555
N0 O7 1.254489 1_555
N0 O3 1.267791 1_555
N0 O23 1.290966 1_555
N1 O6 1.254489 1_555
N1 O2 1.267791 1_555
N1 O22 1.290966 1_555
N2 O5 1.254489 1_555
N2 O1 1.267791 1_555
N2 O21 1.290966 1_555
N3 O4 1.254489 1_555
N3 O0 1.267791 1_555
N3 O20 1.290966 1_555
N4 O19 1.255929 1_455
N4 O15 1.265291 1_555
N4 O11 1.291408 1_445
N5 O18 1.255929 1_555
N5 O14 1.265291 1_555
N5 O10 1.291408 1_565
N6 O17 1.255929 1_655
N6 O13 1.265291 1_555
N6 O9 1.291408 1_665
N7 O16 1.255929 1_555
N7 O12 1.265291 1_555
N7 O8 1.291408 1_545
