# generated using pymatgen
data_Fe23(BC)3
_symmetry_space_group_name_H-M   'P 1'
_cell_length_a   7.44630203
_cell_length_b   7.44630203
_cell_length_c   7.44630278
_cell_angle_alpha   60.01359758
_cell_angle_beta   60.01359758
_cell_angle_gamma   60.01359404
_symmetry_Int_Tables_number   1
_chemical_formula_structural   Fe23(BC)3
_chemical_formula_sum   'Fe23 B3 C3'
_cell_volume   292.03898783
_cell_formula_units_Z   1
loop_
 _symmetry_equiv_pos_site_id
 _symmetry_equiv_pos_as_xyz
  1  'x, y, z'
loop_
 _atom_site_type_symbol
 _atom_site_label
 _atom_site_symmetry_multiplicity
 _atom_site_fract_x
 _atom_site_fract_y
 _atom_site_fract_z
 _atom_site_occupancy
  Fe  Fe0  1  0.00039500  0.34480700  0.00039500  1
  Fe  Fe1  1  0.34480700  0.00039500  0.00039500  1
  Fe  Fe2  1  0.00039500  0.00039500  0.34480700  1
  Fe  Fe3  1  0.34103900  0.99629900  0.65950300  1
  Fe  Fe4  1  0.99629900  0.34103900  0.65950300  1
  Fe  Fe5  1  0.00020800  0.00020800  0.66330800  1
  Fe  Fe6  1  0.65950300  0.99629900  0.34103900  1
  Fe  Fe7  1  0.66330800  0.00020800  0.00020800  1
  Fe  Fe8  1  0.65950300  0.34103900  0.99629900  1
  Fe  Fe9  1  0.00020800  0.66330800  0.00020800  1
  Fe  Fe10  1  0.99629900  0.65950300  0.34103900  1
  Fe  Fe11  1  0.34103900  0.65950300  0.99629900  1
  Fe  Fe12  1  0.38044600  0.38044600  0.38044600  1
  Fe  Fe13  1  0.38460500  0.38460500  0.85063200  1
  Fe  Fe14  1  0.85063200  0.38460500  0.38460500  1
  Fe  Fe15  1  0.38460500  0.85063200  0.38460500  1
  Fe  Fe16  1  0.61585600  0.61585600  0.61585600  1
  Fe  Fe17  1  0.61987400  0.61987400  0.14557100  1
  Fe  Fe18  1  0.14557100  0.61987400  0.61987400  1
  Fe  Fe19  1  0.61987400  0.14557100  0.61987400  1
  Fe  Fe20  1  0.00409000  0.00409000  0.00409000  1
  Fe  Fe21  1  0.24892900  0.24892900  0.24892900  1
  Fe  Fe22  1  0.74916900  0.74916900  0.74916900  1
  B  B0  1  0.27512700  0.72350300  0.27512700  1
  B  B1  1  0.72350300  0.27512700  0.27512700  1
  B  B2  1  0.27512700  0.27512700  0.72350300  1
  C  C0  1  0.72122300  0.27714100  0.72122300  1
  C  C1  1  0.27714100  0.72122300  0.72122300  1
  C  C2  1  0.72122300  0.72122300  0.27714100  1
loop_
_geom_bond_atom_site_label_1
_geom_bond_atom_site_label_2
_geom_bond_distance
_geom_bond_site_symmetry_2
Fe0 Fe9 2.370264 1_555
Fe0 Fe20 2.509881 1_555
Fe0 Fe1 2.565123 1_555
Fe0 Fe2 2.565123 1_555
Fe0 Fe8 2.567986 1_454
Fe0 Fe4 2.567986 1_454
Fe0 Fe17 2.596671 1_455
Fe0 Fe18 2.596671 1_554
Fe0 Fe13 2.616187 1_554
Fe0 Fe14 2.616187 1_455
Fe0 Fe21 2.853366 1_555
Fe0 Fe22 2.881413 1_454
Fe1 Fe7 2.370264 1_555
Fe1 Fe20 2.509881 1_555
Fe1 Fe2 2.565123 1_555
Fe1 Fe11 2.567986 1_544
Fe1 Fe3 2.567986 1_544
Fe1 Fe17 2.596671 1_545
Fe1 Fe19 2.596671 1_554
Fe1 Fe13 2.616187 1_554
Fe1 Fe15 2.616187 1_545
Fe1 Fe21 2.853366 1_555
Fe1 Fe22 2.881413 1_544
Fe2 Fe5 2.370264 1_555
Fe2 Fe20 2.509881 1_555
Fe2 Fe6 2.567986 1_445
Fe2 Fe21 2.853366 1_555
Fe2 Fe22 2.881413 1_445
Fe3 Fe6 2.371867 1_555
Fe3 Fe5 2.509551 1_565
Fe3 Fe4 2.567566 1_465
Fe4 Fe8 2.508400 1_555
Fe4 Fe5 2.509551 1_655
Fe5 Fe9 2.509175 1_546
Fe5 Fe7 2.509175 1_456
Fe6 Fe7 2.509551 1_565
Fe6 Fe8 2.567566 1_564
Fe7 Fe9 2.509175 1_645
Fe7 Fe8 2.509551 1_554
Fe10 Fe4 2.371867 1_555
Fe10 Fe6 2.508400 1_555
Fe10 Fe9 2.509551 1_655
Fe10 Fe20 2.539773 1_665
Fe10 Fe11 2.567566 1_654
Fe10 Fe2 2.567986 1_665
Fe10 Fe14 2.583750 1_555
Fe10 Fe16 2.603710 1_555
Fe10 Fe12 2.621895 1_655
Fe10 Fe18 2.645777 1_655
Fe10 Fe22 2.877145 1_555
Fe10 Fe21 2.900607 1_655
Fe11 Fe8 2.371866 1_555
Fe11 Fe3 2.508400 1_555
Fe11 Fe9 2.509551 1_556
Fe11 Fe20 2.539773 1_566
Fe11 Fe13 2.583750 1_555
Fe11 Fe16 2.603710 1_555
Fe11 Fe12 2.621896 1_556
Fe11 Fe17 2.645777 1_556
Fe11 Fe22 2.877145 1_555
Fe11 Fe21 2.900607 1_556
Fe12 Fe21 2.398576 1_555
Fe12 Fe19 2.521812 1_555
Fe12 Fe18 2.521812 1_555
Fe12 Fe17 2.521812 1_555
Fe12 Fe6 2.621895 1_545
Fe12 Fe3 2.621896 1_545
Fe12 Fe4 2.621896 1_455
Fe12 Fe8 2.621896 1_554
Fe13 Fe21 2.422311 1_556
Fe13 Fe16 2.435625 1_555
Fe13 Fe18 2.474059 1_555
Fe13 Fe19 2.474059 1_555
Fe13 Fe8 2.583750 1_555
Fe13 Fe7 2.631802 1_556
Fe13 Fe9 2.631802 1_556
Fe14 Fe21 2.422311 1_655
Fe14 Fe16 2.435625 1_555
Fe14 Fe17 2.474059 1_555
Fe14 Fe19 2.474059 1_555
Fe14 Fe4 2.583750 1_555
Fe14 Fe2 2.616186 1_655
Fe14 Fe5 2.631802 1_655
Fe14 Fe9 2.631802 1_655
Fe15 Fe21 2.422311 1_565
Fe15 Fe16 2.435625 1_555
Fe15 Fe17 2.474059 1_555
Fe15 Fe18 2.474059 1_555
Fe15 Fe6 2.583750 1_555
Fe15 Fe3 2.583750 1_555
Fe15 Fe2 2.616186 1_565
Fe15 Fe5 2.631802 1_565
Fe15 Fe7 2.631802 1_565
Fe16 Fe22 2.431331 1_555
Fe16 Fe4 2.603709 1_555
Fe16 Fe3 2.603709 1_555
Fe16 Fe6 2.603710 1_555
Fe16 Fe8 2.603710 1_555
Fe17 Fe22 2.410761 1_554
Fe17 Fe7 2.607361 1_565
Fe17 Fe9 2.607361 1_655
Fe17 Fe8 2.645777 1_554
Fe18 Fe22 2.410760 1_455
Fe18 Fe2 2.596671 1_565
Fe18 Fe5 2.607361 1_565
Fe18 Fe9 2.607361 1_556
Fe18 Fe4 2.645777 1_455
Fe19 Fe22 2.410760 1_545
Fe19 Fe2 2.596671 1_655
Fe19 Fe5 2.607361 1_655
Fe19 Fe7 2.607361 1_556
Fe19 Fe3 2.645777 1_545
Fe19 Fe6 2.645777 1_545
Fe20 Fe8 2.539773 1_454
Fe20 Fe6 2.539773 1_445
Fe20 Fe4 2.539773 1_454
Fe20 Fe3 2.539773 1_544
Fe20 Fe9 2.566786 1_545
Fe20 Fe7 2.566786 1_455
Fe20 Fe5 2.566786 1_554
Fe21 Fe9 2.895704 1_555
Fe21 Fe7 2.895704 1_555
Fe21 Fe5 2.895704 1_555
Fe21 Fe6 2.900607 1_545
Fe21 Fe8 2.900607 1_554
Fe21 Fe3 2.900607 1_545
Fe21 Fe4 2.900607 1_455
Fe22 Fe4 2.877145 1_555
Fe22 Fe3 2.877145 1_555
Fe22 Fe8 2.877145 1_555
Fe22 Fe6 2.877145 1_555
Fe22 Fe5 2.915650 1_665
Fe22 Fe7 2.915651 1_566
Fe22 Fe9 2.915651 1_656
B0 Fe12 2.089330 1_555
B0 Fe17 2.098717 1_555
B0 Fe18 2.098717 1_555
B0 Fe15 2.105308 1_555
B0 Fe2 2.120729 1_565
B0 Fe1 2.120730 1_565
B0 Fe10 2.124950 1_455
B0 Fe11 2.124950 1_554
B1 Fe12 2.089330 1_555
B1 Fe17 2.098717 1_555
B1 Fe19 2.098717 1_555
B1 Fe14 2.105308 1_555
B1 Fe2 2.120729 1_655
B1 Fe0 2.120730 1_655
B1 Fe6 2.124950 1_545
B1 Fe8 2.124950 1_554
B2 Fe12 2.089331 1_555
B2 Fe19 2.098717 1_555
B2 Fe18 2.098717 1_555
B2 Fe13 2.105308 1_555
B2 Fe0 2.120730 1_556
B2 Fe1 2.120730 1_556
B2 Fe4 2.124950 1_455
B2 Fe3 2.124950 1_545
C0 Fe19 2.036251 1_555
C0 Fe13 2.050169 1_555
C0 Fe14 2.050169 1_555
C0 Fe16 2.061973 1_555
C0 Fe4 2.108971 1_555
C0 Fe8 2.108972 1_555
C0 Fe5 2.113117 1_655
C0 Fe7 2.113117 1_556
C1 Fe18 2.036251 1_555
C1 Fe13 2.050169 1_555
C1 Fe15 2.050169 1_555
C1 Fe16 2.061973 1_555
C1 Fe3 2.108971 1_555
C1 Fe11 2.108972 1_555
C1 Fe5 2.113117 1_565
C1 Fe9 2.113117 1_556
C2 Fe17 2.036251 1_555
C2 Fe15 2.050169 1_555
C2 Fe14 2.050169 1_555
C2 Fe16 2.061974 1_555
C2 Fe10 2.108971 1_555
C2 Fe6 2.108971 1_555
C2 Fe9 2.113117 1_655
C2 Fe7 2.113117 1_565
