# generated using pymatgen
data_KDyTi4O12
_symmetry_space_group_name_H-M   'P 1'
_cell_length_a   5.48221442
_cell_length_b   5.48221442
_cell_length_c   7.76074313
_cell_angle_alpha   90.00000000
_cell_angle_beta   90.00000000
_cell_angle_gamma   90.05889839
_symmetry_Int_Tables_number   1
_chemical_formula_structural   KDyTi4O12
_chemical_formula_sum   'K1 Dy1 Ti4 O12'
_cell_volume   233.24648885
_cell_formula_units_Z   1
loop_
 _symmetry_equiv_pos_site_id
 _symmetry_equiv_pos_as_xyz
  1  'x, y, z'
loop_
 _atom_site_type_symbol
 _atom_site_label
 _atom_site_symmetry_multiplicity
 _atom_site_fract_x
 _atom_site_fract_y
 _atom_site_fract_z
 _atom_site_occupancy
  K  K0  1  0.01305918  0.98694082  0.50000000  1
  Dy  Dy0  1  0.47728356  0.52271644  -0.00000000  1
  Ti  Ti0  1  0.50518212  0.01084128  0.25655242  1
  Ti  Ti1  1  0.50518212  0.01084128  0.74344758  1
  Ti  Ti2  1  0.98915872  0.49481788  0.74344758  1
  Ti  Ti3  1  0.98915872  0.49481788  0.25655242  1
  O  O0  1  0.24379995  0.24202621  0.23056068  1
  O  O1  1  0.75797379  0.75620005  0.23056068  1
  O  O2  1  0.75797379  0.75620005  0.76943932  1
  O  O3  1  0.24379995  0.24202621  0.76943932  1
  O  O4  1  0.27377729  0.72622271  0.24896216  1
  O  O5  1  0.72205227  0.27794773  0.20250252  1
  O  O6  1  0.72205227  0.27794773  0.79749748  1
  O  O7  1  0.27377729  0.72622271  0.75103784  1
  O  O8  1  0.47918853  0.94840941  -0.00000000  1
  O  O9  1  0.51799443  0.01460457  0.50000000  1
  O  O10  1  0.05159059  0.52081147  -0.00000000  1
  O  O11  1  0.98539543  0.48200557  0.50000000  1
loop_
_geom_bond_atom_site_label_1
_geom_bond_atom_site_label_2
_geom_bond_distance
_geom_bond_site_symmetry_2
K0 O9 2.718441 1_465
K0 O11 2.718441 1_465
K0 O9 2.772159 1_565
K0 O11 2.772159 1_455
K0 O4 2.808150 1_555
K0 O7 2.808150 1_555
K0 O0 2.815069 1_565
K0 O1 2.815069 1_455
K0 O3 2.815069 1_565
K0 O2 2.815069 1_455
K0 O5 3.228956 1_465
K0 O6 3.228956 1_465
Dy0 O8 2.333753 1_555
Dy0 O10 2.333753 1_555
Dy0 O6 2.464709 1_554
Dy0 O5 2.464709 1_555
Dy0 O7 2.495017 1_554
Dy0 O4 2.495017 1_555
Dy0 O2 2.684020 1_554
Dy0 O1 2.684020 1_555
Dy0 O3 2.684020 1_554
Dy0 O0 2.684020 1_555
O0 Ti0 1.924602 1_555
O0 Ti3 1.978403 1_455
O0 O10 2.578997 1_555
O0 O5 2.638067 1_555
O0 O4 2.663215 1_555
O0 O8 2.731711 1_545
O1 Ti3 1.924602 1_555
O1 Ti0 1.978403 1_565
O1 O8 2.578997 1_555
O1 O5 2.638067 1_555
O1 O4 2.663215 1_555
O1 O10 2.731711 1_655
O2 Ti2 1.924602 1_555
O2 Ti1 1.978403 1_565
O2 O8 2.578997 1_556
O2 O6 2.638067 1_555
O2 O7 2.663215 1_555
O3 Ti1 1.924602 1_555
O3 Ti2 1.978403 1_455
O3 O6 2.638067 1_555
O3 O7 2.663215 1_555
O3 O8 2.731711 1_546
O4 Ti0 2.010829 1_565
O4 Ti3 2.010829 1_455
O4 O8 2.546004 1_555
O5 Ti3 1.931373 1_555
O5 Ti0 1.931373 1_555
O5 O8 2.738868 1_545
O6 Ti2 1.931373 1_555
O6 Ti1 1.931373 1_555
O6 O8 2.738868 1_546
O7 Ti1 2.010829 1_565
O7 Ti2 2.010829 1_455
O7 O8 2.546004 1_556
O8 Ti1 2.025236 1_564
O8 Ti0 2.025236 1_565
O9 Ti0 1.890751 1_555
O9 Ti1 1.890751 1_555
O10 Ti2 2.025236 1_454
O10 Ti3 2.025236 1_455
O10 O7 2.546004 1_554
O10 O4 2.546004 1_555
O10 O3 2.578997 1_554
O10 O2 2.731711 1_454
O10 O5 2.738868 1_455
O10 O6 2.738868 1_454
O11 Ti2 1.890751 1_555
O11 Ti3 1.890751 1_555
