# generated using pymatgen
data_Lu2S3O20
_symmetry_space_group_name_H-M   'P 1'
_cell_length_a   6.49779400
_cell_length_b   7.39207003
_cell_length_c   18.24828845
_cell_angle_alpha   98.99461395
_cell_angle_beta   90.00000000
_cell_angle_gamma   116.07269303
_symmetry_Int_Tables_number   1
_chemical_formula_structural   Lu2S3O20
_chemical_formula_sum   'Lu4 S6 O40'
_cell_volume   775.29152477
_cell_formula_units_Z   2
loop_
 _symmetry_equiv_pos_site_id
 _symmetry_equiv_pos_as_xyz
  1  'x, y, z'
loop_
 _atom_site_type_symbol
 _atom_site_label
 _atom_site_symmetry_multiplicity
 _atom_site_fract_x
 _atom_site_fract_y
 _atom_site_fract_z
 _atom_site_occupancy
  Lu  Lu0  1  0.81218100  0.66533900  0.60394900  1
  Lu  Lu1  1  0.18781900  0.33466100  0.39605100  1
  Lu  Lu2  1  0.14684100  0.33466100  0.89605100  1
  Lu  Lu3  1  0.85315900  0.66533900  0.10394900  1
  S  S0  1  0.75825400  0.57229000  0.91127500  1
  S  S1  1  0.24174600  0.42771000  0.08872500  1
  S  S2  1  0.18596400  0.42771000  0.58872500  1
  S  S3  1  0.81403600  0.57229000  0.41127500  1
  S  S4  1  0.70036400  0.00000000  0.75000000  1
  S  S5  1  0.29963600  0.00000000  0.25000000  1
  O  O0  1  0.33315700  0.59259000  0.81681400  1
  O  O1  1  0.66684300  0.40741000  0.18318600  1
  O  O2  1  0.74056700  0.40741000  0.68318600  1
  O  O3  1  0.25943300  0.59259000  0.31681400  1
  O  O4  1  0.31757600  0.68150900  0.93226100  1
  O  O5  1  0.68242400  0.31849100  0.06773900  1
  O  O6  1  0.63606700  0.31849100  0.56773900  1
  O  O7  1  0.36393300  0.68150900  0.43226100  1
  O  O8  1  0.52057100  0.40818100  0.88792300  1
  O  O9  1  0.47942900  0.59181900  0.11207700  1
  O  O10  1  0.11239000  0.59181900  0.61207700  1
  O  O11  1  0.88761000  0.40818100  0.38792300  1
  O  O12  1  0.76923900  0.68467500  0.98700500  1
  O  O13  1  0.23076100  0.31532500  0.01299500  1
  O  O14  1  0.08456400  0.31532500  0.51299500  1
  O  O15  1  0.91543600  0.68467500  0.48700500  1
  O  O16  1  0.51820400  0.91344800  0.80197900  1
  O  O17  1  0.48179600  0.08655200  0.19802100  1
  O  O18  1  0.60475600  0.08655200  0.69802100  1
  O  O19  1  0.39524400  0.91344800  0.30197900  1
  O  O20  1  0.81751400  0.70450500  0.85357700  1
  O  O21  1  0.18248600  0.29549500  0.14642300  1
  O  O22  1  0.11300900  0.29549500  0.64642300  1
  O  O23  1  0.88699100  0.70450500  0.35357700  1
  O  O24  1  0.43988800  0.52879800  0.58696000  1
  O  O25  1  0.56011200  0.47120200  0.41304000  1
  O  O26  1  0.91109100  0.47120200  0.91304000  1
  O  O27  1  0.08890900  0.52879800  0.08696000  1
  O  O28  1  0.11476300  0.99950900  0.86563300  1
  O  O29  1  0.88523700  0.00049100  0.13436700  1
  O  O30  1  0.11525400  0.00049100  0.63436700  1
  O  O31  1  0.88474600  0.99950900  0.36563300  1
  O  O32  1  0.78640500  0.93144800  0.56721500  1
  O  O33  1  0.21359500  0.06855200  0.43278500  1
  O  O34  1  0.85495600  0.06855200  0.93278500  1
  O  O35  1  0.14504400  0.93144800  0.06721500  1
  O  O36  1  0.75258000  0.83629400  0.70878000  1
  O  O37  1  0.24742000  0.16370600  0.29122000  1
  O  O38  1  0.91628700  0.16370600  0.79122000  1
  O  O39  1  0.08371300  0.83629400  0.20878000  1
loop_
_geom_bond_atom_site_label_1
_geom_bond_atom_site_label_2
_geom_bond_distance
_geom_bond_site_symmetry_2
Lu0 O24 2.173181 1_555
Lu0 O15 2.244043 1_555
Lu0 O32 2.246949 1_555
Lu0 O10 2.253809 1_655
Lu0 O36 2.254055 1_555
Lu0 O6 2.282773 1_555
Lu0 O30 2.367587 1_665
Lu0 O2 2.454517 1_555
Lu1 O25 2.173181 1_555
Lu1 O14 2.244043 1_555
Lu1 O33 2.246949 1_555
Lu1 O11 2.253809 1_455
Lu1 O37 2.254055 1_555
Lu1 O7 2.282773 1_555
Lu1 O31 2.367587 1_445
Lu1 O3 2.454517 1_555
Lu2 O26 2.173169 1_455
Lu2 O13 2.244045 1_556
Lu2 O34 2.246949 1_455
Lu2 O8 2.253816 1_555
Lu2 O38 2.254049 1_455
Lu2 O4 2.282773 1_555
Lu2 O28 2.367589 1_545
Lu2 O0 2.454518 1_555
Lu3 O27 2.173169 1_655
Lu3 O12 2.244045 1_554
Lu3 O35 2.246949 1_655
Lu3 O9 2.253816 1_555
Lu3 O39 2.254049 1_655
Lu3 O5 2.282773 1_555
Lu3 O29 2.367589 1_565
Lu3 O1 2.454518 1_555
O0 O4 2.122741 1_555
O0 O16 2.199643 1_555
O0 O8 2.652793 1_555
O0 O20 2.928725 1_555
O1 O5 2.122741 1_555
O1 O17 2.199643 1_555
O1 O9 2.652793 1_555
O1 O21 2.928725 1_555
O2 O6 2.122741 1_555
O2 O22 2.928725 1_655
O3 O7 2.122741 1_555
O4 O8 2.882388 1_555
O5 O9 2.882388 1_555
O8 S0 1.493289 1_555
O9 S1 1.493289 1_555
O10 S2 1.493289 1_555
O10 O2 2.652793 1_455
O10 O6 2.882388 1_455
O10 O30 2.976271 1_565
O11 S3 1.493289 1_555
O11 O3 2.652793 1_655
O11 O7 2.882388 1_655
O11 O31 2.976271 1_545
O12 S0 1.481187 1_555
O12 O35 2.585044 1_656
O12 O34 2.971535 1_565
O13 S1 1.481187 1_555
O13 O34 2.585044 1_454
O13 O35 2.971535 1_545
O14 S2 1.481187 1_555
O14 O33 2.585040 1_555
O14 O32 2.971534 1_445
O15 S3 1.481187 1_555
O15 O32 2.585040 1_555
O15 O33 2.971534 1_665
O16 S4 1.494700 1_565
O16 O34 2.956214 1_565
O17 S5 1.494700 1_555
O17 O35 2.956214 1_545
O18 S4 1.494700 1_555
O18 O2 2.199643 1_555
O18 O32 2.956218 1_545
O19 S5 1.494700 1_565
O19 O3 2.199643 1_555
O19 O33 2.956218 1_565
O20 S0 1.484251 1_555
O20 O28 2.163787 1_655
O20 O34 2.756532 1_565
O21 S1 1.484251 1_555
O21 O29 2.163787 1_455
O21 O35 2.756532 1_545
O22 S2 1.484251 1_555
O22 O30 2.163787 1_555
O22 O32 2.756529 1_445
O23 S3 1.484251 1_555
O23 O31 2.163787 1_555
O23 O33 2.756529 1_665
O23 O3 2.928725 1_655
O24 S2 1.485093 1_555
O24 O6 2.395040 1_555
O24 O32 2.915985 1_555
O25 S3 1.485093 1_555
O25 O7 2.395040 1_555
O25 O33 2.915985 1_555
O26 S0 1.485099 1_555
O26 O4 2.395035 1_655
O26 O34 2.915981 1_555
O27 S1 1.485099 1_555
O27 O5 2.395035 1_455
O27 O35 2.915981 1_555
O28 O34 2.274607 1_465
O28 O38 2.621383 1_465
O28 O8 2.976271 1_565
O29 O35 2.274607 1_645
O29 O39 2.621383 1_645
O29 O9 2.976271 1_545
O30 O32 2.274601 1_445
O30 O36 2.621387 1_445
O31 O33 2.274601 1_665
O31 O37 2.621387 1_665
O32 O36 2.765659 1_555
O33 O37 2.765659 1_555
O34 O38 2.765659 1_555
O35 O39 2.765659 1_555
O36 S4 1.490507 1_565
O37 S5 1.490507 1_555
O38 S4 1.490510 1_555
O39 S5 1.490510 1_565
