# generated using pymatgen
data_Cd(N2Cl)6
_symmetry_space_group_name_H-M   'P 1'
_cell_length_a   18.08280813
_cell_length_b   18.67802284
_cell_length_c   22.66652592
_cell_angle_alpha   88.46192151
_cell_angle_beta   93.17866058
_cell_angle_gamma   118.95132684
_symmetry_Int_Tables_number   1
_chemical_formula_structural   Cd(N2Cl)6
_chemical_formula_sum   'Cd2 N24 Cl12'
_cell_volume   6688.62138621
_cell_formula_units_Z   2
loop_
 _symmetry_equiv_pos_site_id
 _symmetry_equiv_pos_as_xyz
  1  'x, y, z'
loop_
 _atom_site_type_symbol
 _atom_site_label
 _atom_site_symmetry_multiplicity
 _atom_site_fract_x
 _atom_site_fract_y
 _atom_site_fract_z
 _atom_site_occupancy
  Cd  Cd0  1  0.00000000  -0.00000000  0.00000000  1
  Cd  Cd1  1  0.50000000  -0.00000000  0.50000000  1
  N  N0  1  0.58275947  0.60401210  0.74986184  1
  N  N1  1  0.41724053  0.39598790  0.25013816  1
  N  N2  1  0.74991302  0.14533107  0.00068117  1
  N  N3  1  0.52125263  0.60401210  0.75013816  1
  N  N4  1  0.25008698  0.85466893  0.99931883  1
  N  N5  1  0.47874737  0.39598790  0.24986184  1
  N  N6  1  0.00060524  0.25058829  0.60464743  1
  N  N7  1  0.89541805  0.14533107  0.49931883  1
  N  N8  1  0.99939476  0.74941171  0.39535257  1
  N  N9  1  0.10458195  0.85466893  0.50068117  1
  N  N10  1  0.74998305  0.25058829  0.89535257  1
  N  N11  1  0.25001695  0.74941171  0.10464743  1
  N  N12  1  0.00404433  0.00068132  0.75189394  1
  N  N13  1  0.99595567  0.99931868  0.24810606  1
  N  N14  1  0.74797340  0.75244951  0.99621337  1
  N  N15  1  0.49663699  0.00068132  0.74810606  1
  N  N16  1  0.25202660  0.24755049  0.00378663  1
  N  N17  1  0.50336301  0.99931868  0.25189394  1
  N  N18  1  0.99446943  0.24742135  0.99345207  1
  N  N19  1  0.50447611  0.75244951  0.50378663  1
  N  N20  1  0.00553057  0.75257865  0.00654793  1
  N  N21  1  0.49552389  0.24755049  0.49621337  1
  N  N22  1  0.75295192  0.24742135  0.50654793  1
  N  N23  1  0.24704808  0.75257865  0.49345207  1
  Cl  Cl0  1  0.71820635  0.78971232  0.94082298  1
  Cl  Cl1  1  0.28179365  0.21028768  0.05917702  1
  Cl  Cl2  1  0.94263146  0.22345468  0.93050406  1
  Cl  Cl3  1  0.57150597  0.78971232  0.55917702  1
  Cl  Cl4  1  0.05736854  0.77654532  0.06949594  1
  Cl  Cl5  1  0.42849403  0.21028768  0.44082298  1
  Cl  Cl6  1  0.91999670  0.98635934  0.71412196  1
  Cl  Cl7  1  0.78082322  0.22345468  0.56949594  1
  Cl  Cl8  1  0.08000330  0.01364066  0.28587804  1
  Cl  Cl9  1  0.21917678  0.77654532  0.43050406  1
  Cl  Cl10  1  0.56636264  0.98635934  0.78587804  1
  Cl  Cl11  1  0.43363736  0.01364066  0.21412196  1
loop_
_geom_bond_atom_site_label_1
_geom_bond_atom_site_label_2
_geom_bond_distance
_geom_bond_site_symmetry_2
Cd0 N14 4.661895 1_444
Cd0 N16 4.661895 1_555
Cd0 N20 4.668812 1_545
Cd0 N18 4.668812 1_454
Cd0 Cl0 4.831158 1_444
Cd0 Cl1 4.831158 1_555
Cd0 Cl2 4.963346 1_454
Cd0 Cl4 4.963346 1_545
Cd0 N13 5.627824 1_445
Cd0 N12 5.627824 1_554
Cd1 N21 4.661895 1_555
Cd1 N19 4.661895 1_545
Cd1 N22 4.668812 1_555
Cd1 N23 4.668812 1_545
Cd1 Cl3 4.831158 1_545
Cd1 Cl5 4.831158 1_555
Cd1 Cl9 4.963346 1_545
Cd1 Cl7 4.963346 1_555
Cd1 N17 5.627824 1_545
Cd1 N15 5.627824 1_555
N0 N3 1.112581 1_555
N1 N5 1.112581 1_555
N6 N7 3.051383 1_455
N8 N9 3.051383 1_655
N10 N2 3.051383 1_556
N11 N4 3.051383 1_554
N18 N2 3.888326 1_556
N20 N4 3.888326 1_554
N22 N7 3.888326 1_555
N23 N9 3.888326 1_555
Cl0 N14 1.609747 1_555
Cl1 N16 1.609747 1_555
Cl2 N18 1.610770 1_555
Cl2 N2 3.517244 1_556
Cl2 N10 3.795665 1_555
Cl3 N19 1.609747 1_555
Cl4 N20 1.610770 1_555
Cl4 N4 3.517244 1_554
Cl4 N11 3.795665 1_555
Cl5 N21 1.609747 1_555
Cl6 N12 1.608975 1_665
Cl7 N22 1.610770 1_555
Cl7 N7 3.517244 1_555
Cl7 N6 3.795665 1_655
Cl8 N13 1.608975 1_445
Cl9 N23 1.610770 1_555
Cl9 N9 3.517244 1_555
Cl9 N8 3.795665 1_455
Cl10 N15 1.608975 1_565
Cl11 N17 1.608975 1_545
