# generated using pymatgen
data_Ca2MnO4
_symmetry_space_group_name_H-M   'P 1'
_cell_length_a   5.30430500
_cell_length_b   5.30430000
_cell_length_c   12.47866699
_cell_angle_alpha   77.72920246
_cell_angle_beta   77.72917782
_cell_angle_gamma   90.00017283
_symmetry_Int_Tables_number   1
_chemical_formula_structural   Ca2MnO4
_chemical_formula_sum   'Ca8 Mn4 O16'
_cell_volume   334.86071311
_cell_formula_units_Z   4
loop_
 _symmetry_equiv_pos_site_id
 _symmetry_equiv_pos_as_xyz
  1  'x, y, z'
loop_
 _atom_site_type_symbol
 _atom_site_label
 _atom_site_symmetry_multiplicity
 _atom_site_fract_x
 _atom_site_fract_y
 _atom_site_fract_z
 _atom_site_occupancy
  Ca  Ca0  1  0.69769000  0.94769000  0.10462900  1
  Ca  Ca1  1  0.44769000  0.19768900  0.60463000  1
  Ca  Ca2  1  0.94769000  0.69769000  0.60462800  1
  Ca  Ca3  1  0.19769000  0.44769000  0.10463000  1
  Ca  Ca4  1  0.05231000  0.30231100  0.39537100  1
  Ca  Ca5  1  0.80231000  0.55231100  0.89536900  1
  Ca  Ca6  1  0.30231100  0.05231000  0.89537200  1
  Ca  Ca7  1  0.55231000  0.80231000  0.39537000  1
  Mn  Mn0  1  0.62499800  0.37500000  0.25000200  1
  Mn  Mn1  1  0.37500600  0.62500100  0.74999900  1
  Mn  Mn2  1  0.87499500  0.12499700  0.75000000  1
  Mn  Mn3  1  0.12500100  0.87499700  0.25000000  1
  O  O0  1  0.54307800  0.29307800  0.41378300  1
  O  O1  1  0.29307700  0.54307800  0.91378400  1
  O  O2  1  0.79307700  0.04307800  0.91378500  1
  O  O3  1  0.04307700  0.79307700  0.41378500  1
  O  O4  1  0.20692300  0.95692300  0.08621500  1
  O  O5  1  0.95692300  0.20692400  0.58621400  1
  O  O6  1  0.45692100  0.70692200  0.58621700  1
  O  O7  1  0.70692300  0.45692200  0.08621600  1
  O  O8  1  0.37500100  0.62499900  0.25000000  1
  O  O9  1  0.12500000  0.87500000  0.75000000  1
  O  O10  1  0.62499800  0.37500200  0.75000000  1
  O  O11  1  0.87499900  0.12500100  0.25000000  1
  O  O12  1  0.37500100  0.12500200  0.25000000  1
  O  O13  1  0.12500200  0.37500100  0.75000000  1
  O  O14  1  0.62500000  0.87499900  0.75000000  1
  O  O15  1  0.87499900  0.62499900  0.25000000  1
loop_
_geom_bond_atom_site_label_1
_geom_bond_atom_site_label_2
_geom_bond_distance
_geom_bond_site_symmetry_2
Ca0 O2 2.271361 1_564
Ca0 O11 2.551518 1_565
Ca0 O15 2.551550 1_555
Ca0 O12 2.551552 1_565
Ca0 O8 2.551573 1_555
Ca0 O7 2.661053 1_555
Ca0 O4 2.661054 1_555
Ca0 O7 2.661324 1_565
Ca0 O4 2.661330 1_655
Ca1 O0 2.271397 1_555
Ca1 O10 2.551510 1_555
Ca1 O13 2.551541 1_555
Ca1 O14 2.551542 1_545
Ca1 O9 2.551565 1_545
Ca1 O6 2.661048 1_545
Ca1 O5 2.661061 1_455
Ca1 O5 2.661326 1_555
Ca1 O6 2.661329 1_555
Ca2 O3 2.271349 1_655
Ca2 O9 2.551528 1_655
Ca2 O14 2.551555 1_555
Ca2 O13 2.551561 1_655
Ca2 O10 2.551579 1_555
Ca2 O5 2.661046 1_555
Ca2 O6 2.661054 1_555
Ca2 O6 2.661324 1_655
Ca2 O5 2.661333 1_565
Ca3 O1 2.271385 1_554
Ca3 O8 2.551507 1_555
Ca3 O12 2.551539 1_555
Ca3 O15 2.551541 1_455
Ca3 O11 2.551568 1_455
Ca3 O7 2.661054 1_455
Ca3 O4 2.661055 1_545
Ca3 O4 2.661326 1_555
Ca3 O7 2.661330 1_555
Ca4 O5 2.271349 1_455
Ca4 O11 2.551520 1_455
Ca4 O15 2.551547 1_455
Ca4 O12 2.551549 1_555
Ca4 O8 2.551571 1_555
Ca4 O3 2.661046 1_555
Ca4 O0 2.661052 1_555
Ca4 O0 2.661328 1_455
Ca4 O3 2.661333 1_545
Ca5 O7 2.271397 1_556
Ca5 O10 2.551499 1_555
Ca5 O14 2.551528 1_555
Ca5 O13 2.551539 1_655
Ca5 O9 2.551560 1_655
Ca5 O1 2.661058 1_655
Ca5 O2 2.661059 1_565
Ca5 O2 2.661324 1_555
Ca5 O1 2.661328 1_555
Ca6 O4 2.271349 1_546
Ca6 O9 2.551531 1_545
Ca6 O14 2.551557 1_545
Ca6 O13 2.551558 1_555
Ca6 O10 2.551576 1_555
Ca6 O2 2.661045 1_555
Ca6 O1 2.661050 1_555
Ca6 O1 2.661325 1_545
Ca6 O2 2.661337 1_455
Ca7 O6 2.271397 1_555
Ca7 O8 2.551507 1_555
Ca7 O15 2.551541 1_555
Ca7 O12 2.551545 1_565
Ca7 O11 2.551568 1_565
Ca7 O0 2.661053 1_565
Ca7 O3 2.661058 1_655
Ca7 O0 2.661324 1_555
Ca7 O3 2.661328 1_555
Mn0 O12 1.875340 1_555
Mn0 O8 1.875342 1_555
Mn0 O15 1.875344 1_555
Mn0 O11 1.875357 1_555
Mn0 O0 1.949266 1_555
Mn0 O7 1.949326 1_555
Mn1 O10 1.875323 1_555
Mn1 O14 1.875325 1_555
Mn1 O13 1.875363 1_555
Mn1 O9 1.875376 1_555
Mn1 O6 1.949278 1_555
Mn1 O1 1.949314 1_555
Mn2 O14 1.875325 1_545
Mn2 O10 1.875364 1_555
Mn2 O9 1.875364 1_645
Mn2 O13 1.875393 1_655
Mn2 O2 1.949314 1_555
Mn2 O5 1.949326 1_555
Mn3 O8 1.875349 1_555
Mn3 O15 1.875351 1_455
Mn3 O12 1.875370 1_565
Mn3 O11 1.875379 1_465
Mn3 O3 1.949314 1_555
Mn3 O4 1.949314 1_555
