# generated using pymatgen
data_Li9Mn2Co5O16
_symmetry_space_group_name_H-M   'P 1'
_cell_length_a   5.17483191
_cell_length_b   10.38050528
_cell_length_c   5.88474509
_cell_angle_alpha   104.57093982
_cell_angle_beta   71.35322714
_cell_angle_gamma   85.16193250
_symmetry_Int_Tables_number   1
_chemical_formula_structural   Li9Mn2Co5O16
_chemical_formula_sum   'Li9 Mn2 Co5 O16'
_cell_volume   285.16788372
_cell_formula_units_Z   1
loop_
 _symmetry_equiv_pos_site_id
 _symmetry_equiv_pos_as_xyz
  1  'x, y, z'
loop_
 _atom_site_type_symbol
 _atom_site_label
 _atom_site_symmetry_multiplicity
 _atom_site_fract_x
 _atom_site_fract_y
 _atom_site_fract_z
 _atom_site_occupancy
  Li  Li0  1  0.50133000  0.12250200  0.93691400  1
  Li  Li1  1  0.50401000  0.37813900  0.31819300  1
  Li  Li2  1  0.50340300  0.63061000  0.68538800  1
  Li  Li3  1  0.50606100  0.86547600  0.05473900  1
  Li  Li4  1  0.50118700  0.12270100  0.43851100  1
  Li  Li5  1  0.50013800  0.38208200  0.81305400  1
  Li  Li6  1  0.49329700  0.62593500  0.19760200  1
  Li  Li7  1  0.48974300  0.86674700  0.55333400  1
  Li  Li8  1  0.00240300  0.74831500  0.62650200  1
  Mn  Mn0  1  0.99456900  0.99825000  0.99649500  1
  Mn  Mn1  1  0.00353600  0.25057200  0.87159800  1
  Co  Co0  1  0.99911800  0.25169300  0.37483900  1
  Co  Co1  1  0.00473900  0.51038900  0.74819900  1
  Co  Co2  1  0.99421700  0.74952100  0.12845700  1
  Co  Co3  1  0.99870600  0.99659500  0.49946000  1
  Co  Co4  1  0.00329400  0.50478100  0.25562600  1
  O  O0  1  0.23597200  0.06990700  0.74607500  1
  O  O1  1  0.20829200  0.31244900  0.09371500  1
  O  O2  1  0.24798400  0.55263200  0.47140600  1
  O  O3  1  0.22888800  0.82567500  0.86842800  1
  O  O4  1  0.19979400  0.06825000  0.22492200  1
  O  O5  1  0.24309500  0.30578200  0.60620700  1
  O  O6  1  0.23017000  0.56227600  0.98361800  1
  O  O7  1  0.21781900  0.82715400  0.35095200  1
  O  O8  1  0.76628300  0.18292000  0.13368000  1
  O  O9  1  0.78589700  0.43100100  0.51166900  1
  O  O10  1  0.76113800  0.68025200  0.91486200  1
  O  O11  1  0.75384800  0.94163900  0.26195200  1
  O  O12  1  0.79480500  0.18570000  0.65193400  1
  O  O13  1  0.77341700  0.42310600  0.00774300  1
  O  O14  1  0.76819000  0.67935400  0.38955700  1
  O  O15  1  0.78465600  0.94759200  0.78436700  1
loop_
_geom_bond_atom_site_label_1
_geom_bond_atom_site_label_2
_geom_bond_distance
_geom_bond_site_symmetry_2
Li0 O15 2.035023 1_545
Li0 O0 2.061316 1_555
Li0 O8 2.099730 1_556
Li0 O4 2.135848 1_556
Li0 O12 2.154574 1_555
Li0 O1 2.173519 1_556
Li1 O2 1.964374 1_555
Li1 O13 2.099828 1_555
Li1 O9 2.146623 1_555
Li1 O5 2.146637 1_555
Li1 O8 2.148066 1_555
Li1 O1 2.359506 1_555
Li2 O14 2.049151 1_555
Li2 O3 2.171924 1_555
Li2 O2 2.172515 1_555
Li2 O10 2.187575 1_555
Li2 O6 2.188875 1_555
Li2 O9 2.223305 1_555
Li3 O10 2.048787 1_554
Li3 O7 2.051339 1_555
Li3 O3 2.075502 1_554
Li3 O11 2.107593 1_555
Li3 O15 2.181610 1_554
Li3 O4 2.303702 1_565
Li4 O11 2.013905 1_545
Li4 O5 2.038336 1_555
Li4 O0 2.120683 1_555
Li4 O8 2.150767 1_555
Li4 O12 2.299640 1_555
Li4 O4 2.318766 1_555
Li5 O6 2.043485 1_555
Li5 O13 2.094282 1_556
Li5 O9 2.119635 1_555
Li5 O5 2.146228 1_555
Li5 O1 2.172775 1_556
Li5 O12 2.226753 1_555
Li6 O10 2.033852 1_554
Li6 O2 2.063624 1_555
Li6 O14 2.110099 1_555
Li6 O6 2.169321 1_554
Li6 O7 2.221741 1_555
Li6 O13 2.246879 1_555
Li7 O3 2.082414 1_555
Li7 O14 2.117759 1_555
Li7 O7 2.119046 1_555
Li7 O11 2.182622 1_555
Li7 O0 2.198938 1_565
Li7 O15 2.418786 1_555
Li8 O7 2.051221 1_555
Li8 O10 2.082008 1_455
Li8 O15 2.093399 1_455
Li8 O2 2.112867 1_555
Li8 O14 2.156494 1_455
Li8 O3 2.166994 1_555
Mn0 O3 1.901939 1_655
Mn0 O15 1.909968 1_555
Mn0 O11 1.917912 1_556
Mn0 O0 1.953608 1_665
Mn0 O8 1.987851 1_566
Mn0 O4 2.003600 1_666
Mn1 O13 1.890972 1_456
Mn1 O5 1.906956 1_555
Mn1 O1 1.954942 1_556
Mn1 O8 1.964363 1_456
Mn1 O0 1.965662 1_555
Mn1 O12 1.966914 1_455
Co0 O9 1.913536 1_555
Co0 O4 1.928245 1_655
Co0 O1 1.949692 1_655
Co0 O12 1.956490 1_555
Co0 O5 2.144113 1_655
Co0 O8 2.168909 1_555
Co1 O2 1.889786 1_555
Co1 O10 1.903793 1_455
Co1 O13 2.072857 1_456
Co1 O6 2.081891 1_555
Co1 O9 2.118327 1_455
Co1 O5 2.176403 1_555
Co2 O14 1.953724 1_555
Co2 O3 2.005855 1_654
Co2 O6 2.023838 1_654
Co2 O10 2.052498 1_554
Co2 O7 2.073123 1_655
Co2 O11 2.076038 1_555
Co3 O7 1.843800 1_655
Co3 O15 1.906117 1_555
Co3 O4 1.976454 1_665
Co3 O12 1.982624 1_565
Co3 O11 2.176627 1_555
Co3 O0 2.221306 1_665
Co4 O14 1.918741 1_455
Co4 O6 1.921967 1_554
Co4 O9 1.940227 1_455
Co4 O1 2.014566 1_555
Co4 O2 2.068670 1_555
Co4 O13 2.217944 1_455
