# generated using pymatgen
data_K3SmGa3B12S12I
_symmetry_space_group_name_H-M   'P 1'
_cell_length_a   9.37809699
_cell_length_b   12.99925452
_cell_length_c   12.99926213
_cell_angle_alpha   119.99998175
_cell_angle_beta   89.99984872
_cell_angle_gamma   90.00000001
_symmetry_Int_Tables_number   1
_chemical_formula_structural   K3SmGa3B12S12I
_chemical_formula_sum   'K6 Sm2 Ga6 B24 S24 I2'
_cell_volume   1372.40591146
_cell_formula_units_Z   2
loop_
 _symmetry_equiv_pos_site_id
 _symmetry_equiv_pos_as_xyz
  1  'x, y, z'
loop_
 _atom_site_type_symbol
 _atom_site_label
 _atom_site_symmetry_multiplicity
 _atom_site_fract_x
 _atom_site_fract_y
 _atom_site_fract_z
 _atom_site_occupancy
  K  K0  1  0.00000134  -0.00000100  0.78433576  1
  K  K1  1  0.00000000  0.78433444  1.00000000  1
  K  K2  1  0.99999866  0.21566324  0.21566424  1
  K  K3  1  0.50000146  -0.00000064  0.21566553  1
  K  K4  1  0.50000000  0.21566602  0.00000000  1
  K  K5  1  0.49999854  0.78433383  0.78433447  1
  Sm  Sm0  1  0.74999873  0.66668419  0.33331852  1
  Sm  Sm1  1  0.25000127  0.33336567  0.66668148  1
  Ga  Ga0  1  0.00000300  0.00000463  0.46104648  1
  Ga  Ga1  1  0.00000000  0.46104044  1.00000000  1
  Ga  Ga2  1  0.99999700  0.53895815  0.53895352  1
  Ga  Ga3  1  0.49999660  0.00000759  0.53896067  1
  Ga  Ga4  1  0.50000000  0.53895646  0.00000000  1
  Ga  Ga5  1  0.50000340  0.46104692  0.46103933  1
  B  B0  1  0.21582238  0.79551078  0.33190182  1
  B  B1  1  0.21582204  0.53639228  0.20449039  1
  B  B2  1  0.21582303  0.66809764  0.46360819  1
  B  B3  1  0.78417762  0.46360896  0.66809818  1
  B  B4  1  0.78417796  0.33190189  0.79550961  1
  B  B5  1  0.78417697  0.20448945  0.53639181  1
  B  B6  1  0.71582276  0.20448994  0.66809818  1
  B  B7  1  0.71582246  0.46360899  0.79551073  1
  B  B8  1  0.71582224  0.33190222  0.53639191  1
  B  B9  1  0.28417724  0.53639177  0.33190182  1
  B  B10  1  0.28417754  0.66809826  0.20448927  1
  B  B11  1  0.28417776  0.79551031  0.46360809  1
  B  B12  1  0.10682998  0.74715034  0.41105388  1
  B  B13  1  0.10683077  0.66390399  0.25285074  1
  B  B14  1  0.10682882  0.58894579  0.33609654  1
  B  B15  1  0.89317002  0.33609645  0.58894612  1
  B  B16  1  0.89316923  0.41105325  0.74714926  1
  B  B17  1  0.89317118  0.25284925  0.66390346  1
  B  B18  1  0.60682919  0.25284961  0.58894629  1
  B  B19  1  0.60683073  0.33609649  0.74715032  1
  B  B20  1  0.60683086  0.41105382  0.66390361  1
  B  B21  1  0.39317081  0.66390332  0.41105371  1
  B  B22  1  0.39316927  0.58894617  0.25284968  1
  B  B23  1  0.39316914  0.74715021  0.33609639  1
  S  S0  1  0.17997755  0.93350947  0.32778991  1
  S  S1  1  0.17997757  0.39428264  0.06649156  1
  S  S2  1  0.17997798  0.67220861  0.60571735  1
  S  S3  1  0.82002245  0.60571956  0.67221009  1
  S  S4  1  0.82002243  0.32779107  0.93350844  1
  S  S5  1  0.82002202  0.06649126  0.39428265  1
  S  S6  1  0.67997717  0.06649031  0.67220899  1
  S  S7  1  0.67997766  0.60571878  0.93350904  1
  S  S8  1  0.67997709  0.32779004  0.39428190  1
  S  S9  1  0.32002283  0.39428131  0.32779101  1
  S  S10  1  0.32002234  0.67220974  0.06649096  1
  S  S11  1  0.32002291  0.93350814  0.60571810  1
  S  S12  1  0.94759093  0.83978344  0.49262011  1
  S  S13  1  0.94759706  0.65283822  0.16021282  1
  S  S14  1  0.94758263  0.50738616  0.34716178  1
  S  S15  1  0.05240907  0.34716333  0.50737989  1
  S  S16  1  0.05240294  0.49262539  0.83978718  1
  S  S17  1  0.05241737  0.16022437  0.65283822  1
  S  S18  1  0.44758366  0.16022289  0.50738520  1
  S  S19  1  0.44759208  0.34716324  0.83978443  1
  S  S20  1  0.44759828  0.49262594  0.65283797  1
  S  S21  1  0.55241634  0.65283769  0.49261480  1
  S  S22  1  0.55240792  0.50737881  0.16021557  1
  S  S23  1  0.55240172  0.83978796  0.34716203  1
  I  I0  1  0.25000024  0.00000023  -0.00000006  1
  I  I1  1  0.74999976  0.00000029  0.00000006  1
loop_
_geom_bond_atom_site_label_1
_geom_bond_atom_site_label_2
_geom_bond_distance
_geom_bond_site_symmetry_2
K0 S12 3.325865 1_445
K0 S17 3.325954 1_555
K0 S11 3.624709 1_545
K0 S6 3.624739 1_455
K0 S2 4.062352 1_545
K0 S4 4.062378 1_455
K1 S13 3.325778 1_456
K1 S16 3.325778 1_555
K1 S7 3.624707 1_455
K1 S10 3.624707 1_556
K1 S3 4.062357 1_455
K1 S0 4.062357 1_556
K2 S15 3.325865 1_655
K2 S14 3.325954 1_555
K2 S8 3.624709 1_555
K2 S9 3.624739 1_655
K2 S5 4.062352 1_555
K2 S1 4.062378 1_655
K3 S23 3.325762 1_545
K3 S18 3.325922 1_555
K3 S5 3.624706 1_555
K3 S0 3.624706 1_545
K3 S8 4.062354 1_555
K3 S10 4.062356 1_545
K4 S22 3.325829 1_555
K4 S19 3.325829 1_554
K4 S4 3.624710 1_554
K4 S1 3.624710 1_555
K4 S9 4.062358 1_555
K4 S6 4.062358 1_554
K5 S20 3.325762 1_555
K5 S21 3.325922 1_555
K5 S2 3.624706 1_555
K5 S3 3.624706 1_555
K5 S11 4.062355 1_555
K5 S7 4.062356 1_555
Ga0 S0 2.258142 1_545
Ga0 S5 2.258146 1_455
Ga0 S17 2.366991 1_555
Ga0 S12 2.367015 1_445
Ga1 S1 2.258114 1_556
Ga1 S4 2.258114 1_455
Ga1 S16 2.366982 1_555
Ga1 S13 2.366982 1_456
Ga2 S3 2.258142 1_555
Ga2 S2 2.258146 1_655
Ga2 S14 2.366991 1_555
Ga2 S15 2.367015 1_655
Ga3 S6 2.258129 1_555
Ga3 S11 2.258139 1_545
Ga3 S18 2.366957 1_555
Ga3 S23 2.367025 1_545
Ga4 S10 2.258140 1_555
Ga4 S7 2.258140 1_554
Ga4 S19 2.366970 1_554
Ga4 S22 2.366970 1_555
Ga5 S9 2.258129 1_555
Ga5 S8 2.258139 1_555
Ga5 S21 2.366957 1_555
Ga5 S20 2.367025 1_555
B0 B12 1.773547 1_555
B0 B10 1.775994 1_555
B0 B23 1.788465 1_555
B0 B13 1.808182 1_555
B0 B11 1.828165 1_555
B0 S0 1.851958 1_555
B1 B13 1.773534 1_555
B1 B9 1.775987 1_555
B1 B22 1.788464 1_555
B1 B14 1.808184 1_555
B1 B10 1.828163 1_555
B1 S1 1.851954 1_555
B2 B21 1.788469 1_555
B2 B9 1.828153 1_555
B2 S2 1.851946 1_555
B3 B7 1.775994 1_555
B3 B8 1.828165 1_555
B3 S3 1.851958 1_555
B4 B6 1.775987 1_555
B4 B7 1.828163 1_555
B4 S4 1.851954 1_555
B5 B8 1.775996 1_555
B5 B6 1.828153 1_555
B5 S5 1.851946 1_555
B6 S6 1.851964 1_555
B7 S7 1.851951 1_555
B8 S8 1.851952 1_555
B9 S9 1.851965 1_555
B10 B22 1.773546 1_555
B10 B13 1.788467 1_555
B10 B23 1.808188 1_555
B10 S10 1.851951 1_555
B11 B23 1.773534 1_555
B11 B2 1.775996 1_555
B11 B12 1.788471 1_555
B11 B21 1.808191 1_555
B11 S11 1.851952 1_555
B12 B13 1.781817 1_555
B12 B14 1.781832 1_555
B12 B2 1.808193 1_555
B12 S12 1.878186 1_455
B13 B14 1.781826 1_555
B13 S13 1.878192 1_455
B14 B2 1.773554 1_555
B14 B9 1.788473 1_555
B14 S14 1.878182 1_455
B15 B3 1.773547 1_555
B15 B16 1.781817 1_555
B15 B17 1.781832 1_555
B15 B8 1.788471 1_555
B15 B5 1.808193 1_555
B15 S15 1.878186 1_655
B16 B4 1.773534 1_555
B16 B17 1.781826 1_555
B16 B7 1.788467 1_555
B16 B3 1.808182 1_555
B16 S16 1.878192 1_655
B17 B5 1.773554 1_555
B17 B6 1.788473 1_555
B17 B4 1.808184 1_555
B17 S17 1.878182 1_655
B18 B6 1.773548 1_555
B18 B19 1.781827 1_555
B18 B20 1.781828 1_555
B18 B5 1.788469 1_555
B18 B8 1.808191 1_555
B18 S18 1.878193 1_555
B19 B7 1.773546 1_555
B19 B20 1.781826 1_555
B19 B4 1.788464 1_555
B19 B6 1.808181 1_555
B19 S19 1.878191 1_555
B20 B8 1.773534 1_555
B20 B3 1.788465 1_555
B20 B7 1.808188 1_555
B20 S20 1.878181 1_555
B21 B9 1.773548 1_555
B21 B22 1.781827 1_555
B21 B23 1.781828 1_555
B21 S21 1.878193 1_555
B22 B23 1.781826 1_555
B22 B9 1.808181 1_555
B22 S22 1.878191 1_555
B23 S23 1.878180 1_555
S12 Sm0 2.850541 1_555
S13 Sm0 2.850427 1_555
S14 Sm0 2.850704 1_555
S15 Sm1 2.850541 1_555
S16 Sm1 2.850427 1_555
S17 Sm1 2.850704 1_555
S18 Sm1 2.850693 1_555
S19 Sm1 2.850570 1_555
S20 Sm1 2.850413 1_555
S21 Sm0 2.850693 1_555
S22 Sm0 2.850570 1_555
S23 Sm0 2.850413 1_555
I0 K0 3.654615 1_554
I0 K2 3.654622 1_455
I0 K5 3.654625 1_544
I0 K4 3.654636 1_555
I0 K1 3.654639 1_544
I0 K3 3.654653 1_555
I1 K2 3.654615 1_555
I1 K0 3.654622 1_654
I1 K3 3.654625 1_555
I1 K4 3.654636 1_555
I1 K1 3.654639 1_644
I1 K5 3.654653 1_544
