# generated using pymatgen
data_Li2Ca2Ta3O10
_symmetry_space_group_name_H-M   'P 1'
_cell_length_a   13.56230427
_cell_length_b   13.56230427
_cell_length_c   13.56230427
_cell_angle_alpha   163.09418376
_cell_angle_beta   163.09418376
_cell_angle_gamma   23.99680482
_symmetry_Int_Tables_number   1
_chemical_formula_structural   Li2Ca2Ta3O10
_chemical_formula_sum   'Li2 Ca2 Ta3 O10'
_cell_volume   210.90228502
_cell_formula_units_Z   1
loop_
 _symmetry_equiv_pos_site_id
 _symmetry_equiv_pos_as_xyz
  1  'x, y, z'
loop_
 _atom_site_type_symbol
 _atom_site_label
 _atom_site_symmetry_multiplicity
 _atom_site_fract_x
 _atom_site_fract_y
 _atom_site_fract_z
 _atom_site_occupancy
  Li  Li0  1  0.25000000  0.75000000  0.50000000  1
  Li  Li1  1  0.75000000  0.25000000  0.50000000  1
  Ca  Ca0  1  0.41507000  0.41507000  0.00000000  1
  Ca  Ca1  1  0.58493000  0.58493000  0.00000000  1
  Ta  Ta0  1  0.84550000  0.84550000  0.00000000  1
  Ta  Ta1  1  0.00000000  0.00000000  0.00000000  1
  Ta  Ta2  1  0.15450000  0.15450000  0.00000000  1
  O  O0  1  0.35552300  0.85552300  0.50000000  1
  O  O1  1  0.77394500  0.77394500  0.00000000  1
  O  O2  1  0.22605500  0.22605500  0.00000000  1
  O  O3  1  0.50000000  0.00000000  0.50000000  1
  O  O4  1  0.85552300  0.35552300  0.50000000  1
  O  O5  1  0.00000000  0.50000000  0.50000000  1
  O  O6  1  0.92517500  0.92517500  0.00000000  1
  O  O7  1  0.07482500  0.07482500  0.00000000  1
  O  O8  1  0.14447700  0.64447700  0.50000000  1
  O  O9  1  0.64447700  0.14447700  0.50000000  1
loop_
_geom_bond_atom_site_label_1
_geom_bond_atom_site_label_2
_geom_bond_distance
_geom_bond_site_symmetry_2
Li0 O1 2.092392 1_556
Li0 O1 2.092392 1_455
Li0 O2 2.092392 1_555
Li0 O2 2.092392 1_566
Li0 O0 2.799739 1_555
Li0 O8 2.799739 1_555
Li1 O1 2.092392 1_556
Li1 O1 2.092392 1_545
Li1 O2 2.092392 1_555
Li1 O2 2.092392 1_656
Li1 O4 2.799739 1_555
Li1 O9 2.799739 1_555
Ca0 O0 2.543733 1_555
Ca0 O4 2.543733 1_555
Ca0 O4 2.543733 1_454
Ca0 O0 2.543733 1_544
Ca0 O6 2.832111 1_556
Ca0 O6 2.832111 1_444
Ca0 O6 2.832111 1_455
Ca0 O6 2.832111 1_545
Ca0 O3 3.008677 1_565
Ca0 O3 3.008677 1_554
Ca0 O5 3.008677 1_655
Ca0 O5 3.008677 1_554
Ca1 O9 2.543733 1_554
Ca1 O8 2.543733 1_554
Ca1 O8 2.543733 1_655
Ca1 O9 2.543733 1_565
Ca1 O7 2.832111 1_655
Ca1 O7 2.832111 1_554
Ca1 O7 2.832111 1_565
Ca1 O7 2.832111 1_666
Ca1 O3 3.008677 1_565
Ca1 O5 3.008677 1_655
Ca1 O5 3.008677 1_554
Ca1 O3 3.008677 1_554
O0 Ta0 2.011269 1_556
O0 Ta0 2.011269 1_455
O0 O6 2.718386 1_556
O0 O6 2.718386 1_455
O0 O4 2.819392 1_555
O0 O4 2.819392 1_566
O0 O4 2.819392 1_454
O0 O4 2.819392 1_465
O1 Ta0 1.898499 1_555
O2 Ta2 1.898499 1_555
O3 Ta1 1.993611 1_555
O3 Ta1 1.993611 1_656
O4 Ta0 2.011269 1_556
O4 Ta0 2.011269 1_545
O4 O6 2.718386 1_556
O4 O6 2.718386 1_545
O5 Ta1 1.993611 1_555
O5 Ta1 1.993611 1_566
O6 Ta1 1.985259 1_665
O6 Ta0 2.113939 1_555
O7 Ta1 1.985259 1_555
O7 Ta2 2.113939 1_555
O7 O8 2.718386 1_555
O7 O9 2.718386 1_555
O7 O8 2.718386 1_544
O7 O9 2.718386 1_454
O8 Ta2 2.011269 1_555
O8 Ta2 2.011269 1_566
O8 O9 2.819392 1_465
O8 O9 2.819392 1_555
O8 O9 2.819392 1_566
O8 O9 2.819392 1_454
O9 Ta2 2.011269 1_555
O9 Ta2 2.011269 1_656
