# generated using pymatgen
data_Li2TiVO4
_symmetry_space_group_name_H-M   'P 1'
_cell_length_a   5.23394526
_cell_length_b   7.87080592
_cell_length_c   7.87102327
_cell_angle_alpha   97.83026945
_cell_angle_beta   102.45078924
_cell_angle_gamma   102.45280487
_symmetry_Int_Tables_number   1
_chemical_formula_structural   Li2TiVO4
_chemical_formula_sum   'Li8 Ti4 V4 O16'
_cell_volume   303.44448519
_cell_formula_units_Z   4
loop_
 _symmetry_equiv_pos_site_id
 _symmetry_equiv_pos_as_xyz
  1  'x, y, z'
loop_
 _atom_site_type_symbol
 _atom_site_label
 _atom_site_symmetry_multiplicity
 _atom_site_fract_x
 _atom_site_fract_y
 _atom_site_fract_z
 _atom_site_occupancy
  Li  Li0  1  0.00206500  0.62528500  0.87523900  1
  Li  Li1  1  0.99792300  0.37469400  0.12475900  1
  Li  Li2  1  0.00206900  0.87525000  0.62529000  1
  Li  Li3  1  0.99793400  0.12476000  0.37471700  1
  Li  Li4  1  0.00001500  0.00000900  0.00000500  1
  Li  Li5  1  0.00006100  0.75057000  0.24946100  1
  Li  Li6  1  0.99994600  0.24941700  0.75055000  1
  Li  Li7  1  0.99997400  0.49997800  0.49999100  1
  Ti  Ti0  1  0.50003500  0.49989500  0.00001100  1
  Ti  Ti1  1  0.49692900  0.25667600  0.25675300  1
  Ti  Ti2  1  0.50305200  0.74336600  0.74320600  1
  Ti  Ti3  1  0.49997500  0.00010700  0.50000300  1
  V  V0  1  0.49998600  0.88027200  0.11969900  1
  V  V1  1  0.50002200  0.11972100  0.88019600  1
  V  V2  1  0.49998600  0.62833700  0.37182700  1
  V  V3  1  0.49998800  0.37170000  0.62830100  1
  O  O0  1  0.72980900  0.37536200  0.88410400  1
  O  O1  1  0.73295500  0.13087700  0.13100700  1
  O  O2  1  0.73424000  0.62964500  0.62965600  1
  O  O3  1  0.72963700  0.88410100  0.37522000  1
  O  O4  1  0.26702900  0.86897000  0.86911300  1
  O  O5  1  0.27036200  0.62479200  0.11594200  1
  O  O6  1  0.27019200  0.11586900  0.62461400  1
  O  O7  1  0.26577800  0.37035300  0.37036800  1
  O  O8  1  0.73045400  0.74176400  0.99017400  1
  O  O9  1  0.73463100  0.49324800  0.24207900  1
  O  O10  1  0.73056900  0.99018100  0.74172000  1
  O  O11  1  0.73470400  0.24210300  0.49327100  1
  O  O12  1  0.26547600  0.50683800  0.75793000  1
  O  O13  1  0.26940300  0.25827100  0.00975100  1
  O  O14  1  0.26538800  0.75791600  0.50684400  1
  O  O15  1  0.26940500  0.00969500  0.25822400  1
loop_
_geom_bond_atom_site_label_1
_geom_bond_atom_site_label_2
_geom_bond_distance
_geom_bond_site_symmetry_2
Li0 O5 2.102028 1_556
Li0 O12 2.119228 1_555
Li0 O4 2.123952 1_555
Li0 O8 2.137866 1_455
Li0 O2 2.138467 1_455
Li0 O0 2.185470 1_455
Li1 O0 2.101658 1_554
Li1 O9 2.119189 1_555
Li1 O1 2.125032 1_555
Li1 O13 2.137349 1_655
Li1 O7 2.138654 1_655
Li1 O5 2.186856 1_655
Li2 O6 2.101400 1_565
Li2 O14 2.118922 1_555
Li2 O4 2.125206 1_555
Li2 O10 2.137159 1_455
Li2 O2 2.138537 1_455
Li2 O3 2.186836 1_455
Li3 O3 2.101704 1_545
Li3 O11 2.119010 1_555
Li3 O1 2.124203 1_555
Li3 O15 2.137821 1_655
Li3 O7 2.138464 1_655
Li3 O6 2.185465 1_655
Li4 O15 2.190983 1_555
Li4 O13 2.191048 1_555
Li4 O8 2.191184 1_444
Li4 O10 2.191261 1_444
Li4 O1 2.242984 1_455
Li4 O4 2.243041 1_544
Li5 O9 2.180600 1_455
Li5 O14 2.180901 1_555
Li5 O15 2.198071 1_565
Li5 O8 2.199679 1_454
Li5 O5 2.246695 1_555
Li5 O3 2.247201 1_455
Li6 O11 2.180124 1_555
Li6 O12 2.181443 1_655
Li6 O10 2.198709 1_545
Li6 O13 2.198718 1_656
Li6 O0 2.246811 1_555
Li6 O6 2.247219 1_655
Li7 O11 2.184912 1_555
Li7 O9 2.185375 1_555
Li7 O14 2.185377 1_655
Li7 O12 2.185656 1_655
Li7 O7 2.226625 1_655
Li7 O2 2.226675 1_555
O0 Ti0 1.994284 1_556
O0 V1 2.102261 1_555
O0 V3 2.103935 1_555
O1 V0 2.062389 1_545
O1 V1 2.063994 1_554
O1 Ti1 2.067312 1_555
O2 Ti2 1.944111 1_555
O2 V2 2.130187 1_555
O2 V3 2.130761 1_555
O3 Ti3 1.995318 1_565
O3 V0 2.101451 1_555
O3 V2 2.103781 1_555
O4 V0 2.062336 1_556
O4 V1 2.063763 1_565
O4 Ti2 2.067155 1_555
O5 Ti0 1.995559 1_555
O5 V0 2.101182 1_555
O5 V2 2.104320 1_555
O6 Ti3 1.994073 1_555
O6 V1 2.102147 1_555
O6 V3 2.103938 1_555
O7 Ti1 1.944040 1_555
O7 V3 2.130704 1_555
O7 V2 2.130726 1_555
O8 Ti0 2.043235 1_556
O8 Ti2 2.052066 1_555
O8 V0 2.116003 1_556
O9 Ti1 2.037095 1_555
O9 Ti0 2.046147 1_555
O9 V2 2.118928 1_555
O10 Ti3 2.042918 1_565
O10 Ti2 2.050982 1_555
O10 V1 2.116247 1_565
O11 Ti1 2.036755 1_555
O11 Ti3 2.046079 1_555
O11 V3 2.118322 1_555
O12 Ti2 2.036664 1_555
O12 Ti0 2.046809 1_556
O12 V3 2.118089 1_555
O13 Ti0 2.041895 1_555
O13 Ti1 2.052517 1_555
O13 V1 2.116939 1_554
O14 Ti2 2.035481 1_555
O14 Ti3 2.047256 1_565
O14 V2 2.117699 1_555
O15 Ti3 2.042486 1_555
O15 Ti1 2.052040 1_555
O15 V0 2.116116 1_545
