# generated using pymatgen
data_Nd2CdPd2
_symmetry_space_group_name_H-M   'P 1'
_cell_length_a   15.60000246
_cell_length_b   15.60000246
_cell_length_c   7.77631482
_cell_angle_alpha   90.00000000
_cell_angle_beta   90.00000000
_cell_angle_gamma   90.00000000
_symmetry_Int_Tables_number   1
_chemical_formula_structural   Nd2CdPd2
_chemical_formula_sum   'Nd32 Cd16 Pd32'
_cell_volume   1892.44457144
_cell_formula_units_Z   16
loop_
 _symmetry_equiv_pos_site_id
 _symmetry_equiv_pos_as_xyz
  1  'x, y, z'
loop_
 _atom_site_type_symbol
 _atom_site_label
 _atom_site_symmetry_multiplicity
 _atom_site_fract_x
 _atom_site_fract_y
 _atom_site_fract_z
 _atom_site_occupancy
  Nd  Nd0_0  1  0.33723088  0.08723089  0.25000000  1
  Nd  Nd0_1  1  0.33723088  0.08723089  0.75000000  1
  Nd  Nd0_2  1  0.33723088  0.58723089  0.25000000  1
  Nd  Nd0_3  1  0.33723088  0.58723089  0.75000000  1
  Nd  Nd0_4  1  0.83723089  0.08723089  0.25000000  1
  Nd  Nd0_5  1  0.83723089  0.08723089  0.75000000  1
  Nd  Nd0_6  1  0.83723089  0.58723089  0.25000000  1
  Nd  Nd0_7  1  0.83723089  0.58723089  0.75000000  1
  Nd  Nd1_0  1  0.16276911  0.41276912  0.25000000  1
  Nd  Nd1_1  1  0.16276911  0.41276912  0.75000000  1
  Nd  Nd1_2  1  0.16276911  0.91276912  0.25000000  1
  Nd  Nd1_3  1  0.16276911  0.91276912  0.75000000  1
  Nd  Nd1_4  1  0.66276912  0.41276912  0.25000000  1
  Nd  Nd1_5  1  0.66276912  0.41276912  0.75000000  1
  Nd  Nd1_6  1  0.66276912  0.91276912  0.25000000  1
  Nd  Nd1_7  1  0.66276912  0.91276912  0.75000000  1
  Nd  Nd2_0  1  0.08723089  0.16276911  0.25000000  1
  Nd  Nd2_1  1  0.08723089  0.16276911  0.75000000  1
  Nd  Nd2_2  1  0.08723089  0.66276912  0.25000000  1
  Nd  Nd2_3  1  0.08723089  0.66276912  0.75000000  1
  Nd  Nd2_4  1  0.58723089  0.16276911  0.25000000  1
  Nd  Nd2_5  1  0.58723089  0.16276911  0.75000000  1
  Nd  Nd2_6  1  0.58723089  0.66276912  0.25000000  1
  Nd  Nd2_7  1  0.58723089  0.66276912  0.75000000  1
  Nd  Nd3_0  1  0.41276912  0.33723088  0.25000000  1
  Nd  Nd3_1  1  0.41276912  0.33723088  0.75000000  1
  Nd  Nd3_2  1  0.41276912  0.83723089  0.25000000  1
  Nd  Nd3_3  1  0.41276912  0.83723089  0.75000000  1
  Nd  Nd3_4  1  0.91276912  0.33723088  0.25000000  1
  Nd  Nd3_5  1  0.91276912  0.33723088  0.75000000  1
  Nd  Nd3_6  1  0.91276912  0.83723089  0.25000000  1
  Nd  Nd3_7  1  0.91276912  0.83723089  0.75000000  1
  Cd  Cd0_0  1  0.00000000  0.00000000  0.00000000  1
  Cd  Cd0_1  1  0.00000000  0.00000000  0.50000000  1
  Cd  Cd0_2  1  0.00000000  0.50000000  0.00000000  1
  Cd  Cd0_3  1  0.00000000  0.50000000  0.50000000  1
  Cd  Cd0_4  1  0.50000000  0.00000000  0.00000000  1
  Cd  Cd0_5  1  0.50000000  0.00000000  0.50000000  1
  Cd  Cd0_6  1  0.50000000  0.50000000  0.00000000  1
  Cd  Cd0_7  1  0.50000000  0.50000000  0.50000000  1
  Cd  Cd1_0  1  0.25000000  0.25000000  0.00000000  1
  Cd  Cd1_1  1  0.25000000  0.25000000  0.50000000  1
  Cd  Cd1_2  1  0.25000000  0.75000000  0.00000000  1
  Cd  Cd1_3  1  0.25000000  0.75000000  0.50000000  1
  Cd  Cd1_4  1  0.75000000  0.25000000  0.00000000  1
  Cd  Cd1_5  1  0.75000000  0.25000000  0.50000000  1
  Cd  Cd1_6  1  0.75000000  0.75000000  0.00000000  1
  Cd  Cd1_7  1  0.75000000  0.75000000  0.50000000  1
  Pd  Pd0_0  1  0.06338986  0.31338986  0.00000000  1
  Pd  Pd0_1  1  0.06338986  0.31338986  0.50000000  1
  Pd  Pd0_2  1  0.06338986  0.81338986  0.00000000  1
  Pd  Pd0_3  1  0.06338986  0.81338986  0.50000000  1
  Pd  Pd0_4  1  0.56338986  0.31338986  0.00000000  1
  Pd  Pd0_5  1  0.56338986  0.31338986  0.50000000  1
  Pd  Pd0_6  1  0.56338986  0.81338986  0.00000000  1
  Pd  Pd0_7  1  0.56338986  0.81338986  0.50000000  1
  Pd  Pd1_0  1  0.43661014  0.18661014  0.00000000  1
  Pd  Pd1_1  1  0.43661014  0.18661014  0.50000000  1
  Pd  Pd1_2  1  0.43661014  0.68661014  0.00000000  1
  Pd  Pd1_3  1  0.43661014  0.68661014  0.50000000  1
  Pd  Pd1_4  1  0.93661014  0.18661014  0.00000000  1
  Pd  Pd1_5  1  0.93661014  0.18661014  0.50000000  1
  Pd  Pd1_6  1  0.93661014  0.68661014  0.00000000  1
  Pd  Pd1_7  1  0.93661014  0.68661014  0.50000000  1
  Pd  Pd2_0  1  0.31338986  0.43661014  0.00000000  1
  Pd  Pd2_1  1  0.31338986  0.43661014  0.50000000  1
  Pd  Pd2_2  1  0.31338986  0.93661014  0.00000000  1
  Pd  Pd2_3  1  0.31338986  0.93661014  0.50000000  1
  Pd  Pd2_4  1  0.81338986  0.43661014  0.00000000  1
  Pd  Pd2_5  1  0.81338986  0.43661014  0.50000000  1
  Pd  Pd2_6  1  0.81338986  0.93661014  0.00000000  1
  Pd  Pd2_7  1  0.81338986  0.93661014  0.50000000  1
  Pd  Pd3_0  1  0.18661014  0.06338986  0.00000000  1
  Pd  Pd3_1  1  0.18661014  0.06338986  0.50000000  1
  Pd  Pd3_2  1  0.18661014  0.56338986  0.00000000  1
  Pd  Pd3_3  1  0.18661014  0.56338986  0.50000000  1
  Pd  Pd3_4  1  0.68661014  0.06338986  0.00000000  1
  Pd  Pd3_5  1  0.68661014  0.06338986  0.50000000  1
  Pd  Pd3_6  1  0.68661014  0.56338986  0.00000000  1
  Pd  Pd3_7  1  0.68661014  0.56338986  0.50000000  1
loop_
_geom_bond_atom_site_label_1
_geom_bond_atom_site_label_2
_geom_bond_distance
_geom_bond_site_symmetry_2
Nd0_0 Pd1_0 2.930257 1_555
Nd0_0 Pd1_1 2.930257 1_555
Nd0_0 Pd2_3 3.072260 1_545
Nd0_0 Pd3_0 3.072260 1_555
Nd0_0 Pd3_1 3.072260 1_555
Nd0_0 Pd2_2 3.072260 1_545
Nd0_1 Pd1_1 2.930257 1_555
Nd0_1 Pd1_0 2.930257 1_556
Nd0_1 Pd2_3 3.072260 1_545
Nd0_1 Pd3_1 3.072260 1_555
Nd0_1 Pd2_2 3.072260 1_546
Nd0_1 Pd3_0 3.072260 1_556
Nd0_2 Pd1_3 2.930257 1_555
Nd0_2 Pd1_2 2.930257 1_555
Nd0_2 Pd2_0 3.072260 1_555
Nd0_2 Pd3_2 3.072260 1_555
Nd0_2 Pd3_3 3.072260 1_555
Nd0_2 Pd2_1 3.072260 1_555
Nd0_3 Pd1_3 2.930257 1_555
Nd0_3 Pd1_2 2.930257 1_556
Nd0_3 Pd3_3 3.072260 1_555
Nd0_3 Pd2_1 3.072260 1_555
Nd0_3 Pd3_2 3.072260 1_556
Nd0_3 Pd2_0 3.072260 1_556
Nd0_4 Pd1_4 2.930257 1_555
Nd0_4 Pd1_5 2.930257 1_555
Nd0_4 Pd2_6 3.072260 1_545
Nd0_4 Pd2_7 3.072260 1_545
Nd0_4 Pd3_4 3.072260 1_555
Nd0_4 Pd3_5 3.072260 1_555
Nd0_5 Pd1_5 2.930257 1_555
Nd0_5 Pd1_4 2.930257 1_556
Nd0_5 Pd2_7 3.072260 1_545
Nd0_5 Pd2_6 3.072260 1_546
Nd0_5 Pd3_5 3.072260 1_555
Nd0_5 Pd3_4 3.072260 1_556
Nd0_6 Pd1_6 2.930257 1_555
Nd0_6 Pd1_7 2.930257 1_555
Nd0_6 Pd2_4 3.072260 1_555
Nd0_6 Pd2_5 3.072260 1_555
Nd0_6 Pd3_6 3.072260 1_555
Nd0_6 Pd3_7 3.072260 1_555
Nd0_7 Pd1_7 2.930257 1_555
Nd0_7 Pd1_6 2.930257 1_556
Nd0_7 Pd2_5 3.072260 1_555
Nd0_7 Pd2_4 3.072260 1_556
Nd0_7 Pd3_7 3.072260 1_555
Nd0_7 Pd3_6 3.072260 1_556
Nd1_0 Pd0_0 2.930257 1_555
Nd1_0 Pd0_1 2.930257 1_555
Nd1_0 Pd3_2 3.072260 1_555
Nd1_0 Pd3_3 3.072260 1_555
Nd1_0 Pd2_1 3.072260 1_555
Nd1_0 Pd2_0 3.072260 1_555
Nd1_1 Pd0_1 2.930257 1_555
Nd1_1 Pd0_0 2.930257 1_556
Nd1_1 Pd3_3 3.072260 1_555
Nd1_1 Pd2_1 3.072260 1_555
Nd1_1 Pd3_2 3.072260 1_556
Nd1_1 Pd2_0 3.072260 1_556
Nd1_2 Pd0_3 2.930257 1_555
Nd1_2 Pd0_2 2.930257 1_555
Nd1_2 Pd3_0 3.072260 1_565
Nd1_2 Pd3_1 3.072260 1_565
Nd1_2 Pd2_2 3.072260 1_555
Nd1_2 Pd2_3 3.072260 1_555
Nd1_3 Pd0_3 2.930257 1_555
Nd1_3 Pd0_2 2.930257 1_556
Nd1_3 Pd3_1 3.072260 1_565
Nd1_3 Pd2_3 3.072260 1_555
Nd1_3 Pd3_0 3.072260 1_566
Nd1_3 Pd2_2 3.072260 1_556
Nd1_4 Pd0_4 2.930257 1_555
Nd1_4 Pd0_5 2.930257 1_555
Nd1_4 Pd3_7 3.072260 1_555
Nd1_4 Pd3_6 3.072260 1_555
Nd1_4 Pd2_4 3.072260 1_555
Nd1_4 Pd2_5 3.072260 1_555
Nd1_5 Pd0_5 2.930257 1_555
Nd1_5 Pd0_4 2.930257 1_556
Nd1_5 Pd3_7 3.072260 1_555
Nd1_5 Pd3_6 3.072260 1_556
Nd1_5 Pd2_5 3.072260 1_555
Nd1_5 Pd2_4 3.072260 1_556
Nd1_6 Pd0_6 2.930257 1_555
Nd1_6 Pd0_7 2.930257 1_555
Nd1_6 Pd3_4 3.072260 1_565
Nd1_6 Pd3_5 3.072260 1_565
Nd1_6 Pd2_7 3.072260 1_555
Nd1_6 Pd2_6 3.072260 1_555
Nd1_7 Pd0_7 2.930257 1_555
Nd1_7 Pd0_6 2.930257 1_556
Nd1_7 Pd3_5 3.072260 1_565
Nd1_7 Pd3_4 3.072260 1_566
Nd1_7 Pd2_7 3.072260 1_555
Nd1_7 Pd2_6 3.072260 1_556
Nd2_0 Pd3_0 2.930257 1_555
Nd2_0 Pd3_1 2.930257 1_555
Nd2_0 Pd1_4 3.072260 1_455
Nd2_0 Pd1_5 3.072260 1_455
Nd2_0 Pd0_0 3.072260 1_555
Nd2_0 Pd0_1 3.072260 1_555
Nd2_1 Pd3_1 2.930257 1_555
Nd2_1 Pd3_0 2.930257 1_556
Nd2_1 Pd1_5 3.072260 1_455
Nd2_1 Pd1_4 3.072260 1_456
Nd2_1 Pd0_1 3.072260 1_555
Nd2_1 Pd0_0 3.072260 1_556
Nd2_2 Pd3_3 2.930257 1_555
Nd2_2 Pd3_2 2.930257 1_555
Nd2_2 Pd1_7 3.072260 1_455
Nd2_2 Pd1_6 3.072260 1_455
Nd2_2 Pd0_3 3.072260 1_555
Nd2_2 Pd0_2 3.072260 1_555
Nd2_3 Pd3_3 2.930257 1_555
Nd2_3 Pd3_2 2.930257 1_556
Nd2_3 Pd1_7 3.072260 1_455
Nd2_3 Pd1_6 3.072260 1_456
Nd2_3 Pd0_3 3.072260 1_555
Nd2_3 Pd0_2 3.072260 1_556
Nd2_4 Pd3_4 2.930257 1_555
Nd2_4 Pd3_5 2.930257 1_555
Nd2_4 Pd1_1 3.072260 1_555
Nd2_4 Pd1_0 3.072260 1_555
Nd2_4 Pd0_4 3.072260 1_555
Nd2_4 Pd0_5 3.072260 1_555
Nd2_5 Pd3_5 2.930257 1_555
Nd2_5 Pd3_4 2.930257 1_556
Nd2_5 Pd1_1 3.072260 1_555
Nd2_5 Pd0_5 3.072260 1_555
Nd2_5 Pd1_0 3.072260 1_556
Nd2_5 Pd0_4 3.072260 1_556
Nd2_6 Pd3_6 2.930257 1_555
Nd2_6 Pd3_7 2.930257 1_555
Nd2_6 Pd1_2 3.072260 1_555
Nd2_6 Pd1_3 3.072260 1_555
Nd2_6 Pd0_7 3.072260 1_555
Nd2_6 Pd0_6 3.072260 1_555
Nd2_7 Pd3_7 2.930257 1_555
Nd2_7 Pd3_6 2.930257 1_556
Nd2_7 Pd1_3 3.072260 1_555
Nd2_7 Pd1_2 3.072260 1_556
Nd2_7 Pd0_7 3.072260 1_555
Nd2_7 Pd0_6 3.072260 1_556
Nd3_0 Pd2_1 2.930257 1_555
Nd3_0 Pd2_0 2.930257 1_555
Nd3_0 Pd1_1 3.072260 1_555
Nd3_0 Pd0_4 3.072260 1_555
Nd3_0 Pd0_5 3.072260 1_555
Nd3_0 Pd1_0 3.072260 1_555
Nd3_1 Pd2_1 2.930257 1_555
Nd3_1 Pd2_0 2.930257 1_556
Nd3_1 Pd0_5 3.072260 1_555
Nd3_1 Pd1_1 3.072260 1_555
Nd3_1 Pd1_0 3.072260 1_556
Nd3_1 Pd0_4 3.072260 1_556
Nd3_2 Pd2_2 2.930257 1_555
Nd3_2 Pd2_3 2.930257 1_555
Nd3_2 Pd0_6 3.072260 1_555
Nd3_2 Pd0_7 3.072260 1_555
Nd3_2 Pd1_2 3.072260 1_555
Nd3_2 Pd1_3 3.072260 1_555
Nd3_3 Pd2_3 2.930257 1_555
Nd3_3 Pd2_2 2.930257 1_556
Nd3_3 Pd0_7 3.072260 1_555
Nd3_3 Pd0_6 3.072260 1_556
Nd3_3 Pd1_3 3.072260 1_555
Nd3_3 Pd1_2 3.072260 1_556
Nd3_4 Pd2_5 2.930257 1_555
Nd3_4 Pd2_4 2.930257 1_555
Nd3_4 Pd0_1 3.072260 1_655
Nd3_4 Pd1_4 3.072260 1_555
Nd3_4 Pd1_5 3.072260 1_555
Nd3_4 Pd0_0 3.072260 1_655
Nd3_5 Pd2_5 2.930257 1_555
Nd3_5 Pd2_4 2.930257 1_556
Nd3_5 Pd1_5 3.072260 1_555
Nd3_5 Pd0_1 3.072260 1_655
Nd3_5 Pd1_4 3.072260 1_556
Nd3_5 Pd0_0 3.072260 1_656
Nd3_6 Pd2_6 2.930257 1_555
Nd3_6 Pd2_7 2.930257 1_555
Nd3_6 Pd0_2 3.072260 1_655
Nd3_6 Pd0_3 3.072260 1_655
Nd3_6 Pd1_6 3.072260 1_555
Nd3_6 Pd1_7 3.072260 1_555
Nd3_7 Pd2_7 2.930257 1_555
Nd3_7 Pd2_6 2.930257 1_556
Nd3_7 Pd0_3 3.072260 1_655
Nd3_7 Pd0_2 3.072260 1_656
Nd3_7 Pd1_7 3.072260 1_555
Nd3_7 Pd1_6 3.072260 1_556
Cd0_0 Pd2_6 3.074492 1_445
Cd0_0 Pd0_2 3.074492 1_545
Cd0_0 Pd1_4 3.074492 1_455
Cd0_0 Pd3_0 3.074492 1_555
Cd0_0 Nd3_6 3.475450 1_445
Cd0_0 Nd3_7 3.475450 1_444
Cd0_0 Nd0_4 3.475450 1_455
Cd0_0 Nd0_5 3.475450 1_454
Cd0_0 Nd1_2 3.475450 1_545
Cd0_0 Nd2_0 3.475450 1_555
Cd0_0 Nd1_3 3.475450 1_544
Cd0_0 Nd2_1 3.475450 1_554
Cd0_0 Cd0_1 3.888157 1_555
Cd0_0 Cd0_1 3.888157 1_554
Cd0_1 Pd2_7 3.074492 1_445
Cd0_1 Pd0_3 3.074492 1_545
Cd0_1 Pd1_5 3.074492 1_455
Cd0_1 Pd3_1 3.074492 1_555
Cd0_1 Nd0_5 3.475450 1_455
Cd0_1 Nd3_6 3.475450 1_445
Cd0_1 Nd3_7 3.475450 1_445
Cd0_1 Nd0_4 3.475450 1_455
Cd0_1 Nd1_3 3.475450 1_545
Cd0_1 Nd1_2 3.475450 1_545
Cd0_1 Nd2_0 3.475450 1_555
Cd0_1 Nd2_1 3.475450 1_555
Cd0_2 Pd2_4 3.074492 1_455
Cd0_2 Pd1_6 3.074492 1_455
Cd0_2 Pd0_0 3.074492 1_555
Cd0_2 Pd3_2 3.074492 1_555
Cd0_2 Nd0_6 3.475450 1_455
Cd0_2 Nd0_7 3.475450 1_454
Cd0_2 Nd1_0 3.475450 1_555
Cd0_2 Nd2_2 3.475450 1_555
Cd0_2 Nd3_4 3.475450 1_455
Cd0_2 Nd1_1 3.475450 1_554
Cd0_2 Nd2_3 3.475450 1_554
Cd0_2 Nd3_5 3.475450 1_454
Cd0_2 Cd0_3 3.888157 1_555
Cd0_2 Cd0_3 3.888157 1_554
Cd0_3 Pd2_5 3.074492 1_455
Cd0_3 Pd1_7 3.074492 1_455
Cd0_3 Pd0_1 3.074492 1_555
Cd0_3 Pd3_3 3.074492 1_555
Cd0_3 Nd0_7 3.475450 1_455
Cd0_3 Nd0_6 3.475450 1_455
Cd0_3 Nd1_1 3.475450 1_555
Cd0_3 Nd2_3 3.475450 1_555
Cd0_3 Nd1_0 3.475450 1_555
Cd0_3 Nd3_5 3.475450 1_455
Cd0_3 Nd2_2 3.475450 1_555
Cd0_3 Nd3_4 3.475450 1_455
Cd0_4 Pd0_6 3.074492 1_545
Cd0_4 Pd2_2 3.074492 1_545
Cd0_4 Pd1_0 3.074492 1_555
Cd0_4 Pd3_4 3.074492 1_555
Cd0_4 Nd3_2 3.475450 1_545
Cd0_4 Nd3_3 3.475450 1_544
Cd0_4 Nd0_0 3.475450 1_555
Cd0_4 Nd2_4 3.475450 1_555
Cd0_4 Nd1_6 3.475450 1_545
Cd0_4 Nd1_7 3.475450 1_544
Cd0_4 Nd0_1 3.475450 1_554
Cd0_4 Nd2_5 3.475450 1_554
Cd0_4 Cd0_5 3.888157 1_555
Cd0_4 Cd0_5 3.888157 1_554
Cd0_5 Pd0_7 3.074492 1_545
Cd0_5 Pd2_3 3.074492 1_545
Cd0_5 Pd3_5 3.074492 1_555
Cd0_5 Pd1_1 3.074492 1_555
Cd0_5 Nd3_3 3.475450 1_545
Cd0_5 Nd3_2 3.475450 1_545
Cd0_5 Nd0_1 3.475450 1_555
Cd0_5 Nd1_7 3.475450 1_545
Cd0_5 Nd0_0 3.475450 1_555
Cd0_5 Nd2_5 3.475450 1_555
Cd0_5 Nd2_4 3.475450 1_555
Cd0_5 Nd1_6 3.475450 1_545
Cd0_6 Pd2_0 3.074492 1_555
Cd0_6 Pd1_2 3.074492 1_555
Cd0_6 Pd0_4 3.074492 1_555
Cd0_6 Pd3_6 3.074492 1_555
Cd0_6 Nd1_4 3.475450 1_555
Cd0_6 Nd3_0 3.475450 1_555
Cd0_6 Nd3_1 3.475450 1_554
Cd0_6 Nd0_2 3.475450 1_555
Cd0_6 Nd1_5 3.475450 1_554
Cd0_6 Nd2_6 3.475450 1_555
Cd0_6 Nd2_7 3.475450 1_554
Cd0_6 Nd0_3 3.475450 1_554
Cd0_6 Cd0_7 3.888157 1_555
Cd0_6 Cd0_7 3.888157 1_554
Cd0_7 Pd1_3 3.074492 1_555
Cd0_7 Pd2_1 3.074492 1_555
Cd0_7 Pd0_5 3.074492 1_555
Cd0_7 Pd3_7 3.074492 1_555
Cd0_7 Nd1_5 3.475450 1_555
Cd0_7 Nd3_1 3.475450 1_555
Cd0_7 Nd0_3 3.475450 1_555
Cd0_7 Nd1_4 3.475450 1_555
Cd0_7 Nd2_7 3.475450 1_555
Cd0_7 Nd3_0 3.475450 1_555
Cd0_7 Nd0_2 3.475450 1_555
Cd0_7 Nd2_6 3.475450 1_555
Cd1_0 Pd0_0 3.074492 1_555
Cd1_0 Pd3_0 3.074492 1_555
Cd1_0 Pd1_0 3.074492 1_555
Cd1_0 Pd2_0 3.074492 1_555
Cd1_0 Nd0_0 3.475450 1_555
Cd1_0 Nd2_0 3.475450 1_555
Cd1_0 Nd0_1 3.475450 1_554
Cd1_0 Nd2_1 3.475450 1_554
Cd1_0 Nd1_0 3.475450 1_555
Cd1_0 Nd3_0 3.475450 1_555
Cd1_0 Nd3_1 3.475450 1_554
Cd1_0 Nd1_1 3.475450 1_554
Cd1_0 Cd1_1 3.888157 1_555
Cd1_0 Cd1_1 3.888157 1_554
Cd1_1 Pd0_1 3.074492 1_555
Cd1_1 Pd3_1 3.074492 1_555
Cd1_1 Pd2_1 3.074492 1_555
Cd1_1 Pd1_1 3.074492 1_555
Cd1_1 Nd0_1 3.475450 1_555
Cd1_1 Nd2_1 3.475450 1_555
Cd1_1 Nd0_0 3.475450 1_555
Cd1_1 Nd2_0 3.475450 1_555
Cd1_1 Nd1_1 3.475450 1_555
Cd1_1 Nd3_1 3.475450 1_555
Cd1_1 Nd3_0 3.475450 1_555
Cd1_1 Nd1_0 3.475450 1_555
Cd1_2 Pd3_2 3.074492 1_555
Cd1_2 Pd0_2 3.074492 1_555
Cd1_2 Pd2_2 3.074492 1_555
Cd1_2 Pd1_2 3.074492 1_555
Cd1_2 Nd0_2 3.475450 1_555
Cd1_2 Nd0_3 3.475450 1_554
Cd1_2 Nd2_2 3.475450 1_555
Cd1_2 Nd2_3 3.475450 1_554
Cd1_2 Nd1_2 3.475450 1_555
Cd1_2 Nd3_2 3.475450 1_555
Cd1_2 Nd1_3 3.475450 1_554
Cd1_2 Nd3_3 3.475450 1_554
Cd1_2 Cd1_3 3.888157 1_555
Cd1_2 Cd1_3 3.888157 1_554
Cd1_3 Pd3_3 3.074492 1_555
Cd1_3 Pd0_3 3.074492 1_555
Cd1_3 Pd1_3 3.074492 1_555
Cd1_3 Pd2_3 3.074492 1_555
Cd1_3 Nd0_2 3.475450 1_555
Cd1_3 Nd0_3 3.475450 1_555
Cd1_3 Nd2_3 3.475450 1_555
Cd1_3 Nd2_2 3.475450 1_555
Cd1_3 Nd1_3 3.475450 1_555
Cd1_3 Nd1_2 3.475450 1_555
Cd1_3 Nd3_3 3.475450 1_555
Cd1_3 Nd3_2 3.475450 1_555
Cd1_4 Pd0_4 3.074492 1_555
Cd1_4 Pd3_4 3.074492 1_555
Cd1_4 Pd1_4 3.074492 1_555
Cd1_4 Pd2_4 3.074492 1_555
Cd1_4 Nd2_4 3.475450 1_555
Cd1_4 Nd2_5 3.475450 1_554
Cd1_4 Nd0_4 3.475450 1_555
Cd1_4 Nd1_4 3.475450 1_555
Cd1_4 Nd3_4 3.475450 1_555
Cd1_4 Nd0_5 3.475450 1_554
Cd1_4 Nd3_5 3.475450 1_554
Cd1_4 Nd1_5 3.475450 1_554
Cd1_4 Cd1_5 3.888157 1_555
Cd1_4 Cd1_5 3.888157 1_554
Cd1_5 Pd3_5 3.074492 1_555
Cd1_5 Pd0_5 3.074492 1_555
Cd1_5 Pd1_5 3.074492 1_555
Cd1_5 Pd2_5 3.074492 1_555
Cd1_5 Nd2_5 3.475450 1_555
Cd1_5 Nd2_4 3.475450 1_555
Cd1_5 Nd3_5 3.475450 1_555
Cd1_5 Nd1_5 3.475450 1_555
Cd1_5 Nd0_4 3.475450 1_555
Cd1_5 Nd0_5 3.475450 1_555
Cd1_5 Nd3_4 3.475450 1_555
Cd1_5 Nd1_4 3.475450 1_555
Cd1_6 Pd3_6 3.074492 1_555
Cd1_6 Pd0_6 3.074492 1_555
Cd1_6 Pd1_6 3.074492 1_555
Cd1_6 Pd2_6 3.074492 1_555
Cd1_6 Nd2_6 3.475450 1_555
Cd1_6 Nd2_7 3.475450 1_554
Cd1_6 Nd0_6 3.475450 1_555
Cd1_6 Nd0_7 3.475450 1_554
Cd1_6 Nd1_6 3.475450 1_555
Cd1_6 Nd1_7 3.475450 1_554
Cd1_6 Nd3_6 3.475450 1_555
Cd1_6 Nd3_7 3.475450 1_554
Cd1_6 Cd1_7 3.888157 1_555
Cd1_6 Cd1_7 3.888157 1_554
Cd1_7 Pd3_7 3.074492 1_555
Cd1_7 Pd0_7 3.074492 1_555
Cd1_7 Pd1_7 3.074492 1_555
Cd1_7 Pd2_7 3.074492 1_555
Cd1_7 Nd2_7 3.475450 1_555
Cd1_7 Nd2_6 3.475450 1_555
Cd1_7 Nd0_7 3.475450 1_555
Cd1_7 Nd0_6 3.475450 1_555
Cd1_7 Nd1_7 3.475450 1_555
Cd1_7 Nd1_6 3.475450 1_555
Cd1_7 Nd3_7 3.475450 1_555
Cd1_7 Nd3_6 3.475450 1_555
Pd0_0 Pd1_4 2.796981 1_455
Pd0_1 Pd1_5 2.796981 1_455
Pd0_2 Pd1_6 2.796981 1_455
Pd0_3 Pd1_7 2.796981 1_455
Pd0_4 Pd1_0 2.796981 1_555
Pd0_5 Pd1_1 2.796981 1_555
Pd0_6 Pd1_2 2.796981 1_555
Pd0_7 Pd1_3 2.796981 1_555
Pd2_0 Pd3_2 2.796981 1_555
Pd2_1 Pd3_3 2.796981 1_555
Pd2_2 Pd3_0 2.796981 1_565
Pd2_3 Pd3_1 2.796981 1_565
Pd2_4 Pd3_6 2.796981 1_555
Pd2_5 Pd3_7 2.796981 1_555
Pd2_6 Pd3_4 2.796981 1_565
Pd2_7 Pd3_5 2.796981 1_565
