# generated using pymatgen
data_Zn2InN2
_symmetry_space_group_name_H-M   'P 1'
_cell_length_a   3.49388931
_cell_length_b   3.49457995
_cell_length_c   6.41977413
_cell_angle_alpha   89.99999288
_cell_angle_beta   90.09809862
_cell_angle_gamma   120.00653144
_symmetry_Int_Tables_number   1
_chemical_formula_structural   Zn2InN2
_chemical_formula_sum   'Zn2 In1 N2'
_cell_volume   67.87737940
_cell_formula_units_Z   1
loop_
 _symmetry_equiv_pos_site_id
 _symmetry_equiv_pos_as_xyz
  1  'x, y, z'
loop_
 _atom_site_type_symbol
 _atom_site_label
 _atom_site_symmetry_multiplicity
 _atom_site_fract_x
 _atom_site_fract_y
 _atom_site_fract_z
 _atom_site_occupancy
  Zn  Zn0  1  0.66658600  0.33329400  0.14319100  1
  Zn  Zn1  1  0.33341400  0.66670600  0.85680900  1
  In  In0  1  0.00000000  0.00000000  0.50000000  1
  N  N0  1  0.66650600  0.33325300  0.78015800  1
  N  N1  1  0.33349400  0.66674700  0.21984200  1
loop_
_geom_bond_atom_site_label_1
_geom_bond_atom_site_label_2
_geom_bond_distance
_geom_bond_site_symmetry_2
Zn0 Zn1 2.727991 1_554
Zn0 Zn1 2.728000 1_544
Zn0 Zn1 2.732270 1_654
In0 N0 2.699451 1_555
In0 N1 2.699451 1_445
In0 N0 2.704275 1_445
In0 N1 2.704275 1_555
In0 N0 2.704275 1_455
In0 N1 2.704275 1_545
In0 Zn1 3.050984 1_555
In0 Zn0 3.050984 1_445
In0 Zn1 3.050988 1_545
In0 Zn0 3.050988 1_455
In0 Zn1 3.054969 1_445
In0 Zn0 3.054969 1_555
N0 Zn1 2.075986 1_655
N0 Zn1 2.076724 1_555
N0 Zn1 2.076730 1_545
N0 Zn0 2.330589 1_556
N1 Zn0 2.075986 1_455
N1 Zn0 2.076724 1_555
N1 Zn0 2.076730 1_565
N1 Zn1 2.330589 1_554
