# generated using pymatgen
data_MgMn2(CuO4)2
_symmetry_space_group_name_H-M   'P 1'
_cell_length_a   6.42437163
_cell_length_b   8.27989700
_cell_length_c   11.89926957
_cell_angle_alpha   90.00000000
_cell_angle_beta   90.16562257
_cell_angle_gamma   90.00000000
_symmetry_Int_Tables_number   1
_chemical_formula_structural   MgMn2(CuO4)2
_chemical_formula_sum   'Mg4 Mn8 Cu8 O32'
_cell_volume   632.95681230
_cell_formula_units_Z   4
loop_
 _symmetry_equiv_pos_site_id
 _symmetry_equiv_pos_as_xyz
  1  'x, y, z'
loop_
 _atom_site_type_symbol
 _atom_site_label
 _atom_site_symmetry_multiplicity
 _atom_site_fract_x
 _atom_site_fract_y
 _atom_site_fract_z
 _atom_site_occupancy
  Mg  Mg0  1  0.11316600  0.16513300  0.04871300  1
  Mg  Mg1  1  0.88683400  0.83486700  0.95128700  1
  Mg  Mg2  1  0.88683400  0.66513300  0.45128700  1
  Mg  Mg3  1  0.11316600  0.33486700  0.54871300  1
  Mn  Mn0  1  0.09897800  0.46213600  0.84482600  1
  Mn  Mn1  1  0.09897800  0.03786400  0.34482600  1
  Mn  Mn2  1  0.61246200  0.09011300  0.13150100  1
  Mn  Mn3  1  0.90102200  0.96213600  0.65517400  1
  Mn  Mn4  1  0.38753800  0.90988700  0.86849900  1
  Mn  Mn5  1  0.38753800  0.59011300  0.36849900  1
  Mn  Mn6  1  0.61246200  0.40988700  0.63150100  1
  Mn  Mn7  1  0.90102200  0.53786400  0.15517400  1
  Cu  Cu0  1  0.76446900  0.17567400  0.86455200  1
  Cu  Cu1  1  0.38668600  0.05634700  0.63365000  1
  Cu  Cu2  1  0.61331400  0.94365300  0.36635000  1
  Cu  Cu3  1  0.23553100  0.82432600  0.13544800  1
  Cu  Cu4  1  0.76446900  0.32432600  0.36455200  1
  Cu  Cu5  1  0.38668600  0.44365300  0.13365000  1
  Cu  Cu6  1  0.23553100  0.67567400  0.63544800  1
  Cu  Cu7  1  0.61331400  0.55634700  0.86635000  1
  O  O0  1  0.03375100  0.22933800  0.39399700  1
  O  O1  1  0.67063700  0.01322000  0.59320300  1
  O  O2  1  0.18860300  0.57407900  0.47016100  1
  O  O3  1  0.81139700  0.07407900  0.02983900  1
  O  O4  1  0.03375100  0.27066200  0.89399700  1
  O  O5  1  0.96624900  0.77066200  0.60600300  1
  O  O6  1  0.08747600  0.10380900  0.61691800  1
  O  O7  1  0.51301800  0.89885400  0.14003000  1
  O  O8  1  0.51301800  0.60114600  0.64003000  1
  O  O9  1  0.31971000  0.86911800  0.72896600  1
  O  O10  1  0.68029000  0.36911800  0.77103400  1
  O  O11  1  0.48698200  0.10114600  0.85997000  1
  O  O12  1  0.91252400  0.89619100  0.38308200  1
  O  O13  1  0.87720900  0.53493200  0.29876800  1
  O  O14  1  0.41875100  0.28159500  0.58551900  1
  O  O15  1  0.41875100  0.21840500  0.08551900  1
  O  O16  1  0.12279100  0.03493200  0.20123200  1
  O  O17  1  0.48698200  0.39885400  0.35997000  1
  O  O18  1  0.12279100  0.46506800  0.70123200  1
  O  O19  1  0.81139700  0.42592200  0.52983900  1
  O  O20  1  0.67063700  0.48678000  0.09320300  1
  O  O21  1  0.68029000  0.13088200  0.27103400  1
  O  O22  1  0.96624900  0.72933800  0.10600300  1
  O  O23  1  0.08747600  0.39619100  0.11691800  1
  O  O24  1  0.18860300  0.92592100  0.97016100  1
  O  O25  1  0.58124900  0.78159500  0.91448100  1
  O  O26  1  0.32936300  0.98678000  0.40679700  1
  O  O27  1  0.32936300  0.51322000  0.90679700  1
  O  O28  1  0.91252400  0.60380900  0.88308200  1
  O  O29  1  0.58124900  0.71840500  0.41448100  1
  O  O30  1  0.31971000  0.63088200  0.22896600  1
  O  O31  1  0.87720900  0.96506800  0.79876800  1
loop_
_geom_bond_atom_site_label_1
_geom_bond_atom_site_label_2
_geom_bond_distance
_geom_bond_site_symmetry_2
Mg0 O15 2.058038 1_555
Mg0 O23 2.084894 1_555
Mg0 O3 2.091597 1_455
Mg0 O4 2.099439 1_554
Mg0 O16 2.111659 1_555
Mg0 O24 2.243692 1_544
Mg1 O25 2.058038 1_555
Mg1 O28 2.084894 1_555
Mg1 O24 2.091597 1_655
Mg1 O22 2.099439 1_556
Mg1 O31 2.111659 1_555
Mg1 O3 2.243692 1_566
Mg2 O29 2.058038 1_555
Mg2 O12 2.084894 1_555
Mg2 O2 2.091597 1_655
Mg2 O5 2.099439 1_555
Mg2 O13 2.111659 1_555
Mg2 O19 2.243685 1_555
Mg3 O14 2.058038 1_555
Mg3 O6 2.084894 1_555
Mg3 O19 2.091600 1_455
Mg3 O0 2.099439 1_555
Mg3 O18 2.111659 1_555
Mg3 O2 2.243692 1_555
Mn0 O27 1.704993 1_555
Mn0 O18 1.716111 1_555
Mn0 O28 1.738171 1_455
Mn0 O4 1.741494 1_555
Mn1 O26 1.704993 1_545
Mn1 O16 1.716111 1_555
Mn1 O12 1.738171 1_445
Mn1 O0 1.741494 1_555
Mn2 O7 1.710739 1_545
Mn2 O15 1.724097 1_555
Mn2 O21 1.748250 1_555
Mn2 O3 1.767290 1_555
Mn3 O1 1.704993 1_565
Mn3 O31 1.716111 1_555
Mn3 O6 1.738171 1_665
Mn3 O5 1.741494 1_555
Mn4 O11 1.710739 1_565
Mn4 O25 1.724097 1_555
Mn4 O9 1.748250 1_555
Mn4 O24 1.767290 1_555
Mn5 O17 1.710739 1_555
Mn5 O29 1.724097 1_555
Mn5 O30 1.748250 1_555
Mn5 O2 1.767290 1_555
Mn6 O8 1.710739 1_555
Mn6 O14 1.724097 1_555
Mn6 O10 1.748250 1_555
Mn6 O19 1.767290 1_555
Mn7 O20 1.704993 1_555
Mn7 O13 1.716111 1_555
Mn7 O23 1.738171 1_655
Mn7 O22 1.741494 1_555
Cu0 O11 1.887101 1_555
Cu0 O4 1.931480 1_655
Cu0 O10 2.023049 1_555
Cu0 O31 2.044856 1_545
Cu0 O3 2.159480 1_556
Cu1 O1 1.921447 1_555
Cu1 O14 1.962006 1_555
Cu1 O9 1.969158 1_545
Cu1 O6 1.971510 1_555
Cu2 O26 1.921447 1_555
Cu2 O29 1.962006 1_555
Cu2 O21 1.969158 1_565
Cu2 O12 1.971510 1_555
Cu3 O7 1.887101 1_555
Cu3 O22 1.931480 1_455
Cu3 O30 2.023049 1_555
Cu3 O16 2.044856 1_565
Cu3 O24 2.159480 1_554
Cu4 O17 1.887101 1_555
Cu4 O0 1.931480 1_655
Cu4 O21 2.023049 1_555
Cu4 O13 2.044856 1_555
Cu4 O19 2.159484 1_555
Cu5 O20 1.921447 1_555
Cu5 O15 1.962006 1_555
Cu5 O30 1.969158 1_555
Cu5 O23 1.971510 1_555
Cu6 O8 1.887101 1_555
Cu6 O5 1.931480 1_455
Cu6 O9 2.023049 1_555
Cu6 O18 2.044856 1_555
Cu6 O2 2.159480 1_555
Cu7 O27 1.921447 1_555
Cu7 O25 1.962006 1_555
Cu7 O10 1.969158 1_555
Cu7 O28 1.971510 1_555
