# generated using pymatgen
data_Li5GeP3
_symmetry_space_group_name_H-M   'P 1'
_cell_length_a   7.13660131
_cell_length_b   7.13660131
_cell_length_c   8.34013085
_cell_angle_alpha   73.14344175
_cell_angle_beta   73.14344175
_cell_angle_gamma   48.49003769
_symmetry_Int_Tables_number   1
_chemical_formula_structural   Li5GeP3
_chemical_formula_sum   'Li10 Ge2 P6'
_cell_volume   301.57181041
_cell_formula_units_Z   2
loop_
 _symmetry_equiv_pos_site_id
 _symmetry_equiv_pos_as_xyz
  1  'x, y, z'
loop_
 _atom_site_type_symbol
 _atom_site_label
 _atom_site_symmetry_multiplicity
 _atom_site_fract_x
 _atom_site_fract_y
 _atom_site_fract_z
 _atom_site_occupancy
  Li  Li0  1  0.58480000  0.08043300  0.08678200  1
  Li  Li1  1  0.58712000  0.08314600  0.57795100  1
  Li  Li2  1  0.91956700  0.41520000  0.41321800  1
  Li  Li3  1  0.91685400  0.41288000  0.92204900  1
  Li  Li4  1  0.08314600  0.58712000  0.07795100  1
  Li  Li5  1  0.25429400  0.74570600  0.75000000  1
  Li  Li6  1  0.08043300  0.58480000  0.58678200  1
  Li  Li7  1  0.41288000  0.91685400  0.42204900  1
  Li  Li8  1  0.74570600  0.25429400  0.25000000  1
  Li  Li9  1  0.41520000  0.91956700  0.91321800  1
  Ge  Ge0  1  0.23310200  0.76689800  0.25000000  1
  Ge  Ge1  1  0.76689800  0.23310200  0.75000000  1
  P  P0  1  0.13864300  0.17891000  0.67345500  1
  P  P1  1  0.86135700  0.82109000  0.32654500  1
  P  P2  1  0.17891000  0.13864300  0.17345500  1
  P  P3  1  0.50000000  0.50000000  0.00000000  1
  P  P4  1  0.82109000  0.86135700  0.82654500  1
  P  P5  1  0.50000000  0.50000000  0.50000000  1
loop_
_geom_bond_atom_site_label_1
_geom_bond_atom_site_label_2
_geom_bond_distance
_geom_bond_site_symmetry_2
Li0 P4 2.519809 1_544
Li0 P2 2.539802 1_555
Li0 P3 2.539894 1_555
Li0 P1 2.572952 1_545
Li0 Li4 2.906981 1_645
Li0 Li8 2.913057 1_555
Li0 Li9 2.949596 1_544
Li0 Li7 2.950002 1_545
Li0 Li4 2.955855 1_555
Li1 P4 2.488640 1_545
Li1 P5 2.514050 1_555
Li1 P1 2.601353 1_545
Li1 P0 2.698740 1_555
Li1 Li8 2.890219 1_555
Li1 Li7 2.904123 1_545
Li1 Li6 2.906981 1_645
Li1 Li9 2.950002 1_545
Li1 Li6 2.955855 1_555
Li2 P0 2.519809 1_655
Li2 P1 2.539802 1_555
Li2 P5 2.539894 1_555
Li2 P2 2.572952 1_655
Li2 Li7 2.906981 1_645
Li2 Li8 2.913057 1_555
Li2 Li6 2.949596 1_655
Li2 Li4 2.950002 1_655
Li2 Li7 2.955855 1_555
Li3 P0 2.488640 1_655
Li3 P3 2.514050 1_556
Li3 P2 2.601353 1_656
Li3 P4 2.698740 1_555
Li3 Li8 2.890219 1_556
Li3 Li4 2.904123 1_656
Li3 Li9 2.906981 1_645
Li3 Li6 2.950002 1_655
Li3 Li9 2.955855 1_555
Li4 P1 2.488640 1_455
Li4 P3 2.514050 1_555
Li4 P4 2.601353 1_454
Li4 P2 2.698740 1_555
Li4 Li5 2.890219 1_554
Li5 P5 2.534029 1_555
Li5 P3 2.534029 1_556
Li5 P4 2.534853 1_455
Li5 P0 2.534853 1_565
Li5 Li7 2.890219 1_555
Li5 Li6 2.913057 1_555
Li5 Li9 2.913057 1_555
Li6 P1 2.519809 1_455
Li6 P0 2.539802 1_555
Li6 P5 2.539894 1_555
Li6 P4 2.572952 1_455
Li7 P2 2.488640 1_565
Li7 P5 2.514050 1_555
Li7 P0 2.601353 1_565
Li7 P1 2.698740 1_555
Li8 P3 2.534029 1_555
Li8 P5 2.534029 1_555
Li8 P1 2.534853 1_545
Li8 P2 2.534853 1_655
Li9 P2 2.519809 1_566
Li9 P4 2.539802 1_555
Li9 P3 2.539894 1_556
Li9 P0 2.572952 1_565
Ge0 P1 2.323024 1_455
Ge0 P2 2.323024 1_565
Ge0 P3 2.606622 1_555
Ge0 P5 2.606622 1_555
Ge0 Li8 2.856697 1_465
Ge0 Li4 2.937445 1_555
Ge0 Li7 2.937445 1_555
Ge0 Li6 2.958101 1_555
Ge0 Li9 2.958101 1_554
Ge0 Li8 3.004445 1_555
Ge1 P4 2.323024 1_545
Ge1 P0 2.323024 1_655
Ge1 P5 2.606622 1_555
Ge1 P3 2.606622 1_556
Ge1 Li5 2.856697 1_645
Ge1 Li1 2.937445 1_555
Ge1 Li3 2.937445 1_555
Ge1 Li0 2.958101 1_556
Ge1 Li2 2.958101 1_555
Ge1 Li5 3.004445 1_555
