# generated using pymatgen
data_Zn2SnIrO6
_symmetry_space_group_name_H-M   'P 1'
_cell_length_a   5.34193600
_cell_length_b   5.33763100
_cell_length_c   9.46762235
_cell_angle_alpha   55.64802859
_cell_angle_beta   90.00000000
_cell_angle_gamma   90.00000000
_symmetry_Int_Tables_number   1
_chemical_formula_structural   Zn2SnIrO6
_chemical_formula_sum   'Zn4 Sn2 Ir2 O12'
_cell_volume   222.86963001
_cell_formula_units_Z   2
loop_
 _symmetry_equiv_pos_site_id
 _symmetry_equiv_pos_as_xyz
  1  'x, y, z'
loop_
 _atom_site_type_symbol
 _atom_site_label
 _atom_site_symmetry_multiplicity
 _atom_site_fract_x
 _atom_site_fract_y
 _atom_site_fract_z
 _atom_site_occupancy
  Zn  Zn0  1  0.97124800  0.26069100  0.74985000  1
  Zn  Zn1  1  0.47124800  0.73930900  0.75015000  1
  Zn  Zn2  1  0.52875200  0.26069100  0.24985000  1
  Zn  Zn3  1  0.02875200  0.73930900  0.25015000  1
  Sn  Sn0  1  0.50000000  0.00000000  0.00000000  1
  Sn  Sn1  1  0.00000000  0.00000000  0.50000000  1
  Ir  Ir0  1  0.50000000  0.50000000  0.50000000  1
  Ir  Ir1  1  0.00000000  0.50000000  0.00000000  1
  O  O0  1  0.40518800  0.62178000  0.25666100  1
  O  O1  1  0.16716000  0.89248000  0.93123400  1
  O  O2  1  0.17584300  0.26909900  0.56749200  1
  O  O3  1  0.67584300  0.73090100  0.93250800  1
  O  O4  1  0.66716000  0.10752000  0.56876600  1
  O  O5  1  0.90518800  0.37822000  0.24333900  1
  O  O6  1  0.09481200  0.62178000  0.75666100  1
  O  O7  1  0.33284000  0.89248000  0.43123400  1
  O  O8  1  0.32415700  0.26909900  0.06749200  1
  O  O9  1  0.83284000  0.10752000  0.06876600  1
  O  O10  1  0.82415700  0.73090100  0.43250800  1
  O  O11  1  0.59481200  0.37822000  0.74333900  1
loop_
_geom_bond_atom_site_label_1
_geom_bond_atom_site_label_2
_geom_bond_distance
_geom_bond_site_symmetry_2
Ir0 O10 2.009237 1_555
Ir0 O2 2.009237 1_555
Ir0 O7 2.017593 1_555
Ir0 O4 2.017593 1_555
Ir0 O11 2.072845 1_555
Ir0 O0 2.072845 1_555
Ir1 O3 2.009237 1_454
Ir1 O8 2.009237 1_555
Ir1 O9 2.017593 1_455
Ir1 O1 2.017593 1_554
Ir1 O5 2.072845 1_455
Ir1 O6 2.072845 1_554
O0 Zn2 2.072397 1_555
O0 Zn3 2.096999 1_555
O0 Sn0 2.168083 1_565
O1 Zn0 2.024361 1_465
O1 Sn0 2.082359 1_566
O1 Zn3 2.746968 1_556
O1 Zn1 2.797910 1_555
O1 O9 2.808754 1_466
O2 Zn0 2.022341 1_455
O2 Sn1 2.095131 1_555
O2 Zn3 2.726426 1_555
O2 Zn1 2.821078 1_545
O3 Zn1 2.022341 1_555
O3 Sn0 2.095131 1_566
O3 Zn2 2.726426 1_556
O3 O8 2.771909 1_556
O3 Zn0 2.821078 1_565
O4 Zn1 2.024361 1_545
O4 Sn1 2.082359 1_655
O4 Zn2 2.746968 1_555
O4 Zn0 2.797910 1_555
O4 O7 2.808754 1_545
O5 Zn3 2.072397 1_655
O5 Zn2 2.096999 1_555
O5 Sn1 2.168083 1_655
O6 Zn0 2.072397 1_455
O6 Zn1 2.096999 1_555
O6 Sn1 2.168083 1_565
O7 Zn2 2.024361 1_565
O7 Sn1 2.082359 1_565
O7 Zn1 2.746968 1_555
O7 Zn3 2.797910 1_555
O8 Zn2 2.022341 1_555
O8 Sn0 2.095131 1_555
O8 Zn1 2.726426 1_554
O8 Zn3 2.821078 1_545
O9 Zn3 2.024361 1_645
O9 Sn0 2.082359 1_555
O9 Zn0 2.746968 1_554
O9 Zn2 2.797910 1_555
O10 Zn3 2.022341 1_655
O10 Sn1 2.095131 1_665
O10 Zn0 2.726426 1_555
O10 O2 2.771909 1_655
O10 Zn2 2.821078 1_565
O11 Zn1 2.072397 1_555
O11 Zn0 2.096999 1_555
O11 Sn0 2.168083 1_556
