# generated using pymatgen
data_TiAlCu
_symmetry_space_group_name_H-M   'P 1'
_cell_length_a   4.99549099
_cell_length_b   5.08824869
_cell_length_c   8.09141000
_cell_angle_alpha   90.00000000
_cell_angle_beta   90.00000000
_cell_angle_gamma   120.62260967
_symmetry_Int_Tables_number   1
_chemical_formula_structural   TiAlCu
_chemical_formula_sum   'Ti4 Al4 Cu4'
_cell_volume   176.98739101
_cell_formula_units_Z   4
loop_
 _symmetry_equiv_pos_site_id
 _symmetry_equiv_pos_as_xyz
  1  'x, y, z'
loop_
 _atom_site_type_symbol
 _atom_site_label
 _atom_site_symmetry_multiplicity
 _atom_site_fract_x
 _atom_site_fract_y
 _atom_site_fract_z
 _atom_site_occupancy
  Ti  Ti0  1  0.66822200  0.33410900  0.55745500  1
  Ti  Ti1  1  0.32691700  0.66344700  0.43099700  1
  Ti  Ti2  1  0.32691700  0.66344700  0.06900300  1
  Ti  Ti3  1  0.66822200  0.33410900  0.94254500  1
  Al  Al0  1  0.98817000  0.99408300  0.48865900  1
  Al  Al1  1  0.98817000  0.99408300  0.01134100  1
  Al  Al2  1  0.18289500  0.34811800  0.75000000  1
  Al  Al3  1  0.18289800  0.83477100  0.75000000  1
  Cu  Cu0  1  0.67140100  0.83569100  0.75000000  1
  Cu  Cu1  1  0.82692300  0.65189100  0.25000000  1
  Cu  Cu2  1  0.82691700  0.17506500  0.25000000  1
  Cu  Cu3  1  0.34234700  0.17118600  0.25000000  1
loop_
_geom_bond_atom_site_label_1
_geom_bond_atom_site_label_2
_geom_bond_distance
_geom_bond_site_symmetry_2
Ti0 Ti1 3.010819 1_655
Ti0 Ti1 3.109930 1_545
Ti0 Ti1 3.110122 1_555
Ti0 Ti3 3.115921 1_555
Ti1 Ti2 2.929042 1_555
Ti2 Ti3 3.010819 1_454
Ti2 Ti3 3.109930 1_564
Ti2 Ti3 3.110122 1_554
Al0 Cu1 2.445556 1_555
Al0 Cu2 2.445759 1_565
Al0 Cu3 2.459114 1_665
Al0 Cu0 2.515140 1_555
Al0 Al2 2.622546 1_665
Al0 Al3 2.622653 1_655
Al0 Ti1 2.880646 1_555
Al0 Ti0 2.945059 1_555
Al0 Ti0 2.945327 1_565
Al0 Ti1 2.968119 1_665
Al0 Ti1 2.968483 1_655
Al0 Ti0 2.975950 1_665
Al1 Cu1 2.445556 1_555
Al1 Cu2 2.445759 1_565
Al1 Cu3 2.459114 1_665
Al1 Cu0 2.515140 1_554
Al1 Al2 2.622546 1_664
Al1 Al3 2.622653 1_654
Al1 Ti2 2.880646 1_555
Al1 Ti3 2.945059 1_554
Al1 Ti3 2.945327 1_564
Al1 Ti2 2.968119 1_665
Al1 Ti2 2.968483 1_655
Al1 Ti3 2.975950 1_664
Al2 Cu0 2.437672 1_555
Al2 Al3 2.476204 1_555
Al2 Cu0 2.557332 1_445
Al2 Al3 2.612045 1_545
Al2 Ti3 2.913130 1_555
Al2 Ti0 2.913130 1_555
Al2 Ti2 2.928900 1_556
Al2 Ti1 2.928900 1_555
Al2 Ti3 2.975884 1_455
Al2 Ti0 2.975884 1_455
Al3 Cu0 2.437931 1_555
Al3 Cu0 2.557566 1_455
Al3 Ti3 2.912918 1_565
Al3 Ti0 2.912918 1_565
Al3 Ti2 2.928989 1_556
Al3 Ti1 2.928989 1_555
Al3 Ti3 2.975679 1_455
Al3 Ti0 2.975679 1_455
Cu0 Ti2 2.975820 1_556
Cu0 Ti1 2.975820 1_555
Cu0 Ti3 2.983252 1_555
Cu0 Ti0 2.983252 1_555
Cu0 Ti3 2.983320 1_565
Cu0 Ti0 2.983320 1_565
Cu1 Cu3 2.410485 1_555
Cu1 Cu2 2.426194 1_555
Cu1 Cu3 2.584628 1_665
Cu1 Cu2 2.662055 1_565
Cu1 Ti0 2.850609 1_555
Cu1 Ti3 2.850609 1_554
Cu1 Ti1 2.870059 1_655
Cu1 Ti2 2.870059 1_655
Cu1 Ti1 2.921778 1_555
Cu1 Ti2 2.921778 1_555
Cu2 Cu3 2.410671 1_555
Cu2 Cu3 2.584936 1_655
Cu2 Ti0 2.850582 1_555
Cu2 Ti3 2.850582 1_554
Cu2 Ti1 2.869747 1_655
Cu2 Ti2 2.869747 1_655
Cu2 Ti1 2.921675 1_545
Cu2 Ti2 2.921675 1_545
Cu3 Ti0 2.855055 1_555
Cu3 Ti3 2.855055 1_554
Cu3 Ti1 2.936189 1_555
Cu3 Ti2 2.936189 1_555
Cu3 Ti1 2.936388 1_545
Cu3 Ti2 2.936388 1_545
