# generated using pymatgen
data_LiNbVO4
_symmetry_space_group_name_H-M   'P 1'
_cell_length_a   6.16045905
_cell_length_b   6.15828860
_cell_length_c   10.65797599
_cell_angle_alpha   90.09386547
_cell_angle_beta   107.00823180
_cell_angle_gamma   60.08898008
_symmetry_Int_Tables_number   1
_chemical_formula_structural   LiNbVO4
_chemical_formula_sum   'Li4 Nb4 V4 O16'
_cell_volume   330.04174039
_cell_formula_units_Z   4
loop_
 _symmetry_equiv_pos_site_id
 _symmetry_equiv_pos_as_xyz
  1  'x, y, z'
loop_
 _atom_site_type_symbol
 _atom_site_label
 _atom_site_symmetry_multiplicity
 _atom_site_fract_x
 _atom_site_fract_y
 _atom_site_fract_z
 _atom_site_occupancy
  Li  Li0  1  0.13209300  0.94338700  0.19099000  1
  Li  Li1  1  0.12666400  0.44208400  0.69049500  1
  Li  Li2  1  0.87333300  0.55792000  0.30950900  1
  Li  Li3  1  0.86791900  0.05662100  0.80901700  1
  Nb  Nb0  1  0.49998600  0.99997500  0.49998800  1
  Nb  Nb1  1  0.49998900  0.50000100  0.99999300  1
  Nb  Nb2  1  0.49131300  0.74759600  0.75014700  1
  Nb  Nb3  1  0.50862500  0.25240000  0.24982500  1
  V  V0  1  0.99999400  0.49997200  0.00000300  1
  V  V1  1  0.50002500  0.49997200  0.50000000  1
  V  V2  1  0.99998200  0.00002300  0.50000000  1
  V  V3  1  0.50001700  0.99998800  0.99999500  1
  O  O0  1  0.26905000  0.87935900  0.39130300  1
  O  O1  1  0.26208200  0.38254900  0.89387900  1
  O  O2  1  0.26891200  0.63788700  0.62927500  1
  O  O3  1  0.25998300  0.15583500  0.12302300  1
  O  O4  1  0.74002600  0.84422100  0.87696300  1
  O  O5  1  0.73110800  0.36211500  0.37071600  1
  O  O6  1  0.73793300  0.61744800  0.10613400  1
  O  O7  1  0.73098300  0.12060000  0.60874400  1
  O  O8  1  0.27197600  0.09752000  0.62358600  1
  O  O9  1  0.25929100  0.60159400  0.12067500  1
  O  O10  1  0.71826800  0.65014200  0.62272600  1
  O  O11  1  0.72521200  0.13955000  0.12275800  1
  O  O12  1  0.74069000  0.39845100  0.87932100  1
  O  O13  1  0.72801700  0.90249000  0.37641900  1
  O  O14  1  0.27483600  0.86045200  0.87725300  1
  O  O15  1  0.28169100  0.34984800  0.37726300  1
loop_
_geom_bond_atom_site_label_1
_geom_bond_atom_site_label_2
_geom_bond_distance
_geom_bond_site_symmetry_2
Li0 O0 2.010586 1_555
Li0 O11 2.046392 1_465
Li0 O3 2.054785 1_565
Li0 O9 2.073533 1_555
Li1 O2 2.009612 1_555
Li1 O1 2.041760 1_555
Li1 O10 2.053824 1_455
Li1 O8 2.070398 1_555
Li2 O5 2.009442 1_555
Li2 O6 2.041669 1_555
Li2 O15 2.053636 1_655
Li2 O13 2.070434 1_555
Li3 O7 2.010188 1_555
Li3 O14 2.046574 1_645
Li3 O4 2.054451 1_545
Li3 O12 2.073661 1_555
Nb0 O0 2.001130 1_555
Nb0 O7 2.001723 1_565
Nb0 O10 2.061972 1_555
Nb0 O15 2.062084 1_565
Nb0 O13 2.075319 1_555
Nb0 O8 2.075465 1_565
Nb1 O1 2.008762 1_555
Nb1 O6 2.009009 1_556
Nb1 O12 2.105279 1_555
Nb1 O9 2.105338 1_556
Nb1 O14 2.107108 1_555
Nb1 O11 2.107202 1_556
Nb2 O2 1.970014 1_555
Nb2 O4 2.055143 1_555
Nb2 O14 2.055763 1_555
Nb2 O8 2.080460 1_565
Nb2 O12 2.087264 1_555
Nb2 O10 2.104897 1_555
Nb3 O5 1.970471 1_555
Nb3 O3 2.054529 1_555
Nb3 O11 2.055866 1_555
Nb3 O13 2.080541 1_545
Nb3 O9 2.087342 1_555
Nb3 O15 2.104958 1_555
O0 V2 2.129326 1_465
O0 V1 2.134109 1_555
O1 V0 2.076145 1_456
O1 V3 2.138441 1_545
O2 V1 2.141170 1_555
O2 V2 2.146278 1_465
O3 V0 2.042334 1_455
O3 V3 2.131165 1_544
O4 V0 2.042859 1_556
O4 V3 2.131049 1_555
O5 V1 2.141106 1_555
O5 V2 2.146117 1_555
O6 V0 2.076062 1_555
O6 V3 2.138426 1_554
O7 V2 2.129409 1_555
O7 V1 2.134218 1_555
O8 V2 2.147719 1_455
O9 V0 2.095201 1_455
O10 V1 2.140325 1_555
O11 V3 2.121028 1_544
O12 V0 2.094853 1_556
O13 V2 2.147714 1_565
O14 V3 2.120758 1_555
O15 V1 2.140537 1_555
