# generated using pymatgen
data_Li3Cu4SbO8
_symmetry_space_group_name_H-M   'P 1'
_cell_length_a   6.20285340
_cell_length_b   6.20285340
_cell_length_c   5.83620464
_cell_angle_alpha   63.45093353
_cell_angle_beta   63.45093353
_cell_angle_gamma   56.88078234
_symmetry_Int_Tables_number   1
_chemical_formula_structural   Li3Cu4SbO8
_chemical_formula_sum   'Li3 Cu4 Sb1 O8'
_cell_volume   161.95994482
_cell_formula_units_Z   1
loop_
 _symmetry_equiv_pos_site_id
 _symmetry_equiv_pos_as_xyz
  1  'x, y, z'
loop_
 _atom_site_type_symbol
 _atom_site_label
 _atom_site_symmetry_multiplicity
 _atom_site_fract_x
 _atom_site_fract_y
 _atom_site_fract_z
 _atom_site_occupancy
  Li  Li0  1  0.00000000  0.50000000  0.00000000  1
  Li  Li1  1  0.50000000  0.00000000  0.00000000  1
  Li  Li2  1  0.00000000  0.00000000  0.50000000  1
  Cu  Cu0  1  0.00000000  0.00000000  0.00000000  1
  Cu  Cu1  1  0.50000000  0.00000000  0.50000000  1
  Cu  Cu2  1  0.00000000  0.50000000  0.50000000  1
  Cu  Cu3  1  0.50000000  0.50000000  0.50000000  1
  Sb  Sb0  1  0.50000000  0.50000000  0.00000000  1
  O  O0  1  0.71697300  0.71697300  0.76439800  1
  O  O1  1  0.29180100  0.75233500  0.23477100  1
  O  O2  1  0.75233500  0.29180100  0.23477100  1
  O  O3  1  0.28302700  0.28302700  0.23560200  1
  O  O4  1  0.20872300  0.20872300  0.75932200  1
  O  O5  1  0.70819900  0.24766500  0.76522900  1
  O  O6  1  0.24766500  0.70819900  0.76522900  1
  O  O7  1  0.79127700  0.79127700  0.24067800  1
loop_
_geom_bond_atom_site_label_1
_geom_bond_atom_site_label_2
_geom_bond_distance
_geom_bond_site_symmetry_2
Li0 O2 2.147025 1_455
Li0 O6 2.147025 1_554
Li0 O3 2.169271 1_555
Li0 O0 2.169271 1_454
Li0 O7 2.236156 1_455
Li0 O4 2.236156 1_554
Li1 O1 2.147025 1_545
Li1 O5 2.147025 1_554
Li1 O3 2.169271 1_555
Li1 O0 2.169271 1_544
Li1 O7 2.236156 1_545
Li1 O4 2.236156 1_554
Li2 O5 2.148219 1_455
Li2 O6 2.148219 1_545
Li2 O2 2.148219 1_455
Li2 O1 2.148219 1_545
Li2 O3 2.658918 1_555
Li2 O0 2.658918 1_445
Cu0 O7 1.976301 1_445
Cu0 O4 1.976301 1_554
Cu0 O2 2.193234 1_455
Cu0 O1 2.193234 1_545
Cu0 O5 2.193234 1_454
Cu0 O6 2.193234 1_544
Cu1 O4 1.995530 1_555
Cu1 O7 1.995530 1_545
Cu1 O0 2.031590 1_545
Cu1 O3 2.031590 1_555
Cu1 O6 2.558798 1_545
Cu1 O2 2.558798 1_555
Cu2 O4 1.995530 1_555
Cu2 O7 1.995530 1_455
Cu2 O0 2.031590 1_455
Cu2 O3 2.031590 1_555
Cu2 O5 2.558798 1_455
Cu2 O1 2.558798 1_555
Cu3 O6 1.981424 1_555
Cu3 O5 1.981424 1_555
Cu3 O1 1.981424 1_555
Cu3 O2 1.981424 1_555
Cu3 O7 2.738177 1_555
Cu3 O4 2.738177 1_555
O0 Sb0 2.045507 1_556
O1 Sb0 2.030140 1_555
O2 Sb0 2.030140 1_555
O3 Sb0 2.045507 1_555
O5 Sb0 2.030140 1_556
O6 Sb0 2.030140 1_556
