# generated using pymatgen
data_Mg4Si3
_symmetry_space_group_name_H-M   'P 1'
_cell_length_a   6.42415300
_cell_length_b   6.63108947
_cell_length_c   7.58168895
_cell_angle_alpha   113.46540501
_cell_angle_beta   99.78158349
_cell_angle_gamma   101.85670518
_symmetry_Int_Tables_number   1
_chemical_formula_structural   Mg4Si3
_chemical_formula_sum   'Mg8 Si6'
_cell_volume   278.31267191
_cell_formula_units_Z   2
loop_
 _symmetry_equiv_pos_site_id
 _symmetry_equiv_pos_as_xyz
  1  'x, y, z'
loop_
 _atom_site_type_symbol
 _atom_site_label
 _atom_site_symmetry_multiplicity
 _atom_site_fract_x
 _atom_site_fract_y
 _atom_site_fract_z
 _atom_site_occupancy
  Mg  Mg0  1  0.51460800  0.37557900  0.45535900  1
  Mg  Mg1  1  0.07711200  0.01430400  0.14149200  1
  Mg  Mg2  1  0.19623300  0.58742600  0.01069200  1
  Mg  Mg3  1  0.48687700  0.80870600  0.51588500  1
  Mg  Mg4  1  0.95043100  0.11111100  0.47585500  1
  Mg  Mg5  1  0.57472000  0.94080300  0.10391700  1
  Mg  Mg6  1  0.71951800  0.59336500  0.01782500  1
  Mg  Mg7  1  0.25778600  0.33278400  0.76766700  1
  Si  Si0  1  0.88447200  0.70866700  0.43210300  1
  Si  Si1  1  0.83040500  0.47491800  0.75966900  1
  Si  Si2  1  0.38445100  0.94089700  0.74999900  1
  Si  Si3  1  0.46568000  0.23213700  0.18308400  1
  Si  Si4  1  0.12185300  0.55135000  0.34922300  1
  Si  Si5  1  0.78581400  0.07796500  0.78723900  1
loop_
_geom_bond_atom_site_label_1
_geom_bond_atom_site_label_2
_geom_bond_distance
_geom_bond_site_symmetry_2
Mg0 Si3 1.832439 1_555
Mg0 Si1 2.553982 1_555
Mg0 Mg1 3.117946 1_555
Mg1 Si3 2.511003 1_555
Mg1 Mg4 2.668422 1_455
Mg1 Mg2 2.914473 1_545
Mg1 Mg6 2.914889 1_445
Mg1 Mg5 3.108971 1_445
Mg1 Si4 3.194381 1_555
Mg1 Si5 3.227013 1_454
Mg2 Mg7 2.108724 1_554
Mg2 Si1 2.516105 1_454
Mg2 Mg5 2.767353 1_555
Mg2 Si4 2.780629 1_555
Mg3 Si2 1.935629 1_555
Mg3 Si5 2.330588 1_565
Mg3 Si4 2.374713 1_555
Mg3 Si0 2.877415 1_555
Mg4 Mg7 2.384788 1_655
Mg4 Si0 2.488738 1_545
Mg4 Si5 2.811790 1_555
Mg4 Si1 2.870302 1_555
Mg4 Mg5 3.013960 1_545
Mg5 Si3 2.087713 1_565
Mg5 Mg6 2.547273 1_555
Mg5 Si2 2.753424 1_554
Mg5 Si5 3.281681 1_564
Mg6 Si1 2.105848 1_554
Mg6 Si0 2.862960 1_555
Mg6 Mg7 2.958674 1_554
Mg7 Si2 2.839321 1_545
Mg7 Si5 3.212101 1_455
Si0 Si4 2.065405 1_655
Si0 Si5 3.100779 1_565
Si1 Si5 2.683853 1_555
Si2 Si5 2.477761 1_565
