# generated using pymatgen
data_Li2MnV(P2O7)2
_symmetry_space_group_name_H-M   'P 1'
_cell_length_a   4.85003900
_cell_length_b   7.05225996
_cell_length_c   24.98893316
_cell_angle_alpha   89.44463922
_cell_angle_beta   89.72687284
_cell_angle_gamma   71.29206720
_symmetry_Int_Tables_number   1
_chemical_formula_structural   Li2MnV(P2O7)2
_chemical_formula_sum   'Li6 Mn3 V3 P12 O42'
_cell_volume   809.51748968
_cell_formula_units_Z   3
loop_
 _symmetry_equiv_pos_site_id
 _symmetry_equiv_pos_as_xyz
  1  'x, y, z'
loop_
 _atom_site_type_symbol
 _atom_site_label
 _atom_site_symmetry_multiplicity
 _atom_site_fract_x
 _atom_site_fract_y
 _atom_site_fract_z
 _atom_site_occupancy
  Li  Li0  1  0.17253600  0.32525700  0.62027800  1
  Li  Li1  1  0.17386900  0.32679700  0.95399200  1
  Li  Li2  1  0.17690600  0.32578600  0.28717300  1
  Li  Li3  1  0.82313700  0.67617400  0.12023700  1
  Li  Li4  1  0.82539300  0.67326500  0.45363500  1
  Li  Li5  1  0.82334200  0.67557900  0.78679300  1
  Mn  Mn0  1  0.21307000  0.26880200  0.49958900  1
  Mn  Mn1  1  0.78520400  0.72861700  0.66649800  1
  Mn  Mn2  1  0.78507100  0.73109400  0.99987100  1
  V  V0  1  0.21607100  0.27309100  0.16647700  1
  V  V1  1  0.21474000  0.27266900  0.83311000  1
  V  V2  1  0.78570900  0.72922400  0.33306900  1
  P  P0  1  0.40225500  0.47796700  0.05913900  1
  P  P1  1  0.39872600  0.48168600  0.39337100  1
  P  P2  1  0.40107200  0.47822500  0.72567700  1
  P  P3  1  0.21352300  0.91466400  0.26119300  1
  P  P4  1  0.21292300  0.90920500  0.59579900  1
  P  P5  1  0.21339500  0.91141300  0.92843300  1
  P  P6  1  0.78993500  0.08633000  0.09550200  1
  P  P7  1  0.78728700  0.08819800  0.42865600  1
  P  P8  1  0.78879100  0.08669500  0.76201200  1
  P  P9  1  0.59999300  0.52349800  0.22690200  1
  P  P10  1  0.59910300  0.51659700  0.55931800  1
  P  P11  1  0.60149100  0.51844400  0.89361600  1
  O  O0  1  0.05136100  0.15317200  0.10836600  1
  O  O1  1  0.04979000  0.15376500  0.77502200  1
  O  O2  1  0.05782500  0.14614100  0.44236500  1
  O  O3  1  0.13121800  0.11127200  0.89865800  1
  O  O4  1  0.13300200  0.11546800  0.23206700  1
  O  O5  1  0.12623200  0.11107400  0.56747100  1
  O  O6  1  0.18888100  0.51795800  0.01197300  1
  O  O7  1  0.18689900  0.51816800  0.67851800  1
  O  O8  1  0.18966700  0.51756600  0.34555900  1
  O  O9  1  0.25013300  0.49513500  0.78024300  1
  O  O10  1  0.25072100  0.49476700  0.11367200  1
  O  O11  1  0.24349300  0.50361200  0.44699600  1
  O  O12  1  0.39572800  0.39634400  0.22596000  1
  O  O13  1  0.39163800  0.38975400  0.55713700  1
  O  O14  1  0.39172900  0.39490800  0.89179600  1
  O  O15  1  0.60170900  0.08510500  0.14517500  1
  O  O16  1  0.60124000  0.08478500  0.47842100  1
  O  O17  1  0.59991300  0.08617300  0.81171900  1
  O  O18  1  0.59791800  0.24725100  0.05134500  1
  O  O19  1  0.59621500  0.25009200  0.38563600  1
  O  O20  1  0.59690300  0.24762600  0.71780900  1
  O  O21  1  0.40469800  0.75450200  0.21803000  1
  O  O22  1  0.40455200  0.75091100  0.88567600  1
  O  O23  1  0.40236400  0.74975500  0.55214500  1
  O  O24  1  0.39794900  0.91617500  0.31095600  1
  O  O25  1  0.40083500  0.90997700  0.64515700  1
  O  O26  1  0.39740500  0.91436000  0.97811800  1
  O  O27  1  0.60459000  0.60824600  0.05795100  1
  O  O28  1  0.60843800  0.60537700  0.39169700  1
  O  O29  1  0.60396800  0.60786400  0.72435900  1
  O  O30  1  0.75309100  0.50687700  0.28106800  1
  O  O31  1  0.74992000  0.49309600  0.61320900  1
  O  O32  1  0.75545800  0.49559100  0.94719000  1
  O  O33  1  0.81253300  0.48505000  0.17948300  1
  O  O34  1  0.80968500  0.48228600  0.51140400  1
  O  O35  1  0.81105900  0.48403000  0.84559500  1
  O  O36  1  0.87348700  0.88566000  0.06759900  1
  O  O37  1  0.87247400  0.88593300  0.73434800  1
  O  O38  1  0.86832700  0.88981800  0.39903800  1
  O  O39  1  0.94859700  0.85170400  0.27458100  1
  O  O40  1  0.94307200  0.84954700  0.60945600  1
  O  O41  1  0.94174100  0.85382300  0.94227200  1
loop_
_geom_bond_atom_site_label_1
_geom_bond_atom_site_label_2
_geom_bond_distance
_geom_bond_site_symmetry_2
Li0 O7 2.018391 1_555
Li0 O31 2.019053 1_455
Li0 O13 2.026282 1_555
Li0 O5 2.081431 1_555
Li1 O32 2.003434 1_455
Li1 O6 2.005946 1_556
Li1 O14 2.014501 1_555
Li1 O3 2.123706 1_555
Li2 O12 2.005568 1_555
Li2 O8 2.013589 1_555
Li2 O30 2.048086 1_455
Li2 O4 2.094399 1_555
Li2 O24 2.798789 1_545
Li3 O33 2.004067 1_555
Li3 O27 2.032605 1_555
Li3 O36 2.040363 1_555
Li3 O10 2.064740 1_655
Li4 O34 1.982621 1_555
Li4 O11 2.003813 1_655
Li4 O28 2.021152 1_555
Li4 O38 2.097125 1_555
Li5 O35 1.999949 1_555
Li5 O29 2.037250 1_555
Li5 O37 2.039877 1_555
Li5 O9 2.059591 1_655
Mn0 O2 1.952455 1_555
Mn0 O16 1.986153 1_555
Mn0 O13 2.013757 1_555
Mn0 O34 2.072456 1_455
Mn0 O5 2.132896 1_555
Mn0 O11 2.145658 1_555
Mn1 O40 1.931396 1_555
Mn1 O25 1.965258 1_555
Mn1 O29 2.008136 1_555
Mn1 O7 2.056847 1_655
Mn1 O37 2.151569 1_555
Mn1 O31 2.188308 1_555
Mn2 O41 1.945637 1_555
Mn2 O26 1.984515 1_555
Mn2 O27 2.018222 1_556
Mn2 O6 2.072405 1_656
Mn2 O36 2.139859 1_556
Mn2 O32 2.170070 1_555
O0 P6 1.524273 1_455
O0 V0 1.982500 1_555
O1 P8 1.524073 1_455
O1 V1 1.978686 1_555
O2 P7 1.535232 1_455
O3 P5 1.523537 1_545
O3 V1 2.096638 1_555
O4 P3 1.521713 1_545
O4 V0 2.080876 1_555
O5 P4 1.517873 1_545
O6 P0 1.535455 1_555
O7 P2 1.537735 1_555
O8 P1 1.536455 1_555
O8 V2 2.069971 1_455
O9 P2 1.532000 1_555
O9 V1 2.089635 1_555
O10 P0 1.532617 1_555
O10 V0 2.083223 1_555
O11 P1 1.518601 1_555
O12 P9 1.535140 1_555
O12 V0 2.060934 1_555
O13 P10 1.547412 1_555
O14 P11 1.538135 1_555
O14 V1 2.035151 1_555
O15 P6 1.538922 1_555
O15 V0 1.988144 1_555
O16 P7 1.537504 1_555
O17 P8 1.540549 1_555
O17 V1 1.983264 1_555
O18 P0 1.612368 1_555
O18 P6 1.637168 1_555
O19 P1 1.619617 1_555
O19 P7 1.620175 1_555
O20 P2 1.612144 1_555
O20 P8 1.637755 1_555
O21 P9 1.614134 1_555
O21 P3 1.625154 1_555
O22 P5 1.619617 1_555
O22 P11 1.621845 1_555
O23 P10 1.623498 1_555
O23 P4 1.627911 1_555
O24 P3 1.537376 1_555
O24 V2 1.996411 1_555
O25 P4 1.538167 1_555
O26 P5 1.536678 1_555
O27 P0 1.544533 1_555
O28 P1 1.537923 1_555
O28 V2 2.023192 1_555
O29 P2 1.543221 1_555
O30 P9 1.532274 1_555
O30 V2 2.091163 1_555
O31 P10 1.517681 1_555
O32 P11 1.517900 1_555
O33 P9 1.534769 1_555
O33 V0 2.072968 1_655
O34 P10 1.539697 1_555
O35 P11 1.538752 1_555
O35 V1 2.069662 1_655
O36 P6 1.517128 1_565
O37 P8 1.514877 1_565
O38 P7 1.524500 1_565
O38 V2 2.119994 1_555
O39 P3 1.522839 1_655
O39 V2 1.977018 1_555
O40 P4 1.533815 1_655
O41 P5 1.535132 1_655
