# generated using pymatgen
data_CeAs2
_symmetry_space_group_name_H-M   'P 1'
_cell_length_a   3.95841071
_cell_length_b   7.13366702
_cell_length_c   9.73204165
_cell_angle_alpha   90.00000000
_cell_angle_beta   89.99248463
_cell_angle_gamma   90.00000000
_symmetry_Int_Tables_number   1
_chemical_formula_structural   CeAs2
_chemical_formula_sum   'Ce4 As8'
_cell_volume   274.81323310
_cell_formula_units_Z   4
loop_
 _symmetry_equiv_pos_site_id
 _symmetry_equiv_pos_as_xyz
  1  'x, y, z'
loop_
 _atom_site_type_symbol
 _atom_site_label
 _atom_site_symmetry_multiplicity
 _atom_site_fract_x
 _atom_site_fract_y
 _atom_site_fract_z
 _atom_site_occupancy
  Ce  Ce0  1  0.74998806  0.80230790  0.64814751  1
  Ce  Ce1  1  0.75001194  0.30230790  0.85185249  1
  Ce  Ce2  1  0.25001194  0.19769210  0.35185249  1
  Ce  Ce3  1  0.24998806  0.69769210  0.14814751  1
  As  As0  1  0.74999028  0.89739811  0.95364540  1
  As  As1  1  0.75000972  0.39739811  0.54635460  1
  As  As2  1  0.25000972  0.10260189  0.04635460  1
  As  As3  1  0.24999028  0.60260189  0.45364540  1
  As  As4  1  0.24995005  0.11334296  0.66572377  1
  As  As5  1  0.25004995  0.61334296  0.83427623  1
  As  As6  1  0.75004995  0.88665704  0.33427623  1
  As  As7  1  0.74995005  0.38665704  0.16572377  1
loop_
_geom_bond_atom_site_label_1
_geom_bond_atom_site_label_2
_geom_bond_distance
_geom_bond_site_symmetry_2
As0 As2 2.621719 1_566
As0 As2 2.622013 1_666
As0 Ce0 3.049521 1_555
As0 Ce1 3.053650 1_565
As0 As5 3.061470 1_555
As0 As5 3.061578 1_655
As0 Ce3 3.086904 1_556
As0 Ce3 3.087211 1_656
As1 As3 2.621719 1_655
As1 As3 2.622013 1_555
As1 Ce1 3.049521 1_555
As1 Ce0 3.053650 1_555
As1 As4 3.061470 1_655
As1 As4 3.061578 1_555
As1 Ce2 3.086904 1_655
As1 Ce2 3.087211 1_555
As2 Ce2 3.049521 1_555
As2 Ce3 3.053650 1_545
As2 As7 3.061470 1_555
As2 As7 3.061578 1_455
As2 Ce1 3.086904 1_554
As2 Ce1 3.087211 1_454
As3 Ce3 3.049521 1_555
As3 Ce2 3.053650 1_555
As3 As6 3.061470 1_455
As3 As6 3.061578 1_555
As3 Ce0 3.086904 1_455
As3 Ce0 3.087211 1_555
As4 Ce0 2.978115 1_445
As4 Ce0 2.978285 1_545
As4 Ce1 3.002282 1_455
As4 Ce1 3.002918 1_555
As4 Ce2 3.113310 1_555
As5 Ce1 2.978115 1_555
As5 Ce1 2.978285 1_455
As5 Ce0 3.002282 1_555
As5 Ce0 3.002918 1_455
As5 Ce3 3.113310 1_556
As6 Ce2 2.978115 1_665
As6 Ce2 2.978285 1_565
As6 Ce3 3.002282 1_655
As6 Ce3 3.002918 1_555
As6 Ce0 3.113310 1_555
As7 Ce3 2.978115 1_555
As7 Ce3 2.978285 1_655
As7 Ce2 3.002282 1_555
As7 Ce2 3.002918 1_655
As7 Ce1 3.113310 1_554
