# generated using pymatgen
data_Cu3BO5
_symmetry_space_group_name_H-M   'P 1'
_cell_length_a   9.31559398
_cell_length_b   3.22327020
_cell_length_c   11.88992882
_cell_angle_alpha   86.47462490
_cell_angle_beta   90.00261935
_cell_angle_gamma   90.00719287
_symmetry_Int_Tables_number   1
_chemical_formula_structural   Cu3BO5
_chemical_formula_sum   'Cu12 B4 O20'
_cell_volume   356.33945020
_cell_formula_units_Z   4
loop_
 _symmetry_equiv_pos_site_id
 _symmetry_equiv_pos_as_xyz
  1  'x, y, z'
loop_
 _atom_site_type_symbol
 _atom_site_label
 _atom_site_symmetry_multiplicity
 _atom_site_fract_x
 _atom_site_fract_y
 _atom_site_fract_z
 _atom_site_occupancy
  Cu  Cu0  1  0.73220173  0.40882973  0.37717792  1
  Cu  Cu1  1  0.26779827  0.59117027  0.62282208  1
  Cu  Cu2  1  0.23218632  0.59118133  0.12283235  1
  Cu  Cu3  1  0.76781368  0.40881867  0.87716765  1
  Cu  Cu4  1  0.00000000  0.00000000  -0.00000000  1
  Cu  Cu5  1  0.50000000  0.00000000  0.50000000  1
  Cu  Cu6  1  0.97999513  0.91628454  0.27583176  1
  Cu  Cu7  1  0.02000487  0.08371546  0.72416824  1
  Cu  Cu8  1  0.47998942  0.08384785  0.22417741  1
  Cu  Cu9  1  0.52001058  0.91615215  0.77582259  1
  Cu  Cu10  1  0.50000000  0.50000000  -0.00000000  1
  Cu  Cu11  1  0.00000000  0.50000000  0.50000000  1
  B  B0  1  0.76339885  0.36686039  0.13046290  1
  B  B1  1  0.23660115  0.63313961  0.86953710  1
  B  B2  1  0.26336453  0.63315469  0.36952772  1
  B  B3  1  0.73663547  0.36684531  0.63047228  1
  O  O0  1  0.84198987  0.34524770  0.03344237  1
  O  O1  1  0.15801013  0.65475230  0.96655763  1
  O  O2  1  0.34192869  0.65489030  0.46654333  1
  O  O3  1  0.65807131  0.34510970  0.53345667  1
  O  O4  1  0.58501493  0.01018473  0.35693266  1
  O  O5  1  0.41498507  0.98981527  0.64306734  1
  O  O6  1  0.08505173  0.98988595  0.14306578  1
  O  O7  1  0.91494827  0.01011405  0.85693422  1
  O  O8  1  0.61770375  0.44914874  0.12882952  1
  O  O9  1  0.38229625  0.55085126  0.87117048  1
  O  O10  1  0.11765653  0.55065985  0.37114467  1
  O  O11  1  0.88234347  0.44934015  0.62885533  1
  O  O12  1  0.32910753  0.67686137  0.26664131  1
  O  O13  1  0.67089247  0.32313863  0.73335869  1
  O  O14  1  0.82914608  0.32321318  0.23335826  1
  O  O15  1  0.17085392  0.67678682  0.76664174  1
  O  O16  1  0.87344476  0.81267596  0.41272804  1
  O  O17  1  0.12655524  0.18732404  0.58727196  1
  O  O18  1  0.37341721  0.18731496  0.08727214  1
  O  O19  1  0.62658279  0.81268504  0.91272786  1
loop_
_geom_bond_atom_site_label_1
_geom_bond_atom_site_label_2
_geom_bond_distance
_geom_bond_site_symmetry_2
Cu0 O4 1.904360 1_555
Cu0 O16 1.916121 1_555
Cu0 O14 1.968272 1_555
Cu0 O3 1.981139 1_555
Cu0 O16 2.345848 1_545
Cu0 O4 2.374516 1_565
Cu1 O5 1.904360 1_555
Cu1 O17 1.916121 1_555
Cu1 O15 1.968272 1_555
Cu1 O2 1.981139 1_555
Cu1 O17 2.345848 1_565
Cu1 O5 2.374516 1_545
Cu2 O6 1.904365 1_555
Cu2 O18 1.916371 1_555
Cu2 O12 1.967997 1_555
Cu2 O1 1.981180 1_554
Cu2 O18 2.345499 1_565
Cu2 O6 2.373804 1_545
Cu3 O7 1.904365 1_555
Cu3 O19 1.916371 1_555
Cu3 O13 1.967997 1_555
Cu3 O0 1.981180 1_556
Cu3 O19 2.345499 1_545
Cu3 O7 2.373804 1_565
Cu4 O6 1.874946 1_545
Cu4 O7 1.874946 1_454
Cu4 O1 1.902113 1_544
Cu4 O0 1.902113 1_455
Cu4 O0 2.583566 1_445
Cu4 O1 2.583566 1_554
Cu5 O5 1.874871 1_545
Cu5 O4 1.874871 1_555
Cu5 O3 1.902086 1_555
Cu5 O2 1.902086 1_545
Cu5 O2 2.584548 1_555
Cu5 O3 2.584548 1_545
Cu6 O6 1.860108 1_655
Cu6 O16 1.918156 1_555
Cu6 O14 1.967001 1_565
Cu6 O10 2.038065 1_655
Cu6 O14 2.449912 1_555
Cu7 O7 1.860108 1_455
Cu7 O17 1.918156 1_555
Cu7 O15 1.967001 1_545
Cu7 O11 2.038065 1_455
Cu7 O15 2.449912 1_555
Cu8 O4 1.859819 1_555
Cu8 O18 1.918262 1_555
Cu8 O12 1.967114 1_545
Cu8 O8 2.037903 1_555
Cu8 O12 2.450212 1_555
Cu9 O5 1.859819 1_555
Cu9 O19 1.918262 1_555
Cu9 O13 1.967114 1_565
Cu9 O9 2.037903 1_555
Cu9 O13 2.450212 1_555
Cu10 O18 1.831456 1_555
Cu10 O19 1.831456 1_554
Cu10 O8 1.882679 1_555
Cu10 O9 1.882679 1_554
Cu11 O16 1.831376 1_455
Cu11 O17 1.831376 1_555
Cu11 O10 1.882706 1_555
Cu11 O11 1.882706 1_455
B0 O14 1.367646 1_555
B0 O0 1.371695 1_555
B0 O8 1.382850 1_555
B1 O15 1.367646 1_555
B1 O1 1.371695 1_555
B1 O9 1.382850 1_555
B2 O12 1.367578 1_555
B2 O2 1.371487 1_555
B2 O10 1.383031 1_555
B3 O13 1.367578 1_555
B3 O3 1.371487 1_555
B3 O11 1.383031 1_555
