# generated using pymatgen
data_Li4Si2NiO7
_symmetry_space_group_name_H-M   'P 1'
_cell_length_a   4.51285401
_cell_length_b   17.12503290
_cell_length_c   7.93368677
_cell_angle_alpha   97.38964505
_cell_angle_beta   106.52547975
_cell_angle_gamma   82.41933819
_symmetry_Int_Tables_number   1
_chemical_formula_structural   Li4Si2NiO7
_chemical_formula_sum   'Li16 Si8 Ni4 O28'
_cell_volume   579.99024165
_cell_formula_units_Z   4
loop_
 _symmetry_equiv_pos_site_id
 _symmetry_equiv_pos_as_xyz
  1  'x, y, z'
loop_
 _atom_site_type_symbol
 _atom_site_label
 _atom_site_symmetry_multiplicity
 _atom_site_fract_x
 _atom_site_fract_y
 _atom_site_fract_z
 _atom_site_occupancy
  Li  Li0  1  0.45308500  0.28399900  0.15122400  1
  Li  Li1  1  0.69248700  0.53397800  0.89945900  1
  Li  Li2  1  0.94576500  0.78679600  0.65311600  1
  Li  Li3  1  0.20654900  0.03656400  0.40397700  1
  Li  Li4  1  0.08912400  0.21338600  0.34605500  1
  Li  Li5  1  0.32967800  0.46330100  0.09692200  1
  Li  Li6  1  0.57705800  0.71612800  0.85049100  1
  Li  Li7  1  0.83572000  0.96594300  0.59867300  1
  Li  Li8  1  0.90541400  0.17952700  0.96398900  1
  Li  Li9  1  0.14561200  0.43191400  0.71614200  1
  Li  Li10  1  0.39301300  0.68152900  0.46877800  1
  Li  Li11  1  0.65233000  0.92901200  0.21581200  1
  Li  Li12  1  0.61565200  0.32090800  0.53410400  1
  Li  Li13  1  0.85582400  0.56844200  0.28125400  1
  Li  Li14  1  0.11135600  0.81817800  0.03400500  1
  Li  Li15  1  0.37089400  0.07050200  0.78604900  1
  Si  Si0  1  0.95970700  0.38966000  0.32215300  1
  Si  Si1  1  0.19620100  0.63984000  0.07057300  1
  Si  Si2  1  0.45083000  0.89113800  0.81954300  1
  Si  Si3  1  0.71438200  0.14080700  0.57106000  1
  Si  Si4  1  0.53424100  0.10912400  0.17901900  1
  Si  Si5  1  0.77253400  0.35894600  0.93047500  1
  Si  Si6  1  0.01530900  0.61022400  0.67929300  1
  Si  Si7  1  0.27726500  0.86026100  0.42785100  1
  Ni  Ni0  1  0.49072300  0.50310900  0.49038500  1
  Ni  Ni1  1  0.75369400  0.74671200  0.25961500  1
  Ni  Ni2  1  0.00968000  0.99691700  0.00923200  1
  Ni  Ni3  1  0.24723900  0.25309600  0.74066800  1
  O  O0  1  0.81653900  0.12498600  0.37504900  1
  O  O1  1  0.05783200  0.37396000  0.12561800  1
  O  O2  1  0.29747900  0.62503600  0.87493800  1
  O  O3  1  0.55620200  0.87601600  0.62444000  1
  O  O4  1  0.61269300  0.27955000  0.94364800  1
  O  O5  1  0.85345600  0.53107700  0.69233100  1
  O  O6  1  0.11640100  0.78191200  0.44616300  1
  O  O7  1  0.37567800  0.03039300  0.19701100  1
  O  O8  1  0.45917400  0.21959500  0.55311000  1
  O  O9  1  0.70227600  0.46803700  0.30391600  1
  O  O10  1  0.94220800  0.71899000  0.05753900  1
  O  O11  1  0.19835700  0.97054200  0.80621600  1
  O  O12  1  0.27281900  0.40798500  0.48329600  1
  O  O13  1  0.51026400  0.65534900  0.23231100  1
  O  O14  1  0.76593500  0.90572500  0.98064000  1
  O  O15  1  0.02854500  0.15807000  0.73188300  1
  O  O16  1  0.70474800  0.09190800  0.01819700  1
  O  O17  1  0.94124600  0.34436300  0.76944400  1
  O  O18  1  0.18342100  0.59459000  0.51764600  1
  O  O19  1  0.44766100  0.84184600  0.26678100  1
  O  O20  1  0.81944200  0.31111600  0.34811800  1
  O  O21  1  0.05510200  0.56086900  0.09451600  1
  O  O22  1  0.30519400  0.81285800  0.84307100  1
  O  O23  1  0.56870700  0.06290200  0.59556500  1
  O  O24  1  0.28605400  0.18707100  0.15443100  1
  O  O25  1  0.52525000  0.43729100  0.90705800  1
  O  O26  1  0.77146600  0.68920400  0.65534700  1
  O  O27  1  0.03248400  0.93881500  0.40179900  1
loop_
_geom_bond_atom_site_label_1
_geom_bond_atom_site_label_2
_geom_bond_distance
_geom_bond_site_symmetry_2
Li0 O24 1.917287 1_555
Li0 O4 1.965901 1_554
Li0 O20 1.983934 1_555
Li0 O1 2.178453 1_555
Li1 O25 1.922516 1_555
Li1 O21 1.964601 1_656
Li1 O5 1.969553 1_555
Li1 O2 2.189640 1_555
Li2 O22 1.931004 1_655
Li2 O26 1.942817 1_555
Li2 O6 1.990671 1_655
Li2 O3 2.151767 1_555
Li3 O27 1.936816 1_545
Li3 O23 1.946764 1_555
Li3 O7 1.984174 1_555
Li3 O0 2.144712 1_455
Li4 O20 1.936324 1_455
Li4 O24 1.947019 1_555
Li4 O8 1.984929 1_555
Li4 O0 2.144713 1_455
Li5 O25 1.930379 1_554
Li5 O21 1.943201 1_555
Li5 O9 1.990397 1_555
Li5 O1 2.154388 1_555
Li6 O22 1.923666 1_555
Li6 O26 1.965102 1_555
Li6 O10 1.968981 1_556
Li6 O2 2.190729 1_555
Li7 O23 1.917122 1_565
Li7 O11 1.965540 1_655
Li7 O27 1.984306 1_655
Li7 O3 2.178259 1_555
Li8 O24 1.944772 1_656
Li8 O16 2.000631 1_556
Li8 O4 2.014432 1_555
Li8 O15 2.046688 1_655
Li9 O25 1.940983 1_555
Li9 O5 2.001971 1_455
Li9 O17 2.006779 1_455
Li9 O12 2.063151 1_555
Li10 O26 1.922546 1_555
Li10 O6 1.982771 1_555
Li10 O18 1.997557 1_555
Li10 O13 2.070349 1_555
Li11 O27 1.928951 1_655
Li11 O19 1.994081 1_555
Li11 O7 1.995990 1_565
Li11 O14 2.049840 1_554
Li12 O20 1.928429 1_555
Li12 O12 1.992727 1_555
Li12 O8 1.995674 1_555
Li12 O17 2.051478 1_555
Li13 O21 1.923081 1_655
Li13 O9 1.983361 1_555
Li13 O13 1.997374 1_555
Li13 O18 2.069984 1_655
Li14 O22 1.940480 1_554
Li14 O10 2.001886 1_455
Li14 O14 2.007027 1_454
Li14 O19 2.062405 1_555
Li15 O23 1.945231 1_555
Li15 O15 1.999302 1_555
Li15 O11 2.013750 1_545
Li15 O16 2.046941 1_556
Ni0 O9 1.970892 1_555
Ni0 O18 1.983569 1_555
Ni0 O12 1.997861 1_555
Ni0 O5 1.998365 1_555
Ni1 O6 1.971233 1_655
Ni1 O13 1.983093 1_555
Ni1 O19 1.998002 1_555
Ni1 O10 1.998241 1_555
Ni2 O7 1.976486 1_565
Ni2 O14 1.979997 1_454
Ni2 O16 1.995061 1_465
Ni2 O11 2.003706 1_554
Ni3 O8 1.975698 1_555
Ni3 O17 1.979883 1_455
Ni3 O15 1.995625 1_555
Ni3 O4 2.004275 1_555
O0 Si3 1.723590 1_555
O0 Si4 1.723673 1_555
O1 Si0 1.718482 1_455
O1 Si5 1.723861 1_454
O2 Si1 1.718714 1_556
O2 Si6 1.718916 1_555
O3 Si7 1.718845 1_555
O3 Si2 1.724028 1_555
O4 Si5 1.648677 1_555
O5 Si6 1.649715 1_655
O6 Si7 1.647874 1_555
O7 Si4 1.646942 1_555
O8 Si3 1.647216 1_555
O9 Si0 1.647736 1_555
O10 Si1 1.649388 1_655
O11 Si2 1.648657 1_555
O12 Si0 1.647936 1_455
O13 Si1 1.644057 1_555
O14 Si2 1.641870 1_555
O15 Si3 1.646181 1_455
O16 Si4 1.645861 1_555
O17 Si5 1.641754 1_555
O18 Si6 1.644242 1_555
O19 Si7 1.647760 1_555
O20 Si0 1.619390 1_555
O21 Si1 1.622522 1_555
O22 Si2 1.621878 1_555
O23 Si3 1.618862 1_555
O24 Si4 1.619431 1_555
O25 Si5 1.622056 1_555
O26 Si6 1.621991 1_655
O27 Si7 1.619327 1_555
