# generated using pymatgen
data_Be3Si3(SbO6)2
_symmetry_space_group_name_H-M   'P 1'
_cell_length_a   8.26429300
_cell_length_b   8.28120700
_cell_length_c   16.47367458
_cell_angle_alpha   60.70016056
_cell_angle_beta   90.00000000
_cell_angle_gamma   90.00000000
_symmetry_Int_Tables_number   1
_chemical_formula_structural   Be3Si3(SbO6)2
_chemical_formula_sum   'Be12 Si12 Sb8 O48'
_cell_volume   983.19915526
_cell_formula_units_Z   4
loop_
 _symmetry_equiv_pos_site_id
 _symmetry_equiv_pos_as_xyz
  1  'x, y, z'
loop_
 _atom_site_type_symbol
 _atom_site_label
 _atom_site_symmetry_multiplicity
 _atom_site_fract_x
 _atom_site_fract_y
 _atom_site_fract_z
 _atom_site_occupancy
  Be  Be0  1  0.15152100  0.32850900  0.24274900  1
  Be  Be1  1  0.33638500  0.98584100  0.59656200  1
  Be  Be2  1  0.83638500  0.01415900  0.90343800  1
  Be  Be3  1  0.66361500  0.01415900  0.40343800  1
  Be  Be4  1  0.16361500  0.98584100  0.09656200  1
  Be  Be5  1  0.83528400  0.30762800  0.57932400  1
  Be  Be6  1  0.33528400  0.69237200  0.92067600  1
  Be  Be7  1  0.16471600  0.69237200  0.42067600  1
  Be  Be8  1  0.66471600  0.30762800  0.07932400  1
  Be  Be9  1  0.34847900  0.32850900  0.74274900  1
  Be  Be10  1  0.84847900  0.67149100  0.75725100  1
  Be  Be11  1  0.65152100  0.67149100  0.25725100  1
  Si  Si0  1  0.77233600  0.32626500  0.24056300  1
  Si  Si1  1  0.27233600  0.67373500  0.25943700  1
  Si  Si2  1  0.22766400  0.67373500  0.75943700  1
  Si  Si3  1  0.72766400  0.32626500  0.74056300  1
  Si  Si4  1  0.28289800  0.30744800  0.08487100  1
  Si  Si5  1  0.78289800  0.69255200  0.41512900  1
  Si  Si6  1  0.71710200  0.69255200  0.91512900  1
  Si  Si7  1  0.21710200  0.30744800  0.58487100  1
  Si  Si8  1  0.78968200  0.97635500  0.09350800  1
  Si  Si9  1  0.28968200  0.02364500  0.40649200  1
  Si  Si10  1  0.21031800  0.02364500  0.90649200  1
  Si  Si11  1  0.71031800  0.97635500  0.59350800  1
  Sb  Sb0  1  0.50388000  0.35308800  0.90770700  1
  Sb  Sb1  1  0.99612000  0.35308800  0.40770700  1
  Sb  Sb2  1  0.49612000  0.64691200  0.09229300  1
  Sb  Sb3  1  0.00388000  0.64691200  0.59229300  1
  Sb  Sb4  1  0.44739300  0.67140200  0.58232800  1
  Sb  Sb5  1  0.94739300  0.32859800  0.91767200  1
  Sb  Sb6  1  0.55260700  0.32859800  0.41767200  1
  Sb  Sb7  1  0.05260700  0.67140200  0.08232800  1
  O  O0  1  0.83662600  0.79263100  0.95627700  1
  O  O1  1  0.95989800  0.39103500  0.20761800  1
  O  O2  1  0.45989800  0.60896500  0.29238200  1
  O  O3  1  0.04010200  0.60896500  0.79238200  1
  O  O4  1  0.54010200  0.39103500  0.70761800  1
  O  O5  1  0.46953700  0.27831700  0.04908000  1
  O  O6  1  0.96953700  0.72168300  0.45092000  1
  O  O7  1  0.53046300  0.72168300  0.95092000  1
  O  O8  1  0.03046300  0.27831700  0.54908000  1
  O  O9  1  0.97575300  0.88753700  0.11120000  1
  O  O10  1  0.47575300  0.11246300  0.38880000  1
  O  O11  1  0.02424700  0.11246300  0.88880000  1
  O  O12  1  0.83288000  0.79173000  0.64079100  1
  O  O13  1  0.33288000  0.20827000  0.85920900  1
  O  O14  1  0.16712000  0.20827000  0.35920900  1
  O  O15  1  0.66712000  0.79173000  0.14079100  1
  O  O16  1  0.33662600  0.20736900  0.54372300  1
  O  O17  1  0.52424700  0.88753700  0.61120000  1
  O  O18  1  0.66337400  0.79263100  0.45627700  1
  O  O19  1  0.16337400  0.20736900  0.04372300  1
  O  O20  1  0.26438400  0.90868500  0.52322300  1
  O  O21  1  0.34434600  0.58516500  0.85744900  1
  O  O22  1  0.15565400  0.58516500  0.35744900  1
  O  O23  1  0.65565400  0.41483500  0.14255100  1
  O  O24  1  0.25861800  0.88744700  0.18865600  1
  O  O25  1  0.75861800  0.11255300  0.31134400  1
  O  O26  1  0.74138200  0.11255300  0.81134400  1
  O  O27  1  0.24138200  0.88744700  0.68865600  1
  O  O28  1  0.26305400  0.25731300  0.19087600  1
  O  O29  1  0.76305400  0.74268700  0.30912400  1
  O  O30  1  0.73694600  0.74268700  0.80912400  1
  O  O31  1  0.23694600  0.25731300  0.69087600  1
  O  O32  1  0.76521100  0.12823000  0.12477500  1
  O  O33  1  0.26521100  0.87177000  0.37522500  1
  O  O34  1  0.23478900  0.87177000  0.87522500  1
  O  O35  1  0.73478900  0.12823000  0.62477500  1
  O  O36  1  0.20632900  0.55731400  0.20573200  1
  O  O37  1  0.70632900  0.44268600  0.29426800  1
  O  O38  1  0.79367100  0.44268600  0.79426800  1
  O  O39  1  0.29367100  0.55731400  0.70573200  1
  O  O40  1  0.26938900  0.54008600  0.02564500  1
  O  O41  1  0.76938900  0.45991400  0.47435500  1
  O  O42  1  0.73061100  0.45991400  0.97435500  1
  O  O43  1  0.23061100  0.54008600  0.52564500  1
  O  O44  1  0.23561600  0.90868500  0.02322300  1
  O  O45  1  0.73561600  0.09131500  0.47677700  1
  O  O46  1  0.76438400  0.09131500  0.97677700  1
  O  O47  1  0.84434600  0.41483500  0.64255100  1
loop_
_geom_bond_atom_site_label_1
_geom_bond_atom_site_label_2
_geom_bond_distance
_geom_bond_site_symmetry_2
Be0 O28 1.555823 1_555
Be0 O1 1.678578 1_455
Be0 O14 1.679010 1_555
Be0 O36 1.742503 1_555
Be1 O27 1.540165 1_555
Be1 O16 1.600065 1_565
Be1 O17 1.714390 1_555
Be1 O20 1.725552 1_555
Be2 O26 1.540165 1_555
Be2 O0 1.600065 1_545
Be2 O11 1.714390 1_655
Be2 O46 1.725552 1_555
Be3 O25 1.540165 1_555
Be3 O18 1.600065 1_545
Be3 O10 1.714390 1_555
Be3 O45 1.725552 1_555
Be4 O24 1.540165 1_555
Be4 O19 1.600065 1_565
Be4 O9 1.714390 1_455
Be4 O44 1.725552 1_555
Be5 O35 1.539075 1_555
Be5 O41 1.656127 1_555
Be5 O47 1.668464 1_555
Be5 O8 1.739925 1_655
Be6 O34 1.539075 1_555
Be6 O40 1.656127 1_556
Be6 O21 1.668464 1_555
Be6 O7 1.739925 1_555
Be7 O33 1.539075 1_555
Be7 O43 1.656127 1_555
Be7 O22 1.668464 1_555
Be7 O6 1.739925 1_455
Be8 O32 1.539075 1_555
Be8 O42 1.656127 1_554
Be8 O23 1.668464 1_555
Be8 O5 1.739925 1_555
Be9 O31 1.555823 1_555
Be9 O4 1.678578 1_555
Be9 O13 1.679010 1_555
Be9 O39 1.742503 1_555
Be10 O30 1.555823 1_555
Be10 O3 1.678578 1_655
Be10 O12 1.679010 1_555
Be10 O38 1.742503 1_555
Be11 O29 1.555823 1_555
Be11 O2 1.678578 1_555
Be11 O15 1.679010 1_555
Be11 O37 1.742503 1_555
O0 Si6 1.634605 1_555
O0 Sb7 2.542714 1_656
O1 Si0 1.643179 1_555
O1 Sb7 2.355288 1_655
O2 Si1 1.643179 1_555
O2 Sb6 2.355288 1_555
O3 Si2 1.643179 1_555
O3 Sb5 2.355288 1_455
O4 Si3 1.643179 1_555
O4 Sb4 2.355288 1_555
O5 Si4 1.710021 1_555
O5 Sb0 2.115763 1_554
O6 Si5 1.710021 1_555
O6 Sb3 2.115763 1_655
O7 Si6 1.710021 1_555
O7 Sb2 2.115763 1_556
O8 Si7 1.710021 1_555
O8 Sb1 2.115763 1_455
O9 Si8 1.667567 1_555
O9 Sb7 2.160196 1_655
O10 Si9 1.667567 1_555
O10 Sb6 2.160196 1_555
O11 Si10 1.667567 1_555
O11 Sb5 2.160196 1_455
O12 Si11 1.674706 1_555
O12 Sb3 2.238629 1_655
O13 Si10 1.674706 1_555
O13 Sb0 2.238629 1_555
O14 Si9 1.674706 1_555
O14 Sb1 2.238629 1_455
O15 Si8 1.674706 1_555
O15 Sb2 2.238629 1_555
O16 Si7 1.634605 1_555
O16 Sb6 2.542714 1_555
O17 Si11 1.667567 1_555
O17 Sb4 2.160196 1_555
O18 Si5 1.634605 1_555
O18 Sb4 2.542714 1_555
O19 Si4 1.634605 1_555
O19 Sb5 2.542714 1_454
O20 Si9 1.689999 1_565
O20 Sb4 2.285624 1_555
O20 Sb3 2.866131 1_555
O21 Si2 1.707546 1_555
O21 Sb0 2.135409 1_555
O22 Si1 1.707546 1_555
O22 Sb1 2.135409 1_455
O23 Si0 1.707546 1_555
O23 Sb2 2.135409 1_555
O24 Si1 1.576338 1_555
O25 Si0 1.576338 1_555
O26 Si3 1.576338 1_555
O27 Si2 1.576338 1_555
O28 Si4 1.593481 1_555
O29 Si5 1.593481 1_555
O30 Si6 1.593481 1_555
O31 Si7 1.593481 1_555
O32 Si8 1.588113 1_545
O33 Si9 1.588113 1_565
O34 Si10 1.588113 1_565
O35 Si11 1.588113 1_545
O36 Si1 1.686608 1_555
O36 Sb7 2.181610 1_555
O36 Sb2 2.901946 1_555
O37 Si0 1.686608 1_555
O37 Sb6 2.181610 1_555
O37 Sb1 2.901946 1_555
O38 Si3 1.686608 1_555
O38 Sb5 2.181610 1_555
O38 Sb0 2.901946 1_555
O39 Si2 1.686608 1_555
O39 Sb4 2.181610 1_555
O39 Sb3 2.901946 1_555
O40 Si4 1.684091 1_555
O40 Sb7 2.501604 1_555
O40 Sb2 2.539635 1_555
O41 Si5 1.684091 1_555
O41 Sb6 2.501604 1_555
O41 Sb1 2.539635 1_555
O42 Si6 1.684091 1_555
O42 Sb5 2.501604 1_555
O42 Sb0 2.539635 1_555
O43 Si7 1.684091 1_555
O43 Sb4 2.501604 1_555
O43 Sb3 2.539635 1_555
O44 Si10 1.689999 1_564
O44 Sb7 2.285624 1_555
O44 Sb2 2.866131 1_555
O45 Si11 1.689999 1_545
O45 Sb6 2.285624 1_555
O45 Sb1 2.866131 1_555
O46 Si8 1.689999 1_546
O46 Sb5 2.285624 1_555
O46 Sb0 2.866131 1_555
O47 Si3 1.707546 1_555
O47 Sb3 2.135409 1_655
