# generated using pymatgen
data_KNd(SO4)2
_symmetry_space_group_name_H-M   'P 1'
_cell_length_a   7.14006943
_cell_length_b   8.48280822
_cell_length_c   10.64985493
_cell_angle_alpha   92.35828202
_cell_angle_beta   90.00000000
_cell_angle_gamma   90.00000000
_symmetry_Int_Tables_number   1
_chemical_formula_structural   KNd(SO4)2
_chemical_formula_sum   'K4 Nd4 S8 O32'
_cell_volume   644.49239353
_cell_formula_units_Z   4
loop_
 _symmetry_equiv_pos_site_id
 _symmetry_equiv_pos_as_xyz
  1  'x, y, z'
loop_
 _atom_site_type_symbol
 _atom_site_label
 _atom_site_symmetry_multiplicity
 _atom_site_fract_x
 _atom_site_fract_y
 _atom_site_fract_z
 _atom_site_occupancy
  K  K0  1  0.85367530  0.56542608  0.34286093  1
  K  K1  1  0.35367530  0.43457392  0.15713907  1
  K  K2  1  0.14632470  0.43457392  0.65713907  1
  K  K3  1  0.64632470  0.56542608  0.84286093  1
  Nd  Nd0  1  0.66888382  0.05833517  0.34898908  1
  Nd  Nd1  1  0.16888382  0.94166483  0.15101092  1
  Nd  Nd2  1  0.33111618  0.94166483  0.65101092  1
  Nd  Nd3  1  0.83111618  0.05833517  0.84898908  1
  S  S0  1  0.84260908  0.27930237  0.09061439  1
  S  S1  1  0.34260908  0.72069763  0.40938561  1
  S  S2  1  0.15739092  0.72069763  0.90938561  1
  S  S3  1  0.65739092  0.27930237  0.59061439  1
  S  S4  1  0.66566963  0.81196998  0.10904471  1
  S  S5  1  0.16566963  0.18803002  0.39095529  1
  S  S6  1  0.33433037  0.18803002  0.89095529  1
  S  S7  1  0.83433037  0.81196998  0.60904471  1
  O  O0  1  0.97228732  0.39993775  0.13126417  1
  O  O1  1  0.47228732  0.60006225  0.36873583  1
  O  O2  1  0.02771268  0.60006225  0.86873583  1
  O  O3  1  0.52771268  0.39993775  0.63126417  1
  O  O4  1  0.74852836  0.30789267  0.46919722  1
  O  O5  1  0.24852836  0.69210733  0.03080278  1
  O  O6  1  0.25147164  0.69210733  0.53080278  1
  O  O7  1  0.75147164  0.30789267  0.96919722  1
  O  O8  1  0.69787037  0.25321862  0.18719601  1
  O  O9  1  0.19787037  0.74678138  0.31280399  1
  O  O10  1  0.30212963  0.74678138  0.81280399  1
  O  O11  1  0.80212963  0.25321862  0.68719601  1
  O  O12  1  0.44218930  0.87481068  0.43698676  1
  O  O13  1  0.94218930  0.12518932  0.06301324  1
  O  O14  1  0.55781070  0.12518932  0.56301324  1
  O  O15  1  0.05781070  0.87481068  0.93698676  1
  O  O16  1  0.67845435  0.87091406  0.98224835  1
  O  O17  1  0.17845435  0.12908594  0.51775165  1
  O  O18  1  0.32154565  0.12908594  0.01775165  1
  O  O19  1  0.82154565  0.87091406  0.48224835  1
  O  O20  1  0.85810181  0.64401632  0.60648561  1
  O  O21  1  0.35810181  0.35598368  0.89351439  1
  O  O22  1  0.14189819  0.35598368  0.39351439  1
  O  O23  1  0.64189819  0.64401632  0.10648561  1
  O  O24  1  0.66680199  0.85879928  0.68788969  1
  O  O25  1  0.16680199  0.14120072  0.81211031  1
  O  O26  1  0.33319801  0.14120072  0.31211031  1
  O  O27  1  0.83319801  0.85879928  0.18788969  1
  O  O28  1  0.98997003  0.89851245  0.67676747  1
  O  O29  1  0.48997003  0.10148755  0.82323253  1
  O  O30  1  0.01002997  0.10148755  0.32323253  1
  O  O31  1  0.51002997  0.89851245  0.17676747  1
loop_
_geom_bond_atom_site_label_1
_geom_bond_atom_site_label_2
_geom_bond_distance
_geom_bond_site_symmetry_2
K0 O4 2.718144 1_555
K0 O0 2.739656 1_555
K0 O1 2.751558 1_555
K0 O22 2.785944 1_655
K0 O20 2.858990 1_555
K0 O9 2.923928 1_655
K0 O19 2.941937 1_555
K0 O23 3.034160 1_555
K0 O27 3.045744 1_555
K0 O8 3.261682 1_555
K1 O5 2.718144 1_555
K1 O1 2.739656 1_555
K1 O0 2.751558 1_455
K1 O23 2.785944 1_555
K1 O21 2.858990 1_554
K1 O8 2.923928 1_555
K1 O18 2.941937 1_555
K1 O22 3.034160 1_555
K1 O26 3.045744 1_555
K1 O9 3.261682 1_555
K2 O6 2.718144 1_555
K2 O2 2.739656 1_555
K2 O3 2.751558 1_555
K2 O20 2.785944 1_455
K2 O22 2.858990 1_555
K2 O11 2.923928 1_455
K2 O17 2.941937 1_555
K2 O21 3.034160 1_555
K2 O25 3.045744 1_555
K2 O10 3.261682 1_555
K3 O7 2.718144 1_555
K3 O3 2.739656 1_555
K3 O2 2.751558 1_655
K3 O21 2.785944 1_555
K3 O23 2.858990 1_556
K3 O10 2.923928 1_555
K3 O16 2.941937 1_555
K3 O20 3.034160 1_555
K3 O24 3.045744 1_555
K3 O11 3.261682 1_555
Nd0 O19 2.432195 1_545
Nd0 O8 2.445234 1_555
Nd0 O14 2.457544 1_555
Nd0 O12 2.458026 1_545
Nd0 O30 2.480052 1_655
Nd0 O4 2.494139 1_555
Nd0 O31 2.506777 1_545
Nd0 O26 2.532950 1_555
Nd0 O27 2.635526 1_545
Nd1 O18 2.432195 1_565
Nd1 O9 2.445234 1_555
Nd1 O15 2.457544 1_554
Nd1 O13 2.458026 1_465
Nd1 O31 2.480052 1_555
Nd1 O5 2.494139 1_555
Nd1 O30 2.506777 1_565
Nd1 O27 2.532950 1_455
Nd1 O26 2.635526 1_565
Nd2 O17 2.432195 1_565
Nd2 O10 2.445234 1_555
Nd2 O12 2.457544 1_555
Nd2 O14 2.458026 1_565
Nd2 O28 2.480052 1_455
Nd2 O6 2.494139 1_555
Nd2 O29 2.506777 1_565
Nd2 O24 2.532950 1_555
Nd2 O25 2.635526 1_565
Nd3 O16 2.432195 1_545
Nd3 O11 2.445234 1_555
Nd3 O13 2.457544 1_556
Nd3 O15 2.458026 1_645
Nd3 O29 2.480052 1_555
Nd3 O7 2.494139 1_555
Nd3 O28 2.506777 1_545
Nd3 O25 2.532950 1_655
Nd3 O24 2.635526 1_545
O0 S0 1.433690 1_555
O1 S1 1.433690 1_555
O2 S2 1.433690 1_555
O3 S3 1.433690 1_555
O4 S3 1.476522 1_555
O5 S2 1.476522 1_554
O6 S1 1.476522 1_555
O7 S0 1.476522 1_556
O8 S0 1.481105 1_555
O9 S1 1.481105 1_555
O10 S2 1.481105 1_555
O11 S3 1.481105 1_555
O12 S1 1.506446 1_555
O13 S0 1.506446 1_555
O14 S3 1.506446 1_555
O15 S2 1.506446 1_555
O16 S4 1.461982 1_556
O17 S5 1.461982 1_555
O18 S6 1.461982 1_554
O19 S7 1.461982 1_555
O20 S7 1.433938 1_555
O21 S6 1.433938 1_555
O22 S5 1.433938 1_555
O23 S4 1.433938 1_555
O24 S7 1.505402 1_555
O25 S6 1.505402 1_555
O26 S5 1.505402 1_555
O27 S4 1.505402 1_555
O28 S7 1.500162 1_555
O29 S6 1.500162 1_555
O30 S5 1.500162 1_555
O31 S4 1.500162 1_555
