# generated using pymatgen
data_Ba3La5Tl2(Cu2O9)2
_symmetry_space_group_name_H-M   'P 1'
_cell_length_a   16.12877024
_cell_length_b   16.12877024
_cell_length_c   5.42915100
_cell_angle_alpha   90.00000000
_cell_angle_beta   90.00000000
_cell_angle_gamma   160.61106028
_symmetry_Int_Tables_number   1
_chemical_formula_structural   Ba3La5Tl2(Cu2O9)2
_chemical_formula_sum   'Ba3 La5 Tl2 Cu4 O18'
_cell_volume   468.86207609
_cell_formula_units_Z   1
loop_
 _symmetry_equiv_pos_site_id
 _symmetry_equiv_pos_as_xyz
  1  'x, y, z'
loop_
 _atom_site_type_symbol
 _atom_site_label
 _atom_site_symmetry_multiplicity
 _atom_site_fract_x
 _atom_site_fract_y
 _atom_site_fract_z
 _atom_site_occupancy
  Ba  Ba0  1  0.91678200  0.08321800  0.50000000  1
  Ba  Ba1  1  0.08359000  0.91641000  0.50000000  1
  Ba  Ba2  1  0.58247500  0.41752500  0.00000000  1
  La  La0  1  0.79672900  0.20327100  0.50000000  1
  La  La1  1  0.29608900  0.70391100  0.00000000  1
  La  La2  1  0.70425500  0.29574500  0.00000000  1
  La  La3  1  0.20428600  0.79571400  0.50000000  1
  La  La4  1  0.41310900  0.58689100  0.00000000  1
  Tl  Tl0  1  0.49814100  0.50185900  0.50000000  1
  Tl  Tl1  1  0.99832900  0.00167100  0.00000000  1
  Cu  Cu0  1  0.85356700  0.14643300  0.00000000  1
  Cu  Cu1  1  0.35350500  0.64649500  0.50000000  1
  Cu  Cu2  1  0.64778900  0.35221100  0.50000000  1
  Cu  Cu3  1  0.14860200  0.85139800  0.00000000  1
  O  O0  1  0.93126800  0.06873200  0.00000000  1
  O  O1  1  0.43128200  0.56871800  0.50000000  1
  O  O2  1  0.56406200  0.43593800  0.50000000  1
  O  O3  1  0.06442900  0.93557100  0.00000000  1
  O  O4  1  0.77921800  0.22078200  0.00000000  1
  O  O5  1  0.27897000  0.72103000  0.50000000  1
  O  O6  1  0.72516100  0.27483900  0.50000000  1
  O  O7  1  0.22270100  0.77729900  0.00000000  1
  O  O8  1  0.11244500  0.40585800  0.75744600  1
  O  O9  1  0.59414200  0.88755500  0.24255400  1
  O  O10  1  0.59414200  0.88755500  0.75744600  1
  O  O11  1  0.11244500  0.40585800  0.24255400  1
  O  O12  1  0.40336900  0.10119200  0.74951600  1
  O  O13  1  0.89880800  0.59663100  0.25048400  1
  O  O14  1  0.89880800  0.59663100  0.74951600  1
  O  O15  1  0.40336900  0.10119200  0.25048400  1
  O  O16  1  0.48861200  0.51138800  0.00000000  1
  O  O17  1  0.99951800  0.00048200  0.50000000  1
loop_
_geom_bond_atom_site_label_1
_geom_bond_atom_site_label_2
_geom_bond_distance
_geom_bond_site_symmetry_2
Ba0 O17 2.630748 1_555
Ba0 O0 2.753376 1_556
Ba0 O0 2.753376 1_555
Ba0 O1 2.754847 1_655
Ba0 O1 2.754847 1_545
Ba0 O9 2.830290 1_545
Ba0 O10 2.830290 1_545
Ba0 O11 2.830290 1_655
Ba0 O8 2.830290 1_655
Ba1 O17 2.673228 1_465
Ba1 O3 2.782107 1_556
Ba1 O3 2.782107 1_555
Ba1 O2 2.786066 1_565
Ba1 O2 2.786066 1_455
Ba1 O14 2.884339 1_455
Ba1 O13 2.884339 1_455
Ba1 O12 2.884339 1_565
Ba1 O15 2.884339 1_565
Ba2 O3 2.775944 1_655
Ba2 O3 2.775944 1_545
Ba2 O2 2.776995 1_555
Ba2 O2 2.776995 1_554
Ba2 O13 2.901694 1_555
Ba2 O14 2.901694 1_554
Ba2 O15 2.901694 1_555
Ba2 O12 2.901694 1_554
Ba2 O16 2.984552 1_555
La0 O6 2.275640 1_555
La0 O8 2.677707 1_655
La0 O11 2.677707 1_655
La0 O9 2.677707 1_545
La0 O10 2.677707 1_545
La0 O4 2.771090 1_556
La0 O4 2.771090 1_555
La0 O5 2.774072 1_545
La0 O5 2.774072 1_655
La1 O7 2.333510 1_555
La1 O8 2.598889 1_554
La1 O11 2.598889 1_555
La1 O10 2.598889 1_554
La1 O9 2.598889 1_555
La1 O4 2.768463 1_565
La1 O4 2.768463 1_455
La1 O5 2.768613 1_554
La1 O5 2.768613 1_555
La2 O4 2.383591 1_555
La2 O15 2.553022 1_555
La2 O12 2.553022 1_554
La2 O13 2.553022 1_555
La2 O14 2.553022 1_554
La2 O7 2.778601 1_655
La2 O7 2.778601 1_545
La2 O6 2.794782 1_554
La2 O6 2.794782 1_555
La3 O5 2.374719 1_555
La3 O15 2.564036 1_565
La3 O12 2.564036 1_565
La3 O13 2.564036 1_455
La3 O14 2.564036 1_455
La3 O7 2.777009 1_555
La3 O7 2.777009 1_556
La3 O6 2.795924 1_455
La3 O6 2.795924 1_565
La4 O16 2.400761 1_555
La4 O10 2.657657 1_554
La4 O9 2.657657 1_555
La4 O8 2.657657 1_554
La4 O11 2.657657 1_555
La4 O1 2.775396 1_555
La4 O1 2.775396 1_554
La4 O0 2.776689 1_455
La4 O0 2.776689 1_565
Cu0 O9 1.927652 1_545
Cu0 O10 1.927652 1_544
Cu0 O11 1.927652 1_655
Cu0 O8 1.927652 1_654
Cu0 O4 2.364067 1_555
Cu0 O0 2.470650 1_555
Cu1 O8 1.914486 1_555
Cu1 O11 1.914486 1_555
Cu1 O10 1.914486 1_555
Cu1 O9 1.914486 1_555
Cu1 O5 2.369981 1_555
Cu1 O1 2.473067 1_555
Cu2 O14 1.912269 1_555
Cu2 O13 1.912269 1_555
Cu2 O15 1.912269 1_555
Cu2 O12 1.912269 1_555
Cu2 O6 2.460189 1_555
Cu2 O2 2.662259 1_555
Cu3 O14 1.932245 1_454
Cu3 O13 1.932245 1_455
Cu3 O15 1.932245 1_565
Cu3 O12 1.932245 1_564
Cu3 O7 2.356118 1_555
Cu3 O3 2.676440 1_555
O0 Tl1 2.132332 1_555
O1 Tl0 2.125909 1_555
O2 Tl0 2.096083 1_555
O3 Tl1 2.101775 1_465
O16 Tl0 2.731433 1_555
O16 Tl0 2.731433 1_554
O16 Tl1 2.733510 1_565
O16 Tl1 2.733510 1_455
O17 Tl1 2.714839 1_555
O17 Tl1 2.714839 1_556
O17 Tl0 2.716345 1_545
O17 Tl0 2.716345 1_655
