# generated using pymatgen
data_GaAu(I4N)2
_symmetry_space_group_name_H-M   'P 1'
_cell_length_a   6.76751600
_cell_length_b   13.10241100
_cell_length_c   22.22992500
_cell_angle_alpha   90.00000000
_cell_angle_beta   90.00000000
_cell_angle_gamma   90.00000000
_symmetry_Int_Tables_number   1
_chemical_formula_structural   GaAu(I4N)2
_chemical_formula_sum   'Ga4 Au4 I32 N8'
_cell_volume   1971.14470197
_cell_formula_units_Z   4
loop_
 _symmetry_equiv_pos_site_id
 _symmetry_equiv_pos_as_xyz
  1  'x, y, z'
loop_
 _atom_site_type_symbol
 _atom_site_label
 _atom_site_symmetry_multiplicity
 _atom_site_fract_x
 _atom_site_fract_y
 _atom_site_fract_z
 _atom_site_occupancy
  Ga  Ga0  1  0.58992500  0.77905700  0.25000000  1
  Ga  Ga1  1  0.91007500  0.27905700  0.25000000  1
  Ga  Ga2  1  0.41007500  0.22094300  0.75000000  1
  Ga  Ga3  1  0.08992500  0.72094300  0.75000000  1
  Au  Au0  1  0.50000000  0.50000000  0.00000000  1
  Au  Au1  1  0.00000000  0.00000000  0.50000000  1
  Au  Au2  1  0.50000000  0.50000000  0.50000000  1
  Au  Au3  1  0.00000000  0.00000000  0.00000000  1
  I  I0  1  0.73910000  0.61706700  0.93444300  1
  I  I1  1  0.76090000  0.11706700  0.56555700  1
  I  I2  1  0.26090000  0.38293300  0.43444300  1
  I  I3  1  0.23910000  0.88293300  0.06555700  1
  I  I4  1  0.26090000  0.38293300  0.06555700  1
  I  I5  1  0.23910000  0.88293300  0.43444300  1
  I  I6  1  0.73910000  0.61706700  0.56555700  1
  I  I7  1  0.76090000  0.11706700  0.93444300  1
  I  I8  1  0.75614000  0.38067000  0.05851100  1
  I  I9  1  0.74386000  0.88067000  0.44148900  1
  I  I10  1  0.24386000  0.61933000  0.55851100  1
  I  I11  1  0.25614000  0.11933000  0.94148900  1
  I  I12  1  0.24386000  0.61933000  0.94148900  1
  I  I13  1  0.25614000  0.11933000  0.55851100  1
  I  I14  1  0.75614000  0.38067000  0.44148900  1
  I  I15  1  0.74386000  0.88067000  0.05851100  1
  I  I16  1  0.96915500  0.79956600  0.25000000  1
  I  I17  1  0.53084500  0.29956600  0.25000000  1
  I  I18  1  0.03084500  0.20043400  0.75000000  1
  I  I19  1  0.46915500  0.70043400  0.75000000  1
  I  I20  1  0.43437200  0.95857100  0.25000000  1
  I  I21  1  0.06562800  0.45857100  0.25000000  1
  I  I22  1  0.56562800  0.04142900  0.75000000  1
  I  I23  1  0.93437200  0.54142900  0.75000000  1
  I  I24  1  0.49417700  0.67924800  0.15309100  1
  I  I25  1  0.00582300  0.17924800  0.34690900  1
  I  I26  1  0.50582300  0.32075200  0.65309100  1
  I  I27  1  0.99417700  0.82075200  0.84690900  1
  I  I28  1  0.50582300  0.32075200  0.84690900  1
  I  I29  1  0.99417700  0.82075200  0.65309100  1
  I  I30  1  0.49417700  0.67924800  0.34690900  1
  I  I31  1  0.00582300  0.17924800  0.15309100  1
  N  N0  1  0.49097100  0.86712500  0.89725500  1
  N  N1  1  0.00902900  0.36712500  0.60274500  1
  N  N2  1  0.50902900  0.13287500  0.39725500  1
  N  N3  1  0.99097100  0.63287500  0.10274500  1
  N  N4  1  0.50902900  0.13287500  0.10274500  1
  N  N5  1  0.99097100  0.63287500  0.39725500  1
  N  N6  1  0.49097100  0.86712500  0.60274500  1
  N  N7  1  0.00902900  0.36712500  0.89725500  1
loop_
_geom_bond_atom_site_label_1
_geom_bond_atom_site_label_2
_geom_bond_distance
_geom_bond_site_symmetry_2
Ga0 I20 2.576899 1_555
Ga0 I16 2.580475 1_555
Ga0 I30 2.602110 1_555
Ga0 I24 2.602110 1_555
Ga1 I21 2.576899 1_655
Ga1 I17 2.580475 1_555
Ga1 I25 2.602110 1_655
Ga1 I31 2.602110 1_655
Ga2 I22 2.576899 1_555
Ga2 I18 2.580475 1_555
Ga2 I28 2.602110 1_555
Ga2 I26 2.602110 1_555
Ga3 I23 2.576899 1_455
Ga3 I19 2.580475 1_555
Ga3 I27 2.602110 1_455
Ga3 I29 2.602110 1_455
Au0 I4 2.663610 1_555
Au0 I0 2.663610 1_554
Au0 I8 2.672295 1_555
Au0 I12 2.672295 1_554
Au1 I1 2.663610 1_455
Au1 I5 2.663610 1_545
Au1 I13 2.672295 1_555
Au1 I9 2.672295 1_445
Au2 I6 2.663610 1_555
Au2 I2 2.663610 1_555
Au2 I10 2.672295 1_555
Au2 I14 2.672295 1_555
Au3 I3 2.663610 1_545
Au3 I7 2.663610 1_454
Au3 I15 2.672295 1_445
Au3 I11 2.672295 1_554
I0 I12 3.355334 1_555
I0 I12 3.419689 1_655
I0 I27 3.726745 1_555
I0 N0 3.773292 1_555
I0 N7 3.839924 1_655
I0 N3 4.116551 1_556
I1 I13 3.355334 1_655
I1 I13 3.419689 1_555
I1 I26 3.726745 1_555
I1 N1 3.773292 1_655
I1 N6 3.839924 1_545
I1 N2 4.116551 1_555
I2 I25 3.726745 1_555
I2 N2 3.773292 1_555
I2 N5 3.839924 1_455
I2 N1 4.116551 1_555
I3 N3 3.773292 1_455
I3 N4 3.839924 1_565
I3 N0 4.116551 1_554
I4 I8 3.355334 1_555
I4 I8 3.419689 1_455
I4 N4 3.773292 1_555
I4 N3 3.839924 1_455
I4 N7 4.116551 1_554
I5 I9 3.355334 1_455
I5 I9 3.419689 1_555
I5 N5 3.773292 1_455
I5 N2 3.839924 1_565
I5 N6 4.116551 1_555
I6 N6 3.773292 1_555
I6 N1 3.839924 1_655
I6 N5 4.116551 1_555
I7 N7 3.773292 1_655
I7 N0 3.839924 1_545
I7 N4 4.116551 1_556
I8 N4 3.782160 1_555
I8 N3 3.796343 1_555
I8 N7 3.976258 1_654
I9 N5 3.782160 1_555
I9 N2 3.796343 1_565
I9 N6 3.976258 1_555
I10 I6 3.355334 1_555
I10 I6 3.419689 1_455
I10 N6 3.782160 1_555
I10 N1 3.796343 1_555
I10 N5 3.976258 1_455
I11 I7 3.355334 1_455
I11 I7 3.419689 1_555
I11 N7 3.782160 1_555
I11 N0 3.796343 1_545
I11 N4 3.976258 1_556
I12 N0 3.782160 1_555
I12 N7 3.796343 1_555
I12 N3 3.976258 1_456
I13 N1 3.782160 1_555
I13 N6 3.796343 1_545
I13 N2 3.976258 1_555
I14 I2 3.355334 1_555
I14 I2 3.419689 1_655
I14 N2 3.782160 1_555
I14 N5 3.796343 1_555
I14 N1 3.976258 1_655
I15 I3 3.355334 1_655
I15 I3 3.419689 1_555
I15 N3 3.782160 1_555
I15 N4 3.796343 1_565
I15 N0 3.976258 1_554
I16 N5 3.937954 1_555
I16 N3 3.937954 1_555
I17 N2 3.937954 1_555
I17 N4 3.937954 1_555
I18 N7 3.937954 1_555
I18 N1 3.937954 1_555
I19 N0 3.937954 1_555
I19 N6 3.937954 1_555
I20 N2 4.023259 1_565
I20 N4 4.023259 1_565
I21 N5 4.023259 1_455
I21 N3 4.023259 1_455
I22 N0 4.023259 1_545
I22 N6 4.023259 1_545
I23 N7 4.023259 1_655
I23 N1 4.023259 1_655
I24 N3 3.595165 1_555
I24 N3 3.635778 1_455
I24 I3 3.726745 1_555
I25 N2 3.595165 1_455
I25 N2 3.635778 1_555
I26 N1 3.595165 1_555
I26 N1 3.635778 1_655
I27 N0 3.595165 1_655
I27 N0 3.635778 1_555
I28 N7 3.595165 1_555
I28 N7 3.635778 1_655
I28 I7 3.726745 1_555
I29 N6 3.595165 1_655
I29 N6 3.635778 1_555
I29 I6 3.726745 1_555
I30 N5 3.595165 1_555
I30 N5 3.635778 1_455
I30 I5 3.726745 1_555
I31 N4 3.595165 1_455
I31 N4 3.635778 1_555
I31 I4 3.726745 1_555
