# generated using pymatgen
data_RbS
_symmetry_space_group_name_H-M   'P 1'
_cell_length_a   8.02515800
_cell_length_b   8.02515800
_cell_length_c   8.02515800
_cell_angle_alpha   90.00000000
_cell_angle_beta   90.00000000
_cell_angle_gamma   90.00000000
_symmetry_Int_Tables_number   1
_chemical_formula_structural   RbS
_chemical_formula_sum   'Rb8 S8'
_cell_volume   516.84554212
_cell_formula_units_Z   8
loop_
 _symmetry_equiv_pos_site_id
 _symmetry_equiv_pos_as_xyz
  1  'x, y, z'
loop_
 _atom_site_type_symbol
 _atom_site_label
 _atom_site_symmetry_multiplicity
 _atom_site_fract_x
 _atom_site_fract_y
 _atom_site_fract_z
 _atom_site_occupancy
  Rb  Rb0_0  1  0.00000000  0.00000000  0.00000000  1
  Rb  Rb0_1  1  0.00000000  0.00000000  0.50000000  1
  Rb  Rb0_2  1  0.00000000  0.50000000  0.00000000  1
  Rb  Rb0_3  1  0.00000000  0.50000000  0.50000000  1
  Rb  Rb0_4  1  0.50000000  0.00000000  0.00000000  1
  Rb  Rb0_5  1  0.50000000  0.00000000  0.50000000  1
  Rb  Rb0_6  1  0.50000000  0.50000000  0.00000000  1
  Rb  Rb0_7  1  0.50000000  0.50000000  0.50000000  1
  S  S0_0  1  0.25000000  0.25000000  0.25000000  1
  S  S0_1  1  0.25000000  0.25000000  0.75000000  1
  S  S0_2  1  0.25000000  0.75000000  0.25000000  1
  S  S0_3  1  0.25000000  0.75000000  0.75000000  1
  S  S0_4  1  0.75000000  0.25000000  0.25000000  1
  S  S0_5  1  0.75000000  0.25000000  0.75000000  1
  S  S0_6  1  0.75000000  0.75000000  0.25000000  1
  S  S0_7  1  0.75000000  0.75000000  0.75000000  1
loop_
_geom_bond_atom_site_label_1
_geom_bond_atom_site_label_2
_geom_bond_distance
_geom_bond_site_symmetry_2
Rb0_0 S0_1 3.474995 1_554
Rb0_0 S0_6 3.474995 1_445
Rb0_0 S0_7 3.474995 1_444
Rb0_0 S0_5 3.474995 1_454
Rb0_0 S0_0 3.474995 1_555
Rb0_0 S0_2 3.474995 1_545
Rb0_0 S0_4 3.474995 1_455
Rb0_0 S0_3 3.474995 1_544
Rb0_0 Rb0_1 4.012579 1_554
Rb0_0 Rb0_2 4.012579 1_545
Rb0_0 Rb0_2 4.012579 1_555
Rb0_0 Rb0_4 4.012579 1_455
Rb0_0 Rb0_1 4.012579 1_555
Rb0_0 Rb0_4 4.012579 1_555
Rb0_1 S0_7 3.474995 1_445
Rb0_1 S0_3 3.474995 1_545
Rb0_1 S0_1 3.474995 1_555
Rb0_1 S0_5 3.474995 1_455
Rb0_1 S0_0 3.474995 1_555
Rb0_1 S0_2 3.474995 1_545
Rb0_1 S0_4 3.474995 1_455
Rb0_1 S0_6 3.474995 1_445
Rb0_1 Rb0_3 4.012579 1_545
Rb0_1 Rb0_3 4.012579 1_555
Rb0_1 Rb0_5 4.012579 1_455
Rb0_1 Rb0_5 4.012579 1_555
Rb0_2 S0_5 3.474995 1_454
Rb0_2 S0_2 3.474995 1_555
Rb0_2 S0_6 3.474995 1_455
Rb0_2 S0_3 3.474995 1_554
Rb0_2 S0_0 3.474995 1_555
Rb0_2 S0_4 3.474995 1_455
Rb0_2 S0_1 3.474995 1_554
Rb0_2 S0_7 3.474995 1_454
Rb0_2 Rb0_6 4.012579 1_555
Rb0_2 Rb0_3 4.012579 1_555
Rb0_2 Rb0_6 4.012579 1_455
Rb0_2 Rb0_3 4.012579 1_554
Rb0_3 S0_1 3.474995 1_555
Rb0_3 S0_5 3.474995 1_455
Rb0_3 S0_2 3.474995 1_555
Rb0_3 S0_6 3.474995 1_455
Rb0_3 S0_3 3.474995 1_555
Rb0_3 S0_0 3.474995 1_555
Rb0_3 S0_7 3.474995 1_455
Rb0_3 S0_4 3.474995 1_455
Rb0_3 Rb0_7 4.012579 1_555
Rb0_3 Rb0_7 4.012579 1_455
Rb0_4 S0_6 3.474995 1_545
Rb0_4 S0_5 3.474995 1_554
Rb0_4 S0_7 3.474995 1_544
Rb0_4 S0_0 3.474995 1_555
Rb0_4 S0_2 3.474995 1_545
Rb0_4 S0_1 3.474995 1_554
Rb0_4 S0_3 3.474995 1_544
Rb0_4 S0_4 3.474995 1_555
Rb0_4 Rb0_6 4.012579 1_545
Rb0_4 Rb0_6 4.012579 1_555
Rb0_4 Rb0_5 4.012579 1_554
Rb0_4 Rb0_5 4.012579 1_555
Rb0_5 S0_6 3.474995 1_545
Rb0_5 S0_3 3.474995 1_545
Rb0_5 S0_1 3.474995 1_555
Rb0_5 S0_5 3.474995 1_555
Rb0_5 S0_7 3.474995 1_545
Rb0_5 S0_0 3.474995 1_555
Rb0_5 S0_2 3.474995 1_545
Rb0_5 S0_4 3.474995 1_555
Rb0_5 Rb0_7 4.012579 1_545
Rb0_5 Rb0_7 4.012579 1_555
Rb0_6 S0_7 3.474995 1_554
Rb0_6 S0_5 3.474995 1_554
Rb0_6 S0_2 3.474995 1_555
Rb0_6 S0_0 3.474995 1_555
Rb0_6 S0_3 3.474995 1_554
Rb0_6 S0_6 3.474995 1_555
Rb0_6 S0_1 3.474995 1_554
Rb0_6 S0_4 3.474995 1_555
Rb0_6 Rb0_7 4.012579 1_555
Rb0_6 Rb0_7 4.012579 1_554
Rb0_7 S0_7 3.474995 1_555
Rb0_7 S0_1 3.474995 1_555
Rb0_7 S0_5 3.474995 1_555
Rb0_7 S0_2 3.474995 1_555
Rb0_7 S0_3 3.474995 1_555
Rb0_7 S0_0 3.474995 1_555
Rb0_7 S0_6 3.474995 1_555
Rb0_7 S0_4 3.474995 1_555
S0_0 S0_2 4.012579 1_545
S0_0 S0_4 4.012579 1_455
S0_0 S0_1 4.012579 1_554
S0_0 S0_4 4.012579 1_555
S0_0 S0_1 4.012579 1_555
S0_0 S0_2 4.012579 1_555
S0_1 S0_3 4.012579 1_545
S0_1 S0_5 4.012579 1_555
S0_1 S0_5 4.012579 1_455
S0_1 S0_3 4.012579 1_555
S0_2 S0_3 4.012579 1_554
S0_2 S0_6 4.012579 1_555
S0_2 S0_6 4.012579 1_455
S0_2 S0_3 4.012579 1_555
S0_3 S0_7 4.012579 1_455
S0_3 S0_7 4.012579 1_555
S0_4 S0_6 4.012579 1_545
S0_4 S0_5 4.012579 1_554
S0_4 S0_5 4.012579 1_555
S0_4 S0_6 4.012579 1_555
S0_5 S0_7 4.012579 1_555
S0_5 S0_7 4.012579 1_545
S0_6 S0_7 4.012579 1_555
S0_6 S0_7 4.012579 1_554
