# generated using pymatgen
data_MnP4
_symmetry_space_group_name_H-M   'P 1'
_cell_length_a   5.10366899
_cell_length_b   5.85849732
_cell_length_c   10.88226515
_cell_angle_alpha   88.36539765
_cell_angle_beta   86.24509327
_cell_angle_gamma   64.17789513
_symmetry_Int_Tables_number   1
_chemical_formula_structural   MnP4
_chemical_formula_sum   'Mn4 P16'
_cell_volume   292.26042568
_cell_formula_units_Z   4
loop_
 _symmetry_equiv_pos_site_id
 _symmetry_equiv_pos_as_xyz
  1  'x, y, z'
loop_
 _atom_site_type_symbol
 _atom_site_label
 _atom_site_symmetry_multiplicity
 _atom_site_fract_x
 _atom_site_fract_y
 _atom_site_fract_z
 _atom_site_occupancy
  Mn  Mn0  1  0.01545600  0.54416400  0.97593200  1
  Mn  Mn1  1  0.55962000  0.45583600  0.47593200  1
  Mn  Mn2  1  0.90609500  0.20037700  0.25388500  1
  Mn  Mn3  1  0.10647300  0.79962300  0.75388500  1
  P  P0  1  0.05601100  0.50612600  0.19441100  1
  P  P1  1  0.56213800  0.49387400  0.69441100  1
  P  P2  1  0.44878700  0.50708600  0.27490500  1
  P  P3  1  0.95587300  0.49291400  0.77490500  1
  P  P4  1  0.77298600  0.88949500  0.27589400  1
  P  P5  1  0.66248100  0.11050500  0.77589400  1
  P  P6  1  0.36830400  0.89967500  0.21137700  1
  P  P7  1  0.26797900  0.10032500  0.71137700  1
  P  P8  1  0.00944700  0.14426200  0.45107900  1
  P  P9  1  0.15370900  0.85573800  0.95107900  1
  P  P10  1  0.87283700  0.23123600  0.04173500  1
  P  P11  1  0.10407300  0.76876400  0.54173500  1
  P  P12  1  0.71209700  0.76003200  0.46572100  1
  P  P13  1  0.47212900  0.23996800  0.96572100  1
  P  P14  1  0.55873000  0.83624300  0.01664100  1
  P  P15  1  0.39497400  0.16375700  0.51664100  1
loop_
_geom_bond_atom_site_label_1
_geom_bond_atom_site_label_2
_geom_bond_distance
_geom_bond_site_symmetry_2
Mn0 P9 2.229753 1_555
Mn0 P13 2.231469 1_555
Mn0 P14 2.234053 1_456
Mn0 P3 2.274310 1_455
Mn0 P10 2.328702 1_456
Mn0 P0 2.395678 1_556
Mn1 P8 2.229753 1_655
Mn1 P12 2.231469 1_555
Mn1 P15 2.234050 1_555
Mn1 P2 2.274310 1_555
Mn1 P11 2.328702 1_555
Mn1 P1 2.395679 1_555
Mn2 P4 2.206284 1_545
Mn2 P8 2.224457 1_655
Mn2 P2 2.242414 1_555
Mn2 P6 2.272761 1_645
Mn2 P0 2.296895 1_655
Mn2 P10 2.322121 1_555
Mn3 P5 2.206287 1_465
Mn3 P9 2.224456 1_555
Mn3 P3 2.242418 1_455
Mn3 P7 2.272758 1_565
Mn3 P1 2.296895 1_555
Mn3 P11 2.322121 1_555
P0 P2 2.241838 1_555
P0 P4 2.244271 1_455
P1 P3 2.241834 1_555
P1 P5 2.244272 1_555
P2 P6 2.249453 1_555
P3 P7 2.249453 1_655
P4 P6 2.200555 1_555
P5 P7 2.200555 1_555
P10 P13 2.235455 1_554
P10 P9 2.249206 1_644
P11 P12 2.235455 1_455
P11 P8 2.249206 1_565
P12 P4 2.229575 1_555
P12 P15 2.267880 1_565
P13 P5 2.229575 1_555
P13 P14 2.267882 1_546
P14 P9 2.185817 1_554
P14 P6 2.243669 1_555
P15 P8 2.185822 1_555
P15 P7 2.243671 1_555
