# generated using pymatgen
data_K4MoO5
_symmetry_space_group_name_H-M   'P 1'
_cell_length_a   6.25400524
_cell_length_b   10.16562889
_cell_length_c   16.86383868
_cell_angle_alpha   94.39264465
_cell_angle_beta   92.55263945
_cell_angle_gamma   96.13498038
_symmetry_Int_Tables_number   1
_chemical_formula_structural   K4MoO5
_chemical_formula_sum   'K24 Mo6 O30'
_cell_volume   1061.35801536
_cell_formula_units_Z   6
loop_
 _symmetry_equiv_pos_site_id
 _symmetry_equiv_pos_as_xyz
  1  'x, y, z'
loop_
 _atom_site_type_symbol
 _atom_site_label
 _atom_site_symmetry_multiplicity
 _atom_site_fract_x
 _atom_site_fract_y
 _atom_site_fract_z
 _atom_site_occupancy
  K  K0  1  0.00915872  0.51006140  0.17914764  1
  K  K1  1  0.99084128  0.48993860  0.82085236  1
  K  K2  1  0.54141881  0.20277214  0.50453951  1
  K  K3  1  0.45858119  0.79722786  0.49546049  1
  K  K4  1  0.07644338  0.69214620  0.00477051  1
  K  K5  1  0.92355662  0.30785380  0.99522949  1
  K  K6  1  0.07441949  0.85061015  0.21918525  1
  K  K7  1  0.92558051  0.14938985  0.78081475  1
  K  K8  1  0.55377394  0.00098825  0.32067828  1
  K  K9  1  0.44622606  0.99901175  0.67932172  1
  K  K10  1  0.23124802  0.03864543  0.05797687  1
  K  K11  1  0.76875198  0.96135457  0.94202313  1
  K  K12  1  0.43108017  0.41025623  0.09385045  1
  K  K13  1  0.56891983  0.58974377  0.90614955  1
  K  K14  1  0.71962621  0.38626709  0.34562061  1
  K  K15  1  0.28037379  0.61373291  0.65437939  1
  K  K16  1  0.24366433  0.45415776  0.42807344  1
  K  K17  1  0.75633567  0.54584224  0.57192656  1
  K  K18  1  0.73334280  0.09436967  0.14765968  1
  K  K19  1  0.26665720  0.90563033  0.85234032  1
  K  K20  1  0.05846365  0.08048607  0.41663527  1
  K  K21  1  0.94153635  0.91951393  0.58336473  1
  K  K22  1  0.44749323  0.66332692  0.28970842  1
  K  K23  1  0.55250677  0.33667308  0.71029158  1
  Mo  Mo0  1  0.06268630  0.27463589  0.59215025  1
  Mo  Mo1  1  0.93731370  0.72536411  0.40784975  1
  Mo  Mo2  1  0.60087572  0.75663599  0.09704689  1
  Mo  Mo3  1  0.39912428  0.24336401  0.90295311  1
  Mo  Mo4  1  0.21782103  0.23288102  0.24898462  1
  Mo  Mo5  1  0.78217897  0.76711898  0.75101538  1
  O  O0  1  0.07178582  0.68250398  0.49889164  1
  O  O1  1  0.92821418  0.31749602  0.50110836  1
  O  O2  1  0.13979089  0.13450541  0.92389441  1
  O  O3  1  0.86020911  0.86549459  0.07610559  1
  O  O4  1  0.35900522  0.21829186  0.35092217  1
  O  O5  1  0.64099478  0.78170814  0.64907783  1
  O  O6  1  0.21210571  0.12779029  0.58164891  1
  O  O7  1  0.78789429  0.87220971  0.41835109  1
  O  O8  1  0.08902034  0.25931891  0.14583586  1
  O  O9  1  0.91097966  0.74068109  0.85416414  1
  O  O10  1  0.34253301  0.09270599  0.20608362  1
  O  O11  1  0.65746699  0.90729401  0.79391638  1
  O  O12  1  0.34170228  0.65951260  0.12521204  1
  O  O13  1  0.65829772  0.34048740  0.87478796  1
  O  O14  1  0.37177477  0.15972265  0.80210424  1
  O  O15  1  0.62822523  0.84027735  0.19789576  1
  O  O16  1  0.45961275  0.81912261  0.01185139  1
  O  O17  1  0.54038725  0.18087739  0.98814861  1
  O  O18  1  0.18453459  0.83758340  0.38004662  1
  O  O19  1  0.81546541  0.16241660  0.61995338  1
  O  O20  1  0.32400276  0.38269750  0.57299551  1
  O  O21  1  0.67599724  0.61730250  0.42700449  1
  O  O22  1  0.72773350  0.60419244  0.07354178  1
  O  O23  1  0.27226650  0.39580756  0.92645822  1
  O  O24  1  0.95124477  0.19226073  0.28708739  1
  O  O25  1  0.04875523  0.80773927  0.71291261  1
  O  O26  1  0.03896379  0.38124053  0.68356061  1
  O  O27  1  0.96103621  0.61875947  0.31643939  1
  O  O28  1  0.35197927  0.40405682  0.25250170  1
  O  O29  1  0.64802073  0.59594318  0.74749830  1
loop_
_geom_bond_atom_site_label_1
_geom_bond_atom_site_label_2
_geom_bond_distance
_geom_bond_site_symmetry_2
K0 O27 2.532445 1_455
K0 O8 2.672072 1_555
K0 O12 2.676857 1_555
K0 O22 2.743517 1_455
K0 O28 2.783882 1_555
K0 K6 3.452905 1_555
K0 K5 3.573786 1_454
K1 O26 2.532445 1_655
K1 O9 2.672072 1_555
K1 O13 2.676857 1_555
K1 O23 2.743517 1_655
K1 O29 2.783882 1_555
K1 K7 3.452905 1_555
K1 K4 3.573786 1_656
K2 O6 2.562895 1_555
K2 O1 2.575835 1_555
K2 O19 2.620942 1_555
K2 O20 2.622011 1_555
K2 O4 2.806292 1_555
K2 K20 3.373728 1_555
K2 K8 3.592820 1_555
K3 O7 2.562895 1_555
K3 O0 2.575835 1_555
K3 O18 2.620942 1_555
K3 O21 2.622011 1_555
K3 O5 2.806292 1_555
K3 K9 3.592820 1_555
K4 O3 2.590529 1_455
K4 O16 2.590874 1_555
K4 O22 2.620654 1_455
K4 O12 2.628347 1_555
K4 O9 2.798541 1_454
K4 O23 3.555576 1_554
K5 O2 2.590529 1_655
K5 O17 2.590874 1_555
K5 O23 2.620654 1_655
K5 O13 2.628347 1_555
K5 O8 2.798541 1_656
K5 O22 3.555576 1_556
K6 O3 2.729632 1_455
K6 O18 2.785474 1_555
K6 O15 2.787321 1_455
K6 O10 2.855078 1_565
K6 O27 3.014331 1_455
K6 O12 3.088348 1_555
K6 O15 3.509777 1_555
K6 O24 3.742759 1_465
K7 O2 2.729632 1_655
K7 O19 2.785474 1_555
K7 O14 2.787321 1_655
K7 O11 2.855078 1_545
K7 O26 3.014331 1_655
K7 O13 3.088348 1_555
K7 O14 3.509777 1_555
K7 O25 3.742759 1_645
K8 O10 2.580905 1_555
K8 O15 2.627447 1_545
K8 O4 2.661118 1_555
K8 O7 2.663810 1_545
K8 O18 2.955498 1_545
K8 O24 3.088977 1_555
K9 O11 2.580905 1_555
K9 O14 2.627447 1_565
K9 O5 2.661118 1_555
K9 O6 2.663810 1_565
K9 O19 2.955498 1_565
K9 O25 3.088977 1_555
K10 O10 2.564722 1_555
K10 O2 2.594416 1_554
K10 O17 2.661057 1_554
K10 O3 2.801597 1_445
K10 O8 2.837875 1_555
K10 O16 2.852903 1_545
K11 O11 2.564722 1_555
K11 O3 2.594416 1_556
K11 O16 2.661057 1_556
K11 O2 2.801597 1_665
K11 O9 2.837875 1_555
K11 O17 2.852903 1_565
K12 O22 2.612338 1_555
K12 O12 2.671391 1_555
K12 O8 2.714910 1_555
K12 O28 2.746614 1_555
K12 O23 2.938070 1_554
K12 O17 2.982367 1_554
K13 O23 2.612338 1_555
K13 O13 2.671391 1_555
K13 O9 2.714910 1_555
K13 O29 2.746614 1_555
K13 O22 2.938070 1_556
K13 O16 2.982367 1_556
K14 O21 2.674068 1_555
K14 O4 2.688585 1_555
K14 O24 2.720657 1_555
K14 O27 2.754825 1_555
K14 O28 2.756096 1_555
K14 O1 3.039252 1_555
K14 K16 3.480559 1_655
K15 O20 2.674068 1_555
K15 O5 2.688585 1_555
K15 O25 2.720657 1_555
K15 O26 2.754825 1_555
K15 O29 2.756096 1_555
K15 O0 3.039252 1_555
K15 K17 3.480559 1_455
K16 O20 2.644542 1_555
K16 O1 2.689192 1_455
K16 O4 2.817377 1_555
K16 O0 2.862364 1_555
K16 O21 3.018593 1_555
K16 O28 3.083194 1_555
K16 O27 3.207262 1_455
K17 O21 2.644542 1_555
K17 O0 2.689192 1_655
K17 O5 2.817377 1_555
K17 O1 2.862364 1_555
K17 O20 3.018593 1_555
K17 O29 3.083194 1_555
K17 O26 3.207262 1_655
K18 O8 2.641476 1_655
K18 O10 2.674505 1_555
K18 O24 2.728047 1_555
K18 O3 2.747494 1_545
K18 O15 2.800656 1_545
K18 O17 3.124991 1_554
K19 O9 2.641476 1_455
K19 O11 2.674505 1_555
K19 O25 2.728047 1_555
K19 O2 2.747494 1_565
K19 O14 2.800656 1_565
K19 O16 3.124991 1_556
K20 O4 2.565914 1_555
K20 O7 2.568062 1_445
K20 O24 2.631756 1_455
K20 O18 2.706600 1_545
K20 O6 2.890740 1_555
K20 O1 2.914610 1_455
K21 O5 2.565914 1_555
K21 O6 2.568062 1_665
K21 O25 2.631756 1_655
K21 O19 2.706600 1_565
K21 O7 2.890740 1_555
K21 O0 2.914610 1_655
K21 K3 3.373728 1_555
K22 O15 2.656787 1_555
K22 O28 2.659682 1_555
K22 O21 2.763339 1_555
K22 O12 2.819414 1_555
K22 O18 2.931864 1_555
K22 O27 3.085923 1_455
K22 O27 3.307087 1_555
K22 K6 3.395886 1_555
K23 O14 2.656787 1_555
K23 O29 2.659682 1_555
K23 O20 2.763339 1_555
K23 O13 2.819414 1_555
K23 O19 2.931864 1_555
K23 O26 3.085923 1_655
K23 O26 3.307087 1_555
K23 K7 3.395886 1_555
Mo0 O1 1.822106 1_455
Mo0 O26 1.836185 1_555
Mo0 O6 1.845369 1_555
Mo0 O19 1.918649 1_455
Mo0 O20 1.923430 1_555
Mo1 O0 1.822106 1_655
Mo1 O27 1.836185 1_555
Mo1 O7 1.845369 1_555
Mo1 O18 1.918649 1_655
Mo1 O21 1.923430 1_555
Mo2 O15 1.834689 1_555
Mo2 O22 1.839779 1_555
Mo2 O16 1.842515 1_555
Mo2 O12 1.904201 1_555
Mo2 O3 1.925369 1_555
Mo3 O14 1.834689 1_555
Mo3 O23 1.839779 1_555
Mo3 O17 1.842515 1_555
Mo3 O13 1.904201 1_555
Mo3 O2 1.925369 1_555
Mo4 O10 1.814433 1_555
Mo4 O24 1.830783 1_455
Mo4 O28 1.844765 1_555
Mo4 O4 1.920580 1_555
Mo4 O8 1.933901 1_555
Mo5 O11 1.814433 1_555
Mo5 O25 1.830783 1_655
Mo5 O29 1.844765 1_555
Mo5 O5 1.920580 1_555
Mo5 O9 1.933901 1_555
O0 O21 2.700900 1_455
O1 O20 2.700900 1_655
O2 O23 2.693147 1_555
O10 O4 2.660499 1_555
O10 O8 2.666230 1_555
O11 O5 2.660499 1_555
O11 O9 2.666230 1_555
O12 O15 2.616413 1_555
O12 O16 2.678797 1_555
O13 O14 2.616413 1_555
O13 O17 2.678797 1_555
O14 O2 2.579825 1_555
O15 O3 2.579825 1_555
O16 O3 2.664685 1_555
O17 O2 2.664685 1_555
O18 O27 2.624693 1_455
O18 O7 2.643677 1_455
O19 O26 2.624693 1_655
O19 O6 2.643677 1_655
O20 O6 2.627782 1_555
O20 O26 2.636137 1_555
O21 O7 2.627782 1_555
O21 O27 2.636137 1_555
O22 O3 2.693147 1_555
O24 O8 2.680911 1_655
O25 O9 2.680911 1_455
O28 O4 2.610396 1_555
O29 O5 2.610396 1_555
