# generated using pymatgen
data_Ta2Cr3Si
_symmetry_space_group_name_H-M   'P 1'
_cell_length_a   4.83502246
_cell_length_b   4.83502246
_cell_length_c   8.06042201
_cell_angle_alpha   90.00000000
_cell_angle_beta   90.00000000
_cell_angle_gamma   119.99999588
_symmetry_Int_Tables_number   1
_chemical_formula_structural   Ta2Cr3Si
_chemical_formula_sum   'Ta4 Cr6 Si2'
_cell_volume   163.18694849
_cell_formula_units_Z   2
loop_
 _symmetry_equiv_pos_site_id
 _symmetry_equiv_pos_as_xyz
  1  'x, y, z'
loop_
 _atom_site_type_symbol
 _atom_site_label
 _atom_site_symmetry_multiplicity
 _atom_site_fract_x
 _atom_site_fract_y
 _atom_site_fract_z
 _atom_site_occupancy
  Ta  Ta0  1  0.33333300  0.66666700  0.43511837  1
  Ta  Ta1  1  0.66666700  0.33333300  0.56488163  1
  Ta  Ta2  1  0.66666700  0.33333300  0.93511837  1
  Ta  Ta3  1  0.33333300  0.66666700  0.06488163  1
  Cr  Cr0  1  0.82804270  0.17195730  0.25000000  1
  Cr  Cr1  1  0.82804270  0.65608541  0.25000000  1
  Cr  Cr2  1  0.34391459  0.17195730  0.25000000  1
  Cr  Cr3  1  0.17195730  0.82804270  0.75000000  1
  Cr  Cr4  1  0.17195730  0.34391459  0.75000000  1
  Cr  Cr5  1  0.65608541  0.82804270  0.75000000  1
  Si  Si0  1  -0.00000000  0.00000000  0.50000000  1
  Si  Si1  1  0.00000000  0.00000000  -0.00000000  1
loop_
_geom_bond_atom_site_label_1
_geom_bond_atom_site_label_2
_geom_bond_distance
_geom_bond_site_symmetry_2
Ta0 Ta1 2.981018 1_455
Ta0 Ta1 2.981018 1_565
Ta0 Ta1 2.981026 1_555
Ta0 Ta3 2.984264 1_555
Ta1 Ta2 2.984264 1_555
Ta2 Ta3 2.981018 1_546
Ta2 Ta3 2.981018 1_656
Ta2 Ta3 2.981026 1_556
Cr0 Cr2 2.340770 1_555
Cr0 Cr1 2.340770 1_555
Cr0 Si1 2.476775 1_655
Cr0 Si0 2.476775 1_655
Cr0 Cr1 2.494252 1_545
Cr0 Cr2 2.494252 1_655
Cr0 Ta3 2.841264 1_545
Cr0 Ta0 2.841264 1_545
Cr0 Ta3 2.841264 1_655
Cr0 Ta0 2.841264 1_655
Cr0 Ta2 2.875454 1_554
Cr0 Ta1 2.875454 1_555
Cr1 Cr2 2.340770 1_555
Cr1 Si0 2.476775 1_665
Cr1 Si1 2.476775 1_665
Cr1 Cr2 2.494252 1_665
Cr1 Ta3 2.841262 1_655
Cr1 Ta0 2.841262 1_655
Cr1 Ta3 2.841266 1_555
Cr1 Ta0 2.841266 1_555
Cr1 Ta1 2.875456 1_555
Cr1 Ta2 2.875456 1_554
Cr2 Si0 2.476775 1_555
Cr2 Si1 2.476775 1_555
Cr2 Ta3 2.841262 1_545
Cr2 Ta0 2.841262 1_545
Cr2 Ta3 2.841266 1_555
Cr2 Ta0 2.841266 1_555
Cr2 Ta1 2.875456 1_555
Cr2 Ta2 2.875456 1_554
Cr3 Cr4 2.340770 1_555
Cr3 Cr5 2.340770 1_555
Cr3 Si1 2.476775 1_566
Cr3 Si0 2.476775 1_565
Cr3 Cr5 2.494252 1_455
Cr3 Cr4 2.494252 1_565
Cr3 Ta1 2.841264 1_455
Cr3 Ta2 2.841264 1_455
Cr3 Ta2 2.841264 1_565
Cr3 Ta1 2.841264 1_565
Cr3 Ta3 2.875454 1_556
Cr3 Ta0 2.875454 1_555
Cr4 Cr5 2.340770 1_555
Cr4 Si1 2.476775 1_556
Cr4 Si0 2.476775 1_555
Cr4 Cr5 2.494252 1_445
Cr4 Ta2 2.841262 1_455
Cr4 Ta1 2.841262 1_455
Cr4 Ta2 2.841266 1_555
Cr4 Ta1 2.841266 1_555
Cr4 Ta3 2.875456 1_556
Cr4 Ta0 2.875456 1_555
Cr5 Si0 2.476775 1_665
Cr5 Si1 2.476775 1_666
Cr5 Ta1 2.841262 1_565
Cr5 Ta2 2.841262 1_565
Cr5 Ta2 2.841266 1_555
Cr5 Ta1 2.841266 1_555
Cr5 Ta3 2.875456 1_556
Cr5 Ta0 2.875456 1_555
Si0 Ta0 2.840064 1_545
Si0 Ta1 2.840064 1_455
Si0 Ta1 2.840069 1_445
Si0 Ta0 2.840069 1_555
Si0 Ta1 2.840069 1_555
Si0 Ta0 2.840069 1_445
Si1 Ta2 2.840064 1_454
Si1 Ta3 2.840064 1_545
Si1 Ta3 2.840069 1_555
Si1 Ta2 2.840069 1_554
Si1 Ta3 2.840069 1_445
Si1 Ta2 2.840069 1_444
