# generated using pymatgen
data_ZrAlFe4
_symmetry_space_group_name_H-M   'P 1'
_cell_length_a   4.85616675
_cell_length_b   4.85623686
_cell_length_c   4.85623687
_cell_angle_alpha   60.00009166
_cell_angle_beta   59.99961408
_cell_angle_gamma   59.99960392
_symmetry_Int_Tables_number   1
_chemical_formula_structural   ZrAlFe4
_chemical_formula_sum   'Zr1 Al1 Fe4'
_cell_volume   80.97967887
_cell_formula_units_Z   1
loop_
 _symmetry_equiv_pos_site_id
 _symmetry_equiv_pos_as_xyz
  1  'x, y, z'
loop_
 _atom_site_type_symbol
 _atom_site_label
 _atom_site_symmetry_multiplicity
 _atom_site_fract_x
 _atom_site_fract_y
 _atom_site_fract_z
 _atom_site_occupancy
  Zr  Zr0  1  0.99997771  0.00000743  0.00000743  1
  Al  Al0  1  0.75001043  0.74999619  0.74999619  1
  Fe  Fe0  1  0.37582675  0.37582568  0.37582568  1
  Fe  Fe1  1  0.37582675  0.87251990  0.37582568  1
  Fe  Fe2  1  0.87253062  0.37582313  0.37582313  1
  Fe  Fe3  1  0.37582675  0.37582568  0.87251990  1
loop_
_geom_bond_atom_site_label_1
_geom_bond_atom_site_label_2
_geom_bond_distance
_geom_bond_site_symmetry_2
Al0 Fe3 2.845446 1_655
Al0 Fe1 2.845446 1_655
Al0 Fe0 2.845449 1_655
Al0 Fe2 2.845521 1_555
Al0 Fe2 2.845528 1_556
Al0 Fe2 2.845528 1_565
Al0 Fe3 2.845531 1_565
Al0 Fe1 2.845531 1_556
Al0 Fe1 2.845532 1_555
Al0 Fe3 2.845532 1_555
Al0 Fe0 2.845534 1_565
Al0 Fe0 2.845535 1_556
Al0 Zr0 2.973776 1_566
Al0 Zr0 2.973777 1_556
Al0 Zr0 2.973777 1_565
Al0 Zr0 2.973894 1_466
Fe0 Fe2 2.412064 1_555
Fe0 Fe1 2.412065 1_555
Fe0 Fe3 2.412065 1_555
Fe0 Fe2 2.444102 1_455
Fe0 Fe1 2.444172 1_545
Fe0 Fe3 2.444172 1_554
Fe0 Zr0 2.848825 1_555
Fe0 Zr0 2.848982 1_465
Fe0 Zr0 2.848983 1_456
Fe1 Fe2 2.412063 1_555
Fe1 Fe3 2.412068 1_555
Fe1 Fe2 2.444110 1_465
Fe1 Fe3 2.444175 1_564
Fe1 Zr0 2.848828 1_565
Fe1 Zr0 2.848974 1_465
Fe1 Zr0 2.848985 1_466
Fe2 Fe3 2.412063 1_555
Fe2 Fe3 2.444111 1_654
Fe2 Zr0 2.848924 1_555
Fe2 Zr0 2.848927 1_556
Fe2 Zr0 2.848927 1_565
Fe3 Zr0 2.848828 1_556
Fe3 Zr0 2.848975 1_456
Fe3 Zr0 2.848985 1_466
