# generated using pymatgen
data_Er6Mn(GeS7)2
_symmetry_space_group_name_H-M   'P 1'
_cell_length_a   9.85424345
_cell_length_b   9.85424345
_cell_length_c   5.67415600
_cell_angle_alpha   90.00000000
_cell_angle_beta   90.00000000
_cell_angle_gamma   119.99999628
_symmetry_Int_Tables_number   1
_chemical_formula_structural   Er6Mn(GeS7)2
_chemical_formula_sum   'Er6 Mn1 Ge2 S14'
_cell_volume   477.17589207
_cell_formula_units_Z   1
loop_
 _symmetry_equiv_pos_site_id
 _symmetry_equiv_pos_as_xyz
  1  'x, y, z'
loop_
 _atom_site_type_symbol
 _atom_site_label
 _atom_site_symmetry_multiplicity
 _atom_site_fract_x
 _atom_site_fract_y
 _atom_site_fract_z
 _atom_site_occupancy
  Er  Er0  1  0.79109800  0.10189400  0.24996500  1
  Er  Er1  1  0.89810600  0.68920400  0.24996500  1
  Er  Er2  1  0.31079600  0.20890200  0.24996500  1
  Er  Er3  1  0.54192800  0.56466300  0.75029300  1
  Er  Er4  1  0.43533700  0.97726400  0.75029300  1
  Er  Er5  1  0.02273600  0.45807200  0.75029300  1
  Mn  Mn0  1  0.66666700  0.33333300  0.48691600  1
  Ge  Ge0  1  0.00000000  0.00000000  0.82847900  1
  Ge  Ge1  1  0.33333300  0.66666700  0.33263300  1
  S  S0  1  0.08166400  0.23421400  0.99757500  1
  S  S1  1  0.76578600  0.84745000  0.99757500  1
  S  S2  1  0.15255000  0.91833600  0.99757500  1
  S  S3  1  0.25144500  0.43257300  0.50099400  1
  S  S4  1  0.56742700  0.81887200  0.50099400  1
  S  S5  1  0.18112800  0.74855500  0.50099400  1
  S  S6  1  0.75892200  0.17299000  0.71838100  1
  S  S7  1  0.82701000  0.58593200  0.71838100  1
  S  S8  1  0.41406800  0.24107800  0.71838100  1
  S  S9  1  0.57747900  0.49649900  0.23943900  1
  S  S10  1  0.50350100  0.08098000  0.23943900  1
  S  S11  1  0.91902000  0.42252100  0.23943900  1
  S  S12  1  0.00000000  0.00000000  0.44532700  1
  S  S13  1  0.33333300  0.66666700  0.94892600  1
loop_
_geom_bond_atom_site_label_1
_geom_bond_atom_site_label_2
_geom_bond_distance
_geom_bond_site_symmetry_2
Er0 S10 2.737483 1_555
Er0 S11 2.755441 1_555
Er0 S1 2.788285 1_544
Er0 S6 2.806734 1_555
Er0 S0 2.866379 1_654
Er0 S4 2.918578 1_545
Er0 S12 2.922619 1_655
Er0 S6 3.148256 1_554
Er1 S11 2.737483 1_555
Er1 S9 2.755441 1_555
Er1 S2 2.788286 1_654
Er1 S7 2.806734 1_555
Er1 S1 2.866379 1_554
Er1 S5 2.918578 1_655
Er1 S12 2.922619 1_665
Er1 S7 3.148256 1_554
Er2 S9 2.737483 1_555
Er2 S10 2.755441 1_555
Er2 S0 2.788285 1_554
Er2 S8 2.806734 1_555
Er2 S2 2.866379 1_544
Er2 S3 2.918578 1_555
Er2 S12 2.922619 1_555
Er2 S8 3.148256 1_554
Er3 S7 2.716598 1_555
Er3 S4 2.776668 1_555
Er3 S8 2.787541 1_555
Er3 S3 2.857126 1_555
Er3 S1 2.907433 1_555
Er3 S9 2.917633 1_556
Er3 S13 2.927817 1_555
Er3 S9 3.035044 1_555
Er4 S8 2.716608 1_565
Er4 S5 2.776665 1_555
Er4 S6 2.787542 1_565
Er4 S4 2.857118 1_555
Er4 S2 2.907436 1_555
Er4 S10 2.917635 1_566
Er4 S13 2.927800 1_555
Er4 S10 3.035047 1_565
Er5 S6 2.716603 1_455
Er5 S3 2.776660 1_555
Er5 S7 2.787550 1_455
Er5 S5 2.857125 1_555
Er5 S0 2.907427 1_555
Er5 S11 2.917636 1_456
Er5 S13 2.927804 1_555
Er5 S11 3.035047 1_455
Mn0 S6 2.546454 1_555
Mn0 S7 2.546461 1_555
Mn0 S8 2.546462 1_555
Mn0 S11 2.596658 1_555
Mn0 S10 2.596660 1_555
Mn0 S9 2.596666 1_555
Ge0 S12 2.174064 1_555
Ge0 S2 2.244490 1_545
Ge0 S0 2.244490 1_555
Ge0 S1 2.244490 1_445
Ge1 S13 2.177213 1_554
Ge1 S5 2.241355 1_555
Ge1 S4 2.241362 1_555
Ge1 S3 2.241364 1_555
S0 S11 3.296903 1_456
S0 S6 3.327113 1_455
S1 S9 3.296903 1_556
S1 S7 3.327113 1_555
S2 S8 3.327113 1_565
S3 S8 3.267189 1_555
S3 S9 3.301167 1_555
S4 S6 3.267190 1_565
S4 S9 3.552286 1_555
S5 S7 3.267189 1_455
S10 S2 3.296903 1_544
S10 S4 3.301167 1_545
S10 S5 3.552286 1_545
S11 S5 3.301167 1_655
S11 S3 3.552286 1_655
