# generated using pymatgen
data_La(Mg2Al)4
_symmetry_space_group_name_H-M   'P 1'
_cell_length_a   7.55519336
_cell_length_b   7.55519336
_cell_length_c   7.55519336
_cell_angle_alpha   98.57021832
_cell_angle_beta   98.57021832
_cell_angle_gamma   134.58424547
_symmetry_Int_Tables_number   1
_chemical_formula_structural   La(Mg2Al)4
_chemical_formula_sum   'La1 Mg8 Al4'
_cell_volume   283.34117167
_cell_formula_units_Z   1
loop_
 _symmetry_equiv_pos_site_id
 _symmetry_equiv_pos_as_xyz
  1  'x, y, z'
loop_
 _atom_site_type_symbol
 _atom_site_label
 _atom_site_symmetry_multiplicity
 _atom_site_fract_x
 _atom_site_fract_y
 _atom_site_fract_z
 _atom_site_occupancy
  La  La0  1  0.00000000  0.00000000  0.00000000  1
  Mg  Mg0  1  0.28418400  0.50000000  0.78418400  1
  Mg  Mg1  1  0.71581600  0.50000000  0.21581600  1
  Mg  Mg2  1  0.50000000  0.28418400  0.78418400  1
  Mg  Mg3  1  0.50000000  0.71581600  0.21581600  1
  Mg  Mg4  1  0.34830200  0.00000000  0.34830200  1
  Mg  Mg5  1  0.65169800  0.00000000  0.65169800  1
  Mg  Mg6  1  0.00000000  0.34830200  0.34830200  1
  Mg  Mg7  1  0.00000000  0.65169800  0.65169800  1
  Al  Al0  1  0.50000000  0.50000000  0.50000000  1
  Al  Al1  1  0.00000000  0.00000000  0.50000000  1
  Al  Al2  1  0.00000000  0.50000000  0.00000000  1
  Al  Al3  1  0.50000000  0.00000000  0.00000000  1
loop_
_geom_bond_atom_site_label_1
_geom_bond_atom_site_label_2
_geom_bond_distance
_geom_bond_site_symmetry_2
La0 Mg5 3.433016 1_454
La0 Mg7 3.433016 1_544
La0 Mg4 3.433016 1_555
La0 Mg6 3.433016 1_555
La0 Mg3 3.609870 1_445
La0 Mg1 3.609870 1_445
La0 Mg3 3.609870 1_555
La0 Mg1 3.609870 1_555
La0 Mg0 3.609870 1_554
La0 Mg2 3.609870 1_554
La0 Mg2 3.609870 1_444
La0 Mg0 3.609870 1_444
Mg0 Mg3 3.008282 1_556
Mg0 Mg2 3.008282 1_555
Mg0 Mg6 3.175132 1_555
Mg0 Mg7 3.175132 1_555
Mg0 Mg5 3.195544 1_455
Mg0 Mg5 3.195544 1_565
Mg1 Mg2 3.008282 1_554
Mg1 Mg3 3.008282 1_555
Mg1 Mg6 3.175132 1_655
Mg1 Mg7 3.175132 1_655
Mg1 Mg4 3.195544 1_665
Mg1 Mg4 3.195544 1_555
Mg2 Mg4 3.175132 1_555
Mg2 Mg5 3.175132 1_555
Mg2 Mg7 3.195544 1_545
Mg2 Mg7 3.195544 1_655
Mg3 Mg4 3.175132 1_565
Mg3 Mg5 3.175132 1_565
Mg3 Mg6 3.195544 1_665
Mg3 Mg6 3.195544 1_555
Mg4 Mg5 2.990403 1_555
Mg4 Mg6 3.602435 1_655
Mg4 Mg7 3.602435 1_545
Mg4 Mg6 3.602435 1_545
Mg4 Mg7 3.602435 1_655
Mg5 Mg7 3.602435 1_545
Mg5 Mg6 3.602435 1_655
Mg5 Mg7 3.602435 1_655
Mg5 Mg6 3.602435 1_545
Mg6 Mg7 2.990403 1_555
Al0 Mg0 2.883041 1_555
Al0 Mg2 2.883041 1_555
Al0 Mg3 2.883041 1_555
Al0 Mg1 2.883041 1_555
Al0 Al1 2.916553 1_555
Al0 Al1 2.916553 1_665
Al0 Mg4 3.022778 1_555
Al0 Mg7 3.022778 1_655
Al0 Mg6 3.022778 1_555
Al0 Mg5 3.022778 1_565
Al0 La0 3.777597 1_555
Al0 La0 3.777597 1_666
Al1 Mg0 2.883041 1_555
Al1 Mg2 2.883041 1_555
Al1 Mg3 2.883041 1_445
Al1 Mg1 2.883041 1_445
Al1 Mg4 3.022778 1_555
Al1 Mg6 3.022778 1_555
Al1 Mg5 3.022778 1_455
Al1 Mg7 3.022778 1_545
Al1 La0 3.777597 1_555
Al1 La0 3.777597 1_556
Al2 Mg1 2.883041 1_455
Al2 Mg3 2.883041 1_555
Al2 Mg0 2.883041 1_554
Al2 Mg2 2.883041 1_454
Al2 Al3 2.916553 1_565
Al2 Al3 2.916553 1_455
Al2 Mg7 3.022778 1_554
Al2 Mg4 3.022778 1_565
Al2 Mg6 3.022778 1_555
Al2 Mg5 3.022778 1_454
Al2 La0 3.777597 1_555
Al2 La0 3.777597 1_565
Al3 Mg3 2.883041 1_545
Al3 Mg1 2.883041 1_555
Al3 Mg2 2.883041 1_554
Al3 Mg0 2.883041 1_544
Al3 Mg4 3.022778 1_555
Al3 Mg5 3.022778 1_554
Al3 Mg7 3.022778 1_544
Al3 Mg6 3.022778 1_655
Al3 La0 3.777597 1_555
Al3 La0 3.777597 1_655
