# generated using pymatgen
data_La2Ti2CoO8
_symmetry_space_group_name_H-M   'P 1'
_cell_length_a   5.25941074
_cell_length_b   5.25940367
_cell_length_c   25.81640081
_cell_angle_alpha   84.15255696
_cell_angle_beta   84.15309468
_cell_angle_gamma   89.99932212
_symmetry_Int_Tables_number   1
_chemical_formula_structural   La2Ti2CoO8
_chemical_formula_sum   'La8 Ti8 Co4 O32'
_cell_volume   706.66655727
_cell_formula_units_Z   4
loop_
 _symmetry_equiv_pos_site_id
 _symmetry_equiv_pos_as_xyz
  1  'x, y, z'
loop_
 _atom_site_type_symbol
 _atom_site_label
 _atom_site_symmetry_multiplicity
 _atom_site_fract_x
 _atom_site_fract_y
 _atom_site_fract_z
 _atom_site_occupancy
  La  La0  1  0.90361200  0.40360900  0.69278500  1
  La  La1  1  0.65362600  0.15362900  0.19275100  1
  La  La2  1  0.40360500  0.90361000  0.69278400  1
  La  La3  1  0.15362400  0.65362200  0.19275100  1
  La  La4  1  0.34637100  0.34637500  0.80725000  1
  La  La5  1  0.09638700  0.09638800  0.30721700  1
  La  La6  1  0.84637500  0.84637300  0.80725000  1
  La  La7  1  0.59638600  0.59638900  0.30721700  1
  Ti  Ti0  1  0.80203300  0.30203000  0.89594900  1
  Ti  Ti1  1  0.55203100  0.05202800  0.39593300  1
  Ti  Ti2  1  0.30203200  0.80201600  0.89595000  1
  Ti  Ti3  1  0.05203000  0.55203800  0.39593100  1
  Ti  Ti4  1  0.44795700  0.44795800  0.60407100  1
  Ti  Ti5  1  0.19797200  0.19798300  0.10404800  1
  Ti  Ti6  1  0.94795800  0.94795700  0.60406400  1
  Ti  Ti7  1  0.69797500  0.69797400  0.10405200  1
  Co  Co0  1  0.50005800  0.00001900  0.00000000  1
  Co  Co1  1  0.25020800  0.74988700  0.50000000  1
  Co  Co2  1  0.75003500  0.25023500  0.49999600  1
  Co  Co3  1  0.99991100  0.49997300  0.00000100  1
  O  O0  1  0.76655700  0.26656500  0.96688300  1
  O  O1  1  0.51652500  0.01658100  0.46684700  1
  O  O2  1  0.26655800  0.76653500  0.96686200  1
  O  O3  1  0.01653700  0.51657300  0.46686800  1
  O  O4  1  0.48338500  0.48340200  0.53311200  1
  O  O5  1  0.23342900  0.23345700  0.03313300  1
  O  O6  1  0.98334100  0.98334000  0.53317000  1
  O  O7  1  0.73347200  0.73344300  0.03312400  1
  O  O8  1  0.85677200  0.35677100  0.78646700  1
  O  O9  1  0.60679100  0.10678800  0.28643400  1
  O  O10  1  0.35677300  0.85677500  0.78646700  1
  O  O11  1  0.10678300  0.60678900  0.28643500  1
  O  O12  1  0.39320900  0.39321100  0.71356500  1
  O  O13  1  0.14322400  0.14322600  0.21353500  1
  O  O14  1  0.89320800  0.89321300  0.71356700  1
  O  O15  1  0.64322700  0.64322600  0.21353300  1
  O  O16  1  0.68781300  0.18785300  0.62434300  1
  O  O17  1  0.43784200  0.93783800  0.12431400  1
  O  O18  1  0.18785200  0.68780700  0.62434400  1
  O  O19  1  0.93783600  0.43784000  0.12431600  1
  O  O20  1  0.56216900  0.06216800  0.87568400  1
  O  O21  1  0.31218400  0.81216700  0.37565700  1
  O  O22  1  0.06214900  0.56215400  0.87568100  1
  O  O23  1  0.81218900  0.31219100  0.37565800  1
  O  O24  1  0.56295600  0.56294300  0.87408300  1
  O  O25  1  0.31295500  0.31297400  0.37405700  1
  O  O26  1  0.06294500  0.06296300  0.87408200  1
  O  O27  1  0.81297500  0.81296000  0.37405800  1
  O  O28  1  0.68701000  0.68700700  0.62594400  1
  O  O29  1  0.43704900  0.43705100  0.12591500  1
  O  O30  1  0.18705600  0.18705100  0.62594400  1
  O  O31  1  0.93704300  0.93704400  0.12591600  1
loop_
_geom_bond_atom_site_label_1
_geom_bond_atom_site_label_2
_geom_bond_distance
_geom_bond_site_symmetry_2
La0 O8 2.393300 1_555
La0 O28 2.524570 1_555
La0 O30 2.524593 1_655
La0 O18 2.552389 1_655
La0 O16 2.552452 1_555
La0 O12 2.682691 1_655
La0 O14 2.682744 1_555
La0 O14 2.682778 1_545
La0 O12 2.682817 1_555
La1 O9 2.393325 1_555
La1 O29 2.524481 1_555
La1 O31 2.524489 1_545
La1 O19 2.552254 1_555
La1 O17 2.552405 1_545
La1 O15 2.682708 1_555
La1 O13 2.682727 1_655
La1 O15 2.682814 1_545
La1 O13 2.682822 1_555
La2 O10 2.393325 1_555
La2 O30 2.524525 1_565
La2 O28 2.524592 1_555
La2 O18 2.552414 1_555
La2 O16 2.552424 1_565
La2 O12 2.682721 1_565
La2 O14 2.682745 1_555
La2 O12 2.682791 1_555
La2 O14 2.682794 1_455
La3 O11 2.393351 1_555
La3 O31 2.524475 1_455
La3 O29 2.524490 1_555
La3 O17 2.552319 1_555
La3 O19 2.552351 1_455
La3 O15 2.682738 1_555
La3 O13 2.682760 1_565
La3 O13 2.682783 1_555
La3 O15 2.682791 1_455
La4 O12 2.393376 1_555
La4 O26 2.524433 1_555
La4 O24 2.524441 1_555
La4 O22 2.552240 1_555
La4 O20 2.552286 1_555
La4 O8 2.682725 1_455
La4 O10 2.682731 1_545
La4 O10 2.682801 1_555
La4 O8 2.682814 1_555
La5 O13 2.393300 1_555
La5 O27 2.524570 1_445
La5 O25 2.524583 1_555
La5 O23 2.552415 1_455
La5 O21 2.552426 1_545
La5 O9 2.682709 1_455
La5 O11 2.682719 1_545
La5 O11 2.682804 1_555
La5 O9 2.682830 1_555
La6 O14 2.393325 1_555
La6 O26 2.524440 1_665
La6 O24 2.524478 1_555
La6 O22 2.552201 1_655
La6 O20 2.552292 1_565
La6 O10 2.682740 1_555
La6 O8 2.682742 1_555
La6 O8 2.682791 1_565
La6 O10 2.682799 1_655
La7 O15 2.393351 1_555
La7 O25 2.524572 1_555
La7 O27 2.524620 1_555
La7 O21 2.552341 1_555
La7 O23 2.552398 1_555
La7 O9 2.682736 1_555
La7 O11 2.682738 1_555
La7 O11 2.682791 1_655
La7 O9 2.682796 1_565
Co0 O0 2.042657 1_554
Co0 O7 2.042929 1_545
Co0 O5 2.043296 1_555
Co0 O2 2.043563 1_544
Co1 O4 2.041692 1_555
Co1 O1 2.042801 1_565
Co1 O3 2.043483 1_555
Co1 O6 2.044544 1_455
Co2 O3 2.042042 1_655
Co2 O4 2.042270 1_555
Co2 O6 2.044173 1_545
Co2 O1 2.044326 1_555
Co3 O0 2.042532 1_554
Co3 O7 2.042655 1_555
Co3 O5 2.043163 1_655
Co3 O2 2.043370 1_654
O0 Ti0 1.812155 1_555
O1 Ti1 1.811644 1_555
O2 Ti2 1.811593 1_555
O3 Ti3 1.812232 1_555
O4 Ti4 1.812794 1_555
O5 Ti5 1.811670 1_555
O6 Ti6 1.811133 1_555
O7 Ti7 1.812002 1_555
O8 Ti0 2.796943 1_555
O9 Ti1 2.797378 1_555
O10 Ti2 2.796969 1_555
O10 O24 2.909967 1_555
O10 O26 2.909969 1_565
O10 O22 2.941520 1_555
O10 O20 2.941572 1_565
O10 O14 3.222316 1_555
O10 O12 3.222328 1_565
O10 O14 3.222469 1_455
O10 O12 3.222510 1_555
O11 Ti3 2.797301 1_555
O11 O25 2.910018 1_555
O11 O27 2.910038 1_455
O11 O23 2.941552 1_455
O11 O21 2.941659 1_555
O11 O13 3.222307 1_565
O11 O15 3.222380 1_555
O11 O15 3.222464 1_455
O11 O13 3.222472 1_555
O12 Ti4 2.797250 1_555
O12 O30 2.909922 1_555
O12 O28 2.909971 1_555
O12 O18 2.941477 1_555
O12 O16 2.941538 1_555
O12 O8 3.222350 1_455
O12 O8 3.222494 1_555
O13 Ti5 2.797071 1_555
O13 O31 2.909997 1_445
O13 O29 2.910080 1_555
O13 O19 2.941553 1_455
O13 O17 2.941621 1_545
O13 O9 3.222295 1_455
O13 O9 3.222460 1_555
O14 Ti6 2.797480 1_555
O14 O28 2.910182 1_555
O14 O30 2.910217 1_665
O14 O16 2.941729 1_565
O14 O18 2.941764 1_655
O14 O8 3.222329 1_555
O14 O8 3.222450 1_565
O15 Ti7 2.796918 1_555
O15 O29 2.909951 1_555
O15 O31 2.909990 1_555
O15 O19 2.941516 1_555
O15 O17 2.941541 1_555
O15 O9 3.222324 1_555
O15 O9 3.222484 1_565
O16 Ti4 1.930100 1_555
O16 Ti6 1.930442 1_545
O16 O28 2.629781 1_555
O16 O30 2.629794 1_555
O16 O30 2.630252 1_655
O16 O28 2.630258 1_545
O17 Ti7 1.930168 1_555
O17 Ti5 1.930253 1_565
O17 O29 2.629948 1_555
O17 O31 2.630013 1_455
O17 O31 2.630035 1_555
O17 O29 2.630092 1_565
O18 Ti4 1.930089 1_555
O18 Ti6 1.930453 1_455
O18 O30 2.629787 1_555
O18 O28 2.629802 1_555
O18 O28 2.630244 1_455
O18 O30 2.630252 1_565
O19 Ti7 1.930167 1_555
O19 Ti5 1.930194 1_655
O19 O29 2.629957 1_555
O19 O31 2.629998 1_545
O19 O31 2.630041 1_555
O19 O29 2.630089 1_655
O20 Ti0 1.930193 1_555
O20 Ti2 1.930297 1_545
O20 O24 2.629885 1_555
O20 O26 2.629892 1_655
O20 O24 2.630155 1_545
O20 O26 2.630156 1_555
O20 O8 2.941481 1_555
O21 Ti1 1.930244 1_565
O21 Ti3 1.930302 1_555
O21 O27 2.629978 1_555
O21 O25 2.629983 1_555
O21 O25 2.630056 1_565
O21 O27 2.630068 1_455
O21 O9 2.941637 1_565
O22 Ti0 1.930128 1_455
O22 Ti2 1.930303 1_555
O22 O26 2.629970 1_555
O22 O24 2.629980 1_455
O22 O24 2.630064 1_555
O22 O26 2.630068 1_565
O22 O8 2.941437 1_455
O23 Ti3 1.930141 1_655
O23 Ti1 1.930441 1_555
O23 O25 2.629842 1_655
O23 O27 2.629856 1_555
O23 O27 2.630183 1_545
O23 O25 2.630205 1_555
O23 O9 2.941755 1_555
O24 Ti0 1.941526 1_555
O24 Ti2 1.941566 1_555
O24 O8 2.909922 1_555
O25 Ti3 1.941589 1_555
O25 Ti1 1.941714 1_555
O25 O9 2.910141 1_555
O26 Ti0 1.941502 1_455
O26 Ti2 1.941698 1_545
O26 O8 2.909867 1_455
O27 Ti3 1.941532 1_655
O27 Ti1 1.941678 1_565
O27 O9 2.910117 1_565
O28 Ti4 1.941559 1_555
O28 Ti6 1.941744 1_555
O29 Ti7 1.941505 1_555
O29 Ti5 1.941646 1_555
O30 Ti4 1.941397 1_555
O30 Ti6 1.941956 1_445
O31 Ti7 1.941589 1_555
O31 Ti5 1.941592 1_665
