# generated using pymatgen
data_MnCo2Si
_symmetry_space_group_name_H-M   'P 1'
_cell_length_a   5.69591000
_cell_length_b   5.69591000
_cell_length_c   11.16216800
_cell_angle_alpha   90.00000000
_cell_angle_beta   90.00000000
_cell_angle_gamma   90.00000000
_symmetry_Int_Tables_number   1
_chemical_formula_structural   MnCo2Si
_chemical_formula_sum   'Mn8 Co16 Si8'
_cell_volume   362.13857780
_cell_formula_units_Z   8
loop_
 _symmetry_equiv_pos_site_id
 _symmetry_equiv_pos_as_xyz
  1  'x, y, z'
loop_
 _atom_site_type_symbol
 _atom_site_label
 _atom_site_symmetry_multiplicity
 _atom_site_fract_x
 _atom_site_fract_y
 _atom_site_fract_z
 _atom_site_occupancy
  Mn  Mn0_0  1  0.25000000  0.25000000  0.00000000  1
  Mn  Mn0_1  1  0.25000000  0.25000000  0.50000000  1
  Mn  Mn0_2  1  0.25000000  0.75000000  0.00000000  1
  Mn  Mn0_3  1  0.25000000  0.75000000  0.50000000  1
  Mn  Mn0_4  1  0.75000000  0.25000000  0.00000000  1
  Mn  Mn0_5  1  0.75000000  0.25000000  0.50000000  1
  Mn  Mn0_6  1  0.75000000  0.75000000  0.00000000  1
  Mn  Mn0_7  1  0.75000000  0.75000000  0.50000000  1
  Co  Co0_0  1  0.00000000  0.00000000  0.36711500  1
  Co  Co0_1  1  0.00000000  0.00000000  0.86711500  1
  Co  Co0_2  1  0.00000000  0.50000000  0.36711500  1
  Co  Co0_3  1  0.00000000  0.50000000  0.86711500  1
  Co  Co0_4  1  0.50000000  0.00000000  0.36711500  1
  Co  Co0_5  1  0.50000000  0.00000000  0.86711500  1
  Co  Co0_6  1  0.50000000  0.50000000  0.36711500  1
  Co  Co0_7  1  0.50000000  0.50000000  0.86711500  1
  Co  Co1_0  1  0.00000000  0.00000000  0.13288500  1
  Co  Co1_1  1  0.00000000  0.00000000  0.63288500  1
  Co  Co1_2  1  0.00000000  0.50000000  0.13288500  1
  Co  Co1_3  1  0.00000000  0.50000000  0.63288500  1
  Co  Co1_4  1  0.50000000  0.00000000  0.13288500  1
  Co  Co1_5  1  0.50000000  0.00000000  0.63288500  1
  Co  Co1_6  1  0.50000000  0.50000000  0.13288500  1
  Co  Co1_7  1  0.50000000  0.50000000  0.63288500  1
  Si  Si0_0  1  0.25000000  0.25000000  0.25000000  1
  Si  Si0_1  1  0.25000000  0.25000000  0.75000000  1
  Si  Si0_2  1  0.25000000  0.75000000  0.25000000  1
  Si  Si0_3  1  0.25000000  0.75000000  0.75000000  1
  Si  Si0_4  1  0.75000000  0.25000000  0.25000000  1
  Si  Si0_5  1  0.75000000  0.25000000  0.75000000  1
  Si  Si0_6  1  0.75000000  0.75000000  0.25000000  1
  Si  Si0_7  1  0.75000000  0.75000000  0.75000000  1
loop_
_geom_bond_atom_site_label_1
_geom_bond_atom_site_label_2
_geom_bond_distance
_geom_bond_site_symmetry_2
Mn0_0 Si0_1 2.790542 1_554
Mn0_0 Si0_0 2.790542 1_555
Mn0_0 Mn0_2 2.847955 1_545
Mn0_0 Mn0_4 2.847955 1_455
Mn0_0 Mn0_4 2.847955 1_555
Mn0_0 Mn0_2 2.847955 1_555
Mn0_1 Si0_0 2.790542 1_555
Mn0_1 Si0_1 2.790542 1_555
Mn0_1 Mn0_5 2.847955 1_455
Mn0_1 Mn0_3 2.847955 1_545
Mn0_1 Mn0_5 2.847955 1_555
Mn0_1 Mn0_3 2.847955 1_555
Mn0_2 Si0_3 2.790542 1_554
Mn0_2 Si0_2 2.790542 1_555
Mn0_2 Mn0_6 2.847955 1_455
Mn0_2 Mn0_6 2.847955 1_555
Mn0_3 Si0_3 2.790542 1_555
Mn0_3 Si0_2 2.790542 1_555
Mn0_3 Mn0_7 2.847955 1_455
Mn0_3 Mn0_7 2.847955 1_555
Mn0_4 Si0_4 2.790542 1_555
Mn0_4 Si0_5 2.790542 1_554
Mn0_4 Mn0_6 2.847955 1_545
Mn0_4 Mn0_6 2.847955 1_555
Mn0_5 Si0_4 2.790542 1_555
Mn0_5 Si0_5 2.790542 1_555
Mn0_5 Mn0_7 2.847955 1_545
Mn0_5 Mn0_7 2.847955 1_555
Mn0_6 Si0_6 2.790542 1_555
Mn0_6 Si0_7 2.790542 1_554
Mn0_7 Si0_6 2.790542 1_555
Mn0_7 Si0_7 2.790542 1_555
Co0_0 Si0_6 2.400905 1_445
Co0_0 Si0_2 2.400905 1_545
Co0_0 Si0_4 2.400905 1_455
Co0_0 Si0_0 2.400905 1_555
Co0_0 Mn0_7 2.501111 1_445
Co0_0 Mn0_3 2.501111 1_545
Co0_0 Mn0_5 2.501111 1_455
Co0_0 Mn0_1 2.501111 1_555
Co0_0 Co1_0 2.614515 1_555
Co0_0 Co0_4 2.847955 1_455
Co0_0 Co0_4 2.847955 1_555
Co0_0 Co0_2 2.847955 1_555
Co0_0 Co0_2 2.847955 1_545
Co0_1 Si0_7 2.400905 1_445
Co0_1 Si0_3 2.400905 1_545
Co0_1 Si0_5 2.400905 1_455
Co0_1 Si0_1 2.400905 1_555
Co0_1 Mn0_6 2.501111 1_446
Co0_1 Mn0_2 2.501111 1_546
Co0_1 Mn0_4 2.501111 1_456
Co0_1 Mn0_0 2.501111 1_556
Co0_1 Co1_1 2.614515 1_555
Co0_1 Co0_5 2.847955 1_455
Co0_1 Co0_5 2.847955 1_555
Co0_1 Co0_3 2.847955 1_545
Co0_1 Co0_3 2.847955 1_555
Co0_2 Si0_4 2.400905 1_455
Co0_2 Si0_6 2.400905 1_455
Co0_2 Si0_2 2.400905 1_555
Co0_2 Si0_0 2.400905 1_555
Co0_2 Mn0_5 2.501111 1_455
Co0_2 Mn0_1 2.501111 1_555
Co0_2 Mn0_7 2.501111 1_455
Co0_2 Mn0_3 2.501111 1_555
Co0_2 Co1_2 2.614515 1_555
Co0_2 Co0_6 2.847955 1_455
Co0_2 Co0_6 2.847955 1_555
Co0_3 Si0_5 2.400905 1_455
Co0_3 Si0_7 2.400905 1_455
Co0_3 Si0_1 2.400905 1_555
Co0_3 Si0_3 2.400905 1_555
Co0_3 Mn0_4 2.501111 1_456
Co0_3 Mn0_0 2.501111 1_556
Co0_3 Mn0_6 2.501111 1_456
Co0_3 Mn0_2 2.501111 1_556
Co0_3 Co1_3 2.614515 1_555
Co0_3 Co0_7 2.847955 1_455
Co0_3 Co0_7 2.847955 1_555
Co0_4 Si0_2 2.400905 1_545
Co0_4 Si0_6 2.400905 1_545
Co0_4 Si0_0 2.400905 1_555
Co0_4 Si0_4 2.400905 1_555
Co0_4 Mn0_3 2.501111 1_545
Co0_4 Mn0_1 2.501111 1_555
Co0_4 Mn0_7 2.501111 1_545
Co0_4 Mn0_5 2.501111 1_555
Co0_4 Co1_4 2.614515 1_555
Co0_4 Co0_6 2.847955 1_555
Co0_4 Co0_6 2.847955 1_545
Co0_5 Si0_3 2.400905 1_545
Co0_5 Si0_7 2.400905 1_545
Co0_5 Si0_1 2.400905 1_555
Co0_5 Si0_5 2.400905 1_555
Co0_5 Mn0_2 2.501111 1_546
Co0_5 Mn0_0 2.501111 1_556
Co0_5 Mn0_6 2.501111 1_546
Co0_5 Mn0_4 2.501111 1_556
Co0_5 Co1_5 2.614515 1_555
Co0_5 Co0_7 2.847955 1_555
Co0_5 Co0_7 2.847955 1_545
Co0_6 Si0_2 2.400905 1_555
Co0_6 Si0_0 2.400905 1_555
Co0_6 Si0_4 2.400905 1_555
Co0_6 Si0_6 2.400905 1_555
Co0_6 Mn0_1 2.501111 1_555
Co0_6 Mn0_3 2.501111 1_555
Co0_6 Mn0_5 2.501111 1_555
Co0_6 Mn0_7 2.501111 1_555
Co0_6 Co1_6 2.614515 1_555
Co0_7 Si0_1 2.400905 1_555
Co0_7 Si0_5 2.400905 1_555
Co0_7 Si0_3 2.400905 1_555
Co0_7 Si0_7 2.400905 1_555
Co0_7 Mn0_0 2.501111 1_556
Co0_7 Mn0_2 2.501111 1_556
Co0_7 Mn0_4 2.501111 1_556
Co0_7 Mn0_6 2.501111 1_556
Co0_7 Co1_7 2.614515 1_555
Co1_0 Si0_6 2.400905 1_445
Co1_0 Si0_2 2.400905 1_545
Co1_0 Si0_4 2.400905 1_455
Co1_0 Si0_0 2.400905 1_555
Co1_0 Mn0_6 2.501111 1_445
Co1_0 Mn0_2 2.501111 1_545
Co1_0 Mn0_4 2.501111 1_455
Co1_0 Mn0_0 2.501111 1_555
Co1_0 Co1_4 2.847955 1_555
Co1_0 Co1_2 2.847955 1_555
Co1_0 Co1_4 2.847955 1_455
Co1_0 Co1_2 2.847955 1_545
Co1_1 Si0_7 2.400905 1_445
Co1_1 Si0_3 2.400905 1_545
Co1_1 Si0_5 2.400905 1_455
Co1_1 Si0_1 2.400905 1_555
Co1_1 Mn0_7 2.501111 1_445
Co1_1 Mn0_3 2.501111 1_545
Co1_1 Mn0_5 2.501111 1_455
Co1_1 Mn0_1 2.501111 1_555
Co1_1 Co1_3 2.847955 1_545
Co1_1 Co1_5 2.847955 1_555
Co1_1 Co1_3 2.847955 1_555
Co1_1 Co1_5 2.847955 1_455
Co1_2 Si0_4 2.400905 1_455
Co1_2 Si0_6 2.400905 1_455
Co1_2 Si0_0 2.400905 1_555
Co1_2 Si0_2 2.400905 1_555
Co1_2 Mn0_4 2.501111 1_455
Co1_2 Mn0_6 2.501111 1_455
Co1_2 Mn0_0 2.501111 1_555
Co1_2 Mn0_2 2.501111 1_555
Co1_2 Co1_6 2.847955 1_455
Co1_2 Co1_6 2.847955 1_555
Co1_3 Si0_5 2.400905 1_455
Co1_3 Si0_7 2.400905 1_455
Co1_3 Si0_1 2.400905 1_555
Co1_3 Si0_3 2.400905 1_555
Co1_3 Mn0_5 2.501111 1_455
Co1_3 Mn0_1 2.501111 1_555
Co1_3 Mn0_7 2.501111 1_455
Co1_3 Mn0_3 2.501111 1_555
Co1_3 Co1_7 2.847955 1_455
Co1_3 Co1_7 2.847955 1_555
Co1_4 Si0_2 2.400905 1_545
Co1_4 Si0_0 2.400905 1_555
Co1_4 Si0_6 2.400905 1_545
Co1_4 Si0_4 2.400905 1_555
Co1_4 Mn0_2 2.501111 1_545
Co1_4 Mn0_0 2.501111 1_555
Co1_4 Mn0_6 2.501111 1_545
Co1_4 Mn0_4 2.501111 1_555
Co1_4 Co1_6 2.847955 1_555
Co1_4 Co1_6 2.847955 1_545
Co1_5 Si0_3 2.400905 1_545
Co1_5 Si0_7 2.400905 1_545
Co1_5 Si0_1 2.400905 1_555
Co1_5 Si0_5 2.400905 1_555
Co1_5 Mn0_3 2.501111 1_545
Co1_5 Mn0_7 2.501111 1_545
Co1_5 Mn0_1 2.501111 1_555
Co1_5 Mn0_5 2.501111 1_555
Co1_5 Co1_7 2.847955 1_545
Co1_5 Co1_7 2.847955 1_555
Co1_6 Si0_0 2.400905 1_555
Co1_6 Si0_4 2.400905 1_555
Co1_6 Si0_2 2.400905 1_555
Co1_6 Si0_6 2.400905 1_555
Co1_6 Mn0_0 2.501111 1_555
Co1_6 Mn0_2 2.501111 1_555
Co1_6 Mn0_4 2.501111 1_555
Co1_6 Mn0_6 2.501111 1_555
Co1_7 Si0_1 2.400905 1_555
Co1_7 Si0_3 2.400905 1_555
Co1_7 Si0_5 2.400905 1_555
Co1_7 Si0_7 2.400905 1_555
Co1_7 Mn0_1 2.501111 1_555
Co1_7 Mn0_5 2.501111 1_555
Co1_7 Mn0_3 2.501111 1_555
Co1_7 Mn0_7 2.501111 1_555
