# generated using pymatgen
data_Ba8Gd4(Cu4O9)3
_symmetry_space_group_name_H-M   'P 1'
_cell_length_a   8.67565340
_cell_length_b   8.67565340
_cell_length_c   12.49754102
_cell_angle_alpha   74.00126376
_cell_angle_beta   74.00126376
_cell_angle_gamma   53.91387008
_symmetry_Int_Tables_number   1
_chemical_formula_structural   Ba8Gd4(Cu4O9)3
_chemical_formula_sum   'Ba8 Gd4 Cu12 O27'
_cell_volume   722.91755705
_cell_formula_units_Z   1
loop_
 _symmetry_equiv_pos_site_id
 _symmetry_equiv_pos_as_xyz
  1  'x, y, z'
loop_
 _atom_site_type_symbol
 _atom_site_label
 _atom_site_symmetry_multiplicity
 _atom_site_fract_x
 _atom_site_fract_y
 _atom_site_fract_z
 _atom_site_occupancy
  Ba  Ba0  1  0.17656300  0.17656300  0.81149900  1
  Ba  Ba1  1  0.42021800  0.42021800  0.81762900  1
  Ba  Ba2  1  0.67085400  0.67085400  0.81829300  1
  Ba  Ba3  1  0.91749200  0.91749200  0.81221600  1
  Ba  Ba4  1  0.32914600  0.32914600  0.18170700  1
  Ba  Ba5  1  0.57978200  0.57978200  0.18237100  1
  Ba  Ba6  1  0.82343700  0.82343700  0.18850100  1
  Ba  Ba7  1  0.08250800  0.08250800  0.18778400  1
  Gd  Gd0  1  0.50000000  0.50000000  0.50000000  1
  Gd  Gd1  1  0.00000000  0.00000000  0.50000000  1
  Gd  Gd2  1  0.74977200  0.74977200  0.50111600  1
  Gd  Gd3  1  0.25022800  0.25022800  0.49888400  1
  Cu  Cu0  1  0.33835700  0.83943800  0.64435400  1
  Cu  Cu1  1  0.83943800  0.33835700  0.64435400  1
  Cu  Cu2  1  0.58864900  0.08889300  0.64508600  1
  Cu  Cu3  1  0.08889300  0.58864900  0.64508600  1
  Cu  Cu4  1  0.41135100  0.91110700  0.35491400  1
  Cu  Cu5  1  0.91110700  0.41135100  0.35491400  1
  Cu  Cu6  1  0.66164300  0.16056200  0.35564600  1
  Cu  Cu7  1  0.16056200  0.66164300  0.35564600  1
  Cu  Cu8  1  0.26121900  0.73878100  0.00000000  1
  Cu  Cu9  1  0.73878100  0.26121900  0.00000000  1
  Cu  Cu10  1  0.50000000  0.00000000  0.00000000  1
  Cu  Cu11  1  0.00000000  0.50000000  0.00000000  1
  O  O0  1  0.21937500  0.71903300  0.62352700  1
  O  O1  1  0.71903300  0.21937500  0.62352700  1
  O  O2  1  0.46917100  0.96893700  0.62354100  1
  O  O3  1  0.96893700  0.46917100  0.62354100  1
  O  O4  1  0.28096700  0.78062500  0.37647300  1
  O  O5  1  0.78062500  0.28096700  0.37647300  1
  O  O6  1  0.53082900  0.03106300  0.37645900  1
  O  O7  1  0.03106300  0.53082900  0.37645900  1
  O  O8  1  0.59393600  0.59393600  0.62411700  1
  O  O9  1  0.09469600  0.09469600  0.62173800  1
  O  O10  1  0.84419700  0.84419700  0.62403500  1
  O  O11  1  0.34404800  0.34404800  0.62329000  1
  O  O12  1  0.65595200  0.65595200  0.37671000  1
  O  O13  1  0.15580300  0.15580300  0.37596500  1
  O  O14  1  0.90530400  0.90530400  0.37826200  1
  O  O15  1  0.40606400  0.40606400  0.37588300  1
  O  O16  1  0.27014300  0.80600100  0.84796600  1
  O  O17  1  0.80600100  0.27014300  0.84796600  1
  O  O18  1  0.53951800  0.03973800  0.84159900  1
  O  O19  1  0.03973800  0.53951800  0.84159900  1
  O  O20  1  0.46048200  0.96026200  0.15840100  1
  O  O21  1  0.96026200  0.46048200  0.15840100  1
  O  O22  1  0.72985700  0.19399900  0.15203400  1
  O  O23  1  0.19399900  0.72985700  0.15203400  1
  O  O24  1  0.24851900  0.24851900  0.00009500  1
  O  O25  1  0.50000000  0.50000000  0.00000000  1
  O  O26  1  0.75148100  0.75148100  0.99990500  1
loop_
_geom_bond_atom_site_label_1
_geom_bond_atom_site_label_2
_geom_bond_distance
_geom_bond_site_symmetry_2
Ba0 O18 2.733054 1_555
Ba0 O19 2.733054 1_555
Ba0 O16 2.742969 1_545
Ba0 O17 2.742969 1_455
Ba0 O24 2.901038 1_556
Ba0 O11 2.911090 1_555
Ba0 O3 2.977503 1_455
Ba0 O2 2.977503 1_545
Ba0 O9 3.014028 1_555
Ba1 O18 2.767351 1_555
Ba1 O19 2.767351 1_555
Ba1 O16 2.887011 1_555
Ba1 O17 2.887011 1_555
Ba1 O25 2.907998 1_556
Ba1 O24 2.916661 1_556
Ba1 O8 3.008152 1_555
Ba1 O11 3.009337 1_555
Ba1 O0 3.030423 1_555
Ba1 O1 3.030423 1_555
Ba2 O18 2.767742 1_565
Ba2 O19 2.767742 1_655
Ba2 O17 2.885347 1_555
Ba2 O16 2.885347 1_555
Ba2 O25 2.903176 1_556
Ba2 O26 2.908063 1_555
Ba2 O10 3.009360 1_555
Ba2 O8 3.014878 1_555
Ba2 O2 3.036582 1_555
Ba2 O3 3.036582 1_555
Ba3 O19 2.732526 1_655
Ba3 O18 2.732526 1_565
Ba3 O17 2.743142 1_565
Ba3 O16 2.743142 1_655
Ba3 O26 2.893063 1_555
Ba3 O10 2.909411 1_555
Ba3 O0 2.984340 1_655
Ba3 O1 2.984340 1_565
Ba3 O9 3.023782 1_665
Ba4 O21 2.767742 1_455
Ba4 O20 2.767742 1_545
Ba4 O22 2.885347 1_555
Ba4 O23 2.885347 1_555
Ba4 O25 2.903176 1_555
Ba4 O24 2.908063 1_555
Ba4 O13 3.009360 1_555
Ba4 O15 3.014878 1_555
Ba4 O7 3.036582 1_555
Ba4 O6 3.036582 1_555
Ba5 O21 2.767351 1_555
Ba5 O20 2.767351 1_555
Ba5 O22 2.887011 1_555
Ba5 O23 2.887011 1_555
Ba5 O25 2.907998 1_555
Ba5 O26 2.916661 1_554
Ba5 O15 3.008152 1_555
Ba5 O12 3.009337 1_555
Ba5 O5 3.030423 1_555
Ba5 O4 3.030423 1_555
Ba6 O20 2.733054 1_555
Ba6 O21 2.733054 1_555
Ba6 O23 2.742969 1_655
Ba6 O22 2.742969 1_565
Ba6 O26 2.901038 1_554
Ba6 O12 2.911090 1_555
Ba6 O7 2.977503 1_655
Ba6 O6 2.977503 1_565
Ba6 O14 3.014028 1_555
Ba7 O20 2.732526 1_545
Ba7 O21 2.732526 1_455
Ba7 O22 2.743142 1_455
Ba7 O23 2.743142 1_545
Ba7 O24 2.893063 1_555
Ba7 O13 2.909411 1_555
Ba7 O5 2.984340 1_455
Ba7 O4 2.984340 1_545
Ba7 O14 3.023782 1_445
Gd0 O12 2.427626 1_555
Gd0 O11 2.427626 1_555
Gd0 O8 2.431136 1_555
Gd0 O15 2.431136 1_555
Gd0 O1 2.452946 1_555
Gd0 O0 2.452946 1_555
Gd0 O4 2.452946 1_555
Gd0 O5 2.452946 1_555
Gd1 O14 2.416135 1_445
Gd1 O9 2.416135 1_555
Gd1 O13 2.428859 1_555
Gd1 O10 2.428859 1_445
Gd1 O1 2.455102 1_455
Gd1 O0 2.455102 1_545
Gd1 O4 2.455102 1_545
Gd1 O5 2.455102 1_455
Gd2 O14 2.420663 1_555
Gd2 O10 2.424864 1_555
Gd2 O8 2.425014 1_555
Gd2 O12 2.432684 1_555
Gd2 O2 2.445471 1_555
Gd2 O3 2.445471 1_555
Gd2 O6 2.462817 1_565
Gd2 O7 2.462817 1_655
Gd3 O9 2.420663 1_555
Gd3 O13 2.424864 1_555
Gd3 O15 2.425014 1_555
Gd3 O11 2.432684 1_555
Gd3 O6 2.445471 1_555
Gd3 O7 2.445471 1_555
Gd3 O2 2.462817 1_545
Gd3 O3 2.462817 1_455
Cu0 O0 1.947472 1_555
Cu0 O2 1.948350 1_555
Cu0 O9 1.980501 1_565
Cu0 O8 1.985301 1_555
Cu0 O16 2.423805 1_555
Cu1 O1 1.947472 1_555
Cu1 O3 1.948350 1_555
Cu1 O9 1.980501 1_655
Cu1 O8 1.985301 1_555
Cu1 O17 2.423805 1_555
Cu2 O1 1.950870 1_555
Cu2 O2 1.951679 1_545
Cu2 O11 1.982466 1_555
Cu2 O10 1.983232 1_545
Cu2 O18 2.335571 1_555
Cu3 O0 1.950870 1_555
Cu3 O3 1.951679 1_455
Cu3 O11 1.982466 1_555
Cu3 O10 1.983232 1_455
Cu3 O19 2.335571 1_555
Cu4 O4 1.950870 1_555
Cu4 O6 1.951679 1_565
Cu4 O12 1.982466 1_555
Cu4 O13 1.983232 1_565
Cu4 O20 2.335571 1_555
Cu5 O5 1.950870 1_555
Cu5 O7 1.951679 1_655
Cu5 O12 1.982466 1_555
Cu5 O13 1.983232 1_655
Cu5 O21 2.335571 1_555
Cu6 O5 1.947472 1_555
Cu6 O6 1.948350 1_555
Cu6 O14 1.980501 1_545
Cu6 O15 1.985301 1_555
Cu6 O22 2.423805 1_555
Cu7 O4 1.947472 1_555
Cu7 O7 1.948350 1_555
Cu7 O14 1.980501 1_455
Cu7 O15 1.985301 1_555
Cu7 O23 2.423805 1_555
Cu8 O23 1.821423 1_555
Cu8 O16 1.821423 1_554
Cu8 O25 1.878181 1_555
Cu9 O22 1.821423 1_555
Cu9 O17 1.821423 1_554
Cu9 O25 1.878181 1_555
Cu10 O20 1.882608 1_545
Cu10 O18 1.882608 1_554
Cu10 O24 1.966556 1_555
Cu10 O26 1.966556 1_544
Cu11 O21 1.882608 1_455
Cu11 O19 1.882608 1_554
Cu11 O26 1.966556 1_454
Cu11 O24 1.966556 1_555
