# generated using pymatgen
data_K5Te2Mo6H18NO36
_symmetry_space_group_name_H-M   'P 1'
_cell_length_a   10.91311060
_cell_length_b   10.91311060
_cell_length_c   21.09033077
_cell_angle_alpha   67.86594422
_cell_angle_beta   67.86594422
_cell_angle_gamma   55.78462820
_symmetry_Int_Tables_number   1
_chemical_formula_structural   K5Te2Mo6H18NO36
_chemical_formula_sum   'K10 Te4 Mo12 H36 N2 O72'
_cell_volume   1878.87234417
_cell_formula_units_Z   2
loop_
 _symmetry_equiv_pos_site_id
 _symmetry_equiv_pos_as_xyz
  1  'x, y, z'
loop_
 _atom_site_type_symbol
 _atom_site_label
 _atom_site_symmetry_multiplicity
 _atom_site_fract_x
 _atom_site_fract_y
 _atom_site_fract_z
 _atom_site_occupancy
  K  K0  1  0.37116100  0.90199300  0.87481300  1
  K  K1  1  0.12584900  0.62999500  0.60356100  1
  K  K2  1  0.62999500  0.12584900  0.10356100  1
  K  K3  1  0.90199300  0.37116100  0.37481300  1
  K  K4  1  0.99546900  0.79691200  0.22110900  1
  K  K5  1  0.20592100  0.00812900  0.27792900  1
  K  K6  1  0.00812900  0.20592100  0.77792900  1
  K  K7  1  0.79691200  0.99546900  0.72110900  1
  K  K8  1  0.51628300  0.60665000  0.03737100  1
  K  K9  1  0.60665000  0.51628300  0.53737100  1
  Te  Te0  1  0.50203400  0.99762900  0.99819500  1
  Te  Te1  1  0.99762900  0.50203400  0.49819500  1
  Te  Te2  1  0.99873300  0.49965200  0.00078700  1
  Te  Te3  1  0.49965200  0.99873300  0.50078700  1
  Mo  Mo0  1  0.02743200  0.53173200  0.82914500  1
  Mo  Mo1  1  0.46612300  0.97626500  0.66982400  1
  Mo  Mo2  1  0.97626500  0.46612300  0.16982400  1
  Mo  Mo3  1  0.53173200  0.02743200  0.32914500  1
  Mo  Mo4  1  0.05147600  0.73287900  0.04188500  1
  Mo  Mo5  1  0.26531900  0.95404000  0.45788000  1
  Mo  Mo6  1  0.95404000  0.26531900  0.95788000  1
  Mo  Mo7  1  0.73287900  0.05147600  0.54188500  1
  Mo  Mo8  1  0.06439000  0.77564400  0.87420800  1
  Mo  Mo9  1  0.22287200  0.94123700  0.62567200  1
  Mo  Mo10  1  0.94123700  0.22287200  0.12567200  1
  Mo  Mo11  1  0.77564400  0.06439000  0.37420800  1
  H  H0  1  0.19681600  0.38776000  0.28160300  1
  H  H1  1  0.60542200  0.80726300  0.21883300  1
  H  H2  1  0.80726300  0.60542200  0.71883300  1
  H  H3  1  0.38776000  0.19681600  0.78160300  1
  H  H4  1  0.59199700  0.97769700  0.87518500  1
  H  H5  1  0.00869000  0.42221900  0.62164200  1
  H  H6  1  0.42221900  0.00869000  0.12164200  1
  H  H7  1  0.97769700  0.59199700  0.37518500  1
  H  H8  1  0.70157700  0.55369000  0.87482600  1
  H  H9  1  0.45311200  0.30487700  0.62279100  1
  H  H10  1  0.30487700  0.45311200  0.12279100  1
  H  H11  1  0.55369000  0.70157700  0.37482600  1
  H  H12  1  0.76700000  0.95996900  0.97421800  1
  H  H13  1  0.02866200  0.23881400  0.52355900  1
  H  H14  1  0.23881400  0.02866200  0.02355900  1
  H  H15  1  0.95996900  0.76700000  0.47421800  1
  H  H16  1  0.33288000  0.69775200  0.20366900  1
  H  H17  1  0.33908900  0.59412100  0.33116700  1
  H  H18  1  0.59412100  0.33908900  0.83116700  1
  H  H19  1  0.69775200  0.33288000  0.70366900  1
  H  H20  1  0.27078200  0.83953200  0.14487800  1
  H  H21  1  0.17694000  0.71640500  0.35568100  1
  H  H22  1  0.71640500  0.17694000  0.85568100  1
  H  H23  1  0.83953200  0.27078200  0.64487800  1
  H  H24  1  0.57773500  0.57544000  0.84534100  1
  H  H25  1  0.40497000  0.39795000  0.67659100  1
  H  H26  1  0.39795000  0.40497000  0.17659100  1
  H  H27  1  0.57544000  0.57773500  0.34534100  1
  H  H28  1  0.29462400  0.24857300  0.94398400  1
  H  H29  1  0.74880300  0.70911000  0.55563100  1
  H  H30  1  0.70911000  0.74880300  0.05563100  1
  H  H31  1  0.24857300  0.29462400  0.44398400  1
  H  H32  1  0.20033300  0.44171500  0.33881300  1
  H  H33  1  0.56149500  0.78662300  0.16343300  1
  H  H34  1  0.78662300  0.56149500  0.66343300  1
  H  H35  1  0.44171500  0.20033300  0.83881300  1
  N  N0  1  0.54271300  0.43660400  0.24526100  1
  N  N1  1  0.43660400  0.54271300  0.74526100  1
  O  O0  1  0.59054400  0.60962900  0.87770700  1
  O  O1  1  0.40749400  0.41000700  0.62800000  1
  O  O2  1  0.41000700  0.40749400  0.12800000  1
  O  O3  1  0.60962900  0.59054400  0.37770700  1
  O  O4  1  0.60861300  0.89753900  0.91819500  1
  O  O5  1  0.09120700  0.39527700  0.57978500  1
  O  O6  1  0.39527700  0.09120700  0.07978500  1
  O  O7  1  0.89753900  0.60861300  0.41819500  1
  O  O8  1  0.15361000  0.47948300  0.29865600  1
  O  O9  1  0.51785900  0.84380700  0.20006600  1
  O  O10  1  0.84380700  0.51785900  0.70006600  1
  O  O11  1  0.47948300  0.15361000  0.79865600  1
  O  O12  1  0.22203200  0.79990500  0.84888800  1
  O  O13  1  0.20128600  0.78276900  0.64802700  1
  O  O14  1  0.78276900  0.20128600  0.14802700  1
  O  O15  1  0.79990500  0.22203200  0.34888800  1
  O  O16  1  0.21731900  0.74422500  0.01365400  1
  O  O17  1  0.25690800  0.78666700  0.48736600  1
  O  O18  1  0.78666700  0.25690800  0.98736600  1
  O  O19  1  0.74422500  0.21731900  0.51365400  1
  O  O20  1  0.91527700  0.67802900  0.77010100  1
  O  O21  1  0.32173500  0.08655900  0.73038600  1
  O  O22  1  0.08655900  0.32173500  0.23038600  1
  O  O23  1  0.67802900  0.91527700  0.27010100  1
  O  O24  1  0.11352600  0.36320800  0.93560900  1
  O  O25  1  0.63839500  0.88499400  0.56452700  1
  O  O26  1  0.88499400  0.63839500  0.06452700  1
  O  O27  1  0.36320800  0.11352600  0.43560900  1
  O  O28  1  0.16827200  0.39022200  0.78241500  1
  O  O29  1  0.60978200  0.83691100  0.71518000  1
  O  O30  1  0.83691100  0.60978200  0.21518000  1
  O  O31  1  0.39022200  0.16827200  0.28241500  1
  O  O32  1  0.95763300  0.85689300  0.95986300  1
  O  O33  1  0.14352000  0.04874400  0.53925500  1
  O  O34  1  0.04874400  0.14352000  0.03925500  1
  O  O35  1  0.85689300  0.95763300  0.45986300  1
  O  O36  1  0.14268000  0.57455900  0.96962500  1
  O  O37  1  0.43069600  0.85175300  0.52967500  1
  O  O38  1  0.85175300  0.43069600  0.02967500  1
  O  O39  1  0.57455900  0.14268000  0.46962500  1
  O  O40  1  0.88888600  0.44926300  0.88242000  1
  O  O41  1  0.54764300  0.11621900  0.61554700  1
  O  O42  1  0.11621900  0.54764300  0.11554700  1
  O  O43  1  0.44926300  0.88888600  0.38242000  1
  O  O44  1  0.91620300  0.65636500  0.91975600  1
  O  O45  1  0.34387500  0.08554300  0.57943500  1
  O  O46  1  0.08554300  0.34387500  0.07943500  1
  O  O47  1  0.65636500  0.91620300  0.41975600  1
  O  O48  1  0.92115600  0.86393900  0.09573100  1
  O  O49  1  0.13383300  0.08065300  0.40387700  1
  O  O50  1  0.08065300  0.13383300  0.90387700  1
  O  O51  1  0.86393900  0.92115600  0.59573100  1
  O  O52  1  0.30752500  0.73017600  0.15826200  1
  O  O53  1  0.26533600  0.69950800  0.31654600  1
  O  O54  1  0.69950800  0.26533600  0.81654600  1
  O  O55  1  0.73017600  0.30752500  0.65826200  1
  O  O56  1  0.65984800  0.04496400  0.98312600  1
  O  O57  1  0.94834300  0.34670500  0.51000600  1
  O  O58  1  0.34670500  0.94834300  0.01000600  1
  O  O59  1  0.04496400  0.65984800  0.48312600  1
  O  O60  1  0.14860600  0.61425000  0.82624600  1
  O  O61  1  0.38183600  0.85440300  0.67540000  1
  O  O62  1  0.85440300  0.38183600  0.17540000  1
  O  O63  1  0.61425000  0.14860600  0.32624600  1
  O  O64  1  0.93463500  0.93127700  0.82442300  1
  O  O65  1  0.06378500  0.06915900  0.67578600  1
  O  O66  1  0.06915900  0.06378500  0.17578600  1
  O  O67  1  0.93127700  0.93463500  0.32442300  1
  O  O68  1  0.40901900  0.19483400  0.93576700  1
  O  O69  1  0.79762700  0.59584700  0.55960800  1
  O  O70  1  0.59584700  0.79762700  0.05960800  1
  O  O71  1  0.19483400  0.40901900  0.43576700  1
loop_
_geom_bond_atom_site_label_1
_geom_bond_atom_site_label_2
_geom_bond_distance
_geom_bond_site_symmetry_2
K0 O0 2.699691 1_555
K0 O12 2.712462 1_555
K0 O50 2.740741 1_565
K0 O58 2.969569 1_556
K0 O21 3.003189 1_565
K0 O4 3.027534 1_555
K0 O16 3.178775 1_556
K0 O29 3.425760 1_555
K1 O1 2.727502 1_555
K1 O13 2.764142 1_555
K1 O17 2.815318 1_555
K1 O51 2.835446 1_455
K1 O59 2.842451 1_555
K1 O5 3.025801 1_555
K1 O20 3.441350 1_455
K2 O2 2.727502 1_555
K2 O14 2.764142 1_555
K2 O18 2.815318 1_554
K2 O48 2.835446 1_545
K2 O56 2.842451 1_554
K2 O6 3.025801 1_555
K2 O23 3.441350 1_545
K3 O3 2.699691 1_555
K3 O15 2.712462 1_555
K3 O49 2.740741 1_655
K3 O57 2.969569 1_555
K3 O22 3.003189 1_655
K3 O7 3.027534 1_555
K3 O19 3.178775 1_555
K3 O30 3.425760 1_555
K4 O67 2.762410 1_555
K4 O48 2.770592 1_555
K4 O23 2.830762 1_555
K4 O52 2.901971 1_655
K4 O8 2.964410 1_655
K4 O66 3.162196 1_665
K4 O30 3.392602 1_555
K4 O42 3.523449 1_655
K4 O14 3.645363 1_565
K5 O49 2.758705 1_555
K5 O66 2.766681 1_555
K5 O22 2.792820 1_555
K5 O53 2.881357 1_545
K5 O9 2.939783 1_545
K5 O67 3.237944 1_445
K5 O31 3.365953 1_555
K5 O43 3.459021 1_545
K6 O50 2.758705 1_555
K6 O65 2.766681 1_555
K6 O21 2.792820 1_555
K6 O54 2.881357 1_455
K6 O10 2.939783 1_455
K6 O64 3.237944 1_445
K6 O28 3.365953 1_555
K6 O40 3.459021 1_455
K7 O64 2.762410 1_555
K7 O51 2.770592 1_555
K7 O20 2.830762 1_555
K7 O55 2.901971 1_565
K7 O11 2.964410 1_565
K7 O65 3.162196 1_665
K7 O29 3.392602 1_555
K7 O41 3.523449 1_565
K7 O13 3.645363 1_655
K8 O2 2.784994 1_555
K8 O52 2.875267 1_555
K8 O16 2.881684 1_555
K8 O70 2.897607 1_555
K8 O38 2.999630 1_555
K8 O58 3.014165 1_555
K8 O0 3.144473 1_554
K8 O18 3.522695 1_554
K9 O1 2.784994 1_555
K9 O55 2.875267 1_555
K9 O19 2.881684 1_555
K9 O69 2.897607 1_555
K9 O37 2.999630 1_555
K9 O57 3.014165 1_555
K9 O3 3.144473 1_555
K9 O17 3.522695 1_555
Mo0 O20 1.746562 1_455
Mo0 O28 1.747751 1_555
Mo0 O60 1.949414 1_555
Mo0 O40 1.961288 1_455
Mo0 O44 2.308528 1_455
Mo0 O24 2.416907 1_555
Mo1 O29 1.743055 1_555
Mo1 O21 1.752720 1_565
Mo1 O61 1.950613 1_555
Mo1 O41 1.969210 1_565
Mo1 O45 2.291336 1_565
Mo1 O25 2.423449 1_555
Mo2 O30 1.743055 1_555
Mo2 O22 1.752720 1_655
Mo2 O62 1.950613 1_555
Mo2 O42 1.969210 1_655
Mo2 O46 2.291336 1_655
Mo2 O26 2.423449 1_555
Mo3 O23 1.746562 1_545
Mo3 O31 1.747751 1_555
Mo3 O63 1.949414 1_555
Mo3 O43 1.961288 1_545
Mo3 O47 2.308528 1_545
Mo3 O27 2.416907 1_555
Mo4 O16 1.740657 1_555
Mo4 O48 1.754219 1_455
Mo4 O42 1.963047 1_555
Mo4 O32 1.971033 1_454
Mo4 O36 2.281565 1_554
Mo4 O26 2.382042 1_455
Mo5 O17 1.738121 1_555
Mo5 O49 1.755358 1_565
Mo5 O33 1.962913 1_565
Mo5 O43 1.976906 1_555
Mo5 O37 2.305636 1_555
Mo5 O27 2.342646 1_565
Mo6 O18 1.738121 1_555
Mo6 O50 1.755358 1_655
Mo6 O34 1.962913 1_656
Mo6 O40 1.976906 1_555
Mo6 O38 2.305636 1_556
Mo6 O24 2.342646 1_655
Mo7 O19 1.740657 1_555
Mo7 O51 1.754219 1_545
Mo7 O41 1.963047 1_555
Mo7 O35 1.971033 1_545
Mo7 O39 2.281565 1_555
Mo7 O25 2.382042 1_545
Mo8 O12 1.740215 1_555
Mo8 O64 1.750463 1_455
Mo8 O60 1.947209 1_555
Mo8 O32 1.966282 1_455
Mo8 O36 2.335513 1_555
Mo8 O44 2.342435 1_455
Mo9 O13 1.740282 1_555
Mo9 O65 1.756004 1_565
Mo9 O61 1.944416 1_555
Mo9 O33 1.970672 1_565
Mo9 O45 2.320760 1_565
Mo9 O37 2.394875 1_555
Mo10 O14 1.740282 1_555
Mo10 O66 1.756004 1_655
Mo10 O62 1.944416 1_555
Mo10 O34 1.970672 1_655
Mo10 O46 2.320760 1_655
Mo10 O38 2.394875 1_555
Mo11 O15 1.740215 1_555
Mo11 O67 1.750463 1_545
Mo11 O63 1.947209 1_555
Mo11 O35 1.966282 1_545
Mo11 O39 2.335513 1_555
Mo11 O47 2.342435 1_545
H0 O8 0.983030 1_555
H0 O31 2.122100 1_555
H0 O22 2.382163 1_555
H0 K3 3.141681 1_455
H1 O9 0.983020 1_555
H1 O30 2.210912 1_555
H1 O23 2.417213 1_555
H2 O10 0.983020 1_555
H2 O29 2.210912 1_555
H2 O20 2.417213 1_555
H3 O11 0.983030 1_555
H3 O28 2.122100 1_555
H3 O21 2.382163 1_555
H3 K0 3.141681 1_545
H4 O4 0.984147 1_555
H4 K0 2.957880 1_555
H4 K7 3.183520 1_555
H5 O5 0.987654 1_555
H5 K1 3.027054 1_555
H5 K6 3.251853 1_555
H6 O6 0.987654 1_555
H6 K2 3.027054 1_555
H6 K5 3.251853 1_555
H7 O7 0.984147 1_555
H7 K3 2.957880 1_555
H7 K4 3.183520 1_555
H8 O0 0.992572 1_555
H8 O40 1.729793 1_555
H9 O1 0.993793 1_555
H9 O41 1.748162 1_555
H10 O2 0.993793 1_555
H10 O42 1.748162 1_555
H11 O3 0.992572 1_555
H11 O43 1.729793 1_555
H12 O56 1.004503 1_565
H12 O32 1.683826 1_555
H13 O57 1.005423 1_455
H13 O33 1.689541 1_555
H14 O58 1.005423 1_545
H14 O34 1.689541 1_555
H15 O59 1.004503 1_655
H15 O35 1.683826 1_555
H16 O52 0.976259 1_555
H16 N0 2.534922 1_555
H16 K4 3.108551 1_455
H17 O53 0.971795 1_555
H17 N0 2.488513 1_555
H18 O54 0.971795 1_555
H18 N1 2.488513 1_555
H19 O55 0.976259 1_555
H19 N1 2.534922 1_555
H19 K7 3.108551 1_545
H20 O52 0.978764 1_555
H20 O66 2.306748 1_565
H20 K4 3.032555 1_455
H21 O53 0.980044 1_555
H22 O54 0.980044 1_555
H23 O55 0.978764 1_555
H23 O65 2.306748 1_655
H23 K7 3.032555 1_545
H24 O0 0.973233 1_555
H24 N1 3.254419 1_555
H25 O1 0.974414 1_555
H25 N1 2.725202 1_555
H26 O2 0.974414 1_555
H26 N0 2.725202 1_555
H27 O3 0.973233 1_555
H27 N0 3.254419 1_555
H28 O68 1.011271 1_555
H28 O24 1.678745 1_555
H29 O69 1.016684 1_555
H29 O25 1.634422 1_555
H30 O70 1.016684 1_555
H30 O26 1.634422 1_555
H31 O71 1.011271 1_555
H31 O27 1.678745 1_555
H32 O8 0.986496 1_555
H33 O9 0.982343 1_555
H34 O10 0.982343 1_555
H35 O11 0.986496 1_555
N0 O63 2.757733 1_555
N0 O62 2.949403 1_555
N0 O14 3.165038 1_555
N0 O15 3.392982 1_555
N1 O60 2.757733 1_555
N1 O61 2.949403 1_555
N1 O13 3.165038 1_555
N1 O12 3.392982 1_555
O4 Te0 1.968211 1_555
O5 Te1 1.958757 1_455
O6 Te0 1.958757 1_544
O7 Te1 1.968211 1_555
O24 Te2 1.955277 1_456
O25 Te3 1.950183 1_555
O26 Te2 1.950183 1_555
O27 Te3 1.955277 1_545
O32 O36 2.540023 1_655
O33 O37 2.599512 1_545
O34 O38 2.599512 1_455
O35 O39 2.540023 1_565
O36 Te2 1.956860 1_456
O36 O44 2.604164 1_455
O37 Te3 1.945739 1_555
O38 Te2 1.945739 1_555
O39 Te3 1.956860 1_545
O39 O47 2.604164 1_545
O44 Te2 1.970232 1_556
O44 O60 2.477116 1_655
O45 Te3 1.945996 1_545
O45 O61 2.498049 1_545
O46 Te2 1.945996 1_455
O46 O62 2.498049 1_455
O47 Te3 1.970232 1_555
O47 O63 2.477116 1_565
O56 Te0 1.948929 1_545
O57 Te1 1.957293 1_555
O58 Te0 1.957293 1_554
O59 Te1 1.948929 1_455
O68 Te0 1.952079 1_545
O69 Te1 1.961020 1_555
O70 Te0 1.961020 1_554
O71 Te1 1.952079 1_455
