# generated using pymatgen
data_Tc4Br7O
_symmetry_space_group_name_H-M   'P 1'
_cell_length_a   9.50265200
_cell_length_b   10.05250800
_cell_length_c   21.15592021
_cell_angle_alpha   71.60325899
_cell_angle_beta   90.00000000
_cell_angle_gamma   90.00000000
_symmetry_Int_Tables_number   1
_chemical_formula_structural   Tc4Br7O
_chemical_formula_sum   'Tc16 Br28 O4'
_cell_volume   1917.64784691
_cell_formula_units_Z   4
loop_
 _symmetry_equiv_pos_site_id
 _symmetry_equiv_pos_as_xyz
  1  'x, y, z'
loop_
 _atom_site_type_symbol
 _atom_site_label
 _atom_site_symmetry_multiplicity
 _atom_site_fract_x
 _atom_site_fract_y
 _atom_site_fract_z
 _atom_site_occupancy
  Tc  Tc0  1  0.49386900  0.36222600  0.46978700  1
  Tc  Tc1  1  0.99386900  0.63777400  0.03021300  1
  Tc  Tc2  1  0.50613100  0.63777400  0.53021300  1
  Tc  Tc3  1  0.00613100  0.36222600  0.96978700  1
  Tc  Tc4  1  0.98027700  0.26851100  0.10394500  1
  Tc  Tc5  1  0.48027700  0.73148900  0.39605500  1
  Tc  Tc6  1  0.01972300  0.73148900  0.89605500  1
  Tc  Tc7  1  0.51972300  0.26851100  0.60394500  1
  Tc  Tc8  1  0.14224200  0.42011500  0.11079300  1
  Tc  Tc9  1  0.64224200  0.57988500  0.38920700  1
  Tc  Tc10  1  0.85775800  0.57988500  0.88920700  1
  Tc  Tc11  1  0.35775800  0.42011500  0.61079300  1
  Tc  Tc12  1  0.33173600  0.51301200  0.47689500  1
  Tc  Tc13  1  0.83173600  0.48698800  0.02310500  1
  Tc  Tc14  1  0.66826400  0.48698800  0.52310500  1
  Tc  Tc15  1  0.16826400  0.51301200  0.97689500  1
  Br  Br0  1  0.01838200  0.59547900  0.15492200  1
  Br  Br1  1  0.51838200  0.40452100  0.34507800  1
  Br  Br2  1  0.98161800  0.40452100  0.84507800  1
  Br  Br3  1  0.48161800  0.59547900  0.65492200  1
  Br  Br4  1  0.10194700  0.12185500  0.04222500  1
  Br  Br5  1  0.60194700  0.87814500  0.45777500  1
  Br  Br6  1  0.89805300  0.87814500  0.95777500  1
  Br  Br7  1  0.39805300  0.12185500  0.54222500  1
  Br  Br8  1  0.35673900  0.36761100  0.05198300  1
  Br  Br9  1  0.85673900  0.63238900  0.44801700  1
  Br  Br10  1  0.64326100  0.63238900  0.94801700  1
  Br  Br11  1  0.14326100  0.36761100  0.55198300  1
  Br  Br12  1  0.25882200  0.64168300  0.35677200  1
  Br  Br13  1  0.75882200  0.35831700  0.14322800  1
  Br  Br14  1  0.74117800  0.35831700  0.64322800  1
  Br  Br15  1  0.24117800  0.64168300  0.85677200  1
  Br  Br16  1  0.25903300  0.76479600  0.00383700  1
  Br  Br17  1  0.75903300  0.23520400  0.49616300  1
  Br  Br18  1  0.74096700  0.23520400  0.99616300  1
  Br  Br19  1  0.24096700  0.76479600  0.50383700  1
  Br  Br20  1  0.50927500  0.93501100  0.28636800  1
  Br  Br21  1  0.00927500  0.06498900  0.21363200  1
  Br  Br22  1  0.49072500  0.06498900  0.71363200  1
  Br  Br23  1  0.99072500  0.93501100  0.78636800  1
  Br  Br24  1  0.27599900  0.33116200  0.21812400  1
  Br  Br25  1  0.77599900  0.66883800  0.28187600  1
  Br  Br26  1  0.72400100  0.66883800  0.78187600  1
  Br  Br27  1  0.22400100  0.33116200  0.71812400  1
  O  O0  1  0.00985900  0.14471200  0.27569300  1
  O  O1  1  0.50985900  0.85528800  0.22430700  1
  O  O2  1  0.99014100  0.85528800  0.72430700  1
  O  O3  1  0.49014100  0.14471200  0.77569300  1
loop_
_geom_bond_atom_site_label_1
_geom_bond_atom_site_label_2
_geom_bond_distance
_geom_bond_site_symmetry_2
Tc0 Tc12 2.199500 1_555
Tc0 Tc14 2.546490 1_555
Tc0 Tc7 2.704765 1_555
Tc0 Tc9 2.706872 1_555
Tc1 Tc13 2.199500 1_555
Tc1 Tc15 2.546490 1_654
Tc1 Tc6 2.704765 1_654
Tc1 Tc8 2.706872 1_655
Tc2 Tc5 2.704765 1_555
Tc3 Tc4 2.704765 1_456
Tc4 Tc8 2.202668 1_655
Tc5 Tc9 2.202668 1_555
Tc10 Tc6 2.202668 1_655
Tc10 Tc13 2.699610 1_556
Tc10 Tc3 2.706872 1_655
Tc11 Tc7 2.202668 1_555
Tc11 Tc12 2.699610 1_555
Tc11 Tc2 2.706872 1_555
Tc12 Tc2 2.546490 1_555
Tc12 Tc5 2.714778 1_555
Tc13 Tc3 2.546490 1_654
Tc13 Tc4 2.714778 1_555
Tc14 Tc2 2.199500 1_555
Tc14 Tc9 2.699610 1_555
Tc14 Tc7 2.714778 1_555
Tc15 Tc3 2.199500 1_555
Tc15 Tc8 2.699610 1_556
Tc15 Tc6 2.714778 1_555
Br0 Tc8 2.530483 1_555
Br0 Tc1 2.547116 1_455
Br0 Br13 3.492987 1_455
Br0 Br24 3.549396 1_555
Br0 Br16 3.861252 1_555
Br1 Tc9 2.530483 1_555
Br1 Tc0 2.547116 1_555
Br1 Br12 3.492987 1_555
Br1 Br25 3.549396 1_555
Br1 Br17 3.861252 1_555
Br2 Tc10 2.530483 1_555
Br2 Tc3 2.547116 1_655
Br2 Br26 3.549396 1_555
Br3 Tc11 2.530483 1_555
Br3 Tc2 2.547116 1_555
Br4 Tc4 2.535789 1_455
Br4 Tc3 2.584359 1_554
Br4 Br8 3.511399 1_555
Br5 Tc5 2.535789 1_555
Br5 Tc2 2.584359 1_555
Br5 Br9 3.511399 1_555
Br6 Tc6 2.535789 1_655
Br6 Tc1 2.584359 1_556
Br7 Tc7 2.535789 1_555
Br7 Tc0 2.584359 1_555
Br8 Tc8 2.528965 1_555
Br8 Tc15 2.530233 1_554
Br9 Tc9 2.528965 1_555
Br9 Tc14 2.530233 1_555
Br10 Tc10 2.528965 1_555
Br10 Tc13 2.530233 1_556
Br10 Br26 3.502044 1_555
Br10 Br6 3.511399 1_555
Br10 Br18 3.908232 1_555
Br11 Tc11 2.528965 1_555
Br11 Tc12 2.530233 1_555
Br11 Br27 3.502044 1_555
Br11 Br7 3.511399 1_555
Br11 Br19 3.908232 1_555
Br12 Tc5 2.531359 1_555
Br12 Tc12 2.556681 1_555
Br12 Br19 3.697431 1_555
Br13 Tc4 2.531359 1_555
Br13 Tc13 2.556681 1_555
Br13 Br18 3.697431 1_554
Br14 Tc7 2.531359 1_555
Br14 Tc14 2.556681 1_555
Br14 Br3 3.492987 1_555
Br14 Br17 3.697431 1_555
Br15 Tc6 2.531359 1_555
Br15 Tc15 2.556681 1_555
Br15 Br2 3.492987 1_455
Br15 Br16 3.697431 1_556
Br16 Tc1 2.800229 1_455
Br16 Tc15 2.895812 1_554
Br16 Tc6 3.311324 1_554
Br16 Br6 3.648812 1_454
Br16 Tc8 3.661786 1_555
Br16 Br8 3.908232 1_555
Br17 Tc0 2.800229 1_555
Br17 Tc14 2.895812 1_555
Br17 Tc7 3.311324 1_555
Br17 Br7 3.648812 1_555
Br17 Tc9 3.661786 1_555
Br17 Br9 3.908232 1_555
Br18 Tc3 2.800229 1_655
Br18 Tc13 2.895812 1_556
Br18 Tc4 3.311324 1_556
Br18 Br4 3.648812 1_656
Br18 Tc10 3.661786 1_555
Br18 Br2 3.861252 1_555
Br19 Tc2 2.800229 1_555
Br19 Tc12 2.895812 1_555
Br19 Tc5 3.311324 1_555
Br19 Br5 3.648812 1_555
Br19 Tc11 3.661786 1_555
Br19 Br3 3.861252 1_555
Br20 O1 1.740779 1_555
Br20 Tc5 2.578739 1_555
Br21 O0 1.740779 1_555
Br21 Tc4 2.578739 1_455
Br22 O3 1.740779 1_555
Br22 Tc7 2.578739 1_555
Br23 O2 1.740779 1_555
Br23 Tc6 2.578739 1_655
Br24 Tc8 2.507901 1_555
Br24 O0 3.154597 1_555
Br24 Br8 3.502044 1_555
Br25 Tc9 2.507901 1_555
Br25 O1 3.154597 1_555
Br25 Br9 3.502044 1_555
Br26 Tc10 2.507901 1_555
Br26 O2 3.154597 1_555
Br27 Tc11 2.507901 1_555
Br27 O3 3.154597 1_555
Br27 Br3 3.549396 1_555
