# generated using pymatgen
data_Er(FeGe)6
_symmetry_space_group_name_H-M   'P 1'
_cell_length_a   5.10481700
_cell_length_b   8.11200400
_cell_length_c   14.08367497
_cell_angle_alpha   106.73784727
_cell_angle_beta   100.44150958
_cell_angle_gamma   90.00000000
_symmetry_Int_Tables_number   1
_chemical_formula_structural   Er(FeGe)6
_chemical_formula_sum   'Er3 Fe18 Ge18'
_cell_volume   548.40735700
_cell_formula_units_Z   3
loop_
 _symmetry_equiv_pos_site_id
 _symmetry_equiv_pos_as_xyz
  1  'x, y, z'
loop_
 _atom_site_type_symbol
 _atom_site_label
 _atom_site_symmetry_multiplicity
 _atom_site_fract_x
 _atom_site_fract_y
 _atom_site_fract_z
 _atom_site_occupancy
  Er  Er0  1  0.66737100  0.16737100  0.33474300  1
  Er  Er1  1  0.33262800  0.83262800  0.66525700  1
  Er  Er2  1  0.00000000  0.00000000  0.00000000  1
  Fe  Fe0  1  0.50000000  0.24856900  0.00000000  1
  Fe  Fe1  1  0.50000000  0.75143100  0.00000000  1
  Fe  Fe2  1  0.00000000  0.50000000  0.50000000  1
  Fe  Fe3  1  0.00000000  0.00000000  0.50000000  1
  Fe  Fe4  1  0.50000000  0.00000000  0.50000000  1
  Fe  Fe5  1  0.50000000  0.50000000  0.50000000  1
  Fe  Fe6  1  0.83330400  0.58154600  0.66660900  1
  Fe  Fe7  1  0.16669600  0.91493700  0.33339100  1
  Fe  Fe8  1  0.83330400  0.08506300  0.66660900  1
  Fe  Fe9  1  0.16669600  0.41845400  0.33339100  1
  Fe  Fe10  1  0.83339900  0.33185100  0.16643200  1
  Fe  Fe11  1  0.16660100  0.16541900  0.83356800  1
  Fe  Fe12  1  0.33303300  0.83458100  0.16643200  1
  Fe  Fe13  1  0.66696700  0.66814900  0.83356800  1
  Fe  Fe14  1  0.16660100  0.66814900  0.83356800  1
  Fe  Fe15  1  0.83339900  0.83458100  0.16643200  1
  Fe  Fe16  1  0.66696700  0.16541900  0.83356800  1
  Fe  Fe17  1  0.33303300  0.33185100  0.16643200  1
  Ge  Ge0  1  0.55564000  0.05564000  0.11127900  1
  Ge  Ge1  1  0.44436000  0.94436000  0.88872100  1
  Ge  Ge2  1  0.55564000  0.55564000  0.11128100  1
  Ge  Ge3  1  0.44436000  0.44436000  0.88871900  1
  Ge  Ge4  1  0.11205000  0.11205000  0.22410000  1
  Ge  Ge5  1  0.88795000  0.88795000  0.77590000  1
  Ge  Ge6  1  0.11051600  0.61051600  0.22103200  1
  Ge  Ge7  1  0.88948400  0.38948400  0.77896800  1
  Ge  Ge8  1  0.22257100  0.22257100  0.44514200  1
  Ge  Ge9  1  0.77742900  0.77742900  0.55485800  1
  Ge  Ge10  1  0.22111600  0.72111600  0.44223100  1
  Ge  Ge11  1  0.77888400  0.27888400  0.55776900  1
  Ge  Ge12  1  0.00000000  0.34552600  0.00000000  1
  Ge  Ge13  1  0.00000000  0.65447400  0.00000000  1
  Ge  Ge14  1  0.66660400  0.51302200  0.33320800  1
  Ge  Ge15  1  0.33339600  0.17981400  0.66679200  1
  Ge  Ge16  1  0.66660400  0.82018600  0.33320800  1
  Ge  Ge17  1  0.33339600  0.48697800  0.66679200  1
loop_
_geom_bond_atom_site_label_1
_geom_bond_atom_site_label_2
_geom_bond_distance
_geom_bond_site_symmetry_2
Er0 Ge16 2.810214 1_545
Er0 Ge14 2.810222 1_555
Er0 Ge8 2.941487 1_555
Er0 Ge8 2.941491 1_655
Er0 Ge4 2.943094 1_555
Er0 Ge4 2.943099 1_655
Er0 Ge11 2.953592 1_555
Er0 Ge0 2.959392 1_555
Er0 Fe4 3.245177 1_555
Er0 Fe3 3.245179 1_655
Er0 Fe5 3.245182 1_555
Er0 Fe2 3.245185 1_655
Er0 Fe12 3.266105 1_545
Er0 Fe15 3.266107 1_545
Er0 Fe17 3.266110 1_555
Er0 Fe10 3.266112 1_555
Er0 Fe7 3.268932 1_545
Er0 Fe9 3.268937 1_555
Er0 Fe7 3.268940 1_645
Er0 Fe9 3.268945 1_655
Er1 Ge17 2.810214 1_555
Er1 Ge15 2.810222 1_565
Er1 Ge9 2.941487 1_455
Er1 Ge9 2.941491 1_555
Er1 Ge5 2.943094 1_455
Er1 Ge5 2.943099 1_555
Er1 Ge10 2.953592 1_555
Er1 Ge1 2.959392 1_555
Er1 Fe2 3.245177 1_555
Er1 Fe5 3.245179 1_555
Er1 Fe3 3.245183 1_565
Er1 Fe4 3.245184 1_565
Er1 Fe14 3.266105 1_555
Er1 Fe13 3.266107 1_555
Er1 Fe11 3.266110 1_565
Er1 Fe16 3.266112 1_565
Er1 Fe6 3.268936 1_455
Er1 Fe6 3.268936 1_555
Er1 Fe8 3.268941 1_465
Er1 Fe8 3.268941 1_565
Er2 Ge12 2.802908 1_555
Er2 Ge13 2.802908 1_545
Er2 Ge0 2.947297 1_455
Er2 Ge1 2.947297 1_544
Er2 Ge0 2.947301 1_555
Er2 Ge1 2.947301 1_444
Er2 Ge5 2.967815 1_444
Er2 Ge4 2.967815 1_555
Er2 Fe11 3.248443 1_554
Er2 Fe15 3.248443 1_445
Er2 Fe10 3.248443 1_455
Er2 Fe14 3.248443 1_544
Er2 Fe16 3.248443 1_454
Er2 Fe12 3.248443 1_545
Er2 Fe17 3.248443 1_555
Er2 Fe13 3.248443 1_444
Er2 Fe0 3.252788 1_455
Er2 Fe0 3.252788 1_555
Er2 Fe1 3.252788 1_445
Er2 Fe1 3.252788 1_545
Fe0 Ge0 2.497520 1_555
Fe0 Ge1 2.497526 1_544
Fe0 Ge2 2.516317 1_555
Fe0 Ge3 2.516323 1_554
Fe0 Fe16 2.547381 1_554
Fe0 Fe17 2.547381 1_555
Fe0 Fe10 2.547381 1_555
Fe0 Fe11 2.547381 1_554
Fe0 Ge12 2.670842 1_555
Fe0 Ge12 2.670842 1_655
Fe1 Ge1 2.497520 1_554
Fe1 Ge0 2.497526 1_565
Fe1 Ge3 2.516317 1_554
Fe1 Ge2 2.516323 1_555
Fe1 Fe13 2.547381 1_554
Fe1 Fe12 2.547381 1_555
Fe1 Fe15 2.547381 1_555
Fe1 Fe14 2.547381 1_554
Fe1 Ge13 2.670842 1_655
Fe1 Ge13 2.670842 1_555
Fe2 Ge9 2.503854 1_455
Fe2 Ge8 2.503854 1_555
Fe2 Ge10 2.515315 1_555
Fe2 Ge11 2.515315 1_455
Fe2 Fe9 2.548983 1_555
Fe2 Fe6 2.548983 1_455
Fe2 Fe5 2.552408 1_455
Fe2 Fe5 2.552408 1_555
Fe2 Ge17 2.668249 1_555
Fe2 Ge14 2.668249 1_455
Fe3 Ge8 2.503854 1_555
Fe3 Ge9 2.503854 1_445
Fe3 Ge11 2.515308 1_455
Fe3 Ge10 2.515308 1_545
Fe3 Fe7 2.548983 1_545
Fe3 Fe8 2.548983 1_455
Fe3 Fe4 2.552408 1_555
Fe3 Fe4 2.552408 1_455
Fe3 Ge15 2.668249 1_555
Fe3 Ge16 2.668249 1_445
Fe4 Ge8 2.503854 1_555
Fe4 Ge9 2.503854 1_545
Fe4 Ge11 2.515306 1_555
Fe4 Ge10 2.515306 1_545
Fe4 Fe8 2.548980 1_555
Fe4 Fe7 2.548980 1_545
Fe4 Ge15 2.668249 1_555
Fe4 Ge16 2.668249 1_545
Fe5 Ge9 2.503854 1_555
Fe5 Ge8 2.503854 1_555
Fe5 Ge10 2.515312 1_555
Fe5 Ge11 2.515312 1_555
Fe5 Fe6 2.548980 1_555
Fe5 Fe9 2.548980 1_555
Fe5 Ge17 2.668249 1_555
Fe5 Ge14 2.668249 1_555
Fe6 Ge11 2.476444 1_555
Fe6 Ge5 2.503144 1_555
Fe6 Ge7 2.503852 1_555
Fe6 Ge9 2.522121 1_555
Fe6 Ge17 2.665412 1_555
Fe6 Ge17 2.665416 1_655
Fe7 Ge10 2.476437 1_555
Fe7 Ge4 2.503144 1_565
Fe7 Ge6 2.503852 1_555
Fe7 Ge8 2.522121 1_565
Fe7 Ge16 2.665412 1_555
Fe7 Ge16 2.665416 1_455
Fe8 Ge11 2.476437 1_555
Fe8 Ge5 2.503144 1_545
Fe8 Ge7 2.503852 1_555
Fe8 Ge9 2.522121 1_545
Fe8 Ge15 2.665412 1_555
Fe8 Ge15 2.665416 1_655
Fe9 Ge10 2.476444 1_555
Fe9 Ge4 2.503144 1_555
Fe9 Ge6 2.503852 1_555
Fe9 Ge8 2.522121 1_555
Fe9 Ge14 2.665412 1_555
Fe9 Ge14 2.665416 1_455
Fe10 Ge0 2.496508 1_555
Fe10 Ge4 2.505508 1_655
Fe10 Ge6 2.511371 1_655
Fe10 Ge2 2.514428 1_555
Fe10 Fe17 2.550540 1_655
Fe10 Fe9 2.552615 1_655
Fe10 Fe17 2.554277 1_555
Fe10 Ge12 2.664985 1_655
Fe10 Ge14 2.671787 1_555
Fe11 Ge1 2.496514 1_545
Fe11 Ge5 2.505508 1_445
Fe11 Ge7 2.511371 1_455
Fe11 Ge3 2.514435 1_555
Fe11 Fe16 2.550540 1_455
Fe11 Fe8 2.552615 1_455
Fe11 Fe16 2.554277 1_555
Fe11 Ge12 2.664985 1_556
Fe11 Ge15 2.671787 1_555
Fe12 Ge0 2.496517 1_565
Fe12 Ge4 2.505508 1_565
Fe12 Ge6 2.511371 1_555
Fe12 Ge2 2.514432 1_555
Fe12 Fe15 2.550540 1_455
Fe12 Fe7 2.552613 1_555
Fe12 Fe15 2.554277 1_555
Fe12 Ge13 2.664985 1_555
Fe12 Ge16 2.671787 1_555
Fe13 Ge1 2.496510 1_555
Fe13 Ge5 2.505508 1_555
Fe13 Ge7 2.511371 1_555
Fe13 Ge3 2.514425 1_555
Fe13 Fe14 2.550540 1_655
Fe13 Fe6 2.552613 1_555
Fe13 Fe14 2.554277 1_555
Fe13 Ge13 2.664985 1_656
Fe13 Ge17 2.671787 1_555
Fe14 Ge1 2.496508 1_555
Fe14 Ge5 2.505508 1_455
Fe14 Ge7 2.511371 1_455
Fe14 Ge3 2.514428 1_555
Fe14 Fe6 2.552615 1_455
Fe14 Ge13 2.664985 1_556
Fe14 Ge17 2.671787 1_555
Fe15 Ge0 2.496514 1_565
Fe15 Ge4 2.505508 1_665
Fe15 Ge6 2.511371 1_655
Fe15 Ge2 2.514435 1_555
Fe15 Fe7 2.552615 1_655
Fe15 Ge13 2.664985 1_655
Fe15 Ge16 2.671787 1_555
Fe16 Ge1 2.496517 1_545
Fe16 Ge5 2.505508 1_545
Fe16 Ge7 2.511371 1_555
Fe16 Ge3 2.514432 1_555
Fe16 Fe8 2.552613 1_555
Fe16 Ge12 2.664985 1_656
Fe16 Ge15 2.671787 1_555
Fe17 Ge0 2.496510 1_555
Fe17 Ge4 2.505508 1_555
Fe17 Ge6 2.511371 1_555
Fe17 Ge2 2.514425 1_555
Fe17 Fe9 2.552613 1_555
Fe17 Ge12 2.664985 1_555
Fe17 Ge14 2.671787 1_555
Ge0 Ge1 2.947394 1_544
Ge0 Ge4 2.957561 1_655
Ge0 Ge4 2.957565 1_555
Ge1 Ge5 2.957561 1_455
Ge1 Ge5 2.957565 1_555
Ge2 Ge6 2.937231 1_555
Ge2 Ge6 2.937235 1_655
Ge2 Ge3 2.947447 1_554
Ge3 Ge7 2.937231 1_555
Ge3 Ge7 2.937235 1_455
Ge4 Ge8 2.927317 1_555
Ge5 Ge9 2.927317 1_555
Ge10 Ge6 2.929396 1_555
Ge10 Ge9 2.956264 1_555
Ge10 Ge9 2.956268 1_455
Ge10 Ge16 3.186149 1_555
Ge10 Ge14 3.186152 1_555
Ge10 Ge16 3.186153 1_455
Ge10 Ge14 3.186156 1_455
Ge11 Ge7 2.929396 1_555
Ge11 Ge8 2.956264 1_555
Ge11 Ge8 2.956268 1_655
Ge11 Ge15 3.186149 1_555
Ge11 Ge17 3.186152 1_555
Ge11 Ge15 3.186153 1_655
Ge11 Ge17 3.186156 1_655
Ge12 Ge13 2.506187 1_555
Ge12 Ge6 3.184125 1_555
Ge12 Ge7 3.184125 1_454
Ge12 Ge2 3.202635 1_555
Ge12 Ge3 3.202638 1_454
Ge12 Ge2 3.202639 1_455
Ge12 Ge3 3.202642 1_554
Ge13 Ge6 3.184125 1_555
Ge13 Ge7 3.184125 1_454
Ge13 Ge3 3.202635 1_454
Ge13 Ge2 3.202638 1_555
Ge13 Ge3 3.202639 1_554
Ge13 Ge2 3.202642 1_455
Ge14 Ge16 2.491716 1_555
Ge14 Ge9 3.188817 1_555
Ge14 Ge2 3.192192 1_555
Ge14 Ge6 3.205290 1_655
Ge14 Ge6 3.205291 1_555
Ge15 Ge17 2.491716 1_555
Ge15 Ge8 3.188817 1_555
Ge15 Ge3 3.192195 1_555
Ge15 Ge7 3.205290 1_455
Ge15 Ge7 3.205291 1_555
Ge16 Ge9 3.188817 1_555
Ge16 Ge2 3.192195 1_555
Ge16 Ge6 3.205290 1_655
Ge16 Ge6 3.205291 1_555
Ge17 Ge8 3.188817 1_555
Ge17 Ge3 3.192192 1_555
Ge17 Ge7 3.205290 1_455
Ge17 Ge7 3.205291 1_555
