# generated using pymatgen
data_WN2
_symmetry_space_group_name_H-M   'P 1'
_cell_length_a   5.01837100
_cell_length_b   5.01837100
_cell_length_c   5.01837100
_cell_angle_alpha   90.00000000
_cell_angle_beta   90.00000000
_cell_angle_gamma   90.00000000
_symmetry_Int_Tables_number   1
_chemical_formula_structural   WN2
_chemical_formula_sum   'W4 N8'
_cell_volume   126.38289360
_cell_formula_units_Z   4
loop_
 _symmetry_equiv_pos_site_id
 _symmetry_equiv_pos_as_xyz
  1  'x, y, z'
loop_
 _atom_site_type_symbol
 _atom_site_label
 _atom_site_symmetry_multiplicity
 _atom_site_fract_x
 _atom_site_fract_y
 _atom_site_fract_z
 _atom_site_occupancy
  W  W0  1  0.50000000  0.50000000  0.00000000  1
  W  W1  1  0.50000000  0.00000000  0.50000000  1
  W  W2  1  0.00000000  0.50000000  0.50000000  1
  W  W3  1  0.00000000  0.00000000  0.00000000  1
  N  N0  1  0.14945200  0.85054800  0.35054800  1
  N  N1  1  0.85054800  0.35054800  0.14945200  1
  N  N2  1  0.35054800  0.14945200  0.85054800  1
  N  N3  1  0.64945200  0.64945200  0.64945200  1
  N  N4  1  0.85054800  0.14945200  0.64945200  1
  N  N5  1  0.14945200  0.64945200  0.85054800  1
  N  N6  1  0.64945200  0.85054800  0.14945200  1
  N  N7  1  0.35054800  0.35054800  0.35054800  1
loop_
_geom_bond_atom_site_label_1
_geom_bond_atom_site_label_2
_geom_bond_distance
_geom_bond_site_symmetry_2
N0 W3 2.054198 1_565
N0 W1 2.054198 1_565
N0 W2 2.054198 1_555
N0 N4 2.598096 1_465
N0 N7 2.704523 1_565
N0 N6 2.704523 1_555
N0 N5 2.704523 1_554
N0 N7 2.704523 1_555
N0 N6 2.704523 1_455
N0 N5 2.704523 1_555
N1 W3 2.054198 1_655
N1 W0 2.054198 1_555
N1 W2 2.054198 1_655
N1 N5 2.598096 1_654
N1 N4 2.704523 1_555
N1 N7 2.704523 1_655
N1 N6 2.704523 1_545
N1 N7 2.704523 1_555
N1 N4 2.704523 1_554
N1 N6 2.704523 1_555
N2 W3 2.054198 1_556
N2 W1 2.054198 1_555
N2 W0 2.054198 1_556
N2 N6 2.598096 1_546
N2 N5 2.704523 1_555
N2 N7 2.704523 1_556
N2 N4 2.704523 1_455
N2 N7 2.704523 1_555
N2 N5 2.704523 1_545
N2 N4 2.704523 1_555
N3 W1 2.054198 1_565
N3 W0 2.054198 1_556
N3 W2 2.054198 1_655
N3 N7 2.598096 1_555
N3 N6 2.704523 1_555
N3 N4 2.704523 1_555
N3 N5 2.704523 1_555
N3 N5 2.704523 1_655
N3 N4 2.704523 1_565
N3 N6 2.704523 1_556
N4 W2 2.054198 1_655
N4 W1 2.054198 1_555
N4 W3 2.054198 1_656
N5 W2 2.054198 1_555
N5 W0 2.054198 1_556
N5 W3 2.054198 1_566
N6 W0 2.054198 1_555
N6 W1 2.054198 1_565
N6 W3 2.054198 1_665
N7 W1 2.054198 1_555
N7 W2 2.054198 1_555
N7 W0 2.054198 1_555
