# generated using pymatgen
data_LiF3
_symmetry_space_group_name_H-M   'P 1'
_cell_length_a   4.41830716
_cell_length_b   4.41830716
_cell_length_c   4.65302100
_cell_angle_alpha   90.00000000
_cell_angle_beta   90.00000000
_cell_angle_gamma   119.99998742
_symmetry_Int_Tables_number   1
_chemical_formula_structural   LiF3
_chemical_formula_sum   'Li2 F6'
_cell_volume   78.66426853
_cell_formula_units_Z   2
loop_
 _symmetry_equiv_pos_site_id
 _symmetry_equiv_pos_as_xyz
  1  'x, y, z'
loop_
 _atom_site_type_symbol
 _atom_site_label
 _atom_site_symmetry_multiplicity
 _atom_site_fract_x
 _atom_site_fract_y
 _atom_site_fract_z
 _atom_site_occupancy
  Li  Li0  1  0.66666700  0.33333300  0.25000000  1
  Li  Li1  1  0.33333300  0.66666700  0.75000000  1
  F  F0  1  0.83123400  0.16876600  0.75000000  1
  F  F1  1  0.33753200  0.16876600  0.75000000  1
  F  F2  1  0.83123400  0.66246800  0.75000000  1
  F  F3  1  0.16876600  0.83123400  0.25000000  1
  F  F4  1  0.66246800  0.83123400  0.25000000  1
  F  F5  1  0.16876600  0.33753200  0.25000000  1
loop_
_geom_bond_atom_site_label_1
_geom_bond_atom_site_label_2
_geom_bond_distance
_geom_bond_site_symmetry_2
F0 F1 2.181327 1_555
F0 F2 2.181327 1_555
F0 Li1 2.209212 1_545
F0 Li1 2.209212 1_655
F0 F2 2.236980 1_545
F0 F1 2.236980 1_655
F0 Li0 2.645507 1_556
F0 Li0 2.645507 1_555
F0 F4 2.660954 1_545
F0 F4 2.660954 1_546
F0 F5 2.660954 1_655
F0 F5 2.660954 1_656
F1 F2 2.181327 1_555
F1 Li1 2.209210 1_545
F1 Li1 2.209214 1_555
F1 F2 2.236981 1_445
F1 Li0 2.645509 1_555
F1 Li0 2.645509 1_556
F1 F5 2.660954 1_556
F1 F5 2.660954 1_555
F1 F3 2.660954 1_545
F1 F3 2.660954 1_546
F2 Li1 2.209210 1_655
F2 Li1 2.209214 1_555
F2 Li0 2.645509 1_555
F2 Li0 2.645509 1_556
F2 F4 2.660954 1_555
F2 F4 2.660954 1_556
F2 F3 2.660954 1_655
F2 F3 2.660954 1_656
F3 F5 2.181327 1_555
F3 F4 2.181327 1_555
F3 Li0 2.209212 1_455
F3 Li0 2.209212 1_565
F3 F4 2.236980 1_455
F3 F5 2.236980 1_565
F3 Li1 2.645507 1_554
F3 Li1 2.645507 1_555
F4 F5 2.181327 1_555
F4 Li0 2.209210 1_565
F4 Li0 2.209214 1_555
F4 F5 2.236981 1_665
F4 Li1 2.645509 1_554
F4 Li1 2.645509 1_555
F5 Li0 2.209210 1_455
F5 Li0 2.209214 1_555
F5 Li1 2.645509 1_554
F5 Li1 2.645509 1_555
