# generated using pymatgen
data_CeIn2Ru
_symmetry_space_group_name_H-M   'P 1'
_cell_length_a   4.78068747
_cell_length_b   5.47015013
_cell_length_c   7.64301954
_cell_angle_alpha   89.99994000
_cell_angle_beta   89.99997834
_cell_angle_gamma   115.99060552
_symmetry_Int_Tables_number   1
_chemical_formula_structural   CeIn2Ru
_chemical_formula_sum   'Ce2 In4 Ru2'
_cell_volume   179.65920731
_cell_formula_units_Z   2
loop_
 _symmetry_equiv_pos_site_id
 _symmetry_equiv_pos_as_xyz
  1  'x, y, z'
loop_
 _atom_site_type_symbol
 _atom_site_label
 _atom_site_symmetry_multiplicity
 _atom_site_fract_x
 _atom_site_fract_y
 _atom_site_fract_z
 _atom_site_occupancy
  Ce  Ce0  1  0.44247655  0.88506713  0.25000039  1
  Ce  Ce1  1  0.55758790  0.11503526  0.74999968  1
  In  In0  1  0.14926278  0.29812010  0.04504530  1
  In  In1  1  0.85089350  0.70220784  0.95495176  1
  In  In2  1  0.85089364  0.70220824  0.54504830  1
  In  In3  1  0.14926260  0.29811970  0.45495497  1
  Ru  Ru0  1  0.66950878  0.33764482  0.25000056  1
  Ru  Ru1  1  0.33011325  0.66159791  0.74999903  1
loop_
_geom_bond_atom_site_label_1
_geom_bond_atom_site_label_2
_geom_bond_distance
_geom_bond_site_symmetry_2
Ce0 Ru0 2.225294 1_565
Ce0 In3 3.283707 1_555
Ce0 In0 3.283711 1_555
Ce0 In2 3.406606 1_455
Ce0 In1 3.406612 1_454
Ce0 In2 3.407324 1_555
Ce0 In1 3.407329 1_554
Ce0 In0 3.504975 1_665
Ce0 In3 3.504975 1_665
Ce0 In3 3.507114 1_565
Ce0 In0 3.507116 1_565
Ce1 Ru1 2.229520 1_545
Ce1 In2 3.284670 1_555
Ce1 In1 3.284675 1_555
Ce1 In3 3.406811 1_655
Ce1 In0 3.406819 1_656
Ce1 In3 3.407672 1_555
Ce1 In0 3.407677 1_556
Ce1 In2 3.504391 1_445
Ce1 In1 3.504391 1_445
Ce1 In2 3.506392 1_545
Ce1 In1 3.506394 1_545
In0 Ru0 2.862795 1_455
In0 Ru0 2.866206 1_555
In0 Ru1 2.877382 1_554
In0 In1 3.009886 1_444
In0 In3 3.132948 1_555
In0 In1 3.180091 1_554
In0 In1 3.187188 1_454
In1 Ru1 2.863191 1_655
In1 Ru1 2.866523 1_555
In1 Ru0 2.880715 1_556
In1 In2 3.132900 1_555
In2 Ru1 2.863184 1_655
In2 Ru1 2.866513 1_555
In2 Ru0 2.880713 1_555
In2 In3 3.009880 1_665
In2 In3 3.180095 1_555
In2 In3 3.187191 1_655
In3 Ru0 2.862793 1_455
In3 Ru0 2.866201 1_555
In3 Ru1 2.877374 1_555
