# generated using pymatgen
data_Cu3B6H2O13
_symmetry_space_group_name_H-M   'P 1'
_cell_length_a   11.67068517
_cell_length_b   8.82043488
_cell_length_c   8.63686666
_cell_angle_alpha   83.89997907
_cell_angle_beta   48.72027796
_cell_angle_gamma   47.37974297
_symmetry_Int_Tables_number   1
_chemical_formula_structural   Cu3B6H2O13
_chemical_formula_sum   'Cu6 B12 H4 O26'
_cell_volume   387.42669705
_cell_formula_units_Z   2
loop_
 _symmetry_equiv_pos_site_id
 _symmetry_equiv_pos_as_xyz
  1  'x, y, z'
loop_
 _atom_site_type_symbol
 _atom_site_label
 _atom_site_symmetry_multiplicity
 _atom_site_fract_x
 _atom_site_fract_y
 _atom_site_fract_z
 _atom_site_occupancy
  Cu  Cu0  1  0.98916200  0.51083800  0.51083800  1
  Cu  Cu1  1  0.73916200  0.26083800  0.26083800  1
  Cu  Cu2  1  0.45994000  0.38191400  0.86186600  1
  Cu  Cu3  1  0.29628000  0.86186600  0.38191400  1
  Cu  Cu4  1  0.38813400  0.95372000  0.79006000  1
  Cu  Cu5  1  0.86808600  0.79006000  0.95372000  1
  B  B0  1  0.99515300  0.84061400  0.54018400  1
  B  B1  1  0.62405000  0.54018400  0.84061400  1
  B  B2  1  0.70981600  0.62595000  0.25484700  1
  B  B3  1  0.40938600  0.25484700  0.62595000  1
  B  B4  1  0.87897400  0.87503000  0.36580100  1
  B  B5  1  0.88019500  0.36580100  0.87503000  1
  B  B6  1  0.88419900  0.36980500  0.37102600  1
  B  B7  1  0.37497000  0.37102600  0.36980500  1
  B  B8  1  0.34576900  0.11360700  0.48728500  1
  B  B9  1  0.05333900  0.48728500  0.11360700  1
  B  B10  1  0.76271500  0.19666100  0.90423100  1
  B  B11  1  0.13639300  0.90423100  0.19666100  1
  H  H0  1  0.33172900  0.75457500  0.71309900  1
  H  H1  1  0.20059700  0.71309900  0.75457500  1
  H  H2  1  0.53690100  0.04940300  0.91827100  1
  H  H3  1  0.49542500  0.91827100  0.04940300  1
  O  O0  1  0.16808700  0.56277800  0.41581400  1
  O  O1  1  0.85332200  0.41581400  0.56277800  1
  O  O2  1  0.83418600  0.39667800  0.08191300  1
  O  O3  1  0.68722200  0.08191300  0.39667800  1
  O  O4  1  0.13593700  0.86634300  0.36837800  1
  O  O5  1  0.62934200  0.36837800  0.86634300  1
  O  O6  1  0.88162200  0.62065800  0.11406300  1
  O  O7  1  0.38365700  0.11406300  0.62065800  1
  O  O8  1  0.88093800  0.95371000  0.78395000  1
  O  O9  1  0.38140200  0.78395000  0.95371000  1
  O  O10  1  0.46605000  0.86859800  0.36906200  1
  O  O11  1  0.29629000  0.36906200  0.86859800  1
  O  O12  1  0.78388400  0.98979300  0.59625500  1
  O  O13  1  0.63006700  0.59625500  0.98979300  1
  O  O14  1  0.65374500  0.61993300  0.46611600  1
  O  O15  1  0.26020700  0.46611600  0.61993300  1
  O  O16  1  0.36120100  0.63879900  0.63879900  1
  O  O17  1  0.61120100  0.88879900  0.88879900  1
  O  O18  1  0.06674500  0.33677900  0.66535900  1
  O  O19  1  0.93111600  0.66535900  0.33677900  1
  O  O20  1  0.58464100  0.31888400  0.18325500  1
  O  O21  1  0.91322100  0.18325500  0.31888400  1
  O  O22  1  0.48054700  0.12803500  0.27713300  1
  O  O23  1  0.11428500  0.27713300  0.12803500  1
  O  O24  1  0.97286700  0.13571500  0.76945300  1
  O  O25  1  0.12196500  0.76945300  0.13571500  1
loop_
_geom_bond_atom_site_label_1
_geom_bond_atom_site_label_2
_geom_bond_distance
_geom_bond_site_symmetry_2
Cu0 O1 2.048969 1_555
Cu0 O0 2.048979 1_655
Cu0 O18 2.057763 1_655
Cu0 O19 2.057767 1_555
Cu0 O17 2.150770 1_555
Cu1 O2 2.048971 1_555
Cu1 O3 2.048977 1_555
Cu1 O20 2.057760 1_555
Cu1 O21 2.057771 1_555
Cu1 O16 2.150770 1_555
Cu2 O5 1.924746 1_555
Cu2 O11 1.951733 1_555
Cu2 O25 1.996463 1_556
Cu2 O12 2.013059 1_545
Cu2 H2 2.520332 1_555
Cu3 O4 1.924746 1_555
Cu3 O10 1.951733 1_555
Cu3 O24 1.996463 1_465
Cu3 O13 2.013058 1_554
Cu3 H3 2.520332 1_555
Cu4 O7 1.924746 1_565
Cu4 O9 1.951733 1_555
Cu4 O23 1.996463 1_566
Cu4 O14 2.013054 1_555
Cu4 H0 2.520332 1_555
Cu5 O6 1.924746 1_556
Cu5 O8 1.951733 1_555
Cu5 O22 1.996463 1_566
Cu5 O15 2.013058 1_655
Cu5 H1 2.520332 1_655
B0 O8 1.465310 1_555
B0 O4 1.472893 1_655
B0 O12 1.487115 1_555
B0 O0 1.494482 1_655
B1 O9 1.465316 1_555
B1 O5 1.472899 1_555
B1 O13 1.487095 1_555
B1 O1 1.494482 1_555
B2 O10 1.465312 1_555
B2 O6 1.472900 1_555
B2 O14 1.487111 1_555
B2 O2 1.494482 1_555
B3 O11 1.465318 1_555
B3 O7 1.472891 1_555
B3 O15 1.487103 1_555
B3 O3 1.494482 1_555
B4 O3 1.481439 1_565
B4 O12 1.486689 1_555
B4 O19 1.492154 1_555
B4 O25 1.496456 1_655
B5 O2 1.481432 1_556
B5 O13 1.486696 1_555
B5 O18 1.492147 1_655
B5 O24 1.496456 1_555
B6 O1 1.481441 1_555
B6 O14 1.486692 1_555
B6 O21 1.492145 1_555
B6 O23 1.496456 1_655
B7 O0 1.481433 1_555
B7 O15 1.486697 1_555
B7 O20 1.492153 1_555
B7 O22 1.496456 1_555
B8 O10 1.467229 1_545
B8 O7 1.482547 1_555
B8 O18 1.482724 1_555
B8 O22 1.496568 1_555
B9 O11 1.467229 1_554
B9 O6 1.482547 1_455
B9 O19 1.482717 1_455
B9 O23 1.496568 1_555
B10 O8 1.467229 1_545
B10 O5 1.482547 1_555
B10 O20 1.482723 1_556
B10 O24 1.496568 1_555
B11 O9 1.467229 1_554
B11 O4 1.482547 1_555
B11 O21 1.482722 1_465
B11 O25 1.496568 1_555
H0 O16 0.972264 1_555
H0 O14 2.000160 1_555
H1 O16 0.972264 1_555
H1 O15 2.000151 1_555
H2 O17 0.972264 1_545
H2 O12 2.000155 1_545
H3 O17 0.972264 1_554
H3 O13 2.000159 1_554
