# generated using pymatgen
data_RbGd2CuS4
_symmetry_space_group_name_H-M   'P 1'
_cell_length_a   7.24108826
_cell_length_b   7.24108826
_cell_length_c   13.86110600
_cell_angle_alpha   90.00000000
_cell_angle_beta   90.00000000
_cell_angle_gamma   147.74773149
_symmetry_Int_Tables_number   1
_chemical_formula_structural   RbGd2CuS4
_chemical_formula_sum   'Rb2 Gd4 Cu2 S8'
_cell_volume   387.84701533
_cell_formula_units_Z   2
loop_
 _symmetry_equiv_pos_site_id
 _symmetry_equiv_pos_as_xyz
  1  'x, y, z'
loop_
 _atom_site_type_symbol
 _atom_site_label
 _atom_site_symmetry_multiplicity
 _atom_site_fract_x
 _atom_site_fract_y
 _atom_site_fract_z
 _atom_site_occupancy
  Rb  Rb0  1  0.10663300  0.89336700  0.25000000  1
  Rb  Rb1  1  0.89336700  0.10663300  0.75000000  1
  Gd  Gd0  1  0.36595100  0.63404900  0.43873600  1
  Gd  Gd1  1  0.63404900  0.36595100  0.56126400  1
  Gd  Gd2  1  0.36595100  0.63404900  0.06126400  1
  Gd  Gd3  1  0.63404900  0.36595100  0.93873600  1
  Cu  Cu0  1  0.16554600  0.83445400  0.75000000  1
  Cu  Cu1  1  0.83445400  0.16554600  0.25000000  1
  S  S0  1  0.00000000  0.00000000  0.50000000  1
  S  S1  1  0.00000000  0.00000000  0.00000000  1
  S  S2  1  0.74077800  0.25922200  0.10962100  1
  S  S3  1  0.25922200  0.74077800  0.89037900  1
  S  S4  1  0.57660300  0.42339700  0.75000000  1
  S  S5  1  0.74077800  0.25922200  0.39037900  1
  S  S6  1  0.42339700  0.57660300  0.25000000  1
  S  S7  1  0.25922200  0.74077800  0.60962100  1
loop_
_geom_bond_atom_site_label_1
_geom_bond_atom_site_label_2
_geom_bond_distance
_geom_bond_site_symmetry_2
Rb0 S6 3.247105 1_455
Rb0 S6 3.247105 1_565
Rb0 S5 3.363658 1_455
Rb0 S2 3.363658 1_455
Rb0 S5 3.363658 1_565
Rb0 S2 3.363658 1_565
Rb0 S0 3.769477 1_565
Rb0 S1 3.769477 1_565
Rb1 S4 3.247105 1_545
Rb1 S4 3.247105 1_655
Rb1 S3 3.363658 1_545
Rb1 S3 3.363658 1_655
Rb1 S7 3.363658 1_545
Rb1 S7 3.363658 1_655
Rb1 S0 3.769477 1_655
Rb1 S1 3.769477 1_656
Gd0 S6 2.735445 1_555
Gd0 S5 2.743534 1_455
Gd0 S5 2.743534 1_565
Gd0 S7 2.795587 1_555
Gd0 S0 2.871265 1_555
Gd0 S0 2.871265 1_665
Gd1 S4 2.735445 1_555
Gd1 S7 2.743534 1_545
Gd1 S7 2.743534 1_655
Gd1 S5 2.795587 1_555
Gd1 S0 2.871265 1_555
Gd1 S0 2.871265 1_665
Gd2 S6 2.735445 1_555
Gd2 S2 2.743534 1_565
Gd2 S2 2.743534 1_455
Gd2 S3 2.795587 1_554
Gd2 S1 2.871265 1_555
Gd2 S1 2.871265 1_665
Gd3 S4 2.735445 1_555
Gd3 S3 2.743534 1_545
Gd3 S3 2.743534 1_655
Gd3 S2 2.795587 1_556
Gd3 S1 2.871265 1_556
Gd3 S1 2.871265 1_666
Cu0 S3 2.341930 1_555
Cu0 S7 2.341930 1_555
Cu0 S4 2.361404 1_455
Cu0 S4 2.361404 1_565
Cu1 S5 2.341930 1_555
Cu1 S2 2.341930 1_555
Cu1 S6 2.361404 1_655
Cu1 S6 2.361404 1_545
