# generated using pymatgen
data_ThIr2
_symmetry_space_group_name_H-M   'P 1'
_cell_length_a   5.43531383
_cell_length_b   5.43531360
_cell_length_c   5.43531431
_cell_angle_alpha   59.99999575
_cell_angle_beta   59.99999715
_cell_angle_gamma   60.00000025
_symmetry_Int_Tables_number   1
_chemical_formula_structural   ThIr2
_chemical_formula_sum   'Th2 Ir4'
_cell_volume   113.54261039
_cell_formula_units_Z   2
loop_
 _symmetry_equiv_pos_site_id
 _symmetry_equiv_pos_as_xyz
  1  'x, y, z'
loop_
 _atom_site_type_symbol
 _atom_site_label
 _atom_site_symmetry_multiplicity
 _atom_site_fract_x
 _atom_site_fract_y
 _atom_site_fract_z
 _atom_site_occupancy
  Th  Th0  1  0.87500000  0.87500000  0.87500000  1
  Th  Th1  1  0.12500000  0.12500000  0.12500000  1
  Ir  Ir0  1  0.50000000  0.00000000  0.50000000  1
  Ir  Ir1  1  0.00000000  0.50000000  0.50000000  1
  Ir  Ir2  1  0.50000000  0.50000000  0.50000000  1
  Ir  Ir3  1  0.50000000  0.50000000  0.00000000  1
loop_
_geom_bond_atom_site_label_1
_geom_bond_atom_site_label_2
_geom_bond_distance
_geom_bond_site_symmetry_2
Th0 Th1 3.328436 1_656
Th0 Th1 3.328436 1_566
Th0 Th1 3.328436 1_666
Th0 Th1 3.328436 1_665
Ir0 Ir2 2.717657 1_555
Ir0 Ir2 2.717657 1_545
Ir0 Ir3 2.717657 1_555
Ir0 Ir3 2.717657 1_546
Ir0 Ir1 2.717657 1_555
Ir0 Ir1 2.717657 1_645
Ir0 Th1 3.186735 1_655
Ir0 Th0 3.186735 1_445
Ir0 Th1 3.186735 1_555
Ir0 Th0 3.186735 1_545
Ir0 Th0 3.186735 1_544
Ir0 Th1 3.186735 1_556
Ir1 Ir2 2.717657 1_455
Ir1 Ir2 2.717657 1_555
Ir1 Ir3 2.717657 1_555
Ir1 Ir3 2.717657 1_456
Ir1 Th0 3.186735 1_445
Ir1 Th1 3.186735 1_565
Ir1 Th0 3.186735 1_455
Ir1 Th1 3.186735 1_555
Ir1 Th1 3.186735 1_556
Ir1 Th0 3.186735 1_454
Ir2 Ir3 2.717657 1_556
Ir2 Ir3 2.717657 1_555
Ir2 Th0 3.186735 1_554
Ir2 Th1 3.186735 1_556
Ir2 Th0 3.186735 1_545
Ir2 Th1 3.186735 1_565
Ir2 Th0 3.186735 1_455
Ir2 Th1 3.186735 1_655
Ir3 Th0 3.186735 1_554
Ir3 Th1 3.186735 1_555
Ir3 Th0 3.186735 1_544
Ir3 Th1 3.186735 1_565
Ir3 Th0 3.186735 1_454
Ir3 Th1 3.186735 1_655
