# generated using pymatgen
data_BiP3NO10
_symmetry_space_group_name_H-M   'P 1'
_cell_length_a   7.01512400
_cell_length_b   8.81085289
_cell_length_c   9.34291294
_cell_angle_alpha   105.14077356
_cell_angle_beta   95.42175844
_cell_angle_gamma   112.61409841
_symmetry_Int_Tables_number   1
_chemical_formula_structural   BiP3NO10
_chemical_formula_sum   'Bi2 P6 N2 O20'
_cell_volume   502.11207429
_cell_formula_units_Z   2
loop_
 _symmetry_equiv_pos_site_id
 _symmetry_equiv_pos_as_xyz
  1  'x, y, z'
loop_
 _atom_site_type_symbol
 _atom_site_label
 _atom_site_symmetry_multiplicity
 _atom_site_fract_x
 _atom_site_fract_y
 _atom_site_fract_z
 _atom_site_occupancy
  Bi  Bi0  1  0.23062800  0.04613500  0.29526300  1
  Bi  Bi1  1  0.76937200  0.95386500  0.70473700  1
  P  P0  1  0.25581500  0.91730600  0.65962100  1
  P  P1  1  0.74418500  0.08269400  0.34037900  1
  P  P2  1  0.28022700  0.13719200  0.94817700  1
  P  P3  1  0.71977300  0.86280800  0.05182300  1
  P  P4  1  0.56858000  0.27375100  0.76456300  1
  P  P5  1  0.43142000  0.72624900  0.23543700  1
  N  N0  1  0.84899500  0.52452200  0.22372600  1
  N  N1  1  0.15100500  0.47547800  0.77627400  1
  O  O0  1  0.90859900  0.46981600  0.31067700  1
  O  O1  1  0.09140100  0.53018400  0.68932300  1
  O  O2  1  0.39494400  0.82815900  0.61022600  1
  O  O3  1  0.60505600  0.17184100  0.38977400  1
  O  O4  1  0.97409400  0.15899000  0.41416800  1
  O  O5  1  0.02590600  0.84101000  0.58583200  1
  O  O6  1  0.71088600  0.03737900  0.15589200  1
  O  O7  1  0.28911400  0.96262000  0.84410800  1
  O  O8  1  0.07003000  0.13566500  0.89263000  1
  O  O9  1  0.92997000  0.86433500  0.10737000  1
  O  O10  1  0.66332700  0.84781500  0.88705300  1
  O  O11  1  0.33667300  0.15218500  0.11294700  1
  O  O12  1  0.52760700  0.71179900  0.08054000  1
  O  O13  1  0.47239300  0.28820100  0.91946000  1
  O  O14  1  0.72999600  0.19832800  0.78500700  1
  O  O15  1  0.27000400  0.80167200  0.21499300  1
  O  O16  1  0.35779500  0.11176800  0.64222600  1
  O  O17  1  0.64220500  0.88823200  0.35777400  1
  O  O18  1  0.62793500  0.43453400  0.72704000  1
  O  O19  1  0.37206500  0.56546600  0.27296000  1
loop_
_geom_bond_atom_site_label_1
_geom_bond_atom_site_label_2
_geom_bond_distance
_geom_bond_site_symmetry_2
Bi0 O11 2.205507 1_555
Bi0 O15 2.220589 1_545
Bi0 O9 2.308510 1_445
Bi0 O3 2.391496 1_555
Bi0 O4 2.576512 1_455
Bi1 O10 2.205507 1_555
Bi1 O14 2.220589 1_565
Bi1 O8 2.308510 1_665
Bi1 O2 2.391496 1_555
Bi1 O5 2.576512 1_655
N0 O0 1.167249 1_555
N1 O1 1.167249 1_555
O2 P0 1.505934 1_555
O3 P1 1.505934 1_555
O4 P1 1.497470 1_555
O5 P0 1.497470 1_555
O6 P3 1.618346 1_545
O6 P1 1.636344 1_555
O7 P2 1.618353 1_565
O7 P0 1.636345 1_555
O8 P2 1.510072 1_555
O9 P3 1.510072 1_555
O10 P3 1.510776 1_556
O11 P2 1.510776 1_554
O12 P3 1.592168 1_555
O12 P5 1.649310 1_555
O13 P2 1.592168 1_555
O13 P4 1.649310 1_555
O14 P4 1.537680 1_555
O15 P5 1.537680 1_555
O16 P0 1.642755 1_545
O16 P4 1.653880 1_555
O17 P1 1.642755 1_565
O17 P5 1.653880 1_555
O18 P4 1.461684 1_555
O19 P5 1.461684 1_555
