# generated using pymatgen
data_SmYFe17
_symmetry_space_group_name_H-M   'P 1'
_cell_length_a   6.42590930
_cell_length_b   6.42590957
_cell_length_c   6.42590930
_cell_angle_alpha   83.03209730
_cell_angle_beta   83.03209214
_cell_angle_gamma   83.03209730
_symmetry_Int_Tables_number   1
_chemical_formula_structural   SmYFe17
_chemical_formula_sum   'Sm1 Y1 Fe17'
_cell_volume   259.90112826
_cell_formula_units_Z   1
loop_
 _symmetry_equiv_pos_site_id
 _symmetry_equiv_pos_as_xyz
  1  'x, y, z'
loop_
 _atom_site_type_symbol
 _atom_site_label
 _atom_site_symmetry_multiplicity
 _atom_site_fract_x
 _atom_site_fract_y
 _atom_site_fract_z
 _atom_site_occupancy
  Sm  Sm0  1  0.65776700  0.65776700  0.65776700  1
  Y  Y0  1  0.34146400  0.34146400  0.34146400  1
  Fe  Fe0  1  0.00038100  0.49969400  0.00038100  1
  Fe  Fe1  1  0.49969400  0.00038100  0.00038100  1
  Fe  Fe2  1  0.00038100  0.00038100  0.49969400  1
  Fe  Fe3  1  0.70852700  0.00052800  0.29104600  1
  Fe  Fe4  1  0.00052800  0.29104600  0.70852700  1
  Fe  Fe5  1  0.29104600  0.70852700  0.00052800  1
  Fe  Fe6  1  0.00052800  0.70852700  0.29104600  1
  Fe  Fe7  1  0.70852700  0.29104600  0.00052800  1
  Fe  Fe8  1  0.29104600  0.00052800  0.70852700  1
  Fe  Fe9  1  0.90305400  0.90305400  0.90305400  1
  Fe  Fe10  1  0.09744000  0.09744000  0.09744000  1
  Fe  Fe11  1  0.34330200  0.84575900  0.34330200  1
  Fe  Fe12  1  0.84575900  0.34330200  0.34330200  1
  Fe  Fe13  1  0.34330200  0.34330200  0.84575900  1
  Fe  Fe14  1  0.65624500  0.15476400  0.65624500  1
  Fe  Fe15  1  0.15476400  0.65624500  0.65624500  1
  Fe  Fe16  1  0.65624500  0.65624500  0.15476400  1
loop_
_geom_bond_atom_site_label_1
_geom_bond_atom_site_label_2
_geom_bond_distance
_geom_bond_site_symmetry_2
Fe0 Fe5 2.428643 1_555
Fe0 Fe6 2.428643 1_555
Fe0 Fe7 2.433966 1_455
Fe0 Fe4 2.433966 1_554
Fe0 Fe12 2.454928 1_455
Fe0 Fe13 2.454928 1_554
Fe0 Fe15 2.460997 1_554
Fe0 Fe16 2.460997 1_455
Fe0 Fe10 2.602211 1_555
Fe0 Fe9 2.609368 1_454
Fe0 Y0 3.275006 1_555
Fe0 Sm0 3.288886 1_454
Fe1 Fe7 2.428643 1_555
Fe1 Fe3 2.428643 1_555
Fe1 Fe5 2.433966 1_545
Fe1 Fe8 2.433966 1_554
Fe1 Fe11 2.454928 1_545
Fe1 Fe13 2.454928 1_554
Fe1 Fe14 2.460997 1_554
Fe1 Fe16 2.460997 1_545
Fe1 Fe10 2.602211 1_555
Fe1 Fe9 2.609368 1_544
Fe1 Y0 3.275006 1_555
Fe1 Sm0 3.288886 1_544
Fe2 Fe4 2.428643 1_555
Fe2 Fe8 2.428643 1_555
Fe2 Fe6 2.433966 1_545
Fe2 Fe3 2.433966 1_455
Fe2 Fe9 2.609368 1_445
Fe2 Y0 3.275006 1_555
Fe2 Sm0 3.288886 1_445
Fe3 Fe7 2.474798 1_555
Fe3 Fe6 2.487431 1_645
Fe3 Fe9 2.757478 1_544
Fe3 Y0 3.033352 1_555
Fe3 Sm0 3.039620 1_545
Fe4 Fe8 2.474798 1_555
Fe4 Fe7 2.487430 1_456
Fe4 Fe9 2.757478 1_445
Fe4 Y0 3.033352 1_555
Fe4 Sm0 3.039620 1_455
Fe5 Fe6 2.474797 1_555
Fe5 Fe8 2.487431 1_564
Fe5 Fe9 2.757478 1_454
Fe5 Y0 3.033352 1_555
Fe5 Sm0 3.039620 1_554
Fe6 Fe9 2.757478 1_454
Fe6 Y0 3.033352 1_555
Fe6 Sm0 3.039620 1_455
Fe7 Fe9 2.757478 1_544
Fe7 Y0 3.033352 1_555
Fe7 Sm0 3.039620 1_554
Fe8 Fe9 2.757478 1_445
Fe8 Y0 3.033352 1_555
Fe8 Sm0 3.039620 1_545
Fe9 Sm0 3.043267 1_555
Fe10 Fe9 2.411740 1_444
Fe10 Fe2 2.602211 1_555
Fe10 Fe12 2.640720 1_455
Fe10 Fe13 2.640720 1_554
Fe10 Fe11 2.640721 1_545
Fe10 Fe3 2.759792 1_455
Fe10 Fe8 2.759792 1_554
Fe10 Fe4 2.759792 1_554
Fe10 Fe7 2.759792 1_455
Fe10 Fe5 2.759792 1_545
Fe10 Fe6 2.759792 1_545
Fe10 Y0 3.027597 1_555
Fe11 Fe2 2.454928 1_565
Fe11 Fe15 2.483427 1_555
Fe11 Fe16 2.483427 1_555
Fe11 Fe5 2.542552 1_555
Fe11 Fe6 2.542552 1_555
Fe11 Fe3 2.627523 1_565
Fe11 Fe8 2.627523 1_565
Fe11 Sm0 3.071180 1_555
Fe11 Y0 3.182538 1_565
Fe11 Y0 3.243467 1_555
Fe12 Fe2 2.454928 1_655
Fe12 Fe14 2.483427 1_555
Fe12 Fe16 2.483427 1_555
Fe12 Fe7 2.542552 1_555
Fe12 Fe3 2.542552 1_555
Fe12 Fe4 2.627523 1_655
Fe12 Fe6 2.627523 1_655
Fe12 Sm0 3.071179 1_555
Fe12 Y0 3.182538 1_655
Fe12 Y0 3.243467 1_555
Fe13 Fe14 2.483427 1_555
Fe13 Fe15 2.483427 1_555
Fe13 Fe4 2.542552 1_555
Fe13 Fe8 2.542552 1_555
Fe13 Fe7 2.627523 1_556
Fe13 Fe5 2.627523 1_556
Fe13 Sm0 3.071179 1_555
Fe13 Y0 3.182538 1_556
Fe13 Y0 3.243467 1_555
Fe14 Fe2 2.460997 1_655
Fe14 Fe7 2.548721 1_556
Fe14 Fe4 2.548721 1_655
Fe14 Fe3 2.625751 1_555
Fe14 Fe8 2.625751 1_555
Fe14 Fe9 2.648074 1_545
Fe14 Y0 3.072056 1_555
Fe14 Sm0 3.191318 1_545
Fe14 Sm0 3.234657 1_555
Fe15 Fe2 2.460997 1_565
Fe15 Fe5 2.548721 1_556
Fe15 Fe8 2.548721 1_565
Fe15 Fe6 2.625751 1_555
Fe15 Fe4 2.625751 1_555
Fe15 Fe9 2.648073 1_455
Fe15 Y0 3.072056 1_555
Fe15 Sm0 3.191317 1_455
Fe15 Sm0 3.234657 1_555
Fe16 Fe6 2.548721 1_655
Fe16 Fe3 2.548721 1_565
Fe16 Fe5 2.625751 1_555
Fe16 Fe7 2.625751 1_555
Fe16 Fe9 2.648073 1_554
Fe16 Y0 3.072056 1_555
Fe16 Sm0 3.191317 1_554
Fe16 Sm0 3.234657 1_555
