# generated using pymatgen
data_HoCrTeO6
_symmetry_space_group_name_H-M   'P 1'
_cell_length_a   5.40366461
_cell_length_b   5.40366461
_cell_length_c   8.64368600
_cell_angle_alpha   90.00000000
_cell_angle_beta   90.00000000
_cell_angle_gamma   120.00000745
_symmetry_Int_Tables_number   1
_chemical_formula_structural   HoCrTeO6
_chemical_formula_sum   'Ho2 Cr2 Te2 O12'
_cell_volume   218.57795188
_cell_formula_units_Z   2
loop_
 _symmetry_equiv_pos_site_id
 _symmetry_equiv_pos_as_xyz
  1  'x, y, z'
loop_
 _atom_site_type_symbol
 _atom_site_label
 _atom_site_symmetry_multiplicity
 _atom_site_fract_x
 _atom_site_fract_y
 _atom_site_fract_z
 _atom_site_occupancy
  Ho  Ho0  1  0.33333300  0.66666700  0.75000000  1
  Ho  Ho1  1  0.66666700  0.33333300  0.25000000  1
  Cr  Cr0  1  0.00000000  0.00000000  0.00000000  1
  Cr  Cr1  1  0.00000000  0.00000000  0.50000000  1
  Te  Te0  1  0.66666700  0.33333300  0.75000000  1
  Te  Te1  1  0.33333300  0.66666700  0.25000000  1
  O  O0  1  0.95878000  0.31211300  0.87602500  1
  O  O1  1  0.04122000  0.68788700  0.12397500  1
  O  O2  1  0.35333300  0.04122000  0.87602500  1
  O  O3  1  0.35333300  0.31211300  0.62397500  1
  O  O4  1  0.64666700  0.95878000  0.12397500  1
  O  O5  1  0.64666700  0.68788700  0.37602500  1
  O  O6  1  0.68788700  0.64666700  0.87602500  1
  O  O7  1  0.68788700  0.04122000  0.62397500  1
  O  O8  1  0.31211300  0.35333300  0.12397500  1
  O  O9  1  0.31211300  0.95878000  0.37602500  1
  O  O10  1  0.95878000  0.64666700  0.62397500  1
  O  O11  1  0.04122000  0.35333300  0.37602500  1
loop_
_geom_bond_atom_site_label_1
_geom_bond_atom_site_label_2
_geom_bond_distance
_geom_bond_site_symmetry_2
Ho0 O2 2.252992 1_565
Ho0 O10 2.252992 1_455
Ho0 O0 2.252994 1_455
Ho0 O7 2.252994 1_565
Ho0 O6 2.252997 1_555
Ho0 O3 2.252997 1_555
Ho1 O11 2.252992 1_655
Ho1 O4 2.252992 1_545
Ho1 O9 2.252994 1_545
Ho1 O1 2.252994 1_655
Ho1 O5 2.252997 1_555
Ho1 O8 2.252997 1_555
Cr0 O8 2.101920 1_555
Cr0 O6 2.101920 1_444
Cr0 O4 2.101920 1_445
Cr0 O2 2.101920 1_554
Cr0 O1 2.101920 1_545
Cr0 O0 2.101920 1_454
Cr1 O3 2.101920 1_555
Cr1 O5 2.101920 1_445
Cr1 O10 2.101920 1_445
Cr1 O11 2.101920 1_555
Cr1 O9 2.101920 1_545
Cr1 O7 2.101920 1_455
O0 Te0 1.967833 1_555
O0 O7 2.624734 1_555
O1 Te1 1.967833 1_555
O1 O9 2.624734 1_555
O2 Te0 1.967835 1_555
O2 O3 2.624734 1_555
O3 Te0 1.967837 1_555
O4 Te1 1.967835 1_555
O4 O5 2.624734 1_555
O5 Te1 1.967837 1_555
O6 Te0 1.967837 1_555
O7 Te0 1.967833 1_555
O8 Te1 1.967837 1_555
O9 Te1 1.967833 1_555
O10 Te0 1.967835 1_555
O10 O6 2.624734 1_555
O11 Te1 1.967835 1_555
O11 O8 2.624734 1_555
