# generated using pymatgen
data_LuAl2
_symmetry_space_group_name_H-M   'P 1'
_cell_length_a   5.45344093
_cell_length_b   5.45344186
_cell_length_c   5.45344188
_cell_angle_alpha   59.99999384
_cell_angle_beta   59.99998817
_cell_angle_gamma   60.00001183
_symmetry_Int_Tables_number   1
_chemical_formula_structural   LuAl2
_chemical_formula_sum   'Lu2 Al4'
_cell_volume   114.68245255
_cell_formula_units_Z   2
loop_
 _symmetry_equiv_pos_site_id
 _symmetry_equiv_pos_as_xyz
  1  'x, y, z'
loop_
 _atom_site_type_symbol
 _atom_site_label
 _atom_site_symmetry_multiplicity
 _atom_site_fract_x
 _atom_site_fract_y
 _atom_site_fract_z
 _atom_site_occupancy
  Lu  Lu0  1  0.87500000  0.87500000  0.87500000  1
  Lu  Lu1  1  0.12500000  0.12500000  0.12500000  1
  Al  Al0  1  0.50000000  0.50000000  0.50000000  1
  Al  Al1  1  0.50000000  0.50000000  0.00000000  1
  Al  Al2  1  0.00000000  0.50000000  0.50000000  1
  Al  Al3  1  0.50000000  -0.00000000  0.50000000  1
loop_
_geom_bond_atom_site_label_1
_geom_bond_atom_site_label_2
_geom_bond_distance
_geom_bond_site_symmetry_2
Lu0 Lu1 3.339537 1_665
Lu0 Lu1 3.339537 1_566
Lu0 Lu1 3.339537 1_666
Lu0 Lu1 3.339538 1_656
Al0 Al2 2.726720 1_555
Al0 Al2 2.726720 1_655
Al0 Al3 2.726721 1_555
Al0 Al3 2.726721 1_565
Al0 Al1 2.726721 1_555
Al0 Al1 2.726721 1_556
Al0 Lu1 3.197363 1_556
Al0 Lu0 3.197363 1_554
Al0 Lu1 3.197364 1_655
Al0 Lu0 3.197364 1_455
Al0 Lu0 3.197364 1_545
Al0 Lu1 3.197364 1_565
Al1 Al2 2.726720 1_555
Al1 Al2 2.726720 1_654
Al1 Al3 2.726721 1_555
Al1 Al3 2.726721 1_564
Al1 Lu0 3.197363 1_554
Al1 Lu1 3.197363 1_555
Al1 Lu0 3.197364 1_454
Al1 Lu1 3.197364 1_655
Al1 Lu1 3.197364 1_565
Al1 Lu0 3.197364 1_544
Al2 Al3 2.726721 1_555
Al2 Al3 2.726721 1_465
Al2 Lu1 3.197363 1_565
Al2 Lu0 3.197363 1_445
Al2 Lu1 3.197364 1_556
Al2 Lu0 3.197364 1_454
Al2 Lu0 3.197364 1_455
Al2 Lu1 3.197364 1_555
Al3 Lu0 3.197363 1_445
Al3 Lu1 3.197363 1_655
Al3 Lu1 3.197363 1_556
Al3 Lu0 3.197363 1_544
Al3 Lu1 3.197364 1_555
Al3 Lu0 3.197364 1_545
