# generated using pymatgen
data_Pt(SO4)2
_symmetry_space_group_name_H-M   'P 1'
_cell_length_a   9.02203700
_cell_length_b   8.38918000
_cell_length_c   9.54767575
_cell_angle_alpha   90.00000000
_cell_angle_beta   117.24447393
_cell_angle_gamma   90.00000000
_symmetry_Int_Tables_number   1
_chemical_formula_structural   Pt(SO4)2
_chemical_formula_sum   'Pt4 S8 O32'
_cell_volume   642.47093258
_cell_formula_units_Z   4
loop_
 _symmetry_equiv_pos_site_id
 _symmetry_equiv_pos_as_xyz
  1  'x, y, z'
loop_
 _atom_site_type_symbol
 _atom_site_label
 _atom_site_symmetry_multiplicity
 _atom_site_fract_x
 _atom_site_fract_y
 _atom_site_fract_z
 _atom_site_occupancy
  Pt  Pt0  1  0.03800500  0.55676400  0.13410500  1
  Pt  Pt1  1  0.96199500  0.05676400  0.36589500  1
  Pt  Pt2  1  0.96199500  0.44323600  0.86589500  1
  Pt  Pt3  1  0.03800500  0.94323600  0.63410500  1
  S  S0  1  0.78802900  0.27451400  0.04706000  1
  S  S1  1  0.21197100  0.77451400  0.45294000  1
  S  S2  1  0.21197100  0.72548600  0.95294000  1
  S  S3  1  0.78802900  0.22548600  0.54706000  1
  S  S4  1  0.27783800  0.28747100  0.13126300  1
  S  S5  1  0.72216200  0.78747100  0.36873700  1
  S  S6  1  0.72216200  0.71252900  0.86873700  1
  S  S7  1  0.27783800  0.21252900  0.63126300  1
  O  O0  1  0.14169300  0.92723000  0.35031200  1
  O  O1  1  0.85830700  0.42723000  0.14968800  1
  O  O2  1  0.85830700  0.07277000  0.64968800  1
  O  O3  1  0.14169300  0.57277000  0.85031200  1
  O  O4  1  0.08574800  0.64615600  0.37005800  1
  O  O5  1  0.91425200  0.14615600  0.12994200  1
  O  O6  1  0.91425200  0.35384400  0.62994200  1
  O  O7  1  0.08574800  0.85384400  0.87005800  1
  O  O8  1  0.21084500  0.69659300  0.11246500  1
  O  O9  1  0.78915500  0.19659300  0.38753500  1
  O  O10  1  0.78915500  0.30340700  0.88753500  1
  O  O11  1  0.21084500  0.80340700  0.61246500  1
  O  O12  1  0.62328400  0.24295300  0.02294500  1
  O  O13  1  0.37671600  0.74295300  0.47705500  1
  O  O14  1  0.37671600  0.75704700  0.97705500  1
  O  O15  1  0.62328400  0.25704700  0.52294500  1
  O  O16  1  0.20598000  0.38277900  0.23075800  1
  O  O17  1  0.79402000  0.88277900  0.26924200  1
  O  O18  1  0.79402000  0.61722100  0.76924200  1
  O  O19  1  0.20598000  0.11722100  0.73075800  1
  O  O20  1  0.12574400  0.26762000  0.96136200  1
  O  O21  1  0.87425600  0.76762000  0.53863800  1
  O  O22  1  0.87425600  0.73238000  0.03863800  1
  O  O23  1  0.12574400  0.23238000  0.46136200  1
  O  O24  1  0.39825300  0.39170000  0.11819900  1
  O  O25  1  0.60174700  0.89170000  0.38180100  1
  O  O26  1  0.60174700  0.60830000  0.88180100  1
  O  O27  1  0.39825300  0.10830000  0.61819900  1
  O  O28  1  0.32209300  0.13109400  0.19589300  1
  O  O29  1  0.67790700  0.63109400  0.30410700  1
  O  O30  1  0.67790700  0.86890600  0.80410700  1
  O  O31  1  0.32209300  0.36890600  0.69589300  1
loop_
_geom_bond_atom_site_label_1
_geom_bond_atom_site_label_2
_geom_bond_distance
_geom_bond_site_symmetry_2
Pt0 Pt2 2.515376 1_454
Pt1 Pt3 2.515376 1_645
O0 S1 1.560349 1_555
O0 Pt1 2.013030 1_465
O1 S0 1.560349 1_555
O1 Pt0 2.013030 1_655
O2 S3 1.560349 1_555
O2 Pt3 2.013030 1_645
O3 S2 1.560349 1_555
O3 Pt2 2.013030 1_455
O4 S1 1.502499 1_555
O4 Pt0 2.221395 1_555
O5 S0 1.502499 1_555
O5 Pt1 2.221395 1_555
O6 S3 1.502499 1_555
O6 Pt2 2.221395 1_555
O7 S2 1.502499 1_555
O7 Pt3 2.221395 1_555
O8 S2 1.546879 1_554
O8 Pt0 2.036014 1_555
O9 S3 1.546879 1_555
O9 Pt1 2.036014 1_555
O10 S0 1.546879 1_556
O10 Pt2 2.036014 1_555
O11 S1 1.546879 1_555
O11 Pt3 2.036014 1_555
O12 S0 1.420909 1_555
O13 S1 1.420909 1_555
O14 S2 1.420909 1_555
O15 S3 1.420909 1_555
O16 S4 1.589292 1_555
O16 Pt0 1.999556 1_555
O17 S5 1.589292 1_555
O17 Pt1 1.999556 1_565
O18 S6 1.589292 1_555
O18 Pt2 1.999556 1_555
O19 S7 1.589292 1_555
O19 Pt3 1.999556 1_545
O20 S4 1.582422 1_556
O20 Pt2 1.987714 1_455
O21 S5 1.582422 1_555
O21 Pt3 1.987714 1_655
O22 S6 1.582422 1_554
O22 Pt0 1.987714 1_655
O23 S7 1.582422 1_555
O23 Pt1 1.987714 1_455
O24 S4 1.443756 1_555
O25 S5 1.443756 1_555
O26 S6 1.443756 1_555
O27 S7 1.443756 1_555
O28 S4 1.426754 1_555
O29 S5 1.426754 1_555
O30 S6 1.426754 1_555
O31 S7 1.426754 1_555
