# generated using pymatgen
data_Sr2MoN3
_symmetry_space_group_name_H-M   'P 1'
_cell_length_a   6.34402835
_cell_length_b   11.23512413
_cell_length_c   12.52897509
_cell_angle_alpha   89.99999845
_cell_angle_beta   90.92108504
_cell_angle_gamma   152.31165767
_symmetry_Int_Tables_number   1
_chemical_formula_structural   Sr2MoN3
_chemical_formula_sum   'Sr8 Mo4 N12'
_cell_volume   414.70143783
_cell_formula_units_Z   4
loop_
 _symmetry_equiv_pos_site_id
 _symmetry_equiv_pos_as_xyz
  1  'x, y, z'
loop_
 _atom_site_type_symbol
 _atom_site_label
 _atom_site_symmetry_multiplicity
 _atom_site_fract_x
 _atom_site_fract_y
 _atom_site_fract_z
 _atom_site_occupancy
  Sr  Sr0  1  0.46606600  0.03461500  0.85643100  1
  Sr  Sr1  1  0.53393400  0.56854900  0.64356900  1
  Sr  Sr2  1  0.53393400  0.96538500  0.14356900  1
  Sr  Sr3  1  0.46606600  0.43145100  0.35643100  1
  Sr  Sr4  1  0.54569200  0.88512200  0.58203200  1
  Sr  Sr5  1  0.45430800  0.33943000  0.91796800  1
  Sr  Sr6  1  0.45430800  0.11487800  0.41796800  1
  Sr  Sr7  1  0.54569200  0.66057000  0.08203200  1
  Mo  Mo0  1  0.53325500  0.26720500  0.66115100  1
  Mo  Mo1  1  0.46674500  0.73395000  0.83884900  1
  Mo  Mo2  1  0.46674500  0.73279500  0.33884900  1
  Mo  Mo3  1  0.53325500  0.26605000  0.16115100  1
  N  N0  1  0.00000000  0.58804200  0.75000000  1
  N  N1  1  0.00000000  0.41195800  0.25000000  1
  N  N2  1  0.62695500  0.15276500  0.62967900  1
  N  N3  1  0.37304500  0.52580800  0.87032100  1
  N  N4  1  0.37304500  0.84723500  0.37032100  1
  N  N5  1  0.62695500  0.47419200  0.12967900  1
  N  N6  1  0.43228300  0.12141400  0.03960700  1
  N  N7  1  0.56771700  0.68913100  0.46039300  1
  N  N8  1  0.56771700  0.87858600  0.96039300  1
  N  N9  1  0.43228300  0.31086900  0.53960700  1
  N  N10  1  0.00000000  0.00630900  0.75000000  1
  N  N11  1  0.00000000  0.99369100  0.25000000  1
loop_
_geom_bond_atom_site_label_1
_geom_bond_atom_site_label_2
_geom_bond_distance
_geom_bond_site_symmetry_2
Mo0 N9 1.869527 1_555
Mo0 N2 1.876983 1_555
Mo0 N10 1.958422 1_555
Mo0 N0 1.997978 1_655
Mo1 N8 1.869527 1_555
Mo1 N3 1.877005 1_555
Mo1 N10 1.958422 1_665
Mo1 N0 1.997978 1_555
Mo2 N7 1.869527 1_555
Mo2 N4 1.876983 1_555
Mo2 N11 1.958422 1_655
Mo2 N1 1.997978 1_555
Mo3 N6 1.869527 1_555
Mo3 N5 1.877005 1_555
Mo3 N11 1.958422 1_545
Mo3 N1 1.997978 1_655
N0 Sr4 2.706429 1_555
N0 Sr5 2.706429 1_455
N0 Sr0 3.048746 1_565
N0 Sr1 3.048746 1_455
N1 Sr6 2.706429 1_455
N1 Sr7 2.706429 1_555
N1 Sr2 3.048746 1_445
N1 Sr3 3.048746 1_555
N2 Sr4 2.628483 1_545
N2 Sr1 2.706619 1_655
N2 Sr6 2.738179 1_555
N2 Sr0 2.927240 1_555
N2 Sr1 3.260379 1_445
N3 Sr5 2.628461 1_555
N3 Sr0 2.706615 1_455
N3 Sr7 2.738183 1_556
N3 Sr1 2.927237 1_555
N3 Sr0 3.260376 1_665
N4 Sr6 2.628483 1_565
N4 Sr3 2.706619 1_455
N4 Sr4 2.738179 1_555
N4 Sr2 2.927240 1_555
N4 Sr3 3.260379 1_665
N5 Sr7 2.628461 1_555
N5 Sr2 2.706615 1_655
N5 Sr5 2.738183 1_554
N5 Sr3 2.927237 1_555
N5 Sr2 3.260376 1_445
N6 Sr0 2.578751 1_554
N6 Sr2 2.675917 1_545
N6 Sr7 2.692212 1_445
N6 Sr5 2.782553 1_554
N6 Sr7 3.312572 1_655
N7 Sr1 2.578751 1_555
N7 Sr3 2.675917 1_555
N7 Sr6 2.692212 1_665
N7 Sr4 2.782553 1_555
N7 Sr6 3.312572 1_455
N8 Sr2 2.578751 1_556
N8 Sr0 2.675917 1_565
N8 Sr5 2.692212 1_665
N8 Sr7 2.782553 1_556
N8 Sr5 3.312572 1_455
N9 Sr3 2.578751 1_555
N9 Sr1 2.675917 1_555
N9 Sr4 2.692212 1_445
N9 Sr6 2.782553 1_555
N9 Sr4 3.312572 1_655
N10 Sr4 2.728499 1_445
N10 Sr5 2.728499 1_555
N10 Sr1 2.971456 1_445
N10 Sr0 2.971456 1_555
N11 Sr6 2.728499 1_565
N11 Sr7 2.728499 1_455
N11 Sr3 2.971456 1_565
N11 Sr2 2.971456 1_455
