# generated using pymatgen
data_Li9Mn2Co5O16
_symmetry_space_group_name_H-M   'P 1'
_cell_length_a   5.91638500
_cell_length_b   6.45019755
_cell_length_c   7.88732212
_cell_angle_alpha   88.81260501
_cell_angle_beta   103.82497614
_cell_angle_gamma   104.81962928
_symmetry_Int_Tables_number   1
_chemical_formula_structural   Li9Mn2Co5O16
_chemical_formula_sum   'Li9 Mn2 Co5 O16'
_cell_volume   282.29101805
_cell_formula_units_Z   1
loop_
 _symmetry_equiv_pos_site_id
 _symmetry_equiv_pos_as_xyz
  1  'x, y, z'
loop_
 _atom_site_type_symbol
 _atom_site_label
 _atom_site_symmetry_multiplicity
 _atom_site_fract_x
 _atom_site_fract_y
 _atom_site_fract_z
 _atom_site_occupancy
  Li  Li0  1  0.12050100  0.62656100  0.86775600  1
  Li  Li1  1  0.74980500  0.24515700  0.74235900  1
  Li  Li2  1  0.00182100  0.50175600  0.49922200  1
  Li  Li3  1  0.62788600  0.11917200  0.38654000  1
  Li  Li4  1  0.87699300  0.37666500  0.12831400  1
  Li  Li5  1  0.50060600  0.00280100  0.99874700  1
  Li  Li6  1  0.37773600  0.87614400  0.61641700  1
  Li  Li7  1  0.24848800  0.74917200  0.25731200  1
  Li  Li8  1  0.87159500  0.87736500  0.62184800  1
  Mn  Mn0  1  0.00465900  0.00109700  0.99791800  1
  Mn  Mn1  1  0.62631400  0.62306100  0.86934400  1
  Co  Co0  1  0.24373600  0.24853600  0.74726300  1
  Co  Co1  1  0.49835400  0.50226200  0.50003200  1
  Co  Co2  1  0.12307400  0.12572600  0.37956500  1
  Co  Co3  1  0.74986200  0.75148700  0.25750600  1
  Co  Co4  1  0.37855600  0.37251300  0.12634600  1
  O  O0  1  0.93278300  0.69729200  0.04507300  1
  O  O1  1  0.54691000  0.32359400  0.92488300  1
  O  O2  1  0.77787700  0.56461300  0.69429600  1
  O  O3  1  0.42537400  0.19932800  0.55286200  1
  O  O4  1  0.67760300  0.44694600  0.29953900  1
  O  O5  1  0.30464700  0.07249200  0.17678700  1
  O  O6  1  0.17247600  0.95938000  0.82662800  1
  O  O7  1  0.05172100  0.82435100  0.42146200  1
  O  O8  1  0.32148300  0.55845600  0.70179900  1
  O  O9  1  0.95817200  0.19411000  0.57318900  1
  O  O10  1  0.20240300  0.42335700  0.32026100  1
  O  O11  1  0.83666500  0.04757500  0.18617500  1
  O  O12  1  0.07031100  0.30155100  0.95526700  1
  O  O13  1  0.69500700  0.92667100  0.83073700  1
  O  O14  1  0.55944300  0.79135100  0.43392100  1
  O  O15  1  0.46714300  0.66945200  0.06062900  1
loop_
_geom_bond_atom_site_label_1
_geom_bond_atom_site_label_2
_geom_bond_distance
_geom_bond_site_symmetry_2
Li0 O8 2.086904 1_555
Li0 O2 2.103203 1_455
Li0 O0 2.103694 1_456
Li0 O6 2.118828 1_555
Li0 O12 2.163083 1_555
Li0 O15 2.198400 1_556
Li1 O2 2.059083 1_555
Li1 O3 2.088681 1_555
Li1 O9 2.102494 1_555
Li1 O13 2.125818 1_545
Li1 O12 2.167634 1_655
Li1 O1 2.221762 1_555
Li2 O9 2.026493 1_455
Li2 O8 2.118895 1_555
Li2 O7 2.124251 1_555
Li2 O4 2.125401 1_455
Li2 O10 2.189416 1_555
Li2 O2 2.358406 1_455
Li3 O14 2.091971 1_545
Li3 O9 2.095441 1_555
Li3 O3 2.126012 1_555
Li3 O5 2.167716 1_555
Li3 O4 2.178412 1_555
Li3 O11 2.343394 1_555
Li4 O10 2.102053 1_655
Li4 O12 2.112515 1_654
Li4 O4 2.116912 1_555
Li4 O0 2.124892 1_555
Li4 O11 2.126932 1_555
Li4 O1 2.165352 1_554
Li5 O6 2.041642 1_545
Li5 O13 2.089088 1_545
Li5 O1 2.105302 1_555
Li5 O11 2.131008 1_556
Li5 O5 2.142191 1_556
Li5 O15 2.164616 1_546
Li6 O3 2.097602 1_565
Li6 O8 2.112900 1_555
Li6 O7 2.114389 1_555
Li6 O14 2.144691 1_555
Li6 O13 2.163477 1_555
Li6 O6 2.417575 1_555
Li7 O14 1.983409 1_555
Li7 O7 2.074072 1_555
Li7 O10 2.113240 1_555
Li7 O5 2.134125 1_565
Li7 O0 2.147604 1_455
Li7 O15 2.382628 1_555
Li8 O9 2.027289 1_565
Li8 O14 2.029099 1_555
Li8 O2 2.057902 1_555
Li8 O6 2.058409 1_655
Li8 O7 2.182757 1_655
Li8 O13 2.218448 1_555
Mn0 O12 1.915773 1_555
Mn0 O6 1.917356 1_545
Mn0 O13 1.935799 1_445
Mn0 O5 1.940268 1_556
Mn0 O0 1.943785 1_446
Mn0 O11 2.039288 1_456
Mn1 O2 1.907516 1_555
Mn1 O8 1.916228 1_555
Mn1 O13 1.928806 1_555
Mn1 O1 1.934638 1_555
Mn1 O0 1.954564 1_556
Mn1 O15 2.023488 1_556
Co0 O9 1.862985 1_455
Co0 O6 1.929697 1_545
Co0 O1 1.948672 1_555
Co0 O8 1.978657 1_555
Co0 O3 2.142138 1_555
Co0 O12 2.206465 1_555
Co1 O14 1.893297 1_555
Co1 O2 1.928391 1_555
Co1 O10 1.929477 1_555
Co1 O3 1.949042 1_555
Co1 O4 2.184281 1_555
Co1 O8 2.184668 1_555
Co2 O7 1.920031 1_545
Co2 O3 1.927871 1_555
Co2 O10 1.931682 1_555
Co2 O11 1.952368 1_455
Co2 O9 2.106844 1_455
Co2 O5 2.205109 1_555
Co3 O7 1.890701 1_655
Co3 O4 1.939716 1_555
Co3 O11 1.954361 1_565
Co3 O15 1.956804 1_555
Co3 O14 2.045391 1_555
Co3 O0 2.277108 1_555
Co4 O4 1.914279 1_555
Co4 O5 1.926867 1_555
Co4 O12 1.943878 1_554
Co4 O15 1.946012 1_555
Co4 O10 2.119060 1_555
Co4 O1 2.134143 1_554
