# generated using pymatgen
data_YFeGe2
_symmetry_space_group_name_H-M   'P 1'
_cell_length_a   8.34982670
_cell_length_b   8.34982670
_cell_length_c   4.31784000
_cell_angle_alpha   90.00000000
_cell_angle_beta   90.00000000
_cell_angle_gamma   150.80545224
_symmetry_Int_Tables_number   1
_chemical_formula_structural   YFeGe2
_chemical_formula_sum   'Y2 Fe2 Ge4'
_cell_volume   146.83933934
_cell_formula_units_Z   2
loop_
 _symmetry_equiv_pos_site_id
 _symmetry_equiv_pos_as_xyz
  1  'x, y, z'
loop_
 _atom_site_type_symbol
 _atom_site_label
 _atom_site_symmetry_multiplicity
 _atom_site_fract_x
 _atom_site_fract_y
 _atom_site_fract_z
 _atom_site_occupancy
  Y  Y0  1  0.89507100  0.10492900  0.25000000  1
  Y  Y1  1  0.10492900  0.89507100  0.75000000  1
  Fe  Fe0  1  0.68643900  0.31356100  0.25000000  1
  Fe  Fe1  1  0.31356100  0.68643900  0.75000000  1
  Ge  Ge0  1  0.54494500  0.45505500  0.25000000  1
  Ge  Ge1  1  0.45505500  0.54494500  0.75000000  1
  Ge  Ge2  1  0.25193800  0.74806200  0.25000000  1
  Ge  Ge3  1  0.74806200  0.25193800  0.75000000  1
loop_
_geom_bond_atom_site_label_1
_geom_bond_atom_site_label_2
_geom_bond_distance
_geom_bond_site_symmetry_2
Fe0 Ge0 2.286629 1_555
Fe0 Ge2 2.355573 1_655
Fe0 Ge2 2.355573 1_545
Fe0 Ge3 2.377537 1_555
Fe0 Ge3 2.377537 1_554
Fe0 Y1 3.290042 1_655
Fe0 Y1 3.290042 1_654
Fe0 Y1 3.290042 1_544
Fe0 Y1 3.290042 1_545
Fe1 Ge1 2.286629 1_555
Fe1 Ge3 2.355573 1_455
Fe1 Ge3 2.355573 1_565
Fe1 Ge2 2.377537 1_555
Fe1 Ge2 2.377537 1_556
Fe1 Y0 3.290042 1_565
Fe1 Y0 3.290042 1_566
Fe1 Y0 3.290042 1_456
Fe1 Y0 3.290042 1_455
Ge0 Ge1 2.602154 1_554
Ge0 Ge1 2.602154 1_555
Ge0 Y1 3.166847 1_654
Ge0 Y1 3.166847 1_544
Ge0 Y1 3.166847 1_545
Ge0 Y1 3.166847 1_655
Ge0 Y0 3.208527 1_455
Ge0 Y0 3.208527 1_565
Ge1 Y0 3.166847 1_455
Ge1 Y0 3.166847 1_566
Ge1 Y0 3.166847 1_565
Ge1 Y0 3.166847 1_456
Ge1 Y1 3.208527 1_545
Ge1 Y1 3.208527 1_655
Ge2 Y0 3.127107 1_455
Ge2 Y0 3.127107 1_565
Ge2 Y1 3.210163 1_555
Ge2 Y1 3.210163 1_554
Ge3 Y1 3.127107 1_655
Ge3 Y1 3.127107 1_545
Ge3 Y0 3.210163 1_556
Ge3 Y0 3.210163 1_555
