# generated using pymatgen
data_La7Pt3
_symmetry_space_group_name_H-M   'P 1'
_cell_length_a   6.62204700
_cell_length_b   10.34276808
_cell_length_c   10.34274962
_cell_angle_alpha   120.00112067
_cell_angle_beta   90.00000000
_cell_angle_gamma   90.00000000
_symmetry_Int_Tables_number   1
_chemical_formula_structural   La7Pt3
_chemical_formula_sum   'La14 Pt6'
_cell_volume   613.46640338
_cell_formula_units_Z   2
loop_
 _symmetry_equiv_pos_site_id
 _symmetry_equiv_pos_as_xyz
  1  'x, y, z'
loop_
 _atom_site_type_symbol
 _atom_site_label
 _atom_site_symmetry_multiplicity
 _atom_site_fract_x
 _atom_site_fract_y
 _atom_site_fract_z
 _atom_site_occupancy
  La  La0  1  0.46484443  0.33326017  0.66672245  1
  La  La1  1  0.96484443  0.66673983  0.33327755  1
  La  La2  1  0.24473024  0.12650682  0.87348034  1
  La  La3  1  0.24470652  0.74704202  0.87359809  1
  La  La4  1  0.24470725  0.12640150  0.25296589  1
  La  La5  1  0.74473024  0.87349318  0.12651966  1
  La  La6  1  0.74470652  0.25295798  0.12640191  1
  La  La7  1  0.74470725  0.87359850  0.74703411  1
  La  La8  1  0.43594851  0.53634466  0.46365735  1
  La  La9  1  0.43591309  0.92737505  0.46366164  1
  La  La10  1  0.43591167  0.53634427  0.07263227  1
  La  La11  1  0.93594851  0.46365534  0.53634265  1
  La  La12  1  0.93591309  0.07262495  0.53633836  1
  La  La13  1  0.93591167  0.46365573  0.92736773  1
  Pt  Pt0  1  0.19541323  0.81156111  0.18845498  1
  Pt  Pt1  1  0.19541448  0.37686540  0.18837668  1
  Pt  Pt2  1  0.19541060  0.81162664  0.62313209  1
  Pt  Pt3  1  0.69541323  0.18843889  0.81154502  1
  Pt  Pt4  1  0.69541448  0.62313460  0.81162332  1
  Pt  Pt5  1  0.69541060  0.18837336  0.37686791  1
loop_
_geom_bond_atom_site_label_1
_geom_bond_atom_site_label_2
_geom_bond_distance
_geom_bond_site_symmetry_2
La0 Pt3 3.010323 1_555
La0 Pt5 3.011901 1_555
La0 Pt4 3.012072 1_555
La0 La9 3.640557 1_545
La0 La10 3.640772 1_556
La0 La8 3.642969 1_555
La0 La2 3.980369 1_555
La0 La4 3.982408 1_555
La0 La3 3.982627 1_555
La0 La12 4.209299 1_455
La0 La13 4.209355 1_455
La0 La11 4.209819 1_455
La1 Pt0 3.010323 1_655
La1 Pt2 3.011901 1_655
La1 Pt1 3.012072 1_655
La1 La12 3.640557 1_565
La1 La13 3.640772 1_554
La1 La11 3.642969 1_555
La1 La5 3.980369 1_555
La1 La7 3.982408 1_555
La1 La6 3.982627 1_555
La1 La9 4.209299 1_555
La1 La10 4.209355 1_555
La1 La8 4.209819 1_555
La2 Pt2 2.997413 1_545
La2 Pt1 2.997551 1_556
La2 Pt3 3.184006 1_555
La2 Pt3 3.803044 1_455
La2 La3 3.925326 1_545
La2 La4 3.925469 1_556
La3 Pt0 2.997233 1_556
La3 Pt2 2.998994 1_555
La3 Pt4 3.184279 1_555
La3 Pt4 3.802985 1_455
La3 La4 3.923600 1_566
La4 Pt0 2.997100 1_545
La4 Pt1 2.999006 1_555
La4 Pt5 3.184233 1_555
La4 Pt5 3.802999 1_455
La5 Pt5 2.997413 1_565
La5 Pt4 2.997551 1_554
La5 Pt0 3.184006 1_655
La5 Pt0 3.803044 1_555
La5 La9 3.835138 1_555
La5 La6 3.925326 1_565
La5 La7 3.925469 1_554
La6 Pt3 2.997233 1_554
La6 Pt5 2.998994 1_555
La6 Pt1 3.184279 1_655
La6 Pt1 3.802985 1_555
La6 La8 3.835918 1_555
La6 La7 3.923600 1_544
La7 Pt3 2.997100 1_565
La7 Pt4 2.999006 1_555
La7 Pt2 3.184233 1_655
La7 Pt2 3.802999 1_555
La7 La9 3.835471 1_555
La7 La8 3.835882 1_555
La8 Pt1 2.944095 1_555
La8 Pt2 2.944118 1_555
La8 Pt4 3.671451 1_555
La8 Pt5 3.671493 1_555
La9 Pt0 2.943385 1_555
La9 Pt2 2.943576 1_555
La9 Pt5 3.670026 1_565
La9 Pt3 3.670720 1_565
La10 Pt0 2.943458 1_555
La10 Pt1 2.943596 1_555
La10 La13 3.557502 1_554
La10 La13 3.557502 1_454
La10 Pt4 3.670112 1_554
La10 Pt3 3.670926 1_554
La10 La5 3.835191 1_555
La10 La6 3.835560 1_555
La11 Pt4 2.944095 1_555
La11 Pt5 2.944118 1_555
La11 La8 3.557871 1_655
La11 La8 3.557871 1_555
La11 Pt1 3.671451 1_655
La11 Pt2 3.671493 1_655
La11 La4 3.835882 1_655
La11 La3 3.835918 1_655
La12 Pt3 2.943385 1_555
La12 Pt5 2.943576 1_555
La12 La9 3.557455 1_545
La12 La9 3.557455 1_645
La12 Pt2 3.670026 1_645
La12 Pt0 3.670720 1_645
La12 La2 3.835138 1_655
La12 La4 3.835471 1_655
La13 Pt3 2.943458 1_555
La13 Pt4 2.943596 1_555
La13 Pt1 3.670112 1_656
La13 Pt0 3.670926 1_656
La13 La2 3.835191 1_655
La13 La3 3.835560 1_655
