# generated using pymatgen
data_CsNd2Ag3Te5
_symmetry_space_group_name_H-M   'P 1'
_cell_length_a   17.15599027
_cell_length_b   17.15599027
_cell_length_c   37.99792200
_cell_angle_alpha   90.00000000
_cell_angle_beta   90.00000000
_cell_angle_gamma   148.43164766
_symmetry_Int_Tables_number   1
_chemical_formula_structural   CsNd2Ag3Te5
_chemical_formula_sum   'Cs16 Nd32 Ag48 Te80'
_cell_volume   5854.91866005
_cell_formula_units_Z   16
loop_
 _symmetry_equiv_pos_site_id
 _symmetry_equiv_pos_as_xyz
  1  'x, y, z'
loop_
 _atom_site_type_symbol
 _atom_site_label
 _atom_site_symmetry_multiplicity
 _atom_site_fract_x
 _atom_site_fract_y
 _atom_site_fract_z
 _atom_site_occupancy
  Cs  Cs0_0  1  0.27960500  0.22039500  0.12500000  1
  Cs  Cs0_1  1  0.27960500  0.22039500  0.62500000  1
  Cs  Cs0_2  1  0.27960500  0.72039500  0.12500000  1
  Cs  Cs0_3  1  0.27960500  0.72039500  0.62500000  1
  Cs  Cs0_4  1  0.77960500  0.22039500  0.12500000  1
  Cs  Cs0_5  1  0.77960500  0.22039500  0.62500000  1
  Cs  Cs0_6  1  0.77960500  0.72039500  0.12500000  1
  Cs  Cs0_7  1  0.77960500  0.72039500  0.62500000  1
  Cs  Cs1_0  1  0.22039500  0.27960500  0.37500000  1
  Cs  Cs1_1  1  0.22039500  0.27960500  0.87500000  1
  Cs  Cs1_2  1  0.22039500  0.77960500  0.37500000  1
  Cs  Cs1_3  1  0.22039500  0.77960500  0.87500000  1
  Cs  Cs1_4  1  0.72039500  0.27960500  0.37500000  1
  Cs  Cs1_5  1  0.72039500  0.27960500  0.87500000  1
  Cs  Cs1_6  1  0.72039500  0.77960500  0.37500000  1
  Cs  Cs1_7  1  0.72039500  0.77960500  0.87500000  1
  Nd  Nd0_0  1  0.34528200  0.15471800  0.45346550  1
  Nd  Nd0_1  1  0.34528200  0.15471800  0.95346550  1
  Nd  Nd0_2  1  0.34528200  0.65471800  0.45346550  1
  Nd  Nd0_3  1  0.34528200  0.65471800  0.95346550  1
  Nd  Nd0_4  1  0.84528200  0.15471800  0.45346550  1
  Nd  Nd0_5  1  0.84528200  0.15471800  0.95346550  1
  Nd  Nd0_6  1  0.84528200  0.65471800  0.45346550  1
  Nd  Nd0_7  1  0.84528200  0.65471800  0.95346550  1
  Nd  Nd1_0  1  0.15471800  0.34528200  0.04653450  1
  Nd  Nd1_1  1  0.15471800  0.34528200  0.54653450  1
  Nd  Nd1_2  1  0.15471800  0.84528200  0.04653450  1
  Nd  Nd1_3  1  0.15471800  0.84528200  0.54653450  1
  Nd  Nd1_4  1  0.65471800  0.34528200  0.04653450  1
  Nd  Nd1_5  1  0.65471800  0.34528200  0.54653450  1
  Nd  Nd1_6  1  0.65471800  0.84528200  0.04653450  1
  Nd  Nd1_7  1  0.65471800  0.84528200  0.54653450  1
  Nd  Nd2_0  1  0.34528200  0.15471800  0.29653450  1
  Nd  Nd2_1  1  0.34528200  0.15471800  0.79653450  1
  Nd  Nd2_2  1  0.34528200  0.65471800  0.29653450  1
  Nd  Nd2_3  1  0.34528200  0.65471800  0.79653450  1
  Nd  Nd2_4  1  0.84528200  0.15471800  0.29653450  1
  Nd  Nd2_5  1  0.84528200  0.15471800  0.79653450  1
  Nd  Nd2_6  1  0.84528200  0.65471800  0.29653450  1
  Nd  Nd2_7  1  0.84528200  0.65471800  0.79653450  1
  Nd  Nd3_0  1  0.15471800  0.34528200  0.20346550  1
  Nd  Nd3_1  1  0.15471800  0.34528200  0.70346550  1
  Nd  Nd3_2  1  0.15471800  0.84528200  0.20346550  1
  Nd  Nd3_3  1  0.15471800  0.84528200  0.70346550  1
  Nd  Nd3_4  1  0.65471800  0.34528200  0.20346550  1
  Nd  Nd3_5  1  0.65471800  0.34528200  0.70346550  1
  Nd  Nd3_6  1  0.65471800  0.84528200  0.20346550  1
  Nd  Nd3_7  1  0.65471800  0.84528200  0.70346550  1
  Ag  Ag0_0  1  0.42023150  0.07976850  0.12500000  1
  Ag  Ag0_1  1  0.42023150  0.07976850  0.62500000  1
  Ag  Ag0_2  1  0.42023150  0.57976850  0.12500000  1
  Ag  Ag0_3  1  0.42023150  0.57976850  0.62500000  1
  Ag  Ag0_4  1  0.92023150  0.07976850  0.12500000  1
  Ag  Ag0_5  1  0.92023150  0.07976850  0.62500000  1
  Ag  Ag0_6  1  0.92023150  0.57976850  0.12500000  1
  Ag  Ag0_7  1  0.92023150  0.57976850  0.62500000  1
  Ag  Ag1_0  1  0.07976850  0.42023150  0.37500000  1
  Ag  Ag1_1  1  0.07976850  0.42023150  0.87500000  1
  Ag  Ag1_2  1  0.07976850  0.92023150  0.37500000  1
  Ag  Ag1_3  1  0.07976850  0.92023150  0.87500000  1
  Ag  Ag1_4  1  0.57976850  0.42023150  0.37500000  1
  Ag  Ag1_5  1  0.57976850  0.42023150  0.87500000  1
  Ag  Ag1_6  1  0.57976850  0.92023150  0.37500000  1
  Ag  Ag1_7  1  0.57976850  0.92023150  0.87500000  1
  Ag  Ag2_0  1  0.04303700  0.45696300  0.23483250  1
  Ag  Ag2_1  1  0.04303700  0.45696300  0.73483250  1
  Ag  Ag2_2  1  0.04303700  0.95696300  0.23483250  1
  Ag  Ag2_3  1  0.04303700  0.95696300  0.73483250  1
  Ag  Ag2_4  1  0.54303700  0.45696300  0.23483250  1
  Ag  Ag2_5  1  0.54303700  0.45696300  0.73483250  1
  Ag  Ag2_6  1  0.54303700  0.95696300  0.23483250  1
  Ag  Ag2_7  1  0.54303700  0.95696300  0.73483250  1
  Ag  Ag3_0  1  0.45696300  0.04303700  0.26516750  1
  Ag  Ag3_1  1  0.45696300  0.04303700  0.76516750  1
  Ag  Ag3_2  1  0.45696300  0.54303700  0.26516750  1
  Ag  Ag3_3  1  0.45696300  0.54303700  0.76516750  1
  Ag  Ag3_4  1  0.95696300  0.04303700  0.26516750  1
  Ag  Ag3_5  1  0.95696300  0.04303700  0.76516750  1
  Ag  Ag3_6  1  0.95696300  0.54303700  0.26516750  1
  Ag  Ag3_7  1  0.95696300  0.54303700  0.76516750  1
  Ag  Ag4_0  1  0.04303700  0.45696300  0.01516750  1
  Ag  Ag4_1  1  0.04303700  0.45696300  0.51516750  1
  Ag  Ag4_2  1  0.04303700  0.95696300  0.01516750  1
  Ag  Ag4_3  1  0.04303700  0.95696300  0.51516750  1
  Ag  Ag4_4  1  0.54303700  0.45696300  0.01516750  1
  Ag  Ag4_5  1  0.54303700  0.45696300  0.51516750  1
  Ag  Ag4_6  1  0.54303700  0.95696300  0.01516750  1
  Ag  Ag4_7  1  0.54303700  0.95696300  0.51516750  1
  Ag  Ag5_0  1  0.45696300  0.04303700  0.48483250  1
  Ag  Ag5_1  1  0.45696300  0.04303700  0.98483250  1
  Ag  Ag5_2  1  0.45696300  0.54303700  0.48483250  1
  Ag  Ag5_3  1  0.45696300  0.54303700  0.98483250  1
  Ag  Ag5_4  1  0.95696300  0.04303700  0.48483250  1
  Ag  Ag5_5  1  0.95696300  0.04303700  0.98483250  1
  Ag  Ag5_6  1  0.95696300  0.54303700  0.48483250  1
  Ag  Ag5_7  1  0.95696300  0.54303700  0.98483250  1
  Te  Te0_0  1  0.03038350  0.46961650  0.44042150  1
  Te  Te0_1  1  0.03038350  0.46961650  0.94042150  1
  Te  Te0_2  1  0.03038350  0.96961650  0.44042150  1
  Te  Te0_3  1  0.03038350  0.96961650  0.94042150  1
  Te  Te0_4  1  0.53038350  0.46961650  0.44042150  1
  Te  Te0_5  1  0.53038350  0.46961650  0.94042150  1
  Te  Te0_6  1  0.53038350  0.96961650  0.44042150  1
  Te  Te0_7  1  0.53038350  0.96961650  0.94042150  1
  Te  Te1_0  1  0.46961650  0.03038350  0.05957850  1
  Te  Te1_1  1  0.46961650  0.03038350  0.55957850  1
  Te  Te1_2  1  0.46961650  0.53038350  0.05957850  1
  Te  Te1_3  1  0.46961650  0.53038350  0.55957850  1
  Te  Te1_4  1  0.96961650  0.03038350  0.05957850  1
  Te  Te1_5  1  0.96961650  0.03038350  0.55957850  1
  Te  Te1_6  1  0.96961650  0.53038350  0.05957850  1
  Te  Te1_7  1  0.96961650  0.53038350  0.55957850  1
  Te  Te2_0  1  0.03038350  0.46961650  0.30957850  1
  Te  Te2_1  1  0.03038350  0.46961650  0.80957850  1
  Te  Te2_2  1  0.03038350  0.96961650  0.30957850  1
  Te  Te2_3  1  0.03038350  0.96961650  0.80957850  1
  Te  Te2_4  1  0.53038350  0.46961650  0.30957850  1
  Te  Te2_5  1  0.53038350  0.46961650  0.80957850  1
  Te  Te2_6  1  0.53038350  0.96961650  0.30957850  1
  Te  Te2_7  1  0.53038350  0.96961650  0.80957850  1
  Te  Te3_0  1  0.46961650  0.03038350  0.19042150  1
  Te  Te3_1  1  0.46961650  0.03038350  0.69042150  1
  Te  Te3_2  1  0.46961650  0.53038350  0.19042150  1
  Te  Te3_3  1  0.46961650  0.53038350  0.69042150  1
  Te  Te3_4  1  0.96961650  0.03038350  0.19042150  1
  Te  Te3_5  1  0.96961650  0.03038350  0.69042150  1
  Te  Te3_6  1  0.96961650  0.53038350  0.19042150  1
  Te  Te3_7  1  0.96961650  0.53038350  0.69042150  1
  Te  Te4_0  1  0.33679950  0.16320050  0.21359200  1
  Te  Te4_1  1  0.33679950  0.16320050  0.71359200  1
  Te  Te4_2  1  0.33679950  0.66320050  0.21359200  1
  Te  Te4_3  1  0.33679950  0.66320050  0.71359200  1
  Te  Te4_4  1  0.83679950  0.16320050  0.21359200  1
  Te  Te4_5  1  0.83679950  0.16320050  0.71359200  1
  Te  Te4_6  1  0.83679950  0.66320050  0.21359200  1
  Te  Te4_7  1  0.83679950  0.66320050  0.71359200  1
  Te  Te5_0  1  0.16320050  0.33679950  0.28640800  1
  Te  Te5_1  1  0.16320050  0.33679950  0.78640800  1
  Te  Te5_2  1  0.16320050  0.83679950  0.28640800  1
  Te  Te5_3  1  0.16320050  0.83679950  0.78640800  1
  Te  Te5_4  1  0.66320050  0.33679950  0.28640800  1
  Te  Te5_5  1  0.66320050  0.33679950  0.78640800  1
  Te  Te5_6  1  0.66320050  0.83679950  0.28640800  1
  Te  Te5_7  1  0.66320050  0.83679950  0.78640800  1
  Te  Te6_0  1  0.33679950  0.16320050  0.03640800  1
  Te  Te6_1  1  0.33679950  0.16320050  0.53640800  1
  Te  Te6_2  1  0.33679950  0.66320050  0.03640800  1
  Te  Te6_3  1  0.33679950  0.66320050  0.53640800  1
  Te  Te6_4  1  0.83679950  0.16320050  0.03640800  1
  Te  Te6_5  1  0.83679950  0.16320050  0.53640800  1
  Te  Te6_6  1  0.83679950  0.66320050  0.03640800  1
  Te  Te6_7  1  0.83679950  0.66320050  0.53640800  1
  Te  Te7_0  1  0.16320050  0.33679950  0.46359200  1
  Te  Te7_1  1  0.16320050  0.33679950  0.96359200  1
  Te  Te7_2  1  0.16320050  0.83679950  0.46359200  1
  Te  Te7_3  1  0.16320050  0.83679950  0.96359200  1
  Te  Te7_4  1  0.66320050  0.33679950  0.46359200  1
  Te  Te7_5  1  0.66320050  0.33679950  0.96359200  1
  Te  Te7_6  1  0.66320050  0.83679950  0.46359200  1
  Te  Te7_7  1  0.66320050  0.83679950  0.96359200  1
  Te  Te8_0  1  0.12327300  0.37672700  0.12500000  1
  Te  Te8_1  1  0.12327300  0.37672700  0.62500000  1
  Te  Te8_2  1  0.12327300  0.87672700  0.12500000  1
  Te  Te8_3  1  0.12327300  0.87672700  0.62500000  1
  Te  Te8_4  1  0.62327300  0.37672700  0.12500000  1
  Te  Te8_5  1  0.62327300  0.37672700  0.62500000  1
  Te  Te8_6  1  0.62327300  0.87672700  0.12500000  1
  Te  Te8_7  1  0.62327300  0.87672700  0.62500000  1
  Te  Te9_0  1  0.37672700  0.12327300  0.37500000  1
  Te  Te9_1  1  0.37672700  0.12327300  0.87500000  1
  Te  Te9_2  1  0.37672700  0.62327300  0.37500000  1
  Te  Te9_3  1  0.37672700  0.62327300  0.87500000  1
  Te  Te9_4  1  0.87672700  0.12327300  0.37500000  1
  Te  Te9_5  1  0.87672700  0.12327300  0.87500000  1
  Te  Te9_6  1  0.87672700  0.62327300  0.37500000  1
  Te  Te9_7  1  0.87672700  0.62327300  0.87500000  1
loop_
_geom_bond_atom_site_label_1
_geom_bond_atom_site_label_2
_geom_bond_distance
_geom_bond_site_symmetry_2
Cs0_0 Te4_0 3.859836 1_555
Cs0_0 Te6_0 3.859836 1_555
Cs0_0 Te8_4 3.874217 1_555
Cs0_0 Te8_2 3.874217 1_545
Cs0_0 Te1_2 3.943006 1_555
Cs0_0 Te3_2 3.943006 1_555
Cs0_0 Te1_4 3.943006 1_455
Cs0_0 Te3_4 3.943006 1_455
Cs0_0 Cs0_6 4.666678 1_445
Cs0_0 Cs0_6 4.666678 1_555
Cs0_1 Te4_1 3.859836 1_555
Cs0_1 Te6_1 3.859836 1_555
Cs0_1 Te8_5 3.874217 1_555
Cs0_1 Te8_3 3.874217 1_545
Cs0_1 Te3_3 3.943006 1_555
Cs0_1 Te3_5 3.943006 1_455
Cs0_1 Te1_3 3.943006 1_555
Cs0_1 Te1_5 3.943006 1_455
Cs0_1 Cs0_7 4.666678 1_445
Cs0_1 Cs0_7 4.666678 1_555
Cs0_2 Te4_2 3.859836 1_555
Cs0_2 Te6_2 3.859836 1_555
Cs0_2 Te8_6 3.874217 1_555
Cs0_2 Te8_0 3.874217 1_555
Cs0_2 Te1_0 3.943006 1_565
Cs0_2 Te3_0 3.943006 1_565
Cs0_2 Te1_6 3.943006 1_455
Cs0_2 Te3_6 3.943006 1_455
Cs0_2 Cs0_4 4.666678 1_565
Cs0_2 Cs0_4 4.666678 1_455
Cs0_3 Te4_3 3.859836 1_555
Cs0_3 Te6_3 3.859836 1_555
Cs0_3 Te8_7 3.874217 1_555
Cs0_3 Te8_1 3.874217 1_555
Cs0_3 Te3_1 3.943006 1_565
Cs0_3 Te1_1 3.943006 1_565
Cs0_3 Te3_7 3.943006 1_455
Cs0_3 Te1_7 3.943006 1_455
Cs0_3 Cs0_5 4.666678 1_565
Cs0_3 Cs0_5 4.666678 1_455
Cs0_4 Te4_4 3.859836 1_555
Cs0_4 Te6_4 3.859836 1_555
Cs0_4 Te8_0 3.874217 1_655
Cs0_4 Te8_6 3.874217 1_545
Cs0_4 Te1_6 3.943006 1_555
Cs0_4 Te3_6 3.943006 1_555
Cs0_4 Te1_0 3.943006 1_555
Cs0_4 Te3_0 3.943006 1_555
Cs0_5 Te4_5 3.859836 1_555
Cs0_5 Te6_5 3.859836 1_555
Cs0_5 Te8_1 3.874217 1_655
Cs0_5 Te8_7 3.874217 1_545
Cs0_5 Te3_7 3.943006 1_555
Cs0_5 Te3_1 3.943006 1_555
Cs0_5 Te1_7 3.943006 1_555
Cs0_5 Te1_1 3.943006 1_555
Cs0_6 Te4_6 3.859836 1_555
Cs0_6 Te6_6 3.859836 1_555
Cs0_6 Te8_2 3.874217 1_655
Cs0_6 Te8_4 3.874217 1_555
Cs0_6 Te1_4 3.943006 1_565
Cs0_6 Te3_4 3.943006 1_565
Cs0_6 Te1_2 3.943006 1_555
Cs0_6 Te3_2 3.943006 1_555
Cs0_7 Te4_7 3.859836 1_555
Cs0_7 Te6_7 3.859836 1_555
Cs0_7 Te8_3 3.874217 1_655
Cs0_7 Te8_5 3.874217 1_555
Cs0_7 Te3_5 3.943006 1_565
Cs0_7 Te3_3 3.943006 1_555
Cs0_7 Te1_5 3.943006 1_565
Cs0_7 Te1_3 3.943006 1_555
Cs1_0 Te7_0 3.859836 1_555
Cs1_0 Te5_0 3.859836 1_555
Cs1_0 Te9_2 3.874217 1_555
Cs1_0 Te9_4 3.874217 1_455
Cs1_0 Te0_4 3.943006 1_555
Cs1_0 Te0_2 3.943006 1_545
Cs1_0 Te2_4 3.943006 1_555
Cs1_0 Te2_2 3.943006 1_545
Cs1_0 Cs1_6 4.666678 1_445
Cs1_0 Cs1_6 4.666678 1_555
Cs1_1 Te5_1 3.859836 1_555
Cs1_1 Te7_1 3.859836 1_555
Cs1_1 Te9_3 3.874217 1_555
Cs1_1 Te9_5 3.874217 1_455
Cs1_1 Te0_5 3.943006 1_555
Cs1_1 Te0_3 3.943006 1_545
Cs1_1 Te2_5 3.943006 1_555
Cs1_1 Te2_3 3.943006 1_545
Cs1_1 Cs1_7 4.666678 1_555
Cs1_1 Cs1_7 4.666678 1_445
Cs1_2 Te7_2 3.859836 1_555
Cs1_2 Te5_2 3.859836 1_555
Cs1_2 Te9_0 3.874217 1_565
Cs1_2 Te9_6 3.874217 1_455
Cs1_2 Te0_6 3.943006 1_555
Cs1_2 Te0_0 3.943006 1_555
Cs1_2 Te2_6 3.943006 1_555
Cs1_2 Te2_0 3.943006 1_555
Cs1_2 Cs1_4 4.666678 1_455
Cs1_2 Cs1_4 4.666678 1_565
Cs1_3 Te5_3 3.859836 1_555
Cs1_3 Te7_3 3.859836 1_555
Cs1_3 Te9_1 3.874217 1_565
Cs1_3 Te9_7 3.874217 1_455
Cs1_3 Te0_7 3.943006 1_555
Cs1_3 Te0_1 3.943006 1_555
Cs1_3 Te2_7 3.943006 1_555
Cs1_3 Te2_1 3.943006 1_555
Cs1_3 Cs1_5 4.666678 1_455
Cs1_3 Cs1_5 4.666678 1_565
Cs1_4 Te5_4 3.859836 1_555
Cs1_4 Te7_4 3.859836 1_555
Cs1_4 Te9_0 3.874217 1_555
Cs1_4 Te9_6 3.874217 1_555
Cs1_4 Te0_0 3.943006 1_655
Cs1_4 Te0_6 3.943006 1_545
Cs1_4 Te2_0 3.943006 1_655
Cs1_4 Te2_6 3.943006 1_545
Cs1_5 Te5_5 3.859836 1_555
Cs1_5 Te7_5 3.859836 1_555
Cs1_5 Te9_1 3.874217 1_555
Cs1_5 Te9_7 3.874217 1_555
Cs1_5 Te0_1 3.943006 1_655
Cs1_5 Te0_7 3.943006 1_545
Cs1_5 Te2_1 3.943006 1_655
Cs1_5 Te2_7 3.943006 1_545
Cs1_6 Te7_6 3.859836 1_555
Cs1_6 Te5_6 3.859836 1_555
Cs1_6 Te9_2 3.874217 1_555
Cs1_6 Te9_4 3.874217 1_565
Cs1_6 Te0_2 3.943006 1_655
Cs1_6 Te0_4 3.943006 1_555
Cs1_6 Te2_2 3.943006 1_655
Cs1_6 Te2_4 3.943006 1_555
Cs1_7 Te5_7 3.859836 1_555
Cs1_7 Te7_7 3.859836 1_555
Cs1_7 Te9_3 3.874217 1_555
Cs1_7 Te9_5 3.874217 1_565
Cs1_7 Te0_3 3.943006 1_655
Cs1_7 Te0_5 3.943006 1_555
Cs1_7 Te2_3 3.943006 1_655
Cs1_7 Te2_5 3.943006 1_555
Nd0_0 Te9_0 3.157131 1_555
Nd0_0 Te6_1 3.164063 1_555
Nd0_0 Te0_4 3.206534 1_555
Nd0_0 Te0_2 3.206534 1_545
Nd0_0 Te7_2 3.259071 1_545
Nd0_0 Te7_4 3.259071 1_555
Nd0_1 Te9_1 3.157131 1_555
Nd0_1 Te6_0 3.164063 1_556
Nd0_1 Te0_5 3.206534 1_555
Nd0_1 Te0_3 3.206534 1_545
Nd0_1 Te7_3 3.259071 1_545
Nd0_1 Te7_5 3.259071 1_555
Nd0_2 Te9_2 3.157131 1_555
Nd0_2 Te6_3 3.164063 1_555
Nd0_2 Te0_6 3.206534 1_555
Nd0_2 Te0_0 3.206534 1_555
Nd0_2 Te7_6 3.259071 1_555
Nd0_2 Te7_0 3.259071 1_555
Nd0_3 Te9_3 3.157131 1_555
Nd0_3 Te6_2 3.164063 1_556
Nd0_3 Te0_7 3.206534 1_555
Nd0_3 Te0_1 3.206534 1_555
Nd0_3 Te7_7 3.259071 1_555
Nd0_3 Te7_1 3.259071 1_555
Nd0_4 Te9_4 3.157131 1_555
Nd0_4 Te6_5 3.164063 1_555
Nd0_4 Te0_0 3.206534 1_655
Nd0_4 Te0_6 3.206534 1_545
Nd0_4 Te7_6 3.259071 1_545
Nd0_4 Te7_0 3.259071 1_655
Nd0_5 Te9_5 3.157131 1_555
Nd0_5 Te6_4 3.164063 1_556
Nd0_5 Te0_1 3.206534 1_655
Nd0_5 Te0_7 3.206534 1_545
Nd0_5 Te7_7 3.259071 1_545
Nd0_5 Te7_1 3.259071 1_655
Nd0_6 Te9_6 3.157131 1_555
Nd0_6 Te6_7 3.164063 1_555
Nd0_6 Te0_2 3.206534 1_655
Nd0_6 Te0_4 3.206534 1_555
Nd0_6 Te7_4 3.259071 1_555
Nd0_6 Te7_2 3.259071 1_655
Nd0_7 Te9_7 3.157131 1_555
Nd0_7 Te6_6 3.164063 1_556
Nd0_7 Te0_3 3.206534 1_655
Nd0_7 Te0_5 3.206534 1_555
Nd0_7 Te7_5 3.259071 1_555
Nd0_7 Te7_3 3.259071 1_655
Nd1_0 Te8_0 3.157131 1_555
Nd1_0 Te7_1 3.164063 1_554
Nd1_0 Te1_2 3.206534 1_555
Nd1_0 Te1_4 3.206534 1_455
Nd1_0 Te6_2 3.259071 1_555
Nd1_0 Te6_4 3.259071 1_455
Nd1_1 Te8_1 3.157131 1_555
Nd1_1 Te7_0 3.164063 1_555
Nd1_1 Te1_3 3.206534 1_555
Nd1_1 Te1_5 3.206534 1_455
Nd1_1 Te6_3 3.259071 1_555
Nd1_1 Te6_5 3.259071 1_455
Nd1_2 Te8_2 3.157131 1_555
Nd1_2 Te7_3 3.164063 1_554
Nd1_2 Te1_0 3.206534 1_565
Nd1_2 Te1_6 3.206534 1_455
Nd1_2 Te6_6 3.259071 1_455
Nd1_2 Te6_0 3.259071 1_565
Nd1_3 Te8_3 3.157131 1_555
Nd1_3 Te7_2 3.164063 1_555
Nd1_3 Te1_1 3.206534 1_565
Nd1_3 Te1_7 3.206534 1_455
Nd1_3 Te6_7 3.259071 1_455
Nd1_3 Te6_1 3.259071 1_565
Nd1_4 Te8_4 3.157131 1_555
Nd1_4 Te7_5 3.164063 1_554
Nd1_4 Te1_6 3.206534 1_555
Nd1_4 Te1_0 3.206534 1_555
Nd1_4 Te6_6 3.259071 1_555
Nd1_4 Te6_0 3.259071 1_555
Nd1_5 Te8_5 3.157131 1_555
Nd1_5 Te7_4 3.164063 1_555
Nd1_5 Te1_7 3.206534 1_555
Nd1_5 Te1_1 3.206534 1_555
Nd1_5 Te6_7 3.259071 1_555
Nd1_5 Te6_1 3.259071 1_555
Nd1_6 Te8_6 3.157131 1_555
Nd1_6 Te7_7 3.164063 1_554
Nd1_6 Te1_4 3.206534 1_565
Nd1_6 Te1_2 3.206534 1_555
Nd1_6 Te6_2 3.259071 1_555
Nd1_6 Te6_4 3.259071 1_565
Nd1_7 Te8_7 3.157131 1_555
Nd1_7 Te7_6 3.164063 1_555
Nd1_7 Te1_5 3.206534 1_565
Nd1_7 Te1_3 3.206534 1_555
Nd1_7 Te6_3 3.259071 1_555
Nd1_7 Te6_5 3.259071 1_565
Nd2_0 Te9_0 3.157131 1_555
Nd2_0 Te4_0 3.164063 1_555
Nd2_0 Te2_4 3.206534 1_555
Nd2_0 Te2_2 3.206534 1_545
Nd2_0 Te5_2 3.259071 1_545
Nd2_0 Te5_4 3.259071 1_555
Nd2_1 Te9_1 3.157131 1_555
Nd2_1 Te4_1 3.164063 1_555
Nd2_1 Te2_5 3.206534 1_555
Nd2_1 Te2_3 3.206534 1_545
Nd2_1 Te5_3 3.259071 1_545
Nd2_1 Te5_5 3.259071 1_555
Nd2_2 Te9_2 3.157131 1_555
Nd2_2 Te4_2 3.164063 1_555
Nd2_2 Te2_6 3.206534 1_555
Nd2_2 Te2_0 3.206534 1_555
Nd2_2 Te5_6 3.259071 1_555
Nd2_2 Te5_0 3.259071 1_555
Nd2_3 Te9_3 3.157131 1_555
Nd2_3 Te4_3 3.164063 1_555
Nd2_3 Te2_7 3.206534 1_555
Nd2_3 Te2_1 3.206534 1_555
Nd2_3 Te5_7 3.259071 1_555
Nd2_3 Te5_1 3.259071 1_555
Nd2_4 Te9_4 3.157131 1_555
Nd2_4 Te4_4 3.164063 1_555
Nd2_4 Te2_0 3.206534 1_655
Nd2_4 Te2_6 3.206534 1_545
Nd2_4 Te5_6 3.259071 1_545
Nd2_4 Te5_0 3.259071 1_655
Nd2_5 Te9_5 3.157131 1_555
Nd2_5 Te4_5 3.164063 1_555
Nd2_5 Te2_1 3.206534 1_655
Nd2_5 Te2_7 3.206534 1_545
Nd2_5 Te5_7 3.259071 1_545
Nd2_5 Te5_1 3.259071 1_655
Nd2_6 Te9_6 3.157131 1_555
Nd2_6 Te4_6 3.164063 1_555
Nd2_6 Te2_2 3.206534 1_655
Nd2_6 Te2_4 3.206534 1_555
Nd2_6 Te5_4 3.259071 1_555
Nd2_6 Te5_2 3.259071 1_655
Nd2_7 Te9_7 3.157131 1_555
Nd2_7 Te4_7 3.164063 1_555
Nd2_7 Te2_3 3.206534 1_655
Nd2_7 Te2_5 3.206534 1_555
Nd2_7 Te5_5 3.259071 1_555
Nd2_7 Te5_3 3.259071 1_655
Nd3_0 Te8_0 3.157131 1_555
Nd3_0 Te5_0 3.164063 1_555
Nd3_0 Te3_2 3.206534 1_555
Nd3_0 Te3_4 3.206534 1_455
Nd3_0 Te4_2 3.259071 1_555
Nd3_0 Te4_4 3.259071 1_455
Nd3_1 Te8_1 3.157131 1_555
Nd3_1 Te5_1 3.164063 1_555
Nd3_1 Te3_3 3.206534 1_555
Nd3_1 Te3_5 3.206534 1_455
Nd3_1 Te4_3 3.259071 1_555
Nd3_1 Te4_5 3.259071 1_455
Nd3_2 Te8_2 3.157131 1_555
Nd3_2 Te5_2 3.164063 1_555
Nd3_2 Te3_0 3.206534 1_565
Nd3_2 Te3_6 3.206534 1_455
Nd3_2 Te4_6 3.259071 1_455
Nd3_2 Te4_0 3.259071 1_565
Nd3_3 Te8_3 3.157131 1_555
Nd3_3 Te5_3 3.164063 1_555
Nd3_3 Te3_1 3.206534 1_565
Nd3_3 Te3_7 3.206534 1_455
Nd3_3 Te4_7 3.259071 1_455
Nd3_3 Te4_1 3.259071 1_565
Nd3_4 Te8_4 3.157131 1_555
Nd3_4 Te5_4 3.164063 1_555
Nd3_4 Te3_6 3.206534 1_555
Nd3_4 Te3_0 3.206534 1_555
Nd3_4 Te4_6 3.259071 1_555
Nd3_4 Te4_0 3.259071 1_555
Nd3_5 Te8_5 3.157131 1_555
Nd3_5 Te5_5 3.164063 1_555
Nd3_5 Te3_7 3.206534 1_555
Nd3_5 Te3_1 3.206534 1_555
Nd3_5 Te4_7 3.259071 1_555
Nd3_5 Te4_1 3.259071 1_555
Nd3_6 Te8_6 3.157131 1_555
Nd3_6 Te5_6 3.164063 1_555
Nd3_6 Te3_4 3.206534 1_565
Nd3_6 Te3_2 3.206534 1_555
Nd3_6 Te4_2 3.259071 1_555
Nd3_6 Te4_4 3.259071 1_565
Nd3_7 Te8_7 3.157131 1_555
Nd3_7 Te5_7 3.164063 1_555
Nd3_7 Te3_5 3.206534 1_565
Nd3_7 Te3_3 3.206534 1_555
Nd3_7 Te4_3 3.259071 1_555
Nd3_7 Te4_5 3.259071 1_565
Ag0_0 Te8_2 2.801513 1_545
Ag0_0 Te8_4 2.801513 1_555
Ag0_0 Te1_0 2.972957 1_555
Ag0_0 Te3_0 2.972957 1_555
Ag0_0 Cs0_2 4.299542 1_545
Ag0_0 Cs0_4 4.299542 1_555
Ag0_1 Te8_3 2.801513 1_545
Ag0_1 Te8_5 2.801513 1_555
Ag0_1 Te3_1 2.972957 1_555
Ag0_1 Te1_1 2.972957 1_555
Ag0_1 Cs0_3 4.299542 1_545
Ag0_1 Cs0_5 4.299542 1_555
Ag0_2 Te8_0 2.801513 1_555
Ag0_2 Te8_6 2.801513 1_555
Ag0_2 Te1_2 2.972957 1_555
Ag0_2 Te3_2 2.972957 1_555
Ag0_2 Cs0_0 4.299542 1_555
Ag0_2 Cs0_6 4.299542 1_555
Ag0_3 Te8_1 2.801513 1_555
Ag0_3 Te8_7 2.801513 1_555
Ag0_3 Te3_3 2.972957 1_555
Ag0_3 Te1_3 2.972957 1_555
Ag0_3 Cs0_1 4.299542 1_555
Ag0_3 Cs0_7 4.299542 1_555
Ag0_4 Te8_6 2.801513 1_545
Ag0_4 Te8_0 2.801513 1_655
Ag0_4 Te1_4 2.972957 1_555
Ag0_4 Te3_4 2.972957 1_555
Ag0_4 Cs0_6 4.299542 1_545
Ag0_4 Cs0_0 4.299542 1_655
Ag0_5 Te8_7 2.801513 1_545
Ag0_5 Te8_1 2.801513 1_655
Ag0_5 Te3_5 2.972957 1_555
Ag0_5 Te1_5 2.972957 1_555
Ag0_5 Cs0_7 4.299542 1_545
Ag0_5 Cs0_1 4.299542 1_655
Ag0_6 Te8_4 2.801513 1_555
Ag0_6 Te8_2 2.801513 1_655
Ag0_6 Te1_6 2.972957 1_555
Ag0_6 Te3_6 2.972957 1_555
Ag0_6 Cs0_4 4.299542 1_555
Ag0_6 Cs0_2 4.299542 1_655
Ag0_7 Te8_5 2.801513 1_555
Ag0_7 Te8_3 2.801513 1_655
Ag0_7 Te3_7 2.972957 1_555
Ag0_7 Te1_7 2.972957 1_555
Ag0_7 Cs0_5 4.299542 1_555
Ag0_7 Cs0_3 4.299542 1_655
Ag1_0 Te9_4 2.801513 1_455
Ag1_0 Te9_2 2.801513 1_555
Ag1_0 Te0_0 2.972957 1_555
Ag1_0 Te2_0 2.972957 1_555
Ag1_0 Cs1_4 4.299542 1_455
Ag1_0 Cs1_2 4.299542 1_555
Ag1_1 Te9_5 2.801513 1_455
Ag1_1 Te9_3 2.801513 1_555
Ag1_1 Te0_1 2.972957 1_555
Ag1_1 Te2_1 2.972957 1_555
Ag1_1 Cs1_5 4.299542 1_455
Ag1_1 Cs1_3 4.299542 1_555
Ag1_2 Te9_6 2.801513 1_455
Ag1_2 Te9_0 2.801513 1_565
Ag1_2 Te0_2 2.972957 1_555
Ag1_2 Te2_2 2.972957 1_555
Ag1_2 Cs1_6 4.299542 1_455
Ag1_2 Cs1_0 4.299542 1_565
Ag1_3 Te9_7 2.801513 1_455
Ag1_3 Te9_1 2.801513 1_565
Ag1_3 Te0_3 2.972957 1_555
Ag1_3 Te2_3 2.972957 1_555
Ag1_3 Cs1_7 4.299542 1_455
Ag1_3 Cs1_1 4.299542 1_565
Ag1_4 Te9_0 2.801513 1_555
Ag1_4 Te9_6 2.801513 1_555
Ag1_4 Te0_4 2.972957 1_555
Ag1_4 Te2_4 2.972957 1_555
Ag1_4 Cs1_0 4.299542 1_555
Ag1_4 Cs1_6 4.299542 1_555
Ag1_5 Te9_1 2.801513 1_555
Ag1_5 Te9_7 2.801513 1_555
Ag1_5 Te0_5 2.972957 1_555
Ag1_5 Te2_5 2.972957 1_555
Ag1_5 Cs1_1 4.299542 1_555
Ag1_5 Cs1_7 4.299542 1_555
Ag1_6 Te9_2 2.801513 1_555
Ag1_6 Te9_4 2.801513 1_565
Ag1_6 Te0_6 2.972957 1_555
Ag1_6 Te2_6 2.972957 1_555
Ag1_6 Cs1_2 4.299542 1_555
Ag1_6 Cs1_4 4.299542 1_565
Ag1_7 Te9_3 2.801513 1_555
Ag1_7 Te9_5 2.801513 1_565
Ag1_7 Te0_7 2.972957 1_555
Ag1_7 Te2_7 2.972957 1_555
Ag1_7 Cs1_3 4.299542 1_555
Ag1_7 Cs1_5 4.299542 1_565
Ag2_0 Te4_4 2.860730 1_455
Ag2_0 Te4_2 2.860730 1_555
Ag2_0 Te2_0 2.870757 1_555
Ag2_0 Te3_6 2.953734 1_455
Ag2_0 Ag3_6 3.066863 1_455
Ag2_0 Nd2_4 3.730566 1_455
Ag2_0 Nd2_2 3.730566 1_555
Ag2_1 Te4_5 2.860730 1_455
Ag2_1 Te4_3 2.860730 1_555
Ag2_1 Te2_1 2.870757 1_555
Ag2_1 Te3_7 2.953734 1_455
Ag2_1 Ag3_7 3.066863 1_455
Ag2_1 Nd2_5 3.730566 1_455
Ag2_1 Nd2_3 3.730566 1_555
Ag2_2 Te4_6 2.860730 1_455
Ag2_2 Te4_0 2.860730 1_565
Ag2_2 Te2_2 2.870757 1_555
Ag2_2 Te3_4 2.953734 1_465
Ag2_2 Ag3_4 3.066863 1_465
Ag2_2 Nd2_6 3.730566 1_455
Ag2_2 Nd2_0 3.730566 1_565
Ag2_3 Te4_7 2.860730 1_455
Ag2_3 Te4_1 2.860730 1_565
Ag2_3 Te2_3 2.870757 1_555
Ag2_3 Te3_5 2.953734 1_465
Ag2_3 Ag3_5 3.066863 1_465
Ag2_3 Nd2_7 3.730566 1_455
Ag2_3 Nd2_1 3.730566 1_565
Ag2_4 Te4_0 2.860730 1_555
Ag2_4 Te4_6 2.860730 1_555
Ag2_4 Te2_4 2.870757 1_555
Ag2_4 Te3_2 2.953734 1_555
Ag2_4 Ag3_2 3.066863 1_555
Ag2_4 Nd2_0 3.730566 1_555
Ag2_4 Nd2_6 3.730566 1_555
Ag2_5 Te4_1 2.860730 1_555
Ag2_5 Te4_7 2.860730 1_555
Ag2_5 Te2_5 2.870757 1_555
Ag2_5 Te3_3 2.953734 1_555
Ag2_5 Ag3_3 3.066863 1_555
Ag2_5 Nd2_1 3.730566 1_555
Ag2_5 Nd2_7 3.730566 1_555
Ag2_6 Te4_2 2.860730 1_555
Ag2_6 Te4_4 2.860730 1_565
Ag2_6 Te2_6 2.870757 1_555
Ag2_6 Te3_0 2.953734 1_565
Ag2_6 Ag3_0 3.066863 1_565
Ag2_6 Nd2_2 3.730566 1_555
Ag2_6 Nd2_4 3.730566 1_565
Ag2_7 Te4_3 2.860730 1_555
Ag2_7 Te4_5 2.860730 1_565
Ag2_7 Te2_7 2.870757 1_555
Ag2_7 Te3_1 2.953734 1_565
Ag2_7 Ag3_1 3.066863 1_565
Ag2_7 Nd2_3 3.730566 1_555
Ag2_7 Nd2_5 3.730566 1_565
Ag3_0 Te5_2 2.860730 1_545
Ag3_0 Te5_4 2.860730 1_555
Ag3_0 Te3_0 2.870757 1_555
Ag3_0 Te2_6 2.953734 1_545
Ag3_0 Nd3_2 3.730566 1_545
Ag3_0 Nd3_4 3.730566 1_555
Ag3_1 Te5_3 2.860730 1_545
Ag3_1 Te5_5 2.860730 1_555
Ag3_1 Te3_1 2.870757 1_555
Ag3_1 Te2_7 2.953734 1_545
Ag3_1 Nd3_3 3.730566 1_545
Ag3_1 Nd3_5 3.730566 1_555
Ag3_2 Te5_0 2.860730 1_555
Ag3_2 Te5_6 2.860730 1_555
Ag3_2 Te3_2 2.870757 1_555
Ag3_2 Te2_4 2.953734 1_555
Ag3_2 Nd3_0 3.730566 1_555
Ag3_2 Nd3_6 3.730566 1_555
Ag3_3 Te5_1 2.860730 1_555
Ag3_3 Te5_7 2.860730 1_555
Ag3_3 Te3_3 2.870757 1_555
Ag3_3 Te2_5 2.953734 1_555
Ag3_3 Nd3_1 3.730566 1_555
Ag3_3 Nd3_7 3.730566 1_555
Ag3_4 Te5_6 2.860730 1_545
Ag3_4 Te5_0 2.860730 1_655
Ag3_4 Te3_4 2.870757 1_555
Ag3_4 Te2_2 2.953734 1_645
Ag3_4 Nd3_6 3.730566 1_545
Ag3_4 Nd3_0 3.730566 1_655
Ag3_5 Te5_7 2.860730 1_545
Ag3_5 Te5_1 2.860730 1_655
Ag3_5 Te3_5 2.870757 1_555
Ag3_5 Te2_3 2.953734 1_645
Ag3_5 Nd3_7 3.730566 1_545
Ag3_5 Nd3_1 3.730566 1_655
Ag3_6 Te5_4 2.860730 1_555
Ag3_6 Te5_2 2.860730 1_655
Ag3_6 Te3_6 2.870757 1_555
Ag3_6 Te2_0 2.953734 1_655
Ag3_6 Nd3_4 3.730566 1_555
Ag3_6 Nd3_2 3.730566 1_655
Ag3_7 Te5_5 2.860730 1_555
Ag3_7 Te5_3 2.860730 1_655
Ag3_7 Te3_7 2.870757 1_555
Ag3_7 Te2_1 2.953734 1_655
Ag3_7 Nd3_5 3.730566 1_555
Ag3_7 Nd3_3 3.730566 1_655
Ag4_0 Te6_4 2.860730 1_455
Ag4_0 Te6_2 2.860730 1_555
Ag4_0 Te0_1 2.870757 1_554
Ag4_0 Te1_6 2.953734 1_455
Ag4_0 Ag5_7 3.066863 1_454
Ag4_0 Nd0_5 3.730566 1_454
Ag4_0 Nd0_3 3.730566 1_554
Ag4_1 Te6_5 2.860730 1_455
Ag4_1 Te6_3 2.860730 1_555
Ag4_1 Te0_0 2.870757 1_555
Ag4_1 Te1_7 2.953734 1_455
Ag4_1 Ag5_6 3.066863 1_455
Ag4_1 Nd0_4 3.730566 1_455
Ag4_1 Nd0_2 3.730566 1_555
Ag4_2 Te6_6 2.860730 1_455
Ag4_2 Te6_0 2.860730 1_565
Ag4_2 Te0_3 2.870757 1_554
Ag4_2 Te1_4 2.953734 1_465
Ag4_2 Ag5_5 3.066863 1_464
Ag4_2 Nd0_7 3.730566 1_454
Ag4_2 Nd0_1 3.730566 1_564
Ag4_3 Te6_7 2.860730 1_455
Ag4_3 Te6_1 2.860730 1_565
Ag4_3 Te0_2 2.870757 1_555
Ag4_3 Te1_5 2.953734 1_465
Ag4_3 Ag5_4 3.066863 1_465
Ag4_3 Nd0_6 3.730566 1_455
Ag4_3 Nd0_0 3.730566 1_565
Ag4_4 Te6_0 2.860730 1_555
Ag4_4 Te6_6 2.860730 1_555
Ag4_4 Te0_5 2.870757 1_554
Ag4_4 Te1_2 2.953734 1_555
Ag4_4 Ag5_3 3.066863 1_554
Ag4_4 Nd0_1 3.730566 1_554
Ag4_4 Nd0_7 3.730566 1_554
Ag4_5 Te6_1 2.860730 1_555
Ag4_5 Te6_7 2.860730 1_555
Ag4_5 Te0_4 2.870757 1_555
Ag4_5 Te1_3 2.953734 1_555
Ag4_5 Ag5_2 3.066863 1_555
Ag4_5 Nd0_0 3.730566 1_555
Ag4_5 Nd0_6 3.730566 1_555
Ag4_6 Te6_2 2.860730 1_555
Ag4_6 Te6_4 2.860730 1_565
Ag4_6 Te0_7 2.870757 1_554
Ag4_6 Te1_0 2.953734 1_565
Ag4_6 Ag5_1 3.066863 1_564
Ag4_6 Nd0_3 3.730566 1_554
Ag4_6 Nd0_5 3.730566 1_564
Ag4_7 Te6_3 2.860730 1_555
Ag4_7 Te6_5 2.860730 1_565
Ag4_7 Te0_6 2.870757 1_555
Ag4_7 Te1_1 2.953734 1_565
Ag4_7 Ag5_0 3.066863 1_565
Ag4_7 Nd0_2 3.730566 1_555
Ag4_7 Nd0_4 3.730566 1_565
Ag5_0 Te7_2 2.860730 1_545
Ag5_0 Te7_4 2.860730 1_555
Ag5_0 Te1_1 2.870757 1_555
Ag5_0 Te0_6 2.953734 1_545
Ag5_0 Nd1_3 3.730566 1_545
Ag5_0 Nd1_5 3.730566 1_555
Ag5_1 Te7_3 2.860730 1_545
Ag5_1 Te7_5 2.860730 1_555
Ag5_1 Te1_0 2.870757 1_556
Ag5_1 Te0_7 2.953734 1_545
Ag5_1 Nd1_2 3.730566 1_546
Ag5_1 Nd1_4 3.730566 1_556
Ag5_2 Te7_0 2.860730 1_555
Ag5_2 Te7_6 2.860730 1_555
Ag5_2 Te1_3 2.870757 1_555
Ag5_2 Te0_4 2.953734 1_555
Ag5_2 Nd1_1 3.730566 1_555
Ag5_2 Nd1_7 3.730566 1_555
Ag5_3 Te7_1 2.860730 1_555
Ag5_3 Te7_7 2.860730 1_555
Ag5_3 Te1_2 2.870757 1_556
Ag5_3 Te0_5 2.953734 1_555
Ag5_3 Nd1_0 3.730566 1_556
Ag5_3 Nd1_6 3.730566 1_556
Ag5_4 Te7_6 2.860730 1_545
Ag5_4 Te7_0 2.860730 1_655
Ag5_4 Te1_5 2.870757 1_555
Ag5_4 Te0_2 2.953734 1_645
Ag5_4 Nd1_7 3.730566 1_545
Ag5_4 Nd1_1 3.730566 1_655
Ag5_5 Te7_7 2.860730 1_545
Ag5_5 Te7_1 2.860730 1_655
Ag5_5 Te1_4 2.870757 1_556
Ag5_5 Te0_3 2.953734 1_645
Ag5_5 Nd1_6 3.730566 1_546
Ag5_5 Nd1_0 3.730566 1_656
Ag5_6 Te7_4 2.860730 1_555
Ag5_6 Te7_2 2.860730 1_655
Ag5_6 Te1_7 2.870757 1_555
Ag5_6 Te0_0 2.953734 1_655
Ag5_6 Nd1_5 3.730566 1_555
Ag5_6 Nd1_3 3.730566 1_655
Ag5_7 Te7_5 2.860730 1_555
Ag5_7 Te7_3 2.860730 1_655
Ag5_7 Te1_6 2.870757 1_556
Ag5_7 Te0_1 2.953734 1_655
Ag5_7 Nd1_4 3.730566 1_556
Ag5_7 Nd1_2 3.730566 1_656
