# generated using pymatgen
data_PrEuNbFeO6
_symmetry_space_group_name_H-M   'P 1'
_cell_length_a   5.66655015
_cell_length_b   5.66655015
_cell_length_c   5.66655015
_cell_angle_alpha   60.00000000
_cell_angle_beta   60.00000000
_cell_angle_gamma   60.00000000
_symmetry_Int_Tables_number   1
_chemical_formula_structural   PrEuNbFeO6
_chemical_formula_sum   'Pr1 Eu1 Nb1 Fe1 O6'
_cell_volume   128.65930861
_cell_formula_units_Z   1
loop_
 _symmetry_equiv_pos_site_id
 _symmetry_equiv_pos_as_xyz
  1  'x, y, z'
loop_
 _atom_site_type_symbol
 _atom_site_label
 _atom_site_symmetry_multiplicity
 _atom_site_fract_x
 _atom_site_fract_y
 _atom_site_fract_z
 _atom_site_occupancy
  Pr  Pr0  1  0.75000000  0.75000000  0.75000000  1
  Eu  Eu0  1  0.25000000  0.25000000  0.25000000  1
  Nb  Nb0  1  0.50000000  0.50000000  0.50000000  1
  Fe  Fe0  1  0.00000000  0.00000000  0.00000000  1
  O  O0  1  0.75012795  0.24987205  0.24987205  1
  O  O1  1  0.24987205  0.75012795  0.75012795  1
  O  O2  1  0.75012795  0.24987205  0.75012795  1
  O  O3  1  0.24987205  0.75012795  0.24987205  1
  O  O4  1  0.75012795  0.75012795  0.24987205  1
  O  O5  1  0.24987205  0.24987205  0.75012795  1
loop_
_geom_bond_atom_site_label_1
_geom_bond_atom_site_label_2
_geom_bond_distance
_geom_bond_site_symmetry_2
Eu0 O5 2.833275 1_555
Eu0 O5 2.833275 1_554
Eu0 O2 2.833275 1_554
Eu0 O0 2.833275 1_455
Eu0 O4 2.833275 1_545
Eu0 O3 2.833275 1_555
Eu0 O1 2.833275 1_545
Eu0 O0 2.833275 1_555
Eu0 O4 2.833275 1_455
Eu0 O1 2.833275 1_554
Eu0 O3 2.833275 1_545
Eu0 O2 2.833275 1_455
Nb0 O4 2.004453 1_555
Nb0 O5 2.004453 1_555
Nb0 O3 2.004453 1_555
Nb0 O0 2.004453 1_555
Nb0 O2 2.004453 1_555
Nb0 O1 2.004453 1_555
Fe0 O4 2.002403 1_445
Fe0 O3 2.002403 1_545
Fe0 O5 2.002403 1_554
Fe0 O2 2.002403 1_454
Fe0 O1 2.002403 1_544
Fe0 O0 2.002403 1_455
O0 Pr0 2.833275 1_545
O0 Pr0 2.833275 1_554
O1 Pr0 2.833275 1_455
O1 Pr0 2.833275 1_555
O2 Pr0 2.833275 1_545
O2 Pr0 2.833275 1_555
O3 Pr0 2.833275 1_455
O3 Pr0 2.833275 1_554
O4 Pr0 2.833275 1_554
O4 Pr0 2.833275 1_555
O5 Pr0 2.833275 1_545
O5 Pr0 2.833275 1_455
