# generated using pymatgen
data_Zn3Cu
_symmetry_space_group_name_H-M   'P 1'
_cell_length_a   5.28747781
_cell_length_b   5.28747781
_cell_length_c   17.08207600
_cell_angle_alpha   90.00000000
_cell_angle_beta   90.00000000
_cell_angle_gamma   110.07302290
_symmetry_Int_Tables_number   1
_chemical_formula_structural   Zn3Cu
_chemical_formula_sum   'Zn24 Cu8'
_cell_volume   448.56121957
_cell_formula_units_Z   8
loop_
 _symmetry_equiv_pos_site_id
 _symmetry_equiv_pos_as_xyz
  1  'x, y, z'
loop_
 _atom_site_type_symbol
 _atom_site_label
 _atom_site_symmetry_multiplicity
 _atom_site_fract_x
 _atom_site_fract_y
 _atom_site_fract_z
 _atom_site_occupancy
  Zn  Zn0_0  1  0.25000000  0.25000000  0.38184000  1
  Zn  Zn0_1  1  0.25000000  0.25000000  0.88184000  1
  Zn  Zn0_2  1  0.25000000  0.75000000  0.38184000  1
  Zn  Zn0_3  1  0.25000000  0.75000000  0.88184000  1
  Zn  Zn0_4  1  0.75000000  0.25000000  0.38184000  1
  Zn  Zn0_5  1  0.75000000  0.25000000  0.88184000  1
  Zn  Zn0_6  1  0.75000000  0.75000000  0.38184000  1
  Zn  Zn0_7  1  0.75000000  0.75000000  0.88184000  1
  Zn  Zn1_0  1  0.00000000  0.00000000  0.25000000  1
  Zn  Zn1_1  1  0.00000000  0.00000000  0.75000000  1
  Zn  Zn1_2  1  0.00000000  0.50000000  0.25000000  1
  Zn  Zn1_3  1  0.00000000  0.50000000  0.75000000  1
  Zn  Zn1_4  1  0.50000000  0.00000000  0.25000000  1
  Zn  Zn1_5  1  0.50000000  0.00000000  0.75000000  1
  Zn  Zn1_6  1  0.50000000  0.50000000  0.25000000  1
  Zn  Zn1_7  1  0.50000000  0.50000000  0.75000000  1
  Zn  Zn2_0  1  0.25000000  0.25000000  0.11816000  1
  Zn  Zn2_1  1  0.25000000  0.25000000  0.61816000  1
  Zn  Zn2_2  1  0.25000000  0.75000000  0.11816000  1
  Zn  Zn2_3  1  0.25000000  0.75000000  0.61816000  1
  Zn  Zn2_4  1  0.75000000  0.25000000  0.11816000  1
  Zn  Zn2_5  1  0.75000000  0.25000000  0.61816000  1
  Zn  Zn2_6  1  0.75000000  0.75000000  0.11816000  1
  Zn  Zn2_7  1  0.75000000  0.75000000  0.61816000  1
  Cu  Cu0_0  1  0.00000000  0.00000000  0.00000000  1
  Cu  Cu0_1  1  0.00000000  0.00000000  0.50000000  1
  Cu  Cu0_2  1  0.00000000  0.50000000  0.00000000  1
  Cu  Cu0_3  1  0.00000000  0.50000000  0.50000000  1
  Cu  Cu0_4  1  0.50000000  0.00000000  0.00000000  1
  Cu  Cu0_5  1  0.50000000  0.00000000  0.50000000  1
  Cu  Cu0_6  1  0.50000000  0.50000000  0.00000000  1
  Cu  Cu0_7  1  0.50000000  0.50000000  0.50000000  1
loop_
_geom_bond_atom_site_label_1
_geom_bond_atom_site_label_2
_geom_bond_distance
_geom_bond_site_symmetry_2
Zn0_0 Zn0_4 2.643739 1_455
Zn0_0 Zn0_4 2.643739 1_555
Zn0_0 Zn0_2 2.643739 1_555
Zn0_0 Zn0_2 2.643739 1_545
Zn0_0 Zn1_6 2.714259 1_555
Zn0_0 Zn1_0 2.714259 1_555
Zn0_0 Zn0_6 3.030012 1_445
Zn0_0 Zn0_6 3.030012 1_555
Zn0_0 Zn1_2 3.125071 1_555
Zn0_0 Zn1_4 3.125071 1_555
Zn0_1 Zn0_3 2.643739 1_555
Zn0_1 Zn0_3 2.643739 1_545
Zn0_1 Zn0_5 2.643739 1_555
Zn0_1 Zn0_5 2.643739 1_455
Zn0_1 Zn1_1 2.714259 1_555
Zn0_1 Zn1_7 2.714259 1_555
Zn0_1 Zn0_7 3.030012 1_445
Zn0_1 Zn0_7 3.030012 1_555
Zn0_1 Zn1_3 3.125071 1_555
Zn0_1 Zn1_5 3.125071 1_555
Zn0_2 Zn0_6 2.643739 1_455
Zn0_2 Zn0_6 2.643739 1_555
Zn0_2 Zn1_4 2.714259 1_565
Zn0_2 Zn1_2 2.714259 1_555
Zn0_2 Zn0_4 3.030012 1_565
Zn0_2 Zn0_4 3.030012 1_455
Zn0_2 Zn1_6 3.125071 1_555
Zn0_2 Zn1_0 3.125071 1_565
Zn0_3 Zn0_7 2.643739 1_455
Zn0_3 Zn0_7 2.643739 1_555
Zn0_3 Zn1_3 2.714259 1_555
Zn0_3 Zn1_5 2.714259 1_565
Zn0_3 Zn0_5 3.030012 1_455
Zn0_3 Zn0_5 3.030012 1_565
Zn0_3 Zn1_1 3.125071 1_565
Zn0_3 Zn1_7 3.125071 1_555
Zn0_4 Zn0_6 2.643739 1_545
Zn0_4 Zn0_6 2.643739 1_555
Zn0_4 Zn1_2 2.714259 1_655
Zn0_4 Zn1_4 2.714259 1_555
Zn0_4 Zn1_6 3.125071 1_555
Zn0_4 Zn1_0 3.125071 1_655
Zn0_5 Zn0_7 2.643739 1_545
Zn0_5 Zn0_7 2.643739 1_555
Zn0_5 Zn1_3 2.714259 1_655
Zn0_5 Zn1_5 2.714259 1_555
Zn0_5 Zn1_7 3.125071 1_555
Zn0_5 Zn1_1 3.125071 1_655
Zn0_6 Zn1_0 2.714259 1_665
Zn0_6 Zn1_6 2.714259 1_555
Zn0_6 Zn1_4 3.125071 1_565
Zn0_6 Zn1_2 3.125071 1_655
Zn0_7 Zn1_1 2.714259 1_665
Zn0_7 Zn1_7 2.714259 1_555
Zn0_7 Zn1_3 3.125071 1_655
Zn0_7 Zn1_5 3.125071 1_565
Zn1_0 Zn1_2 2.643739 1_555
Zn1_0 Zn1_2 2.643739 1_545
Zn1_0 Zn1_4 2.643739 1_455
Zn1_0 Zn1_4 2.643739 1_555
Zn1_0 Zn2_6 2.714259 1_445
Zn1_0 Zn2_0 2.714259 1_555
Zn1_0 Zn1_6 3.030012 1_445
Zn1_0 Zn1_6 3.030012 1_555
Zn1_0 Zn2_2 3.125071 1_545
Zn1_0 Zn2_4 3.125071 1_455
Zn1_1 Zn1_5 2.643739 1_555
Zn1_1 Zn1_3 2.643739 1_545
Zn1_1 Zn1_5 2.643739 1_455
Zn1_1 Zn1_3 2.643739 1_555
Zn1_1 Zn2_7 2.714259 1_445
Zn1_1 Zn2_1 2.714259 1_555
Zn1_1 Zn1_7 3.030012 1_445
Zn1_1 Zn1_7 3.030012 1_555
Zn1_1 Zn2_5 3.125071 1_455
Zn1_1 Zn2_3 3.125071 1_545
Zn1_2 Zn1_6 2.643739 1_555
Zn1_2 Zn1_6 2.643739 1_455
Zn1_2 Zn2_4 2.714259 1_455
Zn1_2 Zn2_2 2.714259 1_555
Zn1_2 Zn1_4 3.030012 1_455
Zn1_2 Zn1_4 3.030012 1_565
Zn1_2 Zn2_6 3.125071 1_455
Zn1_2 Zn2_0 3.125071 1_555
Zn1_3 Zn1_7 2.643739 1_555
Zn1_3 Zn1_7 2.643739 1_455
Zn1_3 Zn2_5 2.714259 1_455
Zn1_3 Zn2_3 2.714259 1_555
Zn1_3 Zn1_5 3.030012 1_455
Zn1_3 Zn1_5 3.030012 1_565
Zn1_3 Zn2_1 3.125071 1_555
Zn1_3 Zn2_7 3.125071 1_455
Zn1_4 Zn1_6 2.643739 1_555
Zn1_4 Zn1_6 2.643739 1_545
Zn1_4 Zn2_2 2.714259 1_545
Zn1_4 Zn2_4 2.714259 1_555
Zn1_4 Zn2_0 3.125071 1_555
Zn1_4 Zn2_6 3.125071 1_545
Zn1_5 Zn1_7 2.643739 1_555
Zn1_5 Zn1_7 2.643739 1_545
Zn1_5 Zn2_5 2.714259 1_555
Zn1_5 Zn2_3 2.714259 1_545
Zn1_5 Zn2_1 3.125071 1_555
Zn1_5 Zn2_7 3.125071 1_545
Zn1_6 Zn2_0 2.714259 1_555
Zn1_6 Zn2_6 2.714259 1_555
Zn1_6 Zn2_2 3.125071 1_555
Zn1_6 Zn2_4 3.125071 1_555
Zn1_7 Zn2_1 2.714259 1_555
Zn1_7 Zn2_7 2.714259 1_555
Zn1_7 Zn2_5 3.125071 1_555
Zn1_7 Zn2_3 3.125071 1_555
Zn2_0 Zn2_2 2.643739 1_545
Zn2_0 Zn2_4 2.643739 1_455
Zn2_0 Zn2_4 2.643739 1_555
Zn2_0 Zn2_2 2.643739 1_555
Zn2_0 Zn2_6 3.030012 1_445
Zn2_0 Zn2_6 3.030012 1_555
Zn2_1 Zn2_5 2.643739 1_455
Zn2_1 Zn2_3 2.643739 1_545
Zn2_1 Zn2_5 2.643739 1_555
Zn2_1 Zn2_3 2.643739 1_555
Zn2_1 Zn2_7 3.030012 1_445
Zn2_1 Zn2_7 3.030012 1_555
Zn2_2 Zn2_6 2.643739 1_455
Zn2_2 Zn2_6 2.643739 1_555
Zn2_2 Zn2_4 3.030012 1_565
Zn2_2 Zn2_4 3.030012 1_455
Zn2_3 Zn2_7 2.643739 1_455
Zn2_3 Zn2_7 2.643739 1_555
Zn2_3 Zn2_5 3.030012 1_455
Zn2_3 Zn2_5 3.030012 1_565
Zn2_4 Zn2_6 2.643739 1_545
Zn2_4 Zn2_6 2.643739 1_555
Zn2_5 Zn2_7 2.643739 1_545
Zn2_5 Zn2_7 2.643739 1_555
Cu0_0 Zn0_7 2.523738 1_444
Cu0_0 Zn0_1 2.523738 1_554
Cu0_0 Zn2_6 2.523738 1_445
Cu0_0 Zn2_0 2.523738 1_555
Cu0_0 Cu0_4 2.643739 1_555
Cu0_0 Cu0_2 2.643739 1_545
Cu0_0 Cu0_4 2.643739 1_455
Cu0_0 Cu0_2 2.643739 1_555
Cu0_0 Zn0_3 2.961102 1_544
Cu0_0 Zn0_5 2.961102 1_454
Cu0_0 Zn2_2 2.961102 1_545
Cu0_0 Zn2_4 2.961102 1_455
Cu0_1 Zn0_6 2.523738 1_445
Cu0_1 Zn0_0 2.523738 1_555
Cu0_1 Zn2_7 2.523738 1_445
Cu0_1 Zn2_1 2.523738 1_555
Cu0_1 Cu0_3 2.643739 1_545
Cu0_1 Cu0_3 2.643739 1_555
Cu0_1 Cu0_5 2.643739 1_455
Cu0_1 Cu0_5 2.643739 1_555
Cu0_1 Zn0_2 2.961102 1_545
Cu0_1 Zn0_4 2.961102 1_455
Cu0_1 Zn2_5 2.961102 1_455
Cu0_1 Zn2_3 2.961102 1_545
Cu0_2 Zn0_5 2.523738 1_454
Cu0_2 Zn0_3 2.523738 1_554
Cu0_2 Zn2_4 2.523738 1_455
Cu0_2 Zn2_2 2.523738 1_555
Cu0_2 Cu0_6 2.643739 1_555
Cu0_2 Cu0_6 2.643739 1_455
Cu0_2 Zn0_1 2.961102 1_554
Cu0_2 Zn0_7 2.961102 1_454
Cu0_2 Zn2_6 2.961102 1_455
Cu0_2 Zn2_0 2.961102 1_555
Cu0_3 Zn0_2 2.523738 1_555
Cu0_3 Zn0_4 2.523738 1_455
Cu0_3 Zn2_3 2.523738 1_555
Cu0_3 Zn2_5 2.523738 1_455
Cu0_3 Cu0_7 2.643739 1_555
Cu0_3 Cu0_7 2.643739 1_455
Cu0_3 Zn0_6 2.961102 1_455
Cu0_3 Zn0_0 2.961102 1_555
Cu0_3 Zn2_7 2.961102 1_455
Cu0_3 Zn2_1 2.961102 1_555
Cu0_4 Zn0_5 2.523738 1_554
Cu0_4 Zn0_3 2.523738 1_544
Cu0_4 Zn2_4 2.523738 1_555
Cu0_4 Zn2_2 2.523738 1_545
Cu0_4 Cu0_6 2.643739 1_555
Cu0_4 Cu0_6 2.643739 1_545
Cu0_4 Zn0_1 2.961102 1_554
Cu0_4 Zn0_7 2.961102 1_544
Cu0_4 Zn2_6 2.961102 1_545
Cu0_4 Zn2_0 2.961102 1_555
Cu0_5 Zn0_4 2.523738 1_555
Cu0_5 Zn0_2 2.523738 1_545
Cu0_5 Zn2_5 2.523738 1_555
Cu0_5 Zn2_3 2.523738 1_545
Cu0_5 Cu0_7 2.643739 1_555
Cu0_5 Cu0_7 2.643739 1_545
Cu0_5 Zn0_6 2.961102 1_545
Cu0_5 Zn0_0 2.961102 1_555
Cu0_5 Zn2_7 2.961102 1_545
Cu0_5 Zn2_1 2.961102 1_555
Cu0_6 Zn0_1 2.523738 1_554
Cu0_6 Zn0_7 2.523738 1_554
Cu0_6 Zn2_0 2.523738 1_555
Cu0_6 Zn2_6 2.523738 1_555
Cu0_6 Zn0_5 2.961102 1_554
Cu0_6 Zn0_3 2.961102 1_554
Cu0_6 Zn2_4 2.961102 1_555
Cu0_6 Zn2_2 2.961102 1_555
Cu0_7 Zn0_0 2.523738 1_555
Cu0_7 Zn2_1 2.523738 1_555
Cu0_7 Zn0_6 2.523738 1_555
Cu0_7 Zn2_7 2.523738 1_555
Cu0_7 Zn0_2 2.961102 1_555
Cu0_7 Zn0_4 2.961102 1_555
Cu0_7 Zn2_5 2.961102 1_555
Cu0_7 Zn2_3 2.961102 1_555
