# generated using pymatgen
data_Al2O3
_symmetry_space_group_name_H-M   'P 1'
_cell_length_a   10.21921827
_cell_length_b   10.31527327
_cell_length_c   10.68568544
_cell_angle_alpha   88.90924955
_cell_angle_beta   96.30387809
_cell_angle_gamma   85.61786937
_symmetry_Int_Tables_number   1
_chemical_formula_structural   Al2O3
_chemical_formula_sum   'Al40 O60'
_cell_volume   1115.90970468
_cell_formula_units_Z   20
loop_
 _symmetry_equiv_pos_site_id
 _symmetry_equiv_pos_as_xyz
  1  'x, y, z'
loop_
 _atom_site_type_symbol
 _atom_site_label
 _atom_site_symmetry_multiplicity
 _atom_site_fract_x
 _atom_site_fract_y
 _atom_site_fract_z
 _atom_site_occupancy
  Al  Al0  1  0.35026900  0.57143300  0.38195000  1
  Al  Al1  1  0.43395800  0.00766900  0.63556600  1
  Al  Al2  1  0.92063400  0.70797000  0.55525600  1
  Al  Al3  1  0.97245000  0.63085800  0.94360600  1
  Al  Al4  1  0.37318200  0.86441400  0.87411800  1
  Al  Al5  1  0.94500100  0.13506300  0.66060300  1
  Al  Al6  1  0.33718300  0.29647500  0.53807700  1
  Al  Al7  1  0.94216000  0.97130500  0.96970100  1
  Al  Al8  1  0.19166300  0.76392000  0.05430100  1
  Al  Al9  1  0.07046400  0.39392900  0.68812200  1
  Al  Al10  1  0.78541600  0.67026100  0.19983200  1
  Al  Al11  1  0.70085100  0.22861500  0.08518400  1
  Al  Al12  1  0.71800900  0.96747200  0.22996500  1
  Al  Al13  1  0.45318600  0.70846600  0.62563500  1
  Al  Al14  1  0.09321900  0.86350600  0.77151800  1
  Al  Al15  1  0.97575800  0.18012400  0.10512100  1
  Al  Al16  1  0.86356200  0.37181600  0.88647600  1
  Al  Al17  1  0.84529600  0.20563000  0.38226900  1
  Al  Al18  1  0.46321700  0.04306700  0.36150200  1
  Al  Al19  1  0.41516500  0.30926700  0.01433400  1
  Al  Al20  1  0.48013600  0.30277100  0.29174500  1
  Al  Al21  1  0.78794800  0.83082000  0.76976700  1
  Al  Al22  1  0.49742000  0.77406400  0.32337600  1
  Al  Al23  1  0.22525000  0.91507700  0.24262100  1
  Al  Al24  1  0.17901100  0.59381900  0.61404200  1
  Al  Al25  1  0.14262500  0.12551400  0.44094900  1
  Al  Al26  1  0.72331900  0.98865500  0.52231900  1
  Al  Al27  1  0.47362200  0.53698800  0.16348200  1
  Al  Al28  1  0.71970400  0.51873300  0.38751200  1
  Al  Al29  1  0.67281800  0.61088100  0.94353300  1
  Al  Al30  1  0.12815600  0.44828200  0.09847500  1
  Al  Al31  1  0.77840600  0.54624000  0.70067600  1
  Al  Al32  1  0.30821000  0.55689800  0.84049800  1
  Al  Al33  1  0.20350800  0.29310600  0.29140000  1
  Al  Al34  1  0.17605800  0.12717500  0.87241300  1
  Al  Al35  1  0.04082500  0.57321300  0.37573900  1
  Al  Al36  1  0.47595000  0.26162100  0.79542800  1
  Al  Al37  1  0.98699700  0.87173300  0.27891500  1
  Al  Al38  1  0.60850000  0.03339600  0.92798600  1
  Al  Al39  1  0.64335500  0.25862000  0.54282200  1
  O  O0  1  0.57335100  0.92686500  0.28720800  1
  O  O1  1  0.31982800  0.20397300  0.91846400  1
  O  O2  1  0.79596800  0.84405600  0.60149800  1
  O  O3  1  0.62295100  0.66827400  0.69526100  1
  O  O4  1  0.98648500  0.45262400  0.96979300  1
  O  O5  1  0.07817900  0.21936200  0.74050900  1
  O  O6  1  0.30800400  0.11864500  0.54666600  1
  O  O7  1  0.58781300  0.22021200  0.93185100  1
  O  O8  1  0.95342100  0.00722600  0.13626400  1
  O  O9  1  0.37840000  0.66056900  0.23682900  1
  O  O10  1  0.50503800  0.08794500  0.76418600  1
  O  O11  1  0.10809000  0.98685700  0.34887800  1
  O  O12  1  0.76315200  0.13461000  0.61442600  1
  O  O13  1  0.75483700  0.34190600  0.45433100  1
  O  O14  1  0.55030000  0.97881900  0.52563200  1
  O  O15  1  0.56475400  0.58019400  0.04693000  1
  O  O16  1  0.82457700  0.83201900  0.20966600  1
  O  O17  1  0.83521300  0.24916500  0.99050400  1
  O  O18  1  0.71839800  0.48082600  0.84669200  1
  O  O19  1  0.35870200  0.17581400  0.26724800  1
  O  O20  1  0.82080900  0.65259000  0.03462100  1
  O  O21  1  0.22433200  0.96584200  0.81872300  1
  O  O22  1  0.12958100  0.60993900  0.03907900  1
  O  O23  1  0.55058000  0.29508200  0.14274200  1
  O  O24  1  0.40324900  0.85450000  0.69586700  1
  O  O25  1  0.34763300  0.60551100  0.68721900  1
  O  O26  1  0.77127900  0.59220900  0.53832500  1
  O  O27  1  0.12447900  0.46838200  0.26759100  1
  O  O28  1  0.22138500  0.38109200  0.61399800  1
  O  O29  1  0.30149900  0.71565500  0.91481300  1
  O  O30  1  0.67979700  0.05976200  0.09317200  1
  O  O31  1  0.33146100  0.42652400  0.11311400  1
  O  O32  1  0.01728100  0.53427000  0.55009800  1
  O  O33  1  0.89194800  0.39421900  0.72151300  1
  O  O34  1  0.63559300  0.74309200  0.81733800  1
  O  O35  1  0.20815500  0.61586500  0.45122200  1
  O  O36  1  0.84471300  0.23554800  0.21989700  1
  O  O37  1  0.46855800  0.67369400  0.46808100  1
  O  O38  1  0.26881200  0.90930600  0.08720700  1
  O  O39  1  0.64686900  0.67392400  0.29072100  1
  O  O40  1  0.11650500  0.78592900  0.20793100  1
  O  O41  1  0.11614200  0.27365900  0.13519200  1
  O  O42  1  0.03325900  0.81762900  0.92911100  1
  O  O43  1  0.50466000  0.30786200  0.62953300  1
  O  O44  1  0.98573800  0.16438700  0.50245300  1
  O  O45  1  0.36277900  0.90336000  0.35569300  1
  O  O46  1  0.79080300  0.03612500  0.37870000  1
  O  O47  1  0.55408400  0.46040200  0.31240800  1
  O  O48  1  0.14408800  0.52208100  0.78268100  1
  O  O49  1  0.08252100  0.75072200  0.65067200  1
  O  O50  1  0.87901200  0.66954400  0.78496000  1
  O  O51  1  0.96298700  0.98162100  0.73419500  1
  O  O52  1  0.86623300  0.53926800  0.30002500  1
  O  O53  1  0.51586300  0.90436100  0.95651400  1
  O  O54  1  0.41864900  0.41470600  0.87252600  1
  O  O55  1  0.04189500  0.10541000  0.95839200  1
  O  O56  1  0.97017800  0.74624600  0.40412700  1
  O  O57  1  0.56371100  0.18806200  0.40781700  1
  O  O58  1  0.35412000  0.38652900  0.39349000  1
  O  O59  1  0.77578500  0.95306400  0.88596700  1
loop_
_geom_bond_atom_site_label_1
_geom_bond_atom_site_label_2
_geom_bond_distance
_geom_bond_site_symmetry_2
Al0 O35 1.736209 1_555
Al0 O37 1.846222 1_555
Al0 O9 1.848455 1_555
Al0 O58 1.906093 1_555
Al0 O47 2.491964 1_555
Al1 O10 1.737324 1_555
Al1 O24 1.758248 1_545
Al1 O14 1.774266 1_545
Al1 O6 1.826071 1_555
Al2 O56 1.790535 1_555
Al2 O2 1.931094 1_555
Al2 O49 1.931095 1_655
Al2 O32 1.983482 1_655
Al2 O26 2.003569 1_555
Al2 O50 2.565310 1_555
Al3 O22 1.801313 1_656
Al3 O4 1.846721 1_555
Al3 O50 1.872269 1_555
Al3 O20 1.919304 1_556
Al3 O42 2.077173 1_655
Al4 O53 1.701390 1_555
Al4 O21 1.815038 1_555
Al4 O29 1.815683 1_555
Al4 O24 1.965710 1_555
Al5 O51 1.741791 1_545
Al5 O44 1.809691 1_555
Al5 O5 1.814218 1_655
Al5 O12 1.870033 1_555
Al6 O28 1.703030 1_555
Al6 O58 1.818952 1_555
Al6 O6 1.882929 1_555
Al6 O43 1.888337 1_555
Al7 O55 1.789732 1_665
Al7 O8 1.817970 1_566
Al7 O59 1.856870 1_555
Al7 O42 1.859309 1_655
Al8 O22 1.758693 1_555
Al8 O38 1.770364 1_555
Al8 O40 1.897597 1_555
Al8 O29 2.009890 1_554
Al8 O42 2.018930 1_554
Al9 O28 1.806828 1_555
Al9 O48 1.835869 1_555
Al9 O5 1.868786 1_555
Al9 O33 1.896712 1_455
Al9 O32 2.046658 1_555
Al10 O16 1.747809 1_555
Al10 O52 1.798434 1_555
Al10 O39 1.801245 1_555
Al10 O20 1.850150 1_555
Al11 O30 1.772840 1_555
Al11 O23 1.808083 1_555
Al11 O17 1.815276 1_554
Al11 O7 1.905663 1_554
Al11 O36 1.947789 1_555
Al12 O30 1.720550 1_565
Al12 O16 1.736723 1_555
Al12 O0 1.737354 1_555
Al12 O46 1.855964 1_565
Al13 O25 1.740338 1_555
Al13 O37 1.749344 1_555
Al13 O24 1.761389 1_555
Al13 O3 1.824849 1_555
Al14 O51 1.741232 1_455
Al14 O49 1.754591 1_555
Al14 O21 1.803339 1_555
Al14 O42 1.917237 1_555
Al15 O41 1.792869 1_655
Al15 O8 1.843905 1_555
Al15 O17 1.869294 1_554
Al15 O55 1.925668 1_654
Al15 O36 1.973535 1_555
Al16 O17 1.730165 1_555
Al16 O4 1.734387 1_555
Al16 O18 1.798391 1_555
Al16 O33 1.830803 1_555
Al17 O36 1.755779 1_555
Al17 O44 1.836092 1_555
Al17 O13 1.850003 1_555
Al17 O46 1.874955 1_555
Al18 O45 1.830195 1_545
Al18 O0 1.833036 1_545
Al18 O19 1.875620 1_555
Al18 O57 1.920391 1_555
Al18 O14 1.957040 1_545
Al19 O1 1.778554 1_554
Al19 O23 1.834005 1_555
Al19 O31 1.843257 1_555
Al19 O54 1.853486 1_554
Al19 O7 2.204136 1_554
Al20 O57 1.795817 1_555
Al20 O23 1.818629 1_555
Al20 O47 1.851626 1_555
Al20 O19 1.874463 1_555
Al20 O58 1.939098 1_555
Al20 O31 2.560359 1_555
Al21 O59 1.793553 1_555
Al21 O2 1.811943 1_555
Al21 O50 1.838456 1_555
Al21 O34 1.967994 1_555
Al22 O39 1.846878 1_555
Al22 O0 1.861557 1_555
Al22 O45 1.905961 1_555
Al22 O37 1.906766 1_555
Al22 O9 1.927969 1_555
Al23 O45 1.745081 1_555
Al23 O38 1.766841 1_555
Al23 O40 1.817057 1_555
Al23 O11 1.861718 1_555
Al24 O35 1.810125 1_555
Al24 O25 1.826144 1_555
Al24 O32 1.870540 1_555
Al24 O49 1.900009 1_555
Al24 O48 2.013224 1_555
Al24 O28 2.203975 1_555
Al25 O11 1.786806 1_545
Al25 O44 1.818337 1_455
Al25 O6 1.922704 1_555
Al25 Al33 2.491375 1_555
Al26 O2 1.771053 1_555
Al26 O14 1.782923 1_555
Al26 O46 1.823728 1_565
Al26 O12 1.860972 1_565
Al27 O15 1.707065 1_555
Al27 O9 1.789469 1_555
Al27 O47 1.843423 1_555
Al27 O31 1.950185 1_555
Al28 O26 1.835844 1_555
Al28 O52 1.873345 1_555
Al28 O47 1.935565 1_555
Al28 O13 1.939020 1_555
Al28 O39 1.942226 1_555
Al29 O15 1.687758 1_556
Al29 O18 1.775042 1_555
Al29 O20 1.792154 1_556
Al29 O34 1.887086 1_555
Al30 O22 1.774588 1_555
Al30 O27 1.827039 1_555
Al30 O41 1.852323 1_555
Al30 O4 1.881324 1_454
Al30 O31 2.060916 1_555
Al31 O26 1.781979 1_555
Al31 O18 1.870591 1_555
Al31 O33 1.872665 1_555
Al31 O50 1.877772 1_555
Al31 O3 1.945030 1_555
Al32 O54 1.784746 1_555
Al32 O48 1.787910 1_555
Al32 O25 1.800267 1_555
Al32 O29 1.833418 1_555
Al33 O41 1.826581 1_555
Al33 O27 1.923572 1_555
Al33 O19 1.963231 1_555
Al33 O58 2.094196 1_555
Al34 O1 1.749929 1_555
Al34 O55 1.757856 1_555
Al34 O21 1.820742 1_545
Al34 O5 1.839954 1_555
Al35 O27 1.832734 1_555
Al35 O35 1.895728 1_555
Al35 O56 1.915942 1_455
Al35 O52 1.936435 1_455
Al35 O32 1.943010 1_555
Al36 O7 1.774843 1_555
Al36 O10 1.836443 1_555
Al36 O54 1.878664 1_555
Al36 O43 1.886658 1_555
Al36 O1 2.281098 1_555
Al37 O40 1.782500 1_655
Al37 O16 1.821007 1_555
Al37 O56 1.874524 1_555
Al37 O11 1.885657 1_655
Al37 O8 2.031122 1_565
Al38 O53 1.732413 1_545
Al38 O30 1.867252 1_556
Al38 O7 1.924225 1_555
Al38 O59 1.943444 1_545
Al38 O10 1.990803 1_555
Al39 O57 1.773688 1_555
Al39 O12 1.799512 1_555
Al39 O13 1.812551 1_555
Al39 O43 1.822560 1_555
O3 O34 1.526608 1_555
O14 O57 2.498404 1_565
O16 O8 2.480262 1_565
O23 O47 2.511801 1_555
O26 O3 2.480337 1_555
O26 O32 2.528050 1_655
O28 O32 2.540844 1_555
O33 O5 2.508607 1_655
O39 O47 2.480304 1_555
O47 O58 2.471594 1_555
