# generated using pymatgen
data_CsMg6C
_symmetry_space_group_name_H-M   'P 1'
_cell_length_a   16.82887943
_cell_length_b   16.82887943
_cell_length_c   6.75405600
_cell_angle_alpha   90.00000000
_cell_angle_beta   90.00000000
_cell_angle_gamma   120.56157098
_symmetry_Int_Tables_number   1
_chemical_formula_structural   CsMg6C
_chemical_formula_sum   'Cs8 Mg48 C8'
_cell_volume   1647.10087790
_cell_formula_units_Z   8
loop_
 _symmetry_equiv_pos_site_id
 _symmetry_equiv_pos_as_xyz
  1  'x, y, z'
loop_
 _atom_site_type_symbol
 _atom_site_label
 _atom_site_symmetry_multiplicity
 _atom_site_fract_x
 _atom_site_fract_y
 _atom_site_fract_z
 _atom_site_occupancy
  Cs  Cs0_0  1  0.08020750  0.41979250  0.00000000  1
  Cs  Cs0_1  1  0.08020750  0.41979250  0.50000000  1
  Cs  Cs0_2  1  0.08020750  0.91979250  0.00000000  1
  Cs  Cs0_3  1  0.08020750  0.91979250  0.50000000  1
  Cs  Cs0_4  1  0.58020750  0.41979250  0.00000000  1
  Cs  Cs0_5  1  0.58020750  0.41979250  0.50000000  1
  Cs  Cs0_6  1  0.58020750  0.91979250  0.00000000  1
  Cs  Cs0_7  1  0.58020750  0.91979250  0.50000000  1
  Mg  Mg0_0  1  0.10143050  0.22596550  0.00000000  1
  Mg  Mg0_1  1  0.10143050  0.22596550  0.50000000  1
  Mg  Mg0_2  1  0.10143050  0.72596550  0.00000000  1
  Mg  Mg0_3  1  0.10143050  0.72596550  0.50000000  1
  Mg  Mg0_4  1  0.60143050  0.22596550  0.00000000  1
  Mg  Mg0_5  1  0.60143050  0.22596550  0.50000000  1
  Mg  Mg0_6  1  0.60143050  0.72596550  0.00000000  1
  Mg  Mg0_7  1  0.60143050  0.72596550  0.50000000  1
  Mg  Mg1_0  1  0.27403450  0.39856950  0.00000000  1
  Mg  Mg1_1  1  0.27403450  0.39856950  0.50000000  1
  Mg  Mg1_2  1  0.27403450  0.89856950  0.00000000  1
  Mg  Mg1_3  1  0.27403450  0.89856950  0.50000000  1
  Mg  Mg1_4  1  0.77403450  0.39856950  0.00000000  1
  Mg  Mg1_5  1  0.77403450  0.39856950  0.50000000  1
  Mg  Mg1_6  1  0.77403450  0.89856950  0.00000000  1
  Mg  Mg1_7  1  0.77403450  0.89856950  0.50000000  1
  Mg  Mg2_0  1  0.35352150  0.14647850  0.00000000  1
  Mg  Mg2_1  1  0.35352150  0.14647850  0.50000000  1
  Mg  Mg2_2  1  0.35352150  0.64647850  0.00000000  1
  Mg  Mg2_3  1  0.35352150  0.64647850  0.50000000  1
  Mg  Mg2_4  1  0.85352150  0.14647850  0.00000000  1
  Mg  Mg2_5  1  0.85352150  0.14647850  0.50000000  1
  Mg  Mg2_6  1  0.85352150  0.64647850  0.00000000  1
  Mg  Mg2_7  1  0.85352150  0.64647850  0.50000000  1
  Mg  Mg3_0  1  0.18558400  0.14954550  0.25000000  1
  Mg  Mg3_1  1  0.18558400  0.14954550  0.75000000  1
  Mg  Mg3_2  1  0.18558400  0.64954550  0.25000000  1
  Mg  Mg3_3  1  0.18558400  0.64954550  0.75000000  1
  Mg  Mg3_4  1  0.68558400  0.14954550  0.25000000  1
  Mg  Mg3_5  1  0.68558400  0.14954550  0.75000000  1
  Mg  Mg3_6  1  0.68558400  0.64954550  0.25000000  1
  Mg  Mg3_7  1  0.68558400  0.64954550  0.75000000  1
  Mg  Mg4_0  1  0.35045450  0.31441600  0.25000000  1
  Mg  Mg4_1  1  0.35045450  0.31441600  0.75000000  1
  Mg  Mg4_2  1  0.35045450  0.81441600  0.25000000  1
  Mg  Mg4_3  1  0.35045450  0.81441600  0.75000000  1
  Mg  Mg4_4  1  0.85045450  0.31441600  0.25000000  1
  Mg  Mg4_5  1  0.85045450  0.31441600  0.75000000  1
  Mg  Mg4_6  1  0.85045450  0.81441600  0.25000000  1
  Mg  Mg4_7  1  0.85045450  0.81441600  0.75000000  1
  Mg  Mg5_0  1  0.45247050  0.04752950  0.25000000  1
  Mg  Mg5_1  1  0.45247050  0.04752950  0.75000000  1
  Mg  Mg5_2  1  0.45247050  0.54752950  0.25000000  1
  Mg  Mg5_3  1  0.45247050  0.54752950  0.75000000  1
  Mg  Mg5_4  1  0.95247050  0.04752950  0.25000000  1
  Mg  Mg5_5  1  0.95247050  0.04752950  0.75000000  1
  Mg  Mg5_6  1  0.95247050  0.54752950  0.25000000  1
  Mg  Mg5_7  1  0.95247050  0.54752950  0.75000000  1
  C  C0_0  1  0.20229700  0.29770300  0.25000000  1
  C  C0_1  1  0.20229700  0.29770300  0.75000000  1
  C  C0_2  1  0.20229700  0.79770300  0.25000000  1
  C  C0_3  1  0.20229700  0.79770300  0.75000000  1
  C  C0_4  1  0.70229700  0.29770300  0.25000000  1
  C  C0_5  1  0.70229700  0.29770300  0.75000000  1
  C  C0_6  1  0.70229700  0.79770300  0.25000000  1
  C  C0_7  1  0.70229700  0.79770300  0.75000000  1
loop_
_geom_bond_atom_site_label_1
_geom_bond_atom_site_label_2
_geom_bond_distance
_geom_bond_site_symmetry_2
Cs0_0 Cs0_1 3.377028 1_555
Cs0_0 Cs0_1 3.377028 1_554
Cs0_0 Mg0_0 3.457200 1_555
Cs0_0 Mg1_0 3.457200 1_555
Cs0_0 Mg4_4 3.738028 1_455
Cs0_0 Mg4_5 3.738028 1_454
Cs0_0 Mg3_2 3.738028 1_555
Cs0_0 Mg3_3 3.738028 1_554
Cs0_0 Mg5_7 4.097872 1_454
Cs0_0 Mg5_6 4.097872 1_455
Cs0_0 Mg2_2 4.226758 1_555
Cs0_0 Mg2_4 4.226758 1_455
Cs0_1 Mg0_1 3.457200 1_555
Cs0_1 Mg1_1 3.457200 1_555
Cs0_1 Mg4_4 3.738028 1_455
Cs0_1 Mg4_5 3.738028 1_455
Cs0_1 Mg3_2 3.738028 1_555
Cs0_1 Mg3_3 3.738028 1_555
Cs0_1 Mg5_7 4.097872 1_455
Cs0_1 Mg5_6 4.097872 1_455
Cs0_1 Mg2_3 4.226758 1_555
Cs0_1 Mg2_5 4.226758 1_455
Cs0_2 Cs0_3 3.377028 1_555
Cs0_2 Cs0_3 3.377028 1_554
Cs0_2 Mg0_2 3.457200 1_555
Cs0_2 Mg1_2 3.457200 1_555
Cs0_2 Mg4_6 3.738028 1_455
Cs0_2 Mg4_7 3.738028 1_454
Cs0_2 Mg3_1 3.738028 1_564
Cs0_2 Mg3_0 3.738028 1_565
Cs0_2 Mg5_5 4.097872 1_464
Cs0_2 Mg5_4 4.097872 1_465
Cs0_2 Mg2_6 4.226758 1_455
Cs0_2 Mg2_0 4.226758 1_565
Cs0_3 Mg0_3 3.457200 1_555
Cs0_3 Mg1_3 3.457200 1_555
Cs0_3 Mg4_6 3.738028 1_455
Cs0_3 Mg4_7 3.738028 1_455
Cs0_3 Mg3_1 3.738028 1_565
Cs0_3 Mg3_0 3.738028 1_565
Cs0_3 Mg5_5 4.097872 1_465
Cs0_3 Mg5_4 4.097872 1_465
Cs0_3 Mg2_7 4.226758 1_455
Cs0_3 Mg2_1 4.226758 1_565
Cs0_4 Cs0_5 3.377028 1_555
Cs0_4 Cs0_5 3.377028 1_554
Cs0_4 Mg0_4 3.457200 1_555
Cs0_4 Mg1_4 3.457200 1_555
Cs0_4 Mg4_1 3.738028 1_554
Cs0_4 Mg4_0 3.738028 1_555
Cs0_4 Mg3_7 3.738028 1_554
Cs0_4 Mg3_6 3.738028 1_555
Cs0_4 Mg5_3 4.097872 1_554
Cs0_4 Mg5_2 4.097872 1_555
Cs0_4 Mg2_0 4.226758 1_555
Cs0_4 Mg2_6 4.226758 1_555
Cs0_5 Mg0_5 3.457200 1_555
Cs0_5 Mg1_5 3.457200 1_555
Cs0_5 Mg4_0 3.738028 1_555
Cs0_5 Mg4_1 3.738028 1_555
Cs0_5 Mg3_6 3.738028 1_555
Cs0_5 Mg3_7 3.738028 1_555
Cs0_5 Mg5_3 4.097872 1_555
Cs0_5 Mg5_2 4.097872 1_555
Cs0_5 Mg2_1 4.226758 1_555
Cs0_5 Mg2_7 4.226758 1_555
Cs0_6 Cs0_7 3.377028 1_555
Cs0_6 Cs0_7 3.377028 1_554
Cs0_6 Mg0_6 3.457200 1_555
Cs0_6 Mg1_6 3.457200 1_555
Cs0_6 Mg4_2 3.738028 1_555
Cs0_6 Mg4_3 3.738028 1_554
Cs0_6 Mg3_5 3.738028 1_564
Cs0_6 Mg3_4 3.738028 1_565
Cs0_6 Mg5_1 4.097872 1_564
Cs0_6 Mg5_0 4.097872 1_565
Cs0_6 Mg2_4 4.226758 1_565
Cs0_6 Mg2_2 4.226758 1_555
Cs0_7 Mg0_7 3.457200 1_555
Cs0_7 Mg1_7 3.457200 1_555
Cs0_7 Mg4_2 3.738028 1_555
Cs0_7 Mg4_3 3.738028 1_555
Cs0_7 Mg3_5 3.738028 1_565
Cs0_7 Mg3_4 3.738028 1_565
Cs0_7 Mg5_1 4.097872 1_565
Cs0_7 Mg5_0 4.097872 1_565
Cs0_7 Mg2_5 4.226758 1_565
Cs0_7 Mg2_3 4.226758 1_555
Mg0_0 Mg3_1 2.891859 1_554
Mg0_0 Mg3_0 2.891859 1_555
Mg0_0 Mg5_4 3.239972 1_455
Mg0_0 Mg5_5 3.239972 1_454
Mg0_0 Mg2_4 3.676944 1_455
Mg0_1 Mg3_0 2.891859 1_555
Mg0_1 Mg3_1 2.891859 1_555
Mg0_1 Mg5_4 3.239972 1_455
Mg0_1 Mg5_5 3.239972 1_455
Mg0_1 Mg2_5 3.676944 1_455
Mg0_2 Mg3_2 2.891859 1_555
Mg0_2 Mg3_3 2.891859 1_554
Mg0_2 Mg5_6 3.239972 1_455
Mg0_2 Mg5_7 3.239972 1_454
Mg0_2 Mg2_6 3.676944 1_455
Mg0_3 Mg3_2 2.891859 1_555
Mg0_3 Mg3_3 2.891859 1_555
Mg0_3 Mg5_6 3.239972 1_455
Mg0_3 Mg5_7 3.239972 1_455
Mg0_3 Mg2_7 3.676944 1_455
Mg0_4 Mg3_4 2.891859 1_555
Mg0_4 Mg3_5 2.891859 1_554
Mg0_4 Mg5_1 3.239972 1_554
Mg0_4 Mg5_0 3.239972 1_555
Mg0_4 Mg2_0 3.676944 1_555
Mg0_5 Mg3_4 2.891859 1_555
Mg0_5 Mg3_5 2.891859 1_555
Mg0_5 Mg5_0 3.239972 1_555
Mg0_5 Mg5_1 3.239972 1_555
Mg0_5 Mg2_1 3.676944 1_555
Mg0_6 Mg3_6 2.891859 1_555
Mg0_6 Mg3_7 2.891859 1_554
Mg0_6 Mg5_2 3.239972 1_555
Mg0_6 Mg5_3 3.239972 1_554
Mg0_6 Mg2_2 3.676944 1_555
Mg0_7 Mg3_6 2.891859 1_555
Mg0_7 Mg3_7 2.891859 1_555
Mg0_7 Mg5_2 3.239972 1_555
Mg0_7 Mg5_3 3.239972 1_555
Mg0_7 Mg2_3 3.676944 1_555
Mg1_0 Mg4_0 2.891859 1_555
Mg1_0 Mg4_1 2.891859 1_554
Mg1_0 Mg5_2 3.239972 1_555
Mg1_0 Mg5_3 3.239972 1_554
Mg1_0 Mg2_2 3.676944 1_555
Mg1_1 Mg4_0 2.891859 1_555
Mg1_1 Mg4_1 2.891859 1_555
Mg1_1 Mg5_2 3.239972 1_555
Mg1_1 Mg5_3 3.239972 1_555
Mg1_1 Mg2_3 3.676944 1_555
Mg1_2 Mg4_2 2.891859 1_555
Mg1_2 Mg4_3 2.891859 1_554
Mg1_2 Mg5_0 3.239972 1_565
Mg1_2 Mg5_1 3.239972 1_564
Mg1_2 Mg2_0 3.676944 1_565
Mg1_3 Mg4_2 2.891859 1_555
Mg1_3 Mg4_3 2.891859 1_555
Mg1_3 Mg5_0 3.239972 1_565
Mg1_3 Mg5_1 3.239972 1_565
Mg1_3 Mg2_1 3.676944 1_565
Mg1_4 Mg4_5 2.891859 1_554
Mg1_4 Mg4_4 2.891859 1_555
Mg1_4 Mg5_7 3.239972 1_554
Mg1_4 Mg5_6 3.239972 1_555
Mg1_4 Mg2_6 3.676944 1_555
Mg1_5 Mg4_5 2.891859 1_555
Mg1_5 Mg4_4 2.891859 1_555
Mg1_5 Mg5_7 3.239972 1_555
Mg1_5 Mg5_6 3.239972 1_555
Mg1_5 Mg2_7 3.676944 1_555
Mg1_6 Mg4_7 2.891859 1_554
Mg1_6 Mg4_6 2.891859 1_555
Mg1_6 Mg5_5 3.239972 1_564
Mg1_6 Mg5_4 3.239972 1_565
Mg1_6 Mg2_4 3.676944 1_565
Mg1_7 Mg4_6 2.891859 1_555
Mg1_7 Mg4_7 2.891859 1_555
Mg1_7 Mg5_4 3.239972 1_565
Mg1_7 Mg5_5 3.239972 1_565
Mg1_7 Mg2_5 3.676944 1_565
Mg2_0 Mg3_0 3.315040 1_555
Mg2_0 Mg3_1 3.315040 1_554
Mg2_0 Mg4_1 3.315040 1_554
Mg2_0 Mg4_0 3.315040 1_555
Mg2_0 Mg5_1 3.349134 1_554
Mg2_0 Mg5_0 3.349134 1_555
Mg2_0 Mg2_1 3.377028 1_555
Mg2_0 Mg2_1 3.377028 1_554
Mg2_1 Mg3_0 3.315040 1_555
Mg2_1 Mg3_1 3.315040 1_555
Mg2_1 Mg4_0 3.315040 1_555
Mg2_1 Mg4_1 3.315040 1_555
Mg2_1 Mg5_0 3.349134 1_555
Mg2_1 Mg5_1 3.349134 1_555
Mg2_2 Mg3_2 3.315040 1_555
Mg2_2 Mg3_3 3.315040 1_554
Mg2_2 Mg4_3 3.315040 1_554
Mg2_2 Mg4_2 3.315040 1_555
Mg2_2 Mg5_2 3.349134 1_555
Mg2_2 Mg5_3 3.349134 1_554
Mg2_2 Mg2_3 3.377028 1_555
Mg2_2 Mg2_3 3.377028 1_554
Mg2_3 Mg3_2 3.315040 1_555
Mg2_3 Mg3_3 3.315040 1_555
Mg2_3 Mg4_2 3.315040 1_555
Mg2_3 Mg4_3 3.315040 1_555
Mg2_3 Mg5_2 3.349134 1_555
Mg2_3 Mg5_3 3.349134 1_555
Mg2_4 Mg3_4 3.315040 1_555
Mg2_4 Mg3_5 3.315040 1_554
Mg2_4 Mg4_5 3.315040 1_554
Mg2_4 Mg4_4 3.315040 1_555
Mg2_4 Mg5_4 3.349134 1_555
Mg2_4 Mg5_5 3.349134 1_554
Mg2_4 Mg2_5 3.377028 1_555
Mg2_4 Mg2_5 3.377028 1_554
Mg2_5 Mg3_4 3.315040 1_555
Mg2_5 Mg3_5 3.315040 1_555
Mg2_5 Mg4_4 3.315040 1_555
Mg2_5 Mg4_5 3.315040 1_555
Mg2_5 Mg5_4 3.349134 1_555
Mg2_5 Mg5_5 3.349134 1_555
Mg2_6 Mg3_6 3.315040 1_555
Mg2_6 Mg3_7 3.315040 1_554
Mg2_6 Mg4_7 3.315040 1_554
Mg2_6 Mg4_6 3.315040 1_555
Mg2_6 Mg5_6 3.349134 1_555
Mg2_6 Mg5_7 3.349134 1_554
Mg2_6 Mg2_7 3.377028 1_555
Mg2_6 Mg2_7 3.377028 1_554
Mg2_7 Mg3_6 3.315040 1_555
Mg2_7 Mg3_7 3.315040 1_555
Mg2_7 Mg4_7 3.315040 1_555
Mg2_7 Mg4_6 3.315040 1_555
Mg2_7 Mg5_6 3.349134 1_555
Mg2_7 Mg5_7 3.349134 1_555
Mg3_0 Mg4_0 2.751001 1_555
Mg3_0 Mg5_4 3.389476 1_455
Mg3_1 Mg4_1 2.751001 1_555
Mg3_1 Mg5_5 3.389476 1_455
Mg3_2 Mg4_2 2.751001 1_555
Mg3_2 Mg5_6 3.389476 1_455
Mg3_3 Mg4_3 2.751001 1_555
Mg3_3 Mg5_7 3.389476 1_455
Mg3_4 Mg4_4 2.751001 1_555
Mg3_4 Mg5_0 3.389476 1_555
Mg3_5 Mg4_5 2.751001 1_555
Mg3_5 Mg5_1 3.389476 1_555
Mg3_6 Mg4_6 2.751001 1_555
Mg3_6 Mg5_2 3.389476 1_555
Mg3_7 Mg4_7 2.751001 1_555
Mg3_7 Mg5_3 3.389476 1_555
Mg4_0 Mg5_2 3.389476 1_555
Mg4_1 Mg5_3 3.389476 1_555
Mg4_2 Mg5_0 3.389476 1_565
Mg4_3 Mg5_1 3.389476 1_565
Mg4_4 Mg5_6 3.389476 1_555
Mg4_5 Mg5_7 3.389476 1_555
Mg4_6 Mg5_4 3.389476 1_565
Mg4_7 Mg5_5 3.389476 1_565
Mg5_0 Mg5_1 3.377028 1_554
Mg5_0 Mg5_1 3.377028 1_555
Mg5_2 Mg5_3 3.377028 1_555
Mg5_2 Mg5_3 3.377028 1_554
Mg5_4 Mg5_5 3.377028 1_555
Mg5_4 Mg5_5 3.377028 1_554
Mg5_6 Mg5_7 3.377028 1_555
Mg5_6 Mg5_7 3.377028 1_554
C0_0 Mg1_0 2.259643 1_555
C0_0 Mg1_1 2.259643 1_555
C0_0 Mg0_0 2.259643 1_555
C0_0 Mg0_1 2.259643 1_555
C0_0 Mg3_0 2.362759 1_555
C0_0 Mg4_0 2.362759 1_555
C0_1 Mg1_0 2.259643 1_556
C0_1 Mg1_1 2.259643 1_555
C0_1 Mg0_0 2.259643 1_556
C0_1 Mg0_1 2.259643 1_555
C0_1 Mg3_1 2.362759 1_555
C0_1 Mg4_1 2.362759 1_555
C0_2 Mg1_2 2.259643 1_555
C0_2 Mg1_3 2.259643 1_555
C0_2 Mg0_2 2.259643 1_555
C0_2 Mg0_3 2.259643 1_555
C0_2 Mg4_2 2.362759 1_555
C0_2 Mg3_2 2.362759 1_555
C0_3 Mg1_2 2.259643 1_556
C0_3 Mg1_3 2.259643 1_555
C0_3 Mg0_2 2.259643 1_556
C0_3 Mg0_3 2.259643 1_555
C0_3 Mg4_3 2.362759 1_555
C0_3 Mg3_3 2.362759 1_555
C0_4 Mg1_5 2.259643 1_555
C0_4 Mg1_4 2.259643 1_555
C0_4 Mg0_4 2.259643 1_555
C0_4 Mg0_5 2.259643 1_555
C0_4 Mg4_4 2.362759 1_555
C0_4 Mg3_4 2.362759 1_555
C0_5 Mg1_4 2.259643 1_556
C0_5 Mg1_5 2.259643 1_555
C0_5 Mg0_4 2.259643 1_556
C0_5 Mg0_5 2.259643 1_555
C0_5 Mg4_5 2.362759 1_555
C0_5 Mg3_5 2.362759 1_555
C0_6 Mg1_6 2.259643 1_555
C0_6 Mg1_7 2.259643 1_555
C0_6 Mg0_6 2.259643 1_555
C0_6 Mg0_7 2.259643 1_555
C0_6 Mg4_6 2.362759 1_555
C0_6 Mg3_6 2.362759 1_555
C0_7 Mg1_6 2.259643 1_556
C0_7 Mg1_7 2.259643 1_555
C0_7 Mg0_7 2.259643 1_555
C0_7 Mg0_6 2.259643 1_556
C0_7 Mg3_7 2.362759 1_555
C0_7 Mg4_7 2.362759 1_555
