# generated using pymatgen
data_ZrVFe
_symmetry_space_group_name_H-M   'P 1'
_cell_length_a   5.06440925
_cell_length_b   5.06409628
_cell_length_c   8.31940800
_cell_angle_alpha   90.00000000
_cell_angle_beta   90.00000000
_cell_angle_gamma   60.85487692
_symmetry_Int_Tables_number   1
_chemical_formula_structural   ZrVFe
_chemical_formula_sum   'Zr4 V4 Fe4'
_cell_volume   186.35062747
_cell_formula_units_Z   4
loop_
 _symmetry_equiv_pos_site_id
 _symmetry_equiv_pos_as_xyz
  1  'x, y, z'
loop_
 _atom_site_type_symbol
 _atom_site_label
 _atom_site_symmetry_multiplicity
 _atom_site_fract_x
 _atom_site_fract_y
 _atom_site_fract_z
 _atom_site_occupancy
  Zr  Zr0  1  0.33128400  0.33127800  0.56563100  1
  Zr  Zr1  1  0.66476000  0.66475000  0.44661400  1
  Zr  Zr2  1  0.66476000  0.66475000  0.05338600  1
  Zr  Zr3  1  0.33128400  0.33127800  0.93436900  1
  V  V0  1  0.83893700  0.83892200  0.75000000  1
  V  V1  1  0.16545000  0.66370200  0.25000000  1
  V  V2  1  0.66369700  0.16545800  0.25000000  1
  V  V3  1  0.16789500  0.16790100  0.25000000  1
  Fe  Fe0  1  0.99901300  0.99903600  0.50336300  1
  Fe  Fe1  1  0.99901300  0.99903600  0.99663700  1
  Fe  Fe2  1  0.83489000  0.33900800  0.75000000  1
  Fe  Fe3  1  0.33901600  0.83488200  0.75000000  1
loop_
_geom_bond_atom_site_label_1
_geom_bond_atom_site_label_2
_geom_bond_distance
_geom_bond_site_symmetry_2
Zr0 Zr3 3.067682 1_555
Zr0 Zr1 3.076115 1_555
Zr0 Zr1 3.110169 1_545
Zr0 Zr1 3.110321 1_455
Zr1 Zr2 3.271424 1_555
Zr2 Zr3 3.076115 1_554
Zr2 Zr3 3.110169 1_564
Zr2 Zr3 3.110321 1_654
V0 Zr2 2.946939 1_556
V0 Zr1 2.946939 1_555
V0 Zr0 2.989156 1_655
V0 Zr3 2.989156 1_655
V0 Zr3 2.989204 1_565
V0 Zr0 2.989204 1_565
V1 V3 2.504777 1_555
V1 V2 2.555775 1_555
V1 V3 2.559366 1_565
V1 V2 2.573774 1_465
V1 Zr3 3.009535 1_554
V1 Zr0 3.009535 1_555
V1 Zr1 3.013806 1_555
V1 Zr2 3.013806 1_555
V1 Zr1 3.015335 1_455
V1 Zr2 3.015335 1_455
V2 V3 2.504942 1_555
V2 V3 2.559513 1_655
V2 Zr3 3.009554 1_554
V2 Zr0 3.009554 1_555
V2 Zr1 3.013630 1_555
V2 Zr2 3.013630 1_555
V2 Zr1 3.015249 1_545
V2 Zr2 3.015249 1_545
V3 Zr3 2.988515 1_554
V3 Zr0 2.988515 1_555
V3 Zr1 3.042067 1_455
V3 Zr2 3.042067 1_455
V3 Zr1 3.042133 1_545
V3 Zr2 3.042133 1_545
Fe0 V0 2.482968 1_555
Fe0 Fe2 2.543868 1_565
Fe0 Fe3 2.544004 1_655
Fe0 V3 2.572578 1_665
Fe0 V1 2.577393 1_655
Fe0 V2 2.577399 1_565
Fe0 Zr0 2.947646 1_665
Fe0 Zr1 2.957278 1_555
Fe0 Zr1 2.982449 1_565
Fe0 Zr1 2.982770 1_655
Fe0 Zr0 2.998745 1_655
Fe0 Zr0 2.998796 1_565
Fe1 V0 2.482968 1_555
Fe1 Fe2 2.543868 1_565
Fe1 Fe3 2.544004 1_655
Fe1 V3 2.572578 1_666
Fe1 V1 2.577393 1_656
Fe1 V2 2.577399 1_566
Fe1 Zr3 2.947646 1_665
Fe1 Zr2 2.957278 1_556
Fe1 Zr2 2.982449 1_566
Fe1 Zr2 2.982770 1_656
Fe1 Zr3 2.998745 1_655
Fe1 Zr3 2.998796 1_565
Fe2 V0 2.522565 1_545
Fe2 V0 2.541658 1_555
Fe2 Fe3 2.543610 1_555
Fe2 Fe3 2.585939 1_645
Fe2 Zr2 2.906826 1_556
Fe2 Zr1 2.906826 1_555
Fe2 Zr0 2.928865 1_655
Fe2 Zr3 2.928865 1_655
Fe2 Zr3 2.992713 1_555
Fe2 Zr0 2.992713 1_555
Fe3 V0 2.522704 1_455
Fe3 V0 2.541831 1_555
Fe3 Zr2 2.906872 1_556
Fe3 Zr1 2.906872 1_555
Fe3 Zr0 2.928736 1_565
Fe3 Zr3 2.928736 1_565
Fe3 Zr3 2.992574 1_555
Fe3 Zr0 2.992574 1_555
