# generated using pymatgen
data_YbAlGa
_symmetry_space_group_name_H-M   'P 1'
_cell_length_a   4.38392544
_cell_length_b   4.38392544
_cell_length_c   6.94211259
_cell_angle_alpha   90.00000000
_cell_angle_beta   90.00000000
_cell_angle_gamma   119.99998706
_symmetry_Int_Tables_number   1
_chemical_formula_structural   YbAlGa
_chemical_formula_sum   'Yb2 Al2 Ga2'
_cell_volume   115.54433552
_cell_formula_units_Z   2
loop_
 _symmetry_equiv_pos_site_id
 _symmetry_equiv_pos_as_xyz
  1  'x, y, z'
loop_
 _atom_site_type_symbol
 _atom_site_label
 _atom_site_symmetry_multiplicity
 _atom_site_fract_x
 _atom_site_fract_y
 _atom_site_fract_z
 _atom_site_occupancy
  Yb  Yb0  1  0.00000000  0.00000000  0.50000000  1
  Yb  Yb1  1  0.00000000  0.00000000  0.00000000  1
  Al  Al0  1  0.33333300  0.66666700  0.25000000  1
  Al  Al1  1  0.66666700  0.33333300  0.75000000  1
  Ga  Ga0  1  0.33333300  0.66666700  0.75000000  1
  Ga  Ga1  1  0.66666700  0.33333300  0.25000000  1
loop_
_geom_bond_atom_site_label_1
_geom_bond_atom_site_label_2
_geom_bond_distance
_geom_bond_site_symmetry_2
Yb0 Yb1 3.471056 1_556
Yb0 Yb1 3.471056 1_555
Al0 Ga1 2.531058 1_565
Al0 Ga1 2.531058 1_455
Al0 Ga1 2.531065 1_555
Al0 Yb1 3.068927 1_565
Al0 Yb0 3.068927 1_565
Al0 Yb0 3.068930 1_555
Al0 Yb1 3.068930 1_555
Al0 Yb1 3.068930 1_665
Al0 Yb0 3.068930 1_665
Al0 Ga0 3.471056 1_554
Al0 Ga0 3.471056 1_555
Al1 Ga0 2.531058 1_655
Al1 Ga0 2.531058 1_545
Al1 Ga0 2.531065 1_555
Al1 Yb0 3.068927 1_655
Al1 Yb1 3.068927 1_656
Al1 Yb0 3.068930 1_555
Al1 Yb1 3.068930 1_556
Al1 Yb1 3.068930 1_666
Al1 Yb0 3.068930 1_665
Al1 Ga1 3.471056 1_556
Al1 Ga1 3.471056 1_555
Ga0 Yb1 3.068927 1_566
Ga0 Yb0 3.068927 1_565
Ga0 Yb0 3.068930 1_555
Ga0 Yb1 3.068930 1_556
Ga0 Yb1 3.068930 1_666
Ga0 Yb0 3.068930 1_665
Ga1 Yb0 3.068927 1_655
Ga1 Yb1 3.068927 1_655
Ga1 Yb0 3.068930 1_555
Ga1 Yb1 3.068930 1_555
Ga1 Yb0 3.068930 1_665
Ga1 Yb1 3.068930 1_665
