# generated using pymatgen
data_Na4Si5Sn2O17
_symmetry_space_group_name_H-M   'P 1'
_cell_length_a   10.88510401
_cell_length_b   10.88510401
_cell_length_c   13.97379262
_cell_angle_alpha   70.51752840
_cell_angle_beta   70.51752840
_cell_angle_gamma   28.16479252
_symmetry_Int_Tables_number   1
_chemical_formula_structural   Na4Si5Sn2O17
_chemical_formula_sum   'Na8 Si10 Sn4 O34'
_cell_volume   733.84852839
_cell_formula_units_Z   2
loop_
 _symmetry_equiv_pos_site_id
 _symmetry_equiv_pos_as_xyz
  1  'x, y, z'
loop_
 _atom_site_type_symbol
 _atom_site_label
 _atom_site_symmetry_multiplicity
 _atom_site_fract_x
 _atom_site_fract_y
 _atom_site_fract_z
 _atom_site_occupancy
  Na  Na0  1  0.76841900  0.79375900  0.91394000  1
  Na  Na1  1  0.20624100  0.23158100  0.08606000  1
  Na  Na2  1  0.23151400  0.20729800  0.58514700  1
  Na  Na3  1  0.79270200  0.76848600  0.41485300  1
  Na  Na4  1  0.30601200  0.76425100  0.82776300  1
  Na  Na5  1  0.23574900  0.69398800  0.17223700  1
  Na  Na6  1  0.69374500  0.23813100  0.67172700  1
  Na  Na7  1  0.76186900  0.30625500  0.32827300  1
  Si  Si0  1  0.38244300  0.38500700  0.94805300  1
  Si  Si1  1  0.61499300  0.61755700  0.05194700  1
  Si  Si2  1  0.61974800  0.61457300  0.55069600  1
  Si  Si3  1  0.38542700  0.38025200  0.44930400  1
  Si  Si4  1  0.75237700  0.24762300  0.00000000  1
  Si  Si5  1  0.25075200  0.74924800  0.50000000  1
  Si  Si6  1  0.31667900  0.33883100  0.77418900  1
  Si  Si7  1  0.66116900  0.68332100  0.22581100  1
  Si  Si8  1  0.68187500  0.66166600  0.72553200  1
  Si  Si9  1  0.33833400  0.31812500  0.27446800  1
  Sn  Sn0  1  0.83751400  0.84734100  0.11270900  1
  Sn  Sn1  1  0.15265900  0.16248600  0.88729100  1
  Sn  Sn2  1  0.15828100  0.15687300  0.38876400  1
  Sn  Sn3  1  0.84312700  0.84171900  0.61123600  1
  O  O0  1  0.64604100  0.58092600  0.17071300  1
  O  O1  1  0.41907400  0.35395900  0.82928700  1
  O  O2  1  0.35490600  0.42000900  0.32894300  1
  O  O3  1  0.57999100  0.64509400  0.67105700  1
  O  O4  1  0.52515900  0.13367000  0.02291300  1
  O  O5  1  0.86633000  0.47484100  0.97708700  1
  O  O6  1  0.47303300  0.86852800  0.47691400  1
  O  O7  1  0.13147200  0.52696700  0.52308600  1
  O  O8  1  0.34150900  0.93344400  0.02412000  1
  O  O9  1  0.06655600  0.65849100  0.97588000  1
  O  O10  1  0.65977900  0.06589300  0.47586000  1
  O  O11  1  0.93410700  0.34022100  0.52414000  1
  O  O12  1  0.86684300  0.02164000  0.08367600  1
  O  O13  1  0.97836000  0.13315700  0.91632400  1
  O  O14  1  0.13283800  0.97786600  0.41665600  1
  O  O15  1  0.02213400  0.86716200  0.58334400  1
  O  O16  1  0.52133300  0.40351800  0.94222600  1
  O  O17  1  0.59648200  0.47866700  0.05777400  1
  O  O18  1  0.48054000  0.59559400  0.55760900  1
  O  O19  1  0.40440600  0.51946000  0.44239100  1
  O  O20  1  0.34107300  0.17357700  0.86030700  1
  O  O21  1  0.82642300  0.65892700  0.13969300  1
  O  O22  1  0.65727300  0.82695000  0.63990000  1
  O  O23  1  0.17305000  0.34272700  0.36010000  1
  O  O24  1  0.47637800  0.80843000  0.82667500  1
  O  O25  1  0.19157000  0.52362200  0.17332500  1
  O  O26  1  0.52228600  0.19270100  0.67346600  1
  O  O27  1  0.80729900  0.47771400  0.32653400  1
  O  O28  1  0.36735500  0.98674700  0.25155100  1
  O  O29  1  0.01325300  0.63264500  0.74844900  1
  O  O30  1  0.63181200  0.01390400  0.24910700  1
  O  O31  1  0.98609600  0.36818800  0.75089300  1
  O  O32  1  0.10855800  0.98674900  0.21244900  1
  O  O33  1  0.01325100  0.89144200  0.78755100  1
loop_
_geom_bond_atom_site_label_1
_geom_bond_atom_site_label_2
_geom_bond_distance
_geom_bond_site_symmetry_2
Na0 O20 2.375353 1_565
Na0 O29 2.424745 1_655
Na0 O5 2.454818 1_555
Na0 O9 2.459116 1_655
Na0 O4 2.610431 1_566
Na0 O21 3.018398 1_556
Na1 O21 2.375353 1_455
Na1 O28 2.424745 1_545
Na1 O4 2.454818 1_555
Na1 O8 2.459116 1_545
Na1 O5 2.610431 1_454
Na1 O20 3.018398 1_554
Na2 O22 2.371867 1_545
Na2 O31 2.428442 1_455
Na2 O7 2.445762 1_555
Na2 O11 2.461652 1_455
Na2 O6 2.602258 1_545
Na2 O23 3.009347 1_555
Na3 O23 2.371867 1_655
Na3 O30 2.428442 1_565
Na3 O6 2.445762 1_555
Na3 O10 2.461652 1_565
Na3 O7 2.602258 1_655
Na3 O22 3.009347 1_555
Na4 O24 2.284556 1_555
Na4 O33 2.298732 1_555
Na4 O13 2.344222 1_465
Na4 O16 2.356771 1_555
Na4 O3 2.467720 1_555
Na5 O25 2.284556 1_555
Na5 O32 2.298732 1_555
Na5 O12 2.344222 1_465
Na5 O17 2.356771 1_555
Na5 O2 2.467720 1_555
Na6 O26 2.305953 1_555
Na6 O18 2.340263 1_555
Na6 O33 2.344293 1_645
Na6 O15 2.353759 1_645
Na6 O1 2.488061 1_555
Na7 O27 2.305953 1_555
Na7 O19 2.340263 1_555
Na7 O32 2.344293 1_645
Na7 O14 2.353759 1_645
Na7 O0 2.488061 1_555
O0 Si1 1.650042 1_555
O0 Si7 1.686058 1_555
O0 O32 2.820774 1_555
O0 O32 3.089909 1_645
O1 Si0 1.650042 1_555
O1 Si6 1.686058 1_555
O1 O33 2.820774 1_555
O1 O33 3.089909 1_645
O2 Si3 1.661371 1_555
O2 Si9 1.688006 1_555
O3 Si2 1.661371 1_555
O3 Si8 1.688006 1_555
O4 Si0 1.635141 1_554
O4 Sn0 2.097940 1_545
O5 Si1 1.635141 1_556
O5 Sn1 2.097940 1_655
O6 Si2 1.633486 1_555
O6 Sn2 2.093478 1_565
O7 Si3 1.633486 1_555
O7 Sn3 2.093478 1_455
O8 Si1 1.633564 1_555
O8 Sn1 2.122009 1_564
O9 Si0 1.633564 1_555
O9 Sn0 2.122009 1_456
O10 Si3 1.624652 1_555
O10 Sn3 2.090117 1_545
O11 Si2 1.624652 1_555
O11 Sn2 2.090117 1_655
O12 Si4 1.618560 1_555
O12 Sn0 2.081887 1_545
O13 Si4 1.618560 1_556
O13 Sn1 2.081887 1_655
O14 Si5 1.621331 1_555
O14 Sn2 2.097190 1_565
O14 O32 2.914769 1_555
O15 Si5 1.621331 1_555
O15 Sn3 2.097190 1_455
O15 O33 2.914769 1_555
O16 Si4 1.664947 1_556
O16 Si0 1.666410 1_555
O17 Si4 1.664947 1_555
O17 Si1 1.666410 1_555
O18 Si5 1.664495 1_555
O18 Si2 1.670067 1_555
O19 Si5 1.664495 1_555
O19 Si3 1.670067 1_555
O20 Si6 1.637508 1_555
O20 Sn1 2.062360 1_555
O21 Si7 1.637508 1_555
O21 Sn0 2.062360 1_555
O22 Si8 1.633607 1_555
O22 Sn3 2.066143 1_555
O23 Si9 1.633607 1_555
O23 Sn2 2.066143 1_555
O24 Si8 1.627824 1_555
O24 Sn1 2.056465 1_565
O25 Si9 1.627824 1_555
O25 Sn0 2.056465 1_455
O26 Si6 1.623382 1_555
O26 Sn3 2.052761 1_545
O27 Si7 1.623382 1_555
O27 Sn2 2.052761 1_655
O28 Si7 1.633063 1_555
O28 Sn2 2.076513 1_565
O28 O32 3.043163 1_555
O29 Si6 1.633063 1_555
O29 Sn3 2.076513 1_455
O29 O33 3.043163 1_555
O30 Si9 1.634646 1_555
O30 Sn0 2.057680 1_545
O31 Si8 1.634646 1_555
O31 Sn1 2.057680 1_655
O32 O8 2.768626 1_555
O33 O9 2.768626 1_555
