# generated using pymatgen
data_Ag2Pd(NO2)4
_symmetry_space_group_name_H-M   'P 1'
_cell_length_a   15.04286900
_cell_length_b   7.72003000
_cell_length_c   8.56586628
_cell_angle_alpha   56.71005135
_cell_angle_beta   90.00000000
_cell_angle_gamma   90.00000000
_symmetry_Int_Tables_number   1
_chemical_formula_structural   Ag2Pd(NO2)4
_chemical_formula_sum   'Ag8 Pd4 N16 O32'
_cell_volume   831.52857916
_cell_formula_units_Z   4
loop_
 _symmetry_equiv_pos_site_id
 _symmetry_equiv_pos_as_xyz
  1  'x, y, z'
loop_
 _atom_site_type_symbol
 _atom_site_label
 _atom_site_symmetry_multiplicity
 _atom_site_fract_x
 _atom_site_fract_y
 _atom_site_fract_z
 _atom_site_occupancy
  Ag  Ag0  1  0.83966700  0.15323800  0.92199800  1
  Ag  Ag1  1  0.66033300  0.15323800  0.42199800  1
  Ag  Ag2  1  0.16033300  0.84676200  0.07800200  1
  Ag  Ag3  1  0.33966700  0.84676200  0.57800200  1
  Ag  Ag4  1  0.92174800  0.72379300  0.77427400  1
  Ag  Ag5  1  0.57825200  0.72379300  0.27427400  1
  Ag  Ag6  1  0.07825200  0.27620700  0.22572600  1
  Ag  Ag7  1  0.42174800  0.27620700  0.72572600  1
  Pd  Pd0  1  0.86838000  0.70521700  0.33837200  1
  Pd  Pd1  1  0.63162000  0.70521700  0.83837200  1
  Pd  Pd2  1  0.13162000  0.29478300  0.66162800  1
  Pd  Pd3  1  0.36838000  0.29478300  0.16162800  1
  N  N0  1  0.77707700  0.47355000  0.41627200  1
  N  N1  1  0.72292300  0.47355000  0.91627200  1
  N  N2  1  0.22292300  0.52645000  0.58372800  1
  N  N3  1  0.27707700  0.52645000  0.08372800  1
  N  N4  1  0.96439600  0.92778500  0.27296300  1
  N  N5  1  0.53560400  0.92778500  0.77296300  1
  N  N6  1  0.03560400  0.07221500  0.72703700  1
  N  N7  1  0.46439600  0.07221500  0.22703700  1
  N  N8  1  0.95234300  0.55332200  0.25843600  1
  N  N9  1  0.54765700  0.55332200  0.75843600  1
  N  N10  1  0.04765700  0.44667800  0.74156400  1
  N  N11  1  0.45234300  0.44667800  0.24156400  1
  N  N12  1  0.78191600  0.86335600  0.40686000  1
  N  N13  1  0.71808400  0.86335600  0.90686000  1
  N  N14  1  0.21808400  0.13664400  0.59314000  1
  N  N15  1  0.28191600  0.13664400  0.09314000  1
  O  O0  1  0.69902700  0.86699100  0.38416800  1
  O  O1  1  0.80097300  0.86699100  0.88416800  1
  O  O2  1  0.30097300  0.13300900  0.61583200  1
  O  O3  1  0.19902700  0.13300900  0.11583200  1
  O  O4  1  0.81378300  0.96835800  0.46336500  1
  O  O5  1  0.68621700  0.96835800  0.96336500  1
  O  O6  1  0.18621700  0.03164200  0.53663500  1
  O  O7  1  0.31378300  0.03164200  0.03663500  1
  O  O8  1  0.92168800  0.46929000  0.18072000  1
  O  O9  1  0.57831200  0.46929000  0.68072000  1
  O  O10  1  0.07831200  0.53071000  0.81928000  1
  O  O11  1  0.42168800  0.53071000  0.31928000  1
  O  O12  1  0.71524800  0.50234600  0.30541300  1
  O  O13  1  0.78475200  0.50234600  0.80541300  1
  O  O14  1  0.28475200  0.49765400  0.69458700  1
  O  O15  1  0.21524800  0.49765400  0.19458700  1
  O  O16  1  0.78583800  0.30198800  0.56440300  1
  O  O17  1  0.71416200  0.30198800  0.06440300  1
  O  O18  1  0.21416200  0.69801200  0.43559700  1
  O  O19  1  0.28583800  0.69801200  0.93559700  1
  O  O20  1  0.03397100  0.53969300  0.29470800  1
  O  O21  1  0.46602900  0.53969300  0.79470800  1
  O  O22  1  0.96602900  0.46030700  0.70529200  1
  O  O23  1  0.53397100  0.46030700  0.20529200  1
  O  O24  1  0.01935000  0.90355800  0.39108000  1
  O  O25  1  0.48065000  0.90355800  0.89108000  1
  O  O26  1  0.98065000  0.09644200  0.60892000  1
  O  O27  1  0.51935000  0.09644200  0.10892000  1
  O  O28  1  0.96509500  0.09677600  0.11368000  1
  O  O29  1  0.53490500  0.09677600  0.61368000  1
  O  O30  1  0.03490500  0.90322400  0.88632000  1
  O  O31  1  0.46509500  0.90322400  0.38632000  1
loop_
_geom_bond_atom_site_label_1
_geom_bond_atom_site_label_2
_geom_bond_distance
_geom_bond_site_symmetry_2
Ag0 O28 2.379129 1_556
Ag0 O13 2.447206 1_555
Ag0 O1 2.472503 1_545
Ag0 O5 2.633606 1_545
Ag0 O16 2.737821 1_555
Ag0 O22 2.801433 1_555
Ag0 O17 2.812255 1_556
Ag1 O29 2.379129 1_555
Ag1 O12 2.447206 1_555
Ag1 O0 2.472503 1_545
Ag1 O4 2.633606 1_545
Ag1 O17 2.737821 1_555
Ag1 O23 2.801433 1_555
Ag1 O16 2.812255 1_555
Ag2 O30 2.379129 1_554
Ag2 O15 2.447206 1_555
Ag2 O3 2.472503 1_565
Ag2 O7 2.633606 1_565
Ag2 O18 2.737821 1_555
Ag2 O20 2.801433 1_555
Ag2 O19 2.812255 1_554
Ag3 O31 2.379129 1_555
Ag3 O14 2.447206 1_555
Ag3 O2 2.472503 1_565
Ag3 O6 2.633606 1_565
Ag3 O19 2.737821 1_555
Ag3 O21 2.801433 1_555
Ag3 O18 2.812255 1_555
Ag4 O22 2.499987 1_555
Ag4 O1 2.559564 1_555
Ag4 O26 2.567977 1_565
Ag4 O13 2.596185 1_555
Ag4 O30 2.682709 1_655
Ag4 O10 2.699359 1_655
Ag4 O4 2.788425 1_555
Ag4 O8 2.910748 1_556
Ag4 O24 3.139289 1_655
Ag5 O23 2.499987 1_555
Ag5 O0 2.559564 1_555
Ag5 O27 2.567977 1_565
Ag5 O12 2.596185 1_555
Ag5 O31 2.682709 1_555
Ag5 O11 2.699359 1_555
Ag5 O5 2.788425 1_554
Ag5 O9 2.910748 1_555
Ag5 O25 3.139289 1_554
Ag6 O20 2.499987 1_555
Ag6 O3 2.559564 1_555
Ag6 O24 2.567977 1_545
Ag6 O15 2.596185 1_555
Ag6 O28 2.682709 1_455
Ag6 O8 2.699359 1_455
Ag6 O6 2.788425 1_555
Ag6 O10 2.910748 1_554
Ag6 O26 3.139289 1_455
Ag7 O21 2.499987 1_555
Ag7 O2 2.559564 1_555
Ag7 O25 2.567977 1_545
Ag7 O14 2.596185 1_555
Ag7 O29 2.682709 1_555
Ag7 O9 2.699359 1_555
Ag7 O7 2.788425 1_556
Ag7 O11 2.910748 1_555
Ag7 O27 3.139289 1_556
N0 O16 1.239658 1_555
N0 O12 1.258764 1_555
N0 Pd0 2.054319 1_555
N1 O17 1.239658 1_556
N1 O13 1.258764 1_555
N1 Pd1 2.054319 1_555
N2 O18 1.239658 1_555
N2 O14 1.258764 1_555
N2 Pd2 2.054319 1_555
N3 O19 1.239658 1_554
N3 O15 1.258764 1_555
N3 Pd3 2.054319 1_555
N4 O24 1.238673 1_655
N4 O28 1.268738 1_565
N4 Pd0 2.072583 1_555
N5 O25 1.238673 1_555
N5 O29 1.268738 1_565
N5 Pd1 2.072583 1_555
N6 O26 1.238673 1_455
N6 O30 1.268738 1_545
N6 Pd2 2.072583 1_555
N7 O27 1.238673 1_555
N7 O31 1.268738 1_545
N7 Pd3 2.072583 1_555
N8 O8 1.245287 1_555
N8 O20 1.256784 1_655
N8 Pd0 2.078608 1_555
N9 O9 1.245287 1_555
N9 O21 1.256784 1_555
N9 Pd1 2.078608 1_555
N10 O10 1.245287 1_555
N10 O22 1.256784 1_455
N10 Pd2 2.078608 1_555
N11 O11 1.245287 1_555
N11 O23 1.256784 1_555
N11 Pd3 2.078608 1_555
N12 O4 1.245742 1_555
N12 O0 1.259886 1_555
N12 Pd0 2.076674 1_555
N13 O5 1.245742 1_555
N13 O1 1.259886 1_555
N13 Pd1 2.076674 1_555
N14 O6 1.245742 1_555
N14 O2 1.259886 1_555
N14 Pd2 2.076674 1_555
N15 O7 1.245742 1_555
N15 O3 1.259886 1_555
N15 Pd3 2.076674 1_555
