# generated using pymatgen
data_Li4MnCo2O7
_symmetry_space_group_name_H-M   'P 1'
_cell_length_a   5.91705784
_cell_length_b   6.56705454
_cell_length_c   7.73161936
_cell_angle_alpha   115.58486619
_cell_angle_beta   111.81371649
_cell_angle_gamma   75.85785138
_symmetry_Int_Tables_number   1
_chemical_formula_structural   Li4MnCo2O7
_chemical_formula_sum   'Li8 Mn2 Co4 O14'
_cell_volume   250.30679300
_cell_formula_units_Z   2
loop_
 _symmetry_equiv_pos_site_id
 _symmetry_equiv_pos_as_xyz
  1  'x, y, z'
loop_
 _atom_site_type_symbol
 _atom_site_label
 _atom_site_symmetry_multiplicity
 _atom_site_fract_x
 _atom_site_fract_y
 _atom_site_fract_z
 _atom_site_occupancy
  Li  Li0  1  0.20667900  0.42520300  0.13433400  1
  Li  Li1  1  0.92334300  0.85234600  0.28255300  1
  Li  Li2  1  0.64724700  0.29006700  0.42496500  1
  Li  Li3  1  0.35463800  0.71139600  0.56903700  1
  Li  Li4  1  0.07207200  0.14626800  0.71280800  1
  Li  Li5  1  0.78421500  0.56766100  0.86518900  1
  Li  Li6  1  0.50797900  0.00812300  0.00925900  1
  Li  Li7  1  0.71516100  0.42933000  0.14482000  1
  Mn  Mn0  1  0.99773000  0.00359400  0.00108300  1
  Mn  Mn1  1  0.85513400  0.70912400  0.56969000  1
  Co  Co0  1  0.44119200  0.84572300  0.28096800  1
  Co  Co1  1  0.13830800  0.28271600  0.42127700  1
  Co  Co2  1  0.56929600  0.15739300  0.72497000  1
  Co  Co3  1  0.28982600  0.56991600  0.85995800  1
  O  O0  1  0.89213700  0.26039700  0.92512500  1
  O  O1  1  0.59232500  0.72202800  0.07733900  1
  O  O2  1  0.29577000  0.13539400  0.19791100  1
  O  O3  1  0.03209000  0.56943000  0.37724200  1
  O  O4  1  0.74558500  0.98523700  0.50862800  1
  O  O5  1  0.44800400  0.43134600  0.65285400  1
  O  O6  1  0.15623200  0.84235700  0.78548900  1
  O  O7  1  0.55750600  0.58942600  0.37825600  1
  O  O8  1  0.26133000  0.01419200  0.49142600  1
  O  O9  1  0.96068300  0.44408700  0.63625700  1
  O  O10  1  0.70543400  0.86375200  0.79097700  1
  O  O11  1  0.38913600  0.29115100  0.91210700  1
  O  O12  1  0.11975600  0.72064100  0.06189800  1
  O  O13  1  0.84119100  0.13170200  0.20358200  1
loop_
_geom_bond_atom_site_label_1
_geom_bond_atom_site_label_2
_geom_bond_distance
_geom_bond_site_symmetry_2
Li0 O2 2.065629 1_555
Li0 O0 2.118169 1_454
Li0 O11 2.121417 1_554
Li0 O12 2.139902 1_555
Li0 O3 2.217847 1_555
Li0 O7 2.335979 1_555
Li1 O13 2.070206 1_565
Li1 O1 2.103071 1_555
Li1 O4 2.126834 1_555
Li1 O3 2.154622 1_655
Li1 O12 2.171899 1_655
Li1 O8 2.212053 1_665
Li2 O7 2.058576 1_555
Li2 O9 2.090282 1_555
Li2 O13 2.160414 1_555
Li2 O5 2.225422 1_555
Li2 O4 2.243615 1_545
Li2 O2 2.284203 1_555
Li3 O7 2.020856 1_555
Li3 O3 2.069483 1_555
Li3 O5 2.091477 1_555
Li3 O6 2.154577 1_555
Li3 O8 2.206086 1_565
Li3 O10 2.266927 1_555
Li4 O0 2.058231 1_455
Li4 O11 2.063227 1_555
Li4 O8 2.145629 1_555
Li4 O4 2.152298 1_445
Li4 O9 2.165595 1_455
Li4 O6 2.195907 1_545
Li5 O1 2.095902 1_556
Li5 O9 2.144918 1_555
Li5 O5 2.151252 1_555
Li5 O10 2.156223 1_555
Li5 O0 2.156886 1_555
Li5 O12 2.162211 1_656
Li6 O2 2.048918 1_555
Li6 O1 2.063189 1_545
Li6 O13 2.081000 1_555
Li6 O10 2.157385 1_544
Li6 O11 2.165159 1_554
Li6 O6 2.305324 1_544
Li7 O0 2.083085 1_554
Li7 O7 2.089527 1_555
Li7 O13 2.094199 1_555
Li7 O1 2.096868 1_555
Li7 O3 2.122049 1_655
Li7 O11 2.155900 1_554
Mn0 O13 1.891108 1_555
Mn0 O0 1.909757 1_554
Mn0 O2 1.946480 1_655
Mn0 O10 1.968038 1_544
Mn0 O6 1.982784 1_644
Mn0 O12 2.010449 1_645
Mn1 O7 1.909039 1_555
Mn1 O3 1.913474 1_655
Mn1 O9 1.920403 1_555
Mn1 O4 1.966855 1_555
Mn1 O10 1.982214 1_555
Mn1 O6 2.003800 1_655
Co0 O1 1.877505 1_555
Co0 O7 2.003752 1_555
Co0 O8 2.039887 1_565
Co0 O4 2.058901 1_555
Co0 O12 2.080542 1_555
Co0 O2 2.148495 1_565
Co1 O8 1.959347 1_555
Co1 O3 1.967863 1_555
Co1 O2 2.024554 1_555
Co1 O13 2.029386 1_455
Co1 O9 2.055014 1_455
Co1 O5 2.107777 1_555
Co2 O11 1.895368 1_555
Co2 O5 2.000162 1_555
Co2 O0 2.007947 1_555
Co2 O4 2.061845 1_545
Co2 O8 2.095436 1_555
Co2 O10 2.100784 1_545
Co3 O5 1.925403 1_555
Co3 O12 1.943270 1_556
Co3 O11 1.948066 1_555
Co3 O6 2.004431 1_555
Co3 O1 2.052882 1_556
Co3 O9 2.125059 1_455
