# generated using pymatgen
data_Sr2TaMnO6
_symmetry_space_group_name_H-M   'P 1'
_cell_length_a   5.66106255
_cell_length_b   5.71303440
_cell_length_c   9.86047932
_cell_angle_alpha   72.92114381
_cell_angle_beta   90.06580492
_cell_angle_gamma   60.21371177
_symmetry_Int_Tables_number   1
_chemical_formula_structural   Sr2TaMnO6
_chemical_formula_sum   'Sr4 Ta2 Mn2 O12'
_cell_volume   260.37943910
_cell_formula_units_Z   2
loop_
 _symmetry_equiv_pos_site_id
 _symmetry_equiv_pos_as_xyz
  1  'x, y, z'
loop_
 _atom_site_type_symbol
 _atom_site_label
 _atom_site_symmetry_multiplicity
 _atom_site_fract_x
 _atom_site_fract_y
 _atom_site_fract_z
 _atom_site_occupancy
  Sr  Sr0  1  0.37727600  0.24535600  0.12433900  1
  Sr  Sr1  1  0.87310800  0.25389900  0.62483600  1
  Sr  Sr2  1  0.12268000  0.75458600  0.37584500  1
  Sr  Sr3  1  0.62683300  0.74618800  0.87506600  1
  Ta  Ta0  1  0.00881800  0.98220500  0.99989900  1
  Ta  Ta1  1  0.49113500  0.01788700  0.50011100  1
  Mn  Mn0  1  0.25005800  0.49991700  0.75000900  1
  Mn  Mn1  1  0.74992200  0.50012600  0.24977100  1
  O  O0  1  0.61575100  0.27725600  0.37926700  1
  O  O1  1  0.13442700  0.21803500  0.87331600  1
  O  O2  1  0.60019600  0.79965000  0.37078600  1
  O  O3  1  0.14598200  0.70748700  0.88245300  1
  O  O4  1  0.10690400  0.27755000  0.37932000  1
  O  O5  1  0.64591500  0.21943900  0.87285900  1
  O  O6  1  0.88408900  0.72286400  0.12066400  1
  O  O7  1  0.36570600  0.78191500  0.62676000  1
  O  O8  1  0.89986600  0.20028500  0.12925800  1
  O  O9  1  0.35410400  0.29231100  0.61763700  1
  O  O10  1  0.39307100  0.72241900  0.12066000  1
  O  O11  1  0.85416100  0.78062600  0.62714200  1
loop_
_geom_bond_atom_site_label_1
_geom_bond_atom_site_label_2
_geom_bond_distance
_geom_bond_site_symmetry_2
Mn0 O9 1.916861 1_555
Mn0 O3 1.917337 1_555
Mn0 O5 2.083972 1_555
Mn0 O11 2.084273 1_455
Mn0 O1 2.097448 1_555
Mn0 O7 2.097811 1_555
Mn1 O10 1.951951 1_555
Mn1 O4 1.954378 1_655
Mn1 O6 1.956471 1_555
Mn1 O0 1.958746 1_555
Mn1 O8 2.195520 1_555
Mn1 O2 2.197987 1_555
O0 Ta1 2.028945 1_555
O0 Sr2 2.759010 1_555
O0 Sr1 2.759107 1_555
O0 Sr0 2.946227 1_555
O0 Sr2 2.949350 1_645
O1 Ta0 1.960844 1_545
O1 Sr3 2.746674 1_545
O1 Sr1 2.762108 1_455
O1 Sr0 2.910902 1_556
O1 Sr3 2.962802 1_455
O2 Ta1 1.932027 1_565
O2 Sr0 2.673476 1_565
O2 Sr2 2.837778 1_655
O2 Sr2 2.839109 1_555
O2 Sr1 3.000169 1_555
O3 Ta0 2.065473 1_555
O3 Sr0 2.689456 1_556
O3 Sr3 2.834781 1_455
O3 Sr3 2.837805 1_555
O3 Sr1 3.020938 1_465
O4 Ta1 2.025070 1_555
O4 Sr2 2.761071 1_555
O4 Sr1 2.761102 1_455
O4 Sr0 2.949354 1_555
O4 Sr2 2.954760 1_545
O5 Ta0 1.963972 1_645
O5 Sr3 2.752772 1_545
O5 Sr1 2.765868 1_555
O5 Sr0 2.912779 1_556
O5 Sr3 2.963736 1_555
O6 Ta0 2.028993 1_654
O6 Sr0 2.759147 1_655
O6 Sr3 2.759156 1_554
O6 Sr2 2.948171 1_655
O6 Sr0 2.949274 1_565
O7 Ta1 1.960961 1_565
O7 Sr1 2.747134 1_465
O7 Sr3 2.760438 1_555
O7 Sr2 2.910504 1_555
O7 Sr1 2.962402 1_555
O8 Ta0 1.931702 1_644
O8 Sr2 2.674328 1_645
O8 Sr0 2.838374 1_555
O8 Sr0 2.838545 1_655
O8 Sr3 3.001376 1_554
O9 Ta1 2.064854 1_555
O9 Sr2 2.689295 1_555
O9 Sr1 2.834693 1_555
O9 Sr1 2.837714 1_455
O9 Sr3 3.019066 1_545
O10 Ta0 2.025067 1_554
O10 Sr0 2.760724 1_555
O10 Sr3 2.761688 1_554
O10 Sr2 2.951151 1_555
O10 Sr0 2.955176 1_565
O11 Ta1 1.964421 1_565
O11 Sr1 2.752221 1_565
O11 Sr3 2.765402 1_555
O11 Sr2 2.910906 1_655
O11 Sr1 2.964267 1_555
