# generated using pymatgen
data_MnHg3S4
_symmetry_space_group_name_H-M   'P 1'
_cell_length_a   13.83327907
_cell_length_b   13.83327907
_cell_length_c   13.83327911
_cell_angle_alpha   17.42363202
_cell_angle_beta   17.42363202
_cell_angle_gamma   17.42363132
_symmetry_Int_Tables_number   1
_chemical_formula_structural   MnHg3S4
_chemical_formula_sum   'Mn1 Hg3 S4'
_cell_volume   207.12988322
_cell_formula_units_Z   1
loop_
 _symmetry_equiv_pos_site_id
 _symmetry_equiv_pos_as_xyz
  1  'x, y, z'
loop_
 _atom_site_type_symbol
 _atom_site_label
 _atom_site_symmetry_multiplicity
 _atom_site_fract_x
 _atom_site_fract_y
 _atom_site_fract_z
 _atom_site_occupancy
  Mn  Mn0  1  0.75086100  0.75086100  0.75086100  1
  Hg  Hg0  1  0.00224400  0.00224400  0.00224400  1
  Hg  Hg1  1  0.24986900  0.24986900  0.24986900  1
  Hg  Hg2  1  0.49695300  0.49695300  0.49695300  1
  S  S0  1  0.93884000  0.93884000  0.93884000  1
  S  S1  1  0.18624900  0.18624900  0.18624900  1
  S  S2  1  0.43291600  0.43291600  0.43291600  1
  S  S3  1  0.69206800  0.69206800  0.69206800  1
loop_
_geom_bond_atom_site_label_1
_geom_bond_atom_site_label_2
_geom_bond_distance
_geom_bond_site_symmetry_2
Mn0 S3 2.402293 1_555
Mn0 S2 2.499760 1_565
Mn0 S2 2.499760 1_655
Mn0 S2 2.499760 1_556
Hg0 S0 2.590700 1_444
Hg0 S3 2.597839 1_454
Hg0 S3 2.597839 1_544
Hg0 S3 2.597839 1_445
Hg1 S0 2.585348 1_454
Hg1 S0 2.585348 1_544
Hg1 S0 2.585348 1_445
Hg1 S1 2.599526 1_555
Hg2 S1 2.590059 1_565
Hg2 S1 2.590059 1_655
Hg2 S1 2.590059 1_556
Hg2 S2 2.616564 1_555
