# generated using pymatgen
data_Rb3SbF6
_symmetry_space_group_name_H-M   'P 1'
_cell_length_a   8.83945310
_cell_length_b   7.26192342
_cell_length_c   7.27745851
_cell_angle_alpha   76.47108327
_cell_angle_beta   112.63265074
_cell_angle_gamma   127.71556592
_symmetry_Int_Tables_number   1
_chemical_formula_structural   Rb3SbF6
_chemical_formula_sum   'Rb3 Sb1 F6'
_cell_volume   341.08403418
_cell_formula_units_Z   1
loop_
 _symmetry_equiv_pos_site_id
 _symmetry_equiv_pos_as_xyz
  1  'x, y, z'
loop_
 _atom_site_type_symbol
 _atom_site_label
 _atom_site_symmetry_multiplicity
 _atom_site_fract_x
 _atom_site_fract_y
 _atom_site_fract_z
 _atom_site_occupancy
  Rb  Rb0  1  0.00000000  0.00000000  0.50000000  1
  Rb  Rb1  1  0.50000000  0.50000000  0.00000000  1
  Rb  Rb2  1  0.00000000  0.50000000  0.00000000  1
  Sb  Sb0  1  0.00000000  0.00000000  0.00000000  1
  F  F0  1  0.04905700  0.27711600  0.77284000  1
  F  F1  1  0.95094300  0.72288400  0.22716000  1
  F  F2  1  0.77860200  0.70929900  0.78175300  1
  F  F3  1  0.22139800  0.29070100  0.21824700  1
  F  F4  1  0.77250900  0.99129000  0.06749700  1
  F  F5  1  0.22749100  0.00871000  0.93250300  1
loop_
_geom_bond_atom_site_label_1
_geom_bond_atom_site_label_2
_geom_bond_distance
_geom_bond_site_symmetry_2
F0 Sb0 2.213192 1_556
F0 Rb2 2.864097 1_556
F0 Rb0 2.884349 1_555
F0 F5 2.988015 1_555
F0 F3 3.000434 1_556
F0 Rb1 3.086781 1_556
F1 Sb0 2.213192 1_665
F1 Rb2 2.864097 1_655
F1 Rb0 2.884349 1_665
F1 F4 2.988015 1_555
F1 F2 3.000434 1_554
F1 Rb1 3.086781 1_555
F2 Sb0 2.220565 1_666
F2 Rb1 2.863386 1_556
F2 Rb0 2.915363 1_665
F2 Rb2 2.963155 1_656
F2 F5 2.980901 1_665
F3 Sb0 2.220565 1_555
F3 Rb1 2.863386 1_555
F3 Rb0 2.915363 1_555
F3 Rb2 2.963155 1_555
F3 F4 2.980901 1_445
F4 Sb0 2.208859 1_665
F4 Rb1 2.857787 1_555
F4 Rb2 2.958808 1_665
F4 Rb0 3.003465 1_665
F5 Sb0 2.208859 1_556
F5 Rb1 2.857787 1_556
F5 Rb2 2.958808 1_546
F5 Rb0 3.003465 1_555
