# generated using pymatgen
data_UPClO6
_symmetry_space_group_name_H-M   'P 1'
_cell_length_a   10.41729907
_cell_length_b   10.41729907
_cell_length_c   10.41729907
_cell_angle_alpha   96.41518412
_cell_angle_beta   96.41518412
_cell_angle_gamma   140.94444724
_symmetry_Int_Tables_number   1
_chemical_formula_structural   UPClO6
_chemical_formula_sum   'U4 P4 Cl4 O24'
_cell_volume   671.31850421
_cell_formula_units_Z   4
loop_
 _symmetry_equiv_pos_site_id
 _symmetry_equiv_pos_as_xyz
  1  'x, y, z'
loop_
 _atom_site_type_symbol
 _atom_site_label
 _atom_site_symmetry_multiplicity
 _atom_site_fract_x
 _atom_site_fract_y
 _atom_site_fract_z
 _atom_site_occupancy
  U  U0  1  0.36622300  0.17227100  0.55916400  1
  U  U1  1  0.61310800  0.80706000  0.44083600  1
  U  U2  1  0.19294000  0.63377700  0.80604800  1
  U  U3  1  0.82772900  0.38689200  0.19395200  1
  P  P0  1  0.65567000  0.19665900  0.82831000  1
  P  P1  1  0.36834900  0.82736000  0.17169000  1
  P  P2  1  0.17264000  0.34433000  0.54098900  1
  P  P3  1  0.80334100  0.63165100  0.45901100  1
  Cl  Cl0  1  0.24004700  0.14101300  0.82191300  1
  Cl  Cl1  1  0.31910000  0.41813400  0.17808700  1
  Cl  Cl2  1  0.85898700  0.68090000  0.09903400  1
  Cl  Cl3  1  0.58186600  0.75995300  0.90096600  1
  O  O0  1  0.40590100  0.04806300  0.45220800  1
  O  O1  1  0.59585500  0.95369300  0.54779200  1
  O  O2  1  0.04630700  0.59409900  0.64216100  1
  O  O3  1  0.95193700  0.40414500  0.35783900  1
  O  O4  1  0.23687600  0.10246600  0.37329700  1
  O  O5  1  0.72917000  0.86358000  0.62670300  1
  O  O6  1  0.13642000  0.76312400  0.86559000  1
  O  O7  1  0.89753400  0.27083000  0.13441000  1
  O  O8  1  0.04149200  0.84170900  0.54090500  1
  O  O9  1  0.30080400  0.50058700  0.45909500  1
  O  O10  1  0.87427400  0.32271700  0.81978600  1
  O  O11  1  0.50293000  0.05448800  0.18021400  1
  O  O12  1  0.94551200  0.12572600  0.44844300  1
  O  O13  1  0.67728300  0.49707000  0.55155700  1
  O  O14  1  0.15829100  0.69919600  0.19978300  1
  O  O15  1  0.49941300  0.95850800  0.80021700  1
  O  O16  1  0.29296000  0.31911900  0.60544200  1
  O  O17  1  0.71367700  0.68751800  0.39455800  1
  O  O18  1  0.31248200  0.70704000  0.02615900  1
  O  O19  1  0.68088100  0.28632300  0.97384100  1
  O  O20  1  0.56065300  0.22191300  0.72571600  1
  O  O21  1  0.49619700  0.83493700  0.27428400  1
  O  O22  1  0.16506300  0.43934700  0.66126000  1
  O  O23  1  0.77808700  0.50380300  0.33874000  1
loop_
_geom_bond_atom_site_label_1
_geom_bond_atom_site_label_2
_geom_bond_distance
_geom_bond_site_symmetry_2
Cl0 O16 2.907903 1_555
Cl0 O8 3.026631 1_545
Cl0 O20 3.071529 1_555
Cl0 U0 3.108703 1_555
Cl0 O6 3.283161 1_545
Cl0 O19 3.595792 1_555
Cl0 O5 3.632040 1_445
Cl0 Cl1 4.001289 1_556
Cl1 O17 2.907903 1_555
Cl1 O9 3.026631 1_555
Cl1 O21 3.071529 1_555
Cl1 U1 3.108706 1_555
Cl1 O7 3.283161 1_455
Cl1 O18 3.595792 1_555
Cl1 O4 3.632044 1_555
Cl2 O19 2.907903 1_554
Cl2 O14 3.026631 1_655
Cl2 O23 3.071529 1_555
Cl2 U3 3.108712 1_555
Cl2 O4 3.283167 1_665
Cl2 O17 3.595792 1_555
Cl2 O6 3.632037 1_654
Cl2 Cl3 4.001289 1_554
Cl3 O18 2.907903 1_556
Cl3 O15 3.026631 1_555
Cl3 O22 3.071529 1_555
Cl3 U2 3.108712 1_555
Cl3 O5 3.283171 1_555
Cl3 O16 3.595792 1_555
Cl3 O7 3.632037 1_566
O0 U0 1.922980 1_555
O0 O4 2.329753 1_555
O1 U1 1.922979 1_555
O1 O5 2.329753 1_555
O2 U2 1.922982 1_555
O2 O6 2.329765 1_555
O3 U3 1.922982 1_555
O3 O7 2.329766 1_555
O4 U0 1.916767 1_555
O5 U1 1.916767 1_555
O6 U2 1.916767 1_555
O7 U3 1.916767 1_555
O8 P3 1.532841 1_455
O8 U0 2.226201 1_565
O9 P2 1.532841 1_555
O9 U1 2.226208 1_555
O10 P0 1.531374 1_555
O10 U2 2.245921 1_655
O11 P1 1.531377 1_545
O11 U3 2.245924 1_555
O12 P2 1.531374 1_655
O12 U1 2.245918 1_545
O13 P3 1.531370 1_555
O13 U0 2.245929 1_555
O14 P1 1.532841 1_555
O14 U3 2.226204 1_455
O15 P0 1.532841 1_565
O15 U2 2.226204 1_555
O16 P2 1.566337 1_555
O16 U0 2.210364 1_555
O17 P3 1.566337 1_555
O17 U1 2.210364 1_555
O18 P1 1.566337 1_555
O18 U2 2.210366 1_554
O19 P0 1.566337 1_555
O19 U3 2.210366 1_556
O20 P0 1.556291 1_555
O20 U0 2.183483 1_555
O21 P1 1.556291 1_555
O21 U1 2.183482 1_555
O22 P2 1.556291 1_555
O22 U2 2.183490 1_555
O23 P3 1.556291 1_555
O23 U3 2.183490 1_555
