# generated using pymatgen
data_Zn3Sn3Se9NO4
_symmetry_space_group_name_H-M   'P 1'
_cell_length_a   7.63684700
_cell_length_b   7.84464447
_cell_length_c   10.23359332
_cell_angle_alpha   105.52929962
_cell_angle_beta   108.57455982
_cell_angle_gamma   95.69177088
_symmetry_Int_Tables_number   1
_chemical_formula_structural   Zn3Sn3Se9NO4
_chemical_formula_sum   'Zn3 Sn3 Se9 N1 O4'
_cell_volume   548.38801102
_cell_formula_units_Z   1
loop_
 _symmetry_equiv_pos_site_id
 _symmetry_equiv_pos_as_xyz
  1  'x, y, z'
loop_
 _atom_site_type_symbol
 _atom_site_label
 _atom_site_symmetry_multiplicity
 _atom_site_fract_x
 _atom_site_fract_y
 _atom_site_fract_z
 _atom_site_occupancy
  Zn  Zn0  1  0.28930700  0.76675200  0.31060300  1
  Zn  Zn1  1  0.90151600  0.81444900  0.94522400  1
  Zn  Zn2  1  0.11955700  0.28362800  0.59803600  1
  Sn  Sn0  1  0.60172400  0.51682600  0.54567200  1
  Sn  Sn1  1  0.32053500  0.20237100  0.08512000  1
  Sn  Sn2  1  0.72463400  0.57702500  0.20023400  1
  Se  Se0  1  0.97826800  0.82984500  0.20736800  1
  Se  Se1  1  0.41414900  0.17686200  0.41406100  1
  Se  Se2  1  0.71273000  0.50795300  0.80990900  1
  Se  Se3  1  0.24014900  0.84760900  0.94243800  1
  Se  Se4  1  0.91807200  0.59461800  0.48940700  1
  Se  Se5  1  0.39412100  0.74888100  0.54972700  1
  Se  Se6  1  0.66747300  0.24136000  0.05376500  1
  Se  Se7  1  0.99259400  0.28759500  0.82883200  1
  Se  Se8  1  0.47233200  0.80408200  0.16021600  1
  N  N0  1  0.86797800  0.04440300  0.91297100  1
  O  O0  1  0.30366200  0.16787800  0.54165600  1
  O  O1  1  0.92547800  0.13487500  0.65955300  1
  O  O2  1  0.97199000  0.37918900  0.45062700  1
  O  O3  1  0.17786000  0.41786000  0.81220000  1
loop_
_geom_bond_atom_site_label_1
_geom_bond_atom_site_label_2
_geom_bond_distance
_geom_bond_site_symmetry_2
Sn1 Sn2 3.685141 1_555
Se0 Zn0 2.432665 1_655
Se0 Zn1 2.523015 1_554
Se0 Sn2 2.600186 1_555
Se1 Sn0 2.658592 1_555
Se1 Zn0 3.050367 1_545
Se1 Sn1 3.276991 1_555
Se2 Zn1 2.456581 1_555
Se2 Sn0 2.586060 1_555
Se2 Se7 2.870892 1_555
Se3 Se8 2.497507 1_556
Se3 Zn1 2.583378 1_455
Se3 Sn1 2.677324 1_566
Se4 Sn0 2.706003 1_555
Se4 Sn2 2.813269 1_555
Se5 Zn0 2.367852 1_555
Se5 Sn0 2.530428 1_555
Se6 Sn2 2.571501 1_555
Se6 Sn1 2.765837 1_555
Se7 Sn1 3.268690 1_656
Se8 Zn0 2.436902 1_555
Se8 Sn2 2.760702 1_555
N0 Zn1 1.945566 1_545
N0 Se7 2.515573 1_555
N0 Se6 2.736901 1_556
N0 Sn1 3.269020 1_656
O0 Se1 1.778005 1_555
O0 Zn2 1.903596 1_555
O1 Se7 1.703000 1_555
O1 Zn2 2.144650 1_655
O2 Se4 1.751010 1_555
O2 Zn2 1.948761 1_655
O3 Se7 1.742061 1_455
O3 Zn2 2.039614 1_555
O3 Se3 3.199983 1_555
O3 Sn1 3.577715 1_556
