# generated using pymatgen
data_Sr10Li24NiN15
_symmetry_space_group_name_H-M   'P 1'
_cell_length_a   3.77333500
_cell_length_b   3.91681100
_cell_length_c   52.04448211
_cell_angle_alpha   90.00000000
_cell_angle_beta   87.92251168
_cell_angle_gamma   90.00000000
_symmetry_Int_Tables_number   1
_chemical_formula_structural   Sr10Li24NiN15
_chemical_formula_sum   'Sr10 Li24 Ni1 N15'
_cell_volume   768.68272577
_cell_formula_units_Z   1
loop_
 _symmetry_equiv_pos_site_id
 _symmetry_equiv_pos_as_xyz
  1  'x, y, z'
loop_
 _atom_site_type_symbol
 _atom_site_label
 _atom_site_symmetry_multiplicity
 _atom_site_fract_x
 _atom_site_fract_y
 _atom_site_fract_z
 _atom_site_occupancy
  Sr  Sr0  1  0.98240900  0.00000000  0.03518100  1
  Sr  Sr1  1  0.38279800  0.00000000  0.23440400  1
  Sr  Sr2  1  0.78278700  0.00000000  0.43442700  1
  Sr  Sr3  1  0.18275100  0.00000000  0.63449700  1
  Sr  Sr4  1  0.58277000  0.00000000  0.83446000  1
  Sr  Sr5  1  0.41723000  0.00000000  0.16554000  1
  Sr  Sr6  1  0.81724900  0.00000000  0.36550300  1
  Sr  Sr7  1  0.21721300  0.00000000  0.56557300  1
  Sr  Sr8  1  0.61720200  0.00000000  0.76559600  1
  Sr  Sr9  1  0.01759100  0.00000000  0.96481900  1
  Li  Li0  1  0.95559900  0.00000000  0.08880200  1
  Li  Li1  1  0.35569000  0.00000000  0.28861900  1
  Li  Li2  1  0.75569700  0.00000000  0.48860700  1
  Li  Li3  1  0.15567800  0.00000000  0.68864500  1
  Li  Li4  1  0.55569300  0.00000000  0.88861500  1
  Li  Li5  1  0.44430700  0.00000000  0.11138500  1
  Li  Li6  1  0.84432200  0.00000000  0.31135500  1
  Li  Li7  1  0.24430300  0.00000000  0.51139300  1
  Li  Li8  1  0.64431000  0.00000000  0.71138100  1
  Li  Li9  1  0.04440100  0.00000000  0.91119800  1
  Li  Li10  1  0.46397900  0.50000000  0.07204200  1
  Li  Li11  1  0.86391200  0.50000000  0.27217700  1
  Li  Li12  1  0.26391600  0.50000000  0.47216800  1
  Li  Li13  1  0.66390200  0.50000000  0.67219600  1
  Li  Li14  1  0.06389400  0.50000000  0.87221100  1
  Li  Li15  1  0.93610600  0.50000000  0.12778900  1
  Li  Li16  1  0.33609800  0.50000000  0.32780400  1
  Li  Li17  1  0.73608400  0.50000000  0.52783200  1
  Li  Li18  1  0.13608800  0.50000000  0.72782300  1
  Li  Li19  1  0.53602100  0.50000000  0.92795800  1
  Li  Li20  1  0.89999800  0.50000000  0.20000400  1
  Li  Li21  1  0.30000700  0.50000000  0.39998500  1
  Li  Li22  1  0.69999300  0.50000000  0.60001500  1
  Li  Li23  1  0.10000200  0.50000000  0.79999600  1
  Ni  Ni0  1  0.50000000  0.50000000  0.00000000  1
  N  N0  1  0.93508500  0.00000000  0.12983000  1
  N  N1  1  0.33509800  0.00000000  0.32980400  1
  N  N2  1  0.73512000  0.00000000  0.52976000  1
  N  N3  1  0.13513200  0.00000000  0.72973600  1
  N  N4  1  0.53526500  0.00000000  0.92946900  1
  N  N5  1  0.46473500  0.00000000  0.07053100  1
  N  N6  1  0.86486800  0.00000000  0.27026400  1
  N  N7  1  0.26488000  0.00000000  0.47024000  1
  N  N8  1  0.66490200  0.00000000  0.67019600  1
  N  N9  1  0.06491500  0.00000000  0.87017000  1
  N  N10  1  0.00000000  0.50000000  0.00000000  1
  N  N11  1  0.39998900  0.50000000  0.20002300  1
  N  N12  1  0.80000100  0.50000000  0.39999800  1
  N  N13  1  0.19999900  0.50000000  0.60000200  1
  N  N14  1  0.60001100  0.50000000  0.79997700  1
loop_
_geom_bond_atom_site_label_1
_geom_bond_atom_site_label_2
_geom_bond_distance
_geom_bond_site_symmetry_2
Li0 N5 2.112472 1_555
Li0 N5 2.112476 1_655
Li0 N0 2.133878 1_555
Li0 Li5 2.222402 1_655
Li0 Li5 2.222405 1_555
Li0 Sr0 2.788843 1_555
Li0 Li15 2.819046 1_545
Li0 Li15 2.819046 1_555
Li0 Li10 2.855646 1_655
Li0 Li10 2.855646 1_645
Li0 Li10 2.855646 1_555
Li0 Li10 2.855646 1_545
Li1 N6 2.114441 1_455
Li1 N6 2.114444 1_555
Li1 N1 2.142043 1_555
Li1 Li6 2.226619 1_455
Li1 Li6 2.226619 1_555
Li1 Sr1 2.819737 1_555
Li1 Li16 2.826462 1_545
Li1 Li16 2.826462 1_555
Li1 Li11 2.850638 1_445
Li1 Li11 2.850638 1_455
Li1 Li11 2.850643 1_545
Li1 Li11 2.850643 1_555
Li2 N7 2.114723 1_655
Li2 N7 2.114726 1_555
Li2 N2 2.140379 1_555
Li2 Li7 2.227998 1_655
Li2 Li7 2.228005 1_555
Li2 Sr2 2.817917 1_555
Li3 N8 2.116653 1_555
Li3 N8 2.116656 1_455
Li3 N3 2.137154 1_555
Li3 Li8 2.226619 1_455
Li3 Li8 2.226619 1_555
Li3 Sr3 2.816252 1_555
Li4 N9 2.116559 1_655
Li4 N9 2.116562 1_555
Li4 N4 2.124828 1_555
Li4 Li9 2.222402 1_655
Li4 Li9 2.222405 1_555
Li4 Sr4 2.816616 1_555
Li5 N0 2.116559 1_455
Li5 N0 2.116562 1_555
Li5 N5 2.124828 1_555
Li5 Sr5 2.816616 1_555
Li6 N1 2.116653 1_555
Li6 N1 2.116656 1_655
Li6 N6 2.137154 1_555
Li6 Sr6 2.816252 1_555
Li7 N2 2.114723 1_455
Li7 N2 2.114726 1_555
Li7 N7 2.140379 1_555
Li7 Sr7 2.817917 1_555
Li8 N3 2.114441 1_655
Li8 N3 2.114444 1_555
Li8 N8 2.142043 1_555
Li8 Sr8 2.819737 1_555
Li9 N4 2.112472 1_555
Li9 N4 2.112476 1_455
Li9 N9 2.133878 1_555
Li9 Sr9 2.788843 1_555
Li10 N5 1.959982 1_555
Li10 N5 1.959982 1_565
Li10 Li5 2.832393 1_555
Li10 Li5 2.832393 1_565
Li10 Sr0 3.327210 1_555
Li10 Sr0 3.327210 1_565
Li10 Sr0 3.327212 1_455
Li10 Sr0 3.327212 1_465
Li11 N6 1.960931 1_565
Li11 N6 1.960931 1_555
Li11 Li6 2.826200 1_555
Li11 Li6 2.826200 1_565
Li12 N7 1.960971 1_565
Li12 N7 1.960971 1_555
Li12 Li7 2.827963 1_555
Li12 Li7 2.827963 1_565
Li12 Li2 2.850593 1_455
Li12 Li2 2.850593 1_465
Li12 Li2 2.850595 1_565
Li12 Li2 2.850595 1_555
Li13 N8 1.961166 1_565
Li13 N8 1.961166 1_555
Li13 Li8 2.826462 1_555
Li13 Li8 2.826462 1_565
Li13 Li3 2.850749 1_555
Li13 Li3 2.850749 1_565
Li13 Li3 2.850751 1_665
Li13 Li3 2.850751 1_655
Li14 N9 1.961280 1_555
Li14 N9 1.961280 1_565
Li14 Li9 2.819046 1_565
Li14 Li9 2.819046 1_555
Li14 Li4 2.850046 1_455
Li14 Li4 2.850046 1_465
Li14 Li4 2.850051 1_565
Li14 Li4 2.850051 1_555
Li15 N0 1.961280 1_555
Li15 N0 1.961280 1_565
Li15 Li5 2.850046 1_665
Li15 Li5 2.850046 1_655
Li15 Li5 2.850051 1_565
Li15 Li5 2.850051 1_555
Li16 N1 1.961166 1_565
Li16 N1 1.961166 1_555
Li16 Li6 2.850749 1_555
Li16 Li6 2.850749 1_565
Li16 Li6 2.850751 1_465
Li16 Li6 2.850751 1_455
Li17 N2 1.960971 1_565
Li17 N2 1.960971 1_555
Li17 Li2 2.827963 1_565
Li17 Li2 2.827963 1_555
Li17 Li7 2.850593 1_655
Li17 Li7 2.850593 1_665
Li17 Li7 2.850595 1_565
Li17 Li7 2.850595 1_555
Li18 N3 1.960931 1_555
Li18 N3 1.960931 1_565
Li18 Li3 2.826200 1_555
Li18 Li3 2.826200 1_565
Li18 Li8 2.850638 1_455
Li18 Li8 2.850638 1_465
Li18 Li8 2.850643 1_565
Li18 Li8 2.850643 1_555
Li19 N4 1.959982 1_565
Li19 N4 1.959982 1_555
Li19 Li4 2.832393 1_555
Li19 Li4 2.832393 1_565
Li19 Li9 2.855646 1_655
Li19 Li9 2.855646 1_665
Li19 Li9 2.855646 1_555
Li19 Li9 2.855646 1_565
Li19 Sr9 3.327210 1_565
Li19 Sr9 3.327210 1_555
Li19 Sr9 3.327212 1_665
Li19 Sr9 3.327212 1_655
Li20 N11 1.886666 1_555
Li20 N11 1.886670 1_655
Li20 Sr1 3.255140 1_555
Li20 Sr1 3.255140 1_565
Li20 Sr1 3.255140 1_655
Li20 Sr1 3.255140 1_665
Li20 Sr5 3.256971 1_665
Li20 Sr5 3.256971 1_655
Li20 Sr5 3.256971 1_565
Li20 Sr5 3.256971 1_555
Li21 N12 1.886666 1_455
Li21 N12 1.886670 1_555
Li21 Sr2 3.256339 1_465
Li21 Sr2 3.256339 1_455
Li21 Sr2 3.256343 1_565
Li21 Sr2 3.256343 1_555
Li21 Sr6 3.257484 1_455
Li21 Sr6 3.257484 1_465
Li21 Sr6 3.257488 1_555
Li21 Sr6 3.257488 1_565
Li22 N13 1.886666 1_655
Li22 N13 1.886670 1_555
Li22 Sr7 3.256339 1_655
Li22 Sr7 3.256339 1_665
Li22 Sr7 3.256343 1_565
Li22 Sr7 3.256343 1_555
Li22 Sr3 3.257484 1_655
Li22 Sr3 3.257484 1_665
Li22 Sr3 3.257488 1_565
Li22 Sr3 3.257488 1_555
Li23 N14 1.886666 1_555
Li23 N14 1.886670 1_455
Li23 Sr8 3.255140 1_565
Li23 Sr8 3.255140 1_555
Li23 Sr8 3.255140 1_455
Li23 Sr8 3.255140 1_465
Li23 Sr4 3.256971 1_465
Li23 Sr4 3.256971 1_455
Li23 Sr4 3.256971 1_555
Li23 Sr4 3.256971 1_565
Ni0 Sr0 3.277641 1_565
Ni0 Sr0 3.277641 1_555
Ni0 Sr9 3.277641 1_554
Ni0 Sr9 3.277641 1_564
Ni0 Sr0 3.277643 1_465
Ni0 Sr9 3.277643 1_664
Ni0 Sr9 3.277643 1_654
Ni0 Sr0 3.277643 1_455
N0 Sr5 2.647457 1_555
N0 Sr5 2.647457 1_655
N1 Sr6 2.647054 1_455
N1 Sr6 2.647057 1_555
N2 Sr7 2.651217 1_655
N2 Sr7 2.651219 1_555
N3 Sr8 2.652936 1_455
N3 Sr8 2.652936 1_555
N4 Sr9 2.634353 1_555
N4 Sr9 2.634358 1_655
N5 Sr0 2.634353 1_555
N5 Sr0 2.634358 1_455
N6 Sr1 2.652936 1_655
N6 Sr1 2.652936 1_555
N7 Sr2 2.651217 1_455
N7 Sr2 2.651219 1_555
N8 Sr3 2.647054 1_655
N8 Sr3 2.647057 1_555
N9 Sr4 2.647457 1_555
N9 Sr4 2.647457 1_455
N10 Ni0 1.886667 1_555
N10 Ni0 1.886667 1_455
N10 Sr0 2.680191 1_455
N10 Sr0 2.680191 1_465
N10 Sr9 2.680191 1_554
N10 Sr9 2.680191 1_564
N11 Sr1 2.651959 1_565
N11 Sr1 2.651959 1_555
N11 Sr5 2.655539 1_555
N11 Sr5 2.655539 1_565
N12 Sr2 2.653643 1_555
N12 Sr2 2.653643 1_565
N12 Sr6 2.655961 1_555
N12 Sr6 2.655961 1_565
N13 Sr7 2.653643 1_565
N13 Sr7 2.653643 1_555
N13 Sr3 2.655961 1_565
N13 Sr3 2.655961 1_555
N14 Sr8 2.651959 1_565
N14 Sr8 2.651959 1_555
N14 Sr4 2.655539 1_555
N14 Sr4 2.655539 1_565
