# generated using pymatgen
data_Mg14CoBO16
_symmetry_space_group_name_H-M   'P 1'
_cell_length_a   8.56380043
_cell_length_b   8.42599644
_cell_length_c   4.26227158
_cell_angle_alpha   90.00000000
_cell_angle_beta   90.00000000
_cell_angle_gamma   90.00000000
_symmetry_Int_Tables_number   1
_chemical_formula_structural   Mg14CoBO16
_chemical_formula_sum   'Mg14 Co1 B1 O16'
_cell_volume   307.55934517
_cell_formula_units_Z   1
loop_
 _symmetry_equiv_pos_site_id
 _symmetry_equiv_pos_as_xyz
  1  'x, y, z'
loop_
 _atom_site_type_symbol
 _atom_site_label
 _atom_site_symmetry_multiplicity
 _atom_site_fract_x
 _atom_site_fract_y
 _atom_site_fract_z
 _atom_site_occupancy
  Mg  Mg0  1  0.50000000  0.00000000  0.00000000  1
  Mg  Mg1  1  0.50000000  0.50000000  0.00000000  1
  Mg  Mg2  1  0.00000000  0.25907630  0.50000000  1
  Mg  Mg3  1  0.00000000  0.74092370  0.50000000  1
  Mg  Mg4  1  0.50000000  0.25031034  0.50000000  1
  Mg  Mg5  1  0.50000000  0.74968966  0.50000000  1
  Mg  Mg6  1  0.24592615  0.00000000  0.50000000  1
  Mg  Mg7  1  0.24755524  0.50000000  0.50000000  1
  Mg  Mg8  1  0.75407385  0.00000000  0.50000000  1
  Mg  Mg9  1  0.75244476  0.50000000  0.50000000  1
  Mg  Mg10  1  0.25100686  0.25518098  0.00000000  1
  Mg  Mg11  1  0.25100686  0.74481902  0.00000000  1
  Mg  Mg12  1  0.74899314  0.25518098  0.00000000  1
  Mg  Mg13  1  0.74899314  0.74481902  0.00000000  1
  Co  Co0  1  0.00000000  0.00000000  0.00000000  1
  B  B0  1  0.00000000  0.50000000  0.00000000  1
  O  O0  1  0.24588650  0.00000000  0.00000000  1
  O  O1  1  0.26339871  0.50000000  0.00000000  1
  O  O2  1  0.75411350  0.00000000  0.00000000  1
  O  O3  1  0.73660129  0.50000000  0.00000000  1
  O  O4  1  0.24541000  0.24935653  0.50000000  1
  O  O5  1  0.24541000  0.75064347  0.50000000  1
  O  O6  1  0.75459000  0.24935653  0.50000000  1
  O  O7  1  0.75459000  0.75064347  0.50000000  1
  O  O8  1  0.00000000  0.00000000  0.50000000  1
  O  O9  1  0.00000000  0.50000000  0.50000000  1
  O  O10  1  0.50000000  0.00000000  0.50000000  1
  O  O11  1  0.50000000  0.50000000  0.50000000  1
  O  O12  1  0.00000000  0.33548253  0.00000000  1
  O  O13  1  0.00000000  0.66451747  0.00000000  1
  O  O14  1  0.50000000  0.24607774  0.00000000  1
  O  O15  1  0.50000000  0.75392226  0.00000000  1
loop_
_geom_bond_atom_site_label_1
_geom_bond_atom_site_label_2
_geom_bond_distance
_geom_bond_site_symmetry_2
Mg0 O15 2.073450 1_545
Mg0 O14 2.073450 1_555
Mg0 O10 2.131136 1_555
Mg0 O10 2.131136 1_554
Mg0 O2 2.176177 1_555
Mg0 O0 2.176177 1_555
Mg1 O3 2.026206 1_555
Mg1 O1 2.026206 1_555
Mg1 O11 2.131136 1_554
Mg1 O11 2.131136 1_555
Mg1 O14 2.139548 1_555
Mg1 O15 2.139548 1_555
Mg2 O9 2.030022 1_555
Mg2 O6 2.103237 1_455
Mg2 O4 2.103237 1_555
Mg2 O8 2.182976 1_555
Mg2 O12 2.226256 1_556
Mg2 O12 2.226256 1_555
Mg3 O9 2.030022 1_555
Mg3 O7 2.103237 1_455
Mg3 O5 2.103237 1_555
Mg3 O8 2.182976 1_565
Mg3 O13 2.226256 1_555
Mg3 O13 2.226256 1_556
Mg4 O11 2.103884 1_555
Mg4 O10 2.109114 1_555
Mg4 O14 2.131434 1_556
Mg4 O14 2.131434 1_555
Mg4 O4 2.180273 1_555
Mg4 O6 2.180273 1_555
Mg5 O11 2.103884 1_555
Mg5 O10 2.109114 1_565
Mg5 O15 2.131434 1_555
Mg5 O15 2.131434 1_556
Mg5 O5 2.180273 1_555
Mg5 O7 2.180273 1_555
Mg6 O4 2.101082 1_555
Mg6 O5 2.101082 1_545
Mg6 O8 2.106062 1_555
Mg6 O0 2.131136 1_555
Mg6 O0 2.131136 1_556
Mg6 O10 2.175838 1_555
Mg7 O4 2.112001 1_555
Mg7 O5 2.112001 1_555
Mg7 O9 2.120014 1_555
Mg7 O1 2.135451 1_556
Mg7 O1 2.135451 1_555
Mg7 O11 2.161887 1_555
Mg8 O6 2.101082 1_555
Mg8 O7 2.101082 1_545
Mg8 O8 2.106062 1_655
Mg8 O2 2.131136 1_555
Mg8 O2 2.131136 1_556
Mg8 O10 2.175838 1_555
Mg9 O6 2.112001 1_555
Mg9 O7 2.112001 1_555
Mg9 O9 2.120014 1_655
Mg9 O3 2.135451 1_556
Mg9 O3 2.135451 1_555
Mg9 O11 2.161887 1_555
Mg10 O1 2.065572 1_555
Mg10 O4 2.132240 1_554
Mg10 O4 2.132240 1_555
Mg10 O14 2.133707 1_555
Mg10 O0 2.150601 1_555
Mg10 O12 2.253548 1_555
Mg11 O1 2.065572 1_555
Mg11 O5 2.132240 1_555
Mg11 O5 2.132240 1_554
Mg11 O15 2.133707 1_555
Mg11 O0 2.150601 1_565
Mg11 O13 2.253548 1_555
Mg12 O3 2.065572 1_555
Mg12 O6 2.132240 1_554
Mg12 O6 2.132240 1_555
Mg12 O14 2.133707 1_555
Mg12 O2 2.150601 1_555
Mg12 O12 2.253548 1_655
Mg13 O3 2.065572 1_555
Mg13 O7 2.132240 1_555
Mg13 O7 2.132240 1_554
Mg13 O15 2.133707 1_555
Mg13 O2 2.150601 1_565
Mg13 O13 2.253548 1_655
Co0 O0 2.105723 1_555
Co0 O2 2.105723 1_455
Co0 O8 2.131136 1_555
Co0 O8 2.131136 1_554
Co0 O13 2.826775 1_545
Co0 O12 2.826775 1_555
B0 O12 1.386224 1_555
B0 O13 1.386224 1_555
B0 O9 2.131136 1_554
B0 O9 2.131136 1_555
B0 O1 2.255694 1_555
B0 O3 2.255694 1_455
