# generated using pymatgen
data_Cs2VS5O
_symmetry_space_group_name_H-M   'P 1'
_cell_length_a   10.67329600
_cell_length_b   7.65281400
_cell_length_c   14.16678130
_cell_angle_alpha   69.25352759
_cell_angle_beta   90.00000000
_cell_angle_gamma   90.00000000
_symmetry_Int_Tables_number   1
_chemical_formula_structural   Cs2VS5O
_chemical_formula_sum   'Cs8 V4 S20 O4'
_cell_volume   1082.12004080
_cell_formula_units_Z   4
loop_
 _symmetry_equiv_pos_site_id
 _symmetry_equiv_pos_as_xyz
  1  'x, y, z'
loop_
 _atom_site_type_symbol
 _atom_site_label
 _atom_site_symmetry_multiplicity
 _atom_site_fract_x
 _atom_site_fract_y
 _atom_site_fract_z
 _atom_site_occupancy
  Cs  Cs0  1  0.97186800  0.50351300  0.23810900  1
  Cs  Cs1  1  0.52813200  0.50351300  0.73810900  1
  Cs  Cs2  1  0.02813200  0.49648700  0.76189100  1
  Cs  Cs3  1  0.47186800  0.49648700  0.26189100  1
  Cs  Cs4  1  0.26178800  0.03334600  0.57897300  1
  Cs  Cs5  1  0.23821200  0.03334600  0.07897300  1
  Cs  Cs6  1  0.73821200  0.96665400  0.42102700  1
  Cs  Cs7  1  0.76178800  0.96665400  0.92102700  1
  V  V0  1  0.69632400  0.24495900  0.11846500  1
  V  V1  1  0.80367600  0.24495900  0.61846500  1
  V  V2  1  0.30367600  0.75504100  0.88153500  1
  V  V3  1  0.19632400  0.75504100  0.38153500  1
  S  S0  1  0.00396300  0.35801700  0.54756600  1
  S  S1  1  0.49603700  0.35801700  0.04756600  1
  S  S2  1  0.99603700  0.64198300  0.45243400  1
  S  S3  1  0.50396300  0.64198300  0.95243400  1
  S  S4  1  0.22547400  0.54471500  0.03529700  1
  S  S5  1  0.27452600  0.54471500  0.53529700  1
  S  S6  1  0.77452600  0.45528500  0.96470300  1
  S  S7  1  0.72547400  0.45528500  0.46470300  1
  S  S8  1  0.05393600  0.00966000  0.29624900  1
  S  S9  1  0.44606400  0.00966000  0.79624900  1
  S  S10  1  0.94606400  0.99034000  0.70375100  1
  S  S11  1  0.55393600  0.99034000  0.20375100  1
  S  S12  1  0.09606600  0.73905300  0.94873900  1
  S  S13  1  0.40393400  0.73905300  0.44873900  1
  S  S14  1  0.90393400  0.26094700  0.05126100  1
  S  S15  1  0.59606600  0.26094700  0.55126100  1
  S  S16  1  0.23818900  0.07464200  0.31585800  1
  S  S17  1  0.26181100  0.07464200  0.81585800  1
  S  S18  1  0.76181100  0.92535800  0.68414200  1
  S  S19  1  0.73818900  0.92535800  0.18414200  1
  O  O0  1  0.71981600  0.33242500  0.20856900  1
  O  O1  1  0.78018400  0.33242500  0.70856900  1
  O  O2  1  0.28018400  0.66757500  0.79143100  1
  O  O3  1  0.21981600  0.66757500  0.29143100  1
loop_
_geom_bond_atom_site_label_1
_geom_bond_atom_site_label_2
_geom_bond_distance
_geom_bond_site_symmetry_2
Cs0 O0 3.084625 1_555
Cs0 O3 3.134085 1_655
Cs0 S2 3.562032 1_555
Cs0 S8 3.677484 1_655
Cs0 S14 3.802583 1_555
Cs0 S4 3.878099 1_655
Cs0 S19 3.934272 1_555
Cs0 S7 4.064193 1_555
Cs0 S12 4.071442 1_654
Cs1 O1 3.084625 1_555
Cs1 O2 3.134085 1_555
Cs1 S3 3.562032 1_555
Cs1 S9 3.677484 1_555
Cs1 S15 3.802583 1_555
Cs1 S5 3.878099 1_555
Cs1 S18 3.934272 1_555
Cs1 S6 4.064193 1_555
Cs1 S13 4.071442 1_555
Cs2 O2 3.084625 1_555
Cs2 O1 3.134085 1_455
Cs2 S0 3.562032 1_555
Cs2 S10 3.677484 1_455
Cs2 S12 3.802583 1_555
Cs2 S6 3.878099 1_455
Cs2 S17 3.934272 1_555
Cs2 S5 4.064193 1_555
Cs2 S14 4.071442 1_456
Cs3 O3 3.084625 1_555
Cs3 O0 3.134085 1_555
Cs3 S1 3.562032 1_555
Cs3 S11 3.677484 1_555
Cs3 S13 3.802583 1_555
Cs3 S7 3.878099 1_555
Cs3 S16 3.934272 1_555
Cs3 S4 4.064193 1_555
Cs3 S15 4.071442 1_555
Cs4 O2 3.311226 1_545
Cs4 S17 3.480417 1_555
Cs4 S9 3.602875 1_555
Cs4 S0 3.627790 1_555
Cs4 S16 3.636337 1_555
Cs4 S13 3.704312 1_545
Cs4 S5 3.741742 1_555
Cs4 S10 3.765179 1_445
Cs4 S15 3.928490 1_555
Cs4 S5 4.002958 1_545
Cs5 O3 3.311226 1_545
Cs5 S16 3.480417 1_555
Cs5 S8 3.602875 1_555
Cs5 S1 3.627790 1_555
Cs5 S17 3.636337 1_554
Cs5 S12 3.704312 1_544
Cs5 S4 3.741742 1_555
Cs5 S11 3.765179 1_545
Cs5 S14 3.928490 1_455
Cs5 S4 4.002958 1_545
Cs6 O0 3.311226 1_565
Cs6 S19 3.480417 1_555
Cs6 S11 3.602875 1_555
Cs6 S2 3.627790 1_555
Cs6 S18 3.636337 1_555
Cs6 S15 3.704312 1_565
Cs6 S7 3.741742 1_555
Cs6 S8 3.765179 1_665
Cs6 S13 3.928490 1_555
Cs6 S7 4.002958 1_565
Cs7 O1 3.311226 1_565
Cs7 S18 3.480417 1_555
Cs7 S10 3.602875 1_555
Cs7 S3 3.627790 1_555
Cs7 S19 3.636337 1_556
Cs7 S14 3.704312 1_566
Cs7 S6 3.741742 1_555
Cs7 S9 3.765179 1_565
Cs7 S12 3.928490 1_655
Cs7 S6 4.002958 1_565
S0 S2 2.114494 1_455
S0 V1 2.389898 1_455
S1 S3 2.114494 1_554
S1 V0 2.389898 1_555
S2 V3 2.389898 1_655
S3 V2 2.389898 1_555
S4 V2 2.355521 1_554
S5 V3 2.355521 1_555
S6 V0 2.355521 1_556
S7 V1 2.355521 1_555
S8 V3 2.428655 1_545
S9 V2 2.428655 1_545
S10 S18 2.071186 1_555
S10 V1 2.428655 1_565
S11 S19 2.071186 1_555
S11 V0 2.428655 1_565
S12 S4 2.081164 1_556
S12 V2 2.397709 1_555
S13 S5 2.081164 1_555
S13 V3 2.397709 1_555
S14 S6 2.081164 1_554
S14 V0 2.397709 1_555
S15 S7 2.081164 1_555
S15 V1 2.397709 1_555
S16 S8 2.071186 1_555
S16 V3 2.331369 1_545
S17 S9 2.071186 1_555
S17 V2 2.331369 1_545
S18 V1 2.331369 1_565
S19 V0 2.331369 1_565
O0 V0 1.657003 1_555
O1 V1 1.657003 1_555
O2 V2 1.657003 1_555
O3 V3 1.657003 1_555
