# generated using pymatgen
data_Sr5Fe5O14
_symmetry_space_group_name_H-M   'P 1'
_cell_length_a   3.88106800
_cell_length_b   7.89190900
_cell_length_c   19.72134200
_cell_angle_alpha   90.00000000
_cell_angle_beta   90.00000000
_cell_angle_gamma   90.00000000
_symmetry_Int_Tables_number   1
_chemical_formula_structural   Sr5Fe5O14
_chemical_formula_sum   'Sr10 Fe10 O28'
_cell_volume   604.04568381
_cell_formula_units_Z   2
loop_
 _symmetry_equiv_pos_site_id
 _symmetry_equiv_pos_as_xyz
  1  'x, y, z'
loop_
 _atom_site_type_symbol
 _atom_site_label
 _atom_site_symmetry_multiplicity
 _atom_site_fract_x
 _atom_site_fract_y
 _atom_site_fract_z
 _atom_site_occupancy
  Sr  Sr0  1  0.00000000  0.25775700  0.70201400  1
  Sr  Sr1  1  0.00000000  0.24176900  0.89746700  1
  Sr  Sr2  1  0.00000000  0.24176900  0.10253300  1
  Sr  Sr3  1  0.00000000  0.25775700  0.29798600  1
  Sr  Sr4  1  0.00000000  0.26584400  0.50000000  1
  Sr  Sr5  1  0.00000000  0.74224300  0.70201400  1
  Sr  Sr6  1  0.00000000  0.75823100  0.89746700  1
  Sr  Sr7  1  0.00000000  0.75823100  0.10253300  1
  Sr  Sr8  1  0.00000000  0.74224300  0.29798600  1
  Sr  Sr9  1  0.00000000  0.73415600  0.50000000  1
  Fe  Fe0  1  0.50000000  0.00000000  0.60497200  1
  Fe  Fe1  1  0.50000000  0.00000000  0.80051500  1
  Fe  Fe2  1  0.50000000  0.00000000  0.00000000  1
  Fe  Fe3  1  0.50000000  0.00000000  0.19948500  1
  Fe  Fe4  1  0.50000000  0.00000000  0.39502800  1
  Fe  Fe5  1  0.50000000  0.50000000  0.59972700  1
  Fe  Fe6  1  0.50000000  0.50000000  0.80199500  1
  Fe  Fe7  1  0.50000000  0.50000000  0.00000000  1
  Fe  Fe8  1  0.50000000  0.50000000  0.19800500  1
  Fe  Fe9  1  0.50000000  0.50000000  0.40027300  1
  O  O0  1  0.50000000  0.24012800  0.59331000  1
  O  O1  1  0.50000000  0.25213700  0.79993400  1
  O  O2  1  0.50000000  0.26287500  0.00000000  1
  O  O3  1  0.50000000  0.25213700  0.20006600  1
  O  O4  1  0.50000000  0.24012800  0.40669000  1
  O  O5  1  0.50000000  0.75987200  0.59331000  1
  O  O6  1  0.50000000  0.74786300  0.79993400  1
  O  O7  1  0.50000000  0.73712500  0.00000000  1
  O  O8  1  0.50000000  0.74786300  0.20006600  1
  O  O9  1  0.50000000  0.75987200  0.40669000  1
  O  O10  1  0.50000000  0.00000000  0.70058500  1
  O  O11  1  0.50000000  0.00000000  0.89951800  1
  O  O12  1  0.50000000  0.00000000  0.10048200  1
  O  O13  1  0.50000000  0.00000000  0.29941500  1
  O  O14  1  0.50000000  0.50000000  0.69757100  1
  O  O15  1  0.50000000  0.50000000  0.90546500  1
  O  O16  1  0.50000000  0.50000000  0.09453500  1
  O  O17  1  0.50000000  0.50000000  0.30242900  1
  O  O18  1  0.50000000  0.50000000  0.50000000  1
  O  O19  1  0.00000000  0.00000000  0.58281200  1
  O  O20  1  0.00000000  0.00000000  0.80055200  1
  O  O21  1  0.00000000  0.00000000  0.00000000  1
  O  O22  1  0.00000000  0.00000000  0.19944800  1
  O  O23  1  0.00000000  0.00000000  0.41718800  1
  O  O24  1  0.00000000  0.50000000  0.60042400  1
  O  O25  1  0.00000000  0.50000000  0.80071700  1
  O  O26  1  0.00000000  0.50000000  0.19928300  1
  O  O27  1  0.00000000  0.50000000  0.39957600  1
loop_
_geom_bond_atom_site_label_1
_geom_bond_atom_site_label_2
_geom_bond_distance
_geom_bond_site_symmetry_2
Fe0 O10 1.885617 1_555
Fe0 O0 1.908973 1_555
Fe0 O5 1.908973 1_545
Fe0 O19 1.989136 1_555
Fe0 O19 1.989136 1_655
Fe1 O20 1.940534 1_555
Fe1 O20 1.940534 1_655
Fe1 O11 1.952472 1_555
Fe1 O10 1.970754 1_555
Fe1 O1 1.989875 1_555
Fe1 O6 1.989875 1_545
Fe2 O21 1.940534 1_555
Fe2 O21 1.940534 1_655
Fe2 O12 1.981640 1_555
Fe2 O11 1.981640 1_554
Fe2 O2 2.074586 1_555
Fe2 O7 2.074586 1_545
Fe3 O22 1.940534 1_555
Fe3 O22 1.940534 1_655
Fe3 O12 1.952472 1_555
Fe3 O13 1.970754 1_555
Fe3 O3 1.989875 1_555
Fe3 O8 1.989875 1_545
Fe4 O13 1.885617 1_555
Fe4 O4 1.908973 1_555
Fe4 O9 1.908973 1_545
Fe4 O23 1.989136 1_655
Fe4 O23 1.989136 1_555
Fe5 O14 1.929615 1_555
Fe5 O24 1.940583 1_555
Fe5 O24 1.940583 1_655
Fe5 O18 1.966750 1_555
Fe5 O5 2.054787 1_555
Fe5 O0 2.054787 1_555
Fe6 O25 1.940698 1_555
Fe6 O25 1.940698 1_655
Fe6 O6 1.956534 1_555
Fe6 O1 1.956534 1_555
Fe6 O15 2.040567 1_555
Fe6 O14 2.059381 1_555
Fe7 O16 1.864357 1_555
Fe7 O15 1.864357 1_554
Fe7 O7 1.871369 1_555
Fe7 O2 1.871369 1_555
Fe8 O26 1.940698 1_555
Fe8 O26 1.940698 1_655
Fe8 O8 1.956534 1_555
Fe8 O3 1.956534 1_555
Fe8 O16 2.040567 1_555
Fe8 O17 2.059381 1_555
Fe9 O17 1.929615 1_555
Fe9 O27 1.940583 1_655
Fe9 O27 1.940583 1_555
Fe9 O18 1.966750 1_555
Fe9 O9 2.054787 1_555
Fe9 O4 2.054787 1_555
O0 Sr4 2.682012 1_655
O0 Sr4 2.682012 1_555
O0 Sr0 2.894971 1_655
O0 Sr0 2.894971 1_555
O1 Sr1 2.733523 1_655
O1 Sr1 2.733523 1_555
O1 Sr0 2.738036 1_555
O1 Sr0 2.738036 1_655
O2 Sr1 2.807536 1_654
O2 Sr1 2.807536 1_554
O2 Sr2 2.807536 1_555
O2 Sr2 2.807536 1_655
O3 Sr2 2.733523 1_555
O3 Sr2 2.733523 1_655
O3 Sr3 2.738036 1_555
O3 Sr3 2.738036 1_655
O4 Sr4 2.682012 1_555
O4 Sr4 2.682012 1_655
O4 Sr3 2.894971 1_555
O4 Sr3 2.894971 1_655
O5 Sr9 2.682012 1_555
O5 Sr9 2.682012 1_655
O5 Sr5 2.894971 1_655
O5 Sr5 2.894971 1_555
O6 Sr6 2.733523 1_655
O6 Sr6 2.733523 1_555
O6 Sr5 2.738036 1_655
O6 Sr5 2.738036 1_555
O7 Sr6 2.807536 1_654
O7 Sr6 2.807536 1_554
O7 Sr7 2.807536 1_555
O7 Sr7 2.807536 1_655
O8 Sr7 2.733523 1_555
O8 Sr7 2.733523 1_655
O8 Sr8 2.738036 1_555
O8 Sr8 2.738036 1_655
O9 Sr9 2.682012 1_555
O9 Sr9 2.682012 1_655
O9 Sr8 2.894971 1_555
O9 Sr8 2.894971 1_655
O10 Sr5 2.811479 1_545
O10 Sr5 2.811479 1_645
O10 Sr0 2.811479 1_655
O10 Sr0 2.811479 1_555
O11 Sr1 2.721736 1_655
O11 Sr1 2.721736 1_555
O11 Sr6 2.721736 1_645
O11 Sr6 2.721736 1_545
O12 Sr2 2.721736 1_555
O12 Sr2 2.721736 1_655
O12 Sr7 2.721736 1_545
O12 Sr7 2.721736 1_645
O13 Sr8 2.811479 1_545
O13 Sr3 2.811479 1_655
O13 Sr8 2.811479 1_645
O13 Sr3 2.811479 1_555
O14 Sr5 2.725468 1_555
O14 Sr0 2.725468 1_555
O14 Sr5 2.725468 1_655
O14 Sr0 2.725468 1_655
O15 Sr6 2.818463 1_555
O15 Sr6 2.818463 1_655
O15 Sr1 2.818463 1_655
O15 Sr1 2.818463 1_555
O16 Sr7 2.818463 1_655
O16 Sr7 2.818463 1_555
O16 Sr2 2.818463 1_555
O16 Sr2 2.818463 1_655
O17 Sr8 2.725468 1_655
O17 Sr3 2.725468 1_555
O17 Sr3 2.725468 1_655
O17 Sr8 2.725468 1_555
O18 Sr9 2.679654 1_555
O18 Sr9 2.679654 1_655
O18 Sr4 2.679654 1_555
O18 Sr4 2.679654 1_655
O19 Sr4 2.658740 1_555
O19 Sr9 2.658740 1_545
O19 Sr5 3.108749 1_545
O19 Sr0 3.108749 1_555
O20 Sr1 2.700663 1_555
O20 Sr6 2.700663 1_545
O20 Sr0 2.813249 1_555
O20 Sr5 2.813249 1_545
O21 Sr1 2.780176 1_554
O21 Sr2 2.780176 1_555
O21 Sr6 2.780176 1_544
O21 Sr7 2.780176 1_545
O22 Sr2 2.700663 1_555
O22 Sr7 2.700663 1_545
O22 Sr3 2.813249 1_555
O22 Sr8 2.813249 1_545
O23 Sr4 2.658740 1_555
O23 Sr9 2.658740 1_545
O23 Sr3 3.108749 1_555
O23 Sr8 3.108749 1_545
O24 Sr9 2.708734 1_555
O24 Sr4 2.708734 1_555
O24 Sr0 2.769260 1_555
O24 Sr5 2.769260 1_555
O25 Sr5 2.728352 1_555
O25 Sr0 2.728352 1_555
O25 Sr6 2.791737 1_555
O25 Sr1 2.791737 1_555
O26 Sr8 2.728352 1_555
O26 Sr3 2.728352 1_555
O26 Sr7 2.791737 1_555
O26 Sr2 2.791737 1_555
O27 Sr9 2.708734 1_555
O27 Sr4 2.708734 1_555
O27 Sr8 2.769260 1_555
O27 Sr3 2.769260 1_555
