# generated using pymatgen
data_Sr3Al2P(O2F5)2
_symmetry_space_group_name_H-M   'P 1'
_cell_length_a   7.22725500
_cell_length_b   7.42009700
_cell_length_c   20.73255221
_cell_angle_alpha   89.47715643
_cell_angle_beta   90.00000000
_cell_angle_gamma   90.00000000
_symmetry_Int_Tables_number   1
_chemical_formula_structural   Sr3Al2P(O2F5)2
_chemical_formula_sum   'Sr12 Al8 P4 O16 F40'
_cell_volume   1111.77689996
_cell_formula_units_Z   4
loop_
 _symmetry_equiv_pos_site_id
 _symmetry_equiv_pos_as_xyz
  1  'x, y, z'
loop_
 _atom_site_type_symbol
 _atom_site_label
 _atom_site_symmetry_multiplicity
 _atom_site_fract_x
 _atom_site_fract_y
 _atom_site_fract_z
 _atom_site_occupancy
  Sr  Sr0  1  0.29500700  0.77362800  0.99939800  1
  Sr  Sr1  1  0.79500700  0.22637200  0.50060200  1
  Sr  Sr2  1  0.70499300  0.22637200  0.00060200  1
  Sr  Sr3  1  0.20499300  0.77362800  0.49939800  1
  Sr  Sr4  1  0.05810400  0.49373400  0.19517500  1
  Sr  Sr5  1  0.55810400  0.50626600  0.30482500  1
  Sr  Sr6  1  0.94189600  0.50626600  0.80482500  1
  Sr  Sr7  1  0.44189600  0.49373400  0.69517500  1
  Sr  Sr8  1  0.94682900  0.98327800  0.30785700  1
  Sr  Sr9  1  0.44682900  0.01672200  0.19214300  1
  Sr  Sr10  1  0.05317100  0.01672200  0.69214300  1
  Sr  Sr11  1  0.55317100  0.98327800  0.80785700  1
  Al  Al0  1  0.99835600  0.97363700  0.14389200  1
  Al  Al1  1  0.49835600  0.02636300  0.35610800  1
  Al  Al2  1  0.00164400  0.02636300  0.85610800  1
  Al  Al3  1  0.50164400  0.97363700  0.64389200  1
  Al  Al4  1  0.51680300  0.47400600  0.13869000  1
  Al  Al5  1  0.01680300  0.52599400  0.36131000  1
  Al  Al6  1  0.48319700  0.52599400  0.86131000  1
  Al  Al7  1  0.98319700  0.47400600  0.63869000  1
  P  P0  1  0.76302300  0.71908100  0.05135000  1
  P  P1  1  0.26302300  0.28091900  0.44865000  1
  P  P2  1  0.23697700  0.28091900  0.94865000  1
  P  P3  1  0.73697700  0.71908100  0.55135000  1
  O  O0  1  0.89776900  0.75131700  0.10951400  1
  O  O1  1  0.39776900  0.24868300  0.39048600  1
  O  O2  1  0.10223100  0.24868300  0.89048600  1
  O  O3  1  0.60223100  0.75131700  0.60951400  1
  O  O4  1  0.65518500  0.54158400  0.06463600  1
  O  O5  1  0.15518500  0.45841600  0.43536400  1
  O  O6  1  0.34481500  0.45841600  0.93536400  1
  O  O7  1  0.84481500  0.54158400  0.56463600  1
  O  O8  1  0.62935600  0.87115500  0.03589600  1
  O  O9  1  0.12935600  0.12884500  0.46410400  1
  O  O10  1  0.37064400  0.12884500  0.96410400  1
  O  O11  1  0.87064400  0.87115500  0.53589600  1
  O  O12  1  0.91304600  0.68988000  0.99890300  1
  O  O13  1  0.41304600  0.31012000  0.50109700  1
  O  O14  1  0.08695400  0.31012000  0.00109700  1
  O  O15  1  0.58695400  0.68988000  0.49890300  1
  F  F0  1  0.21133000  0.94775400  0.09721400  1
  F  F1  1  0.71133000  0.05224600  0.40278600  1
  F  F2  1  0.78867000  0.05224600  0.90278600  1
  F  F3  1  0.28867000  0.94775400  0.59721400  1
  F  F4  1  0.11223000  0.82854700  0.20558200  1
  F  F5  1  0.61223000  0.17145300  0.29441800  1
  F  F6  1  0.88777000  0.17145300  0.79441800  1
  F  F7  1  0.38777000  0.82854700  0.70558200  1
  F  F8  1  0.89113400  0.11391200  0.08667100  1
  F  F9  1  0.39113400  0.88608800  0.41332900  1
  F  F10  1  0.10886600  0.88608800  0.91332900  1
  F  F11  1  0.60886600  0.11391200  0.58667100  1
  F  F12  1  0.79639700  0.97791300  0.19679800  1
  F  F13  1  0.29639700  0.02208700  0.30320200  1
  F  F14  1  0.20360300  0.02208700  0.80320200  1
  F  F15  1  0.70360300  0.97791300  0.69679800  1
  F  F16  1  0.09725000  0.16110100  0.18820500  1
  F  F17  1  0.59725000  0.83889900  0.31179500  1
  F  F18  1  0.90275000  0.83889900  0.81179500  1
  F  F19  1  0.40275000  0.16110100  0.68820500  1
  F  F20  1  0.72489000  0.42113200  0.18616600  1
  F  F21  1  0.22489000  0.57886800  0.31383400  1
  F  F22  1  0.27511000  0.57886800  0.81383400  1
  F  F23  1  0.77511000  0.42113200  0.68616600  1
  F  F24  1  0.51113500  0.24785100  0.10469400  1
  F  F25  1  0.01113500  0.75214900  0.39530600  1
  F  F26  1  0.48886500  0.75214900  0.89530600  1
  F  F27  1  0.98886500  0.24785100  0.60469400  1
  F  F28  1  0.38475400  0.38031900  0.20845600  1
  F  F29  1  0.88475400  0.61968100  0.29154400  1
  F  F30  1  0.61524600  0.61968100  0.79154400  1
  F  F31  1  0.11524600  0.38031900  0.70845600  1
  F  F32  1  0.29782100  0.54059200  0.10007300  1
  F  F33  1  0.79782100  0.45940800  0.39992700  1
  F  F34  1  0.70217900  0.45940800  0.89992700  1
  F  F35  1  0.20217900  0.54059200  0.60007300  1
  F  F36  1  0.51347200  0.69083200  0.18008600  1
  F  F37  1  0.01347200  0.30916800  0.31991400  1
  F  F38  1  0.48652800  0.30916800  0.81991400  1
  F  F39  1  0.98652800  0.69083200  0.68008600  1
loop_
_geom_bond_atom_site_label_1
_geom_bond_atom_site_label_2
_geom_bond_distance
_geom_bond_site_symmetry_2
Al0 F8 1.751782 1_565
Al0 F16 1.820192 1_665
Al0 F12 1.826264 1_555
Al0 F0 1.829212 1_655
Al0 F4 1.856621 1_655
Al0 O0 1.944028 1_555
Al1 F9 1.751782 1_545
Al1 F17 1.820192 1_545
Al1 F13 1.826264 1_555
Al1 F1 1.829212 1_555
Al1 F5 1.856621 1_555
Al1 O1 1.944028 1_555
Al2 F10 1.751782 1_545
Al2 F18 1.820192 1_445
Al2 F14 1.826264 1_555
Al2 F2 1.829212 1_455
Al2 F6 1.856621 1_455
Al2 O2 1.944028 1_555
Al3 F11 1.751782 1_565
Al3 F19 1.820192 1_565
Al3 F15 1.826264 1_555
Al3 F3 1.829212 1_555
Al3 F7 1.856621 1_555
Al3 O3 1.944028 1_555
Al4 F24 1.826481 1_555
Al4 F36 1.830526 1_555
Al4 F20 1.837778 1_555
Al4 F32 1.839196 1_555
Al4 F28 1.862215 1_555
Al4 O4 1.896013 1_555
Al5 F25 1.826481 1_555
Al5 F37 1.830526 1_555
Al5 F21 1.837778 1_555
Al5 F33 1.839196 1_455
Al5 F29 1.862215 1_455
Al5 O5 1.896013 1_555
Al6 F26 1.826481 1_555
Al6 F38 1.830526 1_555
Al6 F22 1.837778 1_555
Al6 F34 1.839196 1_555
Al6 F30 1.862215 1_555
Al6 O6 1.896013 1_555
Al7 F27 1.826481 1_555
Al7 F39 1.830526 1_555
Al7 F23 1.837778 1_555
Al7 F35 1.839196 1_655
Al7 F31 1.862215 1_655
Al7 O7 1.896013 1_555
O0 P0 1.570037 1_555
O0 Sr4 2.843929 1_655
O1 P1 1.570037 1_555
O1 Sr5 2.843929 1_555
O2 P2 1.570037 1_555
O2 Sr6 2.843929 1_455
O3 P3 1.570037 1_555
O3 Sr7 2.843929 1_555
O4 P0 1.552830 1_555
O4 Sr2 2.723823 1_555
O5 P1 1.552830 1_555
O5 Sr3 2.723823 1_555
O6 P2 1.552830 1_555
O6 Sr0 2.723823 1_555
O7 P3 1.552830 1_555
O7 Sr1 2.723823 1_555
O8 P0 1.517431 1_555
O8 Sr0 2.635409 1_554
O8 Sr2 2.783201 1_565
O9 P1 1.517431 1_555
O9 Sr1 2.635409 1_455
O9 Sr3 2.783201 1_545
O10 P2 1.517431 1_555
O10 Sr2 2.635409 1_556
O10 Sr0 2.783201 1_545
O11 P3 1.517431 1_555
O11 Sr3 2.635409 1_655
O11 Sr1 2.783201 1_565
O12 P0 1.552162 1_556
O12 Sr0 2.829648 1_655
O13 P1 1.552162 1_555
O13 Sr1 2.829648 1_555
O14 P2 1.552162 1_554
O14 Sr2 2.829648 1_455
O15 P3 1.552162 1_555
O15 Sr3 2.829648 1_555
F0 Sr0 2.489092 1_554
F0 F4 2.511365 1_555
F0 Sr9 2.655298 1_565
F1 Sr1 2.489092 1_555
F1 F5 2.511365 1_555
F1 Sr8 2.655298 1_545
F2 Sr2 2.489092 1_556
F2 F6 2.511365 1_555
F2 Sr11 2.655298 1_545
F3 Sr3 2.489092 1_555
F3 F7 2.511365 1_555
F3 Sr10 2.655298 1_565
F4 Sr4 2.526129 1_555
F4 O0 2.592030 1_455
F4 Sr8 2.699586 1_455
F4 Sr9 2.804990 1_565
F5 Sr5 2.526129 1_555
F5 O1 2.592030 1_555
F5 Sr9 2.699586 1_555
F5 Sr8 2.804990 1_545
F6 Sr6 2.526129 1_555
F6 O2 2.592030 1_655
F6 Sr10 2.699586 1_655
F6 Sr11 2.804990 1_545
F7 Sr7 2.526129 1_555
F7 O3 2.592030 1_555
F7 Sr11 2.699586 1_555
F7 Sr10 2.804990 1_565
F8 Sr2 2.379737 1_555
F9 Sr3 2.379737 1_555
F10 Sr0 2.379737 1_555
F11 Sr1 2.379737 1_555
F12 F4 2.543250 1_655
F12 Sr9 2.544507 1_565
F12 Sr8 2.546951 1_555
F12 F16 2.569572 1_665
F13 F5 2.543250 1_555
F13 Sr8 2.544507 1_445
F13 Sr9 2.546951 1_555
F13 F17 2.569572 1_545
F14 F6 2.543250 1_455
F14 Sr11 2.544507 1_545
F14 Sr10 2.546951 1_555
F14 F18 2.569572 1_445
F15 F7 2.543250 1_555
F15 Sr10 2.544507 1_665
F15 Sr11 2.546951 1_555
F15 F19 2.569572 1_565
F16 Sr4 2.489838 1_555
F16 F4 2.492841 1_545
F16 Sr9 2.745169 1_555
F16 Sr8 3.002821 1_445
F17 Sr5 2.489838 1_555
F17 F5 2.492841 1_565
F17 Sr8 2.745169 1_555
F17 Sr9 3.002821 1_565
F18 Sr6 2.489838 1_555
F18 F6 2.492841 1_565
F18 Sr11 2.745169 1_555
F18 Sr10 3.002821 1_665
F19 Sr7 2.489838 1_555
F19 F7 2.492841 1_545
F19 Sr10 2.745169 1_555
F19 Sr11 3.002821 1_545
F20 Sr4 2.475171 1_655
F20 F28 2.519069 1_555
F20 F36 2.520077 1_555
F20 Sr5 2.816473 1_555
F21 Sr5 2.475171 1_555
F21 F29 2.519069 1_455
F21 F37 2.520077 1_555
F21 Sr4 2.816473 1_555
F22 Sr6 2.475171 1_455
F22 F30 2.519069 1_555
F22 F38 2.520077 1_555
F22 Sr7 2.816473 1_555
F23 Sr7 2.475171 1_555
F23 F31 2.519069 1_655
F23 F39 2.520077 1_555
F23 Sr6 2.816473 1_555
F24 Sr9 2.527369 1_555
F24 F28 2.543008 1_555
F24 O4 2.547725 1_555
F24 Sr2 2.579150 1_555
F25 Sr8 2.527369 1_455
F25 F29 2.543008 1_455
F25 O5 2.547725 1_555
F25 Sr3 2.579150 1_555
F26 Sr11 2.527369 1_555
F26 F30 2.543008 1_555
F26 O6 2.547725 1_555
F26 Sr0 2.579150 1_555
F27 Sr10 2.527369 1_655
F27 F31 2.543008 1_655
F27 O7 2.547725 1_555
F27 Sr1 2.579150 1_555
F28 Sr4 2.520534 1_555
F28 Sr5 2.543416 1_555
F28 F36 2.548574 1_555
F28 F32 2.609508 1_555
F28 Sr9 2.758824 1_555
F29 Sr5 2.520534 1_555
F29 Sr4 2.543416 1_655
F29 F37 2.548574 1_655
F29 F33 2.609508 1_555
F29 Sr8 2.758824 1_555
F30 Sr6 2.520534 1_555
F30 Sr7 2.543416 1_555
F30 F38 2.548574 1_555
F30 F34 2.609508 1_555
F30 Sr11 2.758824 1_555
F31 Sr7 2.520534 1_555
F31 Sr6 2.543416 1_455
F31 F39 2.548574 1_455
F31 F35 2.609508 1_555
F31 Sr10 2.758824 1_555
F32 F36 2.541162 1_555
F32 Sr4 2.645288 1_555
F32 Sr0 2.698354 1_554
F33 F37 2.541162 1_655
F33 Sr5 2.645288 1_555
F33 Sr1 2.698354 1_555
F34 F38 2.541162 1_555
F34 Sr6 2.645288 1_555
F34 Sr2 2.698354 1_556
F35 F39 2.541162 1_455
F35 Sr7 2.645288 1_555
F35 Sr3 2.698354 1_555
F36 Sr9 2.480500 1_565
F36 Sr5 2.933112 1_555
F37 Sr8 2.480500 1_445
F37 Sr4 2.933112 1_555
F38 Sr11 2.480500 1_545
F38 Sr7 2.933112 1_555
F39 Sr10 2.480500 1_665
F39 Sr6 2.933112 1_555
