# generated using pymatgen
data_K2Nb3H11C5(Cl3O4)2
_symmetry_space_group_name_H-M   'P 1'
_cell_length_a   9.63877200
_cell_length_b   9.75957445
_cell_length_c   12.98370858
_cell_angle_alpha   76.85787304
_cell_angle_beta   79.62576989
_cell_angle_gamma   81.40921081
_symmetry_Int_Tables_number   1
_chemical_formula_structural   K2Nb3H11C5(Cl3O4)2
_chemical_formula_sum   'K4 Nb6 H22 C10 Cl12 O16'
_cell_volume   1162.42875017
_cell_formula_units_Z   2
loop_
 _symmetry_equiv_pos_site_id
 _symmetry_equiv_pos_as_xyz
  1  'x, y, z'
loop_
 _atom_site_type_symbol
 _atom_site_label
 _atom_site_symmetry_multiplicity
 _atom_site_fract_x
 _atom_site_fract_y
 _atom_site_fract_z
 _atom_site_occupancy
  K  K0  1  0.30678900  0.04653300  0.85512300  1
  K  K1  1  0.69321100  0.95346700  0.14487700  1
  K  K2  1  0.73579800  0.95774800  0.76973600  1
  K  K3  1  0.26420200  0.04225200  0.23026400  1
  Nb  Nb0  1  0.85045600  0.39663100  0.61529800  1
  Nb  Nb1  1  0.14954400  0.60336900  0.38470200  1
  Nb  Nb2  1  0.01668900  0.63215500  0.60119100  1
  Nb  Nb3  1  0.98331100  0.36784500  0.39880900  1
  Nb  Nb4  1  0.83835700  0.64279200  0.43803100  1
  Nb  Nb5  1  0.16164300  0.35720800  0.56196900  1
  H  H0  1  0.53327700  0.40288200  0.79015200  1
  H  H1  1  0.46672300  0.59711800  0.20984800  1
  H  H2  1  0.22977500  0.80334300  0.69937700  1
  H  H3  1  0.77022500  0.19665700  0.30062300  1
  H  H4  1  0.52885100  0.86240500  0.48187900  1
  H  H5  1  0.47114900  0.13759500  0.51812100  1
  H  H6  1  0.95312200  0.86793600  0.92543800  1
  H  H7  1  0.04687800  0.13206400  0.07456200  1
  H  H8  1  0.92509300  0.64191700  0.93972000  1
  H  H9  1  0.07490700  0.35808300  0.06028000  1
  H  H10  1  0.94041000  0.66041400  0.07145000  1
  H  H11  1  0.05959000  0.33958600  0.92855000  1
  H  H12  1  0.76949300  0.66021500  0.03603500  1
  H  H13  1  0.23050700  0.33978500  0.96396500  1
  H  H14  1  0.51763400  0.79635800  0.98039800  1
  H  H15  1  0.48236600  0.20364200  0.01960200  1
  H  H16  1  0.48209400  0.70182900  0.79345000  1
  H  H17  1  0.51790600  0.29817100  0.20655000  1
  H  H18  1  0.54704100  0.59109400  0.90827400  1
  H  H19  1  0.45295900  0.40890600  0.09172600  1
  H  H20  1  0.36580100  0.67189400  0.91802600  1
  H  H21  1  0.63419900  0.32810600  0.08197400  1
  C  C0  1  0.58406200  0.29152100  0.80239400  1
  C  C1  1  0.41593800  0.70847900  0.19760600  1
  C  C2  1  0.12312200  0.81600300  0.74804800  1
  C  C3  1  0.87687800  0.18399700  0.25195200  1
  C  C4  1  0.56495500  0.87946900  0.39419700  1
  C  C5  1  0.43504500  0.12053100  0.60580300  1
  C  C6  1  0.87567000  0.69417100  0.00628100  1
  C  C7  1  0.12433000  0.30582900  0.99371900  1
  C  C8  1  0.47618700  0.68688300  0.88038600  1
  C  C9  1  0.52381300  0.31311700  0.11961400  1
  Cl  Cl0  1  0.84266100  0.53257700  0.75638700  1
  Cl  Cl1  1  0.15733900  0.46742300  0.24361300  1
  Cl  Cl2  1  0.83114600  0.82653100  0.54382600  1
  Cl  Cl3  1  0.16885400  0.17346900  0.45617400  1
  Cl  Cl4  1  0.63320000  0.54787400  0.56415300  1
  Cl  Cl5  1  0.36680000  0.45212600  0.43584700  1
  Cl  Cl6  1  0.80391500  0.22220900  0.51626700  1
  Cl  Cl7  1  0.19608500  0.77779100  0.48373300  1
  Cl  Cl8  1  0.01377100  0.20988900  0.71131000  1
  Cl  Cl9  1  0.98622900  0.79011100  0.28869000  1
  Cl  Cl10  1  0.21137100  0.48837500  0.69246800  1
  Cl  Cl11  1  0.78862900  0.51162500  0.30753200  1
  O  O0  1  0.69960100  0.26547700  0.74050200  1
  O  O1  1  0.30039900  0.73452300  0.25949800  1
  O  O2  1  0.52529100  0.19898100  0.87455600  1
  O  O3  1  0.47470900  0.80101900  0.12544400  1
  O  O4  1  0.02016300  0.77480300  0.71663200  1
  O  O5  1  0.97983700  0.22519700  0.28336800  1
  O  O6  1  0.11144700  0.87035300  0.82882000  1
  O  O7  1  0.88855300  0.12964700  0.17118000  1
  O  O8  1  0.67530700  0.79810100  0.36163500  1
  O  O9  1  0.32469300  0.20189900  0.63836500  1
  O  O10  1  0.49987100  0.97373700  0.33252700  1
  O  O11  1  0.50012900  0.02626300  0.66747300  1
  O  O12  1  0.86080500  0.84586500  0.97097100  1
  O  O13  1  0.13919500  0.15413500  0.02902900  1
  O  O14  1  0.51984200  0.81055500  0.90236100  1
  O  O15  1  0.48015800  0.18944500  0.09763900  1
loop_
_geom_bond_atom_site_label_1
_geom_bond_atom_site_label_2
_geom_bond_distance
_geom_bond_site_symmetry_2
K0 O11 2.814571 1_555
K0 O2 2.830396 1_555
K0 O13 2.840501 1_556
K0 O6 2.843250 1_545
K0 O9 2.865678 1_555
K0 O14 2.880223 1_545
K1 O10 2.814571 1_555
K1 O3 2.830396 1_555
K1 O12 2.840501 1_554
K1 O7 2.843250 1_565
K1 O8 2.865678 1_555
K1 O15 2.880223 1_565
K2 O11 2.756587 1_565
K2 O14 2.799861 1_555
K2 O0 2.915803 1_565
K2 O12 2.985657 1_555
K2 O4 3.097273 1_655
K2 O2 3.247673 1_565
K3 O10 2.756587 1_545
K3 O15 2.799861 1_555
K3 O1 2.915803 1_545
K3 O13 2.985657 1_555
K3 O5 3.097273 1_455
K3 O3 3.247673 1_545
Nb0 O0 2.270207 1_555
Nb0 Nb3 2.928274 1_555
Nb0 Nb4 2.929352 1_555
Nb0 Nb5 2.941532 1_655
Nb0 Nb2 2.947482 1_655
Nb1 O1 2.270207 1_555
Nb1 Nb2 2.928274 1_555
Nb1 Nb5 2.929352 1_555
Nb1 Nb4 2.941532 1_455
Nb1 Nb3 2.947482 1_455
Nb2 O4 2.273047 1_555
Nb2 Nb4 2.934492 1_455
Nb2 Nb5 2.942272 1_555
Nb3 O5 2.273047 1_555
Nb3 Nb5 2.934492 1_655
Nb3 Nb4 2.942272 1_555
Nb4 O8 2.217516 1_555
Nb5 O9 2.217516 1_555
H6 O12 0.998789 1_555
H6 K2 3.068203 1_555
H7 O13 0.998789 1_555
H7 K3 3.068203 1_555
H14 O14 0.987685 1_555
H15 O15 0.987685 1_555
C0 H0 1.112034 1_555
C0 O2 1.261477 1_555
C0 O0 1.279293 1_555
C1 H1 1.112034 1_555
C1 O3 1.261477 1_555
C1 O1 1.279293 1_555
C2 H2 1.111300 1_555
C2 O6 1.259547 1_555
C2 O4 1.285495 1_555
C3 H3 1.111300 1_555
C3 O7 1.259547 1_555
C3 O5 1.285495 1_555
C4 H4 1.110538 1_555
C4 O10 1.246834 1_555
C4 O8 1.295799 1_555
C5 H5 1.110538 1_555
C5 O11 1.246834 1_555
C5 O9 1.295799 1_555
C6 H12 1.098708 1_555
C6 H8 1.101558 1_554
C6 H10 1.102659 1_555
C6 O12 1.440188 1_554
C7 H13 1.098708 1_555
C7 H9 1.101558 1_556
C7 H11 1.102659 1_555
C7 O13 1.440188 1_556
C8 H16 1.096843 1_555
C8 H18 1.102668 1_555
C8 H20 1.104091 1_555
C8 O14 1.437652 1_555
C9 H17 1.096843 1_555
C9 H19 1.102668 1_555
C9 H21 1.104091 1_555
C9 O15 1.437652 1_555
Cl0 Nb0 2.479425 1_555
Cl0 Nb2 2.489517 1_655
Cl0 O4 3.019539 1_655
Cl0 H8 3.086354 1_555
Cl0 O0 3.187487 1_555
Cl0 H18 3.215047 1_555
Cl0 H0 3.330417 1_555
Cl0 H11 3.392407 1_655
Cl0 Cl4 3.447226 1_555
Cl0 Cl8 3.452467 1_655
Cl1 Nb1 2.479425 1_555
Cl1 Nb3 2.489517 1_455
Cl1 O5 3.019539 1_455
Cl1 H9 3.086354 1_555
Cl1 O1 3.187487 1_555
Cl1 H19 3.215047 1_555
Cl1 H1 3.330417 1_555
Cl1 H10 3.392407 1_455
Cl1 Cl5 3.447226 1_555
Cl1 Cl9 3.452467 1_455
Cl2 Nb4 2.481074 1_555
Cl2 Nb2 2.485058 1_655
Cl2 O4 3.048036 1_655
Cl2 O8 3.103486 1_555
Cl2 H4 3.109766 1_555
Cl2 K2 3.387273 1_555
Cl2 Cl7 3.448003 1_655
Cl2 Cl9 3.453622 1_555
Cl3 Nb5 2.481074 1_555
Cl3 Nb3 2.485058 1_455
Cl3 O5 3.048036 1_455
Cl3 O9 3.103486 1_555
Cl3 H5 3.109766 1_555
Cl3 K3 3.387273 1_555
Cl3 Cl6 3.448003 1_455
Cl3 Cl8 3.453622 1_555
Cl4 Nb0 2.477209 1_555
Cl4 Nb4 2.478151 1_555
Cl4 H0 3.006882 1_555
Cl4 H4 3.090170 1_555
Cl4 O8 3.167694 1_555
Cl4 Cl6 3.487661 1_555
Cl5 Nb1 2.477209 1_555
Cl5 Nb5 2.478151 1_555
Cl5 H1 3.006882 1_555
Cl5 H5 3.090170 1_555
Cl5 O9 3.167694 1_555
Cl5 Cl7 3.487661 1_555
Cl6 Nb3 2.476850 1_555
Cl6 Nb0 2.486656 1_555
Cl6 H3 2.945505 1_555
Cl6 O0 3.007236 1_555
Cl6 H5 3.424143 1_555
Cl6 Cl8 3.486068 1_655
Cl6 K2 3.713323 1_545
Cl7 Nb2 2.476850 1_555
Cl7 Nb1 2.486656 1_555
Cl7 H2 2.945505 1_555
Cl7 O1 3.007236 1_555
Cl7 H4 3.424143 1_555
Cl7 Cl9 3.486068 1_455
Cl7 K3 3.713323 1_565
Cl8 Nb0 2.483959 1_455
Cl8 Nb5 2.491496 1_555
Cl8 O0 2.966038 1_455
Cl8 O9 2.970865 1_555
Cl8 O6 3.388393 1_545
Cl8 H11 3.462962 1_555
Cl8 K2 3.768097 1_445
Cl9 Nb1 2.483959 1_655
Cl9 Nb4 2.491496 1_555
Cl9 O1 2.966038 1_655
Cl9 O8 2.970865 1_555
Cl9 O7 3.388393 1_565
Cl9 H10 3.462962 1_555
Cl9 K3 3.768097 1_665
Cl10 Nb2 2.480492 1_555
Cl10 Nb5 2.490276 1_555
Cl10 O9 3.034451 1_555
Cl10 H2 3.127737 1_555
Cl10 O4 3.156084 1_555
Cl10 H11 3.261917 1_555
Cl10 Cl7 3.447223 1_555
Cl10 Cl5 3.471457 1_555
Cl10 H0 3.477736 1_555
Cl11 Nb3 2.480492 1_555
Cl11 Nb4 2.490276 1_555
Cl11 O8 3.034451 1_555
Cl11 H3 3.127737 1_555
Cl11 O5 3.156084 1_555
Cl11 H10 3.261917 1_555
Cl11 Cl6 3.447223 1_555
Cl11 Cl4 3.471457 1_555
Cl11 H1 3.477736 1_555
