# generated using pymatgen
data_TiGePt
_symmetry_space_group_name_H-M   'P 1'
_cell_length_a   4.20611442
_cell_length_b   4.20611442
_cell_length_c   4.20611442
_cell_angle_alpha   60.00000000
_cell_angle_beta   60.00000000
_cell_angle_gamma   60.00000000
_symmetry_Int_Tables_number   1
_chemical_formula_structural   TiGePt
_chemical_formula_sum   'Ti1 Ge1 Pt1'
_cell_volume   52.61726267
_cell_formula_units_Z   1
loop_
 _symmetry_equiv_pos_site_id
 _symmetry_equiv_pos_as_xyz
  1  'x, y, z'
loop_
 _atom_site_type_symbol
 _atom_site_label
 _atom_site_symmetry_multiplicity
 _atom_site_fract_x
 _atom_site_fract_y
 _atom_site_fract_z
 _atom_site_occupancy
  Ti  Ti0  1  0.00000000  0.00000000  0.00000000  1
  Ge  Ge0  1  0.50000000  0.50000000  0.50000000  1
  Pt  Pt0  1  0.75000000  0.75000000  0.75000000  1
loop_
_geom_bond_atom_site_label_1
_geom_bond_atom_site_label_2
_geom_bond_distance
_geom_bond_site_symmetry_2
Ge0 Pt0 2.575709 1_455
Ge0 Pt0 2.575709 1_555
Ge0 Pt0 2.575709 1_554
Ge0 Pt0 2.575709 1_545
Ge0 Ti0 2.974172 1_565
Ge0 Ti0 2.974172 1_655
Ge0 Ti0 2.974172 1_566
Ge0 Ti0 2.974172 1_665
Ge0 Ti0 2.974172 1_656
Ge0 Ti0 2.974172 1_556
Pt0 Ti0 2.575709 1_666
Pt0 Ti0 2.575709 1_566
Pt0 Ti0 2.575709 1_665
Pt0 Ti0 2.575709 1_656
