# generated using pymatgen
data_KZnBr3O2
_symmetry_space_group_name_H-M   'P 1'
_cell_length_a   14.60033100
_cell_length_b   7.07049400
_cell_length_c   8.81280234
_cell_angle_alpha   73.36704720
_cell_angle_beta   90.00000000
_cell_angle_gamma   90.00000000
_symmetry_Int_Tables_number   1
_chemical_formula_structural   KZnBr3O2
_chemical_formula_sum   'K4 Zn4 Br12 O8'
_cell_volume   871.69321871
_cell_formula_units_Z   4
loop_
 _symmetry_equiv_pos_site_id
 _symmetry_equiv_pos_as_xyz
  1  'x, y, z'
loop_
 _atom_site_type_symbol
 _atom_site_label
 _atom_site_symmetry_multiplicity
 _atom_site_fract_x
 _atom_site_fract_y
 _atom_site_fract_z
 _atom_site_occupancy
  K  K0  1  0.81355000  0.22869000  0.96584400  1
  K  K1  1  0.31355000  0.77131000  0.53415600  1
  K  K2  1  0.18645000  0.77131000  0.03415600  1
  K  K3  1  0.68645000  0.22869000  0.46584400  1
  Zn  Zn0  1  0.94675700  0.01476700  0.65781900  1
  Zn  Zn1  1  0.44675700  0.98523300  0.84218100  1
  Zn  Zn2  1  0.05324300  0.98523300  0.34218100  1
  Zn  Zn3  1  0.55324300  0.01476700  0.15781900  1
  Br  Br0  1  0.44985400  0.23006400  0.59713600  1
  Br  Br1  1  0.94985400  0.76993600  0.90286400  1
  Br  Br2  1  0.55014600  0.76993600  0.40286400  1
  Br  Br3  1  0.05014600  0.23006400  0.09713600  1
  Br  Br4  1  0.39304100  0.65130100  0.89042800  1
  Br  Br5  1  0.89304100  0.34869900  0.60957200  1
  Br  Br6  1  0.60695900  0.34869900  0.10957200  1
  Br  Br7  1  0.10695900  0.65130100  0.39042800  1
  Br  Br8  1  0.16862900  0.17121700  0.62015300  1
  Br  Br9  1  0.66862900  0.82878300  0.87984700  1
  Br  Br10  1  0.83137100  0.82878300  0.37984700  1
  Br  Br11  1  0.33137100  0.17121700  0.12015300  1
  O  O0  1  0.92454400  0.94956700  0.44899300  1
  O  O1  1  0.42454400  0.05043300  0.05100700  1
  O  O2  1  0.07545600  0.05043300  0.55100700  1
  O  O3  1  0.57545600  0.94956700  0.94899300  1
  O  O4  1  0.73540500  0.01524700  0.76314800  1
  O  O5  1  0.23540500  0.98475300  0.73685200  1
  O  O6  1  0.26459500  0.98475300  0.23685200  1
  O  O7  1  0.76459500  0.01524700  0.26314800  1
loop_
_geom_bond_atom_site_label_1
_geom_bond_atom_site_label_2
_geom_bond_distance
_geom_bond_site_symmetry_2
K0 O7 2.718382 1_556
K0 O4 2.883317 1_555
K1 O6 2.718382 1_555
K1 O5 2.883317 1_555
K2 O5 2.718382 1_554
K2 O6 2.883317 1_555
K3 O4 2.718382 1_555
K3 O7 2.883317 1_555
Br0 Zn1 2.349924 1_545
Br0 K3 3.643904 1_555
Br1 Zn0 2.349924 1_565
Br1 K2 3.643904 1_656
Br2 Zn3 2.349924 1_565
Br2 K1 3.643904 1_555
Br3 Zn2 2.349924 1_545
Br3 K0 3.643904 1_454
Br4 Zn1 2.407443 1_555
Br4 K1 3.224881 1_555
Br4 O5 3.295560 1_555
Br4 K2 3.469542 1_556
Br5 Zn0 2.407443 1_555
Br5 K0 3.224881 1_555
Br5 O4 3.295560 1_555
Br5 K3 3.469542 1_555
Br6 Zn3 2.407443 1_555
Br6 K3 3.224881 1_555
Br6 O7 3.295560 1_555
Br6 K0 3.469542 1_554
Br7 Zn2 2.407443 1_555
Br7 K2 3.224881 1_555
Br7 O6 3.295560 1_555
Br7 K1 3.469542 1_555
Br8 O5 1.723418 1_545
Br8 O2 1.802538 1_555
Br9 O4 1.723418 1_565
Br9 O3 1.802538 1_555
Br10 O7 1.723418 1_565
Br10 O0 1.802538 1_555
Br11 O6 1.723418 1_545
Br11 O1 1.802538 1_555
O0 Zn0 2.047009 1_565
O0 Zn2 2.084368 1_655
O1 Zn1 2.047009 1_544
O1 Zn3 2.084368 1_555
O2 Zn2 2.047009 1_545
O2 Zn0 2.084368 1_455
O3 Zn3 2.047009 1_566
O3 Zn1 2.084368 1_555
