# generated using pymatgen
data_Cs3MnF7
_symmetry_space_group_name_H-M   'P 1'
_cell_length_a   8.34321917
_cell_length_b   8.34321917
_cell_length_c   6.21805958
_cell_angle_alpha   90.00000000
_cell_angle_beta   90.00000000
_cell_angle_gamma   90.00000000
_symmetry_Int_Tables_number   1
_chemical_formula_structural   Cs3MnF7
_chemical_formula_sum   'Cs6 Mn2 F14'
_cell_volume   432.83481277
_cell_formula_units_Z   2
loop_
 _symmetry_equiv_pos_site_id
 _symmetry_equiv_pos_as_xyz
  1  'x, y, z'
loop_
 _atom_site_type_symbol
 _atom_site_label
 _atom_site_symmetry_multiplicity
 _atom_site_fract_x
 _atom_site_fract_y
 _atom_site_fract_z
 _atom_site_occupancy
  Cs  Cs0  1  0.19171164  0.69171164  0.50000000  1
  Cs  Cs1  1  0.69171164  0.80828836  0.50000000  1
  Cs  Cs2  1  0.30828836  0.19171164  0.50000000  1
  Cs  Cs3  1  0.80828836  0.30828836  0.50000000  1
  Cs  Cs4  1  0.50000000  0.50000000  0.00000000  1
  Cs  Cs5  1  0.00000000  -0.00000000  0.00000000  1
  Mn  Mn0  1  0.00000000  0.50000000  0.00000000  1
  Mn  Mn1  1  0.50000000  -0.00000000  0.00000000  1
  F  F0  1  0.39190245  0.89190245  0.79199832  1
  F  F1  1  0.60809755  0.10809755  0.79199832  1
  F  F2  1  0.10809755  0.39190245  0.79199832  1
  F  F3  1  0.89190245  0.60809755  0.79199832  1
  F  F4  1  0.39190245  0.89190245  0.20800168  1
  F  F5  1  0.89190245  0.60809755  0.20800168  1
  F  F6  1  0.10809755  0.39190245  0.20800168  1
  F  F7  1  0.60809755  0.10809755  0.20800168  1
  F  F8  1  0.00000000  -0.00000000  0.50000000  1
  F  F9  1  0.50000000  0.50000000  0.50000000  1
  F  F10  1  0.84614936  0.34614936  0.00000000  1
  F  F11  1  0.34614936  0.15385064  0.00000000  1
  F  F12  1  0.65385064  0.84614936  0.00000000  1
  F  F13  1  0.15385064  0.65385064  0.00000000  1
loop_
_geom_bond_atom_site_label_1
_geom_bond_atom_site_label_2
_geom_bond_distance
_geom_bond_site_symmetry_2
Cs0 F0 2.979263 1_555
Cs0 F4 2.979263 1_555
Cs0 F9 3.028888 1_555
Cs0 F8 3.028888 1_565
Cs0 F13 3.140960 1_556
Cs0 F13 3.140960 1_555
Cs0 F2 3.168622 1_555
Cs0 F6 3.168622 1_555
Cs0 F5 3.168622 1_455
Cs0 F3 3.168622 1_455
Cs1 F5 2.979263 1_555
Cs1 F3 2.979263 1_555
Cs1 F8 3.028888 1_665
Cs1 F9 3.028888 1_555
Cs1 F12 3.140960 1_556
Cs1 F12 3.140960 1_555
Cs1 F4 3.168622 1_555
Cs1 F0 3.168622 1_555
Cs1 F7 3.168622 1_565
Cs1 F1 3.168622 1_565
Cs2 F6 2.979263 1_555
Cs2 F2 2.979263 1_555
Cs2 F8 3.028888 1_555
Cs2 F9 3.028888 1_555
Cs2 F11 3.140960 1_555
Cs2 F11 3.140960 1_556
Cs2 F1 3.168622 1_555
Cs2 F7 3.168622 1_555
Cs2 F0 3.168622 1_545
Cs2 F4 3.168622 1_545
Cs3 F7 2.979263 1_555
Cs3 F1 2.979263 1_555
Cs3 F8 3.028888 1_655
Cs3 F9 3.028888 1_555
Cs3 F10 3.140960 1_555
Cs3 F10 3.140960 1_556
Cs3 F5 3.168622 1_555
Cs3 F3 3.168622 1_555
Cs3 F6 3.168622 1_655
Cs3 F2 3.168622 1_655
Cs4 F9 3.109030 1_554
Cs4 F9 3.109030 1_555
Cs4 F11 3.160411 1_555
Cs4 F13 3.160411 1_555
Cs4 F12 3.160411 1_555
Cs4 F10 3.160411 1_555
Cs5 F8 3.109030 1_554
Cs5 F8 3.109030 1_555
Cs5 F13 3.160411 1_545
Cs5 F12 3.160411 1_445
Cs5 F10 3.160411 1_455
Cs5 F11 3.160411 1_555
F0 Mn1 1.816474 1_566
F1 Mn1 1.816474 1_556
F2 Mn0 1.816474 1_556
F3 Mn0 1.816474 1_656
F4 Mn1 1.816474 1_565
F5 Mn0 1.816474 1_655
F6 Mn0 1.816474 1_555
F7 Mn1 1.816474 1_555
F10 Mn0 1.815298 1_655
F11 Mn1 1.815298 1_555
F12 Mn1 1.815298 1_565
F13 Mn0 1.815298 1_555
