# generated using pymatgen
data_YCr(WO4)2
_symmetry_space_group_name_H-M   'P 1'
_cell_length_a   5.13184004
_cell_length_b   10.95564426
_cell_length_c   6.11020334
_cell_angle_alpha   81.35368599
_cell_angle_beta   69.08711774
_cell_angle_gamma   81.04074061
_symmetry_Int_Tables_number   1
_chemical_formula_structural   YCr(WO4)2
_chemical_formula_sum   'Y2 Cr2 W4 O16'
_cell_volume   315.31051630
_cell_formula_units_Z   2
loop_
 _symmetry_equiv_pos_site_id
 _symmetry_equiv_pos_as_xyz
  1  'x, y, z'
loop_
 _atom_site_type_symbol
 _atom_site_label
 _atom_site_symmetry_multiplicity
 _atom_site_fract_x
 _atom_site_fract_y
 _atom_site_fract_z
 _atom_site_occupancy
  Y  Y0  1  0.51231500  0.35251500  0.75264100  1
  Y  Y1  1  0.51242900  0.85257200  0.25261600  1
  Cr  Cr0  1  0.03251200  0.61163000  0.48629900  1
  Cr  Cr1  1  0.03242500  0.11155000  0.98644400  1
  W  W0  1  0.29488200  0.69768400  0.88751700  1
  W  W1  1  0.77051800  0.52993100  0.08970500  1
  W  W2  1  0.29475400  0.19769600  0.38760400  1
  W  W3  1  0.77043100  0.02993000  0.58980700  1
  O  O0  1  0.30186200  0.34672800  0.48817100  1
  O  O1  1  0.30197100  0.84667500  0.98822500  1
  O  O2  1  0.26230800  0.23161600  0.07003700  1
  O  O3  1  0.26234500  0.73160800  0.56995300  1
  O  O4  1  0.37810300  0.10353300  0.69096400  1
  O  O5  1  0.37812000  0.60347400  0.19077800  1
  O  O6  1  0.16831300  0.01999300  0.38867500  1
  O  O7  1  0.16838500  0.51999600  0.88862500  1
  O  O8  1  0.79453300  0.48738000  0.38753000  1
  O  O9  1  0.79445200  0.98732600  0.88761600  1
  O  O10  1  0.72786500  0.38438400  0.00097000  1
  O  O11  1  0.72788800  0.88440400  0.50097500  1
  O  O12  1  0.68881300  0.11816200  0.27546800  1
  O  O13  1  0.68904900  0.61816800  0.77538700  1
  O  O14  1  0.86776900  0.20576800  0.58887700  1
  O  O15  1  0.86776300  0.70577700  0.08880900  1
loop_
_geom_bond_atom_site_label_1
_geom_bond_atom_site_label_2
_geom_bond_distance
_geom_bond_site_symmetry_2
Cr0 O13 2.002013 1_455
Cr0 O5 2.031508 1_555
Cr0 O3 2.120241 1_555
Cr0 O8 2.235988 1_455
Cr0 O7 2.793007 1_555
Cr0 O15 2.849314 1_455
Cr1 O12 2.002242 1_456
Cr1 O4 2.031496 1_555
Cr1 O2 2.120949 1_556
Cr1 O9 2.235956 1_445
Cr1 O6 2.792357 1_556
Cr1 O14 2.849626 1_455
O0 W2 1.838744 1_555
O0 Y0 2.253853 1_555
O0 O14 2.744696 1_455
O1 W0 1.838703 1_555
O1 Y1 2.253696 1_556
O1 O15 2.744847 1_456
O2 W2 1.981299 1_555
O2 Y0 2.267640 1_554
O2 O4 2.724324 1_554
O3 W0 1.981471 1_555
O3 Y1 2.267963 1_555
O3 O5 2.725210 1_555
O4 W3 1.960023 1_555
O4 W2 2.129935 1_555
O4 O6 2.764619 1_555
O5 W1 1.960127 1_555
O5 W0 2.129327 1_554
O5 O7 2.763381 1_554
O6 W3 1.967479 1_455
O6 W2 2.144274 1_555
O6 Y1 2.361260 1_545
O7 W1 1.967333 1_456
O7 W0 2.144189 1_555
O7 Y0 2.361158 1_555
O8 W1 1.852355 1_555
O8 Y0 2.574183 1_555
O9 W3 1.852326 1_565
O9 Y1 2.572801 1_556
O10 W1 1.826988 1_555
O10 Y0 2.263987 1_554
O10 O7 2.724125 1_654
O10 O13 2.734085 1_554
O11 W3 1.826848 1_565
O11 Y1 2.263661 1_555
O11 O6 2.723598 1_665
O11 O12 2.733804 1_565
O12 W2 1.989901 1_555
O12 W3 2.165365 1_555
O12 O4 2.465933 1_555
O12 O14 2.741251 1_555
O12 O9 2.797653 1_544
O13 W0 1.990292 1_555
O13 W1 2.164929 1_556
O13 O5 2.465760 1_556
O13 O15 2.740543 1_556
O13 O8 2.797509 1_555
O14 W3 2.062776 1_555
O14 W2 2.090515 1_655
O14 Y0 2.276105 1_555
O14 O6 2.538022 1_655
O14 O4 2.739666 1_555
O15 W1 2.062723 1_555
O15 W0 2.091105 1_654
O15 Y1 2.276185 1_555
O15 O7 2.538155 1_654
O15 O5 2.740061 1_555
