# generated using pymatgen
data_Eu2ZnGe3
_symmetry_space_group_name_H-M   'P 1'
_cell_length_a   6.18683094
_cell_length_b   6.18683094
_cell_length_c   8.61710857
_cell_angle_alpha   67.60767961
_cell_angle_beta   67.60767961
_cell_angle_gamma   86.37222651
_symmetry_Int_Tables_number   1
_chemical_formula_structural   Eu2ZnGe3
_chemical_formula_sum   'Eu4 Zn2 Ge6'
_cell_volume   280.67488245
_cell_formula_units_Z   2
loop_
 _symmetry_equiv_pos_site_id
 _symmetry_equiv_pos_as_xyz
  1  'x, y, z'
loop_
 _atom_site_type_symbol
 _atom_site_label
 _atom_site_symmetry_multiplicity
 _atom_site_fract_x
 _atom_site_fract_y
 _atom_site_fract_z
 _atom_site_occupancy
  Eu  Eu0  1  0.75686600  0.75686600  0.00079500  1
  Eu  Eu1  1  0.24313400  0.24313400  0.99920500  1
  Eu  Eu2  1  0.75122600  0.24877400  0.50000000  1
  Eu  Eu3  1  0.24877400  0.75122600  0.50000000  1
  Zn  Zn0  1  0.30933200  0.30933200  0.33183900  1
  Zn  Zn1  1  0.69066800  0.69066800  0.66816100  1
  Ge  Ge0  1  0.19964200  0.19964200  0.66290000  1
  Ge  Ge1  1  0.80035900  0.80035900  0.33710000  1
  Ge  Ge2  1  0.79899300  0.30520300  0.83171500  1
  Ge  Ge3  1  0.69479700  0.20100700  0.16828500  1
  Ge  Ge4  1  0.20100700  0.69479700  0.16828500  1
  Ge  Ge5  1  0.30520300  0.79899300  0.83171500  1
loop_
_geom_bond_atom_site_label_1
_geom_bond_atom_site_label_2
_geom_bond_distance
_geom_bond_site_symmetry_2
Eu0 Ge1 3.120976 1_555
Eu0 Ge2 3.123505 1_564
Eu0 Ge5 3.123505 1_654
Eu0 Ge3 3.165520 1_555
Eu0 Ge4 3.165520 1_555
Eu0 Zn1 3.218919 1_554
Eu0 Ge4 3.499548 1_655
Eu0 Ge3 3.499548 1_565
Eu0 Ge0 3.504556 1_664
Eu0 Zn0 3.522058 1_555
Eu0 Ge2 3.566458 1_554
Eu0 Ge5 3.566458 1_554
Eu1 Ge0 3.120970 1_555
Eu1 Ge3 3.123505 1_456
Eu1 Ge4 3.123505 1_546
Eu1 Ge2 3.165520 1_555
Eu1 Ge5 3.165520 1_555
Eu1 Zn0 3.218919 1_556
Eu1 Ge5 3.499548 1_545
Eu1 Ge2 3.499548 1_455
Eu1 Ge1 3.504550 1_446
Eu1 Zn1 3.522058 1_555
Eu1 Ge4 3.566458 1_556
Eu1 Ge3 3.566458 1_556
Eu2 Ge2 3.129980 1_555
Eu2 Ge3 3.129980 1_555
Eu2 Ge0 3.140840 1_555
Eu2 Ge1 3.140846 1_555
Eu2 Zn1 3.178157 1_545
Eu2 Zn0 3.178157 1_655
Eu2 Zn0 3.491355 1_555
Eu2 Zn1 3.491355 1_555
Eu2 Ge1 3.506372 1_545
Eu2 Ge0 3.506378 1_655
Eu2 Ge5 3.525717 1_545
Eu2 Ge4 3.525717 1_655
Eu3 Ge4 3.129980 1_555
Eu3 Ge5 3.129980 1_555
Eu3 Ge0 3.140840 1_555
Eu3 Ge1 3.140846 1_555
Eu3 Zn0 3.178157 1_565
Eu3 Zn1 3.178157 1_455
Eu3 Zn0 3.491355 1_555
Eu3 Zn1 3.491355 1_555
Eu3 Ge1 3.506372 1_455
Eu3 Ge0 3.506378 1_565
Eu3 Ge2 3.525717 1_455
Eu3 Ge3 3.525717 1_565
Ge0 Zn0 2.483490 1_555
Ge0 Ge5 2.541373 1_545
Ge0 Ge2 2.541373 1_455
Ge1 Zn1 2.483489 1_555
Ge1 Ge3 2.541371 1_565
Ge1 Ge4 2.541371 1_655
Ge2 Zn1 2.465638 1_555
Ge2 Ge3 2.538958 1_556
Ge3 Zn0 2.465638 1_555
Ge4 Zn0 2.465638 1_555
Ge4 Ge5 2.538958 1_554
Ge5 Zn1 2.465638 1_555
