# generated using pymatgen
data_SrPr2Mn3O9
_symmetry_space_group_name_H-M   'P 1'
_cell_length_a   5.56732195
_cell_length_b   5.56732195
_cell_length_c   13.44592836
_cell_angle_alpha   89.69244445
_cell_angle_beta   89.69244445
_cell_angle_gamma   60.40974093
_symmetry_Int_Tables_number   1
_chemical_formula_structural   SrPr2Mn3O9
_chemical_formula_sum   'Sr2 Pr4 Mn6 O18'
_cell_volume   362.39656970
_cell_formula_units_Z   2
loop_
 _symmetry_equiv_pos_site_id
 _symmetry_equiv_pos_as_xyz
  1  'x, y, z'
loop_
 _atom_site_type_symbol
 _atom_site_label
 _atom_site_symmetry_multiplicity
 _atom_site_fract_x
 _atom_site_fract_y
 _atom_site_fract_z
 _atom_site_occupancy
  Sr  Sr0  1  0.50679800  0.49320200  0.75000000  1
  Sr  Sr1  1  0.49320200  0.50679800  0.25000000  1
  Pr  Pr0  1  0.17198700  0.16041900  0.41600000  1
  Pr  Pr1  1  0.83958100  0.82801300  0.08400000  1
  Pr  Pr2  1  0.82801300  0.83958100  0.58400000  1
  Pr  Pr3  1  0.16041900  0.17198700  0.91600000  1
  Mn  Mn0  1  0.16462500  0.16912800  0.16711400  1
  Mn  Mn1  1  0.83537500  0.83087200  0.83288600  1
  Mn  Mn2  1  0.50000000  0.50000000  0.50000000  1
  Mn  Mn3  1  0.83087200  0.83537500  0.33288600  1
  Mn  Mn4  1  0.50000000  0.50000000  0.00000000  1
  Mn  Mn5  1  0.16912800  0.16462500  0.66711400  1
  O  O0  1  0.14709200  0.61643100  0.92798900  1
  O  O1  1  0.82536600  0.27881400  0.58671500  1
  O  O2  1  0.47693900  0.97751700  0.25948600  1
  O  O3  1  0.02248300  0.52306100  0.24051400  1
  O  O4  1  0.72118600  0.17463400  0.91328500  1
  O  O5  1  0.38356900  0.85290800  0.57201100  1
  O  O6  1  0.17463400  0.72118600  0.41328500  1
  O  O7  1  0.85290800  0.38356900  0.07201100  1
  O  O8  1  0.52306100  0.02248300  0.74051400  1
  O  O9  1  0.27881400  0.82536600  0.08671500  1
  O  O10  1  0.97751700  0.47693900  0.75948600  1
  O  O11  1  0.61643100  0.14709200  0.42798900  1
  O  O12  1  0.59285300  0.74421100  0.91977200  1
  O  O13  1  0.25578900  0.40714700  0.58022800  1
  O  O14  1  0.94204400  0.05795600  0.25000000  1
  O  O15  1  0.40714700  0.25578900  0.08022800  1
  O  O16  1  0.05795600  0.94204400  0.75000000  1
  O  O17  1  0.74421100  0.59285300  0.41977200  1
loop_
_geom_bond_atom_site_label_1
_geom_bond_atom_site_label_2
_geom_bond_distance
_geom_bond_site_symmetry_2
Mn0 O2 1.970030 1_545
Mn0 O14 1.973809 1_455
Mn0 O3 1.988844 1_555
Mn0 O7 2.008359 1_455
Mn0 O15 2.010226 1_555
Mn0 O9 2.012166 1_545
Mn1 O8 1.970030 1_565
Mn1 O16 1.973809 1_655
Mn1 O10 1.988844 1_555
Mn1 O0 2.008359 1_655
Mn1 O12 2.010226 1_555
Mn1 O4 2.012166 1_565
Mn2 O13 1.987915 1_555
Mn2 O17 1.987915 1_555
Mn2 O1 1.990333 1_555
Mn2 O6 1.990333 1_555
Mn2 O5 1.993456 1_555
Mn2 O11 1.993456 1_555
Mn3 O3 1.970030 1_655
Mn3 O14 1.973809 1_565
Mn3 O2 1.988844 1_555
Mn3 O11 2.008359 1_565
Mn3 O17 2.010226 1_555
Mn3 O6 2.012166 1_655
Mn4 O15 1.987915 1_555
Mn4 O12 1.987915 1_554
Mn4 O9 1.990333 1_555
Mn4 O4 1.990333 1_554
Mn4 O7 1.993456 1_555
Mn4 O0 1.993456 1_554
Mn5 O10 1.970030 1_455
Mn5 O16 1.973809 1_545
Mn5 O8 1.988844 1_555
Mn5 O5 2.008359 1_545
Mn5 O13 2.010226 1_555
Mn5 O1 2.012166 1_455
O0 Pr3 2.444751 1_555
O0 Pr1 2.591387 1_456
O0 Sr0 2.969503 1_555
O1 Pr2 2.438577 1_545
O1 Sr0 2.699293 1_555
O1 Pr0 2.853044 1_655
O2 Pr0 2.573990 1_565
O2 Sr1 2.580964 1_555
O2 Pr1 2.940554 1_555
O2 Sr1 2.994445 1_565
O3 Pr1 2.573990 1_455
O3 Sr1 2.580964 1_555
O3 Pr0 2.940554 1_555
O3 Sr1 2.994445 1_455
O4 Pr3 2.438577 1_655
O4 Sr0 2.699293 1_555
O4 Pr1 2.853044 1_546
O5 Pr2 2.444751 1_555
O5 Pr0 2.591387 1_565
O5 Sr0 2.969503 1_555
O6 Pr0 2.438577 1_565
O6 Sr1 2.699293 1_555
O6 Pr2 2.853044 1_455
O7 Pr1 2.444751 1_555
O7 Pr3 2.591387 1_654
O7 Sr1 2.969503 1_555
O8 Pr2 2.573990 1_545
O8 Sr0 2.580964 1_555
O8 Pr3 2.940554 1_555
O8 Sr0 2.994445 1_545
O9 Pr1 2.438577 1_455
O9 Sr1 2.699293 1_555
O9 Pr3 2.853044 1_564
O10 Pr3 2.573990 1_655
O10 Sr0 2.580964 1_555
O10 Pr2 2.940554 1_555
O10 Sr0 2.994445 1_655
O11 Pr0 2.444751 1_555
O11 Pr2 2.591387 1_545
O11 Sr1 2.969503 1_555
O12 Pr3 2.409988 1_565
O12 Pr1 2.767157 1_556
O12 Sr0 2.846137 1_555
O13 Pr2 2.409988 1_455
O13 Pr0 2.767157 1_555
O13 Sr0 2.846137 1_555
O14 Sr1 2.514308 1_555
O14 Pr0 2.776997 1_655
O14 Pr1 2.776997 1_545
O14 Sr1 3.087458 1_645
O15 Pr1 2.409988 1_545
O15 Pr3 2.767157 1_554
O15 Sr1 2.846137 1_555
O16 Sr0 2.514308 1_555
O16 Pr3 2.776997 1_565
O16 Pr2 2.776997 1_455
O16 Sr0 3.087458 1_465
O17 Pr0 2.409988 1_655
O17 Pr2 2.767157 1_555
O17 Sr1 2.846137 1_555
