# generated using pymatgen
data_Mg4Si3
_symmetry_space_group_name_H-M   'P 1'
_cell_length_a   6.59649100
_cell_length_b   7.16110719
_cell_length_c   12.47985166
_cell_angle_alpha   97.79532493
_cell_angle_beta   87.83699939
_cell_angle_gamma   106.34425777
_symmetry_Int_Tables_number   1
_chemical_formula_structural   Mg4Si3
_chemical_formula_sum   'Mg16 Si12'
_cell_volume   560.47393048
_cell_formula_units_Z   4
loop_
 _symmetry_equiv_pos_site_id
 _symmetry_equiv_pos_as_xyz
  1  'x, y, z'
loop_
 _atom_site_type_symbol
 _atom_site_label
 _atom_site_symmetry_multiplicity
 _atom_site_fract_x
 _atom_site_fract_y
 _atom_site_fract_z
 _atom_site_occupancy
  Mg  Mg0  1  0.69571400  0.86081500  0.88863700  1
  Mg  Mg1  1  0.52221400  0.39689200  0.90718000  1
  Mg  Mg2  1  0.08927400  0.92013200  0.36220700  1
  Mg  Mg3  1  0.11320000  0.54682100  0.19841600  1
  Mg  Mg4  1  0.20799700  0.95319400  0.83828300  1
  Mg  Mg5  1  0.00267200  0.28170300  0.89772900  1
  Mg  Mg6  1  0.55598200  0.81150900  0.41130300  1
  Mg  Mg7  1  0.43296400  0.30499100  0.41267700  1
  Mg  Mg8  1  0.40540900  0.79234800  0.64148100  1
  Mg  Mg9  1  0.33790900  0.29018400  0.67323600  1
  Mg  Mg10  1  0.92715300  0.93743800  0.11741400  1
  Mg  Mg11  1  0.84267400  0.20423700  0.31088000  1
  Mg  Mg12  1  0.94929200  0.49482500  0.69836500  1
  Mg  Mg13  1  0.91487800  0.92851500  0.64868600  1
  Mg  Mg14  1  0.60758800  0.52453600  0.19991600  1
  Mg  Mg15  1  0.46355000  0.92672900  0.19475500  1
  Si  Si0  1  0.66805500  0.16002400  0.55810200  1
  Si  Si1  1  0.15619700  0.56692500  0.47370000  1
  Si  Si2  1  0.35178600  0.12556000  0.03933100  1
  Si  Si3  1  0.85813100  0.57543100  0.02542200  1
  Si  Si4  1  0.30284300  0.60397300  0.82790600  1
  Si  Si5  1  0.63698200  0.14032000  0.75567100  1
  Si  Si6  1  0.82873600  0.57151000  0.39452700  1
  Si  Si7  1  0.24022200  0.22261500  0.21935500  1
  Si  Si8  1  0.66352100  0.55801200  0.57297800  1
  Si  Si9  1  0.03737200  0.22141800  0.51446600  1
  Si  Si10  1  0.23473900  0.73285400  0.01094900  1
  Si  Si11  1  0.73389800  0.20332700  0.07055500  1
loop_
_geom_bond_atom_site_label_1
_geom_bond_atom_site_label_2
_geom_bond_distance
_geom_bond_site_symmetry_2
Mg0 Si4 2.785855 1_555
Mg0 Si5 2.880263 1_565
Mg0 Si11 3.068988 1_566
Mg0 Mg5 3.112388 1_665
Mg0 Mg10 3.196254 1_556
Mg0 Mg1 3.232498 1_555
Mg0 Si3 3.248877 1_556
Mg0 Si10 3.298041 1_556
Mg0 Mg4 3.308518 1_655
Mg0 Mg13 3.311348 1_555
Mg1 Si3 2.619695 1_556
Mg1 Si4 2.643045 1_555
Mg1 Si5 2.693796 1_555
Mg1 Si2 2.694277 1_556
Mg1 Mg9 3.118631 1_555
Mg1 Si11 3.177935 1_556
Mg1 Mg4 3.289072 1_545
Mg1 Mg5 3.294354 1_555
Mg1 Si10 3.549433 1_556
Mg2 Si6 2.674887 1_455
Mg2 Si9 2.763577 1_565
Mg2 Si7 2.925994 1_565
Mg2 Mg7 3.041802 1_565
Mg2 Mg3 3.174997 1_555
Mg2 Si1 3.187171 1_555
Mg2 Mg6 3.432534 1_455
Mg2 Mg6 3.475335 1_555
Mg3 Si7 2.726994 1_555
Mg3 Si10 2.827340 1_555
Mg3 Si3 2.849949 1_455
Mg3 Si6 3.043845 1_455
Mg3 Si11 3.260348 1_455
Mg3 Si1 3.438060 1_555
Mg4 Si2 2.720139 1_566
Mg4 Si4 2.729265 1_555
Mg4 Si10 2.876086 1_556
Mg4 Si5 2.981056 1_565
Mg4 Mg8 2.981627 1_555
Mg4 Mg5 3.027053 1_565
Mg4 Mg9 3.294217 1_565
Mg5 Si11 2.755007 1_456
Mg5 Si4 2.801678 1_555
Mg5 Si3 2.824491 1_456
Mg5 Si5 2.906629 1_455
Mg5 Si10 3.304395 1_556
Mg5 Si2 3.459644 1_556
Mg5 Mg9 3.499430 1_555
Mg6 Si6 2.801630 1_555
Mg6 Si0 2.820485 1_565
Mg6 Si1 2.871261 1_555
Mg6 Mg8 3.011973 1_555
Mg6 Si8 3.113845 1_555
Mg7 Si7 2.684889 1_555
Mg7 Si8 2.700671 1_555
Mg7 Si6 2.788910 1_555
Mg7 Si9 2.803300 1_555
Mg7 Si0 2.899314 1_555
Mg7 Si1 2.977655 1_555
Mg7 Mg9 3.298547 1_555
Mg8 Si1 2.746282 1_555
Mg8 Si8 2.748617 1_555
Mg8 Si5 2.762672 1_565
Mg8 Si4 2.812334 1_555
Mg8 Si0 3.009434 1_565
Mg9 Si9 2.753396 1_555
Mg9 Si5 2.783255 1_555
Mg9 Si4 2.812646 1_555
Mg9 Si8 2.826138 1_555
Mg9 Si0 2.866903 1_555
Mg10 Si3 2.610271 1_555
Mg10 Si7 2.678396 1_665
Mg10 Si11 2.704997 1_565
Mg10 Si2 2.938842 1_665
Mg10 Si10 2.994993 1_655
Mg10 Mg11 3.006097 1_565
Mg10 Mg15 3.155166 1_555
Mg10 Mg2 3.303915 1_655
Mg10 Mg14 3.376483 1_555
Mg11 Si6 2.720217 1_555
Mg11 Si7 2.796338 1_655
Mg11 Si9 2.862251 1_655
Mg11 Mg15 2.999847 1_545
Mg11 Mg3 3.074741 1_655
Mg11 Mg2 3.080663 1_645
Mg11 Si11 3.108817 1_555
Mg11 Mg7 3.166779 1_555
Mg11 Si0 3.276822 1_555
Mg11 Mg6 3.292472 1_545
Mg12 Si8 2.664909 1_555
Mg12 Si4 2.753091 1_655
Mg12 Si5 2.939079 1_555
Mg12 Si9 2.959522 1_655
Mg12 Si0 2.976131 1_555
Mg12 Si1 3.114134 1_655
Mg12 Mg5 3.168945 1_655
Mg12 Mg8 3.276775 1_655
Mg12 Mg9 3.278181 1_655
Mg12 Mg13 3.318290 1_555
Mg12 Mg4 3.500449 1_655
Mg13 Si8 2.764727 1_555
Mg13 Si9 2.784828 1_665
Mg13 Si5 2.876519 1_565
Mg13 Si0 2.973876 1_565
Mg13 Mg4 3.067262 1_655
Mg13 Mg9 3.220303 1_665
Mg13 Mg8 3.226132 1_555
Mg13 Mg8 3.627572 1_655
Mg14 Si3 2.685346 1_555
Mg14 Si7 2.784790 1_555
Mg14 Si6 2.812393 1_555
Mg14 Si11 2.925967 1_555
Mg14 Mg6 3.186509 1_555
Mg14 Mg7 3.275844 1_555
Mg14 Mg15 3.285923 1_555
Mg14 Mg3 3.293379 1_655
Mg14 Mg3 3.310551 1_555
Mg14 Si2 3.318937 1_555
Mg15 Si10 2.772285 1_555
Mg15 Si2 2.789470 1_565
Mg15 Si11 2.853471 1_565
Mg15 Si7 2.881033 1_565
Mg15 Mg3 3.038374 1_555
Mg15 Mg6 3.060786 1_555
Mg15 Mg2 3.168056 1_555
Si0 Si9 2.405595 1_655
Si0 Si5 2.486205 1_555
Si0 Si8 2.839381 1_555
Si1 Si6 2.419336 1_455
Si1 Si9 2.492951 1_555
Si2 Si7 2.410741 1_555
Si6 Si8 2.443912 1_555
Si10 Si4 2.419887 1_554
Si10 Si3 2.433172 1_455
Si10 Si2 2.675539 1_565
Si11 Si2 2.457770 1_555
Si11 Si3 2.689352 1_555
