# generated using pymatgen
data_KMgP2H5O9
_symmetry_space_group_name_H-M   'P 1'
_cell_length_a   6.67929900
_cell_length_b   7.79860900
_cell_length_c   15.68835900
_cell_angle_alpha   90.00000000
_cell_angle_beta   90.00000000
_cell_angle_gamma   90.00000000
_symmetry_Int_Tables_number   1
_chemical_formula_structural   KMgP2H5O9
_chemical_formula_sum   'K4 Mg4 P8 H20 O36'
_cell_volume   817.19471748
_cell_formula_units_Z   4
loop_
 _symmetry_equiv_pos_site_id
 _symmetry_equiv_pos_as_xyz
  1  'x, y, z'
loop_
 _atom_site_type_symbol
 _atom_site_label
 _atom_site_symmetry_multiplicity
 _atom_site_fract_x
 _atom_site_fract_y
 _atom_site_fract_z
 _atom_site_occupancy
  K  K0  1  0.12491200  0.24550600  0.96453400  1
  K  K1  1  0.37508800  0.24550600  0.46453400  1
  K  K2  1  0.87508800  0.74550600  0.03546600  1
  K  K3  1  0.62491200  0.74550600  0.53546600  1
  Mg  Mg0  1  0.06357900  0.25062100  0.19715900  1
  Mg  Mg1  1  0.43642100  0.25062100  0.69715900  1
  Mg  Mg2  1  0.93642100  0.75062100  0.80284100  1
  Mg  Mg3  1  0.56357900  0.75062100  0.30284100  1
  P  P0  1  0.85953800  0.43798700  0.36237300  1
  P  P1  1  0.63195300  0.05632500  0.86473600  1
  P  P2  1  0.14046200  0.93798700  0.63762700  1
  P  P3  1  0.36804700  0.55632500  0.13526400  1
  P  P4  1  0.13195300  0.55632500  0.63526400  1
  P  P5  1  0.35953800  0.93798700  0.13762700  1
  P  P6  1  0.86804700  0.05632500  0.36473600  1
  P  P7  1  0.64046200  0.43798700  0.86237300  1
  H  H0  1  0.39524500  0.14666900  0.26887600  1
  H  H1  1  0.10533400  0.35677100  0.76768000  1
  H  H2  1  0.60475500  0.64666900  0.73112400  1
  H  H3  1  0.89466600  0.85677100  0.23232000  1
  H  H4  1  0.60533400  0.85677100  0.73232000  1
  H  H5  1  0.89524500  0.64666900  0.23112400  1
  H  H6  1  0.39466600  0.35677100  0.26768000  1
  H  H7  1  0.10475500  0.14666900  0.76887600  1
  H  H8  1  0.73009200  0.15100400  0.10909800  1
  H  H9  1  0.77199800  0.35252000  0.60638100  1
  H  H10  1  0.26990800  0.65100400  0.89090200  1
  H  H11  1  0.22800200  0.85252000  0.39361900  1
  H  H12  1  0.27199800  0.85252000  0.89361900  1
  H  H13  1  0.23009200  0.65100400  0.39090200  1
  H  H14  1  0.72800200  0.35252000  0.10638100  1
  H  H15  1  0.76990800  0.15100400  0.60909800  1
  H  H16  1  0.00444800  0.49644700  0.48897000  1
  H  H17  1  0.99555200  0.99644700  0.51103000  1
  H  H18  1  0.50444800  0.99644700  0.01103000  1
  H  H19  1  0.49555200  0.49644700  0.98897000  1
  O  O0  1  0.93347700  0.43768000  0.27136300  1
  O  O1  1  0.56374400  0.06085600  0.77210700  1
  O  O2  1  0.06652300  0.93768000  0.72863700  1
  O  O3  1  0.43625600  0.56085600  0.22789300  1
  O  O4  1  0.06374400  0.56085600  0.72789300  1
  O  O5  1  0.43347700  0.93768000  0.22863700  1
  O  O6  1  0.93625600  0.06085600  0.27210700  1
  O  O7  1  0.56652300  0.43768000  0.77136300  1
  O  O8  1  0.77854800  0.24881600  0.38766000  1
  O  O9  1  0.72145200  0.24881600  0.88766000  1
  O  O10  1  0.22145200  0.74881600  0.61234000  1
  O  O11  1  0.27854800  0.74881600  0.11234000  1
  O  O12  1  0.04534500  0.47389500  0.42286700  1
  O  O13  1  0.45457600  0.02542200  0.92636800  1
  O  O14  1  0.95465500  0.97389500  0.57713300  1
  O  O15  1  0.54542400  0.52542200  0.07363200  1
  O  O16  1  0.95457600  0.52542200  0.57363200  1
  O  O17  1  0.54534500  0.97389500  0.07713300  1
  O  O18  1  0.04542400  0.02542200  0.42636800  1
  O  O19  1  0.45465500  0.47389500  0.92286700  1
  O  O20  1  0.68690900  0.55747000  0.38269000  1
  O  O21  1  0.80950600  0.93922800  0.88230400  1
  O  O22  1  0.31309100  0.05747000  0.61731000  1
  O  O23  1  0.19049400  0.43922800  0.11769600  1
  O  O24  1  0.30950600  0.43922800  0.61769600  1
  O  O25  1  0.18690900  0.05747000  0.11731000  1
  O  O26  1  0.69049400  0.93922800  0.38230400  1
  O  O27  1  0.81309100  0.55747000  0.88269000  1
  O  O28  1  0.81855500  0.25219300  0.11025100  1
  O  O29  1  0.68144500  0.25219300  0.61025100  1
  O  O30  1  0.18144500  0.75219300  0.88974900  1
  O  O31  1  0.31855500  0.75219300  0.38974900  1
  O  O32  1  0.31712900  0.25159100  0.28238800  1
  O  O33  1  0.18287100  0.25159100  0.78238800  1
  O  O34  1  0.68287100  0.75159100  0.71761200  1
  O  O35  1  0.81712900  0.75159100  0.21761200  1
loop_
_geom_bond_atom_site_label_1
_geom_bond_atom_site_label_2
_geom_bond_distance
_geom_bond_site_symmetry_2
K0 O25 2.840164 1_556
K0 O13 2.855318 1_555
K0 O23 2.871937 1_556
K0 O33 2.884066 1_555
K0 O19 2.906971 1_555
K0 O9 2.952503 1_455
K0 O28 3.068539 1_456
K0 O21 3.436207 1_445
K0 O27 3.450422 1_455
K1 O22 2.840164 1_555
K1 O18 2.855318 1_555
K1 O24 2.871937 1_555
K1 O32 2.884066 1_555
K1 O12 2.906971 1_555
K1 O8 2.952503 1_555
K1 O29 3.068539 1_555
K1 O26 3.436207 1_545
K1 O20 3.450422 1_555
K2 O27 2.840164 1_554
K2 O15 2.855318 1_555
K2 O21 2.871937 1_554
K2 O35 2.884066 1_555
K2 O17 2.906971 1_555
K2 O11 2.952503 1_655
K2 O30 3.068539 1_654
K2 O23 3.436207 1_655
K2 O25 3.450422 1_665
K3 O20 2.840164 1_555
K3 O16 2.855318 1_555
K3 O26 2.871937 1_555
K3 O34 2.884066 1_555
K3 O14 2.906971 1_555
K3 O10 2.952503 1_555
K3 O31 3.068539 1_555
K3 O24 3.436207 1_555
K3 O22 3.450422 1_565
Mg0 O0 2.058752 1_455
Mg0 O6 2.072649 1_455
Mg0 O23 2.106226 1_555
Mg0 O25 2.125277 1_555
Mg0 O28 2.130153 1_455
Mg0 O32 2.157769 1_555
Mg1 O7 2.058752 1_555
Mg1 O1 2.072649 1_555
Mg1 O24 2.106226 1_555
Mg1 O22 2.125277 1_555
Mg1 O29 2.130153 1_555
Mg1 O33 2.157769 1_555
Mg2 O2 2.058752 1_655
Mg2 O4 2.072649 1_655
Mg2 O21 2.106226 1_555
Mg2 O27 2.125277 1_555
Mg2 O30 2.130153 1_655
Mg2 O34 2.157769 1_555
Mg3 O5 2.058752 1_555
Mg3 O3 2.072649 1_555
Mg3 O26 2.106226 1_555
Mg3 O20 2.125277 1_555
Mg3 O31 2.130153 1_555
Mg3 O35 2.157769 1_555
H0 O32 0.993326 1_555
H0 O5 1.766368 1_545
H1 O33 0.997135 1_555
H1 O4 1.732025 1_555
H2 O34 0.993326 1_555
H2 O7 1.766368 1_555
H3 O35 0.997135 1_555
H3 O6 1.732025 1_565
H4 O34 0.997135 1_555
H4 O1 1.732025 1_565
H5 O35 0.993326 1_555
H5 O0 1.766368 1_555
H6 O32 0.997135 1_555
H6 O3 1.732025 1_555
H7 O33 0.993326 1_555
H7 O2 1.766368 1_545
H8 O28 0.985996 1_555
H9 O29 0.990794 1_555
H9 O16 1.889259 1_555
H9 K3 3.405227 1_555
H10 O30 0.985996 1_555
H11 O31 0.990794 1_555
H11 O18 1.889259 1_565
H11 K1 3.405227 1_565
H12 O30 0.990794 1_555
H12 O13 1.889259 1_565
H12 K0 3.405227 1_565
H13 O31 0.985996 1_555
H14 O28 0.990794 1_555
H14 O15 1.889259 1_555
H14 K2 3.405227 1_555
H15 O29 0.985996 1_555
H16 O12 1.086746 1_555
H16 O16 1.387861 1_455
H17 O14 1.086746 1_555
H17 O18 1.387861 1_665
H18 O17 1.086746 1_555
H18 O13 1.387861 1_564
H19 O19 1.086746 1_555
H19 O15 1.387861 1_556
O0 P0 1.510798 1_555
O1 P1 1.523349 1_555
O2 P2 1.510798 1_555
O3 P3 1.523349 1_555
O4 P4 1.523349 1_555
O5 P5 1.510798 1_555
O6 P6 1.523349 1_555
O7 P7 1.510798 1_555
O8 P0 1.620629 1_555
O8 P6 1.655349 1_555
O9 P7 1.620629 1_555
O9 P1 1.655349 1_555
O10 P2 1.620629 1_555
O10 P4 1.655349 1_555
O11 P5 1.620629 1_555
O11 P3 1.655349 1_555
O12 P0 1.587246 1_455
O13 P1 1.548105 1_555
O14 P2 1.587246 1_655
O15 P3 1.548105 1_555
O16 P4 1.548105 1_655
O17 P5 1.587246 1_555
O18 P6 1.548105 1_455
O19 P7 1.587246 1_555
O20 P0 1.516361 1_555
O21 P1 1.521944 1_565
O22 P2 1.516361 1_545
O23 P3 1.521944 1_555
O24 P4 1.521944 1_555
O25 P5 1.516361 1_545
O26 P6 1.521944 1_565
O27 P7 1.516361 1_555
