# generated using pymatgen
data_Mn3In
_symmetry_space_group_name_H-M   'P 1'
_cell_length_a   9.23985001
_cell_length_b   9.23985001
_cell_length_c   9.23985042
_cell_angle_alpha   90.10214759
_cell_angle_beta   90.10214759
_cell_angle_gamma   90.10214665
_symmetry_Int_Tables_number   1
_chemical_formula_structural   Mn3In
_chemical_formula_sum   'Mn39 In13'
_cell_volume   788.84687608
_cell_formula_units_Z   13
loop_
 _symmetry_equiv_pos_site_id
 _symmetry_equiv_pos_as_xyz
  1  'x, y, z'
loop_
 _atom_site_type_symbol
 _atom_site_label
 _atom_site_symmetry_multiplicity
 _atom_site_fract_x
 _atom_site_fract_y
 _atom_site_fract_z
 _atom_site_occupancy
  Mn  Mn0  1  0.84700800  0.84700800  0.84700800  1
  Mn  Mn1  1  0.83690800  0.16021200  0.16021200  1
  Mn  Mn2  1  0.16021200  0.16021200  0.83690800  1
  Mn  Mn3  1  0.16021200  0.83690800  0.16021200  1
  Mn  Mn4  1  0.59592400  0.59592400  0.59592400  1
  Mn  Mn5  1  0.58816700  0.40481200  0.40481200  1
  Mn  Mn6  1  0.40481200  0.40481200  0.58816700  1
  Mn  Mn7  1  0.40481200  0.58816700  0.40481200  1
  Mn  Mn8  1  0.49538300  0.85040600  0.49538300  1
  Mn  Mn9  1  0.49538300  0.49538300  0.85040600  1
  Mn  Mn10  1  0.85040600  0.49538300  0.49538300  1
  Mn  Mn11  1  0.49950300  0.15056100  0.49950300  1
  Mn  Mn12  1  0.49950300  0.49950300  0.15056100  1
  Mn  Mn13  1  0.15056100  0.49950300  0.49950300  1
  Mn  Mn14  1  0.02891800  0.32065700  0.32065700  1
  Mn  Mn15  1  0.32065700  0.02891800  0.32065700  1
  Mn  Mn16  1  0.32065700  0.32065700  0.02891800  1
  Mn  Mn17  1  0.06722100  0.71991100  0.71991100  1
  Mn  Mn18  1  0.28614700  0.93112000  0.70577200  1
  Mn  Mn19  1  0.28614700  0.70577200  0.93112000  1
  Mn  Mn20  1  0.93112000  0.70577200  0.28614700  1
  Mn  Mn21  1  0.70577200  0.93112000  0.28614700  1
  Mn  Mn22  1  0.71991100  0.71991100  0.06722100  1
  Mn  Mn23  1  0.93112000  0.28614700  0.70577200  1
  Mn  Mn24  1  0.71991100  0.06722100  0.71991100  1
  Mn  Mn25  1  0.70577200  0.28614700  0.93112000  1
  Mn  Mn26  1  0.33004000  0.33004000  0.33004000  1
  Mn  Mn27  1  0.34437100  0.65582500  0.65582500  1
  Mn  Mn28  1  0.65582500  0.65582500  0.34437100  1
  Mn  Mn29  1  0.65582500  0.34437100  0.65582500  1
  Mn  Mn30  1  0.99307100  0.34728300  0.99307100  1
  Mn  Mn31  1  0.99307100  0.99307100  0.34728300  1
  Mn  Mn32  1  0.34728300  0.99307100  0.99307100  1
  Mn  Mn33  1  0.99987200  0.66899700  0.99987200  1
  Mn  Mn34  1  0.99987200  0.99987200  0.66899700  1
  Mn  Mn35  1  0.66899700  0.99987200  0.99987200  1
  Mn  Mn36  1  0.10022700  0.90624600  0.90624600  1
  Mn  Mn37  1  0.90624600  0.90624600  0.10022700  1
  Mn  Mn38  1  0.90624600  0.10022700  0.90624600  1
  In  In0  1  0.54707100  0.81072400  0.81072400  1
  In  In1  1  0.81072400  0.54707100  0.81072400  1
  In  In2  1  0.81072400  0.81072400  0.54707100  1
  In  In3  1  0.54198100  0.18691300  0.18691300  1
  In  In4  1  0.79941200  0.45805400  0.17979900  1
  In  In5  1  0.79941200  0.17979900  0.45805400  1
  In  In6  1  0.45805400  0.17979900  0.79941200  1
  In  In7  1  0.17979900  0.45805400  0.79941200  1
  In  In8  1  0.18691300  0.18691300  0.54198100  1
  In  In9  1  0.45805400  0.79941200  0.17979900  1
  In  In10  1  0.18691300  0.54198100  0.18691300  1
  In  In11  1  0.17979900  0.79941200  0.45805400  1
  In  In12  1  0.12805200  0.12805200  0.12805200  1
loop_
_geom_bond_atom_site_label_1
_geom_bond_atom_site_label_2
_geom_bond_distance
_geom_bond_site_symmetry_2
Mn0 Mn36 2.462358 1_655
Mn0 Mn38 2.462358 1_565
Mn0 Mn37 2.462358 1_556
Mn0 Mn33 2.589359 1_555
Mn0 Mn35 2.589359 1_555
Mn0 Mn34 2.589359 1_555
Mn0 Mn24 2.628783 1_565
Mn0 Mn17 2.628783 1_655
Mn0 Mn22 2.628783 1_556
Mn1 Mn37 2.495238 1_545
Mn1 Mn38 2.495238 1_554
Mn1 Mn35 2.602429 1_544
Mn1 Mn21 2.703253 1_545
Mn1 Mn25 2.703253 1_554
Mn1 Mn31 2.731918 1_545
Mn1 Mn30 2.731918 1_554
Mn1 Mn14 2.741630 1_655
Mn2 Mn36 2.495238 1_545
Mn2 Mn38 2.495238 1_455
Mn2 Mn34 2.602429 1_445
Mn2 Mn23 2.703253 1_455
Mn2 Mn30 2.731918 1_455
Mn2 Mn32 2.731918 1_545
Mn3 Mn37 2.495238 1_455
Mn3 Mn36 2.495238 1_554
Mn3 Mn33 2.602429 1_454
Mn3 Mn31 2.731918 1_455
Mn3 Mn32 2.731918 1_554
Mn4 Mn6 2.495905 1_555
Mn4 Mn5 2.495905 1_555
Mn4 Mn7 2.495905 1_555
Mn4 Mn8 2.695828 1_555
Mn4 Mn9 2.695828 1_555
Mn5 Mn7 2.398057 1_555
Mn5 Mn6 2.398057 1_555
Mn6 Mn7 2.398057 1_555
Mn6 Mn9 2.693490 1_555
Mn7 Mn8 2.693490 1_555
Mn10 Mn5 2.693490 1_555
Mn10 Mn4 2.695828 1_555
Mn10 Mn28 2.717536 1_555
Mn10 Mn29 2.717537 1_555
Mn10 Mn13 2.773773 1_655
Mn10 Mn14 2.818358 1_655
Mn10 Mn23 2.843632 1_555
Mn10 Mn20 2.843632 1_555
Mn11 Mn15 2.588801 1_555
Mn11 Mn6 2.637919 1_555
Mn11 Mn5 2.637919 1_555
Mn11 Mn29 2.711739 1_555
Mn11 Mn26 2.768297 1_555
Mn11 Mn8 2.773773 1_545
Mn11 Mn24 2.980660 1_555
Mn11 Mn21 3.412163 1_545
Mn11 Mn18 3.412163 1_545
Mn12 Mn16 2.588801 1_555
Mn12 Mn7 2.637919 1_555
Mn12 Mn5 2.637919 1_555
Mn12 Mn28 2.711739 1_555
Mn12 Mn26 2.768297 1_555
Mn12 Mn9 2.773773 1_554
Mn12 Mn22 2.980660 1_555
Mn12 Mn25 3.412163 1_554
Mn12 Mn19 3.412163 1_554
Mn13 Mn14 2.588801 1_555
Mn13 Mn6 2.637919 1_555
Mn13 Mn7 2.637919 1_555
Mn13 Mn27 2.711739 1_555
Mn13 Mn26 2.768297 1_555
Mn13 Mn17 2.980660 1_555
Mn13 Mn20 3.412163 1_455
Mn13 Mn23 3.412163 1_455
Mn14 Mn26 2.784709 1_555
Mn14 Mn31 3.054734 1_445
Mn14 Mn30 3.054734 1_454
Mn15 Mn3 2.741630 1_545
Mn15 Mn26 2.784709 1_555
Mn15 Mn8 2.818358 1_545
Mn15 Mn31 3.054734 1_445
Mn15 Mn32 3.054734 1_544
Mn16 Mn2 2.741630 1_554
Mn16 Mn26 2.784709 1_555
Mn16 Mn9 2.818358 1_554
Mn16 Mn32 3.054734 1_544
Mn16 Mn30 3.054734 1_454
Mn17 Mn36 2.450968 1_555
Mn17 Mn27 2.696045 1_555
Mn17 Mn34 2.703538 1_455
Mn17 Mn33 2.703538 1_455
Mn17 Mn18 2.811627 1_555
Mn17 Mn19 2.811627 1_555
Mn18 Mn36 2.539009 1_555
Mn18 Mn27 2.640893 1_555
Mn18 Mn2 2.703253 1_565
Mn18 Mn34 2.742139 1_455
Mn18 Mn32 2.771596 1_555
Mn18 Mn8 2.843632 1_555
Mn18 Mn19 2.947273 1_555
Mn19 Mn36 2.539009 1_555
Mn19 Mn27 2.640894 1_555
Mn19 Mn3 2.703253 1_556
Mn19 Mn33 2.742139 1_455
Mn19 Mn32 2.771596 1_555
Mn19 Mn9 2.843632 1_555
Mn20 Mn37 2.539009 1_555
Mn20 Mn28 2.640893 1_555
Mn20 Mn3 2.703253 1_655
Mn20 Mn33 2.742139 1_554
Mn20 Mn31 2.771596 1_555
Mn20 Mn22 2.811627 1_555
Mn20 Mn21 2.947273 1_555
Mn21 Mn37 2.539009 1_555
Mn21 Mn28 2.640893 1_555
Mn21 Mn35 2.742139 1_554
Mn21 Mn31 2.771596 1_555
Mn21 Mn22 2.811627 1_555
Mn21 Mn8 2.843632 1_555
Mn22 Mn37 2.450968 1_555
Mn22 Mn28 2.696045 1_555
Mn22 Mn33 2.703538 1_554
Mn22 Mn35 2.703538 1_554
Mn23 Mn38 2.539009 1_555
Mn23 Mn29 2.640893 1_555
Mn23 Mn34 2.742139 1_545
Mn23 Mn30 2.771596 1_555
Mn23 Mn24 2.811627 1_555
Mn23 Mn25 2.947273 1_555
Mn24 Mn38 2.450968 1_555
Mn24 Mn29 2.696045 1_555
Mn24 Mn34 2.703538 1_545
Mn24 Mn35 2.703538 1_545
Mn24 Mn25 2.811627 1_555
Mn25 Mn38 2.539009 1_555
Mn25 Mn29 2.640894 1_555
Mn25 Mn35 2.742139 1_545
Mn25 Mn30 2.771596 1_555
Mn25 Mn9 2.843632 1_555
Mn26 Mn7 2.574814 1_555
Mn26 Mn5 2.574814 1_555
Mn26 Mn6 2.574815 1_555
Mn27 Mn4 2.454217 1_555
Mn27 Mn6 2.466302 1_555
Mn27 Mn7 2.466302 1_555
Mn27 Mn9 2.717537 1_555
Mn27 Mn8 2.717537 1_555
Mn28 Mn4 2.454217 1_555
Mn28 Mn5 2.466302 1_555
Mn28 Mn7 2.466302 1_555
Mn28 Mn8 2.717536 1_555
Mn29 Mn4 2.454217 1_555
Mn29 Mn6 2.466302 1_555
Mn29 Mn5 2.466302 1_555
Mn29 Mn9 2.717537 1_555
Mn30 Mn38 2.546144 1_555
Mn30 Mn33 2.973691 1_555
Mn31 Mn37 2.546144 1_555
Mn31 Mn34 2.973691 1_555
Mn32 Mn36 2.546144 1_555
Mn32 Mn35 2.973691 1_555
Mn33 Mn37 2.532998 1_556
Mn33 Mn36 2.532998 1_655
Mn34 Mn36 2.532998 1_655
Mn34 Mn38 2.532998 1_565
Mn35 Mn37 2.532998 1_556
Mn35 Mn38 2.532998 1_565
Mn36 Mn38 2.537032 1_465
Mn36 Mn37 2.537032 1_456
Mn37 Mn38 2.537032 1_564
In0 Mn35 2.711669 1_555
In0 Mn27 2.752874 1_555
In0 Mn0 2.810388 1_555
In0 Mn18 2.827619 1_555
In0 Mn19 2.827619 1_555
In0 Mn4 2.841536 1_555
In0 Mn9 2.975175 1_555
In0 Mn8 2.975175 1_555
In0 Mn24 2.978219 1_565
In0 Mn22 2.978219 1_556
In0 Mn32 3.016176 1_555
In1 Mn33 2.711669 1_555
In1 Mn29 2.752874 1_555
In1 Mn0 2.810388 1_555
In1 Mn23 2.827619 1_555
In1 Mn25 2.827619 1_555
In1 Mn4 2.841536 1_555
In1 Mn9 2.975175 1_555
In1 Mn10 2.975175 1_555
In1 Mn17 2.978219 1_655
In1 Mn22 2.978219 1_556
In1 Mn30 3.016176 1_555
In2 Mn34 2.711669 1_555
In2 Mn28 2.752874 1_555
In2 Mn0 2.810388 1_555
In2 Mn20 2.827619 1_555
In2 Mn21 2.827619 1_555
In2 Mn4 2.841536 1_555
In2 Mn8 2.975175 1_555
In2 Mn10 2.975175 1_555
In2 Mn24 2.978219 1_565
In2 Mn17 2.978219 1_655
In2 Mn31 3.016176 1_555
In3 Mn26 2.710175 1_555
In3 Mn35 2.711962 1_544
In3 Mn1 2.748159 1_555
In3 Mn16 2.800915 1_555
In3 Mn15 2.800915 1_555
In3 Mn5 2.875539 1_555
In3 Mn12 2.935317 1_555
In3 Mn11 2.935318 1_555
In3 Mn21 2.955118 1_545
In3 Mn25 2.955118 1_554
In3 Mn32 3.101255 1_544
In4 Mn30 2.690257 1_554
In4 Mn28 2.723547 1_555
In4 Mn22 2.736474 1_555
In4 Mn20 2.768270 1_555
In4 Mn1 2.779968 1_555
In4 Mn14 2.794319 1_655
In4 Mn12 2.810732 1_555
In4 Mn5 2.896396 1_555
In4 Mn25 2.919981 1_554
In4 Mn10 2.972317 1_555
In4 Mn33 3.162784 1_554
In5 Mn31 2.690257 1_545
In5 Mn29 2.723547 1_555
In5 Mn24 2.736474 1_555
In5 Mn23 2.768270 1_555
In5 Mn1 2.779968 1_555
In5 Mn14 2.794319 1_655
In5 Mn11 2.810732 1_555
In5 Mn5 2.896396 1_555
In5 Mn21 2.919981 1_545
In5 Mn10 2.972317 1_555
In5 Mn34 3.162784 1_545
In6 Mn32 2.690257 1_545
In6 Mn29 2.723547 1_555
In6 Mn24 2.736474 1_555
In6 Mn25 2.768270 1_555
In6 Mn2 2.779968 1_555
In6 Mn16 2.794319 1_556
In6 Mn11 2.810733 1_555
In6 Mn6 2.896396 1_555
In6 Mn18 2.919981 1_545
In6 Mn9 2.972317 1_555
In6 Mn35 3.162784 1_545
In7 Mn30 2.690257 1_455
In7 Mn27 2.723547 1_555
In7 Mn17 2.736474 1_555
In7 Mn19 2.768270 1_555
In7 Mn2 2.779968 1_555
In7 Mn16 2.794319 1_556
In7 Mn13 2.810733 1_555
In7 Mn6 2.896396 1_555
In7 Mn23 2.919981 1_455
In7 Mn9 2.972317 1_555
In7 Mn33 3.162784 1_455
In8 Mn26 2.710175 1_555
In8 Mn34 2.711962 1_445
In8 Mn2 2.748160 1_555
In8 Mn14 2.800915 1_555
In8 Mn15 2.800915 1_555
In8 Mn6 2.875539 1_555
In8 Mn13 2.935317 1_555
In8 Mn11 2.935317 1_555
In8 Mn23 2.955118 1_455
In8 Mn18 2.955118 1_545
In8 Mn31 3.101255 1_445
In9 Mn32 2.690257 1_554
In9 Mn28 2.723547 1_555
In9 Mn22 2.736474 1_555
In9 Mn21 2.768270 1_555
In9 Mn3 2.779968 1_555
In9 Mn15 2.794319 1_565
In9 Mn12 2.810732 1_555
In9 Mn7 2.896396 1_555
In9 Mn19 2.919981 1_554
In9 Mn8 2.972317 1_555
In9 Mn35 3.162784 1_554
In10 Mn26 2.710175 1_555
In10 Mn33 2.711962 1_454
In10 Mn3 2.748159 1_555
In10 Mn16 2.800915 1_555
In10 Mn14 2.800915 1_555
In10 Mn7 2.875539 1_555
In10 Mn12 2.935317 1_555
In10 Mn13 2.935318 1_555
In10 Mn20 2.955118 1_455
In10 Mn19 2.955118 1_554
In10 Mn30 3.101255 1_454
In11 Mn31 2.690257 1_455
In11 Mn27 2.723547 1_555
In11 Mn17 2.736474 1_555
In11 Mn18 2.768270 1_555
In11 Mn3 2.779968 1_555
In11 Mn15 2.794319 1_565
In11 Mn13 2.810732 1_555
In11 Mn7 2.896396 1_555
In11 Mn20 2.919981 1_455
In11 Mn8 2.972317 1_555
In11 Mn34 3.162784 1_455
In12 Mn16 2.678358 1_555
In12 Mn14 2.678358 1_555
In12 Mn15 2.678358 1_555
In12 Mn32 2.688273 1_544
In12 Mn30 2.688273 1_454
In12 Mn31 2.688273 1_445
In12 Mn1 2.723742 1_455
In12 Mn3 2.723742 1_545
In12 Mn2 2.723742 1_554
In12 Mn37 2.906526 1_445
In12 Mn38 2.906526 1_454
In12 Mn36 2.906526 1_544
In12 Mn26 3.226825 1_555
