# generated using pymatgen
data_PrNiAs
_symmetry_space_group_name_H-M   'P 1'
_cell_length_a   4.11227998
_cell_length_b   4.11227998
_cell_length_c   4.10796154
_cell_angle_alpha   90.00000000
_cell_angle_beta   90.00000000
_cell_angle_gamma   120.00000038
_symmetry_Int_Tables_number   1
_chemical_formula_structural   PrNiAs
_chemical_formula_sum   'Pr1 Ni1 As1'
_cell_volume   60.16201182
_cell_formula_units_Z   1
loop_
 _symmetry_equiv_pos_site_id
 _symmetry_equiv_pos_as_xyz
  1  'x, y, z'
loop_
 _atom_site_type_symbol
 _atom_site_label
 _atom_site_symmetry_multiplicity
 _atom_site_fract_x
 _atom_site_fract_y
 _atom_site_fract_z
 _atom_site_occupancy
  Pr  Pr0  1  0.66666700  0.33333300  0.50000000  1
  Ni  Ni0  1  0.33333300  0.66666700  -0.00000000  1
  As  As0  1  -0.00000000  -0.00000000  0.00000000  1
loop_
_geom_bond_atom_site_label_1
_geom_bond_atom_site_label_2
_geom_bond_distance
_geom_bond_site_symmetry_2
Ni0 Pr0 3.139391 1_454
Ni0 Pr0 3.139391 1_565
Ni0 Pr0 3.139391 1_564
Ni0 Pr0 3.139391 1_455
Ni0 Pr0 3.139396 1_554
Ni0 Pr0 3.139396 1_555
As0 Ni0 2.374224 1_545
As0 Ni0 2.374227 1_445
As0 Ni0 2.374227 1_555
As0 Pr0 3.139391 1_455
As0 Pr0 3.139391 1_454
As0 Pr0 3.139393 1_554
As0 Pr0 3.139393 1_555
As0 Pr0 3.139393 1_445
As0 Pr0 3.139393 1_444
