# generated using pymatgen
data_Mg5Ti
_symmetry_space_group_name_H-M   'P 1'
_cell_length_a   6.19217178
_cell_length_b   6.19217178
_cell_length_c   30.86983200
_cell_angle_alpha   90.00000000
_cell_angle_beta   90.00000000
_cell_angle_gamma   119.99999763
_symmetry_Int_Tables_number   1
_chemical_formula_structural   Mg5Ti
_chemical_formula_sum   'Mg40 Ti8'
_cell_volume   1025.06380622
_cell_formula_units_Z   8
loop_
 _symmetry_equiv_pos_site_id
 _symmetry_equiv_pos_as_xyz
  1  'x, y, z'
loop_
 _atom_site_type_symbol
 _atom_site_label
 _atom_site_symmetry_multiplicity
 _atom_site_fract_x
 _atom_site_fract_y
 _atom_site_fract_z
 _atom_site_occupancy
  Mg  Mg0_0  1  0.33333350  0.16666650  0.41855800  1
  Mg  Mg0_1  1  0.33333350  0.16666650  0.91855800  1
  Mg  Mg0_2  1  0.33333350  0.66666650  0.41855800  1
  Mg  Mg0_3  1  0.33333350  0.66666650  0.91855800  1
  Mg  Mg0_4  1  0.83333350  0.16666650  0.41855800  1
  Mg  Mg0_5  1  0.83333350  0.16666650  0.91855800  1
  Mg  Mg0_6  1  0.83333350  0.66666650  0.41855800  1
  Mg  Mg0_7  1  0.83333350  0.66666650  0.91855800  1
  Mg  Mg1_0  1  0.00000000  0.00000000  0.33352100  1
  Mg  Mg1_1  1  0.00000000  0.00000000  0.83352100  1
  Mg  Mg1_2  1  0.00000000  0.50000000  0.33352100  1
  Mg  Mg1_3  1  0.00000000  0.50000000  0.83352100  1
  Mg  Mg1_4  1  0.50000000  0.00000000  0.33352100  1
  Mg  Mg1_5  1  0.50000000  0.00000000  0.83352100  1
  Mg  Mg1_6  1  0.50000000  0.50000000  0.33352100  1
  Mg  Mg1_7  1  0.50000000  0.50000000  0.83352100  1
  Mg  Mg2_0  1  0.33333350  0.16666650  0.25000000  1
  Mg  Mg2_1  1  0.33333350  0.16666650  0.75000000  1
  Mg  Mg2_2  1  0.33333350  0.66666650  0.25000000  1
  Mg  Mg2_3  1  0.33333350  0.66666650  0.75000000  1
  Mg  Mg2_4  1  0.83333350  0.16666650  0.25000000  1
  Mg  Mg2_5  1  0.83333350  0.16666650  0.75000000  1
  Mg  Mg2_6  1  0.83333350  0.66666650  0.25000000  1
  Mg  Mg2_7  1  0.83333350  0.66666650  0.75000000  1
  Mg  Mg3_0  1  0.00000000  0.00000000  0.16647900  1
  Mg  Mg3_1  1  0.00000000  0.00000000  0.66647900  1
  Mg  Mg3_2  1  0.00000000  0.50000000  0.16647900  1
  Mg  Mg3_3  1  0.00000000  0.50000000  0.66647900  1
  Mg  Mg3_4  1  0.50000000  0.00000000  0.16647900  1
  Mg  Mg3_5  1  0.50000000  0.00000000  0.66647900  1
  Mg  Mg3_6  1  0.50000000  0.50000000  0.16647900  1
  Mg  Mg3_7  1  0.50000000  0.50000000  0.66647900  1
  Mg  Mg4_0  1  0.33333350  0.16666650  0.08144200  1
  Mg  Mg4_1  1  0.33333350  0.16666650  0.58144200  1
  Mg  Mg4_2  1  0.33333350  0.66666650  0.08144200  1
  Mg  Mg4_3  1  0.33333350  0.66666650  0.58144200  1
  Mg  Mg4_4  1  0.83333350  0.16666650  0.08144200  1
  Mg  Mg4_5  1  0.83333350  0.16666650  0.58144200  1
  Mg  Mg4_6  1  0.83333350  0.66666650  0.08144200  1
  Mg  Mg4_7  1  0.83333350  0.66666650  0.58144200  1
  Ti  Ti0_0  1  0.00000000  0.00000000  0.00000000  1
  Ti  Ti0_1  1  0.00000000  0.00000000  0.50000000  1
  Ti  Ti0_2  1  0.00000000  0.50000000  0.00000000  1
  Ti  Ti0_3  1  0.00000000  0.50000000  0.50000000  1
  Ti  Ti0_4  1  0.50000000  0.00000000  0.00000000  1
  Ti  Ti0_5  1  0.50000000  0.00000000  0.50000000  1
  Ti  Ti0_6  1  0.50000000  0.50000000  0.00000000  1
  Ti  Ti0_7  1  0.50000000  0.50000000  0.50000000  1
loop_
_geom_bond_atom_site_label_1
_geom_bond_atom_site_label_2
_geom_bond_distance
_geom_bond_site_symmetry_2
Mg0_0 Ti0_5 3.084793 1_555
Mg0_0 Ti0_7 3.084794 1_555
Mg0_0 Ti0_1 3.084794 1_555
Mg0_0 Mg0_2 3.096086 1_555
Mg0_0 Mg0_4 3.096086 1_455
Mg0_0 Mg0_4 3.096086 1_555
Mg0_0 Mg0_2 3.096086 1_545
Mg0_0 Mg0_6 3.096086 1_555
Mg0_0 Mg0_6 3.096086 1_445
Mg0_0 Mg1_4 3.175890 1_555
Mg0_0 Mg1_0 3.175891 1_555
Mg0_0 Mg1_6 3.175891 1_555
Mg0_1 Ti0_4 3.084793 1_556
Mg0_1 Ti0_6 3.084794 1_556
Mg0_1 Ti0_0 3.084794 1_556
Mg0_1 Mg0_3 3.096086 1_555
Mg0_1 Mg0_5 3.096086 1_455
Mg0_1 Mg0_5 3.096086 1_555
Mg0_1 Mg0_3 3.096086 1_545
Mg0_1 Mg0_7 3.096086 1_555
Mg0_1 Mg0_7 3.096086 1_445
Mg0_1 Mg1_5 3.175890 1_555
Mg0_1 Mg1_7 3.175891 1_555
Mg0_1 Mg1_1 3.175891 1_555
Mg0_2 Ti0_7 3.084793 1_555
Mg0_2 Ti0_3 3.084794 1_555
Mg0_2 Ti0_5 3.084794 1_565
Mg0_2 Mg0_6 3.096086 1_455
Mg0_2 Mg0_6 3.096086 1_555
Mg0_2 Mg0_4 3.096086 1_455
Mg0_2 Mg0_4 3.096086 1_565
Mg0_2 Mg1_6 3.175890 1_555
Mg0_2 Mg1_2 3.175891 1_555
Mg0_2 Mg1_4 3.175891 1_565
Mg0_3 Ti0_6 3.084793 1_556
Mg0_3 Ti0_2 3.084794 1_556
Mg0_3 Ti0_4 3.084794 1_566
Mg0_3 Mg0_7 3.096086 1_455
Mg0_3 Mg0_7 3.096086 1_555
Mg0_3 Mg0_5 3.096086 1_455
Mg0_3 Mg0_5 3.096086 1_565
Mg0_3 Mg1_7 3.175890 1_555
Mg0_3 Mg1_3 3.175891 1_555
Mg0_3 Mg1_5 3.175891 1_565
Mg0_4 Ti0_1 3.084793 1_655
Mg0_4 Ti0_5 3.084794 1_555
Mg0_4 Ti0_3 3.084794 1_655
Mg0_4 Mg0_6 3.096086 1_555
Mg0_4 Mg0_6 3.096086 1_545
Mg0_4 Mg1_0 3.175890 1_655
Mg0_4 Mg1_4 3.175891 1_555
Mg0_4 Mg1_2 3.175891 1_655
Mg0_5 Ti0_0 3.084793 1_656
Mg0_5 Ti0_2 3.084794 1_656
Mg0_5 Ti0_4 3.084794 1_556
Mg0_5 Mg0_7 3.096086 1_555
Mg0_5 Mg0_7 3.096086 1_545
Mg0_5 Mg1_1 3.175890 1_655
Mg0_5 Mg1_5 3.175891 1_555
Mg0_5 Mg1_3 3.175891 1_655
Mg0_6 Ti0_3 3.084793 1_655
Mg0_6 Ti0_7 3.084794 1_555
Mg0_6 Ti0_1 3.084794 1_665
Mg0_6 Mg1_2 3.175890 1_655
Mg0_6 Mg1_6 3.175891 1_555
Mg0_6 Mg1_0 3.175891 1_665
Mg0_7 Ti0_2 3.084793 1_656
Mg0_7 Ti0_6 3.084794 1_556
Mg0_7 Ti0_0 3.084794 1_666
Mg0_7 Mg1_3 3.175890 1_655
Mg0_7 Mg1_7 3.175891 1_555
Mg0_7 Mg1_1 3.175891 1_665
Mg1_0 Mg1_4 3.096086 1_555
Mg1_0 Mg1_4 3.096086 1_455
Mg1_0 Mg1_2 3.096086 1_555
Mg1_0 Mg1_2 3.096086 1_545
Mg1_0 Mg1_6 3.096086 1_555
Mg1_0 Mg1_6 3.096086 1_445
Mg1_0 Mg2_4 3.137318 1_455
Mg1_0 Mg2_0 3.137320 1_555
Mg1_0 Mg2_6 3.137320 1_445
Mg1_1 Mg1_3 3.096086 1_555
Mg1_1 Mg1_5 3.096086 1_455
Mg1_1 Mg1_5 3.096086 1_555
Mg1_1 Mg1_3 3.096086 1_545
Mg1_1 Mg1_7 3.096086 1_555
Mg1_1 Mg1_7 3.096086 1_445
Mg1_1 Mg2_5 3.137318 1_455
Mg1_1 Mg2_1 3.137320 1_555
Mg1_1 Mg2_7 3.137320 1_445
Mg1_2 Mg1_6 3.096086 1_455
Mg1_2 Mg1_6 3.096086 1_555
Mg1_2 Mg1_4 3.096086 1_565
Mg1_2 Mg1_4 3.096086 1_455
Mg1_2 Mg2_6 3.137318 1_455
Mg1_2 Mg2_2 3.137320 1_555
Mg1_2 Mg2_4 3.137320 1_455
Mg1_3 Mg1_7 3.096086 1_455
Mg1_3 Mg1_7 3.096086 1_555
Mg1_3 Mg1_5 3.096086 1_565
Mg1_3 Mg1_5 3.096086 1_455
Mg1_3 Mg2_7 3.137318 1_455
Mg1_3 Mg2_3 3.137320 1_555
Mg1_3 Mg2_5 3.137320 1_455
Mg1_4 Mg1_6 3.096086 1_555
Mg1_4 Mg1_6 3.096086 1_545
Mg1_4 Mg2_0 3.137318 1_555
Mg1_4 Mg2_4 3.137320 1_555
Mg1_4 Mg2_2 3.137320 1_545
Mg1_5 Mg1_7 3.096086 1_555
Mg1_5 Mg1_7 3.096086 1_545
Mg1_5 Mg2_1 3.137318 1_555
Mg1_5 Mg2_5 3.137320 1_555
Mg1_5 Mg2_3 3.137320 1_545
Mg1_6 Mg2_2 3.137318 1_555
Mg1_6 Mg2_0 3.137320 1_555
Mg1_6 Mg2_6 3.137320 1_555
Mg1_7 Mg2_3 3.137318 1_555
Mg1_7 Mg2_1 3.137320 1_555
Mg1_7 Mg2_7 3.137320 1_555
Mg2_0 Mg2_2 3.096086 1_555
Mg2_0 Mg2_4 3.096086 1_455
Mg2_0 Mg2_4 3.096086 1_555
Mg2_0 Mg2_2 3.096086 1_545
Mg2_0 Mg2_6 3.096086 1_555
Mg2_0 Mg2_6 3.096086 1_445
Mg2_0 Mg3_4 3.137318 1_555
Mg2_0 Mg3_6 3.137320 1_555
Mg2_0 Mg3_0 3.137320 1_555
Mg2_1 Mg2_3 3.096086 1_555
Mg2_1 Mg2_5 3.096086 1_555
Mg2_1 Mg2_5 3.096086 1_455
Mg2_1 Mg2_3 3.096086 1_545
Mg2_1 Mg2_7 3.096086 1_555
Mg2_1 Mg2_7 3.096086 1_445
Mg2_1 Mg3_5 3.137318 1_555
Mg2_1 Mg3_7 3.137320 1_555
Mg2_1 Mg3_1 3.137320 1_555
Mg2_2 Mg2_6 3.096086 1_555
Mg2_2 Mg2_6 3.096086 1_455
Mg2_2 Mg2_4 3.096086 1_455
Mg2_2 Mg2_4 3.096086 1_565
Mg2_2 Mg3_6 3.137318 1_555
Mg2_2 Mg3_2 3.137320 1_555
Mg2_2 Mg3_4 3.137320 1_565
Mg2_3 Mg2_7 3.096086 1_555
Mg2_3 Mg2_7 3.096086 1_455
Mg2_3 Mg2_5 3.096086 1_455
Mg2_3 Mg2_5 3.096086 1_565
Mg2_3 Mg3_7 3.137318 1_555
Mg2_3 Mg3_3 3.137320 1_555
Mg2_3 Mg3_5 3.137320 1_565
Mg2_4 Mg2_6 3.096086 1_555
Mg2_4 Mg2_6 3.096086 1_545
Mg2_4 Mg3_0 3.137318 1_655
Mg2_4 Mg3_2 3.137320 1_655
Mg2_4 Mg3_4 3.137320 1_555
Mg2_5 Mg2_7 3.096086 1_555
Mg2_5 Mg2_7 3.096086 1_545
Mg2_5 Mg3_1 3.137318 1_655
Mg2_5 Mg3_5 3.137320 1_555
Mg2_5 Mg3_3 3.137320 1_655
Mg2_6 Mg3_2 3.137318 1_655
Mg2_6 Mg3_6 3.137320 1_555
Mg2_6 Mg3_0 3.137320 1_665
Mg2_7 Mg3_3 3.137318 1_655
Mg2_7 Mg3_7 3.137320 1_555
Mg2_7 Mg3_1 3.137320 1_665
Mg3_0 Mg3_4 3.096086 1_555
Mg3_0 Mg3_4 3.096086 1_455
Mg3_0 Mg3_2 3.096086 1_555
Mg3_0 Mg3_2 3.096086 1_545
Mg3_0 Mg3_6 3.096086 1_555
Mg3_0 Mg3_6 3.096086 1_445
Mg3_0 Mg4_4 3.175890 1_455
Mg3_0 Mg4_0 3.175891 1_555
Mg3_0 Mg4_6 3.175891 1_445
Mg3_1 Mg3_5 3.096086 1_555
Mg3_1 Mg3_3 3.096086 1_555
Mg3_1 Mg3_5 3.096086 1_455
Mg3_1 Mg3_3 3.096086 1_545
Mg3_1 Mg3_7 3.096086 1_555
Mg3_1 Mg3_7 3.096086 1_445
Mg3_1 Mg4_5 3.175890 1_455
Mg3_1 Mg4_1 3.175891 1_555
Mg3_1 Mg4_7 3.175891 1_445
Mg3_2 Mg3_6 3.096086 1_555
Mg3_2 Mg3_6 3.096086 1_455
Mg3_2 Mg3_4 3.096086 1_565
Mg3_2 Mg3_4 3.096086 1_455
Mg3_2 Mg4_6 3.175890 1_455
Mg3_2 Mg4_2 3.175891 1_555
Mg3_2 Mg4_4 3.175891 1_455
Mg3_3 Mg3_7 3.096086 1_555
Mg3_3 Mg3_7 3.096086 1_455
Mg3_3 Mg3_5 3.096086 1_565
Mg3_3 Mg3_5 3.096086 1_455
Mg3_3 Mg4_7 3.175890 1_455
Mg3_3 Mg4_3 3.175891 1_555
Mg3_3 Mg4_5 3.175891 1_455
Mg3_4 Mg3_6 3.096086 1_555
Mg3_4 Mg3_6 3.096086 1_545
Mg3_4 Mg4_0 3.175890 1_555
Mg3_4 Mg4_4 3.175891 1_555
Mg3_4 Mg4_2 3.175891 1_545
Mg3_5 Mg3_7 3.096086 1_555
Mg3_5 Mg3_7 3.096086 1_545
Mg3_5 Mg4_1 3.175890 1_555
Mg3_5 Mg4_5 3.175891 1_555
Mg3_5 Mg4_3 3.175891 1_545
Mg3_6 Mg4_2 3.175890 1_555
Mg3_6 Mg4_0 3.175891 1_555
Mg3_6 Mg4_6 3.175891 1_555
Mg3_7 Mg4_3 3.175890 1_555
Mg3_7 Mg4_1 3.175891 1_555
Mg3_7 Mg4_7 3.175891 1_555
Mg4_0 Ti0_4 3.084793 1_555
Mg4_0 Ti0_0 3.084794 1_555
Mg4_0 Ti0_6 3.084794 1_555
Mg4_0 Mg4_2 3.096086 1_555
Mg4_0 Mg4_4 3.096086 1_555
Mg4_0 Mg4_4 3.096086 1_455
Mg4_0 Mg4_2 3.096086 1_545
Mg4_0 Mg4_6 3.096086 1_555
Mg4_0 Mg4_6 3.096086 1_445
Mg4_1 Ti0_5 3.084793 1_555
Mg4_1 Ti0_7 3.084794 1_555
Mg4_1 Ti0_1 3.084794 1_555
Mg4_1 Mg4_3 3.096086 1_555
Mg4_1 Mg4_5 3.096086 1_555
Mg4_1 Mg4_5 3.096086 1_455
Mg4_1 Mg4_3 3.096086 1_545
Mg4_1 Mg4_7 3.096086 1_555
Mg4_1 Mg4_7 3.096086 1_445
Mg4_2 Ti0_6 3.084793 1_555
Mg4_2 Ti0_2 3.084794 1_555
Mg4_2 Ti0_4 3.084794 1_565
Mg4_2 Mg4_6 3.096086 1_455
Mg4_2 Mg4_6 3.096086 1_555
Mg4_2 Mg4_4 3.096086 1_455
Mg4_2 Mg4_4 3.096086 1_565
Mg4_3 Ti0_7 3.084793 1_555
Mg4_3 Ti0_3 3.084794 1_555
Mg4_3 Ti0_5 3.084794 1_565
Mg4_3 Mg4_7 3.096086 1_455
Mg4_3 Mg4_7 3.096086 1_555
Mg4_3 Mg4_5 3.096086 1_455
Mg4_3 Mg4_5 3.096086 1_565
Mg4_4 Ti0_0 3.084793 1_655
Mg4_4 Ti0_4 3.084794 1_555
Mg4_4 Ti0_2 3.084794 1_655
Mg4_4 Mg4_6 3.096086 1_555
Mg4_4 Mg4_6 3.096086 1_545
Mg4_5 Ti0_1 3.084793 1_655
Mg4_5 Ti0_3 3.084794 1_655
Mg4_5 Ti0_5 3.084794 1_555
Mg4_5 Mg4_7 3.096086 1_555
Mg4_5 Mg4_7 3.096086 1_545
Mg4_6 Ti0_2 3.084793 1_655
Mg4_6 Ti0_6 3.084794 1_555
Mg4_6 Ti0_0 3.084794 1_665
Mg4_7 Ti0_3 3.084793 1_655
Mg4_7 Ti0_7 3.084794 1_555
Mg4_7 Ti0_1 3.084794 1_665
Ti0_0 Ti0_2 3.096086 1_555
Ti0_0 Ti0_4 3.096086 1_455
Ti0_0 Ti0_4 3.096086 1_555
Ti0_0 Ti0_2 3.096086 1_545
Ti0_0 Ti0_6 3.096086 1_555
Ti0_0 Ti0_6 3.096086 1_445
Ti0_1 Ti0_5 3.096086 1_455
Ti0_1 Ti0_3 3.096086 1_555
Ti0_1 Ti0_5 3.096086 1_555
Ti0_1 Ti0_3 3.096086 1_545
Ti0_1 Ti0_7 3.096086 1_555
Ti0_1 Ti0_7 3.096086 1_445
Ti0_2 Ti0_6 3.096086 1_555
Ti0_2 Ti0_6 3.096086 1_455
Ti0_2 Ti0_4 3.096086 1_565
Ti0_2 Ti0_4 3.096086 1_455
Ti0_3 Ti0_7 3.096086 1_455
Ti0_3 Ti0_7 3.096086 1_555
Ti0_3 Ti0_5 3.096086 1_565
Ti0_3 Ti0_5 3.096086 1_455
Ti0_4 Ti0_6 3.096086 1_555
Ti0_4 Ti0_6 3.096086 1_545
Ti0_5 Ti0_7 3.096086 1_555
Ti0_5 Ti0_7 3.096086 1_545
