# generated using pymatgen
data_Sb(Br3N)2
_symmetry_space_group_name_H-M   'P 1'
_cell_length_a   10.59230800
_cell_length_b   10.59230800
_cell_length_c   13.02421444
_cell_angle_alpha   113.99387839
_cell_angle_beta   113.99387839
_cell_angle_gamma   90.00000000
_symmetry_Int_Tables_number   1
_chemical_formula_structural   Sb(Br3N)2
_chemical_formula_sum   'Sb4 Br24 N8'
_cell_volume   1195.47282774
_cell_formula_units_Z   4
loop_
 _symmetry_equiv_pos_site_id
 _symmetry_equiv_pos_as_xyz
  1  'x, y, z'
loop_
 _atom_site_type_symbol
 _atom_site_label
 _atom_site_symmetry_multiplicity
 _atom_site_fract_x
 _atom_site_fract_y
 _atom_site_fract_z
 _atom_site_occupancy
  Sb  Sb0  1  0.25000000  0.75000000  0.50000000  1
  Sb  Sb1  1  0.00000000  0.00000000  0.00000000  1
  Sb  Sb2  1  0.75000000  0.25000000  0.50000000  1
  Sb  Sb3  1  0.50000000  0.50000000  0.00000000  1
  Br  Br0  1  0.99979800  0.25585500  0.51170900  1
  Br  Br1  1  0.51191100  0.25585500  0.51170900  1
  Br  Br2  1  0.73808900  0.49414500  0.98829100  1
  Br  Br3  1  0.25020200  0.49414500  0.98829100  1
  Br  Br4  1  0.74414500  0.00020200  0.48829100  1
  Br  Br5  1  0.74414500  0.48808900  0.48829100  1
  Br  Br6  1  0.50585500  0.26191100  0.01170900  1
  Br  Br7  1  0.50585500  0.74979800  0.01170900  1
  Br  Br8  1  0.49368100  0.74958400  0.49916700  1
  Br  Br9  1  0.00548600  0.74958400  0.49916700  1
  Br  Br10  1  0.24451400  0.00041600  0.00083300  1
  Br  Br11  1  0.75631900  0.00041600  0.00083300  1
  Br  Br12  1  0.25041600  0.50631900  0.50083300  1
  Br  Br13  1  0.25041600  0.99451400  0.50083300  1
  Br  Br14  1  0.99958400  0.75548600  0.99916700  1
  Br  Br15  1  0.99958400  0.24368100  0.99916700  1
  Br  Br16  1  0.62869100  0.12869100  0.25738100  1
  Br  Br17  1  0.62130900  0.62130900  0.24261900  1
  Br  Br18  1  0.87130900  0.37130900  0.74261900  1
  Br  Br19  1  0.37869100  0.37869100  0.75738100  1
  Br  Br20  1  0.37129100  0.87129100  0.74258200  1
  Br  Br21  1  0.87870900  0.87870900  0.75741800  1
  Br  Br22  1  0.12870900  0.62870900  0.25741800  1
  Br  Br23  1  0.12129100  0.12129100  0.24258200  1
  N  N0  1  0.62500000  0.65650200  0.75000000  1
  N  N1  1  0.12500000  0.09349800  0.75000000  1
  N  N2  1  0.12500000  0.65650200  0.75000000  1
  N  N3  1  0.62500000  0.09349800  0.75000000  1
  N  N4  1  0.34349800  0.37500000  0.25000000  1
  N  N5  1  0.90650200  0.87500000  0.25000000  1
  N  N6  1  0.34349800  0.87500000  0.25000000  1
  N  N7  1  0.90650200  0.37500000  0.25000000  1
loop_
_geom_bond_atom_site_label_1
_geom_bond_atom_site_label_2
_geom_bond_distance
_geom_bond_site_symmetry_2
Br0 Sb2 2.586935 1_555
Br0 Br18 3.567932 1_555
Br0 N7 3.866073 1_555
Br0 N5 3.866080 1_545
Br0 N2 3.916832 1_655
Br0 N1 3.916840 1_655
Br1 Sb2 2.586935 1_555
Br1 Br18 3.567924 1_555
Br1 N4 3.866073 1_555
Br1 N6 3.866080 1_545
Br1 N0 3.916832 1_555
Br1 N3 3.916840 1_555
Br2 Sb3 2.586935 1_556
Br2 N7 3.866073 1_556
Br2 N5 3.866080 1_556
Br2 N3 3.916832 1_555
Br2 N0 3.916840 1_555
Br3 Sb3 2.586935 1_556
Br3 N4 3.866073 1_556
Br3 N6 3.866080 1_556
Br3 N1 3.916832 1_555
Br3 N2 3.916840 1_555
Br4 Sb2 2.586935 1_555
Br4 N3 3.866073 1_555
Br4 N1 3.866080 1_655
Br4 N6 3.916832 1_545
Br4 N5 3.916840 1_545
Br5 Sb2 2.586935 1_555
Br5 N0 3.866073 1_555
Br5 N2 3.866080 1_655
Br5 N4 3.916832 1_555
Br5 N7 3.916840 1_555
Br6 Sb3 2.586935 1_555
Br6 N3 3.866073 1_554
Br6 N1 3.866080 1_554
Br6 N7 3.916832 1_555
Br6 N4 3.916840 1_555
Br7 Sb3 2.586935 1_555
Br7 N0 3.866073 1_554
Br7 N2 3.866080 1_554
Br7 N5 3.916832 1_555
Br7 N6 3.916840 1_555
Br8 Sb0 2.585571 1_555
Br8 N3 3.536017 1_565
Br8 N0 3.536024 1_555
Br8 N6 3.759565 1_555
Br8 N4 3.759573 1_555
Br9 Sb0 2.585571 1_555
Br9 N1 3.536017 1_565
Br9 N2 3.536024 1_555
Br9 N5 3.759565 1_455
Br9 N7 3.759573 1_455
Br10 Sb1 2.585571 1_555
Br10 N2 3.536017 1_544
Br10 N1 3.536024 1_554
Br10 N6 3.759565 1_545
Br10 N4 3.759573 1_555
Br11 Sb1 2.585571 1_655
Br11 N0 3.536017 1_544
Br11 N3 3.536024 1_554
Br11 N5 3.759565 1_545
Br11 N7 3.759573 1_555
Br12 Sb0 2.585571 1_555
Br12 N7 3.536017 1_455
Br12 N4 3.536024 1_555
Br12 N2 3.759565 1_555
Br12 N0 3.759573 1_555
Br13 Sb0 2.585571 1_555
Br13 N5 3.536017 1_455
Br13 N6 3.536024 1_555
Br13 N1 3.759565 1_565
Br13 N3 3.759573 1_565
Br14 Sb1 2.585571 1_666
Br14 N6 3.536017 1_656
Br14 N5 3.536024 1_556
Br14 N2 3.759565 1_655
Br14 N0 3.759573 1_555
Br15 Sb1 2.585571 1_656
Br15 N4 3.536017 1_656
Br15 N7 3.536024 1_556
Br15 N1 3.759565 1_655
Br15 N3 3.759573 1_555
Br16 Sb2 2.585136 1_555
Br16 Br5 3.567924 1_555
Br16 Br4 3.567932 1_555
Br16 N7 3.988647 1_555
Br16 N5 3.988654 1_545
Br16 N4 3.988655 1_555
Br16 N6 3.988662 1_545
Br17 Sb3 2.585136 1_555
Br17 Br6 3.567924 1_555
Br17 Br7 3.567932 1_555
Br17 N4 3.988647 1_555
Br17 N6 3.988654 1_555
Br17 N7 3.988655 1_555
Br17 N5 3.988662 1_555
Br18 Sb2 2.585136 1_555
Br18 N3 3.988647 1_555
Br18 N1 3.988654 1_655
Br18 N0 3.988655 1_555
Br18 N2 3.988662 1_655
Br19 Sb3 2.585136 1_556
Br19 Br2 3.567924 1_555
Br19 Br3 3.567932 1_555
Br19 N0 3.988647 1_555
Br19 N2 3.988654 1_555
Br19 N3 3.988655 1_555
Br19 N1 3.988662 1_555
Br20 Sb0 2.584741 1_555
Br20 N2 3.517811 1_555
Br20 N0 3.517811 1_555
Br20 N3 3.517811 1_565
Br20 N1 3.517811 1_565
Br21 Sb1 2.584741 1_666
Br21 N1 3.517811 1_665
Br21 N3 3.517811 1_565
Br21 N2 3.517811 1_655
Br21 N0 3.517811 1_555
Br22 Sb0 2.584741 1_555
Br22 N4 3.517811 1_555
Br22 N6 3.517811 1_555
Br22 N7 3.517811 1_455
Br22 N5 3.517811 1_455
Br23 Sb1 2.584741 1_555
Br23 N6 3.517811 1_545
Br23 N4 3.517811 1_555
Br23 N5 3.517811 1_445
Br23 N7 3.517811 1_455
