# generated using pymatgen
data_Li4Co3O7
_symmetry_space_group_name_H-M   'P 1'
_cell_length_a   2.87252300
_cell_length_b   8.32099466
_cell_length_c   10.54087984
_cell_angle_alpha   101.80666449
_cell_angle_beta   95.82937670
_cell_angle_gamma   89.02584845
_symmetry_Int_Tables_number   1
_chemical_formula_structural   Li4Co3O7
_chemical_formula_sum   'Li8 Co6 O14'
_cell_volume   245.34317772
_cell_formula_units_Z   2
loop_
 _symmetry_equiv_pos_site_id
 _symmetry_equiv_pos_as_xyz
  1  'x, y, z'
loop_
 _atom_site_type_symbol
 _atom_site_label
 _atom_site_symmetry_multiplicity
 _atom_site_fract_x
 _atom_site_fract_y
 _atom_site_fract_z
 _atom_site_occupancy
  Li  Li0  1  0.28400400  0.14411200  0.56969600  1
  Li  Li1  1  0.56819100  0.30042700  0.13774400  1
  Li  Li2  1  0.86965700  0.42578400  0.72023100  1
  Li  Li3  1  0.71599600  0.85588800  0.43030400  1
  Li  Li4  1  0.00000000  0.00000000  0.00000000  1
  Li  Li5  1  0.13034300  0.57421600  0.27976900  1
  Li  Li6  1  0.43180900  0.69957300  0.86225600  1
  Li  Li7  1  0.00000000  0.50000000  0.00000000  1
  Co  Co0  1  0.42557500  0.22548200  0.86068200  1
  Co  Co1  1  0.57442500  0.77451800  0.13931800  1
  Co  Co2  1  0.71245000  0.35726700  0.42531400  1
  Co  Co3  1  0.28755000  0.64273300  0.57468600  1
  Co  Co4  1  0.86101300  0.93248500  0.71754600  1
  Co  Co5  1  0.13898700  0.06751500  0.28245400  1
  O  O0  1  0.87599600  0.18084700  0.73175700  1
  O  O1  1  0.12281700  0.31746400  0.28831700  1
  O  O2  1  0.42957100  0.43963300  0.85609200  1
  O  O3  1  0.27559000  0.89528600  0.58212600  1
  O  O4  1  0.55755800  0.01895000  0.14889000  1
  O  O5  1  0.70273400  0.60880300  0.44005200  1
  O  O6  1  0.01555900  0.75493100  0.01688700  1
  O  O7  1  0.72441000  0.10471400  0.41787400  1
  O  O8  1  0.98444100  0.24506900  0.98311300  1
  O  O9  1  0.29726600  0.39119700  0.55994800  1
  O  O10  1  0.12400400  0.81915300  0.26824300  1
  O  O11  1  0.44244200  0.98105000  0.85111000  1
  O  O12  1  0.57042900  0.56036700  0.14390800  1
  O  O13  1  0.87718300  0.68253600  0.71168300  1
loop_
_geom_bond_atom_site_label_1
_geom_bond_atom_site_label_2
_geom_bond_distance
_geom_bond_site_symmetry_2
Li0 O9 2.080631 1_555
Li0 O3 2.101903 1_545
Li0 O7 2.109841 1_555
Li0 O7 2.129111 1_455
Li0 O0 2.136832 1_455
Li0 O0 2.262134 1_555
Li1 O8 2.090094 1_554
Li1 O1 2.116453 1_655
Li1 O1 2.119001 1_555
Li1 O12 2.150705 1_555
Li1 O8 2.201025 1_454
Li1 O4 2.369865 1_555
Li2 O2 1.989354 1_555
Li2 O2 2.030247 1_655
Li2 O0 2.066069 1_555
Li2 O13 2.157236 1_555
Li2 O9 2.157924 1_655
Li2 O9 2.212138 1_555
Li3 O5 2.080631 1_555
Li3 O7 2.101903 1_565
Li3 O3 2.109841 1_555
Li3 O3 2.129111 1_655
Li3 O10 2.136832 1_655
Li3 O10 2.262134 1_555
Li4 O8 2.082287 1_454
Li4 O6 2.082287 1_545
Li4 O11 2.097694 1_544
Li4 O4 2.097694 1_455
Li4 O11 2.109459 1_444
Li4 O4 2.109459 1_555
Li5 O12 1.989354 1_555
Li5 O12 2.030247 1_455
Li5 O10 2.066069 1_555
Li5 O1 2.157236 1_555
Li5 O5 2.157924 1_455
Li5 O5 2.212138 1_555
Li6 O6 2.090094 1_556
Li6 O13 2.116453 1_455
Li6 O13 2.119001 1_555
Li6 O2 2.150705 1_555
Li6 O6 2.201025 1_656
Li6 O11 2.369865 1_555
Li7 O12 2.030599 1_455
Li7 O2 2.030599 1_554
Li7 O6 2.092988 1_555
Li7 O8 2.092988 1_454
Li7 O12 2.109394 1_555
Li7 O2 2.109394 1_454
Co0 O2 1.792737 1_555
Co0 O8 1.880648 1_455
Co0 O8 1.941953 1_555
Co0 O0 1.947587 1_555
Co0 O0 1.963311 1_455
Co0 O11 2.015691 1_545
Co1 O12 1.792737 1_555
Co1 O6 1.880648 1_655
Co1 O6 1.941953 1_555
Co1 O10 1.947587 1_555
Co1 O10 1.963311 1_655
Co1 O4 2.015691 1_565
Co2 O9 1.919500 1_555
Co2 O1 1.929083 1_655
Co2 O5 2.066766 1_555
Co2 O9 2.069703 1_655
Co2 O7 2.086684 1_555
Co2 O1 2.095300 1_555
Co3 O5 1.919500 1_555
Co3 O13 1.929083 1_455
Co3 O9 2.066766 1_555
Co3 O5 2.069703 1_455
Co3 O3 2.086684 1_555
Co3 O13 2.095300 1_555
Co4 O11 1.919794 1_555
Co4 O3 1.924468 1_655
Co4 O0 2.042116 1_565
Co4 O11 2.060917 1_655
Co4 O13 2.067933 1_555
Co4 O3 2.076200 1_555
Co5 O4 1.919794 1_555
Co5 O7 1.924468 1_455
Co5 O10 2.042116 1_545
Co5 O4 2.060917 1_455
Co5 O1 2.067933 1_555
Co5 O7 2.076200 1_555
