# generated using pymatgen
data_YBiO3
_symmetry_space_group_name_H-M   'P 1'
_cell_length_a   5.88751800
_cell_length_b   6.14946600
_cell_length_c   8.66758600
_cell_angle_alpha   90.00000000
_cell_angle_beta   90.00000000
_cell_angle_gamma   90.00000000
_symmetry_Int_Tables_number   1
_chemical_formula_structural   YBiO3
_chemical_formula_sum   'Y4 Bi4 O12'
_cell_volume   313.81074651
_cell_formula_units_Z   4
loop_
 _symmetry_equiv_pos_site_id
 _symmetry_equiv_pos_as_xyz
  1  'x, y, z'
loop_
 _atom_site_type_symbol
 _atom_site_label
 _atom_site_symmetry_multiplicity
 _atom_site_fract_x
 _atom_site_fract_y
 _atom_site_fract_z
 _atom_site_occupancy
  Y  Y0  1  0.00926800  0.95157100  0.75000000  1
  Y  Y1  1  0.50926800  0.54842900  0.25000000  1
  Y  Y2  1  0.49073200  0.45157100  0.75000000  1
  Y  Y3  1  0.99073200  0.04842900  0.25000000  1
  Bi  Bi0  1  0.00000000  0.50000000  0.50000000  1
  Bi  Bi1  1  0.50000000  0.00000000  0.50000000  1
  Bi  Bi2  1  0.50000000  0.00000000  0.00000000  1
  Bi  Bi3  1  0.00000000  0.50000000  0.00000000  1
  O  O0  1  0.67073700  0.32417300  0.41737300  1
  O  O1  1  0.17073700  0.17582700  0.58262700  1
  O  O2  1  0.82926300  0.82417300  0.08262700  1
  O  O3  1  0.32926300  0.67582700  0.91737300  1
  O  O4  1  0.32926300  0.67582700  0.58262700  1
  O  O5  1  0.82926300  0.82417300  0.41737300  1
  O  O6  1  0.17073700  0.17582700  0.91737300  1
  O  O7  1  0.67073700  0.32417300  0.08262700  1
  O  O8  1  0.16648900  0.39402000  0.25000000  1
  O  O9  1  0.66648900  0.10598000  0.75000000  1
  O  O10  1  0.33351100  0.89402000  0.25000000  1
  O  O11  1  0.83351100  0.60598000  0.75000000  1
loop_
_geom_bond_atom_site_label_1
_geom_bond_atom_site_label_2
_geom_bond_distance
_geom_bond_site_symmetry_2
Bi0 O4 2.332367 1_555
Bi0 O0 2.332367 1_455
Bi0 O5 2.344648 1_455
Bi0 O1 2.344648 1_555
Bi0 O8 2.465965 1_555
Bi0 O11 2.465965 1_455
Bi1 O1 2.332367 1_555
Bi1 O5 2.332367 1_545
Bi1 O0 2.344648 1_555
Bi1 O4 2.344648 1_545
Bi1 O9 2.465965 1_555
Bi1 O10 2.465965 1_545
Bi2 O6 2.332367 1_554
Bi2 O2 2.332367 1_545
Bi2 O7 2.344648 1_555
Bi2 O3 2.344648 1_544
Bi2 O9 2.465965 1_554
Bi2 O10 2.465965 1_545
Bi3 O3 2.332367 1_554
Bi3 O7 2.332367 1_455
Bi3 O2 2.344648 1_455
Bi3 O6 2.344648 1_554
Bi3 O8 2.465965 1_555
Bi3 O11 2.465965 1_454
O0 Y1 2.215879 1_555
O0 O7 2.901440 1_555
O0 Y3 2.920493 1_555
O1 Y0 2.215879 1_545
O1 O6 2.901440 1_555
O1 Y2 2.920493 1_555
O2 Y3 2.215879 1_565
O2 O5 2.901440 1_555
O2 Y1 2.920493 1_555
O3 Y2 2.215879 1_555
O3 O4 2.901440 1_555
O3 Y0 2.920493 1_555
O4 Y2 2.215879 1_555
O4 Y0 2.920493 1_555
O5 Y3 2.215879 1_565
O5 Y1 2.920493 1_555
O6 Y0 2.215879 1_545
O6 Y2 2.920493 1_555
O7 Y1 2.215879 1_555
O7 Y3 2.920493 1_555
O8 Y1 2.230339 1_555
O8 Y3 2.363732 1_455
O9 Y0 2.230339 1_645
O9 Y2 2.363732 1_555
O10 Y3 2.230339 1_465
O10 Y1 2.363732 1_555
O11 Y2 2.230339 1_555
O11 Y0 2.363732 1_655
