# generated using pymatgen
data_RbWO7
_symmetry_space_group_name_H-M   'P 1'
_cell_length_a   6.40127981
_cell_length_b   8.43096125
_cell_length_c   13.46896916
_cell_angle_alpha   104.12569126
_cell_angle_beta   89.74754218
_cell_angle_gamma   98.20330783
_symmetry_Int_Tables_number   1
_chemical_formula_structural   RbWO7
_chemical_formula_sum   'Rb4 W4 O28'
_cell_volume   697.36311071
_cell_formula_units_Z   4
loop_
 _symmetry_equiv_pos_site_id
 _symmetry_equiv_pos_as_xyz
  1  'x, y, z'
loop_
 _atom_site_type_symbol
 _atom_site_label
 _atom_site_symmetry_multiplicity
 _atom_site_fract_x
 _atom_site_fract_y
 _atom_site_fract_z
 _atom_site_occupancy
  Rb  Rb0  1  0.32681900  0.81896000  0.11688800  1
  Rb  Rb1  1  0.67318100  0.18104000  0.88311200  1
  Rb  Rb2  1  0.61743900  0.26282900  0.56434700  1
  Rb  Rb3  1  0.38256100  0.73717100  0.43565300  1
  W  W0  1  0.03415900  0.13266900  0.33462500  1
  W  W1  1  0.96584100  0.86733100  0.66537500  1
  W  W2  1  0.28928600  0.25284500  0.10471000  1
  W  W3  1  0.71071400  0.74715500  0.89529000  1
  O  O0  1  0.10070300  0.17010800  0.20201800  1
  O  O1  1  0.89929700  0.82989200  0.79798200  1
  O  O2  1  0.05404600  0.35660000  0.05316300  1
  O  O3  1  0.94595400  0.64340000  0.94683700  1
  O  O4  1  0.22140000  0.06874600  0.64583700  1
  O  O5  1  0.77860000  0.93125400  0.35416300  1
  O  O6  1  0.83561500  0.25731800  0.38987300  1
  O  O7  1  0.16438500  0.74268200  0.61012700  1
  O  O8  1  0.28555000  0.51774600  0.23125700  1
  O  O9  1  0.71445000  0.48225400  0.76874300  1
  O  O10  1  0.19992800  0.28034200  0.48100500  1
  O  O11  1  0.80007200  0.71965800  0.51899500  1
  O  O12  1  0.28493600  0.07036500  0.00714000  1
  O  O13  1  0.71506400  0.92963500  0.99286000  1
  O  O14  1  0.20384800  0.05828500  0.74357800  1
  O  O15  1  0.79615200  0.94171500  0.25642200  1
  O  O16  1  0.26177300  0.41762500  0.02327600  1
  O  O17  1  0.73822700  0.58237500  0.97672400  1
  O  O18  1  0.79690000  0.01591400  0.64701200  1
  O  O19  1  0.20310000  0.98408600  0.35298800  1
  O  O20  1  0.90175500  0.44591900  0.77176300  1
  O  O21  1  0.09824500  0.55408100  0.22823700  1
  O  O22  1  0.59503500  0.33415000  0.11727100  1
  O  O23  1  0.40496500  0.66585000  0.88272900  1
  O  O24  1  0.52564800  0.24552100  0.19653900  1
  O  O25  1  0.47435200  0.75447900  0.80346100  1
  O  O26  1  0.26954000  0.33556200  0.39923700  1
  O  O27  1  0.73046000  0.66443800  0.60076300  1
loop_
_geom_bond_atom_site_label_1
_geom_bond_atom_site_label_2
_geom_bond_distance
_geom_bond_site_symmetry_2
O0 W0 1.923867 1_555
O0 W2 1.963062 1_555
O0 Rb0 3.424293 1_545
O1 W1 1.923867 1_555
O1 W3 1.963062 1_555
O1 Rb1 3.424293 1_565
O2 W2 2.048493 1_555
O2 Rb1 3.278025 1_454
O3 W3 2.048493 1_555
O3 Rb0 3.278025 1_656
O4 W1 2.247359 1_445
O4 Rb2 3.158719 1_555
O5 W0 2.247359 1_665
O5 Rb3 3.158719 1_555
O6 W0 1.806805 1_655
O6 Rb2 2.722388 1_555
O7 W1 1.806805 1_455
O7 Rb3 2.722388 1_555
O8 W2 2.459783 1_555
O8 Rb3 2.930594 1_555
O8 Rb0 3.256731 1_555
O9 W3 2.459783 1_555
O9 Rb2 2.930594 1_555
O9 Rb1 3.256731 1_555
O10 O26 1.347210 1_555
O10 W0 2.237531 1_555
O10 Rb2 2.940177 1_555
O11 O27 1.347210 1_555
O11 W1 2.237531 1_555
O11 Rb3 2.940177 1_555
O12 W2 1.759541 1_555
O12 Rb0 2.905947 1_545
O12 Rb1 3.146482 1_554
O13 W3 1.759541 1_555
O13 Rb1 2.905947 1_565
O13 Rb0 3.146482 1_556
O14 O4 1.343889 1_555
O14 W1 2.123444 1_445
O14 Rb1 3.441257 1_555
O15 O5 1.343889 1_555
O15 W0 2.123444 1_665
O15 Rb0 3.441257 1_555
O16 O2 1.447772 1_555
O16 W2 1.994835 1_555
O16 Rb0 3.276027 1_555
O16 Rb1 3.754381 1_554
O17 O3 1.447772 1_555
O17 W3 1.994835 1_555
O17 Rb1 3.276027 1_555
O17 Rb0 3.754381 1_556
O18 W1 1.827599 1_545
O18 Rb2 2.952633 1_555
O18 Rb1 3.287773 1_555
O19 W0 1.827599 1_565
O19 Rb3 2.952633 1_555
O19 Rb0 3.287773 1_555
O20 O9 1.282345 1_555
O20 Rb1 3.171782 1_555
O20 Rb2 3.261592 1_555
O21 O8 1.282345 1_555
O21 Rb0 3.171782 1_555
O21 Rb3 3.261592 1_555
O22 O24 1.478524 1_555
O22 W2 1.972950 1_555
O22 Rb1 3.169658 1_554
O23 O25 1.478524 1_555
O23 W3 1.972950 1_555
O23 Rb0 3.169658 1_556
O24 W2 1.975664 1_555
O24 Rb0 3.539350 1_545
O25 W3 1.975664 1_555
O25 Rb1 3.539350 1_565
O26 W0 2.122059 1_555
O26 Rb3 3.274462 1_555
O27 W1 2.122059 1_555
O27 Rb2 3.274462 1_555
