# generated using pymatgen
data_Ru3Rh
_symmetry_space_group_name_H-M   'P 1'
_cell_length_a   5.41133128
_cell_length_b   5.41132974
_cell_length_c   4.28541633
_cell_angle_alpha   89.99991002
_cell_angle_beta   90.00006736
_cell_angle_gamma   119.99998930
_symmetry_Int_Tables_number   1
_chemical_formula_structural   Ru3Rh
_chemical_formula_sum   'Ru6 Rh2'
_cell_volume   108.67554317
_cell_formula_units_Z   2
loop_
 _symmetry_equiv_pos_site_id
 _symmetry_equiv_pos_as_xyz
  1  'x, y, z'
loop_
 _atom_site_type_symbol
 _atom_site_label
 _atom_site_symmetry_multiplicity
 _atom_site_fract_x
 _atom_site_fract_y
 _atom_site_fract_z
 _atom_site_occupancy
  Ru  Ru0  1  0.16664386  0.33329156  0.25000121  1
  Ru  Ru1  1  0.66671058  0.83335636  0.25000121  1
  Ru  Ru2  1  0.16664421  0.83335344  0.25000338  1
  Ru  Ru3  1  0.83335338  0.66671060  0.75000124  1
  Ru  Ru4  1  0.33329177  0.16664611  0.75000340  1
  Ru  Ru5  1  0.83335364  0.16664472  0.75000340  1
  Rh  Rh0  1  0.33333512  0.66666881  0.74999904  1
  Rh  Rh1  1  0.66666844  0.33333439  0.24999912  1
loop_
_geom_bond_atom_site_label_1
_geom_bond_atom_site_label_2
_geom_bond_distance
_geom_bond_site_symmetry_2
Ru0 Ru5 2.651553 1_454
Ru0 Ru4 2.651564 1_554
Ru0 Ru5 2.651569 1_455
Ru0 Ru4 2.651575 1_555
Ru0 Ru1 2.705310 1_445
Ru0 Ru2 2.705331 1_545
Ru0 Ru2 2.705999 1_555
Ru0 Ru1 2.706022 1_555
Ru1 Ru5 2.651547 1_564
Ru1 Ru3 2.651554 1_555
Ru1 Ru3 2.651558 1_554
Ru1 Ru5 2.651565 1_565
Ru1 Ru2 2.705314 1_655
Ru1 Ru2 2.706017 1_555
Ru2 Ru3 2.651556 1_455
Ru2 Ru4 2.651566 1_564
Ru2 Ru4 2.651569 1_565
Ru2 Ru3 2.651570 1_454
Ru3 Ru5 2.705308 1_565
Ru3 Ru4 2.705325 1_665
Ru3 Ru4 2.706007 1_555
Ru3 Ru5 2.706022 1_555
Ru4 Ru5 2.705327 1_455
Ru4 Ru5 2.706004 1_555
Rh0 Ru2 2.651779 1_555
Rh0 Ru1 2.651790 1_555
Rh0 Ru0 2.651795 1_555
Rh0 Ru1 2.651803 1_556
Rh0 Ru0 2.651807 1_556
Rh0 Ru2 2.651813 1_556
Rh0 Ru5 2.705651 1_565
Rh0 Ru3 2.705651 1_555
Rh0 Ru4 2.705659 1_565
Rh0 Ru4 2.705670 1_555
Rh0 Ru3 2.705680 1_455
Rh0 Ru5 2.705681 1_455
Rh1 Ru5 2.651782 1_554
Rh1 Ru4 2.651784 1_554
Rh1 Ru3 2.651789 1_554
Rh1 Ru3 2.651807 1_555
Rh1 Ru5 2.651807 1_555
Rh1 Ru4 2.651815 1_555
Rh1 Ru0 2.705649 1_655
Rh1 Ru2 2.705652 1_655
Rh1 Ru1 2.705660 1_545
Rh1 Ru1 2.705670 1_555
Rh1 Ru2 2.705680 1_545
Rh1 Ru0 2.705683 1_555
