# generated using pymatgen
data_RbYMg14
_symmetry_space_group_name_H-M   'P 1'
_cell_length_a   6.73676328
_cell_length_b   6.73676267
_cell_length_c   10.52276545
_cell_angle_alpha   90.00000000
_cell_angle_beta   90.00000000
_cell_angle_gamma   120.00000298
_symmetry_Int_Tables_number   1
_chemical_formula_structural   RbYMg14
_chemical_formula_sum   'Rb1 Y1 Mg14'
_cell_volume   413.58334756
_cell_formula_units_Z   1
loop_
 _symmetry_equiv_pos_site_id
 _symmetry_equiv_pos_as_xyz
  1  'x, y, z'
loop_
 _atom_site_type_symbol
 _atom_site_label
 _atom_site_symmetry_multiplicity
 _atom_site_fract_x
 _atom_site_fract_y
 _atom_site_fract_z
 _atom_site_occupancy
  Rb  Rb0  1  0.16666700  0.33333300  0.62500000  1
  Y  Y0  1  0.16666700  0.33333300  0.12500000  1
  Mg  Mg0  1  0.17309003  0.83654451  0.12500000  1
  Mg  Mg1  1  0.17131612  0.83565756  0.62500000  1
  Mg  Mg2  1  0.66345549  0.32690997  0.12500000  1
  Mg  Mg3  1  0.66434244  0.32868388  0.62500000  1
  Mg  Mg4  1  0.66345549  0.83654451  0.12500000  1
  Mg  Mg5  1  0.66434244  0.83565756  0.62500000  1
  Mg  Mg6  1  0.33993234  0.16006766  0.36732475  1
  Mg  Mg7  1  0.33993234  0.16006766  0.88267525  1
  Mg  Mg8  1  0.33993234  0.67986567  0.36732475  1
  Mg  Mg9  1  0.33993234  0.67986567  0.88267525  1
  Mg  Mg10  1  0.82013433  0.16006766  0.36732475  1
  Mg  Mg11  1  0.82013433  0.16006766  0.88267525  1
  Mg  Mg12  1  0.83333300  0.66666700  0.37571132  1
  Mg  Mg13  1  0.83333300  0.66666700  0.87428868  1
loop_
_geom_bond_atom_site_label_1
_geom_bond_atom_site_label_2
_geom_bond_distance
_geom_bond_site_symmetry_2
Mg0 Mg9 3.172683 1_554
Mg0 Mg8 3.172683 1_555
Mg0 Mg7 3.172689 1_564
Mg0 Mg6 3.172689 1_565
Mg0 Mg13 3.299870 1_454
Mg0 Mg12 3.299870 1_455
Mg0 Mg2 3.303476 1_565
Mg0 Mg4 3.303476 1_555
Mg0 Y0 3.368590 1_555
Mg0 Y0 3.368590 1_565
Mg0 Mg2 3.433287 1_455
Mg0 Mg4 3.433287 1_455
Mg1 Mg12 3.281685 1_455
Mg1 Mg13 3.281685 1_455
Mg1 Mg8 3.306968 1_555
Mg1 Mg9 3.306968 1_555
Mg1 Mg6 3.306975 1_565
Mg1 Mg7 3.306975 1_565
Mg1 Mg3 3.321401 1_565
Mg1 Mg5 3.321402 1_555
Mg1 Rb0 3.368491 1_555
Mg1 Rb0 3.368491 1_565
Mg1 Mg3 3.415361 1_455
Mg1 Mg5 3.415362 1_455
Mg2 Mg7 3.172689 1_554
Mg2 Mg6 3.172689 1_555
Mg2 Mg4 3.303476 1_545
Mg2 Y0 3.368590 1_655
Mg2 Y0 3.368590 1_555
Mg2 Mg4 3.433287 1_555
Mg3 Mg6 3.306975 1_555
Mg3 Mg7 3.306975 1_555
Mg3 Mg5 3.321401 1_545
Mg3 Rb0 3.368491 1_655
Mg3 Rb0 3.368491 1_555
Mg3 Mg5 3.415361 1_555
Mg4 Mg9 3.172690 1_554
Mg4 Mg8 3.172690 1_555
Mg4 Y0 3.368590 1_555
Mg4 Y0 3.368590 1_665
Mg5 Mg8 3.306975 1_555
Mg5 Mg9 3.306975 1_555
Mg5 Rb0 3.368491 1_555
Mg5 Rb0 3.368491 1_665
Mg6 Mg8 3.235007 1_545
Mg6 Y0 3.254155 1_555
Mg6 Rb0 3.382218 1_555
Mg6 Mg8 3.501756 1_555
Mg7 Mg9 3.235007 1_545
Mg7 Y0 3.254155 1_556
Mg7 Rb0 3.382218 1_555
Mg7 Mg9 3.501756 1_555
Mg8 Y0 3.254162 1_555
Mg8 Rb0 3.382224 1_555
Mg9 Y0 3.254162 1_556
Mg9 Rb0 3.382224 1_555
Mg10 Mg2 3.172683 1_555
Mg10 Mg4 3.172689 1_545
Mg10 Mg8 3.235007 1_545
Mg10 Mg6 3.235007 1_555
Mg10 Y0 3.254162 1_655
Mg10 Mg3 3.306968 1_555
Mg10 Mg5 3.306975 1_545
Mg10 Mg12 3.370417 1_545
Mg10 Mg12 3.370417 1_555
Mg10 Rb0 3.382224 1_655
Mg10 Mg8 3.501756 1_655
Mg10 Mg6 3.501756 1_655
Mg11 Mg2 3.172683 1_556
Mg11 Mg4 3.172689 1_546
Mg11 Mg9 3.235007 1_545
Mg11 Mg7 3.235007 1_555
Mg11 Y0 3.254162 1_656
Mg11 Mg3 3.306968 1_555
Mg11 Mg5 3.306975 1_545
Mg11 Mg13 3.370417 1_545
Mg11 Mg13 3.370417 1_555
Mg11 Rb0 3.382224 1_655
Mg11 Mg9 3.501756 1_655
Mg11 Mg7 3.501756 1_655
Mg12 Mg5 3.281678 1_555
Mg12 Mg3 3.281685 1_555
Mg12 Mg4 3.299863 1_555
Mg12 Mg2 3.299870 1_555
Mg12 Mg6 3.370417 1_555
Mg12 Mg6 3.370417 1_665
Mg12 Mg8 3.370417 1_555
Mg12 Mg8 3.370417 1_655
Mg13 Mg5 3.281678 1_555
Mg13 Mg3 3.281685 1_555
Mg13 Mg4 3.299863 1_556
Mg13 Mg2 3.299870 1_556
Mg13 Mg7 3.370417 1_555
Mg13 Mg7 3.370417 1_665
Mg13 Mg9 3.370417 1_555
Mg13 Mg9 3.370417 1_655
