# generated using pymatgen
data_Li7Mn5O12
_symmetry_space_group_name_H-M   'P 1'
_cell_length_a   6.49858371
_cell_length_b   10.39716354
_cell_length_c   6.90296758
_cell_angle_alpha   88.43537851
_cell_angle_beta   95.60886151
_cell_angle_gamma   72.51816628
_symmetry_Int_Tables_number   1
_chemical_formula_structural   Li7Mn5O12
_chemical_formula_sum   'Li14 Mn10 O24'
_cell_volume   441.94973463
_cell_formula_units_Z   2
loop_
 _symmetry_equiv_pos_site_id
 _symmetry_equiv_pos_as_xyz
  1  'x, y, z'
loop_
 _atom_site_type_symbol
 _atom_site_label
 _atom_site_symmetry_multiplicity
 _atom_site_fract_x
 _atom_site_fract_y
 _atom_site_fract_z
 _atom_site_occupancy
  Li  Li0  1  0.41523600  0.24851800  0.41800700  1
  Li  Li1  1  0.91817100  0.75145400  0.91527100  1
  Li  Li2  1  0.79546600  0.87340500  0.30525900  1
  Li  Li3  1  0.29699500  0.37228600  0.80806800  1
  Li  Li4  1  0.03629400  0.62777300  0.52534800  1
  Li  Li5  1  0.53796000  0.12657100  0.02799300  1
  Li  Li6  1  0.97574200  0.36562600  0.45992600  1
  Li  Li7  1  0.46316400  0.87703900  0.94665400  1
  Li  Li8  1  0.87034400  0.12290300  0.38670200  1
  Li  Li9  1  0.35762500  0.63438000  0.87348300  1
  Li  Li10  1  0.12554000  0.86654900  0.63592600  1
  Li  Li11  1  0.61733100  0.37306000  0.11941200  1
  Li  Li12  1  0.20798000  0.13349600  0.69740500  1
  Li  Li13  1  0.71590800  0.62700700  0.21396400  1
  Mn  Mn0  1  0.16645300  0.50001400  0.16670400  1
  Mn  Mn1  1  0.00223600  0.99870100  0.99007000  1
  Mn  Mn2  1  0.49674500  0.49962600  0.49882800  1
  Mn  Mn3  1  0.33112400  0.00128100  0.34321900  1
  Mn  Mn4  1  0.83641300  0.50042100  0.83451700  1
  Mn  Mn5  1  0.66675900  0.99995500  0.66668800  1
  Mn  Mn6  1  0.74734700  0.25281200  0.74103600  1
  Mn  Mn7  1  0.24331200  0.75176400  0.23870700  1
  Mn  Mn8  1  0.58602000  0.74717400  0.59229300  1
  Mn  Mn9  1  0.08990100  0.24827500  0.09465300  1
  O  O0  1  0.23358600  0.44994000  0.44795900  1
  O  O1  1  0.73427300  0.94825400  0.94635700  1
  O  O2  1  0.59920900  0.05170400  0.38694600  1
  O  O3  1  0.09962300  0.55009600  0.88541000  1
  O  O4  1  0.42351600  0.92810000  0.65655300  1
  O  O5  1  0.91937000  0.43075100  0.15507100  1
  O  O6  1  0.90990100  0.07189300  0.67676100  1
  O  O7  1  0.41381300  0.56925700  0.17826100  1
  O  O8  1  0.07895400  0.92884900  0.31267600  1
  O  O9  1  0.58481800  0.42654100  0.81392000  1
  O  O10  1  0.74840600  0.57343100  0.51938600  1
  O  O11  1  0.25445700  0.07118000  0.02062900  1
  O  O12  1  0.50372600  0.18212100  0.72858000  1
  O  O13  1  0.99530200  0.68017100  0.22500200  1
  O  O14  1  0.82968100  0.81781800  0.60475200  1
  O  O15  1  0.33791400  0.31987100  0.10835700  1
  O  O16  1  0.15091700  0.17443100  0.39499100  1
  O  O17  1  0.64925400  0.68287500  0.86356300  1
  O  O18  1  0.68402700  0.31710100  0.46974000  1
  O  O19  1  0.18254600  0.82554100  0.93835600  1
  O  O20  1  0.33437700  0.68207000  0.56762600  1
  O  O21  1  0.82399600  0.19020800  0.02900000  1
  O  O22  1  0.50934700  0.80976600  0.30429800  1
  O  O23  1  0.99891900  0.31793900  0.76567500  1
loop_
_geom_bond_atom_site_label_1
_geom_bond_atom_site_label_2
_geom_bond_distance
_geom_bond_site_symmetry_2
Li0 O2 2.065652 1_555
Li0 O16 2.077829 1_555
Li0 O18 2.080260 1_555
Li0 O0 2.099540 1_555
Li0 O12 2.200714 1_555
Li0 O15 2.202560 1_555
Li1 O1 2.065423 1_555
Li1 O19 2.078170 1_655
Li1 O17 2.080976 1_555
Li1 O3 2.098523 1_655
Li1 O14 2.200292 1_555
Li1 O13 2.202869 1_556
Li2 O2 2.039200 1_565
Li2 O8 2.085693 1_655
Li2 O14 2.103629 1_555
Li2 O22 2.152228 1_555
Li2 O13 2.159561 1_555
Li2 O1 2.533359 1_554
Li3 O3 2.027576 1_555
Li3 O15 2.099536 1_556
Li3 O9 2.106842 1_555
Li3 O12 2.150030 1_555
Li3 O23 2.170946 1_455
Li3 O0 2.547794 1_555
Li4 O0 2.027664 1_555
Li4 O13 2.099860 1_455
Li4 O10 2.107689 1_455
Li4 O14 2.148623 1_455
Li4 O20 2.170670 1_555
Li4 O3 2.547558 1_555
Li5 O1 2.039347 1_544
Li5 O11 2.085508 1_555
Li5 O12 2.103004 1_554
Li5 O21 2.151677 1_555
Li5 O15 2.160805 1_555
Li5 O2 2.533728 1_555
Li6 O16 2.058477 1_655
Li6 O18 2.109695 1_555
Li6 O0 2.118638 1_655
Li6 O23 2.135156 1_555
Li6 O5 2.154916 1_555
Li6 O10 2.295298 1_555
Li7 O4 2.029130 1_555
Li7 O19 2.045350 1_555
Li7 O1 2.106337 1_555
Li7 O17 2.144498 1_555
Li7 O11 2.172913 1_566
Li7 O22 2.511781 1_556
Li8 O6 2.028774 1_555
Li8 O16 2.045236 1_655
Li8 O2 2.106370 1_555
Li8 O18 2.145100 1_555
Li8 O8 2.172118 1_645
Li8 O21 2.512174 1_555
Li9 O19 2.057888 1_555
Li9 O17 2.109076 1_555
Li9 O3 2.119350 1_555
Li9 O20 2.135844 1_555
Li9 O7 2.154430 1_556
Li9 O9 2.295403 1_555
Li10 O20 2.086525 1_555
Li10 O19 2.093487 1_555
Li10 O14 2.123678 1_455
Li10 O4 2.207977 1_555
Li10 O6 2.216750 1_465
Li10 O8 2.271894 1_555
Li11 O15 2.046305 1_555
Li11 O21 2.121837 1_555
Li11 O9 2.139897 1_554
Li11 O7 2.145868 1_555
Li11 O5 2.212248 1_555
Li11 O18 2.437484 1_555
Li12 O23 2.086764 1_455
Li12 O16 2.093293 1_555
Li12 O12 2.122402 1_555
Li12 O6 2.208917 1_455
Li12 O4 2.216958 1_545
Li12 O11 2.271792 1_556
Li13 O13 2.046026 1_555
Li13 O22 2.120676 1_555
Li13 O10 2.139638 1_555
Li13 O5 2.146297 1_555
Li13 O7 2.212938 1_555
Li13 O17 2.437820 1_554
Mn0 O5 1.943184 1_455
Mn0 O7 1.944752 1_555
Mn0 O13 1.945398 1_455
Mn0 O15 1.945990 1_555
Mn0 O0 1.968134 1_555
Mn0 O3 1.968317 1_554
Mn1 O19 1.895045 1_555
Mn1 O1 1.962969 1_455
Mn1 O11 1.995532 1_566
Mn1 O21 2.020617 1_466
Mn1 O6 2.235799 1_465
Mn1 O8 2.283065 1_556
Mn2 O0 1.933425 1_555
Mn2 O18 1.950360 1_555
Mn2 O20 1.970215 1_555
Mn2 O10 1.999556 1_555
Mn2 O9 2.245222 1_555
Mn2 O7 2.270753 1_555
Mn3 O16 1.894840 1_555
Mn3 O2 1.963597 1_555
Mn3 O8 1.994916 1_545
Mn3 O22 2.020639 1_545
Mn3 O4 2.235960 1_545
Mn3 O11 2.283062 1_555
Mn4 O3 1.933694 1_655
Mn4 O17 1.949450 1_555
Mn4 O23 1.970874 1_555
Mn4 O9 1.999652 1_555
Mn4 O10 2.245266 1_555
Mn4 O5 2.270766 1_556
Mn5 O6 1.937092 1_565
Mn5 O4 1.937141 1_555
Mn5 O14 1.953967 1_555
Mn5 O12 1.954318 1_565
Mn5 O1 1.960745 1_555
Mn5 O2 1.961327 1_565
Mn6 O9 1.907525 1_555
Mn6 O12 1.931333 1_555
Mn6 O18 1.933663 1_555
Mn6 O23 1.943517 1_555
Mn6 O6 1.947935 1_555
Mn6 O21 2.040628 1_556
Mn7 O8 1.941113 1_555
Mn7 O13 1.963537 1_455
Mn7 O7 1.967973 1_555
Mn7 O22 2.011443 1_555
Mn7 O19 2.148042 1_554
Mn7 O20 2.328176 1_555
Mn8 O10 1.907420 1_555
Mn8 O14 1.931267 1_555
Mn8 O17 1.933513 1_555
Mn8 O20 1.943808 1_555
Mn8 O4 1.947873 1_555
Mn8 O22 2.040811 1_555
Mn9 O11 1.941700 1_555
Mn9 O15 1.963575 1_555
Mn9 O5 1.967716 1_455
Mn9 O21 2.011104 1_455
Mn9 O16 2.148122 1_555
Mn9 O23 2.328459 1_454
