# generated using pymatgen
data_RbHoP2O7
_symmetry_space_group_name_H-M   'P 1'
_cell_length_a   11.03213900
_cell_length_b   7.88176000
_cell_length_c   8.81519007
_cell_angle_alpha   74.35845580
_cell_angle_beta   90.00000000
_cell_angle_gamma   90.00000000
_symmetry_Int_Tables_number   1
_chemical_formula_structural   RbHoP2O7
_chemical_formula_sum   'Rb4 Ho4 P8 O28'
_cell_volume   738.11862393
_cell_formula_units_Z   4
loop_
 _symmetry_equiv_pos_site_id
 _symmetry_equiv_pos_as_xyz
  1  'x, y, z'
loop_
 _atom_site_type_symbol
 _atom_site_label
 _atom_site_symmetry_multiplicity
 _atom_site_fract_x
 _atom_site_fract_y
 _atom_site_fract_z
 _atom_site_occupancy
  Rb  Rb0  1  0.81801200  0.81827700  0.55657000  1
  Rb  Rb1  1  0.18198800  0.18172300  0.44343000  1
  Rb  Rb2  1  0.31801200  0.18172300  0.94343000  1
  Rb  Rb3  1  0.68198800  0.81827700  0.05657000  1
  Ho  Ho0  1  0.40047500  0.76185800  0.75801500  1
  Ho  Ho1  1  0.59952500  0.23814200  0.24198500  1
  Ho  Ho2  1  0.90047500  0.23814200  0.74198500  1
  Ho  Ho3  1  0.09952500  0.76185800  0.25801500  1
  P  P0  1  0.13297300  0.56667900  0.69172900  1
  P  P1  1  0.86702700  0.43332100  0.30827100  1
  P  P2  1  0.63297300  0.43332100  0.80827100  1
  P  P3  1  0.36702700  0.56667900  0.19172900  1
  P  P4  1  0.09788800  0.86764400  0.82421300  1
  P  P5  1  0.90211200  0.13235600  0.17578700  1
  P  P6  1  0.59788800  0.13235600  0.67578700  1
  P  P7  1  0.40211200  0.86764400  0.32421300  1
  O  O0  1  0.07425000  0.38448700  0.73427200  1
  O  O1  1  0.92575000  0.61551300  0.26572800  1
  O  O2  1  0.57425000  0.61551300  0.76572800  1
  O  O3  1  0.42575000  0.38448700  0.23427200  1
  O  O4  1  0.22609100  0.91752800  0.75886800  1
  O  O5  1  0.77390900  0.08247200  0.24113200  1
  O  O6  1  0.72609100  0.08247200  0.74113200  1
  O  O7  1  0.27390900  0.91752800  0.25886800  1
  O  O8  1  0.26682300  0.55314500  0.73915100  1
  O  O9  1  0.73317700  0.44685500  0.26084900  1
  O  O10  1  0.76682300  0.44685500  0.76084900  1
  O  O11  1  0.23317700  0.55314500  0.23915100  1
  O  O12  1  0.10796300  0.67108300  0.52140200  1
  O  O13  1  0.89203700  0.32891700  0.47859800  1
  O  O14  1  0.60796300  0.32891700  0.97859800  1
  O  O15  1  0.39203700  0.67108300  0.02140200  1
  O  O16  1  0.40993700  0.84960100  0.49979800  1
  O  O17  1  0.59006300  0.15039900  0.50020200  1
  O  O18  1  0.90993700  0.15039900  0.00020200  1
  O  O19  1  0.09006300  0.84960100  0.99979800  1
  O  O20  1  0.06354900  0.67412200  0.80185200  1
  O  O21  1  0.93645100  0.32587800  0.19814800  1
  O  O22  1  0.56354900  0.32587800  0.69814800  1
  O  O23  1  0.43645100  0.67412200  0.30185200  1
  O  O24  1  0.50290500  0.00576600  0.77233300  1
  O  O25  1  0.49709500  0.99423400  0.22766700  1
  O  O26  1  0.00290500  0.99423400  0.72766700  1
  O  O27  1  0.99709500  0.00576600  0.27233300  1
loop_
_geom_bond_atom_site_label_1
_geom_bond_atom_site_label_2
_geom_bond_distance
_geom_bond_site_symmetry_2
Ho0 O16 2.195802 1_555
Ho0 O2 2.228925 1_555
Ho0 O15 2.239549 1_556
Ho0 O8 2.248405 1_555
Ho0 O24 2.262617 1_565
Ho0 O4 2.282885 1_555
Ho1 O17 2.195802 1_555
Ho1 O3 2.228925 1_555
Ho1 O14 2.239549 1_554
Ho1 O9 2.248405 1_555
Ho1 O25 2.262617 1_545
Ho1 O5 2.282885 1_555
Ho2 O18 2.195802 1_556
Ho2 O0 2.228925 1_655
Ho2 O13 2.239549 1_555
Ho2 O10 2.248405 1_555
Ho2 O26 2.262617 1_645
Ho2 O6 2.282885 1_555
Ho3 O19 2.195802 1_554
Ho3 O1 2.228925 1_455
Ho3 O12 2.239549 1_555
Ho3 O11 2.248405 1_555
Ho3 O27 2.262617 1_465
Ho3 O7 2.282885 1_555
O0 P0 1.527096 1_555
O0 Rb2 3.405363 1_555
O0 Rb1 3.570632 1_555
O1 P1 1.527096 1_555
O1 Rb3 3.405363 1_555
O1 Rb0 3.570632 1_555
O2 P2 1.527096 1_555
O2 Rb0 3.405363 1_555
O2 Rb3 3.570632 1_556
O3 P3 1.527096 1_555
O3 Rb1 3.405363 1_555
O3 Rb2 3.570632 1_554
O4 P4 1.537746 1_555
O4 Rb1 3.030264 1_565
O4 Rb2 3.136596 1_565
O5 P5 1.537746 1_555
O5 Rb0 3.030264 1_545
O5 Rb3 3.136596 1_545
O6 P6 1.537746 1_555
O6 Rb3 3.030264 1_546
O6 Rb0 3.136596 1_545
O7 P7 1.537746 1_555
O7 Rb2 3.030264 1_564
O7 Rb1 3.136596 1_565
O8 P0 1.530551 1_555
O8 Rb2 3.047786 1_555
O9 P1 1.530551 1_555
O9 Rb3 3.047786 1_555
O10 P2 1.530551 1_555
O10 Rb0 3.047786 1_555
O11 P3 1.530551 1_555
O11 Rb1 3.047786 1_555
O12 P0 1.530171 1_555
O12 Rb0 3.445023 1_455
O13 P1 1.530171 1_555
O13 Rb1 3.445023 1_655
O14 P2 1.530171 1_555
O14 Rb2 3.445023 1_555
O15 P3 1.530171 1_555
O15 Rb3 3.445023 1_555
O16 P7 1.518128 1_555
O16 Rb1 3.566782 1_565
O17 P6 1.518128 1_555
O17 Rb0 3.566782 1_545
O18 P5 1.518128 1_555
O18 Rb3 3.566782 1_545
O19 P4 1.518128 1_555
O19 Rb2 3.566782 1_565
O20 P4 1.634325 1_555
O20 P0 1.639936 1_555
O20 Rb0 3.461059 1_455
O21 P5 1.634325 1_555
O21 P1 1.639936 1_555
O21 Rb1 3.461059 1_655
O22 P6 1.634325 1_555
O22 P2 1.639936 1_555
O22 Rb2 3.461059 1_555
O23 P7 1.634325 1_555
O23 P3 1.639936 1_555
O23 Rb3 3.461059 1_555
O24 P6 1.536215 1_555
O24 Rb2 3.080058 1_555
O24 Rb3 3.220007 1_546
O25 P7 1.536215 1_555
O25 Rb3 3.080058 1_555
O25 Rb2 3.220007 1_564
O26 P4 1.536215 1_555
O26 Rb0 3.080058 1_455
O26 Rb1 3.220007 1_565
O27 P5 1.536215 1_555
O27 Rb1 3.080058 1_655
O27 Rb0 3.220007 1_545
