# generated using pymatgen
data_Li7Co5O12
_symmetry_space_group_name_H-M   'P 1'
_cell_length_a   5.01463022
_cell_length_b   9.69793723
_cell_length_c   8.65032437
_cell_angle_alpha   89.87512266
_cell_angle_beta   90.14052972
_cell_angle_gamma   99.18866326
_symmetry_Int_Tables_number   1
_chemical_formula_structural   Li7Co5O12
_chemical_formula_sum   'Li14 Co10 O24'
_cell_volume   415.27871558
_cell_formula_units_Z   2
loop_
 _symmetry_equiv_pos_site_id
 _symmetry_equiv_pos_as_xyz
  1  'x, y, z'
loop_
 _atom_site_type_symbol
 _atom_site_label
 _atom_site_symmetry_multiplicity
 _atom_site_fract_x
 _atom_site_fract_y
 _atom_site_fract_z
 _atom_site_occupancy
  Li  Li0  1  0.50030800  0.50074800  0.33202300  1
  Li  Li1  1  0.50000800  0.00002000  0.83598600  1
  Li  Li2  1  0.24231800  0.24155500  0.83320100  1
  Li  Li3  1  0.25453100  0.74632200  0.32809300  1
  Li  Li4  1  0.75839500  0.75805200  0.83301600  1
  Li  Li5  1  0.74543300  0.25276800  0.32934900  1
  Li  Li6  1  0.24940900  0.75505600  0.00172700  1
  Li  Li7  1  0.25098500  0.25444400  0.49521200  1
  Li  Li8  1  0.26016100  0.25520400  0.17132800  1
  Li  Li9  1  0.24817800  0.75556500  0.67049700  1
  Li  Li10  1  0.75018400  0.24582500  0.00039300  1
  Li  Li11  1  0.74845600  0.74538400  0.49526200  1
  Li  Li12  1  0.73739300  0.74486700  0.17266300  1
  Li  Li13  1  0.75135700  0.24454400  0.67053500  1
  Co  Co0  1  0.00058900  0.49886900  0.83264400  1
  Co  Co1  1  0.99987200  0.00002400  0.99924500  1
  Co  Co2  1  0.99987700  0.00001900  0.67017100  1
  Co  Co3  1  0.50007900  0.00005100  0.51036300  1
  Co  Co4  1  0.50002000  0.00003800  0.15955900  1
  Co  Co5  1  0.00036400  0.00005300  0.33106300  1
  Co  Co6  1  0.00018000  0.50009700  0.49119700  1
  Co  Co7  1  0.00250100  0.50136000  0.16874700  1
  Co  Co8  1  0.49882200  0.50070400  0.00163300  1
  Co  Co9  1  0.50125300  0.49898400  0.66790300  1
  O  O0  1  0.36377400  0.60326500  0.83352800  1
  O  O1  1  0.38050600  0.11096300  0.32528900  1
  O  O2  1  0.64094300  0.39356100  0.82925600  1
  O  O3  1  0.61966700  0.88978000  0.32624100  1
  O  O4  1  0.89312600  0.62442900  0.33434900  1
  O  O5  1  0.89074800  0.10926800  0.83085300  1
  O  O6  1  0.10294000  0.37551500  0.33381200  1
  O  O7  1  0.10945600  0.89039200  0.83151400  1
  O  O8  1  0.36054600  0.11008800  0.01364200  1
  O  O9  1  0.36749900  0.61125900  0.52285100  1
  O  O10  1  0.36110900  0.61345000  0.15657900  1
  O  O11  1  0.34740400  0.11331800  0.65875100  1
  O  O12  1  0.63942900  0.88995600  0.01413300  1
  O  O13  1  0.63128200  0.38909700  0.52032300  1
  O  O14  1  0.63584100  0.39137000  0.15256100  1
  O  O15  1  0.65266700  0.88612300  0.65916100  1
  O  O16  1  0.88589800  0.61376700  0.98265300  1
  O  O17  1  0.87732100  0.11351300  0.50615300  1
  O  O18  1  0.86130500  0.60707200  0.67605100  1
  O  O19  1  0.85841900  0.10986300  0.16161600  1
  O  O20  1  0.11495800  0.38417700  0.98475600  1
  O  O21  1  0.12191400  0.88679600  0.50599400  1
  O  O22  1  0.14093200  0.39185000  0.67635000  1
  O  O23  1  0.14164200  0.89057800  0.16177300  1
loop_
_geom_bond_atom_site_label_1
_geom_bond_atom_site_label_2
_geom_bond_distance
_geom_bond_site_symmetry_2
Li0 O10 2.053371 1_555
Li0 O14 2.059041 1_555
Li0 O13 2.114509 1_555
Li0 O9 2.134969 1_555
Li0 O4 2.136508 1_555
Li0 O6 2.161732 1_555
Li1 O12 2.056401 1_546
Li1 O8 2.059378 1_556
Li1 O5 2.073886 1_555
Li1 O7 2.074188 1_545
Li1 O11 2.097340 1_555
Li1 O15 2.104500 1_545
Li2 O5 2.007988 1_455
Li2 O11 2.079167 1_555
Li2 O20 2.081782 1_555
Li2 O22 2.109157 1_555
Li2 O8 2.154422 1_556
Li2 O2 2.286723 1_555
Li3 O4 2.000196 1_455
Li3 O10 2.092720 1_555
Li3 O3 2.115406 1_555
Li3 O23 2.141894 1_555
Li3 O21 2.229318 1_555
Li3 O9 2.257772 1_555
Li4 O7 2.006229 1_655
Li4 O15 2.069710 1_555
Li4 O16 2.077504 1_555
Li4 O18 2.123021 1_555
Li4 O12 2.168847 1_556
Li4 O0 2.284871 1_555
Li5 O6 1.987668 1_655
Li5 O1 2.106518 1_555
Li5 O19 2.147209 1_555
Li5 O14 2.161084 1_555
Li5 O17 2.207173 1_555
Li5 O13 2.249571 1_555
Li6 O23 2.043165 1_555
Li6 O10 2.056198 1_555
Li6 O16 2.104609 1_454
Li6 O7 2.159580 1_554
Li6 O12 2.175000 1_555
Li6 O0 2.212660 1_554
Li7 O6 2.035970 1_555
Li7 O11 2.075513 1_555
Li7 O17 2.137853 1_455
Li7 O13 2.143162 1_555
Li7 O22 2.187158 1_555
Li7 O1 2.195642 1_555
Li8 O6 2.065149 1_555
Li8 O8 2.081479 1_555
Li8 O1 2.086197 1_555
Li8 O14 2.127268 1_555
Li8 O20 2.230609 1_554
Li8 O19 2.268290 1_455
Li9 O9 2.055898 1_555
Li9 O21 2.071369 1_555
Li9 O7 2.106371 1_555
Li9 O0 2.183288 1_555
Li9 O15 2.215223 1_555
Li9 O18 2.224348 1_455
Li10 O19 2.048168 1_555
Li10 O14 2.079422 1_555
Li10 O20 2.093112 1_654
Li10 O5 2.170988 1_554
Li10 O8 2.177764 1_555
Li10 O2 2.186735 1_554
Li11 O4 2.030674 1_555
Li11 O15 2.079636 1_555
Li11 O21 2.139167 1_655
Li11 O9 2.146072 1_555
Li11 O3 2.188842 1_555
Li11 O18 2.189544 1_555
Li12 O4 2.051613 1_555
Li12 O12 2.076238 1_555
Li12 O3 2.089356 1_555
Li12 O10 2.106081 1_555
Li12 O16 2.278181 1_554
Li12 O23 2.280479 1_655
Li13 O13 2.067363 1_555
Li13 O17 2.074693 1_555
Li13 O5 2.100731 1_555
Li13 O2 2.132621 1_555
Li13 O11 2.215751 1_555
Li13 O22 2.228970 1_655
Co0 O16 1.863023 1_455
Co0 O20 1.868450 1_555
Co0 O22 1.909030 1_555
Co0 O18 1.909737 1_455
Co0 O2 1.925635 1_455
Co0 O0 1.937282 1_555
Co1 O5 1.928262 1_555
Co1 O7 1.932563 1_645
Co1 O12 1.951248 1_546
Co1 O8 1.951655 1_656
Co1 O23 1.959127 1_646
Co1 O19 1.965540 1_556
Co2 O5 1.883953 1_555
Co2 O7 1.885866 1_645
Co2 O11 1.908649 1_655
Co2 O15 1.909472 1_545
Co2 O17 1.951183 1_555
Co2 O21 1.955190 1_645
Co3 O11 1.928719 1_555
Co3 O15 1.929235 1_545
Co3 O17 2.031281 1_555
Co3 O21 2.034350 1_545
Co3 O3 2.063229 1_545
Co3 O1 2.067196 1_555
Co4 O8 1.857318 1_555
Co4 O12 1.859963 1_545
Co4 O23 1.935903 1_545
Co4 O19 1.937358 1_555
Co4 O3 1.943245 1_545
Co4 O1 1.946409 1_555
Co5 O19 2.004842 1_455
Co5 O23 2.006407 1_545
Co5 O21 2.017366 1_545
Co5 O17 2.028318 1_455
Co5 O3 2.034126 1_445
Co5 O1 2.034374 1_555
Co6 O4 1.943953 1_455
Co6 O6 1.946330 1_555
Co6 O9 1.998657 1_555
Co6 O13 2.002367 1_455
Co6 O18 2.088454 1_455
Co6 O22 2.095041 1_555
Co7 O10 1.950049 1_555
Co7 O14 1.977652 1_455
Co7 O6 1.991767 1_555
Co7 O4 1.999441 1_455
Co7 O16 2.076759 1_454
Co7 O20 2.087964 1_554
Co8 O14 1.877004 1_555
Co8 O10 1.928991 1_555
Co8 O0 1.940744 1_554
Co8 O2 2.014814 1_554
Co8 O20 2.075659 1_554
Co8 O16 2.077962 1_554
Co9 O13 1.850004 1_555
Co9 O9 1.852832 1_555
Co9 O2 1.924008 1_555
Co9 O22 1.936589 1_555
Co9 O18 1.938798 1_555
Co9 O0 1.945383 1_555
