# generated using pymatgen
data_NaNd2IrO6
_symmetry_space_group_name_H-M   'P 1'
_cell_length_a   5.98615000
_cell_length_b   5.55198400
_cell_length_c   9.67885083
_cell_angle_alpha   55.99716305
_cell_angle_beta   90.00000000
_cell_angle_gamma   90.00000000
_symmetry_Int_Tables_number   1
_chemical_formula_structural   NaNd2IrO6
_chemical_formula_sum   'Na2 Nd4 Ir2 O12'
_cell_volume   266.67315919
_cell_formula_units_Z   2
loop_
 _symmetry_equiv_pos_site_id
 _symmetry_equiv_pos_as_xyz
  1  'x, y, z'
loop_
 _atom_site_type_symbol
 _atom_site_label
 _atom_site_symmetry_multiplicity
 _atom_site_fract_x
 _atom_site_fract_y
 _atom_site_fract_z
 _atom_site_occupancy
  Na  Na0  1  0.50000000  0.00000000  0.50000000  1
  Na  Na1  1  0.00000000  0.00000000  0.00000000  1
  Nd  Nd0  1  0.07417500  0.77552200  0.74617300  1
  Nd  Nd1  1  0.57417500  0.22447800  0.75382700  1
  Nd  Nd2  1  0.42582500  0.77552200  0.24617300  1
  Nd  Nd3  1  0.92582500  0.22447800  0.25382700  1
  Ir  Ir0  1  0.50000000  0.50000000  0.00000000  1
  Ir  Ir1  1  0.00000000  0.50000000  0.50000000  1
  O  O0  1  0.71817300  0.73077300  0.43120500  1
  O  O1  1  0.21817300  0.26922700  0.06879500  1
  O  O2  1  0.28182700  0.26922700  0.56879500  1
  O  O3  1  0.78182700  0.73077300  0.93120500  1
  O  O4  1  0.05063000  0.61002000  0.26744100  1
  O  O5  1  0.55063000  0.38998000  0.23255900  1
  O  O6  1  0.94937000  0.38998000  0.73255900  1
  O  O7  1  0.44937000  0.61002000  0.76744100  1
  O  O8  1  0.32612800  0.84951200  0.94689500  1
  O  O9  1  0.82612800  0.15048800  0.55310500  1
  O  O10  1  0.67387200  0.15048800  0.05310500  1
  O  O11  1  0.17387200  0.84951200  0.44689500  1
loop_
_geom_bond_atom_site_label_1
_geom_bond_atom_site_label_2
_geom_bond_distance
_geom_bond_site_symmetry_2
Na0 O7 2.282914 1_545
Na0 O5 2.282914 1_555
Na0 O9 2.292132 1_555
Na0 O11 2.292132 1_545
Na0 O2 2.344461 1_555
Na0 O0 2.344461 1_545
Na1 O6 2.282914 1_454
Na1 O4 2.282914 1_545
Na1 O10 2.292132 1_455
Na1 O8 2.292132 1_544
Na1 O1 2.344461 1_555
Na1 O3 2.344461 1_444
Nd0 O6 2.339408 1_455
Nd0 O9 2.383180 1_465
Nd0 O7 2.391553 1_555
Nd0 O3 2.415372 1_455
Nd0 O2 2.596642 1_565
Nd0 O8 2.666538 1_555
Nd0 O11 2.754035 1_555
Nd0 O1 2.928788 1_556
Nd1 O7 2.339408 1_555
Nd1 O8 2.383180 1_545
Nd1 O6 2.391553 1_555
Nd1 O2 2.415372 1_555
Nd1 O3 2.596642 1_545
Nd1 O9 2.666538 1_555
Nd1 O10 2.754035 1_556
Nd1 O0 2.928788 1_555
Nd2 O5 2.339408 1_555
Nd2 O10 2.383180 1_565
Nd2 O4 2.391553 1_555
Nd2 O0 2.415372 1_555
Nd2 O1 2.596642 1_565
Nd2 O11 2.666538 1_555
Nd2 O8 2.754035 1_554
Nd2 O2 2.928788 1_555
Nd3 O4 2.339408 1_655
Nd3 O11 2.383180 1_645
Nd3 O5 2.391553 1_555
Nd3 O1 2.415372 1_655
Nd3 O0 2.596642 1_545
Nd3 O10 2.666538 1_555
Nd3 O9 2.754035 1_555
Nd3 O3 2.928788 1_554
Ir0 O3 1.994225 1_554
Ir0 O1 1.994225 1_555
Ir0 O5 1.998433 1_555
Ir0 O7 1.998433 1_554
Ir0 O8 1.999357 1_554
Ir0 O10 1.999357 1_555
Ir1 O2 1.994225 1_555
Ir1 O0 1.994225 1_455
Ir1 O6 1.998433 1_455
Ir1 O4 1.998433 1_555
Ir1 O11 1.999357 1_555
Ir1 O9 1.999357 1_455
O0 O9 2.817401 1_555
O1 O8 2.817401 1_554
O10 O3 2.817401 1_554
O11 O2 2.817401 1_555
