# generated using pymatgen
data_K2Ta2O5
_symmetry_space_group_name_H-M   'P 1'
_cell_length_a   9.00318401
_cell_length_b   9.00318401
_cell_length_c   9.00318401
_cell_angle_alpha   142.81336667
_cell_angle_beta   142.66744489
_cell_angle_gamma   53.71515557
_symmetry_Int_Tables_number   1
_chemical_formula_structural   K2Ta2O5
_chemical_formula_sum   'K4 Ta4 O10'
_cell_volume   265.75873891
_cell_formula_units_Z   2
loop_
 _symmetry_equiv_pos_site_id
 _symmetry_equiv_pos_as_xyz
  1  'x, y, z'
loop_
 _atom_site_type_symbol
 _atom_site_label
 _atom_site_symmetry_multiplicity
 _atom_site_fract_x
 _atom_site_fract_y
 _atom_site_fract_z
 _atom_site_occupancy
  K  K0  1  0.38789300  0.87604300  0.50505200  1
  K  K1  1  0.62900900  0.12395700  0.51185000  1
  K  K2  1  0.88789300  0.38284100  0.51185000  1
  K  K3  1  0.12900900  0.61715900  0.50505200  1
  Ta  Ta0  1  0.00775000  0.00000000  0.00775000  1
  Ta  Ta1  1  0.50775000  0.50000000  0.00775000  1
  Ta  Ta2  1  0.76210400  0.77160800  0.03371200  1
  Ta  Ta3  1  0.26210400  0.22839200  0.99049700  1
  O  O0  1  0.75874800  0.75257200  0.50779400  1
  O  O1  1  0.75522200  0.24742800  0.00617600  1
  O  O2  1  0.25874800  0.75095400  0.00617600  1
  O  O3  1  0.25522200  0.24904600  0.50779400  1
  O  O4  1  0.88115300  0.86306100  0.99929400  1
  O  O5  1  0.13623300  0.13693900  0.01809200  1
  O  O6  1  0.38115300  0.38185900  0.01809200  1
  O  O7  1  0.63623300  0.61814100  0.99929400  1
  O  O8  1  0.01788700  0.99387500  0.51176200  1
  O  O9  1  0.51788700  0.00612500  0.02401200  1
loop_
_geom_bond_atom_site_label_1
_geom_bond_atom_site_label_2
_geom_bond_distance
_geom_bond_site_symmetry_2
K0 O1 2.792187 1_566
K0 O6 2.799425 1_555
K0 O3 2.805713 1_565
K0 O0 2.811409 1_555
K0 O2 2.824715 1_555
K0 O8 2.874245 1_555
K0 O4 2.882512 1_454
K0 O4 2.885299 1_555
K0 O6 2.946267 1_566
K0 O9 2.962991 1_566
K0 Ta3 3.629878 1_554
K1 O0 2.792187 1_545
K1 O7 2.799425 1_555
K1 O2 2.805713 1_545
K1 O1 2.811409 1_556
K1 O3 2.824715 1_555
K1 O9 2.874245 1_555
K1 O5 2.882512 1_555
K1 O5 2.885299 1_656
K1 O7 2.946267 1_544
K1 O8 2.962991 1_645
K1 Ta2 3.629876 1_556
K2 O3 2.792187 1_655
K2 O4 2.799425 1_555
K2 O1 2.805713 1_555
K2 O2 2.811409 1_656
K2 O0 2.824715 1_555
K2 O9 2.874245 1_555
K2 O6 2.882512 1_555
K2 O6 2.885299 1_656
K2 O4 2.946267 1_544
K2 O8 2.962991 1_645
K2 Ta2 3.629876 1_556
K3 O2 2.792187 1_556
K3 O5 2.799425 1_555
K3 O0 2.805713 1_455
K3 O3 2.811409 1_555
K3 O1 2.824715 1_455
K3 O8 2.874245 1_555
K3 O7 2.882512 1_454
K3 O7 2.885299 1_555
K3 O5 2.946267 1_566
K3 O9 2.962991 1_566
K3 Ta3 3.629869 1_554
O0 Ta0 2.033756 1_666
O0 Ta1 2.034066 1_555
O1 Ta0 2.033756 1_655
O1 Ta1 2.034066 1_555
O2 Ta1 2.033756 1_555
O2 Ta0 2.034066 1_565
O3 Ta1 2.033756 1_556
O3 Ta0 2.034066 1_555
O4 Ta2 1.975341 1_556
O4 Ta0 2.049528 1_666
O5 Ta3 1.975333 1_554
O5 Ta0 2.049528 1_555
O6 Ta3 1.975349 1_554
O6 Ta1 2.049528 1_555
O7 Ta2 1.975341 1_556
O7 Ta1 2.049528 1_556
O8 Ta3 1.947759 1_565
O8 Ta2 1.949711 1_455
O9 Ta2 1.947755 1_545
O9 Ta3 1.949710 1_554
