# generated using pymatgen
data_Tb4MgAl2(FeO6)2
_symmetry_space_group_name_H-M   'P 1'
_cell_length_a   5.36441156
_cell_length_b   5.85565445
_cell_length_c   8.27775777
_cell_angle_alpha   87.21906374
_cell_angle_beta   85.05661616
_cell_angle_gamma   90.38753021
_symmetry_Int_Tables_number   1
_chemical_formula_structural   Tb4MgAl2(FeO6)2
_chemical_formula_sum   'Tb4 Mg1 Al2 Fe2 O12'
_cell_volume   258.73416452
_cell_formula_units_Z   1
loop_
 _symmetry_equiv_pos_site_id
 _symmetry_equiv_pos_as_xyz
  1  'x, y, z'
loop_
 _atom_site_type_symbol
 _atom_site_label
 _atom_site_symmetry_multiplicity
 _atom_site_fract_x
 _atom_site_fract_y
 _atom_site_fract_z
 _atom_site_occupancy
  Tb  Tb0  1  0.53691000  0.58525200  0.27808800  1
  Tb  Tb1  1  0.95843100  0.08939100  0.24557700  1
  Tb  Tb2  1  0.44842700  0.40754700  0.71750800  1
  Tb  Tb3  1  0.02782300  0.86984800  0.72798100  1
  Mg  Mg0  1  0.89389400  0.28699200  0.89232900  1
  Al  Al0  1  0.00606200  0.45528300  0.50169500  1
  Al  Al1  1  0.46565200  0.94145500  0.97042700  1
  Fe  Fe0  1  0.04844000  0.62725700  0.09514900  1
  Fe  Fe1  1  0.49488800  0.00054500  0.49708100  1
  O  O0  1  0.31081300  0.89831900  0.18157400  1
  O  O1  1  0.14738400  0.43536000  0.28676200  1
  O  O2  1  0.66757300  0.06759500  0.78832000  1
  O  O3  1  0.86342700  0.51699200  0.71489800  1
  O  O4  1  0.77295000  0.85423500  0.05999000  1
  O  O5  1  0.70479400  0.31651200  0.45588000  1
  O  O6  1  0.18469800  0.18134200  0.56449800  1
  O  O7  1  0.31063300  0.68789000  0.89131500  1
  O  O8  1  0.21788700  0.14932900  0.90493400  1
  O  O9  1  0.27451400  0.66414600  0.53935800  1
  O  O10  1  0.78413200  0.81261900  0.42472800  1
  O  O11  1  0.75566900  0.36637800  0.10119400  1
loop_
_geom_bond_atom_site_label_1
_geom_bond_atom_site_label_2
_geom_bond_distance
_geom_bond_site_symmetry_2
Mg0 O11 1.901796 1_556
Mg0 O8 1.929636 1_655
Mg0 O3 1.962182 1_555
Mg0 O2 2.032758 1_555
Al0 O5 1.879832 1_455
Al0 O1 1.882191 1_555
Al0 O3 1.914052 1_455
Al0 O9 1.938401 1_555
Al0 O6 1.946134 1_555
Al0 O10 2.497321 1_455
Al1 O7 1.869891 1_555
Al1 O0 1.874230 1_556
Al1 O2 1.894985 1_565
Al1 O8 1.903722 1_565
Al1 O4 1.926974 1_556
Fe0 O1 2.010074 1_555
Fe0 O4 2.024450 1_455
Fe0 O7 2.115984 1_554
Fe0 O11 2.179291 1_455
Fe0 O0 2.294699 1_555
Fe1 O10 1.975875 1_545
Fe1 O6 2.030325 1_555
Fe1 O5 2.156817 1_555
Fe1 O9 2.287045 1_545
Fe1 O2 2.701126 1_555
O0 Tb1 2.240394 1_465
O0 Tb0 2.350526 1_555
O0 O4 2.613298 1_555
O1 Tb0 2.255015 1_555
O1 Tb1 2.312276 1_455
O2 Tb3 2.290197 1_645
O2 Tb2 2.392790 1_555
O2 O8 2.576664 1_555
O3 Tb3 2.252148 1_655
O3 Tb2 2.310488 1_555
O4 Tb1 2.386701 1_565
O4 Tb0 2.578102 1_555
O4 Tb3 2.959248 1_654
O5 Tb0 2.340144 1_555
O5 Tb2 2.544477 1_555
O5 Tb1 2.547833 1_555
O6 Tb3 2.325934 1_545
O6 Tb2 2.409671 1_555
O6 Tb1 3.068203 1_455
O7 Tb2 2.318076 1_555
O7 Tb3 2.345309 1_555
O8 Tb2 2.374690 1_555
O8 Tb3 2.516110 1_545
O9 Tb2 2.311666 1_555
O9 Tb3 2.342643 1_555
O9 Tb0 2.540325 1_555
O10 Tb1 2.281966 1_565
O10 Tb0 2.327057 1_555
O10 Tb3 2.960382 1_655
O11 Tb0 2.251710 1_555
O11 Tb1 2.302609 1_555
