# generated using pymatgen
data_PbClF
_symmetry_space_group_name_H-M   'P 1'
_cell_length_a   5.82207500
_cell_length_b   4.74461600
_cell_length_c   5.82838893
_cell_angle_alpha   88.26113652
_cell_angle_beta   90.00000000
_cell_angle_gamma   90.00000000
_symmetry_Int_Tables_number   1
_chemical_formula_structural   PbClF
_chemical_formula_sum   'Pb2 Cl2 F2'
_cell_volume   160.92642148
_cell_formula_units_Z   2
loop_
 _symmetry_equiv_pos_site_id
 _symmetry_equiv_pos_as_xyz
  1  'x, y, z'
loop_
 _atom_site_type_symbol
 _atom_site_label
 _atom_site_symmetry_multiplicity
 _atom_site_fract_x
 _atom_site_fract_y
 _atom_site_fract_z
 _atom_site_occupancy
  Pb  Pb0  1  0.75429100  0.63635600  0.74085500  1
  Pb  Pb1  1  0.25429100  0.36364400  0.25914500  1
  Cl  Cl0  1  0.25470200  0.49875900  0.76091500  1
  Cl  Cl1  1  0.75470200  0.50124100  0.23908500  1
  F  F0  1  0.24242400  0.87071600  0.26481600  1
  F  F1  1  0.74242400  0.12928400  0.73518400  1
loop_
_geom_bond_atom_site_label_1
_geom_bond_atom_site_label_2
_geom_bond_distance
_geom_bond_site_symmetry_2
Cl0 Pb1 2.954743 1_556
Cl0 Pb0 2.982525 1_555
Cl0 Pb0 2.987193 1_455
Cl0 Pb1 3.012892 1_555
Cl0 F0 3.342222 1_555
Cl0 F1 3.342840 1_555
Cl0 F1 3.465104 1_455
Cl0 F0 3.472711 1_556
Cl1 Pb0 2.954743 1_554
Cl1 Pb1 2.982525 1_655
Cl1 Pb1 2.987193 1_555
Cl1 Pb0 3.012892 1_555
Cl1 F1 3.342222 1_555
Cl1 F0 3.342840 1_655
Cl1 F0 3.465104 1_555
Cl1 F1 3.472711 1_554
F0 Pb1 2.339005 1_565
F0 Pb1 2.408083 1_555
F1 Pb0 2.339005 1_545
F1 Pb0 2.408083 1_555
