# generated using pymatgen
data_Mg3Cd
_symmetry_space_group_name_H-M   'P 1'
_cell_length_a   6.36417200
_cell_length_b   6.36417133
_cell_length_c   20.05572146
_cell_angle_alpha   90.00000000
_cell_angle_beta   90.00000000
_cell_angle_gamma   120.00079472
_symmetry_Int_Tables_number   1
_chemical_formula_structural   Mg3Cd
_chemical_formula_sum   'Mg24 Cd8'
_cell_volume   703.47588505
_cell_formula_units_Z   8
loop_
 _symmetry_equiv_pos_site_id
 _symmetry_equiv_pos_as_xyz
  1  'x, y, z'
loop_
 _atom_site_type_symbol
 _atom_site_label
 _atom_site_symmetry_multiplicity
 _atom_site_fract_x
 _atom_site_fract_y
 _atom_site_fract_z
 _atom_site_occupancy
  Mg  Mg0_0  1  0.33333327  0.16666673  0.00000000  1
  Mg  Mg0_1  1  0.33333327  0.16666673  0.50000000  1
  Mg  Mg0_2  1  0.33333326  0.66666673  0.00000000  1
  Mg  Mg0_3  1  0.33333326  0.66666673  0.50000000  1
  Mg  Mg0_4  1  0.83333327  0.16666673  0.00000000  1
  Mg  Mg0_5  1  0.83333327  0.16666673  0.50000000  1
  Mg  Mg0_6  1  0.83333327  0.66666673  0.00000000  1
  Mg  Mg0_7  1  0.83333327  0.66666673  0.50000000  1
  Mg  Mg1_0  1  0.00000025  0.99999976  0.37133063  1
  Mg  Mg1_1  1  0.00000025  0.99999976  0.87133063  1
  Mg  Mg1_2  1  0.00000025  0.49999975  0.37133063  1
  Mg  Mg1_3  1  0.00000025  0.49999975  0.87133063  1
  Mg  Mg1_4  1  0.50000025  0.99999976  0.37133063  1
  Mg  Mg1_5  1  0.50000025  0.99999976  0.87133063  1
  Mg  Mg1_6  1  0.50000025  0.49999975  0.37133063  1
  Mg  Mg1_7  1  0.50000025  0.49999975  0.87133063  1
  Mg  Mg2_0  1  0.00000025  0.99999976  0.12866938  1
  Mg  Mg2_1  1  0.00000025  0.99999976  0.62866937  1
  Mg  Mg2_2  1  0.00000025  0.49999975  0.12866938  1
  Mg  Mg2_3  1  0.00000025  0.49999975  0.62866937  1
  Mg  Mg2_4  1  0.50000025  0.99999976  0.12866938  1
  Mg  Mg2_5  1  0.50000025  0.99999976  0.62866937  1
  Mg  Mg2_6  1  0.50000025  0.49999975  0.12866938  1
  Mg  Mg2_7  1  0.50000025  0.49999975  0.62866937  1
  Cd  Cd0_0  1  0.33333324  0.16666676  0.25000000  1
  Cd  Cd0_1  1  0.33333324  0.16666676  0.75000000  1
  Cd  Cd0_2  1  0.33333324  0.66666676  0.25000000  1
  Cd  Cd0_3  1  0.33333324  0.66666676  0.75000000  1
  Cd  Cd0_4  1  0.83333324  0.16666676  0.25000000  1
  Cd  Cd0_5  1  0.83333324  0.16666676  0.75000000  1
  Cd  Cd0_6  1  0.83333324  0.66666676  0.25000000  1
  Cd  Cd0_7  1  0.83333324  0.66666676  0.75000000  1
loop_
_geom_bond_atom_site_label_1
_geom_bond_atom_site_label_2
_geom_bond_distance
_geom_bond_site_symmetry_2
Mg0_0 Mg1_7 3.167718 1_554
Mg0_0 Mg2_6 3.167718 1_555
Mg0_0 Mg2_0 3.167718 1_545
Mg0_0 Mg1_1 3.167718 1_544
Mg0_0 Mg1_5 3.167734 1_544
Mg0_0 Mg2_4 3.167734 1_545
Mg0_0 Mg0_6 3.182048 1_445
Mg0_0 Mg0_6 3.182048 1_555
Mg0_0 Mg0_2 3.182086 1_545
Mg0_0 Mg0_2 3.182086 1_555
Mg0_0 Mg0_4 3.182086 1_455
Mg0_0 Mg0_4 3.182086 1_555
Mg0_1 Mg2_7 3.167718 1_555
Mg0_1 Mg1_6 3.167718 1_555
Mg0_1 Mg2_1 3.167718 1_545
Mg0_1 Mg1_0 3.167718 1_545
Mg0_1 Mg1_4 3.167734 1_545
Mg0_1 Mg2_5 3.167734 1_545
Mg0_1 Mg0_7 3.182048 1_555
Mg0_1 Mg0_7 3.182048 1_445
Mg0_1 Mg0_3 3.182086 1_545
Mg0_1 Mg0_3 3.182086 1_555
Mg0_1 Mg0_5 3.182086 1_455
Mg0_1 Mg0_5 3.182086 1_555
Mg0_2 Mg1_5 3.167718 1_554
Mg0_2 Mg2_4 3.167718 1_555
Mg0_2 Mg1_3 3.167718 1_554
Mg0_2 Mg2_2 3.167718 1_555
Mg0_2 Mg1_7 3.167734 1_554
Mg0_2 Mg2_6 3.167734 1_555
Mg0_2 Mg0_4 3.182048 1_455
Mg0_2 Mg0_4 3.182048 1_565
Mg0_2 Mg0_6 3.182086 1_455
Mg0_2 Mg0_6 3.182086 1_555
Mg0_3 Mg1_4 3.167718 1_555
Mg0_3 Mg2_5 3.167718 1_555
Mg0_3 Mg1_2 3.167718 1_555
Mg0_3 Mg2_3 3.167718 1_555
Mg0_3 Mg2_7 3.167734 1_555
Mg0_3 Mg1_6 3.167734 1_555
Mg0_3 Mg0_5 3.182048 1_455
Mg0_3 Mg0_5 3.182048 1_565
Mg0_3 Mg0_7 3.182086 1_555
Mg0_3 Mg0_7 3.182086 1_455
Mg0_4 Mg1_3 3.167718 1_654
Mg0_4 Mg2_2 3.167718 1_655
Mg0_4 Mg1_5 3.167718 1_544
Mg0_4 Mg2_4 3.167718 1_545
Mg0_4 Mg1_1 3.167734 1_644
Mg0_4 Mg2_0 3.167734 1_645
Mg0_4 Mg0_6 3.182086 1_545
Mg0_4 Mg0_6 3.182086 1_555
Mg0_5 Mg2_3 3.167718 1_655
Mg0_5 Mg1_2 3.167718 1_655
Mg0_5 Mg2_5 3.167718 1_545
Mg0_5 Mg1_4 3.167718 1_545
Mg0_5 Mg2_1 3.167734 1_645
Mg0_5 Mg1_0 3.167734 1_645
Mg0_5 Mg0_7 3.182086 1_545
Mg0_5 Mg0_7 3.182086 1_555
Mg0_6 Mg1_1 3.167718 1_654
Mg0_6 Mg2_0 3.167718 1_655
Mg0_6 Mg1_7 3.167718 1_554
Mg0_6 Mg2_6 3.167718 1_555
Mg0_6 Mg1_3 3.167734 1_654
Mg0_6 Mg2_2 3.167734 1_655
Mg0_7 Mg2_1 3.167718 1_655
Mg0_7 Mg1_0 3.167718 1_655
Mg0_7 Mg2_7 3.167718 1_555
Mg0_7 Mg1_6 3.167718 1_555
Mg0_7 Mg2_3 3.167734 1_655
Mg0_7 Mg1_2 3.167734 1_655
Mg1_0 Mg1_6 3.182048 1_565
Mg1_0 Mg1_6 3.182048 1_455
Mg1_0 Mg1_2 3.182086 1_565
Mg1_0 Mg1_2 3.182086 1_555
Mg1_0 Mg1_4 3.182086 1_455
Mg1_0 Mg1_4 3.182086 1_555
Mg1_1 Mg1_7 3.182048 1_565
Mg1_1 Mg1_7 3.182048 1_455
Mg1_1 Mg1_3 3.182086 1_565
Mg1_1 Mg1_3 3.182086 1_555
Mg1_1 Mg1_5 3.182086 1_455
Mg1_1 Mg1_5 3.182086 1_555
Mg1_2 Mg1_4 3.182048 1_445
Mg1_2 Mg1_4 3.182048 1_555
Mg1_2 Mg1_6 3.182086 1_455
Mg1_2 Mg1_6 3.182086 1_555
Mg1_3 Mg1_5 3.182048 1_445
Mg1_3 Mg1_5 3.182048 1_555
Mg1_3 Mg1_7 3.182086 1_455
Mg1_3 Mg1_7 3.182086 1_555
Mg1_4 Mg1_6 3.182086 1_565
Mg1_4 Mg1_6 3.182086 1_555
Mg1_5 Mg1_7 3.182086 1_555
Mg1_5 Mg1_7 3.182086 1_565
Mg2_0 Mg2_6 3.182048 1_565
Mg2_0 Mg2_6 3.182048 1_455
Mg2_0 Mg2_2 3.182086 1_565
Mg2_0 Mg2_2 3.182086 1_555
Mg2_0 Mg2_4 3.182086 1_455
Mg2_0 Mg2_4 3.182086 1_555
Mg2_1 Mg2_7 3.182048 1_565
Mg2_1 Mg2_7 3.182048 1_455
Mg2_1 Mg2_3 3.182086 1_565
Mg2_1 Mg2_3 3.182086 1_555
Mg2_1 Mg2_5 3.182086 1_455
Mg2_1 Mg2_5 3.182086 1_555
Mg2_2 Mg2_4 3.182048 1_445
Mg2_2 Mg2_4 3.182048 1_555
Mg2_2 Mg2_6 3.182086 1_455
Mg2_2 Mg2_6 3.182086 1_555
Mg2_3 Mg2_5 3.182048 1_445
Mg2_3 Mg2_5 3.182048 1_555
Mg2_3 Mg2_7 3.182086 1_455
Mg2_3 Mg2_7 3.182086 1_555
Mg2_4 Mg2_6 3.182086 1_565
Mg2_4 Mg2_6 3.182086 1_555
Mg2_5 Mg2_7 3.182086 1_565
Mg2_5 Mg2_7 3.182086 1_555
Cd0_0 Mg2_6 3.049011 1_555
Cd0_0 Mg1_6 3.049011 1_555
Cd0_0 Mg2_0 3.049011 1_545
Cd0_0 Mg1_0 3.049011 1_545
Cd0_0 Mg2_4 3.049028 1_545
Cd0_0 Mg1_4 3.049028 1_545
Cd0_0 Cd0_6 3.182048 1_445
Cd0_0 Cd0_6 3.182048 1_555
Cd0_0 Cd0_2 3.182086 1_555
Cd0_0 Cd0_2 3.182086 1_545
Cd0_0 Cd0_4 3.182086 1_455
Cd0_0 Cd0_4 3.182086 1_555
Cd0_1 Mg2_7 3.049011 1_555
Cd0_1 Mg1_7 3.049011 1_555
Cd0_1 Mg2_1 3.049011 1_545
Cd0_1 Mg1_1 3.049011 1_545
Cd0_1 Mg2_5 3.049028 1_545
Cd0_1 Mg1_5 3.049028 1_545
Cd0_1 Cd0_7 3.182048 1_445
Cd0_1 Cd0_7 3.182048 1_555
Cd0_1 Cd0_3 3.182086 1_555
Cd0_1 Cd0_3 3.182086 1_545
Cd0_1 Cd0_5 3.182086 1_555
Cd0_1 Cd0_5 3.182086 1_455
Cd0_2 Mg2_4 3.049011 1_555
Cd0_2 Mg1_4 3.049011 1_555
Cd0_2 Mg2_2 3.049011 1_555
Cd0_2 Mg1_2 3.049011 1_555
Cd0_2 Mg2_6 3.049028 1_555
Cd0_2 Mg1_6 3.049028 1_555
Cd0_2 Cd0_4 3.182048 1_455
Cd0_2 Cd0_4 3.182048 1_565
Cd0_2 Cd0_6 3.182086 1_455
Cd0_2 Cd0_6 3.182086 1_555
Cd0_3 Mg1_5 3.049011 1_555
Cd0_3 Mg2_5 3.049011 1_555
Cd0_3 Mg2_3 3.049011 1_555
Cd0_3 Mg1_3 3.049011 1_555
Cd0_3 Mg1_7 3.049028 1_555
Cd0_3 Mg2_7 3.049028 1_555
Cd0_3 Cd0_5 3.182048 1_455
Cd0_3 Cd0_5 3.182048 1_565
Cd0_3 Cd0_7 3.182086 1_555
Cd0_3 Cd0_7 3.182086 1_455
Cd0_4 Mg2_2 3.049011 1_655
Cd0_4 Mg1_2 3.049011 1_655
Cd0_4 Mg2_4 3.049011 1_545
Cd0_4 Mg1_4 3.049011 1_545
Cd0_4 Mg2_0 3.049028 1_645
Cd0_4 Mg1_0 3.049028 1_645
Cd0_4 Cd0_6 3.182086 1_555
Cd0_4 Cd0_6 3.182086 1_545
Cd0_5 Mg1_3 3.049011 1_655
Cd0_5 Mg2_3 3.049011 1_655
Cd0_5 Mg1_5 3.049011 1_545
Cd0_5 Mg2_5 3.049011 1_545
Cd0_5 Mg2_1 3.049028 1_645
Cd0_5 Mg1_1 3.049028 1_645
Cd0_5 Cd0_7 3.182086 1_555
Cd0_5 Cd0_7 3.182086 1_545
Cd0_6 Mg2_0 3.049011 1_655
Cd0_6 Mg1_0 3.049011 1_655
Cd0_6 Mg2_6 3.049011 1_555
Cd0_6 Mg1_6 3.049011 1_555
Cd0_6 Mg2_2 3.049028 1_655
Cd0_6 Mg1_2 3.049028 1_655
Cd0_7 Mg1_1 3.049011 1_655
Cd0_7 Mg2_1 3.049011 1_655
Cd0_7 Mg1_7 3.049011 1_555
Cd0_7 Mg2_7 3.049011 1_555
Cd0_7 Mg2_3 3.049028 1_655
Cd0_7 Mg1_3 3.049028 1_655
