# generated using pymatgen
data_Pd2N
_symmetry_space_group_name_H-M   'P 1'
_cell_length_a   5.32709400
_cell_length_b   5.32709400
_cell_length_c   31.67950200
_cell_angle_alpha   90.00000000
_cell_angle_beta   90.00000000
_cell_angle_gamma   90.00000000
_symmetry_Int_Tables_number   1
_chemical_formula_structural   Pd2N
_chemical_formula_sum   'Pd32 N16'
_cell_volume   898.99870555
_cell_formula_units_Z   16
loop_
 _symmetry_equiv_pos_site_id
 _symmetry_equiv_pos_as_xyz
  1  'x, y, z'
loop_
 _atom_site_type_symbol
 _atom_site_label
 _atom_site_symmetry_multiplicity
 _atom_site_fract_x
 _atom_site_fract_y
 _atom_site_fract_z
 _atom_site_occupancy
  Pd  Pd0_0  1  0.00000000  0.00000000  0.29070300  1
  Pd  Pd0_1  1  0.00000000  0.00000000  0.79070300  1
  Pd  Pd0_2  1  0.00000000  0.50000000  0.29070300  1
  Pd  Pd0_3  1  0.00000000  0.50000000  0.79070300  1
  Pd  Pd0_4  1  0.50000000  0.00000000  0.29070300  1
  Pd  Pd0_5  1  0.50000000  0.00000000  0.79070300  1
  Pd  Pd0_6  1  0.50000000  0.50000000  0.29070300  1
  Pd  Pd0_7  1  0.50000000  0.50000000  0.79070300  1
  Pd  Pd1_0  1  0.00000000  0.00000000  0.20929700  1
  Pd  Pd1_1  1  0.00000000  0.00000000  0.70929700  1
  Pd  Pd1_2  1  0.00000000  0.50000000  0.20929700  1
  Pd  Pd1_3  1  0.00000000  0.50000000  0.70929700  1
  Pd  Pd1_4  1  0.50000000  0.00000000  0.20929700  1
  Pd  Pd1_5  1  0.50000000  0.00000000  0.70929700  1
  Pd  Pd1_6  1  0.50000000  0.50000000  0.20929700  1
  Pd  Pd1_7  1  0.50000000  0.50000000  0.70929700  1
  Pd  Pd2_0  1  0.00000000  0.00000000  0.12804150  1
  Pd  Pd2_1  1  0.00000000  0.00000000  0.62804150  1
  Pd  Pd2_2  1  0.00000000  0.50000000  0.12804150  1
  Pd  Pd2_3  1  0.00000000  0.50000000  0.62804150  1
  Pd  Pd2_4  1  0.50000000  0.00000000  0.12804150  1
  Pd  Pd2_5  1  0.50000000  0.00000000  0.62804150  1
  Pd  Pd2_6  1  0.50000000  0.50000000  0.12804150  1
  Pd  Pd2_7  1  0.50000000  0.50000000  0.62804150  1
  Pd  Pd3_0  1  0.00000000  0.00000000  0.37195850  1
  Pd  Pd3_1  1  0.00000000  0.00000000  0.87195850  1
  Pd  Pd3_2  1  0.00000000  0.50000000  0.37195850  1
  Pd  Pd3_3  1  0.00000000  0.50000000  0.87195850  1
  Pd  Pd3_4  1  0.50000000  0.00000000  0.37195850  1
  Pd  Pd3_5  1  0.50000000  0.00000000  0.87195850  1
  Pd  Pd3_6  1  0.50000000  0.50000000  0.37195850  1
  Pd  Pd3_7  1  0.50000000  0.50000000  0.87195850  1
  N  N0_0  1  0.25000000  0.25000000  0.48246300  1
  N  N0_1  1  0.25000000  0.25000000  0.98246300  1
  N  N0_2  1  0.25000000  0.75000000  0.48246300  1
  N  N0_3  1  0.25000000  0.75000000  0.98246300  1
  N  N0_4  1  0.75000000  0.25000000  0.48246300  1
  N  N0_5  1  0.75000000  0.25000000  0.98246300  1
  N  N0_6  1  0.75000000  0.75000000  0.48246300  1
  N  N0_7  1  0.75000000  0.75000000  0.98246300  1
  N  N1_0  1  0.25000000  0.25000000  0.01753700  1
  N  N1_1  1  0.25000000  0.25000000  0.51753700  1
  N  N1_2  1  0.25000000  0.75000000  0.01753700  1
  N  N1_3  1  0.25000000  0.75000000  0.51753700  1
  N  N1_4  1  0.75000000  0.25000000  0.01753700  1
  N  N1_5  1  0.75000000  0.25000000  0.51753700  1
  N  N1_6  1  0.75000000  0.75000000  0.01753700  1
  N  N1_7  1  0.75000000  0.75000000  0.51753700  1
loop_
_geom_bond_atom_site_label_1
_geom_bond_atom_site_label_2
_geom_bond_distance
_geom_bond_site_symmetry_2
Pd0_0 Pd3_0 2.574134 1_555
Pd0_0 Pd1_0 2.578902 1_555
Pd0_0 Pd0_4 2.663547 1_555
Pd0_0 Pd0_4 2.663547 1_455
Pd0_0 Pd0_2 2.663547 1_555
Pd0_0 Pd0_2 2.663547 1_545
Pd0_1 Pd3_1 2.574134 1_555
Pd0_1 Pd1_1 2.578902 1_555
Pd0_1 Pd0_3 2.663547 1_545
Pd0_1 Pd0_5 2.663547 1_455
Pd0_1 Pd0_3 2.663547 1_555
Pd0_1 Pd0_5 2.663547 1_555
Pd0_2 Pd3_2 2.574134 1_555
Pd0_2 Pd1_2 2.578902 1_555
Pd0_2 Pd0_6 2.663547 1_455
Pd0_2 Pd0_6 2.663547 1_555
Pd0_3 Pd3_3 2.574134 1_555
Pd0_3 Pd1_3 2.578902 1_555
Pd0_3 Pd0_7 2.663547 1_555
Pd0_3 Pd0_7 2.663547 1_455
Pd0_4 Pd3_4 2.574134 1_555
Pd0_4 Pd1_4 2.578902 1_555
Pd0_4 Pd0_6 2.663547 1_545
Pd0_4 Pd0_6 2.663547 1_555
Pd0_5 Pd3_5 2.574134 1_555
Pd0_5 Pd1_5 2.578902 1_555
Pd0_5 Pd0_7 2.663547 1_555
Pd0_5 Pd0_7 2.663547 1_545
Pd0_6 Pd3_6 2.574134 1_555
Pd0_6 Pd1_6 2.578902 1_555
Pd0_7 Pd3_7 2.574134 1_555
Pd0_7 Pd1_7 2.578902 1_555
Pd1_0 Pd2_0 2.574134 1_555
Pd1_0 Pd1_4 2.663547 1_455
Pd1_0 Pd1_2 2.663547 1_545
Pd1_0 Pd1_2 2.663547 1_555
Pd1_0 Pd1_4 2.663547 1_555
Pd1_1 Pd2_1 2.574134 1_555
Pd1_1 Pd1_3 2.663547 1_545
Pd1_1 Pd1_5 2.663547 1_555
Pd1_1 Pd1_3 2.663547 1_555
Pd1_1 Pd1_5 2.663547 1_455
Pd1_2 Pd2_2 2.574134 1_555
Pd1_2 Pd1_6 2.663547 1_555
Pd1_2 Pd1_6 2.663547 1_455
Pd1_3 Pd2_3 2.574134 1_555
Pd1_3 Pd1_7 2.663547 1_455
Pd1_3 Pd1_7 2.663547 1_555
Pd1_4 Pd2_4 2.574134 1_555
Pd1_4 Pd1_6 2.663547 1_555
Pd1_4 Pd1_6 2.663547 1_545
Pd1_5 Pd2_5 2.574134 1_555
Pd1_5 Pd1_7 2.663547 1_545
Pd1_5 Pd1_7 2.663547 1_555
Pd1_6 Pd2_6 2.574134 1_555
Pd1_7 Pd2_7 2.574134 1_555
Pd2_0 Pd2_4 2.663547 1_555
Pd2_0 Pd2_2 2.663547 1_555
Pd2_0 Pd2_2 2.663547 1_545
Pd2_0 Pd2_4 2.663547 1_455
Pd2_1 Pd2_5 2.663547 1_455
Pd2_1 Pd2_3 2.663547 1_545
Pd2_1 Pd2_5 2.663547 1_555
Pd2_1 Pd2_3 2.663547 1_555
Pd2_2 Pd2_6 2.663547 1_455
Pd2_2 Pd2_6 2.663547 1_555
Pd2_3 Pd2_7 2.663547 1_555
Pd2_3 Pd2_7 2.663547 1_455
Pd2_4 Pd2_6 2.663547 1_555
Pd2_4 Pd2_6 2.663547 1_545
Pd2_5 Pd2_7 2.663547 1_555
Pd2_5 Pd2_7 2.663547 1_545
Pd3_0 Pd3_2 2.663547 1_545
Pd3_0 Pd3_2 2.663547 1_555
Pd3_0 Pd3_4 2.663547 1_455
Pd3_0 Pd3_4 2.663547 1_555
Pd3_1 Pd3_3 2.663547 1_545
Pd3_1 Pd3_3 2.663547 1_555
Pd3_1 Pd3_5 2.663547 1_455
Pd3_1 Pd3_5 2.663547 1_555
Pd3_2 Pd3_6 2.663547 1_455
Pd3_2 Pd3_6 2.663547 1_555
Pd3_3 Pd3_7 2.663547 1_555
Pd3_3 Pd3_7 2.663547 1_455
Pd3_4 Pd3_6 2.663547 1_555
Pd3_4 Pd3_6 2.663547 1_545
Pd3_5 Pd3_7 2.663547 1_555
Pd3_5 Pd3_7 2.663547 1_545
N0_0 N1_1 1.111127 1_555
N0_1 N1_0 1.111127 1_556
N0_2 N1_3 1.111127 1_555
N0_3 N1_2 1.111127 1_556
N0_4 N1_5 1.111127 1_555
N0_5 N1_4 1.111127 1_556
N0_6 N1_7 1.111127 1_555
N0_7 N1_6 1.111127 1_556
