# generated using pymatgen
data_CeSe2
_symmetry_space_group_name_H-M   'P 1'
_cell_length_a   12.60640766
_cell_length_b   20.03343887
_cell_length_c   20.03343870
_cell_angle_alpha   105.78887750
_cell_angle_beta   90.00000000
_cell_angle_gamma   90.00000000
_symmetry_Int_Tables_number   1
_chemical_formula_structural   CeSe2
_chemical_formula_sum   'Ce18 Se36'
_cell_volume   4868.55045623
_cell_formula_units_Z   18
loop_
 _symmetry_equiv_pos_site_id
 _symmetry_equiv_pos_as_xyz
  1  'x, y, z'
loop_
 _atom_site_type_symbol
 _atom_site_label
 _atom_site_symmetry_multiplicity
 _atom_site_fract_x
 _atom_site_fract_y
 _atom_site_fract_z
 _atom_site_occupancy
  Ce  Ce0  1  0.29345546  0.88469117  0.72076676  1
  Ce  Ce1  1  0.29345546  0.11530883  0.27923324  1
  Ce  Ce2  1  0.70654454  0.27923324  0.11530883  1
  Ce  Ce3  1  0.70654454  0.72076676  0.88469117  1
  Ce  Ce4  1  0.70654454  0.11530883  0.27923324  1
  Ce  Ce5  1  0.70654454  0.88469117  0.72076676  1
  Ce  Ce6  1  0.29345546  0.72076676  0.88469117  1
  Ce  Ce7  1  0.29345546  0.27923324  0.11530883  1
  Ce  Ce8  1  0.30037723  0.14865856  0.85134144  1
  Ce  Ce9  1  0.30037723  0.85134144  0.14865856  1
  Ce  Ce10  1  0.69962277  0.14865856  0.85134144  1
  Ce  Ce11  1  0.69962277  0.85134144  0.14865856  1
  Ce  Ce12  1  0.00000000  0.26519164  0.73480836  1
  Ce  Ce13  1  0.00000000  0.73480836  0.26519164  1
  Ce  Ce14  1  0.00000000  0.87585381  0.52969528  1
  Ce  Ce15  1  0.00000000  0.12414619  0.47030472  1
  Ce  Ce16  1  0.00000000  0.47030472  0.12414619  1
  Ce  Ce17  1  0.00000000  0.52969528  0.87585381  1
  Se  Se0  1  0.24059985  0.78577842  0.78577842  1
  Se  Se1  1  0.24059985  0.21422158  0.21422158  1
  Se  Se2  1  0.75940015  0.21422158  0.21422158  1
  Se  Se3  1  0.75940015  0.78577842  0.78577842  1
  Se  Se4  1  0.24885678  0.01120122  0.80965770  1
  Se  Se5  1  0.24885678  0.98879878  0.19034230  1
  Se  Se6  1  0.75114322  0.19034230  0.98879878  1
  Se  Se7  1  0.75114322  0.80965770  0.01120122  1
  Se  Se8  1  0.75114322  0.98879878  0.19034230  1
  Se  Se9  1  0.75114322  0.01120122  0.80965770  1
  Se  Se10  1  0.24885678  0.80965770  0.01120122  1
  Se  Se11  1  0.24885678  0.19034230  0.98879878  1
  Se  Se12  1  0.17946926  0.21870979  0.78129021  1
  Se  Se13  1  0.17946926  0.78129021  0.21870979  1
  Se  Se14  1  0.82053074  0.21870979  0.78129021  1
  Se  Se15  1  0.82053074  0.78129021  0.21870979  1
  Se  Se16  1  0.00000000  0.00000000  0.50000000  1
  Se  Se17  1  0.00000000  0.50000000  -0.00000000  1
  Se  Se18  1  0.00000000  0.22196106  0.59423773  1
  Se  Se19  1  0.00000000  0.77803894  0.40576227  1
  Se  Se20  1  0.00000000  0.40576227  0.77803894  1
  Se  Se21  1  0.00000000  0.59423773  0.22196106  1
  Se  Se22  1  0.17736680  0.86198028  0.60197379  1
  Se  Se23  1  0.17736680  0.13801972  0.39802621  1
  Se  Se24  1  0.82263320  0.39802621  0.13801972  1
  Se  Se25  1  0.82263320  0.60197379  0.86198028  1
  Se  Se26  1  0.82263320  0.13801972  0.39802621  1
  Se  Se27  1  0.82263320  0.86198028  0.60197379  1
  Se  Se28  1  0.17736680  0.60197379  0.86198028  1
  Se  Se29  1  0.17736680  0.39802621  0.13801972  1
  Se  Se30  1  0.50000000  0.18112902  0.81887098  1
  Se  Se31  1  0.50000000  0.81887098  0.18112902  1
  Se  Se32  1  0.50000000  0.87811646  0.67930858  1
  Se  Se33  1  0.50000000  0.12188354  0.32069142  1
  Se  Se34  1  0.50000000  0.32069142  0.12188354  1
  Se  Se35  1  0.50000000  0.67930858  0.87811646  1
loop_
_geom_bond_atom_site_label_1
_geom_bond_atom_site_label_2
_geom_bond_distance
_geom_bond_site_symmetry_2
Ce0 Se22 2.724535 1_555
Ce0 Se32 2.725312 1_555
Ce0 Se4 2.730309 1_565
Ce0 Se0 2.733363 1_555
Ce1 Se23 2.724535 1_555
Ce1 Se33 2.725312 1_555
Ce1 Se5 2.730309 1_545
Ce1 Se1 2.733363 1_555
Ce2 Se24 2.724535 1_555
Ce2 Se34 2.725312 1_555
Ce2 Se6 2.730309 1_554
Ce2 Se2 2.733363 1_555
Ce3 Se25 2.724535 1_555
Ce3 Se35 2.725312 1_555
Ce3 Se7 2.730309 1_556
Ce3 Se3 2.733363 1_555
Ce4 Se26 2.724535 1_555
Ce4 Se33 2.725312 1_555
Ce4 Se8 2.730309 1_545
Ce4 Se2 2.733363 1_555
Ce5 Se27 2.724535 1_555
Ce5 Se32 2.725312 1_555
Ce5 Se9 2.730309 1_565
Ce5 Se3 2.733363 1_555
Ce6 Se28 2.724535 1_555
Ce6 Se35 2.725312 1_555
Ce6 Se10 2.730309 1_556
Ce6 Se0 2.733363 1_555
Ce7 Se29 2.724535 1_555
Ce7 Se34 2.725312 1_555
Ce7 Se11 2.730309 1_554
Ce7 Se1 2.733363 1_555
Ce8 Se12 2.708109 1_555
Ce8 Se30 2.722032 1_555
Ce8 Se11 2.729631 1_555
Ce8 Se4 2.729631 1_555
Ce9 Se13 2.708109 1_555
Ce9 Se31 2.722032 1_555
Ce9 Se10 2.729631 1_555
Ce9 Se5 2.729631 1_555
Ce10 Se14 2.708109 1_555
Ce10 Se30 2.722032 1_555
Ce10 Se6 2.729631 1_555
Ce10 Se9 2.729631 1_555
Ce11 Se15 2.708109 1_555
Ce11 Se31 2.722032 1_555
Ce11 Se7 2.729631 1_555
Ce11 Se8 2.729631 1_555
Ce12 Se14 2.706445 1_455
Ce12 Se12 2.706445 1_555
Ce12 Se18 2.711701 1_555
Ce12 Se20 2.711701 1_555
Ce13 Se15 2.706445 1_455
Ce13 Se13 2.706445 1_555
Ce13 Se19 2.711701 1_555
Ce13 Se21 2.711701 1_555
Ce14 Se16 2.710093 1_565
Ce14 Se19 2.712311 1_555
Ce14 Se22 2.718902 1_555
Ce14 Se27 2.718902 1_455
Ce15 Se16 2.710093 1_555
Ce15 Se18 2.712311 1_555
Ce15 Se23 2.718902 1_555
Ce15 Se26 2.718902 1_455
Ce16 Se17 2.710093 1_555
Ce16 Se21 2.712311 1_555
Ce16 Se29 2.718902 1_555
Ce16 Se24 2.718902 1_455
Ce17 Se17 2.710093 1_556
Ce17 Se20 2.712311 1_555
Ce17 Se28 2.718902 1_555
Ce17 Se25 2.718902 1_455
