# generated using pymatgen
data_CaMn6O5F7
_symmetry_space_group_name_H-M   'P 1'
_cell_length_a   8.57099207
_cell_length_b   5.74153479
_cell_length_c   5.87571707
_cell_angle_alpha   73.53528981
_cell_angle_beta   67.86022300
_cell_angle_gamma   73.22585350
_symmetry_Int_Tables_number   1
_chemical_formula_structural   CaMn6O5F7
_chemical_formula_sum   'Ca1 Mn6 O5 F7'
_cell_volume   251.40973732
_cell_formula_units_Z   1
loop_
 _symmetry_equiv_pos_site_id
 _symmetry_equiv_pos_as_xyz
  1  'x, y, z'
loop_
 _atom_site_type_symbol
 _atom_site_label
 _atom_site_symmetry_multiplicity
 _atom_site_fract_x
 _atom_site_fract_y
 _atom_site_fract_z
 _atom_site_occupancy
  Ca  Ca0  1  0.45708671  0.71517193  0.74966924  1
  Mn  Mn0  1  0.83904506  0.68836275  0.65334691  1
  Mn  Mn1  1  0.70380279  0.33018755  0.33919045  1
  Mn  Mn2  1  0.20586819  0.66463417  0.52531424  1
  Mn  Mn3  1  0.14301195  0.24418856  0.32098795  1
  Mn  Mn4  1  0.53637431  0.02169817  0.08642780  1
  Mn  Mn5  1  0.98429603  0.01667328  0.99866150  1
  O  O0  1  0.70949553  0.53466698  0.53199529  1
  O  O1  1  0.94820674  0.21094939  0.23628490  1
  O  O2  1  0.73515138  0.10744870  0.11604807  1
  O  O3  1  0.00659767  0.84141884  0.73543334  1
  O  O4  1  0.33047330  0.92157951  0.40644857  1
  F  F0  1  0.62185292  0.01688671  0.68084501  1
  F  F1  1  0.36131503  0.36723314  0.02074179  1
  F  F2  1  0.23316722  0.97174424  0.95061166  1
  F  F3  1  0.42731498  0.42158371  0.46045412  1
  F  F4  1  0.64101237  0.64375410  0.02666452  1
  F  F5  1  0.07796330  0.36528571  0.67355792  1
  F  F6  1  0.05648353  0.66653356  0.28939873  1
loop_
_geom_bond_atom_site_label_1
_geom_bond_atom_site_label_2
_geom_bond_distance
_geom_bond_site_symmetry_2
Ca0 O0 2.182165 1_555
Ca0 F2 2.212138 1_555
Ca0 F1 2.314931 1_556
Ca0 F0 2.396510 1_565
Ca0 O4 2.490291 1_555
Ca0 F4 2.546491 1_556
Ca0 F3 2.827216 1_555
Mn0 O0 2.009733 1_555
Mn0 O3 2.134947 1_655
Mn1 O0 1.868890 1_555
Mn1 O1 1.916926 1_555
Mn1 O2 1.978212 1_555
Mn2 O4 1.888897 1_555
Mn2 O3 1.895241 1_555
Mn3 O1 1.983944 1_455
Mn3 O4 2.151214 1_545
Mn4 O2 1.982817 1_555
Mn4 O4 2.110033 1_545
Mn5 O1 1.909823 1_556
Mn5 O2 1.938710 1_556
Mn5 O3 1.997375 1_645
F0 Mn4 2.219526 1_556
F0 Mn0 2.229051 1_545
F0 Mn1 2.319182 1_555
F0 F4 2.515211 1_546
F0 F3 2.746216 1_555
F0 O2 3.018394 1_555
F1 Mn4 2.149515 1_555
F1 Mn3 2.163512 1_555
F1 F6 2.847570 1_555
F1 F3 2.958547 1_555
F1 F2 2.973786 1_544
F2 Mn5 1.991485 1_465
F2 F6 2.570778 1_556
F2 F5 2.708755 1_565
F2 Mn3 2.782878 1_566
F3 Mn2 1.980541 1_555
F3 Mn1 2.149503 1_555
F3 F4 2.732258 1_555
F3 F5 2.853311 1_555
F4 Mn4 2.169724 1_565
F4 Mn0 2.210033 1_554
F4 Mn1 2.283545 1_555
F4 O2 2.894318 1_555
F5 Mn2 2.105639 1_555
F5 Mn3 2.192705 1_555
F5 Mn0 2.348242 1_455
F5 Mn5 2.429820 1_455
F5 F6 2.457004 1_555
F5 O3 2.722173 1_555
F6 Mn2 2.209540 1_555
F6 Mn0 2.252808 1_455
F6 Mn3 2.296790 1_555
F6 Mn5 2.339776 1_464
F6 O0 2.990413 1_455
