# generated using pymatgen
data_BeGa3
_symmetry_space_group_name_H-M   'P 1'
_cell_length_a   4.76676601
_cell_length_b   4.76676601
_cell_length_c   4.76676601
_cell_angle_alpha   129.22696760
_cell_angle_beta   129.22696760
_cell_angle_gamma   74.64564646
_symmetry_Int_Tables_number   1
_chemical_formula_structural   BeGa3
_chemical_formula_sum   'Be1 Ga3'
_cell_volume   63.32540509
_cell_formula_units_Z   1
loop_
 _symmetry_equiv_pos_site_id
 _symmetry_equiv_pos_as_xyz
  1  'x, y, z'
loop_
 _atom_site_type_symbol
 _atom_site_label
 _atom_site_symmetry_multiplicity
 _atom_site_fract_x
 _atom_site_fract_y
 _atom_site_fract_z
 _atom_site_occupancy
  Be  Be0  1  0.00000000  0.00000000  0.00000000  1
  Ga  Ga0  1  0.75000000  0.25000000  0.50000000  1
  Ga  Ga1  1  0.25000000  0.75000000  0.50000000  1
  Ga  Ga2  1  0.50000000  0.50000000  0.00000000  1
loop_
_geom_bond_atom_site_label_1
_geom_bond_atom_site_label_2
_geom_bond_distance
_geom_bond_site_symmetry_2
Be0 Ga1 2.787240 1_444
Be0 Ga0 2.787240 1_555
Be0 Ga0 2.787240 1_444
Be0 Ga0 2.787240 1_454
Be0 Ga1 2.787240 1_545
Be0 Ga0 2.787240 1_455
Be0 Ga1 2.787240 1_544
Be0 Ga1 2.787240 1_555
Be0 Ga2 2.890115 1_455
Be0 Ga2 2.890115 1_545
Be0 Ga2 2.890115 1_556
Be0 Ga2 2.890115 1_444
Ga0 Ga2 2.787240 1_656
Ga0 Ga2 2.787240 1_555
Ga0 Ga2 2.787240 1_545
Ga0 Ga2 2.787240 1_556
Ga0 Ga1 2.890115 1_656
Ga0 Ga1 2.890115 1_544
Ga0 Ga1 2.890115 1_555
Ga0 Ga1 2.890115 1_645
Ga1 Ga2 2.787240 1_455
Ga1 Ga2 2.787240 1_555
Ga1 Ga2 2.787240 1_566
Ga1 Ga2 2.787240 1_556
