# generated using pymatgen
data_SrMg14Sb
_symmetry_space_group_name_H-M   'P 1'
_cell_length_a   6.60592077
_cell_length_b   6.45629181
_cell_length_c   10.55714145
_cell_angle_alpha   90.00000000
_cell_angle_beta   90.00000000
_cell_angle_gamma   119.25351187
_symmetry_Int_Tables_number   1
_chemical_formula_structural   SrMg14Sb
_chemical_formula_sum   'Sr1 Mg14 Sb1'
_cell_volume   392.83610113
_cell_formula_units_Z   1
loop_
 _symmetry_equiv_pos_site_id
 _symmetry_equiv_pos_as_xyz
  1  'x, y, z'
loop_
 _atom_site_type_symbol
 _atom_site_label
 _atom_site_symmetry_multiplicity
 _atom_site_fract_x
 _atom_site_fract_y
 _atom_site_fract_z
 _atom_site_occupancy
  Sr  Sr0  1  0.16409578  0.33204739  0.12500000  1
  Mg  Mg0  1  0.16517608  0.33258754  0.62500000  1
  Mg  Mg1  1  0.16164293  0.83082097  0.62500000  1
  Mg  Mg2  1  0.66310208  0.32652651  0.12500000  1
  Mg  Mg3  1  0.66718482  0.33622615  0.62500000  1
  Mg  Mg4  1  0.66310208  0.83657457  0.12500000  1
  Mg  Mg5  1  0.66718482  0.83095767  0.62500000  1
  Mg  Mg6  1  0.33875006  0.16589689  0.38809285  1
  Mg  Mg7  1  0.33875006  0.16589689  0.86190715  1
  Mg  Mg8  1  0.33875006  0.67285416  0.38809285  1
  Mg  Mg9  1  0.33875006  0.67285416  0.86190715  1
  Mg  Mg10  1  0.82577011  0.16288555  0.38631060  1
  Mg  Mg11  1  0.82577011  0.16288555  0.86368940  1
  Mg  Mg12  1  0.83025690  0.66512895  0.37293199  1
  Mg  Mg13  1  0.83025690  0.66512895  0.87706801  1
  Sb  Sb0  1  0.18145715  0.84072807  0.12500000  1
loop_
_geom_bond_atom_site_label_1
_geom_bond_atom_site_label_2
_geom_bond_distance
_geom_bond_site_symmetry_2
Mg0 Mg6 3.151872 1_555
Mg0 Mg7 3.151872 1_555
Mg0 Mg8 3.151878 1_555
Mg0 Mg9 3.151878 1_555
Mg0 Mg11 3.190030 1_455
Mg0 Mg10 3.190030 1_455
Mg0 Mg1 3.228210 1_545
Mg0 Mg1 3.228210 1_555
Mg0 Mg5 3.301234 1_445
Mg0 Mg3 3.301234 1_455
Mg0 Mg5 3.304813 1_555
Mg0 Mg3 3.304814 1_555
Mg1 Mg8 3.135355 1_555
Mg1 Mg9 3.135355 1_555
Mg1 Mg6 3.135361 1_565
Mg1 Mg7 3.135361 1_565
Mg1 Mg3 3.266782 1_455
Mg1 Mg5 3.266782 1_455
Mg1 Mg12 3.275570 1_455
Mg1 Mg13 3.275570 1_455
Mg1 Mg3 3.339138 1_565
Mg1 Mg5 3.339138 1_555
Mg2 Mg4 3.163273 1_545
Mg2 Sb0 3.194898 1_545
Mg2 Sr0 3.292253 1_655
Mg2 Mg4 3.293019 1_555
Mg2 Sr0 3.313961 1_555
Mg2 Mg7 3.348022 1_554
Mg2 Mg6 3.348022 1_555
Mg2 Sb0 3.411188 1_655
Mg3 Mg6 3.136877 1_555
Mg3 Mg7 3.136877 1_555
Mg3 Mg5 3.194131 1_555
Mg3 Mg5 3.262161 1_545
Mg4 Sb0 3.194898 1_555
Mg4 Sr0 3.292253 1_665
Mg4 Sr0 3.313960 1_555
Mg4 Mg9 3.348022 1_554
Mg4 Mg8 3.348022 1_555
Mg4 Sb0 3.411188 1_655
Mg5 Mg8 3.136877 1_555
Mg5 Mg9 3.136877 1_555
Mg6 Mg8 3.183228 1_545
Mg6 Mg8 3.273064 1_555
Mg6 Sb0 3.327107 1_545
Mg6 Sr0 3.377282 1_555
Mg7 Mg9 3.183228 1_545
Mg7 Mg9 3.273064 1_555
Mg7 Sb0 3.327107 1_546
Mg7 Sr0 3.377282 1_556
Mg8 Sb0 3.327100 1_555
Mg8 Sr0 3.377288 1_555
Mg9 Sb0 3.327100 1_556
Mg9 Sr0 3.377288 1_556
Mg10 Mg3 3.137766 1_555
Mg10 Mg5 3.137773 1_545
Mg10 Mg8 3.226816 1_545
Mg10 Mg6 3.226816 1_555
Mg10 Mg12 3.231338 1_545
Mg10 Mg12 3.231338 1_555
Mg10 Mg2 3.315252 1_555
Mg10 Mg4 3.315258 1_545
Mg10 Sr0 3.378250 1_655
Mg10 Mg8 3.379299 1_655
Mg10 Mg6 3.379299 1_655
Mg11 Mg3 3.137766 1_555
Mg11 Mg5 3.137773 1_545
Mg11 Mg9 3.226816 1_545
Mg11 Mg7 3.226816 1_555
Mg11 Mg13 3.231338 1_545
Mg11 Mg13 3.231338 1_555
Mg11 Mg2 3.315252 1_556
Mg11 Mg4 3.315258 1_546
Mg11 Sr0 3.378250 1_656
Mg11 Mg9 3.379299 1_655
Mg11 Mg7 3.379299 1_655
Mg12 Mg4 3.238850 1_555
Mg12 Mg2 3.238856 1_555
Mg12 Mg5 3.242757 1_555
Mg12 Mg3 3.242764 1_555
Mg12 Mg6 3.275431 1_555
Mg12 Mg8 3.275431 1_555
Mg12 Sb0 3.308796 1_655
Mg12 Mg6 3.338814 1_665
Mg12 Mg8 3.338815 1_655
Mg13 Mg4 3.238850 1_556
Mg13 Mg2 3.238856 1_556
Mg13 Mg5 3.242757 1_555
Mg13 Mg3 3.242764 1_555
Mg13 Mg7 3.275431 1_555
Mg13 Mg9 3.275431 1_555
Mg13 Sb0 3.308796 1_656
Mg13 Mg7 3.338814 1_665
Mg13 Mg9 3.338815 1_655
Sb0 Sr0 3.229696 1_555
Sb0 Sr0 3.229696 1_565
