# generated using pymatgen
data_CrFeO3
_symmetry_space_group_name_H-M   'P 1'
_cell_length_a   10.25263577
_cell_length_b   10.89455767
_cell_length_c   9.42668867
_cell_angle_alpha   92.83451381
_cell_angle_beta   94.62760904
_cell_angle_gamma   95.69280771
_symmetry_Int_Tables_number   1
_chemical_formula_structural   CrFeO3
_chemical_formula_sum   'Cr16 Fe16 O48'
_cell_volume   1042.57933023
_cell_formula_units_Z   16
loop_
 _symmetry_equiv_pos_site_id
 _symmetry_equiv_pos_as_xyz
  1  'x, y, z'
loop_
 _atom_site_type_symbol
 _atom_site_label
 _atom_site_symmetry_multiplicity
 _atom_site_fract_x
 _atom_site_fract_y
 _atom_site_fract_z
 _atom_site_occupancy
  Cr  Cr0  1  0.91909400  0.33388600  0.89223100  1
  Cr  Cr1  1  0.47058800  0.16995300  0.03458600  1
  Cr  Cr2  1  0.78214800  0.11045200  0.47051900  1
  Cr  Cr3  1  0.20953000  0.97439400  0.09730600  1
  Cr  Cr4  1  0.87449500  0.36507000  0.59040200  1
  Cr  Cr5  1  0.43526900  0.70833800  0.47655700  1
  Cr  Cr6  1  0.14177600  0.83333500  0.73523600  1
  Cr  Cr7  1  0.48752000  0.18421400  0.65101200  1
  Cr  Cr8  1  0.19411700  0.78522000  0.31796400  1
  Cr  Cr9  1  0.64704400  0.48765300  0.67200500  1
  Cr  Cr10  1  0.36275400  0.97029200  0.84707900  1
  Cr  Cr11  1  0.12229300  0.52551800  0.64164200  1
  Cr  Cr12  1  0.77507600  0.79247000  0.64184100  1
  Cr  Cr13  1  0.97128600  0.15368700  0.04618700  1
  Cr  Cr14  1  0.95580000  0.97848800  0.27632400  1
  Cr  Cr15  1  0.56865700  0.94545900  0.55367700  1
  Fe  Fe0  1  0.26377300  0.33848100  0.15167500  1
  Fe  Fe1  1  0.76501800  0.57843000  0.05062600  1
  Fe  Fe2  1  0.02208200  0.28117200  0.39154900  1
  Fe  Fe3  1  0.68718900  0.79593900  0.26934200  1
  Fe  Fe4  1  0.57019900  0.50656300  0.30356600  1
  Fe  Fe5  1  0.66291100  0.92719000  0.03724000  1
  Fe  Fe6  1  0.10187500  0.55115000  0.94511500  1
  Fe  Fe7  1  0.38318900  0.69076200  0.11555700  1
  Fe  Fe8  1  0.87232100  0.60622100  0.41508500  1
  Fe  Fe9  1  0.72514000  0.30096900  0.19942200  1
  Fe  Fe10  1  0.14221200  0.53109200  0.27491600  1
  Fe  Fe11  1  0.25953200  0.03105000  0.48183600  1
  Fe  Fe12  1  0.36412300  0.37765300  0.48270100  1
  Fe  Fe13  1  0.90577300  0.83901000  0.94937600  1
  Fe  Fe14  1  0.56765800  0.72641400  0.83410000  1
  Fe  Fe15  1  0.98832500  0.04460000  0.67882300  1
  O  O0  1  0.04780500  0.67509900  0.34539700  1
  O  O1  1  0.30169300  0.83815700  0.47419300  1
  O  O2  1  0.64954900  0.57572300  0.86454800  1
  O  O3  1  0.59212100  0.11521400  0.49734800  1
  O  O4  1  0.78308400  0.28685100  0.40752400  1
  O  O5  1  0.80441000  0.58940800  0.60693400  1
  O  O6  1  0.55084800  0.31777600  0.08467500  1
  O  O7  1  0.10969400  0.65299700  0.76849700  1
  O  O8  1  0.94751400  0.14815000  0.83921500  1
  O  O9  1  0.42552500  0.38467500  0.29335000  1
  O  O10  1  0.91346400  0.50298800  0.99123300  1
  O  O11  1  0.72699100  0.83892000  0.84979000  1
  O  O12  1  0.27898500  0.50718800  0.59716500  1
  O  O13  1  0.51089400  0.79067500  0.99888900  1
  O  O14  1  0.45792200  0.00630500  0.67505500  1
  O  O15  1  0.18673700  0.36390000  0.33731200  1
  O  O16  1  0.53337900  0.55641000  0.49474500  1
  O  O17  1  0.15455300  0.99117200  0.64309300  1
  O  O18  1  0.97424500  0.15100500  0.25141300  1
  O  O19  1  0.32798600  0.81500700  0.76921900  1
  O  O20  1  0.95209600  0.85979900  0.73656400  1
  O  O21  1  0.41132900  0.16212500  0.85067900  1
  O  O22  1  0.53901400  0.84443000  0.38606400  1
  O  O23  1  0.99349100  0.47137400  0.48514600  1
  O  O24  1  0.83049400  0.24531300  0.04097800  1
  O  O25  1  0.92885300  0.00840900  0.47230400  1
  O  O26  1  0.77252700  0.35963900  0.73891900  1
  O  O27  1  0.18351400  0.95700100  0.89339100  1
  O  O28  1  0.21791700  0.79433900  0.12650400  1
  O  O29  1  0.31167900  0.17376400  0.12118400  1
  O  O30  1  0.75957600  0.50401900  0.25520200  1
  O  O31  1  0.08730400  0.28967900  0.03534700  1
  O  O32  1  0.93820400  0.21212300  0.57733700  1
  O  O33  1  0.51231500  0.36008600  0.63203000  1
  O  O34  1  0.75696300  0.96433600  0.23970200  1
  O  O35  1  0.15003600  0.95962700  0.30356400  1
  O  O36  1  0.99998000  0.98291900  0.06819800  1
  O  O37  1  0.73997800  0.96701400  0.61062500  1
  O  O38  1  0.56685300  0.77236100  0.63544600  1
  O  O39  1  0.81880100  0.74661100  0.10897100  1
  O  O40  1  0.60983600  0.09545300  0.03562100  1
  O  O41  1  0.80157000  0.76086400  0.43096800  1
  O  O42  1  0.30747800  0.64912100  0.31760300  1
  O  O43  1  0.02981200  0.41046400  0.74416600  1
  O  O44  1  0.24226900  0.50717700  0.08128400  1
  O  O45  1  0.33124200  0.20342300  0.52744100  1
  O  O46  1  0.39067100  0.98262000  0.04386300  1
  O  O47  1  0.56663600  0.64584700  0.19627500  1
loop_
_geom_bond_atom_site_label_1
_geom_bond_atom_site_label_2
_geom_bond_distance
_geom_bond_site_symmetry_2
Cr0 O24 1.971777 1_556
Cr0 O43 2.028717 1_655
Cr0 O10 2.031770 1_555
Cr0 O26 2.049100 1_555
Cr0 O8 2.114171 1_555
Cr0 O31 2.209049 1_656
Cr1 O40 1.710407 1_555
Cr1 O6 1.758654 1_555
Cr1 O21 1.785226 1_554
Cr1 O29 1.883403 1_555
Cr1 O46 2.131143 1_545
Cr2 O25 1.956540 1_555
Cr2 O3 1.990151 1_555
Cr2 O32 2.019635 1_555
Cr2 O4 2.038660 1_555
Cr2 O37 2.129674 1_545
Cr2 O34 2.611558 1_545
Cr3 O27 1.916582 1_554
Cr3 O46 1.957893 1_555
Cr3 O28 2.003534 1_555
Cr3 O35 2.093132 1_555
Cr3 O36 2.155619 1_455
Cr3 O29 2.308160 1_565
Cr4 O26 1.813451 1_555
Cr4 O32 1.851203 1_555
Cr4 O23 1.960329 1_555
Cr4 O4 2.003007 1_555
Cr4 O43 2.069245 1_655
Cr4 O5 2.615887 1_555
Cr5 O42 1.948838 1_555
Cr5 O38 1.983399 1_555
Cr5 O22 2.003992 1_555
Cr5 O16 2.027658 1_555
Cr5 O1 2.063687 1_555
Cr6 O19 1.941801 1_555
Cr6 O27 1.950650 1_555
Cr6 O17 1.962123 1_555
Cr6 O20 1.995000 1_455
Cr6 O7 2.003975 1_555
Cr7 O33 1.926784 1_555
Cr7 O45 1.938406 1_555
Cr7 O14 1.959103 1_555
Cr7 O3 2.028889 1_555
Cr7 O21 2.110815 1_555
Cr8 O1 1.801582 1_555
Cr8 O28 1.846842 1_555
Cr8 O0 1.868875 1_555
Cr8 O42 1.972657 1_555
Cr8 O35 2.004741 1_555
Cr9 O33 1.861431 1_555
Cr9 O2 2.007735 1_555
Cr9 O5 2.020006 1_555
Cr9 O26 2.076086 1_555
Cr9 O16 2.166591 1_555
Cr10 O19 1.800878 1_555
Cr10 O46 1.850169 1_556
Cr10 O27 1.916129 1_555
Cr10 O14 1.994467 1_565
Cr10 O21 2.097803 1_565
Cr11 O12 1.720633 1_555
Cr11 O7 1.808805 1_555
Cr11 O43 1.853683 1_555
Cr11 O23 1.926969 1_455
Cr12 O37 2.001523 1_555
Cr12 O20 2.009706 1_555
Cr12 O41 2.044950 1_555
Cr12 O11 2.109293 1_555
Cr12 O38 2.119974 1_555
Cr12 O5 2.273508 1_555
Cr13 O31 1.818061 1_655
Cr13 O24 1.833521 1_555
Cr13 O36 1.930740 1_545
Cr13 O18 1.934103 1_555
Cr13 O8 1.943809 1_554
Cr14 O18 1.898346 1_565
Cr14 O25 1.906908 1_565
Cr14 O35 2.019367 1_655
Cr14 O34 2.029205 1_555
Cr14 O36 2.050642 1_555
Cr15 O37 1.783857 1_555
Cr15 O14 1.822489 1_565
Cr15 O22 1.866680 1_555
Cr15 O3 1.946690 1_565
Cr15 O38 2.071226 1_555
Fe0 O29 1.921141 1_555
Fe0 O15 1.995317 1_555
Fe0 O44 2.010987 1_555
Fe0 O31 2.046951 1_555
Fe0 O9 2.048832 1_555
Fe1 O39 1.901232 1_555
Fe1 O10 1.909324 1_554
Fe1 O2 2.032767 1_554
Fe1 O30 2.131274 1_555
Fe2 O18 1.889145 1_455
Fe2 O15 1.951039 1_555
Fe2 O32 2.148886 1_455
Fe2 O23 2.267088 1_455
Fe2 O4 2.473755 1_455
Fe3 O41 1.923744 1_555
Fe3 O34 1.943758 1_555
Fe3 O47 2.006537 1_555
Fe3 O22 2.041844 1_555
Fe3 O39 2.188086 1_555
Fe4 O47 1.866468 1_555
Fe4 O9 1.883168 1_555
Fe4 O16 1.933635 1_555
Fe4 O30 2.032424 1_555
Fe5 O40 1.963698 1_565
Fe5 O13 2.041534 1_554
Fe5 O34 2.070119 1_555
Fe5 O11 2.150218 1_554
Fe6 O44 1.961779 1_556
Fe6 O10 2.037842 1_455
Fe6 O7 2.048452 1_555
Fe6 O43 2.397029 1_555
Fe7 O13 2.043698 1_554
Fe7 O47 2.084315 1_555
Fe7 O28 2.133371 1_555
Fe7 O42 2.165664 1_555
Fe7 O44 2.340859 1_555
Fe8 O41 1.903173 1_555
Fe8 O5 1.999914 1_555
Fe8 O30 2.035943 1_555
Fe8 O0 2.050194 1_655
Fe8 O23 2.112681 1_555
Fe9 O24 2.016415 1_555
Fe9 O4 2.021095 1_555
Fe9 O6 2.041905 1_555
Fe9 O30 2.234895 1_555
Fe9 O40 2.762849 1_555
Fe10 O42 2.023112 1_555
Fe10 O15 2.024785 1_555
Fe10 O0 2.035108 1_555
Fe10 O44 2.181772 1_555
Fe10 O23 2.663450 1_455
Fe11 O45 1.961431 1_555
Fe11 O17 1.973451 1_545
Fe11 O35 2.020603 1_545
Fe11 O1 2.185987 1_545
Fe11 O14 2.662146 1_555
Fe12 O9 1.942547 1_555
Fe12 O45 1.967154 1_555
Fe12 O33 2.016398 1_555
Fe12 O12 2.040473 1_555
Fe12 O15 2.175277 1_555
Fe12 O16 2.468356 1_555
Fe13 O11 1.990733 1_555
Fe13 O36 1.999230 1_556
Fe13 O39 2.063976 1_556
Fe13 O20 2.116289 1_555
Fe14 O13 1.833325 1_555
Fe14 O11 1.933564 1_555
Fe14 O2 1.940026 1_555
Fe14 O38 1.961758 1_555
Fe15 O17 1.904429 1_645
Fe15 O8 1.939285 1_555
Fe15 O25 2.000522 1_555
Fe15 O20 2.116687 1_545
Fe15 O32 2.188531 1_555
Fe15 O37 2.620326 1_545
O3 O4 2.782910 1_555
O6 O9 2.550198 1_555
O13 O47 2.564381 1_556
O13 O46 2.565147 1_556
O14 O21 2.421032 1_555
O16 O33 2.554095 1_555
O16 O38 2.621043 1_555
O17 O27 2.406173 1_555
O25 O32 2.374926 1_555
O25 O37 2.438400 1_545
O27 O36 2.625965 1_456
O29 O46 2.409024 1_545
O32 O8 2.595072 1_555
O40 O46 2.460864 1_545
