# generated using pymatgen
data_Bi7I2
_symmetry_space_group_name_H-M   'P 1'
_cell_length_a   4.45171130
_cell_length_b   11.69710421
_cell_length_c   13.38370233
_cell_angle_alpha   87.15601965
_cell_angle_beta   90.00000000
_cell_angle_gamma   90.00000000
_symmetry_Int_Tables_number   1
_chemical_formula_structural   Bi7I2
_chemical_formula_sum   'Bi14 I4'
_cell_volume   696.05953920
_cell_formula_units_Z   2
loop_
 _symmetry_equiv_pos_site_id
 _symmetry_equiv_pos_as_xyz
  1  'x, y, z'
loop_
 _atom_site_type_symbol
 _atom_site_label
 _atom_site_symmetry_multiplicity
 _atom_site_fract_x
 _atom_site_fract_y
 _atom_site_fract_z
 _atom_site_occupancy
  Bi  Bi0  1  0.25000000  0.12811168  0.47530169  1
  Bi  Bi1  1  0.75000000  0.87188832  0.52469831  1
  Bi  Bi2  1  0.25000000  0.19561972  0.69303463  1
  Bi  Bi3  1  0.75000000  0.80438028  0.30696537  1
  Bi  Bi4  1  0.25000000  0.97277595  0.24894460  1
  Bi  Bi5  1  0.75000000  0.02722405  0.75105540  1
  Bi  Bi6  1  0.25000000  0.76295617  0.79657386  1
  Bi  Bi7  1  0.75000000  0.23704383  0.20342614  1
  Bi  Bi8  1  0.25000000  0.41134457  0.14980190  1
  Bi  Bi9  1  0.75000000  0.58865543  0.85019810  1
  Bi  Bi10  1  0.25000000  0.70101709  0.57940198  1
  Bi  Bi11  1  0.75000000  0.29898291  0.42059802  1
  Bi  Bi12  1  0.25000000  0.91555849  0.02731825  1
  Bi  Bi13  1  0.75000000  0.08444151  0.97268175  1
  I  I0  1  0.25000000  0.53996641  0.34972456  1
  I  I1  1  0.75000000  0.46003359  0.65027544  1
  I  I2  1  0.25000000  0.34849874  0.92927450  1
  I  I3  1  0.75000000  0.65150126  0.07072550  1
loop_
_geom_bond_atom_site_label_1
_geom_bond_atom_site_label_2
_geom_bond_distance
_geom_bond_site_symmetry_2
Bi0 Bi11 3.056149 1_455
Bi0 Bi11 3.056149 1_555
Bi0 Bi2 3.056748 1_555
Bi0 Bi4 3.609084 1_545
Bi0 Bi1 3.765278 1_545
Bi0 Bi1 3.765278 1_445
Bi1 Bi10 3.056149 1_655
Bi1 Bi10 3.056149 1_555
Bi1 Bi3 3.056748 1_555
Bi1 Bi5 3.609084 1_565
Bi2 Bi5 3.047218 1_455
Bi2 Bi5 3.047218 1_555
Bi2 I2 3.708857 1_555
Bi2 I1 3.830428 1_555
Bi2 I1 3.830428 1_455
Bi3 Bi4 3.047218 1_555
Bi3 Bi4 3.047218 1_655
Bi3 I3 3.708857 1_555
Bi3 I0 3.830428 1_655
Bi3 I0 3.830428 1_555
Bi4 Bi7 3.833278 1_565
Bi4 Bi7 3.833278 1_465
Bi5 Bi6 3.833278 1_645
Bi5 Bi6 3.833278 1_545
Bi6 Bi9 3.079135 1_455
Bi6 Bi9 3.079135 1_555
Bi7 Bi8 3.079135 1_655
Bi7 Bi8 3.079135 1_555
Bi8 I2 3.076831 1_554
Bi8 I0 3.134071 1_555
Bi8 I3 3.697397 1_555
Bi8 I3 3.697397 1_455
Bi9 I3 3.076831 1_556
Bi9 I1 3.134071 1_555
Bi9 I2 3.697397 1_655
Bi9 I2 3.697397 1_555
Bi10 Bi6 3.030180 1_555
Bi10 I1 3.678932 1_555
Bi10 I1 3.678932 1_455
Bi10 I0 3.684088 1_555
Bi11 Bi7 3.030180 1_555
Bi11 I0 3.678932 1_655
Bi11 I0 3.678932 1_555
Bi11 I1 3.684088 1_555
Bi12 Bi13 3.041081 1_564
Bi12 Bi13 3.041081 1_464
Bi12 Bi4 3.072973 1_555
Bi12 Bi6 3.642846 1_554
Bi12 I3 3.828051 1_455
Bi12 I3 3.828051 1_555
Bi13 Bi5 3.072973 1_555
Bi13 Bi7 3.642846 1_556
Bi13 I2 3.828051 1_555
Bi13 I2 3.828051 1_655
