# generated using pymatgen
data_Ho2CdCu2
_symmetry_space_group_name_H-M   'P 1'
_cell_length_a   14.86061358
_cell_length_b   14.86061358
_cell_length_c   7.39722368
_cell_angle_alpha   90.00000000
_cell_angle_beta   90.00000000
_cell_angle_gamma   90.00000000
_symmetry_Int_Tables_number   1
_chemical_formula_structural   Ho2CdCu2
_chemical_formula_sum   'Ho32 Cd16 Cu32'
_cell_volume   1633.58686971
_cell_formula_units_Z   16
loop_
 _symmetry_equiv_pos_site_id
 _symmetry_equiv_pos_as_xyz
  1  'x, y, z'
loop_
 _atom_site_type_symbol
 _atom_site_label
 _atom_site_symmetry_multiplicity
 _atom_site_fract_x
 _atom_site_fract_y
 _atom_site_fract_z
 _atom_site_occupancy
  Ho  Ho0_0  1  0.33730309  0.08730309  0.25000000  1
  Ho  Ho0_1  1  0.33730309  0.08730309  0.75000000  1
  Ho  Ho0_2  1  0.33730309  0.58730309  0.25000000  1
  Ho  Ho0_3  1  0.33730309  0.58730309  0.75000000  1
  Ho  Ho0_4  1  0.83730309  0.08730309  0.25000000  1
  Ho  Ho0_5  1  0.83730309  0.08730309  0.75000000  1
  Ho  Ho0_6  1  0.83730309  0.58730309  0.25000000  1
  Ho  Ho0_7  1  0.83730309  0.58730309  0.75000000  1
  Ho  Ho1_0  1  0.16269691  0.41269691  0.25000000  1
  Ho  Ho1_1  1  0.16269691  0.41269691  0.75000000  1
  Ho  Ho1_2  1  0.16269691  0.91269691  0.25000000  1
  Ho  Ho1_3  1  0.16269691  0.91269691  0.75000000  1
  Ho  Ho1_4  1  0.66269691  0.41269691  0.25000000  1
  Ho  Ho1_5  1  0.66269691  0.41269691  0.75000000  1
  Ho  Ho1_6  1  0.66269691  0.91269691  0.25000000  1
  Ho  Ho1_7  1  0.66269691  0.91269691  0.75000000  1
  Ho  Ho2_0  1  0.08730309  0.16269691  0.25000000  1
  Ho  Ho2_1  1  0.08730309  0.16269691  0.75000000  1
  Ho  Ho2_2  1  0.08730309  0.66269691  0.25000000  1
  Ho  Ho2_3  1  0.08730309  0.66269691  0.75000000  1
  Ho  Ho2_4  1  0.58730309  0.16269691  0.25000000  1
  Ho  Ho2_5  1  0.58730309  0.16269691  0.75000000  1
  Ho  Ho2_6  1  0.58730309  0.66269691  0.25000000  1
  Ho  Ho2_7  1  0.58730309  0.66269691  0.75000000  1
  Ho  Ho3_0  1  0.41269691  0.33730309  0.25000000  1
  Ho  Ho3_1  1  0.41269691  0.33730309  0.75000000  1
  Ho  Ho3_2  1  0.41269691  0.83730309  0.25000000  1
  Ho  Ho3_3  1  0.41269691  0.83730309  0.75000000  1
  Ho  Ho3_4  1  0.91269691  0.33730309  0.25000000  1
  Ho  Ho3_5  1  0.91269691  0.33730309  0.75000000  1
  Ho  Ho3_6  1  0.91269691  0.83730309  0.25000000  1
  Ho  Ho3_7  1  0.91269691  0.83730309  0.75000000  1
  Cd  Cd0_0  1  0.00000000  0.00000000  0.00000000  1
  Cd  Cd0_1  1  0.00000000  0.00000000  0.50000000  1
  Cd  Cd0_2  1  0.00000000  0.50000000  0.00000000  1
  Cd  Cd0_3  1  0.00000000  0.50000000  0.50000000  1
  Cd  Cd0_4  1  0.50000000  0.00000000  0.00000000  1
  Cd  Cd0_5  1  0.50000000  0.00000000  0.50000000  1
  Cd  Cd0_6  1  0.50000000  0.50000000  0.00000000  1
  Cd  Cd0_7  1  0.50000000  0.50000000  0.50000000  1
  Cd  Cd1_0  1  0.25000000  0.25000000  0.00000000  1
  Cd  Cd1_1  1  0.25000000  0.25000000  0.50000000  1
  Cd  Cd1_2  1  0.25000000  0.75000000  0.00000000  1
  Cd  Cd1_3  1  0.25000000  0.75000000  0.50000000  1
  Cd  Cd1_4  1  0.75000000  0.25000000  0.00000000  1
  Cd  Cd1_5  1  0.75000000  0.25000000  0.50000000  1
  Cd  Cd1_6  1  0.75000000  0.75000000  0.00000000  1
  Cd  Cd1_7  1  0.75000000  0.75000000  0.50000000  1
  Cu  Cu0_0  1  0.06007025  0.31007025  0.00000000  1
  Cu  Cu0_1  1  0.06007025  0.31007025  0.50000000  1
  Cu  Cu0_2  1  0.06007025  0.81007025  0.00000000  1
  Cu  Cu0_3  1  0.06007025  0.81007025  0.50000000  1
  Cu  Cu0_4  1  0.56007025  0.31007025  0.00000000  1
  Cu  Cu0_5  1  0.56007025  0.31007025  0.50000000  1
  Cu  Cu0_6  1  0.56007025  0.81007025  0.00000000  1
  Cu  Cu0_7  1  0.56007025  0.81007025  0.50000000  1
  Cu  Cu1_0  1  0.43992975  0.18992975  0.00000000  1
  Cu  Cu1_1  1  0.43992975  0.18992975  0.50000000  1
  Cu  Cu1_2  1  0.43992975  0.68992975  0.00000000  1
  Cu  Cu1_3  1  0.43992975  0.68992975  0.50000000  1
  Cu  Cu1_4  1  0.93992975  0.18992975  0.00000000  1
  Cu  Cu1_5  1  0.93992975  0.18992975  0.50000000  1
  Cu  Cu1_6  1  0.93992975  0.68992975  0.00000000  1
  Cu  Cu1_7  1  0.93992975  0.68992975  0.50000000  1
  Cu  Cu2_0  1  0.31007025  0.43992975  0.00000000  1
  Cu  Cu2_1  1  0.31007025  0.43992975  0.50000000  1
  Cu  Cu2_2  1  0.31007025  0.93992975  0.00000000  1
  Cu  Cu2_3  1  0.31007025  0.93992975  0.50000000  1
  Cu  Cu2_4  1  0.81007025  0.43992975  0.00000000  1
  Cu  Cu2_5  1  0.81007025  0.43992975  0.50000000  1
  Cu  Cu2_6  1  0.81007025  0.93992975  0.00000000  1
  Cu  Cu2_7  1  0.81007025  0.93992975  0.50000000  1
  Cu  Cu3_0  1  0.18992975  0.06007025  0.00000000  1
  Cu  Cu3_1  1  0.18992975  0.06007025  0.50000000  1
  Cu  Cu3_2  1  0.18992975  0.56007025  0.00000000  1
  Cu  Cu3_3  1  0.18992975  0.56007025  0.50000000  1
  Cu  Cu3_4  1  0.68992975  0.06007025  0.00000000  1
  Cu  Cu3_5  1  0.68992975  0.06007025  0.50000000  1
  Cu  Cu3_6  1  0.68992975  0.56007025  0.00000000  1
  Cu  Cu3_7  1  0.68992975  0.56007025  0.50000000  1
loop_
_geom_bond_atom_site_label_1
_geom_bond_atom_site_label_2
_geom_bond_distance
_geom_bond_site_symmetry_2
Cd0_0 Cu3_0 2.960275 1_555
Cd0_0 Cu1_4 2.960275 1_455
Cd0_0 Cu0_2 2.960275 1_545
Cd0_0 Cu2_6 2.960275 1_445
Cd0_0 Ho2_1 3.308891 1_554
Cd0_0 Ho1_3 3.308891 1_544
Cd0_0 Ho0_5 3.308891 1_454
Cd0_0 Ho3_7 3.308891 1_444
Cd0_0 Ho0_4 3.308891 1_455
Cd0_0 Ho1_2 3.308891 1_545
Cd0_0 Ho2_0 3.308891 1_555
Cd0_0 Ho3_6 3.308891 1_445
Cd0_0 Cd0_1 3.698612 1_555
Cd0_0 Cd0_1 3.698612 1_554
Cd0_1 Cu3_1 2.960275 1_555
Cd0_1 Cu1_5 2.960275 1_455
Cd0_1 Cu0_3 2.960275 1_545
Cd0_1 Cu2_7 2.960275 1_445
Cd0_1 Ho0_4 3.308891 1_455
Cd0_1 Ho1_2 3.308891 1_545
Cd0_1 Ho2_0 3.308891 1_555
Cd0_1 Ho2_1 3.308891 1_555
Cd0_1 Ho1_3 3.308891 1_545
Cd0_1 Ho3_6 3.308891 1_445
Cd0_1 Ho3_7 3.308891 1_445
Cd0_1 Ho0_5 3.308891 1_455
Cd0_2 Cu3_2 2.960275 1_555
Cd0_2 Cu1_6 2.960275 1_455
Cd0_2 Cu0_0 2.960275 1_555
Cd0_2 Cu2_4 2.960275 1_455
Cd0_2 Ho3_5 3.308891 1_454
Cd0_2 Ho0_7 3.308891 1_454
Cd0_2 Ho1_1 3.308891 1_554
Cd0_2 Ho2_3 3.308891 1_554
Cd0_2 Ho0_6 3.308891 1_455
Cd0_2 Ho1_0 3.308891 1_555
Cd0_2 Ho2_2 3.308891 1_555
Cd0_2 Ho3_4 3.308891 1_455
Cd0_2 Cd0_3 3.698612 1_555
Cd0_2 Cd0_3 3.698612 1_554
Cd0_3 Cu3_3 2.960275 1_555
Cd0_3 Cu1_7 2.960275 1_455
Cd0_3 Cu0_1 2.960275 1_555
Cd0_3 Cu2_5 2.960275 1_455
Cd0_3 Ho1_0 3.308891 1_555
Cd0_3 Ho0_6 3.308891 1_455
Cd0_3 Ho1_1 3.308891 1_555
Cd0_3 Ho2_2 3.308891 1_555
Cd0_3 Ho3_4 3.308891 1_455
Cd0_3 Ho3_5 3.308891 1_455
Cd0_3 Ho0_7 3.308891 1_455
Cd0_3 Ho2_3 3.308891 1_555
Cd0_4 Cu3_4 2.960275 1_555
Cd0_4 Cu1_0 2.960275 1_555
Cd0_4 Cu0_6 2.960275 1_545
Cd0_4 Cu2_2 2.960275 1_545
Cd0_4 Ho0_1 3.308891 1_554
Cd0_4 Ho2_5 3.308891 1_554
Cd0_4 Ho3_3 3.308891 1_544
Cd0_4 Ho1_7 3.308891 1_544
Cd0_4 Ho0_0 3.308891 1_555
Cd0_4 Ho1_6 3.308891 1_545
Cd0_4 Ho2_4 3.308891 1_555
Cd0_4 Ho3_2 3.308891 1_545
Cd0_4 Cd0_5 3.698612 1_555
Cd0_4 Cd0_5 3.698612 1_554
Cd0_5 Cu3_5 2.960275 1_555
Cd0_5 Cu1_1 2.960275 1_555
Cd0_5 Cu0_7 2.960275 1_545
Cd0_5 Cu2_3 2.960275 1_545
Cd0_5 Ho1_6 3.308891 1_545
Cd0_5 Ho0_0 3.308891 1_555
Cd0_5 Ho2_4 3.308891 1_555
Cd0_5 Ho3_2 3.308891 1_545
Cd0_5 Ho0_1 3.308891 1_555
Cd0_5 Ho3_3 3.308891 1_545
Cd0_5 Ho2_5 3.308891 1_555
Cd0_5 Ho1_7 3.308891 1_545
Cd0_6 Cu3_6 2.960275 1_555
Cd0_6 Cu1_2 2.960275 1_555
Cd0_6 Cu0_4 2.960275 1_555
Cd0_6 Cu2_0 2.960275 1_555
Cd0_6 Ho2_7 3.308891 1_554
Cd0_6 Ho1_5 3.308891 1_554
Cd0_6 Ho0_3 3.308891 1_554
Cd0_6 Ho3_1 3.308891 1_554
Cd0_6 Ho1_4 3.308891 1_555
Cd0_6 Ho0_2 3.308891 1_555
Cd0_6 Ho3_0 3.308891 1_555
Cd0_6 Ho2_6 3.308891 1_555
Cd0_6 Cd0_7 3.698612 1_554
Cd0_6 Cd0_7 3.698612 1_555
Cd0_7 Cu3_7 2.960275 1_555
Cd0_7 Cu1_3 2.960275 1_555
Cd0_7 Cu0_5 2.960275 1_555
Cd0_7 Cu2_1 2.960275 1_555
Cd0_7 Ho1_4 3.308891 1_555
Cd0_7 Ho0_2 3.308891 1_555
Cd0_7 Ho1_5 3.308891 1_555
Cd0_7 Ho2_7 3.308891 1_555
Cd0_7 Ho3_1 3.308891 1_555
Cd0_7 Ho3_0 3.308891 1_555
Cd0_7 Ho0_3 3.308891 1_555
Cd0_7 Ho2_6 3.308891 1_555
Cd1_0 Cu2_0 2.960275 1_555
Cd1_0 Cu1_0 2.960275 1_555
Cd1_0 Cu0_0 2.960275 1_555
Cd1_0 Cu3_0 2.960275 1_555
Cd1_0 Ho0_1 3.308891 1_554
Cd1_0 Ho2_1 3.308891 1_554
Cd1_0 Ho1_1 3.308891 1_554
Cd1_0 Ho3_1 3.308891 1_554
Cd1_0 Ho2_0 3.308891 1_555
Cd1_0 Ho3_0 3.308891 1_555
Cd1_0 Ho1_0 3.308891 1_555
Cd1_0 Ho0_0 3.308891 1_555
Cd1_0 Cd1_1 3.698612 1_555
Cd1_0 Cd1_1 3.698612 1_554
Cd1_1 Cu2_1 2.960275 1_555
Cd1_1 Cu1_1 2.960275 1_555
Cd1_1 Cu0_1 2.960275 1_555
Cd1_1 Cu3_1 2.960275 1_555
Cd1_1 Ho2_0 3.308891 1_555
Cd1_1 Ho3_0 3.308891 1_555
Cd1_1 Ho3_1 3.308891 1_555
Cd1_1 Ho1_0 3.308891 1_555
Cd1_1 Ho0_0 3.308891 1_555
Cd1_1 Ho1_1 3.308891 1_555
Cd1_1 Ho0_1 3.308891 1_555
Cd1_1 Ho2_1 3.308891 1_555
Cd1_2 Cu2_2 2.960275 1_555
Cd1_2 Cu1_2 2.960275 1_555
Cd1_2 Cu0_2 2.960275 1_555
Cd1_2 Cu3_2 2.960275 1_555
Cd1_2 Ho1_3 3.308891 1_554
Cd1_2 Ho1_2 3.308891 1_555
Cd1_2 Ho3_3 3.308891 1_554
Cd1_2 Ho3_2 3.308891 1_555
Cd1_2 Ho2_3 3.308891 1_554
Cd1_2 Ho0_3 3.308891 1_554
Cd1_2 Ho2_2 3.308891 1_555
Cd1_2 Ho0_2 3.308891 1_555
Cd1_2 Cd1_3 3.698612 1_554
Cd1_2 Cd1_3 3.698612 1_555
Cd1_3 Cu2_3 2.960275 1_555
Cd1_3 Cu1_3 2.960275 1_555
Cd1_3 Cu0_3 2.960275 1_555
Cd1_3 Cu3_3 2.960275 1_555
Cd1_3 Ho1_3 3.308891 1_555
Cd1_3 Ho1_2 3.308891 1_555
Cd1_3 Ho3_2 3.308891 1_555
Cd1_3 Ho3_3 3.308891 1_555
Cd1_3 Ho2_2 3.308891 1_555
Cd1_3 Ho0_2 3.308891 1_555
Cd1_3 Ho2_3 3.308891 1_555
Cd1_3 Ho0_3 3.308891 1_555
Cd1_4 Cu2_4 2.960275 1_555
Cd1_4 Cu1_4 2.960275 1_555
Cd1_4 Cu0_4 2.960275 1_555
Cd1_4 Cu3_4 2.960275 1_555
Cd1_4 Ho3_5 3.308891 1_554
Cd1_4 Ho3_4 3.308891 1_555
Cd1_4 Ho0_5 3.308891 1_554
Cd1_4 Ho0_4 3.308891 1_555
Cd1_4 Ho1_5 3.308891 1_554
Cd1_4 Ho1_4 3.308891 1_555
Cd1_4 Ho2_5 3.308891 1_554
Cd1_4 Ho2_4 3.308891 1_555
Cd1_4 Cd1_5 3.698612 1_554
Cd1_4 Cd1_5 3.698612 1_555
Cd1_5 Cu2_5 2.960275 1_555
Cd1_5 Cu1_5 2.960275 1_555
Cd1_5 Cu0_5 2.960275 1_555
Cd1_5 Cu3_5 2.960275 1_555
Cd1_5 Ho3_5 3.308891 1_555
Cd1_5 Ho3_4 3.308891 1_555
Cd1_5 Ho0_4 3.308891 1_555
Cd1_5 Ho0_5 3.308891 1_555
Cd1_5 Ho1_4 3.308891 1_555
Cd1_5 Ho1_5 3.308891 1_555
Cd1_5 Ho2_4 3.308891 1_555
Cd1_5 Ho2_5 3.308891 1_555
Cd1_6 Cu2_6 2.960275 1_555
Cd1_6 Cu1_6 2.960275 1_555
Cd1_6 Cu0_6 2.960275 1_555
Cd1_6 Cu3_6 2.960275 1_555
Cd1_6 Ho3_7 3.308891 1_554
Cd1_6 Ho3_6 3.308891 1_555
Cd1_6 Ho1_7 3.308891 1_554
Cd1_6 Ho1_6 3.308891 1_555
Cd1_6 Ho0_7 3.308891 1_554
Cd1_6 Ho0_6 3.308891 1_555
Cd1_6 Ho2_7 3.308891 1_554
Cd1_6 Ho2_6 3.308891 1_555
Cd1_6 Cd1_7 3.698612 1_555
Cd1_6 Cd1_7 3.698612 1_554
Cd1_7 Cu2_7 2.960275 1_555
Cd1_7 Cu1_7 2.960275 1_555
Cd1_7 Cu0_7 2.960275 1_555
Cd1_7 Cu3_7 2.960275 1_555
Cd1_7 Ho3_6 3.308891 1_555
Cd1_7 Ho3_7 3.308891 1_555
Cd1_7 Ho1_6 3.308891 1_555
Cd1_7 Ho1_7 3.308891 1_555
Cd1_7 Ho0_6 3.308891 1_555
Cd1_7 Ho0_7 3.308891 1_555
Cd1_7 Ho2_6 3.308891 1_555
Cd1_7 Ho2_7 3.308891 1_555
Cu0_0 Cu1_4 2.524883 1_455
Cu0_0 Ho1_1 2.841085 1_554
Cu0_0 Ho1_0 2.841085 1_555
Cu0_0 Ho2_1 2.894835 1_554
Cu0_0 Ho3_5 2.894835 1_454
Cu0_0 Ho3_4 2.894835 1_455
Cu0_0 Ho2_0 2.894835 1_555
Cu0_1 Cu1_5 2.524883 1_455
Cu0_1 Ho1_0 2.841085 1_555
Cu0_1 Ho1_1 2.841085 1_555
Cu0_1 Ho2_1 2.894835 1_555
Cu0_1 Ho3_4 2.894835 1_455
Cu0_1 Ho3_5 2.894835 1_455
Cu0_1 Ho2_0 2.894835 1_555
Cu0_2 Cu1_6 2.524883 1_455
Cu0_2 Ho1_3 2.841085 1_554
Cu0_2 Ho1_2 2.841085 1_555
Cu0_2 Ho3_7 2.894835 1_454
Cu0_2 Ho2_3 2.894835 1_554
Cu0_2 Ho2_2 2.894835 1_555
Cu0_2 Ho3_6 2.894835 1_455
Cu0_3 Cu1_7 2.524883 1_455
Cu0_3 Ho1_2 2.841085 1_555
Cu0_3 Ho1_3 2.841085 1_555
Cu0_3 Ho2_2 2.894835 1_555
Cu0_3 Ho2_3 2.894835 1_555
Cu0_3 Ho3_6 2.894835 1_455
Cu0_3 Ho3_7 2.894835 1_455
Cu0_4 Cu1_0 2.524883 1_555
Cu0_4 Ho1_5 2.841085 1_554
Cu0_4 Ho1_4 2.841085 1_555
Cu0_4 Ho2_5 2.894835 1_554
Cu0_4 Ho3_1 2.894835 1_554
Cu0_4 Ho2_4 2.894835 1_555
Cu0_4 Ho3_0 2.894835 1_555
Cu0_5 Cu1_1 2.524883 1_555
Cu0_5 Ho1_4 2.841085 1_555
Cu0_5 Ho1_5 2.841085 1_555
Cu0_5 Ho2_4 2.894835 1_555
Cu0_5 Ho3_0 2.894835 1_555
Cu0_5 Ho2_5 2.894835 1_555
Cu0_5 Ho3_1 2.894835 1_555
Cu0_6 Cu1_2 2.524883 1_555
Cu0_6 Ho1_7 2.841085 1_554
Cu0_6 Ho1_6 2.841085 1_555
Cu0_6 Ho2_7 2.894835 1_554
Cu0_6 Ho3_3 2.894835 1_554
Cu0_6 Ho3_2 2.894835 1_555
Cu0_6 Ho2_6 2.894835 1_555
Cu0_7 Cu1_3 2.524883 1_555
Cu0_7 Ho1_6 2.841085 1_555
Cu0_7 Ho1_7 2.841085 1_555
Cu0_7 Ho3_3 2.894835 1_555
Cu0_7 Ho3_2 2.894835 1_555
Cu0_7 Ho2_6 2.894835 1_555
Cu0_7 Ho2_7 2.894835 1_555
Cu1_0 Ho0_1 2.841085 1_554
Cu1_0 Ho0_0 2.841085 1_555
Cu1_0 Ho2_5 2.894835 1_554
Cu1_0 Ho3_1 2.894835 1_554
Cu1_0 Ho3_0 2.894835 1_555
Cu1_0 Ho2_4 2.894835 1_555
Cu1_1 Ho0_0 2.841085 1_555
Cu1_1 Ho0_1 2.841085 1_555
Cu1_1 Ho3_0 2.894835 1_555
Cu1_1 Ho2_4 2.894835 1_555
Cu1_1 Ho2_5 2.894835 1_555
Cu1_1 Ho3_1 2.894835 1_555
Cu1_2 Ho0_3 2.841085 1_554
Cu1_2 Ho0_2 2.841085 1_555
Cu1_2 Ho3_3 2.894835 1_554
Cu1_2 Ho3_2 2.894835 1_555
Cu1_2 Ho2_7 2.894835 1_554
Cu1_2 Ho2_6 2.894835 1_555
Cu1_3 Ho0_2 2.841085 1_555
Cu1_3 Ho0_3 2.841085 1_555
Cu1_3 Ho3_3 2.894835 1_555
Cu1_3 Ho3_2 2.894835 1_555
Cu1_3 Ho2_6 2.894835 1_555
Cu1_3 Ho2_7 2.894835 1_555
Cu1_4 Ho0_5 2.841085 1_554
Cu1_4 Ho0_4 2.841085 1_555
Cu1_4 Ho2_1 2.894835 1_654
Cu1_4 Ho3_5 2.894835 1_554
Cu1_4 Ho2_0 2.894835 1_655
Cu1_4 Ho3_4 2.894835 1_555
Cu1_5 Ho0_4 2.841085 1_555
Cu1_5 Ho0_5 2.841085 1_555
Cu1_5 Ho2_1 2.894835 1_655
Cu1_5 Ho2_0 2.894835 1_655
Cu1_5 Ho3_4 2.894835 1_555
Cu1_5 Ho3_5 2.894835 1_555
Cu1_6 Ho0_7 2.841085 1_554
Cu1_6 Ho0_6 2.841085 1_555
Cu1_6 Ho2_3 2.894835 1_654
Cu1_6 Ho3_7 2.894835 1_554
Cu1_6 Ho2_2 2.894835 1_655
Cu1_6 Ho3_6 2.894835 1_555
Cu1_7 Ho0_6 2.841085 1_555
Cu1_7 Ho0_7 2.841085 1_555
Cu1_7 Ho2_2 2.894835 1_655
Cu1_7 Ho3_6 2.894835 1_555
Cu1_7 Ho2_3 2.894835 1_655
Cu1_7 Ho3_7 2.894835 1_555
Cu2_0 Cu3_2 2.524883 1_555
Cu2_0 Ho3_1 2.841085 1_554
Cu2_0 Ho3_0 2.841085 1_555
Cu2_0 Ho1_1 2.894835 1_554
Cu2_0 Ho1_0 2.894835 1_555
Cu2_0 Ho0_3 2.894835 1_554
Cu2_0 Ho0_2 2.894835 1_555
Cu2_1 Cu3_3 2.524883 1_555
Cu2_1 Ho3_0 2.841085 1_555
Cu2_1 Ho3_1 2.841085 1_555
Cu2_1 Ho1_0 2.894835 1_555
Cu2_1 Ho1_1 2.894835 1_555
Cu2_1 Ho0_2 2.894835 1_555
Cu2_1 Ho0_3 2.894835 1_555
Cu2_2 Cu3_0 2.524883 1_565
Cu2_2 Ho3_3 2.841085 1_554
Cu2_2 Ho3_2 2.841085 1_555
Cu2_2 Ho1_3 2.894835 1_554
Cu2_2 Ho1_2 2.894835 1_555
Cu2_2 Ho0_1 2.894835 1_564
Cu2_2 Ho0_0 2.894835 1_565
Cu2_3 Cu3_1 2.524883 1_565
Cu2_3 Ho3_2 2.841085 1_555
Cu2_3 Ho3_3 2.841085 1_555
Cu2_3 Ho1_3 2.894835 1_555
Cu2_3 Ho1_2 2.894835 1_555
Cu2_3 Ho0_0 2.894835 1_565
Cu2_3 Ho0_1 2.894835 1_565
Cu2_4 Cu3_6 2.524883 1_555
Cu2_4 Ho3_5 2.841085 1_554
Cu2_4 Ho3_4 2.841085 1_555
Cu2_4 Ho1_5 2.894835 1_554
Cu2_4 Ho1_4 2.894835 1_555
Cu2_4 Ho0_7 2.894835 1_554
Cu2_4 Ho0_6 2.894835 1_555
Cu2_5 Cu3_7 2.524883 1_555
Cu2_5 Ho3_4 2.841085 1_555
Cu2_5 Ho3_5 2.841085 1_555
Cu2_5 Ho1_5 2.894835 1_555
Cu2_5 Ho1_4 2.894835 1_555
Cu2_5 Ho0_6 2.894835 1_555
Cu2_5 Ho0_7 2.894835 1_555
Cu2_6 Cu3_4 2.524883 1_565
Cu2_6 Ho3_7 2.841085 1_554
Cu2_6 Ho3_6 2.841085 1_555
Cu2_6 Ho1_7 2.894835 1_554
Cu2_6 Ho1_6 2.894835 1_555
Cu2_6 Ho0_5 2.894835 1_564
Cu2_6 Ho0_4 2.894835 1_565
Cu2_7 Cu3_5 2.524883 1_565
Cu2_7 Ho3_6 2.841085 1_555
Cu2_7 Ho3_7 2.841085 1_555
Cu2_7 Ho1_7 2.894835 1_555
Cu2_7 Ho1_6 2.894835 1_555
Cu2_7 Ho0_4 2.894835 1_565
Cu2_7 Ho0_5 2.894835 1_565
Cu3_0 Ho2_1 2.841085 1_554
Cu3_0 Ho2_0 2.841085 1_555
Cu3_0 Ho1_3 2.894835 1_544
Cu3_0 Ho1_2 2.894835 1_545
Cu3_0 Ho0_1 2.894835 1_554
Cu3_0 Ho0_0 2.894835 1_555
Cu3_1 Ho2_0 2.841085 1_555
Cu3_1 Ho2_1 2.841085 1_555
Cu3_1 Ho1_2 2.894835 1_545
Cu3_1 Ho1_3 2.894835 1_545
Cu3_1 Ho0_0 2.894835 1_555
Cu3_1 Ho0_1 2.894835 1_555
Cu3_2 Ho2_3 2.841085 1_554
Cu3_2 Ho2_2 2.841085 1_555
Cu3_2 Ho1_1 2.894835 1_554
Cu3_2 Ho1_0 2.894835 1_555
Cu3_2 Ho0_3 2.894835 1_554
Cu3_2 Ho0_2 2.894835 1_555
Cu3_3 Ho2_2 2.841085 1_555
Cu3_3 Ho2_3 2.841085 1_555
Cu3_3 Ho1_0 2.894835 1_555
Cu3_3 Ho1_1 2.894835 1_555
Cu3_3 Ho0_2 2.894835 1_555
Cu3_3 Ho0_3 2.894835 1_555
Cu3_4 Ho2_5 2.841085 1_554
Cu3_4 Ho2_4 2.841085 1_555
Cu3_4 Ho1_7 2.894835 1_544
Cu3_4 Ho1_6 2.894835 1_545
Cu3_4 Ho0_5 2.894835 1_554
Cu3_4 Ho0_4 2.894835 1_555
Cu3_5 Ho2_4 2.841085 1_555
Cu3_5 Ho2_5 2.841085 1_555
Cu3_5 Ho1_6 2.894835 1_545
Cu3_5 Ho1_7 2.894835 1_545
Cu3_5 Ho0_4 2.894835 1_555
Cu3_5 Ho0_5 2.894835 1_555
Cu3_6 Ho2_7 2.841085 1_554
Cu3_6 Ho2_6 2.841085 1_555
Cu3_6 Ho1_5 2.894835 1_554
Cu3_6 Ho1_4 2.894835 1_555
Cu3_6 Ho0_7 2.894835 1_554
Cu3_6 Ho0_6 2.894835 1_555
Cu3_7 Ho2_6 2.841085 1_555
Cu3_7 Ho2_7 2.841085 1_555
Cu3_7 Ho1_5 2.894835 1_555
Cu3_7 Ho1_4 2.894835 1_555
Cu3_7 Ho0_7 2.894835 1_555
Cu3_7 Ho0_6 2.894835 1_555
