# generated using pymatgen
data_Er2Ge6Pt
_symmetry_space_group_name_H-M   'P 1'
_cell_length_a   4.06163600
_cell_length_b   4.08531500
_cell_length_c   11.14971629
_cell_angle_alpha   90.00000000
_cell_angle_beta   100.49447897
_cell_angle_gamma   90.00000000
_symmetry_Int_Tables_number   1
_chemical_formula_structural   Er2Ge6Pt
_chemical_formula_sum   'Er2 Ge6 Pt1'
_cell_volume   181.91321187
_cell_formula_units_Z   1
loop_
 _symmetry_equiv_pos_site_id
 _symmetry_equiv_pos_as_xyz
  1  'x, y, z'
loop_
 _atom_site_type_symbol
 _atom_site_label
 _atom_site_symmetry_multiplicity
 _atom_site_fract_x
 _atom_site_fract_y
 _atom_site_fract_z
 _atom_site_occupancy
  Er  Er0  1  0.77781300  0.50000000  0.55562500  1
  Er  Er1  1  0.11704900  0.50000000  0.23409700  1
  Ge  Ge0  1  0.49306000  0.50000000  0.98611900  1
  Ge  Ge1  1  0.37878300  0.50000000  0.75756600  1
  Ge  Ge2  1  0.99207500  0.00000000  0.98415000  1
  Ge  Ge3  1  0.87754500  0.00000000  0.75509000  1
  Ge  Ge4  1  0.67011300  0.00000000  0.34022600  1
  Ge  Ge5  1  0.24086000  0.00000000  0.48172000  1
  Pt  Pt0  1  0.55970300  0.00000000  0.11940700  1
loop_
_geom_bond_atom_site_label_1
_geom_bond_atom_site_label_2
_geom_bond_distance
_geom_bond_site_symmetry_2
Er0 Ge5 2.992181 1_665
Er0 Ge5 2.992181 1_655
Er0 Ge5 2.992183 1_555
Er0 Ge5 2.992183 1_565
Er0 Ge3 2.992397 1_555
Er0 Ge3 2.992397 1_565
Er0 Ge1 3.004274 1_655
Er0 Ge1 3.004277 1_555
Er0 Ge4 3.122333 1_555
Er0 Ge4 3.122333 1_565
Er1 Ge4 3.106514 1_555
Er1 Ge4 3.106514 1_565
Er1 Ge4 3.106517 1_455
Er1 Ge4 3.106517 1_465
Er1 Pt0 3.142871 1_555
Er1 Pt0 3.142871 1_565
Er1 Pt0 3.142876 1_465
Er1 Pt0 3.142876 1_455
Er1 Ge0 3.393405 1_454
Er1 Ge0 3.393405 1_554
Er1 Ge5 3.397393 1_555
Er1 Ge5 3.397393 1_565
Er1 Ge2 3.417786 1_454
Er1 Ge2 3.417786 1_464
Ge0 Ge1 2.505674 1_555
Ge0 Pt0 2.511522 1_556
Ge0 Pt0 2.511522 1_566
Ge0 Ge2 2.880474 1_555
Ge0 Ge2 2.880474 1_565
Ge0 Ge2 2.880477 1_465
Ge0 Ge2 2.880477 1_455
Ge1 Ge3 2.880522 1_565
Ge1 Ge3 2.880522 1_555
Ge1 Ge3 2.880522 1_465
Ge1 Ge3 2.880522 1_455
Ge2 Ge3 2.511233 1_555
Ge2 Pt0 2.514570 1_656
Ge2 Pt0 2.514573 1_556
Ge4 Pt0 2.420885 1_555
Ge4 Ge5 2.555490 1_555
Ge4 Ge5 2.555490 1_655
