# generated using pymatgen
data_Mg3H12SeO9
_symmetry_space_group_name_H-M   'P 1'
_cell_length_a   8.91055400
_cell_length_b   10.27084566
_cell_length_c   10.62936603
_cell_angle_alpha   86.25596687
_cell_angle_beta   67.46160560
_cell_angle_gamma   82.87642632
_symmetry_Int_Tables_number   1
_chemical_formula_structural   Mg3H12SeO9
_chemical_formula_sum   'Mg3 H12 Se1 O9'
_cell_volume   891.38643537
_cell_formula_units_Z   1
loop_
 _symmetry_equiv_pos_site_id
 _symmetry_equiv_pos_as_xyz
  1  'x, y, z'
loop_
 _atom_site_type_symbol
 _atom_site_label
 _atom_site_symmetry_multiplicity
 _atom_site_fract_x
 _atom_site_fract_y
 _atom_site_fract_z
 _atom_site_occupancy
  Mg  Mg0  1  0.89885300  0.43991500  0.95649700  1
  Mg  Mg1  1  0.99291600  0.99820300  0.48045100  1
  Mg  Mg2  1  0.48486400  0.00857900  0.51058200  1
  H  H0  1  0.92100800  0.26916500  0.09286700  1
  H  H1  1  0.86985500  0.18803500  0.79340200  1
  H  H2  1  0.69849900  0.10186500  0.15361500  1
  H  H3  1  0.51581300  0.08101200  0.19130500  1
  H  H4  1  0.69699400  0.47706400  0.20685500  1
  H  H5  1  0.96799100  0.19739300  0.63980200  1
  H  H6  1  0.54105600  0.28571900  0.28673000  1
  H  H7  1  0.93322800  0.37638900  0.72645300  1
  H  H8  1  0.57800100  0.12916900  0.97691100  1
  H  H9  1  0.54023700  0.31284800  0.42859800  1
  H  H10  1  0.94530500  0.53804700  0.70011100  1
  H  H11  1  0.66488900  0.02907300  0.86577400  1
  Se  Se0  1  0.01422100  0.06201900  0.97530300  1
  O  O0  1  0.92221300  0.04812600  0.86696400  1
  O  O1  1  0.88535300  0.03087900  0.13321000  1
  O  O2  1  0.97833500  0.25888600  0.99353400  1
  O  O3  1  0.52094100  0.35689100  0.35135000  1
  O  O4  1  0.95370300  0.46535900  0.76083300  1
  O  O5  1  0.56469900  0.08855400  0.90130000  1
  O  O6  1  0.79688800  0.49413400  0.13085600  1
  O  O7  1  0.88699900  0.25120800  0.71373200  1
  O  O8  1  0.58905000  0.14956000  0.16296500  1
loop_
_geom_bond_atom_site_label_1
_geom_bond_atom_site_label_2
_geom_bond_distance
_geom_bond_site_symmetry_2
Mg0 O6 1.813520 1_556
Mg0 O4 1.952978 1_555
Mg0 O2 1.976156 1_555
Mg1 Mg2 4.402408 1_565
Mg1 Mg2 4.530545 1_665
H0 O2 0.987224 1_554
H1 O7 1.007533 1_555
H1 O0 1.691335 1_555
H2 O8 1.007238 1_555
H2 O1 1.671372 1_555
H3 O8 0.973571 1_555
H3 Mg2 3.339234 1_555
H4 O6 0.971901 1_555
H5 O7 0.983308 1_555
H5 Mg1 2.674933 1_545
H5 Mg2 4.488019 1_655
H6 O3 0.988419 1_555
H7 O4 1.066737 1_555
H7 O7 1.427511 1_555
H8 O5 0.981360 1_555
H9 O3 0.974074 1_555
H9 Mg2 3.235159 1_555
H10 O4 0.969428 1_555
H11 O5 0.974290 1_555
H11 O0 2.330169 1_555
O0 Se0 1.671186 1_655
O1 Se0 1.667790 1_654
O2 Se0 2.017810 1_655
