# generated using pymatgen
data_Li2MnO2F
_symmetry_space_group_name_H-M   'P 1'
_cell_length_a   5.12464247
_cell_length_b   11.07471038
_cell_length_c   5.12582736
_cell_angle_alpha   89.36289496
_cell_angle_beta   53.63352844
_cell_angle_gamma   100.21248276
_symmetry_Int_Tables_number   1
_chemical_formula_structural   Li2MnO2F
_chemical_formula_sum   'Li8 Mn4 O8 F4'
_cell_volume   228.04820116
_cell_formula_units_Z   4
loop_
 _symmetry_equiv_pos_site_id
 _symmetry_equiv_pos_as_xyz
  1  'x, y, z'
loop_
 _atom_site_type_symbol
 _atom_site_label
 _atom_site_symmetry_multiplicity
 _atom_site_fract_x
 _atom_site_fract_y
 _atom_site_fract_z
 _atom_site_occupancy
  Li  Li0  1  0.84943400  0.54471500  0.34212300  1
  Li  Li1  1  0.34986300  0.04477000  0.34151000  1
  Li  Li2  1  0.63698600  0.29417500  0.30476600  1
  Li  Li3  1  0.13696900  0.79420600  0.30480500  1
  Li  Li4  1  0.86304800  0.20582800  0.69521500  1
  Li  Li5  1  0.36303000  0.70578100  0.69528100  1
  Li  Li6  1  0.65060100  0.95528200  0.65792600  1
  Li  Li7  1  0.15018000  0.45522300  0.65847900  1
  Mn  Mn0  1  0.87411100  0.87527400  0.00143800  1
  Mn  Mn1  1  0.62580800  0.62470100  0.99857600  1
  Mn  Mn2  1  0.37339900  0.37559400  0.00182300  1
  Mn  Mn3  1  0.12654400  0.12442800  0.99807700  1
  O  O0  1  0.87287300  0.71160900  0.14361900  1
  O  O1  1  0.37296100  0.21165200  0.14331000  1
  O  O2  1  0.60542000  0.46162600  0.16165600  1
  O  O3  1  0.10613200  0.96146100  0.16088200  1
  O  O4  1  0.89456700  0.03836500  0.83833900  1
  O  O5  1  0.39388900  0.53855800  0.83909300  1
  O  O6  1  0.62713900  0.78838600  0.85641300  1
  O  O7  1  0.12702700  0.28836200  0.85663600  1
  F  F0  1  0.87509600  0.37517000  0.50021100  1
  F  F1  1  0.37544400  0.87522500  0.49982500  1
  F  F2  1  0.62490200  0.12484400  0.49978800  1
  F  F3  1  0.12457700  0.62476500  0.50020900  1
loop_
_geom_bond_atom_site_label_1
_geom_bond_atom_site_label_2
_geom_bond_distance
_geom_bond_site_symmetry_2
Li0 O0 2.049504 1_555
Li0 O2 2.061273 1_555
Li0 O5 2.197962 1_555
Li0 O5 2.444929 1_654
Li1 O1 2.049374 1_555
Li1 O3 2.061633 1_545
Li1 O4 2.196643 1_455
Li1 O4 2.446533 1_554
Li2 O2 2.054308 1_555
Li2 O1 2.063280 1_555
Li2 O7 2.192450 1_654
Li2 O7 2.450557 1_555
Li3 O3 2.052289 1_555
Li3 O0 2.062748 1_455
Li3 O6 2.193314 1_554
Li3 O6 2.449593 1_455
Li4 O4 2.054349 1_555
Li4 O7 2.062985 1_655
Li4 O1 2.192538 1_556
Li4 O1 2.450540 1_655
Li5 O5 2.051792 1_555
Li5 O6 2.062612 1_555
Li5 O0 2.193198 1_456
Li5 O0 2.449747 1_555
Li6 O6 2.049437 1_555
Li6 O4 2.060830 1_565
Li6 O3 2.198095 1_655
Li6 O3 2.444882 1_556
Li7 O7 2.048957 1_555
Li7 O5 2.061585 1_555
Li7 O2 2.196524 1_555
Li7 O2 2.446689 1_456
Mn0 O3 1.939102 1_655
Mn0 O4 1.941023 1_564
Mn0 O0 1.943593 1_555
Mn0 O6 1.944272 1_554
Mn1 O5 1.938666 1_555
Mn1 O2 1.940950 1_556
Mn1 O6 1.943582 1_555
Mn1 O0 1.944805 1_556
Mn2 O5 1.938936 1_554
Mn2 O2 1.940014 1_555
Mn2 O7 1.943954 1_554
Mn2 O1 1.946730 1_555
Mn3 O3 1.939262 1_546
Mn3 O4 1.939586 1_455
Mn3 O1 1.944284 1_556
Mn3 O7 1.946474 1_555
F0 Li7 2.088169 1_655
F0 Li4 2.089059 1_555
F0 Li2 2.092547 1_555
F0 Li0 2.092760 1_555
F0 Mn2 2.303565 1_655
F0 Mn2 2.320828 1_556
F1 Li6 2.087814 1_555
F1 Li5 2.090331 1_555
F1 Li3 2.092309 1_555
F1 Li1 2.093055 1_565
F1 Mn0 2.305267 1_555
F1 Mn0 2.319118 1_456
F2 Li1 2.088090 1_555
F2 Li2 2.088916 1_555
F2 Li4 2.092576 1_555
F2 Li6 2.093122 1_545
F2 Mn3 2.303481 1_555
F2 Mn3 2.320911 1_654
F3 Li0 2.087670 1_455
F3 Li3 2.090228 1_555
F3 Li5 2.092430 1_555
F3 Li7 2.092980 1_555
F3 Mn1 2.305422 1_455
F3 Mn1 2.318963 1_554
