# generated using pymatgen
data_FeCuAs2PbO10
_symmetry_space_group_name_H-M   'P 1'
_cell_length_a   5.47468400
_cell_length_b   5.67703701
_cell_length_c   7.71167863
_cell_angle_alpha   107.50141977
_cell_angle_beta   95.84951717
_cell_angle_gamma   111.87454405
_symmetry_Int_Tables_number   1
_chemical_formula_structural   FeCuAs2PbO10
_chemical_formula_sum   'Fe1 Cu1 As2 Pb1 O10'
_cell_volume   205.83433843
_cell_formula_units_Z   1
loop_
 _symmetry_equiv_pos_site_id
 _symmetry_equiv_pos_as_xyz
  1  'x, y, z'
loop_
 _atom_site_type_symbol
 _atom_site_label
 _atom_site_symmetry_multiplicity
 _atom_site_fract_x
 _atom_site_fract_y
 _atom_site_fract_z
 _atom_site_occupancy
  Fe  Fe0  1  0.50000000  0.50000000  0.50000000  1
  Cu  Cu0  1  0.00000000  0.00000000  0.50000000  1
  As  As0  1  0.81304400  0.43557000  0.78548300  1
  As  As1  1  0.18695600  0.56443000  0.21451700  1
  Pb  Pb0  1  0.00000000  0.00000000  0.00000000  1
  O  O0  1  0.38391900  0.17647200  0.43555700  1
  O  O1  1  0.61608100  0.82352800  0.56444300  1
  O  O2  1  0.06650400  0.34207900  0.66259300  1
  O  O3  1  0.93349600  0.65792100  0.33740700  1
  O  O4  1  0.48019200  0.68503000  0.27371600  1
  O  O5  1  0.51980800  0.31497000  0.72628400  1
  O  O6  1  0.04186100  0.21430400  0.27166100  1
  O  O7  1  0.95813900  0.78569600  0.72833900  1
  O  O8  1  0.70479900  0.29093000  0.01616900  1
  O  O9  1  0.29520100  0.70907000  0.98383100  1
loop_
_geom_bond_atom_site_label_1
_geom_bond_atom_site_label_2
_geom_bond_distance
_geom_bond_site_symmetry_2
Fe0 O1 1.594087 1_555
Fe0 O0 1.594087 1_555
Fe0 O7 2.524459 1_555
Fe0 O6 2.524459 1_555
Cu0 O2 1.841633 1_555
Cu0 O3 1.841633 1_445
Cu0 O1 2.147478 1_445
Cu0 O0 2.147478 1_555
Cu0 O7 2.407562 1_445
Cu0 O6 2.407562 1_555
As0 O5 1.448447 1_555
As0 O2 1.902521 1_655
As0 O7 2.048831 1_555
As0 O8 2.218349 1_556
As0 O9 2.532349 1_655
As1 O4 1.448447 1_555
As1 O3 1.902521 1_455
As1 O6 2.048831 1_555
As1 O9 2.218349 1_554
As1 O8 2.532349 1_455
O0 O5 2.088566 1_555
O0 O6 2.265167 1_555
O1 O4 2.088566 1_555
O1 O7 2.265167 1_555
O2 O9 2.522887 1_555
O2 O5 2.550558 1_555
O2 O7 2.712593 1_455
O3 O8 2.522887 1_555
O3 O4 2.550558 1_555
O3 O6 2.712593 1_655
O4 O9 2.422146 1_554
O5 O8 2.422146 1_556
O6 Pb0 2.020628 1_555
O6 O8 2.801595 1_455
O7 Pb0 2.020628 1_666
O7 O9 2.801595 1_655
O8 Pb0 2.694713 1_655
O9 Pb0 2.694713 1_566
