# generated using pymatgen
data_BaMnZnF7
_symmetry_space_group_name_H-M   'P 1'
_cell_length_a   10.03379700
_cell_length_b   5.79631000
_cell_length_c   9.61454336
_cell_angle_alpha   86.38595698
_cell_angle_beta   90.00000000
_cell_angle_gamma   90.00000000
_symmetry_Int_Tables_number   1
_chemical_formula_structural   BaMnZnF7
_chemical_formula_sum   'Ba4 Mn4 Zn4 F28'
_cell_volume   558.06018600
_cell_formula_units_Z   4
loop_
 _symmetry_equiv_pos_site_id
 _symmetry_equiv_pos_as_xyz
  1  'x, y, z'
loop_
 _atom_site_type_symbol
 _atom_site_label
 _atom_site_symmetry_multiplicity
 _atom_site_fract_x
 _atom_site_fract_y
 _atom_site_fract_z
 _atom_site_occupancy
  Ba  Ba0  1  0.31362400  0.73104600  0.50005900  1
  Ba  Ba1  1  0.81362400  0.26895400  0.99994100  1
  Ba  Ba2  1  0.68637600  0.26895400  0.49994100  1
  Ba  Ba3  1  0.18637600  0.73104600  0.00005900  1
  Mn  Mn0  1  0.60967400  0.80648400  0.81099800  1
  Mn  Mn1  1  0.39032600  0.19351600  0.18900200  1
  Mn  Mn2  1  0.89032600  0.80648400  0.31099800  1
  Mn  Mn3  1  0.10967400  0.19351600  0.68900200  1
  Zn  Zn0  1  0.40022000  0.30334300  0.80777300  1
  Zn  Zn1  1  0.90022000  0.69665700  0.69222700  1
  Zn  Zn2  1  0.09978000  0.30334300  0.30777300  1
  Zn  Zn3  1  0.59978000  0.69665700  0.19222700  1
  F  F0  1  0.44053700  0.87396800  0.12132000  1
  F  F1  1  0.05002000  0.63434000  0.36930700  1
  F  F2  1  0.71641800  0.52214300  0.74460700  1
  F  F3  1  0.28358200  0.47785700  0.25539300  1
  F  F4  1  0.45855500  0.11473600  0.36348800  1
  F  F5  1  0.81172000  0.74126900  0.48906800  1
  F  F6  1  0.77776800  0.97534100  0.74778000  1
  F  F7  1  0.95855500  0.88526400  0.13651200  1
  F  F8  1  0.44998000  0.63434000  0.86930700  1
  F  F9  1  0.21641800  0.47785700  0.75539300  1
  F  F10  1  0.05946300  0.87396800  0.62132000  1
  F  F11  1  0.55946300  0.12603200  0.87868000  1
  F  F12  1  0.27776800  0.02465900  0.75222000  1
  F  F13  1  0.95859800  0.61675100  0.88156900  1
  F  F14  1  0.54144500  0.88526400  0.63651200  1
  F  F15  1  0.04144500  0.11473600  0.86348800  1
  F  F16  1  0.22223200  0.02465900  0.25222000  1
  F  F17  1  0.94053700  0.12603200  0.37868000  1
  F  F18  1  0.45859800  0.38324900  0.61843100  1
  F  F19  1  0.94998000  0.36566000  0.63069300  1
  F  F20  1  0.04140200  0.38324900  0.11843100  1
  F  F21  1  0.72223200  0.97534100  0.24778000  1
  F  F22  1  0.54140200  0.61675100  0.38156900  1
  F  F23  1  0.31172000  0.25873100  0.01093200  1
  F  F24  1  0.18828000  0.25873100  0.51093200  1
  F  F25  1  0.68828000  0.74126900  0.98906800  1
  F  F26  1  0.55002000  0.36566000  0.13069300  1
  F  F27  1  0.78358200  0.52214300  0.24460700  1
loop_
_geom_bond_atom_site_label_1
_geom_bond_atom_site_label_2
_geom_bond_distance
_geom_bond_site_symmetry_2
Ba0 F22 2.656180 1_555
Ba0 F18 2.680671 1_555
Ba0 F14 2.809528 1_555
Ba0 F3 2.865900 1_555
Ba0 F4 2.901177 1_565
Ba0 F10 2.944624 1_555
Ba0 F9 2.945754 1_555
Ba0 F16 2.983963 1_565
Ba0 F1 2.996523 1_555
Ba0 F24 3.008573 1_555
Ba0 F12 3.069813 1_565
Ba0 F24 3.314842 1_565
Ba1 F20 2.656180 1_656
Ba1 F13 2.680671 1_555
Ba1 F15 2.809528 1_655
Ba1 F27 2.865900 1_556
Ba1 F7 2.901177 1_546
Ba1 F11 2.944624 1_555
Ba1 F2 2.945754 1_555
Ba1 F21 2.983963 1_546
Ba1 F26 2.996523 1_556
Ba1 F25 3.008573 1_555
Ba1 F6 3.069813 1_545
Ba1 F25 3.314842 1_545
Ba2 F18 2.656180 1_555
Ba2 F22 2.680671 1_555
Ba2 F4 2.809528 1_555
Ba2 F2 2.865900 1_555
Ba2 F14 2.901177 1_545
Ba2 F17 2.944624 1_555
Ba2 F27 2.945754 1_555
Ba2 F6 2.983963 1_545
Ba2 F19 2.996523 1_555
Ba2 F5 3.008573 1_555
Ba2 F21 3.069813 1_545
Ba2 F5 3.314842 1_545
Ba3 F13 2.656180 1_454
Ba3 F20 2.680671 1_555
Ba3 F7 2.809528 1_455
Ba3 F9 2.865900 1_554
Ba3 F15 2.901177 1_564
Ba3 F0 2.944624 1_555
Ba3 F3 2.945754 1_555
Ba3 F12 2.983963 1_564
Ba3 F8 2.996523 1_554
Ba3 F23 3.008573 1_555
Ba3 F16 3.069813 1_565
Ba3 F23 3.314842 1_565
F0 Zn3 1.996424 1_555
F0 Mn1 2.063944 1_565
F0 F16 2.698780 1_565
F0 F23 2.733578 1_565
F1 Mn2 1.951117 1_455
F1 Zn2 2.103158 1_555
F1 F3 2.763968 1_555
F2 Mn0 2.098464 1_555
F2 Zn1 2.147976 1_555
F2 F25 2.755642 1_555
F2 F5 2.858411 1_555
F3 Mn1 2.098464 1_555
F3 Zn2 2.147976 1_555
F3 F4 2.883860 1_555
F4 Mn1 1.842542 1_555
F5 Mn2 1.901192 1_555
F5 Zn1 2.146398 1_555
F6 Mn0 2.024123 1_555
F6 Zn1 2.124376 1_555
F7 Mn2 1.842542 1_555
F8 Mn0 1.951117 1_555
F8 Zn0 2.103158 1_555
F8 F9 2.763968 1_555
F9 Mn3 2.098464 1_555
F9 Zn0 2.147976 1_555
F10 Zn1 1.996424 1_455
F10 Mn3 2.063944 1_565
F10 F12 2.698780 1_565
F10 F24 2.733578 1_565
F11 Zn0 1.996424 1_555
F11 Mn0 2.063944 1_545
F11 F6 2.698780 1_545
F11 F25 2.733578 1_545
F12 Mn3 2.024123 1_555
F12 Zn0 2.124376 1_555
F12 F15 2.666485 1_555
F12 F24 2.762612 1_555
F13 Zn1 1.940443 1_555
F13 F20 2.705499 1_656
F13 F2 2.833834 1_555
F14 Mn0 1.842542 1_555
F14 F6 2.666485 1_555
F14 F2 2.883860 1_555
F15 Mn3 1.842542 1_555
F15 F9 2.883860 1_555
F16 Mn1 2.024123 1_555
F16 Zn2 2.124376 1_555
F16 F4 2.666485 1_555
F16 F23 2.762612 1_555
F17 Zn2 1.996424 1_655
F17 Mn2 2.063944 1_545
F17 F21 2.698780 1_545
F17 F5 2.733578 1_545
F18 Zn0 1.940443 1_555
F18 F22 2.705499 1_555
F18 F9 2.833834 1_555
F19 Mn3 1.951117 1_655
F19 Zn1 2.103158 1_555
F19 F2 2.763968 1_555
F20 Zn2 1.940443 1_555
F20 F3 2.833834 1_555
F21 Mn2 2.024123 1_555
F21 Zn3 2.124376 1_555
F21 F7 2.666485 1_555
F21 F5 2.762612 1_555
F22 Zn3 1.940443 1_555
F22 F27 2.833834 1_555
F23 Mn1 1.901192 1_555
F23 Zn0 2.146398 1_554
F23 F3 2.755642 1_555
F23 F9 2.858411 1_554
F24 Mn3 1.901192 1_555
F24 Zn2 2.146398 1_555
F24 F9 2.755642 1_555
F24 F3 2.858411 1_555
F25 Mn0 1.901192 1_555
F25 Zn3 2.146398 1_556
F25 F6 2.762612 1_555
F25 F27 2.858411 1_556
F26 Mn1 1.951117 1_555
F26 Zn3 2.103158 1_555
F26 F27 2.763968 1_555
F27 Mn2 2.098464 1_555
F27 Zn3 2.147976 1_555
F27 F5 2.755642 1_555
F27 F7 2.883860 1_555
