# generated using pymatgen
data_Os(SCl4)6
_symmetry_space_group_name_H-M   'P 1'
_cell_length_a   13.11217702
_cell_length_b   13.11217702
_cell_length_c   15.41137864
_cell_angle_alpha   83.93780766
_cell_angle_beta   83.93780766
_cell_angle_gamma   125.43170641
_symmetry_Int_Tables_number   1
_chemical_formula_structural   Os(SCl4)6
_chemical_formula_sum   'Os1 S6 Cl24'
_cell_volume   2100.89094006
_cell_formula_units_Z   1
loop_
 _symmetry_equiv_pos_site_id
 _symmetry_equiv_pos_as_xyz
  1  'x, y, z'
loop_
 _atom_site_type_symbol
 _atom_site_label
 _atom_site_symmetry_multiplicity
 _atom_site_fract_x
 _atom_site_fract_y
 _atom_site_fract_z
 _atom_site_occupancy
  Os  Os0  1  0.00000000  0.00000000  0.00000000  1
  S  S0  1  0.94458000  0.94458000  0.15152800  1
  S  S1  1  0.05542000  0.05542000  0.84847200  1
  S  S2  1  0.98738100  0.17424600  0.00306400  1
  S  S3  1  0.01261900  0.82575400  0.99693600  1
  S  S4  1  0.17424600  0.98738100  0.00306400  1
  S  S5  1  0.82575400  0.01261900  0.99693600  1
  Cl  Cl0  1  0.20173700  0.74478000  0.06802300  1
  Cl  Cl1  1  0.79826300  0.25522000  0.93197700  1
  Cl  Cl2  1  0.71163200  0.07680100  0.25436400  1
  Cl  Cl3  1  0.25522000  0.79826300  0.93197700  1
  Cl  Cl4  1  0.28836800  0.92319900  0.74563600  1
  Cl  Cl5  1  0.74478000  0.20173700  0.06802300  1
  Cl  Cl6  1  0.99621200  0.17730200  0.78528300  1
  Cl  Cl7  1  0.92319900  0.28836800  0.74563600  1
  Cl  Cl8  1  0.00378800  0.82269800  0.21471700  1
  Cl  Cl9  1  0.07680100  0.71163200  0.25436400  1
  Cl  Cl10  1  0.82269800  0.00378800  0.21471700  1
  Cl  Cl11  1  0.17730200  0.99621200  0.78528300  1
  Cl  Cl12  1  0.46146600  0.54714000  0.25760200  1
  Cl  Cl13  1  0.53853400  0.45286000  0.74239800  1
  Cl  Cl14  1  0.51113100  0.20831000  0.44790900  1
  Cl  Cl15  1  0.45286000  0.53853400  0.74239800  1
  Cl  Cl16  1  0.48886900  0.79169000  0.55209100  1
  Cl  Cl17  1  0.54714000  0.46146600  0.25760200  1
  Cl  Cl18  1  0.24127700  0.42841300  0.54532100  1
  Cl  Cl19  1  0.79169000  0.48886900  0.55209100  1
  Cl  Cl20  1  0.75872300  0.57158700  0.45467900  1
  Cl  Cl21  1  0.20831000  0.51113100  0.44790900  1
  Cl  Cl22  1  0.57158700  0.75872300  0.45467900  1
  Cl  Cl23  1  0.42841300  0.24127700  0.54532100  1
loop_
_geom_bond_atom_site_label_1
_geom_bond_atom_site_label_2
_geom_bond_distance
_geom_bond_site_symmetry_2
Os0 S1 2.276052 1_554
Os0 S0 2.276052 1_445
Os0 S2 2.389378 1_455
Os0 S4 2.389378 1_545
Os0 S3 2.389378 1_544
Os0 S5 2.389378 1_454
S2 S5 1.966879 1_554
S3 S4 1.966879 1_556
Cl0 Cl3 2.046514 1_554
Cl0 Cl9 3.006121 1_555
Cl1 Cl5 2.046514 1_556
Cl1 Cl7 3.006121 1_555
Cl2 Cl5 3.006121 1_555
Cl3 Cl4 3.006121 1_555
Cl6 Cl7 2.227754 1_555
Cl6 S1 2.318324 1_655
Cl8 Cl9 2.227754 1_555
Cl8 S0 2.318324 1_455
Cl10 Cl2 2.227754 1_555
Cl10 S0 2.318324 1_545
Cl11 Cl4 2.227754 1_555
Cl11 S1 2.318324 1_565
Cl12 Cl17 1.996782 1_555
Cl13 Cl15 1.996782 1_555
Cl14 Cl23 1.988407 1_555
Cl16 Cl22 1.988407 1_555
Cl18 Cl21 1.988407 1_555
Cl19 Cl20 1.988407 1_555
