# generated using pymatgen
data_HfMg14Zr
_symmetry_space_group_name_H-M   'P 1'
_cell_length_a   6.45053197
_cell_length_b   6.30215534
_cell_length_c   10.23464589
_cell_angle_alpha   90.00000000
_cell_angle_beta   90.00000000
_cell_angle_gamma   119.24197059
_symmetry_Int_Tables_number   1
_chemical_formula_structural   HfMg14Zr
_chemical_formula_sum   'Hf1 Mg14 Zr1'
_cell_volume   363.04042221
_cell_formula_units_Z   1
loop_
 _symmetry_equiv_pos_site_id
 _symmetry_equiv_pos_as_xyz
  1  'x, y, z'
loop_
 _atom_site_type_symbol
 _atom_site_label
 _atom_site_symmetry_multiplicity
 _atom_site_fract_x
 _atom_site_fract_y
 _atom_site_fract_z
 _atom_site_occupancy
  Hf  Hf0  1  0.16786680  0.83393290  0.12500000  1
  Mg  Mg0  1  0.16609867  0.33304884  0.62500000  1
  Mg  Mg1  1  0.16602569  0.83301235  0.62500000  1
  Mg  Mg2  1  0.66511671  0.33257419  0.12500000  1
  Mg  Mg3  1  0.66666176  0.33340547  0.62500000  1
  Mg  Mg4  1  0.66511671  0.83254152  0.12500000  1
  Mg  Mg5  1  0.66666176  0.83325529  0.62500000  1
  Mg  Mg6  1  0.33226904  0.16605781  0.37440112  1
  Mg  Mg7  1  0.33226904  0.16605781  0.87559888  1
  Mg  Mg8  1  0.33226904  0.66621222  0.37440112  1
  Mg  Mg9  1  0.33226904  0.66621222  0.87559888  1
  Mg  Mg10  1  0.83496587  0.16748344  0.37415221  1
  Mg  Mg11  1  0.83496587  0.16748344  0.87584779  1
  Mg  Mg12  1  0.83521686  0.66760893  0.37376897  1
  Mg  Mg13  1  0.83521686  0.66760893  0.87623103  1
  Zr  Zr0  1  0.16701027  0.33350463  0.12500000  1
loop_
_geom_bond_atom_site_label_1
_geom_bond_atom_site_label_2
_geom_bond_distance
_geom_bond_site_symmetry_2
Hf0 Mg9 3.138860 1_554
Hf0 Mg8 3.138860 1_555
Hf0 Mg7 3.138866 1_564
Hf0 Mg6 3.138866 1_565
Hf0 Zr0 3.151081 1_565
Hf0 Zr0 3.151081 1_555
Hf0 Mg13 3.160383 1_454
Hf0 Mg12 3.160383 1_455
Hf0 Mg2 3.211819 1_565
Hf0 Mg4 3.211819 1_555
Hf0 Mg2 3.238731 1_455
Hf0 Mg4 3.238731 1_455
Mg0 Mg1 3.151078 1_545
Mg0 Mg1 3.151078 1_555
Mg0 Mg6 3.152262 1_555
Mg0 Mg7 3.152262 1_555
Mg0 Mg8 3.152268 1_555
Mg0 Mg9 3.152268 1_555
Mg0 Mg10 3.172524 1_455
Mg0 Mg11 3.172524 1_455
Mg0 Mg5 3.222732 1_445
Mg0 Mg3 3.222732 1_455
Mg0 Mg5 3.227801 1_555
Mg0 Mg3 3.227801 1_555
Mg1 Mg8 3.151898 1_555
Mg1 Mg9 3.151898 1_555
Mg1 Mg7 3.151904 1_565
Mg1 Mg6 3.151904 1_565
Mg1 Mg12 3.174630 1_455
Mg1 Mg13 3.174630 1_455
Mg1 Mg3 3.221911 1_455
Mg1 Mg5 3.221911 1_455
Mg1 Mg3 3.228621 1_565
Mg1 Mg5 3.228621 1_555
Mg2 Mg4 3.150872 1_555
Mg2 Mg4 3.151284 1_545
Mg2 Mg7 3.166256 1_554
Mg2 Mg6 3.166256 1_555
Mg2 Zr0 3.215920 1_555
Mg2 Zr0 3.234620 1_655
Mg3 Mg5 3.150131 1_555
Mg3 Mg5 3.152024 1_545
Mg3 Mg7 3.181284 1_555
Mg3 Mg6 3.181284 1_555
Mg4 Mg9 3.166256 1_554
Mg4 Mg8 3.166256 1_555
Mg4 Zr0 3.215920 1_555
Mg4 Zr0 3.234620 1_665
Mg5 Mg8 3.181284 1_555
Mg5 Mg9 3.181284 1_555
Mg6 Zr0 3.140773 1_555
Mg6 Mg8 3.150105 1_545
Mg6 Mg8 3.152051 1_555
Mg7 Zr0 3.140773 1_556
Mg7 Mg9 3.150105 1_545
Mg7 Mg9 3.152051 1_555
Mg8 Zr0 3.140779 1_555
Mg9 Zr0 3.140779 1_556
Mg10 Mg2 3.146264 1_555
Mg10 Mg4 3.146271 1_545
Mg10 Mg12 3.151080 1_555
Mg10 Mg12 3.151080 1_545
Mg10 Mg3 3.157910 1_555
Mg10 Mg5 3.157917 1_545
Mg10 Zr0 3.161528 1_655
Mg10 Mg8 3.212269 1_655
Mg10 Mg6 3.212270 1_655
Mg10 Mg8 3.238283 1_545
Mg10 Mg6 3.238284 1_555
Mg11 Mg2 3.146264 1_556
Mg11 Mg4 3.146271 1_546
Mg11 Mg13 3.151080 1_555
Mg11 Mg13 3.151080 1_545
Mg11 Mg3 3.157910 1_555
Mg11 Mg5 3.157917 1_545
Mg11 Zr0 3.161528 1_656
Mg11 Mg9 3.212269 1_655
Mg11 Mg7 3.212270 1_655
Mg11 Mg9 3.238283 1_545
Mg11 Mg7 3.238284 1_555
Mg12 Mg4 3.143413 1_555
Mg12 Mg2 3.143419 1_555
Mg12 Mg5 3.161052 1_555
Mg12 Mg3 3.161058 1_555
Mg12 Mg6 3.210566 1_665
Mg12 Mg8 3.210567 1_655
Mg12 Mg6 3.239996 1_555
Mg12 Mg8 3.239997 1_555
Mg13 Mg4 3.143413 1_556
Mg13 Mg2 3.143419 1_556
Mg13 Mg5 3.161052 1_555
Mg13 Mg3 3.161058 1_555
Mg13 Mg7 3.210566 1_665
Mg13 Mg9 3.210567 1_655
Mg13 Mg7 3.239996 1_555
Mg13 Mg9 3.239997 1_555
