# generated using pymatgen
data_Er3P
_symmetry_space_group_name_H-M   'P 1'
_cell_length_a   5.92984796
_cell_length_b   5.92984796
_cell_length_c   5.92984796
_cell_angle_alpha   136.75156136
_cell_angle_beta   136.75156136
_cell_angle_gamma   62.82052501
_symmetry_Int_Tables_number   1
_chemical_formula_structural   Er3P
_chemical_formula_sum   'Er3 P1'
_cell_volume   96.66936830
_cell_formula_units_Z   1
loop_
 _symmetry_equiv_pos_site_id
 _symmetry_equiv_pos_as_xyz
  1  'x, y, z'
loop_
 _atom_site_type_symbol
 _atom_site_label
 _atom_site_symmetry_multiplicity
 _atom_site_fract_x
 _atom_site_fract_y
 _atom_site_fract_z
 _atom_site_occupancy
  Er  Er0  1  0.75000000  0.25000000  0.50000000  1
  Er  Er1  1  0.25000000  0.75000000  0.50000000  1
  Er  Er2  1  0.50000000  0.50000000  0.00000000  1
  P  P0  1  0.00000000  0.00000000  0.00000000  1
loop_
_geom_bond_atom_site_label_1
_geom_bond_atom_site_label_2
_geom_bond_distance
_geom_bond_site_symmetry_2
Er0 Er1 3.090414 1_645
Er0 Er1 3.090414 1_544
Er0 Er1 3.090414 1_656
Er0 Er1 3.090414 1_555
Er0 P0 3.343417 1_656
Er0 Er2 3.343417 1_556
Er0 Er2 3.343417 1_545
Er0 P0 3.343417 1_655
Er0 P0 3.343417 1_666
Er0 Er2 3.343417 1_555
Er0 P0 3.343417 1_555
Er0 Er2 3.343417 1_656
Er1 P0 3.343417 1_555
Er1 Er2 3.343417 1_556
Er1 P0 3.343417 1_566
Er1 Er2 3.343417 1_555
Er1 Er2 3.343417 1_566
Er1 P0 3.343417 1_565
Er1 P0 3.343417 1_666
Er1 Er2 3.343417 1_455
Er2 P0 3.090414 1_655
Er2 P0 3.090414 1_666
Er2 P0 3.090414 1_565
Er2 P0 3.090414 1_554
