# generated using pymatgen
data_Na3HoSi2O7
_symmetry_space_group_name_H-M   'P 1'
_cell_length_a   9.49752035
_cell_length_b   9.49752035
_cell_length_c   13.88989300
_cell_angle_alpha   90.00000000
_cell_angle_beta   90.00000000
_cell_angle_gamma   120.00000246
_symmetry_Int_Tables_number   1
_chemical_formula_structural   Na3HoSi2O7
_chemical_formula_sum   'Na18 Ho6 Si12 O42'
_cell_volume   1085.05058869
_cell_formula_units_Z   6
loop_
 _symmetry_equiv_pos_site_id
 _symmetry_equiv_pos_as_xyz
  1  'x, y, z'
loop_
 _atom_site_type_symbol
 _atom_site_label
 _atom_site_symmetry_multiplicity
 _atom_site_fract_x
 _atom_site_fract_y
 _atom_site_fract_z
 _atom_site_occupancy
  Na  Na0  1  0.00000000  0.00000000  0.50000000  1
  Na  Na1  1  0.00000000  0.00000000  0.00000000  1
  Na  Na2  1  0.66666700  0.33333300  0.75000000  1
  Na  Na3  1  0.33333300  0.66666700  0.25000000  1
  Na  Na4  1  0.66666700  0.33333300  0.25000000  1
  Na  Na5  1  0.33333300  0.66666700  0.75000000  1
  Na  Na6  1  0.31716500  0.98649100  0.41077900  1
  Na  Na7  1  0.01350900  0.33067400  0.41077900  1
  Na  Na8  1  0.66932600  0.68283500  0.41077900  1
  Na  Na9  1  0.68283500  0.01350900  0.91077900  1
  Na  Na10  1  0.98649100  0.66932600  0.91077900  1
  Na  Na11  1  0.33067400  0.31716500  0.91077900  1
  Na  Na12  1  0.68283500  0.01350900  0.58922100  1
  Na  Na13  1  0.98649100  0.66932600  0.58922100  1
  Na  Na14  1  0.33067400  0.31716500  0.58922100  1
  Na  Na15  1  0.31716500  0.98649100  0.08922100  1
  Na  Na16  1  0.01350900  0.33067400  0.08922100  1
  Na  Na17  1  0.66932600  0.68283500  0.08922100  1
  Ho  Ho0  1  0.00000000  0.00000000  0.25000000  1
  Ho  Ho1  1  0.00000000  0.00000000  0.75000000  1
  Ho  Ho2  1  0.66666700  0.33333300  0.51874400  1
  Ho  Ho3  1  0.33333300  0.66666700  0.01874400  1
  Ho  Ho4  1  0.33333300  0.66666700  0.48125600  1
  Ho  Ho5  1  0.66666700  0.33333300  0.98125600  1
  Si  Si0  1  0.98195000  0.65379100  0.35932200  1
  Si  Si1  1  0.34620900  0.32815900  0.35932200  1
  Si  Si2  1  0.67184100  0.01805000  0.35932200  1
  Si  Si3  1  0.01805000  0.34620900  0.85932200  1
  Si  Si4  1  0.65379100  0.67184100  0.85932200  1
  Si  Si5  1  0.32815900  0.98195000  0.85932200  1
  Si  Si6  1  0.01805000  0.34620900  0.64067800  1
  Si  Si7  1  0.65379100  0.67184100  0.64067800  1
  Si  Si8  1  0.32815900  0.98195000  0.64067800  1
  Si  Si9  1  0.98195000  0.65379100  0.14067800  1
  Si  Si10  1  0.34620900  0.32815900  0.14067800  1
  Si  Si11  1  0.67184100  0.01805000  0.14067800  1
  O  O0  1  0.82863100  0.55836500  0.43400800  1
  O  O1  1  0.44163500  0.27026600  0.43400800  1
  O  O2  1  0.72973400  0.17136900  0.43400800  1
  O  O3  1  0.17136900  0.44163500  0.93400800  1
  O  O4  1  0.55836500  0.72973400  0.93400800  1
  O  O5  1  0.27026600  0.82863100  0.93400800  1
  O  O6  1  0.17136900  0.44163500  0.56599200  1
  O  O7  1  0.55836500  0.72973400  0.56599200  1
  O  O8  1  0.27026600  0.82863100  0.56599200  1
  O  O9  1  0.82863100  0.55836500  0.06599200  1
  O  O10  1  0.44163500  0.27026600  0.06599200  1
  O  O11  1  0.72973400  0.17136900  0.06599200  1
  O  O12  1  0.04865600  0.84962400  0.36028900  1
  O  O13  1  0.15037600  0.19903200  0.36028900  1
  O  O14  1  0.80096800  0.95134400  0.36028900  1
  O  O15  1  0.95134400  0.15037600  0.86028900  1
  O  O16  1  0.84962400  0.80096800  0.86028900  1
  O  O17  1  0.19903200  0.04865600  0.86028900  1
  O  O18  1  0.95134400  0.15037600  0.63971100  1
  O  O19  1  0.84962400  0.80096800  0.63971100  1
  O  O20  1  0.19903200  0.04865600  0.63971100  1
  O  O21  1  0.04865600  0.84962400  0.13971100  1
  O  O22  1  0.15037600  0.19903200  0.13971100  1
  O  O23  1  0.80096800  0.95134400  0.13971100  1
  O  O24  1  0.60986000  0.48504000  0.62057600  1
  O  O25  1  0.51496000  0.12482000  0.62057600  1
  O  O26  1  0.87518000  0.39014000  0.62057600  1
  O  O27  1  0.39014000  0.51496000  0.12057600  1
  O  O28  1  0.48504000  0.87518000  0.12057600  1
  O  O29  1  0.12482000  0.60986000  0.12057600  1
  O  O30  1  0.39014000  0.51496000  0.37942400  1
  O  O31  1  0.48504000  0.87518000  0.37942400  1
  O  O32  1  0.12482000  0.60986000  0.37942400  1
  O  O33  1  0.60986000  0.48504000  0.87942400  1
  O  O34  1  0.51496000  0.12482000  0.87942400  1
  O  O35  1  0.87518000  0.39014000  0.87942400  1
  O  O36  1  0.89978300  0.58101100  0.25000000  1
  O  O37  1  0.41898900  0.31877200  0.25000000  1
  O  O38  1  0.68122800  0.10021700  0.25000000  1
  O  O39  1  0.10021700  0.41898900  0.75000000  1
  O  O40  1  0.58101100  0.68122800  0.75000000  1
  O  O41  1  0.31877200  0.89978300  0.75000000  1
loop_
_geom_bond_atom_site_label_1
_geom_bond_atom_site_label_2
_geom_bond_distance
_geom_bond_site_symmetry_2
Na0 O19 2.584396 1_445
Na0 O13 2.584396 1_555
Na0 O20 2.584396 1_555
Na0 O14 2.584396 1_445
Na0 O18 2.584396 1_455
Na0 O12 2.584396 1_545
Na1 O22 2.584396 1_555
Na1 O16 2.584396 1_444
Na1 O23 2.584396 1_445
Na1 O17 2.584396 1_554
Na1 O15 2.584396 1_454
Na1 O21 2.584396 1_545
Na2 O26 2.525098 1_555
Na2 O35 2.525098 1_555
Na2 O25 2.525100 1_555
Na2 O34 2.525100 1_555
Na2 O33 2.525104 1_555
Na2 O24 2.525104 1_555
Na3 O32 2.525098 1_555
Na3 O29 2.525098 1_555
Na3 O31 2.525100 1_555
Na3 O28 2.525100 1_555
Na3 O30 2.525104 1_555
Na3 O27 2.525104 1_555
Na4 O38 2.286310 1_555
Na4 O36 2.286315 1_555
Na4 O37 2.286319 1_555
Na5 O41 2.286310 1_555
Na5 O39 2.286315 1_555
Na5 O40 2.286319 1_555
Na6 O12 2.317318 1_555
Na6 O31 2.352650 1_555
Na6 O1 2.362071 1_565
Na6 O8 2.535014 1_555
Na7 O13 2.317318 1_555
Na7 O32 2.352650 1_555
Na7 O2 2.362071 1_455
Na7 O6 2.535014 1_555
Na8 O14 2.317318 1_555
Na8 O30 2.352650 1_555
Na8 O0 2.362071 1_555
Na8 O7 2.535014 1_555
Na9 O15 2.317318 1_555
Na9 O34 2.352650 1_555
Na9 O4 2.362071 1_545
Na9 O11 2.535014 1_556
Na10 O16 2.317318 1_555
Na10 O35 2.352650 1_555
Na10 O5 2.362071 1_655
Na10 O9 2.535014 1_556
Na11 O17 2.317318 1_555
Na11 O33 2.352650 1_555
Na11 O3 2.362071 1_555
Na11 O10 2.535014 1_556
Na12 O18 2.317318 1_555
Na12 O25 2.352650 1_555
Na12 O7 2.362071 1_545
Na12 O2 2.535014 1_555
Na13 O19 2.317318 1_555
Na13 O26 2.352650 1_555
Na13 O8 2.362071 1_655
Na13 O0 2.535014 1_555
Na14 O20 2.317318 1_555
Na14 O24 2.352650 1_555
Na14 O6 2.362071 1_555
Na14 O1 2.535014 1_555
Na15 O21 2.317318 1_555
Na15 O28 2.352650 1_555
Na15 O10 2.362071 1_565
Na15 O5 2.535014 1_554
Na16 O22 2.317318 1_555
Na16 O29 2.352650 1_555
Na16 O11 2.362071 1_455
Na16 O3 2.535014 1_554
Na17 O23 2.317318 1_555
Na17 O27 2.352650 1_555
Na17 O9 2.362071 1_555
Na17 O4 2.535014 1_554
Ho0 O13 2.293471 1_555
Ho0 O22 2.293471 1_555
Ho0 O14 2.293472 1_445
Ho0 O23 2.293472 1_445
Ho0 O12 2.293472 1_545
Ho0 O21 2.293472 1_545
Ho1 O16 2.293471 1_445
Ho1 O19 2.293471 1_445
Ho1 O17 2.293472 1_555
Ho1 O20 2.293472 1_555
Ho1 O15 2.293472 1_455
Ho1 O18 2.293472 1_455
Ho2 O2 2.243137 1_555
Ho2 O0 2.243143 1_555
Ho2 O1 2.243145 1_555
Ho2 O26 2.268276 1_555
Ho2 O25 2.268278 1_555
Ho2 O24 2.268283 1_555
Ho3 O5 2.243137 1_554
Ho3 O3 2.243143 1_554
Ho3 O4 2.243145 1_554
Ho3 O29 2.268276 1_555
Ho3 O28 2.268278 1_555
Ho3 O27 2.268283 1_555
Ho4 O8 2.243137 1_555
Ho4 O6 2.243143 1_555
Ho4 O7 2.243145 1_555
Ho4 O32 2.268276 1_555
Ho4 O31 2.268278 1_555
Ho4 O30 2.268283 1_555
Ho5 O11 2.243137 1_556
Ho5 O9 2.243143 1_556
Ho5 O10 2.243145 1_556
Ho5 O35 2.268276 1_555
Ho5 O34 2.268278 1_555
Ho5 O33 2.268283 1_555
O0 Si0 1.642622 1_555
O1 Si1 1.642622 1_555
O2 Si2 1.642622 1_555
O3 Si3 1.642622 1_555
O4 Si4 1.642622 1_555
O5 Si5 1.642622 1_555
O6 Si6 1.642622 1_555
O7 Si7 1.642622 1_555
O8 Si8 1.642622 1_555
O9 Si9 1.642622 1_555
O10 Si10 1.642622 1_555
O11 Si11 1.642622 1_555
O12 Si0 1.637848 1_455
O13 Si1 1.637848 1_555
O14 Si2 1.637848 1_565
O15 Si3 1.637848 1_655
O16 Si4 1.637848 1_555
O17 Si5 1.637848 1_545
O18 Si6 1.637848 1_655
O19 Si7 1.637848 1_555
O20 Si8 1.637848 1_545
O21 Si9 1.637848 1_455
O22 Si10 1.637848 1_555
O23 Si11 1.637848 1_565
O24 Si7 1.630768 1_555
O25 Si8 1.630768 1_545
O26 Si6 1.630768 1_655
O27 Si10 1.630768 1_555
O28 Si11 1.630768 1_565
O29 Si9 1.630768 1_455
O30 Si1 1.630768 1_555
O31 Si2 1.630768 1_565
O32 Si0 1.630768 1_455
O33 Si4 1.630768 1_555
O34 Si5 1.630768 1_545
O35 Si3 1.630768 1_655
O36 Si0 1.689120 1_555
O36 Si9 1.689120 1_555
O37 Si1 1.689120 1_555
O37 Si10 1.689120 1_555
O38 Si2 1.689120 1_555
O38 Si11 1.689120 1_555
O39 Si3 1.689120 1_555
O39 Si6 1.689120 1_555
O40 Si4 1.689120 1_555
O40 Si7 1.689120 1_555
O41 Si5 1.689120 1_555
O41 Si8 1.689120 1_555
