# generated using pymatgen
data_Li3Ti4O8
_symmetry_space_group_name_H-M   'P 1'
_cell_length_a   9.65366900
_cell_length_b   5.08982400
_cell_length_c   5.72268033
_cell_angle_alpha   89.48482286
_cell_angle_beta   90.00000000
_cell_angle_gamma   90.00000000
_symmetry_Int_Tables_number   1
_chemical_formula_structural   Li3Ti4O8
_chemical_formula_sum   'Li6 Ti8 O16'
_cell_volume   281.17525644
_cell_formula_units_Z   2
loop_
 _symmetry_equiv_pos_site_id
 _symmetry_equiv_pos_as_xyz
  1  'x, y, z'
loop_
 _atom_site_type_symbol
 _atom_site_label
 _atom_site_symmetry_multiplicity
 _atom_site_fract_x
 _atom_site_fract_y
 _atom_site_fract_z
 _atom_site_occupancy
  Li  Li0  1  0.11076000  0.43654900  0.61943000  1
  Li  Li1  1  0.61076000  0.56345100  0.38057000  1
  Li  Li2  1  0.10912100  0.92471700  0.37385800  1
  Li  Li3  1  0.60912100  0.07528300  0.62614200  1
  Li  Li4  1  0.88519800  0.57526700  0.88087200  1
  Li  Li5  1  0.38519800  0.42473300  0.11912800  1
  Ti  Ti0  1  0.61945400  0.61380500  0.87841500  1
  Ti  Ti1  1  0.11945400  0.38619500  0.12158500  1
  Ti  Ti2  1  0.37932100  0.90545600  0.36442800  1
  Ti  Ti3  1  0.87932100  0.09454400  0.63557200  1
  Ti  Ti4  1  0.37108600  0.39032700  0.63211100  1
  Ti  Ti5  1  0.87108600  0.60967300  0.36788900  1
  Ti  Ti6  1  0.62908600  0.08467100  0.12898800  1
  Ti  Ti7  1  0.12908600  0.91532900  0.87101200  1
  O  O0  1  0.74371800  0.92974900  0.85696400  1
  O  O1  1  0.24371800  0.07025100  0.14303600  1
  O  O2  1  0.25755100  0.56244500  0.37528300  1
  O  O3  1  0.75755100  0.43755500  0.62471700  1
  O  O4  1  0.24833900  0.07055000  0.62631200  1
  O  O5  1  0.74833900  0.92945000  0.37368800  1
  O  O6  1  0.74087100  0.44854700  0.12643100  1
  O  O7  1  0.24087100  0.55145300  0.87356900  1
  O  O8  1  0.50923100  0.26811400  0.87745800  1
  O  O9  1  0.00923100  0.73188600  0.12254200  1
  O  O10  1  0.49691900  0.24221900  0.37956300  1
  O  O11  1  0.99691900  0.75778100  0.62043700  1
  O  O12  1  0.49400700  0.73238800  0.61625600  1
  O  O13  1  0.99400700  0.26761200  0.38374400  1
  O  O14  1  0.50233800  0.75230000  0.12578000  1
  O  O15  1  0.00233800  0.24770000  0.87422000  1
loop_
_geom_bond_atom_site_label_1
_geom_bond_atom_site_label_2
_geom_bond_distance
_geom_bond_site_symmetry_2
Li0 O13 1.962065 1_455
Li0 O11 1.970086 1_455
Li0 O7 2.012497 1_555
Li0 O15 2.029837 1_555
Li0 O2 2.086792 1_555
Li0 O4 2.287899 1_555
Li1 O12 1.962065 1_555
Li1 O10 1.970086 1_555
Li1 O6 2.012497 1_555
Li1 O14 2.029837 1_555
Li1 O3 2.086792 1_555
Li1 O5 2.287899 1_555
Li2 O11 1.965911 1_455
Li2 O1 1.991044 1_565
Li2 O9 1.996744 1_555
Li2 O13 2.070239 1_465
Li2 O4 2.112742 1_565
Li2 O2 2.335156 1_555
Li3 O10 1.965911 1_555
Li3 O0 1.991044 1_545
Li3 O8 1.996744 1_555
Li3 O12 2.070239 1_545
Li3 O5 2.112742 1_545
Li3 O3 2.335156 1_555
Li4 O9 2.000422 1_656
Li4 O15 2.015222 1_655
Li4 O3 2.043794 1_555
Li4 O11 2.054879 1_555
Li4 O6 2.077424 1_556
Li4 O0 2.266057 1_555
Li5 O8 2.000422 1_554
Li5 O14 2.015222 1_555
Li5 O2 2.043794 1_555
Li5 O10 2.054879 1_555
Li5 O7 2.077424 1_554
Li5 O1 2.266057 1_555
O0 Ti3 2.000817 1_565
O0 Ti0 2.009117 1_555
O0 Ti6 2.071663 1_566
O1 Ti2 2.000817 1_545
O1 Ti1 2.009117 1_555
O1 Ti7 2.071663 1_544
O2 Ti4 2.026262 1_555
O2 Ti2 2.105189 1_555
O2 Ti1 2.171005 1_555
O3 Ti5 2.026262 1_555
O3 Ti3 2.105189 1_555
O3 Ti0 2.171005 1_555
O4 Ti7 1.972450 1_545
O4 Ti4 2.013780 1_555
O4 Ti2 2.138606 1_545
O5 Ti6 1.972450 1_565
O5 Ti5 2.013780 1_555
O5 Ti3 2.138606 1_565
O6 Ti0 2.018505 1_554
O6 Ti5 2.045107 1_555
O6 Ti6 2.143456 1_555
O7 Ti1 2.018505 1_556
O7 Ti4 2.045107 1_555
O7 Ti7 2.143456 1_555
O8 Ti4 2.030042 1_555
O8 Ti0 2.056279 1_555
O8 Ti6 2.063565 1_556
O9 Ti5 2.030042 1_455
O9 Ti1 2.056279 1_555
O9 Ti7 2.063565 1_554
O10 Ti4 2.037705 1_555
O10 Ti2 2.058394 1_545
O10 Ti6 2.085153 1_555
O11 Ti5 2.037705 1_555
O11 Ti3 2.058394 1_565
O11 Ti7 2.085153 1_655
O12 Ti2 2.013889 1_555
O12 Ti0 2.016270 1_555
O12 Ti4 2.108243 1_555
O13 Ti3 2.013889 1_555
O13 Ti1 2.016270 1_655
O13 Ti5 2.108243 1_555
O14 Ti0 1.948590 1_554
O14 Ti2 1.975421 1_555
O14 Ti6 2.088045 1_565
O15 Ti1 1.948590 1_556
O15 Ti3 1.975421 1_455
O15 Ti7 2.088045 1_545
