# generated using pymatgen
data_La(CoGe)2
_symmetry_space_group_name_H-M   'P 1'
_cell_length_a   4.16507447
_cell_length_b   4.16507535
_cell_length_c   5.77525432
_cell_angle_alpha   111.13683638
_cell_angle_beta   111.13683543
_cell_angle_gamma   90.00000615
_symmetry_Int_Tables_number   1
_chemical_formula_structural   La(CoGe)2
_chemical_formula_sum   'La1 Co2 Ge2'
_cell_volume   86.18170320
_cell_formula_units_Z   1
loop_
 _symmetry_equiv_pos_site_id
 _symmetry_equiv_pos_as_xyz
  1  'x, y, z'
loop_
 _atom_site_type_symbol
 _atom_site_label
 _atom_site_symmetry_multiplicity
 _atom_site_fract_x
 _atom_site_fract_y
 _atom_site_fract_z
 _atom_site_occupancy
  La  La0  1  0.00000000  -0.00000000  -0.00000000  1
  Co  Co0  1  0.25000000  0.75000000  0.50000000  1
  Co  Co1  1  0.75000000  0.25000000  0.50000000  1
  Ge  Ge0  1  0.64151277  0.64151277  0.28302654  1
  Ge  Ge1  1  0.35848723  0.35848723  0.71697346  1
loop_
_geom_bond_atom_site_label_1
_geom_bond_atom_site_label_2
_geom_bond_distance
_geom_bond_site_symmetry_2
Co0 Ge0 2.344954 1_555
Co0 Ge1 2.344954 1_555
Co0 Ge0 2.344958 1_455
Co0 Ge1 2.344958 1_565
Co0 La0 3.241430 1_566
Co0 La0 3.241431 1_565
Co0 La0 3.241431 1_666
Co0 La0 3.241431 1_555
Co1 Ge1 2.344954 1_555
Co1 Ge0 2.344954 1_555
Co1 Ge1 2.344958 1_655
Co1 Ge0 2.344958 1_545
Co1 La0 3.241430 1_655
Co1 La0 3.241431 1_656
Co1 La0 3.241431 1_555
Co1 La0 3.241431 1_666
Ge0 Ge1 2.812073 1_554
Ge0 La0 3.263563 1_555
Ge0 La0 3.263566 1_565
Ge0 La0 3.263566 1_655
Ge0 La0 3.263568 1_665
Ge1 La0 3.263563 1_666
Ge1 La0 3.263566 1_656
Ge1 La0 3.263566 1_566
Ge1 La0 3.263568 1_556
