# generated using pymatgen
data_ZrCrFe
_symmetry_space_group_name_H-M   'P 1'
_cell_length_a   4.96353883
_cell_length_b   4.96353883
_cell_length_c   8.29081800
_cell_angle_alpha   90.00000000
_cell_angle_beta   90.00000000
_cell_angle_gamma   119.60112284
_symmetry_Int_Tables_number   1
_chemical_formula_structural   ZrCrFe
_chemical_formula_sum   'Zr4 Cr4 Fe4'
_cell_volume   177.59978962
_cell_formula_units_Z   4
loop_
 _symmetry_equiv_pos_site_id
 _symmetry_equiv_pos_as_xyz
  1  'x, y, z'
loop_
 _atom_site_type_symbol
 _atom_site_label
 _atom_site_symmetry_multiplicity
 _atom_site_fract_x
 _atom_site_fract_y
 _atom_site_fract_z
 _atom_site_occupancy
  Zr  Zr0  1  0.33271400  0.66728600  0.18635800  1
  Zr  Zr1  1  0.66593500  0.33406500  0.31083800  1
  Zr  Zr2  1  0.66593500  0.33406500  0.68916200  1
  Zr  Zr3  1  0.33271400  0.66728600  0.81364200  1
  Cr  Cr0  1  0.83371800  0.16628200  0.00000000  1
  Cr  Cr1  1  0.16856500  0.33768800  0.50000000  1
  Cr  Cr2  1  0.66231200  0.83143500  0.50000000  1
  Cr  Cr3  1  0.16932400  0.83067600  0.50000000  1
  Fe  Fe0  1  0.99871500  0.00128500  0.24778600  1
  Fe  Fe1  1  0.99871500  0.00128500  0.75221400  1
  Fe  Fe2  1  0.83402600  0.66264100  0.00000000  1
  Fe  Fe3  1  0.33735900  0.16597400  0.00000000  1
loop_
_geom_bond_atom_site_label_1
_geom_bond_atom_site_label_2
_geom_bond_distance
_geom_bond_site_symmetry_2
Zr0 Zr1 3.039533 1_555
Zr0 Zr1 3.057164 1_455
Zr0 Zr1 3.057164 1_565
Zr0 Zr3 3.090121 1_554
Zr1 Zr2 3.136615 1_555
Zr2 Zr3 3.039533 1_555
Zr2 Zr3 3.057164 1_655
Zr2 Zr3 3.057164 1_545
Cr0 Fe2 2.462942 1_555
Cr0 Fe3 2.462942 1_555
Cr0 Fe0 2.494870 1_555
Cr0 Fe1 2.494870 1_554
Cr0 Fe3 2.500597 1_655
Cr0 Fe2 2.500597 1_545
Cr0 Zr0 2.936134 1_655
Cr0 Zr3 2.936134 1_654
Cr0 Zr3 2.936134 1_544
Cr0 Zr0 2.936134 1_545
Cr0 Zr1 2.951902 1_555
Cr0 Zr2 2.951902 1_554
Cr1 Cr3 2.445106 1_555
Cr1 Cr2 2.465493 1_555
Cr1 Cr3 2.518437 1_545
Cr1 Cr2 2.527941 1_445
Cr1 Fe1 2.545713 1_455
Cr1 Fe0 2.545713 1_455
Cr1 Zr2 2.932290 1_555
Cr1 Zr1 2.932290 1_555
Cr1 Zr2 2.939343 1_455
Cr1 Zr1 2.939343 1_455
Cr1 Zr0 2.963989 1_555
Cr1 Zr3 2.963989 1_555
Cr2 Cr3 2.445106 1_555
Cr2 Cr3 2.518437 1_655
Cr2 Fe1 2.545713 1_565
Cr2 Fe0 2.545713 1_565
Cr2 Zr2 2.932290 1_555
Cr2 Zr1 2.932290 1_555
Cr2 Zr2 2.939343 1_565
Cr2 Zr1 2.939343 1_565
Cr2 Zr3 2.963989 1_555
Cr2 Zr0 2.963989 1_555
Cr3 Fe1 2.552490 1_465
Cr3 Fe0 2.552490 1_465
Cr3 Zr2 2.948564 1_565
Cr3 Zr2 2.948564 1_455
Cr3 Zr1 2.948564 1_565
Cr3 Zr1 2.948564 1_455
Cr3 Zr0 2.954149 1_555
Cr3 Zr3 2.954149 1_555
Fe0 Fe3 2.521206 1_655
Fe0 Fe2 2.521206 1_545
Fe0 Zr1 2.902637 1_555
Fe0 Zr0 2.910539 1_645
Fe0 Zr0 2.919154 1_655
Fe0 Zr0 2.919154 1_545
Fe0 Zr1 2.926646 1_545
Fe0 Zr1 2.926646 1_655
Fe1 Fe3 2.521206 1_656
Fe1 Fe2 2.521206 1_546
Fe1 Zr2 2.902637 1_555
Fe1 Zr3 2.910539 1_645
Fe1 Zr3 2.919154 1_655
Fe1 Zr3 2.919154 1_545
Fe1 Zr2 2.926646 1_655
Fe1 Zr2 2.926646 1_545
Fe2 Fe3 2.480074 1_555
Fe2 Fe3 2.513360 1_665
Fe2 Zr0 2.908309 1_655
Fe2 Zr3 2.908309 1_654
Fe2 Zr3 2.938701 1_554
Fe2 Zr0 2.938701 1_555
Fe2 Zr1 2.941619 1_555
Fe2 Zr2 2.941619 1_554
Fe3 Zr3 2.908309 1_544
Fe3 Zr0 2.908309 1_545
Fe3 Zr0 2.938701 1_555
Fe3 Zr3 2.938701 1_554
Fe3 Zr1 2.941619 1_555
Fe3 Zr2 2.941619 1_554
