# generated using pymatgen
data_DyAgSb2
_symmetry_space_group_name_H-M   'P 1'
_cell_length_a   4.28883044
_cell_length_b   4.28883044
_cell_length_c   10.63057433
_cell_angle_alpha   90.00000000
_cell_angle_beta   90.00000000
_cell_angle_gamma   90.00000000
_symmetry_Int_Tables_number   1
_chemical_formula_structural   DyAgSb2
_chemical_formula_sum   'Dy2 Ag2 Sb4'
_cell_volume   195.53949162
_cell_formula_units_Z   2
loop_
 _symmetry_equiv_pos_site_id
 _symmetry_equiv_pos_as_xyz
  1  'x, y, z'
loop_
 _atom_site_type_symbol
 _atom_site_label
 _atom_site_symmetry_multiplicity
 _atom_site_fract_x
 _atom_site_fract_y
 _atom_site_fract_z
 _atom_site_occupancy
  Dy  Dy0  1  0.25000000  0.25000000  0.26775851  1
  Dy  Dy1  1  0.75000000  0.75000000  0.73224149  1
  Ag  Ag0  1  0.75000000  0.25000000  0.00000000  1
  Ag  Ag1  1  0.25000000  0.75000000  0.00000000  1
  Sb  Sb0  1  0.75000000  0.25000000  0.50000000  1
  Sb  Sb1  1  0.25000000  0.75000000  0.50000000  1
  Sb  Sb2  1  0.25000000  0.25000000  0.81878001  1
  Sb  Sb3  1  0.75000000  0.75000000  0.18121999  1
loop_
_geom_bond_atom_site_label_1
_geom_bond_atom_site_label_2
_geom_bond_distance
_geom_bond_site_symmetry_2
Dy0 Sb3 3.169124 1_455
Dy0 Sb3 3.169124 1_445
Dy0 Sb3 3.169124 1_545
Dy0 Sb3 3.169124 1_555
Dy0 Sb1 3.270136 1_545
Dy0 Sb0 3.270136 1_555
Dy0 Sb1 3.270136 1_555
Dy0 Sb0 3.270136 1_455
Dy1 Sb2 3.169124 1_655
Dy1 Sb2 3.169124 1_665
Dy1 Sb2 3.169124 1_555
Dy1 Sb2 3.169124 1_565
Dy1 Sb1 3.270136 1_655
Dy1 Sb1 3.270136 1_555
Dy1 Sb0 3.270136 1_565
Dy1 Sb0 3.270136 1_555
Ag0 Sb2 2.882675 1_554
Ag0 Sb3 2.882675 1_545
Ag0 Sb3 2.882675 1_555
Ag0 Sb2 2.882675 1_654
Ag0 Ag1 3.032661 1_645
Ag0 Ag1 3.032661 1_655
Ag0 Ag1 3.032661 1_545
Ag0 Ag1 3.032661 1_555
Ag0 Dy1 3.563799 1_554
Ag0 Dy1 3.563799 1_544
Ag0 Dy0 3.563799 1_555
Ag0 Dy0 3.563799 1_655
Ag1 Sb2 2.882675 1_554
Ag1 Sb3 2.882675 1_555
Ag1 Sb2 2.882675 1_564
Ag1 Sb3 2.882675 1_455
Ag1 Dy1 3.563799 1_554
Ag1 Dy1 3.563799 1_454
Ag1 Dy0 3.563799 1_555
Ag1 Dy0 3.563799 1_565
Sb0 Sb1 3.032661 1_645
Sb0 Sb1 3.032661 1_655
Sb0 Sb1 3.032661 1_555
Sb0 Sb1 3.032661 1_545
