# generated using pymatgen
data_Ba2LiEu(CuO2)4
_symmetry_space_group_name_H-M   'P 1'
_cell_length_a   3.90205800
_cell_length_b   3.94346418
_cell_length_c   15.06018137
_cell_angle_alpha   104.59668459
_cell_angle_beta   83.07062584
_cell_angle_gamma   90.01784078
_symmetry_Int_Tables_number   1
_chemical_formula_structural   Ba2LiEu(CuO2)4
_chemical_formula_sum   'Ba2 Li1 Eu1 Cu4 O8'
_cell_volume   222.51338618
_cell_formula_units_Z   1
loop_
 _symmetry_equiv_pos_site_id
 _symmetry_equiv_pos_as_xyz
  1  'x, y, z'
loop_
 _atom_site_type_symbol
 _atom_site_label
 _atom_site_symmetry_multiplicity
 _atom_site_fract_x
 _atom_site_fract_y
 _atom_site_fract_z
 _atom_site_occupancy
  Ba  Ba0  1  0.50304800  0.36148700  0.72738800  1
  Ba  Ba1  1  0.69474900  0.46671200  0.31535400  1
  Li  Li0  1  0.26733600  0.82350700  0.17293900  1
  Eu  Eu0  1  0.38343000  0.60365400  0.98231300  1
  Cu  Cu0  1  0.82022800  0.22464500  0.09847700  1
  Cu  Cu1  1  0.93727900  0.99515500  0.87021600  1
  Cu  Cu2  1  0.13853700  0.08618300  0.44051900  1
  Cu  Cu3  1  0.07065600  0.72135800  0.58056800  1
  O  O0  1  0.20184500  0.95756400  0.30831800  1
  O  O1  1  0.01132900  0.84349400  0.70768500  1
  O  O2  1  0.93032200  0.50696100  0.88252100  1
  O  O3  1  0.81644300  0.73160900  0.10552500  1
  O  O4  1  0.07600300  0.21241400  0.57117900  1
  O  O5  1  0.13317400  0.59466900  0.44917100  1
  O  O6  1  0.31746000  0.22981300  0.10410500  1
  O  O7  1  0.43149400  0.00744100  0.88279500  1
loop_
_geom_bond_atom_site_label_1
_geom_bond_atom_site_label_2
_geom_bond_distance
_geom_bond_site_symmetry_2
Ba0 O1 2.783752 1_645
Ba0 O1 2.787745 1_545
Ba0 O1 2.788293 1_655
Ba0 O1 2.793994 1_555
Ba0 O2 2.971702 1_555
Ba0 O2 2.974446 1_455
Ba0 O7 2.980312 1_565
Ba0 O4 2.984122 1_555
Ba0 O4 2.985474 1_655
Ba0 O7 2.999009 1_555
Ba1 O5 2.745984 1_555
Ba1 O5 2.749836 1_655
Ba1 O0 2.759005 1_555
Ba1 O0 2.771514 1_545
Ba1 O0 2.779159 1_655
Ba1 O0 2.793294 1_645
Ba1 Cu0 3.140381 1_555
Li0 O0 1.957735 1_555
Li0 O6 2.113806 1_565
Li0 O3 2.121979 1_455
Li0 O3 2.245702 1_555
Li0 O6 2.307000 1_555
Eu0 O2 2.425278 1_455
Eu0 O2 2.428135 1_555
Eu0 O7 2.439628 1_565
Eu0 O7 2.442477 1_555
Eu0 O3 2.614726 1_556
Eu0 O6 2.617763 1_556
Eu0 O3 2.670358 1_456
Eu0 O6 2.670467 1_566
Eu0 Li0 2.762363 1_556
Cu0 O6 1.952145 1_655
Cu0 O6 1.953307 1_555
Cu0 O3 1.973649 1_545
Cu0 O3 1.975082 1_555
Cu1 O7 1.959224 1_565
Cu1 O7 1.959756 1_665
Cu1 O2 1.979614 1_565
Cu1 O2 1.979887 1_555
Cu1 O1 2.350369 1_655
Cu2 O4 1.889427 1_555
Cu2 O0 1.911719 1_545
Cu2 O5 1.975072 1_545
Cu2 O5 1.976336 1_555
Cu3 O1 1.838181 1_555
Cu3 O5 1.900080 1_555
Cu3 O4 1.976048 1_555
Cu3 O4 1.976762 1_565
