# generated using pymatgen
data_LuCdPt2
_symmetry_space_group_name_H-M   'P 1'
_cell_length_a   4.73863225
_cell_length_b   4.73863225
_cell_length_c   4.73863225
_cell_angle_alpha   60.00000000
_cell_angle_beta   60.00000000
_cell_angle_gamma   60.00000000
_symmetry_Int_Tables_number   1
_chemical_formula_structural   LuCdPt2
_chemical_formula_sum   'Lu1 Cd1 Pt2'
_cell_volume   75.23917426
_cell_formula_units_Z   1
loop_
 _symmetry_equiv_pos_site_id
 _symmetry_equiv_pos_as_xyz
  1  'x, y, z'
loop_
 _atom_site_type_symbol
 _atom_site_label
 _atom_site_symmetry_multiplicity
 _atom_site_fract_x
 _atom_site_fract_y
 _atom_site_fract_z
 _atom_site_occupancy
  Lu  Lu0  1  0.00000000  0.00000000  0.00000000  1
  Cd  Cd0  1  0.50000000  0.50000000  0.50000000  1
  Pt  Pt0  1  0.25000000  0.25000000  0.25000000  1
  Pt  Pt1  1  0.75000000  0.75000000  0.75000000  1
loop_
_geom_bond_atom_site_label_1
_geom_bond_atom_site_label_2
_geom_bond_distance
_geom_bond_site_symmetry_2
Lu0 Pt1 2.901808 1_544
Lu0 Pt1 2.901808 1_445
Lu0 Pt1 2.901808 1_444
Lu0 Pt1 2.901808 1_454
Lu0 Pt0 2.901808 1_455
Lu0 Pt0 2.901808 1_555
Lu0 Pt0 2.901808 1_554
Lu0 Pt0 2.901808 1_545
Cd0 Pt1 2.901808 1_545
Cd0 Pt0 2.901808 1_555
Cd0 Pt1 2.901808 1_455
Cd0 Pt0 2.901808 1_556
Cd0 Pt1 2.901808 1_554
Cd0 Pt0 2.901808 1_655
Cd0 Pt0 2.901808 1_565
Cd0 Pt1 2.901808 1_555
Cd0 Lu0 3.350719 1_656
Cd0 Lu0 3.350719 1_556
Cd0 Lu0 3.350719 1_566
Cd0 Lu0 3.350719 1_655
Cd0 Lu0 3.350719 1_565
Cd0 Lu0 3.350719 1_665
Pt0 Pt1 3.350719 1_545
Pt0 Pt1 3.350719 1_554
Pt0 Pt1 3.350719 1_455
Pt0 Pt1 3.350719 1_544
Pt0 Pt1 3.350719 1_445
Pt0 Pt1 3.350719 1_454
