# generated using pymatgen
data_Sr3TaCoO7
_symmetry_space_group_name_H-M   'P 1'
_cell_length_a   3.96452124
_cell_length_b   21.53448802
_cell_length_c   7.89744018
_cell_angle_alpha   89.99366612
_cell_angle_beta   89.97666490
_cell_angle_gamma   90.03371353
_symmetry_Int_Tables_number   1
_chemical_formula_structural   Sr3TaCoO7
_chemical_formula_sum   'Sr12 Ta4 Co4 O28'
_cell_volume   674.23536942
_cell_formula_units_Z   4
loop_
 _symmetry_equiv_pos_site_id
 _symmetry_equiv_pos_as_xyz
  1  'x, y, z'
loop_
 _atom_site_type_symbol
 _atom_site_label
 _atom_site_symmetry_multiplicity
 _atom_site_fract_x
 _atom_site_fract_y
 _atom_site_fract_z
 _atom_site_occupancy
  Sr  Sr0  1  0.50046600  0.98112600  0.24453600  1
  Sr  Sr1  1  0.99724000  0.47990300  0.99617400  1
  Sr  Sr2  1  0.49970000  0.98097100  0.75559600  1
  Sr  Sr3  1  0.99669000  0.47999300  0.50414900  1
  Sr  Sr4  1  0.99979900  0.69247300  0.49874400  1
  Sr  Sr5  1  0.50095900  0.19323800  0.25074000  1
  Sr  Sr6  1  0.99975800  0.69122900  0.00134500  1
  Sr  Sr7  1  0.50092200  0.19201600  0.74916600  1
  Sr  Sr8  1  0.50030100  0.81703500  0.24551200  1
  Sr  Sr9  1  0.00426900  0.31749600  0.00291400  1
  Sr  Sr10  1  0.49965600  0.81699400  0.75461400  1
  Sr  Sr11  1  0.00364000  0.31755500  0.49661200  1
  Ta  Ta0  1  0.49968100  0.59675500  0.25035800  1
  Ta  Ta1  1  0.00046100  0.09884200  0.00001800  1
  Ta  Ta2  1  0.49933300  0.59903900  0.74964600  1
  Ta  Ta3  1  0.00042500  0.09771200  0.50000100  1
  Co  Co0  1  0.50033100  0.39657900  0.24995500  1
  Co  Co1  1  0.00002300  0.89236800  0.00019800  1
  Co  Co2  1  0.99848400  0.89455700  0.49993800  1
  Co  Co3  1  0.49915000  0.39181000  0.75000900  1
  O  O0  1  0.00088600  0.80318600  0.49838400  1
  O  O1  1  0.49759800  0.30270000  0.25033800  1
  O  O2  1  0.99997400  0.80017800  0.00129600  1
  O  O3  1  0.49863700  0.30025200  0.74992100  1
  O  O4  1  0.50090000  0.69408500  0.25074500  1
  O  O5  1  0.00066700  0.19517900  0.00227700  1
  O  O6  1  0.50007000  0.69607200  0.74900100  1
  O  O7  1  0.00066300  0.19449900  0.49775500  1
  O  O8  1  0.50130500  0.50731100  0.24993900  1
  O  O9  1  0.00016800  0.00970500  0.99885400  1
  O  O10  1  0.49987000  0.51057600  0.74998900  1
  O  O11  1  0.00027600  0.00824500  0.50118400  1
  O  O12  1  0.50087800  0.90415400  0.49989100  1
  O  O13  1  0.99849400  0.40231200  0.25004800  1
  O  O14  1  0.50001100  0.90288300  0.00021300  1
  O  O15  1  0.99885300  0.40121000  0.74993800  1
  O  O16  1  0.99993700  0.90256300  0.24307400  1
  O  O17  1  0.49865200  0.40444000  0.98720600  1
  O  O18  1  0.00022200  0.90196700  0.75695000  1
  O  O19  1  0.49852400  0.40450800  0.51291800  1
  O  O20  1  0.00022800  0.60173300  0.25016100  1
  O  O21  1  0.50043500  0.10347800  0.99980200  1
  O  O22  1  0.99976000  0.60476900  0.74974600  1
  O  O23  1  0.50043400  0.10283600  0.50019400  1
  O  O24  1  0.50025800  0.60342800  0.49943800  1
  O  O25  1  0.00033400  0.10258300  0.25018500  1
  O  O26  1  0.50022300  0.60353100  0.00050600  1
  O  O27  1  0.00045700  0.10392500  0.74981900  1
loop_
_geom_bond_atom_site_label_1
_geom_bond_atom_site_label_2
_geom_bond_distance
_geom_bond_site_symmetry_2
Co0 O13 1.978761 1_555
Co0 O13 1.993443 1_455
Co0 O1 2.021661 1_555
Co0 O17 2.081933 1_554
Co0 O19 2.083771 1_555
Co0 O8 2.384558 1_555
Co1 O16 1.930646 1_455
Co1 O18 1.932103 1_554
Co1 O2 1.985282 1_455
Co1 O14 1.994972 1_555
Co1 O14 1.995331 1_455
Co1 O9 2.526813 1_564
Co2 O0 1.967696 1_655
Co2 O12 1.983686 1_555
Co2 O12 2.002324 1_655
Co2 O16 2.035868 1_555
Co2 O18 2.036031 1_655
Co2 O11 2.448240 1_665
Co3 O19 1.892246 1_555
Co3 O17 1.892921 1_555
Co3 O3 1.971655 1_555
Co3 O15 1.991279 1_555
Co3 O15 1.993860 1_455
Co3 O10 2.557565 1_555
O0 Sr4 2.384151 1_455
O0 Sr8 2.827231 1_555
O0 Sr8 2.831866 1_455
O0 Sr10 2.845341 1_555
O0 Sr10 2.851225 1_455
O1 Sr5 2.357255 1_555
O1 Sr11 2.778100 1_555
O1 Sr9 2.783633 1_555
O1 Sr11 2.812927 1_655
O1 Sr9 2.819667 1_655
O2 Sr6 2.346161 1_555
O2 Sr8 2.788134 1_555
O2 Sr8 2.790790 1_655
O2 Sr10 2.801190 1_654
O2 Sr10 2.804397 1_554
O3 Sr7 2.330838 1_555
O3 Sr9 2.822951 1_556
O3 Sr11 2.827688 1_555
O3 Sr11 2.853925 1_655
O3 Sr9 2.854963 1_656
O4 Ta0 2.095957 1_555
O4 Sr8 2.647986 1_555
O4 Sr4 2.784321 1_555
O4 Sr4 2.789367 1_455
O4 Sr6 2.791347 1_555
O4 Sr6 2.798855 1_455
O5 Ta1 2.074646 1_555
O5 Sr9 2.634070 1_555
O5 Sr5 2.788108 1_455
O5 Sr5 2.790924 1_555
O5 Sr7 2.815813 1_454
O5 Sr7 2.816147 1_554
O6 Ta2 2.089562 1_555
O6 Sr10 2.604377 1_555
O6 Sr4 2.798972 1_555
O6 Sr4 2.801569 1_455
O6 Sr6 2.812522 1_556
O6 Sr6 2.813035 1_456
O7 Ta3 2.084332 1_555
O7 Sr11 2.649982 1_555
O7 Sr5 2.781026 1_455
O7 Sr5 2.781589 1_555
O7 Sr7 2.804820 1_455
O7 Sr7 2.807458 1_555
O8 Ta0 1.926148 1_555
O8 Sr1 2.868605 1_554
O8 Sr3 2.870197 1_555
O8 Sr1 2.891434 1_454
O8 Sr3 2.893765 1_455
O9 Ta1 1.919542 1_556
O9 Sr2 2.827397 1_545
O9 Sr2 2.830583 1_445
O9 Sr0 2.839579 1_446
O9 Sr0 2.842835 1_546
O10 Ta2 1.905009 1_555
O10 Sr3 2.842783 1_555
O10 Sr1 2.847601 1_555
O10 Sr1 2.860445 1_455
O10 Sr3 2.860870 1_455
O11 Ta3 1.926647 1_555
O11 Sr2 2.882102 1_545
O11 Sr2 2.883642 1_445
O11 Sr0 2.894436 1_445
O11 Sr0 2.894808 1_545
O12 Sr0 2.610293 1_555
O12 Sr2 2.610599 1_555
O12 Sr8 2.748873 1_555
O12 Sr10 2.751158 1_555
O13 Sr1 2.609788 1_554
O13 Sr3 2.612692 1_555
O13 Sr11 2.668846 1_655
O13 Sr9 2.673303 1_655
O14 Sr2 2.561065 1_554
O14 Sr0 2.561788 1_555
O14 Sr8 2.677640 1_555
O14 Sr10 2.680259 1_554
O15 Sr3 2.577896 1_555
O15 Sr1 2.579552 1_555
O15 Sr9 2.690923 1_656
O15 Sr11 2.692389 1_655
O16 Sr0 2.605253 1_555
O16 Sr0 2.606936 1_655
O16 Sr8 2.704054 1_555
O16 Sr8 2.707768 1_655
O17 Sr1 2.559176 1_555
O17 Sr1 2.569265 1_455
O17 Sr9 2.712541 1_556
O17 Sr9 2.746558 1_656
O18 Sr2 2.609932 1_555
O18 Sr2 2.614598 1_455
O18 Sr10 2.696924 1_555
O18 Sr10 2.698650 1_455
O19 Sr3 2.558088 1_555
O19 Sr3 2.570851 1_455
O19 Sr11 2.714423 1_555
O19 Sr11 2.745402 1_655
O20 Ta0 1.983056 1_555
O20 Ta0 1.987260 1_455
O20 Sr6 2.752223 1_455
O20 Sr4 2.770046 1_455
O20 O24 2.793336 1_455
O20 O24 2.794612 1_555
O20 O26 2.795502 1_555
O20 O4 2.806883 1_455
O20 O4 2.808995 1_555
O20 Sr3 3.300796 1_455
O20 Sr1 3.302682 1_454
O21 Ta1 1.984611 1_556
O21 Ta1 1.984936 1_656
O21 Sr7 2.748148 1_555
O21 Sr5 2.768482 1_556
O21 O27 2.797168 1_655
O21 O5 2.797926 1_656
O21 O27 2.798192 1_555
O21 O5 2.798258 1_556
O21 Sr0 3.267505 1_546
O21 Sr2 3.268079 1_545
O22 Ta2 1.984480 1_655
O22 Ta2 1.987715 1_555
O22 Sr6 2.723143 1_556
O22 Sr4 2.737813 1_555
O22 O6 2.791937 1_555
O22 O6 2.792036 1_655
O22 Sr3 3.314088 1_555
O22 Sr1 3.319144 1_555
O23 Ta3 1.985301 1_555
O23 Ta3 1.985359 1_655
O23 Sr7 2.748646 1_555
O23 Sr5 2.769497 1_555
O23 O27 2.795146 1_555
O23 O27 2.796394 1_655
O23 O25 2.796966 1_655
O23 O7 2.797325 1_655
O23 O7 2.797695 1_555
O23 O25 2.798663 1_555
O23 Sr0 3.308648 1_545
O23 Sr2 3.309706 1_545
O24 Ta0 1.972354 1_555
O24 Ta2 1.978253 1_555
O24 Sr4 2.755839 1_555
O24 Sr4 2.760080 1_455
O24 O4 2.769094 1_555
O24 Sr3 3.308565 1_555
O24 Sr3 3.323588 1_455
O25 Ta3 1.975682 1_555
O25 Ta1 1.977329 1_555
O25 Sr5 2.781227 1_455
O25 O7 2.782342 1_555
O25 Sr5 2.783123 1_555
O25 Sr0 3.280882 1_445
O25 Sr0 3.283351 1_545
O26 Ta0 1.978563 1_555
O26 Ta2 1.983527 1_554
O26 Sr6 2.735737 1_555
O26 Sr6 2.740012 1_455
O26 O4 2.776517 1_555
O26 Sr1 3.313243 1_554
O26 Sr1 3.325513 1_454
O27 Ta3 1.977469 1_555
O27 Ta1 1.978949 1_556
O27 Sr7 2.743191 1_455
O27 Sr7 2.744238 1_555
O27 O7 2.786787 1_555
O27 Sr2 3.307015 1_545
O27 Sr2 3.308723 1_445
