# generated using pymatgen
data_Li2FeCl4
_symmetry_space_group_name_H-M   'P 1'
_cell_length_a   7.35135612
_cell_length_b   7.35135612
_cell_length_c   7.35135612
_cell_angle_alpha   119.70352962
_cell_angle_beta   119.28978924
_cell_angle_gamma   90.87441283
_symmetry_Int_Tables_number   1
_chemical_formula_structural   Li2FeCl4
_chemical_formula_sum   'Li4 Fe2 Cl8'
_cell_volume   283.02010970
_cell_formula_units_Z   2
loop_
 _symmetry_equiv_pos_site_id
 _symmetry_equiv_pos_as_xyz
  1  'x, y, z'
loop_
 _atom_site_type_symbol
 _atom_site_label
 _atom_site_symmetry_multiplicity
 _atom_site_fract_x
 _atom_site_fract_y
 _atom_site_fract_z
 _atom_site_occupancy
  Li  Li0  1  0.50000000  0.50000000  0.50000000  1
  Li  Li1  1  0.50000000  0.00000000  0.00000000  1
  Li  Li2  1  0.11957200  0.86957200  0.25000000  1
  Li  Li3  1  0.88042800  0.13042800  0.75000000  1
  Fe  Fe0  1  0.50000000  0.50000000  0.00000000  1
  Fe  Fe1  1  0.00000000  0.50000000  0.50000000  1
  Cl  Cl0  1  0.25283500  0.73316300  0.98032800  1
  Cl  Cl1  1  0.25283500  0.27250700  0.51967200  1
  Cl  Cl2  1  0.24671700  0.73533800  0.51137900  1
  Cl  Cl3  1  0.72395900  0.73533800  0.98862100  1
  Cl  Cl4  1  0.74716500  0.26683700  0.01967200  1
  Cl  Cl5  1  0.74716500  0.72749300  0.48032800  1
  Cl  Cl6  1  0.75328300  0.26466200  0.48862100  1
  Cl  Cl7  1  0.27604100  0.26466200  0.01137900  1
loop_
_geom_bond_atom_site_label_1
_geom_bond_atom_site_label_2
_geom_bond_distance
_geom_bond_site_symmetry_2
Cl0 Li2 2.419833 1_556
Cl0 Fe1 2.518734 1_555
Cl0 Fe0 2.518734 1_556
Cl0 Li1 2.554075 1_566
Cl1 Li2 2.419833 1_545
Cl1 Fe0 2.518734 1_556
Cl1 Fe1 2.518734 1_555
Cl1 Li0 2.554075 1_555
Cl2 Li2 2.385269 1_555
Cl2 Fe1 2.429396 1_555
Cl2 Li0 2.564045 1_555
Cl2 Li1 2.564045 1_566
Cl3 Li2 2.385269 1_656
Cl3 Fe0 2.429396 1_556
Cl3 Li0 2.564045 1_555
Cl3 Li1 2.564045 1_566
Cl4 Li3 2.419833 1_554
Cl4 Fe1 2.518734 1_655
Cl4 Fe0 2.518734 1_555
Cl4 Li1 2.554075 1_555
Cl5 Li3 2.419833 1_565
Cl5 Fe1 2.518734 1_655
Cl5 Fe0 2.518734 1_555
Cl5 Li0 2.554075 1_555
Cl6 Li3 2.385269 1_555
Cl6 Fe1 2.429396 1_655
Cl6 Li0 2.564045 1_555
Cl6 Li1 2.564045 1_555
Cl7 Li3 2.385269 1_454
Cl7 Fe0 2.429396 1_555
Cl7 Li0 2.564045 1_555
Cl7 Li1 2.564045 1_555
