# generated using pymatgen
data_Li2Mn3SnO8
_symmetry_space_group_name_H-M   'P 1'
_cell_length_a   6.05953086
_cell_length_b   6.22016350
_cell_length_c   8.42039498
_cell_angle_alpha   88.06793523
_cell_angle_beta   90.65332248
_cell_angle_gamma   87.92230713
_symmetry_Int_Tables_number   1
_chemical_formula_structural   Li2Mn3SnO8
_chemical_formula_sum   'Li4 Mn6 Sn2 O16'
_cell_volume   316.96112389
_cell_formula_units_Z   2
loop_
 _symmetry_equiv_pos_site_id
 _symmetry_equiv_pos_as_xyz
  1  'x, y, z'
loop_
 _atom_site_type_symbol
 _atom_site_label
 _atom_site_symmetry_multiplicity
 _atom_site_fract_x
 _atom_site_fract_y
 _atom_site_fract_z
 _atom_site_occupancy
  Li  Li0  1  0.00607500  0.24776300  0.11693500  1
  Li  Li1  1  0.50055200  0.74982300  0.62107400  1
  Li  Li2  1  0.99940700  0.75015100  0.87892000  1
  Li  Li3  1  0.49389000  0.25230100  0.38304400  1
  Mn  Mn0  1  0.74993100  0.24997600  0.74990800  1
  Mn  Mn1  1  0.75029600  0.74987700  0.25004700  1
  Mn  Mn2  1  0.24993700  0.24985600  0.75014400  1
  Mn  Mn3  1  0.00148300  0.50103100  0.50228000  1
  Mn  Mn4  1  0.49865800  0.99909900  0.99777500  1
  Mn  Mn5  1  0.24988900  0.75005800  0.24994000  1
  Sn  Sn0  1  0.00741800  0.99887700  0.50099000  1
  Sn  Sn1  1  0.49230400  0.50117300  0.99896800  1
  O  O0  1  0.00618400  0.54430300  0.26644800  1
  O  O1  1  0.49983200  0.04074100  0.76408100  1
  O  O2  1  0.00010100  0.45921800  0.73590300  1
  O  O3  1  0.49397000  0.95572000  0.23359800  1
  O  O4  1  0.24852600  0.75656600  0.47788600  1
  O  O5  1  0.73728700  0.26284800  0.98200000  1
  O  O6  1  0.78289600  0.74535700  0.49161100  1
  O  O7  1  0.27327300  0.24067500  0.98191700  1
  O  O8  1  0.02037400  0.97987100  0.25442400  1
  O  O9  1  0.46203700  0.47871000  0.75368600  1
  O  O10  1  0.03786700  0.02129300  0.74623300  1
  O  O11  1  0.47964700  0.52011200  0.24562000  1
  O  O12  1  0.22686500  0.25928200  0.51803800  1
  O  O13  1  0.71719800  0.75452100  0.00838400  1
  O  O14  1  0.76260400  0.23724800  0.51799100  1
  O  O15  1  0.25149900  0.74354700  0.02215500  1
loop_
_geom_bond_atom_site_label_1
_geom_bond_atom_site_label_2
_geom_bond_distance
_geom_bond_site_symmetry_2
Li0 O5 1.972829 1_454
Li0 O7 1.989006 1_554
Li0 O8 1.995402 1_545
Li0 O0 2.268019 1_555
Li1 O4 1.933298 1_555
Li1 O9 2.013133 1_555
Li1 O6 2.038962 1_555
Li1 O1 2.207042 1_565
Li2 O15 1.933878 1_656
Li2 O10 2.013564 1_665
Li2 O13 2.038275 1_556
Li2 O2 2.207172 1_655
Li3 O14 1.972520 1_555
Li3 O12 1.988021 1_555
Li3 O11 1.994688 1_555
Li3 O3 2.267876 1_545
Mn0 O14 1.959368 1_555
Mn0 O5 1.960896 1_555
Mn0 O1 2.035052 1_555
Mn0 O2 2.035347 1_655
Mn0 O10 2.211952 1_655
Mn0 O9 2.211991 1_555
Mn1 O0 1.974295 1_655
Mn1 O3 1.977363 1_555
Mn1 O6 2.040541 1_555
Mn1 O13 2.041611 1_555
Mn1 O8 2.213188 1_655
Mn1 O11 2.214882 1_555
Mn2 O10 1.951491 1_555
Mn2 O9 1.952875 1_555
Mn2 O7 1.953889 1_555
Mn2 O12 1.956580 1_555
Mn2 O1 1.959962 1_555
Mn2 O2 1.960743 1_555
Mn3 O2 1.975757 1_555
Mn3 O6 1.978438 1_455
Mn3 O12 1.994353 1_555
Mn3 O0 1.995610 1_555
Mn3 O14 2.228636 1_455
Mn3 O4 2.228684 1_555
Mn4 O1 1.976220 1_565
Mn4 O13 1.979414 1_556
Mn4 O7 1.993611 1_565
Mn4 O3 1.995600 1_556
Mn4 O5 2.227474 1_565
Mn4 O15 2.229244 1_556
Mn5 O15 1.919960 1_555
Mn5 O4 1.921292 1_555
Mn5 O8 1.959516 1_555
Mn5 O11 1.961034 1_555
Mn5 O0 1.991926 1_555
Mn5 O3 1.993206 1_555
O4 Sn0 2.076211 1_555
O5 Sn1 2.069112 1_555
O6 Sn0 2.122599 1_655
O7 Sn1 2.138906 1_555
O8 Sn0 2.085730 1_555
O9 Sn1 2.081249 1_555
O10 Sn0 2.080980 1_545
O11 Sn1 2.086331 1_554
O12 Sn0 2.140084 1_545
O13 Sn1 2.123301 1_554
O14 Sn0 2.068630 1_645
O15 Sn1 2.075330 1_554
