# generated using pymatgen
data_ZnH16(IO8)2
_symmetry_space_group_name_H-M   'P 1'
_cell_length_a   5.57111200
_cell_length_b   10.82734300
_cell_length_c   12.03365481
_cell_angle_alpha   66.92940572
_cell_angle_beta   90.00000000
_cell_angle_gamma   90.00000000
_symmetry_Int_Tables_number   1
_chemical_formula_structural   ZnH16(IO8)2
_chemical_formula_sum   'Zn2 H32 I4 O32'
_cell_volume   667.82072545
_cell_formula_units_Z   2
loop_
 _symmetry_equiv_pos_site_id
 _symmetry_equiv_pos_as_xyz
  1  'x, y, z'
loop_
 _atom_site_type_symbol
 _atom_site_label
 _atom_site_symmetry_multiplicity
 _atom_site_fract_x
 _atom_site_fract_y
 _atom_site_fract_z
 _atom_site_occupancy
  Zn  Zn0  1  0.00000000  0.00000000  0.00000000  1
  Zn  Zn1  1  0.50000000  0.00000000  0.50000000  1
  H  H0  1  0.59797300  0.63595300  0.39675200  1
  H  H1  1  0.09797300  0.36404700  0.10324800  1
  H  H2  1  0.40202700  0.36404700  0.60324800  1
  H  H3  1  0.90202700  0.63595300  0.89675200  1
  H  H4  1  0.36501200  0.48541100  0.32954100  1
  H  H5  1  0.86501200  0.51458900  0.17045900  1
  H  H6  1  0.63498800  0.51458900  0.67045900  1
  H  H7  1  0.13498800  0.48541100  0.82954100  1
  H  H8  1  0.16693900  0.75394200  0.11188900  1
  H  H9  1  0.66693900  0.24605800  0.38811100  1
  H  H10  1  0.83306100  0.24605800  0.88811100  1
  H  H11  1  0.33306100  0.75394200  0.61188900  1
  H  H12  1  0.26911100  0.81026400  0.97625100  1
  H  H13  1  0.76911100  0.18973600  0.52374900  1
  H  H14  1  0.73088900  0.18973600  0.02374900  1
  H  H15  1  0.23088900  0.81026400  0.47625100  1
  H  H16  1  0.76383800  0.78901200  0.15355800  1
  H  H17  1  0.26383800  0.21098800  0.34644200  1
  H  H18  1  0.23616200  0.21098800  0.84644200  1
  H  H19  1  0.73616200  0.78901200  0.65355800  1
  H  H20  1  0.54767200  0.87989400  0.08303500  1
  H  H21  1  0.04767200  0.12010600  0.41696500  1
  H  H22  1  0.45232800  0.12010600  0.91696500  1
  H  H23  1  0.95232800  0.87989400  0.58303500  1
  H  H24  1  0.16820000  0.11189200  0.15854900  1
  H  H25  1  0.66820000  0.88810800  0.34145100  1
  H  H26  1  0.83180000  0.88810800  0.84145100  1
  H  H27  1  0.33180000  0.11189200  0.65854900  1
  H  H28  1  0.15498400  0.95053100  0.22931500  1
  H  H29  1  0.65498400  0.04946900  0.27068500  1
  H  H30  1  0.84501600  0.04946900  0.77068500  1
  H  H31  1  0.34501600  0.95053100  0.72931500  1
  I  I0  1  0.03858800  0.62370800  0.37725400  1
  I  I1  1  0.53858800  0.37629200  0.12274600  1
  I  I2  1  0.96141200  0.37629200  0.62274600  1
  I  I3  1  0.46141200  0.62370800  0.87725400  1
  O  O0  1  0.96421200  0.64331000  0.22231500  1
  O  O1  1  0.46421200  0.35669000  0.27768500  1
  O  O2  1  0.03578800  0.35669000  0.77768500  1
  O  O3  1  0.53578800  0.64331000  0.72231500  1
  O  O4  1  0.73258400  0.69386000  0.40386400  1
  O  O5  1  0.23258400  0.30614000  0.09613600  1
  O  O6  1  0.26741600  0.30614000  0.59613600  1
  O  O7  1  0.76741600  0.69386000  0.90386400  1
  O  O8  1  0.17715100  0.78298000  0.35552700  1
  O  O9  1  0.67715100  0.21702000  0.14447300  1
  O  O10  1  0.82284900  0.21702000  0.64447300  1
  O  O11  1  0.32284900  0.78298000  0.85552700  1
  O  O12  1  0.35842300  0.55282800  0.36731000  1
  O  O13  1  0.85842300  0.44717200  0.13269000  1
  O  O14  1  0.64157700  0.44717200  0.63269000  1
  O  O15  1  0.14157700  0.55282800  0.86731000  1
  O  O16  1  0.09740600  0.56104000  0.55759200  1
  O  O17  1  0.59740600  0.43896000  0.94240800  1
  O  O18  1  0.90259400  0.43896000  0.44240800  1
  O  O19  1  0.40259400  0.56104000  0.05759200  1
  O  O20  1  0.23871600  0.83451300  0.04800500  1
  O  O21  1  0.73871600  0.16548700  0.45199500  1
  O  O22  1  0.76128400  0.16548700  0.95199500  1
  O  O23  1  0.26128400  0.83451300  0.54800500  1
  O  O24  1  0.71293100  0.88353300  0.11125400  1
  O  O25  1  0.21293100  0.11646700  0.38874600  1
  O  O26  1  0.28706900  0.11646700  0.88874600  1
  O  O27  1  0.78706900  0.88353300  0.61125400  1
  O  O28  1  0.13873700  0.02675200  0.15059700  1
  O  O29  1  0.63873700  0.97324800  0.34940300  1
  O  O30  1  0.86126300  0.97324800  0.84940300  1
  O  O31  1  0.36126300  0.02675200  0.65059700  1
loop_
_geom_bond_atom_site_label_1
_geom_bond_atom_site_label_2
_geom_bond_distance
_geom_bond_site_symmetry_2
H0 O4 1.002437 1_555
H0 O18 2.610139 1_555
H1 O5 1.002437 1_555
H1 O19 2.610139 1_555
H2 O6 1.002437 1_555
H2 O16 2.610139 1_555
H3 O7 1.002437 1_555
H3 O17 2.610139 1_555
H4 O12 1.000375 1_555
H4 O1 1.821771 1_555
H5 O13 1.000375 1_555
H5 O0 1.821771 1_555
H6 O14 1.000375 1_555
H6 O3 1.821771 1_555
H7 O15 1.000375 1_555
H7 O2 1.821771 1_555
H8 O20 0.993136 1_555
H8 O0 1.796863 1_455
H8 O19 2.753613 1_555
H9 O21 0.993136 1_555
H9 O1 1.796863 1_555
H9 O18 2.753613 1_555
H10 O22 0.993136 1_555
H10 O2 1.796863 1_655
H10 O17 2.753613 1_555
H11 O23 0.993136 1_555
H11 O3 1.796863 1_555
H11 O16 2.753613 1_555
H12 O20 1.010372 1_556
H12 O11 1.619793 1_555
H12 O19 2.592797 1_556
H13 O21 1.010372 1_555
H13 O10 1.619793 1_555
H13 O18 2.592797 1_555
H14 O22 1.010372 1_554
H14 O9 1.619793 1_555
H14 O17 2.592797 1_554
H15 O23 1.010372 1_555
H15 O8 1.619793 1_555
H15 O16 2.592797 1_555
H16 O24 0.989264 1_555
H16 O0 1.842948 1_555
H17 O25 0.989264 1_555
H17 O1 1.842948 1_555
H18 O26 0.989264 1_555
H18 O2 1.842948 1_555
H19 O27 0.989264 1_555
H19 O3 1.842948 1_555
H20 O24 0.987419 1_555
H21 O25 0.987419 1_555
H22 O26 0.987419 1_555
H23 O27 0.987419 1_555
H24 O28 0.977253 1_555
H25 O29 0.977253 1_555
H26 O30 0.977253 1_555
H27 O31 0.977253 1_555
H28 O28 0.986861 1_565
H28 O8 1.858400 1_555
H29 O29 0.986861 1_545
H29 O9 1.858400 1_555
H30 O30 0.986861 1_545
H30 O10 1.858400 1_555
H31 O31 0.986861 1_565
H31 O11 1.858400 1_555
I0 O8 1.812395 1_555
I0 O0 1.839266 1_455
I0 O4 1.943289 1_455
I0 O12 1.962193 1_555
I0 O18 1.990201 1_455
I0 O16 2.030562 1_555
I1 O9 1.812395 1_555
I1 O1 1.839266 1_555
I1 O5 1.943289 1_555
I1 O13 1.962193 1_555
I1 O19 1.990201 1_555
I1 O17 2.030562 1_554
I2 O10 1.812395 1_555
I2 O2 1.839266 1_655
I2 O6 1.943289 1_655
I2 O14 1.962193 1_555
I2 O16 1.990201 1_655
I2 O18 2.030562 1_555
I3 O11 1.812395 1_555
I3 O3 1.839266 1_555
I3 O7 1.943289 1_555
I3 O15 1.962193 1_555
I3 O17 1.990201 1_555
I3 O19 2.030562 1_556
O0 O18 2.726772 1_555
O1 O19 2.726772 1_555
O12 O16 2.743203 1_555
O13 O17 2.743203 1_554
O14 O18 2.743203 1_555
O15 O19 2.743203 1_556
O16 O18 2.506432 1_455
O16 O2 2.726772 1_555
O16 O4 2.745212 1_455
O17 O19 2.506432 1_556
O17 O3 2.726772 1_555
O17 O5 2.745212 1_556
O18 O6 2.745212 1_655
O19 O7 2.745212 1_554
O20 Zn0 2.121710 1_565
O21 Zn1 2.121710 1_555
O22 Zn0 2.121710 1_656
O23 Zn1 2.121710 1_565
O24 Zn0 2.148758 1_665
O25 Zn1 2.148758 1_555
O26 Zn0 2.148758 1_556
O27 Zn1 2.148758 1_565
O28 Zn0 2.092100 1_555
O29 Zn1 2.092100 1_565
O30 Zn0 2.092100 1_666
O31 Zn1 2.092100 1_555
