# generated using pymatgen
data_Y(MnCo)6
_symmetry_space_group_name_H-M   'P 1'
_cell_length_a   4.66891700
_cell_length_b   6.28857405
_cell_length_c   6.28857405
_cell_angle_alpha   97.46846372
_cell_angle_beta   111.79102021
_cell_angle_gamma   68.20897979
_symmetry_Int_Tables_number   1
_chemical_formula_structural   Y(MnCo)6
_chemical_formula_sum   'Y1 Mn6 Co6'
_cell_volume   159.18700674
_cell_formula_units_Z   1
loop_
 _symmetry_equiv_pos_site_id
 _symmetry_equiv_pos_as_xyz
  1  'x, y, z'
loop_
 _atom_site_type_symbol
 _atom_site_label
 _atom_site_symmetry_multiplicity
 _atom_site_fract_x
 _atom_site_fract_y
 _atom_site_fract_z
 _atom_site_occupancy
  Y  Y0  1  0.00000000  0.00000000  0.00000000  1
  Mn  Mn0  1  0.63314900  0.36685100  0.63314900  1
  Mn  Mn1  1  0.36685100  0.63314900  0.36685100  1
  Mn  Mn2  1  0.00000000  0.36514600  0.36514600  1
  Mn  Mn3  1  0.00000000  0.63485400  0.63485400  1
  Mn  Mn4  1  0.50000000  0.78268200  0.78268200  1
  Mn  Mn5  1  0.50000000  0.21731800  0.21731800  1
  Co  Co0  1  0.50000000  0.00000000  0.50000000  1
  Co  Co1  1  0.00000000  0.00000000  0.50000000  1
  Co  Co2  1  0.50000000  0.50000000  0.00000000  1
  Co  Co3  1  0.00000000  0.50000000  0.00000000  1
  Co  Co4  1  0.72716300  0.77283700  0.22716300  1
  Co  Co5  1  0.27283700  0.22716300  0.77283700  1
loop_
_geom_bond_atom_site_label_1
_geom_bond_atom_site_label_2
_geom_bond_distance
_geom_bond_site_symmetry_2
Mn0 Mn1 2.189060 1_555
Mn0 Mn4 2.587797 1_555
Mn0 Mn5 2.587797 1_555
Mn0 Mn3 2.810530 1_555
Mn0 Mn2 2.810530 1_555
Mn0 Mn3 2.810530 1_655
Mn0 Mn2 2.810530 1_655
Mn0 Y0 3.015640 1_656
Mn1 Mn4 2.587797 1_555
Mn1 Mn5 2.587797 1_555
Mn1 Mn3 2.810530 1_655
Mn1 Mn2 2.810530 1_655
Mn1 Mn3 2.810530 1_555
Mn1 Mn2 2.810530 1_555
Mn1 Y0 3.015640 1_565
Mn2 Mn3 2.237307 1_555
Mn2 Mn5 2.636940 1_455
Mn2 Mn5 2.636940 1_555
Mn2 Y0 3.028993 1_555
Mn3 Mn4 2.636940 1_455
Mn3 Mn4 2.636940 1_555
Mn3 Y0 3.028993 1_566
Mn4 Y0 2.949489 1_566
Mn4 Y0 2.949489 1_666
Mn5 Y0 2.949489 1_555
Mn5 Y0 2.949489 1_655
Co0 Co1 2.334459 1_555
Co0 Co1 2.334459 1_655
Co0 Mn4 2.378928 1_545
Co0 Mn5 2.378928 1_555
Co0 Co5 2.387134 1_555
Co0 Co4 2.387134 1_545
Co0 Mn2 2.549146 1_555
Co0 Mn3 2.549146 1_645
Co0 Mn0 2.566288 1_555
Co0 Mn1 2.566288 1_545
Co0 Y0 3.144287 1_555
Co0 Y0 3.144287 1_656
Co1 Mn4 2.378928 1_545
Co1 Mn5 2.378928 1_455
Co1 Co5 2.387134 1_555
Co1 Co4 2.387134 1_445
Co1 Mn2 2.549147 1_555
Co1 Mn3 2.549147 1_545
Co1 Mn0 2.566287 1_455
Co1 Mn1 2.566287 1_545
Co1 Y0 3.144287 1_555
Co1 Y0 3.144287 1_556
Co2 Co3 2.334459 1_655
Co2 Co3 2.334459 1_555
Co2 Mn4 2.378928 1_554
Co2 Mn5 2.378928 1_555
Co2 Co4 2.387134 1_555
Co2 Co5 2.387134 1_554
Co2 Mn2 2.549146 1_655
Co2 Mn3 2.549146 1_554
Co2 Mn1 2.566288 1_555
Co2 Mn0 2.566288 1_554
Co2 Y0 3.144287 1_655
Co2 Y0 3.144287 1_565
Co3 Mn4 2.378928 1_454
Co3 Mn5 2.378928 1_555
Co3 Co4 2.387134 1_455
Co3 Co5 2.387134 1_554
Co3 Mn2 2.549147 1_555
Co3 Mn3 2.549147 1_554
Co3 Mn1 2.566287 1_555
Co3 Mn0 2.566287 1_454
Co3 Y0 3.144287 1_555
Co3 Y0 3.144287 1_565
Co4 Mn3 2.506311 1_655
Co4 Mn2 2.506311 1_655
Co4 Mn4 2.595536 1_554
Co4 Mn5 2.595536 1_565
Co4 Mn1 2.601586 1_655
Co4 Mn1 2.601586 1_555
Co4 Y0 2.989434 1_565
Co4 Y0 2.989435 1_665
Co5 Mn3 2.506311 1_555
Co5 Mn2 2.506311 1_555
Co5 Mn4 2.595536 1_545
Co5 Mn5 2.595536 1_556
Co5 Mn0 2.601586 1_455
Co5 Mn0 2.601586 1_555
Co5 Y0 2.989434 1_656
Co5 Y0 2.989435 1_556
