# generated using pymatgen
data_Li3V2(O2F)2
_symmetry_space_group_name_H-M   'P 1'
_cell_length_a   5.12963364
_cell_length_b   8.07612859
_cell_length_c   6.11115678
_cell_angle_alpha   90.11868083
_cell_angle_beta   90.04254929
_cell_angle_gamma   107.72518301
_symmetry_Int_Tables_number   1
_chemical_formula_structural   Li3V2(O2F)2
_chemical_formula_sum   'Li6 V4 O8 F4'
_cell_volume   241.15110554
_cell_formula_units_Z   2
loop_
 _symmetry_equiv_pos_site_id
 _symmetry_equiv_pos_as_xyz
  1  'x, y, z'
loop_
 _atom_site_type_symbol
 _atom_site_label
 _atom_site_symmetry_multiplicity
 _atom_site_fract_x
 _atom_site_fract_y
 _atom_site_fract_z
 _atom_site_occupancy
  Li  Li0  1  0.93025700  0.61783500  0.24995200  1
  Li  Li1  1  0.07373800  0.38137200  0.74954400  1
  Li  Li2  1  0.38763300  0.62080500  0.00088400  1
  Li  Li3  1  0.61564600  0.37880800  0.99933800  1
  Li  Li4  1  0.38774600  0.62057400  0.49963900  1
  Li  Li5  1  0.61544200  0.37888000  0.50023800  1
  V  V0  1  0.49924100  0.00158200  0.25002500  1
  V  V1  1  0.49735000  0.99872100  0.75006600  1
  V  V2  1  0.99818200  0.00004200  0.50005500  1
  V  V3  1  0.99835700  0.00028000  0.99995000  1
  O  O0  1  0.87321600  0.12349500  0.25073400  1
  O  O1  1  0.12371300  0.87677700  0.74943100  1
  O  O2  1  0.12224700  0.86373600  0.24880700  1
  O  O3  1  0.87440800  0.13656400  0.75084900  1
  O  O4  1  0.40437500  0.13551200  0.00379200  1
  O  O5  1  0.59244200  0.86525500  0.99650100  1
  O  O6  1  0.40435200  0.13558300  0.49755600  1
  O  O7  1  0.59225600  0.86492500  0.50297300  1
  F  F0  1  0.00207700  0.49920500  0.99966200  1
  F  F1  1  0.00182200  0.49889300  0.49942500  1
  F  F2  1  0.54091000  0.51761100  0.25002000  1
  F  F3  1  0.46458800  0.48354400  0.75055700  1
loop_
_geom_bond_atom_site_label_1
_geom_bond_atom_site_label_2
_geom_bond_distance
_geom_bond_site_symmetry_2
Li0 O2 1.929515 1_655
Li1 O3 1.929667 1_455
Li2 O5 1.933729 1_554
Li3 O4 1.933824 1_556
Li4 O7 1.932492 1_555
Li5 O6 1.933366 1_555
O0 V0 1.870667 1_555
O0 V2 2.029891 1_555
O0 V3 2.033519 1_554
O1 V1 1.869220 1_555
O1 V2 2.030598 1_465
O1 V3 2.034173 1_465
O2 V0 1.915255 1_565
O2 V3 2.089260 1_464
O2 V2 2.096512 1_465
O3 V1 1.915519 1_545
O3 V3 2.089182 1_555
O3 V2 2.094867 1_555
O4 V0 1.999306 1_555
O4 V3 2.036139 1_454
O4 V1 2.041316 1_544
O5 V1 1.998401 1_555
O5 V3 2.035288 1_565
O5 V0 2.038555 1_566
O6 V0 2.002853 1_555
O6 V2 2.037366 1_455
O6 V1 2.039014 1_545
O7 V1 1.999855 1_555
O7 V2 2.035545 1_565
O7 V0 2.040061 1_565
F0 Li1 1.893381 1_555
F0 Li0 1.898123 1_456
F0 Li2 1.921801 1_556
F0 Li3 1.923834 1_455
F1 Li1 1.895162 1_555
F1 Li0 1.897832 1_455
F1 Li5 1.923030 1_455
F1 Li4 1.923577 1_555
F2 Li0 1.913024 1_555
F2 Li3 2.001479 1_554
F2 Li5 2.001688 1_555
F2 Li4 2.007514 1_555
F2 Li2 2.008302 1_555
F3 Li1 1.921776 1_555
F3 Li2 1.996311 1_556
F3 Li4 2.000788 1_555
F3 Li3 2.007490 1_555
F3 Li5 2.011986 1_555
