# generated using pymatgen
data_Ca3Al4CoO10
_symmetry_space_group_name_H-M   'P 1'
_cell_length_a   5.17789700
_cell_length_b   10.78738100
_cell_length_c   16.94246000
_cell_angle_alpha   90.00000000
_cell_angle_beta   90.00000000
_cell_angle_gamma   90.00000000
_symmetry_Int_Tables_number   1
_chemical_formula_structural   Ca3Al4CoO10
_chemical_formula_sum   'Ca12 Al16 Co4 O40'
_cell_volume   946.33715997
_cell_formula_units_Z   4
loop_
 _symmetry_equiv_pos_site_id
 _symmetry_equiv_pos_as_xyz
  1  'x, y, z'
loop_
 _atom_site_type_symbol
 _atom_site_label
 _atom_site_symmetry_multiplicity
 _atom_site_fract_x
 _atom_site_fract_y
 _atom_site_fract_z
 _atom_site_occupancy
  Ca  Ca0  1  0.29514200  0.34395500  0.60706900  1
  Ca  Ca1  1  0.70485800  0.84395500  0.39293100  1
  Ca  Ca2  1  0.29514200  0.84395500  0.89293100  1
  Ca  Ca3  1  0.70485800  0.34395500  0.10706900  1
  Ca  Ca4  1  0.29924700  0.99146700  0.61016500  1
  Ca  Ca5  1  0.70075300  0.49146700  0.38983500  1
  Ca  Ca6  1  0.29924700  0.49146700  0.88983500  1
  Ca  Ca7  1  0.70075300  0.99146700  0.11016500  1
  Ca  Ca8  1  0.72179400  0.18228800  0.29091300  1
  Ca  Ca9  1  0.27820600  0.68228800  0.70908700  1
  Ca  Ca10  1  0.72179400  0.68228800  0.20908700  1
  Ca  Ca11  1  0.27820600  0.18228800  0.79091300  1
  Al  Al0  1  0.63440700  0.16887400  0.47011500  1
  Al  Al1  1  0.36559300  0.66887400  0.52988500  1
  Al  Al2  1  0.63440700  0.66887400  0.02988500  1
  Al  Al3  1  0.36559300  0.16887400  0.97011500  1
  Al  Al4  1  0.74429300  0.17227000  0.66402400  1
  Al  Al5  1  0.25570700  0.67227000  0.33597600  1
  Al  Al6  1  0.74429300  0.67227000  0.83597600  1
  Al  Al7  1  0.25570700  0.17227000  0.16402400  1
  Al  Al8  1  0.19453800  0.42412600  0.24815900  1
  Al  Al9  1  0.80546200  0.92412600  0.75184100  1
  Al  Al10  1  0.19453800  0.92412600  0.25184100  1
  Al  Al11  1  0.80546200  0.42412600  0.74815900  1
  Al  Al12  1  0.13240300  0.02253200  0.42378400  1
  Al  Al13  1  0.86759700  0.52253200  0.57621600  1
  Al  Al14  1  0.13240300  0.52253200  0.07621600  1
  Al  Al15  1  0.86759700  0.02253200  0.92378400  1
  Co  Co0  1  0.14041400  0.32089800  0.42111600  1
  Co  Co1  1  0.85958600  0.82089800  0.57888400  1
  Co  Co2  1  0.14041400  0.82089800  0.07888400  1
  Co  Co3  1  0.85958600  0.32089800  0.92111600  1
  O  O0  1  0.08087100  0.67168900  0.83375100  1
  O  O1  1  0.91912900  0.17168900  0.16624900  1
  O  O2  1  0.08087100  0.17168900  0.66624900  1
  O  O3  1  0.91912900  0.67168900  0.33375100  1
  O  O4  1  0.42619600  0.17049700  0.07186900  1
  O  O5  1  0.57380400  0.67049700  0.92813100  1
  O  O6  1  0.42619600  0.67049700  0.42813100  1
  O  O7  1  0.57380400  0.17049700  0.57186900  1
  O  O8  1  0.96518900  0.66177100  0.05601100  1
  O  O9  1  0.03481100  0.16177100  0.94398900  1
  O  O10  1  0.96518900  0.16177100  0.44398900  1
  O  O11  1  0.03481100  0.66177100  0.55601100  1
  O  O12  1  0.40041400  0.30428200  0.21091500  1
  O  O13  1  0.59958600  0.80428200  0.78908500  1
  O  O14  1  0.40041400  0.80428200  0.28908500  1
  O  O15  1  0.59958600  0.30428200  0.71091500  1
  O  O16  1  0.01476700  0.41629200  0.00725100  1
  O  O17  1  0.98523300  0.91629200  0.99274900  1
  O  O18  1  0.01476700  0.91629200  0.49274900  1
  O  O19  1  0.98523300  0.41629200  0.50725100  1
  O  O20  1  0.00051600  0.48485400  0.17032500  1
  O  O21  1  0.99948400  0.98485400  0.82967500  1
  O  O22  1  0.00051600  0.98485400  0.32967500  1
  O  O23  1  0.99948400  0.48485400  0.67032500  1
  O  O24  1  0.47371900  0.53703200  0.07315100  1
  O  O25  1  0.52628100  0.03703200  0.92684900  1
  O  O26  1  0.47371900  0.03703200  0.42684900  1
  O  O27  1  0.52628100  0.53703200  0.57315100  1
  O  O28  1  0.39970400  0.04290400  0.21367000  1
  O  O29  1  0.60029600  0.54290400  0.78633000  1
  O  O30  1  0.39970400  0.54290400  0.28633000  1
  O  O31  1  0.60029600  0.04290400  0.71367000  1
  O  O32  1  0.97841500  0.86339800  0.18102700  1
  O  O33  1  0.02158500  0.36339800  0.81897300  1
  O  O34  1  0.97841500  0.36339800  0.31897300  1
  O  O35  1  0.02158500  0.86339800  0.68102700  1
  O  O36  1  0.51147400  0.79737000  0.08375800  1
  O  O37  1  0.48852600  0.29737000  0.91624200  1
  O  O38  1  0.51147400  0.29737000  0.41624200  1
  O  O39  1  0.48852600  0.79737000  0.58375800  1
loop_
_geom_bond_atom_site_label_1
_geom_bond_atom_site_label_2
_geom_bond_distance
_geom_bond_site_symmetry_2
Ca0 O2 2.385272 1_555
Ca0 O15 2.400758 1_555
Ca0 O23 2.408811 1_455
Ca0 O7 2.436966 1_555
Ca0 O19 2.458440 1_455
Ca0 O27 2.469945 1_555
Ca1 O3 2.385272 1_555
Ca1 O14 2.400758 1_555
Ca1 O22 2.408811 1_655
Ca1 O6 2.436966 1_555
Ca1 O18 2.458440 1_655
Ca1 O26 2.469945 1_565
Ca2 O0 2.385272 1_555
Ca2 O13 2.400758 1_555
Ca2 O21 2.408811 1_455
Ca2 O5 2.436966 1_555
Ca2 O17 2.458440 1_455
Ca2 O25 2.469945 1_565
Ca3 O1 2.385272 1_555
Ca3 O12 2.400758 1_555
Ca3 O20 2.408811 1_655
Ca3 O4 2.436966 1_555
Ca3 O16 2.458440 1_655
Ca3 O24 2.469945 1_555
Ca4 O35 2.327446 1_555
Ca4 O39 2.354716 1_555
Ca4 O31 2.411007 1_565
Ca4 O2 2.441525 1_565
Ca4 O7 2.484308 1_565
Ca4 O18 2.604757 1_555
Ca5 O34 2.327446 1_555
Ca5 O38 2.354716 1_555
Ca5 O30 2.411007 1_555
Ca5 O3 2.441525 1_555
Ca5 O6 2.484308 1_555
Ca5 O19 2.604757 1_555
Ca6 O33 2.327446 1_555
Ca6 O37 2.354716 1_555
Ca6 O29 2.411007 1_555
Ca6 O0 2.441525 1_555
Ca6 O5 2.484308 1_555
Ca6 O16 2.604757 1_556
Ca7 O32 2.327446 1_555
Ca7 O36 2.354716 1_555
Ca7 O28 2.411007 1_565
Ca7 O1 2.441525 1_565
Ca7 O4 2.484308 1_565
Ca7 O17 2.604757 1_554
Ca8 O1 2.349071 1_555
Ca8 O34 2.410095 1_555
Ca8 O12 2.517537 1_555
Ca8 O28 2.599004 1_555
Ca8 O22 2.655207 1_645
Ca8 O38 2.689955 1_555
Ca8 O10 2.891960 1_555
Ca8 O26 3.067484 1_555
Ca9 O0 2.349071 1_555
Ca9 O35 2.410095 1_555
Ca9 O13 2.517537 1_555
Ca9 O29 2.599004 1_555
Ca9 O23 2.655207 1_455
Ca9 O39 2.689955 1_555
Ca9 O11 2.891960 1_555
Ca9 O27 3.067484 1_555
Ca10 O3 2.349071 1_555
Ca10 O32 2.410095 1_555
Ca10 O14 2.517537 1_555
Ca10 O30 2.599004 1_555
Ca10 O20 2.655207 1_655
Ca10 O36 2.689955 1_555
Ca10 O8 2.891960 1_555
Ca10 O24 3.067484 1_555
Ca11 O2 2.349071 1_555
Ca11 O33 2.410095 1_555
Ca11 O15 2.517537 1_555
Ca11 O31 2.599004 1_555
Ca11 O21 2.655207 1_445
Ca11 O37 2.689955 1_555
Ca11 O9 2.891960 1_555
Ca11 O25 3.067484 1_555
Al0 O7 1.752376 1_555
Al0 O10 1.770686 1_555
Al0 O38 1.777539 1_555
Al0 O26 1.803425 1_555
Al1 O6 1.752376 1_555
Al1 O11 1.770686 1_555
Al1 O39 1.777539 1_555
Al1 O27 1.803425 1_555
Al2 O5 1.752376 1_554
Al2 O8 1.770686 1_555
Al2 O36 1.777539 1_555
Al2 O24 1.803425 1_555
Al3 O4 1.752376 1_556
Al3 O9 1.770686 1_555
Al3 O37 1.777539 1_555
Al3 O25 1.803425 1_555
Al4 O2 1.743185 1_655
Al4 O31 1.791896 1_555
Al4 O7 1.793716 1_555
Al4 O15 1.794582 1_555
Al5 O3 1.743185 1_455
Al5 O30 1.791896 1_555
Al5 O6 1.793716 1_555
Al5 O14 1.794582 1_555
Al6 O0 1.743185 1_655
Al6 O29 1.791896 1_555
Al6 O5 1.793716 1_555
Al6 O13 1.794582 1_555
Al7 O1 1.743185 1_455
Al7 O28 1.791896 1_555
Al7 O4 1.793716 1_555
Al7 O12 1.794582 1_555
Al8 O34 1.766602 1_455
Al8 O20 1.782524 1_555
Al8 O30 1.785641 1_555
Al8 O12 1.790495 1_555
Al9 O35 1.766602 1_655
Al9 O21 1.782524 1_555
Al9 O31 1.785641 1_565
Al9 O13 1.790495 1_555
Al10 O32 1.766602 1_455
Al10 O22 1.782524 1_555
Al10 O28 1.785641 1_565
Al10 O14 1.790495 1_555
Al11 O33 1.766602 1_655
Al11 O23 1.782524 1_555
Al11 O29 1.785641 1_555
Al11 O15 1.790495 1_555
Al12 O18 1.746336 1_545
Al12 O10 1.767173 1_455
Al12 O26 1.774967 1_555
Al12 O22 1.781511 1_545
Al13 O19 1.746336 1_555
Al13 O11 1.767173 1_655
Al13 O27 1.774967 1_555
Al13 O23 1.781511 1_555
Al14 O16 1.746336 1_555
Al14 O8 1.767173 1_455
Al14 O24 1.774967 1_555
Al14 O20 1.781511 1_555
Al15 O17 1.746336 1_545
Al15 O9 1.767173 1_655
Al15 O25 1.774967 1_555
Al15 O21 1.781511 1_545
Co0 O38 1.939760 1_555
Co0 O19 1.958123 1_455
Co0 O34 1.977022 1_455
Co0 O10 1.979887 1_455
Co1 O39 1.939760 1_555
Co1 O18 1.958123 1_655
Co1 O35 1.977022 1_655
Co1 O11 1.979887 1_655
Co2 O36 1.939760 1_555
Co2 O17 1.958123 1_454
Co2 O32 1.977022 1_455
Co2 O8 1.979887 1_455
Co3 O37 1.939760 1_555
Co3 O16 1.958123 1_656
Co3 O33 1.977022 1_655
Co3 O9 1.979887 1_655
