# generated using pymatgen
data_CaMg6Zn
_symmetry_space_group_name_H-M   'P 1'
_cell_length_a   5.12547100
_cell_length_b   6.29623800
_cell_length_c   11.70545600
_cell_angle_alpha   90.00000000
_cell_angle_beta   90.00000000
_cell_angle_gamma   90.00000000
_symmetry_Int_Tables_number   1
_chemical_formula_structural   CaMg6Zn
_chemical_formula_sum   'Ca2 Mg12 Zn2'
_cell_volume   377.74893934
_cell_formula_units_Z   2
loop_
 _symmetry_equiv_pos_site_id
 _symmetry_equiv_pos_as_xyz
  1  'x, y, z'
loop_
 _atom_site_type_symbol
 _atom_site_label
 _atom_site_symmetry_multiplicity
 _atom_site_fract_x
 _atom_site_fract_y
 _atom_site_fract_z
 _atom_site_occupancy
  Ca  Ca0  1  0.50000000  0.50000000  0.67661700  1
  Ca  Ca1  1  0.50000000  0.00000000  0.17661700  1
  Mg  Mg0  1  0.50000000  0.74775000  0.92421200  1
  Mg  Mg1  1  0.50000000  0.25225000  0.92421200  1
  Mg  Mg2  1  0.00000000  0.24279800  0.58089500  1
  Mg  Mg3  1  0.00000000  0.75720200  0.58089500  1
  Mg  Mg4  1  0.00000000  0.50000000  0.84109700  1
  Mg  Mg5  1  0.00000000  0.00000000  0.82195700  1
  Mg  Mg6  1  0.50000000  0.24775000  0.42421200  1
  Mg  Mg7  1  0.50000000  0.75225000  0.42421200  1
  Mg  Mg8  1  0.00000000  0.74279800  0.08089500  1
  Mg  Mg9  1  0.00000000  0.25720200  0.08089500  1
  Mg  Mg10  1  0.00000000  0.00000000  0.34109700  1
  Mg  Mg11  1  0.00000000  0.50000000  0.32195700  1
  Zn  Zn0  1  0.50000000  0.00000000  0.65011200  1
  Zn  Zn1  1  0.50000000  0.50000000  0.15011200  1
loop_
_geom_bond_atom_site_label_1
_geom_bond_atom_site_label_2
_geom_bond_distance
_geom_bond_site_symmetry_2
Ca0 Zn0 3.163370 1_555
Ca0 Zn0 3.163370 1_565
Ca0 Mg4 3.205378 1_655
Ca0 Mg4 3.205378 1_555
Ca0 Mg3 3.231956 1_555
Ca0 Mg3 3.231956 1_655
Ca0 Mg2 3.231956 1_555
Ca0 Mg2 3.231956 1_655
Ca0 Mg1 3.291337 1_555
Ca0 Mg0 3.291337 1_555
Ca0 Mg6 3.354344 1_555
Ca0 Mg7 3.354344 1_555
Ca1 Zn1 3.163370 1_545
Ca1 Zn1 3.163370 1_555
Ca1 Mg10 3.205378 1_655
Ca1 Mg10 3.205378 1_555
Ca1 Mg9 3.231956 1_655
Ca1 Mg8 3.231956 1_645
Ca1 Mg8 3.231956 1_545
Ca1 Mg9 3.231956 1_555
Ca1 Mg7 3.291337 1_545
Ca1 Mg6 3.291337 1_555
Ca1 Mg0 3.354344 1_544
Ca1 Mg1 3.354344 1_554
Mg0 Zn1 3.070080 1_556
Mg0 Mg1 3.119786 1_555
Mg0 Mg8 3.151557 1_656
Mg0 Mg8 3.151557 1_556
Mg0 Mg4 3.153952 1_555
Mg0 Mg4 3.153952 1_655
Mg0 Mg1 3.176452 1_565
Mg0 Mg5 3.243878 1_665
Mg0 Mg5 3.243878 1_565
Mg0 Zn0 3.580044 1_565
Mg1 Zn1 3.070080 1_556
Mg1 Mg9 3.151557 1_656
Mg1 Mg9 3.151557 1_556
Mg1 Mg4 3.153952 1_555
Mg1 Mg4 3.153952 1_655
Mg1 Mg5 3.243878 1_655
Mg1 Mg5 3.243878 1_555
Mg1 Zn0 3.580044 1_555
Mg2 Mg3 3.057428 1_545
Mg2 Zn0 3.092092 1_455
Mg2 Zn0 3.092092 1_555
Mg2 Mg6 3.151557 1_555
Mg2 Mg6 3.151557 1_455
Mg2 Mg5 3.209235 1_555
Mg2 Mg3 3.238810 1_555
Mg2 Mg4 3.449531 1_555
Mg3 Zn0 3.092092 1_565
Mg3 Zn0 3.092092 1_465
Mg3 Mg7 3.151557 1_455
Mg3 Mg7 3.151557 1_555
Mg3 Mg5 3.209235 1_565
Mg3 Mg4 3.449531 1_555
Mg4 Mg5 3.156081 1_555
Mg4 Mg5 3.156081 1_565
Mg4 Mg8 3.196233 1_556
Mg4 Mg9 3.196233 1_556
Mg5 Zn0 3.257889 1_455
Mg5 Zn0 3.257889 1_555
Mg5 Mg9 3.436474 1_556
Mg5 Mg8 3.436474 1_546
Mg6 Zn0 3.070080 1_555
Mg6 Mg7 3.119786 1_545
Mg6 Mg7 3.176452 1_555
Mg6 Zn1 3.580044 1_555
Mg7 Zn0 3.070080 1_565
Mg7 Zn1 3.580044 1_555
Mg8 Mg9 3.057428 1_555
Mg8 Zn1 3.092092 1_555
Mg8 Zn1 3.092092 1_455
Mg8 Mg9 3.238810 1_565
Mg9 Zn1 3.092092 1_555
Mg9 Zn1 3.092092 1_455
Mg10 Mg7 3.153952 1_545
Mg10 Mg7 3.153952 1_445
Mg10 Mg6 3.153952 1_455
Mg10 Mg6 3.153952 1_555
Mg10 Mg11 3.156081 1_555
Mg10 Mg11 3.156081 1_545
Mg10 Mg2 3.196233 1_555
Mg10 Mg3 3.196233 1_545
Mg10 Mg8 3.449531 1_545
Mg10 Mg9 3.449531 1_555
Mg11 Mg8 3.209235 1_555
Mg11 Mg9 3.209235 1_555
Mg11 Mg7 3.243878 1_455
Mg11 Mg7 3.243878 1_555
Mg11 Mg6 3.243878 1_555
Mg11 Mg6 3.243878 1_455
Mg11 Zn1 3.257889 1_555
Mg11 Zn1 3.257889 1_455
Mg11 Mg3 3.436474 1_555
Mg11 Mg2 3.436474 1_555
