# generated using pymatgen
data_Mg30TiBO32
_symmetry_space_group_name_H-M   'P 1'
_cell_length_a   8.54576000
_cell_length_b   8.54576000
_cell_length_c   8.53674200
_cell_angle_alpha   90.00000000
_cell_angle_beta   90.00000000
_cell_angle_gamma   90.00000000
_symmetry_Int_Tables_number   1
_chemical_formula_structural   Mg30TiBO32
_chemical_formula_sum   'Mg30 Ti1 B1 O32'
_cell_volume   623.43838758
_cell_formula_units_Z   1
loop_
 _symmetry_equiv_pos_site_id
 _symmetry_equiv_pos_as_xyz
  1  'x, y, z'
loop_
 _atom_site_type_symbol
 _atom_site_label
 _atom_site_symmetry_multiplicity
 _atom_site_fract_x
 _atom_site_fract_y
 _atom_site_fract_z
 _atom_site_occupancy
  Mg  Mg0  1  0.50000000  0.00000000  0.00000000  1
  Mg  Mg1  1  0.50000000  0.00000000  0.50000000  1
  Mg  Mg2  1  0.00000000  0.50000000  0.00000000  1
  Mg  Mg3  1  0.00000000  0.50000000  0.50000000  1
  Mg  Mg4  1  0.50000000  0.50000000  0.00000000  1
  Mg  Mg5  1  0.50000000  0.50000000  0.50000000  1
  Mg  Mg6  1  0.25112000  0.00000000  0.25513200  1
  Mg  Mg7  1  0.25112000  0.00000000  0.74486800  1
  Mg  Mg8  1  0.74888000  0.00000000  0.25513200  1
  Mg  Mg9  1  0.74888000  0.00000000  0.74486800  1
  Mg  Mg10  1  0.24992000  0.50000000  0.25094100  1
  Mg  Mg11  1  0.24992000  0.50000000  0.74905900  1
  Mg  Mg12  1  0.75008000  0.50000000  0.25094100  1
  Mg  Mg13  1  0.75008000  0.50000000  0.74905900  1
  Mg  Mg14  1  0.00000000  0.25112000  0.25513200  1
  Mg  Mg15  1  0.00000000  0.25112000  0.74486800  1
  Mg  Mg16  1  0.50000000  0.24992000  0.25094100  1
  Mg  Mg17  1  0.50000000  0.24992000  0.74905900  1
  Mg  Mg18  1  0.00000000  0.74888000  0.25513200  1
  Mg  Mg19  1  0.00000000  0.74888000  0.74486800  1
  Mg  Mg20  1  0.50000000  0.75008000  0.25094100  1
  Mg  Mg21  1  0.50000000  0.75008000  0.74905900  1
  Mg  Mg22  1  0.25115900  0.25115900  0.00000000  1
  Mg  Mg23  1  0.24789400  0.24789400  0.50000000  1
  Mg  Mg24  1  0.74884100  0.25115900  0.00000000  1
  Mg  Mg25  1  0.75210600  0.24789400  0.50000000  1
  Mg  Mg26  1  0.25115900  0.74884100  0.00000000  1
  Mg  Mg27  1  0.24789400  0.75210600  0.50000000  1
  Mg  Mg28  1  0.74884100  0.74884100  0.00000000  1
  Mg  Mg29  1  0.75210600  0.75210600  0.50000000  1
  Ti  Ti0  1  0.00000000  0.00000000  0.00000000  1
  B  B0  1  0.00000000  0.00000000  0.50000000  1
  O  O0  1  0.00000000  0.24994400  0.00000000  1
  O  O1  1  0.00000000  0.26276100  0.50000000  1
  O  O2  1  0.50000000  0.25000500  0.00000000  1
  O  O3  1  0.50000000  0.25111200  0.50000000  1
  O  O4  1  0.00000000  0.75005600  0.00000000  1
  O  O5  1  0.00000000  0.73723900  0.50000000  1
  O  O6  1  0.50000000  0.74999500  0.00000000  1
  O  O7  1  0.50000000  0.74888800  0.50000000  1
  O  O8  1  0.24893700  0.24893700  0.24956600  1
  O  O9  1  0.24893700  0.24893700  0.75043400  1
  O  O10  1  0.75106300  0.24893700  0.24956600  1
  O  O11  1  0.75106300  0.24893700  0.75043400  1
  O  O12  1  0.24893700  0.75106300  0.24956600  1
  O  O13  1  0.24893700  0.75106300  0.75043400  1
  O  O14  1  0.75106300  0.75106300  0.24956600  1
  O  O15  1  0.75106300  0.75106300  0.75043400  1
  O  O16  1  0.00000000  0.00000000  0.22964200  1
  O  O17  1  0.00000000  0.00000000  0.77035800  1
  O  O18  1  0.50000000  0.00000000  0.24769400  1
  O  O19  1  0.50000000  0.00000000  0.75230600  1
  O  O20  1  0.00000000  0.50000000  0.24769400  1
  O  O21  1  0.00000000  0.50000000  0.75230600  1
  O  O22  1  0.50000000  0.50000000  0.24904100  1
  O  O23  1  0.50000000  0.50000000  0.75095900  1
  O  O24  1  0.24994400  0.00000000  0.00000000  1
  O  O25  1  0.26276100  0.00000000  0.50000000  1
  O  O26  1  0.75005600  0.00000000  0.00000000  1
  O  O27  1  0.73723900  0.00000000  0.50000000  1
  O  O28  1  0.25000500  0.50000000  0.00000000  1
  O  O29  1  0.25111200  0.50000000  0.50000000  1
  O  O30  1  0.74999500  0.50000000  0.00000000  1
  O  O31  1  0.74888800  0.50000000  0.50000000  1
loop_
_geom_bond_atom_site_label_1
_geom_bond_atom_site_label_2
_geom_bond_distance
_geom_bond_site_symmetry_2
Mg0 O18 2.114500 1_555
Mg0 O19 2.114500 1_554
Mg0 O2 2.136483 1_555
Mg0 O6 2.136483 1_545
Mg0 O26 2.136919 1_555
Mg0 O24 2.136919 1_555
Mg1 O27 2.027388 1_555
Mg1 O25 2.027388 1_555
Mg1 O7 2.145943 1_545
Mg1 O3 2.145943 1_555
Mg1 O19 2.153871 1_555
Mg1 O18 2.153871 1_555
Mg2 O20 2.114500 1_555
Mg2 O21 2.114500 1_554
Mg2 O28 2.136483 1_555
Mg2 O30 2.136483 1_455
Mg2 O4 2.136919 1_555
Mg2 O0 2.136919 1_555
Mg3 O5 2.027388 1_555
Mg3 O1 2.027388 1_555
Mg3 O31 2.145943 1_455
Mg3 O29 2.145943 1_555
Mg3 O21 2.153871 1_555
Mg3 O20 2.153871 1_555
Mg4 O22 2.125999 1_555
Mg4 O23 2.125999 1_554
Mg4 O30 2.136397 1_555
Mg4 O6 2.136397 1_555
Mg4 O28 2.136397 1_555
Mg4 O2 2.136397 1_555
Mg5 O29 2.126937 1_555
Mg5 O7 2.126937 1_555
Mg5 O31 2.126937 1_555
Mg5 O3 2.126937 1_555
Mg5 O23 2.142372 1_555
Mg5 O22 2.142372 1_555
Mg6 O25 2.092741 1_555
Mg6 O18 2.127816 1_555
Mg6 O8 2.127968 1_555
Mg6 O12 2.127968 1_545
Mg6 O16 2.157015 1_555
Mg6 O24 2.178019 1_555
Mg7 O25 2.092741 1_555
Mg7 O19 2.127816 1_555
Mg7 O9 2.127968 1_555
Mg7 O13 2.127968 1_545
Mg7 O17 2.157015 1_555
Mg7 O24 2.178019 1_556
Mg8 O27 2.092741 1_555
Mg8 O18 2.127816 1_555
Mg8 O10 2.127968 1_555
Mg8 O14 2.127968 1_545
Mg8 O16 2.157015 1_655
Mg8 O26 2.178019 1_555
Mg9 O27 2.092741 1_555
Mg9 O19 2.127816 1_555
Mg9 O11 2.127968 1_555
Mg9 O15 2.127968 1_545
Mg9 O17 2.157015 1_655
Mg9 O26 2.178019 1_556
Mg10 O29 2.126177 1_555
Mg10 O20 2.135936 1_555
Mg10 O22 2.137185 1_555
Mg10 O28 2.142219 1_555
Mg10 O12 2.145573 1_555
Mg10 O8 2.145573 1_555
Mg11 O29 2.126177 1_555
Mg11 O21 2.135936 1_555
Mg11 O23 2.137185 1_555
Mg11 O28 2.142219 1_556
Mg11 O13 2.145573 1_555
Mg11 O9 2.145573 1_555
Mg12 O31 2.126177 1_555
Mg12 O20 2.135936 1_655
Mg12 O22 2.137185 1_555
Mg12 O30 2.142219 1_555
Mg12 O14 2.145573 1_555
Mg12 O10 2.145573 1_555
Mg13 O31 2.126177 1_555
Mg13 O21 2.135936 1_655
Mg13 O23 2.137185 1_555
Mg13 O30 2.142219 1_556
Mg13 O15 2.145573 1_555
Mg13 O11 2.145573 1_555
Mg14 O1 2.092741 1_555
Mg14 O20 2.127816 1_555
Mg14 O8 2.127968 1_555
Mg14 O10 2.127968 1_455
Mg14 O16 2.157015 1_555
Mg14 O0 2.178019 1_555
Mg15 O1 2.092741 1_555
Mg15 O21 2.127816 1_555
Mg15 O9 2.127968 1_555
Mg15 O11 2.127968 1_455
Mg15 O17 2.157015 1_555
Mg15 O0 2.178019 1_556
Mg16 O3 2.126177 1_555
Mg16 O18 2.135936 1_555
Mg16 O22 2.137185 1_555
Mg16 O2 2.142219 1_555
Mg16 O10 2.145573 1_555
Mg16 O8 2.145573 1_555
Mg17 O3 2.126177 1_555
Mg17 O19 2.135936 1_555
Mg17 O23 2.137185 1_555
Mg17 O2 2.142219 1_556
Mg17 O11 2.145573 1_555
Mg17 O9 2.145573 1_555
Mg18 O5 2.092741 1_555
Mg18 O20 2.127816 1_555
Mg18 O12 2.127968 1_555
Mg18 O14 2.127968 1_455
Mg18 O16 2.157015 1_565
Mg18 O4 2.178019 1_555
Mg19 O5 2.092741 1_555
Mg19 O21 2.127816 1_555
Mg19 O13 2.127968 1_555
Mg19 O15 2.127968 1_455
Mg19 O17 2.157015 1_565
Mg19 O4 2.178019 1_556
Mg20 O7 2.126177 1_555
Mg20 O18 2.135936 1_565
Mg20 O22 2.137185 1_555
Mg20 O6 2.142219 1_555
Mg20 O14 2.145573 1_555
Mg20 O12 2.145573 1_555
Mg21 O7 2.126177 1_555
Mg21 O19 2.135936 1_565
Mg21 O23 2.137185 1_555
Mg21 O6 2.142219 1_556
Mg21 O15 2.145573 1_555
Mg21 O13 2.145573 1_555
Mg22 O2 2.126558 1_555
Mg22 O28 2.126558 1_555
Mg22 O8 2.130650 1_555
Mg22 O9 2.130650 1_554
Mg22 O0 2.146370 1_555
Mg22 O24 2.146370 1_555
Mg23 O1 2.122249 1_555
Mg23 O25 2.122249 1_555
Mg23 O9 2.137928 1_555
Mg23 O8 2.137928 1_555
Mg23 O29 2.154613 1_555
Mg23 O3 2.154613 1_555
Mg24 O2 2.126558 1_555
Mg24 O30 2.126558 1_555
Mg24 O10 2.130650 1_555
Mg24 O11 2.130650 1_554
Mg24 O26 2.146370 1_555
Mg24 O0 2.146370 1_655
Mg25 O27 2.122249 1_555
Mg25 O1 2.122249 1_655
Mg25 O11 2.137928 1_555
Mg25 O10 2.137928 1_555
Mg25 O3 2.154613 1_555
Mg25 O31 2.154613 1_555
Mg26 O28 2.126558 1_555
Mg26 O6 2.126558 1_555
Mg26 O12 2.130650 1_555
Mg26 O13 2.130650 1_554
Mg26 O4 2.146370 1_555
Mg26 O24 2.146370 1_565
Mg27 O5 2.122249 1_555
Mg27 O25 2.122249 1_565
Mg27 O13 2.137928 1_555
Mg27 O12 2.137928 1_555
Mg27 O29 2.154613 1_555
Mg27 O7 2.154613 1_555
Mg28 O6 2.126558 1_555
Mg28 O30 2.126558 1_555
Mg28 O14 2.130650 1_555
Mg28 O15 2.130650 1_554
Mg28 O26 2.146370 1_565
Mg28 O4 2.146370 1_655
Mg29 O5 2.122249 1_655
Mg29 O27 2.122249 1_565
Mg29 O15 2.137928 1_555
Mg29 O14 2.137928 1_555
Mg29 O31 2.154613 1_555
Mg29 O7 2.154613 1_555
B0 O25 2.245492 1_555
B0 O1 2.245492 1_555
B0 O5 2.245492 1_545
B0 O27 2.245492 1_455
B0 O17 2.307976 1_555
B0 O16 2.307976 1_555
O0 Ti0 2.135961 1_555
O4 Ti0 2.135961 1_565
O16 Ti0 1.960395 1_555
O17 Ti0 1.960395 1_556
O24 Ti0 2.135961 1_555
O26 Ti0 2.135961 1_655
