# generated using pymatgen
data_CsH2SNO3
_symmetry_space_group_name_H-M   'P 1'
_cell_length_a   7.65417400
_cell_length_b   8.32305468
_cell_length_c   8.72321792
_cell_angle_alpha   115.27251358
_cell_angle_beta   90.00000000
_cell_angle_gamma   90.00000000
_symmetry_Int_Tables_number   1
_chemical_formula_structural   CsH2SNO3
_chemical_formula_sum   'Cs4 H8 S4 N4 O12'
_cell_volume   502.53268021
_cell_formula_units_Z   4
loop_
 _symmetry_equiv_pos_site_id
 _symmetry_equiv_pos_as_xyz
  1  'x, y, z'
loop_
 _atom_site_type_symbol
 _atom_site_label
 _atom_site_symmetry_multiplicity
 _atom_site_fract_x
 _atom_site_fract_y
 _atom_site_fract_z
 _atom_site_occupancy
  Cs  Cs0  1  0.64600100  0.81629000  0.55951400  1
  Cs  Cs1  1  0.14600100  0.18371000  0.94048600  1
  Cs  Cs2  1  0.35399900  0.18371000  0.44048600  1
  Cs  Cs3  1  0.85399900  0.81629000  0.05951400  1
  H  H0  1  0.49249900  0.47039400  0.15924800  1
  H  H1  1  0.99249900  0.52960600  0.34075200  1
  H  H2  1  0.50750100  0.52960600  0.84075200  1
  H  H3  1  0.00750100  0.47039400  0.65924800  1
  H  H4  1  0.61747200  0.35656100  0.23572100  1
  H  H5  1  0.11747200  0.64343900  0.26427900  1
  H  H6  1  0.38252800  0.64343900  0.76427900  1
  H  H7  1  0.88252800  0.35656100  0.73572100  1
  S  S0  1  0.65161600  0.27131600  0.95507700  1
  S  S1  1  0.15161600  0.72868400  0.54492300  1
  S  S2  1  0.34838400  0.72868400  0.04492300  1
  S  S3  1  0.84838400  0.27131600  0.45507700  1
  N  N0  1  0.53740400  0.34556900  0.13623100  1
  N  N1  1  0.03740400  0.65443100  0.36376900  1
  N  N2  1  0.46259600  0.65443100  0.86376900  1
  N  N3  1  0.96259600  0.34556900  0.63623100  1
  O  O0  1  0.78725800  0.40359700  0.96856800  1
  O  O1  1  0.28725800  0.59640300  0.53143200  1
  O  O2  1  0.21274200  0.59640300  0.03143200  1
  O  O3  1  0.71274200  0.40359700  0.46856800  1
  O  O4  1  0.51910300  0.25378500  0.82604100  1
  O  O5  1  0.01910300  0.74621500  0.67395900  1
  O  O6  1  0.48089700  0.74621500  0.17395900  1
  O  O7  1  0.98089700  0.25378500  0.32604100  1
  O  O8  1  0.72820800  0.10157500  0.93393900  1
  O  O9  1  0.22820800  0.89842500  0.56606100  1
  O  O10  1  0.27179200  0.89842500  0.06606100  1
  O  O11  1  0.77179200  0.10157500  0.43393900  1
loop_
_geom_bond_atom_site_label_1
_geom_bond_atom_site_label_2
_geom_bond_distance
_geom_bond_site_symmetry_2
Cs0 O11 3.160035 1_565
Cs0 O5 3.160619 1_655
Cs0 O8 3.174900 1_565
Cs0 O3 3.218992 1_555
Cs0 O1 3.250609 1_555
Cs0 O9 3.265511 1_555
Cs0 H6 3.394313 1_555
Cs0 O6 3.402050 1_555
Cs0 N1 3.426600 1_655
Cs0 O4 3.518429 1_565
Cs1 O10 3.160035 1_546
Cs1 O4 3.160619 1_555
Cs1 O9 3.174900 1_545
Cs1 O2 3.218992 1_556
Cs1 O0 3.250609 1_455
Cs1 O8 3.265511 1_455
Cs1 H7 3.394313 1_455
Cs1 O7 3.402050 1_456
Cs1 N0 3.426600 1_556
Cs1 O5 3.518429 1_545
Cs2 O9 3.160035 1_545
Cs2 O7 3.160619 1_455
Cs2 O10 3.174900 1_545
Cs2 O1 3.218992 1_555
Cs2 O3 3.250609 1_555
Cs2 O11 3.265511 1_555
Cs2 H4 3.394313 1_555
Cs2 O4 3.402050 1_555
Cs2 N3 3.426600 1_455
Cs2 O6 3.518429 1_545
Cs3 O8 3.160035 1_564
Cs3 O6 3.160619 1_555
Cs3 O11 3.174900 1_565
Cs3 O0 3.218992 1_554
Cs3 O2 3.250609 1_655
Cs3 O10 3.265511 1_655
Cs3 H5 3.394313 1_655
Cs3 O5 3.402050 1_654
Cs3 N2 3.426600 1_554
Cs3 O7 3.518429 1_565
H0 N0 1.029420 1_555
H1 N1 1.029420 1_655
H2 N2 1.029420 1_555
H3 N3 1.029420 1_455
H4 N0 1.034103 1_555
H4 O3 2.032665 1_555
H5 N1 1.034103 1_555
H5 O2 2.032665 1_555
H6 N2 1.034103 1_555
H6 O1 2.032665 1_555
H7 N3 1.034103 1_555
H7 O0 2.032665 1_555
N0 S0 1.676145 1_554
N1 S1 1.676145 1_555
N2 S2 1.676145 1_556
N3 S3 1.676145 1_555
O0 S0 1.480978 1_555
O1 S1 1.480978 1_555
O2 S2 1.480978 1_555
O3 S3 1.480978 1_555
O4 S0 1.475402 1_555
O5 S1 1.475402 1_555
O6 S2 1.475402 1_555
O7 S3 1.475402 1_555
O8 S0 1.466683 1_555
O9 S1 1.466683 1_555
O10 S2 1.466683 1_555
O11 S3 1.466683 1_555
