# generated using pymatgen
data_B5Ir3W2
_symmetry_space_group_name_H-M   'P 1'
_cell_length_a   16.66948291
_cell_length_b   16.67125007
_cell_length_c   16.67044219
_cell_angle_alpha   160.07241322
_cell_angle_beta   147.18145779
_cell_angle_gamma   38.68945089
_symmetry_Int_Tables_number   1
_chemical_formula_structural   B5Ir3W2
_chemical_formula_sum   'B40 Ir24 W16'
_cell_volume   854.63997732
_cell_formula_units_Z   8
loop_
 _symmetry_equiv_pos_site_id
 _symmetry_equiv_pos_as_xyz
  1  'x, y, z'
loop_
 _atom_site_type_symbol
 _atom_site_label
 _atom_site_symmetry_multiplicity
 _atom_site_fract_x
 _atom_site_fract_y
 _atom_site_fract_z
 _atom_site_occupancy
  B  B0_0  1  0.26022835  0.11042760  0.14979047  1
  B  B0_1  1  0.26022835  0.11042760  0.64979047  1
  B  B0_2  1  0.26022835  0.61042760  0.14979046  1
  B  B0_3  1  0.26022835  0.61042761  0.64979047  1
  B  B0_4  1  0.76022835  0.11042761  0.14979047  1
  B  B0_5  1  0.76022835  0.11042760  0.64979047  1
  B  B0_6  1  0.76022835  0.61042761  0.14979047  1
  B  B0_7  1  0.76022835  0.61042760  0.64979046  1
  B  B1_0  1  0.03936059  0.38955889  0.14978753  1
  B  B1_1  1  0.03936059  0.38955889  0.64978753  1
  B  B1_2  1  0.03936059  0.88955889  0.14978753  1
  B  B1_3  1  0.03936059  0.88955889  0.64978753  1
  B  B1_4  1  0.53936059  0.38955889  0.14978753  1
  B  B1_5  1  0.53936059  0.38955889  0.64978753  1
  B  B1_6  1  0.53936059  0.88955889  0.14978753  1
  B  B1_7  1  0.53936059  0.88955889  0.64978753  1
  B  B2_0  1  0.46080150  0.11076905  0.35002917  1
  B  B2_1  1  0.46080150  0.11076905  0.85002918  1
  B  B2_2  1  0.46080150  0.61076905  0.35002917  1
  B  B2_3  1  0.46080150  0.61076905  0.85002917  1
  B  B2_4  1  0.96080150  0.11076905  0.35002918  1
  B  B2_5  1  0.96080150  0.11076905  0.85002917  1
  B  B2_6  1  0.96080150  0.61076905  0.35002917  1
  B  B2_7  1  0.96080150  0.61076905  0.85002918  1
  B  B3_0  1  0.23926627  0.38923052  0.35003776  1
  B  B3_1  1  0.23926627  0.38923052  0.85003776  1
  B  B3_2  1  0.23926627  0.88923052  0.35003776  1
  B  B3_3  1  0.23926627  0.88923052  0.85003776  1
  B  B3_4  1  0.73926627  0.38923052  0.35003776  1
  B  B3_5  1  0.73926627  0.38923052  0.85003776  1
  B  B3_6  1  0.73926627  0.88923052  0.35003776  1
  B  B3_7  1  0.73926627  0.88923052  0.85003776  1
  B  B4_0  1  0.32739367  0.25002485  0.07742062  1
  B  B4_1  1  0.32739367  0.25002485  0.57742062  1
  B  B4_2  1  0.32739367  0.75002486  0.07742062  1
  B  B4_3  1  0.32739367  0.75002485  0.57742062  1
  B  B4_4  1  0.82739367  0.25002485  0.07742062  1
  B  B4_5  1  0.82739367  0.25002485  0.57742062  1
  B  B4_6  1  0.82739367  0.75002486  0.07742062  1
  B  B4_7  1  0.82739367  0.75002485  0.57742062  1
  Ir  Ir0_0  1  0.49890906  0.99999832  0.49890105  1
  Ir  Ir0_1  1  0.49890906  0.99999832  0.99890105  1
  Ir  Ir0_2  1  0.49890906  0.49999833  0.49890105  1
  Ir  Ir0_3  1  0.49890906  0.49999833  0.99890105  1
  Ir  Ir0_4  1  0.99890906  0.99999832  0.49890105  1
  Ir  Ir0_5  1  0.99890906  0.99999832  0.99890105  1
  Ir  Ir0_6  1  0.99890906  0.49999833  0.49890106  1
  Ir  Ir0_7  1  0.99890906  0.49999832  0.99890105  1
  Ir  Ir1_0  1  0.20249426  0.45262116  0.24988712  1
  Ir  Ir1_1  1  0.20249426  0.45262116  0.74988712  1
  Ir  Ir1_2  1  0.20249426  0.95262116  0.24988712  1
  Ir  Ir1_3  1  0.20249426  0.95262116  0.74988712  1
  Ir  Ir1_4  1  0.70249426  0.45262116  0.24988712  1
  Ir  Ir1_5  1  0.70249427  0.45262116  0.74988712  1
  Ir  Ir1_6  1  0.70249426  0.95262116  0.24988712  1
  Ir  Ir1_7  1  0.70249426  0.95262116  0.74988712  1
  Ir  Ir2_0  1  0.29728156  0.04741025  0.24992160  1
  Ir  Ir2_1  1  0.29728157  0.04741025  0.74992160  1
  Ir  Ir2_2  1  0.29728156  0.54741025  0.24992160  1
  Ir  Ir2_3  1  0.29728156  0.54741025  0.74992161  1
  Ir  Ir2_4  1  0.79728156  0.04741025  0.24992160  1
  Ir  Ir2_5  1  0.79728157  0.04741025  0.74992160  1
  Ir  Ir2_6  1  0.79728157  0.54741025  0.24992160  1
  Ir  Ir2_7  1  0.79728156  0.54741025  0.74992160  1
  W  W0_0  1  0.07569103  0.32593709  0.25000903  1
  W  W0_1  1  0.07569103  0.32593709  0.75000903  1
  W  W0_2  1  0.07569103  0.82593709  0.25000903  1
  W  W0_3  1  0.07569103  0.82593709  0.75000903  1
  W  W0_4  1  0.57569103  0.32593709  0.25000903  1
  W  W0_5  1  0.57569103  0.32593709  0.75000904  1
  W  W0_6  1  0.57569103  0.82593709  0.25000904  1
  W  W0_7  1  0.57569103  0.82593709  0.75000904  1
  W  W1_0  1  0.42407269  0.17402276  0.24971714  1
  W  W1_1  1  0.42407269  0.17402276  0.74971714  1
  W  W1_2  1  0.42407269  0.67402275  0.24971713  1
  W  W1_3  1  0.42407269  0.67402275  0.74971714  1
  W  W1_4  1  0.92407269  0.17402276  0.24971714  1
  W  W1_5  1  0.92407269  0.17402276  0.74971714  1
  W  W1_6  1  0.92407269  0.67402276  0.24971714  1
  W  W1_7  1  0.92407269  0.67402275  0.74971713  1
loop_
_geom_bond_atom_site_label_1
_geom_bond_atom_site_label_2
_geom_bond_distance
_geom_bond_site_symmetry_2
B0_0 B3_3 1.766355 1_544
B0_0 B3_0 1.766590 1_555
B0_0 B2_0 1.885928 1_555
B0_0 Ir2_0 2.196123 1_555
B0_0 W1_0 2.216087 1_555
B0_0 W0_3 2.293181 1_544
B0_0 W0_0 2.293652 1_555
B0_1 B3_2 1.766355 1_545
B0_1 B3_1 1.766590 1_555
B0_1 B2_1 1.885928 1_555
B0_1 Ir2_1 2.196123 1_555
B0_1 W1_1 2.216087 1_555
B0_1 W0_2 2.293181 1_545
B0_1 W0_1 2.293652 1_555
B0_2 B3_1 1.766355 1_554
B0_2 B3_2 1.766590 1_555
B0_2 B2_2 1.885928 1_555
B0_2 Ir2_2 2.196123 1_555
B0_2 W1_2 2.216087 1_555
B0_2 W0_1 2.293181 1_554
B0_2 W0_2 2.293652 1_555
B0_3 B3_0 1.766355 1_555
B0_3 B3_3 1.766590 1_555
B0_3 B2_3 1.885928 1_555
B0_3 Ir2_3 2.196123 1_555
B0_3 W1_3 2.216087 1_555
B0_3 W0_0 2.293181 1_555
B0_3 W0_3 2.293652 1_555
B0_4 B3_7 1.766355 1_544
B0_4 B3_4 1.766590 1_555
B0_4 B2_4 1.885928 1_555
B0_4 Ir2_4 2.196123 1_555
B0_4 W1_4 2.216087 1_555
B0_4 W0_7 2.293181 1_544
B0_4 W0_4 2.293652 1_555
B0_5 B3_6 1.766355 1_545
B0_5 B3_5 1.766590 1_555
B0_5 B2_5 1.885928 1_555
B0_5 Ir2_5 2.196123 1_555
B0_5 W1_5 2.216087 1_555
B0_5 W0_6 2.293181 1_545
B0_5 W0_5 2.293652 1_555
B0_6 B3_5 1.766355 1_554
B0_6 B3_6 1.766590 1_555
B0_6 B2_6 1.885928 1_555
B0_6 Ir2_6 2.196123 1_555
B0_6 W1_6 2.216087 1_555
B0_6 W0_5 2.293181 1_554
B0_6 W0_6 2.293652 1_555
B0_7 B3_4 1.766355 1_555
B0_7 B3_7 1.766590 1_555
B0_7 B2_7 1.885928 1_555
B0_7 Ir2_7 2.196123 1_555
B0_7 W1_7 2.216087 1_555
B0_7 W0_4 2.293181 1_555
B0_7 W0_7 2.293652 1_555
B1_0 B2_6 1.766257 1_455
B1_0 B2_5 1.766585 1_454
B1_0 B3_0 1.885995 1_555
B1_0 Ir1_0 2.195934 1_555
B1_0 W0_0 2.216226 1_555
B1_0 W1_6 2.292944 1_455
B1_0 W1_5 2.294077 1_454
B1_1 B2_7 1.766257 1_455
B1_1 B2_4 1.766585 1_455
B1_1 B3_1 1.885995 1_555
B1_1 Ir1_1 2.195934 1_555
B1_1 W0_1 2.216226 1_555
B1_1 W1_7 2.292944 1_455
B1_1 W1_4 2.294077 1_455
B1_2 B2_4 1.766257 1_465
B1_2 B2_7 1.766585 1_454
B1_2 B3_2 1.885995 1_555
B1_2 Ir1_2 2.195934 1_555
B1_2 W0_2 2.216226 1_555
B1_2 W1_4 2.292944 1_465
B1_2 W1_7 2.294077 1_454
B1_3 B2_5 1.766257 1_465
B1_3 B2_6 1.766585 1_455
B1_3 B3_3 1.885995 1_555
B1_3 Ir1_3 2.195934 1_555
B1_3 W0_3 2.216226 1_555
B1_3 W1_5 2.292944 1_465
B1_3 W1_6 2.294077 1_455
B1_4 B2_2 1.766257 1_555
B1_4 B2_1 1.766585 1_554
B1_4 B3_4 1.885995 1_555
B1_4 Ir1_4 2.195934 1_555
B1_4 W0_4 2.216226 1_555
B1_4 W1_2 2.292944 1_555
B1_4 W1_1 2.294077 1_554
B1_5 B2_3 1.766257 1_555
B1_5 B2_0 1.766585 1_555
B1_5 B3_5 1.885995 1_555
B1_5 Ir1_5 2.195934 1_555
B1_5 W0_5 2.216226 1_555
B1_5 W1_3 2.292944 1_555
B1_5 W1_0 2.294077 1_555
B1_6 B2_0 1.766257 1_565
B1_6 B2_3 1.766585 1_554
B1_6 B3_6 1.885995 1_555
B1_6 Ir1_6 2.195934 1_555
B1_6 W0_6 2.216226 1_555
B1_6 W1_0 2.292944 1_565
B1_6 W1_3 2.294077 1_554
B1_7 B2_1 1.766257 1_565
B1_7 B2_2 1.766585 1_555
B1_7 B3_7 1.885995 1_555
B1_7 Ir1_7 2.195934 1_555
B1_7 W0_7 2.216226 1_555
B1_7 W1_1 2.292944 1_565
B1_7 W1_2 2.294077 1_555
B2_0 Ir2_0 2.205722 1_555
B2_0 W1_0 2.206852 1_555
B2_0 W0_6 2.297775 1_545
B2_0 W0_5 2.298685 1_555
B2_1 Ir2_1 2.205722 1_555
B2_1 W1_1 2.206852 1_555
B2_1 W0_7 2.297775 1_545
B2_1 W0_4 2.298685 1_556
B2_2 Ir2_2 2.205722 1_555
B2_2 W1_2 2.206852 1_555
B2_2 W0_4 2.297775 1_555
B2_2 W0_7 2.298685 1_555
B2_3 Ir2_3 2.205722 1_555
B2_3 W1_3 2.206852 1_555
B2_3 W0_5 2.297775 1_555
B2_3 W0_6 2.298685 1_556
B2_4 Ir2_4 2.205722 1_555
B2_4 W1_4 2.206852 1_555
B2_4 W0_2 2.297775 1_645
B2_4 W0_1 2.298685 1_655
B2_5 Ir2_5 2.205722 1_555
B2_5 W1_5 2.206852 1_555
B2_5 W0_3 2.297775 1_645
B2_5 W0_0 2.298685 1_656
B2_6 Ir2_6 2.205722 1_555
B2_6 W1_6 2.206852 1_555
B2_6 W0_0 2.297775 1_655
B2_6 W0_3 2.298685 1_655
B2_7 Ir2_7 2.205722 1_555
B2_7 W1_7 2.206852 1_555
B2_7 W0_1 2.297775 1_655
B2_7 W0_2 2.298685 1_656
B3_0 Ir1_0 2.205928 1_555
B3_0 W0_0 2.206784 1_555
B3_0 W1_3 2.297712 1_555
B3_0 W1_0 2.298431 1_555
B3_1 Ir1_1 2.205928 1_555
B3_1 W0_1 2.206784 1_555
B3_1 W1_2 2.297712 1_556
B3_1 W1_1 2.298431 1_555
B3_2 Ir1_2 2.205928 1_555
B3_2 W0_2 2.206784 1_555
B3_2 W1_1 2.297712 1_565
B3_2 W1_2 2.298431 1_555
B3_3 Ir1_3 2.205928 1_555
B3_3 W0_3 2.206784 1_555
B3_3 W1_0 2.297712 1_566
B3_3 W1_3 2.298431 1_555
B3_4 Ir1_4 2.205928 1_555
B3_4 W0_4 2.206784 1_555
B3_4 W1_7 2.297712 1_555
B3_4 W1_4 2.298431 1_555
B3_5 Ir1_5 2.205928 1_555
B3_5 W0_5 2.206784 1_555
B3_5 W1_6 2.297712 1_556
B3_5 W1_5 2.298431 1_555
B3_6 Ir1_6 2.205928 1_555
B3_6 W0_6 2.206784 1_555
B3_6 W1_5 2.297712 1_565
B3_6 W1_6 2.298431 1_555
B3_7 Ir1_7 2.205928 1_555
B3_7 W0_7 2.206784 1_555
B3_7 W1_4 2.297712 1_566
B3_7 W1_7 2.298431 1_555
B4_0 Ir0_1 2.165494 1_544
B4_0 Ir0_2 2.165542 1_555
B4_0 Ir1_0 2.198526 1_555
B4_0 Ir2_1 2.198787 1_554
B4_0 Ir2_2 2.199023 1_555
B4_0 Ir1_3 2.199163 1_544
B4_0 W0_4 2.885512 1_555
B4_0 W1_0 2.885727 1_555
B4_1 Ir0_0 2.165494 1_545
B4_1 Ir0_3 2.165542 1_555
B4_1 Ir1_1 2.198526 1_555
B4_1 Ir2_0 2.198787 1_555
B4_1 Ir2_3 2.199023 1_555
B4_1 Ir1_2 2.199163 1_545
B4_1 W0_5 2.885512 1_555
B4_1 W1_1 2.885727 1_555
B4_2 Ir0_3 2.165494 1_554
B4_2 Ir0_0 2.165542 1_555
B4_2 Ir1_2 2.198526 1_555
B4_2 Ir2_3 2.198787 1_554
B4_2 Ir2_0 2.199023 1_565
B4_2 Ir1_1 2.199163 1_554
B4_2 W0_6 2.885512 1_555
B4_2 W1_2 2.885727 1_555
B4_3 Ir0_2 2.165494 1_555
B4_3 Ir0_1 2.165542 1_555
B4_3 Ir1_3 2.198526 1_555
B4_3 Ir2_2 2.198787 1_555
B4_3 Ir2_1 2.199023 1_565
B4_3 Ir1_0 2.199163 1_555
B4_3 W0_7 2.885512 1_555
B4_3 W1_3 2.885727 1_555
B4_4 Ir0_5 2.165494 1_544
B4_4 Ir0_6 2.165542 1_555
B4_4 Ir1_4 2.198526 1_555
B4_4 Ir2_5 2.198787 1_554
B4_4 Ir2_6 2.199023 1_555
B4_4 Ir1_7 2.199163 1_544
B4_4 W0_0 2.885512 1_655
B4_4 W1_4 2.885727 1_555
B4_5 Ir0_4 2.165494 1_545
B4_5 Ir0_7 2.165542 1_555
B4_5 Ir1_5 2.198526 1_555
B4_5 Ir2_4 2.198787 1_555
B4_5 Ir2_7 2.199023 1_555
B4_5 Ir1_6 2.199163 1_545
B4_5 W0_1 2.885512 1_655
B4_5 W1_5 2.885727 1_555
B4_6 Ir0_7 2.165494 1_554
B4_6 Ir0_4 2.165542 1_555
B4_6 Ir1_6 2.198526 1_555
B4_6 Ir2_7 2.198787 1_554
B4_6 Ir2_4 2.199023 1_565
B4_6 Ir1_5 2.199163 1_554
B4_6 W0_2 2.885512 1_655
B4_6 W1_6 2.885727 1_555
B4_7 Ir0_6 2.165494 1_555
B4_7 Ir0_5 2.165542 1_555
B4_7 Ir1_7 2.198526 1_555
B4_7 Ir2_6 2.198787 1_555
B4_7 Ir2_5 2.199023 1_565
B4_7 Ir1_4 2.199163 1_555
B4_7 W0_3 2.885512 1_655
B4_7 W1_7 2.885727 1_555
Ir0_0 W0_6 2.786336 1_555
Ir0_0 W1_1 2.786457 1_565
Ir0_0 W0_5 2.787592 1_565
Ir0_0 W1_2 2.787885 1_555
Ir0_0 Ir2_5 2.794524 1_565
Ir0_0 Ir1_7 2.794724 1_555
Ir0_0 Ir0_3 2.884487 1_554
Ir0_0 Ir0_3 2.884487 1_565
Ir0_1 W0_7 2.786336 1_555
Ir0_1 W1_0 2.786457 1_566
Ir0_1 W0_4 2.787592 1_566
Ir0_1 W1_3 2.787885 1_555
Ir0_1 Ir2_4 2.794524 1_566
Ir0_1 Ir1_6 2.794724 1_556
Ir0_1 Ir0_2 2.884487 1_555
Ir0_1 Ir0_2 2.884487 1_566
Ir0_2 W0_4 2.786336 1_555
Ir0_2 W1_3 2.786457 1_555
Ir0_2 W0_7 2.787592 1_555
Ir0_2 W1_0 2.787885 1_555
Ir0_2 Ir2_7 2.794524 1_555
Ir0_2 Ir1_5 2.794724 1_555
Ir0_3 W0_5 2.786336 1_555
Ir0_3 W1_2 2.786457 1_556
Ir0_3 W0_6 2.787592 1_556
Ir0_3 W1_1 2.787885 1_555
Ir0_3 Ir2_6 2.794524 1_556
Ir0_3 Ir1_4 2.794724 1_556
Ir0_4 W0_2 2.786336 1_655
Ir0_4 W1_5 2.786457 1_565
Ir0_4 W0_1 2.787592 1_665
Ir0_4 W1_6 2.787885 1_555
Ir0_4 Ir2_1 2.794524 1_665
Ir0_4 Ir1_3 2.794724 1_655
Ir0_4 Ir0_7 2.884487 1_554
Ir0_4 Ir0_7 2.884487 1_565
Ir0_5 W0_3 2.786336 1_655
Ir0_5 W1_4 2.786457 1_566
Ir0_5 W0_0 2.787592 1_666
Ir0_5 W1_7 2.787885 1_555
Ir0_5 Ir2_0 2.794524 1_666
Ir0_5 Ir1_2 2.794724 1_656
Ir0_5 Ir0_6 2.884487 1_555
Ir0_5 Ir0_6 2.884487 1_566
Ir0_6 W0_0 2.786336 1_655
Ir0_6 W1_7 2.786457 1_555
Ir0_6 W0_3 2.787592 1_655
Ir0_6 W1_4 2.787885 1_555
Ir0_6 Ir2_3 2.794524 1_655
Ir0_6 Ir1_1 2.794724 1_655
Ir0_7 W0_1 2.786336 1_655
Ir0_7 W1_6 2.786457 1_556
Ir0_7 W0_2 2.787592 1_656
Ir0_7 W1_5 2.787885 1_555
Ir0_7 Ir2_2 2.794524 1_656
Ir0_7 Ir1_0 2.794724 1_656
Ir1_0 Ir1_3 2.884487 1_555
Ir1_0 Ir1_3 2.884487 1_544
Ir1_0 W1_6 2.901562 1_455
Ir1_0 W1_3 2.902045 1_555
Ir1_0 W1_0 2.902897 1_555
Ir1_0 W1_5 2.903032 1_454
Ir1_1 Ir1_2 2.884487 1_545
Ir1_1 Ir1_2 2.884487 1_556
Ir1_1 W1_7 2.901562 1_455
Ir1_1 W1_2 2.902045 1_556
Ir1_1 W1_1 2.902897 1_555
Ir1_1 W1_4 2.903032 1_455
Ir1_2 W1_4 2.901562 1_465
Ir1_2 W1_1 2.902045 1_565
Ir1_2 W1_2 2.902897 1_555
Ir1_2 W1_7 2.903032 1_454
Ir1_3 W1_5 2.901562 1_465
Ir1_3 W1_0 2.902045 1_566
Ir1_3 W1_3 2.902897 1_555
Ir1_3 W1_6 2.903032 1_455
Ir1_4 Ir1_7 2.884487 1_555
Ir1_4 Ir1_7 2.884487 1_544
Ir1_4 W1_2 2.901562 1_555
Ir1_4 W1_7 2.902045 1_555
Ir1_4 W1_4 2.902897 1_555
Ir1_4 W1_1 2.903032 1_554
Ir1_5 Ir1_6 2.884487 1_556
Ir1_5 Ir1_6 2.884487 1_545
Ir1_5 W1_3 2.901562 1_555
Ir1_5 W1_6 2.902045 1_556
Ir1_5 W1_5 2.902897 1_555
Ir1_5 W1_0 2.903032 1_555
Ir1_6 W1_0 2.901562 1_565
Ir1_6 W1_5 2.902045 1_565
Ir1_6 W1_6 2.902897 1_555
Ir1_6 W1_3 2.903032 1_554
Ir1_7 W1_1 2.901562 1_565
Ir1_7 W1_4 2.902045 1_566
Ir1_7 W1_7 2.902897 1_555
Ir1_7 W1_2 2.903032 1_555
Ir2_0 Ir2_3 2.884487 1_544
Ir2_0 Ir2_3 2.884487 1_555
Ir2_0 W0_6 2.901672 1_545
Ir2_0 W0_3 2.902331 1_544
Ir2_0 W0_5 2.902735 1_555
Ir2_0 W0_0 2.902776 1_555
Ir2_1 Ir2_2 2.884487 1_545
Ir2_1 Ir2_2 2.884487 1_556
Ir2_1 W0_7 2.901672 1_545
Ir2_1 W0_2 2.902331 1_545
Ir2_1 W0_4 2.902735 1_556
Ir2_1 W0_1 2.902776 1_555
Ir2_2 W0_4 2.901672 1_555
Ir2_2 W0_1 2.902331 1_554
Ir2_2 W0_7 2.902735 1_555
Ir2_2 W0_2 2.902776 1_555
Ir2_3 W0_5 2.901672 1_555
Ir2_3 W0_0 2.902331 1_555
Ir2_3 W0_6 2.902735 1_556
Ir2_3 W0_3 2.902776 1_555
Ir2_4 Ir2_7 2.884487 1_555
Ir2_4 Ir2_7 2.884487 1_544
Ir2_4 W0_2 2.901672 1_645
Ir2_4 W0_7 2.902331 1_544
Ir2_4 W0_1 2.902735 1_655
Ir2_4 W0_4 2.902776 1_555
Ir2_5 Ir2_6 2.884487 1_545
Ir2_5 Ir2_6 2.884487 1_556
Ir2_5 W0_3 2.901672 1_645
Ir2_5 W0_6 2.902331 1_545
Ir2_5 W0_0 2.902735 1_656
Ir2_5 W0_5 2.902776 1_555
Ir2_6 W0_0 2.901672 1_655
Ir2_6 W0_5 2.902331 1_554
Ir2_6 W0_3 2.902735 1_655
Ir2_6 W0_6 2.902776 1_555
Ir2_7 W0_1 2.901672 1_655
Ir2_7 W0_4 2.902331 1_555
Ir2_7 W0_2 2.902735 1_656
Ir2_7 W0_7 2.902776 1_555
W0_0 W0_3 2.884487 1_544
W0_0 W0_3 2.884487 1_555
W0_1 W0_2 2.884487 1_545
W0_1 W0_2 2.884487 1_556
W0_4 W0_7 2.884487 1_555
W0_4 W0_7 2.884487 1_544
W0_5 W0_6 2.884487 1_545
W0_5 W0_6 2.884487 1_556
W1_0 W1_3 2.884487 1_555
W1_0 W1_3 2.884487 1_544
W1_1 W1_2 2.884487 1_545
W1_1 W1_2 2.884487 1_556
W1_4 W1_7 2.884487 1_555
W1_4 W1_7 2.884487 1_544
W1_5 W1_6 2.884487 1_545
W1_5 W1_6 2.884487 1_556
