# generated using pymatgen
data_K3Zr4Si12HO44
_symmetry_space_group_name_H-M   'P 1'
_cell_length_a   7.41540400
_cell_length_b   10.37634588
_cell_length_c   13.67456442
_cell_angle_alpha   90.05295696
_cell_angle_beta   92.69390024
_cell_angle_gamma   90.14423427
_symmetry_Int_Tables_number   1
_chemical_formula_structural   K3Zr4Si12HO44
_chemical_formula_sum   'K3 Zr4 Si12 H1 O44'
_cell_volume   1051.01988873
_cell_formula_units_Z   1
loop_
 _symmetry_equiv_pos_site_id
 _symmetry_equiv_pos_as_xyz
  1  'x, y, z'
loop_
 _atom_site_type_symbol
 _atom_site_label
 _atom_site_symmetry_multiplicity
 _atom_site_fract_x
 _atom_site_fract_y
 _atom_site_fract_z
 _atom_site_occupancy
  K  K0  1  0.72339100  0.30563400  0.11271700  1
  K  K1  1  0.72336100  0.19554800  0.61174700  1
  K  K2  1  0.26564800  0.69387300  0.89164800  1
  Zr  Zr0  1  0.70000900  0.77866700  0.29839000  1
  Zr  Zr1  1  0.26057800  0.28985200  0.21703900  1
  Zr  Zr2  1  0.24900200  0.20400500  0.70114800  1
  Zr  Zr3  1  0.74902300  0.70520200  0.80304700  1
  Si  Si0  1  0.29421800  0.20389300  0.44784100  1
  Si  Si1  1  0.72015000  0.69505300  0.05260800  1
  Si  Si2  1  0.71420900  0.78047400  0.55132400  1
  Si  Si3  1  0.27890000  0.28567200  0.94694200  1
  Si  Si4  1  0.40321700  0.59669300  0.15589600  1
  Si  Si5  1  0.58992800  0.10116500  0.33213200  1
  Si  Si6  1  0.57907100  0.39397000  0.83573300  1
  Si  Si7  1  0.42283800  0.89289800  0.67163200  1
  Si  Si8  1  0.00121000  0.07377400  0.33114300  1
  Si  Si9  1  0.00532600  0.56678300  0.16540900  1
  Si  Si10  1  0.01515800  0.91502400  0.67104600  1
  Si  Si11  1  0.98530100  0.41850600  0.82699000  1
  H  H0  1  0.06813500  0.86157700  0.30720700  1
  O  O0  1  0.57476200  0.94743300  0.31043500  1
  O  O1  1  0.42083400  0.44227200  0.16807600  1
  O  O2  1  0.43373900  0.04776300  0.68877600  1
  O  O3  1  0.56793000  0.54997700  0.82447800  1
  O  O4  1  0.33289300  0.05495300  0.97893900  1
  O  O5  1  0.57815100  0.51624000  0.59267900  1
  O  O6  1  0.76923700  0.06276900  0.01790100  1
  O  O7  1  0.33925000  0.57747200  0.48092800  1
  O  O8  1  0.96194800  0.91371800  0.31886400  1
  O  O9  1  0.04038000  0.41904200  0.19641500  1
  O  O10  1  0.04054300  0.07012000  0.67843700  1
  O  O11  1  0.95799700  0.57276600  0.81387200  1
  O  O12  1  0.80530200  0.13550000  0.35381200  1
  O  O13  1  0.19078400  0.63809600  0.13150100  1
  O  O14  1  0.21179800  0.84507400  0.65569600  1
  O  O15  1  0.79171200  0.34937100  0.85227400  1
  O  O16  1  0.13875900  0.09075900  0.42745100  1
  O  O17  1  0.85277200  0.56900800  0.07272000  1
  O  O18  1  0.88210500  0.88144900  0.57372900  1
  O  O19  1  0.12805900  0.39915400  0.92355200  1
  O  O20  1  0.05094300  0.00195800  0.04048700  1
  O  O21  1  0.05474700  0.52135700  0.46197900  1
  O  O22  1  0.91286200  0.01787900  0.98103800  1
  O  O23  1  0.19375500  0.53262800  0.51932500  1
  O  O24  1  0.71920700  0.72609500  0.44147900  1
  O  O25  1  0.26049800  0.22971600  0.05786300  1
  O  O26  1  0.28325200  0.25377100  0.55938000  1
  O  O27  1  0.74948200  0.75732100  0.94693300  1
  O  O28  1  0.48957200  0.67198200  0.25149700  1
  O  O29  1  0.50157300  0.18489500  0.24193900  1
  O  O30  1  0.48271500  0.31951700  0.74213500  1
  O  O31  1  0.51448800  0.81501900  0.76486600  1
  O  O32  1  0.49602600  0.13847800  0.43581700  1
  O  O33  1  0.50784100  0.64921900  0.05836200  1
  O  O34  1  0.52439700  0.85554400  0.57063500  1
  O  O35  1  0.48238900  0.34792500  0.93735100  1
  O  O36  1  0.77297600  0.79692300  0.14394900  1
  O  O37  1  0.26594500  0.31657900  0.36586700  1
  O  O38  1  0.24290400  0.17260400  0.86326100  1
  O  O39  1  0.73373100  0.66443400  0.63675400  1
  O  O40  1  0.91780400  0.65414300  0.25340900  1
  O  O41  1  0.08350400  0.13584000  0.23494200  1
  O  O42  1  0.06486900  0.34611400  0.73285000  1
  O  O43  1  0.92689600  0.84886000  0.76570600  1
loop_
_geom_bond_atom_site_label_1
_geom_bond_atom_site_label_2
_geom_bond_distance
_geom_bond_site_symmetry_2
K0 O29 2.768501 1_555
K0 O1 2.791160 1_555
K0 O9 2.819706 1_655
K0 O6 2.861299 1_555
K0 O17 2.954154 1_555
K0 O35 2.956366 1_554
K0 O41 3.555012 1_655
K1 O10 2.805987 1_655
K1 O2 2.876206 1_555
K1 O30 2.885232 1_555
K1 O32 2.931102 1_555
K1 O42 3.343281 1_655
K1 O5 3.506239 1_555
K1 O18 3.514549 1_545
K1 O12 3.660262 1_555
K2 O11 2.769461 1_455
K2 O33 2.873787 1_556
K2 O31 2.878171 1_555
K2 O3 2.881916 1_555
K2 O19 3.257593 1_555
K2 O43 3.388383 1_455
K2 O13 3.402036 1_556
K2 O14 3.594845 1_555
H0 O8 0.975674 1_455
O0 Si5 1.624915 1_565
O0 Zr0 1.994584 1_555
O1 Si4 1.616093 1_555
O1 Zr1 2.104550 1_555
O2 Si7 1.624991 1_545
O2 Zr2 2.136835 1_555
O3 Si6 1.628161 1_555
O3 Zr3 2.123778 1_555
O5 O7 2.372822 1_555
O8 Si8 1.692235 1_665
O8 Zr0 2.397797 1_555
O9 Si9 1.609445 1_555
O9 Zr1 2.123955 1_555
O10 Si10 1.622337 1_545
O10 Zr2 2.087873 1_555
O11 Si11 1.622966 1_555
O11 Zr3 2.073938 1_555
O12 Si8 1.631997 1_655
O12 Si5 1.648616 1_555
O13 Si9 1.645996 1_555
O13 Si4 1.652762 1_555
O14 Si7 1.645185 1_555
O14 Si10 1.652557 1_555
O15 Si6 1.649855 1_555
O15 Si11 1.654347 1_555
O16 Si8 1.636530 1_555
O16 Si0 1.657444 1_555
O17 Si1 1.653810 1_555
O17 Si9 1.658967 1_655
O18 Si2 1.642772 1_555
O18 Si10 1.655224 1_655
O19 Si3 1.647338 1_555
O19 Si11 1.665745 1_455
O20 O22 1.288193 1_454
O20 O4 2.354263 1_554
O21 O23 1.270594 1_555
O22 O6 1.287595 1_556
O23 O7 1.306682 1_555
O24 Si2 1.606170 1_555
O24 Zr0 2.030423 1_555
O25 Si3 1.636183 1_554
O25 O4 2.190239 1_554
O25 Zr1 2.263756 1_555
O26 Si0 1.615940 1_555
O26 Zr2 2.033929 1_555
O27 Si1 1.607338 1_556
O27 Zr3 2.039912 1_555
O28 Si4 1.626748 1_555
O28 Zr0 1.991897 1_555
O29 Si5 1.623005 1_555
O29 Zr1 2.109250 1_555
O30 Si6 1.629409 1_555
O30 Zr2 2.156689 1_555
O31 Si7 1.632051 1_555
O31 Zr3 2.126381 1_555
O32 Si5 1.654752 1_555
O32 Si0 1.659902 1_555
O33 Si1 1.648915 1_555
O33 Si4 1.665622 1_555
O34 Si2 1.642476 1_555
O34 Si7 1.650167 1_555
O35 Si3 1.650835 1_555
O35 Si6 1.663237 1_555
O36 Si1 1.667448 1_555
O36 Zr0 2.212796 1_555
O37 Si0 1.627655 1_555
O37 Zr1 2.052231 1_555
O38 Si3 1.650569 1_555
O38 O4 2.084779 1_555
O38 Zr2 2.243480 1_555
O39 Si2 1.680196 1_555
O39 O5 1.995696 1_555
O39 Zr3 2.310098 1_555
O40 Si9 1.662936 1_655
O40 Zr0 2.181431 1_555
O41 Si8 1.610206 1_555
O41 Zr1 2.087664 1_555
O42 Si11 1.625247 1_455
O42 Zr2 2.071537 1_555
O43 Si10 1.629197 1_655
O43 Zr3 2.068172 1_555
