# generated using pymatgen
data_Sr3Ta5O15
_symmetry_space_group_name_H-M   'P 1'
_cell_length_a   12.59709000
_cell_length_b   12.59709000
_cell_length_c   3.97861200
_cell_angle_alpha   90.00000000
_cell_angle_beta   90.00000000
_cell_angle_gamma   90.00000000
_symmetry_Int_Tables_number   1
_chemical_formula_structural   Sr3Ta5O15
_chemical_formula_sum   'Sr6 Ta10 O30'
_cell_volume   631.35271524
_cell_formula_units_Z   2
loop_
 _symmetry_equiv_pos_site_id
 _symmetry_equiv_pos_as_xyz
  1  'x, y, z'
loop_
 _atom_site_type_symbol
 _atom_site_label
 _atom_site_symmetry_multiplicity
 _atom_site_fract_x
 _atom_site_fract_y
 _atom_site_fract_z
 _atom_site_occupancy
  Sr  Sr0  1  0.16347200  0.66347200  0.50000000  1
  Sr  Sr1  1  0.83652800  0.33652800  0.50000000  1
  Sr  Sr2  1  0.66347200  0.83652800  0.50000000  1
  Sr  Sr3  1  0.33652800  0.16347200  0.50000000  1
  Sr  Sr4  1  0.00000000  0.00000000  0.50000000  1
  Sr  Sr5  1  0.50000000  0.50000000  0.50000000  1
  Ta  Ta0  1  0.07997700  0.21021500  0.00000000  1
  Ta  Ta1  1  0.92002300  0.78978500  0.00000000  1
  Ta  Ta2  1  0.21021500  0.92002300  0.00000000  1
  Ta  Ta3  1  0.57997700  0.28978500  0.00000000  1
  Ta  Ta4  1  0.78978500  0.07997700  0.00000000  1
  Ta  Ta5  1  0.42002300  0.71021500  0.00000000  1
  Ta  Ta6  1  0.71021500  0.57997700  0.00000000  1
  Ta  Ta7  1  0.28978500  0.42002300  0.00000000  1
  Ta  Ta8  1  0.50000000  0.00000000  0.00000000  1
  Ta  Ta9  1  0.00000000  0.50000000  0.00000000  1
  O  O0  1  0.72925900  0.22925900  0.00000000  1
  O  O1  1  0.27074100  0.77074100  0.00000000  1
  O  O2  1  0.22925900  0.27074100  0.00000000  1
  O  O3  1  0.77074100  0.72925900  0.00000000  1
  O  O4  1  0.34155400  0.00852500  0.00000000  1
  O  O5  1  0.65844600  0.99147500  0.00000000  1
  O  O6  1  0.00852500  0.65844600  0.00000000  1
  O  O7  1  0.84155400  0.49147500  0.00000000  1
  O  O8  1  0.99147500  0.34155400  0.00000000  1
  O  O9  1  0.15844600  0.50852500  0.00000000  1
  O  O10  1  0.50852500  0.84155400  0.00000000  1
  O  O11  1  0.49147500  0.15844600  0.00000000  1
  O  O12  1  0.08097900  0.20691500  0.50000000  1
  O  O13  1  0.91902100  0.79308500  0.50000000  1
  O  O14  1  0.20691500  0.91902100  0.50000000  1
  O  O15  1  0.58097900  0.29308500  0.50000000  1
  O  O16  1  0.79308500  0.08097900  0.50000000  1
  O  O17  1  0.41902100  0.70691500  0.50000000  1
  O  O18  1  0.70691500  0.58097900  0.50000000  1
  O  O19  1  0.29308500  0.41902100  0.50000000  1
  O  O20  1  0.13639300  0.06319700  0.00000000  1
  O  O21  1  0.86360700  0.93680300  0.00000000  1
  O  O22  1  0.06319700  0.86360700  0.00000000  1
  O  O23  1  0.63639300  0.43680300  0.00000000  1
  O  O24  1  0.93680300  0.13639300  0.00000000  1
  O  O25  1  0.36360700  0.56319700  0.00000000  1
  O  O26  1  0.56319700  0.63639300  0.00000000  1
  O  O27  1  0.43680300  0.36360700  0.00000000  1
  O  O28  1  0.50000000  0.00000000  0.50000000  1
  O  O29  1  0.00000000  0.50000000  0.50000000  1
loop_
_geom_bond_atom_site_label_1
_geom_bond_atom_site_label_2
_geom_bond_distance
_geom_bond_site_symmetry_2
O0 Ta3 2.029208 1_555
O0 Ta4 2.029208 1_555
O0 Sr1 2.758485 1_554
O0 Sr1 2.758485 1_555
O0 O16 2.844789 1_555
O0 O16 2.844789 1_554
O0 O15 2.844789 1_555
O0 O15 2.844789 1_554
O1 Ta2 2.029208 1_555
O1 Ta5 2.029208 1_555
O1 Sr0 2.758485 1_555
O1 Sr0 2.758485 1_554
O1 O14 2.844789 1_554
O1 O14 2.844789 1_555
O1 O17 2.844789 1_555
O1 O17 2.844789 1_554
O2 Ta7 2.029208 1_555
O2 Ta0 2.029208 1_555
O2 Sr3 2.758485 1_554
O2 Sr3 2.758485 1_555
O3 Ta1 2.029208 1_555
O3 Ta6 2.029208 1_555
O3 Sr2 2.758485 1_555
O3 Sr2 2.758485 1_554
O4 Ta2 1.995060 1_545
O4 Ta8 1.998845 1_555
O4 Sr3 2.787685 1_554
O4 Sr3 2.787685 1_555
O5 Ta4 1.995060 1_565
O5 Ta8 1.998845 1_565
O5 Sr2 2.787685 1_555
O5 Sr2 2.787685 1_554
O6 Ta1 1.995060 1_455
O6 Ta9 1.998845 1_555
O6 O9 2.670839 1_555
O6 Sr0 2.787685 1_554
O6 Sr0 2.787685 1_555
O7 Ta6 1.995060 1_555
O7 Ta9 1.998845 1_655
O7 O8 2.670839 1_555
O7 Sr1 2.787685 1_554
O7 Sr1 2.787685 1_555
O8 Ta0 1.995060 1_655
O8 Ta9 1.998845 1_655
O8 Sr1 2.787685 1_554
O8 Sr1 2.787685 1_555
O9 Ta7 1.995060 1_555
O9 Ta9 1.998845 1_555
O9 Sr0 2.787685 1_555
O9 Sr0 2.787685 1_554
O10 Ta5 1.995060 1_555
O10 Ta8 1.998845 1_565
O10 O5 2.670839 1_555
O10 O26 2.674622 1_555
O10 Sr2 2.787685 1_555
O10 Sr2 2.787685 1_554
O11 Ta3 1.995060 1_555
O11 Ta8 1.998845 1_555
O11 O4 2.670839 1_555
O11 O27 2.674622 1_555
O11 Sr3 2.787685 1_554
O11 Sr3 2.787685 1_555
O12 Ta0 1.989780 1_555
O12 Ta0 1.989780 1_556
O12 O20 2.778897 1_555
O12 O20 2.778897 1_556
O12 Sr4 2.799033 1_555
O12 O2 2.844789 1_556
O12 O2 2.844789 1_555
O12 Sr3 3.265359 1_555
O13 Ta1 1.989780 1_555
O13 Ta1 1.989780 1_556
O13 O21 2.778897 1_555
O13 O21 2.778897 1_556
O13 Sr4 2.799033 1_665
O13 O3 2.844789 1_556
O13 O3 2.844789 1_555
O13 Sr2 3.265359 1_555
O14 Ta2 1.989780 1_556
O14 Ta2 1.989780 1_555
O14 O22 2.778897 1_555
O14 O22 2.778897 1_556
O14 Sr4 2.799033 1_565
O14 Sr0 3.265359 1_555
O15 Ta3 1.989780 1_555
O15 Ta3 1.989780 1_556
O15 O23 2.778897 1_556
O15 O23 2.778897 1_555
O15 Sr5 2.799033 1_555
O15 Sr1 3.265359 1_555
O16 Ta4 1.989780 1_555
O16 Ta4 1.989780 1_556
O16 O24 2.778897 1_556
O16 O24 2.778897 1_555
O16 Sr4 2.799033 1_655
O16 Sr1 3.265359 1_555
O17 Ta5 1.989780 1_556
O17 Ta5 1.989780 1_555
O17 O25 2.778897 1_555
O17 O25 2.778897 1_556
O17 Sr5 2.799033 1_555
O17 Sr0 3.265359 1_555
O18 Ta6 1.989780 1_556
O18 Ta6 1.989780 1_555
O18 O26 2.778897 1_555
O18 O26 2.778897 1_556
O18 Sr5 2.799033 1_555
O18 O3 2.844789 1_556
O18 O3 2.844789 1_555
O18 Sr2 3.265359 1_555
O19 Ta7 1.989780 1_555
O19 Ta7 1.989780 1_556
O19 O27 2.778897 1_556
O19 O27 2.778897 1_555
O19 Sr5 2.799033 1_555
O19 O2 2.844789 1_555
O19 O2 2.844789 1_556
O19 Sr3 3.265359 1_555
O20 Ta0 1.983674 1_555
O20 Ta2 2.029206 1_545
O20 O4 2.674622 1_555
O20 O22 2.677995 1_545
O20 O24 2.677995 1_455
O20 Sr4 2.746483 1_555
O20 Sr4 2.746483 1_554
O21 Ta1 1.983674 1_555
O21 Ta4 2.029206 1_565
O21 O5 2.674622 1_555
O21 O22 2.677995 1_655
O21 O24 2.677995 1_565
O21 Sr4 2.746483 1_664
O21 Sr4 2.746483 1_665
O22 Ta2 1.983674 1_555
O22 Ta1 2.029206 1_455
O22 O6 2.674622 1_555
O22 Sr4 2.746483 1_565
O22 Sr4 2.746483 1_564
O23 Ta3 1.983674 1_555
O23 Ta6 2.029206 1_555
O23 O7 2.674622 1_555
O23 O26 2.677995 1_555
O23 O27 2.677995 1_555
O23 Sr5 2.746483 1_555
O23 Sr5 2.746483 1_554
O24 Ta4 1.983674 1_555
O24 Ta0 2.029206 1_655
O24 O8 2.674622 1_555
O24 Sr4 2.746483 1_655
O24 Sr4 2.746483 1_654
O25 Ta5 1.983674 1_555
O25 Ta7 2.029206 1_555
O25 O9 2.674622 1_555
O25 O26 2.677995 1_555
O25 O27 2.677995 1_555
O25 Sr5 2.746483 1_555
O25 Sr5 2.746483 1_554
O26 Ta6 1.983674 1_555
O26 Ta5 2.029206 1_555
O26 Sr5 2.746483 1_555
O26 Sr5 2.746483 1_554
O27 Ta7 1.983674 1_555
O27 Ta3 2.029206 1_555
O27 Sr5 2.746483 1_555
O27 Sr5 2.746483 1_554
O28 Ta8 1.989306 1_555
O28 Ta8 1.989306 1_556
O28 Sr3 2.912250 1_555
O28 Sr2 2.912250 1_545
O29 Ta9 1.989306 1_555
O29 Ta9 1.989306 1_556
O29 Sr0 2.912250 1_555
O29 Sr1 2.912250 1_455
