# generated using pymatgen
data_Ba5Mn3O12F
_symmetry_space_group_name_H-M   'P 1'
_cell_length_a   10.51615132
_cell_length_b   10.51615132
_cell_length_c   7.78055500
_cell_angle_alpha   90.00000000
_cell_angle_beta   90.00000000
_cell_angle_gamma   119.99999574
_symmetry_Int_Tables_number   1
_chemical_formula_structural   Ba5Mn3O12F
_chemical_formula_sum   'Ba10 Mn6 O24 F2'
_cell_volume   745.16917428
_cell_formula_units_Z   2
loop_
 _symmetry_equiv_pos_site_id
 _symmetry_equiv_pos_as_xyz
  1  'x, y, z'
loop_
 _atom_site_type_symbol
 _atom_site_label
 _atom_site_symmetry_multiplicity
 _atom_site_fract_x
 _atom_site_fract_y
 _atom_site_fract_z
 _atom_site_occupancy
  Ba  Ba0  1  0.66666700  0.33333300  0.50120500  1
  Ba  Ba1  1  0.33333300  0.66666700  0.00120500  1
  Ba  Ba2  1  0.33333300  0.66666700  0.49879500  1
  Ba  Ba3  1  0.66666700  0.33333300  0.99879500  1
  Ba  Ba4  1  0.23250500  0.99042500  0.75000000  1
  Ba  Ba5  1  0.00957500  0.24207900  0.75000000  1
  Ba  Ba6  1  0.75792100  0.76749500  0.75000000  1
  Ba  Ba7  1  0.76749500  0.00957500  0.25000000  1
  Ba  Ba8  1  0.99042500  0.75792100  0.25000000  1
  Ba  Ba9  1  0.24207900  0.23250500  0.25000000  1
  Mn  Mn0  1  0.96830800  0.59614600  0.75000000  1
  Mn  Mn1  1  0.40385400  0.37216300  0.75000000  1
  Mn  Mn2  1  0.62783700  0.03169200  0.75000000  1
  Mn  Mn3  1  0.03169200  0.40385400  0.25000000  1
  Mn  Mn4  1  0.59614600  0.62783700  0.25000000  1
  Mn  Mn5  1  0.37216300  0.96830800  0.25000000  1
  O  O0  1  0.15629100  0.67854600  0.75000000  1
  O  O1  1  0.32145400  0.47774500  0.75000000  1
  O  O2  1  0.52225500  0.84370900  0.75000000  1
  O  O3  1  0.84370900  0.32145400  0.25000000  1
  O  O4  1  0.67854600  0.52225500  0.25000000  1
  O  O5  1  0.47774500  0.15629100  0.25000000  1
  O  O6  1  0.88091600  0.40748700  0.75000000  1
  O  O7  1  0.59251300  0.47342900  0.75000000  1
  O  O8  1  0.52657100  0.11908400  0.75000000  1
  O  O9  1  0.11908400  0.59251300  0.25000000  1
  O  O10  1  0.40748700  0.52657100  0.25000000  1
  O  O11  1  0.47342900  0.88091600  0.25000000  1
  O  O12  1  0.90612800  0.64865700  0.57496100  1
  O  O13  1  0.35134300  0.25747100  0.57496100  1
  O  O14  1  0.74252900  0.09387200  0.57496100  1
  O  O15  1  0.09387200  0.35134300  0.07496100  1
  O  O16  1  0.64865700  0.74252900  0.07496100  1
  O  O17  1  0.25747100  0.90612800  0.07496100  1
  O  O18  1  0.09387200  0.35134300  0.42503900  1
  O  O19  1  0.64865700  0.74252900  0.42503900  1
  O  O20  1  0.25747100  0.90612800  0.42503900  1
  O  O21  1  0.90612800  0.64865700  0.92503900  1
  O  O22  1  0.35134300  0.25747100  0.92503900  1
  O  O23  1  0.74252900  0.09387200  0.92503900  1
  F  F0  1  0.00000000  0.00000000  0.50000000  1
  F  F1  1  0.00000000  0.00000000  0.00000000  1
loop_
_geom_bond_atom_site_label_1
_geom_bond_atom_site_label_2
_geom_bond_distance
_geom_bond_site_symmetry_2
Ba0 O3 2.744925 1_555
Ba0 O5 2.744929 1_555
Ba0 O4 2.744932 1_555
Ba0 O6 2.770317 1_555
Ba0 O8 2.770318 1_555
Ba0 O7 2.770324 1_555
Ba0 O14 3.052229 1_555
Ba0 O12 3.052237 1_555
Ba0 O13 3.052239 1_555
Ba1 O0 2.744925 1_554
Ba1 O2 2.744929 1_554
Ba1 O1 2.744932 1_554
Ba1 O9 2.770317 1_555
Ba1 O11 2.770318 1_555
Ba1 O10 2.770324 1_555
Ba1 O17 3.052229 1_555
Ba1 O15 3.052237 1_555
Ba1 O16 3.052239 1_555
Ba2 O0 2.744925 1_555
Ba2 O2 2.744929 1_555
Ba2 O1 2.744932 1_555
Ba2 O9 2.770317 1_555
Ba2 O11 2.770318 1_555
Ba2 O10 2.770324 1_555
Ba2 O20 3.052229 1_555
Ba2 O18 3.052237 1_555
Ba2 O19 3.052239 1_555
Ba3 O3 2.744925 1_556
Ba3 O5 2.744929 1_556
Ba3 O4 2.744932 1_556
Ba3 O6 2.770317 1_555
Ba3 O8 2.770318 1_555
Ba3 O7 2.770324 1_555
Ba3 O23 3.052229 1_555
Ba3 O21 3.052237 1_555
Ba3 O22 3.052239 1_555
Ba4 O8 2.685095 1_565
Ba4 O20 2.734997 1_555
Ba4 O17 2.734997 1_556
Ba4 O22 2.791687 1_565
Ba4 O13 2.791687 1_565
Ba4 O0 2.961516 1_555
Ba4 F0 3.165155 1_565
Ba4 F1 3.165155 1_566
Ba5 O6 2.685105 1_455
Ba5 O18 2.735000 1_555
Ba5 O15 2.735000 1_556
Ba5 O23 2.791687 1_455
Ba5 O14 2.791687 1_455
Ba5 O1 2.961519 1_555
Ba5 F0 3.165147 1_555
Ba5 F1 3.165147 1_556
Ba6 O7 2.685096 1_555
Ba6 O16 2.735001 1_556
Ba6 O19 2.735001 1_555
Ba6 O21 2.791679 1_555
Ba6 O12 2.791679 1_555
Ba6 O2 2.961526 1_555
Ba6 F0 3.165151 1_665
Ba6 F1 3.165151 1_666
Ba7 O11 2.685095 1_545
Ba7 O14 2.734997 1_555
Ba7 O23 2.734997 1_554
Ba7 O16 2.791687 1_545
Ba7 O19 2.791687 1_545
Ba7 O3 2.961516 1_555
Ba7 F0 3.165155 1_655
Ba7 F1 3.165155 1_655
Ba8 O9 2.685105 1_655
Ba8 O12 2.735000 1_555
Ba8 O21 2.735000 1_554
Ba8 O17 2.791687 1_655
Ba8 O20 2.791687 1_655
Ba8 O4 2.961519 1_555
Ba8 F0 3.165147 1_665
Ba8 F1 3.165147 1_665
Ba9 O10 2.685096 1_555
Ba9 O13 2.735001 1_555
Ba9 O22 2.735001 1_554
Ba9 O15 2.791679 1_555
Ba9 O18 2.791679 1_555
Ba9 O5 2.961526 1_555
Ba9 F0 3.165151 1_555
Ba9 F1 3.165151 1_555
Mn0 O0 1.716343 1_655
Mn0 O21 1.717085 1_555
Mn0 O12 1.717085 1_555
Mn0 O6 1.719714 1_555
Mn1 O1 1.716334 1_555
Mn1 O22 1.717090 1_555
Mn1 O13 1.717090 1_555
Mn1 O7 1.719713 1_555
Mn2 O2 1.716342 1_545
Mn2 O23 1.717090 1_555
Mn2 O14 1.717090 1_555
Mn2 O8 1.719704 1_555
Mn3 O3 1.716343 1_455
Mn3 O15 1.717085 1_555
Mn3 O18 1.717085 1_555
Mn3 O9 1.719714 1_555
Mn4 O4 1.716334 1_555
Mn4 O19 1.717090 1_555
Mn4 O16 1.717090 1_555
Mn4 O10 1.719713 1_555
Mn5 O5 1.716342 1_565
Mn5 O20 1.717090 1_555
Mn5 O17 1.717090 1_555
Mn5 O11 1.719704 1_555
F0 O14 3.364323 1_455
F0 O20 3.364323 1_545
F0 O18 3.364323 1_555
F0 O12 3.364323 1_445
F0 O13 3.364323 1_555
F0 O19 3.364323 1_445
F1 O23 3.364323 1_454
F1 O17 3.364323 1_545
F1 O15 3.364323 1_555
F1 O21 3.364323 1_444
F1 O22 3.364323 1_554
F1 O16 3.364323 1_445
