# generated using pymatgen
data_Tm5(Ge5Os2)2
_symmetry_space_group_name_H-M   'P 1'
_cell_length_a   13.10213200
_cell_length_b   13.10213200
_cell_length_c   4.23489000
_cell_angle_alpha   90.00000000
_cell_angle_beta   90.00000000
_cell_angle_gamma   90.00000000
_symmetry_Int_Tables_number   1
_chemical_formula_structural   Tm5(Ge5Os2)2
_chemical_formula_sum   'Tm10 Ge20 Os8'
_cell_volume   726.98604633
_cell_formula_units_Z   2
loop_
 _symmetry_equiv_pos_site_id
 _symmetry_equiv_pos_as_xyz
  1  'x, y, z'
loop_
 _atom_site_type_symbol
 _atom_site_label
 _atom_site_symmetry_multiplicity
 _atom_site_fract_x
 _atom_site_fract_y
 _atom_site_fract_z
 _atom_site_occupancy
  Tm  Tm0  1  0.50000000  0.50000000  0.00000000  1
  Tm  Tm1  1  0.00000000  0.00000000  0.00000000  1
  Tm  Tm2  1  0.67135500  0.17135500  0.50000000  1
  Tm  Tm3  1  0.32864500  0.82864500  0.50000000  1
  Tm  Tm4  1  0.17135500  0.32864500  0.50000000  1
  Tm  Tm5  1  0.82864500  0.67135500  0.50000000  1
  Tm  Tm6  1  0.88355500  0.38355500  0.50000000  1
  Tm  Tm7  1  0.11644500  0.61644500  0.50000000  1
  Tm  Tm8  1  0.38355500  0.11644500  0.50000000  1
  Tm  Tm9  1  0.61644500  0.88355500  0.50000000  1
  Ge  Ge0  1  0.56692100  0.06692100  0.00000000  1
  Ge  Ge1  1  0.43307900  0.93307900  0.00000000  1
  Ge  Ge2  1  0.06692100  0.43307900  0.00000000  1
  Ge  Ge3  1  0.93307900  0.56692100  0.00000000  1
  Ge  Ge4  1  0.66405200  0.69813600  0.00000000  1
  Ge  Ge5  1  0.33594800  0.30186400  0.00000000  1
  Ge  Ge6  1  0.16405200  0.80186400  0.00000000  1
  Ge  Ge7  1  0.83594800  0.19813600  0.00000000  1
  Ge  Ge8  1  0.30186400  0.66405200  0.00000000  1
  Ge  Ge9  1  0.69813600  0.33594800  0.00000000  1
  Ge  Ge10  1  0.19813600  0.16405200  0.00000000  1
  Ge  Ge11  1  0.80186400  0.83594800  0.00000000  1
  Ge  Ge12  1  0.65546900  0.50825600  0.50000000  1
  Ge  Ge13  1  0.34453100  0.49174400  0.50000000  1
  Ge  Ge14  1  0.15546900  0.99174400  0.50000000  1
  Ge  Ge15  1  0.84453100  0.00825600  0.50000000  1
  Ge  Ge16  1  0.49174400  0.65546900  0.50000000  1
  Ge  Ge17  1  0.50825600  0.34453100  0.50000000  1
  Ge  Ge18  1  0.00825600  0.15546900  0.50000000  1
  Ge  Ge19  1  0.99174400  0.84453100  0.50000000  1
  Os  Os0  1  0.74848100  0.51807500  0.00000000  1
  Os  Os1  1  0.25151900  0.48192500  0.00000000  1
  Os  Os2  1  0.24848100  0.98192500  0.00000000  1
  Os  Os3  1  0.75151900  0.01807500  0.00000000  1
  Os  Os4  1  0.48192500  0.74848100  0.00000000  1
  Os  Os5  1  0.51807500  0.25151900  0.00000000  1
  Os  Os6  1  0.01807500  0.24848100  0.00000000  1
  Os  Os7  1  0.98192500  0.75151900  0.00000000  1
loop_
_geom_bond_atom_site_label_1
_geom_bond_atom_site_label_2
_geom_bond_distance
_geom_bond_site_symmetry_2
Ge0 Ge1 2.479987 1_545
Ge0 Os3 2.501868 1_555
Ge0 Os5 2.501868 1_555
Ge0 Tm2 2.868468 1_554
Ge0 Tm2 2.868468 1_555
Ge0 Tm8 3.267498 1_555
Ge0 Tm8 3.267498 1_554
Ge0 Tm9 3.267498 1_544
Ge0 Tm9 3.267498 1_545
Ge1 Os4 2.501868 1_555
Ge1 Os2 2.501868 1_555
Ge1 Tm3 2.868468 1_554
Ge1 Tm3 2.868468 1_555
Ge1 Tm8 3.267498 1_565
Ge1 Tm8 3.267498 1_564
Ge1 Tm9 3.267498 1_555
Ge1 Tm9 3.267498 1_554
Ge2 Ge3 2.479987 1_455
Ge2 Os1 2.501868 1_555
Ge2 Os6 2.501868 1_555
Ge2 Tm4 2.868468 1_554
Ge2 Tm4 2.868468 1_555
Ge2 Tm7 3.267498 1_554
Ge2 Tm7 3.267498 1_555
Ge2 Tm6 3.267498 1_455
Ge2 Tm6 3.267498 1_454
Ge3 Os7 2.501868 1_555
Ge3 Os0 2.501868 1_555
Ge3 Tm5 2.868468 1_554
Ge3 Tm5 2.868468 1_555
Ge3 Tm7 3.267498 1_655
Ge3 Tm7 3.267498 1_654
Ge3 Tm6 3.267498 1_555
Ge3 Tm6 3.267498 1_554
Ge4 Os4 2.475744 1_555
Ge4 Os0 2.605652 1_555
Ge4 Tm5 3.042576 1_554
Ge4 Tm5 3.042576 1_555
Ge4 Tm9 3.282461 1_555
Ge4 Tm9 3.282461 1_554
Ge4 Tm0 3.370355 1_555
Ge5 Os5 2.475744 1_555
Ge5 Os1 2.605652 1_555
Ge5 Tm4 3.042576 1_554
Ge5 Tm4 3.042576 1_555
Ge5 Tm8 3.282461 1_554
Ge5 Tm8 3.282461 1_555
Ge5 Tm0 3.370355 1_555
Ge6 Os7 2.475744 1_455
Ge6 Ge8 2.553548 1_555
Ge6 Os2 2.605652 1_555
Ge6 Tm3 3.042576 1_554
Ge6 Tm3 3.042576 1_555
Ge6 Tm7 3.282461 1_555
Ge6 Tm7 3.282461 1_554
Ge6 Tm1 3.370355 1_565
Ge7 Os6 2.475744 1_655
Ge7 Ge9 2.553548 1_555
Ge7 Os3 2.605652 1_555
Ge7 Tm2 3.042576 1_555
Ge7 Tm2 3.042576 1_554
Ge7 Tm6 3.282461 1_554
Ge7 Tm6 3.282461 1_555
Ge7 Tm1 3.370355 1_655
Ge8 Os1 2.475744 1_555
Ge8 Os4 2.605652 1_555
Ge8 Tm3 3.042576 1_554
Ge8 Tm3 3.042576 1_555
Ge8 Tm7 3.282461 1_555
Ge8 Tm7 3.282461 1_554
Ge8 Tm0 3.370355 1_555
Ge9 Os0 2.475744 1_555
Ge9 Os5 2.605652 1_555
Ge9 Tm2 3.042576 1_554
Ge9 Tm2 3.042576 1_555
Ge9 Tm6 3.282461 1_555
Ge9 Tm6 3.282461 1_554
Ge9 Tm0 3.370355 1_555
Ge10 Os2 2.475744 1_545
Ge10 Ge5 2.553548 1_555
Ge10 Os6 2.605652 1_555
Ge10 Tm4 3.042576 1_554
Ge10 Tm4 3.042576 1_555
Ge10 Ge14 3.145291 1_544
Ge10 Ge14 3.145291 1_545
Ge10 Tm8 3.282461 1_555
Ge10 Tm8 3.282461 1_554
Ge10 Tm1 3.370355 1_555
Ge11 Os3 2.475744 1_565
Ge11 Ge4 2.553548 1_555
Ge11 Os7 2.605652 1_555
Ge11 Tm5 3.042576 1_554
Ge11 Tm5 3.042576 1_555
Ge11 Ge15 3.145291 1_564
Ge11 Ge15 3.145291 1_565
Ge11 Tm9 3.282461 1_555
Ge11 Tm9 3.282461 1_554
Ge11 Tm1 3.370355 1_665
Ge12 Os0 2.446476 1_556
Ge12 Os0 2.446476 1_555
Ge12 Ge17 2.884777 1_555
Ge12 Ge16 2.884777 1_555
Ge12 Tm0 2.940160 1_555
Ge12 Tm0 2.940160 1_556
Ge12 Tm5 3.116854 1_555
Ge12 Ge9 3.145291 1_555
Ge12 Ge9 3.145291 1_556
Ge12 Tm6 3.405888 1_555
Ge13 Os1 2.446476 1_556
Ge13 Os1 2.446476 1_555
Ge13 Ge17 2.884777 1_555
Ge13 Ge16 2.884777 1_555
Ge13 Tm0 2.940160 1_555
Ge13 Tm0 2.940160 1_556
Ge13 Tm4 3.116854 1_555
Ge13 Ge8 3.145291 1_555
Ge13 Ge8 3.145291 1_556
Ge13 Tm7 3.405888 1_555
Ge14 Os2 2.446476 1_555
Ge14 Os2 2.446476 1_556
Ge14 Ge18 2.884777 1_565
Ge14 Ge19 2.884777 1_455
Ge14 Tm1 2.940160 1_565
Ge14 Tm1 2.940160 1_566
Ge14 Tm3 3.116854 1_555
Ge14 Tm8 3.405888 1_565
Ge15 Os3 2.446476 1_555
Ge15 Os3 2.446476 1_556
Ge15 Ge18 2.884777 1_655
Ge15 Ge19 2.884777 1_545
Ge15 Tm1 2.940160 1_656
Ge15 Tm1 2.940160 1_655
Ge15 Tm2 3.116854 1_555
Ge15 Tm9 3.405888 1_545
Ge16 Os4 2.446476 1_555
Ge16 Os4 2.446476 1_556
Ge16 Tm0 2.940160 1_556
Ge16 Tm0 2.940160 1_555
Ge16 Tm3 3.116854 1_555
Ge16 Ge4 3.145291 1_555
Ge16 Ge4 3.145291 1_556
Ge16 Tm9 3.405888 1_555
Ge17 Os5 2.446476 1_555
Ge17 Os5 2.446476 1_556
Ge17 Tm0 2.940160 1_555
Ge17 Tm0 2.940160 1_556
Ge17 Tm2 3.116854 1_555
Ge17 Ge5 3.145291 1_555
Ge17 Ge5 3.145291 1_556
Ge17 Tm8 3.405888 1_555
Ge18 Os6 2.446476 1_555
Ge18 Os6 2.446476 1_556
Ge18 Tm1 2.940160 1_555
Ge18 Tm1 2.940160 1_556
Ge18 Tm4 3.116854 1_555
Ge18 Ge7 3.145291 1_455
Ge18 Ge7 3.145291 1_456
Ge18 Tm6 3.405888 1_455
Ge19 Os7 2.446476 1_556
Ge19 Os7 2.446476 1_555
Ge19 Tm1 2.940160 1_666
Ge19 Tm1 2.940160 1_665
Ge19 Tm5 3.116854 1_555
Ge19 Ge6 3.145291 1_655
Ge19 Ge6 3.145291 1_656
Ge19 Tm7 3.405888 1_655
Os0 Tm5 3.101611 1_554
Os0 Tm5 3.101611 1_555
Os0 Tm0 3.264233 1_555
Os0 Tm6 3.274449 1_555
Os0 Tm6 3.274449 1_554
Os1 Tm4 3.101611 1_555
Os1 Tm4 3.101611 1_554
Os1 Tm0 3.264233 1_555
Os1 Tm7 3.274449 1_554
Os1 Tm7 3.274449 1_555
Os2 Tm3 3.101611 1_554
Os2 Tm3 3.101611 1_555
Os2 Tm1 3.264233 1_565
Os2 Tm8 3.274449 1_565
Os2 Tm8 3.274449 1_564
Os3 Tm2 3.101611 1_554
Os3 Tm2 3.101611 1_555
Os3 Tm1 3.264233 1_655
Os3 Tm9 3.274449 1_545
Os3 Tm9 3.274449 1_544
Os4 Tm3 3.101611 1_555
Os4 Tm3 3.101611 1_554
Os4 Tm0 3.264233 1_555
Os4 Tm9 3.274449 1_554
Os4 Tm9 3.274449 1_555
Os5 Tm2 3.101611 1_554
Os5 Tm2 3.101611 1_555
Os5 Tm0 3.264233 1_555
Os5 Tm8 3.274449 1_554
Os5 Tm8 3.274449 1_555
Os6 Tm4 3.101611 1_554
Os6 Tm4 3.101611 1_555
Os6 Tm1 3.264233 1_555
Os6 Tm6 3.274449 1_454
Os6 Tm6 3.274449 1_455
Os7 Tm5 3.101611 1_554
Os7 Tm5 3.101611 1_555
Os7 Tm1 3.264233 1_665
Os7 Tm7 3.274449 1_654
Os7 Tm7 3.274449 1_655
