# generated using pymatgen
data_Tb3AlFeS7
_symmetry_space_group_name_H-M   'P 1'
_cell_length_a   5.82704200
_cell_length_b   9.88187270
_cell_length_c   9.88187270
_cell_angle_alpha   120.00000470
_cell_angle_beta   90.00000000
_cell_angle_gamma   90.00000000
_symmetry_Int_Tables_number   1
_chemical_formula_structural   Tb3AlFeS7
_chemical_formula_sum   'Tb6 Al2 Fe2 S14'
_cell_volume   492.78476152
_cell_formula_units_Z   2
loop_
 _symmetry_equiv_pos_site_id
 _symmetry_equiv_pos_as_xyz
  1  'x, y, z'
loop_
 _atom_site_type_symbol
 _atom_site_label
 _atom_site_symmetry_multiplicity
 _atom_site_fract_x
 _atom_site_fract_y
 _atom_site_fract_z
 _atom_site_occupancy
  Tb  Tb0  1  0.76718600  0.62793400  0.76007100  1
  Tb  Tb1  1  0.76718600  0.13213700  0.37206600  1
  Tb  Tb2  1  0.26718600  0.37206600  0.23992900  1
  Tb  Tb3  1  0.76718600  0.23992900  0.86786300  1
  Tb  Tb4  1  0.26718600  0.86786300  0.62793400  1
  Tb  Tb5  1  0.26718600  0.76007100  0.13213700  1
  Al  Al0  1  0.84665600  0.66666700  0.33333300  1
  Al  Al1  1  0.34665600  0.33333300  0.66666700  1
  Fe  Fe0  1  0.00477700  0.00000000  0.00000000  1
  Fe  Fe1  1  0.50477700  0.00000000  0.00000000  1
  S  S0  1  0.46791000  0.66666700  0.33333300  1
  S  S1  1  0.96791000  0.33333300  0.66666700  1
  S  S2  1  0.00517500  0.90303100  0.41475500  1
  S  S3  1  0.00517500  0.51172400  0.09696900  1
  S  S4  1  0.50517500  0.09696900  0.58524500  1
  S  S5  1  0.00517500  0.58524500  0.48827600  1
  S  S6  1  0.50517500  0.48827600  0.90303100  1
  S  S7  1  0.50517500  0.41475500  0.51172400  1
  S  S8  1  0.74419100  0.84680600  0.08646000  1
  S  S9  1  0.74419100  0.23965400  0.15319400  1
  S  S10  1  0.24419100  0.15319400  0.91354000  1
  S  S11  1  0.74419100  0.91354000  0.76034600  1
  S  S12  1  0.24419100  0.76034600  0.84680600  1
  S  S13  1  0.24419100  0.08646000  0.23965400  1
loop_
_geom_bond_atom_site_label_1
_geom_bond_atom_site_label_2
_geom_bond_distance
_geom_bond_site_symmetry_2
Al0 S0 2.206969 1_555
Al0 S2 2.253189 1_655
Al0 S3 2.253190 1_655
Al0 S5 2.253197 1_655
Al1 S1 2.206969 1_455
Al1 S4 2.253189 1_555
Al1 S6 2.253190 1_555
Al1 S7 2.253197 1_555
Fe0 S12 2.502267 1_544
Fe0 S13 2.502267 1_555
Fe0 S10 2.502267 1_554
Fe0 S9 2.573088 1_455
Fe0 S11 2.573088 1_444
Fe0 S8 2.573088 1_445
Fe0 Fe1 2.913521 1_455
Fe0 Fe1 2.913521 1_555
Fe1 S9 2.502267 1_555
Fe1 S11 2.502267 1_544
Fe1 S8 2.502267 1_545
Fe1 S12 2.573088 1_544
Fe1 S13 2.573088 1_555
Fe1 S10 2.573088 1_554
S0 Tb5 2.829840 1_555
S0 Tb4 2.829847 1_555
S0 Tb2 2.829849 1_555
S1 Tb3 2.829840 1_555
S1 Tb1 2.829847 1_555
S1 Tb0 2.829849 1_555
S2 Tb4 2.760731 1_555
S2 Tb5 2.860246 1_555
S2 Tb1 2.860390 1_465
S2 S8 3.368022 1_455
S3 Tb5 2.760731 1_555
S3 Tb2 2.860246 1_555
S3 Tb3 2.860390 1_454
S3 S9 3.368022 1_455
S4 Tb1 2.760731 1_555
S4 Tb3 2.860246 1_555
S4 Tb4 2.860390 1_545
S5 Tb2 2.760730 1_555
S5 Tb4 2.860246 1_555
S5 Tb0 2.860390 1_455
S6 Tb3 2.760731 1_555
S6 Tb0 2.860246 1_555
S6 Tb5 2.860390 1_556
S6 S8 3.369840 1_556
S7 Tb0 2.760730 1_555
S7 Tb1 2.860246 1_555
S7 Tb2 2.860390 1_555
S7 S9 3.369840 1_555
S8 Tb1 2.824145 1_565
S8 Tb0 2.850045 1_554
S8 Tb5 3.008491 1_555
S8 Tb5 3.257696 1_655
S9 Tb3 2.824145 1_554
S9 Tb1 2.850046 1_555
S9 Tb2 3.008491 1_555
S9 Tb2 3.257696 1_655
S10 Tb4 2.824145 1_545
S10 Tb2 2.850045 1_556
S10 Tb3 3.008491 1_455
S10 Tb3 3.257696 1_555
S10 S4 3.368022 1_555
S10 S3 3.369840 1_556
S11 Tb0 2.824145 1_555
S11 Tb3 2.850045 1_565
S11 Tb4 3.008491 1_555
S11 Tb4 3.257696 1_655
S11 S5 3.368022 1_655
S11 S4 3.369840 1_565
S12 Tb5 2.824145 1_556
S12 Tb4 2.850046 1_555
S12 Tb0 3.008491 1_455
S12 Tb0 3.257696 1_555
S12 S6 3.368022 1_555
S12 S5 3.369840 1_555
S13 Tb2 2.824145 1_555
S13 Tb5 2.850045 1_545
S13 Tb1 3.008491 1_455
S13 Tb1 3.257696 1_555
S13 S7 3.368022 1_555
S13 S2 3.369840 1_545
