# generated using pymatgen
data_CsNaMg14
_symmetry_space_group_name_H-M   'P 1'
_cell_length_a   6.65685971
_cell_length_b   6.47852039
_cell_length_c   10.97212901
_cell_angle_alpha   90.00000000
_cell_angle_beta   90.00000000
_cell_angle_gamma   119.11767682
_symmetry_Int_Tables_number   1
_chemical_formula_structural   CsNaMg14
_chemical_formula_sum   'Cs1 Na1 Mg14'
_cell_volume   413.38981333
_cell_formula_units_Z   1
loop_
 _symmetry_equiv_pos_site_id
 _symmetry_equiv_pos_as_xyz
  1  'x, y, z'
loop_
 _atom_site_type_symbol
 _atom_site_label
 _atom_site_symmetry_multiplicity
 _atom_site_fract_x
 _atom_site_fract_y
 _atom_site_fract_z
 _atom_site_occupancy
  Cs  Cs0  1  0.16442138  0.83221019  0.12500000  1
  Na  Na0  1  0.16856533  0.33428216  0.12500000  1
  Mg  Mg0  1  0.16224609  0.33112254  0.62500000  1
  Mg  Mg1  1  0.16321536  0.83160718  0.62500000  1
  Mg  Mg2  1  0.66638520  0.33449519  0.12500000  1
  Mg  Mg3  1  0.66796621  0.33318194  0.62500000  1
  Mg  Mg4  1  0.66638520  0.83188900  0.12500000  1
  Mg  Mg5  1  0.66796621  0.83478327  0.62500000  1
  Mg  Mg6  1  0.34261521  0.17698186  0.39833347  1
  Mg  Mg7  1  0.34261521  0.17698186  0.85166653  1
  Mg  Mg8  1  0.34261521  0.66563435  0.39833347  1
  Mg  Mg9  1  0.34261521  0.66563435  0.85166653  1
  Mg  Mg10  1  0.83021017  0.16510559  0.37677165  1
  Mg  Mg11  1  0.83021017  0.16510559  0.87322835  1
  Mg  Mg12  1  0.82098393  0.66049247  0.39193943  1
  Mg  Mg13  1  0.82098393  0.66049247  0.85806057  1
loop_
_geom_bond_atom_site_label_1
_geom_bond_atom_site_label_2
_geom_bond_distance
_geom_bond_site_symmetry_2
Cs0 Na0 3.239350 1_565
Cs0 Na0 3.239350 1_555
Cs0 Mg2 3.314345 1_455
Cs0 Mg4 3.314345 1_455
Cs0 Mg2 3.342515 1_565
Cs0 Mg4 3.342516 1_555
Cs0 Mg13 3.545078 1_454
Cs0 Mg12 3.545078 1_455
Cs0 Mg9 3.579360 1_554
Cs0 Mg8 3.579360 1_555
Cs0 Mg7 3.579366 1_564
Cs0 Mg6 3.579366 1_565
Mg0 Mg6 3.129058 1_555
Mg0 Mg7 3.129058 1_555
Mg0 Mg8 3.129065 1_555
Mg0 Mg9 3.129065 1_555
Mg0 Mg1 3.239265 1_545
Mg0 Mg1 3.239265 1_555
Mg0 Mg5 3.296864 1_445
Mg0 Mg3 3.296865 1_455
Mg0 Mg10 3.338660 1_455
Mg0 Mg11 3.338660 1_455
Mg0 Mg5 3.360036 1_555
Mg0 Mg3 3.360036 1_555
Mg1 Mg8 3.165019 1_555
Mg1 Mg9 3.165019 1_555
Mg1 Mg6 3.165025 1_565
Mg1 Mg7 3.165025 1_565
Mg1 Mg12 3.240419 1_455
Mg1 Mg13 3.240419 1_455
Mg1 Mg3 3.306865 1_455
Mg1 Mg5 3.306866 1_455
Mg1 Mg3 3.350091 1_565
Mg1 Mg5 3.350091 1_555
Mg2 Mg4 3.222376 1_555
Mg2 Mg4 3.256144 1_545
Mg2 Na0 3.313246 1_555
Mg2 Na0 3.343614 1_655
Mg2 Mg7 3.541250 1_554
Mg2 Mg6 3.541250 1_555
Mg3 Mg6 3.125230 1_555
Mg3 Mg7 3.125230 1_555
Mg3 Mg5 3.228886 1_545
Mg3 Mg5 3.249634 1_555
Mg4 Na0 3.313245 1_555
Mg4 Na0 3.343614 1_665
Mg4 Mg9 3.541250 1_554
Mg4 Mg8 3.541250 1_555
Mg5 Mg8 3.125230 1_555
Mg5 Mg9 3.125230 1_555
Mg6 Mg8 3.165745 1_555
Mg6 Mg8 3.312775 1_545
Mg6 Na0 3.538971 1_555
Mg7 Mg9 3.165745 1_555
Mg7 Mg9 3.312775 1_545
Mg7 Na0 3.538971 1_556
Mg8 Na0 3.538977 1_555
Mg9 Na0 3.538977 1_556
Mg10 Mg12 3.243976 1_545
Mg10 Mg12 3.243976 1_555
Mg10 Mg8 3.292489 1_545
Mg10 Mg6 3.292490 1_555
Mg10 Mg3 3.303731 1_555
Mg10 Mg5 3.303737 1_545
Mg10 Mg2 3.345079 1_555
Mg10 Mg4 3.345085 1_545
Mg10 Mg8 3.382522 1_655
Mg10 Mg6 3.382522 1_655
Mg10 Na0 3.391639 1_655
Mg11 Mg13 3.243976 1_545
Mg11 Mg13 3.243976 1_555
Mg11 Mg9 3.292489 1_545
Mg11 Mg7 3.292490 1_555
Mg11 Mg3 3.303731 1_555
Mg11 Mg5 3.303737 1_545
Mg11 Mg2 3.345079 1_556
Mg11 Mg4 3.345085 1_546
Mg11 Mg9 3.382522 1_655
Mg11 Mg7 3.382522 1_655
Mg11 Na0 3.391639 1_656
Mg12 Mg5 3.157694 1_555
Mg12 Mg3 3.157700 1_555
Mg12 Mg6 3.201544 1_555
Mg12 Mg8 3.201544 1_555
Mg12 Mg6 3.457051 1_665
Mg12 Mg8 3.457051 1_655
Mg12 Mg4 3.461600 1_555
Mg12 Mg2 3.461606 1_555
Mg13 Mg5 3.157694 1_555
Mg13 Mg3 3.157700 1_555
Mg13 Mg7 3.201544 1_555
Mg13 Mg9 3.201544 1_555
Mg13 Mg7 3.457051 1_665
Mg13 Mg9 3.457051 1_655
Mg13 Mg4 3.461600 1_556
Mg13 Mg2 3.461606 1_556
