# generated using pymatgen
data_TmRhO3
_symmetry_space_group_name_H-M   'P 1'
_cell_length_a   5.17444652
_cell_length_b   5.70187168
_cell_length_c   7.51159096
_cell_angle_alpha   90.00000000
_cell_angle_beta   90.00000000
_cell_angle_gamma   90.00000000
_symmetry_Int_Tables_number   1
_chemical_formula_structural   TmRhO3
_chemical_formula_sum   'Tm4 Rh4 O12'
_cell_volume   221.62220557
_cell_formula_units_Z   4
loop_
 _symmetry_equiv_pos_site_id
 _symmetry_equiv_pos_as_xyz
  1  'x, y, z'
loop_
 _atom_site_type_symbol
 _atom_site_label
 _atom_site_symmetry_multiplicity
 _atom_site_fract_x
 _atom_site_fract_y
 _atom_site_fract_z
 _atom_site_occupancy
  Tm  Tm0  1  0.03114374  0.41474281  0.25000000  1
  Tm  Tm1  1  0.96885626  0.58525719  0.75000000  1
  Tm  Tm2  1  0.53114374  0.08525719  0.75000000  1
  Tm  Tm3  1  0.46885626  0.91474281  0.25000000  1
  Rh  Rh0  1  0.00000000  0.00000000  -0.00000000  1
  Rh  Rh1  1  0.50000000  0.50000000  -0.00000000  1
  Rh  Rh2  1  0.00000000  0.00000000  0.50000000  1
  Rh  Rh3  1  0.50000000  0.50000000  0.50000000  1
  O  O0  1  0.32532882  0.18820317  0.06491703  1
  O  O1  1  0.67467118  0.81179683  0.93508297  1
  O  O2  1  0.82532882  0.31179683  0.93508297  1
  O  O3  1  0.67467118  0.81179683  0.56491703  1
  O  O4  1  0.17467118  0.68820317  0.06491703  1
  O  O5  1  0.32532882  0.18820317  0.43508297  1
  O  O6  1  0.17467118  0.68820317  0.43508297  1
  O  O7  1  0.82532882  0.31179683  0.56491703  1
  O  O8  1  0.64085112  0.55705614  0.25000000  1
  O  O9  1  0.35914888  0.44294386  0.75000000  1
  O  O10  1  0.14085112  0.94294386  0.75000000  1
  O  O11  1  0.85914888  0.05705614  0.25000000  1
loop_
_geom_bond_atom_site_label_1
_geom_bond_atom_site_label_2
_geom_bond_distance
_geom_bond_site_symmetry_2
O0 Rh1 2.053132 1_555
O0 Rh0 2.055036 1_555
O0 Tm3 2.217121 1_545
O0 Tm0 2.432810 1_555
O0 Tm2 2.659784 1_554
O0 O5 2.780535 1_555
O1 Rh1 2.053132 1_556
O1 Rh0 2.055036 1_666
O1 Tm2 2.217121 1_565
O1 Tm1 2.432810 1_555
O1 Tm3 2.659784 1_556
O1 O3 2.780535 1_555
O2 Rh0 2.053132 1_656
O2 Rh1 2.055036 1_556
O2 Tm1 2.217121 1_555
O2 Tm2 2.432810 1_555
O2 Tm0 2.659784 1_656
O2 O7 2.780535 1_555
O3 Rh3 2.053132 1_555
O3 Rh2 2.055036 1_665
O3 Tm2 2.217121 1_565
O3 Tm1 2.432810 1_555
O3 Tm3 2.659784 1_555
O4 Rh0 2.053132 1_565
O4 Rh1 2.055036 1_555
O4 Tm0 2.217121 1_555
O4 Tm3 2.432810 1_555
O4 Tm1 2.659784 1_454
O4 O6 2.780535 1_555
O5 Rh3 2.053132 1_555
O5 Rh2 2.055036 1_555
O5 Tm3 2.217121 1_545
O5 Tm0 2.432810 1_555
O5 Tm2 2.659784 1_555
O6 Rh2 2.053132 1_565
O6 Rh3 2.055036 1_555
O6 Tm0 2.217121 1_555
O6 Tm3 2.432810 1_555
O6 Tm1 2.659784 1_455
O7 Rh2 2.053132 1_655
O7 Rh3 2.055036 1_555
O7 Tm1 2.217121 1_555
O7 Tm2 2.432810 1_555
O7 Tm0 2.659784 1_655
O8 Rh1 2.040472 1_555
O8 Rh3 2.040472 1_555
O8 Tm0 2.176472 1_655
O8 Tm3 2.225209 1_555
O9 Rh3 2.040472 1_555
O9 Rh1 2.040472 1_556
O9 Tm1 2.176472 1_455
O9 Tm2 2.225209 1_555
O10 Rh0 2.040472 1_566
O10 Rh2 2.040472 1_565
O10 Tm2 2.176472 1_565
O10 Tm1 2.225209 1_455
O11 Rh2 2.040472 1_655
O11 Rh0 2.040472 1_655
O11 Tm3 2.176472 1_545
O11 Tm0 2.225209 1_655
