# generated using pymatgen
data_Rb2B4O7
_symmetry_space_group_name_H-M   'P 1'
_cell_length_a   6.65517340
_cell_length_b   9.85140547
_cell_length_c   10.64006134
_cell_angle_alpha   89.29372205
_cell_angle_beta   103.26590825
_cell_angle_gamma   101.20295994
_symmetry_Int_Tables_number   1
_chemical_formula_structural   Rb2B4O7
_chemical_formula_sum   'Rb8 B16 O28'
_cell_volume   665.65944907
_cell_formula_units_Z   4
loop_
 _symmetry_equiv_pos_site_id
 _symmetry_equiv_pos_as_xyz
  1  'x, y, z'
loop_
 _atom_site_type_symbol
 _atom_site_label
 _atom_site_symmetry_multiplicity
 _atom_site_fract_x
 _atom_site_fract_y
 _atom_site_fract_z
 _atom_site_occupancy
  Rb  Rb0  1  0.76078845  0.00960925  0.59348980  1
  Rb  Rb1  1  0.23921155  0.99039075  0.40651020  1
  Rb  Rb2  1  0.24019410  0.62056450  0.50825986  1
  Rb  Rb3  1  0.75980590  0.37943550  0.49174014  1
  Rb  Rb4  1  0.66719713  0.47947172  0.87392634  1
  Rb  Rb5  1  0.33280287  0.52052828  0.12607366  1
  Rb  Rb6  1  0.63834380  0.87569614  0.95032232  1
  Rb  Rb7  1  0.36165620  0.12430386  0.04967768  1
  B  B0  1  0.30334031  0.29055578  0.55083872  1
  B  B1  1  0.69665969  0.70944422  0.44916128  1
  B  B2  1  0.85304659  0.20640428  0.85140716  1
  B  B3  1  0.14695341  0.79359572  0.14859284  1
  B  B4  1  0.12952227  0.55840766  0.80325779  1
  B  B5  1  0.87047773  0.44159234  0.19674221  1
  B  B6  1  0.20333938  0.91308809  0.73505341  1
  B  B7  1  0.79666062  0.08691191  0.26494659  1
  B  B8  1  0.43819973  0.16025662  0.73918919  1
  B  B9  1  0.56180027  0.83974338  0.26081081  1
  B  B10  1  0.90420523  0.70765394  0.68066263  1
  B  B11  1  0.09579477  0.29234606  0.31933737  1
  B  B12  1  0.06832527  0.77452771  0.89986762  1
  B  B13  1  0.93167473  0.22547229  0.10013238  1
  B  B14  1  0.16462269  0.31024855  0.74881933  1
  B  B15  1  0.83537731  0.68975145  0.25118067  1
  O  O0  1  0.86871986  0.74530274  0.80309715  1
  O  O1  1  0.06890263  0.81858037  0.64332167  1
  O  O2  1  0.29108402  0.30685684  0.42053187  1
  O  O3  1  0.70891598  0.69314316  0.57946813  1
  O  O4  1  0.01791884  0.42606739  0.30761118  1
  O  O5  1  0.93109737  0.18141963  0.35667833  1
  O  O6  1  0.66342144  0.98488713  0.31029240  1
  O  O7  1  0.33657856  0.01511287  0.68970760  1
  O  O8  1  0.35934732  0.84527979  0.17019697  1
  O  O9  1  0.64065268  0.15472021  0.82980303  1
  O  O10  1  0.68628756  0.77408795  0.19577374  1
  O  O11  1  0.31371244  0.22591205  0.80422626  1
  O  O12  1  0.77473731  0.55334763  0.17856098  1
  O  O13  1  0.22526269  0.44665237  0.82143902  1
  O  O14  1  0.53259600  0.76685438  0.38140671  1
  O  O15  1  0.46740400  0.23314562  0.61859329  1
  O  O16  1  0.83569308  0.66631876  0.39053712  1
  O  O17  1  0.16430692  0.33368124  0.60946288  1
  O  O18  1  0.05764543  0.75225157  0.25047820  1
  O  O19  1  0.94235457  0.24774843  0.74952180  1
  O  O20  1  0.18525637  0.65773745  0.90125950  1
  O  O21  1  0.81474363  0.34226255  0.09874050  1
  O  O22  1  0.20281189  0.90173212  0.86341782  1
  O  O23  1  0.79718811  0.09826788  0.13658218  1
  O  O24  1  0.97589452  0.21178425  0.97415255  1
  O  O25  1  0.02410548  0.78821575  0.02584745  1
  O  O26  1  0.98208116  0.57393261  0.69238882  1
  O  O27  1  0.13128014  0.25469726  0.19690285  1
loop_
_geom_bond_atom_site_label_1
_geom_bond_atom_site_label_2
_geom_bond_distance
_geom_bond_site_symmetry_2
Rb0 Rb1 3.553523 1_545
B0 O17 1.360113 1_555
B0 O15 1.378557 1_555
B0 O2 1.379292 1_555
B1 O16 1.360113 1_555
B1 O14 1.378557 1_555
B1 O3 1.379292 1_555
B2 O24 1.368118 1_555
B2 O9 1.372671 1_555
B2 O19 1.372994 1_555
B2 Rb4 3.204472 1_555
B3 O25 1.368118 1_555
B3 O8 1.372671 1_555
B3 O18 1.372994 1_555
B3 Rb5 3.204472 1_555
B4 O13 1.366107 1_555
B4 O20 1.374426 1_555
B4 O26 1.378566 1_455
B4 Rb4 3.279447 1_455
B5 O12 1.366107 1_555
B5 O21 1.374426 1_555
B5 O4 1.378566 1_655
B5 Rb5 3.279447 1_655
B6 O7 1.366515 1_565
B6 O22 1.369756 1_555
B6 O1 1.384883 1_555
B6 Rb0 3.296112 1_465
B7 O6 1.366515 1_545
B7 O23 1.369756 1_555
B7 O5 1.384883 1_555
B7 Rb1 3.296112 1_645
B8 O11 1.437347 1_555
B8 O9 1.476140 1_555
B8 O15 1.495782 1_555
B8 O7 1.502829 1_555
B9 O10 1.437347 1_555
B9 O8 1.476140 1_555
B9 O14 1.495782 1_555
B9 O6 1.502829 1_555
B10 O0 1.441364 1_555
B10 O3 1.469113 1_555
B10 O26 1.500379 1_555
B10 O1 1.509031 1_655
B11 O27 1.441364 1_555
B11 O2 1.469113 1_555
B11 O4 1.500379 1_555
B11 O5 1.509031 1_455
B12 O25 1.449989 1_556
B12 O0 1.462426 1_455
B12 O22 1.494444 1_555
B12 O20 1.507239 1_555
B13 O24 1.449989 1_554
B13 O27 1.462426 1_655
B13 O23 1.494444 1_555
B13 O21 1.507239 1_555
B14 O11 1.436010 1_555
B14 O19 1.489412 1_455
B14 O13 1.495787 1_555
B14 O17 1.497396 1_555
B15 O10 1.436010 1_555
B15 O18 1.489412 1_655
B15 O12 1.495787 1_555
B15 O16 1.497396 1_555
O0 Rb4 2.876683 1_555
O0 Rb6 2.893403 1_555
O0 Rb0 3.481092 1_565
O1 Rb2 2.975755 1_555
O1 Rb0 3.000558 1_465
O1 Rb1 3.310351 1_555
O2 Rb3 2.979612 1_555
O2 Rb1 3.070946 1_545
O2 Rb2 3.340638 1_555
O3 Rb2 2.979612 1_555
O3 Rb0 3.070946 1_565
O3 Rb3 3.340638 1_555
O4 Rb2 2.822682 1_555
O4 Rb3 2.866316 1_455
O4 Rb5 3.169249 1_555
O5 Rb3 2.975755 1_555
O5 Rb1 3.000558 1_645
O5 Rb0 3.310351 1_555
O6 Rb0 2.935894 1_565
O6 Rb1 3.226259 1_555
O7 Rb1 2.935894 1_545
O7 Rb0 3.226259 1_555
O8 Rb7 3.017637 1_565
O8 Rb1 3.234244 1_555
O8 Rb6 3.281868 1_554
O9 Rb6 3.017637 1_545
O9 Rb0 3.234244 1_555
O9 Rb7 3.281868 1_556
O10 Rb6 2.757090 1_554
O10 Rb5 3.047205 1_555
O11 Rb7 2.757090 1_556
O11 Rb4 3.047205 1_555
O12 Rb5 2.819203 1_555
O12 Rb4 3.215466 1_554
O13 Rb4 2.819203 1_555
O13 Rb5 3.215466 1_556
O14 Rb2 2.784475 1_555
O14 Rb0 3.204164 1_565
O14 Rb1 3.264621 1_555
O14 Rb5 3.505473 1_555
O15 Rb3 2.784475 1_555
O15 Rb1 3.204164 1_545
O15 Rb0 3.264621 1_555
O15 Rb4 3.505473 1_555
O16 Rb2 2.815876 1_655
O16 Rb3 3.003654 1_555
O17 Rb3 2.815876 1_455
O17 Rb2 3.003654 1_555
O18 Rb1 2.791758 1_555
O18 Rb2 3.110849 1_555
O19 Rb0 2.791758 1_555
O19 Rb3 3.110849 1_555
O20 Rb5 2.805568 1_556
O20 Rb6 3.280981 1_555
O21 Rb4 2.805568 1_554
O21 Rb7 3.280981 1_555
O22 Rb7 2.845658 1_566
O22 Rb6 2.894015 1_555
O23 Rb6 2.845658 1_544
O23 Rb7 2.894015 1_555
O24 Rb7 2.806309 1_656
O25 Rb6 2.806309 1_454
O26 Rb3 2.822682 1_555
O26 Rb2 2.866316 1_655
O26 Rb4 3.169249 1_555
O27 Rb5 2.876683 1_555
O27 Rb7 2.893403 1_555
O27 Rb1 3.481092 1_545
