# generated using pymatgen
data_Pr(SnO3)2
_symmetry_space_group_name_H-M   'P 1'
_cell_length_a   5.63309800
_cell_length_b   5.90428200
_cell_length_c   8.01789300
_cell_angle_alpha   90.00000000
_cell_angle_beta   90.00000000
_cell_angle_gamma   90.00000000
_symmetry_Int_Tables_number   1
_chemical_formula_structural   Pr(SnO3)2
_chemical_formula_sum   'Pr2 Sn4 O12'
_cell_volume   266.67030343
_cell_formula_units_Z   2
loop_
 _symmetry_equiv_pos_site_id
 _symmetry_equiv_pos_as_xyz
  1  'x, y, z'
loop_
 _atom_site_type_symbol
 _atom_site_label
 _atom_site_symmetry_multiplicity
 _atom_site_fract_x
 _atom_site_fract_y
 _atom_site_fract_z
 _atom_site_occupancy
  Pr  Pr0  1  0.01585800  0.68118600  0.00000000  1
  Pr  Pr1  1  0.51585800  0.31881400  0.50000000  1
  Sn  Sn0  1  0.00519600  0.22570400  0.74812600  1
  Sn  Sn1  1  0.00519600  0.22570400  0.25187400  1
  Sn  Sn2  1  0.50519600  0.77429600  0.24812600  1
  Sn  Sn3  1  0.50519600  0.77429600  0.75187400  1
  O  O0  1  0.10602200  0.23360100  0.50000000  1
  O  O1  1  0.19494100  0.94240000  0.80449200  1
  O  O2  1  0.19494100  0.94240000  0.19550800  1
  O  O3  1  0.27204700  0.48202200  0.22064900  1
  O  O4  1  0.27204700  0.48202200  0.77935100  1
  O  O5  1  0.44391100  0.72221200  0.50000000  1
  O  O6  1  0.60602200  0.76639900  0.00000000  1
  O  O7  1  0.69494100  0.05760000  0.69550800  1
  O  O8  1  0.69494100  0.05760000  0.30449200  1
  O  O9  1  0.77204700  0.51797800  0.72064900  1
  O  O10  1  0.77204700  0.51797800  0.27935100  1
  O  O11  1  0.94391100  0.27778800  0.00000000  1
loop_
_geom_bond_atom_site_label_1
_geom_bond_atom_site_label_2
_geom_bond_distance
_geom_bond_site_symmetry_2
O0 Sn0 2.069458 1_555
O0 Sn1 2.069458 1_555
O0 Pr1 2.362833 1_555
O0 O4 2.835974 1_555
O0 O3 2.835974 1_555
O1 Sn0 2.035839 1_565
O1 Sn3 2.053668 1_555
O1 Pr0 2.419410 1_556
O1 O4 2.760056 1_555
O1 O11 2.894504 1_466
O2 Sn1 2.035839 1_565
O2 Sn2 2.053668 1_555
O2 Pr0 2.419410 1_555
O2 O3 2.760056 1_555
O3 Sn1 2.147693 1_555
O3 Sn2 2.179761 1_555
O3 Pr0 2.568130 1_555
O3 Pr1 2.798494 1_555
O3 O5 2.822260 1_555
O4 Sn0 2.147693 1_555
O4 Sn3 2.179761 1_555
O4 Pr0 2.568130 1_556
O4 Pr1 2.798494 1_555
O4 O5 2.822260 1_555
O4 O9 2.863485 1_555
O4 O9 2.863485 1_455
O5 Sn3 2.071744 1_555
O5 Sn2 2.071744 1_555
O5 Pr1 2.416011 1_555
O5 O9 2.828535 1_555
O5 O8 2.894504 1_565
O5 O7 2.894504 1_565
O6 Sn2 2.069458 1_555
O6 Sn3 2.069458 1_554
O6 Pr0 2.362833 1_655
O6 O9 2.835974 1_554
O7 Sn3 2.035839 1_545
O7 Sn0 2.053668 1_655
O7 Pr1 2.419410 1_555
O7 O9 2.760056 1_555
O8 Sn2 2.035839 1_545
O8 Sn1 2.053668 1_655
O8 Pr1 2.419410 1_555
O9 Sn3 2.147693 1_555
O9 Sn0 2.179761 1_655
O9 Pr1 2.568130 1_555
O9 Pr0 2.798494 1_656
O10 Sn2 2.147693 1_555
O10 Sn1 2.179761 1_655
O10 Pr1 2.568130 1_555
O10 O8 2.760056 1_555
O10 Pr0 2.798494 1_655
O10 O11 2.822260 1_555
O10 O5 2.828535 1_555
O10 O6 2.835974 1_555
O10 O3 2.863485 1_555
O10 O3 2.863485 1_655
O11 Sn1 2.071744 1_655
O11 Sn0 2.071744 1_654
O11 Pr0 2.416011 1_655
O11 O9 2.822260 1_554
O11 O3 2.828535 1_655
O11 O4 2.828535 1_654
O11 O2 2.894504 1_645
