# generated using pymatgen
data_K(Mo2O3)4
_symmetry_space_group_name_H-M   'P 1'
_cell_length_a   6.61775200
_cell_length_b   20.49705600
_cell_length_c   20.52023563
_cell_angle_alpha   89.73012558
_cell_angle_beta   90.00000000
_cell_angle_gamma   90.00000000
_symmetry_Int_Tables_number   1
_chemical_formula_structural   K(Mo2O3)4
_chemical_formula_sum   'K8 Mo64 O96'
_cell_volume   2783.42485725
_cell_formula_units_Z   8
loop_
 _symmetry_equiv_pos_site_id
 _symmetry_equiv_pos_as_xyz
  1  'x, y, z'
loop_
 _atom_site_type_symbol
 _atom_site_label
 _atom_site_symmetry_multiplicity
 _atom_site_fract_x
 _atom_site_fract_y
 _atom_site_fract_z
 _atom_site_occupancy
  K  K0_0  1  0.04948650  0.25000000  0.25000000  1
  K  K0_1  1  0.04948650  0.25000000  0.75000000  1
  K  K0_2  1  0.04948650  0.75000000  0.25000000  1
  K  K0_3  1  0.04948650  0.75000000  0.75000000  1
  K  K0_4  1  0.54948650  0.25000000  0.25000000  1
  K  K0_5  1  0.54948650  0.25000000  0.75000000  1
  K  K0_6  1  0.54948650  0.75000000  0.25000000  1
  K  K0_7  1  0.54948650  0.75000000  0.75000000  1
  Mo  Mo0_0  1  0.25207150  0.16810900  0.43311950  1
  Mo  Mo0_1  1  0.25207150  0.16810900  0.93311950  1
  Mo  Mo0_2  1  0.25207150  0.66810900  0.43311950  1
  Mo  Mo0_3  1  0.25207150  0.66810900  0.93311950  1
  Mo  Mo0_4  1  0.75207150  0.16810900  0.43311950  1
  Mo  Mo0_5  1  0.75207150  0.16810900  0.93311950  1
  Mo  Mo0_6  1  0.75207150  0.66810900  0.43311950  1
  Mo  Mo0_7  1  0.75207150  0.66810900  0.93311950  1
  Mo  Mo1_0  1  0.25207150  0.33189100  0.06688050  1
  Mo  Mo1_1  1  0.25207150  0.33189100  0.56688050  1
  Mo  Mo1_2  1  0.25207150  0.83189100  0.06688050  1
  Mo  Mo1_3  1  0.25207150  0.83189100  0.56688050  1
  Mo  Mo1_4  1  0.75207150  0.33189100  0.06688050  1
  Mo  Mo1_5  1  0.75207150  0.33189100  0.56688050  1
  Mo  Mo1_6  1  0.75207150  0.83189100  0.06688050  1
  Mo  Mo1_7  1  0.75207150  0.83189100  0.56688050  1
  Mo  Mo2_0  1  0.25151800  0.07961650  0.18062250  1
  Mo  Mo2_1  1  0.25151800  0.07961650  0.68062250  1
  Mo  Mo2_2  1  0.25151800  0.57961650  0.18062250  1
  Mo  Mo2_3  1  0.25151800  0.57961650  0.68062250  1
  Mo  Mo2_4  1  0.75151800  0.07961650  0.18062250  1
  Mo  Mo2_5  1  0.75151800  0.07961650  0.68062250  1
  Mo  Mo2_6  1  0.75151800  0.57961650  0.18062250  1
  Mo  Mo2_7  1  0.75151800  0.57961650  0.68062250  1
  Mo  Mo3_0  1  0.25151800  0.42038350  0.31937750  1
  Mo  Mo3_1  1  0.25151800  0.42038350  0.81937750  1
  Mo  Mo3_2  1  0.25151800  0.92038350  0.31937750  1
  Mo  Mo3_3  1  0.25151800  0.92038350  0.81937750  1
  Mo  Mo3_4  1  0.75151800  0.42038350  0.31937750  1
  Mo  Mo3_5  1  0.75151800  0.42038350  0.81937750  1
  Mo  Mo3_6  1  0.75151800  0.92038350  0.31937750  1
  Mo  Mo3_7  1  0.75151800  0.92038350  0.81937750  1
  Mo  Mo4_0  1  0.00058250  0.05828750  0.31361250  1
  Mo  Mo4_1  1  0.00058250  0.05828750  0.81361250  1
  Mo  Mo4_2  1  0.00058250  0.55828750  0.31361250  1
  Mo  Mo4_3  1  0.00058250  0.55828750  0.81361250  1
  Mo  Mo4_4  1  0.50058250  0.05828750  0.31361250  1
  Mo  Mo4_5  1  0.50058250  0.05828750  0.81361250  1
  Mo  Mo4_6  1  0.50058250  0.55828750  0.31361250  1
  Mo  Mo4_7  1  0.50058250  0.55828750  0.81361250  1
  Mo  Mo5_0  1  0.00058250  0.44171250  0.18638750  1
  Mo  Mo5_1  1  0.00058250  0.44171250  0.68638750  1
  Mo  Mo5_2  1  0.00058250  0.94171250  0.18638750  1
  Mo  Mo5_3  1  0.00058250  0.94171250  0.68638750  1
  Mo  Mo5_4  1  0.50058250  0.44171250  0.18638750  1
  Mo  Mo5_5  1  0.50058250  0.44171250  0.68638750  1
  Mo  Mo5_6  1  0.50058250  0.94171250  0.18638750  1
  Mo  Mo5_7  1  0.50058250  0.94171250  0.68638750  1
  Mo  Mo6_0  1  0.00007350  0.19686100  0.06765700  1
  Mo  Mo6_1  1  0.00007350  0.19686100  0.56765700  1
  Mo  Mo6_2  1  0.00007350  0.69686100  0.06765700  1
  Mo  Mo6_3  1  0.00007350  0.69686100  0.56765700  1
  Mo  Mo6_4  1  0.50007350  0.19686100  0.06765700  1
  Mo  Mo6_5  1  0.50007350  0.19686100  0.56765700  1
  Mo  Mo6_6  1  0.50007350  0.69686100  0.06765700  1
  Mo  Mo6_7  1  0.50007350  0.69686100  0.56765700  1
  Mo  Mo7_0  1  0.00007350  0.30313900  0.43234300  1
  Mo  Mo7_1  1  0.00007350  0.30313900  0.93234300  1
  Mo  Mo7_2  1  0.00007350  0.80313900  0.43234300  1
  Mo  Mo7_3  1  0.00007350  0.80313900  0.93234300  1
  Mo  Mo7_4  1  0.50007350  0.30313900  0.43234300  1
  Mo  Mo7_5  1  0.50007350  0.30313900  0.93234300  1
  Mo  Mo7_6  1  0.50007350  0.80313900  0.43234300  1
  Mo  Mo7_7  1  0.50007350  0.80313900  0.93234300  1
  O  O0_0  1  0.25064700  0.00780100  0.35576050  1
  O  O0_1  1  0.25064700  0.00780100  0.85576050  1
  O  O0_2  1  0.25064700  0.50780100  0.35576050  1
  O  O0_3  1  0.25064700  0.50780100  0.85576050  1
  O  O0_4  1  0.75064700  0.00780100  0.35576050  1
  O  O0_5  1  0.75064700  0.00780100  0.85576050  1
  O  O0_6  1  0.75064700  0.50780100  0.35576050  1
  O  O0_7  1  0.75064700  0.50780100  0.85576050  1
  O  O1_0  1  0.25064700  0.49219900  0.14423950  1
  O  O1_1  1  0.25064700  0.49219900  0.64423950  1
  O  O1_2  1  0.25064700  0.99219900  0.14423950  1
  O  O1_3  1  0.25064700  0.99219900  0.64423950  1
  O  O1_4  1  0.75064700  0.49219900  0.14423950  1
  O  O1_5  1  0.75064700  0.49219900  0.64423950  1
  O  O1_6  1  0.75064700  0.99219900  0.14423950  1
  O  O1_7  1  0.75064700  0.99219900  0.64423950  1
  O  O2_0  1  0.25014650  0.24666600  0.11434750  1
  O  O2_1  1  0.25014650  0.24666600  0.61434750  1
  O  O2_2  1  0.25014650  0.74666600  0.11434750  1
  O  O2_3  1  0.25014650  0.74666600  0.61434750  1
  O  O2_4  1  0.75014650  0.24666600  0.11434750  1
  O  O2_5  1  0.75014650  0.24666600  0.61434750  1
  O  O2_6  1  0.75014650  0.74666600  0.11434750  1
  O  O2_7  1  0.75014650  0.74666600  0.61434750  1
  O  O3_0  1  0.25014650  0.25333400  0.38565250  1
  O  O3_1  1  0.25014650  0.25333400  0.88565250  1
  O  O3_2  1  0.25014650  0.75333400  0.38565250  1
  O  O3_3  1  0.25014650  0.75333400  0.88565250  1
  O  O3_4  1  0.75014650  0.25333400  0.38565250  1
  O  O3_5  1  0.75014650  0.25333400  0.88565250  1
  O  O3_6  1  0.75014650  0.75333400  0.38565250  1
  O  O3_7  1  0.75014650  0.75333400  0.88565250  1
  O  O4_0  1  0.25014450  0.35371150  0.47386200  1
  O  O4_1  1  0.25014450  0.35371150  0.97386200  1
  O  O4_2  1  0.25014450  0.85371150  0.47386200  1
  O  O4_3  1  0.25014450  0.85371150  0.97386200  1
  O  O4_4  1  0.75014450  0.35371150  0.47386200  1
  O  O4_5  1  0.75014450  0.35371150  0.97386200  1
  O  O4_6  1  0.75014450  0.85371150  0.47386200  1
  O  O4_7  1  0.75014450  0.85371150  0.97386200  1
  O  O5_0  1  0.25014450  0.14628850  0.02613800  1
  O  O5_1  1  0.25014450  0.14628850  0.52613800  1
  O  O5_2  1  0.25014450  0.64628850  0.02613800  1
  O  O5_3  1  0.25014450  0.64628850  0.52613800  1
  O  O5_4  1  0.75014450  0.14628850  0.02613800  1
  O  O5_5  1  0.75014450  0.14628850  0.52613800  1
  O  O5_6  1  0.75014450  0.64628850  0.02613800  1
  O  O5_7  1  0.75014450  0.64628850  0.52613800  1
  O  O6_0  1  0.25060550  0.38699650  0.22816250  1
  O  O6_1  1  0.25060550  0.38699650  0.72816250  1
  O  O6_2  1  0.25060550  0.88699650  0.22816250  1
  O  O6_3  1  0.25060550  0.88699650  0.72816250  1
  O  O6_4  1  0.75060550  0.38699650  0.22816250  1
  O  O6_5  1  0.75060550  0.38699650  0.72816250  1
  O  O6_6  1  0.75060550  0.88699650  0.22816250  1
  O  O6_7  1  0.75060550  0.88699650  0.72816250  1
  O  O7_0  1  0.25060550  0.11300350  0.27183750  1
  O  O7_1  1  0.25060550  0.11300350  0.77183750  1
  O  O7_2  1  0.25060550  0.61300350  0.27183750  1
  O  O7_3  1  0.25060550  0.61300350  0.77183750  1
  O  O7_4  1  0.75060550  0.11300350  0.27183750  1
  O  O7_5  1  0.75060550  0.11300350  0.77183750  1
  O  O7_6  1  0.75060550  0.61300350  0.27183750  1
  O  O7_7  1  0.75060550  0.61300350  0.77183750  1
  O  O8_0  1  0.00122100  0.36853500  0.34999150  1
  O  O8_1  1  0.00122100  0.36853500  0.84999150  1
  O  O8_2  1  0.00122100  0.86853500  0.34999150  1
  O  O8_3  1  0.00122100  0.86853500  0.84999150  1
  O  O8_4  1  0.50122100  0.36853500  0.34999150  1
  O  O8_5  1  0.50122100  0.36853500  0.84999150  1
  O  O8_6  1  0.50122100  0.86853500  0.34999150  1
  O  O8_7  1  0.50122100  0.86853500  0.84999150  1
  O  O9_0  1  0.00122100  0.13146500  0.15000850  1
  O  O9_1  1  0.00122100  0.13146500  0.65000850  1
  O  O9_2  1  0.00122100  0.63146500  0.15000850  1
  O  O9_3  1  0.00122100  0.63146500  0.65000850  1
  O  O9_4  1  0.50122100  0.13146500  0.15000850  1
  O  O9_5  1  0.50122100  0.13146500  0.65000850  1
  O  O9_6  1  0.50122100  0.63146500  0.15000850  1
  O  O9_7  1  0.50122100  0.63146500  0.65000850  1
  O  O10_0  1  0.00119650  0.37494750  0.10666500  1
  O  O10_1  1  0.00119650  0.37494750  0.60666500  1
  O  O10_2  1  0.00119650  0.87494750  0.10666500  1
  O  O10_3  1  0.00119650  0.87494750  0.60666500  1
  O  O10_4  1  0.50119650  0.37494750  0.10666500  1
  O  O10_5  1  0.50119650  0.37494750  0.60666500  1
  O  O10_6  1  0.50119650  0.87494750  0.10666500  1
  O  O10_7  1  0.50119650  0.87494750  0.60666500  1
  O  O11_0  1  0.00119650  0.12505250  0.39333500  1
  O  O11_1  1  0.00119650  0.12505250  0.89333500  1
  O  O11_2  1  0.00119650  0.62505250  0.39333500  1
  O  O11_3  1  0.00119650  0.62505250  0.89333500  1
  O  O11_4  1  0.50119650  0.12505250  0.39333500  1
  O  O11_5  1  0.50119650  0.12505250  0.89333500  1
  O  O11_6  1  0.50119650  0.62505250  0.39333500  1
  O  O11_7  1  0.50119650  0.62505250  0.89333500  1
loop_
_geom_bond_atom_site_label_1
_geom_bond_atom_site_label_2
_geom_bond_distance
_geom_bond_site_symmetry_2
K0_0 O3_0 3.085187 1_555
K0_0 O2_0 3.085187 1_555
K0_0 O6_0 3.137737 1_555
K0_0 O7_0 3.137737 1_555
K0_0 O8_0 3.203454 1_555
K0_0 O9_0 3.203454 1_555
K0_0 K0_4 3.308876 1_455
K0_0 K0_4 3.308876 1_555
K0_0 O3_4 3.417485 1_455
K0_0 O2_4 3.417485 1_455
K0_0 O6_4 3.462098 1_455
K0_0 O7_4 3.462098 1_455
K0_1 O3_1 3.085187 1_555
K0_1 O2_1 3.085187 1_555
K0_1 O6_1 3.137737 1_555
K0_1 O7_1 3.137737 1_555
K0_1 O9_1 3.203454 1_555
K0_1 O8_1 3.203454 1_555
K0_1 K0_5 3.308876 1_455
K0_1 K0_5 3.308876 1_555
K0_1 O3_5 3.417485 1_455
K0_1 O2_5 3.417485 1_455
K0_1 O6_5 3.462098 1_455
K0_1 O7_5 3.462098 1_455
K0_2 O3_2 3.085187 1_555
K0_2 O2_2 3.085187 1_555
K0_2 O6_2 3.137737 1_555
K0_2 O7_2 3.137737 1_555
K0_2 O8_2 3.203454 1_555
K0_2 O9_2 3.203454 1_555
K0_2 K0_6 3.308876 1_455
K0_2 K0_6 3.308876 1_555
K0_2 O3_6 3.417485 1_455
K0_2 O2_6 3.417485 1_455
K0_2 O6_6 3.462098 1_455
K0_2 O7_6 3.462098 1_455
K0_3 O3_3 3.085187 1_555
K0_3 O2_3 3.085187 1_555
K0_3 O6_3 3.137737 1_555
K0_3 O7_3 3.137737 1_555
K0_3 O9_3 3.203454 1_555
K0_3 O8_3 3.203454 1_555
K0_3 K0_7 3.308876 1_455
K0_3 K0_7 3.308876 1_555
K0_3 O3_7 3.417485 1_455
K0_3 O2_7 3.417485 1_455
K0_3 O6_7 3.462098 1_455
K0_3 O7_7 3.462098 1_455
K0_4 O3_4 3.085187 1_555
K0_4 O2_4 3.085187 1_555
K0_4 O6_4 3.137737 1_555
K0_4 O7_4 3.137737 1_555
K0_4 O9_4 3.203454 1_555
K0_4 O8_4 3.203454 1_555
K0_4 O3_0 3.417485 1_555
K0_4 O2_0 3.417485 1_555
K0_4 O6_0 3.462098 1_555
K0_4 O7_0 3.462098 1_555
K0_5 O3_5 3.085187 1_555
K0_5 O2_5 3.085187 1_555
K0_5 O6_5 3.137737 1_555
K0_5 O7_5 3.137737 1_555
K0_5 O9_5 3.203454 1_555
K0_5 O8_5 3.203454 1_555
K0_5 O3_1 3.417485 1_555
K0_5 O2_1 3.417485 1_555
K0_5 O6_1 3.462098 1_555
K0_5 O7_1 3.462098 1_555
K0_6 O3_6 3.085187 1_555
K0_6 O2_6 3.085187 1_555
K0_6 O6_6 3.137737 1_555
K0_6 O7_6 3.137737 1_555
K0_6 O8_6 3.203454 1_555
K0_6 O9_6 3.203454 1_555
K0_6 O3_2 3.417485 1_555
K0_6 O2_2 3.417485 1_555
K0_6 O6_2 3.462098 1_555
K0_6 O7_2 3.462098 1_555
K0_7 O3_7 3.085187 1_555
K0_7 O2_7 3.085187 1_555
K0_7 O6_7 3.137737 1_555
K0_7 O7_7 3.137737 1_555
K0_7 O9_7 3.203454 1_555
K0_7 O8_7 3.203454 1_555
K0_7 O3_3 3.417485 1_555
K0_7 O2_3 3.417485 1_555
K0_7 O6_3 3.462098 1_555
K0_7 O7_3 3.462098 1_555
Mo0_0 O5_1 1.958451 1_555
Mo0_0 O3_0 1.996097 1_555
Mo0_0 O11_4 2.042101 1_555
Mo0_0 O11_0 2.051462 1_555
Mo0_1 O5_0 1.958451 1_556
Mo0_1 O3_1 1.996097 1_555
Mo0_1 O11_5 2.042101 1_555
Mo0_1 O11_1 2.051462 1_555
Mo0_2 O5_3 1.958451 1_555
Mo0_2 O3_2 1.996097 1_555
Mo0_2 O11_6 2.042101 1_555
Mo0_2 O11_2 2.051462 1_555
Mo0_3 O5_2 1.958451 1_556
Mo0_3 O3_3 1.996097 1_555
Mo0_3 O11_7 2.042101 1_555
Mo0_3 O11_3 2.051462 1_555
Mo0_4 O5_5 1.958451 1_555
Mo0_4 O3_4 1.996097 1_555
Mo0_4 O11_0 2.042101 1_655
Mo0_4 O11_4 2.051462 1_555
Mo0_5 O5_4 1.958451 1_556
Mo0_5 O3_5 1.996097 1_555
Mo0_5 O11_1 2.042101 1_655
Mo0_5 O11_5 2.051462 1_555
Mo0_6 O5_7 1.958451 1_555
Mo0_6 O3_6 1.996097 1_555
Mo0_6 O11_2 2.042101 1_655
Mo0_6 O11_6 2.051462 1_555
Mo0_7 O5_6 1.958451 1_556
Mo0_7 O3_7 1.996097 1_555
Mo0_7 O11_3 2.042101 1_655
Mo0_7 O11_7 2.051462 1_555
Mo1_0 O4_1 1.958451 1_554
Mo1_0 O2_0 1.996097 1_555
Mo1_0 O10_4 2.042101 1_555
Mo1_0 O10_0 2.051462 1_555
Mo1_1 O4_0 1.958451 1_555
Mo1_1 O2_1 1.996097 1_555
Mo1_1 O10_5 2.042101 1_555
Mo1_1 O10_1 2.051462 1_555
Mo1_2 O4_3 1.958451 1_554
Mo1_2 O2_2 1.996097 1_555
Mo1_2 O10_6 2.042101 1_555
Mo1_2 O10_2 2.051462 1_555
Mo1_3 O4_2 1.958451 1_555
Mo1_3 O2_3 1.996097 1_555
Mo1_3 O10_7 2.042101 1_555
Mo1_3 O10_3 2.051462 1_555
Mo1_4 O4_5 1.958451 1_554
Mo1_4 O2_4 1.996097 1_555
Mo1_4 O10_0 2.042101 1_655
Mo1_4 O10_4 2.051462 1_555
Mo1_5 O4_4 1.958451 1_555
Mo1_5 O2_5 1.996097 1_555
Mo1_5 O10_1 2.042101 1_655
Mo1_5 O10_5 2.051462 1_555
Mo1_6 O4_7 1.958451 1_554
Mo1_6 O2_6 1.996097 1_555
Mo1_6 O10_2 2.042101 1_655
Mo1_6 O10_6 2.051462 1_555
Mo1_7 O4_6 1.958451 1_555
Mo1_7 O2_7 1.996097 1_555
Mo1_7 O10_3 2.042101 1_655
Mo1_7 O10_7 2.051462 1_555
Mo2_0 O1_2 1.944372 1_545
Mo2_0 O7_0 1.995965 1_555
Mo2_0 O9_4 2.061174 1_555
Mo2_0 O9_0 2.064327 1_555
Mo2_1 O1_3 1.944372 1_545
Mo2_1 O7_1 1.995965 1_555
Mo2_1 O9_5 2.061174 1_555
Mo2_1 O9_1 2.064327 1_555
Mo2_2 O1_0 1.944372 1_555
Mo2_2 O7_2 1.995965 1_555
Mo2_2 O9_6 2.061174 1_555
Mo2_2 O9_2 2.064327 1_555
Mo2_3 O1_1 1.944372 1_555
Mo2_3 O7_3 1.995965 1_555
Mo2_3 O9_7 2.061174 1_555
Mo2_3 O9_3 2.064327 1_555
Mo2_4 O1_6 1.944372 1_545
Mo2_4 O7_4 1.995965 1_555
Mo2_4 O9_0 2.061174 1_655
Mo2_4 O9_4 2.064327 1_555
Mo2_5 O1_7 1.944372 1_545
Mo2_5 O7_5 1.995965 1_555
Mo2_5 O9_1 2.061174 1_655
Mo2_5 O9_5 2.064327 1_555
Mo2_6 O1_4 1.944372 1_555
Mo2_6 O7_6 1.995965 1_555
Mo2_6 O9_2 2.061174 1_655
Mo2_6 O9_6 2.064327 1_555
Mo2_7 O1_5 1.944372 1_555
Mo2_7 O7_7 1.995965 1_555
Mo2_7 O9_3 2.061174 1_655
Mo2_7 O9_7 2.064327 1_555
Mo3_0 O0_2 1.944372 1_555
Mo3_0 O6_0 1.995965 1_555
Mo3_0 O8_4 2.061174 1_555
Mo3_0 O8_0 2.064327 1_555
Mo3_1 O0_3 1.944372 1_555
Mo3_1 O6_1 1.995965 1_555
Mo3_1 O8_5 2.061174 1_555
Mo3_1 O8_1 2.064327 1_555
Mo3_2 O0_0 1.944372 1_565
Mo3_2 O6_2 1.995965 1_555
Mo3_2 O8_6 2.061174 1_555
Mo3_2 O8_2 2.064327 1_555
Mo3_3 O0_1 1.944372 1_565
Mo3_3 O6_3 1.995965 1_555
Mo3_3 O8_7 2.061174 1_555
Mo3_3 O8_3 2.064327 1_555
Mo3_4 O0_6 1.944372 1_555
Mo3_4 O6_4 1.995965 1_555
Mo3_4 O8_0 2.061174 1_655
Mo3_4 O8_4 2.064327 1_555
Mo3_5 O0_7 1.944372 1_555
Mo3_5 O6_5 1.995965 1_555
Mo3_5 O8_1 2.061174 1_655
Mo3_5 O8_5 2.064327 1_555
Mo3_6 O0_4 1.944372 1_565
Mo3_6 O6_6 1.995965 1_555
Mo3_6 O8_2 2.061174 1_655
Mo3_6 O8_6 2.064327 1_555
Mo3_7 O0_5 1.944372 1_565
Mo3_7 O6_7 1.995965 1_555
Mo3_7 O8_3 2.061174 1_655
Mo3_7 O8_7 2.064327 1_555
Mo4_0 O0_4 2.132185 1_455
Mo4_0 O0_0 2.132847 1_555
Mo4_0 O11_0 2.137781 1_555
Mo4_0 O7_4 2.172614 1_455
Mo4_0 O7_0 2.172846 1_555
Mo4_1 O0_5 2.132185 1_455
Mo4_1 O0_1 2.132847 1_555
Mo4_1 O11_1 2.137781 1_555
Mo4_1 O7_5 2.172614 1_455
Mo4_1 O7_1 2.172846 1_555
Mo4_2 O0_6 2.132185 1_455
Mo4_2 O0_2 2.132847 1_555
Mo4_2 O11_2 2.137781 1_555
Mo4_2 O7_6 2.172614 1_455
Mo4_2 O7_2 2.172846 1_555
Mo4_3 O0_7 2.132185 1_455
Mo4_3 O0_3 2.132847 1_555
Mo4_3 O11_3 2.137781 1_555
Mo4_3 O7_7 2.172614 1_455
Mo4_3 O7_3 2.172846 1_555
Mo4_4 O0_0 2.132185 1_555
Mo4_4 O0_4 2.132847 1_555
Mo4_4 O11_4 2.137781 1_555
Mo4_4 O7_0 2.172614 1_555
Mo4_4 O7_4 2.172846 1_555
Mo4_5 O0_1 2.132185 1_555
Mo4_5 O0_5 2.132847 1_555
Mo4_5 O11_5 2.137781 1_555
Mo4_5 O7_1 2.172614 1_555
Mo4_5 O7_5 2.172846 1_555
Mo4_6 O0_2 2.132185 1_555
Mo4_6 O0_6 2.132847 1_555
Mo4_6 O11_6 2.137781 1_555
Mo4_6 O7_2 2.172614 1_555
Mo4_6 O7_6 2.172846 1_555
Mo4_7 O0_3 2.132185 1_555
Mo4_7 O0_7 2.132847 1_555
Mo4_7 O11_7 2.137781 1_555
Mo4_7 O7_3 2.172614 1_555
Mo4_7 O7_7 2.172846 1_555
Mo5_0 O1_4 2.132185 1_455
Mo5_0 O1_0 2.132847 1_555
Mo5_0 O10_0 2.137781 1_555
Mo5_0 O6_4 2.172614 1_455
Mo5_0 O6_0 2.172846 1_555
Mo5_1 O1_5 2.132185 1_455
Mo5_1 O1_1 2.132847 1_555
Mo5_1 O10_1 2.137781 1_555
Mo5_1 O6_5 2.172614 1_455
Mo5_1 O6_1 2.172846 1_555
Mo5_2 O1_6 2.132185 1_455
Mo5_2 O1_2 2.132847 1_555
Mo5_2 O10_2 2.137781 1_555
Mo5_2 O6_6 2.172614 1_455
Mo5_2 O6_2 2.172846 1_555
Mo5_3 O1_7 2.132185 1_455
Mo5_3 O1_3 2.132847 1_555
Mo5_3 O10_3 2.137781 1_555
Mo5_3 O6_7 2.172614 1_455
Mo5_3 O6_3 2.172846 1_555
Mo5_4 O1_0 2.132185 1_555
Mo5_4 O1_4 2.132847 1_555
Mo5_4 O10_4 2.137781 1_555
Mo5_4 O6_0 2.172614 1_555
Mo5_4 O6_4 2.172846 1_555
Mo5_5 O1_1 2.132185 1_555
Mo5_5 O1_5 2.132847 1_555
Mo5_5 O10_5 2.137781 1_555
Mo5_5 O6_1 2.172614 1_555
Mo5_5 O6_5 2.172846 1_555
Mo5_6 O1_2 2.132185 1_555
Mo5_6 O1_6 2.132847 1_555
Mo5_6 O10_6 2.137781 1_555
Mo5_6 O6_2 2.172614 1_555
Mo5_6 O6_6 2.172846 1_555
Mo5_7 O1_3 2.132185 1_555
Mo5_7 O1_7 2.132847 1_555
Mo5_7 O10_7 2.137781 1_555
Mo5_7 O6_3 2.172614 1_555
Mo5_7 O6_7 2.172846 1_555
Mo6_0 O5_4 2.131739 1_455
Mo6_0 O5_0 2.132469 1_555
Mo6_0 O9_0 2.152005 1_555
Mo6_0 O2_4 2.169074 1_455
Mo6_0 O2_0 2.169811 1_555
Mo6_1 O5_5 2.131739 1_455
Mo6_1 O5_1 2.132469 1_555
Mo6_1 O9_1 2.152005 1_555
Mo6_1 O2_5 2.169074 1_455
Mo6_1 O2_1 2.169811 1_555
Mo6_2 O5_6 2.131739 1_455
Mo6_2 O5_2 2.132469 1_555
Mo6_2 O9_2 2.152005 1_555
Mo6_2 O2_6 2.169074 1_455
Mo6_2 O2_2 2.169811 1_555
Mo6_3 O5_7 2.131739 1_455
Mo6_3 O5_3 2.132469 1_555
Mo6_3 O9_3 2.152005 1_555
Mo6_3 O2_7 2.169074 1_455
Mo6_3 O2_3 2.169811 1_555
Mo6_4 O5_0 2.131739 1_555
Mo6_4 O5_4 2.132469 1_555
Mo6_4 O9_4 2.152005 1_555
Mo6_4 O2_0 2.169074 1_555
Mo6_4 O2_4 2.169811 1_555
Mo6_5 O5_1 2.131739 1_555
Mo6_5 O5_5 2.132469 1_555
Mo6_5 O9_5 2.152005 1_555
Mo6_5 O2_1 2.169074 1_555
Mo6_5 O2_5 2.169811 1_555
Mo6_6 O5_2 2.131739 1_555
Mo6_6 O5_6 2.132469 1_555
Mo6_6 O9_6 2.152005 1_555
Mo6_6 O2_2 2.169074 1_555
Mo6_6 O2_6 2.169811 1_555
Mo6_7 O5_3 2.131739 1_555
Mo6_7 O5_7 2.132469 1_555
Mo6_7 O9_7 2.152005 1_555
Mo6_7 O2_3 2.169074 1_555
Mo6_7 O2_7 2.169811 1_555
Mo7_0 O4_4 2.131739 1_455
Mo7_0 O4_0 2.132469 1_555
Mo7_0 O8_0 2.152005 1_555
Mo7_0 O3_4 2.169074 1_455
Mo7_0 O3_0 2.169811 1_555
Mo7_1 O4_5 2.131739 1_455
Mo7_1 O4_1 2.132469 1_555
Mo7_1 O8_1 2.152005 1_555
Mo7_1 O3_5 2.169074 1_455
Mo7_1 O3_1 2.169811 1_555
Mo7_2 O4_6 2.131739 1_455
Mo7_2 O4_2 2.132469 1_555
Mo7_2 O8_2 2.152005 1_555
Mo7_2 O3_6 2.169074 1_455
Mo7_2 O3_2 2.169811 1_555
Mo7_3 O4_7 2.131739 1_455
Mo7_3 O4_3 2.132469 1_555
Mo7_3 O8_3 2.152005 1_555
Mo7_3 O3_7 2.169074 1_455
Mo7_3 O3_3 2.169811 1_555
Mo7_4 O4_0 2.131739 1_555
Mo7_4 O4_4 2.132469 1_555
Mo7_4 O8_4 2.152005 1_555
Mo7_4 O3_0 2.169074 1_555
Mo7_4 O3_4 2.169811 1_555
Mo7_5 O4_1 2.131739 1_555
Mo7_5 O4_5 2.132469 1_555
Mo7_5 O8_5 2.152005 1_555
Mo7_5 O3_1 2.169074 1_555
Mo7_5 O3_5 2.169811 1_555
Mo7_6 O4_2 2.131739 1_555
Mo7_6 O4_6 2.132469 1_555
Mo7_6 O8_6 2.152005 1_555
Mo7_6 O3_2 2.169074 1_555
Mo7_6 O3_6 2.169811 1_555
Mo7_7 O4_3 2.131739 1_555
Mo7_7 O4_7 2.132469 1_555
Mo7_7 O8_7 2.152005 1_555
Mo7_7 O3_3 2.169074 1_555
Mo7_7 O3_7 2.169811 1_555
