# generated using pymatgen
data_KB5O8
_symmetry_space_group_name_H-M   'P 1'
_cell_length_a   7.52698200
_cell_length_b   11.83385800
_cell_length_c   14.91711000
_cell_angle_alpha   90.00000000
_cell_angle_beta   90.00000000
_cell_angle_gamma   90.00000000
_symmetry_Int_Tables_number   1
_chemical_formula_structural   KB5O8
_chemical_formula_sum   'K8 B40 O64'
_cell_volume   1328.71526180
_cell_formula_units_Z   8
loop_
 _symmetry_equiv_pos_site_id
 _symmetry_equiv_pos_as_xyz
  1  'x, y, z'
loop_
 _atom_site_type_symbol
 _atom_site_label
 _atom_site_symmetry_multiplicity
 _atom_site_fract_x
 _atom_site_fract_y
 _atom_site_fract_z
 _atom_site_occupancy
  K  K0  1  0.57244800  0.29408300  0.37930600  1
  K  K1  1  0.07244800  0.20591700  0.62069400  1
  K  K2  1  0.42755200  0.79408300  0.12069400  1
  K  K3  1  0.92755200  0.70591700  0.87930600  1
  K  K4  1  0.42755200  0.70591700  0.62069400  1
  K  K5  1  0.92755200  0.79408300  0.37930600  1
  K  K6  1  0.57244800  0.20591700  0.87930600  1
  K  K7  1  0.07244800  0.29408300  0.12069400  1
  B  B0  1  0.05531000  0.27689500  0.37451400  1
  B  B1  1  0.55531000  0.22310500  0.62548600  1
  B  B2  1  0.94469000  0.77689500  0.12548600  1
  B  B3  1  0.44469000  0.72310500  0.87451400  1
  B  B4  1  0.94469000  0.72310500  0.62548600  1
  B  B5  1  0.44469000  0.77689500  0.37451400  1
  B  B6  1  0.05531000  0.22310500  0.87451400  1
  B  B7  1  0.55531000  0.27689500  0.12548600  1
  B  B8  1  0.91525800  0.09183200  0.41819700  1
  B  B9  1  0.41525800  0.40816800  0.58180300  1
  B  B10  1  0.08474200  0.59183200  0.08180300  1
  B  B11  1  0.58474200  0.90816800  0.91819700  1
  B  B12  1  0.08474200  0.90816800  0.58180300  1
  B  B13  1  0.58474200  0.59183200  0.41819700  1
  B  B14  1  0.91525800  0.40816800  0.91819700  1
  B  B15  1  0.41525800  0.09183200  0.08180300  1
  B  B16  1  0.97649200  0.47814000  0.34703900  1
  B  B17  1  0.47649200  0.02186000  0.65296100  1
  B  B18  1  0.02350800  0.97814000  0.15296100  1
  B  B19  1  0.52350800  0.52186000  0.84703900  1
  B  B20  1  0.02350800  0.52186000  0.65296100  1
  B  B21  1  0.52350800  0.97814000  0.34703900  1
  B  B22  1  0.97649200  0.02186000  0.84703900  1
  B  B23  1  0.47649200  0.47814000  0.15296100  1
  B  B24  1  0.19942000  0.43594100  0.45641100  1
  B  B25  1  0.69942000  0.06405900  0.54358900  1
  B  B26  1  0.80058000  0.93594100  0.04358900  1
  B  B27  1  0.30058000  0.56405900  0.95641100  1
  B  B28  1  0.80058000  0.56405900  0.54358900  1
  B  B29  1  0.30058000  0.93594100  0.45641100  1
  B  B30  1  0.19942000  0.06405900  0.95641100  1
  B  B31  1  0.69942000  0.43594100  0.04358900  1
  B  B32  1  0.08703500  0.10320800  0.28446100  1
  B  B33  1  0.58703500  0.39679200  0.71553900  1
  B  B34  1  0.91296500  0.60320800  0.21553900  1
  B  B35  1  0.41296500  0.89679200  0.78446100  1
  B  B36  1  0.91296500  0.89679200  0.71553900  1
  B  B37  1  0.41296500  0.60320800  0.28446100  1
  B  B38  1  0.08703500  0.39679200  0.78446100  1
  B  B39  1  0.58703500  0.10320800  0.21553900  1
  O  O0  1  0.81047800  0.02562500  0.47489200  1
  O  O1  1  0.31047800  0.47437500  0.52510800  1
  O  O2  1  0.18952200  0.52562500  0.02510800  1
  O  O3  1  0.68952200  0.97437500  0.97489200  1
  O  O4  1  0.18952200  0.97437500  0.52510800  1
  O  O5  1  0.68952200  0.52562500  0.47489200  1
  O  O6  1  0.81047800  0.47437500  0.97489200  1
  O  O7  1  0.31047800  0.02562500  0.02510800  1
  O  O8  1  0.93610700  0.20466100  0.42942400  1
  O  O9  1  0.43610700  0.29533900  0.57057600  1
  O  O10  1  0.06389300  0.70466100  0.07057600  1
  O  O11  1  0.56389300  0.79533900  0.92942400  1
  O  O12  1  0.06389300  0.79533900  0.57057600  1
  O  O13  1  0.56389300  0.70466100  0.42942400  1
  O  O14  1  0.93610700  0.29533900  0.92942400  1
  O  O15  1  0.43610700  0.20466100  0.07057600  1
  O  O16  1  0.13920200  0.21065500  0.30235100  1
  O  O17  1  0.63920200  0.28934500  0.69764900  1
  O  O18  1  0.86079800  0.71065500  0.19764900  1
  O  O19  1  0.36079800  0.78934500  0.80235100  1
  O  O20  1  0.86079800  0.78934500  0.69764900  1
  O  O21  1  0.36079800  0.71065500  0.30235100  1
  O  O22  1  0.13920200  0.28934500  0.80235100  1
  O  O23  1  0.63920200  0.21065500  0.19764900  1
  O  O24  1  0.94671900  0.36718400  0.33150400  1
  O  O25  1  0.44671900  0.13281600  0.66849600  1
  O  O26  1  0.05328100  0.86718400  0.16849600  1
  O  O27  1  0.55328100  0.63281600  0.83150400  1
  O  O28  1  0.05328100  0.63281600  0.66849600  1
  O  O29  1  0.55328100  0.86718400  0.33150400  1
  O  O30  1  0.94671900  0.13281600  0.83150400  1
  O  O31  1  0.44671900  0.36718400  0.16849600  1
  O  O32  1  0.19200500  0.32495000  0.43393700  1
  O  O33  1  0.69200500  0.17505000  0.56606300  1
  O  O34  1  0.80799500  0.82495000  0.06606300  1
  O  O35  1  0.30799500  0.67505000  0.93393700  1
  O  O36  1  0.80799500  0.67505000  0.56606300  1
  O  O37  1  0.30799500  0.82495000  0.43393700  1
  O  O38  1  0.19200500  0.17505000  0.93393700  1
  O  O39  1  0.69200500  0.32495000  0.06606300  1
  O  O40  1  0.61400600  0.06286500  0.30086100  1
  O  O41  1  0.11400600  0.43713500  0.69913900  1
  O  O42  1  0.38599400  0.56286500  0.19913900  1
  O  O43  1  0.88599400  0.93713500  0.80086100  1
  O  O44  1  0.38599400  0.93713500  0.69913900  1
  O  O45  1  0.88599400  0.56286500  0.30086100  1
  O  O46  1  0.61400600  0.43713500  0.80086100  1
  O  O47  1  0.11400600  0.06286500  0.19913900  1
  O  O48  1  0.99757000  0.03531200  0.34700700  1
  O  O49  1  0.49757000  0.46468800  0.65299300  1
  O  O50  1  0.00243000  0.53531200  0.15299300  1
  O  O51  1  0.50243000  0.96468800  0.84700700  1
  O  O52  1  0.00243000  0.96468800  0.65299300  1
  O  O53  1  0.50243000  0.53531200  0.34700700  1
  O  O54  1  0.99757000  0.46468800  0.84700700  1
  O  O55  1  0.49757000  0.03531200  0.15299300  1
  O  O56  1  0.40242600  0.01629700  0.41140000  1
  O  O57  1  0.90242600  0.48370300  0.58860000  1
  O  O58  1  0.59757400  0.51629700  0.08860000  1
  O  O59  1  0.09757400  0.98370300  0.91140000  1
  O  O60  1  0.59757400  0.98370300  0.58860000  1
  O  O61  1  0.09757400  0.51629700  0.41140000  1
  O  O62  1  0.40242600  0.48370300  0.91140000  1
  O  O63  1  0.90242600  0.01629700  0.08860000  1
loop_
_geom_bond_atom_site_label_1
_geom_bond_atom_site_label_2
_geom_bond_distance
_geom_bond_site_symmetry_2
K0 O23 2.927486 1_555
K0 O53 2.942623 1_555
K0 O40 2.992315 1_555
K0 O32 2.999614 1_555
K0 O8 3.028415 1_555
K0 O24 3.032002 1_555
K0 O9 3.032179 1_555
K0 O5 3.212075 1_555
K0 O33 3.248866 1_555
K0 O31 3.396016 1_555
K0 O56 3.559941 1_555
K0 O16 3.595392 1_555
K1 O22 2.927486 1_555
K1 O52 2.942623 1_545
K1 O41 2.992315 1_555
K1 O33 2.999614 1_455
K1 O9 3.028415 1_555
K1 O25 3.032002 1_555
K1 O8 3.032179 1_455
K1 O4 3.212075 1_545
K1 O32 3.248866 1_555
K1 O30 3.396016 1_455
K1 O57 3.559941 1_455
K1 O17 3.595392 1_455
K2 O21 2.927486 1_555
K2 O55 2.942623 1_565
K2 O42 2.992315 1_555
K2 O34 2.999614 1_555
K2 O10 3.028415 1_555
K2 O26 3.032002 1_555
K2 O11 3.032179 1_554
K2 O7 3.212075 1_565
K2 O35 3.248866 1_554
K2 O29 3.396016 1_555
K2 O58 3.559941 1_555
K2 O18 3.595392 1_555
K3 O20 2.927486 1_555
K3 O54 2.942623 1_555
K3 O43 2.992315 1_555
K3 O35 2.999614 1_655
K3 O11 3.028415 1_555
K3 O27 3.032002 1_555
K3 O10 3.032179 1_656
K3 O6 3.212075 1_555
K3 O34 3.248866 1_556
K3 O28 3.396016 1_655
K3 O59 3.559941 1_655
K3 O19 3.595392 1_655
K4 O19 2.927486 1_555
K4 O49 2.942623 1_555
K4 O44 2.992315 1_555
K4 O36 2.999614 1_555
K4 O12 3.028415 1_555
K4 O28 3.032002 1_555
K4 O13 3.032179 1_555
K4 O1 3.212075 1_555
K4 O37 3.248866 1_555
K4 O27 3.396016 1_555
K4 O60 3.559941 1_555
K4 O20 3.595392 1_555
K5 O18 2.927486 1_555
K5 O48 2.942623 1_565
K5 O45 2.992315 1_555
K5 O37 2.999614 1_655
K5 O13 3.028415 1_555
K5 O29 3.032002 1_555
K5 O12 3.032179 1_655
K5 O0 3.212075 1_565
K5 O36 3.248866 1_555
K5 O26 3.396016 1_655
K5 O61 3.559941 1_655
K5 O21 3.595392 1_655
K6 O17 2.927486 1_555
K6 O51 2.942623 1_545
K6 O46 2.992315 1_555
K6 O38 2.999614 1_555
K6 O14 3.028415 1_555
K6 O30 3.032002 1_555
K6 O15 3.032179 1_556
K6 O3 3.212075 1_545
K6 O39 3.248866 1_556
K6 O25 3.396016 1_555
K6 O62 3.559941 1_555
K6 O22 3.595392 1_555
K7 O16 2.927486 1_555
K7 O50 2.942623 1_555
K7 O47 2.992315 1_555
K7 O39 2.999614 1_455
K7 O15 3.028415 1_555
K7 O31 3.032002 1_555
K7 O14 3.032179 1_454
K7 O2 3.212075 1_555
K7 O38 3.248866 1_554
K7 O24 3.396016 1_455
K7 O63 3.559941 1_455
K7 O23 3.595392 1_455
B0 O32 1.472334 1_555
B0 O16 1.473759 1_555
B0 O8 1.485481 1_455
B0 O24 1.490414 1_455
B1 O33 1.472334 1_555
B1 O17 1.473759 1_555
B1 O9 1.485481 1_555
B1 O25 1.490414 1_555
B2 O34 1.472334 1_555
B2 O18 1.473759 1_555
B2 O10 1.485481 1_655
B2 O26 1.490414 1_655
B3 O35 1.472334 1_555
B3 O19 1.473759 1_555
B3 O11 1.485481 1_555
B3 O27 1.490414 1_555
B4 O36 1.472334 1_555
B4 O20 1.473759 1_555
B4 O12 1.485481 1_655
B4 O28 1.490414 1_655
B5 O37 1.472334 1_555
B5 O21 1.473759 1_555
B5 O13 1.485481 1_555
B5 O29 1.490414 1_555
B6 O38 1.472334 1_555
B6 O22 1.473759 1_555
B6 O14 1.485481 1_455
B6 O30 1.490414 1_455
B7 O39 1.472334 1_555
B7 O23 1.473759 1_555
B7 O15 1.485481 1_555
B7 O31 1.490414 1_555
B8 O8 1.354784 1_555
B8 O0 1.396822 1_555
B8 O48 1.399625 1_555
B9 O9 1.354784 1_555
B9 O1 1.396822 1_555
B9 O49 1.399625 1_555
B10 O10 1.354784 1_555
B10 O2 1.396822 1_555
B10 O50 1.399625 1_555
B11 O11 1.354784 1_555
B11 O3 1.396822 1_555
B11 O51 1.399625 1_555
B12 O12 1.354784 1_555
B12 O4 1.396822 1_555
B12 O52 1.399625 1_555
B13 O13 1.354784 1_555
B13 O5 1.396822 1_555
B13 O53 1.399625 1_555
B14 O14 1.354784 1_555
B14 O6 1.396822 1_555
B14 O54 1.399625 1_555
B15 O15 1.354784 1_555
B15 O7 1.396822 1_555
B15 O55 1.399625 1_555
B16 O24 1.352032 1_555
B16 O45 1.394188 1_555
B16 O61 1.398665 1_655
B17 O25 1.352032 1_555
B17 O44 1.394188 1_545
B17 O60 1.398665 1_545
B18 O26 1.352032 1_555
B18 O47 1.394188 1_565
B18 O63 1.398665 1_465
B19 O27 1.352032 1_555
B19 O46 1.394188 1_555
B19 O62 1.398665 1_555
B20 O28 1.352032 1_555
B20 O41 1.394188 1_555
B20 O57 1.398665 1_455
B21 O29 1.352032 1_555
B21 O40 1.394188 1_565
B21 O56 1.398665 1_565
B22 O30 1.352032 1_555
B22 O43 1.394188 1_545
B22 O59 1.398665 1_645
B23 O31 1.352032 1_555
B23 O42 1.394188 1_555
B23 O58 1.398665 1_555
B24 O32 1.356710 1_555
B24 O61 1.393822 1_555
B24 O1 1.398492 1_555
B25 O33 1.356710 1_555
B25 O60 1.393822 1_545
B25 O0 1.398492 1_555
B26 O34 1.356710 1_555
B26 O63 1.393822 1_565
B26 O3 1.398492 1_554
B27 O35 1.356710 1_555
B27 O62 1.393822 1_555
B27 O2 1.398492 1_556
B28 O36 1.356710 1_555
B28 O57 1.393822 1_555
B28 O5 1.398492 1_555
B29 O37 1.356710 1_555
B29 O56 1.393822 1_565
B29 O4 1.398492 1_555
B30 O38 1.356710 1_555
B30 O59 1.393822 1_545
B30 O7 1.398492 1_556
B31 O39 1.356710 1_555
B31 O58 1.393822 1_555
B31 O6 1.398492 1_554
B32 O16 1.357256 1_555
B32 O47 1.374427 1_555
B32 O48 1.403401 1_455
B33 O17 1.357256 1_555
B33 O46 1.374427 1_555
B33 O49 1.403401 1_555
B34 O18 1.357256 1_555
B34 O45 1.374427 1_555
B34 O50 1.403401 1_655
B35 O19 1.357256 1_555
B35 O44 1.374427 1_555
B35 O51 1.403401 1_555
B36 O20 1.357256 1_555
B36 O43 1.374427 1_555
B36 O52 1.403401 1_655
B37 O21 1.357256 1_555
B37 O42 1.374427 1_555
B37 O53 1.403401 1_555
B38 O22 1.357256 1_555
B38 O41 1.374427 1_555
B38 O54 1.403401 1_455
B39 O23 1.357256 1_555
B39 O40 1.374427 1_555
B39 O55 1.403401 1_555
