# generated using pymatgen
data_Ho5CoBi2
_symmetry_space_group_name_H-M   'P 1'
_cell_length_a   7.99901262
_cell_length_b   8.76322311
_cell_length_c   12.31544106
_cell_angle_alpha   89.99966384
_cell_angle_beta   90.00457821
_cell_angle_gamma   89.99989533
_symmetry_Int_Tables_number   1
_chemical_formula_structural   Ho5CoBi2
_chemical_formula_sum   'Ho20 Co4 Bi8'
_cell_volume   863.27709752
_cell_formula_units_Z   4
loop_
 _symmetry_equiv_pos_site_id
 _symmetry_equiv_pos_as_xyz
  1  'x, y, z'
loop_
 _atom_site_type_symbol
 _atom_site_label
 _atom_site_symmetry_multiplicity
 _atom_site_fract_x
 _atom_site_fract_y
 _atom_site_fract_z
 _atom_site_occupancy
  Ho  Ho0  1  0.34656901  0.74999893  0.69911359  1
  Ho  Ho1  1  0.65343567  0.25000013  0.30089925  1
  Ho  Ho2  1  0.84661059  0.24999937  0.80102012  1
  Ho  Ho3  1  0.15340440  0.74999935  0.19898642  1
  Ho  Ho4  1  0.88383979  0.74999981  0.81301899  1
  Ho  Ho5  1  0.11618118  0.24999986  0.18697640  1
  Ho  Ho6  1  0.38380913  0.24999979  0.68709468  1
  Ho  Ho7  1  0.61621490  0.74999989  0.31289758  1
  Ho  Ho8  1  0.67394831  0.53714681  0.56352215  1
  Ho  Ho9  1  0.32605392  0.46282852  0.43651599  1
  Ho  Ho10  1  0.17396761  0.46285629  0.93653759  1
  Ho  Ho11  1  0.32605497  0.03717152  0.43651605  1
  Ho  Ho12  1  0.82602146  0.53714246  0.06342857  1
  Ho  Ho13  1  0.67394728  0.96285433  0.56352158  1
  Ho  Ho14  1  0.82602166  0.96285767  0.06342858  1
  Ho  Ho15  1  0.17396665  0.03714381  0.93653784  1
  Ho  Ho16  1  0.05366691  0.74999919  0.49775077  1
  Ho  Ho17  1  0.94632939  0.24999957  0.50227630  1
  Ho  Ho18  1  0.55369407  0.24999954  0.00226964  1
  Ho  Ho19  1  0.44631077  0.74999911  0.99770665  1
  Co  Co0  1  0.06446559  0.75000096  0.99207983  1
  Co  Co1  1  0.93557461  0.25000366  0.00791531  1
  Co  Co2  1  0.56434012  0.25000320  0.50788951  1
  Co  Co3  1  0.43556922  0.75000059  0.49208903  1
  Bi  Bi0  1  0.56920336  0.50910390  0.82688186  1
  Bi  Bi1  1  0.43080893  0.49085524  0.17310190  1
  Bi  Bi2  1  0.06916872  0.49087818  0.67321771  1
  Bi  Bi3  1  0.43080794  0.00914480  0.17310269  1
  Bi  Bi4  1  0.93082072  0.50910320  0.32680225  1
  Bi  Bi5  1  0.56920241  0.99089413  0.82688158  1
  Bi  Bi6  1  0.93082155  0.99089469  0.32680255  1
  Bi  Bi7  1  0.06916917  0.00912149  0.67321706  1
loop_
_geom_bond_atom_site_label_1
_geom_bond_atom_site_label_2
_geom_bond_distance
_geom_bond_site_symmetry_2
Ho0 Ho16 3.411473 1_555
Ho0 Ho8 3.622991 1_555
Ho0 Ho13 3.622997 1_555
Ho0 Ho19 3.762798 1_555
Ho1 Ho17 3.411554 1_555
Ho1 Ho11 3.623031 1_555
Ho1 Ho9 3.623041 1_555
Ho1 Ho18 3.763237 1_555
Ho6 Ho9 3.635233 1_555
Ho7 Ho8 3.635800 1_555
Ho8 Ho9 3.257919 1_555
Ho10 Ho12 3.257747 1_456
Ho10 Ho19 3.412446 1_555
Ho10 Ho2 3.622276 1_455
Ho10 Ho5 3.633990 1_556
Ho10 Ho18 3.655174 1_556
Ho10 Ho15 3.730613 1_555
Ho11 Ho13 3.257894 1_545
Ho11 Ho16 3.413115 1_545
Ho11 Ho6 3.635248 1_555
Ho11 Ho17 3.655229 1_455
Ho11 Ho9 3.730127 1_555
Ho12 Ho18 3.412338 1_555
Ho12 Ho3 3.622655 1_655
Ho12 Ho4 3.633722 1_554
Ho12 Ho19 3.655041 1_554
Ho12 Ho14 3.730637 1_555
Ho13 Ho17 3.412938 1_565
Ho13 Ho7 3.635818 1_555
Ho13 Ho16 3.655340 1_655
Ho13 Ho8 3.730570 1_555
Ho14 Ho15 3.257736 1_664
Ho14 Ho18 3.412320 1_565
Ho14 Ho3 3.622645 1_655
Ho14 Ho4 3.633741 1_554
Ho14 Ho19 3.655062 1_554
Ho15 Ho19 3.412450 1_545
Ho15 Ho2 3.622250 1_455
Ho15 Ho5 3.634003 1_556
Ho15 Ho18 3.655186 1_556
Ho16 Ho9 3.413099 1_555
Ho16 Ho8 3.655323 1_455
Ho16 Ho3 3.764977 1_555
Ho17 Ho8 3.412948 1_555
Ho17 Ho9 3.655227 1_655
Ho17 Ho2 3.764698 1_555
Ho18 Ho2 3.410810 1_554
Ho19 Ho3 3.411025 1_556
Co0 Ho4 2.636282 1_455
Co0 Ho3 2.645540 1_556
Co0 Ho15 2.750804 1_565
Co0 Ho10 2.750826 1_555
Co0 Ho14 2.808845 1_456
Co0 Ho12 2.808854 1_456
Co0 Ho19 3.055165 1_555
Co1 Ho5 2.636201 1_655
Co1 Ho2 2.645459 1_554
Co1 Ho12 2.750821 1_555
Co1 Ho14 2.750874 1_545
Co1 Ho10 2.808654 1_654
Co1 Ho15 2.808692 1_654
Co1 Ho18 3.055453 1_555
Co2 Ho6 2.637547 1_555
Co2 Ho1 2.646979 1_555
Co2 Ho8 2.751334 1_555
Co2 Ho13 2.751361 1_545
Co2 Ho9 2.807799 1_555
Co2 Ho11 2.807842 1_555
Co2 Ho17 3.056324 1_555
Co3 Ho7 2.637908 1_555
Co3 Ho0 2.647181 1_555
Co3 Ho11 2.751120 1_565
Co3 Ho9 2.751142 1_555
Co3 Ho8 2.808699 1_555
Co3 Ho13 2.808702 1_555
Co3 Ho16 3.055643 1_555
Bi0 Ho18 3.136313 1_556
Bi0 Ho19 3.138312 1_555
Bi0 Ho0 3.178570 1_555
Bi0 Ho2 3.190771 1_555
Bi0 Ho6 3.212183 1_555
Bi0 Ho4 3.289353 1_555
Bi0 Ho8 3.358929 1_555
Bi0 Ho10 3.461752 1_555
Bi0 Ho12 3.572973 1_556
Bi1 Ho19 3.136624 1_554
Bi1 Ho18 3.138122 1_555
Bi1 Ho1 3.178481 1_555
Bi1 Ho3 3.191030 1_555
Bi1 Ho7 3.212534 1_555
Bi1 Ho5 3.289079 1_555
Bi1 Ho9 3.359586 1_555
Bi1 Ho12 3.461707 1_555
Bi1 Ho10 3.573233 1_554
Bi2 Ho16 3.137073 1_555
Bi2 Ho17 3.138941 1_455
Bi2 Ho2 3.178488 1_455
Bi2 Ho0 3.190845 1_555
Bi2 Ho4 3.212267 1_455
Bi2 Ho6 3.289261 1_555
Bi2 Ho10 3.358420 1_555
Bi2 Ho8 3.461654 1_455
Bi2 Ho9 3.575112 1_555
Bi3 Ho19 3.136661 1_544
Bi3 Ho18 3.138111 1_555
Bi3 Ho1 3.178499 1_555
Bi3 Ho3 3.191035 1_545
Bi3 Ho7 3.212516 1_545
Bi3 Ho5 3.289066 1_555
Bi3 Ho11 3.359575 1_555
Bi3 Ho14 3.461720 1_545
Bi3 Ho15 3.573236 1_554
Bi4 Ho17 3.137026 1_555
Bi4 Ho16 3.139119 1_655
Bi4 Ho3 3.178785 1_655
Bi4 Ho1 3.190659 1_555
Bi4 Ho5 3.212432 1_655
Bi4 Ho7 3.289170 1_555
Bi4 Ho12 3.359072 1_555
Bi4 Ho9 3.461841 1_655
Bi4 Ho8 3.575233 1_555
Bi5 Ho18 3.136339 1_566
Bi5 Ho19 3.138297 1_555
Bi5 Ho0 3.178582 1_555
Bi5 Ho2 3.190783 1_565
Bi5 Ho6 3.212169 1_565
Bi5 Ho4 3.289345 1_555
Bi5 Ho13 3.358933 1_555
Bi5 Ho15 3.461757 1_565
Bi5 Ho14 3.572978 1_556
Bi6 Ho17 3.137049 1_565
Bi6 Ho16 3.139093 1_655
Bi6 Ho3 3.178786 1_655
Bi6 Ho1 3.190671 1_565
Bi6 Ho5 3.212432 1_665
Bi6 Ho7 3.289172 1_555
Bi6 Ho14 3.359078 1_555
Bi6 Ho11 3.461847 1_665
Bi6 Ho13 3.575229 1_555
Bi7 Ho16 3.137095 1_545
Bi7 Ho17 3.138915 1_455
Bi7 Ho2 3.178496 1_455
Bi7 Ho0 3.190847 1_545
Bi7 Ho4 3.212263 1_445
Bi7 Ho6 3.289265 1_555
Bi7 Ho15 3.358431 1_555
Bi7 Ho13 3.461666 1_445
Bi7 Ho11 3.575106 1_555
