# generated using pymatgen
data_LuInNi4
_symmetry_space_group_name_H-M   'P 1'
_cell_length_a   4.89101642
_cell_length_b   4.89097019
_cell_length_c   4.89101558
_cell_angle_alpha   60.00166032
_cell_angle_beta   60.00199790
_cell_angle_gamma   60.00168566
_symmetry_Int_Tables_number   1
_chemical_formula_structural   LuInNi4
_chemical_formula_sum   'Lu1 In1 Ni4'
_cell_volume   82.73622926
_cell_formula_units_Z   1
loop_
 _symmetry_equiv_pos_site_id
 _symmetry_equiv_pos_as_xyz
  1  'x, y, z'
loop_
 _atom_site_type_symbol
 _atom_site_label
 _atom_site_symmetry_multiplicity
 _atom_site_fract_x
 _atom_site_fract_y
 _atom_site_fract_z
 _atom_site_occupancy
  Lu  Lu0  1  0.25000189  0.24999600  0.25000156  1
  In  In0  1  0.99999594  0.00001296  0.99999556  1
  Ni  Ni0  1  0.62575923  0.62575286  0.62575920  1
  Ni  Ni1  1  0.62575861  0.62575099  0.12272984  1
  Ni  Ni2  1  0.62575407  0.12273598  0.62575388  1
  Ni  Ni3  1  0.12272926  0.62575121  0.62575896  1
loop_
_geom_bond_atom_site_label_1
_geom_bond_atom_site_label_2
_geom_bond_distance
_geom_bond_site_symmetry_2
Lu0 Ni1 2.869171 1_555
Lu0 Ni3 2.869174 1_555
Lu0 Ni2 2.869175 1_555
Lu0 Ni1 2.869236 1_545
Lu0 Ni3 2.869236 1_545
Lu0 Ni3 2.869246 1_554
Lu0 Ni1 2.869248 1_455
Lu0 Ni2 2.869251 1_554
Lu0 Ni2 2.869252 1_455
Lu0 Ni0 2.869259 1_545
Lu0 Ni0 2.869275 1_554
Lu0 Ni0 2.869277 1_455
In0 Ni3 2.865998 1_655
In0 Ni1 2.866000 1_556
In0 Ni0 2.866036 1_555
In0 Ni2 2.866036 1_555
In0 Ni3 2.866067 1_645
In0 Ni1 2.866069 1_546
In0 Ni2 2.866090 1_655
In0 Ni2 2.866091 1_556
In0 Ni1 2.866122 1_646
In0 Ni3 2.866122 1_646
In0 Ni0 2.866155 1_645
In0 Ni0 2.866155 1_546
In0 Lu0 2.995054 1_656
In0 Lu0 2.995169 1_655
In0 Lu0 2.995171 1_556
In0 Lu0 2.995224 1_646
Ni0 Ni3 2.430684 1_655
Ni0 Ni1 2.430685 1_556
Ni0 Ni2 2.430704 1_565
Ni0 Ni2 2.460266 1_555
Ni0 Ni1 2.460331 1_555
Ni0 Ni3 2.460332 1_555
Ni1 Ni3 2.430765 1_654
Ni1 Ni2 2.430789 1_564
Ni1 Ni2 2.460327 1_555
Ni1 Ni3 2.460398 1_555
Ni2 Ni3 2.430788 1_645
Ni2 Ni3 2.460330 1_555
