# generated using pymatgen
data_Cs8Na4Y3HoCl24
_symmetry_space_group_name_H-M   'P 1'
_cell_length_a   7.58865785
_cell_length_b   7.58865785
_cell_length_c   21.46570601
_cell_angle_alpha   90.00000000
_cell_angle_beta   90.00000000
_cell_angle_gamma   90.00000000
_symmetry_Int_Tables_number   1
_chemical_formula_structural   Cs8Na4Y3HoCl24
_chemical_formula_sum   'Cs8 Na4 Y3 Ho1 Cl24'
_cell_volume   1236.16123827
_cell_formula_units_Z   1
loop_
 _symmetry_equiv_pos_site_id
 _symmetry_equiv_pos_as_xyz
  1  'x, y, z'
loop_
 _atom_site_type_symbol
 _atom_site_label
 _atom_site_symmetry_multiplicity
 _atom_site_fract_x
 _atom_site_fract_y
 _atom_site_fract_z
 _atom_site_occupancy
  Cs  Cs0  1  0.00000000  0.50000000  0.37501989  1
  Cs  Cs1  1  0.50000000  -0.00000000  0.12484823  1
  Cs  Cs2  1  0.00000000  0.50000000  0.87515177  1
  Cs  Cs3  1  0.50000000  -0.00000000  0.62498011  1
  Cs  Cs4  1  0.00000000  0.50000000  0.12484823  1
  Cs  Cs5  1  0.50000000  -0.00000000  0.87515177  1
  Cs  Cs6  1  0.00000000  0.50000000  0.62498011  1
  Cs  Cs7  1  0.50000000  -0.00000000  0.37501989  1
  Na  Na0  1  0.00000000  -0.00000000  0.24964770  1
  Na  Na1  1  0.50000000  0.50000000  0.00000000  1
  Na  Na2  1  0.00000000  -0.00000000  0.75035230  1
  Na  Na3  1  0.50000000  0.50000000  0.50000000  1
  Y  Y0  1  0.50000000  0.50000000  0.75004320  1
  Y  Y1  1  0.00000000  -0.00000000  0.50000000  1
  Y  Y2  1  0.50000000  0.50000000  0.24995680  1
  Ho  Ho0  1  0.00000000  -0.00000000  0.00000000  1
  Cl  Cl0  1  0.00000000  -0.00000000  0.37760039  1
  Cl  Cl1  1  0.50000000  0.50000000  0.12753506  1
  Cl  Cl2  1  0.00000000  -0.00000000  0.87815472  1
  Cl  Cl3  1  0.50000000  0.50000000  0.62769621  1
  Cl  Cl4  1  0.25527538  0.74472462  0.24996498  1
  Cl  Cl5  1  0.75623255  0.24376745  0.00000000  1
  Cl  Cl6  1  0.25527538  0.74472462  0.75003502  1
  Cl  Cl7  1  0.75527164  0.24472836  0.50000000  1
  Cl  Cl8  1  0.74472462  0.74472462  0.24996498  1
  Cl  Cl9  1  0.24376745  0.24376745  0.00000000  1
  Cl  Cl10  1  0.74472462  0.74472462  0.75003502  1
  Cl  Cl11  1  0.24472836  0.24472836  0.50000000  1
  Cl  Cl12  1  0.00000000  -0.00000000  0.12184528  1
  Cl  Cl13  1  0.50000000  0.50000000  0.87246494  1
  Cl  Cl14  1  0.00000000  -0.00000000  0.62239961  1
  Cl  Cl15  1  0.50000000  0.50000000  0.37230379  1
  Cl  Cl16  1  0.74472462  0.25527538  0.24996498  1
  Cl  Cl17  1  0.24376745  0.75623255  0.00000000  1
  Cl  Cl18  1  0.74472462  0.25527538  0.75003502  1
  Cl  Cl19  1  0.24472836  0.75527164  0.50000000  1
  Cl  Cl20  1  0.25527538  0.25527538  0.24996498  1
  Cl  Cl21  1  0.75623255  0.75623255  0.00000000  1
  Cl  Cl22  1  0.25527538  0.25527538  0.75003502  1
  Cl  Cl23  1  0.75527164  0.75527164  0.50000000  1
loop_
_geom_bond_atom_site_label_1
_geom_bond_atom_site_label_2
_geom_bond_distance
_geom_bond_site_symmetry_2
Cl0 Y1 2.627394 1_555
Cl0 Na0 2.746595 1_555
Cl0 Cs7 3.794733 1_555
Cl0 Cs0 3.794733 1_555
Cl0 Cs0 3.794733 1_545
Cl0 Cs7 3.794733 1_455
Cl1 Y2 2.627869 1_555
Cl1 Na1 2.737630 1_555
Cl1 Cs1 3.794767 1_555
Cl1 Cs1 3.794767 1_565
Cl1 Cs4 3.794767 1_655
Cl1 Cs4 3.794767 1_555
Cl2 Ho0 2.615495 1_556
Cl2 Na2 2.743369 1_555
Cl2 Cs5 3.794876 1_555
Cl2 Cs5 3.794876 1_455
Cl2 Cs2 3.794876 1_545
Cl2 Cs2 3.794876 1_555
Cl3 Y0 2.626265 1_555
Cl3 Na3 2.741089 1_555
Cl3 Cs6 3.794777 1_555
Cl3 Cs3 3.794777 1_555
Cl3 Cs3 3.794777 1_565
Cl3 Cs6 3.794777 1_655
Cl4 Y2 2.626380 1_555
Cl4 Na0 2.739619 1_565
Cl4 Cs7 3.795739 1_565
Cl4 Cs0 3.795739 1_555
Cl4 Cs1 3.796677 1_565
Cl4 Cs4 3.796677 1_555
Cl5 Ho0 2.616108 1_655
Cl5 Na1 2.749883 1_555
Cl5 Cs4 3.792770 1_655
Cl5 Cs1 3.792770 1_555
Cl5 Cs2 3.792770 1_654
Cl5 Cs5 3.792770 1_554
Cl6 Y0 2.626380 1_555
Cl6 Na2 2.739619 1_565
Cl6 Cs3 3.795739 1_565
Cl6 Cs6 3.795739 1_555
Cl6 Cs5 3.796677 1_565
Cl6 Cs2 3.796677 1_555
Cl7 Y1 2.626421 1_655
Cl7 Na3 2.739571 1_555
Cl7 Cs6 3.794603 1_655
Cl7 Cs3 3.794603 1_555
Cl7 Cs7 3.794603 1_555
Cl7 Cs0 3.794603 1_655
Cl8 Y2 2.626380 1_555
Cl8 Na0 2.739619 1_665
Cl8 Cs7 3.795739 1_565
Cl8 Cs0 3.795739 1_655
Cl8 Cs1 3.796677 1_565
Cl8 Cs4 3.796677 1_655
Cl9 Ho0 2.616108 1_555
Cl9 Na1 2.749883 1_555
Cl9 Cs1 3.792770 1_555
Cl9 Cs4 3.792770 1_555
Cl9 Cs5 3.792770 1_554
Cl9 Cs2 3.792770 1_554
Cl10 Y0 2.626380 1_555
Cl10 Na2 2.739619 1_665
Cl10 Cs3 3.795739 1_565
Cl10 Cs6 3.795739 1_655
Cl10 Cs2 3.796677 1_655
Cl10 Cs5 3.796677 1_565
Cl11 Y1 2.626421 1_555
Cl11 Na3 2.739571 1_555
Cl11 Cs6 3.794603 1_555
Cl11 Cs3 3.794603 1_555
Cl11 Cs7 3.794603 1_555
Cl11 Cs0 3.794603 1_555
Cl12 Ho0 2.615495 1_555
Cl12 Na0 2.743369 1_555
Cl12 Cs1 3.794876 1_555
Cl12 Cs4 3.794876 1_545
Cl12 Cs4 3.794876 1_555
Cl12 Cs1 3.794876 1_455
Cl13 Y0 2.627869 1_555
Cl13 Na1 2.737630 1_556
Cl13 Cs2 3.794767 1_555
Cl13 Cs5 3.794767 1_565
Cl13 Cs5 3.794767 1_555
Cl13 Cs2 3.794767 1_655
Cl14 Y1 2.627394 1_555
Cl14 Na2 2.746595 1_555
Cl14 Cs6 3.794733 1_545
Cl14 Cs6 3.794733 1_555
Cl14 Cs3 3.794733 1_555
Cl14 Cs3 3.794733 1_455
Cl15 Y2 2.626265 1_555
Cl15 Na3 2.741089 1_555
Cl15 Cs7 3.794777 1_565
Cl15 Cs7 3.794777 1_555
Cl15 Cs0 3.794777 1_555
Cl15 Cs0 3.794777 1_655
Cl16 Y2 2.626380 1_555
Cl16 Na0 2.739619 1_655
Cl16 Cs0 3.795739 1_655
Cl16 Cs7 3.795739 1_555
Cl16 Cs4 3.796677 1_655
Cl16 Cs1 3.796677 1_555
Cl17 Ho0 2.616108 1_565
Cl17 Na1 2.749883 1_555
Cl17 Cs1 3.792770 1_565
Cl17 Cs4 3.792770 1_555
Cl17 Cs5 3.792770 1_564
Cl17 Cs2 3.792770 1_554
Cl18 Y0 2.626380 1_555
Cl18 Na2 2.739619 1_655
Cl18 Cs6 3.795739 1_655
Cl18 Cs3 3.795739 1_555
Cl18 Cs2 3.796677 1_655
Cl18 Cs5 3.796677 1_555
Cl19 Y1 2.626421 1_565
Cl19 Na3 2.739571 1_555
Cl19 Cs3 3.794603 1_565
Cl19 Cs6 3.794603 1_555
Cl19 Cs0 3.794603 1_555
Cl19 Cs7 3.794603 1_565
Cl20 Y2 2.626380 1_555
Cl20 Na0 2.739619 1_555
Cl20 Cs7 3.795739 1_555
Cl20 Cs0 3.795739 1_555
Cl20 Cs1 3.796677 1_555
Cl20 Cs4 3.796677 1_555
Cl21 Ho0 2.616108 1_665
Cl21 Na1 2.749883 1_555
Cl21 Cs1 3.792770 1_565
Cl21 Cs4 3.792770 1_655
Cl21 Cs2 3.792770 1_654
Cl21 Cs5 3.792770 1_564
Cl22 Y0 2.626380 1_555
Cl22 Na2 2.739619 1_555
Cl22 Cs3 3.795739 1_555
Cl22 Cs6 3.795739 1_555
Cl22 Cs5 3.796677 1_555
Cl22 Cs2 3.796677 1_555
Cl23 Y1 2.626421 1_665
Cl23 Na3 2.739571 1_555
Cl23 Cs3 3.794603 1_565
Cl23 Cs6 3.794603 1_655
Cl23 Cs7 3.794603 1_565
Cl23 Cs0 3.794603 1_655
