# generated using pymatgen
data_SrCa7Ti3Mn5O20
_symmetry_space_group_name_H-M   'P 1'
_cell_length_a   11.26728294
_cell_length_b   15.51637075
_cell_length_c   11.38834613
_cell_angle_alpha   90.09128489
_cell_angle_beta   91.34115072
_cell_angle_gamma   90.55792106
_symmetry_Int_Tables_number   1
_chemical_formula_structural   SrCa7Ti3Mn5O20
_chemical_formula_sum   'Sr4 Ca28 Ti12 Mn20 O80'
_cell_volume   1990.35116497
_cell_formula_units_Z   4
loop_
 _symmetry_equiv_pos_site_id
 _symmetry_equiv_pos_as_xyz
  1  'x, y, z'
loop_
 _atom_site_type_symbol
 _atom_site_label
 _atom_site_symmetry_multiplicity
 _atom_site_fract_x
 _atom_site_fract_y
 _atom_site_fract_z
 _atom_site_occupancy
  Sr  Sr0  1  0.98492810  0.12387345  0.53074343  1
  Sr  Sr1  1  0.51989898  0.37957671  0.99185010  1
  Sr  Sr2  1  0.24790711  0.38514923  0.26176244  1
  Sr  Sr3  1  0.23027914  0.12027469  0.22452473  1
  Ca  Ca0  1  0.97485751  0.12223522  0.02757827  1
  Ca  Ca1  1  0.97953312  0.62084207  0.53507725  1
  Ca  Ca2  1  0.97999687  0.62220141  0.01694098  1
  Ca  Ca3  1  0.54809315  0.12553731  0.47812041  1
  Ca  Ca4  1  0.54696379  0.12441424  0.97839300  1
  Ca  Ca5  1  0.54677754  0.62750080  0.47894279  1
  Ca  Ca6  1  0.55630327  0.62444447  0.97773532  1
  Ca  Ca7  1  0.51315422  0.37331634  0.49099596  1
  Ca  Ca8  1  0.52776375  0.86827446  0.98239186  1
  Ca  Ca9  1  0.51856118  0.87202681  0.47791080  1
  Ca  Ca10  1  0.95377380  0.38444130  0.01340919  1
  Ca  Ca11  1  0.95088481  0.38812132  0.51549669  1
  Ca  Ca12  1  0.95313919  0.87896681  0.00861705  1
  Ca  Ca13  1  0.95152884  0.87938261  0.50930282  1
  Ca  Ca14  1  0.24529855  0.39531038  0.71384798  1
  Ca  Ca15  1  0.24605676  0.88642938  0.27421407  1
  Ca  Ca16  1  0.24410123  0.88947401  0.75428980  1
  Ca  Ca17  1  0.73584907  0.38327402  0.26275496  1
  Ca  Ca18  1  0.74153384  0.38079803  0.76740943  1
  Ca  Ca19  1  0.73586931  0.85944859  0.24815581  1
  Ca  Ca20  1  0.73157248  0.86109723  0.74865579  1
  Ca  Ca21  1  0.23276517  0.11633621  0.74327887  1
  Ca  Ca22  1  0.23114846  0.62080758  0.21973991  1
  Ca  Ca23  1  0.21572814  0.61521124  0.73324937  1
  Ca  Ca24  1  0.75474213  0.12472355  0.24920732  1
  Ca  Ca25  1  0.75525839  0.12643641  0.75114199  1
  Ca  Ca26  1  0.77389087  0.61779208  0.25082651  1
  Ca  Ca27  1  0.76909883  0.61579071  0.75152929  1
  Ti  Ti0  1  0.98113919  0.99394005  0.26592963  1
  Ti  Ti1  1  0.98083911  0.99496192  0.76804736  1
  Ti  Ti2  1  -0.00017986  0.50084637  0.26987051  1
  Ti  Ti3  1  0.24152902  0.96647144  0.02271670  1
  Ti  Ti4  1  0.23673428  0.97869216  0.52122243  1
  Ti  Ti5  1  0.24169180  0.47381915  0.01314279  1
  Ti  Ti6  1  0.26123428  0.24839258  0.93999544  1
  Ti  Ti7  1  0.26782771  0.23412333  0.45674425  1
  Ti  Ti8  1  0.26455494  0.73809707  0.94388082  1
  Ti  Ti9  1  0.98747106  0.25565692  0.27928205  1
  Ti  Ti10  1  0.99710901  0.25701117  0.78249415  1
  Ti  Ti11  1  0.00517219  0.75208551  0.27756356  1
  Mn  Mn0  1  0.99131173  0.49556801  0.75852246  1
  Mn  Mn1  1  0.50333724  0.98948562  0.22472255  1
  Mn  Mn2  1  0.50014418  0.99095988  0.72817892  1
  Mn  Mn3  1  0.50337480  0.50682930  0.23774177  1
  Mn  Mn4  1  0.49135373  0.49480763  0.72601742  1
  Mn  Mn5  1  0.22694071  0.52535069  0.50489278  1
  Mn  Mn6  1  0.74312089  0.00021909  0.99261984  1
  Mn  Mn7  1  0.74016425  0.00005480  0.49372682  1
  Mn  Mn8  1  0.75349336  0.50355660  0.00361773  1
  Mn  Mn9  1  0.74028070  0.50280519  0.50370235  1
  Mn  Mn10  1  0.27545491  0.73306683  0.44450760  1
  Mn  Mn11  1  0.74711930  0.25010343  0.00727983  1
  Mn  Mn12  1  0.74295264  0.25125360  0.50608132  1
  Mn  Mn13  1  0.75458155  0.74881255  0.99783540  1
  Mn  Mn14  1  0.75162358  0.74979524  0.50088036  1
  Mn  Mn15  1  0.99234964  0.75556207  0.77021034  1
  Mn  Mn16  1  0.50607742  0.25348549  0.25357684  1
  Mn  Mn17  1  0.50089588  0.25465187  0.75177406  1
  Mn  Mn18  1  0.50933432  0.74149541  0.24704910  1
  Mn  Mn19  1  0.49599708  0.74653155  0.74827634  1
  O  O0  1  0.57122569  0.24604041  0.09348312  1
  O  O1  1  0.57044104  0.25196011  0.59191588  1
  O  O2  1  0.60117234  0.75645893  0.09376881  1
  O  O3  1  0.55391424  0.75371194  0.58347402  1
  O  O4  1  0.38959728  0.18678865  0.36919214  1
  O  O5  1  0.38582843  0.18909464  0.87591628  1
  O  O6  1  0.39971565  0.65971668  0.33882815  1
  O  O7  1  0.39366393  0.68377252  0.88354826  1
  O  O8  1  0.91015172  0.24454057  0.41173247  1
  O  O9  1  0.91917937  0.23821497  0.91533022  1
  O  O10  1  0.93396481  0.73850150  0.41572824  1
  O  O11  1  0.90942293  0.74415617  0.92541846  1
  O  O12  1  0.16092429  0.24623629  0.33025291  1
  O  O13  1  0.17622187  0.25850607  0.80049144  1
  O  O14  1  0.17533660  0.75211078  0.28715330  1
  O  O15  1  0.18253298  0.75263687  0.80665795  1
  O  O16  1  0.65567447  0.23057549  0.34632640  1
  O  O17  1  0.65542556  0.23682023  0.84478008  1
  O  O18  1  0.66516765  0.72715127  0.34814171  1
  O  O19  1  0.65268706  0.72350140  0.83874653  1
  O  O20  1  0.87444470  0.27119169  0.15963842  1
  O  O21  1  0.89002853  0.26514318  0.65769074  1
  O  O22  1  0.88840973  0.78034905  0.16674930  1
  O  O23  1  0.85781646  0.77876313  0.64322078  1
  O  O24  1  0.35778881  0.52160113  0.11180661  1
  O  O25  1  0.34641427  0.52021329  0.64161070  1
  O  O26  1  0.35364701  0.01616791  0.11940175  1
  O  O27  1  0.34666284  0.01910166  0.63302687  1
  O  O28  1  0.86988159  0.48035147  0.16365970  1
  O  O29  1  0.83863660  0.47730433  0.64786163  1
  O  O30  1  0.86055135  0.97191228  0.16494897  1
  O  O31  1  0.85879764  0.97712555  0.66644803  1
  O  O32  1  0.20014709  0.01398327  0.37250314  1
  O  O33  1  0.22514029  0.00646530  0.87592740  1
  O  O34  1  0.16641101  0.51322853  0.33908607  1
  O  O35  1  0.21472607  0.50215941  0.86345139  1
  O  O36  1  0.62609346  0.03166333  0.33934084  1
  O  O37  1  0.62887765  0.03363497  0.83841646  1
  O  O38  1  0.64835136  0.52504533  0.35142869  1
  O  O39  1  0.62159426  0.51602762  0.83946042  1
  O  O40  1  0.89722357  0.01169365  0.40310205  1
  O  O41  1  0.89953619  0.01327094  0.90827878  1
  O  O42  1  0.91272437  0.51600933  0.40073957  1
  O  O43  1  0.89562049  0.51224626  0.90158495  1
  O  O44  1  0.10806674  0.47575138  0.09815731  1
  O  O45  1  0.09275628  0.47761273  0.61851020  1
  O  O46  1  0.10779339  0.97571676  0.11138130  1
  O  O47  1  0.10396160  0.96985175  0.61182904  1
  O  O48  1  0.61172526  0.50062984  0.09944054  1
  O  O49  1  0.57884304  0.49862230  0.58643447  1
  O  O50  1  0.59775854  0.98742801  0.07799740  1
  O  O51  1  0.59447291  0.98607021  0.58050701  1
  O  O52  1  0.01924042  0.37581799  0.29437062  1
  O  O53  1  0.01195582  0.37563482  0.80746056  1
  O  O54  1  0.02993518  0.88321834  0.31151257  1
  O  O55  1  0.03394438  0.88756321  0.81394161  1
  O  O56  1  0.46745061  0.38183309  0.29080753  1
  O  O57  1  0.44099428  0.37744000  0.78580523  1
  O  O58  1  0.45674488  0.86700270  0.28126982  1
  O  O59  1  0.44900880  0.87192895  0.79360607  1
  O  O60  1  0.00153249  0.12274992  0.23616925  1
  O  O61  1  0.02052639  0.11868791  0.75070196  1
  O  O62  1  0.00379786  0.62737609  0.22748374  1
  O  O63  1  0.99734504  0.62078038  0.73919227  1
  O  O64  1  0.17523403  0.18126083  0.03120566  1
  O  O65  1  0.20057003  0.16139170  0.55753992  1
  O  O66  1  0.18167242  0.66553255  0.03038447  1
  O  O67  1  0.18281012  0.65292457  0.54327406  1
  O  O68  1  0.75887417  0.12121373  0.04171511  1
  O  O69  1  0.75267153  0.12247774  0.54331341  1
  O  O70  1  0.76586909  0.62761598  0.04206117  1
  O  O71  1  0.75764423  0.62814227  0.54358707  1
  O  O72  1  0.30067513  0.34084303  0.51489001  1
  O  O73  1  0.28724568  0.35451522  0.02067869  1
  O  O74  1  0.28924279  0.86755341  0.49370422  1
  O  O75  1  0.28863860  0.85019438  0.01387337  1
  O  O76  1  0.74145962  0.37926207  0.46733869  1
  O  O77  1  0.74809853  0.37914900  0.97439749  1
  O  O78  1  0.74427615  0.87395333  0.45557755  1
  O  O79  1  0.74405243  0.87456846  0.95689429  1
loop_
_geom_bond_atom_site_label_1
_geom_bond_atom_site_label_2
_geom_bond_distance
_geom_bond_site_symmetry_2
Ca0 O9 2.293020 1_554
Ca0 O41 2.309854 1_554
Ca0 O60 2.387446 1_655
Ca0 O64 2.427542 1_655
Ca0 O68 2.442521 1_555
Ca0 O46 2.886025 1_645
Ca0 O20 3.000552 1_555
Ca1 O63 2.328498 1_555
Ca1 O10 2.331842 1_555
Ca1 O42 2.338248 1_555
Ca1 O67 2.338803 1_655
Ca1 O71 2.507881 1_555
Ca1 O45 2.733958 1_655
Ca2 O11 2.301358 1_554
Ca2 O43 2.333080 1_554
Ca2 O66 2.364873 1_655
Ca2 O62 2.407563 1_655
Ca2 O70 2.438422 1_555
Ca2 O44 2.847715 1_655
Ca2 O63 3.173750 1_554
Ca3 O36 2.339768 1_555
Ca3 O1 2.357507 1_555
Ca3 O4 2.358895 1_555
Ca3 O69 2.405998 1_555
Ca3 O51 2.513406 1_545
Ca3 O16 2.536301 1_555
Ca4 O0 2.306391 1_556
Ca4 O37 2.337537 1_555
Ca4 O5 2.367591 1_555
Ca4 O50 2.476512 1_546
Ca4 O68 2.478955 1_556
Ca4 O17 2.627700 1_555
Ca4 O26 3.200818 1_556
Ca5 O3 2.289918 1_555
Ca5 O6 2.331644 1_555
Ca5 O49 2.372584 1_555
Ca5 O38 2.460028 1_555
Ca5 O71 2.470747 1_555
Ca5 O18 2.539543 1_555
Ca6 O7 2.302178 1_555
Ca6 O39 2.433257 1_555
Ca6 O48 2.448094 1_556
Ca6 O70 2.455843 1_556
Ca6 O19 2.470400 1_555
Ca6 O2 2.477413 1_556
Ca6 O24 3.158914 1_556
Ca7 O1 2.297630 1_555
Ca7 O56 2.329706 1_555
Ca7 O49 2.331734 1_555
Ca7 O72 2.463108 1_555
Ca7 O76 2.593481 1_555
Ca8 O50 2.269494 1_556
Ca8 O2 2.299768 1_556
Ca8 O59 2.307595 1_555
Ca8 O79 2.461978 1_555
Ca8 O75 2.738112 1_556
Ca9 O3 2.230026 1_555
Ca9 O51 2.268294 1_555
Ca9 O58 2.330568 1_555
Ca9 O78 2.561687 1_555
Ca9 O74 2.594507 1_555
Ca10 O77 2.349991 1_554
Ca10 O44 2.414582 1_655
Ca10 O43 2.444988 1_554
Ca10 O53 2.453994 1_654
Ca10 O28 2.476089 1_555
Ca10 O9 2.549856 1_554
Ca10 O20 2.590062 1_555
Ca11 O45 2.392377 1_655
Ca11 O76 2.412573 1_555
Ca11 O42 2.414351 1_555
Ca11 O29 2.429697 1_555
Ca11 O8 2.552782 1_555
Ca11 O21 2.601912 1_555
Ca11 O52 2.657702 1_655
Ca12 O11 2.338300 1_554
Ca12 O79 2.415240 1_554
Ca12 O55 2.419713 1_654
Ca12 O41 2.452139 1_564
Ca12 O22 2.482950 1_555
Ca12 O30 2.538881 1_555
Ca12 O46 2.551015 1_655
Ca13 O78 2.400752 1_555
Ca13 O10 2.434648 1_555
Ca13 O23 2.434994 1_555
Ca13 O54 2.439326 1_655
Ca13 O40 2.459604 1_565
Ca13 O47 2.477416 1_655
Ca13 O31 2.589263 1_555
Ca14 O57 2.353363 1_555
Ca14 O45 2.392386 1_555
Ca14 O25 2.395147 1_555
Ca14 O35 2.408242 1_555
Ca14 O13 2.468951 1_555
Ca14 O72 2.511526 1_555
Ca14 O53 2.873802 1_555
Ca15 O14 2.230337 1_555
Ca15 O32 2.340434 1_565
Ca15 O58 2.395354 1_555
Ca15 O54 2.481685 1_555
Ca15 O74 2.553208 1_555
Ca15 O46 2.774897 1_555
Ca15 O26 2.948593 1_565
Ca15 O75 3.066458 1_555
Ca16 O33 2.296344 1_565
Ca16 O15 2.310772 1_555
Ca16 O59 2.359907 1_555
Ca16 O55 2.478570 1_555
Ca16 O47 2.570154 1_555
Ca16 O27 2.706719 1_565
Ca16 O74 3.041722 1_555
Ca17 O76 2.330196 1_555
Ca17 O28 2.421577 1_555
Ca17 O38 2.629161 1_555
Ca17 O20 2.640901 1_555
Ca17 O16 2.709485 1_555
Ca17 O48 2.944402 1_555
Ca17 O56 3.048246 1_555
Ca18 O29 2.310233 1_555
Ca18 O77 2.356868 1_555
Ca18 O17 2.590863 1_555
Ca18 O39 2.646496 1_555
Ca18 O21 2.780330 1_555
Ca18 O53 3.072133 1_655
Ca19 O22 2.330638 1_555
Ca19 O78 2.372127 1_555
Ca19 O30 2.436479 1_555
Ca19 O18 2.482563 1_555
Ca19 O2 2.786974 1_555
Ca19 O36 3.140741 1_565
Ca19 O50 3.170378 1_555
Ca19 O58 3.179524 1_555
Ca20 O23 2.282012 1_555
Ca20 O79 2.381108 1_555
Ca20 O31 2.488074 1_555
Ca20 O19 2.532496 1_555
Ca20 O37 3.107727 1_565
Ca20 O51 3.121717 1_555
Ca20 O3 3.173442 1_555
Ca21 O65 2.251307 1_555
Ca21 O33 2.281929 1_555
Ca21 O27 2.367860 1_555
Ca21 O61 2.395455 1_555
Ca21 O13 2.395598 1_555
Ca21 O5 2.522928 1_555
Ca22 O14 2.275569 1_555
Ca22 O34 2.279391 1_555
Ca22 O66 2.323498 1_555
Ca22 O6 2.380255 1_555
Ca22 O24 2.456680 1_555
Ca22 O62 2.568212 1_555
Ca22 O44 2.957303 1_555
Ca23 O67 2.265269 1_555
Ca23 O35 2.298809 1_555
Ca23 O15 2.325980 1_555
Ca23 O25 2.353586 1_555
Ca23 O63 2.465449 1_455
Ca23 O7 2.805877 1_555
Ca23 O45 2.834486 1_555
Ca24 O16 2.292282 1_555
Ca24 O36 2.296384 1_555
Ca24 O68 2.365092 1_555
Ca24 O60 2.788549 1_655
Ca24 O20 2.834887 1_555
Ca24 O30 2.839967 1_545
Ca24 O40 2.942389 1_555
Ca24 O8 3.118049 1_555
Ca25 O37 2.262710 1_555
Ca25 O17 2.328912 1_555
Ca25 O69 2.367013 1_555
Ca25 O31 2.785113 1_545
Ca25 O21 2.844264 1_555
Ca25 O41 2.976192 1_555
Ca25 O61 2.992557 1_655
Ca25 O9 3.111468 1_555
Ca26 O38 2.329346 1_555
Ca26 O70 2.382276 1_555
Ca26 O18 2.388780 1_555
Ca26 O28 2.606053 1_555
Ca26 O62 2.613036 1_655
Ca26 O42 2.790623 1_555
Ca26 O22 2.990960 1_555
Ca26 O48 3.064895 1_555
Ca26 O10 3.170516 1_555
Ca27 O19 2.366123 1_555
Ca27 O71 2.376761 1_555
Ca27 O39 2.488749 1_555
Ca27 O63 2.579248 1_555
Ca27 O29 2.587097 1_555
Ca27 O43 2.733695 1_555
Ca27 O23 2.988910 1_555
Mn0 O63 1.956325 1_555
Mn0 O53 1.957915 1_655
Mn0 O43 1.992536 1_555
Mn0 O45 2.004154 1_655
Mn0 O29 2.124997 1_555
Mn1 O36 1.985025 1_565
Mn1 O50 2.002160 1_555
Mn1 O58 2.074238 1_555
Mn1 O26 2.091686 1_565
Mn2 O37 2.002956 1_565
Mn2 O51 2.012073 1_555
Mn2 O27 2.069769 1_565
Mn2 O59 2.074136 1_555
Mn3 O48 2.017957 1_555
Mn3 O56 2.071367 1_555
Mn3 O38 2.077328 1_555
Mn3 O24 2.167594 1_555
Mn4 O49 1.890673 1_555
Mn4 O25 1.920051 1_555
Mn4 O39 1.957398 1_555
Mn4 O57 2.025821 1_555
Mn5 O34 2.000535 1_555
Mn5 O25 2.036430 1_555
Mn5 O67 2.093618 1_555
Mn5 O45 2.140449 1_555
Mn6 O50 1.932905 1_546
Mn6 O68 1.963226 1_556
Mn6 O79 1.991184 1_545
Mn6 O41 2.035303 1_555
Mn6 O37 2.218061 1_555
Mn6 O30 2.384881 1_546
Mn7 O51 1.946316 1_545
Mn7 O69 1.983614 1_555
Mn7 O78 2.004826 1_545
Mn7 O40 2.075870 1_555
Mn7 O36 2.212005 1_555
Mn7 O31 2.381348 1_545
Mn8 O48 1.955699 1_555
Mn8 O77 1.958423 1_554
Mn8 O70 1.976306 1_555
Mn8 O43 2.004052 1_554
Mn8 O28 2.251817 1_555
Mn8 O39 2.370174 1_554
Mn9 O76 1.960755 1_555
Mn9 O29 2.001354 1_555
Mn9 O71 2.003088 1_555
Mn9 O38 2.030763 1_555
Mn9 O49 2.068494 1_555
Mn9 O42 2.300372 1_555
Mn10 O67 1.983747 1_555
Mn10 O14 2.117705 1_555
Mn10 O74 2.162966 1_555
Mn10 O6 2.193069 1_555
Mn11 O77 2.037593 1_554
Mn11 O68 2.043565 1_555
Mn11 O17 2.107066 1_554
Mn11 O0 2.232549 1_555
Mn11 O9 2.233898 1_554
Mn11 O20 2.246847 1_555
Mn12 O76 2.035472 1_555
Mn12 O69 2.046730 1_555
Mn12 O16 2.070810 1_555
Mn12 O8 2.193757 1_555
Mn12 O1 2.196153 1_555
Mn12 O21 2.373096 1_555
Mn13 O11 1.949040 1_555
Mn13 O70 1.952158 1_556
Mn13 O79 2.010910 1_555
Mn13 O2 2.070602 1_556
Mn13 O19 2.155544 1_555
Mn13 O22 2.461794 1_556
Mn14 O71 1.951436 1_555
Mn14 O78 1.997158 1_555
Mn14 O18 2.002520 1_555
Mn14 O23 2.039063 1_555
Mn14 O10 2.300385 1_555
Mn14 O3 2.439545 1_555
Mn15 O11 2.025763 1_555
Mn15 O23 2.104396 1_555
Mn15 O63 2.121898 1_555
Mn15 O55 2.151706 1_655
Mn15 O15 2.174045 1_655
Mn16 O0 1.984908 1_555
Mn16 O16 2.003165 1_555
Mn16 O56 2.087593 1_555
Mn16 O4 2.141455 1_555
Mn17 O1 1.999304 1_555
Mn17 O17 2.038123 1_555
Mn17 O57 2.066531 1_555
Mn17 O5 2.186111 1_555
Mn18 O2 2.062271 1_555
Mn18 O6 2.064513 1_555
Mn18 O58 2.079972 1_555
Mn18 O18 2.090856 1_555
Mn19 O3 2.004325 1_555
Mn19 O19 2.057771 1_555
Mn19 O59 2.088598 1_555
Mn19 O7 2.171864 1_555
O0 Sr1 2.442727 1_554
O4 Ti7 1.870117 1_555
O4 Sr3 2.611868 1_555
O5 Ti6 1.849551 1_555
O7 Ti8 1.835102 1_555
O8 Ti9 1.767304 1_555
O8 Sr0 2.457176 1_555
O9 Ti10 1.789735 1_555
O10 Ti11 1.794656 1_655
O12 Ti7 1.866906 1_555
O12 Ti9 2.032367 1_455
O12 Sr3 2.438578 1_555
O12 Sr2 2.492943 1_555
O12 O52 2.606283 1_555
O13 Ti6 1.843539 1_555
O13 Ti10 2.023622 1_455
O13 O53 2.608983 1_555
O14 Ti11 1.917841 1_555
O15 Ti8 1.812379 1_555
O20 Ti9 1.860706 1_555
O21 Ti10 1.847958 1_555
O21 Sr0 2.854149 1_555
O22 Ti11 1.857692 1_655
O24 Ti5 1.852828 1_555
O24 Sr2 2.998560 1_555
O24 Sr1 3.200689 1_554
O26 Ti3 1.821001 1_545
O26 Sr3 2.467841 1_555
O27 Ti4 1.859295 1_545
O28 Ti2 1.901169 1_655
O30 Ti0 1.789399 1_555
O31 Ti1 1.795349 1_555
O31 Sr0 3.105445 1_565
O32 Ti4 1.820157 1_545
O32 Sr3 2.387477 1_555
O33 Ti3 1.790201 1_546
O34 Ti2 2.026010 1_555
O34 Sr2 2.374000 1_555
O35 Ti5 1.781167 1_556
O39 Sr1 2.977407 1_555
O40 Ti0 1.866297 1_545
O40 Sr0 2.451635 1_555
O41 Ti1 1.882128 1_545
O42 Ti2 1.819739 1_655
O44 Ti5 1.809444 1_555
O44 Ti2 2.362566 1_555
O44 Sr2 2.800794 1_555
O46 Ti3 1.840024 1_555
O46 Ti0 2.310420 1_455
O46 Sr3 2.905732 1_565
O47 Ti4 1.841261 1_555
O47 Ti1 2.316293 1_455
O47 Sr0 2.893855 1_465
O48 Sr1 2.448525 1_554
O52 Ti9 1.901837 1_455
O52 Ti2 1.973933 1_555
O52 Sr2 2.614320 1_555
O53 Ti10 1.867291 1_455
O54 Ti0 1.879137 1_455
O54 Ti11 2.085363 1_555
O55 Ti1 1.848180 1_455
O56 Sr2 2.489032 1_555
O57 Sr1 2.489805 1_555
O60 Ti0 2.039405 1_445
O60 Ti9 2.127382 1_455
O60 Sr3 2.584516 1_555
O61 Ti1 1.978169 1_445
O61 Ti10 2.195501 1_455
O61 Sr0 2.529117 1_455
O62 Ti11 2.016276 1_555
O62 Ti2 2.022824 1_555
O64 Ti6 1.770263 1_554
O64 Sr3 2.466016 1_555
O65 Ti7 1.787098 1_555
O65 Sr0 2.504523 1_455
O66 Ti8 1.771000 1_554
O69 Sr0 2.624037 1_555
O72 Ti7 1.813994 1_555
O72 Sr2 3.011667 1_555
O73 Ti6 1.901255 1_554
O73 Ti5 1.927321 1_555
O73 Sr1 2.674215 1_554
O73 Sr2 2.831488 1_555
O74 Ti4 1.857110 1_555
O75 Ti3 1.888807 1_555
O75 Ti8 1.926287 1_554
O77 Sr1 2.583566 1_555
