# generated using pymatgen
data_Ta3B2Ru5
_symmetry_space_group_name_H-M   'P 1'
_cell_length_a   18.81306982
_cell_length_b   18.81306982
_cell_length_c   5.99426076
_cell_angle_alpha   90.00000000
_cell_angle_beta   90.00000000
_cell_angle_gamma   90.00000000
_symmetry_Int_Tables_number   1
_chemical_formula_structural   Ta3B2Ru5
_chemical_formula_sum   'Ta48 B32 Ru80'
_cell_volume   2121.55827794
_cell_formula_units_Z   16
loop_
 _symmetry_equiv_pos_site_id
 _symmetry_equiv_pos_as_xyz
  1  'x, y, z'
loop_
 _atom_site_type_symbol
 _atom_site_label
 _atom_site_symmetry_multiplicity
 _atom_site_fract_x
 _atom_site_fract_y
 _atom_site_fract_z
 _atom_site_occupancy
  Ta  Ta0_0  1  0.41189476  0.33810524  0.00000000  1
  Ta  Ta0_1  1  0.41189476  0.33810524  0.50000000  1
  Ta  Ta0_2  1  0.41189476  0.83810524  0.00000000  1
  Ta  Ta0_3  1  0.41189476  0.83810524  0.50000000  1
  Ta  Ta0_4  1  0.91189476  0.33810524  0.00000000  1
  Ta  Ta0_5  1  0.91189476  0.33810524  0.50000000  1
  Ta  Ta0_6  1  0.91189476  0.83810524  0.00000000  1
  Ta  Ta0_7  1  0.91189476  0.83810524  0.50000000  1
  Ta  Ta1_0  1  0.08810524  0.16189476  0.00000000  1
  Ta  Ta1_1  1  0.08810524  0.16189476  0.50000000  1
  Ta  Ta1_2  1  0.08810524  0.66189476  0.00000000  1
  Ta  Ta1_3  1  0.08810524  0.66189476  0.50000000  1
  Ta  Ta1_4  1  0.58810524  0.16189476  0.00000000  1
  Ta  Ta1_5  1  0.58810524  0.16189476  0.50000000  1
  Ta  Ta1_6  1  0.58810524  0.66189476  0.00000000  1
  Ta  Ta1_7  1  0.58810524  0.66189476  0.50000000  1
  Ta  Ta2_0  1  0.16189476  0.41189476  0.00000000  1
  Ta  Ta2_1  1  0.16189476  0.41189476  0.50000000  1
  Ta  Ta2_2  1  0.16189476  0.91189476  0.00000000  1
  Ta  Ta2_3  1  0.16189476  0.91189476  0.50000000  1
  Ta  Ta2_4  1  0.66189476  0.41189476  0.00000000  1
  Ta  Ta2_5  1  0.66189476  0.41189476  0.50000000  1
  Ta  Ta2_6  1  0.66189476  0.91189476  0.00000000  1
  Ta  Ta2_7  1  0.66189476  0.91189476  0.50000000  1
  Ta  Ta3_0  1  0.33810524  0.08810524  0.00000000  1
  Ta  Ta3_1  1  0.33810524  0.08810524  0.50000000  1
  Ta  Ta3_2  1  0.33810524  0.58810524  0.00000000  1
  Ta  Ta3_3  1  0.33810524  0.58810524  0.50000000  1
  Ta  Ta3_4  1  0.83810524  0.08810524  0.00000000  1
  Ta  Ta3_5  1  0.83810524  0.08810524  0.50000000  1
  Ta  Ta3_6  1  0.83810524  0.58810524  0.00000000  1
  Ta  Ta3_7  1  0.83810524  0.58810524  0.50000000  1
  Ta  Ta4_0  1  0.25000000  0.25000000  0.00000000  1
  Ta  Ta4_1  1  0.25000000  0.25000000  0.50000000  1
  Ta  Ta4_2  1  0.25000000  0.75000000  0.00000000  1
  Ta  Ta4_3  1  0.25000000  0.75000000  0.50000000  1
  Ta  Ta4_4  1  0.75000000  0.25000000  0.00000000  1
  Ta  Ta4_5  1  0.75000000  0.25000000  0.50000000  1
  Ta  Ta4_6  1  0.75000000  0.75000000  0.00000000  1
  Ta  Ta4_7  1  0.75000000  0.75000000  0.50000000  1
  Ta  Ta5_0  1  0.00000000  0.00000000  0.00000000  1
  Ta  Ta5_1  1  0.00000000  0.00000000  0.50000000  1
  Ta  Ta5_2  1  0.00000000  0.50000000  0.00000000  1
  Ta  Ta5_3  1  0.00000000  0.50000000  0.50000000  1
  Ta  Ta5_4  1  0.50000000  0.00000000  0.00000000  1
  Ta  Ta5_5  1  0.50000000  0.00000000  0.50000000  1
  Ta  Ta5_6  1  0.50000000  0.50000000  0.00000000  1
  Ta  Ta5_7  1  0.50000000  0.50000000  0.50000000  1
  B  B0_0  1  0.31067509  0.43932491  0.00000000  1
  B  B0_1  1  0.31067509  0.43932491  0.50000000  1
  B  B0_2  1  0.31067509  0.93932491  0.00000000  1
  B  B0_3  1  0.31067509  0.93932491  0.50000000  1
  B  B0_4  1  0.81067508  0.43932491  0.00000000  1
  B  B0_5  1  0.81067508  0.43932491  0.50000000  1
  B  B0_6  1  0.81067508  0.93932491  0.00000000  1
  B  B0_7  1  0.81067508  0.93932491  0.50000000  1
  B  B1_0  1  0.18932492  0.06067509  0.00000000  1
  B  B1_1  1  0.18932492  0.06067509  0.50000000  1
  B  B1_2  1  0.18932492  0.56067508  0.00000000  1
  B  B1_3  1  0.18932492  0.56067508  0.50000000  1
  B  B1_4  1  0.68932492  0.06067509  0.00000000  1
  B  B1_5  1  0.68932492  0.06067509  0.50000000  1
  B  B1_6  1  0.68932492  0.56067508  0.00000000  1
  B  B1_7  1  0.68932492  0.56067508  0.50000000  1
  B  B2_0  1  0.06067509  0.31067509  0.00000000  1
  B  B2_1  1  0.06067509  0.31067509  0.50000000  1
  B  B2_2  1  0.06067509  0.81067508  0.00000000  1
  B  B2_3  1  0.06067509  0.81067508  0.50000000  1
  B  B2_4  1  0.56067508  0.31067509  0.00000000  1
  B  B2_5  1  0.56067508  0.31067509  0.50000000  1
  B  B2_6  1  0.56067508  0.81067508  0.00000000  1
  B  B2_7  1  0.56067508  0.81067508  0.50000000  1
  B  B3_0  1  0.43932491  0.18932492  0.00000000  1
  B  B3_1  1  0.43932491  0.18932492  0.50000000  1
  B  B3_2  1  0.43932491  0.68932492  0.00000000  1
  B  B3_3  1  0.43932491  0.68932492  0.50000000  1
  B  B3_4  1  0.93932491  0.18932492  0.00000000  1
  B  B3_5  1  0.93932491  0.18932492  0.50000000  1
  B  B3_6  1  0.93932491  0.68932492  0.00000000  1
  B  B3_7  1  0.93932491  0.68932492  0.50000000  1
  Ru  Ru0_0  1  0.28563375  0.35913425  0.25000000  1
  Ru  Ru0_1  1  0.28563375  0.35913425  0.75000000  1
  Ru  Ru0_2  1  0.28563375  0.85913425  0.25000000  1
  Ru  Ru0_3  1  0.28563375  0.85913425  0.75000000  1
  Ru  Ru0_4  1  0.78563375  0.35913425  0.25000000  1
  Ru  Ru0_5  1  0.78563375  0.35913425  0.75000000  1
  Ru  Ru0_6  1  0.78563375  0.85913425  0.25000000  1
  Ru  Ru0_7  1  0.78563375  0.85913425  0.75000000  1
  Ru  Ru1_0  1  0.21436625  0.14086576  0.25000000  1
  Ru  Ru1_1  1  0.21436625  0.14086576  0.75000000  1
  Ru  Ru1_2  1  0.21436625  0.64086575  0.25000000  1
  Ru  Ru1_3  1  0.21436625  0.64086575  0.75000000  1
  Ru  Ru1_4  1  0.71436625  0.14086576  0.25000000  1
  Ru  Ru1_5  1  0.71436625  0.14086576  0.75000000  1
  Ru  Ru1_6  1  0.71436625  0.64086575  0.25000000  1
  Ru  Ru1_7  1  0.71436625  0.64086575  0.75000000  1
  Ru  Ru2_0  1  0.03563375  0.39086575  0.25000000  1
  Ru  Ru2_1  1  0.03563375  0.39086575  0.75000000  1
  Ru  Ru2_2  1  0.03563375  0.89086575  0.25000000  1
  Ru  Ru2_3  1  0.03563375  0.89086575  0.75000000  1
  Ru  Ru2_4  1  0.53563375  0.39086575  0.25000000  1
  Ru  Ru2_5  1  0.53563375  0.39086575  0.75000000  1
  Ru  Ru2_6  1  0.53563375  0.89086575  0.25000000  1
  Ru  Ru2_7  1  0.53563375  0.89086575  0.75000000  1
  Ru  Ru3_0  1  0.46436624  0.10913425  0.25000000  1
  Ru  Ru3_1  1  0.46436624  0.10913425  0.75000000  1
  Ru  Ru3_2  1  0.46436624  0.60913425  0.25000000  1
  Ru  Ru3_3  1  0.46436624  0.60913425  0.75000000  1
  Ru  Ru3_4  1  0.96436625  0.10913425  0.25000000  1
  Ru  Ru3_5  1  0.96436625  0.10913425  0.75000000  1
  Ru  Ru3_6  1  0.96436625  0.60913425  0.25000000  1
  Ru  Ru3_7  1  0.96436625  0.60913425  0.75000000  1
  Ru  Ru4_0  1  0.14086576  0.28563375  0.25000000  1
  Ru  Ru4_1  1  0.14086576  0.28563375  0.75000000  1
  Ru  Ru4_2  1  0.14086576  0.78563375  0.25000000  1
  Ru  Ru4_3  1  0.14086576  0.78563375  0.75000000  1
  Ru  Ru4_4  1  0.64086575  0.28563375  0.25000000  1
  Ru  Ru4_5  1  0.64086575  0.28563375  0.75000000  1
  Ru  Ru4_6  1  0.64086575  0.78563375  0.25000000  1
  Ru  Ru4_7  1  0.64086575  0.78563375  0.75000000  1
  Ru  Ru5_0  1  0.35913425  0.21436625  0.25000000  1
  Ru  Ru5_1  1  0.35913425  0.21436625  0.75000000  1
  Ru  Ru5_2  1  0.35913425  0.71436625  0.25000000  1
  Ru  Ru5_3  1  0.35913425  0.71436625  0.75000000  1
  Ru  Ru5_4  1  0.85913425  0.21436625  0.25000000  1
  Ru  Ru5_5  1  0.85913425  0.21436625  0.75000000  1
  Ru  Ru5_6  1  0.85913425  0.71436625  0.25000000  1
  Ru  Ru5_7  1  0.85913425  0.71436625  0.75000000  1
  Ru  Ru6_0  1  0.10913425  0.03563375  0.25000000  1
  Ru  Ru6_1  1  0.10913425  0.03563375  0.75000000  1
  Ru  Ru6_2  1  0.10913425  0.53563375  0.25000000  1
  Ru  Ru6_3  1  0.10913425  0.53563375  0.75000000  1
  Ru  Ru6_4  1  0.60913425  0.03563375  0.25000000  1
  Ru  Ru6_5  1  0.60913425  0.03563375  0.75000000  1
  Ru  Ru6_6  1  0.60913425  0.53563375  0.25000000  1
  Ru  Ru6_7  1  0.60913425  0.53563375  0.75000000  1
  Ru  Ru7_0  1  0.39086575  0.46436624  0.25000000  1
  Ru  Ru7_1  1  0.39086575  0.46436624  0.75000000  1
  Ru  Ru7_2  1  0.39086575  0.96436625  0.25000000  1
  Ru  Ru7_3  1  0.39086575  0.96436625  0.75000000  1
  Ru  Ru7_4  1  0.89086575  0.46436624  0.25000000  1
  Ru  Ru7_5  1  0.89086575  0.46436624  0.75000000  1
  Ru  Ru7_6  1  0.89086575  0.96436625  0.25000000  1
  Ru  Ru7_7  1  0.89086575  0.96436625  0.75000000  1
  Ru  Ru8_0  1  0.25000000  0.00000000  0.25000000  1
  Ru  Ru8_1  1  0.25000000  0.00000000  0.75000000  1
  Ru  Ru8_2  1  0.25000000  0.50000000  0.25000000  1
  Ru  Ru8_3  1  0.25000000  0.50000000  0.75000000  1
  Ru  Ru8_4  1  0.75000000  0.00000000  0.25000000  1
  Ru  Ru8_5  1  0.75000000  0.00000000  0.75000000  1
  Ru  Ru8_6  1  0.75000000  0.50000000  0.25000000  1
  Ru  Ru8_7  1  0.75000000  0.50000000  0.75000000  1
  Ru  Ru9_0  1  0.00000000  0.25000000  0.25000000  1
  Ru  Ru9_1  1  0.00000000  0.25000000  0.75000000  1
  Ru  Ru9_2  1  0.00000000  0.75000000  0.25000000  1
  Ru  Ru9_3  1  0.00000000  0.75000000  0.75000000  1
  Ru  Ru9_4  1  0.50000000  0.25000000  0.25000000  1
  Ru  Ru9_5  1  0.50000000  0.25000000  0.75000000  1
  Ru  Ru9_6  1  0.50000000  0.75000000  0.25000000  1
  Ru  Ru9_7  1  0.50000000  0.75000000  0.75000000  1
loop_
_geom_bond_atom_site_label_1
_geom_bond_atom_site_label_2
_geom_bond_distance
_geom_bond_site_symmetry_2
Ta0_0 Ta0_1 2.997130 1_554
Ta0_0 Ta0_1 2.997130 1_555
Ta0_2 Ta0_3 2.997130 1_555
Ta0_2 Ta0_3 2.997130 1_554
Ta0_4 Ta0_5 2.997130 1_555
Ta0_4 Ta0_5 2.997130 1_554
Ta0_6 Ta0_7 2.997130 1_554
Ta0_6 Ta0_7 2.997130 1_555
Ta1_0 Ta1_1 2.997130 1_555
Ta1_0 Ta1_1 2.997130 1_554
Ta1_2 Ta1_3 2.997130 1_554
Ta1_2 Ta1_3 2.997130 1_555
Ta1_4 Ta1_5 2.997130 1_555
Ta1_4 Ta1_5 2.997130 1_554
Ta1_6 Ta1_7 2.997130 1_555
Ta1_6 Ta1_7 2.997130 1_554
Ta2_0 Ta2_1 2.997130 1_554
Ta2_0 Ta2_1 2.997130 1_555
Ta2_2 Ta2_3 2.997130 1_555
Ta2_2 Ta2_3 2.997130 1_554
Ta2_4 Ta2_5 2.997130 1_555
Ta2_4 Ta2_5 2.997130 1_554
Ta2_6 Ta2_7 2.997130 1_554
Ta2_6 Ta2_7 2.997130 1_555
Ta3_0 Ta3_1 2.997130 1_554
Ta3_0 Ta3_1 2.997130 1_555
Ta3_2 Ta3_3 2.997130 1_554
Ta3_2 Ta3_3 2.997130 1_555
Ta3_4 Ta3_5 2.997130 1_554
Ta3_4 Ta3_5 2.997130 1_555
Ta3_6 Ta3_7 2.997130 1_555
Ta3_6 Ta3_7 2.997130 1_554
Ta4_0 Ta4_1 2.997130 1_554
Ta4_0 Ta4_1 2.997130 1_555
Ta4_2 Ta4_3 2.997130 1_555
Ta4_2 Ta4_3 2.997130 1_554
Ta4_4 Ta4_5 2.997130 1_555
Ta4_4 Ta4_5 2.997130 1_554
Ta4_6 Ta4_7 2.997130 1_554
Ta4_6 Ta4_7 2.997130 1_555
Ta5_0 Ta5_1 2.997130 1_555
Ta5_0 Ta5_1 2.997130 1_554
Ta5_2 Ta5_3 2.997130 1_554
Ta5_2 Ta5_3 2.997130 1_555
Ta5_4 Ta5_5 2.997130 1_555
Ta5_4 Ta5_5 2.997130 1_554
Ta5_6 Ta5_7 2.997130 1_555
Ta5_6 Ta5_7 2.997130 1_554
B0_0 Ru7_1 2.177983 1_554
B0_0 Ru0_1 2.177983 1_554
B0_0 Ru7_0 2.177983 1_555
B0_0 Ru0_0 2.177983 1_555
B0_0 Ru8_3 2.202651 1_554
B0_0 Ru8_2 2.202651 1_555
B0_0 Ta0_0 2.693020 1_555
B0_0 Ta3_2 2.846188 1_555
B0_0 Ta2_0 2.846188 1_555
B0_1 Ru7_0 2.177983 1_555
B0_1 Ru7_1 2.177983 1_555
B0_1 Ru0_0 2.177983 1_555
B0_1 Ru0_1 2.177983 1_555
B0_1 Ru8_2 2.202651 1_555
B0_1 Ru8_3 2.202651 1_555
B0_1 Ta0_1 2.693020 1_555
B0_1 Ta3_3 2.846188 1_555
B0_1 Ta2_1 2.846188 1_555
B0_2 Ru0_3 2.177983 1_554
B0_2 Ru0_2 2.177983 1_555
B0_2 Ru7_3 2.177983 1_554
B0_2 Ru7_2 2.177983 1_555
B0_2 Ru8_1 2.202651 1_564
B0_2 Ru8_0 2.202651 1_565
B0_2 Ta0_2 2.693020 1_555
B0_2 Ta2_2 2.846188 1_555
B0_2 Ta3_0 2.846188 1_565
B0_3 Ru0_2 2.177983 1_555
B0_3 Ru0_3 2.177983 1_555
B0_3 Ru7_2 2.177983 1_555
B0_3 Ru7_3 2.177983 1_555
B0_3 Ru8_0 2.202651 1_565
B0_3 Ru8_1 2.202651 1_565
B0_3 Ta0_3 2.693020 1_555
B0_3 Ta2_3 2.846188 1_555
B0_3 Ta3_1 2.846188 1_565
B0_4 Ru0_5 2.177983 1_554
B0_4 Ru7_5 2.177983 1_554
B0_4 Ru0_4 2.177983 1_555
B0_4 Ru7_4 2.177983 1_555
B0_4 Ru8_7 2.202651 1_554
B0_4 Ru8_6 2.202651 1_555
B0_4 Ta0_4 2.693020 1_555
B0_4 Ta2_4 2.846188 1_555
B0_4 Ta3_6 2.846188 1_555
B0_5 Ru0_4 2.177983 1_555
B0_5 Ru7_4 2.177983 1_555
B0_5 Ru7_5 2.177983 1_555
B0_5 Ru0_5 2.177983 1_555
B0_5 Ru8_7 2.202651 1_555
B0_5 Ru8_6 2.202651 1_555
B0_5 Ta0_5 2.693020 1_555
B0_5 Ta2_5 2.846188 1_555
B0_5 Ta3_7 2.846188 1_555
B0_6 Ru0_7 2.177983 1_554
B0_6 Ru0_6 2.177983 1_555
B0_6 Ru7_7 2.177983 1_554
B0_6 Ru7_6 2.177983 1_555
B0_6 Ru8_5 2.202651 1_564
B0_6 Ru8_4 2.202651 1_565
B0_6 Ta0_6 2.693020 1_555
B0_6 Ta2_6 2.846188 1_555
B0_6 Ta3_4 2.846188 1_565
B0_7 Ru0_6 2.177983 1_555
B0_7 Ru0_7 2.177983 1_555
B0_7 Ru7_6 2.177983 1_555
B0_7 Ru7_7 2.177983 1_555
B0_7 Ru8_4 2.202651 1_565
B0_7 Ru8_5 2.202651 1_565
B0_7 Ta0_7 2.693020 1_555
B0_7 Ta2_7 2.846188 1_555
B0_7 Ta3_5 2.846188 1_565
B1_0 Ru6_1 2.177983 1_554
B1_0 Ru1_1 2.177983 1_554
B1_0 Ru1_0 2.177983 1_555
B1_0 Ru6_0 2.177983 1_555
B1_0 Ru8_1 2.202651 1_554
B1_0 Ru8_0 2.202651 1_555
B1_0 Ta1_0 2.693020 1_555
B1_0 Ta3_0 2.846188 1_555
B1_0 Ta2_2 2.846188 1_545
B1_1 Ru1_0 2.177983 1_555
B1_1 Ru1_1 2.177983 1_555
B1_1 Ru6_1 2.177983 1_555
B1_1 Ru6_0 2.177983 1_555
B1_1 Ru8_0 2.202651 1_555
B1_1 Ru8_1 2.202651 1_555
B1_1 Ta1_1 2.693020 1_555
B1_1 Ta3_1 2.846188 1_555
B1_1 Ta2_3 2.846188 1_545
B1_2 Ru6_3 2.177983 1_554
B1_2 Ru6_2 2.177983 1_555
B1_2 Ru1_3 2.177983 1_554
B1_2 Ru1_2 2.177983 1_555
B1_2 Ru8_3 2.202651 1_554
B1_2 Ru8_2 2.202651 1_555
B1_2 Ta1_2 2.693020 1_555
B1_2 Ta2_0 2.846188 1_555
B1_2 Ta3_2 2.846188 1_555
B1_3 Ru6_2 2.177983 1_555
B1_3 Ru6_3 2.177983 1_555
B1_3 Ru1_2 2.177983 1_555
B1_3 Ru1_3 2.177983 1_555
B1_3 Ru8_2 2.202651 1_555
B1_3 Ru8_3 2.202651 1_555
B1_3 Ta1_3 2.693020 1_555
B1_3 Ta2_1 2.846188 1_555
B1_3 Ta3_3 2.846188 1_555
B1_4 Ru1_5 2.177983 1_554
B1_4 Ru6_5 2.177983 1_554
B1_4 Ru1_4 2.177983 1_555
B1_4 Ru6_4 2.177983 1_555
B1_4 Ru8_5 2.202651 1_554
B1_4 Ru8_4 2.202651 1_555
B1_4 Ta1_4 2.693020 1_555
B1_4 Ta3_4 2.846188 1_555
B1_4 Ta2_6 2.846188 1_545
B1_5 Ru1_4 2.177983 1_555
B1_5 Ru1_5 2.177983 1_555
B1_5 Ru6_4 2.177983 1_555
B1_5 Ru6_5 2.177983 1_555
B1_5 Ru8_4 2.202651 1_555
B1_5 Ru8_5 2.202651 1_555
B1_5 Ta1_5 2.693020 1_555
B1_5 Ta3_5 2.846188 1_555
B1_5 Ta2_7 2.846188 1_545
B1_6 Ru6_7 2.177983 1_554
B1_6 Ru1_7 2.177983 1_554
B1_6 Ru1_6 2.177983 1_555
B1_6 Ru6_6 2.177983 1_555
B1_6 Ru8_7 2.202651 1_554
B1_6 Ru8_6 2.202651 1_555
B1_6 Ta1_6 2.693020 1_555
B1_6 Ta2_4 2.846188 1_555
B1_6 Ta3_6 2.846188 1_555
B1_7 Ru1_6 2.177983 1_555
B1_7 Ru6_6 2.177983 1_555
B1_7 Ru6_7 2.177983 1_555
B1_7 Ru1_7 2.177983 1_555
B1_7 Ru8_6 2.202651 1_555
B1_7 Ru8_7 2.202651 1_555
B1_7 Ta1_7 2.693020 1_555
B1_7 Ta2_5 2.846188 1_555
B1_7 Ta3_7 2.846188 1_555
B2_0 Ru2_1 2.177983 1_554
B2_0 Ru2_0 2.177983 1_555
B2_0 Ru4_1 2.177983 1_554
B2_0 Ru4_0 2.177983 1_555
B2_0 Ru9_0 2.202651 1_555
B2_0 Ru9_1 2.202651 1_554
B2_0 Ta2_0 2.693020 1_555
B2_0 Ta1_0 2.846188 1_555
B2_0 Ta0_4 2.846188 1_455
B2_1 Ru2_0 2.177983 1_555
B2_1 Ru2_1 2.177983 1_555
B2_1 Ru4_0 2.177983 1_555
B2_1 Ru4_1 2.177983 1_555
B2_1 Ru9_0 2.202651 1_555
B2_1 Ru9_1 2.202651 1_555
B2_1 Ta2_1 2.693020 1_555
B2_1 Ta1_1 2.846188 1_555
B2_1 Ta0_5 2.846188 1_455
B2_2 Ru2_3 2.177983 1_554
B2_2 Ru4_3 2.177983 1_554
B2_2 Ru4_2 2.177983 1_555
B2_2 Ru2_2 2.177983 1_555
B2_2 Ru9_3 2.202651 1_554
B2_2 Ru9_2 2.202651 1_555
B2_2 Ta2_2 2.693020 1_555
B2_2 Ta1_2 2.846188 1_555
B2_2 Ta0_6 2.846188 1_455
B2_3 Ru4_2 2.177983 1_555
B2_3 Ru2_3 2.177983 1_555
B2_3 Ru2_2 2.177983 1_555
B2_3 Ru4_3 2.177983 1_555
B2_3 Ru9_2 2.202651 1_555
B2_3 Ru9_3 2.202651 1_555
B2_3 Ta2_3 2.693020 1_555
B2_3 Ta1_3 2.846188 1_555
B2_3 Ta0_7 2.846188 1_455
B2_4 Ru2_5 2.177983 1_554
B2_4 Ru2_4 2.177983 1_555
B2_4 Ru4_5 2.177983 1_554
B2_4 Ru4_4 2.177983 1_555
B2_4 Ru9_5 2.202651 1_554
B2_4 Ru9_4 2.202651 1_555
B2_4 Ta2_4 2.693020 1_555
B2_4 Ta0_0 2.846188 1_555
B2_4 Ta1_4 2.846188 1_555
B2_5 Ru2_4 2.177983 1_555
B2_5 Ru2_5 2.177983 1_555
B2_5 Ru4_4 2.177983 1_555
B2_5 Ru4_5 2.177983 1_555
B2_5 Ru9_4 2.202651 1_555
B2_5 Ru9_5 2.202651 1_555
B2_5 Ta2_5 2.693020 1_555
B2_5 Ta0_1 2.846188 1_555
B2_5 Ta1_5 2.846188 1_555
B2_6 Ru2_7 2.177983 1_554
B2_6 Ru4_7 2.177983 1_554
B2_6 Ru2_6 2.177983 1_555
B2_6 Ru4_6 2.177983 1_555
B2_6 Ru9_7 2.202651 1_554
B2_6 Ru9_6 2.202651 1_555
B2_6 Ta2_6 2.693020 1_555
B2_6 Ta1_6 2.846188 1_555
B2_6 Ta0_2 2.846188 1_555
B2_7 Ru2_6 2.177983 1_555
B2_7 Ru2_7 2.177983 1_555
B2_7 Ru4_6 2.177983 1_555
B2_7 Ru4_7 2.177983 1_555
B2_7 Ru9_6 2.202651 1_555
B2_7 Ru9_7 2.202651 1_555
B2_7 Ta2_7 2.693020 1_555
B2_7 Ta1_7 2.846188 1_555
B2_7 Ta0_3 2.846188 1_555
B3_0 Ru5_1 2.177983 1_554
B3_0 Ru5_0 2.177983 1_555
B3_0 Ru3_1 2.177983 1_554
B3_0 Ru3_0 2.177983 1_555
B3_0 Ru9_5 2.202651 1_554
B3_0 Ru9_4 2.202651 1_555
B3_0 Ta3_0 2.693020 1_555
B3_0 Ta1_4 2.846188 1_555
B3_0 Ta0_0 2.846188 1_555
B3_1 Ru5_0 2.177983 1_555
B3_1 Ru3_0 2.177983 1_555
B3_1 Ru5_1 2.177983 1_555
B3_1 Ru3_1 2.177983 1_555
B3_1 Ru9_4 2.202651 1_555
B3_1 Ru9_5 2.202651 1_555
B3_1 Ta3_1 2.693020 1_555
B3_1 Ta1_5 2.846188 1_555
B3_1 Ta0_1 2.846188 1_555
B3_2 Ru5_3 2.177983 1_554
B3_2 Ru5_2 2.177983 1_555
B3_2 Ru3_3 2.177983 1_554
B3_2 Ru3_2 2.177983 1_555
B3_2 Ru9_7 2.202651 1_554
B3_2 Ru9_6 2.202651 1_555
B3_2 Ta3_2 2.693020 1_555
B3_2 Ta1_6 2.846188 1_555
B3_2 Ta0_2 2.846188 1_555
B3_3 Ru5_2 2.177983 1_555
B3_3 Ru3_2 2.177983 1_555
B3_3 Ru5_3 2.177983 1_555
B3_3 Ru3_3 2.177983 1_555
B3_3 Ru9_6 2.202651 1_555
B3_3 Ru9_7 2.202651 1_555
B3_3 Ta3_3 2.693020 1_555
B3_3 Ta1_7 2.846188 1_555
B3_3 Ta0_3 2.846188 1_555
B3_4 Ru5_5 2.177983 1_554
B3_4 Ru5_4 2.177983 1_555
B3_4 Ru3_5 2.177983 1_554
B3_4 Ru3_4 2.177983 1_555
B3_4 Ru9_1 2.202651 1_654
B3_4 Ru9_0 2.202651 1_655
B3_4 Ta3_4 2.693020 1_555
B3_4 Ta0_4 2.846188 1_555
B3_4 Ta1_0 2.846188 1_655
B3_5 Ru5_4 2.177983 1_555
B3_5 Ru5_5 2.177983 1_555
B3_5 Ru3_4 2.177983 1_555
B3_5 Ru3_5 2.177983 1_555
B3_5 Ru9_0 2.202651 1_655
B3_5 Ru9_1 2.202651 1_655
B3_5 Ta3_5 2.693020 1_555
B3_5 Ta0_5 2.846188 1_555
B3_5 Ta1_1 2.846188 1_655
B3_6 Ru5_7 2.177983 1_554
B3_6 Ru5_6 2.177983 1_555
B3_6 Ru3_7 2.177983 1_554
B3_6 Ru3_6 2.177983 1_555
B3_6 Ru9_3 2.202651 1_654
B3_6 Ru9_2 2.202651 1_655
B3_6 Ta3_6 2.693020 1_555
B3_6 Ta1_2 2.846188 1_655
B3_6 Ta0_6 2.846188 1_555
B3_7 Ru5_6 2.177983 1_555
B3_7 Ru5_7 2.177983 1_555
B3_7 Ru3_6 2.177983 1_555
B3_7 Ru3_7 2.177983 1_555
B3_7 Ru9_2 2.202651 1_655
B3_7 Ru9_3 2.202651 1_655
B3_7 Ta3_7 2.693020 1_555
B3_7 Ta0_7 2.846188 1_555
B3_7 Ta1_3 2.846188 1_655
Ru0_0 Ta4_0 2.628789 1_555
Ru0_0 Ta4_1 2.628789 1_555
Ru0_0 Ru8_2 2.733593 1_555
Ru0_0 Ta0_0 2.836289 1_555
Ru0_0 Ta0_1 2.836289 1_555
Ru0_0 Ta2_1 2.941104 1_555
Ru0_0 Ta2_0 2.941104 1_555
Ru0_0 Ru4_0 3.054451 1_555
Ru0_0 Ru5_0 3.054451 1_555
Ru0_1 Ta4_0 2.628789 1_556
Ru0_1 Ta4_1 2.628789 1_555
Ru0_1 Ru8_3 2.733593 1_555
Ru0_1 Ta0_0 2.836289 1_556
Ru0_1 Ta0_1 2.836289 1_555
Ru0_1 Ta2_0 2.941104 1_556
Ru0_1 Ta2_1 2.941104 1_555
Ru0_1 Ru4_1 3.054451 1_555
Ru0_1 Ru5_1 3.054451 1_555
Ru0_2 Ta4_3 2.628789 1_555
Ru0_2 Ta4_2 2.628789 1_555
Ru0_2 Ru8_0 2.733593 1_565
Ru0_2 Ta0_3 2.836289 1_555
Ru0_2 Ta0_2 2.836289 1_555
Ru0_2 Ta2_2 2.941104 1_555
Ru0_2 Ta2_3 2.941104 1_555
Ru0_2 Ru4_2 3.054451 1_555
Ru0_2 Ru5_2 3.054451 1_555
Ru0_3 Ta4_2 2.628789 1_556
Ru0_3 Ta4_3 2.628789 1_555
Ru0_3 Ru8_1 2.733593 1_565
Ru0_3 Ta0_2 2.836289 1_556
Ru0_3 Ta0_3 2.836289 1_555
Ru0_3 Ta2_2 2.941104 1_556
Ru0_3 Ta2_3 2.941104 1_555
Ru0_3 Ru4_3 3.054451 1_555
Ru0_3 Ru5_3 3.054451 1_555
Ru0_4 Ta4_5 2.628789 1_555
Ru0_4 Ta4_4 2.628789 1_555
Ru0_4 Ru8_6 2.733593 1_555
Ru0_4 Ta0_4 2.836289 1_555
Ru0_4 Ta0_5 2.836289 1_555
Ru0_4 Ta2_4 2.941104 1_555
Ru0_4 Ta2_5 2.941104 1_555
Ru0_4 Ru4_4 3.054451 1_555
Ru0_4 Ru5_4 3.054451 1_555
Ru0_5 Ta4_4 2.628789 1_556
Ru0_5 Ta4_5 2.628789 1_555
Ru0_5 Ru8_7 2.733593 1_555
Ru0_5 Ta0_4 2.836289 1_556
Ru0_5 Ta0_5 2.836289 1_555
Ru0_5 Ta2_4 2.941104 1_556
Ru0_5 Ta2_5 2.941104 1_555
Ru0_5 Ru4_5 3.054451 1_555
Ru0_5 Ru5_5 3.054451 1_555
Ru0_6 Ta4_6 2.628789 1_555
Ru0_6 Ta4_7 2.628789 1_555
Ru0_6 Ru8_4 2.733593 1_565
Ru0_6 Ta0_6 2.836289 1_555
Ru0_6 Ta0_7 2.836289 1_555
Ru0_6 Ta2_7 2.941104 1_555
Ru0_6 Ta2_6 2.941104 1_555
Ru0_6 Ru4_6 3.054451 1_555
Ru0_6 Ru5_6 3.054451 1_555
Ru0_7 Ta4_6 2.628789 1_556
Ru0_7 Ta4_7 2.628789 1_555
Ru0_7 Ru8_5 2.733593 1_565
Ru0_7 Ta0_6 2.836289 1_556
Ru0_7 Ta0_7 2.836289 1_555
Ru0_7 Ta2_6 2.941104 1_556
Ru0_7 Ta2_7 2.941104 1_555
Ru0_7 Ru4_7 3.054451 1_555
Ru0_7 Ru5_7 3.054451 1_555
Ru1_0 Ta4_0 2.628789 1_555
Ru1_0 Ta4_1 2.628789 1_555
Ru1_0 Ru8_0 2.733593 1_555
Ru1_0 Ta1_0 2.836289 1_555
Ru1_0 Ta1_1 2.836289 1_555
Ru1_0 Ta3_0 2.941104 1_555
Ru1_0 Ta3_1 2.941104 1_555
Ru1_0 Ru4_0 3.054451 1_555
Ru1_0 Ru5_0 3.054451 1_555
Ru1_1 Ta4_0 2.628789 1_556
Ru1_1 Ta4_1 2.628789 1_555
Ru1_1 Ru8_1 2.733593 1_555
Ru1_1 Ta1_0 2.836289 1_556
Ru1_1 Ta1_1 2.836289 1_555
Ru1_1 Ta3_0 2.941104 1_556
Ru1_1 Ta3_1 2.941104 1_555
Ru1_1 Ru4_1 3.054451 1_555
Ru1_1 Ru5_1 3.054451 1_555
Ru1_2 Ta4_2 2.628789 1_555
Ru1_2 Ta4_3 2.628789 1_555
Ru1_2 Ru8_2 2.733593 1_555
Ru1_2 Ta1_2 2.836289 1_555
Ru1_2 Ta1_3 2.836289 1_555
Ru1_2 Ta3_2 2.941104 1_555
Ru1_2 Ta3_3 2.941104 1_555
Ru1_2 Ru4_2 3.054451 1_555
Ru1_2 Ru5_2 3.054451 1_555
Ru1_3 Ta4_2 2.628789 1_556
Ru1_3 Ta4_3 2.628789 1_555
Ru1_3 Ru8_3 2.733593 1_555
Ru1_3 Ta1_2 2.836289 1_556
Ru1_3 Ta1_3 2.836289 1_555
Ru1_3 Ta3_2 2.941104 1_556
Ru1_3 Ta3_3 2.941104 1_555
Ru1_3 Ru4_3 3.054451 1_555
Ru1_3 Ru5_3 3.054451 1_555
Ru1_4 Ta4_5 2.628789 1_555
Ru1_4 Ta4_4 2.628789 1_555
Ru1_4 Ru8_4 2.733593 1_555
Ru1_4 Ta1_4 2.836289 1_555
Ru1_4 Ta1_5 2.836289 1_555
Ru1_4 Ta3_4 2.941104 1_555
Ru1_4 Ta3_5 2.941104 1_555
Ru1_4 Ru4_4 3.054451 1_555
Ru1_4 Ru5_4 3.054451 1_555
Ru1_5 Ta4_4 2.628789 1_556
Ru1_5 Ta4_5 2.628789 1_555
Ru1_5 Ru8_5 2.733593 1_555
Ru1_5 Ta1_4 2.836289 1_556
Ru1_5 Ta1_5 2.836289 1_555
Ru1_5 Ta3_4 2.941104 1_556
Ru1_5 Ta3_5 2.941104 1_555
Ru1_5 Ru4_5 3.054451 1_555
Ru1_5 Ru5_5 3.054451 1_555
Ru1_6 Ta4_7 2.628789 1_555
Ru1_6 Ta4_6 2.628789 1_555
Ru1_6 Ru8_6 2.733593 1_555
Ru1_6 Ta1_7 2.836289 1_555
Ru1_6 Ta1_6 2.836289 1_555
Ru1_6 Ta3_6 2.941104 1_555
Ru1_6 Ta3_7 2.941104 1_555
Ru1_6 Ru4_6 3.054451 1_555
Ru1_6 Ru5_6 3.054451 1_555
Ru1_7 Ta4_6 2.628789 1_556
Ru1_7 Ta4_7 2.628789 1_555
Ru1_7 Ru8_7 2.733593 1_555
Ru1_7 Ta1_6 2.836289 1_556
Ru1_7 Ta1_7 2.836289 1_555
Ru1_7 Ta3_6 2.941104 1_556
Ru1_7 Ta3_7 2.941104 1_555
Ru1_7 Ru4_7 3.054451 1_555
Ru1_7 Ru5_7 3.054451 1_555
Ru2_0 Ta5_2 2.628789 1_555
Ru2_0 Ta5_3 2.628789 1_555
Ru2_0 Ru9_0 2.733593 1_555
Ru2_0 Ta2_0 2.836289 1_555
Ru2_0 Ta2_1 2.836289 1_555
Ru2_0 Ta0_4 2.941104 1_455
Ru2_0 Ta0_5 2.941104 1_455
Ru2_0 Ru7_4 3.054451 1_455
Ru2_0 Ru6_2 3.054451 1_555
Ru2_1 Ta5_2 2.628789 1_556
Ru2_1 Ta5_3 2.628789 1_555
Ru2_1 Ru9_1 2.733593 1_555
Ru2_1 Ta2_0 2.836289 1_556
Ru2_1 Ta2_1 2.836289 1_555
Ru2_1 Ta0_4 2.941104 1_456
Ru2_1 Ta0_5 2.941104 1_455
Ru2_1 Ru7_5 3.054451 1_455
Ru2_1 Ru6_3 3.054451 1_555
Ru2_2 Ta5_0 2.628789 1_565
Ru2_2 Ta5_1 2.628789 1_565
Ru2_2 Ru9_2 2.733593 1_555
Ru2_2 Ta2_3 2.836289 1_555
Ru2_2 Ta2_2 2.836289 1_555
Ru2_2 Ta0_6 2.941104 1_455
Ru2_2 Ta0_7 2.941104 1_455
Ru2_2 Ru7_6 3.054451 1_455
Ru2_2 Ru6_0 3.054451 1_565
Ru2_3 Ta5_0 2.628789 1_566
Ru2_3 Ta5_1 2.628789 1_565
Ru2_3 Ru9_3 2.733593 1_555
Ru2_3 Ta2_2 2.836289 1_556
Ru2_3 Ta2_3 2.836289 1_555
Ru2_3 Ta0_6 2.941104 1_456
Ru2_3 Ta0_7 2.941104 1_455
Ru2_3 Ru7_7 3.054451 1_455
Ru2_3 Ru6_1 3.054451 1_565
Ru2_4 Ta5_6 2.628789 1_555
Ru2_4 Ta5_7 2.628789 1_555
Ru2_4 Ru9_4 2.733593 1_555
Ru2_4 Ta2_5 2.836289 1_555
Ru2_4 Ta2_4 2.836289 1_555
Ru2_4 Ta0_0 2.941104 1_555
Ru2_4 Ta0_1 2.941104 1_555
Ru2_4 Ru7_0 3.054451 1_555
Ru2_4 Ru6_6 3.054451 1_555
Ru2_5 Ta5_6 2.628789 1_556
Ru2_5 Ta5_7 2.628789 1_555
Ru2_5 Ru9_5 2.733593 1_555
Ru2_5 Ta2_4 2.836289 1_556
Ru2_5 Ta2_5 2.836289 1_555
Ru2_5 Ta0_0 2.941104 1_556
Ru2_5 Ta0_1 2.941104 1_555
Ru2_5 Ru7_1 3.054451 1_555
Ru2_5 Ru6_7 3.054451 1_555
Ru2_6 Ta5_5 2.628789 1_565
Ru2_6 Ta5_4 2.628789 1_565
Ru2_6 Ru9_6 2.733593 1_555
Ru2_6 Ta2_6 2.836289 1_555
Ru2_6 Ta2_7 2.836289 1_555
Ru2_6 Ta0_2 2.941104 1_555
Ru2_6 Ta0_3 2.941104 1_555
Ru2_6 Ru7_2 3.054451 1_555
Ru2_6 Ru6_4 3.054451 1_565
Ru2_7 Ta5_4 2.628789 1_566
Ru2_7 Ta5_5 2.628789 1_565
Ru2_7 Ru9_7 2.733593 1_555
Ru2_7 Ta2_6 2.836289 1_556
Ru2_7 Ta2_7 2.836289 1_555
Ru2_7 Ta0_2 2.941104 1_556
Ru2_7 Ta0_3 2.941104 1_555
Ru2_7 Ru7_3 3.054451 1_555
Ru2_7 Ru6_5 3.054451 1_565
Ru3_0 Ta5_5 2.628789 1_555
Ru3_0 Ta5_4 2.628789 1_555
Ru3_0 Ru9_4 2.733593 1_555
Ru3_0 Ta3_1 2.836289 1_555
Ru3_0 Ta3_0 2.836289 1_555
Ru3_0 Ta1_5 2.941104 1_555
Ru3_0 Ta1_4 2.941104 1_555
Ru3_0 Ru7_2 3.054451 1_545
Ru3_0 Ru6_4 3.054451 1_555
Ru3_1 Ta5_4 2.628789 1_556
Ru3_1 Ta5_5 2.628789 1_555
Ru3_1 Ru9_5 2.733593 1_555
Ru3_1 Ta3_0 2.836289 1_556
Ru3_1 Ta3_1 2.836289 1_555
Ru3_1 Ta1_4 2.941104 1_556
Ru3_1 Ta1_5 2.941104 1_555
Ru3_1 Ru7_3 3.054451 1_545
Ru3_1 Ru6_5 3.054451 1_555
Ru3_2 Ta5_6 2.628789 1_555
Ru3_2 Ta5_7 2.628789 1_555
Ru3_2 Ru9_6 2.733593 1_555
Ru3_2 Ta3_3 2.836289 1_555
Ru3_2 Ta3_2 2.836289 1_555
Ru3_2 Ta1_6 2.941104 1_555
Ru3_2 Ta1_7 2.941104 1_555
Ru3_2 Ru7_0 3.054451 1_555
Ru3_2 Ru6_6 3.054451 1_555
Ru3_3 Ta5_6 2.628789 1_556
Ru3_3 Ta5_7 2.628789 1_555
Ru3_3 Ru9_7 2.733593 1_555
Ru3_3 Ta3_2 2.836289 1_556
Ru3_3 Ta3_3 2.836289 1_555
Ru3_3 Ta1_6 2.941104 1_556
Ru3_3 Ta1_7 2.941104 1_555
Ru3_3 Ru7_1 3.054451 1_555
Ru3_3 Ru6_7 3.054451 1_555
Ru3_4 Ta5_0 2.628789 1_655
Ru3_4 Ta5_1 2.628789 1_655
Ru3_4 Ru9_0 2.733593 1_655
Ru3_4 Ta3_5 2.836289 1_555
Ru3_4 Ta3_4 2.836289 1_555
Ru3_4 Ta1_1 2.941104 1_655
Ru3_4 Ta1_0 2.941104 1_655
Ru3_4 Ru6_0 3.054451 1_655
Ru3_4 Ru7_6 3.054451 1_545
Ru3_5 Ta5_0 2.628789 1_656
Ru3_5 Ta5_1 2.628789 1_655
Ru3_5 Ru9_1 2.733593 1_655
Ru3_5 Ta3_4 2.836289 1_556
Ru3_5 Ta3_5 2.836289 1_555
Ru3_5 Ta1_0 2.941104 1_656
Ru3_5 Ta1_1 2.941104 1_655
Ru3_5 Ru6_1 3.054451 1_655
Ru3_5 Ru7_7 3.054451 1_545
Ru3_6 Ta5_2 2.628789 1_655
Ru3_6 Ta5_3 2.628789 1_655
Ru3_6 Ru9_2 2.733593 1_655
Ru3_6 Ta3_6 2.836289 1_555
Ru3_6 Ta3_7 2.836289 1_555
Ru3_6 Ta1_2 2.941104 1_655
Ru3_6 Ta1_3 2.941104 1_655
Ru3_6 Ru6_2 3.054451 1_655
Ru3_6 Ru7_4 3.054451 1_555
Ru3_7 Ta5_2 2.628789 1_656
Ru3_7 Ta5_3 2.628789 1_655
Ru3_7 Ru9_3 2.733593 1_655
Ru3_7 Ta3_6 2.836289 1_556
Ru3_7 Ta3_7 2.836289 1_555
Ru3_7 Ta1_2 2.941104 1_656
Ru3_7 Ta1_3 2.941104 1_655
Ru3_7 Ru6_3 3.054451 1_655
Ru3_7 Ru7_5 3.054451 1_555
Ru4_0 Ta4_0 2.628789 1_555
Ru4_0 Ta4_1 2.628789 1_555
Ru4_0 Ru9_0 2.733593 1_555
Ru4_0 Ta2_0 2.836289 1_555
Ru4_0 Ta2_1 2.836289 1_555
Ru4_0 Ta1_0 2.941104 1_555
Ru4_0 Ta1_1 2.941104 1_555
Ru4_1 Ta4_0 2.628789 1_556
Ru4_1 Ta4_1 2.628789 1_555
Ru4_1 Ru9_1 2.733593 1_555
Ru4_1 Ta2_0 2.836289 1_556
Ru4_1 Ta2_1 2.836289 1_555
Ru4_1 Ta1_0 2.941104 1_556
Ru4_1 Ta1_1 2.941104 1_555
Ru4_2 Ta4_2 2.628789 1_555
Ru4_2 Ta4_3 2.628789 1_555
Ru4_2 Ru9_2 2.733593 1_555
Ru4_2 Ta2_3 2.836289 1_555
Ru4_2 Ta2_2 2.836289 1_555
Ru4_2 Ta1_3 2.941104 1_555
Ru4_2 Ta1_2 2.941104 1_555
Ru4_3 Ta4_2 2.628789 1_556
Ru4_3 Ta4_3 2.628789 1_555
Ru4_3 Ru9_3 2.733593 1_555
Ru4_3 Ta2_2 2.836289 1_556
Ru4_3 Ta2_3 2.836289 1_555
Ru4_3 Ta1_2 2.941104 1_556
Ru4_3 Ta1_3 2.941104 1_555
Ru4_4 Ta4_5 2.628789 1_555
Ru4_4 Ta4_4 2.628789 1_555
Ru4_4 Ru9_4 2.733593 1_555
Ru4_4 Ta2_5 2.836289 1_555
Ru4_4 Ta2_4 2.836289 1_555
Ru4_4 Ta1_4 2.941104 1_555
Ru4_4 Ta1_5 2.941104 1_555
Ru4_5 Ta4_4 2.628789 1_556
Ru4_5 Ta4_5 2.628789 1_555
Ru4_5 Ru9_5 2.733593 1_555
Ru4_5 Ta2_4 2.836289 1_556
Ru4_5 Ta2_5 2.836289 1_555
Ru4_5 Ta1_4 2.941104 1_556
Ru4_5 Ta1_5 2.941104 1_555
Ru4_6 Ta4_6 2.628789 1_555
Ru4_6 Ta4_7 2.628789 1_555
Ru4_6 Ru9_6 2.733593 1_555
Ru4_6 Ta2_6 2.836289 1_555
Ru4_6 Ta2_7 2.836289 1_555
Ru4_6 Ta1_6 2.941104 1_555
Ru4_6 Ta1_7 2.941104 1_555
Ru4_7 Ta4_6 2.628789 1_556
Ru4_7 Ta4_7 2.628789 1_555
Ru4_7 Ru9_7 2.733593 1_555
Ru4_7 Ta2_6 2.836289 1_556
Ru4_7 Ta2_7 2.836289 1_555
Ru4_7 Ta1_6 2.941104 1_556
Ru4_7 Ta1_7 2.941104 1_555
Ru5_0 Ta4_1 2.628789 1_555
Ru5_0 Ta4_0 2.628789 1_555
Ru5_0 Ru9_4 2.733593 1_555
Ru5_0 Ta3_1 2.836289 1_555
Ru5_0 Ta3_0 2.836289 1_555
Ru5_0 Ta0_1 2.941104 1_555
Ru5_0 Ta0_0 2.941104 1_555
Ru5_1 Ta4_0 2.628789 1_556
Ru5_1 Ta4_1 2.628789 1_555
Ru5_1 Ru9_5 2.733593 1_555
Ru5_1 Ta3_0 2.836289 1_556
Ru5_1 Ta3_1 2.836289 1_555
Ru5_1 Ta0_0 2.941104 1_556
Ru5_1 Ta0_1 2.941104 1_555
Ru5_2 Ta4_2 2.628789 1_555
Ru5_2 Ta4_3 2.628789 1_555
Ru5_2 Ru9_6 2.733593 1_555
Ru5_2 Ta3_3 2.836289 1_555
Ru5_2 Ta3_2 2.836289 1_555
Ru5_2 Ta0_2 2.941104 1_555
Ru5_2 Ta0_3 2.941104 1_555
Ru5_3 Ta4_2 2.628789 1_556
Ru5_3 Ta4_3 2.628789 1_555
Ru5_3 Ru9_7 2.733593 1_555
Ru5_3 Ta3_2 2.836289 1_556
Ru5_3 Ta3_3 2.836289 1_555
Ru5_3 Ta0_2 2.941104 1_556
Ru5_3 Ta0_3 2.941104 1_555
Ru5_4 Ta4_4 2.628789 1_555
Ru5_4 Ta4_5 2.628789 1_555
Ru5_4 Ru9_0 2.733593 1_655
Ru5_4 Ta3_4 2.836289 1_555
Ru5_4 Ta3_5 2.836289 1_555
Ru5_4 Ta0_4 2.941104 1_555
Ru5_4 Ta0_5 2.941104 1_555
Ru5_5 Ta4_4 2.628789 1_556
Ru5_5 Ta4_5 2.628789 1_555
Ru5_5 Ru9_1 2.733593 1_655
Ru5_5 Ta3_4 2.836289 1_556
Ru5_5 Ta3_5 2.836289 1_555
Ru5_5 Ta0_4 2.941104 1_556
Ru5_5 Ta0_5 2.941104 1_555
Ru5_6 Ta4_7 2.628789 1_555
Ru5_6 Ta4_6 2.628789 1_555
Ru5_6 Ru9_2 2.733593 1_655
Ru5_6 Ta3_7 2.836289 1_555
Ru5_6 Ta3_6 2.836289 1_555
Ru5_6 Ta0_7 2.941104 1_555
Ru5_6 Ta0_6 2.941104 1_555
Ru5_7 Ta4_6 2.628789 1_556
Ru5_7 Ta4_7 2.628789 1_555
Ru5_7 Ru9_3 2.733593 1_655
Ru5_7 Ta3_6 2.836289 1_556
Ru5_7 Ta3_7 2.836289 1_555
Ru5_7 Ta0_6 2.941104 1_556
Ru5_7 Ta0_7 2.941104 1_555
Ru6_0 Ta5_0 2.628789 1_555
Ru6_0 Ta5_1 2.628789 1_555
Ru6_0 Ru8_0 2.733593 1_555
Ru6_0 Ta1_0 2.836289 1_555
Ru6_0 Ta1_1 2.836289 1_555
Ru6_0 Ta2_2 2.941104 1_545
Ru6_0 Ta2_3 2.941104 1_545
Ru6_1 Ta5_0 2.628789 1_556
Ru6_1 Ta5_1 2.628789 1_555
Ru6_1 Ru8_1 2.733593 1_555
Ru6_1 Ta1_0 2.836289 1_556
Ru6_1 Ta1_1 2.836289 1_555
Ru6_1 Ta2_2 2.941104 1_546
Ru6_1 Ta2_3 2.941104 1_545
Ru6_2 Ta5_2 2.628789 1_555
Ru6_2 Ta5_3 2.628789 1_555
Ru6_2 Ru8_2 2.733593 1_555
Ru6_2 Ta1_2 2.836289 1_555
Ru6_2 Ta1_3 2.836289 1_555
Ru6_2 Ta2_0 2.941104 1_555
Ru6_2 Ta2_1 2.941104 1_555
Ru6_3 Ta5_2 2.628789 1_556
Ru6_3 Ta5_3 2.628789 1_555
Ru6_3 Ru8_3 2.733593 1_555
Ru6_3 Ta1_2 2.836289 1_556
Ru6_3 Ta1_3 2.836289 1_555
Ru6_3 Ta2_0 2.941104 1_556
Ru6_3 Ta2_1 2.941104 1_555
Ru6_4 Ta5_5 2.628789 1_555
Ru6_4 Ta5_4 2.628789 1_555
Ru6_4 Ru8_4 2.733593 1_555
Ru6_4 Ta1_4 2.836289 1_555
Ru6_4 Ta1_5 2.836289 1_555
Ru6_4 Ta2_7 2.941104 1_545
Ru6_4 Ta2_6 2.941104 1_545
Ru6_5 Ta5_4 2.628789 1_556
Ru6_5 Ta5_5 2.628789 1_555
Ru6_5 Ru8_5 2.733593 1_555
Ru6_5 Ta1_4 2.836289 1_556
Ru6_5 Ta1_5 2.836289 1_555
Ru6_5 Ta2_6 2.941104 1_546
Ru6_5 Ta2_7 2.941104 1_545
Ru6_6 Ta5_6 2.628789 1_555
Ru6_6 Ta5_7 2.628789 1_555
Ru6_6 Ru8_6 2.733593 1_555
Ru6_6 Ta1_7 2.836289 1_555
Ru6_6 Ta1_6 2.836289 1_555
Ru6_6 Ta2_4 2.941104 1_555
Ru6_6 Ta2_5 2.941104 1_555
Ru6_7 Ta5_6 2.628789 1_556
Ru6_7 Ta5_7 2.628789 1_555
Ru6_7 Ru8_7 2.733593 1_555
Ru6_7 Ta1_6 2.836289 1_556
Ru6_7 Ta1_7 2.836289 1_555
Ru6_7 Ta2_4 2.941104 1_556
Ru6_7 Ta2_5 2.941104 1_555
Ru7_0 Ta5_6 2.628789 1_555
Ru7_0 Ta5_7 2.628789 1_555
Ru7_0 Ru8_2 2.733593 1_555
Ru7_0 Ta0_1 2.836289 1_555
Ru7_0 Ta0_0 2.836289 1_555
Ru7_0 Ta3_2 2.941104 1_555
Ru7_0 Ta3_3 2.941104 1_555
Ru7_1 Ta5_6 2.628789 1_556
Ru7_1 Ta5_7 2.628789 1_555
Ru7_1 Ru8_3 2.733593 1_555
Ru7_1 Ta0_0 2.836289 1_556
Ru7_1 Ta0_1 2.836289 1_555
Ru7_1 Ta3_2 2.941104 1_556
Ru7_1 Ta3_3 2.941104 1_555
Ru7_2 Ta5_5 2.628789 1_565
Ru7_2 Ta5_4 2.628789 1_565
Ru7_2 Ru8_0 2.733593 1_565
Ru7_2 Ta0_3 2.836289 1_555
Ru7_2 Ta0_2 2.836289 1_555
Ru7_2 Ta3_0 2.941104 1_565
Ru7_2 Ta3_1 2.941104 1_565
Ru7_3 Ta5_4 2.628789 1_566
Ru7_3 Ta5_5 2.628789 1_565
Ru7_3 Ru8_1 2.733593 1_565
Ru7_3 Ta0_2 2.836289 1_556
Ru7_3 Ta0_3 2.836289 1_555
Ru7_3 Ta3_0 2.941104 1_566
Ru7_3 Ta3_1 2.941104 1_565
Ru7_4 Ta5_2 2.628789 1_655
Ru7_4 Ta5_3 2.628789 1_655
Ru7_4 Ru8_6 2.733593 1_555
Ru7_4 Ta0_5 2.836289 1_555
Ru7_4 Ta0_4 2.836289 1_555
Ru7_4 Ta3_6 2.941104 1_555
Ru7_4 Ta3_7 2.941104 1_555
Ru7_5 Ta5_2 2.628789 1_656
Ru7_5 Ta5_3 2.628789 1_655
Ru7_5 Ru8_7 2.733593 1_555
Ru7_5 Ta0_4 2.836289 1_556
Ru7_5 Ta0_5 2.836289 1_555
Ru7_5 Ta3_6 2.941104 1_556
Ru7_5 Ta3_7 2.941104 1_555
Ru7_6 Ta5_1 2.628789 1_665
Ru7_6 Ta5_0 2.628789 1_665
Ru7_6 Ru8_4 2.733593 1_565
Ru7_6 Ta0_6 2.836289 1_555
Ru7_6 Ta0_7 2.836289 1_555
Ru7_6 Ta3_4 2.941104 1_565
Ru7_6 Ta3_5 2.941104 1_565
Ru7_7 Ta5_0 2.628789 1_666
Ru7_7 Ta5_1 2.628789 1_665
Ru7_7 Ru8_5 2.733593 1_565
Ru7_7 Ta0_6 2.836289 1_556
Ru7_7 Ta0_7 2.836289 1_555
Ru7_7 Ta3_4 2.941104 1_566
Ru7_7 Ta3_5 2.941104 1_565
Ru8_0 Ta3_1 2.782177 1_555
Ru8_0 Ta3_0 2.782177 1_555
Ru8_0 Ta2_2 2.782177 1_545
Ru8_0 Ta2_3 2.782177 1_545
Ru8_1 Ta3_0 2.782177 1_556
Ru8_1 Ta3_1 2.782177 1_555
Ru8_1 Ta2_2 2.782177 1_546
Ru8_1 Ta2_3 2.782177 1_545
Ru8_2 Ta3_2 2.782177 1_555
Ru8_2 Ta3_3 2.782177 1_555
Ru8_2 Ta2_1 2.782177 1_555
Ru8_2 Ta2_0 2.782177 1_555
Ru8_3 Ta3_2 2.782177 1_556
Ru8_3 Ta2_0 2.782177 1_556
Ru8_3 Ta2_1 2.782177 1_555
Ru8_3 Ta3_3 2.782177 1_555
Ru8_4 Ta2_6 2.782177 1_545
Ru8_4 Ta3_4 2.782177 1_555
Ru8_4 Ta3_5 2.782177 1_555
Ru8_4 Ta2_7 2.782177 1_545
Ru8_5 Ta3_4 2.782177 1_556
Ru8_5 Ta2_6 2.782177 1_546
Ru8_5 Ta2_7 2.782177 1_545
Ru8_5 Ta3_5 2.782177 1_555
Ru8_6 Ta2_5 2.782177 1_555
Ru8_6 Ta2_4 2.782177 1_555
Ru8_6 Ta3_6 2.782177 1_555
Ru8_6 Ta3_7 2.782177 1_555
Ru8_7 Ta2_4 2.782177 1_556
Ru8_7 Ta2_5 2.782177 1_555
Ru8_7 Ta3_6 2.782177 1_556
Ru8_7 Ta3_7 2.782177 1_555
Ru9_0 Ta1_0 2.782177 1_555
Ru9_0 Ta1_1 2.782177 1_555
Ru9_0 Ta0_4 2.782177 1_455
Ru9_0 Ta0_5 2.782177 1_455
Ru9_1 Ta1_0 2.782177 1_556
Ru9_1 Ta1_1 2.782177 1_555
Ru9_1 Ta0_4 2.782177 1_456
Ru9_1 Ta0_5 2.782177 1_455
Ru9_2 Ta1_3 2.782177 1_555
Ru9_2 Ta1_2 2.782177 1_555
Ru9_2 Ta0_6 2.782177 1_455
Ru9_2 Ta0_7 2.782177 1_455
Ru9_3 Ta1_2 2.782177 1_556
Ru9_3 Ta1_3 2.782177 1_555
Ru9_3 Ta0_6 2.782177 1_456
Ru9_3 Ta0_7 2.782177 1_455
Ru9_4 Ta0_1 2.782177 1_555
Ru9_4 Ta0_0 2.782177 1_555
Ru9_4 Ta1_4 2.782177 1_555
Ru9_4 Ta1_5 2.782177 1_555
Ru9_5 Ta1_4 2.782177 1_556
Ru9_5 Ta0_0 2.782177 1_556
Ru9_5 Ta1_5 2.782177 1_555
Ru9_5 Ta0_1 2.782177 1_555
Ru9_6 Ta1_7 2.782177 1_555
Ru9_6 Ta1_6 2.782177 1_555
Ru9_6 Ta0_2 2.782177 1_555
Ru9_6 Ta0_3 2.782177 1_555
Ru9_7 Ta1_6 2.782177 1_556
Ru9_7 Ta1_7 2.782177 1_555
Ru9_7 Ta0_2 2.782177 1_556
Ru9_7 Ta0_3 2.782177 1_555
