# generated using pymatgen
data_Er4AlSi3
_symmetry_space_group_name_H-M   'P 1'
_cell_length_a   7.15041600
_cell_length_b   7.15041600
_cell_length_c   27.05900400
_cell_angle_alpha   90.00000000
_cell_angle_beta   90.00000000
_cell_angle_gamma   90.00000000
_symmetry_Int_Tables_number   1
_chemical_formula_structural   Er4AlSi3
_chemical_formula_sum   'Er32 Al8 Si24'
_cell_volume   1383.48490528
_cell_formula_units_Z   8
loop_
 _symmetry_equiv_pos_site_id
 _symmetry_equiv_pos_as_xyz
  1  'x, y, z'
loop_
 _atom_site_type_symbol
 _atom_site_label
 _atom_site_symmetry_multiplicity
 _atom_site_fract_x
 _atom_site_fract_y
 _atom_site_fract_z
 _atom_site_occupancy
  Er  Er0_0  1  0.25000000  0.25000000  0.06494700  1
  Er  Er0_1  1  0.25000000  0.25000000  0.56494700  1
  Er  Er0_2  1  0.25000000  0.75000000  0.06494700  1
  Er  Er0_3  1  0.25000000  0.75000000  0.56494700  1
  Er  Er0_4  1  0.75000000  0.25000000  0.06494700  1
  Er  Er0_5  1  0.75000000  0.25000000  0.56494700  1
  Er  Er0_6  1  0.75000000  0.75000000  0.06494700  1
  Er  Er0_7  1  0.75000000  0.75000000  0.56494700  1
  Er  Er1_0  1  0.25000000  0.25000000  0.18821350  1
  Er  Er1_1  1  0.25000000  0.25000000  0.68821350  1
  Er  Er1_2  1  0.25000000  0.75000000  0.18821350  1
  Er  Er1_3  1  0.25000000  0.75000000  0.68821350  1
  Er  Er1_4  1  0.75000000  0.25000000  0.18821350  1
  Er  Er1_5  1  0.75000000  0.25000000  0.68821350  1
  Er  Er1_6  1  0.75000000  0.75000000  0.18821350  1
  Er  Er1_7  1  0.75000000  0.75000000  0.68821350  1
  Er  Er2_0  1  0.25000000  0.25000000  0.31178650  1
  Er  Er2_1  1  0.25000000  0.25000000  0.81178650  1
  Er  Er2_2  1  0.25000000  0.75000000  0.31178650  1
  Er  Er2_3  1  0.25000000  0.75000000  0.81178650  1
  Er  Er2_4  1  0.75000000  0.25000000  0.31178650  1
  Er  Er2_5  1  0.75000000  0.25000000  0.81178650  1
  Er  Er2_6  1  0.75000000  0.75000000  0.31178650  1
  Er  Er2_7  1  0.75000000  0.75000000  0.81178650  1
  Er  Er3_0  1  0.25000000  0.25000000  0.43505300  1
  Er  Er3_1  1  0.25000000  0.25000000  0.93505300  1
  Er  Er3_2  1  0.25000000  0.75000000  0.43505300  1
  Er  Er3_3  1  0.25000000  0.75000000  0.93505300  1
  Er  Er3_4  1  0.75000000  0.25000000  0.43505300  1
  Er  Er3_5  1  0.75000000  0.25000000  0.93505300  1
  Er  Er3_6  1  0.75000000  0.75000000  0.43505300  1
  Er  Er3_7  1  0.75000000  0.75000000  0.93505300  1
  Al  Al0_0  1  0.00000000  0.00000000  0.00000000  1
  Al  Al0_1  1  0.00000000  0.00000000  0.50000000  1
  Al  Al0_2  1  0.00000000  0.50000000  0.00000000  1
  Al  Al0_3  1  0.00000000  0.50000000  0.50000000  1
  Al  Al0_4  1  0.50000000  0.00000000  0.00000000  1
  Al  Al0_5  1  0.50000000  0.00000000  0.50000000  1
  Al  Al0_6  1  0.50000000  0.50000000  0.00000000  1
  Al  Al0_7  1  0.50000000  0.50000000  0.50000000  1
  Si  Si0_0  1  0.00000000  0.00000000  0.12389600  1
  Si  Si0_1  1  0.00000000  0.00000000  0.62389600  1
  Si  Si0_2  1  0.00000000  0.50000000  0.12389600  1
  Si  Si0_3  1  0.00000000  0.50000000  0.62389600  1
  Si  Si0_4  1  0.50000000  0.00000000  0.12389600  1
  Si  Si0_5  1  0.50000000  0.00000000  0.62389600  1
  Si  Si0_6  1  0.50000000  0.50000000  0.12389600  1
  Si  Si0_7  1  0.50000000  0.50000000  0.62389600  1
  Si  Si1_0  1  0.00000000  0.00000000  0.25000000  1
  Si  Si1_1  1  0.00000000  0.00000000  0.75000000  1
  Si  Si1_2  1  0.00000000  0.50000000  0.25000000  1
  Si  Si1_3  1  0.00000000  0.50000000  0.75000000  1
  Si  Si1_4  1  0.50000000  0.00000000  0.25000000  1
  Si  Si1_5  1  0.50000000  0.00000000  0.75000000  1
  Si  Si1_6  1  0.50000000  0.50000000  0.25000000  1
  Si  Si1_7  1  0.50000000  0.50000000  0.75000000  1
  Si  Si2_0  1  0.00000000  0.00000000  0.37610400  1
  Si  Si2_1  1  0.00000000  0.00000000  0.87610400  1
  Si  Si2_2  1  0.00000000  0.50000000  0.37610400  1
  Si  Si2_3  1  0.00000000  0.50000000  0.87610400  1
  Si  Si2_4  1  0.50000000  0.00000000  0.37610400  1
  Si  Si2_5  1  0.50000000  0.00000000  0.87610400  1
  Si  Si2_6  1  0.50000000  0.50000000  0.37610400  1
  Si  Si2_7  1  0.50000000  0.50000000  0.87610400  1
loop_
_geom_bond_atom_site_label_1
_geom_bond_atom_site_label_2
_geom_bond_distance
_geom_bond_site_symmetry_2
Er0_0 Si0_2 2.989215 1_555
Er0_0 Si0_6 2.989215 1_555
Er0_0 Si0_0 2.989215 1_555
Er0_0 Si0_4 2.989215 1_555
Er0_0 Er1_0 3.335469 1_555
Er0_0 Er3_1 3.514802 1_554
Er0_1 Si0_7 2.989215 1_555
Er0_1 Si0_1 2.989215 1_555
Er0_1 Si0_5 2.989215 1_555
Er0_1 Si0_3 2.989215 1_555
Er0_1 Er1_1 3.335469 1_555
Er0_1 Er3_0 3.514802 1_555
Er0_2 Si0_2 2.989215 1_555
Er0_2 Si0_6 2.989215 1_555
Er0_2 Si0_0 2.989215 1_565
Er0_2 Si0_4 2.989215 1_565
Er0_2 Er1_2 3.335469 1_555
Er0_2 Er3_3 3.514802 1_554
Er0_3 Si0_1 2.989215 1_565
Er0_3 Si0_5 2.989215 1_565
Er0_3 Si0_7 2.989215 1_555
Er0_3 Si0_3 2.989215 1_555
Er0_3 Er1_3 3.335469 1_555
Er0_3 Er3_2 3.514802 1_555
Er0_4 Si0_2 2.989215 1_655
Er0_4 Si0_6 2.989215 1_555
Er0_4 Si0_4 2.989215 1_555
Er0_4 Si0_0 2.989215 1_655
Er0_4 Er1_4 3.335469 1_555
Er0_4 Er3_5 3.514802 1_554
Er0_5 Si0_3 2.989215 1_655
Er0_5 Si0_7 2.989215 1_555
Er0_5 Si0_1 2.989215 1_655
Er0_5 Si0_5 2.989215 1_555
Er0_5 Er1_5 3.335469 1_555
Er0_5 Er3_4 3.514802 1_555
Er0_6 Si0_2 2.989215 1_655
Er0_6 Si0_0 2.989215 1_665
Er0_6 Si0_6 2.989215 1_555
Er0_6 Si0_4 2.989215 1_565
Er0_6 Er1_6 3.335469 1_555
Er0_6 Er3_7 3.514802 1_554
Er0_7 Si0_3 2.989215 1_655
Er0_7 Si0_5 2.989215 1_565
Er0_7 Si0_7 2.989215 1_555
Er0_7 Si0_1 2.989215 1_665
Er0_7 Er1_7 3.335469 1_555
Er0_7 Er3_6 3.514802 1_555
Er1_0 Si1_4 3.030882 1_555
Er1_0 Si1_0 3.030882 1_555
Er1_0 Si1_2 3.030882 1_555
Er1_0 Si1_6 3.030882 1_555
Er1_0 Si0_0 3.069191 1_555
Er1_0 Si0_4 3.069191 1_555
Er1_0 Si0_2 3.069191 1_555
Er1_0 Si0_6 3.069191 1_555
Er1_0 Er2_0 3.343762 1_555
Er1_0 Er1_2 3.575208 1_555
Er1_0 Er1_4 3.575208 1_455
Er1_0 Er1_2 3.575208 1_545
Er1_0 Er1_4 3.575208 1_555
Er1_1 Si1_3 3.030882 1_555
Er1_1 Si1_7 3.030882 1_555
Er1_1 Si1_1 3.030882 1_555
Er1_1 Si1_5 3.030882 1_555
Er1_1 Si0_1 3.069191 1_555
Er1_1 Si0_7 3.069191 1_555
Er1_1 Si0_3 3.069191 1_555
Er1_1 Si0_5 3.069191 1_555
Er1_1 Er2_1 3.343762 1_555
Er1_1 Er1_5 3.575208 1_455
Er1_1 Er1_5 3.575208 1_555
Er1_1 Er1_3 3.575208 1_545
Er1_1 Er1_3 3.575208 1_555
Er1_2 Si1_0 3.030882 1_565
Er1_2 Si1_2 3.030882 1_555
Er1_2 Si1_6 3.030882 1_555
Er1_2 Si1_4 3.030882 1_565
Er1_2 Si0_4 3.069191 1_565
Er1_2 Si0_2 3.069191 1_555
Er1_2 Si0_6 3.069191 1_555
Er1_2 Si0_0 3.069191 1_565
Er1_2 Er2_2 3.343762 1_555
Er1_2 Er1_6 3.575208 1_455
Er1_2 Er1_6 3.575208 1_555
Er1_3 Si1_1 3.030882 1_565
Er1_3 Si1_3 3.030882 1_555
Er1_3 Si1_7 3.030882 1_555
Er1_3 Si1_5 3.030882 1_565
Er1_3 Si0_1 3.069191 1_565
Er1_3 Si0_5 3.069191 1_565
Er1_3 Si0_7 3.069191 1_555
Er1_3 Si0_3 3.069191 1_555
Er1_3 Er2_3 3.343762 1_555
Er1_3 Er1_7 3.575208 1_455
Er1_3 Er1_7 3.575208 1_555
Er1_4 Si1_4 3.030882 1_555
Er1_4 Si1_0 3.030882 1_655
Er1_4 Si1_6 3.030882 1_555
Er1_4 Si1_2 3.030882 1_655
Er1_4 Si0_4 3.069191 1_555
Er1_4 Si0_0 3.069191 1_655
Er1_4 Si0_2 3.069191 1_655
Er1_4 Si0_6 3.069191 1_555
Er1_4 Er2_4 3.343762 1_555
Er1_4 Er1_6 3.575208 1_555
Er1_4 Er1_6 3.575208 1_545
Er1_5 Si1_7 3.030882 1_555
Er1_5 Si1_3 3.030882 1_655
Er1_5 Si1_1 3.030882 1_655
Er1_5 Si1_5 3.030882 1_555
Er1_5 Si0_3 3.069191 1_655
Er1_5 Si0_7 3.069191 1_555
Er1_5 Si0_5 3.069191 1_555
Er1_5 Si0_1 3.069191 1_655
Er1_5 Er2_5 3.343762 1_555
Er1_5 Er1_7 3.575208 1_545
Er1_5 Er1_7 3.575208 1_555
Er1_6 Si1_0 3.030882 1_665
Er1_6 Si1_6 3.030882 1_555
Er1_6 Si1_4 3.030882 1_565
Er1_6 Si1_2 3.030882 1_655
Er1_6 Si0_4 3.069191 1_565
Er1_6 Si0_0 3.069191 1_665
Er1_6 Si0_2 3.069191 1_655
Er1_6 Si0_6 3.069191 1_555
Er1_6 Er2_6 3.343762 1_555
Er1_7 Si1_1 3.030882 1_665
Er1_7 Si1_7 3.030882 1_555
Er1_7 Si1_3 3.030882 1_655
Er1_7 Si1_5 3.030882 1_565
Er1_7 Si0_3 3.069191 1_655
Er1_7 Si0_5 3.069191 1_565
Er1_7 Si0_7 3.069191 1_555
Er1_7 Si0_1 3.069191 1_665
Er1_7 Er2_7 3.343762 1_555
Er2_0 Si1_2 3.030882 1_555
Er2_0 Si1_0 3.030882 1_555
Er2_0 Si1_6 3.030882 1_555
Er2_0 Si1_4 3.030882 1_555
Er2_0 Si2_4 3.069191 1_555
Er2_0 Si2_2 3.069191 1_555
Er2_0 Si2_6 3.069191 1_555
Er2_0 Si2_0 3.069191 1_555
Er2_0 Er3_0 3.335469 1_555
Er2_0 Er2_4 3.575208 1_455
Er2_0 Er2_4 3.575208 1_555
Er2_0 Er2_2 3.575208 1_555
Er2_0 Er2_2 3.575208 1_545
Er2_1 Si1_3 3.030882 1_555
Er2_1 Si1_5 3.030882 1_555
Er2_1 Si1_1 3.030882 1_555
Er2_1 Si1_7 3.030882 1_555
Er2_1 Si2_5 3.069191 1_555
Er2_1 Si2_3 3.069191 1_555
Er2_1 Si2_1 3.069191 1_555
Er2_1 Si2_7 3.069191 1_555
Er2_1 Er3_1 3.335469 1_555
Er2_1 Er2_5 3.575208 1_555
Er2_1 Er2_3 3.575208 1_545
Er2_1 Er2_3 3.575208 1_555
Er2_1 Er2_5 3.575208 1_455
Er2_2 Si1_2 3.030882 1_555
Er2_2 Si1_6 3.030882 1_555
Er2_2 Si1_0 3.030882 1_565
Er2_2 Si1_4 3.030882 1_565
Er2_2 Si2_0 3.069191 1_565
Er2_2 Si2_2 3.069191 1_555
Er2_2 Si2_4 3.069191 1_565
Er2_2 Si2_6 3.069191 1_555
Er2_2 Er3_2 3.335469 1_555
Er2_2 Er2_6 3.575208 1_455
Er2_2 Er2_6 3.575208 1_555
Er2_3 Si1_1 3.030882 1_565
Er2_3 Si1_3 3.030882 1_555
Er2_3 Si1_7 3.030882 1_555
Er2_3 Si1_5 3.030882 1_565
Er2_3 Si2_7 3.069191 1_555
Er2_3 Si2_3 3.069191 1_555
Er2_3 Si2_1 3.069191 1_565
Er2_3 Si2_5 3.069191 1_565
Er2_3 Er3_3 3.335469 1_555
Er2_3 Er2_7 3.575208 1_555
Er2_3 Er2_7 3.575208 1_455
Er2_4 Si1_0 3.030882 1_655
Er2_4 Si1_2 3.030882 1_655
Er2_4 Si1_6 3.030882 1_555
Er2_4 Si1_4 3.030882 1_555
Er2_4 Si2_4 3.069191 1_555
Er2_4 Si2_2 3.069191 1_655
Er2_4 Si2_6 3.069191 1_555
Er2_4 Si2_0 3.069191 1_655
Er2_4 Er3_4 3.335469 1_555
Er2_4 Er2_6 3.575208 1_555
Er2_4 Er2_6 3.575208 1_545
Er2_5 Si1_3 3.030882 1_655
Er2_5 Si1_7 3.030882 1_555
Er2_5 Si1_1 3.030882 1_655
Er2_5 Si1_5 3.030882 1_555
Er2_5 Si2_5 3.069191 1_555
Er2_5 Si2_3 3.069191 1_655
Er2_5 Si2_1 3.069191 1_655
Er2_5 Si2_7 3.069191 1_555
Er2_5 Er3_5 3.335469 1_555
Er2_5 Er2_7 3.575208 1_545
Er2_5 Er2_7 3.575208 1_555
Er2_6 Si1_0 3.030882 1_665
Er2_6 Si1_6 3.030882 1_555
Er2_6 Si1_2 3.030882 1_655
Er2_6 Si1_4 3.030882 1_565
Er2_6 Si2_2 3.069191 1_655
Er2_6 Si2_4 3.069191 1_565
Er2_6 Si2_6 3.069191 1_555
Er2_6 Si2_0 3.069191 1_665
Er2_6 Er3_6 3.335469 1_555
Er2_7 Si1_1 3.030882 1_665
Er2_7 Si1_7 3.030882 1_555
Er2_7 Si1_3 3.030882 1_655
Er2_7 Si1_5 3.030882 1_565
Er2_7 Si2_3 3.069191 1_655
Er2_7 Si2_7 3.069191 1_555
Er2_7 Si2_5 3.069191 1_565
Er2_7 Si2_1 3.069191 1_665
Er2_7 Er3_7 3.335469 1_555
Er3_0 Si2_0 2.989215 1_555
Er3_0 Si2_6 2.989215 1_555
Er3_0 Si2_4 2.989215 1_555
Er3_0 Si2_2 2.989215 1_555
Er3_1 Si2_7 2.989215 1_555
Er3_1 Si2_5 2.989215 1_555
Er3_1 Si2_3 2.989215 1_555
Er3_1 Si2_1 2.989215 1_555
Er3_2 Si2_4 2.989215 1_565
Er3_2 Si2_6 2.989215 1_555
Er3_2 Si2_0 2.989215 1_565
Er3_2 Si2_2 2.989215 1_555
Er3_3 Si2_5 2.989215 1_565
Er3_3 Si2_7 2.989215 1_555
Er3_3 Si2_3 2.989215 1_555
Er3_3 Si2_1 2.989215 1_565
Er3_4 Si2_2 2.989215 1_655
Er3_4 Si2_6 2.989215 1_555
Er3_4 Si2_0 2.989215 1_655
Er3_4 Si2_4 2.989215 1_555
Er3_5 Si2_7 2.989215 1_555
Er3_5 Si2_5 2.989215 1_555
Er3_5 Si2_3 2.989215 1_655
Er3_5 Si2_1 2.989215 1_655
Er3_6 Si2_2 2.989215 1_655
Er3_6 Si2_4 2.989215 1_565
Er3_6 Si2_6 2.989215 1_555
Er3_6 Si2_0 2.989215 1_665
Er3_7 Si2_1 2.989215 1_665
Er3_7 Si2_5 2.989215 1_565
Er3_7 Si2_7 2.989215 1_555
Er3_7 Si2_3 2.989215 1_655
Al0_0 Er0_2 3.078882 1_545
Al0_0 Er0_4 3.078882 1_455
Al0_0 Er0_6 3.078882 1_445
Al0_0 Er0_0 3.078882 1_555
Al0_0 Er3_1 3.078882 1_554
Al0_0 Er3_3 3.078882 1_544
Al0_0 Er3_7 3.078882 1_444
Al0_0 Er3_5 3.078882 1_454
Al0_0 Si0_0 3.352502 1_555
Al0_0 Si2_1 3.352502 1_554
Al0_0 Al0_2 3.575208 1_555
Al0_0 Al0_4 3.575208 1_455
Al0_0 Al0_2 3.575208 1_545
Al0_0 Al0_4 3.575208 1_555
Al0_1 Er0_7 3.078882 1_445
Al0_1 Er0_1 3.078882 1_555
Al0_1 Er0_3 3.078882 1_545
Al0_1 Er0_5 3.078882 1_455
Al0_1 Er3_0 3.078882 1_555
Al0_1 Er3_4 3.078882 1_455
Al0_1 Er3_2 3.078882 1_545
Al0_1 Er3_6 3.078882 1_445
Al0_1 Si0_1 3.352502 1_555
Al0_1 Si2_0 3.352502 1_555
Al0_1 Al0_3 3.575208 1_555
Al0_1 Al0_5 3.575208 1_555
Al0_1 Al0_5 3.575208 1_455
Al0_1 Al0_3 3.575208 1_545
Al0_2 Er0_2 3.078882 1_555
Al0_2 Er0_4 3.078882 1_455
Al0_2 Er0_6 3.078882 1_455
Al0_2 Er0_0 3.078882 1_555
Al0_2 Er3_1 3.078882 1_554
Al0_2 Er3_3 3.078882 1_554
Al0_2 Er3_5 3.078882 1_454
Al0_2 Er3_7 3.078882 1_454
Al0_2 Si0_2 3.352502 1_555
Al0_2 Si2_3 3.352502 1_554
Al0_2 Al0_6 3.575208 1_455
Al0_2 Al0_6 3.575208 1_555
Al0_3 Er0_3 3.078882 1_555
Al0_3 Er0_1 3.078882 1_555
Al0_3 Er0_5 3.078882 1_455
Al0_3 Er0_7 3.078882 1_455
Al0_3 Er3_4 3.078882 1_455
Al0_3 Er3_6 3.078882 1_455
Al0_3 Er3_2 3.078882 1_555
Al0_3 Er3_0 3.078882 1_555
Al0_3 Si0_3 3.352502 1_555
Al0_3 Si2_2 3.352502 1_555
Al0_3 Al0_7 3.575208 1_455
Al0_3 Al0_7 3.575208 1_555
Al0_4 Er0_2 3.078882 1_545
Al0_4 Er0_4 3.078882 1_555
Al0_4 Er0_6 3.078882 1_545
Al0_4 Er0_0 3.078882 1_555
Al0_4 Er3_1 3.078882 1_554
Al0_4 Er3_3 3.078882 1_544
Al0_4 Er3_5 3.078882 1_554
Al0_4 Er3_7 3.078882 1_544
Al0_4 Si0_4 3.352502 1_555
Al0_4 Si2_5 3.352502 1_554
Al0_4 Al0_6 3.575208 1_545
Al0_4 Al0_6 3.575208 1_555
Al0_5 Er0_1 3.078882 1_555
Al0_5 Er0_3 3.078882 1_545
Al0_5 Er0_7 3.078882 1_545
Al0_5 Er0_5 3.078882 1_555
Al0_5 Er3_0 3.078882 1_555
Al0_5 Er3_4 3.078882 1_555
Al0_5 Er3_2 3.078882 1_545
Al0_5 Er3_6 3.078882 1_545
Al0_5 Si0_5 3.352502 1_555
Al0_5 Si2_4 3.352502 1_555
Al0_5 Al0_7 3.575208 1_545
Al0_5 Al0_7 3.575208 1_555
Al0_6 Er0_4 3.078882 1_555
Al0_6 Er0_2 3.078882 1_555
Al0_6 Er0_6 3.078882 1_555
Al0_6 Er0_0 3.078882 1_555
Al0_6 Er3_1 3.078882 1_554
Al0_6 Er3_7 3.078882 1_554
Al0_6 Er3_3 3.078882 1_554
Al0_6 Er3_5 3.078882 1_554
Al0_6 Si0_6 3.352502 1_555
Al0_6 Si2_7 3.352502 1_554
Al0_7 Er0_3 3.078882 1_555
Al0_7 Er0_1 3.078882 1_555
Al0_7 Er0_7 3.078882 1_555
Al0_7 Er0_5 3.078882 1_555
Al0_7 Er3_4 3.078882 1_555
Al0_7 Er3_2 3.078882 1_555
Al0_7 Er3_6 3.078882 1_555
Al0_7 Er3_0 3.078882 1_555
Al0_7 Si0_7 3.352502 1_555
Al0_7 Si2_6 3.352502 1_555
Si0_0 Si1_0 3.412249 1_555
Si0_1 Si1_1 3.412249 1_555
Si0_2 Si1_2 3.412249 1_555
Si0_3 Si1_3 3.412249 1_555
Si0_4 Si1_4 3.412249 1_555
Si0_5 Si1_5 3.412249 1_555
Si0_6 Si1_6 3.412249 1_555
Si0_7 Si1_7 3.412249 1_555
Si1_0 Si2_0 3.412249 1_555
Si1_1 Si2_1 3.412249 1_555
Si1_2 Si2_2 3.412249 1_555
Si1_3 Si2_3 3.412249 1_555
Si1_4 Si2_4 3.412249 1_555
Si1_5 Si2_5 3.412249 1_555
Si1_6 Si2_6 3.412249 1_555
Si1_7 Si2_7 3.412249 1_555
