# generated using pymatgen
data_Ga2RuPt
_symmetry_space_group_name_H-M   'P 1'
_cell_length_a   4.34588393
_cell_length_b   4.34588393
_cell_length_c   4.34588393
_cell_angle_alpha   60.00000000
_cell_angle_beta   60.00000000
_cell_angle_gamma   60.00000000
_symmetry_Int_Tables_number   1
_chemical_formula_structural   Ga2RuPt
_chemical_formula_sum   'Ga2 Ru1 Pt1'
_cell_volume   58.03892667
_cell_formula_units_Z   1
loop_
 _symmetry_equiv_pos_site_id
 _symmetry_equiv_pos_as_xyz
  1  'x, y, z'
loop_
 _atom_site_type_symbol
 _atom_site_label
 _atom_site_symmetry_multiplicity
 _atom_site_fract_x
 _atom_site_fract_y
 _atom_site_fract_z
 _atom_site_occupancy
  Ga  Ga0  1  0.25000000  0.25000000  0.25000000  1
  Ga  Ga1  1  0.75000000  0.75000000  0.75000000  1
  Ru  Ru0  1  0.00000000  0.00000000  0.00000000  1
  Pt  Pt0  1  0.50000000  0.50000000  0.50000000  1
loop_
_geom_bond_atom_site_label_1
_geom_bond_atom_site_label_2
_geom_bond_distance
_geom_bond_site_symmetry_2
Ga0 Pt0 2.661300 1_555
Ga0 Ru0 2.661300 1_655
Ga0 Ru0 2.661300 1_556
Ga0 Pt0 2.661300 1_545
Ga0 Ru0 2.661300 1_565
Ga0 Pt0 2.661300 1_554
Ga0 Ru0 2.661300 1_555
Ga0 Pt0 2.661300 1_455
Ga0 Ga1 3.073004 1_554
Ga0 Ga1 3.073004 1_454
Ga0 Ga1 3.073004 1_544
Ga0 Ga1 3.073004 1_445
Ga0 Ga1 3.073004 1_545
Ga0 Ga1 3.073004 1_455
Ga1 Ru0 2.661300 1_566
Ga1 Pt0 2.661300 1_555
Ga1 Pt0 2.661300 1_556
Ga1 Pt0 2.661300 1_565
Ga1 Ru0 2.661300 1_666
Ga1 Ru0 2.661300 1_656
Ga1 Ru0 2.661300 1_665
Ga1 Pt0 2.661300 1_655
Pt0 Ru0 3.073004 1_656
Pt0 Ru0 3.073004 1_655
Pt0 Ru0 3.073004 1_566
Pt0 Ru0 3.073004 1_556
Pt0 Ru0 3.073004 1_565
Pt0 Ru0 3.073004 1_665
