# generated using pymatgen
data_SmAlNi
_symmetry_space_group_name_H-M   'P 1'
_cell_length_a   5.41747943
_cell_length_b   5.47158967
_cell_length_c   8.51981000
_cell_angle_alpha   90.00000000
_cell_angle_beta   90.00000000
_cell_angle_gamma   120.35002728
_symmetry_Int_Tables_number   1
_chemical_formula_structural   SmAlNi
_chemical_formula_sum   'Sm4 Al4 Ni4'
_cell_volume   217.93586109
_cell_formula_units_Z   4
loop_
 _symmetry_equiv_pos_site_id
 _symmetry_equiv_pos_as_xyz
  1  'x, y, z'
loop_
 _atom_site_type_symbol
 _atom_site_label
 _atom_site_symmetry_multiplicity
 _atom_site_fract_x
 _atom_site_fract_y
 _atom_site_fract_z
 _atom_site_occupancy
  Sm  Sm0  1  0.66583400  0.33289300  0.54251900  1
  Sm  Sm1  1  0.34070300  0.67035600  0.42647000  1
  Sm  Sm2  1  0.34070300  0.67035600  0.07353000  1
  Sm  Sm3  1  0.66583400  0.33289300  0.95748100  1
  Al  Al0  1  0.99436000  0.99718500  0.49017900  1
  Al  Al1  1  0.99436000  0.99718500  0.00982100  1
  Al  Al2  1  0.17108800  0.33823600  0.75000000  1
  Al  Al3  1  0.17101500  0.83290500  0.75000000  1
  Ni  Ni0  1  0.66484700  0.83234000  0.75000000  1
  Ni  Ni1  1  0.83375400  0.66878700  0.25000000  1
  Ni  Ni2  1  0.83383000  0.16503800  0.25000000  1
  Ni  Ni3  1  0.32367000  0.16182500  0.25000000  1
loop_
_geom_bond_atom_site_label_1
_geom_bond_atom_site_label_2
_geom_bond_distance
_geom_bond_site_symmetry_2
Sm0 Sm1 3.281602 1_545
Sm0 Sm1 3.282705 1_555
Sm0 Sm1 3.306332 1_655
Sm0 Sm3 3.535397 1_555
Sm1 Sm2 3.006982 1_555
Sm2 Sm3 3.281602 1_564
Sm2 Sm3 3.282705 1_554
Sm2 Sm3 3.306332 1_454
Al0 Ni3 2.560749 1_665
Al0 Ni1 2.567699 1_555
Al0 Ni2 2.567926 1_565
Al0 Ni0 2.696894 1_555
Al0 Al3 2.737396 1_655
Al0 Al2 2.737441 1_665
Al0 Sm1 3.103703 1_555
Al0 Sm0 3.168659 1_555
Al0 Sm0 3.169267 1_565
Al0 Sm0 3.170682 1_665
Al0 Sm1 3.224582 1_665
Al0 Sm1 3.225501 1_655
Al1 Ni3 2.560749 1_665
Al1 Ni1 2.567699 1_555
Al1 Ni2 2.567926 1_565
Al1 Ni0 2.696894 1_554
Al1 Al3 2.737396 1_654
Al1 Al2 2.737441 1_664
Al1 Sm2 3.103703 1_555
Al1 Sm3 3.168659 1_554
Al1 Sm3 3.169267 1_564
Al1 Sm3 3.170682 1_664
Al1 Sm2 3.224582 1_665
Al1 Sm2 3.225501 1_655
Al2 Ni0 2.675107 1_555
Al2 Al3 2.706826 1_555
Al2 Ni0 2.740802 1_445
Al2 Al3 2.764764 1_545
Al2 Sm1 3.171280 1_555
Al2 Sm2 3.171280 1_556
Al2 Sm3 3.223147 1_555
Al2 Sm0 3.223147 1_555
Al2 Sm3 3.246079 1_455
Al2 Sm0 3.246079 1_455
Al3 Ni0 2.676888 1_555
Al3 Ni0 2.740594 1_455
Al3 Sm1 3.171778 1_555
Al3 Sm2 3.171778 1_556
Al3 Sm3 3.222409 1_565
Al3 Sm0 3.222409 1_565
Al3 Sm3 3.245489 1_455
Al3 Sm0 3.245489 1_455
Ni0 Sm1 3.145507 1_555
Ni0 Sm2 3.145507 1_556
Ni0 Sm3 3.256928 1_555
Ni0 Sm0 3.256928 1_555
Ni0 Sm3 3.257472 1_565
Ni0 Sm0 3.257472 1_565
Ni1 Ni3 2.662005 1_665
Ni1 Ni2 2.715074 1_565
Ni1 Ni3 2.753983 1_555
Ni1 Ni2 2.756516 1_555
Ni1 Sm0 2.954125 1_555
Ni1 Sm3 2.954125 1_554
Ni1 Sm1 3.068953 1_555
Ni1 Sm2 3.068953 1_555
Ni1 Sm2 3.127198 1_655
Ni1 Sm1 3.127198 1_655
Ni2 Ni3 2.662624 1_655
Ni2 Ni3 2.754940 1_555
Ni2 Sm0 2.954256 1_555
Ni2 Sm3 2.954256 1_554
Ni2 Sm2 3.068599 1_545
Ni2 Sm1 3.068599 1_545
Ni2 Sm2 3.126175 1_655
Ni2 Sm1 3.126175 1_655
Ni3 Sm0 2.961403 1_555
Ni3 Sm3 2.961403 1_554
Ni3 Sm1 3.122677 1_545
Ni3 Sm2 3.122677 1_545
Ni3 Sm2 3.122769 1_555
Ni3 Sm1 3.122769 1_555
