# generated using pymatgen
data_CoO2
_symmetry_space_group_name_H-M   'P 1'
_cell_length_a   10.90110038
_cell_length_b   10.55379356
_cell_length_c   10.61236031
_cell_angle_alpha   92.99442637
_cell_angle_beta   92.85346904
_cell_angle_gamma   87.19206682
_symmetry_Int_Tables_number   1
_chemical_formula_structural   CoO2
_chemical_formula_sum   'Co30 O60'
_cell_volume   1216.43391485
_cell_formula_units_Z   30
loop_
 _symmetry_equiv_pos_site_id
 _symmetry_equiv_pos_as_xyz
  1  'x, y, z'
loop_
 _atom_site_type_symbol
 _atom_site_label
 _atom_site_symmetry_multiplicity
 _atom_site_fract_x
 _atom_site_fract_y
 _atom_site_fract_z
 _atom_site_occupancy
  Co  Co0  1  0.89116286  0.25383392  0.22214253  1
  Co  Co1  1  0.49766940  0.11932091  0.50439496  1
  Co  Co2  1  0.21876761  0.69036446  0.35719202  1
  Co  Co3  1  0.46643877  0.86162857  0.28301097  1
  Co  Co4  1  0.67957316  0.59232344  0.27912944  1
  Co  Co5  1  0.24437977  0.25683608  0.41418497  1
  Co  Co6  1  0.66582705  0.28540910  0.00333288  1
  Co  Co7  1  0.90097717  0.76396713  0.33577246  1
  Co  Co8  1  0.17508680  0.40013247  0.17814104  1
  Co  Co9  1  0.32954815  0.64002102  0.09618414  1
  Co  Co10  1  0.89268651  0.11696610  0.62342434  1
  Co  Co11  1  0.89815920  0.50359389  0.07137732  1
  Co  Co12  1  0.97766652  0.99589528  0.05769707  1
  Co  Co13  1  0.04946043  0.32996848  0.82567103  1
  Co  Co14  1  0.17021863  0.08987198  0.63088212  1
  Co  Co15  1  0.98160090  0.85967505  0.73595161  1
  Co  Co16  1  0.65992819  0.84212375  0.47799987  1
  Co  Co17  1  0.52596804  0.86529583  0.01469584  1
  Co  Co18  1  0.39477219  0.56410713  0.72812061  1
  Co  Co19  1  0.75766446  0.38276274  0.73365100  1
  Co  Co20  1  0.36669193  0.32097232  0.96940961  1
  Co  Co21  1  0.42557463  0.07172693  0.77860251  1
  Co  Co22  1  0.63500317  0.54554026  0.90358591  1
  Co  Co23  1  0.11508441  0.57974397  0.63103936  1
  Co  Co24  1  0.72541908  0.01379743  0.22882351  1
  Co  Co25  1  0.06963597  0.75504594  0.00950818  1
  Co  Co26  1  0.72629075  0.28186288  0.44176399  1
  Co  Co27  1  0.78756849  0.76194173  0.05524115  1
  Co  Co28  1  0.49132683  0.32052285  0.25522119  1
  Co  Co29  1  0.67404459  0.02574759  0.79617136  1
  O  O0  1  0.45645637  0.82149530  0.67676389  1
  O  O1  1  0.33633233  0.81427849  0.35003221  1
  O  O2  1  0.81339044  0.95795424  0.69946422  1
  O  O3  1  0.78772709  0.89636289  0.36859481  1
  O  O4  1  0.70775767  0.39356139  0.56348594  1
  O  O5  1  0.70392545  0.89090568  0.66678961  1
  O  O6  1  0.53764907  0.97132036  0.87451800  1
  O  O7  1  0.14336325  0.20959995  0.75339498  1
  O  O8  1  0.53852704  0.61721947  0.77748077  1
  O  O9  1  0.89161071  0.27257470  0.72022136  1
  O  O10  1  0.98387813  0.11785016  0.18918059  1
  O  O11  1  0.56169726  0.94988290  0.18405097  1
  O  O12  1  0.79433817  0.13702704  0.47886996  1
  O  O13  1  0.59249505  0.73532832  0.34823023  1
  O  O14  1  0.55496647  0.10725336  0.67059449  1
  O  O15  1  0.71736357  0.14972804  0.91135641  1
  O  O16  1  0.16011860  0.13566243  0.46337232  1
  O  O17  1  0.58894806  0.46539088  0.28594062  1
  O  O18  1  0.00070273  0.70691607  0.66152144  1
  O  O19  1  0.10667620  0.44891549  0.71901592  1
  O  O20  1  0.57562577  0.22116561  0.38803229  1
  O  O21  1  0.44943408  0.54899467  0.98431266  1
  O  O22  1  0.64533736  0.71796306  0.98083993  1
  O  O23  1  0.02956428  0.99862529  0.64591246  1
  O  O24  1  0.21382894  0.34232201  0.00960622  1
  O  O25  1  0.24919901  0.56622762  0.21909946  1
  O  O26  1  0.29407017  0.00891972  0.89050887  1
  O  O27  1  0.39351957  0.22837273  0.82548627  1
  O  O28  1  0.42774378  0.51946001  0.46116148  1
  O  O29  1  0.81664275  0.65344303  0.20347985  1
  O  O30  1  0.01601241  0.21723358  0.96332798  1
  O  O31  1  0.81270224  0.63378788  0.44142020  1
  O  O32  1  0.37615999  0.48380143  0.88802386  1
  O  O33  1  0.37230633  0.24228254  0.51865871  1
  O  O34  1  0.42304567  0.77430565  0.12378034  1
  O  O35  1  0.74593768  0.19550005  0.17147766  1
  O  O36  1  0.49311197  0.77458814  0.57539613  1
  O  O37  1  0.08070348  0.87047434  0.13367968  1
  O  O38  1  0.50424476  0.28959996  0.07435241  1
  O  O39  1  0.45712196  0.47130533  0.56384675  1
  O  O40  1  0.26617875  0.63826091  0.63787255  1
  O  O41  1  0.75953611  0.69657529  0.53433987  1
  O  O42  1  0.32831906  0.97575978  0.00036489  1
  O  O43  1  0.19708888  0.66018489  -0.02472626  1
  O  O44  1  0.13055080  0.50429192  0.46015537  1
  O  O45  1  0.81789872  0.92683654  0.09079284  1
  O  O46  1  0.72318209  0.46173623  0.03943427  1
  O  O47  1  0.11027400  0.38190098  0.42894045  1
  O  O48  1  0.62208276  0.37828673  0.83941907  1
  O  O49  1  0.92891837  0.66237311  0.00318841  1
  O  O50  1  0.00288564  0.88317869  0.90485176  1
  O  O51  1  0.96037948  0.11350647  0.93075843  1
  O  O52  1  0.31199720  0.30982821  0.27766220  1
  O  O53  1  0.84323272  0.34910136  0.35752836  1
  O  O54  1  0.32373656  0.02332081  0.64345684  1
  O  O55  1  0.53113689  0.96412022  0.42856921  1
  O  O56  1  0.98918451  0.39402973  0.17105454  1
  O  O57  1  0.96493502  0.43658048  0.91592052  1
  O  O58  1  0.05428908  0.73918467  0.38003082  1
  O  O59  1  0.76155484  0.54778495  0.80673591  1
loop_
_geom_bond_atom_site_label_1
_geom_bond_atom_site_label_2
_geom_bond_distance
_geom_bond_site_symmetry_2
Co0 O10 1.744749 1_555
Co0 O35 1.774970 1_555
Co0 O53 1.794583 1_555
Co0 O56 1.980235 1_555
Co1 O55 1.815628 1_545
Co1 O33 1.844145 1_555
Co1 O14 1.850194 1_555
Co1 O20 1.932631 1_555
Co2 O58 1.865144 1_555
Co2 O1 1.882223 1_555
Co2 O25 1.944051 1_555
Co2 O44 2.547347 1_555
Co3 O1 1.724588 1_555
Co3 O11 1.831480 1_555
Co3 O34 1.931055 1_555
Co3 O55 1.960943 1_555
Co3 O13 1.991562 1_555
Co4 O17 1.709582 1_555
Co4 O13 1.878819 1_555
Co4 O29 1.887124 1_555
Co4 O31 2.235740 1_555
Co5 O16 1.727484 1_555
Co5 O33 1.743687 1_555
Co5 O52 1.785100 1_555
Co5 O47 1.927688 1_555
Co6 O15 1.774430 1_554
Co6 O38 1.947736 1_555
Co6 O46 2.004091 1_555
Co6 O48 2.064915 1_554
Co6 O35 2.188084 1_555
Co7 O58 1.724530 1_655
Co7 O3 1.849536 1_555
Co7 O29 1.995567 1_555
Co7 O31 2.113878 1_555
Co8 O24 1.919761 1_555
Co8 O25 1.984592 1_555
Co8 O52 2.014972 1_555
Co8 O56 2.028244 1_455
Co9 O34 1.789279 1_555
Co9 O25 1.833565 1_555
Co9 O43 1.894913 1_555
Co9 O21 1.988128 1_554
Co10 O12 1.842696 1_555
Co10 O9 1.890886 1_555
Co10 O23 1.912155 1_645
Co10 O2 2.137229 1_545
Co11 O56 1.830715 1_555
Co11 O49 1.910509 1_555
Co11 O57 1.923284 1_554
Co11 O46 1.987696 1_555
Co11 O29 2.238481 1_555
Co12 O10 1.849237 1_565
Co12 O51 1.875482 1_564
Co12 O37 1.881379 1_655
Co12 O45 1.974816 1_555
Co12 O50 1.983054 1_654
Co13 O57 1.704701 1_455
Co13 O7 1.760371 1_555
Co13 O19 1.881879 1_555
Co13 O30 1.989921 1_555
Co13 O9 2.102314 1_455
Co14 O54 1.784425 1_555
Co14 O7 1.789624 1_555
Co14 O16 1.863021 1_555
Co14 O23 1.867845 1_545
Co15 O18 1.765462 1_655
Co15 O50 1.801651 1_655
Co15 O23 1.899514 1_655
Co15 O2 2.091187 1_555
Co16 O13 1.877632 1_555
Co16 O55 1.929807 1_555
Co16 O41 1.940101 1_555
Co16 O3 1.981207 1_555
Co16 O5 2.080835 1_555
Co16 O36 2.296591 1_555
Co17 O6 1.920424 1_554
Co17 O34 1.967774 1_555
Co17 O11 1.993870 1_555
Co17 O22 2.007505 1_554
Co17 O42 2.400898 1_555
Co18 O8 1.737242 1_555
Co18 O40 1.825368 1_555
Co18 O32 1.959720 1_555
Co18 O39 2.082015 1_555
Co19 O9 1.828049 1_555
Co19 O4 1.867534 1_555
Co19 O59 1.870668 1_555
Co19 O48 1.903715 1_555
Co20 O24 1.741692 1_556
Co20 O27 1.798323 1_555
Co20 O38 1.849860 1_556
Co20 O32 1.972578 1_555
Co21 O27 1.725551 1_555
Co21 O54 1.835994 1_555
Co21 O6 1.874478 1_545
Co21 O14 1.923963 1_555
Co21 O26 2.061466 1_555
Co22 O59 1.762678 1_555
Co22 O8 1.832213 1_555
Co22 O48 1.867769 1_555
Co22 O46 1.922657 1_556
Co22 O22 1.962453 1_555
Co22 O21 2.233714 1_555
Co23 O19 1.715261 1_555
Co23 O40 1.784004 1_555
Co23 O18 1.814267 1_555
Co23 O44 1.953883 1_555
Co24 O11 1.966247 1_545
Co24 O45 1.979969 1_545
Co24 O3 2.051068 1_545
Co24 O35 2.067677 1_555
Co25 O43 1.714825 1_555
Co25 O37 1.750974 1_555
Co25 O49 1.855818 1_455
Co25 O50 1.889907 1_554
Co26 O4 1.715423 1_555
Co26 O12 1.721787 1_555
Co26 O53 1.787782 1_555
Co26 O20 1.845183 1_555
Co27 O22 1.775714 1_554
Co27 O45 1.804313 1_555
Co27 O49 1.910267 1_555
Co27 O29 1.997370 1_555
Co28 O17 1.910264 1_555
Co28 O38 1.941022 1_555
Co28 O20 1.965092 1_555
Co28 O52 1.990435 1_555
Co29 O15 1.807003 1_555
Co29 O6 1.867797 1_545
Co29 O5 1.952311 1_545
Co29 O2 1.960772 1_545
Co29 O14 2.009748 1_555
O0 O36 1.236835 1_555
O2 O5 1.435547 1_555
O21 O32 1.433433 1_555
O26 O42 1.267879 1_546
O28 O39 1.247209 1_555
O30 O51 1.300117 1_455
O31 O41 1.303224 1_555
O44 O47 1.342770 1_555
O49 O57 2.530682 1_554
O50 O51 2.455960 1_465
