# generated using pymatgen
data_ZnAg2P2O7
_symmetry_space_group_name_H-M   'P 1'
_cell_length_a   7.90356400
_cell_length_b   7.90356400
_cell_length_c   10.61219300
_cell_angle_alpha   90.00000000
_cell_angle_beta   90.00000000
_cell_angle_gamma   90.00000000
_symmetry_Int_Tables_number   1
_chemical_formula_structural   ZnAg2P2O7
_chemical_formula_sum   'Zn4 Ag8 P8 O28'
_cell_volume   662.90468525
_cell_formula_units_Z   4
loop_
 _symmetry_equiv_pos_site_id
 _symmetry_equiv_pos_as_xyz
  1  'x, y, z'
loop_
 _atom_site_type_symbol
 _atom_site_label
 _atom_site_symmetry_multiplicity
 _atom_site_fract_x
 _atom_site_fract_y
 _atom_site_fract_z
 _atom_site_occupancy
  Zn  Zn0  1  0.00000000  0.50000000  0.75000000  1
  Zn  Zn1  1  0.50000000  0.00000000  0.25000000  1
  Zn  Zn2  1  0.00000000  0.50000000  0.25000000  1
  Zn  Zn3  1  0.50000000  0.00000000  0.75000000  1
  Ag  Ag0  1  0.63949300  0.63949300  0.00000000  1
  Ag  Ag1  1  0.86050700  0.13949300  0.50000000  1
  Ag  Ag2  1  0.13949300  0.86050700  0.50000000  1
  Ag  Ag3  1  0.36050700  0.36050700  0.00000000  1
  Ag  Ag4  1  0.29918500  0.29918500  0.50000000  1
  Ag  Ag5  1  0.79918500  0.20081500  0.00000000  1
  Ag  Ag6  1  0.70081500  0.70081500  0.50000000  1
  Ag  Ag7  1  0.20081500  0.79918500  0.00000000  1
  P  P0  1  0.86277800  0.86277800  0.78864900  1
  P  P1  1  0.13722200  0.13722200  0.78864900  1
  P  P2  1  0.86277800  0.86277800  0.21135100  1
  P  P3  1  0.36277800  0.63722200  0.28864900  1
  P  P4  1  0.63722200  0.36277800  0.28864900  1
  P  P5  1  0.63722200  0.36277800  0.71135100  1
  P  P6  1  0.36277800  0.63722200  0.71135100  1
  P  P7  1  0.13722200  0.13722200  0.21135100  1
  O  O0  1  0.30498600  0.07983200  0.15022800  1
  O  O1  1  0.69501300  0.92016800  0.15022800  1
  O  O2  1  0.07983200  0.30498600  0.84977200  1
  O  O3  1  0.57983200  0.19501400  0.65022800  1
  O  O4  1  0.42016800  0.80498700  0.65022800  1
  O  O5  1  0.19501400  0.57983200  0.34977200  1
  O  O6  1  0.80498700  0.42016800  0.34977200  1
  O  O7  1  0.92016800  0.69501300  0.84977200  1
  O  O8  1  0.69501300  0.92016800  0.84977200  1
  O  O9  1  0.30498600  0.07983200  0.84977200  1
  O  O10  1  0.92016800  0.69501300  0.15022800  1
  O  O11  1  0.42016800  0.80498700  0.34977200  1
  O  O12  1  0.57983200  0.19501400  0.34977200  1
  O  O13  1  0.80498700  0.42016800  0.65022800  1
  O  O14  1  0.19501400  0.57983200  0.65022800  1
  O  O15  1  0.07983200  0.30498600  0.15022800  1
  O  O16  1  0.86537700  0.86537700  0.64525400  1
  O  O17  1  0.13462300  0.13462300  0.64525400  1
  O  O18  1  0.86537700  0.86537700  0.35474600  1
  O  O19  1  0.36537700  0.63462300  0.14525400  1
  O  O20  1  0.00000000  0.00000000  0.15729700  1
  O  O21  1  0.50000000  0.50000000  0.65729700  1
  O  O22  1  0.50000000  0.50000000  0.34270300  1
  O  O23  1  0.00000000  0.00000000  0.84270300  1
  O  O24  1  0.13462300  0.13462300  0.35474600  1
  O  O25  1  0.36537700  0.63462300  0.85474600  1
  O  O26  1  0.63462300  0.36537700  0.85474600  1
  O  O27  1  0.63462300  0.36537700  0.14525400  1
loop_
_geom_bond_atom_site_label_1
_geom_bond_atom_site_label_2
_geom_bond_distance
_geom_bond_site_symmetry_2
Ag0 O27 2.659189 1_555
Ag0 O25 2.659189 1_554
Ag0 O19 2.659189 1_555
Ag0 O26 2.659189 1_554
Ag0 O1 2.766800 1_555
Ag0 O8 2.766800 1_554
Ag0 O7 2.766800 1_554
Ag0 O10 2.766800 1_555
Ag1 O18 2.659189 1_545
Ag1 O16 2.659189 1_545
Ag1 O17 2.659189 1_655
Ag1 O24 2.659189 1_655
Ag1 O13 2.766800 1_555
Ag1 O6 2.766800 1_555
Ag1 O3 2.766801 1_555
Ag1 O12 2.766801 1_555
Ag2 O18 2.659189 1_455
Ag2 O16 2.659189 1_455
Ag2 O24 2.659189 1_565
Ag2 O17 2.659189 1_565
Ag2 O4 2.766800 1_555
Ag2 O11 2.766800 1_555
Ag2 O14 2.766801 1_555
Ag2 O5 2.766801 1_555
Ag3 O19 2.659189 1_555
Ag3 O25 2.659189 1_554
Ag3 O26 2.659189 1_554
Ag3 O27 2.659189 1_555
Ag3 O15 2.766801 1_555
Ag3 O9 2.766801 1_554
Ag3 O2 2.766801 1_554
Ag3 O0 2.766801 1_555
Ag4 O24 2.399868 1_555
Ag4 O17 2.399868 1_555
Ag4 O21 2.797243 1_555
Ag4 O22 2.797243 1_555
Ag4 O14 2.852982 1_555
Ag4 O3 2.852982 1_555
Ag4 O12 2.852982 1_555
Ag4 O5 2.852982 1_555
Ag5 O26 2.399868 1_554
Ag5 O27 2.399868 1_555
Ag5 O20 2.797243 1_655
Ag5 O23 2.797243 1_654
Ag5 O15 2.852982 1_655
Ag5 O2 2.852982 1_654
Ag5 O1 2.852984 1_545
Ag5 O8 2.852984 1_544
Ag6 O18 2.399868 1_555
Ag6 O16 2.399868 1_555
Ag6 O21 2.797243 1_555
Ag6 O22 2.797243 1_555
Ag6 O13 2.852984 1_555
Ag6 O4 2.852984 1_555
Ag6 O11 2.852984 1_555
Ag6 O6 2.852984 1_555
Ag7 O25 2.399868 1_554
Ag7 O19 2.399868 1_555
Ag7 O20 2.797243 1_565
Ag7 O23 2.797243 1_564
Ag7 O0 2.852982 1_565
Ag7 O9 2.852982 1_564
Ag7 O10 2.852984 1_455
Ag7 O7 2.852984 1_454
O0 P7 1.544210 1_555
O0 Zn1 1.973521 1_555
O1 P2 1.544217 1_555
O1 Zn1 1.973515 1_565
O2 P1 1.544210 1_555
O2 Zn0 1.973521 1_555
O3 P5 1.544210 1_555
O3 Zn3 1.973521 1_555
O4 P6 1.544217 1_555
O4 Zn3 1.973515 1_565
O5 P3 1.544210 1_555
O5 Zn2 1.973521 1_555
O6 P4 1.544217 1_555
O6 Zn2 1.973515 1_655
O7 P0 1.544217 1_555
O7 Zn0 1.973515 1_655
O8 P0 1.544217 1_555
O8 Zn3 1.973515 1_565
O9 P1 1.544210 1_555
O9 Zn3 1.973521 1_555
O10 P2 1.544217 1_555
O10 Zn2 1.973515 1_655
O11 P3 1.544217 1_555
O11 Zn1 1.973515 1_565
O12 P4 1.544210 1_555
O12 Zn1 1.973521 1_555
O13 P5 1.544217 1_555
O13 Zn0 1.973515 1_655
O14 P6 1.544210 1_555
O14 Zn0 1.973521 1_555
O15 P7 1.544210 1_555
O15 Zn2 1.973521 1_555
O16 P0 1.522013 1_555
O17 P1 1.522013 1_555
O18 P2 1.522013 1_555
O19 P3 1.522013 1_555
O20 P7 1.637535 1_555
O20 P2 1.637535 1_445
O21 P6 1.637535 1_555
O21 P5 1.637535 1_555
O22 P3 1.637535 1_555
O22 P4 1.637535 1_555
O23 P1 1.637535 1_555
O23 P0 1.637535 1_445
O24 P7 1.522013 1_555
O25 P6 1.522013 1_555
O26 P5 1.522013 1_555
O27 P4 1.522013 1_555
