# generated using pymatgen
data_NaFeAs
_symmetry_space_group_name_H-M   'P 1'
_cell_length_a   7.86210698
_cell_length_b   7.86611302
_cell_length_c   38.74834546
_cell_angle_alpha   89.99999962
_cell_angle_beta   90.01227873
_cell_angle_gamma   120.01685713
_symmetry_Int_Tables_number   1
_chemical_formula_structural   NaFeAs
_chemical_formula_sum   'Na32 Fe32 As32'
_cell_volume   2074.95707357
_cell_formula_units_Z   32
loop_
 _symmetry_equiv_pos_site_id
 _symmetry_equiv_pos_as_xyz
  1  'x, y, z'
loop_
 _atom_site_type_symbol
 _atom_site_label
 _atom_site_symmetry_multiplicity
 _atom_site_fract_x
 _atom_site_fract_y
 _atom_site_fract_z
 _atom_site_occupancy
  Na  Na0_0  1  0.16785400  0.33392700  0.32556350  1
  Na  Na0_1  1  0.16785400  0.33392700  0.82556350  1
  Na  Na0_2  1  0.16785400  0.83392700  0.32556350  1
  Na  Na0_3  1  0.16785400  0.83392700  0.82556350  1
  Na  Na0_4  1  0.66785400  0.33392700  0.32556350  1
  Na  Na0_5  1  0.66785400  0.33392700  0.82556350  1
  Na  Na0_6  1  0.66785400  0.83392700  0.32556350  1
  Na  Na0_7  1  0.66785400  0.83392700  0.82556350  1
  Na  Na1_0  1  0.33214600  0.16607300  0.17443650  1
  Na  Na1_1  1  0.33214600  0.16607300  0.67443650  1
  Na  Na1_2  1  0.33214600  0.66607300  0.17443650  1
  Na  Na1_3  1  0.33214600  0.66607300  0.67443650  1
  Na  Na1_4  1  0.83214600  0.16607300  0.17443650  1
  Na  Na1_5  1  0.83214600  0.16607300  0.67443650  1
  Na  Na1_6  1  0.83214600  0.66607300  0.17443650  1
  Na  Na1_7  1  0.83214600  0.66607300  0.67443650  1
  Na  Na2_0  1  0.49967500  0.49983750  0.09095500  1
  Na  Na2_1  1  0.49967500  0.49983750  0.59095500  1
  Na  Na2_2  1  0.49967500  0.99983750  0.09095500  1
  Na  Na2_3  1  0.49967500  0.99983750  0.59095500  1
  Na  Na2_4  1  0.99967500  0.49983750  0.09095500  1
  Na  Na2_5  1  0.99967500  0.49983750  0.59095500  1
  Na  Na2_6  1  0.99967500  0.99983750  0.09095500  1
  Na  Na2_7  1  0.99967500  0.99983750  0.59095500  1
  Na  Na3_0  1  0.00032500  0.00016250  0.40904500  1
  Na  Na3_1  1  0.00032500  0.00016250  0.90904500  1
  Na  Na3_2  1  0.00032500  0.50016250  0.40904500  1
  Na  Na3_3  1  0.00032500  0.50016250  0.90904500  1
  Na  Na3_4  1  0.50032500  0.00016250  0.40904500  1
  Na  Na3_5  1  0.50032500  0.00016250  0.90904500  1
  Na  Na3_6  1  0.50032500  0.50016250  0.40904500  1
  Na  Na3_7  1  0.50032500  0.50016250  0.90904500  1
  Fe  Fe0_0  1  0.00000000  0.00000000  0.25000000  1
  Fe  Fe0_1  1  0.00000000  0.00000000  0.75000000  1
  Fe  Fe0_2  1  1.00000000  0.50000000  0.25000000  1
  Fe  Fe0_3  1  0.00000000  0.50000000  0.75000000  1
  Fe  Fe0_4  1  0.50000000  0.00000000  0.25000000  1
  Fe  Fe0_5  1  0.50000000  1.00000000  0.75000000  1
  Fe  Fe0_6  1  0.50000000  0.50000000  0.25000000  1
  Fe  Fe0_7  1  0.50000000  0.50000000  0.75000000  1
  Fe  Fe1_0  1  0.00000000  0.00000000  0.00000000  1
  Fe  Fe1_1  1  0.00000000  0.00000000  0.50000000  1
  Fe  Fe1_2  1  0.00000000  0.50000000  0.00000000  1
  Fe  Fe1_3  1  0.00000000  0.50000000  0.50000000  1
  Fe  Fe1_4  1  0.50000000  0.00000000  0.00000000  1
  Fe  Fe1_5  1  0.50000000  0.00000000  0.50000000  1
  Fe  Fe1_6  1  0.50000000  0.50000000  0.00000000  1
  Fe  Fe1_7  1  0.50000000  0.50000000  0.50000000  1
  Fe  Fe2_0  1  0.16663000  0.33331500  0.02077700  1
  Fe  Fe2_1  1  0.16663000  0.33331500  0.52077700  1
  Fe  Fe2_2  1  0.16663000  0.83331500  0.02077700  1
  Fe  Fe2_3  1  0.16663000  0.83331500  0.52077700  1
  Fe  Fe2_4  1  0.66663000  0.33331500  0.02077700  1
  Fe  Fe2_5  1  0.66663000  0.33331500  0.52077700  1
  Fe  Fe2_6  1  0.66663000  0.83331500  0.02077700  1
  Fe  Fe2_7  1  0.66663000  0.83331500  0.52077700  1
  Fe  Fe3_0  1  0.33337000  0.16668500  0.47922300  1
  Fe  Fe3_1  1  0.33337000  0.16668500  0.97922300  1
  Fe  Fe3_2  1  0.33337000  0.66668500  0.47922300  1
  Fe  Fe3_3  1  0.33337000  0.66668500  0.97922300  1
  Fe  Fe3_4  1  0.83337000  0.16668500  0.47922300  1
  Fe  Fe3_5  1  0.83337000  0.16668500  0.97922300  1
  Fe  Fe3_6  1  0.83337000  0.66668500  0.47922300  1
  Fe  Fe3_7  1  0.83337000  0.66668500  0.97922300  1
  As  As0_0  1  0.16665300  0.33332650  0.45953000  1
  As  As0_1  1  0.16665300  0.33332650  0.95953000  1
  As  As0_2  1  0.16665300  0.83332650  0.45953000  1
  As  As0_3  1  0.16665300  0.83332650  0.95953000  1
  As  As0_4  1  0.66665300  0.33332650  0.45953000  1
  As  As0_5  1  0.66665300  0.33332650  0.95953000  1
  As  As0_6  1  0.66665300  0.83332650  0.45953000  1
  As  As0_7  1  0.66665300  0.83332650  0.95953000  1
  As  As1_0  1  0.33334700  0.16667350  0.04047000  1
  As  As1_1  1  0.33334700  0.16667350  0.54047000  1
  As  As1_2  1  0.33334700  0.66667350  0.04047000  1
  As  As1_3  1  0.33334700  0.66667350  0.54047000  1
  As  As1_4  1  0.83334700  0.16667350  0.04047000  1
  As  As1_5  1  0.83334700  0.16667350  0.54047000  1
  As  As1_6  1  0.83334700  0.66667350  0.04047000  1
  As  As1_7  1  0.83334700  0.66667350  0.54047000  1
  As  As2_0  1  0.16640100  0.33320050  0.22494650  1
  As  As2_1  1  0.16640100  0.33320050  0.72494650  1
  As  As2_2  1  0.16640100  0.83320050  0.22494650  1
  As  As2_3  1  0.16640100  0.83320050  0.72494650  1
  As  As2_4  1  0.66640100  0.33320050  0.22494650  1
  As  As2_5  1  0.66640100  0.33320050  0.72494650  1
  As  As2_6  1  0.66640100  0.83320050  0.22494650  1
  As  As2_7  1  0.66640100  0.83320050  0.72494650  1
  As  As3_0  1  0.33359900  0.16679950  0.27505350  1
  As  As3_1  1  0.33359900  0.16679950  0.77505350  1
  As  As3_2  1  0.33359900  0.66679950  0.27505350  1
  As  As3_3  1  0.33359900  0.66679950  0.77505350  1
  As  As3_4  1  0.83359900  0.16679950  0.27505350  1
  As  As3_5  1  0.83359900  0.16679950  0.77505350  1
  As  As3_6  1  0.83359900  0.66679950  0.27505350  1
  As  As3_7  1  0.83359900  0.66679950  0.77505350  1
loop_
_geom_bond_atom_site_label_1
_geom_bond_atom_site_label_2
_geom_bond_distance
_geom_bond_site_symmetry_2
Na0_0 Na0_6 3.931053 1_445
Na0_0 Na0_6 3.931053 1_555
Na0_0 Na0_4 3.931053 1_455
Na0_0 Na0_4 3.931053 1_555
Na0_0 Na0_2 3.933057 1_555
Na0_0 Na0_2 3.933057 1_545
Na0_0 Na3_6 3.947507 1_555
Na0_0 Na3_0 3.953920 1_555
Na0_0 Na3_2 3.953920 1_555
Na0_1 Na0_7 3.931053 1_445
Na0_1 Na0_7 3.931053 1_555
Na0_1 Na0_5 3.931053 1_455
Na0_1 Na0_5 3.931053 1_555
Na0_1 Na0_3 3.933057 1_545
Na0_1 Na0_3 3.933057 1_555
Na0_1 Na3_7 3.947507 1_555
Na0_1 Na3_1 3.953920 1_555
Na0_1 Na3_3 3.953920 1_555
Na0_2 Na0_4 3.931053 1_565
Na0_2 Na0_4 3.931053 1_455
Na0_2 Na0_6 3.931053 1_555
Na0_2 Na0_6 3.931053 1_455
Na0_2 Na3_4 3.947507 1_565
Na0_2 Na3_2 3.953920 1_555
Na0_2 Na3_0 3.953920 1_565
Na0_3 Na0_5 3.931053 1_455
Na0_3 Na0_5 3.931053 1_565
Na0_3 Na0_7 3.931053 1_555
Na0_3 Na0_7 3.931053 1_455
Na0_3 Na3_5 3.947507 1_565
Na0_3 Na3_3 3.953920 1_555
Na0_3 Na3_1 3.953920 1_565
Na0_4 Na0_6 3.933057 1_545
Na0_4 Na0_6 3.933057 1_555
Na0_4 Na3_2 3.947507 1_655
Na0_4 Na3_4 3.953920 1_555
Na0_4 Na3_6 3.953920 1_555
Na0_5 Na0_7 3.933057 1_545
Na0_5 Na0_7 3.933057 1_555
Na0_5 Na3_3 3.947507 1_655
Na0_5 Na3_5 3.953920 1_555
Na0_5 Na3_7 3.953920 1_555
Na0_6 Na3_0 3.947507 1_665
Na0_6 Na3_6 3.953920 1_555
Na0_6 Na3_4 3.953920 1_565
Na0_7 Na3_1 3.947507 1_665
Na0_7 Na3_7 3.953920 1_555
Na0_7 Na3_5 3.953920 1_565
Na1_0 Na1_6 3.931053 1_555
Na1_0 Na1_6 3.931053 1_445
Na1_0 Na1_4 3.931053 1_455
Na1_0 Na1_4 3.931053 1_555
Na1_0 Na1_2 3.933057 1_545
Na1_0 Na1_2 3.933057 1_555
Na1_0 Na2_6 3.947507 1_445
Na1_0 Na2_0 3.953920 1_555
Na1_0 Na2_2 3.953920 1_545
Na1_1 Na1_7 3.931053 1_445
Na1_1 Na1_7 3.931053 1_555
Na1_1 Na1_5 3.931053 1_555
Na1_1 Na1_5 3.931053 1_455
Na1_1 Na1_3 3.933057 1_545
Na1_1 Na1_3 3.933057 1_555
Na1_1 Na2_7 3.947507 1_445
Na1_1 Na2_1 3.953920 1_555
Na1_1 Na2_3 3.953920 1_545
Na1_2 Na1_4 3.931053 1_455
Na1_2 Na1_4 3.931053 1_565
Na1_2 Na1_6 3.931053 1_455
Na1_2 Na1_6 3.931053 1_555
Na1_2 Na2_4 3.947507 1_455
Na1_2 Na2_2 3.953920 1_555
Na1_2 Na2_0 3.953920 1_555
Na1_3 Na1_5 3.931053 1_565
Na1_3 Na1_5 3.931053 1_455
Na1_3 Na1_7 3.931053 1_455
Na1_3 Na1_7 3.931053 1_555
Na1_3 Na2_5 3.947507 1_455
Na1_3 Na2_3 3.953920 1_555
Na1_3 Na2_1 3.953920 1_555
Na1_4 Na1_6 3.933057 1_555
Na1_4 Na1_6 3.933057 1_545
Na1_4 Na2_2 3.947507 1_545
Na1_4 Na2_4 3.953920 1_555
Na1_4 Na2_6 3.953920 1_545
Na1_5 Na1_7 3.933057 1_555
Na1_5 Na1_7 3.933057 1_545
Na1_5 Na2_3 3.947507 1_545
Na1_5 Na2_5 3.953920 1_555
Na1_5 Na2_7 3.953920 1_545
Na1_6 Na2_0 3.947507 1_555
Na1_6 Na2_6 3.953920 1_555
Na1_6 Na2_4 3.953920 1_555
Na1_7 Na2_1 3.947507 1_555
Na1_7 Na2_7 3.953920 1_555
Na1_7 Na2_5 3.953920 1_555
Na2_0 Na2_6 3.931053 1_445
Na2_0 Na2_6 3.931053 1_555
Na2_0 Na2_4 3.931053 1_455
Na2_0 Na2_4 3.931053 1_555
Na2_0 Na2_2 3.933057 1_555
Na2_0 Na2_2 3.933057 1_545
Na2_1 Na2_7 3.931053 1_555
Na2_1 Na2_7 3.931053 1_445
Na2_1 Na2_5 3.931053 1_455
Na2_1 Na2_5 3.931053 1_555
Na2_1 Na2_3 3.933057 1_555
Na2_1 Na2_3 3.933057 1_545
Na2_2 Na2_4 3.931053 1_455
Na2_2 Na2_4 3.931053 1_565
Na2_2 Na2_6 3.931053 1_555
Na2_2 Na2_6 3.931053 1_455
Na2_3 Na2_5 3.931053 1_455
Na2_3 Na2_5 3.931053 1_565
Na2_3 Na2_7 3.931053 1_455
Na2_3 Na2_7 3.931053 1_555
Na2_4 Na2_6 3.933057 1_555
Na2_4 Na2_6 3.933057 1_545
Na2_5 Na2_7 3.933057 1_545
Na2_5 Na2_7 3.933057 1_555
Na3_0 Na3_6 3.931053 1_555
Na3_0 Na3_6 3.931053 1_445
Na3_0 Na3_4 3.931053 1_455
Na3_0 Na3_4 3.931053 1_555
Na3_0 Na3_2 3.933057 1_555
Na3_0 Na3_2 3.933057 1_545
Na3_1 Na3_7 3.931053 1_445
Na3_1 Na3_7 3.931053 1_555
Na3_1 Na3_5 3.931053 1_555
Na3_1 Na3_5 3.931053 1_455
Na3_1 Na3_3 3.933057 1_545
Na3_1 Na3_3 3.933057 1_555
Na3_2 Na3_4 3.931053 1_455
Na3_2 Na3_4 3.931053 1_565
Na3_2 Na3_6 3.931053 1_455
Na3_2 Na3_6 3.931053 1_555
Na3_3 Na3_5 3.931053 1_455
Na3_3 Na3_5 3.931053 1_565
Na3_3 Na3_7 3.931053 1_455
Na3_3 Na3_7 3.931053 1_555
Na3_4 Na3_6 3.933057 1_555
Na3_4 Na3_6 3.933057 1_545
Na3_5 Na3_7 3.933057 1_545
Na3_5 Na3_7 3.933057 1_555
Fe1_0 Fe2_6 2.408214 1_445
Fe1_0 Fe3_1 2.408214 1_554
Fe1_0 Fe2_0 2.408669 1_555
Fe1_0 Fe3_7 2.408669 1_444
Fe1_0 Fe2_2 2.408669 1_545
Fe1_0 Fe3_5 2.408669 1_454
Fe1_1 Fe2_7 2.408214 1_445
Fe1_1 Fe3_0 2.408214 1_555
Fe1_1 Fe2_1 2.408669 1_555
Fe1_1 Fe3_6 2.408669 1_445
Fe1_1 Fe2_3 2.408669 1_545
Fe1_1 Fe3_4 2.408669 1_455
Fe1_2 Fe2_4 2.408214 1_455
Fe1_2 Fe3_3 2.408214 1_554
Fe1_2 Fe2_2 2.408669 1_555
Fe1_2 Fe3_5 2.408669 1_454
Fe1_2 Fe2_0 2.408669 1_555
Fe1_2 Fe3_7 2.408669 1_454
Fe1_3 Fe2_5 2.408214 1_455
Fe1_3 Fe3_2 2.408214 1_555
Fe1_3 Fe2_3 2.408669 1_555
Fe1_3 Fe3_4 2.408669 1_455
Fe1_3 Fe2_1 2.408669 1_555
Fe1_3 Fe3_6 2.408669 1_455
Fe1_4 Fe2_2 2.408214 1_545
Fe1_4 Fe3_5 2.408214 1_554
Fe1_4 Fe2_4 2.408669 1_555
Fe1_4 Fe3_3 2.408669 1_544
Fe1_4 Fe2_6 2.408669 1_545
Fe1_4 Fe3_1 2.408669 1_554
Fe1_5 Fe2_3 2.408214 1_545
Fe1_5 Fe3_4 2.408214 1_555
Fe1_5 Fe2_5 2.408669 1_555
Fe1_5 Fe3_2 2.408669 1_545
Fe1_5 Fe2_7 2.408669 1_545
Fe1_5 Fe3_0 2.408669 1_555
Fe1_6 Fe2_0 2.408214 1_555
Fe1_6 Fe3_7 2.408214 1_554
Fe1_6 Fe2_6 2.408669 1_555
Fe1_6 Fe3_1 2.408669 1_554
Fe1_6 Fe2_4 2.408669 1_555
Fe1_6 Fe3_3 2.408669 1_554
Fe1_7 Fe2_1 2.408214 1_555
Fe1_7 Fe3_6 2.408214 1_555
Fe1_7 Fe2_7 2.408669 1_555
Fe1_7 Fe3_0 2.408669 1_555
Fe1_7 Fe2_5 2.408669 1_555
Fe1_7 Fe3_2 2.408669 1_555
As0_0 Fe2_1 2.373220 1_555
As0_0 Fe3_4 2.393928 1_455
As0_0 Fe3_2 2.395243 1_555
As0_0 Fe3_0 2.395243 1_555
As0_0 Fe1_7 2.758088 1_555
As0_0 Fe1_1 2.759404 1_555
As0_0 Fe1_3 2.759404 1_555
As0_0 Na3_2 2.995830 1_555
As0_0 Na3_0 2.995830 1_555
As0_0 Na3_6 2.998122 1_555
As0_1 Fe2_0 2.373220 1_556
As0_1 Fe3_5 2.393928 1_455
As0_1 Fe3_3 2.395243 1_555
As0_1 Fe3_1 2.395243 1_555
As0_1 Fe1_6 2.758088 1_556
As0_1 Fe1_0 2.759404 1_556
As0_1 Fe1_2 2.759404 1_556
As0_1 Na3_3 2.995830 1_555
As0_1 Na3_1 2.995830 1_555
As0_1 Na3_7 2.998122 1_555
As0_2 Fe2_3 2.373220 1_555
As0_2 Fe3_6 2.393928 1_455
As0_2 Fe3_0 2.395243 1_565
As0_2 Fe3_2 2.395243 1_555
As0_2 Fe1_5 2.758088 1_565
As0_2 Fe1_3 2.759404 1_555
As0_2 Fe1_1 2.759404 1_565
As0_2 Na3_0 2.995830 1_565
As0_2 Na3_2 2.995830 1_555
As0_2 Na3_4 2.998122 1_565
As0_3 Fe2_2 2.373220 1_556
As0_3 Fe3_7 2.393928 1_455
As0_3 Fe3_1 2.395243 1_565
As0_3 Fe3_3 2.395243 1_555
As0_3 Fe1_4 2.758088 1_566
As0_3 Fe1_2 2.759404 1_556
As0_3 Fe1_0 2.759404 1_566
As0_3 Na3_1 2.995830 1_565
As0_3 Na3_3 2.995830 1_555
As0_3 Na3_5 2.998122 1_565
As0_4 Fe2_5 2.373220 1_555
As0_4 Fe3_0 2.393928 1_555
As0_4 Fe3_6 2.395243 1_555
As0_4 Fe3_4 2.395243 1_555
As0_4 Fe1_3 2.758088 1_655
As0_4 Fe1_5 2.759404 1_555
As0_4 Fe1_7 2.759404 1_555
As0_4 Na3_6 2.995830 1_555
As0_4 Na3_4 2.995830 1_555
As0_4 Na3_2 2.998122 1_655
As0_5 Fe2_4 2.373220 1_556
As0_5 Fe3_1 2.393928 1_555
As0_5 Fe3_7 2.395243 1_555
As0_5 Fe3_5 2.395243 1_555
As0_5 Fe1_2 2.758088 1_656
As0_5 Fe1_4 2.759404 1_556
As0_5 Fe1_6 2.759404 1_556
As0_5 Na3_7 2.995830 1_555
As0_5 Na3_5 2.995830 1_555
As0_5 Na3_3 2.998122 1_655
As0_6 Fe2_7 2.373220 1_555
As0_6 Fe3_2 2.393928 1_555
As0_6 Fe3_4 2.395243 1_565
As0_6 Fe3_6 2.395243 1_555
As0_6 Fe1_1 2.758088 1_665
As0_6 Fe1_7 2.759404 1_555
As0_6 Fe1_5 2.759404 1_565
As0_6 Na3_4 2.995830 1_565
As0_6 Na3_6 2.995830 1_555
As0_6 Na3_0 2.998122 1_665
As0_7 Fe2_6 2.373220 1_556
As0_7 Fe3_3 2.393928 1_555
As0_7 Fe3_5 2.395243 1_565
As0_7 Fe3_7 2.395243 1_555
As0_7 Fe1_0 2.758088 1_666
As0_7 Fe1_6 2.759404 1_556
As0_7 Fe1_4 2.759404 1_566
As0_7 Na3_5 2.995830 1_565
As0_7 Na3_7 2.995830 1_555
As0_7 Na3_1 2.998122 1_665
As1_0 Fe3_1 2.373220 1_554
As1_0 Fe2_4 2.393928 1_555
As1_0 Fe2_2 2.395243 1_545
As1_0 Fe2_0 2.395243 1_555
As1_0 Fe1_0 2.758088 1_555
As1_0 Fe1_6 2.759404 1_555
As1_0 Fe1_4 2.759404 1_555
As1_0 Na2_2 2.995830 1_545
As1_0 Na2_0 2.995830 1_555
As1_0 Na2_6 2.998122 1_445
As1_1 Fe3_0 2.373220 1_555
As1_1 Fe2_5 2.393928 1_555
As1_1 Fe2_3 2.395243 1_545
As1_1 Fe2_1 2.395243 1_555
As1_1 Fe1_1 2.758088 1_555
As1_1 Fe1_7 2.759404 1_555
As1_1 Fe1_5 2.759404 1_555
As1_1 Na2_3 2.995830 1_545
As1_1 Na2_1 2.995830 1_555
As1_1 Na2_7 2.998122 1_445
As1_2 Fe3_3 2.373220 1_554
As1_2 Fe2_6 2.393928 1_555
As1_2 Fe2_0 2.395243 1_555
As1_2 Fe2_2 2.395243 1_555
As1_2 Fe1_2 2.758088 1_555
As1_2 Fe1_4 2.759404 1_565
As1_2 Fe1_6 2.759404 1_555
As1_2 Na2_0 2.995830 1_555
As1_2 Na2_2 2.995830 1_555
As1_2 Na2_4 2.998122 1_455
As1_3 Fe3_2 2.373220 1_555
As1_3 Fe2_7 2.393928 1_555
As1_3 Fe2_1 2.395243 1_555
As1_3 Fe2_3 2.395243 1_555
As1_3 Fe1_3 2.758088 1_555
As1_3 Fe1_5 2.759404 1_565
As1_3 Fe1_7 2.759404 1_555
As1_3 Na2_1 2.995830 1_555
As1_3 Na2_3 2.995830 1_555
As1_3 Na2_5 2.998122 1_455
As1_4 Fe3_5 2.373220 1_554
As1_4 Fe2_0 2.393928 1_655
As1_4 Fe2_6 2.395243 1_545
As1_4 Fe2_4 2.395243 1_555
As1_4 Fe1_4 2.758088 1_555
As1_4 Fe1_2 2.759404 1_655
As1_4 Fe1_0 2.759404 1_655
As1_4 Na2_6 2.995830 1_545
As1_4 Na2_4 2.995830 1_555
As1_4 Na2_2 2.998122 1_545
As1_5 Fe3_4 2.373220 1_555
As1_5 Fe2_1 2.393928 1_655
As1_5 Fe2_7 2.395243 1_545
As1_5 Fe2_5 2.395243 1_555
As1_5 Fe1_5 2.758088 1_555
As1_5 Fe1_3 2.759404 1_655
As1_5 Fe1_1 2.759404 1_655
As1_5 Na2_7 2.995830 1_545
As1_5 Na2_5 2.995830 1_555
As1_5 Na2_3 2.998122 1_545
As1_6 Fe3_7 2.373220 1_554
As1_6 Fe2_2 2.393928 1_655
As1_6 Fe2_4 2.395243 1_555
As1_6 Fe2_6 2.395243 1_555
As1_6 Fe1_6 2.758088 1_555
As1_6 Fe1_0 2.759404 1_665
As1_6 Fe1_2 2.759404 1_655
As1_6 Na2_4 2.995830 1_555
As1_6 Na2_6 2.995830 1_555
As1_6 Na2_0 2.998122 1_555
As1_7 Fe3_6 2.373220 1_555
As1_7 Fe2_3 2.393928 1_655
As1_7 Fe2_5 2.395243 1_555
As1_7 Fe2_7 2.395243 1_555
As1_7 Fe1_7 2.758088 1_555
As1_7 Fe1_1 2.759404 1_665
As1_7 Fe1_3 2.759404 1_655
As1_7 Na2_5 2.995830 1_555
As1_7 Na2_7 2.995830 1_555
As1_7 Na2_1 2.998122 1_555
As2_0 Fe0_0 2.468486 1_555
As2_0 Fe0_2 2.468486 1_455
As2_0 Fe0_6 2.469584 1_555
As2_0 As3_4 2.984083 1_455
As2_0 As3_0 2.988537 1_555
As2_0 As3_2 2.988537 1_555
As2_0 Na1_2 2.995331 1_555
As2_0 Na1_0 2.995331 1_555
As2_0 Na1_4 3.001028 1_455
As2_1 Fe0_1 2.468486 1_555
As2_1 Fe0_3 2.468486 1_555
As2_1 Fe0_7 2.469584 1_555
As2_1 As3_5 2.984083 1_455
As2_1 As3_1 2.988537 1_555
As2_1 As3_3 2.988537 1_555
As2_1 Na1_3 2.995331 1_555
As2_1 Na1_1 2.995331 1_555
As2_1 Na1_5 3.001028 1_455
As2_2 Fe0_2 2.468486 1_455
As2_2 Fe0_0 2.468486 1_565
As2_2 Fe0_4 2.469584 1_565
As2_2 As3_6 2.984083 1_455
As2_2 As3_2 2.988537 1_555
As2_2 As3_0 2.988537 1_565
As2_2 Na1_0 2.995331 1_565
As2_2 Na1_2 2.995331 1_555
As2_2 Na1_6 3.001028 1_455
As2_3 Fe0_3 2.468486 1_555
As2_3 Fe0_1 2.468486 1_565
As2_3 Fe0_5 2.469584 1_555
As2_3 As3_7 2.984083 1_455
As2_3 As3_3 2.988537 1_555
As2_3 As3_1 2.988537 1_565
As2_3 Na1_1 2.995331 1_565
As2_3 Na1_3 2.995331 1_555
As2_3 Na1_7 3.001028 1_455
As2_4 Fe0_4 2.468486 1_555
As2_4 Fe0_6 2.468486 1_555
As2_4 Fe0_2 2.469584 1_555
As2_4 As3_0 2.984083 1_555
As2_4 As3_4 2.988537 1_555
As2_4 As3_6 2.988537 1_555
As2_4 Na1_6 2.995331 1_555
As2_4 Na1_4 2.995331 1_555
As2_4 Na1_0 3.001028 1_555
As2_5 Fe0_5 2.468486 1_545
As2_5 Fe0_7 2.468486 1_555
As2_5 Fe0_3 2.469584 1_655
As2_5 As3_1 2.984083 1_555
As2_5 As3_5 2.988537 1_555
As2_5 As3_7 2.988537 1_555
As2_5 Na1_7 2.995331 1_555
As2_5 Na1_5 2.995331 1_555
As2_5 Na1_1 3.001028 1_555
As2_6 Fe0_6 2.468486 1_555
As2_6 Fe0_4 2.468486 1_565
As2_6 Fe0_0 2.469584 1_665
As2_6 As3_2 2.984083 1_555
As2_6 As3_6 2.988537 1_555
As2_6 As3_4 2.988537 1_565
As2_6 Na1_4 2.995331 1_565
As2_6 Na1_6 2.995331 1_555
As2_6 Na1_2 3.001028 1_555
As2_7 Fe0_7 2.468486 1_555
As2_7 Fe0_5 2.468486 1_555
As2_7 Fe0_1 2.469584 1_665
As2_7 As3_3 2.984083 1_555
As2_7 As3_7 2.988537 1_555
As2_7 As3_5 2.988537 1_565
As2_7 Na1_5 2.995331 1_565
As2_7 Na1_7 2.995331 1_555
As2_7 Na1_3 3.001028 1_555
As3_0 Fe0_6 2.468486 1_555
As3_0 Fe0_4 2.468486 1_555
As3_0 Fe0_0 2.469584 1_555
As3_0 Na0_2 2.995331 1_545
As3_0 Na0_0 2.995331 1_555
As3_0 Na0_4 3.001028 1_555
As3_1 Fe0_7 2.468486 1_555
As3_1 Fe0_5 2.468486 1_545
As3_1 Fe0_1 2.469584 1_555
As3_1 Na0_3 2.995331 1_545
As3_1 Na0_1 2.995331 1_555
As3_1 Na0_5 3.001028 1_555
As3_2 Fe0_4 2.468486 1_565
As3_2 Fe0_6 2.468486 1_555
As3_2 Fe0_2 2.469584 1_455
As3_2 Na0_0 2.995331 1_555
As3_2 Na0_2 2.995331 1_555
As3_2 Na0_6 3.001028 1_555
As3_3 Fe0_5 2.468486 1_555
As3_3 Fe0_7 2.468486 1_555
As3_3 Fe0_3 2.469584 1_555
As3_3 Na0_1 2.995331 1_555
As3_3 Na0_3 2.995331 1_555
As3_3 Na0_7 3.001028 1_555
As3_4 Fe0_2 2.468486 1_555
As3_4 Fe0_0 2.468486 1_655
As3_4 Fe0_4 2.469584 1_555
As3_4 Na0_6 2.995331 1_545
As3_4 Na0_4 2.995331 1_555
As3_4 Na0_0 3.001028 1_655
As3_5 Fe0_3 2.468486 1_655
As3_5 Fe0_1 2.468486 1_655
As3_5 Fe0_5 2.469584 1_545
As3_5 Na0_7 2.995331 1_545
As3_5 Na0_5 2.995331 1_555
As3_5 Na0_1 3.001028 1_655
As3_6 Fe0_0 2.468486 1_665
As3_6 Fe0_2 2.468486 1_555
As3_6 Fe0_6 2.469584 1_555
As3_6 Na0_4 2.995331 1_555
As3_6 Na0_6 2.995331 1_555
As3_6 Na0_2 3.001028 1_655
As3_7 Fe0_1 2.468486 1_665
As3_7 Fe0_3 2.468486 1_655
As3_7 Fe0_7 2.469584 1_555
As3_7 Na0_5 2.995331 1_555
As3_7 Na0_7 2.995331 1_555
As3_7 Na0_3 3.001028 1_655
