# generated using pymatgen
data_AlCoO3
_symmetry_space_group_name_H-M   'P 1'
_cell_length_a   5.17564903
_cell_length_b   5.17564903
_cell_length_c   5.17564898
_cell_angle_alpha   55.59903088
_cell_angle_beta   55.59903088
_cell_angle_gamma   55.59903478
_symmetry_Int_Tables_number   1
_chemical_formula_structural   AlCoO3
_chemical_formula_sum   'Al2 Co2 O6'
_cell_volume   88.02147690
_cell_formula_units_Z   2
loop_
 _symmetry_equiv_pos_site_id
 _symmetry_equiv_pos_as_xyz
  1  'x, y, z'
loop_
 _atom_site_type_symbol
 _atom_site_label
 _atom_site_symmetry_multiplicity
 _atom_site_fract_x
 _atom_site_fract_y
 _atom_site_fract_z
 _atom_site_occupancy
  Al  Al0  1  0.85258500  0.85258500  0.85258500  1
  Al  Al1  1  0.14741500  0.14741500  0.14741500  1
  Co  Co0  1  0.34483700  0.34483700  0.34483700  1
  Co  Co1  1  0.65516300  0.65516300  0.65516300  1
  O  O0  1  0.44616200  0.75206100  0.05499400  1
  O  O1  1  0.24793900  0.94500600  0.55383800  1
  O  O2  1  0.05499400  0.44616200  0.75206100  1
  O  O3  1  0.94500600  0.55383800  0.24793900  1
  O  O4  1  0.75206100  0.05499400  0.44616200  1
  O  O5  1  0.55383800  0.24793900  0.94500600  1
loop_
_geom_bond_atom_site_label_1
_geom_bond_atom_site_label_2
_geom_bond_distance
_geom_bond_site_symmetry_2
Al0 O1 1.871298 1_655
Al0 O3 1.871298 1_556
Al0 O5 1.871299 1_565
Al0 O0 1.980813 1_556
Al0 O4 1.980813 1_565
Al0 O2 1.980813 1_655
Al1 O4 1.871298 1_455
Al1 O2 1.871298 1_554
Al1 O0 1.871299 1_545
Al1 O5 1.980813 1_554
Al1 O1 1.980813 1_545
Al1 O3 1.980813 1_455
Co0 O1 1.932426 1_545
Co0 O5 1.932426 1_554
Co0 O3 1.932426 1_455
Co0 O0 1.937767 1_555
Co0 O2 1.937767 1_555
Co0 O4 1.937767 1_555
Co1 O4 1.932426 1_565
Co1 O0 1.932426 1_556
Co1 O2 1.932426 1_655
Co1 O5 1.937767 1_555
Co1 O3 1.937767 1_555
Co1 O1 1.937767 1_555
