# generated using pymatgen
data_CsTb(NbBr3)6
_symmetry_space_group_name_H-M   'P 1'
_cell_length_a   9.97950985
_cell_length_b   9.97950985
_cell_length_c   18.62718800
_cell_angle_alpha   90.00000000
_cell_angle_beta   90.00000000
_cell_angle_gamma   119.99999898
_symmetry_Int_Tables_number   1
_chemical_formula_structural   CsTb(NbBr3)6
_chemical_formula_sum   'Cs2 Tb2 Nb12 Br36'
_cell_volume   1606.55780358
_cell_formula_units_Z   2
loop_
 _symmetry_equiv_pos_site_id
 _symmetry_equiv_pos_as_xyz
  1  'x, y, z'
loop_
 _atom_site_type_symbol
 _atom_site_label
 _atom_site_symmetry_multiplicity
 _atom_site_fract_x
 _atom_site_fract_y
 _atom_site_fract_z
 _atom_site_occupancy
  Cs  Cs0  1  0.33333300  0.66666700  0.75000000  1
  Cs  Cs1  1  0.66666700  0.33333300  0.25000000  1
  Tb  Tb0  1  0.66666700  0.33333300  0.75000000  1
  Tb  Tb1  1  0.33333300  0.66666700  0.25000000  1
  Nb  Nb0  1  0.85065100  0.03820800  0.56482100  1
  Nb  Nb1  1  0.14934900  0.96179200  0.43517900  1
  Nb  Nb2  1  0.96179200  0.81244300  0.56482100  1
  Nb  Nb3  1  0.85065100  0.81244300  0.93517900  1
  Nb  Nb4  1  0.03820800  0.18755700  0.43517900  1
  Nb  Nb5  1  0.14934900  0.18755700  0.06482100  1
  Nb  Nb6  1  0.18755700  0.14934900  0.56482100  1
  Nb  Nb7  1  0.96179200  0.14934900  0.93517900  1
  Nb  Nb8  1  0.81244300  0.85065100  0.43517900  1
  Nb  Nb9  1  0.03820800  0.85065100  0.06482100  1
  Nb  Nb10  1  0.18755700  0.03820800  0.93517900  1
  Nb  Nb11  1  0.81244300  0.96179200  0.06482100  1
  Br  Br0  1  0.63705800  0.08508300  0.66137600  1
  Br  Br1  1  0.36294200  0.91491700  0.33862400  1
  Br  Br2  1  0.91491700  0.55197500  0.66137600  1
  Br  Br3  1  0.63705800  0.55197500  0.83862400  1
  Br  Br4  1  0.08508300  0.44802500  0.33862400  1
  Br  Br5  1  0.36294200  0.44802500  0.16137600  1
  Br  Br6  1  0.44802500  0.36294200  0.66137600  1
  Br  Br7  1  0.91491700  0.36294200  0.83862400  1
  Br  Br8  1  0.55197500  0.63705800  0.33862400  1
  Br  Br9  1  0.08508300  0.63705800  0.16137600  1
  Br  Br10  1  0.44802500  0.08508300  0.83862400  1
  Br  Br11  1  0.55197500  0.91491700  0.16137600  1
  Br  Br12  1  0.04615900  0.23094800  0.65900100  1
  Br  Br13  1  0.95384100  0.76905200  0.34099900  1
  Br  Br14  1  0.76905200  0.81521000  0.65900100  1
  Br  Br15  1  0.04615900  0.81521000  0.84099900  1
  Br  Br16  1  0.23094800  0.18479000  0.34099900  1
  Br  Br17  1  0.95384100  0.18479000  0.15900100  1
  Br  Br18  1  0.18479000  0.95384100  0.65900100  1
  Br  Br19  1  0.76905200  0.95384100  0.84099900  1
  Br  Br20  1  0.81521000  0.04615900  0.34099900  1
  Br  Br21  1  0.23094800  0.04615900  0.15900100  1
  Br  Br22  1  0.18479000  0.23094800  0.84099900  1
  Br  Br23  1  0.81521000  0.76905200  0.15900100  1
  Br  Br24  1  0.27546400  0.41424100  0.50082400  1
  Br  Br25  1  0.72453600  0.58575900  0.49917600  1
  Br  Br26  1  0.58575900  0.86122300  0.50082400  1
  Br  Br27  1  0.27546400  0.86122300  0.99917600  1
  Br  Br28  1  0.41424100  0.13877700  0.49917600  1
  Br  Br29  1  0.72453600  0.13877700  0.00082400  1
  Br  Br30  1  0.13877700  0.72453600  0.50082400  1
  Br  Br31  1  0.58575900  0.72453600  0.99917600  1
  Br  Br32  1  0.86122300  0.27546400  0.49917600  1
  Br  Br33  1  0.41424100  0.27546400  0.00082400  1
  Br  Br34  1  0.13877700  0.41424100  0.99917600  1
  Br  Br35  1  0.86122300  0.58575900  0.00082400  1
loop_
_geom_bond_atom_site_label_1
_geom_bond_atom_site_label_2
_geom_bond_distance
_geom_bond_site_symmetry_2
Nb0 Nb8 2.960852 1_545
Nb0 Nb4 2.960852 1_655
Nb0 Nb2 2.967355 1_545
Nb0 Nb6 2.967355 1_655
Nb1 Nb6 2.960852 1_565
Nb1 Nb2 2.960852 1_455
Nb1 Nb4 2.967355 1_565
Nb1 Nb8 2.967355 1_455
Nb2 Nb8 2.960852 1_555
Nb2 Nb6 2.967355 1_665
Nb3 Nb9 2.960852 1_656
Nb3 Nb7 2.967355 1_565
Nb4 Nb6 2.960852 1_555
Nb4 Nb8 2.967355 1_445
Nb5 Nb7 2.960852 1_454
Nb5 Nb9 2.967355 1_545
Nb10 Nb5 2.960852 1_556
Nb10 Nb9 2.960852 1_546
Nb10 Nb7 2.967355 1_455
Nb10 Nb3 2.967355 1_445
Nb11 Nb3 2.960852 1_554
Nb11 Nb7 2.960852 1_564
Nb11 Nb9 2.967355 1_655
Nb11 Nb5 2.967355 1_665
Br0 Tb0 2.866713 1_555
Br0 Nb0 2.999040 1_555
Br0 Br14 3.540900 1_545
Br0 Br12 3.584108 1_655
Br0 Br26 3.612907 1_545
Br0 Br32 3.673188 1_555
Br0 Br10 3.802564 1_555
Br0 Br28 3.943535 1_555
Br0 Br18 4.022051 1_545
Br0 Cs0 4.085526 1_545
Br1 Tb1 2.866713 1_555
Br1 Nb1 2.999040 1_555
Br1 Br16 3.540900 1_565
Br1 Br13 3.584108 1_455
Br1 Br28 3.612907 1_565
Br1 Br30 3.673188 1_555
Br1 Br11 3.802564 1_555
Br1 Br26 3.943535 1_555
Br1 Br20 4.022051 1_565
Br1 Cs1 4.085526 1_565
Br2 Tb0 2.866717 1_555
Br2 Nb2 2.999040 1_555
Br2 Br30 3.612907 1_655
Br2 Br25 3.673188 1_555
Br2 Br7 3.802564 1_555
Br2 Br32 3.943535 1_555
Br2 Cs0 4.085524 1_655
Br3 Tb0 2.866722 1_555
Br3 Nb3 2.999040 1_555
Br3 Br31 3.612907 1_555
Br3 Br35 3.673188 1_556
Br3 Br6 3.802564 1_555
Br3 Br33 3.943535 1_556
Br3 Cs0 4.085533 1_555
Br4 Tb1 2.866717 1_555
Br4 Nb4 2.999040 1_555
Br4 Br9 3.802564 1_555
Br4 Cs1 4.085524 1_455
Br5 Tb1 2.866722 1_555
Br5 Nb5 2.999040 1_555
Br5 Br8 3.802564 1_555
Br5 Cs1 4.085533 1_555
Br6 Tb0 2.866722 1_555
Br6 Nb6 2.999040 1_555
Br6 Cs0 4.085533 1_555
Br7 Tb0 2.866713 1_555
Br7 Nb7 2.999040 1_555
Br7 Cs0 4.085526 1_655
Br8 Tb1 2.866722 1_555
Br8 Nb8 2.999040 1_555
Br8 Cs1 4.085533 1_555
Br9 Tb1 2.866713 1_555
Br9 Nb9 2.999040 1_555
Br9 Cs1 4.085526 1_455
Br10 Tb0 2.866717 1_555
Br10 Nb10 2.999040 1_555
Br10 Br15 3.540893 1_545
Br10 Br22 3.584099 1_555
Br10 Br27 3.612907 1_545
Br10 Br33 3.673188 1_556
Br10 Br29 3.943535 1_556
Br10 Br19 4.022060 1_545
Br10 Cs0 4.085524 1_545
Br11 Tb1 2.866717 1_555
Br11 Nb11 2.999040 1_555
Br11 Br17 3.540893 1_565
Br11 Br23 3.584099 1_555
Br11 Br29 3.612907 1_565
Br11 Br31 3.673188 1_554
Br11 Br27 3.943535 1_554
Br11 Br21 4.022060 1_565
Br11 Cs1 4.085524 1_565
Br12 Nb0 2.613648 1_455
Br12 Nb6 2.623154 1_555
Br12 Br6 3.540891 1_555
Br12 Br24 3.616333 1_555
Br12 Br32 3.645058 1_455
Br12 Br18 3.658854 1_545
Br12 Br14 3.658855 1_445
Br12 Br22 3.661535 1_555
Br12 Br2 4.022060 1_455
Br12 Cs0 4.187151 1_555
Br13 Nb1 2.613648 1_655
Br13 Nb8 2.623154 1_555
Br13 Br8 3.540891 1_555
Br13 Br25 3.616333 1_555
Br13 Br30 3.645058 1_655
Br13 Br20 3.658854 1_565
Br13 Br16 3.658855 1_665
Br13 Br23 3.661535 1_555
Br13 Br4 4.022060 1_655
Br13 Cs1 4.187151 1_555
Br14 Nb2 2.613644 1_555
Br14 Nb0 2.623161 1_565
Br14 Br2 3.584099 1_555
Br14 Br26 3.616337 1_555
Br14 Br25 3.645052 1_555
Br14 Br18 3.658855 1_655
Br14 Br19 3.661535 1_555
Br14 Br6 4.022053 1_555
Br14 Cs0 4.187154 1_555
Br15 Nb3 2.613652 1_455
Br15 Nb10 2.623160 1_565
Br15 Br3 3.584107 1_455
Br15 Br27 3.616332 1_555
Br15 Br35 3.645054 1_456
Br15 Br19 3.658854 1_455
Br15 Br22 3.658855 1_565
Br15 Br18 3.661535 1_555
Br15 Br7 4.022051 1_455
Br15 Cs0 4.187137 1_555
Br16 Nb4 2.613644 1_555
Br16 Nb1 2.623161 1_545
Br16 Br4 3.584099 1_555
Br16 Br28 3.616337 1_555
Br16 Br24 3.645052 1_555
Br16 Br20 3.658855 1_455
Br16 Br21 3.661535 1_555
Br16 Br8 4.022053 1_555
Br16 Cs1 4.187154 1_555
Br17 Nb5 2.613652 1_655
Br17 Nb11 2.623160 1_545
Br17 Br5 3.584107 1_655
Br17 Br29 3.616332 1_555
Br17 Br34 3.645054 1_654
Br17 Br21 3.658854 1_655
Br17 Br23 3.658855 1_545
Br17 Br20 3.661535 1_555
Br17 Br9 4.022051 1_655
Br17 Cs1 4.187137 1_555
Br18 Nb6 2.613652 1_565
Br18 Nb2 2.623160 1_455
Br18 Br2 3.540893 1_455
Br18 Br6 3.584107 1_565
Br18 Br30 3.616332 1_555
Br18 Br28 3.645054 1_565
Br18 Cs0 4.187137 1_555
Br19 Nb7 2.613648 1_565
Br19 Nb3 2.623154 1_555
Br19 Br3 3.540891 1_555
Br19 Br7 3.584108 1_565
Br19 Br31 3.616333 1_555
Br19 Br29 3.645058 1_566
Br19 Br22 3.658855 1_665
Br19 Cs0 4.187151 1_555
Br20 Nb8 2.613652 1_545
Br20 Nb4 2.623160 1_655
Br20 Br4 3.540893 1_655
Br20 Br8 3.584107 1_545
Br20 Br32 3.616332 1_555
Br20 Br26 3.645054 1_545
Br20 Cs1 4.187137 1_555
Br21 Nb9 2.613648 1_545
Br21 Nb5 2.623154 1_555
Br21 Br5 3.540891 1_555
Br21 Br9 3.584108 1_545
Br21 Br33 3.616333 1_555
Br21 Br27 3.645058 1_544
Br21 Br23 3.658855 1_445
Br21 Cs1 4.187151 1_555
Br22 Nb10 2.613644 1_555
Br22 Nb7 2.623161 1_455
Br22 Br7 3.540900 1_455
Br22 Br34 3.616337 1_555
Br22 Br33 3.645052 1_556
Br22 Br3 4.022053 1_555
Br22 Cs0 4.187154 1_555
Br23 Nb11 2.613644 1_555
Br23 Nb9 2.623161 1_655
Br23 Br9 3.540900 1_655
Br23 Br35 3.616337 1_555
Br23 Br31 3.645052 1_554
Br23 Br5 4.022053 1_555
Br23 Cs1 4.187154 1_555
Br24 Nb6 2.619096 1_555
Br24 Nb4 2.619642 1_555
Br24 Br6 3.612907 1_555
Br24 Br28 3.644598 1_555
Br24 Br32 3.644598 1_455
Br24 Br4 3.673188 1_555
Br24 Br8 3.943535 1_555
Br25 Nb8 2.619096 1_555
Br25 Nb2 2.619642 1_555
Br25 Br8 3.612907 1_555
Br25 Br26 3.644598 1_555
Br25 Br30 3.644598 1_655
Br25 Br6 3.943535 1_555
Br26 Nb0 2.619096 1_565
Br26 Nb8 2.619642 1_555
Br26 Br32 3.644598 1_565
Br26 Br8 3.673188 1_555
Br27 Nb10 2.619096 1_565
Br27 Nb9 2.619642 1_556
Br27 Br33 3.644598 1_566
Br27 Br35 3.644598 1_456
Br27 Br9 3.673188 1_556
Br28 Nb1 2.619096 1_545
Br28 Nb6 2.619642 1_555
Br28 Br30 3.644598 1_545
Br28 Br6 3.673188 1_555
Br29 Nb11 2.619096 1_545
Br29 Nb7 2.619642 1_554
Br29 Br31 3.644598 1_544
Br29 Br34 3.644598 1_654
Br29 Br7 3.673188 1_554
Br30 Nb2 2.619096 1_455
Br30 Nb1 2.619642 1_555
Br30 Br4 3.943535 1_555
Br31 Nb3 2.619096 1_555
Br31 Nb11 2.619642 1_556
Br31 Br35 3.644598 1_556
Br31 Br5 3.943535 1_556
Br32 Nb4 2.619096 1_655
Br32 Nb0 2.619642 1_555
Br32 Br4 3.612907 1_655
Br33 Nb5 2.619096 1_555
Br33 Nb10 2.619642 1_554
Br33 Br5 3.612907 1_555
Br33 Br34 3.644598 1_554
Br34 Nb7 2.619096 1_455
Br34 Nb5 2.619642 1_556
Br34 Br7 3.612907 1_455
Br34 Br5 3.673188 1_556
Br34 Br9 3.943535 1_556
Br35 Nb9 2.619096 1_655
Br35 Nb3 2.619642 1_554
Br35 Br9 3.612907 1_655
Br35 Br7 3.943535 1_554
