# generated using pymatgen
data_SrDyCoO4
_symmetry_space_group_name_H-M   'P 1'
_cell_length_a   6.68811768
_cell_length_b   6.68811768
_cell_length_c   5.36944700
_cell_angle_alpha   90.00000000
_cell_angle_beta   90.00000000
_cell_angle_gamma   133.10755019
_symmetry_Int_Tables_number   1
_chemical_formula_structural   SrDyCoO4
_chemical_formula_sum   'Sr2 Dy2 Co2 O8'
_cell_volume   175.34896304
_cell_formula_units_Z   2
loop_
 _symmetry_equiv_pos_site_id
 _symmetry_equiv_pos_as_xyz
  1  'x, y, z'
loop_
 _atom_site_type_symbol
 _atom_site_label
 _atom_site_symmetry_multiplicity
 _atom_site_fract_x
 _atom_site_fract_y
 _atom_site_fract_z
 _atom_site_occupancy
  Sr  Sr0  1  0.60360200  0.39639800  0.25000000  1
  Sr  Sr1  1  0.39639800  0.60360200  0.75000000  1
  Dy  Dy0  1  0.11393100  0.88606900  0.75000000  1
  Dy  Dy1  1  0.88606900  0.11393100  0.25000000  1
  Co  Co0  1  0.25003100  0.74996900  0.25000000  1
  Co  Co1  1  0.74996900  0.25003100  0.75000000  1
  O  O0  1  0.50000000  0.00000000  0.00000000  1
  O  O1  1  0.00000000  0.50000000  0.50000000  1
  O  O2  1  0.50000000  0.00000000  0.50000000  1
  O  O3  1  0.00000000  0.50000000  0.00000000  1
  O  O4  1  0.93355100  0.06644900  0.75000000  1
  O  O5  1  0.41017700  0.58982300  0.25000000  1
  O  O6  1  0.06644900  0.93355100  0.25000000  1
  O  O7  1  0.58982300  0.41017700  0.75000000  1
loop_
_geom_bond_atom_site_label_1
_geom_bond_atom_site_label_2
_geom_bond_distance
_geom_bond_site_symmetry_2
Dy0 O4 2.213589 1_465
Dy0 O3 2.522024 1_556
Dy0 O1 2.522024 1_555
Dy0 O0 2.522024 1_566
Dy0 O2 2.522024 1_565
Dy0 O7 2.677518 1_455
Dy0 O7 2.677518 1_565
Dy0 O6 2.747229 1_555
Dy0 O6 2.747229 1_556
Dy1 O6 2.213589 1_645
Dy1 O2 2.522024 1_555
Dy1 O0 2.522024 1_555
Dy1 O1 2.522024 1_655
Dy1 O3 2.522024 1_655
Dy1 O5 2.677518 1_545
Dy1 O5 2.677518 1_655
Dy1 O4 2.747229 1_554
Dy1 O4 2.747229 1_555
Co0 O0 1.890061 1_565
Co0 O3 1.890061 1_555
Co0 O1 1.890061 1_555
Co0 O2 1.890061 1_565
Co0 O5 1.965282 1_555
Co0 O6 2.252884 1_555
Co1 O2 1.890061 1_555
Co1 O1 1.890061 1_655
Co1 O0 1.890061 1_556
Co1 O3 1.890061 1_656
Co1 O7 1.965282 1_555
Co1 O4 2.252884 1_555
O0 Sr1 2.607679 1_544
O0 Sr0 2.607679 1_555
O1 Sr1 2.607679 1_555
O1 Sr0 2.607679 1_455
O2 Sr1 2.607679 1_545
O2 Sr0 2.607679 1_555
O3 Sr1 2.607679 1_554
O3 Sr0 2.607679 1_455
O4 Sr1 2.699899 1_545
O4 Sr1 2.699899 1_655
O5 Sr0 2.373675 1_555
O5 Sr1 2.690043 1_554
O5 Sr1 2.690043 1_555
O6 Sr0 2.699899 1_455
O6 Sr0 2.699899 1_565
O7 Sr1 2.373675 1_555
O7 Sr0 2.690043 1_555
O7 Sr0 2.690043 1_556
