# generated using pymatgen
data_CaNdMn4O12
_symmetry_space_group_name_H-M   'P 1'
_cell_length_a   5.34135566
_cell_length_b   5.34135566
_cell_length_c   7.55740526
_cell_angle_alpha   90.00000000
_cell_angle_beta   90.00000000
_cell_angle_gamma   88.46473158
_symmetry_Int_Tables_number   1
_chemical_formula_structural   CaNdMn4O12
_chemical_formula_sum   'Ca1 Nd1 Mn4 O12'
_cell_volume   215.53597830
_cell_formula_units_Z   1
loop_
 _symmetry_equiv_pos_site_id
 _symmetry_equiv_pos_as_xyz
  1  'x, y, z'
loop_
 _atom_site_type_symbol
 _atom_site_label
 _atom_site_symmetry_multiplicity
 _atom_site_fract_x
 _atom_site_fract_y
 _atom_site_fract_z
 _atom_site_occupancy
  Ca  Ca0  1  0.50982254  0.50982254  -0.00000000  1
  Nd  Nd0  1  0.98199052  0.98199052  0.50000000  1
  Mn  Mn0  1  0.49526938  0.00172941  0.75465803  1
  Mn  Mn1  1  0.49526938  0.00172941  0.24534197  1
  Mn  Mn2  1  0.00172941  0.49526938  0.24534197  1
  Mn  Mn3  1  0.00172941  0.49526938  0.75465803  1
  O  O0  1  0.71363725  0.28743487  0.74537182  1
  O  O1  1  0.28743487  0.71363725  0.74537182  1
  O  O2  1  0.28743487  0.71363725  0.25462818  1
  O  O3  1  0.71363725  0.28743487  0.25462818  1
  O  O4  1  0.78943978  0.78943978  0.78489277  1
  O  O5  1  0.21306012  0.21306012  0.70526785  1
  O  O6  1  0.21306012  0.21306012  0.29473215  1
  O  O7  1  0.78943978  0.78943978  0.21510723  1
  O  O8  1  0.45033448  0.05955755  -0.00000000  1
  O  O9  1  0.53746476  0.96218851  0.50000000  1
  O  O10  1  0.05955755  0.45033448  -0.00000000  1
  O  O11  1  0.96218851  0.53746476  0.50000000  1
loop_
_geom_bond_atom_site_label_1
_geom_bond_atom_site_label_2
_geom_bond_distance
_geom_bond_site_symmetry_2
Ca0 O10 2.434350 1_555
Ca0 O8 2.434350 1_555
Ca0 O2 2.495975 1_555
Ca0 O3 2.495975 1_555
Ca0 O0 2.495975 1_554
Ca0 O1 2.495975 1_554
Ca0 O7 2.687670 1_555
Ca0 O4 2.687670 1_554
Ca0 O8 2.944996 1_565
Ca0 O10 2.944996 1_655
Nd0 O6 2.352606 1_665
Nd0 O5 2.352606 1_665
Nd0 O11 2.379554 1_555
Nd0 O9 2.379554 1_555
Nd0 O7 2.609187 1_555
Nd0 O4 2.609187 1_555
Nd0 O1 2.833672 1_655
Nd0 O2 2.833672 1_655
Nd0 O3 2.833672 1_565
Nd0 O0 2.833672 1_565
Nd0 O9 2.966037 1_655
Nd0 O11 2.966037 1_565
Mn0 O8 1.893914 1_556
Mn0 O5 1.895921 1_555
Mn0 O1 1.922690 1_545
Mn0 O4 1.926496 1_545
Mn0 O0 1.946687 1_555
Mn0 O9 1.948528 1_545
Mn1 O8 1.893914 1_555
Mn1 O6 1.895921 1_555
Mn1 O2 1.922690 1_545
Mn1 O7 1.926496 1_545
Mn1 O3 1.946687 1_555
Mn1 O9 1.948528 1_545
Mn2 O10 1.893914 1_555
Mn2 O6 1.895921 1_555
Mn2 O3 1.922690 1_455
Mn2 O7 1.926496 1_455
Mn2 O2 1.946687 1_555
Mn2 O11 1.948528 1_455
Mn3 O10 1.893914 1_556
Mn3 O5 1.895921 1_555
Mn3 O0 1.922690 1_455
Mn3 O4 1.926496 1_455
Mn3 O1 1.946687 1_555
Mn3 O11 1.948528 1_455
O0 O11 2.660787 1_555
O0 O4 2.696454 1_545
O0 O9 2.725774 1_545
O1 O9 2.660787 1_555
O1 O4 2.696454 1_455
O1 O11 2.725774 1_455
O2 O9 2.660787 1_555
O2 O7 2.696454 1_455
O3 O7 2.696454 1_545
O3 O9 2.725774 1_545
O4 O9 2.689218 1_555
O5 O9 2.660852 1_545
O6 O9 2.660852 1_545
O7 O9 2.689218 1_555
O11 O3 2.660787 1_555
O11 O6 2.660852 1_655
O11 O5 2.660852 1_655
O11 O7 2.689218 1_555
O11 O4 2.689218 1_555
O11 O2 2.725774 1_655
