# generated using pymatgen
data_Zr54Os17
_symmetry_space_group_name_H-M   'P 1'
_cell_length_a   12.45814146
_cell_length_b   12.45814146
_cell_length_c   12.45814146
_cell_angle_alpha   111.15233507
_cell_angle_beta   110.10163866
_cell_angle_gamma   107.18539962
_symmetry_Int_Tables_number   1
_chemical_formula_structural   Zr54Os17
_chemical_formula_sum   'Zr54 Os17'
_cell_volume   1486.56403438
_cell_formula_units_Z   1
loop_
 _symmetry_equiv_pos_site_id
 _symmetry_equiv_pos_as_xyz
  1  'x, y, z'
loop_
 _atom_site_type_symbol
 _atom_site_label
 _atom_site_symmetry_multiplicity
 _atom_site_fract_x
 _atom_site_fract_y
 _atom_site_fract_z
 _atom_site_occupancy
  Zr  Zr0  1  0.29207000  0.48773900  0.42116800  1
  Zr  Zr1  1  0.70793000  0.51226100  0.57883200  1
  Zr  Zr2  1  0.06657200  0.87090300  0.57883200  1
  Zr  Zr3  1  0.93342800  0.51226100  0.80433100  1
  Zr  Zr4  1  0.93342800  0.12909700  0.42116800  1
  Zr  Zr5  1  0.06657200  0.48773900  0.19566900  1
  Zr  Zr6  1  0.70793000  0.12909700  0.19566900  1
  Zr  Zr7  1  0.29207000  0.87090300  0.80433100  1
  Zr  Zr8  1  0.10799600  0.18009600  0.28809200  1
  Zr  Zr9  1  0.89200400  0.81990400  0.71190800  1
  Zr  Zr10  1  0.10799600  0.81990400  0.92790000  1
  Zr  Zr11  1  0.89200400  0.18009600  0.07210000  1
  Zr  Zr12  1  0.16996300  0.27979300  0.10983000  1
  Zr  Zr13  1  0.83003700  0.72020700  0.89017000  1
  Zr  Zr14  1  0.16996300  0.06013200  0.89017000  1
  Zr  Zr15  1  0.83003700  0.93986800  0.10983000  1
  Zr  Zr16  1  0.28831800  0.10153900  0.18677900  1
  Zr  Zr17  1  0.71168200  0.89846100  0.81322100  1
  Zr  Zr18  1  0.91476000  0.10153900  0.81322100  1
  Zr  Zr19  1  0.08524000  0.89846100  0.18677900  1
  Zr  Zr20  1  0.35573100  0.35573100  0.00000000  1
  Zr  Zr21  1  0.64426900  0.64426900  0.00000000  1
  Zr  Zr22  1  0.33492500  0.73462000  0.39969500  1
  Zr  Zr23  1  0.66507500  0.26538000  0.60030500  1
  Zr  Zr24  1  0.33492500  0.93523000  0.60030500  1
  Zr  Zr25  1  0.66507500  0.06477000  0.39969500  1
  Zr  Zr26  1  0.39118500  0.00000000  0.39118500  1
  Zr  Zr27  1  0.60881500  0.00000000  0.60881500  1
  Zr  Zr28  1  0.00000000  0.39039600  0.39039600  1
  Zr  Zr29  1  0.00000000  0.60960400  0.60960400  1
  Zr  Zr30  1  0.42364400  0.29897300  0.50729500  1
  Zr  Zr31  1  0.57635600  0.70102700  0.49270500  1
  Zr  Zr32  1  0.79167800  0.91634900  0.49270500  1
  Zr  Zr33  1  0.20832200  0.70102700  0.12467100  1
  Zr  Zr34  1  0.20832200  0.08365100  0.50729500  1
  Zr  Zr35  1  0.79167800  0.29897300  0.87532900  1
  Zr  Zr36  1  0.57635600  0.08365100  0.87532900  1
  Zr  Zr37  1  0.42364400  0.91634900  0.12467100  1
  Zr  Zr38  1  0.46820300  0.40364500  0.29995100  1
  Zr  Zr39  1  0.53179700  0.59635500  0.70004900  1
  Zr  Zr40  1  0.10369400  0.16825200  0.70004900  1
  Zr  Zr41  1  0.89630600  0.59635500  0.06455800  1
  Zr  Zr42  1  0.89630600  0.83174800  0.29995100  1
  Zr  Zr43  1  0.10369400  0.40364500  0.93544200  1
  Zr  Zr44  1  0.53179700  0.83174800  0.93544200  1
  Zr  Zr45  1  0.46820300  0.16825200  0.06455800  1
  Zr  Zr46  1  0.72529300  0.40549900  0.31979300  1
  Zr  Zr47  1  0.27470700  0.59450100  0.68020700  1
  Zr  Zr48  1  0.08570600  0.40549900  0.68020700  1
  Zr  Zr49  1  0.91429400  0.59450100  0.31979300  1
  Zr  Zr50  1  0.39137200  0.37392100  0.76529300  1
  Zr  Zr51  1  0.60862800  0.62607900  0.23470700  1
  Zr  Zr52  1  0.39137200  0.62607900  0.01745100  1
  Zr  Zr53  1  0.60862800  0.37392100  0.98254900  1
  Os  Os0  1  0.54984100  0.21720600  0.33263600  1
  Os  Os1  1  0.45015900  0.78279400  0.66736400  1
  Os  Os2  1  0.88457000  0.21720600  0.66736400  1
  Os  Os3  1  0.11543000  0.78279400  0.33263600  1
  Os  Os4  1  0.16499700  0.66499700  0.50000000  1
  Os  Os5  1  0.83500300  0.33500300  0.50000000  1
  Os  Os6  1  0.21320400  0.32713100  0.54033400  1
  Os  Os7  1  0.78679600  0.67286900  0.45966600  1
  Os  Os8  1  0.21320400  0.67286900  0.88607300  1
  Os  Os9  1  0.78679600  0.32713100  0.11392700  1
  Os  Os10  1  0.33723300  0.53915200  0.20191900  1
  Os  Os11  1  0.66276700  0.46084800  0.79808100  1
  Os  Os12  1  0.33723300  0.13531400  0.79808100  1
  Os  Os13  1  0.66276700  0.86468600  0.20191900  1
  Os  Os14  1  0.00000000  0.00000000  0.00000000  1
  Os  Os15  1  0.50000000  0.19239800  0.69239800  1
  Os  Os16  1  0.50000000  0.80760200  0.30760200  1
loop_
_geom_bond_atom_site_label_1
_geom_bond_atom_site_label_2
_geom_bond_distance
_geom_bond_site_symmetry_2
Zr0 Zr22 3.088369 1_555
Zr0 Zr47 3.127685 1_555
Zr0 Zr39 3.147719 1_555
Zr0 Zr8 3.209970 1_555
Zr0 Zr5 3.218604 1_555
Zr0 Zr12 3.230072 1_555
Zr0 Zr38 3.269160 1_555
Zr0 Zr28 3.309909 1_555
Zr0 Zr31 3.310357 1_555
Zr0 Zr30 3.501221 1_555
Zr1 Zr23 3.088369 1_555
Zr1 Zr46 3.127685 1_555
Zr1 Zr38 3.147719 1_555
Zr1 Zr9 3.209970 1_555
Zr1 Zr3 3.218604 1_555
Zr1 Zr13 3.230072 1_555
Zr1 Zr39 3.269160 1_555
Zr1 Zr29 3.309909 1_655
Zr1 Zr30 3.310357 1_555
Zr1 Zr31 3.501221 1_555
Zr2 Zr24 3.088358 1_555
Zr2 Zr49 3.127684 1_455
Zr2 Zr42 3.147717 1_455
Zr2 Zr9 3.209982 1_455
Zr2 Zr7 3.218604 1_555
Zr2 Zr40 3.269152 1_565
Zr2 Zr29 3.309921 1_555
Zr2 Zr34 3.310343 1_565
Zr2 Zr32 3.501225 1_455
Zr3 Zr48 3.127690 1_655
Zr3 Zr43 3.147727 1_655
Zr3 Zr41 3.269152 1_556
Zr3 Zr35 3.310352 1_555
Zr3 Zr33 3.501226 1_656
Zr4 Zr48 3.127684 1_655
Zr4 Zr40 3.147717 1_655
Zr4 Zr8 3.209982 1_655
Zr4 Zr6 3.218604 1_555
Zr4 Zr42 3.269152 1_545
Zr10 Zr9 3.082915 1_455
Zr10 Zr14 3.110164 1_565
Zr10 Zr13 3.110176 1_455
Zr10 Zr16 3.155038 1_566
Zr10 Zr19 3.155038 1_556
Zr10 Zr7 3.209972 1_555
Zr10 Zr3 3.209972 1_455
Zr10 Zr29 3.339239 1_555
Zr10 Zr33 3.372352 1_556
Zr10 Zr37 3.372352 1_556
Zr11 Zr8 3.082915 1_655
Zr11 Zr15 3.110164 1_545
Zr11 Zr12 3.110176 1_655
Zr11 Zr17 3.155038 1_544
Zr11 Zr18 3.155038 1_554
Zr11 Zr6 3.209972 1_555
Zr11 Zr5 3.209972 1_655
Zr11 Zr28 3.339239 1_655
Zr11 Zr36 3.372352 1_554
Zr11 Zr35 3.372352 1_554
Zr12 Zr14 3.094012 1_554
Zr12 Zr8 3.110176 1_555
Zr12 Zr38 3.117921 1_555
Zr12 Zr43 3.117921 1_554
Zr12 Zr20 3.152830 1_555
Zr12 Zr5 3.230063 1_555
Zr12 Zr18 3.244133 1_454
Zr12 Zr16 3.244133 1_555
Zr13 Zr15 3.094012 1_556
Zr13 Zr9 3.110176 1_555
Zr13 Zr41 3.117921 1_556
Zr13 Zr39 3.117921 1_555
Zr13 Zr21 3.152830 1_556
Zr13 Zr3 3.230063 1_555
Zr13 Zr19 3.244133 1_656
Zr13 Zr17 3.244133 1_555
Zr14 Zr9 3.110171 1_445
Zr14 Zr45 3.117919 1_556
Zr14 Zr40 3.117931 1_555
Zr14 Zr20 3.152840 1_556
Zr14 Zr7 3.230053 1_545
Zr14 Zr2 3.230070 1_545
Zr14 Zr16 3.244129 1_556
Zr14 Zr18 3.244140 1_455
Zr15 Zr8 3.110171 1_665
Zr15 Zr44 3.117919 1_554
Zr15 Zr42 3.117931 1_555
Zr15 Zr21 3.152840 1_555
Zr15 Zr6 3.230053 1_565
Zr15 Zr4 3.230070 1_565
Zr15 Zr17 3.244129 1_554
Zr15 Zr19 3.244140 1_655
Zr16 Zr19 3.003188 1_545
Zr16 Zr8 3.155038 1_555
Zr16 Zr38 3.192120 1_555
Zr16 Zr45 3.192120 1_555
Zr16 Zr30 3.266590 1_555
Zr16 Zr37 3.266590 1_545
Zr16 Zr26 3.281288 1_555
Zr17 Zr18 3.003188 1_565
Zr17 Zr9 3.155038 1_555
Zr17 Zr44 3.192120 1_555
Zr17 Zr39 3.192120 1_555
Zr17 Zr36 3.266590 1_565
Zr17 Zr31 3.266590 1_555
Zr17 Zr27 3.281288 1_565
Zr18 Zr9 3.155038 1_545
Zr18 Zr40 3.192120 1_655
Zr18 Zr43 3.192120 1_655
Zr18 Zr32 3.266590 1_545
Zr18 Zr35 3.266590 1_555
Zr18 Zr27 3.281288 1_555
Zr19 Zr8 3.155038 1_565
Zr19 Zr41 3.192120 1_455
Zr19 Zr42 3.192120 1_455
Zr19 Zr33 3.266590 1_555
Zr19 Zr34 3.266590 1_565
Zr19 Zr26 3.281288 1_565
Zr20 Zr52 3.179551 1_555
Zr20 Zr51 3.179551 1_555
Zr20 Zr53 3.179551 1_554
Zr20 Zr50 3.179551 1_554
Zr20 Zr38 3.252753 1_555
Zr20 Zr43 3.252753 1_554
Zr20 Zr45 3.252753 1_555
Zr20 Zr40 3.252753 1_554
Zr21 Zr52 3.179551 1_555
Zr21 Zr53 3.179551 1_554
Zr21 Zr50 3.179551 1_554
Zr21 Zr51 3.179551 1_555
Zr21 Zr42 3.252753 1_555
Zr21 Zr41 3.252753 1_555
Zr21 Zr44 3.252753 1_554
Zr21 Zr39 3.252753 1_554
Zr22 Zr24 2.825678 1_555
Zr22 Zr33 3.043475 1_555
Zr22 Zr31 3.043475 1_555
Zr22 Zr5 3.088363 1_555
Zr22 Zr26 3.219903 1_565
Zr22 Zr27 3.219903 1_565
Zr23 Zr25 2.825678 1_555
Zr23 Zr35 3.043475 1_555
Zr23 Zr30 3.043475 1_555
Zr23 Zr3 3.088363 1_555
Zr23 Zr26 3.219903 1_555
Zr23 Zr27 3.219903 1_555
Zr24 Zr36 3.043475 1_565
Zr24 Zr34 3.043475 1_565
Zr24 Zr7 3.088363 1_555
Zr24 Zr26 3.219903 1_565
Zr24 Zr27 3.219903 1_565
Zr25 Zr37 3.043475 1_545
Zr25 Zr32 3.043475 1_545
Zr25 Zr4 3.088358 1_555
Zr25 Zr6 3.088363 1_555
Zr25 Zr26 3.219903 1_555
Zr25 Zr27 3.219903 1_555
Zr26 Zr27 3.106295 1_555
Zr26 Zr30 3.308850 1_555
Zr26 Zr33 3.308850 1_545
Zr26 Zr34 3.308850 1_555
Zr26 Zr37 3.308850 1_545
Zr27 Zr36 3.308850 1_555
Zr27 Zr35 3.308850 1_555
Zr27 Zr32 3.308850 1_545
Zr27 Zr31 3.308850 1_545
Zr28 Zr29 3.087639 1_555
Zr28 Zr46 3.309422 1_455
Zr28 Zr47 3.309429 1_555
Zr28 Zr48 3.309434 1_555
Zr28 Zr49 3.309434 1_455
Zr28 Zr6 3.309914 1_455
Zr28 Zr5 3.309914 1_555
Zr28 Zr4 3.309921 1_455
Zr28 Zr8 3.339239 1_555
Zr29 Zr47 3.309422 1_555
Zr29 Zr46 3.309429 1_455
Zr29 Zr48 3.309434 1_555
Zr29 Zr49 3.309434 1_455
Zr29 Zr7 3.309914 1_555
Zr29 Zr3 3.309914 1_455
Zr29 Zr9 3.339239 1_455
Zr30 Zr39 3.116599 1_555
Zr30 Zr34 3.184257 1_555
Zr30 Zr50 3.210699 1_555
Zr30 Zr8 3.372352 1_555
Zr30 Zr38 3.416141 1_555
Zr31 Zr38 3.116599 1_555
Zr31 Zr32 3.184257 1_555
Zr31 Zr51 3.210699 1_555
Zr31 Zr9 3.372352 1_555
Zr31 Zr39 3.416141 1_555
Zr32 Zr42 3.116599 1_555
Zr32 Zr51 3.210699 1_555
Zr32 Zr4 3.310343 1_565
Zr32 Zr9 3.372352 1_555
Zr32 Zr40 3.416141 1_665
Zr33 Zr43 3.116599 1_554
Zr33 Zr37 3.184257 1_555
Zr33 Zr52 3.210699 1_555
Zr33 Zr5 3.310352 1_555
Zr33 Zr41 3.416141 1_455
Zr34 Zr40 3.116599 1_555
Zr34 Zr50 3.210699 1_555
Zr34 Zr8 3.372352 1_555
Zr34 Zr42 3.416141 1_445
Zr34 Zr4 3.501225 1_455
Zr35 Zr41 3.116599 1_556
Zr35 Zr36 3.184257 1_555
Zr35 Zr53 3.210699 1_555
Zr35 Zr43 3.416141 1_655
Zr35 Zr5 3.501226 1_656
Zr36 Zr45 3.116599 1_556
Zr36 Zr53 3.210699 1_555
Zr36 Zr7 3.310352 1_545
Zr36 Zr44 3.416141 1_545
Zr36 Zr6 3.501226 1_556
Zr37 Zr44 3.116599 1_554
Zr37 Zr52 3.210699 1_555
Zr37 Zr6 3.310352 1_565
Zr37 Zr45 3.416141 1_565
Zr37 Zr7 3.501226 1_554
Zr38 Zr46 3.118962 1_555
Zr38 Zr45 3.315611 1_555
Zr38 Zr51 3.337440 1_555
Zr39 Zr47 3.118962 1_555
Zr39 Zr44 3.315611 1_555
Zr39 Zr50 3.337440 1_555
Zr40 Zr48 3.118950 1_555
Zr40 Zr43 3.315611 1_555
Zr40 Zr50 3.337440 1_555
Zr41 Zr49 3.118950 1_555
Zr41 Zr5 3.147727 1_655
Zr41 Zr42 3.315611 1_555
Zr41 Zr53 3.337440 1_554
Zr42 Zr49 3.118950 1_555
Zr42 Zr51 3.337440 1_555
Zr43 Zr48 3.118950 1_555
Zr43 Zr5 3.269152 1_556
Zr43 Zr52 3.337440 1_556
Zr44 Zr47 3.118954 1_555
Zr44 Zr7 3.147727 1_555
Zr44 Zr6 3.269152 1_566
Zr44 Zr52 3.337440 1_556
Zr45 Zr46 3.118954 1_555
Zr45 Zr6 3.147727 1_555
Zr45 Zr7 3.269152 1_544
Zr45 Zr53 3.337440 1_554
Zr46 Zr49 2.795020 1_555
Zr46 Zr6 3.127684 1_555
Zr47 Zr48 2.795020 1_555
Zr47 Zr7 3.127684 1_555
Zr49 Zr5 3.127690 1_655
Zr50 Zr53 3.100957 1_555
Zr50 Zr52 3.551753 1_556
Zr51 Zr52 3.100957 1_555
Zr51 Zr53 3.551753 1_554
Os0 Zr16 2.694433 1_555
Os0 Zr46 2.790584 1_555
Os0 Zr23 2.880448 1_555
Os0 Zr25 2.880455 1_555
Os0 Zr38 2.896364 1_555
Os0 Zr45 2.896373 1_555
Os0 Os5 2.956557 1_555
Os0 Zr30 3.153136 1_555
Os0 Zr37 3.153148 1_545
Os0 Zr1 3.198612 1_555
Os0 Zr6 3.198628 1_555
Os0 Zr26 3.319042 1_555
Os1 Zr17 2.694433 1_555
Os1 Zr47 2.790584 1_555
Os1 Zr22 2.880448 1_555
Os1 Zr24 2.880455 1_555
Os1 Zr39 2.896364 1_555
Os1 Zr44 2.896373 1_555
Os1 Os4 2.956557 1_555
Os1 Zr31 3.153136 1_555
Os1 Zr36 3.153148 1_565
Os1 Zr0 3.198612 1_555
Os1 Zr7 3.198628 1_555
Os1 Zr27 3.319042 1_565
Os2 Zr18 2.694444 1_555
Os2 Zr48 2.790570 1_655
Os2 Zr25 2.880447 1_555
Os2 Zr23 2.880447 1_555
Os2 Zr40 2.896371 1_655
Os2 Zr43 2.896371 1_655
Os2 Os5 2.956547 1_555
Os2 Zr32 3.153147 1_545
Os2 Zr35 3.153147 1_555
Os2 Zr4 3.198606 1_555
Os2 Zr3 3.198617 1_555
Os2 Zr27 3.319047 1_555
Os3 Zr19 2.694444 1_555
Os3 Zr49 2.790570 1_455
Os3 Zr22 2.880447 1_555
Os3 Zr24 2.880447 1_555
Os3 Zr42 2.896371 1_455
Os3 Zr41 2.896371 1_455
Os3 Os4 2.956547 1_555
Os3 Zr34 3.153147 1_565
Os3 Zr33 3.153147 1_555
Os3 Zr2 3.198606 1_555
Os3 Zr5 3.198617 1_555
Os3 Zr26 3.319047 1_565
Os4 Zr47 2.775384 1_555
Os4 Zr49 2.775388 1_455
Os4 Zr24 2.882890 1_555
Os4 Zr22 2.882890 1_555
Os4 Zr29 2.887410 1_555
Os4 Zr28 2.887410 1_555
Os4 Zr0 3.149075 1_555
Os4 Zr2 3.149076 1_555
Os4 Zr7 3.149078 1_555
Os4 Zr5 3.149078 1_555
Os5 Zr46 2.775384 1_555
Os5 Zr48 2.775388 1_655
Os5 Zr23 2.882890 1_555
Os5 Zr25 2.882890 1_555
Os5 Zr29 2.887410 1_655
Os5 Zr28 2.887410 1_655
Os5 Zr1 3.149075 1_555
Os5 Zr4 3.149076 1_555
Os5 Zr3 3.149078 1_555
Os5 Zr6 3.149078 1_555
Os6 Zr8 2.558162 1_555
Os6 Zr50 2.627064 1_555
Os6 Zr47 2.846716 1_555
Os6 Zr48 2.846720 1_555
Os6 Zr30 2.889074 1_555
Os6 Zr34 2.889082 1_555
Os6 Zr0 3.026147 1_555
Os6 Zr4 3.026173 1_455
Os6 Zr28 3.170905 1_555
Os7 Zr9 2.558162 1_555
Os7 Zr51 2.627064 1_555
Os7 Zr46 2.846716 1_555
Os7 Zr49 2.846720 1_555
Os7 Zr31 2.889074 1_555
Os7 Zr32 2.889082 1_555
Os7 Zr1 3.026147 1_555
Os7 Zr2 3.026173 1_655
Os7 Zr29 3.170905 1_655
Os8 Zr10 2.558172 1_555
Os8 Zr52 2.627056 1_556
Os8 Zr47 2.846703 1_555
Os8 Zr48 2.846711 1_555
Os8 Zr33 2.889079 1_556
Os8 Zr37 2.889079 1_556
Os8 Zr3 3.026168 1_455
Os8 Zr7 3.026168 1_555
Os8 Zr29 3.170910 1_555
Os9 Zr11 2.558172 1_555
Os9 Zr53 2.627056 1_554
Os9 Zr46 2.846703 1_555
Os9 Zr49 2.846711 1_555
Os9 Zr36 2.889079 1_554
Os9 Zr35 2.889079 1_554
Os9 Zr6 3.026168 1_555
Os9 Zr5 3.026168 1_655
Os9 Zr28 3.170910 1_655
Os10 Zr22 2.785969 1_555
Os10 Zr12 2.793104 1_555
Os10 Os16 2.830162 1_555
Os10 Zr20 2.857241 1_555
Os10 Zr38 2.957981 1_555
Os10 Zr43 2.957981 1_554
Os10 Zr51 3.055983 1_555
Os10 Zr52 3.055983 1_555
Os10 Zr31 3.134394 1_555
Os10 Zr33 3.134394 1_555
Os10 Zr5 3.208352 1_555
Os10 Zr0 3.208364 1_555
Os11 Zr23 2.785969 1_555
Os11 Zr13 2.793104 1_555
Os11 Os15 2.830162 1_555
Os11 Zr21 2.857241 1_556
Os11 Zr41 2.957981 1_556
Os11 Zr39 2.957981 1_555
Os11 Zr50 3.055983 1_555
Os11 Zr53 3.055983 1_555
Os11 Zr35 3.134394 1_555
Os11 Zr30 3.134394 1_555
Os11 Zr3 3.208352 1_555
Os11 Zr1 3.208364 1_555
Os12 Zr24 2.785969 1_545
Os12 Zr14 2.793108 1_555
Os12 Os15 2.830162 1_555
Os12 Zr20 2.857241 1_556
Os12 Zr40 2.957981 1_555
Os12 Zr45 2.957981 1_556
Os12 Zr50 3.055983 1_555
Os12 Zr53 3.055983 1_555
Os12 Zr36 3.134394 1_555
Os12 Zr34 3.134394 1_555
Os12 Zr7 3.208352 1_545
Os12 Zr2 3.208353 1_545
Os13 Zr25 2.785969 1_565
Os13 Zr15 2.793108 1_555
Os13 Os16 2.830162 1_555
Os13 Zr21 2.857241 1_555
Os13 Zr44 2.957981 1_554
Os13 Zr42 2.957981 1_555
Os13 Zr52 3.055983 1_555
Os13 Zr51 3.055983 1_555
Os13 Zr32 3.134394 1_555
Os13 Zr37 3.134394 1_555
Os13 Zr6 3.208352 1_565
Os13 Zr4 3.208353 1_565
Os14 Zr14 2.951397 1_554
Os14 Zr15 2.951397 1_445
Os14 Zr12 2.951399 1_555
Os14 Zr13 2.951399 1_444
Os14 Zr8 2.968347 1_555
Os14 Zr9 2.968347 1_444
Os14 Zr11 2.968347 1_455
Os14 Zr10 2.968347 1_544
Os14 Zr18 3.059750 1_454
Os14 Zr16 3.059750 1_555
Os14 Zr19 3.059750 1_545
Os14 Zr17 3.059750 1_444
Os15 Zr24 2.764424 1_545
Os15 Zr23 2.764424 1_555
Os15 Zr53 2.990210 1_555
Os15 Zr50 2.990210 1_555
Os15 Zr36 3.071441 1_555
Os15 Zr35 3.071441 1_555
Os15 Zr34 3.071441 1_555
Os15 Zr30 3.071441 1_555
Os15 Zr27 3.123525 1_555
Os15 Zr26 3.123525 1_555
Os16 Zr22 2.764424 1_555
Os16 Zr25 2.764424 1_565
Os16 Zr51 2.990210 1_555
Os16 Zr52 2.990210 1_555
Os16 Zr31 3.071441 1_555
Os16 Zr32 3.071441 1_555
Os16 Zr33 3.071441 1_555
Os16 Zr37 3.071441 1_555
Os16 Zr27 3.123525 1_565
Os16 Zr26 3.123525 1_565
