# generated using pymatgen
data_Zr2(TiSi)3
_symmetry_space_group_name_H-M   'P 1'
_cell_length_a   5.46689500
_cell_length_b   7.71310896
_cell_length_c   7.71573823
_cell_angle_alpha   119.98872029
_cell_angle_beta   90.00000000
_cell_angle_gamma   90.00000000
_symmetry_Int_Tables_number   1
_chemical_formula_structural   Zr2(TiSi)3
_chemical_formula_sum   'Zr4 Ti6 Si6'
_cell_volume   281.79135646
_cell_formula_units_Z   2
loop_
 _symmetry_equiv_pos_site_id
 _symmetry_equiv_pos_as_xyz
  1  'x, y, z'
loop_
 _atom_site_type_symbol
 _atom_site_label
 _atom_site_symmetry_multiplicity
 _atom_site_fract_x
 _atom_site_fract_y
 _atom_site_fract_z
 _atom_site_occupancy
  Zr  Zr0  1  0.50000000  0.33332300  0.66664600  1
  Zr  Zr1  1  0.50000000  0.66667700  0.33335400  1
  Zr  Zr2  1  0.00000000  0.66667700  0.33335400  1
  Zr  Zr3  1  0.00000000  0.33332300  0.66664600  1
  Ti  Ti0  1  0.74999800  0.25635700  0.00000000  1
  Ti  Ti1  1  0.75000200  0.74363800  0.74365100  1
  Ti  Ti2  1  0.75000200  0.99998700  0.25634900  1
  Ti  Ti3  1  0.24999800  0.74364300  0.00000000  1
  Ti  Ti4  1  0.25000200  0.25636200  0.25634900  1
  Ti  Ti5  1  0.25000200  0.00001300  0.74365100  1
  Si  Si0  1  0.75000200  0.62353100  0.00000000  1
  Si  Si1  1  0.74999900  0.37652100  0.37651000  1
  Si  Si2  1  0.74999900  0.00001100  0.62349000  1
  Si  Si3  1  0.25000200  0.37646900  0.00000000  1
  Si  Si4  1  0.24999900  0.62347900  0.62349000  1
  Si  Si5  1  0.24999900  0.99998900  0.37651000  1
loop_
_geom_bond_atom_site_label_1
_geom_bond_atom_site_label_2
_geom_bond_distance
_geom_bond_site_symmetry_2
Zr0 Zr3 2.733448 1_655
Zr0 Zr3 2.733448 1_555
Zr1 Zr2 2.733448 1_555
Zr1 Zr2 2.733448 1_655
Ti0 Zr0 3.219046 1_554
Ti0 Zr1 3.219047 1_555
Ti0 Zr3 3.219056 1_654
Ti0 Zr2 3.219056 1_655
Ti0 Ti4 3.373976 1_555
Ti0 Ti5 3.373976 1_554
Ti0 Ti4 3.374011 1_655
Ti0 Ti5 3.374012 1_654
Ti0 Ti2 3.425223 1_545
Ti0 Ti1 3.425223 1_544
Ti1 Zr3 3.218257 1_655
Ti1 Zr0 3.218266 1_555
Ti1 Zr2 3.219261 1_655
Ti1 Zr1 3.219270 1_555
Ti1 Ti5 3.373727 1_565
Ti1 Ti5 3.373727 1_665
Ti1 Ti3 3.373976 1_656
Ti1 Ti3 3.374011 1_556
Ti1 Ti2 3.426250 1_556
Ti2 Zr2 3.218257 1_655
Ti2 Zr1 3.218266 1_555
Ti2 Zr3 3.219261 1_665
Ti2 Zr0 3.219270 1_565
Ti2 Ti4 3.373727 1_565
Ti2 Ti4 3.373727 1_665
Ti2 Ti3 3.373976 1_655
Ti2 Ti3 3.374012 1_555
Ti3 Zr2 3.219046 1_555
Ti3 Zr3 3.219047 1_554
Ti3 Zr1 3.219056 1_555
Ti3 Zr0 3.219056 1_554
Ti3 Ti5 3.425223 1_564
Ti3 Ti4 3.425223 1_565
Ti4 Zr1 3.218257 1_555
Ti4 Zr2 3.218266 1_555
Ti4 Zr0 3.219261 1_555
Ti4 Zr3 3.219270 1_555
Ti4 Ti5 3.426250 1_554
Ti5 Zr0 3.218257 1_555
Ti5 Zr3 3.218266 1_555
Ti5 Zr1 3.219261 1_545
Ti5 Zr2 3.219270 1_545
Si0 Ti1 2.569457 1_554
Si0 Ti2 2.569457 1_555
Si0 Zr2 2.781823 1_655
Si0 Zr3 2.781824 1_654
Si0 Zr1 2.781834 1_555
Si0 Zr0 2.781834 1_554
Si0 Ti0 2.832053 1_555
Si0 Ti3 2.886157 1_655
Si0 Ti3 2.886198 1_555
Si1 Ti2 2.569538 1_545
Si1 Ti0 2.570363 1_555
Si1 Zr1 2.780723 1_555
Si1 Zr2 2.780728 1_655
Si1 Zr0 2.781359 1_555
Si1 Zr3 2.781364 1_655
Si1 Ti1 2.832672 1_555
Si1 Ti4 2.886382 1_555
Si1 Ti4 2.886413 1_655
Si2 Ti1 2.569538 1_545
Si2 Ti0 2.570363 1_556
Si2 Zr0 2.780723 1_555
Si2 Zr3 2.780728 1_655
Si2 Zr1 2.781359 1_545
Si2 Zr2 2.781364 1_645
Si2 Ti2 2.832671 1_545
Si2 Ti5 2.886382 1_555
Si2 Ti5 2.886413 1_655
Si3 Ti4 2.569457 1_555
Si3 Ti5 2.569457 1_554
Si3 Zr0 2.781823 1_554
Si3 Zr1 2.781824 1_555
Si3 Zr3 2.781834 1_554
Si3 Zr2 2.781834 1_555
Si3 Ti3 2.832053 1_555
Si3 Ti0 2.886157 1_555
Si3 Ti0 2.886198 1_455
Si4 Ti5 2.569538 1_565
Si4 Ti3 2.570363 1_556
Si4 Zr3 2.780723 1_555
Si4 Zr0 2.780728 1_555
Si4 Zr2 2.781359 1_555
Si4 Zr1 2.781364 1_555
Si4 Ti4 2.832672 1_555
Si4 Ti1 2.886382 1_455
Si4 Ti1 2.886413 1_555
Si5 Ti4 2.569538 1_565
Si5 Ti3 2.570363 1_555
Si5 Zr2 2.780723 1_555
Si5 Zr1 2.780728 1_555
Si5 Zr3 2.781359 1_565
Si5 Zr0 2.781364 1_565
Si5 Ti5 2.832671 1_565
Si5 Ti2 2.886382 1_455
Si5 Ti2 2.886413 1_555
