# generated using pymatgen
data_La8Cu3O16
_symmetry_space_group_name_H-M   'P 1'
_cell_length_a   7.10727400
_cell_length_b   7.54050330
_cell_length_c   8.42140134
_cell_angle_alpha   116.52928990
_cell_angle_beta   96.77287906
_cell_angle_gamma   105.50635669
_symmetry_Int_Tables_number   1
_chemical_formula_structural   La8Cu3O16
_chemical_formula_sum   'La8 Cu3 O16'
_cell_volume   374.06831835
_cell_formula_units_Z   1
loop_
 _symmetry_equiv_pos_site_id
 _symmetry_equiv_pos_as_xyz
  1  'x, y, z'
loop_
 _atom_site_type_symbol
 _atom_site_label
 _atom_site_symmetry_multiplicity
 _atom_site_fract_x
 _atom_site_fract_y
 _atom_site_fract_z
 _atom_site_occupancy
  La  La0  1  0.26981700  0.16322100  0.32332400  1
  La  La1  1  0.72369800  0.85260500  0.67265000  1
  La  La2  1  0.27481800  0.64685900  0.32969200  1
  La  La3  1  0.27933300  0.40530900  0.81099900  1
  La  La4  1  0.27780500  0.92290600  0.81385500  1
  La  La5  1  0.72834800  0.33707300  0.67852100  1
  La  La6  1  0.72116900  0.09555300  0.18995100  1
  La  La7  1  0.72221300  0.57828100  0.18573900  1
  Cu  Cu0  1  0.00100900  0.75001600  0.50001500  1
  Cu  Cu1  1  0.00095900  0.49936100  0.99991300  1
  Cu  Cu2  1  0.99637700  0.99894100  0.99745600  1
  O  O0  1  0.99436300  0.87470500  0.24811700  1
  O  O1  1  0.63223100  0.70520600  0.41081800  1
  O  O2  1  0.00108500  0.37867000  0.24488600  1
  O  O3  1  0.00390300  0.99367000  0.50103400  1
  O  O4  1  0.62423100  0.20138600  0.39992100  1
  O  O5  1  0.63716200  0.44974100  0.90745500  1
  O  O6  1  0.63282600  0.95340500  0.89773400  1
  O  O7  1  0.37339200  0.29843300  0.59405300  1
  O  O8  1  0.99983100  0.12286800  0.75493000  1
  O  O9  1  0.99593800  0.50706600  0.49901200  1
  O  O10  1  0.99717200  0.74847200  0.00061200  1
  O  O11  1  0.99781800  0.24811800  0.00082800  1
  O  O12  1  0.36545500  0.79374000  0.58315000  1
  O  O13  1  0.36692800  0.53934100  0.09104100  1
  O  O14  1  0.36483800  0.04435800  0.08309700  1
  O  O15  1  0.00603800  0.62697000  0.75102600  1
loop_
_geom_bond_atom_site_label_1
_geom_bond_atom_site_label_2
_geom_bond_distance
_geom_bond_site_symmetry_2
La0 O7 1.976295 1_555
La0 O14 2.092429 1_555
La0 O0 2.272929 1_445
La0 O4 2.430470 1_555
La1 O1 1.899004 1_555
La1 O6 1.962665 1_555
La1 O8 2.182694 1_565
La1 O12 2.427366 1_555
La2 O12 1.838475 1_555
La2 O13 2.064854 1_555
La2 O2 2.159412 1_555
La2 O1 2.416127 1_555
La3 O7 1.922268 1_555
La3 O13 2.039334 1_556
La3 O8 2.307215 1_455
La3 O5 2.460470 1_555
La4 O14 1.968182 1_566
La4 O12 2.007706 1_555
La4 O15 2.321624 1_555
La4 O6 2.458203 1_555
La5 O5 1.996168 1_555
La5 O4 2.034785 1_555
La5 O15 2.294141 1_655
La5 O7 2.440045 1_555
La6 O4 1.886524 1_555
La6 O6 2.125661 1_544
La6 O2 2.314993 1_655
La6 O14 2.449889 1_555
La7 O1 1.977488 1_555
La7 O5 2.029897 1_554
La7 O0 2.326602 1_555
La7 O13 2.453115 1_555
Cu0 O9 1.818865 1_455
Cu0 O3 1.828043 1_555
Cu0 O12 2.493497 1_555
Cu0 O1 2.526550 1_455
Cu0 La4 2.622851 1_555
Cu0 La7 2.633880 1_455
Cu1 O10 1.883195 1_456
Cu1 O11 1.892129 1_456
Cu1 O5 2.485806 1_455
Cu1 O13 2.519620 1_556
Cu1 La5 2.667139 1_455
Cu1 La7 2.694007 1_456
Cu2 O11 1.863661 1_566
Cu2 O10 1.902182 1_556
Cu2 O6 2.501138 1_555
Cu2 O14 2.519852 1_666
Cu2 La0 2.694516 1_666
Cu2 La4 2.696452 1_655
O0 O10 1.870442 1_555
O0 O3 1.890094 1_655
O1 O12 2.570454 1_555
O1 O13 2.627611 1_555
O2 O9 1.924887 1_455
O3 O8 1.921078 1_465
O4 O7 2.588995 1_555
O5 O7 2.604099 1_555
O10 O15 1.898173 1_654
O10 O5 2.665071 1_554
O10 O14 2.712713 1_665
O11 O2 1.833854 1_655
O11 O8 1.856752 1_554
O11 O6 2.661674 1_544
O11 O13 2.690877 1_655
O12 O6 2.611329 1_555
O13 O5 2.645120 1_554
O14 O4 2.601925 1_555
O14 O6 2.641638 1_544
O15 O9 1.882033 1_455
