# generated using pymatgen
data_PuB4Ru
_symmetry_space_group_name_H-M   'P 1'
_cell_length_a   5.99195372
_cell_length_b   5.99195372
_cell_length_c   3.53685743
_cell_angle_alpha   90.00000000
_cell_angle_beta   90.00000000
_cell_angle_gamma   103.95290153
_symmetry_Int_Tables_number   1
_chemical_formula_structural   PuB4Ru
_chemical_formula_sum   'Pu2 B8 Ru2'
_cell_volume   123.23879053
_cell_formula_units_Z   2
loop_
 _symmetry_equiv_pos_site_id
 _symmetry_equiv_pos_as_xyz
  1  'x, y, z'
loop_
 _atom_site_type_symbol
 _atom_site_label
 _atom_site_symmetry_multiplicity
 _atom_site_fract_x
 _atom_site_fract_y
 _atom_site_fract_z
 _atom_site_occupancy
  Pu  Pu0  1  0.30008665  0.69991335  -0.00000000  1
  Pu  Pu1  1  0.69991335  0.30008665  -0.00000000  1
  B  B0  1  0.37864909  0.06368134  0.50000000  1
  B  B1  1  0.62135091  0.93631866  0.50000000  1
  B  B2  1  0.06368134  0.37864909  0.50000000  1
  B  B3  1  0.93631866  0.62135091  0.50000000  1
  B  B4  1  0.37467603  0.37467603  0.50000000  1
  B  B5  1  0.62532397  0.62532397  0.50000000  1
  B  B6  1  0.09114260  0.90885740  0.50000000  1
  B  B7  1  0.90885740  0.09114260  0.50000000  1
  Ru  Ru0  1  0.18443241  0.18443241  0.00000000  1
  Ru  Ru1  1  0.81556759  0.81556759  -0.00000000  1
loop_
_geom_bond_atom_site_label_1
_geom_bond_atom_site_label_2
_geom_bond_distance
_geom_bond_site_symmetry_2
Pu0 Ru1 2.998050 1_555
Pu0 Ru0 2.998050 1_555
Pu1 Ru1 2.998050 1_555
Pu1 Ru0 2.998050 1_555
B0 B6 1.748626 1_545
B0 B1 1.797908 1_545
B0 B4 1.869349 1_555
B0 Ru0 2.326195 1_556
B0 Ru0 2.326195 1_555
B0 Pu1 2.743086 1_555
B0 Pu1 2.743086 1_556
B0 Pu0 2.757740 1_545
B0 Pu0 2.757740 1_546
B1 B7 1.748626 1_565
B1 B5 1.869349 1_555
B1 Ru1 2.326195 1_555
B1 Ru1 2.326195 1_556
B1 Pu0 2.743086 1_555
B1 Pu0 2.743086 1_556
B1 Pu1 2.757740 1_565
B1 Pu1 2.757740 1_566
B2 B7 1.748626 1_455
B2 B3 1.797908 1_455
B2 B4 1.869349 1_555
B2 Ru0 2.326195 1_556
B2 Ru0 2.326195 1_555
B2 Pu0 2.743086 1_555
B2 Pu0 2.743086 1_556
B2 Pu1 2.757740 1_456
B2 Pu1 2.757740 1_455
B3 B6 1.748626 1_655
B3 B5 1.869349 1_555
B3 Ru1 2.326195 1_555
B3 Ru1 2.326195 1_556
B3 Pu1 2.743086 1_555
B3 Pu1 2.743086 1_556
B3 Pu0 2.757740 1_656
B3 Pu0 2.757740 1_655
B4 B5 1.850261 1_555
B4 Ru0 2.258223 1_556
B4 Ru0 2.258223 1_555
B4 Pu0 2.746812 1_555
B4 Pu0 2.746812 1_556
B4 Pu1 2.746812 1_555
B4 Pu1 2.746812 1_556
B5 Ru1 2.258223 1_556
B5 Ru1 2.258223 1_555
B5 Pu0 2.746812 1_556
B5 Pu0 2.746812 1_555
B5 Pu1 2.746812 1_555
B5 Pu1 2.746812 1_556
B6 B7 1.720848 1_465
B6 Ru1 2.391914 1_456
B6 Ru1 2.391914 1_455
B6 Ru0 2.391914 1_566
B6 Ru0 2.391914 1_565
B6 Pu0 2.649183 1_555
B6 Pu0 2.649183 1_556
B7 Ru1 2.391914 1_545
B7 Ru1 2.391914 1_546
B7 Ru0 2.391914 1_656
B7 Ru0 2.391914 1_655
B7 Pu1 2.649183 1_555
B7 Pu1 2.649183 1_556
Ru0 Ru1 2.722927 1_445
