# generated using pymatgen
data_Dy4MgIr
_symmetry_space_group_name_H-M   'P 1'
_cell_length_a   9.68040415
_cell_length_b   9.68039902
_cell_length_c   9.68036750
_cell_angle_alpha   59.99738969
_cell_angle_beta   59.99740820
_cell_angle_gamma   59.99749838
_symmetry_Int_Tables_number   1
_chemical_formula_structural   Dy4MgIr
_chemical_formula_sum   'Dy16 Mg4 Ir4'
_cell_volume   641.41381449
_cell_formula_units_Z   4
loop_
 _symmetry_equiv_pos_site_id
 _symmetry_equiv_pos_as_xyz
  1  'x, y, z'
loop_
 _atom_site_type_symbol
 _atom_site_label
 _atom_site_symmetry_multiplicity
 _atom_site_fract_x
 _atom_site_fract_y
 _atom_site_fract_z
 _atom_site_occupancy
  Dy  Dy0  1  0.34566466  0.34565924  0.34564892  1
  Dy  Dy1  1  0.34565172  0.34564650  0.96304037  1
  Dy  Dy2  1  0.34565735  0.96303385  0.34564210  1
  Dy  Dy3  1  0.96303101  0.34565434  0.34564517  1
  Dy  Dy4  1  0.81200415  0.18800583  0.18800274  1
  Dy  Dy5  1  0.18800391  0.81198339  0.81200540  1
  Dy  Dy6  1  0.18800622  0.81200915  0.18800186  1
  Dy  Dy7  1  0.81197845  0.18800282  0.81201052  1
  Dy  Dy8  1  0.18800621  0.18800386  0.81201918  1
  Dy  Dy9  1  0.81198960  0.81199969  0.18800136  1
  Dy  Dy10  1  0.93732020  0.56268426  0.56267615  1
  Dy  Dy11  1  0.56267102  0.93732488  0.93732457  1
  Dy  Dy12  1  0.56268457  0.93732193  0.56267349  1
  Dy  Dy13  1  0.93732337  0.56267079  0.93732422  1
  Dy  Dy14  1  0.56267891  0.56267584  0.93732331  1
  Dy  Dy15  1  0.93732097  0.93732246  0.56266820  1
  Mg  Mg0  1  0.57917202  0.57917082  0.57916638  1
  Mg  Mg1  1  0.57917655  0.57917499  0.26247048  1
  Mg  Mg2  1  0.57917533  0.26247972  0.57916893  1
  Mg  Mg3  1  0.26248270  0.57917374  0.57916822  1
  Ir  Ir0  1  0.14086757  0.14086618  0.14086937  1
  Ir  Ir1  1  0.14086700  0.14086605  0.57740780  1
  Ir  Ir2  1  0.14086780  0.57740096  0.14086977  1
  Ir  Ir3  1  0.57739973  0.14086872  0.14087049  1
loop_
_geom_bond_atom_site_label_1
_geom_bond_atom_site_label_2
_geom_bond_distance
_geom_bond_site_symmetry_2
Dy0 Ir3 2.815573 1_555
Dy0 Ir2 2.815623 1_555
Dy0 Ir1 2.815733 1_555
Dy0 Dy14 3.500774 1_554
Dy0 Dy12 3.500888 1_545
Dy0 Dy10 3.500952 1_455
Dy0 Mg1 3.512523 1_555
Dy0 Mg2 3.512539 1_555
Dy0 Mg3 3.512554 1_555
Dy1 Ir0 2.815574 1_556
Dy1 Ir3 2.815657 1_556
Dy1 Ir2 2.815699 1_556
Dy1 Dy11 3.500836 1_545
Dy1 Dy13 3.500895 1_455
Dy1 Dy14 3.501111 1_555
Dy1 Mg0 3.512540 1_555
Dy1 Mg2 3.512550 1_555
Dy1 Mg3 3.512565 1_555
Dy2 Ir0 2.815555 1_565
Dy2 Ir3 2.815646 1_565
Dy2 Ir1 2.815796 1_565
Dy2 Mg1 3.512479 1_555
Dy2 Mg0 3.512479 1_555
Dy2 Mg3 3.512498 1_555
Dy3 Ir0 2.815562 1_655
Dy3 Ir2 2.815689 1_655
Dy3 Ir1 2.815798 1_655
Dy3 Mg1 3.512457 1_555
Dy3 Mg0 3.512459 1_555
Dy3 Mg2 3.512463 1_555
Dy4 Ir0 2.802499 1_655
Dy4 Ir3 2.802675 1_555
Dy4 Mg2 3.536684 1_555
Dy4 Mg1 3.536696 1_555
Dy4 Dy8 3.639613 1_654
Dy4 Dy6 3.639687 1_645
Dy4 Dy7 3.639882 1_554
Dy4 Dy9 3.639967 1_545
Dy5 Ir2 2.802400 1_556
Dy5 Ir1 2.802568 1_565
Dy5 Mg0 3.536700 1_555
Dy5 Mg3 3.536827 1_555
Dy5 Dy9 3.639732 1_456
Dy5 Dy7 3.639911 1_465
Dy5 Dy6 3.639920 1_556
Dy5 Dy8 3.640106 1_565
Dy6 Ir0 2.802443 1_565
Dy6 Ir2 2.802717 1_555
Dy6 Mg3 3.536696 1_555
Dy6 Mg1 3.536711 1_555
Dy6 Dy8 3.639571 1_564
Dy6 Dy9 3.640041 1_455
Dy7 Ir3 2.802362 1_556
Dy7 Ir1 2.802623 1_655
Dy7 Mg0 3.536694 1_555
Dy7 Mg2 3.536818 1_555
Dy7 Dy9 3.639651 1_546
Dy7 Dy8 3.640148 1_655
Dy8 Ir0 2.802351 1_556
Dy8 Ir1 2.802782 1_555
Dy8 Mg2 3.536727 1_555
Dy8 Mg3 3.536734 1_555
Dy9 Ir3 2.802465 1_565
Dy9 Ir2 2.802551 1_655
Dy9 Mg0 3.536657 1_555
Dy9 Mg1 3.536797 1_555
Dy10 Mg3 3.315050 1_655
Dy10 Mg0 3.315087 1_555
Dy10 Ir2 3.496906 1_655
Dy10 Ir1 3.496982 1_655
Dy10 Dy3 3.501175 1_555
Dy10 Dy12 3.626496 1_555
Dy10 Dy14 3.626559 1_555
Dy10 Dy15 3.626613 1_555
Dy10 Dy13 3.626681 1_555
Dy10 Dy6 3.629026 1_655
Dy10 Dy9 3.629046 1_555
Dy10 Dy8 3.629139 1_655
Dy10 Dy7 3.629161 1_555
Dy11 Mg1 3.314860 1_556
Dy11 Mg2 3.314927 1_565
Dy11 Ir0 3.496851 1_566
Dy11 Ir3 3.497127 1_566
Dy11 Dy2 3.500766 1_556
Dy11 Dy15 3.626645 1_555
Dy11 Dy13 3.626656 1_555
Dy11 Dy12 3.626709 1_555
Dy11 Dy14 3.626720 1_555
Dy11 Dy8 3.628855 1_565
Dy11 Dy6 3.628901 1_556
Dy11 Dy7 3.629025 1_565
Dy11 Dy9 3.629065 1_556
Dy12 Mg2 3.315027 1_565
Dy12 Mg0 3.315097 1_555
Dy12 Ir3 3.496881 1_565
Dy12 Ir1 3.496972 1_565
Dy12 Dy2 3.501151 1_555
Dy12 Dy14 3.626593 1_555
Dy12 Dy15 3.626609 1_555
Dy12 Dy4 3.628979 1_565
Dy12 Dy9 3.628985 1_555
Dy12 Dy8 3.629127 1_565
Dy12 Dy5 3.629140 1_555
Dy13 Mg1 3.314847 1_556
Dy13 Mg3 3.314951 1_655
Dy13 Ir0 3.496864 1_656
Dy13 Ir2 3.497138 1_656
Dy13 Dy3 3.500789 1_556
Dy13 Dy15 3.626650 1_555
Dy13 Dy14 3.626690 1_555
Dy13 Dy8 3.628869 1_655
Dy13 Dy4 3.628918 1_556
Dy13 Dy5 3.629073 1_655
Dy13 Dy9 3.629123 1_556
Dy14 Mg1 3.314971 1_556
Dy14 Mg0 3.315108 1_555
Dy14 Ir3 3.496913 1_556
Dy14 Ir2 3.496938 1_556
Dy14 Dy7 3.628956 1_555
Dy14 Dy4 3.628988 1_556
Dy14 Dy5 3.628998 1_555
Dy14 Dy6 3.629032 1_556
Dy15 Mg2 3.314898 1_565
Dy15 Mg3 3.314933 1_655
Dy15 Ir0 3.496822 1_665
Dy15 Ir1 3.497194 1_665
Dy15 Dy3 3.500899 1_565
Dy15 Dy2 3.500943 1_655
Dy15 Dy6 3.628894 1_655
Dy15 Dy4 3.628903 1_565
Dy15 Dy5 3.629220 1_655
Dy15 Dy7 3.629229 1_565
Mg0 Mg3 3.065658 1_555
Mg0 Mg2 3.065668 1_555
Mg0 Mg1 3.065691 1_555
Mg1 Mg3 3.065617 1_555
Mg1 Mg2 3.065626 1_555
Mg2 Mg3 3.065603 1_555
