# generated using pymatgen
data_SrPrScO4
_symmetry_space_group_name_H-M   'P 1'
_cell_length_a   6.85106858
_cell_length_b   6.85106858
_cell_length_c   5.88751200
_cell_angle_alpha   90.00000000
_cell_angle_beta   90.00000000
_cell_angle_gamma   130.68288834
_symmetry_Int_Tables_number   1
_chemical_formula_structural   SrPrScO4
_chemical_formula_sum   'Sr2 Pr2 Sc2 O8'
_cell_volume   209.55891029
_cell_formula_units_Z   2
loop_
 _symmetry_equiv_pos_site_id
 _symmetry_equiv_pos_as_xyz
  1  'x, y, z'
loop_
 _atom_site_type_symbol
 _atom_site_label
 _atom_site_symmetry_multiplicity
 _atom_site_fract_x
 _atom_site_fract_y
 _atom_site_fract_z
 _atom_site_occupancy
  Sr  Sr0  1  0.60425600  0.39574400  0.51341600  1
  Sr  Sr1  1  0.39574400  0.60425600  0.01341600  1
  Pr  Pr0  1  0.89109900  0.10890100  0.48377900  1
  Pr  Pr1  1  0.10890100  0.89109900  0.98377900  1
  Sc  Sc0  1  0.25410800  0.74589200  0.49557200  1
  Sc  Sc1  1  0.74589200  0.25410800  0.99557200  1
  O  O0  1  0.01692800  0.47262100  0.74132500  1
  O  O1  1  0.98307200  0.52737900  0.24132500  1
  O  O2  1  0.47262100  0.01692800  0.24132500  1
  O  O3  1  0.52737900  0.98307200  0.74132500  1
  O  O4  1  0.58337500  0.41662500  0.93656700  1
  O  O5  1  0.93003200  0.06996800  0.08801500  1
  O  O6  1  0.41662500  0.58337500  0.43656700  1
  O  O7  1  0.06996800  0.93003200  0.58801500  1
loop_
_geom_bond_atom_site_label_1
_geom_bond_atom_site_label_2
_geom_bond_distance
_geom_bond_site_symmetry_2
O0 Sc0 2.067059 1_555
O0 Sc1 2.075000 1_455
O0 Pr0 2.539905 1_455
O0 Sr1 2.657746 1_556
O0 Sr0 2.851281 1_455
O0 Pr1 2.880832 1_555
O1 Sc1 2.067059 1_554
O1 Sc0 2.075000 1_655
O1 Pr1 2.539905 1_654
O1 Sr0 2.657746 1_555
O1 Sr1 2.851281 1_655
O1 Pr0 2.880832 1_555
O2 Sc1 2.067059 1_554
O2 Sc0 2.075000 1_545
O2 Pr1 2.539905 1_544
O2 Sr0 2.657746 1_555
O2 Sr1 2.851281 1_545
O2 Pr0 2.880832 1_555
O3 Sc0 2.067059 1_555
O3 Sc1 2.075000 1_565
O3 Pr0 2.539905 1_565
O3 Sr1 2.657746 1_556
O3 Sr0 2.851281 1_565
O3 Pr1 2.880832 1_555
O4 Sc1 2.053366 1_555
O4 Sr1 2.379906 1_556
O4 Sr0 2.504839 1_555
O4 Pr1 2.889354 1_545
O4 Pr1 2.889354 1_655
O5 Pr1 2.310387 1_644
O5 Sc1 2.356736 1_554
O5 Pr0 2.379969 1_555
O5 Sr1 2.923230 1_545
O5 Sr1 2.923230 1_655
O6 Sc0 2.053366 1_555
O6 Sr0 2.379906 1_555
O6 Sr1 2.504839 1_555
O6 Pr0 2.889354 1_455
O6 Pr0 2.889354 1_565
O7 Pr0 2.310387 1_465
O7 Sc0 2.356736 1_555
O7 Pr1 2.379969 1_555
O7 Sr0 2.923230 1_455
O7 Sr0 2.923230 1_565
