# generated using pymatgen
data_Li9Mn2Co5O16
_symmetry_space_group_name_H-M   'P 1'
_cell_length_a   2.89427100
_cell_length_b   5.89930500
_cell_length_c   16.97154914
_cell_angle_alpha   89.76304534
_cell_angle_beta   90.00000000
_cell_angle_gamma   90.00000000
_symmetry_Int_Tables_number   1
_chemical_formula_structural   Li9Mn2Co5O16
_chemical_formula_sum   'Li9 Mn2 Co5 O16'
_cell_volume   289.77293203
_cell_formula_units_Z   1
loop_
 _symmetry_equiv_pos_site_id
 _symmetry_equiv_pos_as_xyz
  1  'x, y, z'
loop_
 _atom_site_type_symbol
 _atom_site_label
 _atom_site_symmetry_multiplicity
 _atom_site_fract_x
 _atom_site_fract_y
 _atom_site_fract_z
 _atom_site_occupancy
  Li  Li0  1  0.50000000  0.74580000  0.62351000  1
  Li  Li1  1  0.50000000  0.25420000  0.37649000  1
  Li  Li2  1  0.50000000  0.74258300  0.11724700  1
  Li  Li3  1  0.00000000  0.00000000  0.50000000  1
  Li  Li4  1  0.00000000  0.49769700  0.24433000  1
  Li  Li5  1  0.00000000  0.00000000  0.00000000  1
  Li  Li6  1  0.50000000  0.25741700  0.88275300  1
  Li  Li7  1  0.00000000  0.50230300  0.75567000  1
  Li  Li8  1  0.00000000  0.50000000  0.00000000  1
  Mn  Mn0  1  0.00000000  0.99817500  0.75080200  1
  Mn  Mn1  1  0.00000000  0.00182500  0.24919800  1
  Co  Co0  1  0.00000000  0.50000000  0.50000000  1
  Co  Co1  1  0.50000000  0.74719700  0.37548200  1
  Co  Co2  1  0.50000000  0.26248600  0.11052800  1
  Co  Co3  1  0.50000000  0.73751400  0.88947200  1
  Co  Co4  1  0.50000000  0.25280300  0.62451800  1
  O  O0  1  0.50000000  0.77905300  0.74468900  1
  O  O1  1  0.50000000  0.26404500  0.49882600  1
  O  O2  1  0.50000000  0.77966200  0.24873500  1
  O  O3  1  0.00000000  0.02361000  0.63273000  1
  O  O4  1  0.00000000  0.52069900  0.37723600  1
  O  O5  1  0.00000000  0.02165800  0.13713500  1
  O  O6  1  0.50000000  0.24347100  0.00596000  1
  O  O7  1  0.00000000  0.51857600  0.87267600  1
  O  O8  1  0.50000000  0.73595500  0.50117400  1
  O  O9  1  0.50000000  0.22094700  0.25531100  1
  O  O10  1  0.50000000  0.75652900  0.99404000  1
  O  O11  1  0.00000000  0.97639000  0.36727000  1
  O  O12  1  0.00000000  0.48142400  0.12732400  1
  O  O13  1  0.00000000  0.97834200  0.86286500  1
  O  O14  1  0.50000000  0.22033800  0.75126500  1
  O  O15  1  0.00000000  0.47930100  0.62276400  1
loop_
_geom_bond_atom_site_label_1
_geom_bond_atom_site_label_2
_geom_bond_distance
_geom_bond_site_symmetry_2
Li0 O0 2.066738 1_555
Li0 O8 2.077284 1_555
Li0 O15 2.136869 1_555
Li0 O15 2.136869 1_655
Li0 O3 2.192431 1_665
Li0 O3 2.192431 1_565
Li1 O9 2.066738 1_555
Li1 O1 2.077284 1_555
Li1 O4 2.136869 1_555
Li1 O4 2.136869 1_655
Li1 O11 2.192431 1_645
Li1 O11 2.192431 1_545
Li2 O10 2.092292 1_554
Li2 O12 2.120116 1_655
Li2 O12 2.120116 1_555
Li2 O5 2.218826 1_565
Li2 O5 2.218826 1_665
Li2 O2 2.243150 1_555
Li3 O1 2.126197 1_555
Li3 O1 2.126197 1_455
Li3 O8 2.126197 1_545
Li3 O8 2.126197 1_445
Li3 O11 2.257510 1_545
Li3 O3 2.257510 1_555
Li4 O12 1.988489 1_555
Li4 O9 2.189042 1_455
Li4 O9 2.189042 1_555
Li4 O2 2.206289 1_555
Li4 O2 2.206289 1_455
Li4 O4 2.260259 1_555
Li5 O10 2.041720 1_444
Li5 O10 2.041720 1_544
Li5 O6 2.041720 1_455
Li5 O6 2.041720 1_555
Li5 O5 2.331425 1_555
Li5 O13 2.331425 1_544
Li6 O6 2.092292 1_556
Li6 O7 2.120116 1_555
Li6 O7 2.120116 1_655
Li6 O13 2.218826 1_545
Li6 O13 2.218826 1_645
Li6 O14 2.243150 1_555
Li7 O7 1.988489 1_555
Li7 O0 2.189042 1_455
Li7 O0 2.189042 1_555
Li7 O14 2.206289 1_555
Li7 O14 2.206289 1_455
Li7 O15 2.260259 1_555
Li8 O10 2.096037 1_454
Li8 O6 2.096037 1_455
Li8 O6 2.096037 1_555
Li8 O10 2.096037 1_554
Li8 O7 2.163210 1_554
Li8 O12 2.163210 1_555
Mn0 O13 1.904995 1_555
Mn0 O0 1.943467 1_555
Mn0 O0 1.943467 1_455
Mn0 O14 1.952445 1_465
Mn0 O14 1.952445 1_565
Mn0 O3 2.008856 1_565
Mn1 O5 1.904995 1_555
Mn1 O9 1.943467 1_455
Mn1 O9 1.943467 1_555
Mn1 O2 1.952445 1_545
Mn1 O2 1.952445 1_445
Mn1 O11 2.008856 1_545
Co0 O8 2.008086 1_455
Co0 O8 2.008086 1_555
Co0 O1 2.008086 1_555
Co0 O1 2.008086 1_455
Co0 O15 2.086566 1_555
Co0 O4 2.086566 1_555
Co1 O4 1.969806 1_555
Co1 O4 1.969806 1_655
Co1 O11 1.984990 1_655
Co1 O11 1.984990 1_555
Co1 O8 2.133944 1_555
Co1 O2 2.158813 1_555
Co2 O6 1.778686 1_555
Co2 O12 1.961297 1_655
Co2 O12 1.961297 1_555
Co2 O5 2.076353 1_555
Co2 O5 2.076353 1_655
Co2 O9 2.468372 1_555
Co3 O10 1.778686 1_555
Co3 O7 1.961297 1_555
Co3 O7 1.961297 1_655
Co3 O13 2.076353 1_655
Co3 O13 2.076353 1_555
Co3 O0 2.468372 1_555
Co4 O15 1.969806 1_655
Co4 O15 1.969806 1_555
Co4 O3 1.984990 1_655
Co4 O3 1.984990 1_555
Co4 O1 2.133944 1_555
Co4 O14 2.158813 1_555
