# generated using pymatgen
data_TbTa3O9
_symmetry_space_group_name_H-M   'P 1'
_cell_length_a   8.80366648
_cell_length_b   8.80366648
_cell_length_c   9.67631679
_cell_angle_alpha   56.94742010
_cell_angle_beta   56.94742010
_cell_angle_gamma   36.89801493
_symmetry_Int_Tables_number   1
_chemical_formula_structural   TbTa3O9
_chemical_formula_sum   'Tb2 Ta6 O18'
_cell_volume   368.40279397
_cell_formula_units_Z   2
loop_
 _symmetry_equiv_pos_site_id
 _symmetry_equiv_pos_as_xyz
  1  'x, y, z'
loop_
 _atom_site_type_symbol
 _atom_site_label
 _atom_site_symmetry_multiplicity
 _atom_site_fract_x
 _atom_site_fract_y
 _atom_site_fract_z
 _atom_site_occupancy
  Tb  Tb0  1  0.32641000  0.32641000  0.00139300  1
  Tb  Tb1  1  0.67359000  0.67359000  0.99860700  1
  Ta  Ta0  1  0.07695800  0.07695800  0.25663300  1
  Ta  Ta1  1  0.58310600  0.58310600  0.75123700  1
  Ta  Ta2  1  0.74956500  0.74956500  0.26179400  1
  Ta  Ta3  1  0.25043500  0.25043500  0.73820600  1
  Ta  Ta4  1  0.92304200  0.92304200  0.74336700  1
  Ta  Ta5  1  0.41689400  0.41689400  0.24876300  1
  O  O0  1  0.50000000  0.50000000  0.00000000  1
  O  O1  1  0.57340500  0.09816400  0.22736100  1
  O  O2  1  0.09816400  0.57340500  0.22736100  1
  O  O3  1  0.92745600  0.42756600  0.21785100  1
  O  O4  1  0.17587600  0.17587600  0.99967300  1
  O  O5  1  0.82412400  0.82412400  0.00032700  1
  O  O6  1  0.00000000  0.00000000  0.50000000  1
  O  O7  1  0.66491500  0.66491500  0.50278900  1
  O  O8  1  0.72500200  0.24993900  0.77330200  1
  O  O9  1  0.57243400  0.07254400  0.78214900  1
  O  O10  1  0.42756600  0.92745600  0.21785100  1
  O  O11  1  0.24993900  0.72500200  0.77330200  1
  O  O12  1  0.75006100  0.27499800  0.22669800  1
  O  O13  1  0.27499800  0.75006100  0.22669800  1
  O  O14  1  0.33508500  0.33508500  0.49721100  1
  O  O15  1  0.07254400  0.57243400  0.78214900  1
  O  O16  1  0.90183600  0.42659500  0.77263900  1
  O  O17  1  0.42659500  0.90183600  0.77263900  1
loop_
_geom_bond_atom_site_label_1
_geom_bond_atom_site_label_2
_geom_bond_distance
_geom_bond_site_symmetry_2
O0 Ta5 1.969460 1_555
O0 Ta1 1.969460 1_554
O0 O12 2.671199 1_555
O0 O13 2.671199 1_555
O0 O8 2.671199 1_554
O0 O11 2.671199 1_554
O0 O16 2.679036 1_554
O0 O17 2.679036 1_554
O0 O1 2.679036 1_555
O0 O2 2.679036 1_555
O0 Tb1 2.891644 1_554
O0 Tb0 2.891644 1_555
O1 Ta2 1.941774 1_545
O1 Ta5 1.988423 1_555
O1 Tb0 2.636703 1_555
O1 O2 2.648055 1_555
O1 O10 2.698399 1_545
O1 O5 2.737425 1_545
O2 Ta2 1.941774 1_455
O2 Ta5 1.988423 1_555
O2 Tb0 2.636703 1_555
O2 O3 2.698399 1_455
O2 O5 2.737425 1_455
O3 Ta2 2.038924 1_555
O3 Ta0 2.044029 1_655
O3 O5 2.537618 1_555
O3 O4 2.542707 1_654
O3 Tb0 2.554102 1_655
O3 Tb1 2.569887 1_554
O4 Ta0 2.046492 1_556
O4 Ta3 2.080593 1_555
O4 Tb0 2.523887 1_556
O4 O9 2.537618 1_555
O4 Tb1 2.786375 1_455
O4 Tb1 2.786375 1_545
O5 Ta4 2.046492 1_554
O5 Ta2 2.080593 1_555
O5 Tb1 2.523887 1_554
O5 O9 2.542707 1_564
O5 O8 2.741578 1_564
O5 Tb0 2.786375 1_655
O5 Tb0 2.786375 1_565
O6 Ta4 1.927956 1_445
O6 Ta0 1.927956 1_555
O7 Ta2 1.909356 1_555
O7 Ta1 1.967026 1_555
O8 Ta4 1.933703 1_545
O8 Ta1 1.989134 1_555
O8 Tb0 2.651833 1_556
O8 O9 2.708159 1_555
O9 Ta3 2.038924 1_555
O9 Ta4 2.044029 1_545
O9 Tb1 2.554102 1_545
O9 Tb0 2.569887 1_556
O10 Ta2 2.038924 1_555
O10 Ta0 2.044029 1_565
O10 O5 2.537618 1_555
O10 O4 2.542707 1_564
O10 Tb0 2.554102 1_565
O10 Tb1 2.569887 1_554
O10 O13 2.708159 1_555
O10 O3 2.785400 1_555
O10 O3 2.786626 1_465
O11 Ta4 1.933703 1_455
O11 Ta1 1.989134 1_555
O11 O8 2.647063 1_555
O11 Tb0 2.651833 1_556
O11 O15 2.708159 1_555
O11 O5 2.741578 1_456
O12 Ta0 1.933703 1_655
O12 Ta5 1.989134 1_555
O12 O13 2.647063 1_555
O12 Tb1 2.651833 1_554
O12 O3 2.708159 1_555
O12 O4 2.741578 1_654
O13 Ta0 1.933703 1_565
O13 Ta5 1.989134 1_555
O13 Tb1 2.651833 1_554
O13 O4 2.741578 1_564
O14 Ta3 1.909356 1_555
O14 Ta5 1.967026 1_555
O15 Ta3 2.038924 1_555
O15 Ta4 2.044029 1_455
O15 O4 2.537618 1_555
O15 O5 2.542707 1_456
O15 Tb1 2.554102 1_455
O15 Tb0 2.569887 1_556
O15 O16 2.698399 1_455
O15 O9 2.785400 1_555
O15 O9 2.786626 1_465
O16 Ta3 1.941774 1_655
O16 Ta1 1.988423 1_555
O16 Tb1 2.636703 1_555
O16 O17 2.648055 1_555
O16 O4 2.737425 1_655
O17 Ta3 1.941774 1_565
O17 Ta1 1.988423 1_555
O17 Tb1 2.636703 1_555
O17 O9 2.698399 1_565
O17 O4 2.737425 1_565
