# generated using pymatgen
data_RbLaMg14O16
_symmetry_space_group_name_H-M   'P 1'
_cell_length_a   8.78167936
_cell_length_b   9.05395435
_cell_length_c   4.55344605
_cell_angle_alpha   90.00000000
_cell_angle_beta   90.00000000
_cell_angle_gamma   90.00000000
_symmetry_Int_Tables_number   1
_chemical_formula_structural   RbLaMg14O16
_chemical_formula_sum   'Rb1 La1 Mg14 O16'
_cell_volume   362.03959612
_cell_formula_units_Z   1
loop_
 _symmetry_equiv_pos_site_id
 _symmetry_equiv_pos_as_xyz
  1  'x, y, z'
loop_
 _atom_site_type_symbol
 _atom_site_label
 _atom_site_symmetry_multiplicity
 _atom_site_fract_x
 _atom_site_fract_y
 _atom_site_fract_z
 _atom_site_occupancy
  Rb  Rb0  1  0.00000000  0.50000000  0.00000000  1
  La  La0  1  0.00000000  0.00000000  0.00000000  1
  Mg  Mg0  1  0.50000000  0.00000000  0.00000000  1
  Mg  Mg1  1  0.50000000  0.50000000  0.00000000  1
  Mg  Mg2  1  0.00000000  0.26726412  0.50000000  1
  Mg  Mg3  1  0.00000000  0.73273588  0.50000000  1
  Mg  Mg4  1  0.50000000  0.25379436  0.50000000  1
  Mg  Mg5  1  0.50000000  0.74620564  0.50000000  1
  Mg  Mg6  1  0.26665846  0.00000000  0.50000000  1
  Mg  Mg7  1  0.25721569  0.50000000  0.50000000  1
  Mg  Mg8  1  0.73334154  0.00000000  0.50000000  1
  Mg  Mg9  1  0.74278431  0.50000000  0.50000000  1
  Mg  Mg10  1  0.26266878  0.25986996  -0.00000000  1
  Mg  Mg11  1  0.26266878  0.74013004  -0.00000000  1
  Mg  Mg12  1  0.73733122  0.25986996  0.00000000  1
  Mg  Mg13  1  0.73733122  0.74013004  0.00000000  1
  O  O0  1  0.27266519  0.00000000  0.00000000  1
  O  O1  1  0.28223051  0.50000000  -0.00000000  1
  O  O2  1  0.72733481  0.00000000  -0.00000000  1
  O  O3  1  0.71776949  0.50000000  0.00000000  1
  O  O4  1  0.25114385  0.24964341  0.50000000  1
  O  O5  1  0.25114385  0.75035659  0.50000000  1
  O  O6  1  0.74885615  0.24964341  0.50000000  1
  O  O7  1  0.74885615  0.75035659  0.50000000  1
  O  O8  1  0.00000000  0.00000000  0.50000000  1
  O  O9  1  0.00000000  0.50000000  0.50000000  1
  O  O10  1  0.50000000  0.00000000  0.50000000  1
  O  O11  1  0.50000000  0.50000000  0.50000000  1
  O  O12  1  0.00000000  0.24123630  0.00000000  1
  O  O13  1  0.00000000  0.75876370  0.00000000  1
  O  O14  1  0.50000000  0.24664863  0.00000000  1
  O  O15  1  0.50000000  0.75335137  0.00000000  1
loop_
_geom_bond_atom_site_label_1
_geom_bond_atom_site_label_2
_geom_bond_distance
_geom_bond_site_symmetry_2
La0 O12 2.184142 1_555
La0 O13 2.184142 1_545
La0 O8 2.276723 1_555
La0 O8 2.276723 1_554
La0 O0 2.394458 1_555
La0 O2 2.394458 1_455
Mg0 O0 1.996381 1_555
Mg0 O2 1.996381 1_555
Mg0 O14 2.233145 1_555
Mg0 O15 2.233145 1_545
Mg0 O10 2.276723 1_555
Mg0 O10 2.276723 1_554
Mg1 O3 1.912382 1_555
Mg1 O1 1.912382 1_555
Mg1 O11 2.276723 1_554
Mg1 O11 2.276723 1_555
Mg1 O14 2.293832 1_555
Mg1 O15 2.293832 1_555
Mg2 O9 2.107180 1_555
Mg2 O6 2.211227 1_455
Mg2 O4 2.211227 1_555
Mg2 O12 2.288886 1_555
Mg2 O12 2.288886 1_556
Mg2 O8 2.419797 1_555
Mg3 O9 2.107180 1_555
Mg3 O7 2.211227 1_455
Mg3 O5 2.211227 1_555
Mg3 O13 2.288886 1_555
Mg3 O13 2.288886 1_556
Mg3 O8 2.419797 1_565
Mg4 O4 2.185698 1_555
Mg4 O6 2.185698 1_555
Mg4 O11 2.229135 1_555
Mg4 O14 2.277642 1_556
Mg4 O14 2.277642 1_555
Mg4 O10 2.297843 1_555
Mg5 O5 2.185698 1_555
Mg5 O7 2.185698 1_555
Mg5 O11 2.229135 1_555
Mg5 O15 2.277642 1_556
Mg5 O15 2.277642 1_555
Mg5 O10 2.297843 1_565
Mg6 O10 2.049131 1_555
Mg6 O5 2.264363 1_545
Mg6 O4 2.264363 1_555
Mg6 O0 2.277334 1_556
Mg6 O0 2.277334 1_555
Mg6 O8 2.341709 1_555
Mg7 O11 2.132054 1_555
Mg7 O9 2.258786 1_555
Mg7 O5 2.267344 1_555
Mg7 O4 2.267344 1_555
Mg7 O1 2.287296 1_556
Mg7 O1 2.287296 1_555
Mg8 O10 2.049131 1_555
Mg8 O6 2.264363 1_555
Mg8 O7 2.264363 1_545
Mg8 O2 2.277334 1_556
Mg8 O2 2.277334 1_555
Mg8 O8 2.341709 1_655
Mg9 O11 2.132054 1_555
Mg9 O9 2.258786 1_655
Mg9 O6 2.267344 1_555
Mg9 O7 2.267344 1_555
Mg9 O3 2.287296 1_556
Mg9 O3 2.287296 1_555
Mg10 O14 2.087602 1_555
Mg10 O1 2.180903 1_555
Mg10 O4 2.280852 1_554
Mg10 O4 2.280852 1_555
Mg10 O12 2.312834 1_555
Mg10 O0 2.354488 1_555
Mg11 O15 2.087602 1_555
Mg11 O1 2.180903 1_555
Mg11 O5 2.280852 1_554
Mg11 O5 2.280852 1_555
Mg11 O13 2.312834 1_555
Mg11 O0 2.354488 1_565
Mg12 O14 2.087602 1_555
Mg12 O3 2.180903 1_555
Mg12 O6 2.280852 1_554
Mg12 O6 2.280852 1_555
Mg12 O12 2.312834 1_655
Mg12 O2 2.354488 1_555
Mg13 O15 2.087602 1_555
Mg13 O3 2.180903 1_555
Mg13 O7 2.280852 1_554
Mg13 O7 2.280852 1_555
Mg13 O13 2.312834 1_655
Mg13 O2 2.354488 1_565
O1 Rb0 2.478458 1_555
O3 Rb0 2.478458 1_655
O9 Rb0 2.276723 1_556
O9 Rb0 2.276723 1_555
O12 Rb0 2.342835 1_555
O13 Rb0 2.342835 1_555
