# generated using pymatgen
data_CaMg30NiO32
_symmetry_space_group_name_H-M   'P 1'
_cell_length_a   8.55692200
_cell_length_b   8.55692200
_cell_length_c   8.55776300
_cell_angle_alpha   90.00000000
_cell_angle_beta   90.00000000
_cell_angle_gamma   90.00000000
_symmetry_Int_Tables_number   1
_chemical_formula_structural   CaMg30NiO32
_chemical_formula_sum   'Ca1 Mg30 Ni1 O32'
_cell_volume   626.60722963
_cell_formula_units_Z   1
loop_
 _symmetry_equiv_pos_site_id
 _symmetry_equiv_pos_as_xyz
  1  'x, y, z'
loop_
 _atom_site_type_symbol
 _atom_site_label
 _atom_site_symmetry_multiplicity
 _atom_site_fract_x
 _atom_site_fract_y
 _atom_site_fract_z
 _atom_site_occupancy
  Ca  Ca0  1  0.00000000  0.00000000  0.00000000  1
  Mg  Mg0  1  0.00000000  0.50000000  0.00000000  1
  Mg  Mg1  1  0.50000000  0.00000000  0.00000000  1
  Mg  Mg2  1  0.00000000  0.00000000  0.50000000  1
  Mg  Mg3  1  0.00000000  0.50000000  0.50000000  1
  Mg  Mg4  1  0.50000000  0.00000000  0.50000000  1
  Mg  Mg5  1  0.50000000  0.50000000  0.50000000  1
  Mg  Mg6  1  0.25352200  0.25352200  0.00000000  1
  Mg  Mg7  1  0.25352200  0.74647800  0.00000000  1
  Mg  Mg8  1  0.74647800  0.25352200  0.00000000  1
  Mg  Mg9  1  0.74647800  0.74647800  0.00000000  1
  Mg  Mg10  1  0.25032000  0.25032000  0.50000000  1
  Mg  Mg11  1  0.25032000  0.74968000  0.50000000  1
  Mg  Mg12  1  0.74968000  0.25032000  0.50000000  1
  Mg  Mg13  1  0.74968000  0.74968000  0.50000000  1
  Mg  Mg14  1  0.00000000  0.25306600  0.25276000  1
  Mg  Mg15  1  0.00000000  0.74693400  0.25276000  1
  Mg  Mg16  1  0.50000000  0.25075100  0.24959400  1
  Mg  Mg17  1  0.50000000  0.74924900  0.24959400  1
  Mg  Mg18  1  0.00000000  0.25306600  0.74724000  1
  Mg  Mg19  1  0.00000000  0.74693400  0.74724000  1
  Mg  Mg20  1  0.50000000  0.25075100  0.75040600  1
  Mg  Mg21  1  0.50000000  0.74924900  0.75040600  1
  Mg  Mg22  1  0.25306600  0.00000000  0.25276000  1
  Mg  Mg23  1  0.25075100  0.50000000  0.24959400  1
  Mg  Mg24  1  0.74693400  0.00000000  0.25276000  1
  Mg  Mg25  1  0.74924900  0.50000000  0.24959400  1
  Mg  Mg26  1  0.25306600  0.00000000  0.74724000  1
  Mg  Mg27  1  0.25075100  0.50000000  0.75040600  1
  Mg  Mg28  1  0.74693400  0.00000000  0.74724000  1
  Mg  Mg29  1  0.74924900  0.50000000  0.75040600  1
  Ni  Ni0  1  0.50000000  0.50000000  0.00000000  1
  O  O0  1  0.00000000  0.00000000  0.26230500  1
  O  O1  1  0.00000000  0.50000000  0.25181700  1
  O  O2  1  0.50000000  0.00000000  0.25181700  1
  O  O3  1  0.50000000  0.50000000  0.25123200  1
  O  O4  1  0.00000000  0.00000000  0.73769500  1
  O  O5  1  0.00000000  0.50000000  0.74818300  1
  O  O6  1  0.50000000  0.00000000  0.74818300  1
  O  O7  1  0.50000000  0.50000000  0.74876800  1
  O  O8  1  0.25004700  0.25004700  0.24951100  1
  O  O9  1  0.25004700  0.74995300  0.24951100  1
  O  O10  1  0.74995300  0.25004700  0.24951100  1
  O  O11  1  0.74995300  0.74995300  0.24951100  1
  O  O12  1  0.25004700  0.25004700  0.75048900  1
  O  O13  1  0.25004700  0.74995300  0.75048900  1
  O  O14  1  0.74995300  0.25004700  0.75048900  1
  O  O15  1  0.74995300  0.74995300  0.75048900  1
  O  O16  1  0.00000000  0.26247000  0.00000000  1
  O  O17  1  0.00000000  0.73753000  0.00000000  1
  O  O18  1  0.50000000  0.25111100  0.00000000  1
  O  O19  1  0.50000000  0.74888900  0.00000000  1
  O  O20  1  0.00000000  0.25205900  0.50000000  1
  O  O21  1  0.00000000  0.74794100  0.50000000  1
  O  O22  1  0.50000000  0.25065200  0.50000000  1
  O  O23  1  0.50000000  0.74934800  0.50000000  1
  O  O24  1  0.26247000  0.00000000  0.00000000  1
  O  O25  1  0.25111100  0.50000000  0.00000000  1
  O  O26  1  0.73753000  0.00000000  0.00000000  1
  O  O27  1  0.74888900  0.50000000  0.00000000  1
  O  O28  1  0.25205900  0.00000000  0.50000000  1
  O  O29  1  0.25065200  0.50000000  0.50000000  1
  O  O30  1  0.74794100  0.00000000  0.50000000  1
  O  O31  1  0.74934800  0.50000000  0.50000000  1
loop_
_geom_bond_atom_site_label_1
_geom_bond_atom_site_label_2
_geom_bond_distance
_geom_bond_site_symmetry_2
Ca0 O0 2.244744 1_555
Ca0 O4 2.244744 1_554
Ca0 O26 2.245935 1_455
Ca0 O17 2.245935 1_545
Ca0 O24 2.245935 1_555
Ca0 O16 2.245935 1_555
Mg0 O16 2.032526 1_555
Mg0 O17 2.032526 1_555
Mg0 O25 2.148737 1_555
Mg0 O27 2.148737 1_455
Mg0 O1 2.154990 1_555
Mg0 O5 2.154990 1_554
Mg1 O24 2.032526 1_555
Mg1 O26 2.032526 1_555
Mg1 O18 2.148737 1_555
Mg1 O19 2.148737 1_545
Mg1 O2 2.154990 1_555
Mg1 O6 2.154990 1_554
Mg2 O0 2.034137 1_555
Mg2 O4 2.034137 1_555
Mg2 O20 2.156849 1_555
Mg2 O28 2.156849 1_555
Mg2 O30 2.156849 1_455
Mg2 O21 2.156849 1_545
Mg3 O21 2.121612 1_555
Mg3 O20 2.121612 1_555
Mg3 O5 2.123891 1_555
Mg3 O1 2.123891 1_555
Mg3 O29 2.144810 1_555
Mg3 O31 2.144810 1_455
Mg4 O30 2.121612 1_555
Mg4 O28 2.121612 1_555
Mg4 O6 2.123891 1_555
Mg4 O2 2.123891 1_555
Mg4 O23 2.144810 1_545
Mg4 O22 2.144810 1_555
Mg5 O7 2.128898 1_555
Mg5 O3 2.128898 1_555
Mg5 O31 2.133651 1_555
Mg5 O23 2.133651 1_555
Mg5 O22 2.133651 1_555
Mg5 O29 2.133651 1_555
Mg6 O18 2.109194 1_555
Mg6 O25 2.109194 1_555
Mg6 O8 2.135670 1_555
Mg6 O12 2.135670 1_554
Mg6 O24 2.170719 1_555
Mg6 O16 2.170719 1_555
Mg7 O25 2.109194 1_555
Mg7 O19 2.109194 1_555
Mg7 O9 2.135670 1_555
Mg7 O13 2.135670 1_554
Mg7 O17 2.170719 1_555
Mg7 O24 2.170719 1_565
Mg8 O18 2.109194 1_555
Mg8 O27 2.109194 1_555
Mg8 O10 2.135670 1_555
Mg8 O14 2.135670 1_554
Mg8 O26 2.170719 1_555
Mg8 O16 2.170719 1_655
Mg9 O19 2.109194 1_555
Mg9 O27 2.109194 1_555
Mg9 O11 2.135670 1_555
Mg9 O15 2.135670 1_554
Mg9 O26 2.170719 1_565
Mg9 O17 2.170719 1_655
Mg10 O22 2.136494 1_555
Mg10 O29 2.136494 1_555
Mg10 O28 2.142020 1_555
Mg10 O20 2.142020 1_555
Mg10 O12 2.143628 1_555
Mg10 O8 2.143628 1_555
Mg11 O23 2.136494 1_555
Mg11 O29 2.136494 1_555
Mg11 O28 2.142020 1_565
Mg11 O21 2.142020 1_555
Mg11 O13 2.143628 1_555
Mg11 O9 2.143628 1_555
Mg12 O31 2.136494 1_555
Mg12 O22 2.136494 1_555
Mg12 O20 2.142020 1_655
Mg12 O30 2.142020 1_555
Mg12 O14 2.143628 1_555
Mg12 O10 2.143628 1_555
Mg13 O31 2.136494 1_555
Mg13 O23 2.136494 1_555
Mg13 O30 2.142020 1_565
Mg13 O21 2.142020 1_655
Mg13 O15 2.143628 1_555
Mg13 O11 2.143628 1_555
Mg14 O1 2.113010 1_555
Mg14 O20 2.115839 1_555
Mg14 O8 2.139969 1_555
Mg14 O10 2.139969 1_455
Mg14 O16 2.164556 1_555
Mg14 O0 2.167006 1_555
Mg15 O1 2.113010 1_555
Mg15 O21 2.115839 1_555
Mg15 O9 2.139969 1_555
Mg15 O11 2.139969 1_455
Mg15 O17 2.164556 1_555
Mg15 O0 2.167006 1_565
Mg16 O3 2.132850 1_555
Mg16 O18 2.135969 1_555
Mg16 O10 2.138837 1_555
Mg16 O8 2.138837 1_555
Mg16 O22 2.142915 1_555
Mg16 O2 2.145741 1_555
Mg17 O3 2.132850 1_555
Mg17 O19 2.135969 1_555
Mg17 O11 2.138837 1_555
Mg17 O9 2.138837 1_555
Mg17 O23 2.142915 1_555
Mg17 O2 2.145741 1_565
Mg18 O5 2.113010 1_555
Mg18 O20 2.115839 1_555
Mg18 O12 2.139969 1_555
Mg18 O14 2.139969 1_455
Mg18 O16 2.164556 1_556
Mg18 O4 2.167006 1_555
Mg19 O5 2.113010 1_555
Mg19 O21 2.115839 1_555
Mg19 O13 2.139969 1_555
Mg19 O15 2.139969 1_455
Mg19 O17 2.164556 1_556
Mg19 O4 2.167006 1_565
Mg20 O7 2.132850 1_555
Mg20 O18 2.135969 1_556
Mg20 O14 2.138837 1_555
Mg20 O12 2.138837 1_555
Mg20 O22 2.142915 1_555
Mg20 O6 2.145741 1_555
Mg21 O7 2.132850 1_555
Mg21 O19 2.135969 1_556
Mg21 O15 2.138837 1_555
Mg21 O13 2.138837 1_555
Mg21 O23 2.142915 1_555
Mg21 O6 2.145741 1_565
Mg22 O2 2.113010 1_555
Mg22 O28 2.115839 1_555
Mg22 O8 2.139969 1_555
Mg22 O9 2.139969 1_545
Mg22 O24 2.164556 1_555
Mg22 O0 2.167006 1_555
Mg23 O3 2.132850 1_555
Mg23 O25 2.135969 1_555
Mg23 O9 2.138837 1_555
Mg23 O8 2.138837 1_555
Mg23 O29 2.142915 1_555
Mg23 O1 2.145741 1_555
Mg24 O2 2.113010 1_555
Mg24 O30 2.115839 1_555
Mg24 O10 2.139969 1_555
Mg24 O11 2.139969 1_545
Mg24 O26 2.164556 1_555
Mg24 O0 2.167006 1_655
Mg25 O3 2.132850 1_555
Mg25 O27 2.135969 1_555
Mg25 O11 2.138837 1_555
Mg25 O10 2.138837 1_555
Mg25 O31 2.142915 1_555
Mg25 O1 2.145741 1_655
Mg26 O6 2.113010 1_555
Mg26 O28 2.115839 1_555
Mg26 O12 2.139969 1_555
Mg26 O13 2.139969 1_545
Mg26 O24 2.164556 1_556
Mg26 O4 2.167006 1_555
Mg27 O7 2.132850 1_555
Mg27 O25 2.135969 1_556
Mg27 O13 2.138837 1_555
Mg27 O12 2.138837 1_555
Mg27 O29 2.142915 1_555
Mg27 O5 2.145741 1_555
Mg28 O6 2.113010 1_555
Mg28 O30 2.115839 1_555
Mg28 O14 2.139969 1_555
Mg28 O15 2.139969 1_545
Mg28 O26 2.164556 1_556
Mg28 O4 2.167006 1_655
Mg29 O7 2.132850 1_555
Mg29 O27 2.135969 1_556
Mg29 O15 2.138837 1_555
Mg29 O14 2.138837 1_555
Mg29 O31 2.142915 1_555
Mg29 O5 2.145741 1_655
Ni0 O19 2.129724 1_555
Ni0 O27 2.129724 1_555
Ni0 O25 2.129724 1_555
Ni0 O18 2.129724 1_555
Ni0 O7 2.149984 1_554
Ni0 O3 2.149984 1_555
