# generated using pymatgen
data_MgZn2O3
_symmetry_space_group_name_H-M   'P 1'
_cell_length_a   3.05259901
_cell_length_b   3.05259901
_cell_length_c   7.45204300
_cell_angle_alpha   90.00000000
_cell_angle_beta   90.00000000
_cell_angle_gamma   119.99997846
_symmetry_Int_Tables_number   1
_chemical_formula_structural   MgZn2O3
_chemical_formula_sum   'Mg1 Zn2 O3'
_cell_volume   60.13753119
_cell_formula_units_Z   1
loop_
 _symmetry_equiv_pos_site_id
 _symmetry_equiv_pos_as_xyz
  1  'x, y, z'
loop_
 _atom_site_type_symbol
 _atom_site_label
 _atom_site_symmetry_multiplicity
 _atom_site_fract_x
 _atom_site_fract_y
 _atom_site_fract_z
 _atom_site_occupancy
  Mg  Mg0  1  0.00000000  0.00000000  0.00000000  1
  Zn  Zn0  1  0.33333300  0.66666700  0.66841600  1
  Zn  Zn1  1  0.66666700  0.33333300  0.33158400  1
  O  O0  1  0.33333300  0.66666700  0.16070000  1
  O  O1  1  0.66666700  0.33333300  0.83930000  1
  O  O2  1  0.00000000  0.00000000  0.50000000  1
loop_
_geom_bond_atom_site_label_1
_geom_bond_atom_site_label_2
_geom_bond_distance
_geom_bond_site_symmetry_2
Mg0 O0 2.130780 1_545
Mg0 O1 2.130780 1_454
Mg0 O0 2.130783 1_555
Mg0 O1 2.130783 1_554
Mg0 O0 2.130783 1_445
Mg0 O1 2.130783 1_444
O0 Zn1 2.174339 1_565
O0 Zn1 2.174339 1_455
O0 Zn1 2.174343 1_555
O1 Zn0 2.174339 1_655
O1 Zn0 2.174339 1_545
O1 Zn0 2.174343 1_555
O2 Zn0 2.163619 1_545
O2 Zn1 2.163619 1_455
O2 Zn1 2.163622 1_555
O2 Zn0 2.163622 1_445
O2 Zn0 2.163622 1_555
O2 Zn1 2.163622 1_445
