# generated using pymatgen
data_TaSbO4
_symmetry_space_group_name_H-M   'P 1'
_cell_length_a   11.02573200
_cell_length_b   6.96822200
_cell_length_c   6.09381300
_cell_angle_alpha   90.00000000
_cell_angle_beta   90.00000000
_cell_angle_gamma   90.00000000
_symmetry_Int_Tables_number   1
_chemical_formula_structural   TaSbO4
_chemical_formula_sum   'Ta4 Sb4 O16'
_cell_volume   468.18611891
_cell_formula_units_Z   4
loop_
 _symmetry_equiv_pos_site_id
 _symmetry_equiv_pos_as_xyz
  1  'x, y, z'
loop_
 _atom_site_type_symbol
 _atom_site_label
 _atom_site_symmetry_multiplicity
 _atom_site_fract_x
 _atom_site_fract_y
 _atom_site_fract_z
 _atom_site_occupancy
  Ta  Ta0  1  0.00000000  0.49983500  0.25000000  1
  Ta  Ta1  1  0.00000000  0.50016500  0.75000000  1
  Ta  Ta2  1  0.50000000  0.99983500  0.75000000  1
  Ta  Ta3  1  0.50000000  0.00016500  0.25000000  1
  Sb  Sb0  1  0.00421300  0.00000000  0.00000000  1
  Sb  Sb1  1  0.99578700  0.00000000  0.50000000  1
  Sb  Sb2  1  0.49578700  0.50000000  0.50000000  1
  Sb  Sb3  1  0.50421300  0.50000000  0.00000000  1
  O  O0  1  0.49228300  0.18526500  0.50047000  1
  O  O1  1  0.50771700  0.81473500  0.00047000  1
  O  O2  1  0.00771700  0.68526500  0.00047000  1
  O  O3  1  0.99228300  0.31473500  0.50047000  1
  O  O4  1  0.38152000  0.49950600  0.24394600  1
  O  O5  1  0.61848000  0.50049400  0.74394600  1
  O  O6  1  0.11848000  0.99950600  0.74394600  1
  O  O7  1  0.88152000  0.00049400  0.24394600  1
  O  O8  1  0.00771700  0.31473500  0.99953000  1
  O  O9  1  0.99228300  0.68526500  0.49953000  1
  O  O10  1  0.49228300  0.81473500  0.49953000  1
  O  O11  1  0.50771700  0.18526500  0.99953000  1
  O  O12  1  0.11848000  0.00049400  0.25605400  1
  O  O13  1  0.88152000  0.99950600  0.75605400  1
  O  O14  1  0.38152000  0.50049400  0.75605400  1
  O  O15  1  0.61848000  0.49950600  0.25605400  1
loop_
_geom_bond_atom_site_label_1
_geom_bond_atom_site_label_2
_geom_bond_distance
_geom_bond_site_symmetry_2
O0 Ta2 1.997248 1_545
O0 Ta3 2.000129 1_555
O0 Sb2 2.193485 1_555
O1 Ta3 1.997248 1_565
O1 Ta2 2.000129 1_554
O1 Sb3 2.193485 1_555
O2 Ta0 1.997248 1_555
O2 Ta1 2.000129 1_554
O2 Sb0 2.193485 1_565
O3 Ta1 1.997248 1_655
O3 Ta0 2.000129 1_655
O3 Sb1 2.193485 1_555
O4 Sb2 2.005487 1_555
O4 Sb3 2.009948 1_555
O5 Sb3 2.005487 1_556
O5 Sb2 2.009948 1_555
O6 Sb0 2.005487 1_566
O6 Sb1 2.009948 1_465
O7 Sb1 2.005487 1_555
O7 Sb0 2.009948 1_655
O8 Ta1 1.997248 1_555
O8 Ta0 2.000129 1_556
O8 Sb0 2.193485 1_556
O9 Ta0 1.997248 1_655
O9 Ta1 2.000129 1_655
O9 Sb1 2.193485 1_565
O10 Ta3 1.997248 1_565
O10 Ta2 2.000129 1_555
O10 Sb2 2.193485 1_555
O11 Ta2 1.997248 1_545
O11 Ta3 2.000129 1_556
O11 Sb3 2.193485 1_556
O12 Sb0 2.005487 1_555
O12 Sb1 2.009948 1_455
O13 Sb1 2.005487 1_565
O13 Sb0 2.009948 1_666
O14 Sb2 2.005487 1_555
O14 Sb3 2.009948 1_556
O15 Sb3 2.005487 1_555
O15 Sb2 2.009948 1_555
