# generated using pymatgen
data_CeSi2RuRh
_symmetry_space_group_name_H-M   'P 1'
_cell_length_a   5.78677085
_cell_length_b   5.78677085
_cell_length_c   5.78677085
_cell_angle_alpha   137.80182616
_cell_angle_beta   137.80182616
_cell_angle_gamma   61.20664688
_symmetry_Int_Tables_number   1
_chemical_formula_structural   CeSi2RuRh
_chemical_formula_sum   'Ce1 Si2 Ru1 Rh1'
_cell_volume   86.45465536
_cell_formula_units_Z   1
loop_
 _symmetry_equiv_pos_site_id
 _symmetry_equiv_pos_as_xyz
  1  'x, y, z'
loop_
 _atom_site_type_symbol
 _atom_site_label
 _atom_site_symmetry_multiplicity
 _atom_site_fract_x
 _atom_site_fract_y
 _atom_site_fract_z
 _atom_site_occupancy
  Ce  Ce0  1  0.00000000  0.00000000  0.00000000  1
  Si  Si0  1  0.62768400  0.62768400  0.00000000  1
  Si  Si1  1  0.37231600  0.37231600  0.00000000  1
  Ru  Ru0  1  0.75000000  0.25000000  0.50000000  1
  Rh  Rh0  1  0.25000000  0.75000000  0.50000000  1
loop_
_geom_bond_atom_site_label_1
_geom_bond_atom_site_label_2
_geom_bond_distance
_geom_bond_site_symmetry_2
Ce0 Si1 3.208843 1_545
Ce0 Si1 3.208843 1_556
Ce0 Si1 3.208843 1_455
Ce0 Si0 3.208843 1_455
Ce0 Si0 3.208843 1_545
Ce0 Si0 3.208843 1_444
Ce0 Si0 3.208843 1_556
Ce0 Si1 3.208843 1_444
Ce0 Rh0 3.246752 1_545
Ce0 Ru0 3.246752 1_455
Ce0 Ru0 3.246752 1_444
Ce0 Ru0 3.246752 1_454
Ce0 Rh0 3.246752 1_544
Ce0 Rh0 3.246752 1_444
Ce0 Rh0 3.246752 1_555
Ce0 Ru0 3.246752 1_555
Si0 Si1 2.543846 1_555
Ru0 Si0 2.413310 1_545
Ru0 Si0 2.413310 1_556
Ru0 Si1 2.413310 1_555
Ru0 Si1 2.413310 1_656
Rh0 Si0 2.413310 1_455
Rh0 Si0 2.413310 1_556
Rh0 Si1 2.413310 1_555
Rh0 Si1 2.413310 1_566
Rh0 Ru0 2.945995 1_454
Rh0 Ru0 2.945995 1_566
Rh0 Ru0 2.945995 1_465
Rh0 Ru0 2.945995 1_555
