# generated using pymatgen
data_Ca4Mn3CrO10
_symmetry_space_group_name_H-M   'P 1'
_cell_length_a   5.55091567
_cell_length_b   10.96805184
_cell_length_c   15.39075916
_cell_angle_alpha   90.45897833
_cell_angle_beta   89.89374977
_cell_angle_gamma   91.59991704
_symmetry_Int_Tables_number   1
_chemical_formula_structural   Ca4Mn3CrO10
_chemical_formula_sum   'Ca16 Mn12 Cr4 O40'
_cell_volume   936.63485145
_cell_formula_units_Z   4
loop_
 _symmetry_equiv_pos_site_id
 _symmetry_equiv_pos_as_xyz
  1  'x, y, z'
loop_
 _atom_site_type_symbol
 _atom_site_label
 _atom_site_symmetry_multiplicity
 _atom_site_fract_x
 _atom_site_fract_y
 _atom_site_fract_z
 _atom_site_occupancy
  Ca  Ca0  1  0.01198000  0.00333800  0.11031100  1
  Ca  Ca1  1  0.00972400  0.00996400  0.61226800  1
  Ca  Ca2  1  0.97477700  0.54571200  0.12785200  1
  Ca  Ca3  1  0.96396400  0.54192700  0.62970200  1
  Ca  Ca4  1  0.98683400  0.51505200  0.37391100  1
  Ca  Ca5  1  0.98067600  0.51846400  0.87401900  1
  Ca  Ca6  1  0.00842600  0.95854900  0.38572200  1
  Ca  Ca7  1  0.00203000  0.95855300  0.88170500  1
  Ca  Ca8  1  0.53709400  0.22887700  0.39454900  1
  Ca  Ca9  1  0.54688200  0.22843700  0.89178700  1
  Ca  Ca10  1  0.50092600  0.74547800  0.37578100  1
  Ca  Ca11  1  0.50605400  0.74933900  0.87276300  1
  Ca  Ca12  1  0.48796800  0.22420100  0.11980600  1
  Ca  Ca13  1  0.49597300  0.22835100  0.62012900  1
  Ca  Ca14  1  0.51038100  0.78143600  0.11935100  1
  Ca  Ca15  1  0.50720000  0.78290400  0.62477200  1
  Mn  Mn0  1  0.50657700  0.99301900  0.49679100  1
  Mn  Mn1  1  0.47890600  0.50382400  0.99137100  1
  Mn  Mn2  1  0.47319100  0.50478400  0.49267300  1
  Mn  Mn3  1  0.04276300  0.24699800  0.50100400  1
  Mn  Mn4  1  0.99978100  0.74616200  0.00161700  1
  Mn  Mn5  1  0.99150900  0.74409000  0.50346100  1
  Mn  Mn6  1  0.92836200  0.27482900  0.74491000  1
  Mn  Mn7  1  0.00446900  0.75634500  0.24859900  1
  Mn  Mn8  1  0.00441600  0.75705000  0.74651500  1
  Mn  Mn9  1  0.51902500  0.99609000  0.75277100  1
  Mn  Mn10  1  0.51082500  0.50885300  0.24918400  1
  Mn  Mn11  1  0.50029600  0.51145700  0.74775600  1
  Cr  Cr0  1  0.50649900  0.99659700  0.99798100  1
  Cr  Cr1  1  0.04278000  0.24088600  0.99945100  1
  Cr  Cr2  1  0.90871100  0.27088100  0.24183700  1
  Cr  Cr3  1  0.53164500  0.99063300  0.25321700  1
  O  O0  1  0.19267900  0.58367800  0.25570500  1
  O  O1  1  0.18708400  0.58740000  0.75619000  1
  O  O2  1  0.72164200  0.39359200  0.18281600  1
  O  O3  1  0.69987700  0.39951400  0.68380900  1
  O  O4  1  0.83166300  0.91569900  0.23261300  1
  O  O5  1  0.83349900  0.90553900  0.73223900  1
  O  O6  1  0.63049500  0.16734500  0.25307800  1
  O  O7  1  0.63304200  0.16115000  0.75024600  1
  O  O8  1  0.71172100  0.66037400  0.22656300  1
  O  O9  1  0.71113700  0.65891800  0.72718700  1
  O  O10  1  0.29339100  0.85891200  0.27799400  1
  O  O11  1  0.29851600  0.85588200  0.77290200  1
  O  O12  1  0.33750400  0.34793800  0.50464700  1
  O  O13  1  0.33973100  0.34708200  0.01052000  1
  O  O14  1  0.27684300  0.84613500  0.48145400  1
  O  O15  1  0.28456200  0.84784800  0.97851500  1
  O  O16  1  0.73249000  0.14892000  0.01307600  1
  O  O17  1  0.74675600  0.15868800  0.51172300  1
  O  O18  1  0.70545900  0.63162000  0.02584200  1
  O  O19  1  0.68848900  0.63068300  0.52941200  1
  O  O20  1  0.78929100  0.88571400  0.01594100  1
  O  O21  1  0.78480300  0.88739400  0.51914400  1
  O  O22  1  0.24143100  0.09802800  0.47231700  1
  O  O23  1  0.22310500  0.10057600  0.97197500  1
  O  O24  1  0.17077800  0.59034200  0.49546800  1
  O  O25  1  0.17979000  0.59528200  0.99400100  1
  O  O26  1  0.60149300  0.00186900  0.37775900  1
  O  O27  1  0.59101500  0.00118600  0.87428300  1
  O  O28  1  0.57967200  0.47584400  0.37565000  1
  O  O29  1  0.56520400  0.47862700  0.87214700  1
  O  O30  1  0.43191400  0.00048300  0.12822100  1
  O  O31  1  0.43214800  0.00149100  0.62719200  1
  O  O32  1  0.07305700  0.22275300  0.13784100  1
  O  O33  1  0.08366600  0.22846500  0.63160300  1
  O  O34  1  0.08597700  0.75273300  0.12361400  1
  O  O35  1  0.08554000  0.74826200  0.62565100  1
  O  O36  1  0.99059300  0.29233300  0.36475900  1
  O  O37  1  0.97150600  0.29926900  0.87872300  1
  O  O38  1  0.92226600  0.73858000  0.37888000  1
  O  O39  1  0.92699000  0.74124700  0.87446400  1
loop_
_geom_bond_atom_site_label_1
_geom_bond_atom_site_label_2
_geom_bond_distance
_geom_bond_site_symmetry_2
Ca0 O20 2.278051 1_445
Ca0 O4 2.331784 1_445
Ca0 O30 2.348873 1_555
Ca0 O32 2.454509 1_555
Ca0 O23 2.645990 1_554
Ca0 O16 2.716861 1_455
Ca0 O34 2.799657 1_545
Ca1 O21 2.302679 1_445
Ca1 O31 2.360970 1_555
Ca1 O5 2.375431 1_445
Ca1 O33 2.436078 1_555
Ca1 O22 2.679630 1_555
Ca1 O17 2.714414 1_455
Ca1 O35 2.921602 1_545
Ca2 O2 2.315395 1_555
Ca2 O34 2.337719 1_655
Ca2 O0 2.340098 1_655
Ca2 O18 2.387202 1_555
Ca2 O25 2.410237 1_654
Ca2 O8 2.466897 1_555
Ca3 O3 2.273912 1_555
Ca3 O35 2.344724 1_655
Ca3 O1 2.351893 1_655
Ca3 O19 2.405076 1_555
Ca3 O24 2.417197 1_655
Ca3 O9 2.434976 1_555
Ca4 O0 2.268949 1_655
Ca4 O24 2.271525 1_655
Ca4 O28 2.288992 1_555
Ca4 O36 2.446393 1_555
Ca4 O38 2.488160 1_555
Ca5 O1 2.266940 1_655
Ca5 O25 2.296109 1_655
Ca5 O29 2.335446 1_555
Ca5 O37 2.404927 1_555
Ca5 O39 2.469800 1_555
Ca6 O26 2.324881 1_465
Ca6 O22 2.377537 1_565
Ca6 O38 2.447918 1_455
Ca6 O14 2.459854 1_555
Ca6 O21 2.515706 1_455
Ca6 O10 2.550136 1_555
Ca6 O4 2.588751 1_455
Ca7 O27 2.344863 1_465
Ca7 O23 2.393230 1_565
Ca7 O39 2.409795 1_455
Ca7 O20 2.503159 1_456
Ca7 O15 2.509572 1_555
Ca7 O5 2.541900 1_455
Ca7 O11 2.616079 1_555
Ca8 O17 2.297697 1_555
Ca8 O6 2.336005 1_555
Ca8 O12 2.417111 1_555
Ca8 O22 2.464654 1_555
Ca8 O26 2.536315 1_555
Ca8 O36 2.633360 1_555
Ca8 O28 2.730274 1_555
Ca8 O36 3.166291 1_455
Ca9 O16 2.321685 1_556
Ca9 O7 2.347128 1_555
Ca9 O37 2.469447 1_555
Ca9 O27 2.523538 1_555
Ca9 O13 2.528366 1_556
Ca9 O23 2.568798 1_555
Ca9 O29 2.762132 1_555
Ca10 O10 2.292722 1_555
Ca10 O14 2.334865 1_555
Ca10 O38 2.342743 1_555
Ca10 O8 2.744336 1_555
Ca10 O26 2.851587 1_565
Ca10 O19 2.896574 1_555
Ca10 O28 3.001522 1_555
Ca10 O0 3.046633 1_555
Ca10 O24 3.083918 1_555
Ca11 O11 2.272753 1_555
Ca11 O15 2.316610 1_555
Ca11 O39 2.340943 1_555
Ca11 O9 2.705077 1_555
Ca11 O27 2.789152 1_565
Ca11 O18 2.929369 1_556
Ca11 O29 2.996318 1_555
Ca11 O1 3.048565 1_555
Ca11 O25 3.079595 1_555
Ca12 O16 2.292374 1_555
Ca12 O6 2.296979 1_555
Ca12 O32 2.318920 1_555
Ca12 O13 2.329386 1_555
Ca12 O2 2.432267 1_555
Ca12 O30 2.469168 1_555
Ca13 O7 2.278857 1_555
Ca13 O33 2.295192 1_555
Ca13 O17 2.309926 1_555
Ca13 O3 2.371073 1_555
Ca13 O12 2.400154 1_555
Ca13 O31 2.506691 1_555
Ca14 O34 2.368902 1_555
Ca14 O8 2.420686 1_555
Ca14 O18 2.449403 1_555
Ca14 O30 2.456300 1_565
Ca14 O20 2.481785 1_555
Ca14 O15 2.624229 1_554
Ca14 O10 2.854381 1_555
Ca14 O4 2.865583 1_555
Ca15 O35 2.360775 1_555
Ca15 O9 2.396302 1_555
Ca15 O31 2.444814 1_565
Ca15 O19 2.450154 1_555
Ca15 O21 2.500558 1_555
Ca15 O14 2.658185 1_555
Ca15 O11 2.681963 1_555
Ca15 O5 2.768574 1_555
Mn0 O26 1.907780 1_565
Mn0 O22 1.933460 1_565
Mn0 O21 1.988453 1_555
Mn0 O14 2.039035 1_555
Mn0 O31 2.050204 1_565
Mn0 O17 2.234093 1_565
Mn1 O13 1.890051 1_556
Mn1 O29 1.915435 1_555
Mn1 O18 1.928674 1_556
Mn1 O25 1.963875 1_555
Mn2 O12 1.868925 1_555
Mn2 O19 1.884842 1_555
Mn2 O28 1.921287 1_555
Mn2 O24 1.946133 1_555
Mn3 O17 1.891527 1_455
Mn3 O12 1.950337 1_555
Mn3 O33 2.035647 1_555
Mn3 O22 2.041567 1_555
Mn3 O36 2.180631 1_455
Mn4 O34 1.938774 1_655
Mn4 O15 1.942947 1_654
Mn4 O25 1.959470 1_654
Mn4 O20 1.962159 1_555
Mn4 O39 1.998992 1_554
Mn4 O18 2.068115 1_555
Mn5 O14 1.944513 1_655
Mn5 O35 1.952462 1_655
Mn5 O38 1.956368 1_555
Mn5 O21 1.984654 1_555
Mn5 O24 1.984681 1_655
Mn5 O19 2.103471 1_555
Mn6 O33 2.011863 1_655
Mn6 O7 2.033629 1_555
Mn6 O37 2.088081 1_555
Mn6 O3 2.117782 1_555
Mn7 O8 1.940237 1_455
Mn7 O34 1.975631 1_555
Mn7 O10 1.983965 1_555
Mn7 O4 2.033927 1_455
Mn7 O38 2.065090 1_455
Mn7 O0 2.191853 1_555
Mn8 O35 1.915416 1_555
Mn8 O5 1.921883 1_455
Mn8 O9 1.948345 1_455
Mn8 O11 1.975272 1_555
Mn8 O39 2.022573 1_455
Mn8 O1 2.150114 1_555
Mn9 O7 1.901743 1_565
Mn9 O27 1.913157 1_565
Mn9 O11 1.964742 1_555
Mn9 O31 1.994619 1_565
Mn9 O5 2.055033 1_555
Mn10 O0 1.970104 1_555
Mn10 O8 2.007737 1_555
Mn10 O2 2.017043 1_555
Mn10 O28 2.021733 1_555
Mn11 O3 1.938045 1_555
Mn11 O1 1.952364 1_555
Mn11 O29 1.986334 1_555
Mn11 O9 1.996733 1_555
Cr0 O27 1.960614 1_565
Cr0 O23 2.011288 1_565
Cr0 O20 2.033029 1_556
Cr0 O15 2.037283 1_555
Cr0 O30 2.046400 1_566
Cr0 O16 2.072839 1_566
Cr1 O23 1.903440 1_555
Cr1 O16 1.983204 1_456
Cr1 O13 1.998351 1_556
Cr1 O37 2.013710 1_455
Cr1 O32 2.148109 1_556
Cr2 O6 1.899670 1_555
Cr2 O32 1.918508 1_655
Cr2 O2 1.953461 1_555
Cr2 O36 1.957340 1_555
Cr3 O4 1.902581 1_555
Cr3 O26 1.958552 1_565
Cr3 O10 1.970275 1_555
Cr3 O6 1.999582 1_565
Cr3 O30 2.007412 1_565
O26 O6 2.653414 1_555
O27 O7 2.608869 1_555
