# generated using pymatgen
data_AgP(NO)2
_symmetry_space_group_name_H-M   'P 1'
_cell_length_a   5.80747399
_cell_length_b   5.80747399
_cell_length_c   12.10403800
_cell_angle_alpha   90.00000000
_cell_angle_beta   90.00000000
_cell_angle_gamma   119.99999984
_symmetry_Int_Tables_number   1
_chemical_formula_structural   AgP(NO)2
_chemical_formula_sum   'Ag3 P3 N6 O6'
_cell_volume   353.53747603
_cell_formula_units_Z   3
loop_
 _symmetry_equiv_pos_site_id
 _symmetry_equiv_pos_as_xyz
  1  'x, y, z'
loop_
 _atom_site_type_symbol
 _atom_site_label
 _atom_site_symmetry_multiplicity
 _atom_site_fract_x
 _atom_site_fract_y
 _atom_site_fract_z
 _atom_site_occupancy
  Ag  Ag0  1  0.89388100  0.89388100  0.00000000  1
  Ag  Ag1  1  0.00000000  0.10611900  0.66666700  1
  Ag  Ag2  1  0.10611900  0.00000000  0.33333300  1
  P  P0  1  0.42230000  0.00000000  0.83333300  1
  P  P1  1  0.57770000  0.57770000  0.50000000  1
  P  P2  1  0.00000000  0.42230000  0.16666700  1
  N  N0  1  0.75220300  0.11205700  0.80500200  1
  N  N1  1  0.35985300  0.24779700  0.47166900  1
  N  N2  1  0.88794300  0.64014700  0.13833600  1
  N  N3  1  0.24779700  0.35985300  0.52833100  1
  N  N4  1  0.11205700  0.75220300  0.19499800  1
  N  N5  1  0.64014700  0.88794300  0.86166400  1
  O  O0  1  0.74835800  0.64557800  0.60076900  1
  O  O1  1  0.89722000  0.25164200  0.26743500  1
  O  O2  1  0.35442200  0.10278000  0.93410200  1
  O  O3  1  0.25164200  0.89722000  0.73256500  1
  O  O4  1  0.64557800  0.74835800  0.39923100  1
  O  O5  1  0.10278000  0.35442200  0.06589800  1
loop_
_geom_bond_atom_site_label_1
_geom_bond_atom_site_label_2
_geom_bond_distance
_geom_bond_site_symmetry_2
Ag0 N2 2.219331 1_555
Ag0 N5 2.219331 1_554
Ag0 O5 2.452887 1_665
Ag0 O2 2.452887 1_664
Ag1 N0 2.219326 1_455
Ag1 N3 2.219333 1_555
Ag1 O3 2.452887 1_545
Ag1 O0 2.452887 1_445
Ag2 N4 2.219326 1_545
Ag2 N1 2.219333 1_555
Ag2 O1 2.452887 1_455
Ag2 O4 2.452887 1_445
N0 N5 1.319421 1_545
N0 P0 1.721909 1_555
N1 N3 1.319413 1_555
N1 P1 1.721910 1_555
N2 N4 1.319421 1_655
N2 P2 1.721914 1_655
N3 P1 1.721910 1_555
N4 P2 1.721909 1_555
N5 P0 1.721914 1_565
O0 P1 1.494880 1_555
O1 P2 1.494870 1_655
O2 P0 1.494880 1_555
O3 P0 1.494870 1_565
O4 P1 1.494880 1_555
O5 P2 1.494880 1_555
