# generated using pymatgen
data_Sr4BrN2Cl
_symmetry_space_group_name_H-M   'P 1'
_cell_length_a   29.42889807
_cell_length_b   29.42889807
_cell_length_c   29.42889757
_cell_angle_alpha   15.37037125
_cell_angle_beta   15.37037125
_cell_angle_gamma   15.37037460
_symmetry_Int_Tables_number   1
_chemical_formula_structural   Sr4BrN2Cl
_chemical_formula_sum   'Sr32 Br8 N16 Cl8'
_cell_volume   1560.01749287
_cell_formula_units_Z   8
loop_
 _symmetry_equiv_pos_site_id
 _symmetry_equiv_pos_as_xyz
  1  'x, y, z'
loop_
 _atom_site_type_symbol
 _atom_site_label
 _atom_site_symmetry_multiplicity
 _atom_site_fract_x
 _atom_site_fract_y
 _atom_site_fract_z
 _atom_site_occupancy
  Sr  Sr0_0  1  0.19203000  0.19203000  0.19203000  1
  Sr  Sr0_1  1  0.19203000  0.19203000  0.69203000  1
  Sr  Sr0_2  1  0.19203000  0.69203000  0.19203000  1
  Sr  Sr0_3  1  0.19203000  0.69203000  0.69203000  1
  Sr  Sr0_4  1  0.69203000  0.19203000  0.19203000  1
  Sr  Sr0_5  1  0.69203000  0.19203000  0.69203000  1
  Sr  Sr0_6  1  0.69203000  0.69203000  0.19203000  1
  Sr  Sr0_7  1  0.69203000  0.69203000  0.69203000  1
  Sr  Sr1_0  1  0.44375050  0.44375050  0.44375050  1
  Sr  Sr1_1  1  0.44375050  0.44375050  0.94375050  1
  Sr  Sr1_2  1  0.44375050  0.94375050  0.44375050  1
  Sr  Sr1_3  1  0.44375050  0.94375050  0.94375050  1
  Sr  Sr1_4  1  0.94375050  0.44375050  0.44375050  1
  Sr  Sr1_5  1  0.94375050  0.44375050  0.94375050  1
  Sr  Sr1_6  1  0.94375050  0.94375050  0.44375050  1
  Sr  Sr1_7  1  0.94375050  0.94375050  0.94375050  1
  Sr  Sr2_0  1  0.05624950  0.05624950  0.05624950  1
  Sr  Sr2_1  1  0.05624950  0.05624950  0.55624950  1
  Sr  Sr2_2  1  0.05624950  0.55624950  0.05624950  1
  Sr  Sr2_3  1  0.05624950  0.55624950  0.55624950  1
  Sr  Sr2_4  1  0.55624950  0.05624950  0.05624950  1
  Sr  Sr2_5  1  0.55624950  0.05624950  0.55624950  1
  Sr  Sr2_6  1  0.55624950  0.55624950  0.05624950  1
  Sr  Sr2_7  1  0.55624950  0.55624950  0.55624950  1
  Sr  Sr3_0  1  0.30797000  0.30797000  0.30797000  1
  Sr  Sr3_1  1  0.30797000  0.30797000  0.80797000  1
  Sr  Sr3_2  1  0.30797000  0.80797000  0.30797000  1
  Sr  Sr3_3  1  0.30797000  0.80797000  0.80797000  1
  Sr  Sr3_4  1  0.80797000  0.30797000  0.30797000  1
  Sr  Sr3_5  1  0.80797000  0.30797000  0.80797000  1
  Sr  Sr3_6  1  0.80797000  0.80797000  0.30797000  1
  Sr  Sr3_7  1  0.80797000  0.80797000  0.80797000  1
  Br  Br0_0  1  0.25000000  0.25000000  0.25000000  1
  Br  Br0_1  1  0.25000000  0.25000000  0.75000000  1
  Br  Br0_2  1  0.25000000  0.75000000  0.25000000  1
  Br  Br0_3  1  0.25000000  0.75000000  0.75000000  1
  Br  Br0_4  1  0.75000000  0.25000000  0.25000000  1
  Br  Br0_5  1  0.75000000  0.25000000  0.75000000  1
  Br  Br0_6  1  0.75000000  0.75000000  0.25000000  1
  Br  Br0_7  1  0.75000000  0.75000000  0.75000000  1
  N  N0_0  1  0.37415350  0.37415350  0.37415350  1
  N  N0_1  1  0.37415350  0.37415350  0.87415350  1
  N  N0_2  1  0.37415350  0.87415350  0.37415350  1
  N  N0_3  1  0.37415350  0.87415350  0.87415350  1
  N  N0_4  1  0.87415350  0.37415350  0.37415350  1
  N  N0_5  1  0.87415350  0.37415350  0.87415350  1
  N  N0_6  1  0.87415350  0.87415350  0.37415350  1
  N  N0_7  1  0.87415350  0.87415350  0.87415350  1
  N  N1_0  1  0.12584650  0.12584650  0.12584650  1
  N  N1_1  1  0.12584650  0.12584650  0.62584650  1
  N  N1_2  1  0.12584650  0.62584650  0.12584650  1
  N  N1_3  1  0.12584650  0.62584650  0.62584650  1
  N  N1_4  1  0.62584650  0.12584650  0.12584650  1
  N  N1_5  1  0.62584650  0.12584650  0.62584650  1
  N  N1_6  1  0.62584650  0.62584650  0.12584650  1
  N  N1_7  1  0.62584650  0.62584650  0.62584650  1
  Cl  Cl0_0  1  0.00000000  0.00000000  0.00000000  1
  Cl  Cl0_1  1  0.00000000  0.00000000  0.50000000  1
  Cl  Cl0_2  1  0.00000000  0.50000000  0.00000000  1
  Cl  Cl0_3  1  0.00000000  0.50000000  0.50000000  1
  Cl  Cl0_4  1  0.50000000  0.00000000  0.00000000  1
  Cl  Cl0_5  1  0.50000000  0.00000000  0.50000000  1
  Cl  Cl0_6  1  0.50000000  0.50000000  0.00000000  1
  Cl  Cl0_7  1  0.50000000  0.50000000  0.50000000  1
loop_
_geom_bond_atom_site_label_1
_geom_bond_atom_site_label_2
_geom_bond_distance
_geom_bond_site_symmetry_2
Br0_0 Sr2_1 3.277806 1_555
Br0_0 Sr1_1 3.277806 1_554
Br0_0 Sr2_4 3.277806 1_555
Br0_0 Sr2_2 3.277806 1_555
Br0_0 Sr1_4 3.277806 1_455
Br0_0 Sr1_2 3.277806 1_545
Br0_0 Br0_3 3.935525 1_554
Br0_0 Br0_5 3.935525 1_554
Br0_0 Br0_5 3.935525 1_455
Br0_0 Br0_3 3.935525 1_545
Br0_0 Br0_6 3.935526 1_455
Br0_0 Br0_6 3.935526 1_545
Br0_1 Sr2_0 3.277806 1_556
Br0_1 Sr1_0 3.277806 1_555
Br0_1 Sr2_3 3.277806 1_555
Br0_1 Sr2_5 3.277806 1_555
Br0_1 Sr1_5 3.277806 1_455
Br0_1 Sr1_3 3.277806 1_545
Br0_1 Br0_4 3.935525 1_456
Br0_1 Br0_2 3.935525 1_546
Br0_1 Br0_4 3.935525 1_555
Br0_1 Br0_2 3.935525 1_555
Br0_1 Br0_7 3.935526 1_455
Br0_1 Br0_7 3.935526 1_545
Br0_2 Sr2_3 3.277806 1_555
Br0_2 Sr1_3 3.277806 1_554
Br0_2 Sr2_0 3.277806 1_565
Br0_2 Sr2_6 3.277806 1_555
Br0_2 Sr1_0 3.277806 1_555
Br0_2 Sr1_6 3.277806 1_455
Br0_2 Br0_7 3.935525 1_554
Br0_2 Br0_7 3.935525 1_455
Br0_2 Br0_4 3.935526 1_555
Br0_2 Br0_4 3.935526 1_465
Br0_3 Sr2_2 3.277806 1_556
Br0_3 Sr1_2 3.277806 1_555
Br0_3 Sr2_1 3.277806 1_565
Br0_3 Sr2_7 3.277806 1_555
Br0_3 Sr1_7 3.277806 1_455
Br0_3 Sr1_1 3.277806 1_555
Br0_3 Br0_6 3.935525 1_456
Br0_3 Br0_6 3.935525 1_555
Br0_3 Br0_5 3.935526 1_555
Br0_3 Br0_5 3.935526 1_465
Br0_4 Sr2_5 3.277806 1_555
Br0_4 Sr1_5 3.277806 1_554
Br0_4 Sr2_6 3.277806 1_555
Br0_4 Sr2_0 3.277806 1_655
Br0_4 Sr1_0 3.277806 1_555
Br0_4 Sr1_6 3.277806 1_545
Br0_4 Br0_7 3.935525 1_554
Br0_4 Br0_7 3.935525 1_545
Br0_5 Sr2_4 3.277806 1_556
Br0_5 Sr1_4 3.277806 1_555
Br0_5 Sr2_1 3.277806 1_655
Br0_5 Sr1_7 3.277806 1_545
Br0_5 Sr2_7 3.277806 1_555
Br0_5 Sr1_1 3.277806 1_555
Br0_5 Br0_6 3.935525 1_546
Br0_5 Br0_6 3.935525 1_555
Br0_6 Sr2_7 3.277806 1_555
Br0_6 Sr1_7 3.277806 1_554
Br0_6 Sr2_4 3.277806 1_565
Br0_6 Sr2_2 3.277806 1_655
Br0_6 Sr1_4 3.277806 1_555
Br0_6 Sr1_2 3.277806 1_555
Br0_7 Sr2_6 3.277806 1_556
Br0_7 Sr1_6 3.277806 1_555
Br0_7 Sr2_3 3.277806 1_655
Br0_7 Sr2_5 3.277806 1_565
Br0_7 Sr1_5 3.277806 1_555
Br0_7 Sr1_3 3.277806 1_555
N0_0 Sr2_6 2.640860 1_555
N0_0 Sr2_5 2.640860 1_555
N0_0 Sr2_3 2.640860 1_555
N0_0 Sr0_1 2.642083 1_555
N0_0 Sr0_4 2.642084 1_555
N0_0 Sr0_2 2.642084 1_555
N0_1 Sr2_7 2.640860 1_555
N0_1 Sr2_2 2.640860 1_556
N0_1 Sr2_4 2.640860 1_556
N0_1 Sr0_0 2.642083 1_556
N0_1 Sr0_5 2.642084 1_555
N0_1 Sr0_3 2.642084 1_555
N0_2 Sr2_4 2.640860 1_565
N0_2 Sr2_7 2.640860 1_555
N0_2 Sr2_1 2.640860 1_565
N0_2 Sr0_3 2.642083 1_555
N0_2 Sr0_0 2.642084 1_565
N0_2 Sr0_6 2.642084 1_555
N0_3 Sr2_5 2.640860 1_565
N0_3 Sr2_6 2.640860 1_556
N0_3 Sr2_0 2.640860 1_566
N0_3 Sr0_2 2.642083 1_556
N0_3 Sr0_1 2.642084 1_565
N0_3 Sr0_7 2.642084 1_555
N0_4 Sr2_2 2.640860 1_655
N0_4 Sr2_7 2.640860 1_555
N0_4 Sr2_1 2.640860 1_655
N0_4 Sr0_5 2.642083 1_555
N0_4 Sr0_0 2.642084 1_655
N0_4 Sr0_6 2.642084 1_555
N0_5 Sr2_3 2.640860 1_655
N0_5 Sr2_6 2.640860 1_556
N0_5 Sr2_0 2.640860 1_656
N0_5 Sr0_4 2.642083 1_556
N0_5 Sr0_1 2.642084 1_655
N0_5 Sr0_7 2.642084 1_555
N0_6 Sr2_0 2.640860 1_665
N0_6 Sr2_3 2.640860 1_655
N0_6 Sr2_5 2.640860 1_565
N0_6 Sr0_7 2.642083 1_555
N0_6 Sr0_4 2.642084 1_565
N0_6 Sr0_2 2.642084 1_655
N0_7 Sr2_1 2.640860 1_665
N0_7 Sr2_2 2.640860 1_656
N0_7 Sr2_4 2.640860 1_566
N0_7 Sr0_6 2.642083 1_556
N0_7 Sr0_5 2.642084 1_565
N0_7 Sr0_3 2.642084 1_655
N1_0 Sr1_6 2.640860 1_445
N1_0 Sr1_5 2.640860 1_454
N1_0 Sr1_3 2.640860 1_544
N1_0 Sr3_1 2.642083 1_554
N1_0 Sr3_4 2.642084 1_455
N1_0 Sr3_2 2.642084 1_545
N1_1 Sr1_7 2.640860 1_445
N1_1 Sr1_2 2.640860 1_545
N1_1 Sr1_4 2.640860 1_455
N1_1 Sr3_0 2.642083 1_555
N1_1 Sr3_3 2.642084 1_545
N1_1 Sr3_5 2.642084 1_455
N1_2 Sr1_4 2.640860 1_455
N1_2 Sr1_1 2.640860 1_554
N1_2 Sr1_7 2.640860 1_454
N1_2 Sr3_3 2.642083 1_554
N1_2 Sr3_0 2.642084 1_555
N1_2 Sr3_6 2.642084 1_455
N1_3 Sr1_5 2.640860 1_455
N1_3 Sr1_6 2.640860 1_455
N1_3 Sr1_0 2.640860 1_555
N1_3 Sr3_2 2.642083 1_555
N1_3 Sr3_7 2.642084 1_455
N1_3 Sr3_1 2.642084 1_555
N1_4 Sr1_2 2.640860 1_545
N1_4 Sr1_1 2.640860 1_554
N1_4 Sr1_7 2.640860 1_544
N1_4 Sr3_5 2.642083 1_554
N1_4 Sr3_0 2.642084 1_555
N1_4 Sr3_6 2.642084 1_545
N1_5 Sr1_3 2.640860 1_545
N1_5 Sr1_0 2.640860 1_555
N1_5 Sr1_6 2.640860 1_545
N1_5 Sr3_4 2.642083 1_555
N1_5 Sr3_7 2.642084 1_545
N1_5 Sr3_1 2.642084 1_555
N1_6 Sr1_0 2.640860 1_555
N1_6 Sr1_3 2.640860 1_554
N1_6 Sr1_5 2.640860 1_554
N1_6 Sr3_7 2.642083 1_554
N1_6 Sr3_2 2.642084 1_555
N1_6 Sr3_4 2.642084 1_555
N1_7 Sr1_1 2.640860 1_555
N1_7 Sr1_2 2.640860 1_555
N1_7 Sr1_4 2.640860 1_555
N1_7 Sr3_6 2.642083 1_555
N1_7 Sr3_3 2.642084 1_555
N1_7 Sr3_5 2.642084 1_555
Cl0_0 Sr3_6 3.171347 1_445
Cl0_0 Sr0_1 3.171347 1_554
Cl0_0 Sr0_2 3.171347 1_545
Cl0_0 Sr0_4 3.171347 1_455
Cl0_0 Sr3_5 3.171347 1_454
Cl0_0 Sr3_3 3.171347 1_544
Cl0_0 Cl0_5 3.935525 1_554
Cl0_0 Cl0_5 3.935525 1_455
Cl0_0 Cl0_3 3.935525 1_554
Cl0_0 Cl0_3 3.935525 1_545
Cl0_0 Cl0_6 3.935526 1_455
Cl0_0 Cl0_6 3.935526 1_545
Cl0_1 Sr0_0 3.171347 1_555
Cl0_1 Sr3_7 3.171347 1_445
Cl0_1 Sr0_3 3.171347 1_545
Cl0_1 Sr0_5 3.171347 1_455
Cl0_1 Sr3_4 3.171347 1_455
Cl0_1 Sr3_2 3.171347 1_545
Cl0_1 Cl0_2 3.935525 1_555
Cl0_1 Cl0_4 3.935525 1_456
Cl0_1 Cl0_2 3.935525 1_546
Cl0_1 Cl0_4 3.935525 1_555
Cl0_1 Cl0_7 3.935526 1_455
Cl0_1 Cl0_7 3.935526 1_545
Cl0_2 Sr0_3 3.171347 1_554
Cl0_2 Sr3_4 3.171347 1_455
Cl0_2 Sr0_6 3.171347 1_455
Cl0_2 Sr0_0 3.171347 1_555
Cl0_2 Sr3_1 3.171347 1_554
Cl0_2 Sr3_7 3.171347 1_454
Cl0_2 Cl0_7 3.935525 1_554
Cl0_2 Cl0_7 3.935525 1_455
Cl0_2 Cl0_4 3.935526 1_555
Cl0_2 Cl0_4 3.935526 1_465
Cl0_3 Sr0_2 3.171347 1_555
Cl0_3 Sr3_5 3.171347 1_455
Cl0_3 Sr0_7 3.171347 1_455
Cl0_3 Sr0_1 3.171347 1_555
Cl0_3 Sr3_6 3.171347 1_455
Cl0_3 Sr3_0 3.171347 1_555
Cl0_3 Cl0_6 3.935525 1_555
Cl0_3 Cl0_6 3.935525 1_456
Cl0_3 Cl0_5 3.935526 1_555
Cl0_3 Cl0_5 3.935526 1_465
Cl0_4 Sr0_5 3.171347 1_554
Cl0_4 Sr3_2 3.171347 1_545
Cl0_4 Sr0_6 3.171347 1_545
Cl0_4 Sr0_0 3.171347 1_555
Cl0_4 Sr3_1 3.171347 1_554
Cl0_4 Sr3_7 3.171347 1_544
Cl0_4 Cl0_7 3.935525 1_554
Cl0_4 Cl0_7 3.935525 1_545
Cl0_5 Sr0_4 3.171347 1_555
Cl0_5 Sr3_3 3.171347 1_545
Cl0_5 Sr0_7 3.171347 1_545
Cl0_5 Sr3_6 3.171347 1_545
Cl0_5 Sr3_0 3.171347 1_555
Cl0_5 Sr0_1 3.171347 1_555
Cl0_5 Cl0_6 3.935525 1_555
Cl0_5 Cl0_6 3.935525 1_546
Cl0_6 Sr0_7 3.171347 1_554
Cl0_6 Sr3_0 3.171347 1_555
Cl0_6 Sr0_2 3.171347 1_555
Cl0_6 Sr0_4 3.171347 1_555
Cl0_6 Sr3_5 3.171347 1_554
Cl0_6 Sr3_3 3.171347 1_554
Cl0_7 Sr3_1 3.171347 1_555
Cl0_7 Sr0_6 3.171347 1_555
Cl0_7 Sr0_3 3.171347 1_555
Cl0_7 Sr3_2 3.171347 1_555
Cl0_7 Sr3_4 3.171347 1_555
Cl0_7 Sr0_5 3.171347 1_555
