# generated using pymatgen
data_SrCuO2
_symmetry_space_group_name_H-M   'P 1'
_cell_length_a   6.60435200
_cell_length_b   7.44860200
_cell_length_c   12.83521400
_cell_angle_alpha   90.00000000
_cell_angle_beta   90.00000000
_cell_angle_gamma   90.00000000
_symmetry_Int_Tables_number   1
_chemical_formula_structural   SrCuO2
_chemical_formula_sum   'Sr8 Cu8 O16'
_cell_volume   631.40511478
_cell_formula_units_Z   8
loop_
 _symmetry_equiv_pos_site_id
 _symmetry_equiv_pos_as_xyz
  1  'x, y, z'
loop_
 _atom_site_type_symbol
 _atom_site_label
 _atom_site_symmetry_multiplicity
 _atom_site_fract_x
 _atom_site_fract_y
 _atom_site_fract_z
 _atom_site_occupancy
  Sr  Sr0_0  1  0.25000000  0.00000000  0.25000000  1
  Sr  Sr0_1  1  0.25000000  0.00000000  0.75000000  1
  Sr  Sr0_2  1  0.25000000  0.50000000  0.25000000  1
  Sr  Sr0_3  1  0.25000000  0.50000000  0.75000000  1
  Sr  Sr0_4  1  0.75000000  0.00000000  0.25000000  1
  Sr  Sr0_5  1  0.75000000  0.00000000  0.75000000  1
  Sr  Sr0_6  1  0.75000000  0.50000000  0.25000000  1
  Sr  Sr0_7  1  0.75000000  0.50000000  0.75000000  1
  Cu  Cu0_0  1  0.25000000  0.25000000  0.00000000  1
  Cu  Cu0_1  1  0.25000000  0.25000000  0.50000000  1
  Cu  Cu0_2  1  0.25000000  0.75000000  0.00000000  1
  Cu  Cu0_3  1  0.25000000  0.75000000  0.50000000  1
  Cu  Cu0_4  1  0.75000000  0.25000000  0.00000000  1
  Cu  Cu0_5  1  0.75000000  0.25000000  0.50000000  1
  Cu  Cu0_6  1  0.75000000  0.75000000  0.00000000  1
  Cu  Cu0_7  1  0.75000000  0.75000000  0.50000000  1
  O  O0_0  1  0.25000000  0.25000000  0.13595650  1
  O  O0_1  1  0.25000000  0.25000000  0.63595650  1
  O  O0_2  1  0.25000000  0.75000000  0.13595650  1
  O  O0_3  1  0.25000000  0.75000000  0.63595650  1
  O  O0_4  1  0.75000000  0.25000000  0.13595650  1
  O  O0_5  1  0.75000000  0.25000000  0.63595650  1
  O  O0_6  1  0.75000000  0.75000000  0.13595650  1
  O  O0_7  1  0.75000000  0.75000000  0.63595650  1
  O  O1_0  1  0.25000000  0.25000000  0.36404350  1
  O  O1_1  1  0.25000000  0.25000000  0.86404350  1
  O  O1_2  1  0.25000000  0.75000000  0.36404350  1
  O  O1_3  1  0.25000000  0.75000000  0.86404350  1
  O  O1_4  1  0.75000000  0.25000000  0.36404350  1
  O  O1_5  1  0.75000000  0.25000000  0.86404350  1
  O  O1_6  1  0.75000000  0.75000000  0.36404350  1
  O  O1_7  1  0.75000000  0.75000000  0.86404350  1
loop_
_geom_bond_atom_site_label_1
_geom_bond_atom_site_label_2
_geom_bond_distance
_geom_bond_site_symmetry_2
Sr0_0 Sr0_4 3.302176 1_555
Sr0_0 Sr0_4 3.302176 1_455
Sr0_1 Sr0_5 3.302176 1_455
Sr0_1 Sr0_5 3.302176 1_555
Sr0_2 Sr0_6 3.302176 1_555
Sr0_2 Sr0_6 3.302176 1_455
Sr0_3 Sr0_7 3.302176 1_455
Sr0_3 Sr0_7 3.302176 1_555
Cu0_0 O0_0 1.745031 1_555
Cu0_0 O1_1 1.745031 1_554
Cu0_1 O0_1 1.745031 1_555
Cu0_1 O1_0 1.745031 1_555
Cu0_2 O0_2 1.745031 1_555
Cu0_2 O1_3 1.745031 1_554
Cu0_3 O0_3 1.745031 1_555
Cu0_3 O1_2 1.745031 1_555
Cu0_4 O0_4 1.745031 1_555
Cu0_4 O1_5 1.745031 1_554
Cu0_5 O0_5 1.745031 1_555
Cu0_5 O1_4 1.745031 1_555
Cu0_6 O0_6 1.745031 1_555
Cu0_6 O1_7 1.745031 1_554
Cu0_7 O0_7 1.745031 1_555
Cu0_7 O1_6 1.745031 1_555
O0_0 Sr0_0 2.368593 1_555
O0_0 Sr0_2 2.368593 1_555
O0_1 Sr0_1 2.368593 1_555
O0_1 Sr0_3 2.368593 1_555
O0_2 Sr0_2 2.368593 1_555
O0_2 Sr0_0 2.368593 1_565
O0_3 Sr0_1 2.368593 1_565
O0_3 Sr0_3 2.368593 1_555
O0_4 Sr0_6 2.368593 1_555
O0_4 Sr0_4 2.368593 1_555
O0_5 Sr0_7 2.368593 1_555
O0_5 Sr0_5 2.368593 1_555
O0_6 Sr0_6 2.368593 1_555
O0_6 Sr0_4 2.368593 1_565
O0_7 Sr0_5 2.368593 1_565
O0_7 Sr0_7 2.368593 1_555
O1_0 Sr0_2 2.368593 1_555
O1_0 Sr0_0 2.368593 1_555
O1_1 Sr0_3 2.368593 1_555
O1_1 Sr0_1 2.368593 1_555
O1_2 Sr0_2 2.368593 1_555
O1_2 Sr0_0 2.368593 1_565
O1_3 Sr0_3 2.368593 1_555
O1_3 Sr0_1 2.368593 1_565
O1_4 Sr0_6 2.368593 1_555
O1_4 Sr0_4 2.368593 1_555
O1_5 Sr0_5 2.368593 1_555
O1_5 Sr0_7 2.368593 1_555
O1_6 Sr0_4 2.368593 1_565
O1_6 Sr0_6 2.368593 1_555
O1_7 Sr0_7 2.368593 1_555
O1_7 Sr0_5 2.368593 1_565
