# generated using pymatgen
data_CoPO4
_symmetry_space_group_name_H-M   'P 1'
_cell_length_a   5.22927500
_cell_length_b   10.46467800
_cell_length_c   13.47171700
_cell_angle_alpha   90.00000000
_cell_angle_beta   90.00000000
_cell_angle_gamma   90.00000000
_symmetry_Int_Tables_number   1
_chemical_formula_structural   CoPO4
_chemical_formula_sum   'Co8 P8 O32'
_cell_volume   737.20844562
_cell_formula_units_Z   8
loop_
 _symmetry_equiv_pos_site_id
 _symmetry_equiv_pos_as_xyz
  1  'x, y, z'
loop_
 _atom_site_type_symbol
 _atom_site_label
 _atom_site_symmetry_multiplicity
 _atom_site_fract_x
 _atom_site_fract_y
 _atom_site_fract_z
 _atom_site_occupancy
  Co  Co0  1  0.92839000  0.03306100  0.49759900  1
  Co  Co1  1  0.55312900  0.21543300  0.24942700  1
  Co  Co2  1  0.55312900  0.28456700  0.74942700  1
  Co  Co3  1  0.92839000  0.46693900  0.99759900  1
  Co  Co4  1  0.07161000  0.53306100  0.49759900  1
  Co  Co5  1  0.44687100  0.71543300  0.24942700  1
  Co  Co6  1  0.44687100  0.78456700  0.74942700  1
  Co  Co7  1  0.07161000  0.96693900  0.99759900  1
  P  P0  1  0.43553800  0.03306200  0.62380700  1
  P  P1  1  0.04904500  0.22021700  0.87267300  1
  P  P2  1  0.04904500  0.27978300  0.37267300  1
  P  P3  1  0.43553800  0.46693800  0.12380700  1
  P  P4  1  0.56446200  0.53306200  0.62380700  1
  P  P5  1  0.95095500  0.72021700  0.87267300  1
  P  P6  1  0.95095500  0.77978300  0.37267300  1
  P  P7  1  0.56446200  0.96693800  0.12380700  1
  O  O0  1  0.85187600  0.99271800  0.10365700  1
  O  O1  1  0.41036100  0.00417500  0.02957800  1
  O  O2  1  0.48728000  0.04520900  0.21680000  1
  O  O3  1  0.00406300  0.07568400  0.89119700  1
  O  O4  1  0.48294000  0.17670700  0.64384100  1
  O  O5  1  0.89779800  0.23802700  0.27906500  1
  O  O6  1  0.96032300  0.20524600  0.46627200  1
  O  O7  1  0.33761600  0.24542600  0.85507100  1
  O  O8  1  0.33761600  0.25457400  0.35507100  1
  O  O9  1  0.96032300  0.29475400  0.96627200  1
  O  O10  1  0.89779800  0.26197300  0.77906500  1
  O  O11  1  0.48294000  0.32329300  0.14384100  1
  O  O12  1  0.00406300  0.42431600  0.39119700  1
  O  O13  1  0.48728000  0.45479100  0.71680000  1
  O  O14  1  0.41036100  0.49582500  0.52957800  1
  O  O15  1  0.85187600  0.50728200  0.60365700  1
  O  O16  1  0.14812400  0.49271800  0.10365700  1
  O  O17  1  0.58963900  0.50417500  0.02957800  1
  O  O18  1  0.51272000  0.54520900  0.21680000  1
  O  O19  1  0.99593700  0.57568400  0.89119700  1
  O  O20  1  0.51706000  0.67670700  0.64384100  1
  O  O21  1  0.10220200  0.73802700  0.27906500  1
  O  O22  1  0.03967700  0.70524600  0.46627200  1
  O  O23  1  0.66238400  0.74542600  0.85507100  1
  O  O24  1  0.66238400  0.75457400  0.35507100  1
  O  O25  1  0.03967700  0.79475400  0.96627200  1
  O  O26  1  0.10220200  0.76197300  0.77906500  1
  O  O27  1  0.51706000  0.82329300  0.14384100  1
  O  O28  1  0.99593700  0.92431600  0.39119700  1
  O  O29  1  0.51272000  0.95479100  0.71680000  1
  O  O30  1  0.58963900  0.99582500  0.52957800  1
  O  O31  1  0.14812400  0.00728200  0.60365700  1
loop_
_geom_bond_atom_site_label_1
_geom_bond_atom_site_label_2
_geom_bond_distance
_geom_bond_site_symmetry_2
Co0 O31 1.853244 1_655
Co0 O6 1.858143 1_555
Co0 O28 1.863989 1_545
Co0 O30 1.864235 1_545
Co1 O11 1.852571 1_555
Co1 O8 1.861011 1_555
Co1 O5 1.861144 1_555
Co1 O2 1.866799 1_555
Co2 O4 1.852571 1_555
Co2 O7 1.861011 1_555
Co2 O10 1.861144 1_555
Co2 O13 1.866799 1_555
Co3 O16 1.853244 1_656
Co3 O9 1.858143 1_555
Co3 O19 1.863989 1_555
Co3 O17 1.864235 1_556
Co4 O15 1.853244 1_455
Co4 O22 1.858143 1_555
Co4 O12 1.863989 1_555
Co4 O14 1.864235 1_555
Co5 O27 1.852571 1_555
Co5 O24 1.861011 1_555
Co5 O21 1.861144 1_555
Co5 O18 1.866799 1_555
Co6 O20 1.852571 1_555
Co6 O23 1.861011 1_555
Co6 O26 1.861144 1_555
Co6 O29 1.866799 1_555
Co7 O0 1.853244 1_456
Co7 O25 1.858143 1_555
Co7 O3 1.863989 1_565
Co7 O1 1.864235 1_566
O0 P7 1.550928 1_555
O1 P7 1.553274 1_545
O2 P7 1.550238 1_545
O3 P1 1.550882 1_555
O4 P0 1.547221 1_555
O5 P2 1.551371 1_655
O6 P2 1.553585 1_655
O7 P1 1.550147 1_555
O8 P2 1.550147 1_555
O9 P1 1.553585 1_655
O10 P1 1.551371 1_655
O11 P3 1.547221 1_555
O12 P2 1.550882 1_555
O13 P4 1.550238 1_555
O14 P4 1.553274 1_555
O15 P4 1.550928 1_555
O16 P3 1.550928 1_555
O17 P3 1.553274 1_555
O18 P3 1.550238 1_555
O19 P5 1.550882 1_555
O20 P4 1.547221 1_555
O21 P6 1.551371 1_455
O22 P6 1.553585 1_455
O23 P5 1.550147 1_555
O24 P6 1.550147 1_555
O25 P5 1.553585 1_455
O26 P5 1.551371 1_455
O27 P7 1.547221 1_555
O28 P6 1.550882 1_555
O29 P0 1.550238 1_565
O30 P0 1.553274 1_565
O31 P0 1.550928 1_555
