# generated using pymatgen
data_SrSmNiO4
_symmetry_space_group_name_H-M   'P 1'
_cell_length_a   6.74325750
_cell_length_b   6.74325750
_cell_length_c   5.39752500
_cell_angle_alpha   90.00000000
_cell_angle_beta   90.00000000
_cell_angle_gamma   133.04885365
_symmetry_Int_Tables_number   1
_chemical_formula_structural   SrSmNiO4
_chemical_formula_sum   'Sr2 Sm2 Ni2 O8'
_cell_volume   179.35603913
_cell_formula_units_Z   2
loop_
 _symmetry_equiv_pos_site_id
 _symmetry_equiv_pos_as_xyz
  1  'x, y, z'
loop_
 _atom_site_type_symbol
 _atom_site_label
 _atom_site_symmetry_multiplicity
 _atom_site_fract_x
 _atom_site_fract_y
 _atom_site_fract_z
 _atom_site_occupancy
  Sr  Sr0  1  0.60503700  0.39496300  0.25000000  1
  Sr  Sr1  1  0.39496300  0.60503700  0.75000000  1
  Sm  Sm0  1  0.11521000  0.88479000  0.75000000  1
  Sm  Sm1  1  0.88479000  0.11521000  0.25000000  1
  Ni  Ni0  1  0.24970900  0.75029100  0.25000000  1
  Ni  Ni1  1  0.75029100  0.24970900  0.75000000  1
  O  O0  1  0.92800700  0.07199300  0.75000000  1
  O  O1  1  0.41071300  0.58928700  0.25000000  1
  O  O2  1  0.07199300  0.92800700  0.25000000  1
  O  O3  1  0.58928700  0.41071300  0.75000000  1
  O  O4  1  0.50000000  0.00000000  0.00000000  1
  O  O5  1  0.00000000  0.50000000  0.50000000  1
  O  O6  1  0.50000000  0.00000000  0.50000000  1
  O  O7  1  0.00000000  0.50000000  0.00000000  1
loop_
_geom_bond_atom_site_label_1
_geom_bond_atom_site_label_2
_geom_bond_distance
_geom_bond_site_symmetry_2
Ni0 O7 1.903891 1_555
Ni0 O5 1.903891 1_555
Ni0 O6 1.903891 1_565
Ni0 O4 1.903891 1_565
Ni0 O1 1.991657 1_555
Ni0 O2 2.198389 1_555
Ni1 O6 1.903891 1_555
Ni1 O4 1.903891 1_556
Ni1 O7 1.903891 1_656
Ni1 O5 1.903891 1_655
Ni1 O3 1.991657 1_555
Ni1 O0 2.198389 1_555
O0 Sm0 2.315745 1_645
O0 Sr1 2.717154 1_545
O0 Sr1 2.717154 1_655
O0 Sm1 2.751204 1_556
O0 Sm1 2.751204 1_555
O1 Sr0 2.403834 1_555
O1 Sm1 2.705304 1_455
O1 Sm1 2.705304 1_565
O1 Sr1 2.705786 1_554
O1 Sr1 2.705786 1_555
O2 Sm1 2.315745 1_465
O2 Sr0 2.717154 1_455
O2 Sr0 2.717154 1_565
O2 Sm0 2.751204 1_555
O2 Sm0 2.751204 1_554
O3 Sr1 2.403834 1_555
O3 Sm0 2.705304 1_545
O3 Sm0 2.705304 1_655
O3 Sr0 2.705786 1_555
O3 Sr0 2.705786 1_556
O4 Sm1 2.530802 1_555
O4 Sm0 2.530802 1_544
O4 Sr0 2.615425 1_555
O4 Sr1 2.615425 1_544
O5 Sm1 2.530802 1_455
O5 Sm0 2.530802 1_555
O5 Sr1 2.615425 1_555
O5 Sr0 2.615425 1_455
O6 Sm1 2.530802 1_555
O6 Sm0 2.530802 1_545
O6 Sr0 2.615425 1_555
O6 Sr1 2.615425 1_545
O7 Sm1 2.530802 1_455
O7 Sm0 2.530802 1_554
O7 Sr1 2.615425 1_554
O7 Sr0 2.615425 1_455
