# generated using pymatgen
data_K2Ag2GeSe4
_symmetry_space_group_name_H-M   'P 1'
_cell_length_a   13.15158575
_cell_length_b   11.57656787
_cell_length_c   7.84138016
_cell_angle_alpha   82.86826085
_cell_angle_beta   60.85983377
_cell_angle_gamma   36.27190537
_symmetry_Int_Tables_number   1
_chemical_formula_structural   K2Ag2GeSe4
_chemical_formula_sum   'K4 Ag4 Ge2 Se8'
_cell_volume   527.13690538
_cell_formula_units_Z   2
loop_
 _symmetry_equiv_pos_site_id
 _symmetry_equiv_pos_as_xyz
  1  'x, y, z'
loop_
 _atom_site_type_symbol
 _atom_site_label
 _atom_site_symmetry_multiplicity
 _atom_site_fract_x
 _atom_site_fract_y
 _atom_site_fract_z
 _atom_site_occupancy
  K  K0  1  0.31405100  0.31405100  0.68594900  1
  K  K1  1  0.68594900  0.68594900  0.31405100  1
  K  K2  1  0.93594900  0.93594900  0.56405100  1
  K  K3  1  0.56405100  0.56405100  0.93594900  1
  Ag  Ag0  1  0.92543400  0.92543400  0.07456600  1
  Ag  Ag1  1  0.07456600  0.07456600  0.92543400  1
  Ag  Ag2  1  0.32456600  0.32456600  0.17543400  1
  Ag  Ag3  1  0.17543400  0.17543400  0.32456600  1
  Ge  Ge0  1  0.50000000  0.50000000  0.50000000  1
  Ge  Ge1  1  0.75000000  0.75000000  0.75000000  1
  Se  Se0  1  0.53002800  0.34682600  0.25913500  1
  Se  Se1  1  0.86401200  0.25913500  0.34682600  1
  Se  Se2  1  0.25913500  0.86401200  0.53002800  1
  Se  Se3  1  0.34682600  0.53002800  0.86401200  1
  Se  Se4  1  0.71997200  0.90317400  0.99086500  1
  Se  Se5  1  0.38598800  0.99086500  0.90317400  1
  Se  Se6  1  0.99086500  0.38598800  0.71997200  1
  Se  Se7  1  0.90317400  0.71997200  0.38598800  1
loop_
_geom_bond_atom_site_label_1
_geom_bond_atom_site_label_2
_geom_bond_distance
_geom_bond_site_symmetry_2
K0 Se0 3.402558 1_555
K0 Se3 3.402563 1_555
K0 Se5 3.474761 1_545
K0 Se6 3.474765 1_455
K0 Se7 3.634569 1_545
K0 Se4 3.634570 1_455
K0 Se7 4.241080 1_456
K0 Se4 4.241087 1_544
K1 Se2 3.402551 1_555
K1 Se1 3.402553 1_555
K1 Se7 3.474752 1_555
K1 Se4 3.474757 1_554
K1 Se5 3.634566 1_555
K1 Se6 3.634573 1_554
K1 Se5 4.241083 1_644
K1 Se6 4.241084 1_465
K2 Se4 3.402558 1_555
K2 Se7 3.402563 1_555
K2 Se1 3.474761 1_565
K2 Se2 3.474765 1_655
K2 Se3 3.634569 1_565
K2 Se0 3.634570 1_655
K2 Se3 4.241080 1_654
K2 Se0 4.241087 1_566
K3 Se6 3.402551 1_555
K3 Se5 3.402553 1_555
K3 Se3 3.474752 1_555
K3 Se0 3.474757 1_556
K3 Se1 3.634566 1_555
K3 Se2 3.634573 1_556
K3 Se1 4.241083 1_466
K3 Se2 4.241084 1_645
Ag0 Se0 2.540348 1_565
Ag0 Se3 2.540349 1_654
Ag0 Se7 3.269673 1_555
Ag0 Se4 3.269678 1_554
Ag0 Ag1 3.304503 1_664
Ag0 K2 3.927607 1_555
Ag0 K2 3.927607 1_554
Ag1 Se2 2.540344 1_545
Ag1 Se1 2.540351 1_456
Ag1 Se5 3.269665 1_545
Ag1 Se6 3.269669 1_455
Ag1 K3 3.927607 1_545
Ag1 K3 3.927607 1_455
Ag2 Se4 2.540348 1_544
Ag2 Se7 2.540349 1_455
Ag2 Se3 3.269673 1_554
Ag2 Se0 3.269678 1_555
Ag2 Ag3 3.304503 1_555
Ag2 K0 3.927607 1_554
Ag2 K0 3.927607 1_555
Ag3 Se6 2.540344 1_455
Ag3 Se5 2.540351 1_544
Ag3 Se1 3.269665 1_455
Ag3 Se2 3.269669 1_545
Ag3 K1 3.927607 1_455
Ag3 K1 3.927607 1_545
Ge0 Se0 2.417348 1_555
Ge0 Se3 2.417354 1_555
Ge0 Se2 2.417356 1_555
Ge0 Se1 2.417359 1_555
Ge1 Se4 2.417348 1_555
Ge1 Se7 2.417354 1_555
Ge1 Se6 2.417356 1_555
Ge1 Se5 2.417359 1_555
