# generated using pymatgen
data_K(IrO2)4
_symmetry_space_group_name_H-M   'P 1'
_cell_length_a   6.42680800
_cell_length_b   14.62406611
_cell_length_c   14.62406611
_cell_angle_alpha   87.23251105
_cell_angle_beta   77.30659215
_cell_angle_gamma   77.30659215
_symmetry_Int_Tables_number   1
_chemical_formula_structural   K(IrO2)4
_chemical_formula_sum   'K8 Ir32 O64'
_cell_volume   1308.09543198
_cell_formula_units_Z   8
loop_
 _symmetry_equiv_pos_site_id
 _symmetry_equiv_pos_as_xyz
  1  'x, y, z'
loop_
 _atom_site_type_symbol
 _atom_site_label
 _atom_site_symmetry_multiplicity
 _atom_site_fract_x
 _atom_site_fract_y
 _atom_site_fract_z
 _atom_site_occupancy
  K  K0_0  1  0.25000000  0.00000000  0.00000000  1
  K  K0_1  1  0.25000000  0.00000000  0.50000000  1
  K  K0_2  1  0.25000000  0.50000000  0.00000000  1
  K  K0_3  1  0.25000000  0.50000000  0.50000000  1
  K  K0_4  1  0.75000000  0.00000000  0.00000000  1
  K  K0_5  1  0.75000000  0.00000000  0.50000000  1
  K  K0_6  1  0.75000000  0.50000000  0.00000000  1
  K  K0_7  1  0.75000000  0.50000000  0.50000000  1
  Ir  Ir0_0  1  0.41690800  0.40745050  0.25873350  1
  Ir  Ir0_1  1  0.41690800  0.40745050  0.75873350  1
  Ir  Ir0_2  1  0.41690800  0.90745050  0.25873350  1
  Ir  Ir0_3  1  0.41690800  0.90745050  0.75873350  1
  Ir  Ir0_4  1  0.91690800  0.40745050  0.25873350  1
  Ir  Ir0_5  1  0.91690800  0.40745050  0.75873350  1
  Ir  Ir0_6  1  0.91690800  0.90745050  0.25873350  1
  Ir  Ir0_7  1  0.91690800  0.90745050  0.75873350  1
  Ir  Ir1_0  1  0.08309200  0.09254950  0.24126650  1
  Ir  Ir1_1  1  0.08309200  0.09254950  0.74126650  1
  Ir  Ir1_2  1  0.08309200  0.59254950  0.24126650  1
  Ir  Ir1_3  1  0.08309200  0.59254950  0.74126650  1
  Ir  Ir1_4  1  0.58309200  0.09254950  0.24126650  1
  Ir  Ir1_5  1  0.58309200  0.09254950  0.74126650  1
  Ir  Ir1_6  1  0.58309200  0.59254950  0.24126650  1
  Ir  Ir1_7  1  0.58309200  0.59254950  0.74126650  1
  Ir  Ir2_0  1  0.17564150  0.24126650  0.40745050  1
  Ir  Ir2_1  1  0.17564150  0.24126650  0.90745050  1
  Ir  Ir2_2  1  0.17564150  0.74126650  0.40745050  1
  Ir  Ir2_3  1  0.17564150  0.74126650  0.90745050  1
  Ir  Ir2_4  1  0.67564150  0.24126650  0.40745050  1
  Ir  Ir2_5  1  0.67564150  0.24126650  0.90745050  1
  Ir  Ir2_6  1  0.67564150  0.74126650  0.40745050  1
  Ir  Ir2_7  1  0.67564150  0.74126650  0.90745050  1
  Ir  Ir3_0  1  0.32435850  0.25873350  0.09254950  1
  Ir  Ir3_1  1  0.32435850  0.25873350  0.59254950  1
  Ir  Ir3_2  1  0.32435850  0.75873350  0.09254950  1
  Ir  Ir3_3  1  0.32435850  0.75873350  0.59254950  1
  Ir  Ir3_4  1  0.82435850  0.25873350  0.09254950  1
  Ir  Ir3_5  1  0.82435850  0.25873350  0.59254950  1
  Ir  Ir3_6  1  0.82435850  0.75873350  0.09254950  1
  Ir  Ir3_7  1  0.82435850  0.75873350  0.59254950  1
  O  O0_0  1  0.22661950  0.35321600  0.19354550  1
  O  O0_1  1  0.22661950  0.35321600  0.69354550  1
  O  O0_2  1  0.22661950  0.85321600  0.19354550  1
  O  O0_3  1  0.22661950  0.85321600  0.69354550  1
  O  O0_4  1  0.72661950  0.35321600  0.19354550  1
  O  O0_5  1  0.72661950  0.35321600  0.69354550  1
  O  O0_6  1  0.72661950  0.85321600  0.19354550  1
  O  O0_7  1  0.72661950  0.85321600  0.69354550  1
  O  O1_0  1  0.27338050  0.14678400  0.30645450  1
  O  O1_1  1  0.27338050  0.14678400  0.80645450  1
  O  O1_2  1  0.27338050  0.64678400  0.30645450  1
  O  O1_3  1  0.27338050  0.64678400  0.80645450  1
  O  O1_4  1  0.77338050  0.14678400  0.30645450  1
  O  O1_5  1  0.77338050  0.14678400  0.80645450  1
  O  O1_6  1  0.77338050  0.64678400  0.30645450  1
  O  O1_7  1  0.77338050  0.64678400  0.80645450  1
  O  O2_0  1  0.42016450  0.30645450  0.35321600  1
  O  O2_1  1  0.42016450  0.30645450  0.85321600  1
  O  O2_2  1  0.42016450  0.80645450  0.35321600  1
  O  O2_3  1  0.42016450  0.80645450  0.85321600  1
  O  O2_4  1  0.92016450  0.30645450  0.35321600  1
  O  O2_5  1  0.92016450  0.30645450  0.85321600  1
  O  O2_6  1  0.92016450  0.80645450  0.35321600  1
  O  O2_7  1  0.92016450  0.80645450  0.85321600  1
  O  O3_0  1  0.07983550  0.19354550  0.14678400  1
  O  O3_1  1  0.07983550  0.19354550  0.64678400  1
  O  O3_2  1  0.07983550  0.69354550  0.14678400  1
  O  O3_3  1  0.07983550  0.69354550  0.64678400  1
  O  O3_4  1  0.57983550  0.19354550  0.14678400  1
  O  O3_5  1  0.57983550  0.19354550  0.64678400  1
  O  O3_6  1  0.57983550  0.69354550  0.14678400  1
  O  O3_7  1  0.57983550  0.69354550  0.64678400  1
  O  O4_0  1  0.10128550  0.47373750  0.32369150  1
  O  O4_1  1  0.10128550  0.47373750  0.82369150  1
  O  O4_2  1  0.10128550  0.97373750  0.32369150  1
  O  O4_3  1  0.10128550  0.97373750  0.82369150  1
  O  O4_4  1  0.60128550  0.47373750  0.32369150  1
  O  O4_5  1  0.60128550  0.47373750  0.82369150  1
  O  O4_6  1  0.60128550  0.97373750  0.32369150  1
  O  O4_7  1  0.60128550  0.97373750  0.82369150  1
  O  O5_0  1  0.39871450  0.02626250  0.17630850  1
  O  O5_1  1  0.39871450  0.02626250  0.67630850  1
  O  O5_2  1  0.39871450  0.52626250  0.17630850  1
  O  O5_3  1  0.39871450  0.52626250  0.67630850  1
  O  O5_4  1  0.89871450  0.02626250  0.17630850  1
  O  O5_5  1  0.89871450  0.02626250  0.67630850  1
  O  O5_6  1  0.89871450  0.52626250  0.17630850  1
  O  O5_7  1  0.89871450  0.52626250  0.67630850  1
  O  O6_0  1  0.42497700  0.17630850  0.47373750  1
  O  O6_1  1  0.42497700  0.17630850  0.97373750  1
  O  O6_2  1  0.42497700  0.67630850  0.47373750  1
  O  O6_3  1  0.42497700  0.67630850  0.97373750  1
  O  O6_4  1  0.92497700  0.17630850  0.47373750  1
  O  O6_5  1  0.92497700  0.17630850  0.97373750  1
  O  O6_6  1  0.92497700  0.67630850  0.47373750  1
  O  O6_7  1  0.92497700  0.67630850  0.97373750  1
  O  O7_0  1  0.07502300  0.32369150  0.02626250  1
  O  O7_1  1  0.07502300  0.32369150  0.52626250  1
  O  O7_2  1  0.07502300  0.82369150  0.02626250  1
  O  O7_3  1  0.07502300  0.82369150  0.52626250  1
  O  O7_4  1  0.57502300  0.32369150  0.02626250  1
  O  O7_5  1  0.57502300  0.32369150  0.52626250  1
  O  O7_6  1  0.57502300  0.82369150  0.02626250  1
  O  O7_7  1  0.57502300  0.82369150  0.52626250  1
loop_
_geom_bond_atom_site_label_1
_geom_bond_atom_site_label_2
_geom_bond_distance
_geom_bond_site_symmetry_2
K0_0 O5_0 3.008117 1_555
K0_0 O6_1 3.008117 1_554
K0_0 O6_5 3.008117 1_454
K0_0 O5_4 3.008117 1_455
K0_0 O7_6 3.008117 1_545
K0_0 O4_7 3.008117 1_544
K0_0 O4_3 3.008117 1_544
K0_0 O7_2 3.008117 1_545
K0_0 K0_4 3.213404 1_555
K0_0 K0_4 3.213404 1_455
K0_0 O3_0 3.465516 1_555
K0_0 O0_2 3.465516 1_545
K0_0 O1_1 3.465516 1_554
K0_0 O2_3 3.465516 1_544
K0_1 O5_1 3.008117 1_555
K0_1 O6_0 3.008117 1_555
K0_1 O6_4 3.008117 1_455
K0_1 O5_5 3.008117 1_455
K0_1 O7_7 3.008117 1_545
K0_1 O4_6 3.008117 1_545
K0_1 O4_2 3.008117 1_545
K0_1 O7_3 3.008117 1_545
K0_1 K0_5 3.213404 1_455
K0_1 K0_5 3.213404 1_555
K0_1 O3_1 3.465516 1_555
K0_1 O0_3 3.465516 1_545
K0_1 O2_2 3.465516 1_545
K0_1 O1_0 3.465516 1_555
K0_2 O5_2 3.008117 1_555
K0_2 O6_3 3.008117 1_554
K0_2 O6_7 3.008117 1_454
K0_2 O5_6 3.008117 1_455
K0_2 O7_4 3.008117 1_555
K0_2 O4_5 3.008117 1_554
K0_2 O4_1 3.008117 1_554
K0_2 O7_0 3.008117 1_555
K0_2 K0_6 3.213404 1_455
K0_2 K0_6 3.213404 1_555
K0_2 O3_2 3.465516 1_555
K0_2 O0_0 3.465516 1_555
K0_2 O1_3 3.465516 1_554
K0_2 O2_1 3.465516 1_554
K0_3 O5_3 3.008117 1_555
K0_3 O6_2 3.008117 1_555
K0_3 O6_6 3.008117 1_455
K0_3 O5_7 3.008117 1_455
K0_3 O7_5 3.008117 1_555
K0_3 O4_4 3.008117 1_555
K0_3 O4_0 3.008117 1_555
K0_3 O7_1 3.008117 1_555
K0_3 K0_7 3.213404 1_555
K0_3 K0_7 3.213404 1_455
K0_3 O3_3 3.465516 1_555
K0_3 O0_1 3.465516 1_555
K0_3 O1_2 3.465516 1_555
K0_3 O2_0 3.465516 1_555
K0_4 O5_4 3.008117 1_555
K0_4 O6_5 3.008117 1_554
K0_4 O6_1 3.008117 1_554
K0_4 O5_0 3.008117 1_555
K0_4 O7_2 3.008117 1_645
K0_4 O4_3 3.008117 1_644
K0_4 O4_7 3.008117 1_544
K0_4 O7_6 3.008117 1_545
K0_4 O3_4 3.465516 1_555
K0_4 O0_6 3.465516 1_545
K0_4 O1_5 3.465516 1_554
K0_4 O2_7 3.465516 1_544
K0_5 O5_5 3.008117 1_555
K0_5 O6_4 3.008117 1_555
K0_5 O6_0 3.008117 1_555
K0_5 O5_1 3.008117 1_555
K0_5 O7_3 3.008117 1_645
K0_5 O4_2 3.008117 1_645
K0_5 O4_6 3.008117 1_545
K0_5 O7_7 3.008117 1_545
K0_5 O3_5 3.465516 1_555
K0_5 O0_7 3.465516 1_545
K0_5 O2_6 3.465516 1_545
K0_5 O1_4 3.465516 1_555
K0_6 O5_6 3.008117 1_555
K0_6 O6_7 3.008117 1_554
K0_6 O6_3 3.008117 1_554
K0_6 O5_2 3.008117 1_555
K0_6 O7_0 3.008117 1_655
K0_6 O4_1 3.008117 1_654
K0_6 O4_5 3.008117 1_554
K0_6 O7_4 3.008117 1_555
K0_6 O3_6 3.465516 1_555
K0_6 O0_4 3.465516 1_555
K0_6 O1_7 3.465516 1_554
K0_6 O2_5 3.465516 1_554
K0_7 O5_7 3.008117 1_555
K0_7 O6_6 3.008117 1_555
K0_7 O6_2 3.008117 1_555
K0_7 O5_3 3.008117 1_555
K0_7 O7_1 3.008117 1_655
K0_7 O4_0 3.008117 1_655
K0_7 O4_4 3.008117 1_555
K0_7 O7_5 3.008117 1_555
K0_7 O3_7 3.465516 1_555
K0_7 O0_5 3.465516 1_555
K0_7 O1_6 3.465516 1_555
K0_7 O2_4 3.465516 1_555
Ir0_0 O2_0 1.973091 1_555
Ir0_0 O0_0 2.011242 1_555
Ir0_0 O0_4 2.011244 1_555
Ir0_0 O5_2 2.063008 1_555
Ir0_0 O4_4 2.081985 1_555
Ir0_0 O4_0 2.081985 1_555
Ir0_1 O2_1 1.973091 1_555
Ir0_1 O0_1 2.011242 1_555
Ir0_1 O0_5 2.011244 1_555
Ir0_1 O5_3 2.063008 1_555
Ir0_1 O4_5 2.081985 1_555
Ir0_1 O4_1 2.081985 1_555
Ir0_2 O2_2 1.973091 1_555
Ir0_2 O0_2 2.011242 1_555
Ir0_2 O0_6 2.011244 1_555
Ir0_2 O5_0 2.063008 1_565
Ir0_2 O4_6 2.081985 1_555
Ir0_2 O4_2 2.081985 1_555
Ir0_3 O2_3 1.973091 1_555
Ir0_3 O0_3 2.011242 1_555
Ir0_3 O0_7 2.011244 1_555
Ir0_3 O5_1 2.063008 1_565
Ir0_3 O4_7 2.081985 1_555
Ir0_3 O4_3 2.081985 1_555
Ir0_4 O2_4 1.973091 1_555
Ir0_4 O0_4 2.011242 1_555
Ir0_4 O0_0 2.011244 1_655
Ir0_4 O5_6 2.063008 1_555
Ir0_4 O4_0 2.081985 1_655
Ir0_4 O4_4 2.081985 1_555
Ir0_5 O2_5 1.973091 1_555
Ir0_5 O0_5 2.011242 1_555
Ir0_5 O0_1 2.011244 1_655
Ir0_5 O5_7 2.063008 1_555
Ir0_5 O4_1 2.081985 1_655
Ir0_5 O4_5 2.081985 1_555
Ir0_6 O2_6 1.973091 1_555
Ir0_6 O0_6 2.011242 1_555
Ir0_6 O0_2 2.011244 1_655
Ir0_6 O5_4 2.063008 1_565
Ir0_6 O4_2 2.081985 1_655
Ir0_6 O4_6 2.081985 1_555
Ir0_7 O2_7 1.973091 1_555
Ir0_7 O0_7 2.011242 1_555
Ir0_7 O0_3 2.011244 1_655
Ir0_7 O5_5 2.063008 1_565
Ir0_7 O4_3 2.081985 1_655
Ir0_7 O4_7 2.081985 1_555
Ir1_0 O3_0 1.973091 1_555
Ir1_0 O1_0 2.011242 1_555
Ir1_0 O1_4 2.011244 1_455
Ir1_0 O4_2 2.063008 1_545
Ir1_0 O5_0 2.081985 1_555
Ir1_0 O5_4 2.081985 1_455
Ir1_1 O3_1 1.973091 1_555
Ir1_1 O1_1 2.011242 1_555
Ir1_1 O1_5 2.011244 1_455
Ir1_1 O4_3 2.063008 1_545
Ir1_1 O5_1 2.081985 1_555
Ir1_1 O5_5 2.081985 1_455
Ir1_2 O3_2 1.973091 1_555
Ir1_2 O1_2 2.011242 1_555
Ir1_2 O1_6 2.011244 1_455
Ir1_2 O4_0 2.063008 1_555
Ir1_2 O5_2 2.081985 1_555
Ir1_2 O5_6 2.081985 1_455
Ir1_3 O3_3 1.973091 1_555
Ir1_3 O1_3 2.011242 1_555
Ir1_3 O1_7 2.011244 1_455
Ir1_3 O4_1 2.063008 1_555
Ir1_3 O5_3 2.081985 1_555
Ir1_3 O5_7 2.081985 1_455
Ir1_4 O3_4 1.973091 1_555
Ir1_4 O1_4 2.011242 1_555
Ir1_4 O1_0 2.011244 1_555
Ir1_4 O4_6 2.063008 1_545
Ir1_4 O5_4 2.081985 1_555
Ir1_4 O5_0 2.081985 1_555
Ir1_5 O3_5 1.973091 1_555
Ir1_5 O1_5 2.011242 1_555
Ir1_5 O1_1 2.011244 1_555
Ir1_5 O4_7 2.063008 1_545
Ir1_5 O5_5 2.081985 1_555
Ir1_5 O5_1 2.081985 1_555
Ir1_6 O3_6 1.973091 1_555
Ir1_6 O1_6 2.011242 1_555
Ir1_6 O1_2 2.011244 1_555
Ir1_6 O4_4 2.063008 1_555
Ir1_6 O5_6 2.081985 1_555
Ir1_6 O5_2 2.081985 1_555
Ir1_7 O3_7 1.973091 1_555
Ir1_7 O1_7 2.011242 1_555
Ir1_7 O1_3 2.011244 1_555
Ir1_7 O4_5 2.063008 1_555
Ir1_7 O5_7 2.081985 1_555
Ir1_7 O5_3 2.081985 1_555
Ir2_0 O1_0 1.973091 1_555
Ir2_0 O2_0 2.011242 1_555
Ir2_0 O2_4 2.011244 1_455
Ir2_0 O7_1 2.063008 1_555
Ir2_0 O6_4 2.081985 1_455
Ir2_0 O6_0 2.081985 1_555
Ir2_1 O1_1 1.973091 1_555
Ir2_1 O2_1 2.011242 1_555
Ir2_1 O2_5 2.011244 1_455
Ir2_1 O7_0 2.063008 1_556
Ir2_1 O6_1 2.081985 1_555
Ir2_1 O6_5 2.081985 1_455
Ir2_2 O1_2 1.973091 1_555
Ir2_2 O2_2 2.011242 1_555
Ir2_2 O2_6 2.011244 1_455
Ir2_2 O7_3 2.063008 1_555
Ir2_2 O6_6 2.081985 1_455
Ir2_2 O6_2 2.081985 1_555
Ir2_3 O1_3 1.973091 1_555
Ir2_3 O2_3 2.011242 1_555
Ir2_3 O2_7 2.011244 1_455
Ir2_3 O7_2 2.063008 1_556
Ir2_3 O6_3 2.081985 1_555
Ir2_3 O6_7 2.081985 1_455
Ir2_4 O1_4 1.973091 1_555
Ir2_4 O2_4 2.011242 1_555
Ir2_4 O2_0 2.011244 1_555
Ir2_4 O7_5 2.063008 1_555
Ir2_4 O6_0 2.081985 1_555
Ir2_4 O6_4 2.081985 1_555
Ir2_5 O1_5 1.973091 1_555
Ir2_5 O2_5 2.011242 1_555
Ir2_5 O2_1 2.011244 1_555
Ir2_5 O7_4 2.063008 1_556
Ir2_5 O6_1 2.081985 1_555
Ir2_5 O6_5 2.081985 1_555
Ir2_6 O1_6 1.973091 1_555
Ir2_6 O2_6 2.011242 1_555
Ir2_6 O2_2 2.011244 1_555
Ir2_6 O7_7 2.063008 1_555
Ir2_6 O6_2 2.081985 1_555
Ir2_6 O6_6 2.081985 1_555
Ir2_7 O1_7 1.973091 1_555
Ir2_7 O2_7 2.011242 1_555
Ir2_7 O2_3 2.011244 1_555
Ir2_7 O7_6 2.063008 1_556
Ir2_7 O6_3 2.081985 1_555
Ir2_7 O6_7 2.081985 1_555
Ir3_0 O0_0 1.973091 1_555
Ir3_0 O3_0 2.011242 1_555
Ir3_0 O3_4 2.011244 1_555
Ir3_0 O6_1 2.063008 1_554
Ir3_0 O7_4 2.081985 1_555
Ir3_0 O7_0 2.081985 1_555
Ir3_1 O0_1 1.973091 1_555
Ir3_1 O3_1 2.011242 1_555
Ir3_1 O3_5 2.011244 1_555
Ir3_1 O6_0 2.063008 1_555
Ir3_1 O7_5 2.081985 1_555
Ir3_1 O7_1 2.081985 1_555
Ir3_2 O0_2 1.973091 1_555
Ir3_2 O3_2 2.011242 1_555
Ir3_2 O3_6 2.011244 1_555
Ir3_2 O6_3 2.063008 1_554
Ir3_2 O7_6 2.081985 1_555
Ir3_2 O7_2 2.081985 1_555
Ir3_3 O0_3 1.973091 1_555
Ir3_3 O3_3 2.011242 1_555
Ir3_3 O3_7 2.011244 1_555
Ir3_3 O6_2 2.063008 1_555
Ir3_3 O7_7 2.081985 1_555
Ir3_3 O7_3 2.081985 1_555
Ir3_4 O0_4 1.973091 1_555
Ir3_4 O3_4 2.011242 1_555
Ir3_4 O3_0 2.011244 1_655
Ir3_4 O6_5 2.063008 1_554
Ir3_4 O7_0 2.081985 1_655
Ir3_4 O7_4 2.081985 1_555
Ir3_5 O0_5 1.973091 1_555
Ir3_5 O3_5 2.011242 1_555
Ir3_5 O3_1 2.011244 1_655
Ir3_5 O6_4 2.063008 1_555
Ir3_5 O7_1 2.081985 1_655
Ir3_5 O7_5 2.081985 1_555
Ir3_6 O0_6 1.973091 1_555
Ir3_6 O3_6 2.011242 1_555
Ir3_6 O3_2 2.011244 1_655
Ir3_6 O6_7 2.063008 1_554
Ir3_6 O7_2 2.081985 1_655
Ir3_6 O7_6 2.081985 1_555
Ir3_7 O0_7 1.973091 1_555
Ir3_7 O3_7 2.011242 1_555
Ir3_7 O3_3 2.011244 1_655
Ir3_7 O6_6 2.063008 1_555
Ir3_7 O7_3 2.081985 1_655
Ir3_7 O7_7 2.081985 1_555
O0_0 O4_0 2.530609 1_555
O0_1 O4_1 2.530609 1_555
O0_2 O4_2 2.530609 1_555
O0_3 O4_3 2.530609 1_555
O0_4 O4_4 2.530609 1_555
O0_5 O4_5 2.530609 1_555
O0_6 O4_6 2.530609 1_555
O0_7 O4_7 2.530609 1_555
O1_0 O5_0 2.530609 1_555
O1_1 O5_1 2.530609 1_555
O1_2 O5_2 2.530609 1_555
O1_3 O5_3 2.530609 1_555
O1_4 O5_4 2.530609 1_555
O1_5 O5_5 2.530609 1_555
O1_6 O5_6 2.530609 1_555
O1_7 O5_7 2.530609 1_555
O2_0 O6_0 2.530609 1_555
O2_1 O6_1 2.530609 1_555
O2_2 O6_2 2.530609 1_555
O2_3 O6_3 2.530609 1_555
O2_4 O6_4 2.530609 1_555
O2_5 O6_5 2.530609 1_555
O2_6 O6_6 2.530609 1_555
O2_7 O6_7 2.530609 1_555
O3_0 O7_0 2.530609 1_555
O3_1 O7_1 2.530609 1_555
O3_2 O7_2 2.530609 1_555
O3_3 O7_3 2.530609 1_555
O3_4 O7_4 2.530609 1_555
O3_5 O7_5 2.530609 1_555
O3_6 O7_6 2.530609 1_555
O3_7 O7_7 2.530609 1_555
