# generated using pymatgen
data_PuIn
_symmetry_space_group_name_H-M   'P 1'
_cell_length_a   6.62347284
_cell_length_b   6.62347284
_cell_length_c   11.53624436
_cell_angle_alpha   75.41388190
_cell_angle_beta   75.41388190
_cell_angle_gamma   63.26317463
_symmetry_Int_Tables_number   1
_chemical_formula_structural   PuIn
_chemical_formula_sum   'Pu8 In8'
_cell_volume   431.76544655
_cell_formula_units_Z   8
loop_
 _symmetry_equiv_pos_site_id
 _symmetry_equiv_pos_as_xyz
  1  'x, y, z'
loop_
 _atom_site_type_symbol
 _atom_site_label
 _atom_site_symmetry_multiplicity
 _atom_site_fract_x
 _atom_site_fract_y
 _atom_site_fract_z
 _atom_site_occupancy
  Pu  Pu0_0  1  0.25000000  0.25000000  0.25000000  1
  Pu  Pu0_1  1  0.25000000  0.25000000  0.75000000  1
  Pu  Pu0_2  1  0.25000000  0.75000000  0.25000000  1
  Pu  Pu0_3  1  0.25000000  0.75000000  0.75000000  1
  Pu  Pu0_4  1  0.75000000  0.25000000  0.25000000  1
  Pu  Pu0_5  1  0.75000000  0.25000000  0.75000000  1
  Pu  Pu0_6  1  0.75000000  0.75000000  0.25000000  1
  Pu  Pu0_7  1  0.75000000  0.75000000  0.75000000  1
  In  In0_0  1  0.00000000  0.00000000  0.00000000  1
  In  In0_1  1  0.00000000  0.00000000  0.50000000  1
  In  In0_2  1  0.00000000  0.50000000  0.00000000  1
  In  In0_3  1  0.00000000  0.50000000  0.50000000  1
  In  In0_4  1  0.50000000  0.00000000  0.00000000  1
  In  In0_5  1  0.50000000  0.00000000  0.50000000  1
  In  In0_6  1  0.50000000  0.50000000  0.00000000  1
  In  In0_7  1  0.50000000  0.50000000  0.50000000  1
loop_
_geom_bond_atom_site_label_1
_geom_bond_atom_site_label_2
_geom_bond_distance
_geom_bond_site_symmetry_2
Pu0_0 Pu0_4 3.311736 1_555
Pu0_0 Pu0_2 3.311736 1_555
Pu0_0 Pu0_4 3.311736 1_455
Pu0_0 Pu0_2 3.311736 1_545
Pu0_0 Pu0_6 3.473716 1_545
Pu0_0 Pu0_6 3.473716 1_455
Pu0_1 Pu0_5 3.311736 1_555
Pu0_1 Pu0_3 3.311736 1_555
Pu0_1 Pu0_3 3.311736 1_545
Pu0_1 Pu0_5 3.311736 1_455
Pu0_1 Pu0_7 3.473716 1_455
Pu0_1 Pu0_7 3.473716 1_545
Pu0_2 Pu0_6 3.311736 1_555
Pu0_2 Pu0_6 3.311736 1_455
Pu0_2 Pu0_4 3.473716 1_555
Pu0_2 Pu0_4 3.473716 1_465
Pu0_3 Pu0_7 3.311736 1_555
Pu0_3 Pu0_7 3.311736 1_455
Pu0_3 Pu0_5 3.473716 1_555
Pu0_3 Pu0_5 3.473716 1_465
Pu0_4 Pu0_6 3.311736 1_555
Pu0_4 Pu0_6 3.311736 1_545
Pu0_5 Pu0_7 3.311736 1_555
Pu0_5 Pu0_7 3.311736 1_545
In0_0 In0_2 3.311736 1_555
In0_0 In0_2 3.311736 1_545
In0_0 In0_4 3.311736 1_455
In0_0 In0_4 3.311736 1_555
In0_0 Pu0_4 3.366673 1_455
In0_0 Pu0_3 3.366673 1_544
In0_0 Pu0_2 3.366673 1_545
In0_0 Pu0_5 3.366673 1_454
In0_0 Pu0_1 3.384975 1_554
In0_0 Pu0_6 3.384975 1_445
In0_0 In0_6 3.473716 1_455
In0_0 In0_6 3.473716 1_545
In0_1 In0_5 3.311736 1_555
In0_1 In0_5 3.311736 1_455
In0_1 In0_3 3.311736 1_545
In0_1 In0_3 3.311736 1_555
In0_1 Pu0_2 3.366673 1_545
In0_1 Pu0_3 3.366673 1_545
In0_1 Pu0_5 3.366673 1_455
In0_1 Pu0_4 3.366673 1_455
In0_1 Pu0_0 3.384975 1_555
In0_1 Pu0_7 3.384975 1_445
In0_1 In0_7 3.473716 1_545
In0_1 In0_7 3.473716 1_455
In0_2 In0_6 3.311736 1_555
In0_2 In0_6 3.311736 1_455
In0_2 Pu0_6 3.366673 1_455
In0_2 Pu0_7 3.366673 1_454
In0_2 Pu0_1 3.366673 1_554
In0_2 Pu0_0 3.366673 1_555
In0_2 Pu0_3 3.384975 1_554
In0_2 Pu0_4 3.384975 1_455
In0_2 In0_4 3.473716 1_465
In0_2 In0_4 3.473716 1_555
In0_3 In0_7 3.311736 1_455
In0_3 In0_7 3.311736 1_555
In0_3 Pu0_7 3.366673 1_455
In0_3 Pu0_0 3.366673 1_555
In0_3 Pu0_1 3.366673 1_555
In0_3 Pu0_6 3.366673 1_455
In0_3 Pu0_2 3.384975 1_555
In0_3 Pu0_5 3.384975 1_455
In0_3 In0_5 3.473716 1_555
In0_3 In0_5 3.473716 1_465
In0_4 In0_6 3.311736 1_555
In0_4 In0_6 3.311736 1_545
In0_4 Pu0_6 3.366673 1_545
In0_4 Pu0_7 3.366673 1_544
In0_4 Pu0_1 3.366673 1_554
In0_4 Pu0_0 3.366673 1_555
In0_4 Pu0_5 3.384975 1_554
In0_4 Pu0_2 3.384975 1_545
In0_5 In0_7 3.311736 1_545
In0_5 In0_7 3.311736 1_555
In0_5 Pu0_7 3.366673 1_545
In0_5 Pu0_1 3.366673 1_555
In0_5 Pu0_0 3.366673 1_555
In0_5 Pu0_6 3.366673 1_545
In0_5 Pu0_4 3.384975 1_555
In0_5 Pu0_3 3.384975 1_545
In0_6 Pu0_2 3.366673 1_555
In0_6 Pu0_4 3.366673 1_555
In0_6 Pu0_5 3.366673 1_554
In0_6 Pu0_3 3.366673 1_554
In0_6 Pu0_7 3.384975 1_554
In0_6 Pu0_0 3.384975 1_555
In0_7 Pu0_3 3.366673 1_555
In0_7 Pu0_5 3.366673 1_555
In0_7 Pu0_2 3.366673 1_555
In0_7 Pu0_4 3.366673 1_555
In0_7 Pu0_6 3.384975 1_555
In0_7 Pu0_1 3.384975 1_555
