# generated using pymatgen
data_LiMnCo3O8
_symmetry_space_group_name_H-M   'P 1'
_cell_length_a   5.69202501
_cell_length_b   6.11207100
_cell_length_c   8.25460513
_cell_angle_alpha   86.09620061
_cell_angle_beta   90.02356436
_cell_angle_gamma   90.32853290
_symmetry_Int_Tables_number   1
_chemical_formula_structural   LiMnCo3O8
_chemical_formula_sum   'Li2 Mn2 Co6 O16'
_cell_volume   286.50718547
_cell_formula_units_Z   2
loop_
 _symmetry_equiv_pos_site_id
 _symmetry_equiv_pos_as_xyz
  1  'x, y, z'
loop_
 _atom_site_type_symbol
 _atom_site_label
 _atom_site_symmetry_multiplicity
 _atom_site_fract_x
 _atom_site_fract_y
 _atom_site_fract_z
 _atom_site_occupancy
  Li  Li0  1  0.50013600  0.00146500  0.50302100  1
  Li  Li1  1  0.00163900  0.50429600  0.99296500  1
  Mn  Mn0  1  0.50192600  0.49772300  0.50127100  1
  Mn  Mn1  1  0.99835200  0.00245800  0.99930000  1
  Co  Co0  1  0.00077400  0.49425600  0.50210200  1
  Co  Co1  1  0.49847900  0.00155400  0.99974600  1
  Co  Co2  1  0.75030800  0.74980900  0.24769300  1
  Co  Co3  1  0.24925600  0.25001000  0.75226900  1
  Co  Co4  1  0.25061900  0.75074000  0.24927400  1
  Co  Co5  1  0.74755200  0.24890700  0.75235300  1
  O  O0  1  0.99875800  0.95611000  0.23397900  1
  O  O1  1  0.49605800  0.45707100  0.73338000  1
  O  O2  1  0.50187200  0.54447700  0.26432400  1
  O  O3  1  0.00153400  0.04233800  0.76922200  1
  O  O4  1  0.00292200  0.45285900  0.74547100  1
  O  O5  1  0.50022200  0.95509500  0.23325500  1
  O  O6  1  0.49555000  0.04206600  0.77057800  1
  O  O7  1  0.00328400  0.54953600  0.25135900  1
  O  O8  1  0.74768500  0.71841100  0.47606100  1
  O  O9  1  0.25086200  0.21348300  0.98411700  1
  O  O10  1  0.26391800  0.72393100  0.47536000  1
  O  O11  1  0.74712700  0.21006700  0.98583700  1
  O  O12  1  0.24849500  0.78986800  0.01727200  1
  O  O13  1  0.73842200  0.27707400  0.52068000  1
  O  O14  1  0.74712900  0.78895600  0.01716000  1
  O  O15  1  0.25712000  0.27743800  0.52195500  1
loop_
_geom_bond_atom_site_label_1
_geom_bond_atom_site_label_2
_geom_bond_distance
_geom_bond_site_symmetry_2
Li0 O13 2.169247 1_555
Li0 O10 2.182605 1_545
Li0 O15 2.201325 1_555
Li0 O6 2.239381 1_555
Li0 O8 2.260234 1_545
Li0 O5 2.263836 1_545
Li1 O4 2.088083 1_555
Li1 O7 2.169387 1_556
Li1 O12 2.253990 1_556
Li1 O9 2.285561 1_555
Li1 O14 2.289570 1_456
Li1 O11 2.306660 1_455
Mn0 O13 1.909913 1_555
Mn0 O1 1.915443 1_555
Mn0 O15 1.931579 1_555
Mn0 O8 1.939056 1_555
Mn0 O10 1.942587 1_555
Mn0 O2 1.957324 1_555
Mn1 O3 1.898330 1_655
Mn1 O11 1.915418 1_555
Mn1 O9 1.924053 1_655
Mn1 O14 1.929245 1_546
Mn1 O12 1.931947 1_646
Mn1 O0 1.938611 1_546
Co0 O15 1.975979 1_555
Co0 O13 1.991310 1_455
Co0 O8 1.995200 1_455
Co0 O4 2.007663 1_555
Co0 O10 2.048607 1_555
Co0 O7 2.074396 1_555
Co1 O6 1.891118 1_555
Co1 O11 1.897373 1_555
Co1 O12 1.916562 1_546
Co1 O9 1.918090 1_555
Co1 O14 1.925556 1_546
Co1 O5 1.929138 1_546
Co2 O8 1.881844 1_555
Co2 O2 1.884123 1_555
Co2 O0 1.887568 1_555
Co2 O7 1.894168 1_655
Co2 O5 1.901277 1_555
Co2 O14 1.901803 1_555
Co3 O4 1.875290 1_555
Co3 O1 1.884775 1_555
Co3 O3 1.890604 1_555
Co3 O6 1.896751 1_555
Co3 O15 1.897649 1_555
Co3 O9 1.911659 1_555
Co4 O7 1.863311 1_555
Co4 O10 1.863829 1_555
Co4 O5 1.885047 1_555
Co4 O0 1.909364 1_455
Co4 O2 1.910310 1_555
Co4 O12 1.913777 1_555
Co5 O6 1.905753 1_555
Co5 O4 1.907795 1_655
Co5 O13 1.909106 1_555
Co5 O1 1.919922 1_555
Co5 O3 1.923604 1_655
Co5 O11 1.925777 1_555
