# generated using pymatgen
data_ReRhN5Cl7
_symmetry_space_group_name_H-M   'P 1'
_cell_length_a   8.00958000
_cell_length_b   11.28858100
_cell_length_c   15.30704664
_cell_angle_alpha   75.81520284
_cell_angle_beta   90.00000000
_cell_angle_gamma   90.00000000
_symmetry_Int_Tables_number   1
_chemical_formula_structural   ReRhN5Cl7
_chemical_formula_sum   'Re4 Rh4 N20 Cl28'
_cell_volume   1341.81603440
_cell_formula_units_Z   4
loop_
 _symmetry_equiv_pos_site_id
 _symmetry_equiv_pos_as_xyz
  1  'x, y, z'
loop_
 _atom_site_type_symbol
 _atom_site_label
 _atom_site_symmetry_multiplicity
 _atom_site_fract_x
 _atom_site_fract_y
 _atom_site_fract_z
 _atom_site_occupancy
  Re  Re0  1  0.25000000  0.30153300  0.63679900  1
  Re  Re1  1  0.75000000  0.69846700  0.36320100  1
  Re  Re2  1  0.25000000  0.28654700  0.13468800  1
  Re  Re3  1  0.75000000  0.71345300  0.86531200  1
  Rh  Rh0  1  0.25000000  0.78400400  0.14267700  1
  Rh  Rh1  1  0.75000000  0.21599600  0.85732300  1
  Rh  Rh2  1  0.25000000  0.76486500  0.62480900  1
  Rh  Rh3  1  0.75000000  0.23513500  0.37519100  1
  N  N0  1  0.41802500  0.70055300  0.08148100  1
  N  N1  1  0.58197500  0.29944700  0.91851900  1
  N  N2  1  0.91802500  0.29944700  0.91851900  1
  N  N3  1  0.08197500  0.70055300  0.08148100  1
  N  N4  1  0.48912300  0.80875200  0.59748800  1
  N  N5  1  0.51087700  0.19124800  0.40251200  1
  N  N6  1  0.98912300  0.19124800  0.40251200  1
  N  N7  1  0.01087700  0.80875200  0.59748800  1
  N  N8  1  0.25000000  0.63547200  0.70942300  1
  N  N9  1  0.75000000  0.36452800  0.29057700  1
  N  N10  1  0.25000000  0.70933000  0.25332800  1
  N  N11  1  0.75000000  0.29067000  0.74667200  1
  N  N12  1  0.41751800  0.91700700  0.12640200  1
  N  N13  1  0.58248200  0.08299300  0.87359800  1
  N  N14  1  0.91751800  0.08299300  0.87359800  1
  N  N15  1  0.08248200  0.91700700  0.12640200  1
  N  N16  1  0.25000000  0.71509600  0.50949100  1
  N  N17  1  0.75000000  0.28490400  0.49050900  1
  N  N18  1  0.25000000  0.90548500  0.68380800  1
  N  N19  1  0.75000000  0.09451500  0.31619200  1
  Cl  Cl0  1  0.25000000  0.90270000  0.96780400  1
  Cl  Cl1  1  0.75000000  0.09730000  0.03219600  1
  Cl  Cl2  1  0.25000000  0.46220600  0.02088300  1
  Cl  Cl3  1  0.75000000  0.53779400  0.97911700  1
  Cl  Cl4  1  0.25000000  0.96789500  0.49433100  1
  Cl  Cl5  1  0.75000000  0.03210500  0.50566900  1
  Cl  Cl6  1  0.25000000  0.25830400  0.79162400  1
  Cl  Cl7  1  0.75000000  0.74169600  0.20837600  1
  Cl  Cl8  1  0.96571900  0.28761200  0.13651100  1
  Cl  Cl9  1  0.03428100  0.71238800  0.86348900  1
  Cl  Cl10  1  0.46571900  0.71238800  0.86348900  1
  Cl  Cl11  1  0.53428100  0.28761200  0.13651100  1
  Cl  Cl12  1  0.25000000  0.34951600  0.48328600  1
  Cl  Cl13  1  0.75000000  0.65048400  0.51671400  1
  Cl  Cl14  1  0.25000000  0.11263600  0.24883800  1
  Cl  Cl15  1  0.75000000  0.88736400  0.75116200  1
  Cl  Cl16  1  0.25000000  0.17431200  0.03058600  1
  Cl  Cl17  1  0.75000000  0.82568800  0.96941400  1
  Cl  Cl18  1  0.95198600  0.84072300  0.35953700  1
  Cl  Cl19  1  0.04801400  0.15927700  0.64046300  1
  Cl  Cl20  1  0.45198600  0.15927700  0.64046300  1
  Cl  Cl21  1  0.54801400  0.84072300  0.35953700  1
  Cl  Cl22  1  0.95061000  0.55165600  0.36476000  1
  Cl  Cl23  1  0.04939000  0.44834400  0.63524000  1
  Cl  Cl24  1  0.45061000  0.44834400  0.63524000  1
  Cl  Cl25  1  0.54939000  0.55165600  0.36476000  1
  Cl  Cl26  1  0.25000000  0.40487300  0.23870400  1
  Cl  Cl27  1  0.75000000  0.59512700  0.76129600  1
loop_
_geom_bond_atom_site_label_1
_geom_bond_atom_site_label_2
_geom_bond_distance
_geom_bond_site_symmetry_2
N0 Rh0 2.002148 1_555
N0 N3 2.691619 1_555
N0 N12 2.695691 1_555
N1 Rh1 2.002148 1_555
N1 N2 2.691619 1_555
N1 N13 2.695691 1_555
N2 Rh1 2.002148 1_555
N3 Rh0 2.002148 1_555
N4 Rh2 1.996765 1_555
N5 Rh3 1.996765 1_555
N6 Rh3 1.996765 1_555
N7 Rh2 1.996765 1_555
N8 Rh2 1.698195 1_555
N9 Rh3 1.698195 1_555
N10 Rh0 1.696937 1_555
N11 Rh1 1.696937 1_555
N12 Rh0 1.983251 1_555
N12 N15 2.683498 1_555
N13 Rh1 1.983251 1_555
N13 N14 2.683498 1_555
N14 Rh1 1.983251 1_555
N14 N2 2.695691 1_555
N15 Rh0 1.983251 1_555
N15 N3 2.695691 1_555
N16 Rh2 1.979277 1_555
N16 N4 2.701541 1_555
N16 N7 2.701541 1_555
N17 Rh3 1.979277 1_555
N17 N5 2.701541 1_555
N17 N6 2.701541 1_555
N18 Rh2 2.009485 1_555
N18 N7 2.704380 1_555
N18 N4 2.704380 1_555
N19 Rh3 2.009485 1_555
N19 N6 2.704380 1_555
N19 N5 2.704380 1_555
Cl0 Rh0 2.683792 1_556
Cl0 N15 2.812846 1_556
Cl0 N12 2.812846 1_556
Cl0 N0 2.846096 1_556
Cl0 N3 2.846096 1_556
Cl0 Cl16 3.430554 1_566
Cl0 Cl9 3.439715 1_555
Cl0 Cl10 3.439715 1_555
Cl0 N13 3.446022 1_565
Cl0 N14 3.446022 1_465
Cl1 Rh1 2.683792 1_554
Cl1 N14 2.812846 1_554
Cl1 N13 2.812846 1_554
Cl1 N1 2.846096 1_554
Cl1 N2 2.846096 1_554
Cl1 Cl17 3.430554 1_544
Cl1 Cl11 3.439715 1_555
Cl1 Cl8 3.439715 1_555
Cl1 N15 3.446022 1_645
Cl1 N12 3.446022 1_545
Cl2 Re2 2.296458 1_555
Cl2 Cl26 3.236996 1_555
Cl3 Re3 2.296458 1_555
Cl4 Rh2 2.645450 1_555
Cl4 N16 2.805911 1_555
Cl4 N18 2.811910 1_555
Cl4 N7 2.828204 1_555
Cl4 N4 2.828204 1_555
Cl4 N5 3.310865 1_565
Cl4 N6 3.310865 1_465
Cl5 Rh3 2.645450 1_555
Cl5 N17 2.805911 1_555
Cl5 N19 2.811910 1_555
Cl5 N5 2.828204 1_555
Cl5 N6 2.828204 1_555
Cl5 N7 3.310865 1_645
Cl5 N4 3.310865 1_545
Cl6 Re0 2.299527 1_555
Cl7 Re1 2.299527 1_555
Cl8 Re2 2.277210 1_655
Cl9 Re3 2.277210 1_455
Cl10 Re3 2.277210 1_555
Cl10 Cl27 3.224683 1_555
Cl11 Re2 2.277210 1_555
Cl11 Cl26 3.224683 1_555
Cl12 Re0 2.278441 1_555
Cl12 N5 3.188955 1_555
Cl12 N6 3.188955 1_455
Cl12 Cl24 3.241655 1_555
Cl12 Cl23 3.241655 1_555
Cl13 Re1 2.278441 1_555
Cl13 N4 3.188955 1_555
Cl13 N7 3.188955 1_655
Cl13 Cl25 3.241655 1_555
Cl13 Cl22 3.241655 1_555
Cl14 Re2 2.286054 1_555
Cl14 Cl26 3.264395 1_555
Cl14 Cl4 3.712329 1_545
Cl15 Re3 2.286054 1_555
Cl15 Cl27 3.264395 1_555
Cl15 Cl5 3.712329 1_565
Cl16 Re2 2.265815 1_555
Cl17 Re3 2.265815 1_555
Cl18 Re1 2.270500 1_555
Cl18 Cl22 3.244510 1_555
Cl18 Cl4 3.669801 1_655
Cl19 Re0 2.270500 1_555
Cl19 Cl23 3.244510 1_555
Cl19 Cl5 3.669801 1_455
Cl20 Re0 2.270500 1_555
Cl20 Cl24 3.244510 1_555
Cl20 Cl5 3.669801 1_555
Cl21 Re1 2.270500 1_555
Cl21 Cl25 3.244510 1_555
Cl21 Cl4 3.669801 1_555
Cl22 Re1 2.304257 1_555
Cl22 N9 3.083682 1_555
Cl22 Cl25 3.213604 1_555
Cl22 N10 3.215572 1_655
Cl22 Cl7 3.224499 1_555
Cl23 Re0 2.304257 1_555
Cl23 N8 3.083682 1_555
Cl23 Cl24 3.213604 1_555
Cl23 N11 3.215572 1_455
Cl23 Cl6 3.224499 1_555
Cl24 Re0 2.304257 1_555
Cl24 N8 3.083682 1_555
Cl24 N11 3.215572 1_555
Cl24 Cl6 3.224499 1_555
Cl25 Re1 2.304257 1_555
Cl25 N9 3.083682 1_555
Cl25 N10 3.215572 1_555
Cl25 Cl7 3.224499 1_555
Cl26 Re2 2.315496 1_555
Cl26 Cl8 3.224683 1_455
Cl27 Re3 2.315496 1_555
Cl27 Cl9 3.224683 1_655
Cl27 Cl3 3.236996 1_555
