# generated using pymatgen
data_Sr4Ca4Co7CuO20
_symmetry_space_group_name_H-M   'P 1'
_cell_length_a   10.78874236
_cell_length_b   11.13527761
_cell_length_c   17.44258013
_cell_angle_alpha   108.65148792
_cell_angle_beta   108.08400942
_cell_angle_gamma   89.99760863
_symmetry_Int_Tables_number   1
_chemical_formula_structural   Sr4Ca4Co7CuO20
_chemical_formula_sum   'Sr16 Ca16 Co28 Cu4 O80'
_cell_volume   1875.85937882
_cell_formula_units_Z   4
loop_
 _symmetry_equiv_pos_site_id
 _symmetry_equiv_pos_as_xyz
  1  'x, y, z'
loop_
 _atom_site_type_symbol
 _atom_site_label
 _atom_site_symmetry_multiplicity
 _atom_site_fract_x
 _atom_site_fract_y
 _atom_site_fract_z
 _atom_site_occupancy
  Sr  Sr0  1  0.30688900  0.56203300  0.61606100  1
  Sr  Sr1  1  0.80647600  0.06163000  0.60982800  1
  Sr  Sr2  1  0.81151400  0.56291500  0.61262600  1
  Sr  Sr3  1  0.19290900  0.43543300  0.38468300  1
  Sr  Sr4  1  0.19760600  0.44364100  0.88763400  1
  Sr  Sr5  1  0.69385500  0.43571900  0.38320500  1
  Sr  Sr6  1  0.69280900  0.93589400  0.38384400  1
  Sr  Sr7  1  0.69415600  0.93655800  0.89005400  1
  Sr  Sr8  1  0.05872700  0.29799600  0.61299500  1
  Sr  Sr9  1  0.06257700  0.80165800  0.61166800  1
  Sr  Sr10  1  0.55728600  0.30280900  0.61339300  1
  Sr  Sr11  1  0.55711600  0.80433200  0.61241400  1
  Sr  Sr12  1  0.43825400  0.19748800  0.38482400  1
  Sr  Sr13  1  0.44483100  0.19612000  0.88686900  1
  Sr  Sr14  1  0.94594900  0.19605300  0.38430600  1
  Sr  Sr15  1  0.94533300  0.20223400  0.88983800  1
  Ca  Ca0  1  0.30763900  0.06774800  0.10941400  1
  Ca  Ca1  1  0.30474100  0.05674500  0.60448400  1
  Ca  Ca2  1  0.30558300  0.56986700  0.11198300  1
  Ca  Ca3  1  0.79672600  0.06443000  0.10731300  1
  Ca  Ca4  1  0.80292300  0.56659000  0.11176800  1
  Ca  Ca5  1  0.19926400  0.93245200  0.38974700  1
  Ca  Ca6  1  0.20455900  0.93321200  0.89562600  1
  Ca  Ca7  1  0.69395700  0.44029400  0.89389800  1
  Ca  Ca8  1  0.05031800  0.29242700  0.11005200  1
  Ca  Ca9  1  0.05439500  0.79448200  0.11097700  1
  Ca  Ca10  1  0.55150400  0.28795100  0.10711700  1
  Ca  Ca11  1  0.55414700  0.79275500  0.10777500  1
  Ca  Ca12  1  0.44262000  0.70887700  0.38967700  1
  Ca  Ca13  1  0.44688000  0.70522900  0.89296800  1
  Ca  Ca14  1  0.95213000  0.70489300  0.38914400  1
  Ca  Ca15  1  0.95210600  0.71189900  0.89646100  1
  Co  Co0  1  0.00934200  0.00400000  0.00663500  1
  Co  Co1  1  0.00405400  0.99763300  0.49629000  1
  Co  Co2  1  0.00702100  0.50390500  0.00962800  1
  Co  Co3  1  0.00446800  0.50082800  0.50294700  1
  Co  Co4  1  0.50493400  0.99886200  0.00175900  1
  Co  Co5  1  0.50130200  0.00026200  0.49769700  1
  Co  Co6  1  0.50634000  0.49975000  0.00168900  1
  Co  Co7  1  0.50214200  0.50030400  0.50351200  1
  Co  Co8  1  0.25931500  0.25421800  0.00780800  1
  Co  Co9  1  0.25467600  0.24989300  0.50611900  1
  Co  Co10  1  0.25596400  0.75194400  0.00205600  1
  Co  Co11  1  0.25513000  0.74987400  0.50068700  1
  Co  Co12  1  0.75654500  0.25481800  0.00824400  1
  Co  Co13  1  0.74901500  0.24684000  0.49330900  1
  Co  Co14  1  0.75520400  0.74978400  0.00088500  1
  Co  Co15  1  0.75149400  0.74758900  0.49303400  1
  Co  Co16  1  0.10512700  0.08630400  0.24417900  1
  Co  Co17  1  0.11543700  0.09181700  0.75337700  1
  Co  Co18  1  0.10649500  0.59591900  0.24711000  1
  Co  Co19  1  0.60487400  0.08722000  0.24318300  1
  Co  Co20  1  0.61049300  0.09939200  0.74986300  1
  Co  Co21  1  0.60651000  0.59296200  0.24599100  1
  Co  Co22  1  0.35634000  0.41018300  0.24630900  1
  Co  Co23  1  0.35272300  0.90020600  0.24545600  1
  Co  Co24  1  0.85623800  0.40705600  0.24546900  1
  Co  Co25  1  0.85888500  0.42058700  0.75793900  1
  Co  Co26  1  0.85964900  0.89874800  0.24357600  1
  Co  Co27  1  0.86807400  0.90398500  0.75257100  1
  Cu  Cu0  1  0.11286200  0.60572800  0.75349500  1
  Cu  Cu1  1  0.61443400  0.60782700  0.75446200  1
  Cu  Cu2  1  0.36949800  0.40666600  0.75333700  1
  Cu  Cu3  1  0.35787700  0.90367700  0.75277600  1
  O  O0  1  0.12794300  0.11979200  0.49114800  1
  O  O1  1  0.13139100  0.13303100  0.99514400  1
  O  O2  1  0.12321000  0.62310200  0.48704600  1
  O  O3  1  0.12992700  0.63423800  0.99575100  1
  O  O4  1  0.62231300  0.12715800  0.49255200  1
  O  O5  1  0.62600700  0.12605800  0.99531500  1
  O  O6  1  0.62998400  0.63003600  0.49055500  1
  O  O7  1  0.63292400  0.62692600  0.99259000  1
  O  O8  1  0.13151500  0.39234400  0.01796900  1
  O  O9  1  0.12466200  0.38069500  0.50536500  1
  O  O10  1  0.13245800  0.88968400  0.01268900  1
  O  O11  1  0.13160500  0.87616500  0.50115500  1
  O  O12  1  0.63081200  0.38815000  0.01532700  1
  O  O13  1  0.62545500  0.38217300  0.50273400  1
  O  O14  1  0.63250700  0.88220800  0.01548100  1
  O  O15  1  0.62777000  0.87773100  0.50257900  1
  O  O16  1  0.36640800  0.11104300  0.48791900  1
  O  O17  1  0.37289900  0.11126900  0.99226500  1
  O  O18  1  0.38082700  0.61796000  0.49123000  1
  O  O19  1  0.38496000  0.61612600  0.99524100  1
  O  O20  1  0.87276000  0.11780100  0.49250600  1
  O  O21  1  0.88182200  0.11349900  0.99655000  1
  O  O22  1  0.88045700  0.61424200  0.48821300  1
  O  O23  1  0.88207900  0.61092600  0.98987100  1
  O  O24  1  0.37965300  0.37863800  0.01582000  1
  O  O25  1  0.37334100  0.37488900  0.50570400  1
  O  O26  1  0.38139900  0.87511700  0.01310600  1
  O  O27  1  0.37959200  0.87682400  0.50449400  1
  O  O28  1  0.88106500  0.38391500  0.01516600  1
  O  O29  1  0.87492000  0.37523400  0.50429000  1
  O  O30  1  0.88377600  0.87281000  0.01348600  1
  O  O31  1  0.87832300  0.86878100  0.50112300  1
  O  O32  1  0.09488100  0.10108900  0.14031100  1
  O  O33  1  0.09433300  0.08514500  0.64418600  1
  O  O34  1  0.08735900  0.60771200  0.14137100  1
  O  O35  1  0.06853200  0.58500500  0.63539400  1
  O  O36  1  0.58409800  0.09900100  0.13838100  1
  O  O37  1  0.58119500  0.09231300  0.64090500  1
  O  O38  1  0.58866700  0.60674300  0.14208500  1
  O  O39  1  0.57523900  0.58432800  0.63739400  1
  O  O40  1  0.43256900  0.40738900  0.35392100  1
  O  O41  1  0.45151300  0.40963900  0.86773500  1
  O  O42  1  0.43393300  0.89982100  0.35369100  1
  O  O43  1  0.43891700  0.90440500  0.86784900  1
  O  O44  1  0.93258900  0.40369200  0.35241900  1
  O  O45  1  0.94936400  0.40074200  0.85780800  1
  O  O46  1  0.94074100  0.90098300  0.35263200  1
  O  O47  1  0.94874000  0.90076800  0.86116000  1
  O  O48  1  0.34425700  0.28969600  0.14260700  1
  O  O49  1  0.33022000  0.29164100  0.63837600  1
  O  O50  1  0.33538200  0.78745600  0.13972300  1
  O  O51  1  0.32259100  0.79881000  0.63674800  1
  O  O52  1  0.84344900  0.28786200  0.14234900  1
  O  O53  1  0.84091800  0.30779300  0.65332300  1
  O  O54  1  0.84160900  0.78261300  0.13852100  1
  O  O55  1  0.83372600  0.80001300  0.64235200  1
  O  O56  1  0.18043000  0.19628600  0.35107900  1
  O  O57  1  0.19224400  0.20941100  0.85917900  1
  O  O58  1  0.19426300  0.70182700  0.35454000  1
  O  O59  1  0.19845000  0.70713500  0.86930000  1
  O  O60  1  0.68289200  0.19352200  0.35220100  1
  O  O61  1  0.68307400  0.21186800  0.85739900  1
  O  O62  1  0.69567700  0.69520700  0.35585900  1
  O  O63  1  0.70045300  0.70488000  0.86782600  1
  O  O64  1  0.42444600  0.05575300  0.23994300  1
  O  O65  1  0.43593700  0.05410300  0.74238500  1
  O  O66  1  0.42611000  0.57257800  0.24823800  1
  O  O67  1  0.44694800  0.56991300  0.76094600  1
  O  O68  1  0.92308100  0.05624200  0.23692200  1
  O  O69  1  0.93903100  0.06173400  0.75115000  1
  O  O70  1  0.92651000  0.57047400  0.24772000  1
  O  O71  1  0.92701000  0.57549600  0.76188600  1
  O  O72  1  0.17370500  0.43279300  0.23890600  1
  O  O73  1  0.19827000  0.45415300  0.74979000  1
  O  O74  1  0.17341200  0.92579700  0.24695700  1
  O  O75  1  0.18484300  0.93579500  0.76201100  1
  O  O76  1  0.67247200  0.42905200  0.23686600  1
  O  O77  1  0.69327900  0.43835800  0.76051600  1
  O  O78  1  0.67833300  0.92723300  0.23870600  1
  O  O79  1  0.69330200  0.94602900  0.75401600  1
loop_
_geom_bond_atom_site_label_1
_geom_bond_atom_site_label_2
_geom_bond_distance
_geom_bond_site_symmetry_2
Ca0 O64 2.280974 1_555
Ca0 O48 2.354189 1_555
Ca0 O10 2.496189 1_545
Ca0 O32 2.517346 1_555
Ca0 O17 2.536251 1_554
Ca0 O26 2.565392 1_545
Ca0 O1 2.586613 1_554
Ca0 O36 2.867857 1_555
Ca1 O65 2.391993 1_555
Ca1 O49 2.485300 1_555
Ca1 O27 2.519350 1_545
Ca1 O11 2.524486 1_545
Ca1 O16 2.562851 1_555
Ca1 O33 2.562898 1_555
Ca1 O0 2.566282 1_555
Ca1 O37 2.849410 1_555
Ca1 O51 3.093499 1_545
Ca2 O50 2.315518 1_555
Ca2 O66 2.318556 1_555
Ca2 O8 2.477606 1_555
Ca2 O24 2.556130 1_555
Ca2 O34 2.567949 1_555
Ca2 O3 2.599929 1_554
Ca2 O19 2.626539 1_554
Ca2 O38 2.939151 1_555
Ca3 O68 2.279485 1_555
Ca3 O52 2.377802 1_555
Ca3 O14 2.445710 1_545
Ca3 O5 2.510618 1_554
Ca3 O36 2.518431 1_555
Ca3 O21 2.578842 1_554
Ca3 O30 2.614143 1_545
Ca4 O54 2.310729 1_555
Ca4 O70 2.318290 1_555
Ca4 O12 2.479710 1_555
Ca4 O28 2.525291 1_555
Ca4 O38 2.535819 1_555
Ca4 O7 2.581235 1_554
Ca4 O23 2.700456 1_554
Ca4 O34 2.959464 1_655
Ca5 O74 2.395243 1_555
Ca5 O58 2.438392 1_555
Ca5 O16 2.458443 1_565
Ca5 O11 2.522216 1_555
Ca5 O27 2.559320 1_555
Ca5 O0 2.560643 1_565
Ca5 O46 2.656160 1_455
Ca5 O42 2.789221 1_555
Ca6 O75 2.283163 1_555
Ca6 O59 2.407174 1_555
Ca6 O17 2.456222 1_565
Ca6 O10 2.574575 1_556
Ca6 O26 2.584218 1_556
Ca6 O47 2.634468 1_455
Ca6 O1 2.639551 1_565
Ca6 O43 2.718757 1_555
Ca7 O77 2.317455 1_555
Ca7 O61 2.409726 1_555
Ca7 O7 2.476128 1_555
Ca7 O41 2.515128 1_555
Ca7 O23 2.527514 1_555
Ca7 O12 2.640032 1_556
Ca7 O28 2.672397 1_556
Ca7 O45 3.013733 1_555
Ca8 O72 2.272073 1_555
Ca8 O32 2.368718 1_555
Ca8 O52 2.469819 1_455
Ca8 O28 2.512666 1_455
Ca8 O21 2.537086 1_454
Ca8 O8 2.569371 1_555
Ca8 O1 2.597189 1_554
Ca9 O74 2.302956 1_555
Ca9 O34 2.306720 1_555
Ca9 O30 2.458876 1_455
Ca9 O54 2.498773 1_455
Ca9 O3 2.571042 1_554
Ca9 O10 2.613657 1_555
Ca9 O23 2.626164 1_454
Ca9 O50 2.920431 1_555
Ca10 O76 2.277256 1_555
Ca10 O36 2.337235 1_555
Ca10 O24 2.487695 1_555
Ca10 O48 2.496915 1_555
Ca10 O5 2.534414 1_554
Ca10 O12 2.556075 1_555
Ca10 O17 2.584534 1_554
Ca10 O52 3.016140 1_555
Ca11 O78 2.272935 1_555
Ca11 O38 2.332711 1_555
Ca11 O26 2.469662 1_555
Ca11 O14 2.483777 1_555
Ca11 O19 2.521838 1_554
Ca11 O50 2.592706 1_555
Ca11 O7 2.618333 1_554
Ca11 O54 2.987457 1_555
Ca12 O42 2.395969 1_555
Ca12 O66 2.398723 1_555
Ca12 O27 2.533846 1_555
Ca12 O18 2.547008 1_555
Ca12 O58 2.551671 1_555
Ca12 O15 2.567758 1_555
Ca12 O6 2.594750 1_555
Ca12 O62 2.960958 1_555
Ca13 O67 2.314081 1_555
Ca13 O43 2.390921 1_555
Ca13 O19 2.546574 1_555
Ca13 O7 2.571411 1_555
Ca13 O59 2.583268 1_555
Ca13 O26 2.617701 1_556
Ca13 O14 2.666603 1_556
Ca13 O63 2.901776 1_555
Ca14 O70 2.370011 1_555
Ca14 O46 2.455462 1_555
Ca14 O2 2.488019 1_655
Ca14 O31 2.542637 1_555
Ca14 O11 2.544033 1_655
Ca14 O22 2.558951 1_555
Ca14 O62 2.639438 1_555
Ca14 O58 2.855755 1_655
Ca15 O71 2.283705 1_555
Ca15 O47 2.370216 1_555
Ca15 O3 2.514526 1_655
Ca15 O23 2.534887 1_555
Ca15 O30 2.552498 1_556
Ca15 O63 2.600015 1_555
Ca15 O10 2.607579 1_656
Ca15 O59 2.838390 1_655
Co0 O10 1.842438 1_545
Co0 O21 1.843154 1_454
Co0 O1 2.046119 1_554
Co0 O30 2.048380 1_445
Co0 O32 2.123427 1_555
Co0 O47 2.300430 1_444
Co1 O11 1.931613 1_555
Co1 O0 1.948722 1_565
Co1 O20 1.949265 1_465
Co1 O31 2.013534 1_455
Co1 O46 2.261913 1_455
Co1 O33 2.320635 1_565
Co2 O23 1.824856 1_454
Co2 O8 1.833723 1_555
Co2 O28 1.950738 1_455
Co2 O3 2.085002 1_554
Co2 O34 2.105352 1_555
Co2 O45 2.398087 1_454
Co3 O22 1.856067 1_455
Co3 O9 1.864078 1_555
Co3 O29 1.987792 1_455
Co3 O2 2.008529 1_555
Co3 O35 2.077764 1_555
Co3 O44 2.363174 1_455
Co4 O17 1.899814 1_564
Co4 O14 1.906086 1_555
Co4 O5 1.979412 1_564
Co4 O26 2.013096 1_555
Co4 O43 2.113083 1_554
Co4 O36 2.165316 1_565
Co5 O16 1.910270 1_555
Co5 O15 1.931989 1_545
Co5 O27 1.956683 1_545
Co5 O4 1.965493 1_555
Co5 O37 2.249201 1_555
Co5 O42 2.271177 1_545
Co6 O12 1.842519 1_555
Co6 O19 1.846208 1_554
Co6 O24 2.041950 1_555
Co6 O7 2.043089 1_554
Co6 O41 2.111497 1_554
Co6 O38 2.233582 1_555
Co7 O18 1.865663 1_555
Co7 O13 1.870857 1_555
Co7 O25 1.987473 1_555
Co7 O39 2.099981 1_555
Co7 O6 2.107797 1_555
Co7 O40 2.345104 1_555
Co8 O24 1.840719 1_555
Co8 O1 1.842505 1_554
Co8 O17 2.009725 1_554
Co8 O8 2.067690 1_555
Co8 O48 2.142997 1_555
Co8 O57 2.345535 1_554
Co9 O0 1.890229 1_555
Co9 O25 1.894391 1_555
Co9 O16 1.966694 1_555
Co9 O9 2.022319 1_555
Co9 O49 2.085427 1_555
Co9 O56 2.435955 1_555
Co10 O3 1.842313 1_554
Co10 O26 1.849016 1_555
Co10 O10 2.033138 1_555
Co10 O19 2.055670 1_554
Co10 O59 2.089260 1_554
Co10 O50 2.184482 1_555
Co11 O2 1.910520 1_555
Co11 O27 1.921089 1_555
Co11 O11 1.937265 1_555
Co11 O18 2.001910 1_555
Co11 O51 2.135300 1_555
Co11 O58 2.303089 1_555
Co12 O28 1.916842 1_555
Co12 O5 1.919943 1_554
Co12 O12 2.011520 1_555
Co12 O21 2.076138 1_554
Co12 O52 2.138686 1_555
Co12 O61 2.383326 1_554
Co13 O29 1.894559 1_555
Co13 O4 1.903287 1_555
Co13 O20 1.961065 1_555
Co13 O13 2.013070 1_555
Co13 O60 2.212383 1_555
Co13 O53 2.510797 1_555
Co14 O7 1.840645 1_554
Co14 O30 1.862105 1_555
Co14 O14 1.990086 1_555
Co14 O23 2.067478 1_554
Co14 O63 2.095739 1_554
Co14 O54 2.194411 1_555
Co15 O6 1.833746 1_555
Co15 O31 1.863303 1_555
Co15 O15 1.973081 1_555
Co15 O22 2.034777 1_555
Co15 O62 2.154216 1_555
Co15 O55 2.346124 1_555
Co16 O56 1.798796 1_555
Co16 O32 1.840685 1_555
Co16 O74 1.942322 1_545
Co16 O68 1.950428 1_455
Co17 O57 1.819908 1_555
Co17 O33 1.823469 1_555
Co17 O69 1.918781 1_455
Co17 O75 1.923279 1_545
Co18 O58 1.812126 1_555
Co18 O34 1.838493 1_555
Co18 O72 1.934894 1_555
Co18 O70 1.966171 1_455
Co19 O60 1.814457 1_555
Co19 O36 1.818819 1_555
Co19 O78 1.938366 1_545
Co19 O64 1.958132 1_555
Co20 O37 1.802579 1_555
Co20 O61 1.812648 1_555
Co20 O65 1.903532 1_555
Co20 O79 1.938715 1_545
Co21 O38 1.818419 1_555
Co21 O62 1.831451 1_555
Co21 O76 1.935838 1_555
Co21 O66 1.973368 1_555
Co22 O40 1.810958 1_555
Co22 O48 1.841270 1_555
Co22 O66 1.945046 1_555
Co22 O72 1.955848 1_555
Co23 O42 1.819369 1_555
Co23 O50 1.821362 1_555
Co23 O64 1.939300 1_565
Co23 O74 1.962387 1_555
Co24 O44 1.802961 1_555
Co24 O52 1.826161 1_555
Co24 O70 1.955400 1_555
Co24 O76 1.962651 1_555
Co25 O45 1.796305 1_555
Co25 O53 1.805371 1_555
Co25 O77 1.810399 1_555
Co25 O71 1.847469 1_555
Co26 O46 1.822364 1_555
Co26 O54 1.825086 1_555
Co26 O68 1.933135 1_565
Co26 O78 1.961747 1_555
Co27 O55 1.818743 1_555
Co27 O47 1.834729 1_555
Co27 O69 1.926647 1_565
Co27 O79 1.948609 1_555
Cu0 O59 1.895019 1_555
Cu0 O35 1.899959 1_555
Cu0 O73 1.915484 1_555
Cu0 O71 2.090210 1_455
Cu1 O63 1.852873 1_555
Cu1 O39 1.881250 1_555
Cu1 O67 1.900953 1_555
Cu1 O77 2.089828 1_555
Cu2 O41 1.904538 1_555
Cu2 O73 1.909443 1_555
Cu2 O49 1.915919 1_555
Cu2 O67 1.948637 1_555
Cu3 O51 1.901185 1_555
Cu3 O43 1.921806 1_555
Cu3 O75 1.946447 1_555
Cu3 O65 1.958802 1_565
O0 Sr14 2.605727 1_455
O0 Sr8 2.701841 1_555
O1 Sr15 2.571624 1_455
O2 Sr3 2.562665 1_555
O2 Sr9 2.687841 1_555
O2 Sr0 2.768337 1_555
O3 Sr4 2.624617 1_555
O4 Sr12 2.590758 1_555
O4 Sr6 2.649893 1_545
O4 Sr10 2.653588 1_555
O4 Sr1 2.663821 1_555
O5 Sr13 2.579879 1_555
O5 Sr7 2.593088 1_545
O6 Sr5 2.621508 1_555
O6 Sr11 2.702111 1_555
O6 Sr2 2.712345 1_555
O8 Sr15 2.774568 1_454
O8 Sr4 2.799988 1_554
O9 Sr8 2.610246 1_555
O9 Sr0 2.611614 1_555
O9 Sr14 2.664480 1_455
O9 Sr3 2.669762 1_555
O11 Sr9 2.621625 1_555
O12 Sr13 2.786318 1_554
O13 Sr2 2.626453 1_555
O13 Sr5 2.645221 1_555
O13 Sr10 2.649507 1_555
O13 Sr12 2.693405 1_555
O14 Sr7 2.710218 1_554
O15 Sr1 2.592499 1_565
O15 Sr11 2.612964 1_555
O15 Sr6 2.638416 1_555
O16 Sr12 2.594928 1_555
O16 Sr10 2.793499 1_555
O17 Sr13 2.621336 1_555
O18 Sr3 2.634458 1_555
O18 Sr11 2.662872 1_555
O18 Sr0 2.776828 1_555
O19 Sr4 2.576191 1_555
O20 Sr6 2.593221 1_545
O20 Sr1 2.611060 1_555
O20 Sr14 2.630912 1_555
O20 Sr8 2.674648 1_655
O21 Sr7 2.599302 1_545
O21 Sr15 2.622708 1_555
O22 Sr5 2.596487 1_555
O22 Sr9 2.711476 1_655
O22 Sr2 2.717464 1_555
O24 Sr4 2.772981 1_554
O24 Sr13 2.782450 1_554
O25 Sr10 2.600160 1_555
O25 Sr0 2.617789 1_555
O25 Sr3 2.656869 1_555
O25 Sr12 2.662862 1_555
O27 Sr11 2.568424 1_555
O28 Sr15 2.732125 1_554
O29 Sr2 2.585109 1_555
O29 Sr8 2.641208 1_655
O29 Sr5 2.660584 1_555
O29 Sr14 2.696811 1_555
O30 Sr7 2.750879 1_554
O31 Sr9 2.601977 1_655
O31 Sr1 2.667471 1_565
O31 Sr6 2.680466 1_555
O33 Sr8 2.599260 1_555
O33 Sr1 2.969310 1_455
O33 Sr9 3.022931 1_545
O35 Sr9 2.572466 1_555
O35 Sr2 2.676027 1_455
O35 Sr0 2.697271 1_555
O35 Sr8 3.090871 1_555
O37 Sr10 2.536413 1_555
O37 Sr1 2.649016 1_555
O37 Sr11 3.081931 1_545
O39 Sr11 2.619053 1_555
O39 Sr2 2.712785 1_555
O39 Sr0 2.802535 1_555
O39 Sr10 3.024897 1_555
O40 Sr12 2.557854 1_555
O40 Sr5 2.703698 1_555
O40 Sr3 2.797315 1_555
O41 Sr13 2.508393 1_555
O41 Sr4 2.876443 1_555
O42 Sr6 2.681703 1_555
O42 Sr12 3.180671 1_565
O43 Sr7 2.666525 1_555
O43 Sr13 3.156477 1_565
O44 Sr14 2.539440 1_555
O44 Sr3 2.687204 1_655
O44 Sr5 2.790258 1_555
O45 Sr15 2.450523 1_555
O45 Sr4 2.578341 1_655
O46 Sr6 2.893282 1_555
O46 Sr14 3.150204 1_565
O47 Sr7 2.947489 1_555
O49 Sr10 2.627565 1_555
O49 Sr8 2.827618 1_555
O49 Sr0 3.157376 1_555
O51 Sr0 2.542442 1_555
O51 Sr11 2.696190 1_555
O51 Sr9 2.703455 1_555
O53 Sr1 2.592715 1_555
O53 Sr8 2.646840 1_655
O53 Sr10 2.916183 1_555
O53 Sr2 3.134483 1_555
O55 Sr2 2.518729 1_555
O55 Sr9 2.685045 1_655
O55 Sr11 2.868705 1_555
O55 Sr1 3.138205 1_565
O56 Sr3 2.530960 1_555
O56 Sr12 2.657524 1_555
O56 Sr14 2.765275 1_455
O57 Sr4 2.491316 1_555
O57 Sr13 2.628669 1_555
O57 Sr15 2.881018 1_455
O58 Sr3 3.174642 1_555
O59 Sr4 3.051743 1_555
O60 Sr5 2.570472 1_555
O60 Sr14 2.715176 1_555
O60 Sr12 2.864986 1_555
O60 Sr6 3.085763 1_545
O61 Sr15 2.717040 1_555
O61 Sr13 2.789191 1_555
O62 Sr6 2.568042 1_555
O62 Sr5 3.076413 1_555
O63 Sr7 2.487342 1_555
O64 Sr12 2.472760 1_555
O65 Sr13 2.482346 1_555
O67 Sr0 2.482946 1_555
O68 Sr14 2.477852 1_555
O69 Sr15 2.404451 1_555
O69 Sr1 2.435395 1_555
O71 Sr2 2.470448 1_555
O72 Sr3 2.476768 1_555
O73 Sr4 2.446504 1_555
O73 Sr8 2.469757 1_555
O75 Sr9 2.489003 1_555
O76 Sr5 2.467257 1_555
O77 Sr10 2.490282 1_555
O78 Sr6 2.457839 1_555
O79 Sr7 2.405854 1_555
O79 Sr11 2.450171 1_555
