# generated using pymatgen
data_TaH24C8N4Cl
_symmetry_space_group_name_H-M   'P 1'
_cell_length_a   9.08014700
_cell_length_b   12.57755900
_cell_length_c   16.08476487
_cell_angle_alpha   90.00000000
_cell_angle_beta   111.43022273
_cell_angle_gamma   90.00000000
_symmetry_Int_Tables_number   1
_chemical_formula_structural   TaH24C8N4Cl
_chemical_formula_sum   'Ta4 H96 C32 N16 Cl4'
_cell_volume   1709.97527050
_cell_formula_units_Z   4
loop_
 _symmetry_equiv_pos_site_id
 _symmetry_equiv_pos_as_xyz
  1  'x, y, z'
loop_
 _atom_site_type_symbol
 _atom_site_label
 _atom_site_symmetry_multiplicity
 _atom_site_fract_x
 _atom_site_fract_y
 _atom_site_fract_z
 _atom_site_occupancy
  Ta  Ta0  1  0.80569200  0.28367700  0.62078300  1
  Ta  Ta1  1  0.80569200  0.21632300  0.12078300  1
  Ta  Ta2  1  0.19430800  0.71632300  0.37921700  1
  Ta  Ta3  1  0.19430800  0.78367700  0.87921700  1
  H  H0  1  0.58618400  0.30866000  0.78500800  1
  H  H1  1  0.58618400  0.19134000  0.28500800  1
  H  H2  1  0.41381600  0.69134000  0.21499200  1
  H  H3  1  0.41381600  0.80866000  0.71499200  1
  H  H4  1  0.54043600  0.36790700  0.67706400  1
  H  H5  1  0.54043600  0.13209300  0.17706400  1
  H  H6  1  0.45956400  0.63209300  0.32293600  1
  H  H7  1  0.45956400  0.86790700  0.82293600  1
  H  H8  1  0.66829200  0.43444600  0.77462300  1
  H  H9  1  0.66829200  0.06555400  0.27462300  1
  H  H10  1  0.33170800  0.56555400  0.22537700  1
  H  H11  1  0.33170800  0.93444600  0.72537700  1
  H  H12  1  0.92902700  0.35241000  0.86099700  1
  H  H13  1  0.92902700  0.14759000  0.36099700  1
  H  H14  1  0.07097300  0.64759000  0.13900300  1
  H  H15  1  0.07097300  0.85241000  0.63900300  1
  H  H16  1  0.98870100  0.23514700  0.81844800  1
  H  H17  1  0.98870100  0.26485300  0.31844800  1
  H  H18  1  0.01129900  0.76485300  0.18155200  1
  H  H19  1  0.01129900  0.73514700  0.68155200  1
  H  H20  1  0.83288500  0.22912300  0.86104700  1
  H  H21  1  0.83288500  0.27087700  0.36104700  1
  H  H22  1  0.16711500  0.77087700  0.13895300  1
  H  H23  1  0.16711500  0.72912300  0.63895300  1
  H  H24  1  0.20239200  0.36510000  0.61826600  1
  H  H25  1  0.20239200  0.13490000  0.11826600  1
  H  H26  1  0.79760800  0.63490000  0.38173400  1
  H  H27  1  0.79760800  0.86510000  0.88173400  1
  H  H28  1  0.01978300  0.37933600  0.52761300  1
  H  H29  1  0.01978300  0.12066400  0.02761300  1
  H  H30  1  0.98021700  0.62066400  0.47238700  1
  H  H31  1  0.98021700  0.87933600  0.97238700  1
  H  H32  1  0.14595000  0.26912900  0.53080400  1
  H  H33  1  0.14595000  0.23087100  0.03080400  1
  H  H34  1  0.85405000  0.73087100  0.46919600  1
  H  H35  1  0.85405000  0.76912900  0.96919600  1
  H  H36  1  0.16197300  0.11980100  0.62323200  1
  H  H37  1  0.16197300  0.38019900  0.12323200  1
  H  H38  1  0.83802700  0.88019900  0.37676800  1
  H  H39  1  0.83802700  0.61980100  0.87676800  1
  H  H40  1  0.08411300  0.12623800  0.71052600  1
  H  H41  1  0.08411300  0.37376200  0.21052600  1
  H  H42  1  0.91588700  0.87376200  0.28947400  1
  H  H43  1  0.91588700  0.62623800  0.78947400  1
  H  H44  1  0.24527700  0.20913500  0.71363000  1
  H  H45  1  0.24527700  0.29086500  0.21363000  1
  H  H46  1  0.75472300  0.79086500  0.28637000  1
  H  H47  1  0.75472300  0.70913500  0.78637000  1
  H  H48  1  0.57311300  0.36604400  0.37237900  1
  H  H49  1  0.57311300  0.13395600  0.87237900  1
  H  H50  1  0.42688700  0.63395600  0.62762100  1
  H  H51  1  0.42688700  0.86604400  0.12762100  1
  H  H52  1  0.72909800  0.43946300  0.45328700  1
  H  H53  1  0.72909800  0.06053700  0.95328700  1
  H  H54  1  0.27090200  0.56053700  0.54671300  1
  H  H55  1  0.27090200  0.93946300  0.04671300  1
  H  H56  1  0.52789100  0.46219400  0.43996200  1
  H  H57  1  0.52789100  0.03780600  0.93996200  1
  H  H58  1  0.47210900  0.53780600  0.56003800  1
  H  H59  1  0.47210900  0.96219400  0.06003800  1
  H  H60  1  0.37542900  0.31343400  0.46163200  1
  H  H61  1  0.37542900  0.18656600  0.96163200  1
  H  H62  1  0.62457100  0.68656600  0.53836800  1
  H  H63  1  0.62457100  0.81343400  0.03836800  1
  H  H64  1  0.47268400  0.19897400  0.52358800  1
  H  H65  1  0.47268400  0.30102600  0.02358800  1
  H  H66  1  0.52731600  0.80102600  0.47641200  1
  H  H67  1  0.52731600  0.69897400  0.97641200  1
  H  H68  1  0.45843100  0.21741200  0.41060900  1
  H  H69  1  0.45843100  0.28258800  0.91060900  1
  H  H70  1  0.54156900  0.78258800  0.58939100  1
  H  H71  1  0.54156900  0.71741200  0.08939100  1
  H  H72  1  0.85056700  0.98768700  0.57919600  1
  H  H73  1  0.85056700  0.51231300  0.07919600  1
  H  H74  1  0.14943300  0.01231300  0.42080400  1
  H  H75  1  0.14943300  0.48768700  0.92080400  1
  H  H76  1  0.82682000  0.10044700  0.50741000  1
  H  H77  1  0.82682000  0.39955300  0.00741000  1
  H  H78  1  0.17318000  0.89955300  0.49259000  1
  H  H79  1  0.17318000  0.60044700  0.99259000  1
  H  H80  1  0.65890000  0.02447800  0.50521500  1
  H  H81  1  0.65890000  0.47552200  0.00521500  1
  H  H82  1  0.34110000  0.97552200  0.49478500  1
  H  H83  1  0.34110000  0.52447800  0.99478500  1
  H  H84  1  0.58537200  0.02095300  0.63361000  1
  H  H85  1  0.58537200  0.47904700  0.13361000  1
  H  H86  1  0.41462800  0.97904700  0.36639000  1
  H  H87  1  0.41462800  0.52095300  0.86639000  1
  H  H88  1  0.67385500  0.11141100  0.72408300  1
  H  H89  1  0.67385500  0.38858900  0.22408300  1
  H  H90  1  0.32614500  0.88858900  0.27591700  1
  H  H91  1  0.32614500  0.61141100  0.77591700  1
  H  H92  1  0.78223700  0.99903800  0.70895200  1
  H  H93  1  0.78223700  0.50096200  0.20895200  1
  H  H94  1  0.21776300  0.00096200  0.29104800  1
  H  H95  1  0.21776300  0.49903800  0.79104800  1
  C  C0  1  0.63431400  0.35567600  0.74273200  1
  C  C1  1  0.63431400  0.14432400  0.24273200  1
  C  C2  1  0.36568600  0.64432400  0.25726800  1
  C  C3  1  0.36568600  0.85567600  0.75726800  1
  C  C4  1  0.88633800  0.27832900  0.82272800  1
  C  C5  1  0.88633800  0.22167100  0.32272800  1
  C  C6  1  0.11366200  0.72167100  0.17727200  1
  C  C7  1  0.11366200  0.77832900  0.67727200  1
  C  C8  1  0.10003100  0.32101300  0.57138400  1
  C  C9  1  0.10003100  0.17898700  0.07138400  1
  C  C10  1  0.89996900  0.67898700  0.42861600  1
  C  C11  1  0.89996900  0.82101300  0.92861600  1
  C  C12  1  0.13220100  0.17368100  0.66935100  1
  C  C13  1  0.13220100  0.32631900  0.16935100  1
  C  C14  1  0.86779900  0.82631900  0.33064900  1
  C  C15  1  0.86779900  0.67368100  0.83064900  1
  C  C16  1  0.61509700  0.40064900  0.44031000  1
  C  C17  1  0.61509700  0.09935100  0.94031000  1
  C  C18  1  0.38490300  0.59935100  0.55969000  1
  C  C19  1  0.38490300  0.90064900  0.05969000  1
  C  C20  1  0.47617300  0.25830700  0.47455300  1
  C  C21  1  0.47617300  0.24169300  0.97455300  1
  C  C22  1  0.52382700  0.74169300  0.52544700  1
  C  C23  1  0.52382700  0.75830700  0.02544700  1
  C  C24  1  0.77460600  0.05685300  0.54901900  1
  C  C25  1  0.77460600  0.44314700  0.04901900  1
  C  C26  1  0.22539400  0.94314700  0.45098100  1
  C  C27  1  0.22539400  0.55685300  0.95098100  1
  C  C28  1  0.69661100  0.06173600  0.67411300  1
  C  C29  1  0.69661100  0.43826400  0.17411300  1
  C  C30  1  0.30338900  0.93826400  0.32588700  1
  C  C31  1  0.30338900  0.56173600  0.82588700  1
  N  N0  1  0.77033400  0.30202400  0.73477700  1
  N  N1  1  0.77033400  0.19797600  0.23477700  1
  N  N2  1  0.22966600  0.69797600  0.26522300  1
  N  N3  1  0.22966600  0.80202400  0.76522300  1
  N  N4  1  0.02364000  0.25688800  0.61977000  1
  N  N5  1  0.02364000  0.24311200  0.11977000  1
  N  N6  1  0.97636000  0.74311200  0.38023000  1
  N  N7  1  0.97636000  0.75688800  0.88023000  1
  N  N8  1  0.62528700  0.31735800  0.50568500  1
  N  N9  1  0.62528700  0.18264200  0.00568500  1
  N  N10  1  0.37471300  0.68264200  0.49431500  1
  N  N11  1  0.37471300  0.81735800  0.99431500  1
  N  N12  1  0.75638800  0.12553900  0.61772800  1
  N  N13  1  0.75638800  0.37446100  0.11772800  1
  N  N14  1  0.24361200  0.87446100  0.38227200  1
  N  N15  1  0.24361200  0.62553900  0.88227200  1
  Cl  Cl0  1  0.86947100  0.47763300  0.62693600  1
  Cl  Cl1  1  0.86947100  0.02236700  0.12693600  1
  Cl  Cl2  1  0.13052900  0.52236700  0.37306400  1
  Cl  Cl3  1  0.13052900  0.97763300  0.87306400  1
loop_
_geom_bond_atom_site_label_1
_geom_bond_atom_site_label_2
_geom_bond_distance
_geom_bond_site_symmetry_2
C0 H4 1.099104 1_555
C0 H0 1.104646 1_555
C0 H8 1.106446 1_555
C0 N0 1.453496 1_555
C1 H5 1.099104 1_555
C1 H1 1.104646 1_555
C1 H9 1.106446 1_555
C1 N1 1.453496 1_555
C2 H6 1.099104 1_555
C2 H2 1.104646 1_555
C2 H10 1.106446 1_555
C2 N2 1.453496 1_555
C3 H7 1.099104 1_555
C3 H3 1.104646 1_555
C3 H11 1.106446 1_555
C3 N3 1.453496 1_555
C4 H16 1.100181 1_555
C4 H20 1.103220 1_555
C4 H12 1.105880 1_555
C4 N0 1.452839 1_555
C5 H17 1.100181 1_555
C5 H21 1.103220 1_555
C5 H13 1.105880 1_555
C5 N1 1.452839 1_555
C6 H18 1.100181 1_555
C6 H22 1.103220 1_555
C6 H14 1.105880 1_555
C6 N2 1.452839 1_555
C7 H19 1.100181 1_555
C7 H23 1.103220 1_555
C7 H15 1.105880 1_555
C7 N3 1.452839 1_555
C8 H28 1.090810 1_555
C8 H32 1.106624 1_555
C8 H24 1.108081 1_555
C8 N4 1.460082 1_555
C9 H29 1.090810 1_555
C9 H33 1.106624 1_555
C9 H25 1.108081 1_555
C9 N5 1.460082 1_555
C10 H30 1.090810 1_555
C10 H34 1.106624 1_555
C10 H26 1.108081 1_555
C10 N6 1.460082 1_555
C11 H31 1.090810 1_555
C11 H35 1.106624 1_555
C11 H27 1.108081 1_555
C11 N7 1.460082 1_555
C12 H40 1.093928 1_555
C12 H44 1.107226 1_555
C12 H36 1.108673 1_555
C12 N4 1.458937 1_555
C13 H41 1.093928 1_555
C13 H45 1.107226 1_555
C13 H37 1.108673 1_555
C13 N5 1.458937 1_555
C14 H42 1.093928 1_555
C14 H46 1.107226 1_555
C14 H38 1.108673 1_555
C14 N6 1.458937 1_555
C15 H43 1.093928 1_555
C15 H47 1.107226 1_555
C15 H39 1.108673 1_555
C15 N7 1.458937 1_555
C16 H52 1.093404 1_555
C16 H56 1.105901 1_555
C16 H48 1.106472 1_555
C16 N8 1.463101 1_555
C17 H53 1.093404 1_555
C17 H57 1.105901 1_555
C17 H49 1.106472 1_555
C17 N9 1.463101 1_556
C18 H54 1.093404 1_555
C18 H58 1.105901 1_555
C18 H50 1.106472 1_555
C18 N10 1.463101 1_555
C19 H55 1.093404 1_555
C19 H59 1.105901 1_555
C19 H51 1.106472 1_555
C19 N11 1.463101 1_554
C20 H64 1.094645 1_555
C20 H60 1.105362 1_555
C20 H68 1.107836 1_555
C20 N8 1.462939 1_555
C21 H65 1.094645 1_556
C21 H61 1.105362 1_555
C21 H69 1.107836 1_555
C21 N9 1.462939 1_556
C22 H66 1.094645 1_555
C22 H62 1.105362 1_555
C22 H70 1.107836 1_555
C22 N10 1.462939 1_555
C23 H67 1.094645 1_554
C23 H63 1.105362 1_555
C23 H71 1.107836 1_555
C23 N11 1.462939 1_554
C24 H76 1.097822 1_555
C24 H72 1.106115 1_545
C24 H80 1.106857 1_555
C24 N12 1.459000 1_555
C25 H77 1.097822 1_555
C25 H73 1.106115 1_555
C25 H81 1.106857 1_555
C25 N13 1.459000 1_555
C26 H78 1.097822 1_555
C26 H74 1.106115 1_565
C26 H82 1.106857 1_555
C26 N14 1.459000 1_555
C27 H79 1.097822 1_555
C27 H75 1.106115 1_555
C27 H83 1.106857 1_555
C27 N15 1.459000 1_555
C28 H88 1.095646 1_555
C28 H92 1.105450 1_545
C28 H84 1.107668 1_555
C28 N12 1.456317 1_555
C29 H89 1.095646 1_555
C29 H93 1.105450 1_555
C29 H85 1.107668 1_555
C29 N13 1.456317 1_555
C30 H90 1.095646 1_555
C30 H94 1.105450 1_565
C30 H86 1.107668 1_555
C30 N14 1.456317 1_555
C31 H91 1.095646 1_555
C31 H95 1.105450 1_555
C31 H87 1.107668 1_555
C31 N15 1.456317 1_555
N0 Ta0 1.987074 1_555
N1 Ta1 1.987074 1_555
N2 Ta2 1.987074 1_555
N3 Ta3 1.987074 1_555
N4 Ta0 2.013405 1_455
N5 Ta1 2.013405 1_455
N6 Ta2 2.013405 1_655
N7 Ta3 2.013405 1_655
N8 Ta0 2.018457 1_555
N9 Ta1 2.018457 1_555
N10 Ta2 2.018457 1_555
N11 Ta3 2.018457 1_555
N12 Ta0 2.035398 1_555
N13 Ta1 2.035398 1_555
N14 Ta2 2.035398 1_555
N15 Ta3 2.035398 1_555
Cl0 Ta0 2.500884 1_555
Cl0 H52 2.656131 1_555
Cl0 H28 2.745358 1_655
Cl0 H43 3.114636 1_555
Cl0 N0 3.136663 1_555
Cl0 H95 3.307851 1_655
Cl0 H62 3.400767 1_555
Cl0 H58 3.451380 1_555
Cl0 H19 3.477638 1_655
Cl0 H30 3.500549 1_555
Cl1 Ta1 2.500884 1_555
Cl1 H53 2.656131 1_554
Cl1 H29 2.745358 1_655
Cl1 H42 3.114636 1_545
Cl1 N1 3.136663 1_555
Cl1 H94 3.307851 1_655
Cl1 H63 3.400767 1_545
Cl1 H59 3.451380 1_545
Cl1 H18 3.477638 1_645
Cl1 H31 3.500549 1_544
Cl2 Ta2 2.500884 1_555
Cl2 H54 2.656131 1_555
Cl2 H30 2.745358 1_455
Cl2 H41 3.114636 1_555
Cl2 N2 3.136663 1_555
Cl2 H93 3.307851 1_455
Cl2 H60 3.400767 1_555
Cl2 H56 3.451380 1_555
Cl2 H17 3.477638 1_455
Cl2 H28 3.500549 1_555
Cl3 Ta3 2.500884 1_555
Cl3 H55 2.656131 1_556
Cl3 H31 2.745358 1_455
Cl3 H40 3.114636 1_565
Cl3 N3 3.136663 1_555
Cl3 H92 3.307851 1_455
Cl3 H61 3.400767 1_565
Cl3 H57 3.451380 1_565
Cl3 H16 3.477638 1_465
Cl3 H29 3.500549 1_566
