# generated using pymatgen
data_Sr2YTi2GaO7
_symmetry_space_group_name_H-M   'P 1'
_cell_length_a   12.30860117
_cell_length_b   12.30860117
_cell_length_c   12.30860117
_cell_angle_alpha   154.06182322
_cell_angle_beta   153.52961266
_cell_angle_gamma   37.39841825
_symmetry_Int_Tables_number   1
_chemical_formula_structural   Sr2YTi2GaO7
_chemical_formula_sum   'Sr4 Y2 Ti4 Ga2 O14'
_cell_volume   363.03196469
_cell_formula_units_Z   2
loop_
 _symmetry_equiv_pos_site_id
 _symmetry_equiv_pos_as_xyz
  1  'x, y, z'
loop_
 _atom_site_type_symbol
 _atom_site_label
 _atom_site_symmetry_multiplicity
 _atom_site_fract_x
 _atom_site_fract_y
 _atom_site_fract_z
 _atom_site_occupancy
  Sr  Sr0  1  0.36911100  0.83861700  0.51716200  1
  Sr  Sr1  1  0.63088900  0.14805100  0.46950700  1
  Sr  Sr2  1  0.82145600  0.33861700  0.46950700  1
  Sr  Sr3  1  0.17854400  0.64805100  0.51716200  1
  Y  Y0  1  0.00000000  0.50126800  0.50126800  1
  Y  Y1  1  0.50000000  0.00126800  0.50126800  1
  Ti  Ti0  1  0.56095800  0.56099900  0.00102500  1
  Ti  Ti1  1  0.94002700  0.94006800  0.00102500  1
  Ti  Ti2  1  0.05997300  0.06099900  0.00004100  1
  Ti  Ti3  1  0.43904200  0.44006800  0.00004100  1
  Ga  Ga0  1  0.82003400  0.71224900  0.03228300  1
  Ga  Ga1  1  0.17996600  0.21224900  0.89221500  1
  O  O0  1  0.68548100  0.68182900  0.50070000  1
  O  O1  1  0.87432200  0.36558200  0.73990400  1
  O  O2  1  0.68113000  0.18182900  0.99634800  1
  O  O3  1  0.22466100  0.20130500  0.07187600  1
  O  O4  1  0.81562500  0.82116400  0.50110300  1
  O  O5  1  0.82006000  0.32116400  0.00553900  1
  O  O6  1  0.12567800  0.86558200  0.49126000  1
  O  O7  1  0.31887000  0.31521900  0.50070000  1
  O  O8  1  0.31451900  0.81521900  0.99634800  1
  O  O9  1  0.62942900  0.70130500  0.97664400  1
  O  O10  1  0.77533900  0.84721500  0.97664400  1
  O  O11  1  0.37057100  0.34721500  0.07187600  1
  O  O12  1  0.18437500  0.68547800  0.00553900  1
  O  O13  1  0.17994000  0.18547800  0.50110300  1
loop_
_geom_bond_atom_site_label_1
_geom_bond_atom_site_label_2
_geom_bond_distance
_geom_bond_site_symmetry_2
Ga0 O9 1.857675 1_554
Ga0 O10 1.857675 1_554
Ga0 O6 1.919657 1_655
Ga0 O1 1.939526 1_554
Ga1 O11 1.857675 1_556
Ga1 O3 1.857675 1_556
Ga1 O1 1.919657 1_455
Ga1 O6 1.939526 1_545
O0 Ti1 1.979452 1_556
O0 Ti3 1.981455 1_555
O0 Y0 2.497103 1_655
O0 Y1 2.527528 1_565
O0 Sr0 2.774577 1_555
O0 Sr2 2.791804 1_555
O1 Sr2 2.467727 1_555
O1 Sr1 2.467738 1_555
O2 Ti3 1.979458 1_556
O2 Ti1 1.981451 1_546
O2 Y1 2.497096 1_555
O2 Y0 2.527521 1_656
O2 Sr2 2.774588 1_556
O2 Sr0 2.791810 1_545
O3 Sr1 2.476757 1_555
O3 Sr3 2.646689 1_555
O3 Ti2 2.735007 1_555
O3 Sr3 2.982082 1_544
O3 Sr1 3.266984 1_454
O4 Ti2 1.976813 1_666
O4 Ti0 1.980547 1_555
O4 Y1 2.515807 1_565
O4 Y0 2.542125 1_655
O4 Sr1 2.864460 1_565
O4 Sr3 2.930379 1_655
O5 Ti0 1.976807 1_555
O5 Ti2 1.980547 1_655
O5 Y0 2.515799 1_655
O5 Y1 2.542118 1_554
O5 Sr3 2.864469 1_655
O5 Sr1 2.930386 1_554
O6 Sr0 2.467729 1_555
O6 Sr3 2.467738 1_555
O7 Ti0 1.979449 1_556
O7 Ti2 1.981454 1_555
O7 Y1 2.497099 1_555
O7 Y0 2.527518 1_555
O7 Sr3 2.774577 1_555
O7 Sr1 2.791804 1_555
O8 Ti2 1.979455 1_566
O8 Ti0 1.981454 1_556
O8 Y0 2.497103 1_555
O8 Y1 2.527528 1_566
O8 Sr1 2.774571 1_566
O8 Sr3 2.791793 1_555
O9 Sr3 2.476757 1_555
O9 Sr1 2.646689 1_566
O9 Ti0 2.734995 1_556
O9 Sr1 2.982082 1_555
O9 Sr3 3.266984 1_656
O10 Sr0 2.476752 1_555
O10 Sr2 2.646684 1_566
O10 Ti1 2.735018 1_556
O10 Sr2 2.982083 1_555
O10 Sr0 3.266985 1_656
O11 Sr2 2.476757 1_555
O11 Sr0 2.646684 1_555
O11 Ti3 2.735007 1_555
O11 Sr0 2.982083 1_544
O11 Sr2 3.266980 1_454
O12 Ti1 1.976814 1_455
O12 Ti3 1.980544 1_555
O12 Y1 2.515807 1_565
O12 Y0 2.542125 1_554
O12 Sr0 2.864469 1_555
O12 Sr2 2.930386 1_454
O13 Ti3 1.976811 1_556
O13 Ti1 1.980548 1_445
O13 Y0 2.515802 1_555
O13 Y1 2.542115 1_555
O13 Sr2 2.864477 1_455
O13 Sr0 2.930395 1_545
