# generated using pymatgen
data_Li7Mn2(CoO4)3
_symmetry_space_group_name_H-M   'P 1'
_cell_length_a   5.90715000
_cell_length_b   12.59612773
_cell_length_c   6.56479131
_cell_angle_alpha   78.43590966
_cell_angle_beta   115.93389180
_cell_angle_gamma   89.87184101
_symmetry_Int_Tables_number   1
_chemical_formula_structural   Li7Mn2(CoO4)3
_chemical_formula_sum   'Li14 Mn4 Co6 O24'
_cell_volume   428.11528303
_cell_formula_units_Z   2
loop_
 _symmetry_equiv_pos_site_id
 _symmetry_equiv_pos_as_xyz
  1  'x, y, z'
loop_
 _atom_site_type_symbol
 _atom_site_label
 _atom_site_symmetry_multiplicity
 _atom_site_fract_x
 _atom_site_fract_y
 _atom_site_fract_z
 _atom_site_occupancy
  Li  Li0  1  0.16667300  0.33333300  0.33332700  1
  Li  Li1  1  0.16667100  0.83333500  0.83332700  1
  Li  Li2  1  0.41190200  0.33121700  0.83181800  1
  Li  Li3  1  0.40949300  0.83143700  0.33247200  1
  Li  Li4  1  0.92143400  0.33544900  0.83485000  1
  Li  Li5  1  0.92384000  0.83523000  0.33419700  1
  Li  Li6  1  0.09356000  0.17020800  0.66435300  1
  Li  Li7  1  0.09208000  0.67023700  0.16350300  1
  Li  Li8  1  0.23976700  0.49645900  0.00232200  1
  Li  Li9  1  0.24124900  0.99642800  0.50317200  1
  Li  Li10  1  0.76477100  0.49659200  0.00971400  1
  Li  Li11  1  0.76400200  0.99697000  0.51062800  1
  Li  Li12  1  0.56855800  0.17007700  0.65694700  1
  Li  Li13  1  0.56932600  0.66969800  0.15603200  1
  Mn  Mn0  1  0.00218600  0.49865100  0.49618500  1
  Mn  Mn1  1  0.00084000  0.99899000  0.99538300  1
  Mn  Mn2  1  0.33115200  0.16801400  0.17050000  1
  Mn  Mn3  1  0.33248700  0.66767800  0.67128300  1
  Co  Co0  1  0.66667600  0.83333400  0.83333600  1
  Co  Co1  1  0.66667200  0.33333000  0.33333300  1
  Co  Co2  1  0.49497800  0.49599000  0.49490100  1
  Co  Co3  1  0.49478800  0.99574100  0.99626200  1
  Co  Co4  1  0.83835000  0.17067500  0.17176000  1
  Co  Co5  1  0.83854800  0.67092800  0.67040300  1
  O  O0  1  0.02935600  0.34511200  0.57046800  1
  O  O1  1  0.02861500  0.84439600  0.06981500  1
  O  O2  1  0.30397200  0.32155200  0.09617700  1
  O  O3  1  0.30471600  0.82227500  0.59683300  1
  O  O4  1  0.67964700  0.16636900  0.39553100  1
  O  O5  1  0.68007800  0.66524100  0.89758500  1
  O  O6  1  0.65324600  0.00143500  0.76905600  1
  O  O7  1  0.65368500  0.50030100  0.27112600  1
  O  O8  1  0.34858000  0.00539700  0.22709300  1
  O  O9  1  0.35014100  0.50583900  0.72702200  1
  O  O10  1  0.98319800  0.16082600  0.93967000  1
  O  O11  1  0.98475200  0.66126600  0.43959200  1
  O  O12  1  0.55146200  0.34156800  0.57084700  1
  O  O13  1  0.55252200  0.84322900  0.06715900  1
  O  O14  1  0.78187000  0.32509900  0.09581400  1
  O  O15  1  0.78082900  0.82343800  0.59952000  1
  O  O16  1  0.20700600  0.16426600  0.39603400  1
  O  O17  1  0.20786900  0.66454400  0.89590500  1
  O  O18  1  0.12545600  0.00212500  0.77074400  1
  O  O19  1  0.12631500  0.50239400  0.27062400  1
  O  O20  1  0.87277300  0.00740900  0.22688900  1
  O  O21  1  0.87406900  0.50781800  0.72655300  1
  O  O22  1  0.45927200  0.15884700  0.94013100  1
  O  O23  1  0.46057100  0.65925400  0.43979800  1
loop_
_geom_bond_atom_site_label_1
_geom_bond_atom_site_label_2
_geom_bond_distance
_geom_bond_site_symmetry_2
Li0 O2 2.073661 1_555
Li0 O0 2.073677 1_555
Li0 O19 2.078835 1_555
Li0 O16 2.078904 1_555
Li0 O12 2.138812 1_555
Li0 O14 2.138859 1_455
Li1 O3 2.070817 1_555
Li1 O1 2.070830 1_556
Li1 O18 2.075658 1_565
Li1 O17 2.075670 1_555
Li1 O15 2.141119 1_455
Li1 O13 2.141194 1_556
Li2 O2 2.077632 1_556
Li2 O14 2.102036 1_556
Li2 O22 2.121855 1_555
Li2 O0 2.137163 1_555
Li2 O9 2.148174 1_555
Li2 O12 2.185875 1_555
Li3 O3 2.065868 1_555
Li3 O15 2.111826 1_555
Li3 O23 2.118913 1_555
Li3 O1 2.134042 1_555
Li3 O8 2.140210 1_565
Li3 O13 2.225643 1_555
Li4 O0 2.077747 1_655
Li4 O12 2.102068 1_555
Li4 O21 2.121835 1_555
Li4 O2 2.137079 1_656
Li4 O10 2.148193 1_555
Li4 O14 2.185850 1_556
Li5 O1 2.065986 1_655
Li5 O13 2.111730 1_555
Li5 O20 2.118858 1_565
Li5 O3 2.133992 1_655
Li5 O11 2.140263 1_555
Li5 O15 2.225628 1_555
Li6 O18 2.072698 1_555
Li6 O22 2.106875 1_555
Li6 O0 2.150540 1_555
Li6 O16 2.154656 1_555
Li6 O10 2.156613 1_455
Li6 O4 2.314215 1_455
Li7 O19 2.069485 1_555
Li7 O23 2.119417 1_555
Li7 O1 2.141254 1_555
Li7 O11 2.150130 1_455
Li7 O17 2.158777 1_554
Li7 O5 2.302869 1_454
Li8 O17 2.072737 1_554
Li8 O21 2.106801 1_454
Li8 O2 2.150576 1_555
Li8 O19 2.154555 1_555
Li8 O9 2.156557 1_554
Li8 O7 2.314207 1_555
Li9 O16 2.069433 1_565
Li9 O20 2.119330 1_465
Li9 O3 2.141180 1_555
Li9 O8 2.150082 1_565
Li9 O18 2.158639 1_565
Li9 O6 2.302806 1_565
Li10 O5 2.085927 1_554
Li10 O19 2.086045 1_655
Li10 O7 2.096383 1_555
Li10 O14 2.110803 1_555
Li10 O21 2.199342 1_554
Li10 O9 2.322268 1_554
Li11 O6 2.078062 1_565
Li11 O18 2.082085 1_665
Li11 O4 2.095644 1_565
Li11 O15 2.136624 1_555
Li11 O20 2.201985 1_565
Li11 O8 2.328568 1_565
Li12 O6 2.085835 1_555
Li12 O16 2.086107 1_555
Li12 O4 2.096418 1_555
Li12 O12 2.110779 1_555
Li12 O22 2.199435 1_555
Li12 O10 2.322371 1_555
Li13 O5 2.078147 1_554
Li13 O17 2.082122 1_554
Li13 O7 2.095621 1_555
Li13 O13 2.136616 1_555
Li13 O23 2.202086 1_555
Li13 O11 2.328631 1_555
Mn0 O0 1.885720 1_555
Mn0 O19 1.911643 1_555
Mn0 O7 1.936102 1_455
Mn0 O9 1.964900 1_555
Mn0 O21 1.985926 1_455
Mn0 O11 2.001183 1_455
Mn1 O1 1.898569 1_556
Mn1 O18 1.909057 1_565
Mn1 O6 1.933259 1_465
Mn1 O8 1.963882 1_566
Mn1 O20 1.990781 1_466
Mn1 O10 1.991715 1_465
Mn2 O2 1.885710 1_555
Mn2 O16 1.911541 1_555
Mn2 O4 1.936031 1_555
Mn2 O10 1.964881 1_454
Mn2 O22 1.985944 1_554
Mn2 O8 2.001209 1_555
Mn3 O3 1.898608 1_555
Mn3 O17 1.908963 1_555
Mn3 O5 1.933211 1_555
Mn3 O11 1.963833 1_455
Mn3 O23 1.990736 1_555
Mn3 O9 1.991743 1_555
Co0 O15 1.951405 1_555
Co0 O13 1.951450 1_556
Co0 O1 2.045859 1_656
Co0 O3 2.045989 1_555
Co0 O5 2.068625 1_555
Co0 O6 2.068712 1_565
Co1 O14 1.974259 1_555
Co1 O12 1.974295 1_555
Co1 O0 2.052394 1_655
Co1 O2 2.052494 1_555
Co1 O4 2.055016 1_555
Co1 O7 2.055135 1_555
Co2 O12 1.898992 1_555
Co2 O23 2.009204 1_555
Co2 O19 2.015923 1_555
Co2 O7 2.052510 1_555
Co2 O9 2.070050 1_555
Co2 O21 2.112632 1_555
Co3 O13 1.877009 1_556
Co3 O22 2.006916 1_565
Co3 O18 2.021000 1_565
Co3 O8 2.067655 1_566
Co3 O6 2.069936 1_565
Co3 O20 2.105507 1_566
Co4 O14 1.899015 1_555
Co4 O20 2.009219 1_555
Co4 O16 2.015879 1_655
Co4 O4 2.052475 1_555
Co4 O10 2.069908 1_554
Co4 O22 2.112534 1_554
Co5 O15 1.876982 1_555
Co5 O21 2.006958 1_555
Co5 O17 2.020924 1_655
Co5 O11 2.067531 1_555
Co5 O5 2.069857 1_555
Co5 O23 2.105449 1_555
