# generated using pymatgen
data_NdSi2Ru3
_symmetry_space_group_name_H-M   'P 1'
_cell_length_a   11.30500343
_cell_length_b   11.30500343
_cell_length_c   7.23803200
_cell_angle_alpha   90.00000000
_cell_angle_beta   90.00000000
_cell_angle_gamma   119.99999669
_symmetry_Int_Tables_number   1
_chemical_formula_structural   NdSi2Ru3
_chemical_formula_sum   'Nd8 Si16 Ru24'
_cell_volume   801.11071808
_cell_formula_units_Z   8
loop_
 _symmetry_equiv_pos_site_id
 _symmetry_equiv_pos_as_xyz
  1  'x, y, z'
loop_
 _atom_site_type_symbol
 _atom_site_label
 _atom_site_symmetry_multiplicity
 _atom_site_fract_x
 _atom_site_fract_y
 _atom_site_fract_z
 _atom_site_occupancy
  Nd  Nd0_0  1  0.00000000  0.00000000  0.00000000  1
  Nd  Nd0_1  1  0.00000000  0.00000000  0.50000000  1
  Nd  Nd0_2  1  0.00000000  0.50000000  0.00000000  1
  Nd  Nd0_3  1  0.00000000  0.50000000  0.50000000  1
  Nd  Nd0_4  1  0.50000000  0.00000000  0.00000000  1
  Nd  Nd0_5  1  0.50000000  0.00000000  0.50000000  1
  Nd  Nd0_6  1  0.50000000  0.50000000  0.00000000  1
  Nd  Nd0_7  1  0.50000000  0.50000000  0.50000000  1
  Si  Si0_0  1  0.16666650  0.33333350  0.00000000  1
  Si  Si0_1  1  0.16666650  0.33333350  0.50000000  1
  Si  Si0_2  1  0.16666650  0.83333350  0.00000000  1
  Si  Si0_3  1  0.16666650  0.83333350  0.50000000  1
  Si  Si0_4  1  0.66666650  0.33333350  0.00000000  1
  Si  Si0_5  1  0.66666650  0.33333350  0.50000000  1
  Si  Si0_6  1  0.66666650  0.83333350  0.00000000  1
  Si  Si0_7  1  0.66666650  0.83333350  0.50000000  1
  Si  Si1_0  1  0.33333350  0.16666650  0.00000000  1
  Si  Si1_1  1  0.33333350  0.16666650  0.50000000  1
  Si  Si1_2  1  0.33333350  0.66666650  0.00000000  1
  Si  Si1_3  1  0.33333350  0.66666650  0.50000000  1
  Si  Si1_4  1  0.83333350  0.16666650  0.00000000  1
  Si  Si1_5  1  0.83333350  0.16666650  0.50000000  1
  Si  Si1_6  1  0.83333350  0.66666650  0.00000000  1
  Si  Si1_7  1  0.83333350  0.66666650  0.50000000  1
  Ru  Ru0_0  1  0.00000000  0.25000000  0.25000000  1
  Ru  Ru0_1  1  0.00000000  0.25000000  0.75000000  1
  Ru  Ru0_2  1  0.00000000  0.75000000  0.25000000  1
  Ru  Ru0_3  1  0.00000000  0.75000000  0.75000000  1
  Ru  Ru0_4  1  0.50000000  0.25000000  0.25000000  1
  Ru  Ru0_5  1  0.50000000  0.25000000  0.75000000  1
  Ru  Ru0_6  1  0.50000000  0.75000000  0.25000000  1
  Ru  Ru0_7  1  0.50000000  0.75000000  0.75000000  1
  Ru  Ru1_0  1  0.25000000  0.25000000  0.25000000  1
  Ru  Ru1_1  1  0.25000000  0.25000000  0.75000000  1
  Ru  Ru1_2  1  0.25000000  0.75000000  0.25000000  1
  Ru  Ru1_3  1  0.25000000  0.75000000  0.75000000  1
  Ru  Ru1_4  1  0.75000000  0.25000000  0.25000000  1
  Ru  Ru1_5  1  0.75000000  0.25000000  0.75000000  1
  Ru  Ru1_6  1  0.75000000  0.75000000  0.25000000  1
  Ru  Ru1_7  1  0.75000000  0.75000000  0.75000000  1
  Ru  Ru2_0  1  0.25000000  0.00000000  0.25000000  1
  Ru  Ru2_1  1  0.25000000  0.00000000  0.75000000  1
  Ru  Ru2_2  1  0.25000000  0.50000000  0.25000000  1
  Ru  Ru2_3  1  0.25000000  0.50000000  0.75000000  1
  Ru  Ru2_4  1  0.75000000  0.00000000  0.25000000  1
  Ru  Ru2_5  1  0.75000000  0.00000000  0.75000000  1
  Ru  Ru2_6  1  0.75000000  0.50000000  0.25000000  1
  Ru  Ru2_7  1  0.75000000  0.50000000  0.75000000  1
loop_
_geom_bond_atom_site_label_1
_geom_bond_atom_site_label_2
_geom_bond_distance
_geom_bond_site_symmetry_2
Nd0_0 Si1_4 3.263470 1_455
Nd0_0 Si0_2 3.263470 1_545
Nd0_0 Si0_6 3.263475 1_445
Nd0_0 Si1_6 3.263475 1_445
Nd0_0 Si1_0 3.263475 1_555
Nd0_0 Si0_0 3.263475 1_555
Nd0_0 Ru0_3 3.355892 1_544
Nd0_0 Ru2_5 3.355892 1_454
Nd0_0 Ru0_2 3.355892 1_545
Nd0_0 Ru2_4 3.355892 1_455
Nd0_0 Ru0_0 3.355892 1_555
Nd0_0 Ru0_1 3.355892 1_554
Nd0_0 Ru2_0 3.355892 1_555
Nd0_0 Ru2_1 3.355892 1_554
Nd0_0 Ru1_6 3.355892 1_445
Nd0_0 Ru1_7 3.355892 1_444
Nd0_0 Ru1_1 3.355892 1_554
Nd0_0 Ru1_0 3.355892 1_555
Nd0_0 Nd0_1 3.619016 1_555
Nd0_0 Nd0_1 3.619016 1_554
Nd0_1 Si1_5 3.263470 1_455
Nd0_1 Si0_3 3.263470 1_545
Nd0_1 Si1_7 3.263475 1_445
Nd0_1 Si0_7 3.263475 1_445
Nd0_1 Si1_1 3.263475 1_555
Nd0_1 Si0_1 3.263475 1_555
Nd0_1 Ru2_5 3.355892 1_455
Nd0_1 Ru2_4 3.355892 1_455
Nd0_1 Ru0_3 3.355892 1_545
Nd0_1 Ru0_2 3.355892 1_545
Nd0_1 Ru0_0 3.355892 1_555
Nd0_1 Ru2_1 3.355892 1_555
Nd0_1 Ru0_1 3.355892 1_555
Nd0_1 Ru2_0 3.355892 1_555
Nd0_1 Ru1_6 3.355892 1_445
Nd0_1 Ru1_7 3.355892 1_445
Nd0_1 Ru1_0 3.355892 1_555
Nd0_1 Ru1_1 3.355892 1_555
Nd0_2 Si0_0 3.263470 1_555
Nd0_2 Si1_6 3.263470 1_455
Nd0_2 Si0_4 3.263475 1_455
Nd0_2 Si1_4 3.263475 1_455
Nd0_2 Si1_2 3.263475 1_555
Nd0_2 Si0_2 3.263475 1_555
Nd0_2 Ru2_7 3.355892 1_454
Nd0_2 Ru0_0 3.355892 1_555
Nd0_2 Ru2_2 3.355892 1_555
Nd0_2 Ru2_6 3.355892 1_455
Nd0_2 Ru0_1 3.355892 1_554
Nd0_2 Ru2_3 3.355892 1_554
Nd0_2 Ru0_2 3.355892 1_555
Nd0_2 Ru0_3 3.355892 1_554
Nd0_2 Ru1_4 3.355892 1_455
Nd0_2 Ru1_2 3.355892 1_555
Nd0_2 Ru1_5 3.355892 1_454
Nd0_2 Ru1_3 3.355892 1_554
Nd0_2 Nd0_3 3.619016 1_554
Nd0_2 Nd0_3 3.619016 1_555
Nd0_3 Si0_1 3.263470 1_555
Nd0_3 Si1_7 3.263470 1_455
Nd0_3 Si0_5 3.263475 1_455
Nd0_3 Si1_3 3.263475 1_555
Nd0_3 Si1_5 3.263475 1_455
Nd0_3 Si0_3 3.263475 1_555
Nd0_3 Ru0_0 3.355892 1_555
Nd0_3 Ru2_2 3.355892 1_555
Nd0_3 Ru2_6 3.355892 1_455
Nd0_3 Ru2_3 3.355892 1_555
Nd0_3 Ru2_7 3.355892 1_455
Nd0_3 Ru0_1 3.355892 1_555
Nd0_3 Ru0_2 3.355892 1_555
Nd0_3 Ru0_3 3.355892 1_555
Nd0_3 Ru1_4 3.355892 1_455
Nd0_3 Ru1_3 3.355892 1_555
Nd0_3 Ru1_2 3.355892 1_555
Nd0_3 Ru1_5 3.355892 1_455
Nd0_4 Si1_0 3.263470 1_555
Nd0_4 Si0_6 3.263470 1_545
Nd0_4 Si1_2 3.263475 1_545
Nd0_4 Si0_4 3.263475 1_555
Nd0_4 Si0_2 3.263475 1_545
Nd0_4 Si1_4 3.263475 1_555
Nd0_4 Ru0_6 3.355892 1_545
Nd0_4 Ru0_4 3.355892 1_555
Nd0_4 Ru0_7 3.355892 1_544
Nd0_4 Ru2_0 3.355892 1_555
Nd0_4 Ru0_5 3.355892 1_554
Nd0_4 Ru2_1 3.355892 1_554
Nd0_4 Ru2_5 3.355892 1_554
Nd0_4 Ru2_4 3.355892 1_555
Nd0_4 Ru1_5 3.355892 1_554
Nd0_4 Ru1_4 3.355892 1_555
Nd0_4 Ru1_3 3.355892 1_544
Nd0_4 Ru1_2 3.355892 1_545
Nd0_4 Nd0_5 3.619016 1_554
Nd0_4 Nd0_5 3.619016 1_555
Nd0_5 Si1_1 3.263470 1_555
Nd0_5 Si0_7 3.263470 1_545
Nd0_5 Si1_3 3.263475 1_545
Nd0_5 Si0_5 3.263475 1_555
Nd0_5 Si0_3 3.263475 1_545
Nd0_5 Si1_5 3.263475 1_555
Nd0_5 Ru0_7 3.355892 1_545
Nd0_5 Ru0_6 3.355892 1_545
Nd0_5 Ru0_5 3.355892 1_555
Nd0_5 Ru0_4 3.355892 1_555
Nd0_5 Ru2_1 3.355892 1_555
Nd0_5 Ru2_0 3.355892 1_555
Nd0_5 Ru2_5 3.355892 1_555
Nd0_5 Ru2_4 3.355892 1_555
Nd0_5 Ru1_5 3.355892 1_555
Nd0_5 Ru1_3 3.355892 1_545
Nd0_5 Ru1_4 3.355892 1_555
Nd0_5 Ru1_2 3.355892 1_545
Nd0_6 Si0_4 3.263470 1_555
Nd0_6 Si1_2 3.263470 1_555
Nd0_6 Si1_0 3.263475 1_555
Nd0_6 Si0_0 3.263475 1_555
Nd0_6 Si1_6 3.263475 1_555
Nd0_6 Si0_6 3.263475 1_555
Nd0_6 Ru2_6 3.355892 1_555
Nd0_6 Ru2_2 3.355892 1_555
Nd0_6 Ru0_6 3.355892 1_555
Nd0_6 Ru2_7 3.355892 1_554
Nd0_6 Ru2_3 3.355892 1_554
Nd0_6 Ru0_7 3.355892 1_554
Nd0_6 Ru0_4 3.355892 1_555
Nd0_6 Ru0_5 3.355892 1_554
Nd0_6 Ru1_1 3.355892 1_554
Nd0_6 Ru1_0 3.355892 1_555
Nd0_6 Ru1_6 3.355892 1_555
Nd0_6 Ru1_7 3.355892 1_554
Nd0_6 Nd0_7 3.619016 1_555
Nd0_6 Nd0_7 3.619016 1_554
Nd0_7 Si1_3 3.263470 1_555
Nd0_7 Si0_5 3.263470 1_555
Nd0_7 Si1_1 3.263475 1_555
Nd0_7 Si0_1 3.263475 1_555
Nd0_7 Si1_7 3.263475 1_555
Nd0_7 Si0_7 3.263475 1_555
Nd0_7 Ru2_6 3.355892 1_555
Nd0_7 Ru0_7 3.355892 1_555
Nd0_7 Ru2_2 3.355892 1_555
Nd0_7 Ru0_6 3.355892 1_555
Nd0_7 Ru2_3 3.355892 1_555
Nd0_7 Ru0_5 3.355892 1_555
Nd0_7 Ru0_4 3.355892 1_555
Nd0_7 Ru2_7 3.355892 1_555
Nd0_7 Ru1_0 3.355892 1_555
Nd0_7 Ru1_1 3.355892 1_555
Nd0_7 Ru1_6 3.355892 1_555
Nd0_7 Ru1_7 3.355892 1_555
Ru0_0 Si1_5 2.436571 1_455
Ru0_0 Si1_4 2.436571 1_455
Ru0_0 Si0_1 2.436571 1_555
Ru0_0 Si0_0 2.436571 1_555
Ru0_0 Ru1_4 2.826251 1_455
Ru0_0 Ru1_0 2.826251 1_555
Ru0_0 Ru2_4 2.826251 1_455
Ru0_0 Ru2_2 2.826251 1_555
Ru0_1 Si1_5 2.436571 1_455
Ru0_1 Si1_4 2.436571 1_456
Ru0_1 Si0_1 2.436571 1_555
Ru0_1 Si0_0 2.436571 1_556
Ru0_1 Ru1_1 2.826251 1_555
Ru0_1 Ru1_5 2.826251 1_455
Ru0_1 Ru2_5 2.826251 1_455
Ru0_1 Ru2_3 2.826251 1_555
Ru0_2 Si0_3 2.436571 1_555
Ru0_2 Si0_2 2.436571 1_555
Ru0_2 Si1_7 2.436571 1_455
Ru0_2 Si1_6 2.436571 1_455
Ru0_2 Ru1_6 2.826251 1_455
Ru0_2 Ru1_2 2.826251 1_555
Ru0_2 Ru2_0 2.826251 1_565
Ru0_2 Ru2_6 2.826251 1_455
Ru0_3 Si0_2 2.436571 1_556
Ru0_3 Si0_3 2.436571 1_555
Ru0_3 Si1_7 2.436571 1_455
Ru0_3 Si1_6 2.436571 1_456
Ru0_3 Ru1_7 2.826251 1_455
Ru0_3 Ru1_3 2.826251 1_555
Ru0_3 Ru2_1 2.826251 1_565
Ru0_3 Ru2_7 2.826251 1_455
Ru0_4 Si0_4 2.436571 1_555
Ru0_4 Si0_5 2.436571 1_555
Ru0_4 Si1_0 2.436571 1_555
Ru0_4 Si1_1 2.436571 1_555
Ru0_4 Ru1_4 2.826251 1_555
Ru0_4 Ru1_0 2.826251 1_555
Ru0_4 Ru2_6 2.826251 1_555
Ru0_4 Ru2_0 2.826251 1_555
Ru0_5 Si0_4 2.436571 1_556
Ru0_5 Si0_5 2.436571 1_555
Ru0_5 Si1_0 2.436571 1_556
Ru0_5 Si1_1 2.436571 1_555
Ru0_5 Ru1_5 2.826251 1_555
Ru0_5 Ru1_1 2.826251 1_555
Ru0_5 Ru2_7 2.826251 1_555
Ru0_5 Ru2_1 2.826251 1_555
Ru0_6 Si1_3 2.436571 1_555
Ru0_6 Si1_2 2.436571 1_555
Ru0_6 Si0_7 2.436571 1_555
Ru0_6 Si0_6 2.436571 1_555
Ru0_6 Ru1_2 2.826251 1_555
Ru0_6 Ru1_6 2.826251 1_555
Ru0_6 Ru2_2 2.826251 1_555
Ru0_6 Ru2_4 2.826251 1_565
Ru0_7 Si1_2 2.436571 1_556
Ru0_7 Si1_3 2.436571 1_555
Ru0_7 Si0_7 2.436571 1_555
Ru0_7 Si0_6 2.436571 1_556
Ru0_7 Ru1_3 2.826251 1_555
Ru0_7 Ru1_7 2.826251 1_555
Ru0_7 Ru2_3 2.826251 1_555
Ru0_7 Ru2_5 2.826251 1_565
Ru1_0 Si1_0 2.436574 1_555
Ru1_0 Si0_1 2.436574 1_555
Ru1_0 Si1_1 2.436574 1_555
Ru1_0 Si0_0 2.436574 1_555
Ru1_0 Ru2_0 2.826251 1_555
Ru1_0 Ru2_2 2.826251 1_555
Ru1_1 Si0_1 2.436574 1_555
Ru1_1 Si1_0 2.436574 1_556
Ru1_1 Si1_1 2.436574 1_555
Ru1_1 Si0_0 2.436574 1_556
Ru1_1 Ru2_1 2.826251 1_555
Ru1_1 Ru2_3 2.826251 1_555
Ru1_2 Si1_2 2.436574 1_555
Ru1_2 Si1_3 2.436574 1_555
Ru1_2 Si0_3 2.436574 1_555
Ru1_2 Si0_2 2.436574 1_555
Ru1_2 Ru2_2 2.826251 1_555
Ru1_2 Ru2_0 2.826251 1_565
Ru1_3 Si1_2 2.436574 1_556
Ru1_3 Si1_3 2.436574 1_555
Ru1_3 Si0_2 2.436574 1_556
Ru1_3 Si0_3 2.436574 1_555
Ru1_3 Ru2_3 2.826251 1_555
Ru1_3 Ru2_1 2.826251 1_565
Ru1_4 Si0_4 2.436574 1_555
Ru1_4 Si0_5 2.436574 1_555
Ru1_4 Si1_4 2.436574 1_555
Ru1_4 Si1_5 2.436574 1_555
Ru1_4 Ru2_6 2.826251 1_555
Ru1_4 Ru2_4 2.826251 1_555
Ru1_5 Si0_4 2.436574 1_556
Ru1_5 Si0_5 2.436574 1_555
Ru1_5 Si1_5 2.436574 1_555
Ru1_5 Si1_4 2.436574 1_556
Ru1_5 Ru2_7 2.826251 1_555
Ru1_5 Ru2_5 2.826251 1_555
Ru1_6 Si1_7 2.436574 1_555
Ru1_6 Si0_6 2.436574 1_555
Ru1_6 Si0_7 2.436574 1_555
Ru1_6 Si1_6 2.436574 1_555
Ru1_6 Ru2_4 2.826251 1_565
Ru1_6 Ru2_6 2.826251 1_555
Ru1_7 Si1_7 2.436574 1_555
Ru1_7 Si1_6 2.436574 1_556
Ru1_7 Si0_6 2.436574 1_556
Ru1_7 Si0_7 2.436574 1_555
Ru1_7 Ru2_5 2.826251 1_565
Ru1_7 Ru2_7 2.826251 1_555
Ru2_0 Si0_3 2.436571 1_545
Ru2_0 Si0_2 2.436571 1_545
Ru2_0 Si1_0 2.436571 1_555
Ru2_0 Si1_1 2.436571 1_555
Ru2_1 Si0_3 2.436571 1_545
Ru2_1 Si0_2 2.436571 1_546
Ru2_1 Si1_0 2.436571 1_556
Ru2_1 Si1_1 2.436571 1_555
Ru2_2 Si1_2 2.436571 1_555
Ru2_2 Si1_3 2.436571 1_555
Ru2_2 Si0_0 2.436571 1_555
Ru2_2 Si0_1 2.436571 1_555
Ru2_3 Si1_2 2.436571 1_556
Ru2_3 Si1_3 2.436571 1_555
Ru2_3 Si0_1 2.436571 1_555
Ru2_3 Si0_0 2.436571 1_556
Ru2_4 Si1_5 2.436571 1_555
Ru2_4 Si1_4 2.436571 1_555
Ru2_4 Si0_6 2.436571 1_545
Ru2_4 Si0_7 2.436571 1_545
Ru2_5 Si1_5 2.436571 1_555
Ru2_5 Si1_4 2.436571 1_556
Ru2_5 Si0_7 2.436571 1_545
Ru2_5 Si0_6 2.436571 1_546
Ru2_6 Si0_5 2.436571 1_555
Ru2_6 Si0_4 2.436571 1_555
Ru2_6 Si1_7 2.436571 1_555
Ru2_6 Si1_6 2.436571 1_555
Ru2_7 Si0_5 2.436571 1_555
Ru2_7 Si0_4 2.436571 1_556
Ru2_7 Si1_7 2.436571 1_555
Ru2_7 Si1_6 2.436571 1_556
